CHEMBL2113182


 36 39  0  0  0  0  0  0  0  0999 V2000
  -12.5189   -2.8334  -15.2842 N   0  0  0  0  0  0  0  0  0  0  0  0
  -11.7025   -2.5586  -15.8422 H   0  0  0  0  0  0  0  0  0  0  0  0
  -13.8094   -7.4036  -13.3551 C   0  0  0  0  0  0  0  0  0  0  0  0
  -14.0011   -7.3975  -14.7589 C   0  0  0  0  0  0  0  0  0  0  0  0
  -13.7825   -6.2884  -15.5677 C   0  0  0  0  0  0  0  0  0  0  0  0
  -14.0373   -6.3545  -16.8873 N   0  0  0  0  0  0  0  0  0  0  0  0
  -13.8147   -5.2444  -17.6044 C   0  0  0  0  0  0  0  0  0  0  0  0
  -13.3345   -4.0901  -17.1368 N   0  0  0  0  0  0  0  0  0  0  0  0
  -13.0686   -4.0341  -15.8177 C   0  0  0  0  0  0  0  0  0  0  0  0
  -13.3162   -5.1245  -14.9660 C   0  0  0  0  0  0  0  0  0  0  0  0
  -13.1466   -5.1016  -13.5660 C   0  0  0  0  0  0  0  0  0  0  0  0
  -13.3714   -6.2231  -12.7438 C   0  0  0  0  0  0  0  0  0  0  0  0
  -13.1771   -5.8540  -11.4472 O   0  0  0  0  0  0  0  0  0  0  0  0
  -12.7397   -4.5693  -11.0545 C   0  0  0  0  0  0  0  0  0  0  0  0
  -14.1464   -8.6315  -12.8353 O   0  0  0  0  0  0  0  0  0  0  0  0
  -13.2450   -9.2257  -11.9253 C   0  0  0  0  0  0  0  0  0  0  0  0
  -12.2472  -10.1864  -12.5568 C   0  0  0  0  0  0  0  0  0  0  0  0
  -10.9852   -8.7124  -11.1789 C   0  0  0  0  0  0  0  0  0  0  0  0
  -10.9611   -9.6361  -12.2493 O   0  0  0  0  0  0  0  0  0  0  0  0
  -13.3161   -1.7297  -14.9984 C   0  0  0  0  0  0  0  0  0  0  0  0
  -13.9780   -1.5430  -13.8512 C   0  0  0  0  0  0  0  0  0  0  0  0
  -14.8908   -0.4172  -13.6074 C   0  0  0  0  0  0  0  0  0  0  0  0
  -15.4701   -0.3458  -12.5294 O   0  0  0  0  0  0  0  0  0  0  0  0
  -15.0770    0.5740  -14.7098 C   0  0  0  0  0  0  0  0  0  0  0  0
  -14.3692    0.4285  -15.8381 C   0  0  0  0  0  0  0  0  0  0  0  0
  -13.4199   -0.6764  -16.0561 C   0  0  0  0  0  0  0  0  0  0  0  0
  -12.7463   -0.7432  -17.0809 O   0  0  0  0  0  0  0  0  0  0  0  0
  -15.9702    1.6330  -14.6403 O   0  0  0  0  0  0  0  0  0  0  0  0
  -16.7390    1.9161  -15.8103 C   0  0  0  0  0  0  0  0  0  0  0  0
  -18.1908    2.0013  -15.3986 C   0  0  0  0  0  0  0  0  0  0  0  0
  -18.9451    0.8302  -15.1894 C   0  0  0  0  0  0  0  0  0  0  0  0
  -20.2844    0.9212  -14.8137 C   0  0  0  0  0  0  0  0  0  0  0  0
  -20.8744    2.1628  -14.6483 C   0  0  0  0  0  0  0  0  0  0  0  0
  -22.1637    2.2453  -14.2957 F   0  0  0  0  0  0  0  0  0  0  0  0
  -20.1478    3.3319  -14.8472 C   0  0  0  0  0  0  0  0  0  0  0  0
  -18.8048    3.2495  -15.2229 C   0  0  0  0  0  0  0  0  0  0  0  0
 18 19  1  0  0  0
 19 17  1  0  0  0
 17 16  1  0  0  0
 16 15  1  0  0  0
 15  3  1  0  0  0
  3  4  1  0  0  0
  3 12  2  0  0  0
  4  5  2  0  0  0
  5  6  1  0  0  0
  5 10  1  0  0  0
  6  7  2  0  0  0
  7  8  1  0  0  0
  8  9  2  0  0  0
  9  1  1  0  0  0
  9 10  1  0  0  0
  1 20  1  0  0  0
  1  2  1  0  0  0
 20 21  2  0  0  0
 20 26  1  0  0  0
 21 22  1  0  0  0
 22 23  2  0  0  0
 22 24  1  0  0  0
 24 28  1  0  0  0
 24 25  2  0  0  0
 28 29  1  0  0  0
 29 30  1  0  0  0
 30 31  1  0  0  0
 30 36  2  0  0  0
 31 32  2  0  0  0
 32 33  1  0  0  0
 33 34  1  0  0  0
 33 35  2  0  0  0
 35 36  1  0  0  0
 25 26  1  0  0  0
 26 27  2  0  0  0
 10 11  2  0  0  0
 11 12  1  0  0  0
 12 13  1  0  0  0
 13 14  1  0  0  0
M  END
> <minimizedAffinity>
-7.74791

$$$$
