CHEMBL546797


 24 27  0  0  0  0  0  0  0  0999 V2000
  -30.6159   -6.8915   -2.9438 O   0  0  0  0  0  0  0  0  0  0  0  0
  -30.2410   -5.5971   -3.3295 N   0  0  0  0  0  0  0  0  0  0  0  0
  -30.0473   -5.4356   -4.6111 C   0  0  0  0  0  0  0  0  0  0  0  0
  -30.7029   -6.7888   -1.9744 H   0  0  0  0  0  0  0  0  0  0  0  0
  -30.1875   -6.4715   -5.6337 C   0  0  0  0  0  0  0  0  0  0  0  0
  -29.2584   -6.7799   -6.5317 N   0  0  0  0  0  0  0  0  0  0  0  0
  -29.7905   -7.7820   -7.3038 C   0  0  0  0  0  0  0  0  0  0  0  0
  -29.2339   -8.4597   -8.3971 C   0  0  0  0  0  0  0  0  0  0  0  0
  -29.9951   -9.4528   -9.0247 C   0  0  0  0  0  0  0  0  0  0  0  0
  -31.2794   -9.7642   -8.5700 C   0  0  0  0  0  0  0  0  0  0  0  0
  -31.8489   -9.0983   -7.4777 C   0  0  0  0  0  0  0  0  0  0  0  0
  -31.0681   -8.1112   -6.8736 C   0  0  0  0  0  0  0  0  0  0  0  0
  -31.2914   -7.2729   -5.8161 N   0  0  0  0  0  0  0  0  0  0  0  0
  -32.1227   -7.2156   -5.2432 H   0  0  0  0  0  0  0  0  0  0  0  0
  -29.6488   -4.1192   -5.1036 C   0  0  0  0  0  0  0  0  0  0  0  0
  -30.0275   -2.9680   -4.5661 N   0  0  0  0  0  0  0  0  0  0  0  0
  -29.4233   -1.9836   -5.3122 C   0  0  0  0  0  0  0  0  0  0  0  0
  -29.4782   -0.5891   -5.1773 C   0  0  0  0  0  0  0  0  0  0  0  0
  -28.7520    0.2022   -6.0781 C   0  0  0  0  0  0  0  0  0  0  0  0
  -27.9885   -0.3825   -7.0923 C   0  0  0  0  0  0  0  0  0  0  0  0
  -27.9243   -1.7717   -7.2436 C   0  0  0  0  0  0  0  0  0  0  0  0
  -28.6572   -2.5322   -6.3317 C   0  0  0  0  0  0  0  0  0  0  0  0
  -28.8235   -3.8793   -6.1819 N   0  0  0  0  0  0  0  0  0  0  0  0
  -28.4172   -4.6145   -6.7497 H   0  0  0  0  0  0  0  0  0  0  0  0
  1  2  1  0  0  0
  1  4  1  0  0  0
  2  3  2  0  0  0
  3  5  1  0  0  0
  3 15  1  0  0  0
  5  6  2  0  0  0
  5 13  1  0  0  0
  6  7  1  0  0  0
  7  8  1  0  0  0
  7 12  2  0  0  0
  8  9  2  0  0  0
  9 10  1  0  0  0
 10 11  2  0  0  0
 11 12  1  0  0  0
 12 13  1  0  0  0
 13 14  1  0  0  0
 15 16  2  0  0  0
 15 23  1  0  0  0
 16 17  1  0  0  0
 17 18  1  0  0  0
 17 22  2  0  0  0
 18 19  2  0  0  0
 19 20  1  0  0  0
 20 21  2  0  0  0
 21 22  1  0  0  0
 22 23  1  0  0  0
 23 24  1  0  0  0
M  END
> <minimizedAffinity>
-8.21570

$$$$
