CHEMBL257789


 32 37  0  0  0  0  0  0  0  0999 V2000
  -30.6235   -9.1648   -7.3737 C   0  0  0  0  0  0  0  0  0  0  0  0
  -29.7592   -8.7617   -8.4013 C   0  0  0  0  0  0  0  0  0  0  0  0
  -29.1747   -7.5165   -8.3874 C   0  0  0  0  0  0  0  0  0  0  0  0
  -29.4715   -6.7096   -7.2964 C   0  0  0  0  0  0  0  0  0  0  0  0
  -28.8092   -5.5651   -6.9372 N   0  0  0  0  0  0  0  0  0  0  0  0
  -29.3417   -5.0764   -5.7948 C   0  0  0  0  0  0  0  0  0  0  0  0
  -28.8624   -4.1838   -4.8708 C   0  0  0  0  0  0  0  0  0  0  0  0
  -29.8435   -3.2203   -4.5442 C   0  0  0  0  0  0  0  0  0  0  0  0
  -30.9484   -3.9503   -4.0196 C   0  0  0  0  0  0  0  0  0  0  0  0
  -31.1909   -5.3612   -4.4288 C   0  0  0  0  0  0  0  0  0  0  0  0
  -30.4561   -5.7912   -5.5721 C   0  0  0  0  0  0  0  0  0  0  0  0
  -30.4430   -6.9853   -6.3106 C   0  0  0  0  0  0  0  0  0  0  0  0
  -31.0222   -8.2713   -6.3435 C   0  0  0  0  0  0  0  0  0  0  0  0
  -31.9511   -6.1302   -3.4598 C   0  0  0  0  0  0  0  0  0  0  0  0
  -32.2389   -5.0637   -2.5147 N   0  0  0  0  0  0  0  0  0  0  0  0
  -31.6792   -3.7952   -2.7801 C   0  0  0  0  0  0  0  0  0  0  0  0
  -31.7736   -2.8723   -1.9725 O   0  0  0  0  0  0  0  0  0  0  0  0
  -29.2681   -1.8586   -4.8573 C   0  0  0  0  0  0  0  0  0  0  0  0
  -29.5579   -0.4916   -4.8175 C   0  0  0  0  0  0  0  0  0  0  0  0
  -28.4357    0.1761   -5.3357 N   0  0  0  0  0  0  0  0  0  0  0  0
  -27.8888    1.5039   -5.1627 C   0  0  0  0  0  0  0  0  0  0  0  0
  -27.6036   -0.6333   -5.9881 N   0  0  0  0  0  0  0  0  0  0  0  0
  -27.9811   -1.8118   -5.5508 C   0  0  0  0  0  0  0  0  0  0  0  0
  -27.0374   -2.9481   -5.7110 C   0  0  0  0  0  0  0  0  0  0  0  0
  -27.4257   -3.9132   -4.6271 C   0  0  0  0  0  0  0  0  0  0  0  0
  -28.0142   -5.1856   -7.4297 H   0  0  0  0  0  0  0  0  0  0  0  0
  -32.5834   -5.2586   -1.5858 H   0  0  0  0  0  0  0  0  0  0  0  0
  -32.2561  -10.8787   -7.7704 N   0  0  0  0  0  0  0  0  0  0  0  0
  -31.0422  -10.5973   -7.4083 C   0  0  0  0  0  0  0  0  0  0  0  0
  -30.0075  -11.6204   -7.0086 C   0  0  0  0  0  0  0  0  0  0  0  0
  -33.6413  -12.4644   -6.8794 C   0  0  0  0  0  0  0  0  0  0  0  0
  -32.5342  -12.2454   -7.7449 O   0  0  0  0  0  0  0  0  0  0  0  0
 31 32  1  0  0  0
 32 28  1  0  0  0
 28 29  2  0  0  0
 29 30  1  0  0  0
 29  1  1  0  0  0
  1  2  1  0  0  0
  1 13  2  0  0  0
  2  3  2  0  0  0
  3  4  1  0  0  0
  4  5  1  0  0  0
  4 12  2  0  0  0
  5  6  1  0  0  0
  5 26  1  0  0  0
  6  7  1  0  0  0
  6 11  2  0  0  0
  7  8  2  0  0  0
  7 25  1  0  0  0
  8  9  1  0  0  0
  8 18  1  0  0  0
  9 10  2  0  0  0
  9 16  1  0  0  0
 10 11  1  0  0  0
 10 14  1  0  0  0
 11 12  1  0  0  0
 12 13  1  0  0  0
 14 15  1  0  0  0
 15 16  1  0  0  0
 15 27  1  0  0  0
 16 17  2  0  0  0
 18 19  2  0  0  0
 18 23  1  0  0  0
 19 20  1  0  0  0
 20 21  1  0  0  0
 20 22  1  0  0  0
 22 23  2  0  0  0
 23 24  1  0  0  0
 24 25  1  0  0  0
M  END
> <minimizedAffinity>
-6.43641

$$$$
