CHEMBL453195


 23 25  0  0  0  0  0  0  0  0999 V2000
  -29.3655   -3.8289   -3.5436 C   0  0  0  0  0  0  0  0  0  0  0  0
  -29.1513   -3.9312   -4.9674 N   0  0  0  0  0  0  0  0  0  0  0  0
  -29.0362   -5.1320   -5.6161 C   0  0  0  0  0  0  0  0  0  0  0  0
  -28.7893   -4.9744   -6.8913 N   0  0  0  0  0  0  0  0  0  0  0  0
  -28.7227   -3.6185   -7.0646 C   0  0  0  0  0  0  0  0  0  0  0  0
  -28.9458   -2.9080   -5.8841 C   0  0  0  0  0  0  0  0  0  0  0  0
  -28.9052   -1.4661   -5.5907 C   0  0  0  0  0  0  0  0  0  0  0  0
  -27.7325   -0.8257   -5.1681 C   0  0  0  0  0  0  0  0  0  0  0  0
  -27.6966    0.5567   -4.9514 C   0  0  0  0  0  0  0  0  0  0  0  0
  -28.8500    1.3179   -5.1050 C   0  0  0  0  0  0  0  0  0  0  0  0
  -30.0376    0.6964   -5.4735 C   0  0  0  0  0  0  0  0  0  0  0  0
  -30.0606   -0.6800   -5.7232 C   0  0  0  0  0  0  0  0  0  0  0  0
  -28.3750   -3.1170   -8.3442 C   0  0  0  0  0  0  0  0  0  0  0  0
  -27.3150   -2.3338   -8.5977 C   0  0  0  0  0  0  0  0  0  0  0  0
  -26.9742   -1.8617   -9.9473 C   0  0  0  0  0  0  0  0  0  0  0  0
  -27.9642   -1.6420  -10.8790 C   0  0  0  0  0  0  0  0  0  0  0  0
  -27.5377   -1.1776  -12.0994 C   0  0  0  0  0  0  0  0  0  0  0  0
  -26.2467   -0.9499  -12.3996 N   0  0  0  0  0  0  0  0  0  0  0  0
  -25.3608   -1.2161  -11.4380 C   0  0  0  0  0  0  0  0  0  0  0  0
  -24.0284   -0.9881  -11.7116 N   0  0  0  0  0  0  0  0  0  0  0  0
  -25.6701   -1.6391  -10.2123 N   0  0  0  0  0  0  0  0  0  0  0  0
  -23.9440   -0.3071  -12.4517 H   0  0  0  0  0  0  0  0  0  0  0  0
  -23.5300   -0.8118  -10.8510 H   0  0  0  0  0  0  0  0  0  0  0  0
  1  2  1  0  0  0
  2  3  1  0  0  0
  2  6  1  0  0  0
  3  4  2  0  0  0
  4  5  1  0  0  0
  5 13  1  0  0  0
  5  6  2  0  0  0
 13 14  2  0  0  0
 14 15  1  0  0  0
 15 16  1  0  0  0
 15 21  2  0  0  0
 16 17  2  0  0  0
 17 18  1  0  0  0
 18 19  2  0  0  0
 19 20  1  0  0  0
 19 21  1  0  0  0
 20 22  1  0  0  0
 20 23  1  0  0  0
  6  7  1  0  0  0
  7  8  1  0  0  0
  7 12  2  0  0  0
  8  9  2  0  0  0
  9 10  1  0  0  0
 10 11  2  0  0  0
 11 12  1  0  0  0
M  END
> <minimizedAffinity>
-7.82422

$$$$
