CHEMBL1254671


 41 45  0  0  0  0  0  0  0  0999 V2000
  -16.2601   -0.5298  -14.3817 N   0  0  0  0  0  0  0  0  0  0  0  0
  -15.5451   -1.0343  -13.3011 C   0  0  0  0  0  0  0  0  0  0  0  0
  -14.6491   -0.4561  -12.7007 O   0  0  0  0  0  0  0  0  0  0  0  0
  -15.9316   -2.3390  -13.0247 N   0  0  0  0  0  0  0  0  0  0  0  0
  -17.1304   -0.9924  -14.6096 H   0  0  0  0  0  0  0  0  0  0  0  0
  -16.2562   -2.8443  -13.8365 H   0  0  0  0  0  0  0  0  0  0  0  0
  -15.5422    3.0588  -16.5493 C   0  0  0  0  0  0  0  0  0  0  0  0
  -14.5969    2.0299  -16.5512 C   0  0  0  0  0  0  0  0  0  0  0  0
  -14.8162    0.8540  -15.8264 C   0  0  0  0  0  0  0  0  0  0  0  0
  -15.9980    0.6642  -15.1075 C   0  0  0  0  0  0  0  0  0  0  0  0
  -16.9678    1.6879  -15.1518 C   0  0  0  0  0  0  0  0  0  0  0  0
  -18.4837    1.5079  -14.3341 Cl  0  0  0  0  0  0  0  0  0  0  0  0
  -16.7441    2.8780  -15.8681 C   0  0  0  0  0  0  0  0  0  0  0  0
  -15.3863    4.2311  -17.2616 O   0  0  0  0  0  0  0  0  0  0  0  0
  -15.2671    5.8565  -19.8846 C   0  0  0  0  0  0  0  0  0  0  0  0
  -14.1283    6.3436  -19.1377 N   0  0  0  0  0  0  0  0  0  0  0  0
  -13.2474    7.2956  -19.5974 C   0  0  0  0  0  0  0  0  0  0  0  0
  -12.3100    7.5143  -18.6124 C   0  0  0  0  0  0  0  0  0  0  0  0
  -12.6359    6.6711  -17.5261 C   0  0  0  0  0  0  0  0  0  0  0  0
  -12.0021    6.5378  -16.3433 N   0  0  0  0  0  0  0  0  0  0  0  0
  -12.5854    5.6564  -15.5238 C   0  0  0  0  0  0  0  0  0  0  0  0
  -13.6795    4.9134  -15.7579 N   0  0  0  0  0  0  0  0  0  0  0  0
  -14.2750    5.0204  -16.9683 C   0  0  0  0  0  0  0  0  0  0  0  0
  -13.7700    5.9443  -17.8732 C   0  0  0  0  0  0  0  0  0  0  0  0
  -15.3519   -3.1292  -12.0039 C   0  0  0  0  0  0  0  0  0  0  0  0
  -15.4878   -2.6884  -10.6958 C   0  0  0  0  0  0  0  0  0  0  0  0
  -14.9010   -3.3986   -9.6491 C   0  0  0  0  0  0  0  0  0  0  0  0
  -14.1070   -4.5448   -9.8711 C   0  0  0  0  0  0  0  0  0  0  0  0
  -13.9953   -5.0235  -11.1977 C   0  0  0  0  0  0  0  0  0  0  0  0
  -14.6351   -4.3046  -12.2500 C   0  0  0  0  0  0  0  0  0  0  0  0
  -13.2470   -6.2794  -11.6059 C   0  0  0  0  0  0  0  0  0  0  0  0
  -11.9237   -6.3010  -11.3175 F   0  0  0  0  0  0  0  0  0  0  0  0
  -13.7546   -7.4017  -11.0213 F   0  0  0  0  0  0  0  0  0  0  0  0
  -13.3147   -6.5009  -12.9516 F   0  0  0  0  0  0  0  0  0  0  0  0
  -13.4871   -5.1923   -8.6408 C   0  0  0  0  0  0  0  0  0  0  0  0
  -12.0492   -5.0514   -8.4090 N   0  0  0  0  0  0  0  0  0  0  0  0
  -11.5194   -5.3820   -7.0827 C   0  0  0  0  0  0  0  0  0  0  0  0
  -11.4026   -4.1803   -6.1265 C   0  0  0  0  0  0  0  0  0  0  0  0
  -10.6970   -3.0864   -6.7243 O   0  0  0  0  0  0  0  0  0  0  0  0
  -11.3111   -2.6891   -7.9570 C   0  0  0  0  0  0  0  0  0  0  0  0
  -11.3861   -3.8607   -8.9450 C   0  0  0  0  0  0  0  0  0  0  0  0
 15 16  1  0  0  0
 16 17  1  0  0  0
 16 24  1  0  0  0
 17 18  2  0  0  0
 18 19  1  0  0  0
 19 20  1  0  0  0
 19 24  2  0  0  0
 20 21  2  0  0  0
 21 22  1  0  0  0
 22 23  2  0  0  0
 23 14  1  0  0  0
 23 24  1  0  0  0
 14  7  1  0  0  0
  7  8  1  0  0  0
  7 13  2  0  0  0
  8  9  2  0  0  0
  9 10  1  0  0  0
 10  1  1  0  0  0
 10 11  2  0  0  0
  1  2  1  0  0  0
  1  5  1  0  0  0
  2  3  2  0  0  0
  2  4  1  0  0  0
  4 25  1  0  0  0
  4  6  1  0  0  0
 25 26  1  0  0  0
 25 30  2  0  0  0
 26 27  2  0  0  0
 27 28  1  0  0  0
 28 35  1  0  0  0
 28 29  2  0  0  0
 35 36  1  0  0  0
 36 37  1  0  0  0
 36 41  1  0  0  0
 37 38  1  0  0  0
 38 39  1  0  0  0
 39 40  1  0  0  0
 40 41  1  0  0  0
 29 31  1  0  0  0
 29 30  1  0  0  0
 31 32  1  0  0  0
 31 33  1  0  0  0
 31 34  1  0  0  0
 11 12  1  0  0  0
 11 13  1  0  0  0
M  END
> <minimizedAffinity>
-8.54232

$$$$
