CHEMBL465131


 40 45  0  0  0  0  0  0  0  0999 V2000
  -14.3215   -0.2417  -14.1325 C   0  0  0  0  0  0  0  0  0  0  0  0
  -14.5042    0.8637  -14.9606 C   0  0  0  0  0  0  0  0  0  0  0  0
  -15.7089    1.5558  -14.9306 C   0  0  0  0  0  0  0  0  0  0  0  0
  -16.7225    1.2030  -14.0372 C   0  0  0  0  0  0  0  0  0  0  0  0
  -16.4713    0.2136  -13.0843 C   0  0  0  0  0  0  0  0  0  0  0  0
  -15.2778   -0.5113  -13.1515 C   0  0  0  0  0  0  0  0  0  0  0  0
  -15.0796   -1.5080  -12.2758 F   0  0  0  0  0  0  0  0  0  0  0  0
  -17.9961    1.8208  -14.0866 N   0  0  0  0  0  0  0  0  0  0  0  0
  -19.0624    1.3044  -14.7951 C   0  0  0  0  0  0  0  0  0  0  0  0
  -19.1042    0.2179  -15.3628 O   0  0  0  0  0  0  0  0  0  0  0  0
  -18.1542    2.6395  -13.5103 H   0  0  0  0  0  0  0  0  0  0  0  0
  -20.2820    2.1614  -14.8652 C   0  0  0  0  0  0  0  0  0  0  0  0
  -20.6400    2.9511  -16.1235 C   0  0  0  0  0  0  0  0  0  0  0  0
  -20.0028    3.6583  -14.9714 C   0  0  0  0  0  0  0  0  0  0  0  0
  -21.4326    1.5899  -14.1157 C   0  0  0  0  0  0  0  0  0  0  0  0
  -22.1046    2.3656  -13.4424 O   0  0  0  0  0  0  0  0  0  0  0  0
  -21.6474    0.2278  -14.2355 N   0  0  0  0  0  0  0  0  0  0  0  0
  -20.8595   -0.3496  -14.4913 H   0  0  0  0  0  0  0  0  0  0  0  0
  -22.7364   -0.3729  -13.5754 C   0  0  0  0  0  0  0  0  0  0  0  0
  -22.6227   -0.7773  -12.2406 C   0  0  0  0  0  0  0  0  0  0  0  0
  -23.6277   -1.5374  -11.6484 C   0  0  0  0  0  0  0  0  0  0  0  0
  -24.7449   -1.9009  -12.3947 C   0  0  0  0  0  0  0  0  0  0  0  0
  -24.8898   -1.4403  -13.7056 C   0  0  0  0  0  0  0  0  0  0  0  0
  -23.9031   -0.6405  -14.2879 C   0  0  0  0  0  0  0  0  0  0  0  0
  -13.2368   -1.0877  -14.2242 O   0  0  0  0  0  0  0  0  0  0  0  0
  -13.1852   -5.7080  -14.2440 C   0  0  0  0  0  0  0  0  0  0  0  0
  -13.0348   -5.6167  -15.6096 C   0  0  0  0  0  0  0  0  0  0  0  0
  -13.0733   -4.2685  -16.0704 C   0  0  0  0  0  0  0  0  0  0  0  0
  -12.9892   -3.8803  -17.3727 N   0  0  0  0  0  0  0  0  0  0  0  0
  -13.0637   -2.5555  -17.5949 C   0  0  0  0  0  0  0  0  0  0  0  0
  -13.1867   -1.5888  -16.6154 C   0  0  0  0  0  0  0  0  0  0  0  0
  -13.1966   -1.9837  -15.2763 C   0  0  0  0  0  0  0  0  0  0  0  0
  -13.1950   -3.3612  -15.0172 C   0  0  0  0  0  0  0  0  0  0  0  0
  -13.3201   -4.1760  -13.5131 S   0  0  0  0  0  0  0  0  0  0  0  0
  -12.0112  -10.1476  -12.3511 C   0  0  0  0  0  0  0  0  0  0  0  0
  -12.7251   -8.9445  -12.6895 N   0  0  0  0  0  0  0  0  0  0  0  0
  -13.9093   -8.5218  -12.1621 C   0  0  0  0  0  0  0  0  0  0  0  0
  -14.2377   -7.3315  -12.6162 N   0  0  0  0  0  0  0  0  0  0  0  0
  -13.2390   -6.9934  -13.4996 C   0  0  0  0  0  0  0  0  0  0  0  0
  -12.2985   -7.9976  -13.5741 C   0  0  0  0  0  0  0  0  0  0  0  0
 35 36  1  0  0  0
 36 37  1  0  0  0
 36 40  1  0  0  0
 37 38  2  0  0  0
 38 39  1  0  0  0
 39 26  1  0  0  0
 39 40  2  0  0  0
 26 27  2  0  0  0
 26 34  1  0  0  0
 27 28  1  0  0  0
 28 29  1  0  0  0
 28 33  2  0  0  0
 29 30  2  0  0  0
 30 31  1  0  0  0
 31 32  2  0  0  0
 32 25  1  0  0  0
 32 33  1  0  0  0
 25  1  1  0  0  0
  1  2  1  0  0  0
  1  6  2  0  0  0
  2  3  2  0  0  0
  3  4  1  0  0  0
  4  8  1  0  0  0
  4  5  2  0  0  0
  8  9  1  0  0  0
  8 11  1  0  0  0
  9 10  2  0  0  0
  9 12  1  0  0  0
 12 15  1  0  0  0
 12 13  1  0  0  0
 12 14  1  0  0  0
 15 16  2  0  0  0
 15 17  1  0  0  0
 17 19  1  0  0  0
 17 18  1  0  0  0
 19 20  1  0  0  0
 19 24  2  0  0  0
 20 21  2  0  0  0
 21 22  1  0  0  0
 22 23  2  0  0  0
 23 24  1  0  0  0
 13 14  1  0  0  0
  5  6  1  0  0  0
  6  7  1  0  0  0
 33 34  1  0  0  0
M  END
> <minimizedAffinity>
-9.09847

$$$$
