CHEMBL3690384


 32 34  0  0  0  0  0  0  0  0999 V2000
  -16.7024    0.6220  -14.9937 C   0  0  0  0  0  0  0  0  0  0  0  0
  -16.0242    1.4497  -15.8911 C   0  0  0  0  0  0  0  0  0  0  0  0
  -16.5456    2.6832  -16.2540 C   0  0  0  0  0  0  0  0  0  0  0  0
  -17.7742    3.0856  -15.7438 C   0  0  0  0  0  0  0  0  0  0  0  0
  -18.5425    2.2279  -14.9578 C   0  0  0  0  0  0  0  0  0  0  0  0
  -17.9705    1.0135  -14.5332 C   0  0  0  0  0  0  0  0  0  0  0  0
  -19.9341    2.5684  -14.6228 C   0  0  0  0  0  0  0  0  0  0  0  0
  -20.5520    3.7979  -14.4635 C   0  0  0  0  0  0  0  0  0  0  0  0
  -21.8802    3.6736  -14.1401 N   0  0  0  0  0  0  0  0  0  0  0  0
  -22.0975    2.3781  -14.0839 C   0  0  0  0  0  0  0  0  0  0  0  0
  -23.2848    1.6452  -13.7996 C   0  0  0  0  0  0  0  0  0  0  0  0
  -23.2505    0.2974  -13.7974 C   0  0  0  0  0  0  0  0  0  0  0  0
  -22.0395   -0.4459  -14.0490 C   0  0  0  0  0  0  0  0  0  0  0  0
  -20.9135    0.2430  -14.2808 C   0  0  0  0  0  0  0  0  0  0  0  0
  -20.9382    1.6431  -14.3353 N   0  0  0  0  0  0  0  0  0  0  0  0
  -24.5208   -0.4746  -13.4796 C   0  0  0  0  0  0  0  0  0  0  0  0
  -25.6104   -1.1367  -13.2071 C   0  0  0  0  0  0  0  0  0  0  0  0
  -26.8326   -1.8899  -12.8861 C   0  0  0  0  0  0  0  0  0  0  0  0
  -27.1940   -1.7586  -11.4085 C   0  0  0  0  0  0  0  0  0  0  0  0
  -26.7086   -2.8621  -10.6492 O   0  0  0  0  0  0  0  0  0  0  0  0
  -27.1417   -3.6621  -10.9943 H   0  0  0  0  0  0  0  0  0  0  0  0
  -15.7335   -0.1225  -12.2876 O   0  0  0  0  0  0  0  0  0  0  0  0
  -15.7394   -0.8784  -13.2499 C   0  0  0  0  0  0  0  0  0  0  0  0
  -15.3005   -2.1794  -13.1284 N   0  0  0  0  0  0  0  0  0  0  0  0
  -16.1696   -0.6020  -14.5293 N   0  0  0  0  0  0  0  0  0  0  0  0
  -14.9292   -2.5996  -13.9689 H   0  0  0  0  0  0  0  0  0  0  0  0
  -16.1677   -1.3702  -15.1823 H   0  0  0  0  0  0  0  0  0  0  0  0
  -14.6713   -2.5915  -11.8671 C   0  0  0  0  0  0  0  0  0  0  0  0
  -15.6228   -3.2321  -10.8460 C   0  0  0  0  0  0  0  0  0  0  0  0
  -14.9854   -4.1217  -10.0493 F   0  0  0  0  0  0  0  0  0  0  0  0
  -16.2256   -2.3189  -10.0583 F   0  0  0  0  0  0  0  0  0  0  0  0
  -16.5982   -3.9186  -11.4924 F   0  0  0  0  0  0  0  0  0  0  0  0
 22 23  2  0  0  0
 23 24  1  0  0  0
 23 25  1  0  0  0
 24 28  1  0  0  0
 24 26  1  0  0  0
 28 29  1  0  0  0
 29 30  1  0  0  0
 29 31  1  0  0  0
 29 32  1  0  0  0
 25  1  1  0  0  0
 25 27  1  0  0  0
  1  2  1  0  0  0
  1  6  2  0  0  0
  2  3  2  0  0  0
  3  4  1  0  0  0
  4  5  2  0  0  0
  5  7  1  0  0  0
  5  6  1  0  0  0
  7  8  2  0  0  0
  7 15  1  0  0  0
  8  9  1  0  0  0
  9 10  2  0  0  0
 10 11  1  0  0  0
 10 15  1  0  0  0
 11 12  2  0  0  0
 12 16  1  0  0  0
 12 13  1  0  0  0
 16 17  3  0  0  0
 17 18  1  0  0  0
 18 19  1  0  0  0
 19 20  1  0  0  0
 20 21  1  0  0  0
 13 14  2  0  0  0
 14 15  1  0  0  0
M  END
> <minimizedAffinity>
-9.64463

$$$$
