CHEMBL363153


 21 23  0  0  0  0  0  0  0  0999 V2000
  -29.6091   -6.0991   -7.3838 C   0  0  0  0  0  0  0  0  0  0  0  0
  -29.1333   -5.7639   -6.1732 C   0  0  0  0  0  0  0  0  0  0  0  0
  -28.3616   -6.6515   -5.2218 C   0  0  0  0  0  0  0  0  0  0  0  0
  -28.1183   -7.8376   -5.3052 O   0  0  0  0  0  0  0  0  0  0  0  0
  -28.0098   -5.8246   -4.1678 N   0  0  0  0  0  0  0  0  0  0  0  0
  -28.5026   -4.5378   -4.3400 C   0  0  0  0  0  0  0  0  0  0  0  0
  -28.3397   -3.4783   -3.4708 C   0  0  0  0  0  0  0  0  0  0  0  0
  -28.9265   -2.2640   -3.8267 C   0  0  0  0  0  0  0  0  0  0  0  0
  -29.6508   -2.1430   -5.0279 C   0  0  0  0  0  0  0  0  0  0  0  0
  -29.7987   -3.2334   -5.8976 C   0  0  0  0  0  0  0  0  0  0  0  0
  -29.2156   -4.4369   -5.5406 C   0  0  0  0  0  0  0  0  0  0  0  0
  -27.4826   -6.1574   -3.3770 H   0  0  0  0  0  0  0  0  0  0  0  0
  -26.9582   -9.3431   -9.9239 C   0  0  0  0  0  0  0  0  0  0  0  0
  -28.1152   -8.8392   -9.1426 C   0  0  0  0  0  0  0  0  0  0  0  0
  -28.1502   -7.5715   -8.6084 N   0  0  0  0  0  0  0  0  0  0  0  0
  -29.3544   -7.3588   -7.9792 C   0  0  0  0  0  0  0  0  0  0  0  0
  -30.1084   -8.5166   -8.0999 C   0  0  0  0  0  0  0  0  0  0  0  0
  -31.4923   -8.7443   -7.6060 C   0  0  0  0  0  0  0  0  0  0  0  0
  -29.3167   -9.4425   -8.8367 C   0  0  0  0  0  0  0  0  0  0  0  0
  -29.8032  -11.0132   -9.2815 Cl  0  0  0  0  0  0  0  0  0  0  0  0
  -27.4167   -6.8824   -8.7065 H   0  0  0  0  0  0  0  0  0  0  0  0
 13 14  1  0  0  0
 14 15  1  0  0  0
 14 19  2  0  0  0
 15 16  1  0  0  0
 15 21  1  0  0  0
 16  1  1  0  0  0
 16 17  2  0  0  0
  1  2  2  0  0  0
  2  3  1  0  0  0
  2 11  1  0  0  0
  3  4  2  0  0  0
  3  5  1  0  0  0
  5  6  1  0  0  0
  5 12  1  0  0  0
  6  7  1  0  0  0
  6 11  2  0  0  0
  7  8  2  0  0  0
  8  9  1  0  0  0
  9 10  2  0  0  0
 10 11  1  0  0  0
 17 18  1  0  0  0
 17 19  1  0  0  0
 19 20  1  0  0  0
M  END
> <minimizedAffinity>
-7.94544

$$$$
