CHEMBL3926057


 29 32  0  0  0  0  0  0  0  0999 V2000
  -28.8805   -8.3540   -5.0691 C   0  0  0  0  0  0  0  0  0  0  0  0
  -29.0712   -7.8098   -6.3431 C   0  0  0  0  0  0  0  0  0  0  0  0
  -29.4607   -6.4610   -6.5032 C   0  0  0  0  0  0  0  0  0  0  0  0
  -29.8184   -5.7249   -5.3534 C   0  0  0  0  0  0  0  0  0  0  0  0
  -30.1692   -4.3885   -4.9514 C   0  0  0  0  0  0  0  0  0  0  0  0
  -31.0860   -4.5150   -3.9690 N   0  0  0  0  0  0  0  0  0  0  0  0
  -30.6433   -5.6237   -3.3445 N   0  0  0  0  0  0  0  0  0  0  0  0
  -29.8712   -6.4132   -4.1445 C   0  0  0  0  0  0  0  0  0  0  0  0
  -29.2891   -7.6599   -3.9264 C   0  0  0  0  0  0  0  0  0  0  0  0
  -30.9838   -5.8207   -2.4134 H   0  0  0  0  0  0  0  0  0  0  0  0
  -29.2837   -3.2492   -4.7302 C   0  0  0  0  0  0  0  0  0  0  0  0
  -29.7129   -2.0568   -4.2653 C   0  0  0  0  0  0  0  0  0  0  0  0
  -29.3743   -0.7795   -4.9324 C   0  0  0  0  0  0  0  0  0  0  0  0
  -28.1076   -0.6072   -5.5431 C   0  0  0  0  0  0  0  0  0  0  0  0
  -27.8588    0.4764   -6.3909 C   0  0  0  0  0  0  0  0  0  0  0  0
  -28.8552    1.4015   -6.6575 C   0  0  0  0  0  0  0  0  0  0  0  0
  -30.1046    1.2526   -6.0574 C   0  0  0  0  0  0  0  0  0  0  0  0
  -30.3621    0.1701   -5.2041 C   0  0  0  0  0  0  0  0  0  0  0  0
  -28.3613   -9.6325   -4.9750 O   0  0  0  0  0  0  0  0  0  0  0  0
  -24.2260  -10.0719   -5.3775 C   0  0  0  0  0  0  0  0  0  0  0  0
  -25.0904  -10.5404   -6.3684 C   0  0  0  0  0  0  0  0  0  0  0  0
  -26.4727  -10.3724   -6.2252 C   0  0  0  0  0  0  0  0  0  0  0  0
  -26.9899   -9.7491   -5.0861 C   0  0  0  0  0  0  0  0  0  0  0  0
  -26.1222   -9.2461   -4.1098 C   0  0  0  0  0  0  0  0  0  0  0  0
  -24.7447   -9.4307   -4.2499 C   0  0  0  0  0  0  0  0  0  0  0  0
  -22.8697  -10.2410   -5.3738 O   0  0  0  0  0  0  0  0  0  0  0  0
  -22.4070  -11.4821   -4.8474 C   0  0  0  0  0  0  0  0  0  0  0  0
  -22.2078  -11.5024   -2.4911 C   0  0  0  0  0  0  0  0  0  0  0  0
  -21.5415  -11.2800   -3.7259 O   0  0  0  0  0  0  0  0  0  0  0  0
 28 29  1  0  0  0
 29 27  1  0  0  0
 27 26  1  0  0  0
 26 20  1  0  0  0
 20 21  1  0  0  0
 20 25  2  0  0  0
 21 22  2  0  0  0
 22 23  1  0  0  0
 23 19  1  0  0  0
 23 24  2  0  0  0
 19  1  1  0  0  0
  1  2  1  0  0  0
  1  9  2  0  0  0
  2  3  2  0  0  0
  3  4  1  0  0  0
  4  5  1  0  0  0
  4  8  2  0  0  0
  5 11  1  0  0  0
  5  6  2  0  0  0
 11 12  2  0  0  0
 12 13  1  0  0  0
 13 14  1  0  0  0
 13 18  2  0  0  0
 14 15  2  0  0  0
 15 16  1  0  0  0
 16 17  2  0  0  0
 17 18  1  0  0  0
  6  7  1  0  0  0
  7  8  1  0  0  0
  7 10  1  0  0  0
  8  9  1  0  0  0
 24 25  1  0  0  0
M  END
> <minimizedAffinity>
-8.28411

$$$$
