CHEMBL4472113


 25 28  0  0  0  0  0  0  0  0999 V2000
  -19.3590    2.8435  -15.7867 C   0  0  0  0  0  0  0  0  0  0  0  0
  -18.0299    2.3067  -15.3177 C   0  0  0  0  0  0  0  0  0  0  0  0
  -17.9556    1.4762  -14.1913 C   0  0  0  0  0  0  0  0  0  0  0  0
  -16.7287    0.9500  -13.7740 C   0  0  0  0  0  0  0  0  0  0  0  0
  -15.5498    1.2430  -14.4708 C   0  0  0  0  0  0  0  0  0  0  0  0
  -15.6244    2.0628  -15.6028 C   0  0  0  0  0  0  0  0  0  0  0  0
  -16.8516    2.5852  -16.0247 C   0  0  0  0  0  0  0  0  0  0  0  0
  -14.2834    0.6984  -14.0169 C   0  0  0  0  0  0  0  0  0  0  0  0
  -13.1948    1.3142  -13.3563 C   0  0  0  0  0  0  0  0  0  0  0  0
  -12.1784    0.4748  -13.1400 N   0  0  0  0  0  0  0  0  0  0  0  0
  -12.6118   -0.6830  -13.6639 N   0  0  0  0  0  0  0  0  0  0  0  0
  -13.8664   -0.6037  -14.1962 C   0  0  0  0  0  0  0  0  0  0  0  0
  -11.9939   -1.4871  -13.6302 H   0  0  0  0  0  0  0  0  0  0  0  0
  -22.0142    1.2460  -13.9883 C   0  0  0  0  0  0  0  0  0  0  0  0
  -20.7983    1.1173  -14.6207 C   0  0  0  0  0  0  0  0  0  0  0  0
  -20.4665    2.3982  -14.9583 N   0  0  0  0  0  0  0  0  0  0  0  0
  -21.4108    3.2700  -14.5558 N   0  0  0  0  0  0  0  0  0  0  0  0
  -22.3671    2.5710  -13.9585 N   0  0  0  0  0  0  0  0  0  0  0  0
  -25.9663   -1.7750  -14.4823 C   0  0  0  0  0  0  0  0  0  0  0  0
  -24.7811   -1.3054  -13.6921 C   0  0  0  0  0  0  0  0  0  0  0  0
  -24.4573   -1.8883  -12.4626 C   0  0  0  0  0  0  0  0  0  0  0  0
  -23.3386   -1.4553  -11.7513 C   0  0  0  0  0  0  0  0  0  0  0  0
  -22.5334   -0.4364  -12.2644 C   0  0  0  0  0  0  0  0  0  0  0  0
  -22.8471    0.1715  -13.4867 C   0  0  0  0  0  0  0  0  0  0  0  0
  -23.9714   -0.2750  -14.1962 C   0  0  0  0  0  0  0  0  0  0  0  0
 19 20  1  0  0  0
 20 21  1  0  0  0
 20 25  2  0  0  0
 21 22  2  0  0  0
 22 23  1  0  0  0
 23 24  2  0  0  0
 24 14  1  0  0  0
 24 25  1  0  0  0
 14 15  2  0  0  0
 14 18  1  0  0  0
 15 16  1  0  0  0
 16  1  1  0  0  0
 16 17  1  0  0  0
  1  2  1  0  0  0
  2  3  1  0  0  0
  2  7  2  0  0  0
  3  4  2  0  0  0
  4  5  1  0  0  0
  5  8  1  0  0  0
  5  6  2  0  0  0
  8  9  1  0  0  0
  8 12  2  0  0  0
  9 10  2  0  0  0
 10 11  1  0  0  0
 11 12  1  0  0  0
 11 13  1  0  0  0
  6  7  1  0  0  0
 17 18  2  0  0  0
M  END
> <minimizedAffinity>
-9.37120

$$$$
