CHEMBL4536596


 33 37  0  0  0  0  0  0  0  0999 V2000
  -28.0767   -9.5459   -5.4385 C   0  0  0  0  0  0  0  0  0  0  0  0
  -28.8596  -10.5761   -5.7896 N   0  0  0  0  0  0  0  0  0  0  0  0
  -30.0347  -10.0378   -6.1747 N   0  0  0  0  0  0  0  0  0  0  0  0
  -30.0249   -8.6636   -6.0214 C   0  0  0  0  0  0  0  0  0  0  0  0
  -28.7714   -8.2963   -5.5386 C   0  0  0  0  0  0  0  0  0  0  0  0
  -24.0896  -10.4825   -4.2430 C   0  0  0  0  0  0  0  0  0  0  0  0
  -25.0578  -10.1846   -3.2876 C   0  0  0  0  0  0  0  0  0  0  0  0
  -26.3441   -9.8238   -3.6864 C   0  0  0  0  0  0  0  0  0  0  0  0
  -26.6906   -9.7894   -5.0407 C   0  0  0  0  0  0  0  0  0  0  0  0
  -25.6900  -10.0016   -5.9982 C   0  0  0  0  0  0  0  0  0  0  0  0
  -24.3932  -10.3411   -5.5976 C   0  0  0  0  0  0  0  0  0  0  0  0
  -22.7551  -12.0247   -3.0789 C   0  0  0  0  0  0  0  0  0  0  0  0
  -22.8183  -10.8944   -3.9472 O   0  0  0  0  0  0  0  0  0  0  0  0
  -31.0799  -10.8732   -6.6801 C   0  0  0  0  0  0  0  0  0  0  0  0
  -31.0777  -11.2440   -8.0360 C   0  0  0  0  0  0  0  0  0  0  0  0
  -32.1013  -12.0358   -8.5663 C   0  0  0  0  0  0  0  0  0  0  0  0
  -33.1406  -12.4653   -7.7464 C   0  0  0  0  0  0  0  0  0  0  0  0
  -33.1511  -12.1096   -6.3987 C   0  0  0  0  0  0  0  0  0  0  0  0
  -32.1261  -11.3191   -5.8605 C   0  0  0  0  0  0  0  0  0  0  0  0
  -28.2787   -6.9420   -5.2004 C   0  0  0  0  0  0  0  0  0  0  0  0
  -27.3475   -6.7699   -4.4247 O   0  0  0  0  0  0  0  0  0  0  0  0
  -28.9924   -5.9426   -5.8159 N   0  0  0  0  0  0  0  0  0  0  0  0
  -29.8084   -6.1696   -6.3555 H   0  0  0  0  0  0  0  0  0  0  0  0
  -28.7328   -4.6010   -5.6831 C   0  0  0  0  0  0  0  0  0  0  0  0
  -28.3326   -3.8730   -4.6716 N   0  0  0  0  0  0  0  0  0  0  0  0
  -28.2885   -2.5294   -5.0585 C   0  0  0  0  0  0  0  0  0  0  0  0
  -27.9022   -1.4184   -4.2706 C   0  0  0  0  0  0  0  0  0  0  0  0
  -28.0072   -0.1164   -4.7914 C   0  0  0  0  0  0  0  0  0  0  0  0
  -28.4854    0.0872   -6.0810 C   0  0  0  0  0  0  0  0  0  0  0  0
  -28.6783    1.6885   -6.6857 Cl  0  0  0  0  0  0  0  0  0  0  0  0
  -28.8210   -0.9887   -6.9007 C   0  0  0  0  0  0  0  0  0  0  0  0
  -28.7016   -2.2840   -6.3718 C   0  0  0  0  0  0  0  0  0  0  0  0
  -29.0068   -3.7818   -7.1557 S   0  0  0  0  0  0  0  0  0  0  0  0
 12 13  1  0  0  0
 13  6  1  0  0  0
  6  7  1  0  0  0
  6 11  2  0  0  0
  7  8  2  0  0  0
  8  9  1  0  0  0
  9  1  1  0  0  0
  9 10  2  0  0  0
  1  2  2  0  0  0
  1  5  1  0  0  0
  2  3  1  0  0  0
  3 14  1  0  0  0
  3  4  1  0  0  0
 14 15  1  0  0  0
 14 19  2  0  0  0
 15 16  2  0  0  0
 16 17  1  0  0  0
 17 18  2  0  0  0
 18 19  1  0  0  0
  4  5  2  0  0  0
  5 20  1  0  0  0
 20 21  2  0  0  0
 20 22  1  0  0  0
 22 24  1  0  0  0
 22 23  1  0  0  0
 24 25  2  0  0  0
 24 33  1  0  0  0
 25 26  1  0  0  0
 26 27  1  0  0  0
 26 32  2  0  0  0
 27 28  2  0  0  0
 28 29  1  0  0  0
 29 30  1  0  0  0
 29 31  2  0  0  0
 31 32  1  0  0  0
 32 33  1  0  0  0
 10 11  1  0  0  0
M  END
> <minimizedAffinity>
-7.24844

$$$$
