CHEMBL2381858


 30 33  0  0  0  0  0  0  0  0999 V2000
  -26.1700   -1.4340  -12.3304 C   0  0  0  0  0  0  0  0  0  0  0  0
  -28.0852   -1.1562  -10.4541 O   0  0  0  0  0  0  0  0  0  0  0  0
  -27.2621   -2.0408  -10.2542 C   0  0  0  0  0  0  0  0  0  0  0  0
  -26.1913   -2.2208  -11.1122 N   0  0  0  0  0  0  0  0  0  0  0  0
  -27.2474   -2.9193   -9.1929 N   0  0  0  0  0  0  0  0  0  0  0  0
  -25.7939   -3.1473  -11.1789 H   0  0  0  0  0  0  0  0  0  0  0  0
  -26.4792   -3.5711   -9.1553 H   0  0  0  0  0  0  0  0  0  0  0  0
  -28.1600   -2.9447   -8.1077 C   0  0  0  0  0  0  0  0  0  0  0  0
  -29.1398   -3.9282   -7.9439 C   0  0  0  0  0  0  0  0  0  0  0  0
  -30.0450   -3.8711   -6.8828 C   0  0  0  0  0  0  0  0  0  0  0  0
  -29.9717   -2.8400   -5.9527 C   0  0  0  0  0  0  0  0  0  0  0  0
  -28.9769   -1.8618   -6.0661 C   0  0  0  0  0  0  0  0  0  0  0  0
  -28.0839   -1.9158   -7.1581 C   0  0  0  0  0  0  0  0  0  0  0  0
  -28.8862   -0.7646   -5.0425 C   0  0  0  0  0  0  0  0  0  0  0  0
  -29.9501    0.5879   -5.4720 Cl  0  0  0  0  0  0  0  0  0  0  0  0
  -24.7879   -1.0522  -12.7091 C   0  0  0  0  0  0  0  0  0  0  0  0
  -24.3048    0.1944  -13.0425 C   0  0  0  0  0  0  0  0  0  0  0  0
  -23.0010   -0.0101  -13.4296 N   0  0  0  0  0  0  0  0  0  0  0  0
  -22.7115   -1.3326  -13.3241 N   0  0  0  0  0  0  0  0  0  0  0  0
  -23.7884   -1.9700  -12.8754 N   0  0  0  0  0  0  0  0  0  0  0  0
  -22.0596    0.9479  -13.8985 C   0  0  0  0  0  0  0  0  0  0  0  0
  -22.3919    2.3125  -13.9107 C   0  0  0  0  0  0  0  0  0  0  0  0
  -21.4795    3.2774  -14.3610 C   0  0  0  0  0  0  0  0  0  0  0  0
  -20.2421    2.8538  -14.8668 C   0  0  0  0  0  0  0  0  0  0  0  0
  -19.1172    3.4753  -15.4488 C   0  0  0  0  0  0  0  0  0  0  0  0
  -18.1682    2.6034  -15.7953 N   0  0  0  0  0  0  0  0  0  0  0  0
  -18.6836    1.4178  -15.4204 N   0  0  0  0  0  0  0  0  0  0  0  0
  -19.9308    1.4995  -14.8565 C   0  0  0  0  0  0  0  0  0  0  0  0
  -20.7984    0.5169  -14.3555 C   0  0  0  0  0  0  0  0  0  0  0  0
  -18.1364    0.5819  -15.5962 H   0  0  0  0  0  0  0  0  0  0  0  0
  2  3  2  0  0  0
  3  4  1  0  0  0
  3  5  1  0  0  0
  4  1  1  0  0  0
  4  6  1  0  0  0
  1 16  1  0  0  0
 16 17  2  0  0  0
 16 20  1  0  0  0
 17 18  1  0  0  0
 18 21  1  0  0  0
 18 19  1  0  0  0
 21 22  1  0  0  0
 21 29  2  0  0  0
 22 23  2  0  0  0
 23 24  1  0  0  0
 24 25  1  0  0  0
 24 28  2  0  0  0
 25 26  2  0  0  0
 26 27  1  0  0  0
 27 28  1  0  0  0
 27 30  1  0  0  0
 28 29  1  0  0  0
 19 20  2  0  0  0
  5  8  1  0  0  0
  5  7  1  0  0  0
  8  9  1  0  0  0
  8 13  2  0  0  0
  9 10  2  0  0  0
 10 11  1  0  0  0
 11 12  2  0  0  0
 12 14  1  0  0  0
 12 13  1  0  0  0
 14 15  1  0  0  0
M  END
> <minimizedAffinity>
-10.34587

$$$$
