CHEMBL363316


 41 44  0  0  0  0  0  0  0  0999 V2000
  -27.9089   -0.3969   -7.2674 C   0  0  0  0  0  0  0  0  0  0  0  0
  -27.7834   -1.6937   -7.9406 N   0  0  0  0  0  0  0  0  0  0  0  0
  -28.2598   -2.8255   -7.2623 C   0  0  0  0  0  0  0  0  0  0  0  0
  -28.9573   -3.8375   -7.9224 C   0  0  0  0  0  0  0  0  0  0  0  0
  -29.3907   -4.9732   -7.2390 C   0  0  0  0  0  0  0  0  0  0  0  0
  -29.1311   -5.1359   -5.8774 C   0  0  0  0  0  0  0  0  0  0  0  0
  -28.4579   -4.1215   -5.1970 C   0  0  0  0  0  0  0  0  0  0  0  0
  -28.0266   -2.9820   -5.8858 C   0  0  0  0  0  0  0  0  0  0  0  0
  -29.5032   -6.2888   -5.1559 N   0  0  0  0  0  0  0  0  0  0  0  0
  -29.0846   -7.5675   -5.4379 C   0  0  0  0  0  0  0  0  0  0  0  0
  -28.3476   -7.9060   -6.3550 O   0  0  0  0  0  0  0  0  0  0  0  0
  -29.5564   -8.4792   -4.5154 N   0  0  0  0  0  0  0  0  0  0  0  0
  -29.9609   -6.1519   -4.2672 H   0  0  0  0  0  0  0  0  0  0  0  0
  -30.5005   -8.3037   -4.2022 H   0  0  0  0  0  0  0  0  0  0  0  0
  -29.2076   -9.8795   -4.7152 C   0  0  0  0  0  0  0  0  0  0  0  0
  -28.0204  -10.3507   -3.8396 C   0  0  0  0  0  0  0  0  0  0  0  0
  -26.8417  -10.8106   -4.6033 N   0  0  0  0  0  0  0  0  0  0  0  0
  -26.1193  -11.8719   -3.8548 C   0  0  0  0  0  0  0  0  0  0  0  0
  -25.3004  -11.3667   -2.6481 C   0  0  0  0  0  0  0  0  0  0  0  0
  -24.3927  -10.3229   -3.0222 O   0  0  0  0  0  0  0  0  0  0  0  0
  -25.1015   -9.2382   -3.6362 C   0  0  0  0  0  0  0  0  0  0  0  0
  -25.8671   -9.7269   -4.8769 C   0  0  0  0  0  0  0  0  0  0  0  0
  -27.4942   -1.5916   -9.3183 C   0  0  0  0  0  0  0  0  0  0  0  0
  -28.4832   -1.3243  -10.2473 C   0  0  0  0  0  0  0  0  0  0  0  0
  -28.1012   -1.2363  -11.5597 C   0  0  0  0  0  0  0  0  0  0  0  0
  -26.8428   -1.4158  -11.9833 N   0  0  0  0  0  0  0  0  0  0  0  0
  -25.9372   -1.6913  -11.0377 C   0  0  0  0  0  0  0  0  0  0  0  0
  -26.2234   -1.7575   -9.7298 N   0  0  0  0  0  0  0  0  0  0  0  0
  -24.6270   -1.9234  -11.4638 N   0  0  0  0  0  0  0  0  0  0  0  0
  -24.1228   -2.4242  -10.7472 H   0  0  0  0  0  0  0  0  0  0  0  0
  -23.8514   -1.0794  -12.2730 C   0  0  0  0  0  0  0  0  0  0  0  0
  -24.1364   -0.8757  -13.6286 C   0  0  0  0  0  0  0  0  0  0  0  0
  -23.2828   -0.1347  -14.4463 C   0  0  0  0  0  0  0  0  0  0  0  0
  -22.1183    0.4387  -13.9252 C   0  0  0  0  0  0  0  0  0  0  0  0
  -21.8669    0.2977  -12.5512 C   0  0  0  0  0  0  0  0  0  0  0  0
  -22.7325   -0.4412  -11.7338 C   0  0  0  0  0  0  0  0  0  0  0  0
  -21.0789    1.0476  -14.8296 C   0  0  0  0  0  0  0  0  0  0  0  0
  -21.0195    2.8306  -14.7609 S   0  0  0  0  0  0  0  0  0  0  0  0
  -19.4710    3.2053  -13.9748 C   0  0  0  0  0  0  0  0  0  0  0  0
  -20.9146    3.3008  -16.1317 O   0  0  0  0  0  0  0  0  0  0  0  0
  -22.0869    3.3294  -13.9126 O   0  0  0  0  0  0  0  0  0  0  0  0
  1  2  1  0  0  0
  2  3  1  0  0  0
  2 23  1  0  0  0
  3  4  1  0  0  0
  3  8  2  0  0  0
  4  5  2  0  0  0
  5  6  1  0  0  0
  6  9  1  0  0  0
  6  7  2  0  0  0
  9 10  1  0  0  0
  9 13  1  0  0  0
 10 11  2  0  0  0
 10 12  1  0  0  0
 12 15  1  0  0  0
 12 14  1  0  0  0
 15 16  1  0  0  0
 16 17  1  0  0  0
 17 18  1  0  0  0
 17 22  1  0  0  0
 18 19  1  0  0  0
 19 20  1  0  0  0
 20 21  1  0  0  0
 21 22  1  0  0  0
  7  8  1  0  0  0
 23 24  1  0  0  0
 23 28  2  0  0  0
 24 25  2  0  0  0
 25 26  1  0  0  0
 26 27  2  0  0  0
 27 29  1  0  0  0
 27 28  1  0  0  0
 29 31  1  0  0  0
 29 30  1  0  0  0
 31 32  1  0  0  0
 31 36  2  0  0  0
 32 33  2  0  0  0
 33 34  1  0  0  0
 34 37  1  0  0  0
 34 35  2  0  0  0
 37 38  1  0  0  0
 38 39  1  0  0  0
 38 40  2  0  0  0
 38 41  2  0  0  0
 35 36  1  0  0  0
M  END
> <minimizedAffinity>
-9.10090

$$$$
