CHEMBL3902961


 39 43  0  0  0  0  0  0  0  0999 V2000
  -15.3462    3.0040  -16.3387 N   0  0  0  0  0  0  0  0  0  0  0  0
  -15.0756    2.1298  -15.2279 C   0  0  0  0  0  0  0  0  0  0  0  0
  -13.9226    2.4360  -14.5049 C   0  0  0  0  0  0  0  0  0  0  0  0
  -13.2387    1.4386  -13.8392 C   0  0  0  0  0  0  0  0  0  0  0  0
  -13.7348    0.1610  -13.7585 C   0  0  0  0  0  0  0  0  0  0  0  0
  -12.8749   -0.7296  -13.2609 N   0  0  0  0  0  0  0  0  0  0  0  0
  -13.3535   -1.9559  -13.0254 C   0  0  0  0  0  0  0  0  0  0  0  0
  -14.6848   -2.2688  -13.1977 C   0  0  0  0  0  0  0  0  0  0  0  0
  -15.5530   -1.3935  -13.8141 N   0  0  0  0  0  0  0  0  0  0  0  0
  -15.0552   -0.1450  -14.1733 C   0  0  0  0  0  0  0  0  0  0  0  0
  -15.6935    0.8757  -14.9685 C   0  0  0  0  0  0  0  0  0  0  0  0
  -15.1324   -3.5172  -12.5986 C   0  0  0  0  0  0  0  0  0  0  0  0
  -16.2715   -3.7902  -11.7968 C   0  0  0  0  0  0  0  0  0  0  0  0
  -16.2481   -5.0191  -11.2634 N   0  0  0  0  0  0  0  0  0  0  0  0
  -15.0931   -5.5309  -11.7210 N   0  0  0  0  0  0  0  0  0  0  0  0
  -14.8637   -6.9563  -11.7100 C   0  0  0  0  0  0  0  0  0  0  0  0
  -14.3092   -4.6014  -12.3471 C   0  0  0  0  0  0  0  0  0  0  0  0
  -13.5736    4.8553  -19.0860 C   0  0  0  0  0  0  0  0  0  0  0  0
  -12.9984    3.8155  -19.7939 C   0  0  0  0  0  0  0  0  0  0  0  0
  -13.2966    2.4993  -19.4445 C   0  0  0  0  0  0  0  0  0  0  0  0
  -14.0933    2.2304  -18.3162 C   0  0  0  0  0  0  0  0  0  0  0  0
  -14.6305    3.2619  -17.5372 C   0  0  0  0  0  0  0  0  0  0  0  0
  -14.4421    4.5754  -18.0332 C   0  0  0  0  0  0  0  0  0  0  0  0
  -14.4711    6.8368  -19.9292 C   0  0  0  0  0  0  0  0  0  0  0  0
  -13.3385    6.1783  -19.3571 O   0  0  0  0  0  0  0  0  0  0  0  0
  -12.8098    1.4024  -20.1068 O   0  0  0  0  0  0  0  0  0  0  0  0
  -13.4651    0.1684  -19.8219 C   0  0  0  0  0  0  0  0  0  0  0  0
  -16.2805    4.0855  -15.8860 C   0  0  0  0  0  0  0  0  0  0  0  0
  -17.6406    3.5543  -15.6459 C   0  0  0  0  0  0  0  0  0  0  0  0
  -18.7234    3.1563  -15.3481 C   0  0  0  0  0  0  0  0  0  0  0  0
  -19.9793    2.6942  -14.8529 C   0  0  0  0  0  0  0  0  0  0  0  0
  -20.2385    1.3353  -14.7793 C   0  0  0  0  0  0  0  0  0  0  0  0
  -21.5220    0.9234  -14.4376 C   0  0  0  0  0  0  0  0  0  0  0  0
  -21.8179   -0.4378  -14.2897 N   0  0  0  0  0  0  0  0  0  0  0  0
  -22.4389    1.8919  -14.0400 C   0  0  0  0  0  0  0  0  0  0  0  0
  -22.0798    3.2258  -14.1162 C   0  0  0  0  0  0  0  0  0  0  0  0
  -20.8726    3.6566  -14.5363 N   0  0  0  0  0  0  0  0  0  0  0  0
  -21.2298   -1.0539  -14.8428 H   0  0  0  0  0  0  0  0  0  0  0  0
  -22.8017   -0.6651  -14.4042 H   0  0  0  0  0  0  0  0  0  0  0  0
 24 25  1  0  0  0
 25 18  1  0  0  0
 18 19  1  0  0  0
 18 23  2  0  0  0
 19 20  2  0  0  0
 20 26  1  0  0  0
 20 21  1  0  0  0
 26 27  1  0  0  0
 21 22  2  0  0  0
 22  1  1  0  0  0
 22 23  1  0  0  0
  1 28  1  0  0  0
  1  2  1  0  0  0
 28 29  1  0  0  0
 29 30  3  0  0  0
 30 31  1  0  0  0
 31 32  1  0  0  0
 31 37  2  0  0  0
 32 33  2  0  0  0
 33 34  1  0  0  0
 33 35  1  0  0  0
 34 38  1  0  0  0
 34 39  1  0  0  0
 35 36  2  0  0  0
 36 37  1  0  0  0
  2  3  1  0  0  0
  2 11  2  0  0  0
  3  4  2  0  0  0
  4  5  1  0  0  0
  5  6  1  0  0  0
  5 10  2  0  0  0
  6  7  2  0  0  0
  7  8  1  0  0  0
  8 12  1  0  0  0
  8  9  2  0  0  0
 12 13  1  0  0  0
 12 17  2  0  0  0
 13 14  2  0  0  0
 14 15  1  0  0  0
 15 16  1  0  0  0
 15 17  1  0  0  0
  9 10  1  0  0  0
 10 11  1  0  0  0
M  END
> <minimizedAffinity>
-8.12773

$$$$
