CHEMBL2086723


 29 33  0  0  0  0  0  0  0  0999 V2000
  -28.1856   -8.1718   -5.5318 C   0  0  0  0  0  0  0  0  0  0  0  0
  -28.3410   -8.4450   -6.8501 C   0  0  0  0  0  0  0  0  0  0  0  0
  -28.9411   -7.4962   -7.8672 C   0  0  0  0  0  0  0  0  0  0  0  0
  -29.4494   -6.4083   -7.6886 O   0  0  0  0  0  0  0  0  0  0  0  0
  -28.7410   -8.1042   -9.0990 N   0  0  0  0  0  0  0  0  0  0  0  0
  -28.1353   -9.3479   -8.9681 C   0  0  0  0  0  0  0  0  0  0  0  0
  -27.8213  -10.2264   -9.9924 C   0  0  0  0  0  0  0  0  0  0  0  0
  -27.2657  -11.4570   -9.6431 C   0  0  0  0  0  0  0  0  0  0  0  0
  -27.0718  -11.7911   -8.2954 C   0  0  0  0  0  0  0  0  0  0  0  0
  -27.4012  -10.8850   -7.2818 C   0  0  0  0  0  0  0  0  0  0  0  0
  -27.9001   -9.6364   -7.6222 C   0  0  0  0  0  0  0  0  0  0  0  0
  -29.0424   -7.6856   -9.9668 H   0  0  0  0  0  0  0  0  0  0  0  0
  -27.4505   -9.0965   -4.7347 C   0  0  0  0  0  0  0  0  0  0  0  0
  -27.8392  -10.1635   -4.0679 N   0  0  0  0  0  0  0  0  0  0  0  0
  -26.7021  -10.6701   -3.4896 C   0  0  0  0  0  0  0  0  0  0  0  0
  -26.5416  -11.8033   -2.6830 C   0  0  0  0  0  0  0  0  0  0  0  0
  -25.2632  -12.1019   -2.1976 C   0  0  0  0  0  0  0  0  0  0  0  0
  -24.1661  -11.3006   -2.5268 C   0  0  0  0  0  0  0  0  0  0  0  0
  -24.3030  -10.1798   -3.3541 C   0  0  0  0  0  0  0  0  0  0  0  0
  -25.5918   -9.8966   -3.8076 C   0  0  0  0  0  0  0  0  0  0  0  0
  -26.0956   -8.8977   -4.5989 N   0  0  0  0  0  0  0  0  0  0  0  0
  -25.5662   -8.1509   -5.0239 H   0  0  0  0  0  0  0  0  0  0  0  0
  -30.4616   -3.2852   -3.3684 C   0  0  0  0  0  0  0  0  0  0  0  0
  -29.8640   -4.5645   -3.8795 C   0  0  0  0  0  0  0  0  0  0  0  0
  -28.5112   -4.6379   -4.2242 C   0  0  0  0  0  0  0  0  0  0  0  0
  -27.9637   -5.8328   -4.7058 C   0  0  0  0  0  0  0  0  0  0  0  0
  -28.7553   -6.9805   -4.8499 C   0  0  0  0  0  0  0  0  0  0  0  0
  -30.1128   -6.9059   -4.5067 C   0  0  0  0  0  0  0  0  0  0  0  0
  -30.6610   -5.7072   -4.0273 C   0  0  0  0  0  0  0  0  0  0  0  0
 23 24  1  0  0  0
 24 25  1  0  0  0
 24 29  2  0  0  0
 25 26  2  0  0  0
 26 27  1  0  0  0
 27  1  1  0  0  0
 27 28  2  0  0  0
  1  2  2  0  0  0
  1 13  1  0  0  0
  2  3  1  0  0  0
  2 11  1  0  0  0
  3  4  2  0  0  0
  3  5  1  0  0  0
  5  6  1  0  0  0
  5 12  1  0  0  0
  6  7  1  0  0  0
  6 11  2  0  0  0
  7  8  2  0  0  0
  8  9  1  0  0  0
  9 10  2  0  0  0
 10 11  1  0  0  0
 13 14  2  0  0  0
 13 21  1  0  0  0
 14 15  1  0  0  0
 15 16  1  0  0  0
 15 20  2  0  0  0
 16 17  2  0  0  0
 17 18  1  0  0  0
 18 19  2  0  0  0
 19 20  1  0  0  0
 20 21  1  0  0  0
 21 22  1  0  0  0
 28 29  1  0  0  0
M  END
> <minimizedAffinity>
-8.35169

$$$$
