CHEMBL3929803


 40 45  0  0  0  0  0  0  0  0999 V2000
  -14.3719   -2.7389  -13.1439 C   0  0  0  0  0  0  0  0  0  0  0  0
  -15.2182   -1.8617  -12.5076 C   0  0  0  0  0  0  0  0  0  0  0  0
  -15.6507   -0.7233  -13.1506 C   0  0  0  0  0  0  0  0  0  0  0  0
  -15.0330   -0.2345  -14.2497 C   0  0  0  0  0  0  0  0  0  0  0  0
  -15.8688    0.6179  -14.8102 N   0  0  0  0  0  0  0  0  0  0  0  0
  -15.3302    1.6401  -15.4569 C   0  0  0  0  0  0  0  0  0  0  0  0
  -13.9855    1.8921  -15.4986 C   0  0  0  0  0  0  0  0  0  0  0  0
  -13.1330    0.7952  -15.1717 N   0  0  0  0  0  0  0  0  0  0  0  0
  -13.7117   -0.4790  -14.5270 C   0  0  0  0  0  0  0  0  0  0  0  0
  -13.4764   -1.9899  -14.0330 C   0  0  0  0  0  0  0  0  0  0  0  0
  -13.7610    3.4032  -15.7347 C   0  0  0  0  0  0  0  0  0  0  0  0
  -13.1657    4.4706  -15.0104 C   0  0  0  0  0  0  0  0  0  0  0  0
  -12.8064    5.5381  -15.7661 N   0  0  0  0  0  0  0  0  0  0  0  0
  -13.1585    5.2139  -17.0415 N   0  0  0  0  0  0  0  0  0  0  0  0
  -13.7113    3.9443  -17.0496 C   0  0  0  0  0  0  0  0  0  0  0  0
  -12.7331    6.1134  -18.1769 C   0  0  0  0  0  0  0  0  0  0  0  0
  -13.4214    7.4887  -18.3319 C   0  0  0  0  0  0  0  0  0  0  0  0
  -12.9763    8.4875  -17.7622 O   0  0  0  0  0  0  0  0  0  0  0  0
  -14.5567    7.6397  -19.1540 N   0  0  0  0  0  0  0  0  0  0  0  0
  -15.2270    8.9418  -19.2720 C   0  0  0  0  0  0  0  0  0  0  0  0
  -16.1275    8.8804  -20.5144 C   0  0  0  0  0  0  0  0  0  0  0  0
  -15.8346    7.5183  -21.1367 C   0  0  0  0  0  0  0  0  0  0  0  0
  -14.8460    7.6679  -22.1556 O   0  0  0  0  0  0  0  0  0  0  0  0
  -15.2832    6.6687  -19.9755 C   0  0  0  0  0  0  0  0  0  0  0  0
  -14.0641    8.0809  -21.7466 H   0  0  0  0  0  0  0  0  0  0  0  0
  -14.6159   -4.1350  -12.7636 N   0  0  0  0  0  0  0  0  0  0  0  0
  -14.1546   -7.9276  -13.2702 C   0  0  0  0  0  0  0  0  0  0  0  0
  -14.1251   -8.0006  -14.6588 C   0  0  0  0  0  0  0  0  0  0  0  0
  -14.2612   -6.8291  -15.4015 C   0  0  0  0  0  0  0  0  0  0  0  0
  -14.3935   -5.5683  -14.7839 C   0  0  0  0  0  0  0  0  0  0  0  0
  -14.4656   -5.4250  -13.3967 C   0  0  0  0  0  0  0  0  0  0  0  0
  -14.3466   -6.6593  -12.6662 C   0  0  0  0  0  0  0  0  0  0  0  0
  -12.7289   -9.5890  -12.3136 C   0  0  0  0  0  0  0  0  0  0  0  0
  -14.0347   -9.0158  -12.4382 O   0  0  0  0  0  0  0  0  0  0  0  0
  -14.3112   -6.7962  -16.7764 O   0  0  0  0  0  0  0  0  0  0  0  0
  -13.7057   -7.8896  -17.4453 C   0  0  0  0  0  0  0  0  0  0  0  0
  -15.5574   -4.2248  -11.5294 C   0  0  0  0  0  0  0  0  0  0  0  0
  -14.8780   -4.4712  -10.1685 C   0  0  0  0  0  0  0  0  0  0  0  0
  -14.6165   -3.2811   -9.2470 C   0  0  0  0  0  0  0  0  0  0  0  0
  -13.4611   -4.0261   -9.8300 C   0  0  0  0  0  0  0  0  0  0  0  0
 33 34  1  0  0  0
 34 27  1  0  0  0
 27 28  1  0  0  0
 27 32  2  0  0  0
 28 29  2  0  0  0
 29 35  1  0  0  0
 29 30  1  0  0  0
 35 36  1  0  0  0
 30 31  2  0  0  0
 31 26  1  0  0  0
 31 32  1  0  0  0
 26 37  1  0  0  0
 26  1  1  0  0  0
 37 38  1  0  0  0
 38 39  1  0  0  0
 38 40  1  0  0  0
 39 40  1  0  0  0
  1  2  1  0  0  0
  1 10  2  0  0  0
  2  3  2  0  0  0
  3  4  1  0  0  0
  4  5  1  0  0  0
  4  9  2  0  0  0
  5  6  2  0  0  0
  6  7  1  0  0  0
  7 11  1  0  0  0
  7  8  2  0  0  0
 11 12  1  0  0  0
 11 15  2  0  0  0
 12 13  2  0  0  0
 13 14  1  0  0  0
 14 16  1  0  0  0
 14 15  1  0  0  0
 16 17  1  0  0  0
 17 18  2  0  0  0
 17 19  1  0  0  0
 19 20  1  0  0  0
 19 24  1  0  0  0
 20 21  1  0  0  0
 21 22  1  0  0  0
 22 23  1  0  0  0
 22 24  1  0  0  0
 23 25  1  0  0  0
  8  9  1  0  0  0
  9 10  1  0  0  0
M  END
> <minimizedAffinity>
-7.18619

$$$$
