CHEMBL3896265


 34 37  0  0  0  0  0  0  0  0999 V2000
  -29.7162   -6.2152   -5.4292 C   0  0  0  0  0  0  0  0  0  0  0  0
  -28.4772   -6.8630   -5.3330 C   0  0  0  0  0  0  0  0  0  0  0  0
  -28.2942   -8.1524   -5.8545 C   0  0  0  0  0  0  0  0  0  0  0  0
  -29.3565   -8.8154   -6.4781 C   0  0  0  0  0  0  0  0  0  0  0  0
  -30.5471   -8.0864   -6.7004 C   0  0  0  0  0  0  0  0  0  0  0  0
  -30.7464   -6.8204   -6.1365 C   0  0  0  0  0  0  0  0  0  0  0  0
  -29.4023  -10.3377   -6.5350 C   0  0  0  0  0  0  0  0  0  0  0  0
  -28.2077  -11.0766   -6.6440 C   0  0  0  0  0  0  0  0  0  0  0  0
  -27.9618  -11.0011   -8.0613 C   0  0  0  0  0  0  0  0  0  0  0  0
  -26.8108  -10.9148   -8.8590 C   0  0  0  0  0  0  0  0  0  0  0  0
  -26.9675  -10.7063  -10.2350 C   0  0  0  0  0  0  0  0  0  0  0  0
  -28.2345  -10.6656  -10.8217 C   0  0  0  0  0  0  0  0  0  0  0  0
  -29.3923  -10.7930  -10.0540 C   0  0  0  0  0  0  0  0  0  0  0  0
  -29.2150  -10.8912   -8.6728 C   0  0  0  0  0  0  0  0  0  0  0  0
  -30.1057  -10.9489   -7.6090 N   0  0  0  0  0  0  0  0  0  0  0  0
  -31.4086  -11.4656   -7.6452 C   0  0  0  0  0  0  0  0  0  0  0  0
  -31.7289  -12.1542   -6.5090 N   0  0  0  0  0  0  0  0  0  0  0  0
  -32.0851  -11.4397   -8.6616 O   0  0  0  0  0  0  0  0  0  0  0  0
  -30.9921  -12.4723   -5.8910 H   0  0  0  0  0  0  0  0  0  0  0  0
  -32.5145  -12.7858   -6.6189 H   0  0  0  0  0  0  0  0  0  0  0  0
  -29.6338   -2.6773   -4.6520 N   0  0  0  0  0  0  0  0  0  0  0  0
  -29.5714   -3.8049   -5.4518 C   0  0  0  0  0  0  0  0  0  0  0  0
  -29.2810   -3.8082   -6.6406 O   0  0  0  0  0  0  0  0  0  0  0  0
  -29.9350   -4.9679   -4.7901 N   0  0  0  0  0  0  0  0  0  0  0  0
  -30.1364   -2.7509   -3.7808 H   0  0  0  0  0  0  0  0  0  0  0  0
  -30.7746   -4.8899   -4.2356 H   0  0  0  0  0  0  0  0  0  0  0  0
  -31.0844    1.7581   -6.3155 C   0  0  0  0  0  0  0  0  0  0  0  0
  -29.9874    0.7993   -5.9519 C   0  0  0  0  0  0  0  0  0  0  0  0
  -28.6519    1.1656   -6.1489 C   0  0  0  0  0  0  0  0  0  0  0  0
  -27.6312    0.3036   -5.7665 C   0  0  0  0  0  0  0  0  0  0  0  0
  -27.9352   -0.9329   -5.2142 C   0  0  0  0  0  0  0  0  0  0  0  0
  -26.9019   -1.6360   -4.7248 F   0  0  0  0  0  0  0  0  0  0  0  0
  -29.2644   -1.3750   -5.0878 C   0  0  0  0  0  0  0  0  0  0  0  0
  -30.2880   -0.4717   -5.4197 C   0  0  0  0  0  0  0  0  0  0  0  0
 27 28  1  0  0  0
 28 29  1  0  0  0
 28 34  2  0  0  0
 29 30  2  0  0  0
 30 31  1  0  0  0
 31 32  1  0  0  0
 31 33  2  0  0  0
 33 21  1  0  0  0
 33 34  1  0  0  0
 21 22  1  0  0  0
 21 25  1  0  0  0
 22 23  2  0  0  0
 22 24  1  0  0  0
 24  1  1  0  0  0
 24 26  1  0  0  0
  1  2  1  0  0  0
  1  6  2  0  0  0
  2  3  2  0  0  0
  3  4  1  0  0  0
  4  7  1  0  0  0
  4  5  2  0  0  0
  7  8  2  0  0  0
  7 15  1  0  0  0
  8  9  1  0  0  0
  9 10  1  0  0  0
  9 14  2  0  0  0
 10 11  2  0  0  0
 11 12  1  0  0  0
 12 13  2  0  0  0
 13 14  1  0  0  0
 14 15  1  0  0  0
 15 16  1  0  0  0
 16 17  1  0  0  0
 16 18  2  0  0  0
 17 19  1  0  0  0
 17 20  1  0  0  0
  5  6  1  0  0  0
M  END
> <minimizedAffinity>
-9.72250

$$$$
