CHEMBL400859


 29 33  0  0  0  0  0  0  0  0999 V2000
  -27.6970   -1.9127   -8.2617 C   0  0  0  0  0  0  0  0  0  0  0  0
  -27.5186   -0.8945   -7.4019 N   0  0  0  0  0  0  0  0  0  0  0  0
  -28.1128   -1.3448   -6.2734 N   0  0  0  0  0  0  0  0  0  0  0  0
  -28.6297   -2.6016   -6.3805 C   0  0  0  0  0  0  0  0  0  0  0  0
  -29.2642   -3.2886   -5.4149 N   0  0  0  0  0  0  0  0  0  0  0  0
  -29.6394   -4.5307   -5.8267 C   0  0  0  0  0  0  0  0  0  0  0  0
  -29.4207   -5.1166   -7.0859 C   0  0  0  0  0  0  0  0  0  0  0  0
  -28.7664   -4.3121   -8.0369 C   0  0  0  0  0  0  0  0  0  0  0  0
  -28.3620   -3.0159   -7.6713 C   0  0  0  0  0  0  0  0  0  0  0  0
  -28.1336   -0.7530   -5.4512 H   0  0  0  0  0  0  0  0  0  0  0  0
  -24.9620   -1.5115  -12.3566 C   0  0  0  0  0  0  0  0  0  0  0  0
  -25.2922   -1.5764  -13.7275 C   0  0  0  0  0  0  0  0  0  0  0  0
  -26.6070   -1.7742  -14.1595 C   0  0  0  0  0  0  0  0  0  0  0  0
  -27.6534   -1.9320  -13.2472 C   0  0  0  0  0  0  0  0  0  0  0  0
  -27.3154   -1.8696  -11.8951 C   0  0  0  0  0  0  0  0  0  0  0  0
  -28.0604   -1.9982  -10.7519 N   0  0  0  0  0  0  0  0  0  0  0  0
  -27.2293   -1.8349   -9.6750 C   0  0  0  0  0  0  0  0  0  0  0  0
  -25.9874   -1.6238  -10.0605 N   0  0  0  0  0  0  0  0  0  0  0  0
  -26.0188   -1.6530  -11.4367 C   0  0  0  0  0  0  0  0  0  0  0  0
  -29.0512   -2.1792  -10.6818 H   0  0  0  0  0  0  0  0  0  0  0  0
  -23.5322   -1.3404  -11.9261 C   0  0  0  0  0  0  0  0  0  0  0  0
  -22.3406    0.2812  -13.1440 C   0  0  0  0  0  0  0  0  0  0  0  0
  -22.7156   -1.0865  -13.0691 O   0  0  0  0  0  0  0  0  0  0  0  0
  -29.8351   -6.5021   -7.3922 C   0  0  0  0  0  0  0  0  0  0  0  0
  -31.0835   -7.0166   -7.0068 C   0  0  0  0  0  0  0  0  0  0  0  0
  -31.4486   -8.3242   -7.3277 C   0  0  0  0  0  0  0  0  0  0  0  0
  -30.5472   -9.1054   -8.0267 C   0  0  0  0  0  0  0  0  0  0  0  0
  -29.3361   -8.6680   -8.4198 N   0  0  0  0  0  0  0  0  0  0  0  0
  -29.0183   -7.3881   -8.1025 C   0  0  0  0  0  0  0  0  0  0  0  0
 22 23  1  0  0  0
 23 21  1  0  0  0
 21 11  1  0  0  0
 11 12  1  0  0  0
 11 19  2  0  0  0
 12 13  2  0  0  0
 13 14  1  0  0  0
 14 15  2  0  0  0
 15 16  1  0  0  0
 15 19  1  0  0  0
 16 17  1  0  0  0
 16 20  1  0  0  0
 17  1  1  0  0  0
 17 18  2  0  0  0
  1  2  2  0  0  0
  1  9  1  0  0  0
  2  3  1  0  0  0
  3  4  1  0  0  0
  3 10  1  0  0  0
  4  5  1  0  0  0
  4  9  2  0  0  0
  5  6  2  0  0  0
  6  7  1  0  0  0
  7 24  1  0  0  0
  7  8  2  0  0  0
 24 25  1  0  0  0
 24 29  2  0  0  0
 25 26  2  0  0  0
 26 27  1  0  0  0
 27 28  2  0  0  0
 28 29  1  0  0  0
  8  9  1  0  0  0
 18 19  1  0  0  0
M  END
> <minimizedAffinity>
-10.27803

$$$$
