CHEMBL3917295


 43 47  0  0  0  0  0  0  0  0999 V2000
  -15.0809    2.0143  -15.7400 N   0  0  0  0  0  0  0  0  0  0  0  0
  -16.4815    2.2084  -15.4848 C   0  0  0  0  0  0  0  0  0  0  0  0
  -17.1241    3.2427  -16.1627 C   0  0  0  0  0  0  0  0  0  0  0  0
  -18.4159    3.6387  -15.8716 C   0  0  0  0  0  0  0  0  0  0  0  0
  -19.2115    2.9119  -15.0254 C   0  0  0  0  0  0  0  0  0  0  0  0
  -20.4050    3.4777  -14.8293 N   0  0  0  0  0  0  0  0  0  0  0  0
  -21.3287    2.7203  -14.2336 C   0  0  0  0  0  0  0  0  0  0  0  0
  -21.0813    1.4081  -13.8875 C   0  0  0  0  0  0  0  0  0  0  0  0
  -19.8060    0.8770  -13.9757 N   0  0  0  0  0  0  0  0  0  0  0  0
  -18.7888    1.6800  -14.5199 C   0  0  0  0  0  0  0  0  0  0  0  0
  -17.3646    1.4006  -14.6900 C   0  0  0  0  0  0  0  0  0  0  0  0
  -22.2768    0.6056  -13.6311 C   0  0  0  0  0  0  0  0  0  0  0  0
  -22.6286   -0.1444  -12.4762 C   0  0  0  0  0  0  0  0  0  0  0  0
  -23.6483   -0.9880  -12.6873 N   0  0  0  0  0  0  0  0  0  0  0  0
  -23.9472   -0.7984  -13.9830 N   0  0  0  0  0  0  0  0  0  0  0  0
  -25.1657   -1.3362  -14.5431 C   0  0  0  0  0  0  0  0  0  0  0  0
  -23.0522    0.0171  -14.6211 C   0  0  0  0  0  0  0  0  0  0  0  0
  -13.5682    2.7295  -19.1870 C   0  0  0  0  0  0  0  0  0  0  0  0
  -13.4887    1.4218  -19.6740 C   0  0  0  0  0  0  0  0  0  0  0  0
  -13.9208    0.3708  -18.8770 C   0  0  0  0  0  0  0  0  0  0  0  0
  -14.4720    0.6271  -17.6256 C   0  0  0  0  0  0  0  0  0  0  0  0
  -14.4928    1.8981  -17.0478 C   0  0  0  0  0  0  0  0  0  0  0  0
  -14.0245    2.9571  -17.8623 C   0  0  0  0  0  0  0  0  0  0  0  0
  -13.4121    5.1193  -19.2938 C   0  0  0  0  0  0  0  0  0  0  0  0
  -13.2309    3.8449  -19.9215 O   0  0  0  0  0  0  0  0  0  0  0  0
  -13.8011   -0.9601  -19.1557 O   0  0  0  0  0  0  0  0  0  0  0  0
  -13.1549   -1.7531  -18.1787 C   0  0  0  0  0  0  0  0  0  0  0  0
  -14.0907    2.2694  -14.6335 C   0  0  0  0  0  0  0  0  0  0  0  0
  -13.3236    1.0578  -13.9781 C   0  0  0  0  0  0  0  0  0  0  0  0
  -14.0721    0.1109  -13.1219 N   0  0  0  0  0  0  0  0  0  0  0  0
  -14.8666    0.5725  -12.6846 H   0  0  0  0  0  0  0  0  0  0  0  0
  -14.4529   -1.1470  -13.8062 C   0  0  0  0  0  0  0  0  0  0  0  0
  -15.7615   -1.7766  -13.3152 C   0  0  0  0  0  0  0  0  0  0  0  0
  -15.6403   -2.2384  -11.8706 C   0  0  0  0  0  0  0  0  0  0  0  0
  -14.5521   -3.2523  -11.7275 N   0  0  0  0  0  0  0  0  0  0  0  0
  -13.2336   -2.7606  -12.2560 C   0  0  0  0  0  0  0  0  0  0  0  0
  -13.3656   -2.2293  -13.6809 C   0  0  0  0  0  0  0  0  0  0  0  0
  -14.4152   -3.8956  -10.1507 S   0  0  0  0  0  0  0  0  0  0  0  0
  -15.7342   -3.1706   -9.4818 N   0  0  0  0  0  0  0  0  0  0  0  0
  -14.6836   -5.3101  -10.1994 O   0  0  0  0  0  0  0  0  0  0  0  0
  -13.2331   -3.3392   -9.5319 O   0  0  0  0  0  0  0  0  0  0  0  0
  -16.6112   -3.4780   -9.8900 H   0  0  0  0  0  0  0  0  0  0  0  0
  -15.6221   -2.1930   -9.2391 H   0  0  0  0  0  0  0  0  0  0  0  0
 24 25  1  0  0  0
 25 18  1  0  0  0
 18 19  1  0  0  0
 18 23  2  0  0  0
 19 20  2  0  0  0
 20 26  1  0  0  0
 20 21  1  0  0  0
 26 27  1  0  0  0
 21 22  2  0  0  0
 22  1  1  0  0  0
 22 23  1  0  0  0
  1 28  1  0  0  0
  1  2  1  0  0  0
 28 29  1  0  0  0
 29 30  1  0  0  0
 30 32  1  0  0  0
 30 31  1  0  0  0
 32 33  1  0  0  0
 32 37  1  0  0  0
 33 34  1  0  0  0
 34 35  1  0  0  0
 35 38  1  0  0  0
 35 36  1  0  0  0
 38 39  1  0  0  0
 38 40  2  0  0  0
 38 41  2  0  0  0
 39 42  1  0  0  0
 39 43  1  0  0  0
 36 37  1  0  0  0
  2  3  1  0  0  0
  2 11  2  0  0  0
  3  4  2  0  0  0
  4  5  1  0  0  0
  5  6  1  0  0  0
  5 10  2  0  0  0
  6  7  2  0  0  0
  7  8  1  0  0  0
  8 12  1  0  0  0
  8  9  2  0  0  0
 12 13  1  0  0  0
 12 17  2  0  0  0
 13 14  2  0  0  0
 14 15  1  0  0  0
 15 16  1  0  0  0
 15 17  1  0  0  0
  9 10  1  0  0  0
 10 11  1  0  0  0
M  END
> <minimizedAffinity>
-9.06293

$$$$
