CHEMBL249176


 25 28  0  0  0  0  0  0  0  0999 V2000
  -29.5916   -7.9691   -7.4040 C   0  0  0  0  0  0  0  0  0  0  0  0
  -30.3754   -8.8988   -7.9736 C   0  0  0  0  0  0  0  0  0  0  0  0
  -31.8416   -9.1165   -7.8863 C   0  0  0  0  0  0  0  0  0  0  0  0
  -32.7158   -8.4018   -7.4430 O   0  0  0  0  0  0  0  0  0  0  0  0
  -32.0080  -10.3600   -8.4717 N   0  0  0  0  0  0  0  0  0  0  0  0
  -30.8808  -10.8907   -9.0472 N   0  0  0  0  0  0  0  0  0  0  0  0
  -29.9080  -10.0418   -8.8114 C   0  0  0  0  0  0  0  0  0  0  0  0
  -32.9132  -10.7982   -8.6024 H   0  0  0  0  0  0  0  0  0  0  0  0
  -31.6036   -5.3099   -3.7558 C   0  0  0  0  0  0  0  0  0  0  0  0
  -30.8198   -5.6531   -4.9218 N   0  0  0  0  0  0  0  0  0  0  0  0
  -30.6630   -6.9266   -5.3971 C   0  0  0  0  0  0  0  0  0  0  0  0
  -29.9426   -6.8654   -6.5660 C   0  0  0  0  0  0  0  0  0  0  0  0
  -29.5481   -5.4986   -6.7480 C   0  0  0  0  0  0  0  0  0  0  0  0
  -28.7620   -4.8116   -7.7022 C   0  0  0  0  0  0  0  0  0  0  0  0
  -28.5857   -3.4223   -7.5925 C   0  0  0  0  0  0  0  0  0  0  0  0
  -29.1888   -2.7143   -6.5522 C   0  0  0  0  0  0  0  0  0  0  0  0
  -29.9694   -3.3689   -5.5957 C   0  0  0  0  0  0  0  0  0  0  0  0
  -30.1280   -4.7586   -5.7100 C   0  0  0  0  0  0  0  0  0  0  0  0
  -27.7808   -2.7267   -8.5552 C   0  0  0  0  0  0  0  0  0  0  0  0
  -27.1289   -2.1627   -9.3315 N   0  0  0  0  0  0  0  0  0  0  0  0
  -28.6022  -10.2102   -9.3711 C   0  0  0  0  0  0  0  0  0  0  0  0
  -28.0935   -9.9611  -10.6329 C   0  0  0  0  0  0  0  0  0  0  0  0
  -26.7586  -10.2801  -10.8156 N   0  0  0  0  0  0  0  0  0  0  0  0
  -26.2321  -10.8008   -9.7211 N   0  0  0  0  0  0  0  0  0  0  0  0
  -27.3288  -10.9201   -8.4637 S   0  0  0  0  0  0  0  0  0  0  0  0
  9 10  1  0  0  0
 10 11  1  0  0  0
 10 18  1  0  0  0
 11 12  2  0  0  0
 12  1  1  0  0  0
 12 13  1  0  0  0
  1  2  2  0  0  0
  2  3  1  0  0  0
  2  7  1  0  0  0
  3  4  2  0  0  0
  3  5  1  0  0  0
  5  6  1  0  0  0
  5  8  1  0  0  0
  6  7  2  0  0  0
  7 21  1  0  0  0
 21 22  2  0  0  0
 21 25  1  0  0  0
 22 23  1  0  0  0
 23 24  2  0  0  0
 24 25  1  0  0  0
 13 14  1  0  0  0
 13 18  2  0  0  0
 14 15  2  0  0  0
 15 19  1  0  0  0
 15 16  1  0  0  0
 19 20  3  0  0  0
 16 17  2  0  0  0
 17 18  1  0  0  0
M  END
> <minimizedAffinity>
-8.75992

$$$$
