CHEMBL271018


 36 38  0  0  0  0  0  0  0  0999 V2000
  -28.8682   -3.7671   -7.2585 C   0  0  0  0  0  0  0  0  0  0  0  0
  -28.5731   -3.3495   -8.5682 C   0  0  0  0  0  0  0  0  0  0  0  0
  -27.9625   -2.1138   -8.7960 C   0  0  0  0  0  0  0  0  0  0  0  0
  -27.6834   -1.2837   -7.7026 C   0  0  0  0  0  0  0  0  0  0  0  0
  -28.0044   -1.6794   -6.4042 C   0  0  0  0  0  0  0  0  0  0  0  0
  -28.6051   -2.9216   -6.1646 C   0  0  0  0  0  0  0  0  0  0  0  0
  -28.8436   -3.3500   -4.7433 C   0  0  0  0  0  0  0  0  0  0  0  0
  -28.8393   -6.1972   -7.5907 C   0  0  0  0  0  0  0  0  0  0  0  0
  -27.8768   -6.1378   -8.3508 O   0  0  0  0  0  0  0  0  0  0  0  0
  -29.4078   -5.0567   -7.0230 N   0  0  0  0  0  0  0  0  0  0  0  0
  -29.9710   -5.1450   -6.1920 H   0  0  0  0  0  0  0  0  0  0  0  0
  -30.3826   -9.9571   -6.4082 C   0  0  0  0  0  0  0  0  0  0  0  0
  -30.5775   -9.5691   -7.6703 N   0  0  0  0  0  0  0  0  0  0  0  0
  -30.0723   -8.3656   -8.0313 C   0  0  0  0  0  0  0  0  0  0  0  0
  -29.3824   -7.5227   -7.1867 C   0  0  0  0  0  0  0  0  0  0  0  0
  -29.2698   -8.0138   -5.8967 C   0  0  0  0  0  0  0  0  0  0  0  0
  -29.7467   -9.2155   -5.5036 N   0  0  0  0  0  0  0  0  0  0  0  0
  -32.2476  -11.4454   -6.4524 C   0  0  0  0  0  0  0  0  0  0  0  0
  -30.8759  -11.2038   -6.0639 N   0  0  0  0  0  0  0  0  0  0  0  0
  -30.1954  -11.8898   -6.3673 H   0  0  0  0  0  0  0  0  0  0  0  0
  -28.5766   -7.2802   -4.9541 O   0  0  0  0  0  0  0  0  0  0  0  0
  -29.3588   -6.9303   -3.8196 C   0  0  0  0  0  0  0  0  0  0  0  0
  -27.5961   -1.6020  -10.1505 C   0  0  0  0  0  0  0  0  0  0  0  0
  -28.3123   -0.7265  -10.6291 O   0  0  0  0  0  0  0  0  0  0  0  0
  -26.4808   -2.1547  -10.7626 N   0  0  0  0  0  0  0  0  0  0  0  0
  -26.0147   -2.9264  -10.3037 H   0  0  0  0  0  0  0  0  0  0  0  0
  -25.9448   -1.7595  -12.0120 C   0  0  0  0  0  0  0  0  0  0  0  0
  -26.5709   -2.0183  -13.2338 C   0  0  0  0  0  0  0  0  0  0  0  0
  -25.9883   -1.6208  -14.4393 C   0  0  0  0  0  0  0  0  0  0  0  0
  -24.7589   -0.9701  -14.4390 C   0  0  0  0  0  0  0  0  0  0  0  0
  -24.1099   -0.6922  -13.2284 C   0  0  0  0  0  0  0  0  0  0  0  0
  -24.7256   -1.0691  -12.0170 C   0  0  0  0  0  0  0  0  0  0  0  0
  -22.7583   -0.0236  -13.2162 C   0  0  0  0  0  0  0  0  0  0  0  0
  -22.0975   -0.1470  -12.0303 F   0  0  0  0  0  0  0  0  0  0  0  0
  -21.9179   -0.5226  -14.1639 F   0  0  0  0  0  0  0  0  0  0  0  0
  -22.8393    1.3151  -13.4560 F   0  0  0  0  0  0  0  0  0  0  0  0
 18 19  1  0  0  0
 19 12  1  0  0  0
 19 20  1  0  0  0
 12 13  1  0  0  0
 12 17  2  0  0  0
 13 14  2  0  0  0
 14 15  1  0  0  0
 15  8  1  0  0  0
 15 16  2  0  0  0
  8  9  2  0  0  0
  8 10  1  0  0  0
 10  1  1  0  0  0
 10 11  1  0  0  0
  1  2  1  0  0  0
  1  6  2  0  0  0
  2  3  2  0  0  0
  3 23  1  0  0  0
  3  4  1  0  0  0
 23 24  2  0  0  0
 23 25  1  0  0  0
 25 27  1  0  0  0
 25 26  1  0  0  0
 27 28  1  0  0  0
 27 32  2  0  0  0
 28 29  2  0  0  0
 29 30  1  0  0  0
 30 31  2  0  0  0
 31 33  1  0  0  0
 31 32  1  0  0  0
 33 34  1  0  0  0
 33 35  1  0  0  0
 33 36  1  0  0  0
  4  5  2  0  0  0
  5  6  1  0  0  0
  6  7  1  0  0  0
 16 21  1  0  0  0
 16 17  1  0  0  0
 21 22  1  0  0  0
M  END
> <minimizedAffinity>
-10.14333

$$$$
