CHEMBL2029988


 39 42  0  0  0  0  0  0  0  0999 V2000
  -28.1489   -1.9029   -4.7700 C   0  0  0  0  0  0  0  0  0  0  0  0
  -28.2736   -0.5677   -4.3696 C   0  0  0  0  0  0  0  0  0  0  0  0
  -28.2870    0.4515   -5.3138 C   0  0  0  0  0  0  0  0  0  0  0  0
  -28.0720    0.1551   -6.6540 C   0  0  0  0  0  0  0  0  0  0  0  0
  -27.8211   -1.1555   -7.0542 C   0  0  0  0  0  0  0  0  0  0  0  0
  -27.8960   -2.1973   -6.1120 C   0  0  0  0  0  0  0  0  0  0  0  0
  -27.4862   -1.4796   -8.3768 N   0  0  0  0  0  0  0  0  0  0  0  0
  -28.1333   -2.3520   -9.2234 C   0  0  0  0  0  0  0  0  0  0  0  0
  -29.1250   -3.0240   -8.9549 O   0  0  0  0  0  0  0  0  0  0  0  0
  -27.6598   -2.4020  -10.5098 N   0  0  0  0  0  0  0  0  0  0  0  0
  -26.7601   -0.9184   -8.8106 H   0  0  0  0  0  0  0  0  0  0  0  0
  -28.2468   -2.9271  -11.1433 H   0  0  0  0  0  0  0  0  0  0  0  0
  -26.5211   -1.8074  -10.9978 C   0  0  0  0  0  0  0  0  0  0  0  0
  -26.2186   -1.6023  -12.3619 C   0  0  0  0  0  0  0  0  0  0  0  0
  -25.0013   -0.9558  -12.3530 C   0  0  0  0  0  0  0  0  0  0  0  0
  -24.6012   -0.8026  -11.0632 O   0  0  0  0  0  0  0  0  0  0  0  0
  -25.5442   -1.3235  -10.2247 N   0  0  0  0  0  0  0  0  0  0  0  0
  -24.0910   -0.3527  -13.3856 C   0  0  0  0  0  0  0  0  0  0  0  0
  -24.6459   -0.6528  -14.7976 C   0  0  0  0  0  0  0  0  0  0  0  0
  -24.0626    1.1788  -13.2213 C   0  0  0  0  0  0  0  0  0  0  0  0
  -22.6660   -0.9438  -13.2410 C   0  0  0  0  0  0  0  0  0  0  0  0
  -21.9352   -0.8358  -14.3760 F   0  0  0  0  0  0  0  0  0  0  0  0
  -21.9565   -0.3342  -12.2628 F   0  0  0  0  0  0  0  0  0  0  0  0
  -22.7010   -2.2634  -12.9344 F   0  0  0  0  0  0  0  0  0  0  0  0
  -28.2243   -2.9527   -3.8720 O   0  0  0  0  0  0  0  0  0  0  0  0
  -30.5668   -7.0813   -5.7041 C   0  0  0  0  0  0  0  0  0  0  0  0
  -31.3643   -6.4700   -4.7234 C   0  0  0  0  0  0  0  0  0  0  0  0
  -30.9909   -5.3009   -4.0850 C   0  0  0  0  0  0  0  0  0  0  0  0
  -31.8816   -4.7225   -3.2731 N   0  0  0  0  0  0  0  0  0  0  0  0
  -31.5441   -3.5393   -2.7559 C   0  0  0  0  0  0  0  0  0  0  0  0
  -30.3912   -2.9069   -2.9500 N   0  0  0  0  0  0  0  0  0  0  0  0
  -29.4745   -3.5529   -3.7016 C   0  0  0  0  0  0  0  0  0  0  0  0
  -29.7288   -4.7667   -4.3468 C   0  0  0  0  0  0  0  0  0  0  0  0
  -28.8532   -5.4550   -5.2181 C   0  0  0  0  0  0  0  0  0  0  0  0
  -29.2720   -6.5946   -5.9219 C   0  0  0  0  0  0  0  0  0  0  0  0
  -32.3164   -7.9396   -7.0546 C   0  0  0  0  0  0  0  0  0  0  0  0
  -31.0418   -8.1417   -6.4326 O   0  0  0  0  0  0  0  0  0  0  0  0
  -28.3035   -7.0558   -6.7686 O   0  0  0  0  0  0  0  0  0  0  0  0
  -28.3947   -6.7786   -8.1567 C   0  0  0  0  0  0  0  0  0  0  0  0
 36 37  1  0  0  0
 37 26  1  0  0  0
 26 27  1  0  0  0
 26 35  2  0  0  0
 27 28  2  0  0  0
 28 29  1  0  0  0
 28 33  1  0  0  0
 29 30  2  0  0  0
 30 31  1  0  0  0
 31 32  2  0  0  0
 32 25  1  0  0  0
 32 33  1  0  0  0
 25  1  1  0  0  0
  1  2  1  0  0  0
  1  6  2  0  0  0
  2  3  2  0  0  0
  3  4  1  0  0  0
  4  5  2  0  0  0
  5  7  1  0  0  0
  5  6  1  0  0  0
  7  8  1  0  0  0
  7 11  1  0  0  0
  8  9  2  0  0  0
  8 10  1  0  0  0
 10 13  1  0  0  0
 10 12  1  0  0  0
 13 14  1  0  0  0
 13 17  2  0  0  0
 14 15  2  0  0  0
 15 18  1  0  0  0
 15 16  1  0  0  0
 18 19  1  0  0  0
 18 20  1  0  0  0
 18 21  1  0  0  0
 21 22  1  0  0  0
 21 23  1  0  0  0
 21 24  1  0  0  0
 16 17  1  0  0  0
 33 34  2  0  0  0
 34 35  1  0  0  0
 35 38  1  0  0  0
 38 39  1  0  0  0
M  END
> <minimizedAffinity>
-10.05908

$$$$
