CHEMBL3976788


 34 38  0  0  0  0  0  0  0  0999 V2000
  -12.9460   -1.5292  -14.9184 C   0  0  0  0  0  0  0  0  0  0  0  0
  -13.3720   -0.2875  -15.3950 C   0  0  0  0  0  0  0  0  0  0  0  0
  -13.0384    0.9072  -14.7273 C   0  0  0  0  0  0  0  0  0  0  0  0
  -13.4629    2.1875  -15.1278 C   0  0  0  0  0  0  0  0  0  0  0  0
  -13.0184    3.3037  -14.5292 N   0  0  0  0  0  0  0  0  0  0  0  0
  -12.1752    3.1369  -13.5073 C   0  0  0  0  0  0  0  0  0  0  0  0
  -11.7629    1.9670  -13.0015 N   0  0  0  0  0  0  0  0  0  0  0  0
  -12.1955    0.8611  -13.6109 C   0  0  0  0  0  0  0  0  0  0  0  0
  -11.8052   -0.3804  -13.1231 C   0  0  0  0  0  0  0  0  0  0  0  0
  -12.2059   -1.5790  -13.7294 C   0  0  0  0  0  0  0  0  0  0  0  0
  -12.8664   -2.8194  -16.9200 C   0  0  0  0  0  0  0  0  0  0  0  0
  -13.2291   -2.7182  -15.5434 O   0  0  0  0  0  0  0  0  0  0  0  0
  -14.4024    2.3042  -16.1812 N   0  0  0  0  0  0  0  0  0  0  0  0
  -14.0797    1.8238  -17.0160 H   0  0  0  0  0  0  0  0  0  0  0  0
  -15.7911    2.4900  -16.1118 C   0  0  0  0  0  0  0  0  0  0  0  0
  -16.3148    3.7902  -16.0501 C   0  0  0  0  0  0  0  0  0  0  0  0
  -17.6589    4.0148  -15.7339 C   0  0  0  0  0  0  0  0  0  0  0  0
  -18.5026    2.9376  -15.4562 C   0  0  0  0  0  0  0  0  0  0  0  0
  -20.2675    3.3257  -14.8754 Br  0  0  0  0  0  0  0  0  0  0  0  0
  -18.0132    1.6341  -15.5616 C   0  0  0  0  0  0  0  0  0  0  0  0
  -18.9865    0.2393  -15.2487 Cl  0  0  0  0  0  0  0  0  0  0  0  0
  -16.6727    1.4181  -15.8844 C   0  0  0  0  0  0  0  0  0  0  0  0
  -11.9031   -2.8234  -13.2221 O   0  0  0  0  0  0  0  0  0  0  0  0
  -12.7359   -3.3364  -12.1666 C   0  0  0  0  0  0  0  0  0  0  0  0
  -13.5086   -4.5988  -12.5778 C   0  0  0  0  0  0  0  0  0  0  0  0
  -13.1977   -5.6680  -11.6673 O   0  0  0  0  0  0  0  0  0  0  0  0
  -12.5280   -5.0966  -10.5483 C   0  0  0  0  0  0  0  0  0  0  0  0
  -13.5063   -4.6099   -9.4811 C   0  0  0  0  0  0  0  0  0  0  0  0
  -13.9276   -5.6474   -8.5347 N   0  0  0  0  0  0  0  0  0  0  0  0
  -12.7465   -3.4358   -8.8757 C   0  0  0  0  0  0  0  0  0  0  0  0
  -11.8737   -2.9114   -9.8969 O   0  0  0  0  0  0  0  0  0  0  0  0
  -11.8601   -3.8226  -11.0108 C   0  0  0  0  0  0  0  0  0  0  0  0
  -13.1140   -6.0392   -8.0595 H   0  0  0  0  0  0  0  0  0  0  0  0
  -14.3257   -6.4232   -9.0678 H   0  0  0  0  0  0  0  0  0  0  0  0
 11 12  1  0  0  0
 12  1  1  0  0  0
  1  2  1  0  0  0
  1 10  2  0  0  0
  2  3  2  0  0  0
  3  4  1  0  0  0
  3  8  1  0  0  0
  4 13  1  0  0  0
  4  5  2  0  0  0
 13 15  1  0  0  0
 13 14  1  0  0  0
 15 16  1  0  0  0
 15 22  2  0  0  0
 16 17  2  0  0  0
 17 18  1  0  0  0
 18 19  1  0  0  0
 18 20  2  0  0  0
 20 21  1  0  0  0
 20 22  1  0  0  0
  5  6  1  0  0  0
  6  7  2  0  0  0
  7  8  1  0  0  0
  8  9  2  0  0  0
  9 10  1  0  0  0
 10 23  1  0  0  0
 24 25  1  0  0  0
 24 32  1  0  0  0
 24 23  1  0  0  0
 25 26  1  0  0  0
 26 27  1  0  0  0
 27 28  1  0  0  0
 27 32  1  0  0  0
 28 29  1  0  0  0
 28 30  1  0  0  0
 29 33  1  0  0  0
 29 34  1  0  0  0
 30 31  1  0  0  0
 31 32  1  0  0  0
M  END
> <minimizedAffinity>
-7.56226

$$$$
