CHEMBL3694696


 37 40  0  0  0  0  0  0  0  0999 V2000
  -29.3659   -7.3421   -6.1763 C   0  0  0  0  0  0  0  0  0  0  0  0
  -28.3239   -7.2024   -5.1315 C   0  0  0  0  0  0  0  0  0  0  0  0
  -28.0435   -5.9764   -4.6315 C   0  0  0  0  0  0  0  0  0  0  0  0
  -28.8968   -4.9077   -4.9659 N   0  0  0  0  0  0  0  0  0  0  0  0
  -29.0776   -3.6147   -4.4324 C   0  0  0  0  0  0  0  0  0  0  0  0
  -30.2644   -3.9656   -3.7618 C   0  0  0  0  0  0  0  0  0  0  0  0
  -31.0346   -4.7304   -4.6243 N   0  0  0  0  0  0  0  0  0  0  0  0
  -30.1491   -5.2151   -5.4856 C   0  0  0  0  0  0  0  0  0  0  0  0
  -30.2227   -6.3106   -6.3757 C   0  0  0  0  0  0  0  0  0  0  0  0
  -32.1940  -10.1991   -8.7403 N   0  0  0  0  0  0  0  0  0  0  0  0
  -30.9251   -9.9606   -8.2112 C   0  0  0  0  0  0  0  0  0  0  0  0
  -30.7552   -8.7916   -7.5722 N   0  0  0  0  0  0  0  0  0  0  0  0
  -29.5483   -8.5789   -6.9935 C   0  0  0  0  0  0  0  0  0  0  0  0
  -28.5108   -9.4420   -7.0377 N   0  0  0  0  0  0  0  0  0  0  0  0
  -28.7370  -10.6085   -7.6771 C   0  0  0  0  0  0  0  0  0  0  0  0
  -29.9322  -10.9217   -8.2727 C   0  0  0  0  0  0  0  0  0  0  0  0
  -30.1112  -12.0964   -8.8940 F   0  0  0  0  0  0  0  0  0  0  0  0
  -32.7482   -9.3498   -8.6791 H   0  0  0  0  0  0  0  0  0  0  0  0
  -32.1639  -10.5923   -9.6762 H   0  0  0  0  0  0  0  0  0  0  0  0
  -29.0604   -2.3726   -5.2862 C   0  0  0  0  0  0  0  0  0  0  0  0
  -29.6725   -1.1868   -4.8745 C   0  0  0  0  0  0  0  0  0  0  0  0
  -29.3859    0.0047   -5.5382 C   0  0  0  0  0  0  0  0  0  0  0  0
  -29.9162    1.1493   -5.0849 F   0  0  0  0  0  0  0  0  0  0  0  0
  -28.5207    0.0508   -6.6283 C   0  0  0  0  0  0  0  0  0  0  0  0
  -27.9404   -1.1184   -7.1039 C   0  0  0  0  0  0  0  0  0  0  0  0
  -28.2153   -2.3230   -6.4268 C   0  0  0  0  0  0  0  0  0  0  0  0
  -27.0563   -1.1468   -8.2153 N   0  0  0  0  0  0  0  0  0  0  0  0
  -27.3581   -1.6450   -9.4639 C   0  0  0  0  0  0  0  0  0  0  0  0
  -28.4116   -2.1322   -9.8252 O   0  0  0  0  0  0  0  0  0  0  0  0
  -26.2744   -1.5828  -10.3245 N   0  0  0  0  0  0  0  0  0  0  0  0
  -26.0834   -0.9476   -8.0323 H   0  0  0  0  0  0  0  0  0  0  0  0
  -25.6627   -0.7860  -10.2157 H   0  0  0  0  0  0  0  0  0  0  0  0
  -26.4366   -2.1141  -11.6855 C   0  0  0  0  0  0  0  0  0  0  0  0
  -25.4862   -1.5579  -12.7549 C   0  0  0  0  0  0  0  0  0  0  0  0
  -26.0317   -1.5991  -13.9920 F   0  0  0  0  0  0  0  0  0  0  0  0
  -25.2171   -0.2533  -12.4913 F   0  0  0  0  0  0  0  0  0  0  0  0
  -24.3060   -2.2091  -12.7899 F   0  0  0  0  0  0  0  0  0  0  0  0
 10 11  1  0  0  0
 10 18  1  0  0  0
 10 19  1  0  0  0
 11 12  1  0  0  0
 11 16  2  0  0  0
 12 13  2  0  0  0
 13  1  1  0  0  0
 13 14  1  0  0  0
  1  2  1  0  0  0
  1  9  2  0  0  0
  2  3  2  0  0  0
  3  4  1  0  0  0
  4  5  1  0  0  0
  4  8  1  0  0  0
  5 20  1  0  0  0
  5  6  2  0  0  0
 20 21  1  0  0  0
 20 26  2  0  0  0
 21 22  2  0  0  0
 22 23  1  0  0  0
 22 24  1  0  0  0
 24 25  2  0  0  0
 25 27  1  0  0  0
 25 26  1  0  0  0
 27 28  1  0  0  0
 27 31  1  0  0  0
 28 29  2  0  0  0
 28 30  1  0  0  0
 30 33  1  0  0  0
 30 32  1  0  0  0
 33 34  1  0  0  0
 34 35  1  0  0  0
 34 36  1  0  0  0
 34 37  1  0  0  0
  6  7  1  0  0  0
  7  8  2  0  0  0
  8  9  1  0  0  0
 14 15  2  0  0  0
 15 16  1  0  0  0
 16 17  1  0  0  0
M  END
> <minimizedAffinity>
-10.15893

$$$$
