CHEMBL3805771


 45 49  0  0  0  0  0  0  0  0999 V2000
  -27.2792   -2.5271   -9.9419 N   0  0  0  0  0  0  0  0  0  0  0  0
  -27.5506   -1.6313  -10.9732 C   0  0  0  0  0  0  0  0  0  0  0  0
  -28.4625   -0.8057  -11.0024 O   0  0  0  0  0  0  0  0  0  0  0  0
  -26.5474   -3.2119  -10.0949 H   0  0  0  0  0  0  0  0  0  0  0  0
  -29.3623   -2.8989   -6.2572 C   0  0  0  0  0  0  0  0  0  0  0  0
  -29.6152   -3.7563   -7.3413 C   0  0  0  0  0  0  0  0  0  0  0  0
  -28.9670   -3.6186   -8.5588 C   0  0  0  0  0  0  0  0  0  0  0  0
  -28.0210   -2.6222   -8.7446 C   0  0  0  0  0  0  0  0  0  0  0  0
  -27.7977   -1.7101   -7.7049 C   0  0  0  0  0  0  0  0  0  0  0  0
  -28.4420   -1.8441   -6.4408 C   0  0  0  0  0  0  0  0  0  0  0  0
  -28.0311   -0.8782   -5.3474 C   0  0  0  0  0  0  0  0  0  0  0  0
  -29.0369   -0.2923   -4.6477 F   0  0  0  0  0  0  0  0  0  0  0  0
  -27.2602   -1.5023   -4.4050 F   0  0  0  0  0  0  0  0  0  0  0  0
  -27.2632    0.1453   -5.8165 F   0  0  0  0  0  0  0  0  0  0  0  0
  -30.1191   -3.1971   -4.9733 C   0  0  0  0  0  0  0  0  0  0  0  0
  -29.7402   -6.8786   -4.6983 N   0  0  0  0  0  0  0  0  0  0  0  0
  -28.8321   -5.9755   -5.4375 C   0  0  0  0  0  0  0  0  0  0  0  0
  -28.2910   -4.7646   -4.6282 C   0  0  0  0  0  0  0  0  0  0  0  0
  -29.3381   -3.9440   -3.9666 N   0  0  0  0  0  0  0  0  0  0  0  0
  -30.1603   -4.8779   -3.1633 C   0  0  0  0  0  0  0  0  0  0  0  0
  -30.7410   -6.0739   -3.9637 C   0  0  0  0  0  0  0  0  0  0  0  0
  -27.8235   -8.4694   -4.3721 C   0  0  0  0  0  0  0  0  0  0  0  0
  -29.0594   -7.8012   -3.7801 C   0  0  0  0  0  0  0  0  0  0  0  0
  -26.5619   -1.6923  -12.1328 C   0  0  0  0  0  0  0  0  0  0  0  0
  -25.2224   -1.4634  -11.6057 N   0  0  0  0  0  0  0  0  0  0  0  0
  -25.2245   -1.1668  -10.6285 H   0  0  0  0  0  0  0  0  0  0  0  0
  -24.2689   -0.7786  -12.3488 C   0  0  0  0  0  0  0  0  0  0  0  0
  -23.2872   -1.3965  -13.1210 C   0  0  0  0  0  0  0  0  0  0  0  0
  -22.2795   -0.6479  -13.7381 C   0  0  0  0  0  0  0  0  0  0  0  0
  -22.2095    0.7467  -13.5938 C   0  0  0  0  0  0  0  0  0  0  0  0
  -23.2059    1.3621  -12.8226 C   0  0  0  0  0  0  0  0  0  0  0  0
  -24.2135    0.6108  -12.2114 C   0  0  0  0  0  0  0  0  0  0  0  0
  -21.1174    1.5203  -14.2108 C   0  0  0  0  0  0  0  0  0  0  0  0
  -20.0534    0.9202  -14.8893 C   0  0  0  0  0  0  0  0  0  0  0  0
  -19.0283    1.6865  -15.4458 C   0  0  0  0  0  0  0  0  0  0  0  0
  -19.0881    3.0710  -15.3249 C   0  0  0  0  0  0  0  0  0  0  0  0
  -20.0967    3.6688  -14.6774 N   0  0  0  0  0  0  0  0  0  0  0  0
  -21.0702    2.9091  -14.1376 C   0  0  0  0  0  0  0  0  0  0  0  0
  -18.0740    3.8452  -15.8998 N   0  0  0  0  0  0  0  0  0  0  0  0
  -16.7408    3.5267  -15.8036 C   0  0  0  0  0  0  0  0  0  0  0  0
  -16.2354    2.5687  -15.2320 O   0  0  0  0  0  0  0  0  0  0  0  0
  -18.3461    4.6813  -16.3979 H   0  0  0  0  0  0  0  0  0  0  0  0
  -15.8233    4.4933  -16.4893 C   0  0  0  0  0  0  0  0  0  0  0  0
  -15.5050    4.2874  -17.9544 C   0  0  0  0  0  0  0  0  0  0  0  0
  -14.4519    4.0189  -16.9189 C   0  0  0  0  0  0  0  0  0  0  0  0
 22 23  1  0  0  0
 23 16  1  0  0  0
 16 17  1  0  0  0
 16 21  1  0  0  0
 17 18  1  0  0  0
 18 19  1  0  0  0
 19 15  1  0  0  0
 19 20  1  0  0  0
 15  5  1  0  0  0
  5  6  1  0  0  0
  5 10  2  0  0  0
  6  7  2  0  0  0
  7  8  1  0  0  0
  8  1  1  0  0  0
  8  9  2  0  0  0
  1  2  1  0  0  0
  1  4  1  0  0  0
  2  3  2  0  0  0
  2 24  1  0  0  0
 24 25  1  0  0  0
 25 27  1  0  0  0
 25 26  1  0  0  0
 27 28  1  0  0  0
 27 32  2  0  0  0
 28 29  2  0  0  0
 29 30  1  0  0  0
 30 33  1  0  0  0
 30 31  2  0  0  0
 33 34  1  0  0  0
 33 38  2  0  0  0
 34 35  2  0  0  0
 35 36  1  0  0  0
 36 39  1  0  0  0
 36 37  2  0  0  0
 39 40  1  0  0  0
 39 42  1  0  0  0
 40 41  2  0  0  0
 40 43  1  0  0  0
 43 44  1  0  0  0
 43 45  1  0  0  0
 44 45  1  0  0  0
 37 38  1  0  0  0
 31 32  1  0  0  0
  9 10  1  0  0  0
 10 11  1  0  0  0
 11 12  1  0  0  0
 11 13  1  0  0  0
 11 14  1  0  0  0
 20 21  1  0  0  0
M  END
> <minimizedAffinity>
-11.49295

$$$$
