CHEMBL472504


 40 44  0  0  0  0  0  0  0  0999 V2000
  -14.7255    4.1625  -17.4150 C   0  0  0  0  0  0  0  0  0  0  0  0
  -15.3311    4.2938  -18.7758 C   0  0  0  0  0  0  0  0  0  0  0  0
  -15.1487    5.2670  -19.6193 N   0  0  0  0  0  0  0  0  0  0  0  0
  -14.3076    6.2664  -19.2144 C   0  0  0  0  0  0  0  0  0  0  0  0
  -13.8478    7.4017  -19.8568 C   0  0  0  0  0  0  0  0  0  0  0  0
  -13.0331    8.0374  -18.8952 C   0  0  0  0  0  0  0  0  0  0  0  0
  -12.9157    7.3469  -17.7590 N   0  0  0  0  0  0  0  0  0  0  0  0
  -13.7282    6.2635  -17.9399 N   0  0  0  0  0  0  0  0  0  0  0  0
  -13.9556    5.1998  -17.0205 C   0  0  0  0  0  0  0  0  0  0  0  0
  -13.3476    5.3078  -15.7679 N   0  0  0  0  0  0  0  0  0  0  0  0
  -12.5591    5.9627  -15.7747 H   0  0  0  0  0  0  0  0  0  0  0  0
  -13.1820    4.4312  -15.2850 H   0  0  0  0  0  0  0  0  0  0  0  0
  -14.1734    7.8950  -21.1829 C   0  0  0  0  0  0  0  0  0  0  0  0
  -13.6518    7.3870  -22.1745 O   0  0  0  0  0  0  0  0  0  0  0  0
  -15.1029    8.9355  -21.2961 N   0  0  0  0  0  0  0  0  0  0  0  0
  -15.3133    9.5061  -22.6261 C   0  0  0  0  0  0  0  0  0  0  0  0
  -15.9980   10.8880  -22.5763 C   0  0  0  0  0  0  0  0  0  0  0  0
  -17.2119   10.9581  -21.7337 N   0  0  0  0  0  0  0  0  0  0  0  0
  -18.3361   10.2506  -22.3434 C   0  0  0  0  0  0  0  0  0  0  0  0
  -16.8952   10.4221  -20.3940 C   0  0  0  0  0  0  0  0  0  0  0  0
  -16.2647    9.0197  -20.4048 C   0  0  0  0  0  0  0  0  0  0  0  0
  -15.7889    0.6788  -15.1621 C   0  0  0  0  0  0  0  0  0  0  0  0
  -16.5670    1.8424  -15.1022 C   0  0  0  0  0  0  0  0  0  0  0  0
  -16.1970    2.9902  -15.8081 C   0  0  0  0  0  0  0  0  0  0  0  0
  -15.0428    2.9886  -16.5938 C   0  0  0  0  0  0  0  0  0  0  0  0
  -14.2374    1.8394  -16.6203 C   0  0  0  0  0  0  0  0  0  0  0  0
  -14.5972    0.6954  -15.8890 C   0  0  0  0  0  0  0  0  0  0  0  0
  -15.9890   -2.2827  -13.0492 N   0  0  0  0  0  0  0  0  0  0  0  0
  -15.4316   -1.1267  -13.5811 C   0  0  0  0  0  0  0  0  0  0  0  0
  -14.3681   -0.6289  -13.2249 O   0  0  0  0  0  0  0  0  0  0  0  0
  -16.2319   -0.5300  -14.5557 N   0  0  0  0  0  0  0  0  0  0  0  0
  -16.7595   -2.6979  -13.5515 H   0  0  0  0  0  0  0  0  0  0  0  0
  -17.2243   -0.6154  -14.3922 H   0  0  0  0  0  0  0  0  0  0  0  0
  -13.3635   -6.1808  -11.3603 C   0  0  0  0  0  0  0  0  0  0  0  0
  -14.1671   -4.9349  -11.1229 C   0  0  0  0  0  0  0  0  0  0  0  0
  -14.3820   -4.5108   -9.8076 C   0  0  0  0  0  0  0  0  0  0  0  0
  -15.1232   -3.3671   -9.5586 C   0  0  0  0  0  0  0  0  0  0  0  0
  -15.6537   -2.6400  -10.6213 C   0  0  0  0  0  0  0  0  0  0  0  0
  -15.4544   -3.0214  -11.9525 C   0  0  0  0  0  0  0  0  0  0  0  0
  -14.7044   -4.1850  -12.1944 C   0  0  0  0  0  0  0  0  0  0  0  0
 34 35  1  0  0  0
 35 36  1  0  0  0
 35 40  2  0  0  0
 36 37  2  0  0  0
 37 38  1  0  0  0
 38 39  2  0  0  0
 39 28  1  0  0  0
 39 40  1  0  0  0
 28 29  1  0  0  0
 28 32  1  0  0  0
 29 30  2  0  0  0
 29 31  1  0  0  0
 31 22  1  0  0  0
 31 33  1  0  0  0
 22 23  1  0  0  0
 22 27  2  0  0  0
 23 24  2  0  0  0
 24 25  1  0  0  0
 25  1  1  0  0  0
 25 26  2  0  0  0
  1  2  1  0  0  0
  1  9  2  0  0  0
  2  3  2  0  0  0
  3  4  1  0  0  0
  4  5  2  0  0  0
  4  8  1  0  0  0
  5 13  1  0  0  0
  5  6  1  0  0  0
 13 14  2  0  0  0
 13 15  1  0  0  0
 15 16  1  0  0  0
 15 21  1  0  0  0
 16 17  1  0  0  0
 17 18  1  0  0  0
 18 19  1  0  0  0
 18 20  1  0  0  0
 20 21  1  0  0  0
  6  7  2  0  0  0
  7  8  1  0  0  0
  8  9  1  0  0  0
  9 10  1  0  0  0
 10 11  1  0  0  0
 10 12  1  0  0  0
 26 27  1  0  0  0
M  END
> <minimizedAffinity>
-8.11003

$$$$
