CHEMBL3288504


 34 38  0  0  0  0  0  0  0  0999 V2000
  -29.5351   -5.0379   -4.9915 C   0  0  0  0  0  0  0  0  0  0  0  0
  -29.7147   -5.7675   -3.7740 C   0  0  0  0  0  0  0  0  0  0  0  0
  -29.6042   -7.1437   -3.7243 C   0  0  0  0  0  0  0  0  0  0  0  0
  -29.6743   -7.8045   -4.9131 C   0  0  0  0  0  0  0  0  0  0  0  0
  -29.8885   -7.0502   -6.0640 C   0  0  0  0  0  0  0  0  0  0  0  0
  -30.3981   -7.6255   -7.1865 C   0  0  0  0  0  0  0  0  0  0  0  0
  -29.3748   -8.1011   -7.9361 C   0  0  0  0  0  0  0  0  0  0  0  0
  -28.5832   -7.0051   -8.3202 C   0  0  0  0  0  0  0  0  0  0  0  0
  -28.6888   -5.7619   -7.5315 C   0  0  0  0  0  0  0  0  0  0  0  0
  -29.3553   -5.7960   -6.2141 C   0  0  0  0  0  0  0  0  0  0  0  0
  -29.3386   -9.5908   -8.0009 C   0  0  0  0  0  0  0  0  0  0  0  0
  -30.4756  -10.2512   -8.6164 C   0  0  0  0  0  0  0  0  0  0  0  0
  -30.6706  -11.6208   -8.7076 C   0  0  0  0  0  0  0  0  0  0  0  0
  -29.6964  -12.4643   -8.2281 C   0  0  0  0  0  0  0  0  0  0  0  0
  -28.5947  -11.8663   -7.6034 C   0  0  0  0  0  0  0  0  0  0  0  0
  -27.4987  -12.4657   -7.0467 N   0  0  0  0  0  0  0  0  0  0  0  0
  -26.6732  -11.6216   -6.4214 N   0  0  0  0  0  0  0  0  0  0  0  0
  -27.2236  -10.4282   -6.6275 C   0  0  0  0  0  0  0  0  0  0  0  0
  -26.6970   -9.3176   -6.0879 N   0  0  0  0  0  0  0  0  0  0  0  0
  -28.4034  -10.4844   -7.4281 C   0  0  0  0  0  0  0  0  0  0  0  0
  -27.2786  -13.4523   -7.0504 H   0  0  0  0  0  0  0  0  0  0  0  0
  -25.9166   -9.4879   -5.4624 H   0  0  0  0  0  0  0  0  0  0  0  0
  -27.3477   -8.6430   -5.7023 H   0  0  0  0  0  0  0  0  0  0  0  0
  -29.0889   -2.6666   -5.6649 N   0  0  0  0  0  0  0  0  0  0  0  0
  -29.5749   -3.5674   -4.7431 C   0  0  0  0  0  0  0  0  0  0  0  0
  -30.1035   -3.2233   -3.6848 O   0  0  0  0  0  0  0  0  0  0  0  0
  -28.7562   -3.0113   -6.5535 H   0  0  0  0  0  0  0  0  0  0  0  0
  -31.1486    1.7806   -6.3394 C   0  0  0  0  0  0  0  0  0  0  0  0
  -30.0342    0.9369   -5.7896 C   0  0  0  0  0  0  0  0  0  0  0  0
  -28.9645    1.5549   -5.1306 C   0  0  0  0  0  0  0  0  0  0  0  0
  -27.9291    0.7812   -4.6296 C   0  0  0  0  0  0  0  0  0  0  0  0
  -27.9618   -0.6045   -4.7877 C   0  0  0  0  0  0  0  0  0  0  0  0
  -29.0266   -1.2612   -5.4357 C   0  0  0  0  0  0  0  0  0  0  0  0
  -30.0654   -0.4628   -5.9300 C   0  0  0  0  0  0  0  0  0  0  0  0
 28 29  1  0  0  0
 29 30  1  0  0  0
 29 34  2  0  0  0
 30 31  2  0  0  0
 31 32  1  0  0  0
 32 33  2  0  0  0
 33 24  1  0  0  0
 33 34  1  0  0  0
 24 25  1  0  0  0
 24 27  1  0  0  0
 25 26  2  0  0  0
 25  1  1  0  0  0
  1  2  1  0  0  0
  1 10  2  0  0  0
  2  3  2  0  0  0
  3  4  1  0  0  0
  4  5  2  0  0  0
  5  6  1  0  0  0
  5 10  1  0  0  0
  6  7  2  0  0  0
  7 11  1  0  0  0
  7  8  1  0  0  0
 11 12  1  0  0  0
 11 20  2  0  0  0
 12 13  2  0  0  0
 13 14  1  0  0  0
 14 15  2  0  0  0
 15 16  1  0  0  0
 15 20  1  0  0  0
 16 17  1  0  0  0
 16 21  1  0  0  0
 17 18  2  0  0  0
 18 19  1  0  0  0
 18 20  1  0  0  0
 19 22  1  0  0  0
 19 23  1  0  0  0
  8  9  2  0  0  0
  9 10  1  0  0  0
M  END
> <minimizedAffinity>
-9.31759

$$$$
