CHEMBL4445854


 31 35  0  0  0  0  0  0  0  0999 V2000
  -28.2338   -3.1271   -8.1190 C   0  0  0  0  0  0  0  0  0  0  0  0
  -28.4775   -4.4875   -8.2075 C   0  0  0  0  0  0  0  0  0  0  0  0
  -29.1601   -4.8605   -7.0748 N   0  0  0  0  0  0  0  0  0  0  0  0
  -29.3439   -3.8133   -6.2444 N   0  0  0  0  0  0  0  0  0  0  0  0
  -28.7711   -2.7574   -6.8441 C   0  0  0  0  0  0  0  0  0  0  0  0
  -29.6457   -6.1581   -6.7467 C   0  0  0  0  0  0  0  0  0  0  0  0
  -30.8266   -6.6563   -7.3178 C   0  0  0  0  0  0  0  0  0  0  0  0
  -31.2747   -7.9397   -6.9953 C   0  0  0  0  0  0  0  0  0  0  0  0
  -30.5562   -8.7281   -6.0995 C   0  0  0  0  0  0  0  0  0  0  0  0
  -29.3886   -8.2357   -5.5196 C   0  0  0  0  0  0  0  0  0  0  0  0
  -28.9308   -6.9559   -5.8414 C   0  0  0  0  0  0  0  0  0  0  0  0
  -28.7808   -1.4447   -6.1804 C   0  0  0  0  0  0  0  0  0  0  0  0
  -29.9305   -0.6424   -6.1551 C   0  0  0  0  0  0  0  0  0  0  0  0
  -29.9400    0.5771   -5.4718 C   0  0  0  0  0  0  0  0  0  0  0  0
  -28.7877    1.0283   -4.8347 C   0  0  0  0  0  0  0  0  0  0  0  0
  -27.6231    0.2657   -4.8883 C   0  0  0  0  0  0  0  0  0  0  0  0
  -27.6190   -0.9623   -5.5579 C   0  0  0  0  0  0  0  0  0  0  0  0
  -27.7702   -1.0621   -9.1111 O   0  0  0  0  0  0  0  0  0  0  0  0
  -27.6169   -2.2761   -9.1348 C   0  0  0  0  0  0  0  0  0  0  0  0
  -26.9139   -2.9611  -10.1048 N   0  0  0  0  0  0  0  0  0  0  0  0
  -26.9225   -3.9641  -10.1603 H   0  0  0  0  0  0  0  0  0  0  0  0
  -26.2267   -2.2855  -11.0721 C   0  0  0  0  0  0  0  0  0  0  0  0
  -26.4164   -2.3093  -12.3628 N   0  0  0  0  0  0  0  0  0  0  0  0
  -25.4830   -1.5139  -12.9852 C   0  0  0  0  0  0  0  0  0  0  0  0
  -25.3858   -1.3032  -14.3738 C   0  0  0  0  0  0  0  0  0  0  0  0
  -24.3703   -0.4876  -14.8783 C   0  0  0  0  0  0  0  0  0  0  0  0
  -23.4556    0.1049  -14.0123 C   0  0  0  0  0  0  0  0  0  0  0  0
  -22.2035    1.0947  -14.6591 Cl  0  0  0  0  0  0  0  0  0  0  0  0
  -23.5322   -0.0800  -12.6280 C   0  0  0  0  0  0  0  0  0  0  0  0
  -24.5690   -0.8872  -12.1336 C   0  0  0  0  0  0  0  0  0  0  0  0
  -24.9745   -1.2835  -10.5009 S   0  0  0  0  0  0  0  0  0  0  0  0
 18 19  2  0  0  0
 19 20  1  0  0  0
 19  1  1  0  0  0
 20 22  1  0  0  0
 20 21  1  0  0  0
 22 23  2  0  0  0
 22 31  1  0  0  0
 23 24  1  0  0  0
 24 25  1  0  0  0
 24 30  2  0  0  0
 25 26  2  0  0  0
 26 27  1  0  0  0
 27 28  1  0  0  0
 27 29  2  0  0  0
 29 30  1  0  0  0
 30 31  1  0  0  0
  1  2  2  0  0  0
  1  5  1  0  0  0
  2  3  1  0  0  0
  3  6  1  0  0  0
  3  4  1  0  0  0
  6  7  1  0  0  0
  6 11  2  0  0  0
  7  8  2  0  0  0
  8  9  1  0  0  0
  9 10  2  0  0  0
 10 11  1  0  0  0
  4  5  2  0  0  0
  5 12  1  0  0  0
 12 13  1  0  0  0
 12 17  2  0  0  0
 13 14  2  0  0  0
 14 15  1  0  0  0
 15 16  2  0  0  0
 16 17  1  0  0  0
M  END
> <minimizedAffinity>
-9.17034

$$$$
