CHEMBL3947822


 38 42  0  0  0  0  0  0  0  0999 V2000
  -28.4840   -1.5161  -11.3838 C   0  0  0  0  0  0  0  0  0  0  0  0
  -27.3630   -1.5616  -10.6409 C   0  0  0  0  0  0  0  0  0  0  0  0
  -26.0014   -1.3645  -11.2396 C   0  0  0  0  0  0  0  0  0  0  0  0
  -24.8187   -1.9794  -10.7706 C   0  0  0  0  0  0  0  0  0  0  0  0
  -23.5526   -1.7622  -11.3766 C   0  0  0  0  0  0  0  0  0  0  0  0
  -23.5159   -1.0526  -12.5897 C   0  0  0  0  0  0  0  0  0  0  0  0
  -22.5844   -0.5585  -13.5713 C   0  0  0  0  0  0  0  0  0  0  0  0
  -23.1824   -0.7589  -14.7671 N   0  0  0  0  0  0  0  0  0  0  0  0
  -24.4593   -0.4789  -14.4495 N   0  0  0  0  0  0  0  0  0  0  0  0
  -24.7332   -0.6617  -13.1281 C   0  0  0  0  0  0  0  0  0  0  0  0
  -25.9335   -0.6232  -12.4271 C   0  0  0  0  0  0  0  0  0  0  0  0
  -25.1259   -0.3005  -15.1975 H   0  0  0  0  0  0  0  0  0  0  0  0
  -21.8453    0.7041  -13.5438 C   0  0  0  0  0  0  0  0  0  0  0  0
  -21.3779    1.3017  -14.6575 C   0  0  0  0  0  0  0  0  0  0  0  0
  -19.9840    1.7945  -14.7784 C   0  0  0  0  0  0  0  0  0  0  0  0
  -18.9132    0.8958  -14.9568 C   0  0  0  0  0  0  0  0  0  0  0  0
  -17.6488    1.3441  -15.3582 C   0  0  0  0  0  0  0  0  0  0  0  0
  -17.4357    2.7011  -15.5789 C   0  0  0  0  0  0  0  0  0  0  0  0
  -18.4803    3.6049  -15.3876 C   0  0  0  0  0  0  0  0  0  0  0  0
  -19.7490    3.1527  -14.9961 C   0  0  0  0  0  0  0  0  0  0  0  0
  -27.6117   -1.7313   -9.1776 C   0  0  0  0  0  0  0  0  0  0  0  0
  -27.4408   -0.6228   -8.3391 C   0  0  0  0  0  0  0  0  0  0  0  0
  -27.6498   -0.7456   -6.9703 C   0  0  0  0  0  0  0  0  0  0  0  0
  -28.0489   -1.9695   -6.4297 C   0  0  0  0  0  0  0  0  0  0  0  0
  -28.2508   -3.0910   -7.2409 C   0  0  0  0  0  0  0  0  0  0  0  0
  -28.0052   -2.9678   -8.6211 C   0  0  0  0  0  0  0  0  0  0  0  0
  -28.6972   -4.3351   -6.7283 N   0  0  0  0  0  0  0  0  0  0  0  0
  -29.7793   -4.5507   -5.9064 C   0  0  0  0  0  0  0  0  0  0  0  0
  -30.5657   -3.7100   -5.4924 O   0  0  0  0  0  0  0  0  0  0  0  0
  -28.1733   -5.1662   -6.9601 H   0  0  0  0  0  0  0  0  0  0  0  0
  -29.8448   -5.8686   -5.5431 O   0  0  0  0  0  0  0  0  0  0  0  0
  -29.2262   -6.7602   -6.4814 C   0  0  0  0  0  0  0  0  0  0  0  0
  -30.1779   -7.6969   -7.1898 C   0  0  0  0  0  0  0  0  0  0  0  0
  -29.6832   -8.6068   -8.1385 C   0  0  0  0  0  0  0  0  0  0  0  0
  -30.5134   -9.5788   -8.7023 C   0  0  0  0  0  0  0  0  0  0  0  0
  -31.8517   -9.6550   -8.3263 C   0  0  0  0  0  0  0  0  0  0  0  0
  -32.3601   -8.7537   -7.3922 C   0  0  0  0  0  0  0  0  0  0  0  0
  -31.5296   -7.7798   -6.8259 C   0  0  0  0  0  0  0  0  0  0  0  0
  1  2  2  0  0  0
  2 21  1  0  0  0
  2  3  1  0  0  0
 21 22  1  0  0  0
 21 26  2  0  0  0
 22 23  2  0  0  0
 23 24  1  0  0  0
 24 25  2  0  0  0
 25 27  1  0  0  0
 25 26  1  0  0  0
 27 28  1  0  0  0
 27 30  1  0  0  0
 28 29  2  0  0  0
 28 31  1  0  0  0
 31 32  1  0  0  0
 32 33  1  0  0  0
 33 34  1  0  0  0
 33 38  2  0  0  0
 34 35  2  0  0  0
 35 36  1  0  0  0
 36 37  2  0  0  0
 37 38  1  0  0  0
  3  4  1  0  0  0
  3 11  2  0  0  0
  4  5  2  0  0  0
  5  6  1  0  0  0
  6  7  1  0  0  0
  6 10  2  0  0  0
  7 13  1  0  0  0
  7  8  2  0  0  0
 13 14  2  0  0  0
 14 15  1  0  0  0
 15 16  1  0  0  0
 15 20  2  0  0  0
 16 17  2  0  0  0
 17 18  1  0  0  0
 18 19  2  0  0  0
 19 20  1  0  0  0
  8  9  1  0  0  0
  9 10  1  0  0  0
  9 12  1  0  0  0
 10 11  1  0  0  0
M  END
> <minimizedAffinity>
-10.44804

$$$$
