CHEMBL197847


 32 35  0  0  0  0  0  0  0  0999 V2000
  -15.4851    3.4176  -16.3920 C   0  0  0  0  0  0  0  0  0  0  0  0
  -16.6426    4.0934  -16.0116 C   0  0  0  0  0  0  0  0  0  0  0  0
  -17.7437    3.4145  -15.4827 C   0  0  0  0  0  0  0  0  0  0  0  0
  -17.7804    2.0220  -15.4376 C   0  0  0  0  0  0  0  0  0  0  0  0
  -16.6647    1.3243  -15.8936 C   0  0  0  0  0  0  0  0  0  0  0  0
  -15.5174    2.0157  -16.3238 C   0  0  0  0  0  0  0  0  0  0  0  0
  -15.2019    4.7790  -19.2393 C   0  0  0  0  0  0  0  0  0  0  0  0
  -14.2290    4.7673  -18.0985 C   0  0  0  0  0  0  0  0  0  0  0  0
  -12.7681    5.6265  -18.3359 S   0  0  0  0  0  0  0  0  0  0  0  0
  -12.2183    5.2839  -16.7750 C   0  0  0  0  0  0  0  0  0  0  0  0
  -11.0346    5.7841  -16.3839 N   0  0  0  0  0  0  0  0  0  0  0  0
  -10.7218    5.4405  -15.1397 C   0  0  0  0  0  0  0  0  0  0  0  0
  -11.4341    4.6688  -14.3148 N   0  0  0  0  0  0  0  0  0  0  0  0
  -12.6085    4.1656  -14.7433 C   0  0  0  0  0  0  0  0  0  0  0  0
  -13.2349    3.3454  -13.8165 N   0  0  0  0  0  0  0  0  0  0  0  0
  -13.0838    4.4831  -16.0416 C   0  0  0  0  0  0  0  0  0  0  0  0
  -14.2957    4.1797  -16.8323 C   0  0  0  0  0  0  0  0  0  0  0  0
  -12.6071    3.1325  -13.0492 H   0  0  0  0  0  0  0  0  0  0  0  0
  -13.7376    2.5585  -14.2046 H   0  0  0  0  0  0  0  0  0  0  0  0
  -18.8899    1.2868  -14.9628 N   0  0  0  0  0  0  0  0  0  0  0  0
  -20.1397    1.8053  -14.7191 C   0  0  0  0  0  0  0  0  0  0  0  0
  -20.4827    2.9715  -14.8616 O   0  0  0  0  0  0  0  0  0  0  0  0
  -21.0416    0.8524  -14.2804 N   0  0  0  0  0  0  0  0  0  0  0  0
  -18.7809    0.2969  -14.8458 H   0  0  0  0  0  0  0  0  0  0  0  0
  -20.6657    0.1008  -13.7254 H   0  0  0  0  0  0  0  0  0  0  0  0
  -22.3508    1.3638  -13.9254 C   0  0  0  0  0  0  0  0  0  0  0  0
  -23.2825    0.3671  -13.2400 C   0  0  0  0  0  0  0  0  0  0  0  0
  -22.5679   -0.4485  -12.1548 C   0  0  0  0  0  0  0  0  0  0  0  0
  -23.4867   -1.5202  -11.5693 C   0  0  0  0  0  0  0  0  0  0  0  0
  -24.0491   -2.4341  -12.6541 C   0  0  0  0  0  0  0  0  0  0  0  0
  -24.7634   -1.6387  -13.7391 C   0  0  0  0  0  0  0  0  0  0  0  0
  -23.8605   -0.5613  -14.3241 C   0  0  0  0  0  0  0  0  0  0  0  0
  7  8  1  0  0  0
  8  9  1  0  0  0
  8 17  2  0  0  0
  9 10  1  0  0  0
 10 11  1  0  0  0
 10 16  2  0  0  0
 11 12  2  0  0  0
 12 13  1  0  0  0
 13 14  2  0  0  0
 14 15  1  0  0  0
 14 16  1  0  0  0
 15 18  1  0  0  0
 15 19  1  0  0  0
 16 17  1  0  0  0
 17  1  1  0  0  0
  1  2  1  0  0  0
  1  6  2  0  0  0
  2  3  2  0  0  0
  3  4  1  0  0  0
  4 20  1  0  0  0
  4  5  2  0  0  0
 20 21  1  0  0  0
 20 24  1  0  0  0
 21 22  2  0  0  0
 21 23  1  0  0  0
 23 26  1  0  0  0
 23 25  1  0  0  0
 26 27  1  0  0  0
 27 28  1  0  0  0
 27 32  1  0  0  0
 28 29  1  0  0  0
 29 30  1  0  0  0
 30 31  1  0  0  0
 31 32  1  0  0  0
  5  6  1  0  0  0
M  END
> <minimizedAffinity>
-9.39175

$$$$
