CHEMBL2386796


 46 50  0  0  0  0  0  0  0  0999 V2000
  -20.3325    2.1150  -14.6312 C   0  0  0  0  0  0  0  0  0  0  0  0
  -21.0289    1.1101  -13.9121 C   0  0  0  0  0  0  0  0  0  0  0  0
  -22.3063    1.5797  -13.7332 C   0  0  0  0  0  0  0  0  0  0  0  0
  -22.3319    2.7840  -14.3827 N   0  0  0  0  0  0  0  0  0  0  0  0
  -21.1529    3.1434  -14.9055 N   0  0  0  0  0  0  0  0  0  0  0  0
  -23.1087    3.4220  -14.5085 H   0  0  0  0  0  0  0  0  0  0  0  0
  -16.4341    4.6763  -16.2596 C   0  0  0  0  0  0  0  0  0  0  0  0
  -16.9535    3.3236  -15.8453 C   0  0  0  0  0  0  0  0  0  0  0  0
  -18.2960    3.2895  -15.4179 C   0  0  0  0  0  0  0  0  0  0  0  0
  -18.9321    2.1012  -15.0507 C   0  0  0  0  0  0  0  0  0  0  0  0
  -18.1991    0.9194  -15.1094 C   0  0  0  0  0  0  0  0  0  0  0  0
  -16.8690    0.9307  -15.5319 C   0  0  0  0  0  0  0  0  0  0  0  0
  -16.2212    2.1179  -15.8919 C   0  0  0  0  0  0  0  0  0  0  0  0
  -14.8659    2.1114  -16.2973 N   0  0  0  0  0  0  0  0  0  0  0  0
  -13.7408    1.9724  -15.4750 C   0  0  0  0  0  0  0  0  0  0  0  0
  -13.7332    1.8516  -14.2541 O   0  0  0  0  0  0  0  0  0  0  0  0
  -12.5578    1.8103  -16.1255 N   0  0  0  0  0  0  0  0  0  0  0  0
  -14.6811    2.2218  -17.2757 H   0  0  0  0  0  0  0  0  0  0  0  0
  -11.8543    1.3474  -15.5672 H   0  0  0  0  0  0  0  0  0  0  0  0
  -12.3525    1.9348  -17.4731 C   0  0  0  0  0  0  0  0  0  0  0  0
  -11.9631    0.8740  -18.3055 C   0  0  0  0  0  0  0  0  0  0  0  0
  -11.9809    1.4058  -19.5739 C   0  0  0  0  0  0  0  0  0  0  0  0
  -12.2979    2.7263  -19.4935 O   0  0  0  0  0  0  0  0  0  0  0  0
  -12.5784    3.0483  -18.1783 N   0  0  0  0  0  0  0  0  0  0  0  0
  -11.7696    0.7971  -20.9289 C   0  0  0  0  0  0  0  0  0  0  0  0
  -11.3257    1.8986  -21.9098 C   0  0  0  0  0  0  0  0  0  0  0  0
  -10.7055   -0.3124  -20.9170 C   0  0  0  0  0  0  0  0  0  0  0  0
  -13.1014    0.1970  -21.4105 C   0  0  0  0  0  0  0  0  0  0  0  0
  -23.3643    0.9910  -13.0498 N   0  0  0  0  0  0  0  0  0  0  0  0
  -23.6860   -0.4090  -13.1665 C   0  0  0  0  0  0  0  0  0  0  0  0
  -23.0247   -1.1638  -13.8609 O   0  0  0  0  0  0  0  0  0  0  0  0
  -23.8828    1.5650  -12.3995 H   0  0  0  0  0  0  0  0  0  0  0  0
  -24.8288   -0.9103  -12.3719 C   0  0  0  0  0  0  0  0  0  0  0  0
  -24.7510   -1.0494  -10.9840 C   0  0  0  0  0  0  0  0  0  0  0  0
  -25.8634   -1.5039  -10.2770 C   0  0  0  0  0  0  0  0  0  0  0  0
  -27.0717   -1.7824  -10.9374 C   0  0  0  0  0  0  0  0  0  0  0  0
  -27.1462   -1.6279  -12.3271 C   0  0  0  0  0  0  0  0  0  0  0  0
  -26.0287   -1.1952  -13.0412 C   0  0  0  0  0  0  0  0  0  0  0  0
  -28.3143   -2.0901  -10.1220 C   0  0  0  0  0  0  0  0  0  0  0  0
  -27.9652   -2.3594   -8.7227 N   0  0  0  0  0  0  0  0  0  0  0  0
  -28.0701   -1.1585   -7.8693 C   0  0  0  0  0  0  0  0  0  0  0  0
  -27.6448   -1.4648   -6.4185 C   0  0  0  0  0  0  0  0  0  0  0  0
  -28.4020   -2.5580   -5.7831 N   0  0  0  0  0  0  0  0  0  0  0  0
  -29.7610   -2.1349   -5.4524 C   0  0  0  0  0  0  0  0  0  0  0  0
  -28.4013   -3.7342   -6.6788 C   0  0  0  0  0  0  0  0  0  0  0  0
  -28.7873   -3.4412   -8.1514 C   0  0  0  0  0  0  0  0  0  0  0  0
  7  8  1  0  0  0
  8  9  1  0  0  0
  8 13  2  0  0  0
  9 10  2  0  0  0
 10  1  1  0  0  0
 10 11  1  0  0  0
  1  2  1  0  0  0
  1  5  2  0  0  0
  2  3  2  0  0  0
  3 29  1  0  0  0
  3  4  1  0  0  0
 29 30  1  0  0  0
 29 32  1  0  0  0
 30 31  2  0  0  0
 30 33  1  0  0  0
 33 34  1  0  0  0
 33 38  2  0  0  0
 34 35  2  0  0  0
 35 36  1  0  0  0
 36 39  1  0  0  0
 36 37  2  0  0  0
 39 40  1  0  0  0
 40 41  1  0  0  0
 40 46  1  0  0  0
 41 42  1  0  0  0
 42 43  1  0  0  0
 43 44  1  0  0  0
 43 45  1  0  0  0
 45 46  1  0  0  0
 37 38  1  0  0  0
  4  5  1  0  0  0
  4  6  1  0  0  0
 11 12  2  0  0  0
 12 13  1  0  0  0
 13 14  1  0  0  0
 14 15  1  0  0  0
 14 18  1  0  0  0
 15 16  2  0  0  0
 15 17  1  0  0  0
 17 20  1  0  0  0
 17 19  1  0  0  0
 20 21  1  0  0  0
 20 24  2  0  0  0
 21 22  2  0  0  0
 22 25  1  0  0  0
 22 23  1  0  0  0
 25 26  1  0  0  0
 25 27  1  0  0  0
 25 28  1  0  0  0
 23 24  1  0  0  0
M  END
> <minimizedAffinity>
-9.92993

$$$$
