CHEMBL3963823


 38 41  0  0  0  0  0  0  0  0999 V2000
  -27.1326   -5.3016   -3.8642 C   0  0  0  0  0  0  0  0  0  0  0  0
  -28.1948   -4.7414   -4.7661 C   0  0  0  0  0  0  0  0  0  0  0  0
  -27.8370   -3.6555   -5.5883 C   0  0  0  0  0  0  0  0  0  0  0  0
  -28.7406   -3.0738   -6.4817 C   0  0  0  0  0  0  0  0  0  0  0  0
  -30.0570   -3.5222   -6.4887 C   0  0  0  0  0  0  0  0  0  0  0  0
  -30.4413   -4.5763   -5.6487 C   0  0  0  0  0  0  0  0  0  0  0  0
  -29.5125   -5.2188   -4.8132 C   0  0  0  0  0  0  0  0  0  0  0  0
  -28.3560   -2.0241   -7.3631 N   0  0  0  0  0  0  0  0  0  0  0  0
  -27.9487   -2.2423   -8.6639 C   0  0  0  0  0  0  0  0  0  0  0  0
  -28.0262   -3.3217   -9.2460 O   0  0  0  0  0  0  0  0  0  0  0  0
  -27.3986   -1.1050   -9.2406 N   0  0  0  0  0  0  0  0  0  0  0  0
  -28.7048   -1.1036   -7.1574 H   0  0  0  0  0  0  0  0  0  0  0  0
  -26.8872   -0.5303   -8.5838 H   0  0  0  0  0  0  0  0  0  0  0  0
  -26.8700   -1.1922  -10.5524 C   0  0  0  0  0  0  0  0  0  0  0  0
  -27.7099   -1.3261  -11.6604 C   0  0  0  0  0  0  0  0  0  0  0  0
  -27.1754   -1.5538  -12.9271 C   0  0  0  0  0  0  0  0  0  0  0  0
  -25.7936   -1.6599  -13.0977 C   0  0  0  0  0  0  0  0  0  0  0  0
  -25.2264   -1.9611  -14.7003 Cl  0  0  0  0  0  0  0  0  0  0  0  0
  -24.9295   -1.5139  -11.9976 C   0  0  0  0  0  0  0  0  0  0  0  0
  -25.4866   -1.2366  -10.7309 C   0  0  0  0  0  0  0  0  0  0  0  0
  -23.4309   -1.6949  -12.1063 C   0  0  0  0  0  0  0  0  0  0  0  0
  -22.7621   -0.4586  -12.6828 C   0  0  0  0  0  0  0  0  0  0  0  0
  -22.8622   -1.9148  -10.8774 F   0  0  0  0  0  0  0  0  0  0  0  0
  -23.0540   -2.7762  -12.8400 F   0  0  0  0  0  0  0  0  0  0  0  0
  -29.8837   -6.2558   -3.9718 O   0  0  0  0  0  0  0  0  0  0  0  0
  -29.5540   -7.5590   -4.3548 C   0  0  0  0  0  0  0  0  0  0  0  0
  -29.8503   -7.9420   -5.6522 C   0  0  0  0  0  0  0  0  0  0  0  0
  -29.5172   -9.2406   -5.9944 C   0  0  0  0  0  0  0  0  0  0  0  0
  -28.9326  -10.0667   -5.1201 N   0  0  0  0  0  0  0  0  0  0  0  0
  -28.7057   -9.6065   -3.8877 C   0  0  0  0  0  0  0  0  0  0  0  0
  -29.0059   -8.3856   -3.4468 N   0  0  0  0  0  0  0  0  0  0  0  0
  -29.8478   -9.7231   -7.2793 N   0  0  0  0  0  0  0  0  0  0  0  0
  -29.1954   -9.3389   -8.4379 C   0  0  0  0  0  0  0  0  0  0  0  0
  -28.4090   -8.4101   -8.5639 O   0  0  0  0  0  0  0  0  0  0  0  0
  -30.5785  -10.4113   -7.3488 H   0  0  0  0  0  0  0  0  0  0  0  0
  -29.4911  -10.1308   -9.6741 C   0  0  0  0  0  0  0  0  0  0  0  0
  -28.7599  -11.4189   -9.9631 C   0  0  0  0  0  0  0  0  0  0  0  0
  -28.6047  -10.2445  -10.8880 C   0  0  0  0  0  0  0  0  0  0  0  0
  1  2  1  0  0  0
  2  3  1  0  0  0
  2  7  2  0  0  0
  3  4  2  0  0  0
  4  8  1  0  0  0
  4  5  1  0  0  0
  8  9  1  0  0  0
  8 12  1  0  0  0
  9 10  2  0  0  0
  9 11  1  0  0  0
 11 14  1  0  0  0
 11 13  1  0  0  0
 14 15  1  0  0  0
 14 20  2  0  0  0
 15 16  2  0  0  0
 16 17  1  0  0  0
 17 18  1  0  0  0
 17 19  2  0  0  0
 19 21  1  0  0  0
 19 20  1  0  0  0
 21 22  1  0  0  0
 21 23  1  0  0  0
 21 24  1  0  0  0
  5  6  2  0  0  0
  6  7  1  0  0  0
  7 25  1  0  0  0
 25 26  1  0  0  0
 26 27  1  0  0  0
 26 31  2  0  0  0
 27 28  2  0  0  0
 28 32  1  0  0  0
 28 29  1  0  0  0
 32 33  1  0  0  0
 32 35  1  0  0  0
 33 34  2  0  0  0
 33 36  1  0  0  0
 36 37  1  0  0  0
 36 38  1  0  0  0
 37 38  1  0  0  0
 29 30  2  0  0  0
 30 31  1  0  0  0
M  END
> <minimizedAffinity>
-9.34366

$$$$
