CHEMBL3690567


 37 40  0  0  0  0  0  0  0  0999 V2000
  -23.2130    0.1666  -13.5741 C   0  0  0  0  0  0  0  0  0  0  0  0
  -22.0255   -0.5747  -13.9999 C   0  0  0  0  0  0  0  0  0  0  0  0
  -20.9276    0.0916  -14.3972 C   0  0  0  0  0  0  0  0  0  0  0  0
  -20.9205    1.4896  -14.3842 N   0  0  0  0  0  0  0  0  0  0  0  0
  -19.9162    2.4103  -14.6722 C   0  0  0  0  0  0  0  0  0  0  0  0
  -20.5495    3.6398  -14.5250 C   0  0  0  0  0  0  0  0  0  0  0  0
  -21.8559    3.5192  -14.1493 N   0  0  0  0  0  0  0  0  0  0  0  0
  -22.0577    2.2271  -14.0449 C   0  0  0  0  0  0  0  0  0  0  0  0
  -23.2218    1.5163  -13.6350 C   0  0  0  0  0  0  0  0  0  0  0  0
  -25.7395   -1.3561  -11.3166 C   0  0  0  0  0  0  0  0  0  0  0  0
  -24.5805   -0.7181  -11.7004 C   0  0  0  0  0  0  0  0  0  0  0  0
  -24.4169   -0.5044  -13.0523 C   0  0  0  0  0  0  0  0  0  0  0  0
  -25.3226   -0.8756  -13.9771 N   0  0  0  0  0  0  0  0  0  0  0  0
  -26.4213   -1.4781  -13.5091 C   0  0  0  0  0  0  0  0  0  0  0  0
  -26.6647   -1.7213  -12.2134 N   0  0  0  0  0  0  0  0  0  0  0  0
  -27.3281   -1.9481   -9.6147 C   0  0  0  0  0  0  0  0  0  0  0  0
  -25.9542   -1.5910   -9.9459 N   0  0  0  0  0  0  0  0  0  0  0  0
  -25.2957   -2.2915   -9.6159 H   0  0  0  0  0  0  0  0  0  0  0  0
  -27.6737   -2.0446  -14.6357 S   0  0  0  0  0  0  0  0  0  0  0  0
  -28.8491   -2.8016  -13.4921 C   0  0  0  0  0  0  0  0  0  0  0  0
  -18.5205    2.1528  -15.0704 C   0  0  0  0  0  0  0  0  0  0  0  0
  -17.8428    3.1514  -15.7882 C   0  0  0  0  0  0  0  0  0  0  0  0
  -16.5164    2.9838  -16.1702 C   0  0  0  0  0  0  0  0  0  0  0  0
  -15.8364    1.8174  -15.8327 C   0  0  0  0  0  0  0  0  0  0  0  0
  -16.4611    0.8139  -15.0860 C   0  0  0  0  0  0  0  0  0  0  0  0
  -17.8059    0.9921  -14.7139 C   0  0  0  0  0  0  0  0  0  0  0  0
  -15.7877   -0.3684  -14.6804 N   0  0  0  0  0  0  0  0  0  0  0  0
  -15.4963   -0.7290  -13.3876 C   0  0  0  0  0  0  0  0  0  0  0  0
  -15.7819   -0.1162  -12.3652 O   0  0  0  0  0  0  0  0  0  0  0  0
  -14.7654   -1.8968  -13.3041 N   0  0  0  0  0  0  0  0  0  0  0  0
  -15.5113   -1.0095  -15.4118 H   0  0  0  0  0  0  0  0  0  0  0  0
  -14.9226   -2.5875  -14.0232 H   0  0  0  0  0  0  0  0  0  0  0  0
  -14.4166   -2.3900  -11.9630 C   0  0  0  0  0  0  0  0  0  0  0  0
  -15.5120   -3.1728  -11.2214 C   0  0  0  0  0  0  0  0  0  0  0  0
  -15.0270   -4.2801  -10.6143 F   0  0  0  0  0  0  0  0  0  0  0  0
  -16.0473   -2.3959  -10.2451 F   0  0  0  0  0  0  0  0  0  0  0  0
  -16.5228   -3.5443  -12.0339 F   0  0  0  0  0  0  0  0  0  0  0  0
 16 17  1  0  0  0
 17 10  1  0  0  0
 17 18  1  0  0  0
 10 11  1  0  0  0
 10 15  2  0  0  0
 11 12  2  0  0  0
 12  1  1  0  0  0
 12 13  1  0  0  0
  1  2  1  0  0  0
  1  9  2  0  0  0
  2  3  2  0  0  0
  3  4  1  0  0  0
  4  5  1  0  0  0
  4  8  1  0  0  0
  5 21  1  0  0  0
  5  6  2  0  0  0
 21 22  1  0  0  0
 21 26  2  0  0  0
 22 23  2  0  0  0
 23 24  1  0  0  0
 24 25  2  0  0  0
 25 27  1  0  0  0
 25 26  1  0  0  0
 27 28  1  0  0  0
 27 31  1  0  0  0
 28 29  2  0  0  0
 28 30  1  0  0  0
 30 33  1  0  0  0
 30 32  1  0  0  0
 33 34  1  0  0  0
 34 35  1  0  0  0
 34 36  1  0  0  0
 34 37  1  0  0  0
  6  7  1  0  0  0
  7  8  2  0  0  0
  8  9  1  0  0  0
 13 14  2  0  0  0
 14 19  1  0  0  0
 14 15  1  0  0  0
 19 20  1  0  0  0
M  END
> <minimizedAffinity>
-9.11633

$$$$
