CHEMBL3633290


 32 35  0  0  0  0  0  0  0  0999 V2000
  -29.1086   -2.9843   -5.8646 C   0  0  0  0  0  0  0  0  0  0  0  0
  -28.2954   -2.1634   -5.0548 C   0  0  0  0  0  0  0  0  0  0  0  0
  -27.5179   -1.1440   -5.5949 C   0  0  0  0  0  0  0  0  0  0  0  0
  -27.5469   -0.9093   -6.9636 C   0  0  0  0  0  0  0  0  0  0  0  0
  -28.3060   -1.7245   -7.8079 C   0  0  0  0  0  0  0  0  0  0  0  0
  -29.0721   -2.7584   -7.2548 C   0  0  0  0  0  0  0  0  0  0  0  0
  -28.2594   -5.8177   -7.5316 N   0  0  0  0  0  0  0  0  0  0  0  0
  -29.1866   -6.2254   -6.6493 C   0  0  0  0  0  0  0  0  0  0  0  0
  -29.5665   -7.4991   -6.6238 N   0  0  0  0  0  0  0  0  0  0  0  0
  -30.4975   -7.5384   -5.6702 N   0  0  0  0  0  0  0  0  0  0  0  0
  -30.7336   -6.3367   -5.0634 C   0  0  0  0  0  0  0  0  0  0  0  0
  -31.6360   -6.0135   -4.0491 C   0  0  0  0  0  0  0  0  0  0  0  0
  -31.6539   -4.6963   -3.6112 C   0  0  0  0  0  0  0  0  0  0  0  0
  -30.8060   -3.7530   -4.1839 C   0  0  0  0  0  0  0  0  0  0  0  0
  -29.9087   -4.0660   -5.2382 C   0  0  0  0  0  0  0  0  0  0  0  0
  -29.8697   -5.4211   -5.6771 C   0  0  0  0  0  0  0  0  0  0  0  0
  -28.0341   -6.5034   -8.2459 H   0  0  0  0  0  0  0  0  0  0  0  0
  -28.3206   -4.8765   -7.9015 H   0  0  0  0  0  0  0  0  0  0  0  0
  -30.9514   -8.4238   -5.4807 H   0  0  0  0  0  0  0  0  0  0  0  0
  -28.3320   -1.5262   -9.2090 N   0  0  0  0  0  0  0  0  0  0  0  0
  -27.1898   -1.5446   -9.9872 C   0  0  0  0  0  0  0  0  0  0  0  0
  -26.0777   -1.8615   -9.5731 O   0  0  0  0  0  0  0  0  0  0  0  0
  -27.4327   -1.1544  -11.2950 N   0  0  0  0  0  0  0  0  0  0  0  0
  -29.1958   -1.7253   -9.6948 H   0  0  0  0  0  0  0  0  0  0  0  0
  -28.0950   -0.3930  -11.3866 H   0  0  0  0  0  0  0  0  0  0  0  0
  -26.3581   -1.1346  -12.2239 C   0  0  0  0  0  0  0  0  0  0  0  0
  -25.1625   -0.4661  -11.9418 C   0  0  0  0  0  0  0  0  0  0  0  0
  -24.1652   -0.3592  -12.9133 C   0  0  0  0  0  0  0  0  0  0  0  0
  -24.3623   -0.9170  -14.1763 C   0  0  0  0  0  0  0  0  0  0  0  0
  -25.5378   -1.6171  -14.4538 C   0  0  0  0  0  0  0  0  0  0  0  0
  -26.5165   -1.7414  -13.4704 C   0  0  0  0  0  0  0  0  0  0  0  0
  -27.6581   -2.3859  -13.7584 F   0  0  0  0  0  0  0  0  0  0  0  0
  7  8  1  0  0  0
  7 17  1  0  0  0
  7 18  1  0  0  0
  8  9  2  0  0  0
  8 16  1  0  0  0
  9 10  1  0  0  0
 10 11  1  0  0  0
 10 19  1  0  0  0
 11 12  1  0  0  0
 11 16  2  0  0  0
 12 13  2  0  0  0
 13 14  1  0  0  0
 14 15  2  0  0  0
 15  1  1  0  0  0
 15 16  1  0  0  0
  1  2  1  0  0  0
  1  6  2  0  0  0
  2  3  2  0  0  0
  3  4  1  0  0  0
  4  5  2  0  0  0
  5 20  1  0  0  0
  5  6  1  0  0  0
 20 21  1  0  0  0
 20 24  1  0  0  0
 21 22  2  0  0  0
 21 23  1  0  0  0
 23 26  1  0  0  0
 23 25  1  0  0  0
 26 27  1  0  0  0
 26 31  2  0  0  0
 27 28  2  0  0  0
 28 29  1  0  0  0
 29 30  2  0  0  0
 30 31  1  0  0  0
 31 32  1  0  0  0
M  END
> <minimizedAffinity>
-10.85781

$$$$
