CHEMBL463323


 42 47  0  0  0  0  0  0  0  0999 V2000
  -26.5125   -1.3974  -10.4042 C   0  0  0  0  0  0  0  0  0  0  0  0
  -25.1286   -1.3979  -10.2221 C   0  0  0  0  0  0  0  0  0  0  0  0
  -24.2800   -1.3841  -11.3202 C   0  0  0  0  0  0  0  0  0  0  0  0
  -24.7767   -1.4247  -12.6303 C   0  0  0  0  0  0  0  0  0  0  0  0
  -26.1800   -1.6377  -12.8259 C   0  0  0  0  0  0  0  0  0  0  0  0
  -26.7581   -1.8948  -14.0969 C   0  0  0  0  0  0  0  0  0  0  0  0
  -28.1326   -2.0761  -14.2727 C   0  0  0  0  0  0  0  0  0  0  0  0
  -28.9756   -1.9951  -13.1768 C   0  0  0  0  0  0  0  0  0  0  0  0
  -28.4452   -1.7540  -11.9083 C   0  0  0  0  0  0  0  0  0  0  0  0
  -27.0565   -1.5942  -11.6970 C   0  0  0  0  0  0  0  0  0  0  0  0
  -23.8901   -1.2533  -13.7359 N   0  0  0  0  0  0  0  0  0  0  0  0
  -24.2365   -1.6871  -14.5777 H   0  0  0  0  0  0  0  0  0  0  0  0
  -23.0337   -0.2131  -13.8950 C   0  0  0  0  0  0  0  0  0  0  0  0
  -23.2023    1.0758  -13.6987 N   0  0  0  0  0  0  0  0  0  0  0  0
  -22.0351    1.6797  -14.0795 C   0  0  0  0  0  0  0  0  0  0  0  0
  -21.6945    3.0382  -14.0963 C   0  0  0  0  0  0  0  0  0  0  0  0
  -20.4136    3.4048  -14.5315 C   0  0  0  0  0  0  0  0  0  0  0  0
  -19.4785    2.4392  -14.9451 C   0  0  0  0  0  0  0  0  0  0  0  0
  -19.8206    1.0706  -14.9344 C   0  0  0  0  0  0  0  0  0  0  0  0
  -21.1062    0.7386  -14.4995 C   0  0  0  0  0  0  0  0  0  0  0  0
  -21.7665   -0.4567  -14.3698 N   0  0  0  0  0  0  0  0  0  0  0  0
  -21.3901   -1.3671  -14.5773 H   0  0  0  0  0  0  0  0  0  0  0  0
  -18.0973    2.8509  -15.4024 C   0  0  0  0  0  0  0  0  0  0  0  0
  -18.0335    4.1243  -15.8810 F   0  0  0  0  0  0  0  0  0  0  0  0
  -17.1779    2.7820  -14.3997 F   0  0  0  0  0  0  0  0  0  0  0  0
  -17.6213    2.0532  -16.3989 F   0  0  0  0  0  0  0  0  0  0  0  0
  -27.3626   -1.2742   -9.3098 O   0  0  0  0  0  0  0  0  0  0  0  0
  -28.0550   -2.3041   -7.2335 C   0  0  0  0  0  0  0  0  0  0  0  0
  -28.4219   -3.5084   -6.5946 C   0  0  0  0  0  0  0  0  0  0  0  0
  -28.3697   -4.7310   -7.2594 C   0  0  0  0  0  0  0  0  0  0  0  0
  -27.9045   -4.7391   -8.5553 C   0  0  0  0  0  0  0  0  0  0  0  0
  -27.5078   -3.6288   -9.2035 N   0  0  0  0  0  0  0  0  0  0  0  0
  -27.6360   -2.4310   -8.5673 C   0  0  0  0  0  0  0  0  0  0  0  0
  -29.1673    1.0593   -6.4284 C   0  0  0  0  0  0  0  0  0  0  0  0
  -28.5421    1.3903   -5.2946 N   0  0  0  0  0  0  0  0  0  0  0  0
  -27.7182    0.4707   -4.7649 C   0  0  0  0  0  0  0  0  0  0  0  0
  -27.4922   -0.7627   -5.3247 C   0  0  0  0  0  0  0  0  0  0  0  0
  -28.1714   -1.0311   -6.4946 C   0  0  0  0  0  0  0  0  0  0  0  0
  -29.0345   -0.1298   -7.0305 N   0  0  0  0  0  0  0  0  0  0  0  0
  -31.3680    1.9386   -6.8350 C   0  0  0  0  0  0  0  0  0  0  0  0
  -29.9388    2.0630   -6.9909 N   0  0  0  0  0  0  0  0  0  0  0  0
  -29.5400    2.9386   -6.6718 H   0  0  0  0  0  0  0  0  0  0  0  0
 40 41  1  0  0  0
 41 34  1  0  0  0
 41 42  1  0  0  0
 34 35  1  0  0  0
 34 39  2  0  0  0
 35 36  2  0  0  0
 36 37  1  0  0  0
 37 38  2  0  0  0
 38 28  1  0  0  0
 38 39  1  0  0  0
 28 29  1  0  0  0
 28 33  2  0  0  0
 29 30  2  0  0  0
 30 31  1  0  0  0
 31 32  2  0  0  0
 32 33  1  0  0  0
 33 27  1  0  0  0
 27  1  1  0  0  0
  1  2  1  0  0  0
  1 10  2  0  0  0
  2  3  2  0  0  0
  3  4  1  0  0  0
  4 11  1  0  0  0
  4  5  2  0  0  0
 11 13  1  0  0  0
 11 12  1  0  0  0
 13 14  2  0  0  0
 13 21  1  0  0  0
 14 15  1  0  0  0
 15 16  1  0  0  0
 15 20  2  0  0  0
 16 17  2  0  0  0
 17 18  1  0  0  0
 18 23  1  0  0  0
 18 19  2  0  0  0
 23 24  1  0  0  0
 23 25  1  0  0  0
 23 26  1  0  0  0
 19 20  1  0  0  0
 20 21  1  0  0  0
 21 22  1  0  0  0
  5  6  1  0  0  0
  5 10  1  0  0  0
  6  7  2  0  0  0
  7  8  1  0  0  0
  8  9  2  0  0  0
  9 10  1  0  0  0
M  END
> <minimizedAffinity>
-9.40707

$$$$
