CHEMBL4471675


 29 32  0  0  0  0  0  0  0  0999 V2000
  -18.4711    1.9376  -15.4286 C   0  0  0  0  0  0  0  0  0  0  0  0
  -19.0300    3.1954  -15.1590 C   0  0  0  0  0  0  0  0  0  0  0  0
  -20.3433    3.3321  -14.7006 C   0  0  0  0  0  0  0  0  0  0  0  0
  -21.0462    2.1482  -14.4974 C   0  0  0  0  0  0  0  0  0  0  0  0
  -22.2855    1.8983  -13.9758 N   0  0  0  0  0  0  0  0  0  0  0  0
  -22.4933    0.5382  -13.9522 C   0  0  0  0  0  0  0  0  0  0  0  0
  -21.4624   -0.0855  -14.4959 N   0  0  0  0  0  0  0  0  0  0  0  0
  -20.5448    0.8914  -14.8062 C   0  0  0  0  0  0  0  0  0  0  0  0
  -19.2468    0.7754  -15.3297 C   0  0  0  0  0  0  0  0  0  0  0  0
  -22.9342    2.5960  -13.6460 H   0  0  0  0  0  0  0  0  0  0  0  0
  -23.7146   -0.0762  -13.4314 C   0  0  0  0  0  0  0  0  0  0  0  0
  -24.4273   -0.9826  -14.2307 C   0  0  0  0  0  0  0  0  0  0  0  0
  -25.6226   -1.5479  -13.7786 C   0  0  0  0  0  0  0  0  0  0  0  0
  -26.1049   -1.2224  -12.5104 C   0  0  0  0  0  0  0  0  0  0  0  0
  -27.5904   -1.8974  -11.9631 Cl  0  0  0  0  0  0  0  0  0  0  0  0
  -25.3966   -0.3490  -11.6955 C   0  0  0  0  0  0  0  0  0  0  0  0
  -24.2066    0.2187  -12.1466 C   0  0  0  0  0  0  0  0  0  0  0  0
  -16.1748    1.3771  -14.8248 C   0  0  0  0  0  0  0  0  0  0  0  0
  -16.4390    1.0384  -13.6719 O   0  0  0  0  0  0  0  0  0  0  0  0
  -17.1047    1.8134  -15.7630 N   0  0  0  0  0  0  0  0  0  0  0  0
  -16.8819    1.6009  -16.7290 H   0  0  0  0  0  0  0  0  0  0  0  0
  -14.7500    1.3350  -15.3373 C   0  0  0  0  0  0  0  0  0  0  0  0
  -11.4266    6.0653  -14.5799 C   0  0  0  0  0  0  0  0  0  0  0  0
  -12.3038    4.8604  -14.7510 C   0  0  0  0  0  0  0  0  0  0  0  0
  -12.0738    3.6978  -14.0100 C   0  0  0  0  0  0  0  0  0  0  0  0
  -12.8849    2.5736  -14.1832 C   0  0  0  0  0  0  0  0  0  0  0  0
  -13.9467    2.5889  -15.0975 C   0  0  0  0  0  0  0  0  0  0  0  0
  -14.1783    3.7549  -15.8392 C   0  0  0  0  0  0  0  0  0  0  0  0
  -13.3652    4.8815  -15.6647 C   0  0  0  0  0  0  0  0  0  0  0  0
 23 24  1  0  0  0
 24 25  1  0  0  0
 24 29  2  0  0  0
 25 26  2  0  0  0
 26 27  1  0  0  0
 27 22  1  0  0  0
 27 28  2  0  0  0
 22 18  1  0  0  0
 18 19  2  0  0  0
 18 20  1  0  0  0
 20  1  1  0  0  0
 20 21  1  0  0  0
  1  2  1  0  0  0
  1  9  2  0  0  0
  2  3  2  0  0  0
  3  4  1  0  0  0
  4  5  1  0  0  0
  4  8  2  0  0  0
  5  6  1  0  0  0
  5 10  1  0  0  0
  6 11  1  0  0  0
  6  7  2  0  0  0
 11 12  1  0  0  0
 11 17  2  0  0  0
 12 13  2  0  0  0
 13 14  1  0  0  0
 14 15  1  0  0  0
 14 16  2  0  0  0
 16 17  1  0  0  0
  7  8  1  0  0  0
  8  9  1  0  0  0
 28 29  1  0  0  0
M  END
> <minimizedAffinity>
-9.81547

$$$$
