CHEMBL2010878


 37 43  0  0  0  0  0  0  0  0999 V2000
  -29.9903   -4.8346   -5.1478 N   0  0  0  0  0  0  0  0  0  0  0  0
  -29.3836   -3.7611   -5.8635 C   0  0  0  0  0  0  0  0  0  0  0  0
  -29.5979   -2.3706   -5.8117 C   0  0  0  0  0  0  0  0  0  0  0  0
  -28.9153   -1.5535   -6.7260 C   0  0  0  0  0  0  0  0  0  0  0  0
  -28.0457   -2.0749   -7.6798 C   0  0  0  0  0  0  0  0  0  0  0  0
  -27.8333   -3.4532   -7.7089 C   0  0  0  0  0  0  0  0  0  0  0  0
  -28.5368   -4.3010   -6.8197 C   0  0  0  0  0  0  0  0  0  0  0  0
  -28.7261   -5.6611   -6.6707 C   0  0  0  0  0  0  0  0  0  0  0  0
  -28.3852   -6.5821   -7.6767 C   0  0  0  0  0  0  0  0  0  0  0  0
  -29.0758   -7.8088   -7.6247 C   0  0  0  0  0  0  0  0  0  0  0  0
  -29.9076   -8.1829   -6.5621 C   0  0  0  0  0  0  0  0  0  0  0  0
  -29.6863   -7.4357   -5.3604 C   0  0  0  0  0  0  0  0  0  0  0  0
  -29.4749   -6.0570   -5.5985 C   0  0  0  0  0  0  0  0  0  0  0  0
  -28.8474   -8.2637   -4.2961 C   0  0  0  0  0  0  0  0  0  0  0  0
  -28.2647   -9.6332   -4.8429 C   0  0  0  0  0  0  0  0  0  0  0  0
  -29.3906  -10.3364   -5.5133 C   0  0  0  0  0  0  0  0  0  0  0  0
  -29.9360  -11.5056   -5.1821 N   0  0  0  0  0  0  0  0  0  0  0  0
  -31.1491  -11.4460   -5.7892 N   0  0  0  0  0  0  0  0  0  0  0  0
  -32.1357  -12.4614   -5.5114 C   0  0  0  0  0  0  0  0  0  0  0  0
  -31.3885  -10.2552   -6.4316 C   0  0  0  0  0  0  0  0  0  0  0  0
  -30.1972   -9.5826   -6.3794 C   0  0  0  0  0  0  0  0  0  0  0  0
  -28.6315   -8.5979   -8.7492 C   0  0  0  0  0  0  0  0  0  0  0  0
  -28.8969   -9.7232   -9.1508 O   0  0  0  0  0  0  0  0  0  0  0  0
  -27.6890   -7.7982   -9.3838 N   0  0  0  0  0  0  0  0  0  0  0  0
  -27.4957   -6.4798   -8.8270 C   0  0  0  0  0  0  0  0  0  0  0  0
  -27.1735   -8.1645  -10.1673 H   0  0  0  0  0  0  0  0  0  0  0  0
  -31.8878   -5.9260   -3.9598 C   0  0  0  0  0  0  0  0  0  0  0  0
  -31.2081   -4.6095   -4.3547 C   0  0  0  0  0  0  0  0  0  0  0  0
  -31.0561   -3.6681   -3.1672 C   0  0  0  0  0  0  0  0  0  0  0  0
  -27.3352   -1.2724   -8.5913 N   0  0  0  0  0  0  0  0  0  0  0  0
  -26.9133   -0.4472   -8.1801 H   0  0  0  0  0  0  0  0  0  0  0  0
  -27.0539   -1.4811   -9.9476 C   0  0  0  0  0  0  0  0  0  0  0  0
  -25.7527   -1.6464  -10.4190 C   0  0  0  0  0  0  0  0  0  0  0  0
  -25.5438   -1.7858  -11.7801 C   0  0  0  0  0  0  0  0  0  0  0  0
  -26.5357   -1.7676  -12.6933 N   0  0  0  0  0  0  0  0  0  0  0  0
  -27.7888   -1.6084  -12.2192 C   0  0  0  0  0  0  0  0  0  0  0  0
  -28.0930   -1.4618  -10.8758 C   0  0  0  0  0  0  0  0  0  0  0  0
 27 28  1  0  0  0
 28 29  1  0  0  0
 28  1  1  0  0  0
  1  2  1  0  0  0
  1 13  1  0  0  0
  2  3  1  0  0  0
  2  7  2  0  0  0
  3  4  2  0  0  0
  4  5  1  0  0  0
  5 30  1  0  0  0
  5  6  2  0  0  0
 30 32  1  0  0  0
 30 31  1  0  0  0
 32 33  1  0  0  0
 32 37  2  0  0  0
 33 34  2  0  0  0
 34 35  1  0  0  0
 35 36  2  0  0  0
 36 37  1  0  0  0
  6  7  1  0  0  0
  7  8  1  0  0  0
  8  9  1  0  0  0
  8 13  2  0  0  0
  9 10  2  0  0  0
  9 25  1  0  0  0
 10 11  1  0  0  0
 10 22  1  0  0  0
 11 12  2  0  0  0
 11 21  1  0  0  0
 12 13  1  0  0  0
 12 14  1  0  0  0
 14 15  1  0  0  0
 15 16  1  0  0  0
 16 17  2  0  0  0
 16 21  1  0  0  0
 17 18  1  0  0  0
 18 19  1  0  0  0
 18 20  1  0  0  0
 20 21  2  0  0  0
 22 23  2  0  0  0
 22 24  1  0  0  0
 24 25  1  0  0  0
 24 26  1  0  0  0
M  END
> <minimizedAffinity>
-8.83365

$$$$
