CHEMBL3128238


 41 45  0  0  0  0  0  0  0  0999 V2000
  -19.8059    1.3141  -15.1591 C   0  0  0  0  0  0  0  0  0  0  0  0
  -20.1459    2.6692  -15.0926 C   0  0  0  0  0  0  0  0  0  0  0  0
  -19.2020    3.6632  -15.3577 C   0  0  0  0  0  0  0  0  0  0  0  0
  -17.8900    3.3181  -15.6591 C   0  0  0  0  0  0  0  0  0  0  0  0
  -17.5040    1.9702  -15.6796 C   0  0  0  0  0  0  0  0  0  0  0  0
  -18.4786    0.9763  -15.4562 C   0  0  0  0  0  0  0  0  0  0  0  0
  -22.2346    1.3397  -13.5355 O   0  0  0  0  0  0  0  0  0  0  0  0
  -21.8568    0.3280  -14.1185 C   0  0  0  0  0  0  0  0  0  0  0  0
  -22.4927   -0.9013  -14.0143 N   0  0  0  0  0  0  0  0  0  0  0  0
  -20.7300    0.2643  -14.9242 N   0  0  0  0  0  0  0  0  0  0  0  0
  -21.9956   -1.7007  -14.3737 H   0  0  0  0  0  0  0  0  0  0  0  0
  -20.5717   -0.5906  -15.4342 H   0  0  0  0  0  0  0  0  0  0  0  0
  -23.6308   -1.1703  -13.2132 C   0  0  0  0  0  0  0  0  0  0  0  0
  -24.9262   -1.2980  -13.7308 C   0  0  0  0  0  0  0  0  0  0  0  0
  -26.0286   -1.4743  -12.8894 C   0  0  0  0  0  0  0  0  0  0  0  0
  -25.8337   -1.5404  -11.5091 C   0  0  0  0  0  0  0  0  0  0  0  0
  -24.5414   -1.4623  -10.9738 C   0  0  0  0  0  0  0  0  0  0  0  0
  -23.4451   -1.2869  -11.8301 C   0  0  0  0  0  0  0  0  0  0  0  0
  -26.9928   -1.6817  -10.6220 N   0  0  0  0  0  0  0  0  0  0  0  0
  -26.7906   -2.0274   -9.4506 O   0  0  0  0  0  0  0  0  0  0  0  0
  -28.1143   -1.4489  -11.1012 O   0  0  0  0  0  0  0  0  0  0  0  0
  -16.0633    1.5994  -15.9515 C   0  0  0  0  0  0  0  0  0  0  0  0
  -15.3779    1.4012  -14.6890 N   0  0  0  0  0  0  0  0  0  0  0  0
  -15.9142    1.6914  -13.8808 H   0  0  0  0  0  0  0  0  0  0  0  0
  -14.7631    0.1613  -14.5207 C   0  0  0  0  0  0  0  0  0  0  0  0
  -13.8431   -0.2767  -15.4155 N   0  0  0  0  0  0  0  0  0  0  0  0
  -13.2348   -1.4607  -15.2001 C   0  0  0  0  0  0  0  0  0  0  0  0
  -13.4246   -2.3144  -14.1825 N   0  0  0  0  0  0  0  0  0  0  0  0
  -14.3361   -1.8534  -13.3095 C   0  0  0  0  0  0  0  0  0  0  0  0
  -15.0316   -0.6610  -13.4157 C   0  0  0  0  0  0  0  0  0  0  0  0
  -15.8659   -0.6429  -12.2813 C   0  0  0  0  0  0  0  0  0  0  0  0
  -15.7179   -1.7210  -11.5050 N   0  0  0  0  0  0  0  0  0  0  0  0
  -14.7540   -2.4388  -12.1373 N   0  0  0  0  0  0  0  0  0  0  0  0
  -14.3284   -3.7011  -11.5494 C   0  0  0  0  0  0  0  0  0  0  0  0
  -15.3549   -4.8281  -11.6426 C   0  0  0  0  0  0  0  0  0  0  0  0
  -14.7842   -6.1455  -12.1073 C   0  0  0  0  0  0  0  0  0  0  0  0
  -13.8643   -6.8352  -11.3042 C   0  0  0  0  0  0  0  0  0  0  0  0
  -13.4185   -8.1057  -11.6701 C   0  0  0  0  0  0  0  0  0  0  0  0
  -13.8776   -8.6924  -12.8472 C   0  0  0  0  0  0  0  0  0  0  0  0
  -14.7650   -8.0003  -13.6698 C   0  0  0  0  0  0  0  0  0  0  0  0
  -15.2127   -6.7288  -13.3060 C   0  0  0  0  0  0  0  0  0  0  0  0
  7  8  2  0  0  0
  8  9  1  0  0  0
  8 10  1  0  0  0
  9 13  1  0  0  0
  9 11  1  0  0  0
 13 14  1  0  0  0
 13 18  2  0  0  0
 14 15  2  0  0  0
 15 16  1  0  0  0
 16 19  1  0  0  0
 16 17  2  0  0  0
 19 20  2  0  0  0
 19 21  1  0  0  0
 17 18  1  0  0  0
 10  1  1  0  0  0
 10 12  1  0  0  0
  1  2  1  0  0  0
  1  6  2  0  0  0
  2  3  2  0  0  0
  3  4  1  0  0  0
  4  5  2  0  0  0
  5 22  1  0  0  0
  5  6  1  0  0  0
 22 23  1  0  0  0
 23 25  1  0  0  0
 23 24  1  0  0  0
 25 26  1  0  0  0
 25 30  2  0  0  0
 26 27  2  0  0  0
 27 28  1  0  0  0
 28 29  2  0  0  0
 29 30  1  0  0  0
 29 33  1  0  0  0
 30 31  1  0  0  0
 31 32  2  0  0  0
 32 33  1  0  0  0
 33 34  1  0  0  0
 34 35  1  0  0  0
 35 36  1  0  0  0
 36 37  1  0  0  0
 36 41  2  0  0  0
 37 38  2  0  0  0
 38 39  1  0  0  0
 39 40  2  0  0  0
 40 41  1  0  0  0
M  CHG 1  19   1
M  CHG 1  21  -1
M  END
> <minimizedAffinity>
-10.55241

$$$$
