CHEMBL3133757


 46 49  0  0  0  0  0  0  0  0999 V2000
  -25.0477  -10.6869   -3.3663 N   0  0  0  0  0  0  0  0  0  0  0  0
  -24.6467  -10.9100   -2.4615 H   0  0  0  0  0  0  0  0  0  0  0  0
  -25.4064  -11.2170   -8.4157 C   0  0  0  0  0  0  0  0  0  0  0  0
  -26.1753  -10.5271   -7.4830 C   0  0  0  0  0  0  0  0  0  0  0  0
  -25.7827  -10.4748   -6.1573 C   0  0  0  0  0  0  0  0  0  0  0  0
  -24.6279  -11.1494   -5.7283 C   0  0  0  0  0  0  0  0  0  0  0  0
  -24.2283  -11.2453   -4.3853 C   0  0  0  0  0  0  0  0  0  0  0  0
  -23.0978  -11.8882   -4.0294 N   0  0  0  0  0  0  0  0  0  0  0  0
  -22.3872  -12.4463   -5.0044 C   0  0  0  0  0  0  0  0  0  0  0  0
  -22.7044  -12.4596   -6.3111 N   0  0  0  0  0  0  0  0  0  0  0  0
  -23.8265  -11.8249   -6.6586 C   0  0  0  0  0  0  0  0  0  0  0  0
  -24.2301  -11.8480   -7.9986 C   0  0  0  0  0  0  0  0  0  0  0  0
  -25.7200  -11.3322   -9.7483 O   0  0  0  0  0  0  0  0  0  0  0  0
  -26.7245  -10.4016  -10.1977 C   0  0  0  0  0  0  0  0  0  0  0  0
  -28.0091  -11.1540  -10.5093 C   0  0  0  0  0  0  0  0  0  0  0  0
  -29.2270  -10.4582   -9.8800 C   0  0  0  0  0  0  0  0  0  0  0  0
  -29.4995  -10.8183   -8.4673 N   0  0  0  0  0  0  0  0  0  0  0  0
  -29.1487   -8.2777   -8.3605 C   0  0  0  0  0  0  0  0  0  0  0  0
  -29.5210   -9.5751   -7.6531 C   0  0  0  0  0  0  0  0  0  0  0  0
  -30.7861  -11.5603   -8.3570 C   0  0  0  0  0  0  0  0  0  0  0  0
  -31.9826  -10.7487   -7.8046 C   0  0  0  0  0  0  0  0  0  0  0  0
  -32.5249   -9.8599   -8.7761 O   0  0  0  0  0  0  0  0  0  0  0  0
  -31.8065   -9.2471   -9.0105 H   0  0  0  0  0  0  0  0  0  0  0  0
  -26.4632  -10.7307   -3.3606 C   0  0  0  0  0  0  0  0  0  0  0  0
  -27.1197  -11.9151   -3.0141 C   0  0  0  0  0  0  0  0  0  0  0  0
  -28.5022  -12.0060   -3.1571 C   0  0  0  0  0  0  0  0  0  0  0  0
  -29.2404  -10.8899   -3.5554 C   0  0  0  0  0  0  0  0  0  0  0  0
  -28.6329   -9.6474   -3.7283 C   0  0  0  0  0  0  0  0  0  0  0  0
  -27.2374   -9.5829   -3.6499 C   0  0  0  0  0  0  0  0  0  0  0  0
  -29.3773   -8.4631   -3.9895 N   0  0  0  0  0  0  0  0  0  0  0  0
  -28.8811   -7.3750   -4.7024 C   0  0  0  0  0  0  0  0  0  0  0  0
  -27.7622   -7.3137   -5.2011 O   0  0  0  0  0  0  0  0  0  0  0  0
  -29.7871   -6.3221   -4.7832 N   0  0  0  0  0  0  0  0  0  0  0  0
  -30.3803   -8.5241   -3.8790 H   0  0  0  0  0  0  0  0  0  0  0  0
  -30.3749   -6.2125   -3.9691 H   0  0  0  0  0  0  0  0  0  0  0  0
  -29.4231   -5.1324   -5.4688 C   0  0  0  0  0  0  0  0  0  0  0  0
  -29.5352   -5.0808   -6.8549 C   0  0  0  0  0  0  0  0  0  0  0  0
  -29.1669   -3.9193   -7.5401 C   0  0  0  0  0  0  0  0  0  0  0  0
  -28.6639   -2.8053   -6.8550 C   0  0  0  0  0  0  0  0  0  0  0  0
  -28.1673   -1.4727   -7.8335 Cl  0  0  0  0  0  0  0  0  0  0  0  0
  -28.5709   -2.8193   -5.4597 C   0  0  0  0  0  0  0  0  0  0  0  0
  -28.9550   -4.0028   -4.7794 C   0  0  0  0  0  0  0  0  0  0  0  0
  -28.1074   -1.6444   -4.6333 C   0  0  0  0  0  0  0  0  0  0  0  0
  -28.1132   -1.8164   -3.2842 F   0  0  0  0  0  0  0  0  0  0  0  0
  -26.8289   -1.2787   -4.9378 F   0  0  0  0  0  0  0  0  0  0  0  0
  -28.8664   -0.5323   -4.8533 F   0  0  0  0  0  0  0  0  0  0  0  0
 18 19  1  0  0  0
 19 17  1  0  0  0
 17 20  1  0  0  0
 17 16  1  0  0  0
 20 21  1  0  0  0
 21 22  1  0  0  0
 22 23  1  0  0  0
 16 15  1  0  0  0
 15 14  1  0  0  0
 14 13  1  0  0  0
 13  3  1  0  0  0
  3  4  1  0  0  0
  3 12  2  0  0  0
  4  5  2  0  0  0
  5  6  1  0  0  0
  6  7  1  0  0  0
  6 11  2  0  0  0
  7  1  1  0  0  0
  7  8  2  0  0  0
  1 24  1  0  0  0
  1  2  1  0  0  0
 24 25  1  0  0  0
 24 29  2  0  0  0
 25 26  2  0  0  0
 26 27  1  0  0  0
 27 28  2  0  0  0
 28 30  1  0  0  0
 28 29  1  0  0  0
 30 31  1  0  0  0
 30 34  1  0  0  0
 31 32  2  0  0  0
 31 33  1  0  0  0
 33 36  1  0  0  0
 33 35  1  0  0  0
 36 37  1  0  0  0
 36 42  2  0  0  0
 37 38  2  0  0  0
 38 39  1  0  0  0
 39 40  1  0  0  0
 39 41  2  0  0  0
 41 43  1  0  0  0
 41 42  1  0  0  0
 43 44  1  0  0  0
 43 45  1  0  0  0
 43 46  1  0  0  0
  8  9  1  0  0  0
  9 10  2  0  0  0
 10 11  1  0  0  0
 11 12  1  0  0  0
M  END
> <minimizedAffinity>
-8.33271

$$$$
