CHEMBL2086743


 33 37  0  0  0  0  0  0  0  0999 V2000
  -28.1540   -2.2946   -7.6046 C   0  0  0  0  0  0  0  0  0  0  0  0
  -28.4615   -3.5434   -7.1547 C   0  0  0  0  0  0  0  0  0  0  0  0
  -28.1754   -4.8716   -7.8541 C   0  0  0  0  0  0  0  0  0  0  0  0
  -27.8218   -5.0812   -8.9965 O   0  0  0  0  0  0  0  0  0  0  0  0
  -28.4538   -5.8593   -6.9279 N   0  0  0  0  0  0  0  0  0  0  0  0
  -28.9750   -5.3273   -5.7639 C   0  0  0  0  0  0  0  0  0  0  0  0
  -29.4190   -6.0423   -4.6691 C   0  0  0  0  0  0  0  0  0  0  0  0
  -29.9391   -5.3164   -3.5962 C   0  0  0  0  0  0  0  0  0  0  0  0
  -30.0027   -3.9141   -3.6358 C   0  0  0  0  0  0  0  0  0  0  0  0
  -30.6260   -3.1994   -2.6038 N   0  0  0  0  0  0  0  0  0  0  0  0
  -29.6340   -3.2388   -4.8036 C   0  0  0  0  0  0  0  0  0  0  0  0
  -29.0470   -3.9353   -5.8461 C   0  0  0  0  0  0  0  0  0  0  0  0
  -28.3620   -6.8438   -7.1364 H   0  0  0  0  0  0  0  0  0  0  0  0
  -30.5038   -3.6230   -1.6896 H   0  0  0  0  0  0  0  0  0  0  0  0
  -30.3707   -2.2140   -2.5970 H   0  0  0  0  0  0  0  0  0  0  0  0
  -25.3892   -1.2432  -12.7781 C   0  0  0  0  0  0  0  0  0  0  0  0
  -26.6217   -1.6458  -13.3070 C   0  0  0  0  0  0  0  0  0  0  0  0
  -27.6958   -1.9723  -12.4776 C   0  0  0  0  0  0  0  0  0  0  0  0
  -27.4644   -1.8858  -11.1093 C   0  0  0  0  0  0  0  0  0  0  0  0
  -28.2788   -2.1226  -10.0397 N   0  0  0  0  0  0  0  0  0  0  0  0
  -27.5447   -2.0416   -8.8842 C   0  0  0  0  0  0  0  0  0  0  0  0
  -26.3220   -1.6158   -9.1690 N   0  0  0  0  0  0  0  0  0  0  0  0
  -26.2494   -1.5423  -10.5421 C   0  0  0  0  0  0  0  0  0  0  0  0
  -25.1826   -1.2079  -11.3889 C   0  0  0  0  0  0  0  0  0  0  0  0
  -29.2186   -2.4847  -10.1133 H   0  0  0  0  0  0  0  0  0  0  0  0
  -23.0359   -1.1837  -12.9475 C   0  0  0  0  0  0  0  0  0  0  0  0
  -24.3003   -0.9054  -13.5415 O   0  0  0  0  0  0  0  0  0  0  0  0
  -28.3728   -1.1207   -6.7081 C   0  0  0  0  0  0  0  0  0  0  0  0
  -27.4490   -0.8126   -5.6957 C   0  0  0  0  0  0  0  0  0  0  0  0
  -27.6749    0.2652   -4.8332 C   0  0  0  0  0  0  0  0  0  0  0  0
  -28.8189    1.0492   -4.9761 C   0  0  0  0  0  0  0  0  0  0  0  0
  -29.7364    0.7596   -5.9879 C   0  0  0  0  0  0  0  0  0  0  0  0
  -29.5124   -0.3154   -6.8551 C   0  0  0  0  0  0  0  0  0  0  0  0
 26 27  1  0  0  0
 27 16  1  0  0  0
 16 17  1  0  0  0
 16 24  2  0  0  0
 17 18  2  0  0  0
 18 19  1  0  0  0
 19 20  1  0  0  0
 19 23  2  0  0  0
 20 21  1  0  0  0
 20 25  1  0  0  0
 21  1  1  0  0  0
 21 22  2  0  0  0
  1  2  2  0  0  0
  1 28  1  0  0  0
  2  3  1  0  0  0
  2 12  1  0  0  0
  3  4  2  0  0  0
  3  5  1  0  0  0
  5  6  1  0  0  0
  5 13  1  0  0  0
  6  7  1  0  0  0
  6 12  2  0  0  0
  7  8  2  0  0  0
  8  9  1  0  0  0
  9 10  1  0  0  0
  9 11  2  0  0  0
 10 14  1  0  0  0
 10 15  1  0  0  0
 11 12  1  0  0  0
 28 29  1  0  0  0
 28 33  2  0  0  0
 29 30  2  0  0  0
 30 31  1  0  0  0
 31 32  2  0  0  0
 32 33  1  0  0  0
 22 23  1  0  0  0
 23 24  1  0  0  0
M  END
> <minimizedAffinity>
-9.78589

$$$$
