CHEMBL4165904


 30 34  0  0  0  0  0  0  0  0999 V2000
  -29.5401   -5.7744   -5.6134 C   0  0  0  0  0  0  0  0  0  0  0  0
  -28.9979   -5.0415   -4.5521 C   0  0  0  0  0  0  0  0  0  0  0  0
  -28.4001   -3.7879   -4.7571 C   0  0  0  0  0  0  0  0  0  0  0  0
  -28.3805   -3.3044   -6.0716 C   0  0  0  0  0  0  0  0  0  0  0  0
  -28.8650   -4.0436   -7.1406 C   0  0  0  0  0  0  0  0  0  0  0  0
  -29.4217   -5.3065   -6.9267 C   0  0  0  0  0  0  0  0  0  0  0  0
  -28.7180   -3.3674   -8.3127 N   0  0  0  0  0  0  0  0  0  0  0  0
  -28.1788   -2.2062   -8.0145 C   0  0  0  0  0  0  0  0  0  0  0  0
  -27.9589   -2.1242   -6.6521 N   0  0  0  0  0  0  0  0  0  0  0  0
  -27.4472   -1.0029   -5.9028 C   0  0  0  0  0  0  0  0  0  0  0  0
  -27.8402   -1.2170   -8.8808 N   0  0  0  0  0  0  0  0  0  0  0  0
  -27.8114   -0.2536   -8.5765 H   0  0  0  0  0  0  0  0  0  0  0  0
  -27.2031   -1.4340  -10.1266 C   0  0  0  0  0  0  0  0  0  0  0  0
  -25.8083   -1.5122  -10.2625 C   0  0  0  0  0  0  0  0  0  0  0  0
  -25.1997   -1.6044  -11.5181 C   0  0  0  0  0  0  0  0  0  0  0  0
  -25.9891   -1.6169  -12.6625 C   0  0  0  0  0  0  0  0  0  0  0  0
  -25.1705   -1.6775  -14.3652 Br  0  0  0  0  0  0  0  0  0  0  0  0
  -27.3742   -1.5637  -12.5583 C   0  0  0  0  0  0  0  0  0  0  0  0
  -27.9769   -1.4744  -11.2954 C   0  0  0  0  0  0  0  0  0  0  0  0
  -30.1317   -6.9807   -5.2972 O   0  0  0  0  0  0  0  0  0  0  0  0
  -31.0073  -11.7272   -8.8705 C   0  0  0  0  0  0  0  0  0  0  0  0
  -31.0629  -10.5111   -8.0986 N   0  0  0  0  0  0  0  0  0  0  0  0
  -32.2120   -9.7983   -8.0224 N   0  0  0  0  0  0  0  0  0  0  0  0
  -31.8872   -8.7786   -7.2180 C   0  0  0  0  0  0  0  0  0  0  0  0
  -30.5476   -8.8288   -6.7917 C   0  0  0  0  0  0  0  0  0  0  0  0
  -29.6844   -8.1073   -5.9766 C   0  0  0  0  0  0  0  0  0  0  0  0
  -28.3935   -8.5098   -5.8588 N   0  0  0  0  0  0  0  0  0  0  0  0
  -28.0270   -9.6478   -6.4775 C   0  0  0  0  0  0  0  0  0  0  0  0
  -28.7801  -10.4440   -7.2568 N   0  0  0  0  0  0  0  0  0  0  0  0
  -30.0320   -9.9683   -7.3804 C   0  0  0  0  0  0  0  0  0  0  0  0
 21 22  1  0  0  0
 22 23  1  0  0  0
 22 30  1  0  0  0
 23 24  2  0  0  0
 24 25  1  0  0  0
 25 26  1  0  0  0
 25 30  2  0  0  0
 26 20  1  0  0  0
 26 27  2  0  0  0
 20  1  1  0  0  0
  1  2  1  0  0  0
  1  6  2  0  0  0
  2  3  2  0  0  0
  3  4  1  0  0  0
  4  5  2  0  0  0
  4  9  1  0  0  0
  5  6  1  0  0  0
  5  7  1  0  0  0
  7  8  2  0  0  0
  8 11  1  0  0  0
  8  9  1  0  0  0
 11 13  1  0  0  0
 11 12  1  0  0  0
 13 14  1  0  0  0
 13 19  2  0  0  0
 14 15  2  0  0  0
 15 16  1  0  0  0
 16 17  1  0  0  0
 16 18  2  0  0  0
 18 19  1  0  0  0
  9 10  1  0  0  0
 27 28  1  0  0  0
 28 29  2  0  0  0
 29 30  1  0  0  0
M  END
> <minimizedAffinity>
-8.48603

$$$$
