CHEMBL245966


 32 35  0  0  0  0  0  0  0  0999 V2000
  -16.4406    1.6903  -14.8255 C   0  0  0  0  0  0  0  0  0  0  0  0
  -15.3932    2.2730  -15.4986 C   0  0  0  0  0  0  0  0  0  0  0  0
  -15.9598    3.1485  -16.3784 N   0  0  0  0  0  0  0  0  0  0  0  0
  -17.3046    3.1857  -16.3202 N   0  0  0  0  0  0  0  0  0  0  0  0
  -17.6050    2.3017  -15.3539 C   0  0  0  0  0  0  0  0  0  0  0  0
  -15.4912    3.7387  -17.0584 H   0  0  0  0  0  0  0  0  0  0  0  0
  -19.0158    2.0411  -14.9447 C   0  0  0  0  0  0  0  0  0  0  0  0
  -19.8736    2.9506  -14.5344 N   0  0  0  0  0  0  0  0  0  0  0  0
  -21.0387    2.2707  -14.2933 C   0  0  0  0  0  0  0  0  0  0  0  0
  -22.2760    2.7578  -13.8597 C   0  0  0  0  0  0  0  0  0  0  0  0
  -23.3276    1.8510  -13.6631 C   0  0  0  0  0  0  0  0  0  0  0  0
  -23.1491    0.4820  -13.8885 C   0  0  0  0  0  0  0  0  0  0  0  0
  -21.9140   -0.0139  -14.3374 C   0  0  0  0  0  0  0  0  0  0  0  0
  -20.8853    0.9109  -14.5336 C   0  0  0  0  0  0  0  0  0  0  0  0
  -19.5883    0.7933  -14.9669 N   0  0  0  0  0  0  0  0  0  0  0  0
  -19.1065   -0.0482  -15.2488 H   0  0  0  0  0  0  0  0  0  0  0  0
  -24.1074   -0.4819  -13.7070 O   0  0  0  0  0  0  0  0  0  0  0  0
  -23.7417   -1.6091  -12.9192 C   0  0  0  0  0  0  0  0  0  0  0  0
  -15.9965   -0.6404  -14.1989 C   0  0  0  0  0  0  0  0  0  0  0  0
  -16.3174    0.6266  -13.8885 C   0  0  0  0  0  0  0  0  0  0  0  0
  -15.7961   -4.0548  -12.5501 C   0  0  0  0  0  0  0  0  0  0  0  0
  -15.5418   -3.6376  -11.2518 C   0  0  0  0  0  0  0  0  0  0  0  0
  -15.4099   -2.3369  -10.8930 N   0  0  0  0  0  0  0  0  0  0  0  0
  -15.5744   -1.4163  -11.8751 C   0  0  0  0  0  0  0  0  0  0  0  0
  -15.8625   -1.7200  -13.2065 C   0  0  0  0  0  0  0  0  0  0  0  0
  -15.9612   -3.0773  -13.5387 C   0  0  0  0  0  0  0  0  0  0  0  0
  -14.7911   -6.1406  -13.3021 N   0  0  0  0  0  0  0  0  0  0  0  0
  -15.9173   -5.5058  -12.8189 C   0  0  0  0  0  0  0  0  0  0  0  0
  -16.9747   -6.0812  -12.5905 O   0  0  0  0  0  0  0  0  0  0  0  0
  -13.9008   -5.6621  -13.2851 H   0  0  0  0  0  0  0  0  0  0  0  0
  -14.0763   -8.3536  -12.5016 C   0  0  0  0  0  0  0  0  0  0  0  0
  -14.7873   -7.5623  -13.5844 C   0  0  0  0  0  0  0  0  0  0  0  0
 31 32  1  0  0  0
 32 27  1  0  0  0
 27 28  1  0  0  0
 27 30  1  0  0  0
 28 29  2  0  0  0
 28 21  1  0  0  0
 21 22  1  0  0  0
 21 26  2  0  0  0
 22 23  2  0  0  0
 23 24  1  0  0  0
 24 25  2  0  0  0
 25 19  1  0  0  0
 25 26  1  0  0  0
 19 20  2  0  0  0
 20  1  1  0  0  0
  1  2  2  0  0  0
  1  5  1  0  0  0
  2  3  1  0  0  0
  3  4  1  0  0  0
  3  6  1  0  0  0
  4  5  2  0  0  0
  5  7  1  0  0  0
  7  8  2  0  0  0
  7 15  1  0  0  0
  8  9  1  0  0  0
  9 10  1  0  0  0
  9 14  2  0  0  0
 10 11  2  0  0  0
 11 12  1  0  0  0
 12 17  1  0  0  0
 12 13  2  0  0  0
 17 18  1  0  0  0
 13 14  1  0  0  0
 14 15  1  0  0  0
 15 16  1  0  0  0
M  END
> <minimizedAffinity>
-8.60366

$$$$
