CHEMBL329350


 23 26  0  0  0  0  0  0  0  0999 V2000
  -30.5253   -6.1811   -6.6711 C   0  0  0  0  0  0  0  0  0  0  0  0
  -30.1742   -5.0288   -7.5555 C   0  0  0  0  0  0  0  0  0  0  0  0
  -29.8763   -3.8229   -7.1708 N   0  0  0  0  0  0  0  0  0  0  0  0
  -29.8806   -3.6007   -5.8153 C   0  0  0  0  0  0  0  0  0  0  0  0
  -29.6215   -2.4760   -5.0473 C   0  0  0  0  0  0  0  0  0  0  0  0
  -29.7731   -2.9237   -3.7163 C   0  0  0  0  0  0  0  0  0  0  0  0
  -30.1118   -4.2087   -3.6239 N   0  0  0  0  0  0  0  0  0  0  0  0
  -30.1834   -4.6284   -4.9094 N   0  0  0  0  0  0  0  0  0  0  0  0
  -30.5078   -5.9050   -5.3578 C   0  0  0  0  0  0  0  0  0  0  0  0
  -31.4684  -10.0370   -8.2537 C   0  0  0  0  0  0  0  0  0  0  0  0
  -30.1938   -9.4982   -8.4337 C   0  0  0  0  0  0  0  0  0  0  0  0
  -29.8850   -8.2335   -7.9152 C   0  0  0  0  0  0  0  0  0  0  0  0
  -30.8441   -7.5017   -7.2073 C   0  0  0  0  0  0  0  0  0  0  0  0
  -32.1164   -8.0477   -7.0194 C   0  0  0  0  0  0  0  0  0  0  0  0
  -32.4209   -9.3090   -7.5383 C   0  0  0  0  0  0  0  0  0  0  0  0
  -32.0773  -12.2866   -7.7696 C   0  0  0  0  0  0  0  0  0  0  0  0
  -31.9064  -11.2447   -8.7219 O   0  0  0  0  0  0  0  0  0  0  0  0
  -29.2735   -1.1532   -5.5483 C   0  0  0  0  0  0  0  0  0  0  0  0
  -28.0749   -0.9205   -6.2262 C   0  0  0  0  0  0  0  0  0  0  0  0
  -27.8152    0.3523   -6.7082 C   0  0  0  0  0  0  0  0  0  0  0  0
  -28.6578    1.3966   -6.5662 N   0  0  0  0  0  0  0  0  0  0  0  0
  -29.8086    1.1550   -5.9069 C   0  0  0  0  0  0  0  0  0  0  0  0
  -30.1585   -0.0827   -5.3884 C   0  0  0  0  0  0  0  0  0  0  0  0
 16 17  1  0  0  0
 17 10  1  0  0  0
 10 11  1  0  0  0
 10 15  2  0  0  0
 11 12  2  0  0  0
 12 13  1  0  0  0
 13  1  1  0  0  0
 13 14  2  0  0  0
  1  2  1  0  0  0
  1  9  2  0  0  0
  2  3  2  0  0  0
  3  4  1  0  0  0
  4  5  2  0  0  0
  4  8  1  0  0  0
  5 18  1  0  0  0
  5  6  1  0  0  0
 18 19  1  0  0  0
 18 23  2  0  0  0
 19 20  2  0  0  0
 20 21  1  0  0  0
 21 22  2  0  0  0
 22 23  1  0  0  0
  6  7  2  0  0  0
  7  8  1  0  0  0
  8  9  1  0  0  0
 14 15  1  0  0  0
M  END
> <minimizedAffinity>
-8.27045

$$$$
