CHEMBL517399


 29 32  0  0  0  0  0  0  0  0999 V2000
  -15.2578    0.1192  -14.4709 C   0  0  0  0  0  0  0  0  0  0  0  0
  -14.5141    0.5461  -15.5031 N   0  0  0  0  0  0  0  0  0  0  0  0
  -13.1751   -0.4259  -15.6340 S   0  0  0  0  0  0  0  0  0  0  0  0
  -13.5749   -1.4783  -14.3492 C   0  0  0  0  0  0  0  0  0  0  0  0
  -14.7614   -1.0605  -13.7913 C   0  0  0  0  0  0  0  0  0  0  0  0
  -16.7541    1.0732  -12.9304 O   0  0  0  0  0  0  0  0  0  0  0  0
  -16.5089    0.8079  -14.1061 C   0  0  0  0  0  0  0  0  0  0  0  0
  -17.3623    1.0591  -15.1708 N   0  0  0  0  0  0  0  0  0  0  0  0
  -17.0704    0.6533  -16.0556 H   0  0  0  0  0  0  0  0  0  0  0  0
  -18.6308    1.6699  -15.0863 C   0  0  0  0  0  0  0  0  0  0  0  0
  -18.8348    3.0310  -15.3433 C   0  0  0  0  0  0  0  0  0  0  0  0
  -20.0952    3.6116  -15.1940 C   0  0  0  0  0  0  0  0  0  0  0  0
  -21.1728    2.8330  -14.7886 C   0  0  0  0  0  0  0  0  0  0  0  0
  -20.9844    1.4708  -14.5599 C   0  0  0  0  0  0  0  0  0  0  0  0
  -22.4517    0.4172  -13.9979 Br  0  0  0  0  0  0  0  0  0  0  0  0
  -19.7260    0.8817  -14.7203 C   0  0  0  0  0  0  0  0  0  0  0  0
  -15.3865   -1.6372  -12.7232 N   0  0  0  0  0  0  0  0  0  0  0  0
  -15.9112   -1.0075  -12.1028 H   0  0  0  0  0  0  0  0  0  0  0  0
  -15.9576   -2.9765  -12.7552 C   0  0  0  0  0  0  0  0  0  0  0  0
  -15.3040   -3.9395  -11.7857 C   0  0  0  0  0  0  0  0  0  0  0  0
  -14.9901   -3.5438  -10.4792 C   0  0  0  0  0  0  0  0  0  0  0  0
  -14.3870   -4.4483   -9.6308 C   0  0  0  0  0  0  0  0  0  0  0  0
  -14.0858   -5.7125   -9.9785 N   0  0  0  0  0  0  0  0  0  0  0  0
  -14.3940   -6.1165  -11.2209 C   0  0  0  0  0  0  0  0  0  0  0  0
  -14.0883   -7.4246  -11.5670 C   0  0  0  0  0  0  0  0  0  0  0  0
  -14.3694   -7.9397  -12.8331 C   0  0  0  0  0  0  0  0  0  0  0  0
  -14.9750   -7.1305  -13.7813 C   0  0  0  0  0  0  0  0  0  0  0  0
  -15.2931   -5.8108  -13.4591 C   0  0  0  0  0  0  0  0  0  0  0  0
  -15.0090   -5.2750  -12.1778 C   0  0  0  0  0  0  0  0  0  0  0  0
  6  7  2  0  0  0
  7  8  1  0  0  0
  7  1  1  0  0  0
  8 10  1  0  0  0
  8  9  1  0  0  0
 10 11  1  0  0  0
 10 16  2  0  0  0
 11 12  2  0  0  0
 12 13  1  0  0  0
 13 14  2  0  0  0
 14 15  1  0  0  0
 14 16  1  0  0  0
  1  2  2  0  0  0
  1  5  1  0  0  0
  2  3  1  0  0  0
  3  4  1  0  0  0
  4  5  2  0  0  0
  5 17  1  0  0  0
 17 19  1  0  0  0
 17 18  1  0  0  0
 19 20  1  0  0  0
 20 21  1  0  0  0
 20 29  2  0  0  0
 21 22  2  0  0  0
 22 23  1  0  0  0
 23 24  2  0  0  0
 24 25  1  0  0  0
 24 29  1  0  0  0
 25 26  2  0  0  0
 26 27  1  0  0  0
 27 28  2  0  0  0
 28 29  1  0  0  0
M  END
> <minimizedAffinity>
-8.89685

$$$$
