CHEMBL1269661


 21 23  0  0  0  0  0  0  0  0999 V2000
  -15.0953    0.4634  -12.5181 O   0  0  0  0  0  0  0  0  0  0  0  0
  -15.5868   -0.3880  -13.2501 C   0  0  0  0  0  0  0  0  0  0  0  0
  -16.2538   -0.1726  -14.4399 N   0  0  0  0  0  0  0  0  0  0  0  0
  -16.8179   -0.9187  -14.8418 H   0  0  0  0  0  0  0  0  0  0  0  0
  -16.4645    1.0834  -15.0695 C   0  0  0  0  0  0  0  0  0  0  0  0
  -15.4229    1.7917  -15.6811 C   0  0  0  0  0  0  0  0  0  0  0  0
  -15.6558    3.0387  -16.2493 C   0  0  0  0  0  0  0  0  0  0  0  0
  -16.9318    3.5869  -16.2102 C   0  0  0  0  0  0  0  0  0  0  0  0
  -17.9888    2.8773  -15.6170 C   0  0  0  0  0  0  0  0  0  0  0  0
  -19.2749    3.4264  -15.5652 C   0  0  0  0  0  0  0  0  0  0  0  0
  -20.3079    2.7143  -14.9752 C   0  0  0  0  0  0  0  0  0  0  0  0
  -20.0197    1.4652  -14.4595 C   0  0  0  0  0  0  0  0  0  0  0  0
  -18.7883    0.8986  -14.4839 N   0  0  0  0  0  0  0  0  0  0  0  0
  -17.7735    1.5991  -15.0509 C   0  0  0  0  0  0  0  0  0  0  0  0
  -15.5219   -1.7921  -12.7979 C   0  0  0  0  0  0  0  0  0  0  0  0
  -15.8456   -2.1854  -11.4985 C   0  0  0  0  0  0  0  0  0  0  0  0
  -15.7801   -3.5388  -11.1670 C   0  0  0  0  0  0  0  0  0  0  0  0
  -15.3922   -4.4374  -12.1503 C   0  0  0  0  0  0  0  0  0  0  0  0
  -15.2712   -6.1131  -11.8123 Cl  0  0  0  0  0  0  0  0  0  0  0  0
  -15.0853   -4.0939  -13.4175 N   0  0  0  0  0  0  0  0  0  0  0  0
  -15.1705   -2.7748  -13.7185 C   0  0  0  0  0  0  0  0  0  0  0  0
  1  2  2  0  0  0
  2  3  1  0  0  0
  2 15  1  0  0  0
  3  5  1  0  0  0
  3  4  1  0  0  0
  5  6  1  0  0  0
  5 14  2  0  0  0
  6  7  2  0  0  0
  7  8  1  0  0  0
  8  9  2  0  0  0
  9 10  1  0  0  0
  9 14  1  0  0  0
 10 11  2  0  0  0
 11 12  1  0  0  0
 12 13  2  0  0  0
 13 14  1  0  0  0
 15 16  1  0  0  0
 15 21  2  0  0  0
 16 17  2  0  0  0
 17 18  1  0  0  0
 18 19  1  0  0  0
 18 20  2  0  0  0
 20 21  1  0  0  0
M  END
> <minimizedAffinity>
-8.22576

$$$$
