CHEMBL3945845


 36 40  0  0  0  0  0  0  0  0999 V2000
  -28.5701   -9.7268   -5.7339 N   0  0  0  0  0  0  0  0  0  0  0  0
  -28.5347   -8.3720   -5.2411 C   0  0  0  0  0  0  0  0  0  0  0  0
  -28.9264   -8.2145   -3.9155 C   0  0  0  0  0  0  0  0  0  0  0  0
  -29.5144   -7.0400   -3.5011 C   0  0  0  0  0  0  0  0  0  0  0  0
  -29.5516   -5.9318   -4.2970 C   0  0  0  0  0  0  0  0  0  0  0  0
  -30.3403   -4.9659   -3.8473 N   0  0  0  0  0  0  0  0  0  0  0  0
  -30.2258   -3.7692   -4.4359 C   0  0  0  0  0  0  0  0  0  0  0  0
  -29.2378   -3.5142   -5.3621 C   0  0  0  0  0  0  0  0  0  0  0  0
  -28.5546   -4.5550   -5.9712 N   0  0  0  0  0  0  0  0  0  0  0  0
  -28.7687   -5.8576   -5.4759 C   0  0  0  0  0  0  0  0  0  0  0  0
  -28.3383   -7.1654   -5.9777 C   0  0  0  0  0  0  0  0  0  0  0  0
  -28.7402   -2.1305   -5.3355 C   0  0  0  0  0  0  0  0  0  0  0  0
  -27.5593   -1.5127   -4.8676 C   0  0  0  0  0  0  0  0  0  0  0  0
  -27.4438   -0.2328   -5.2406 N   0  0  0  0  0  0  0  0  0  0  0  0
  -28.5641   -0.0025   -5.9489 N   0  0  0  0  0  0  0  0  0  0  0  0
  -28.9077    1.3347   -6.3853 C   0  0  0  0  0  0  0  0  0  0  0  0
  -29.3094   -1.1323   -6.1306 C   0  0  0  0  0  0  0  0  0  0  0  0
  -31.5179  -11.2396   -7.5741 C   0  0  0  0  0  0  0  0  0  0  0  0
  -30.9366  -11.4717   -8.8140 C   0  0  0  0  0  0  0  0  0  0  0  0
  -29.5768  -11.2481   -9.0097 C   0  0  0  0  0  0  0  0  0  0  0  0
  -28.7972  -10.7116   -7.9740 C   0  0  0  0  0  0  0  0  0  0  0  0
  -29.3530  -10.3700   -6.7360 C   0  0  0  0  0  0  0  0  0  0  0  0
  -30.7203  -10.7340   -6.5407 C   0  0  0  0  0  0  0  0  0  0  0  0
  -33.4513  -11.9339   -6.3123 C   0  0  0  0  0  0  0  0  0  0  0  0
  -32.8484  -11.5421   -7.5371 O   0  0  0  0  0  0  0  0  0  0  0  0
  -28.9173  -11.4688  -10.1891 O   0  0  0  0  0  0  0  0  0  0  0  0
  -28.9010  -10.3810  -11.1088 C   0  0  0  0  0  0  0  0  0  0  0  0
  -27.7445  -10.6208   -4.8572 C   0  0  0  0  0  0  0  0  0  0  0  0
  -26.3416  -10.6527   -5.2910 C   0  0  0  0  0  0  0  0  0  0  0  0
  -25.2047  -10.7443   -5.6552 C   0  0  0  0  0  0  0  0  0  0  0  0
  -23.8912  -10.9295   -6.1641 C   0  0  0  0  0  0  0  0  0  0  0  0
  -22.7928  -10.5923   -5.5235 N   0  0  0  0  0  0  0  0  0  0  0  0
  -21.7589  -10.9483   -6.3569 C   0  0  0  0  0  0  0  0  0  0  0  0
  -22.2383  -11.4894   -7.5273 C   0  0  0  0  0  0  0  0  0  0  0  0
  -23.5970  -11.4904   -7.3794 N   0  0  0  0  0  0  0  0  0  0  0  0
  -24.5600  -12.0331   -8.3052 C   0  0  0  0  0  0  0  0  0  0  0  0
 24 25  1  0  0  0
 25 18  1  0  0  0
 18 19  1  0  0  0
 18 23  2  0  0  0
 19 20  2  0  0  0
 20 26  1  0  0  0
 20 21  1  0  0  0
 26 27  1  0  0  0
 21 22  2  0  0  0
 22  1  1  0  0  0
 22 23  1  0  0  0
  1 28  1  0  0  0
  1  2  1  0  0  0
 28 29  1  0  0  0
 29 30  3  0  0  0
 30 31  1  0  0  0
 31 32  2  0  0  0
 31 35  1  0  0  0
 32 33  1  0  0  0
 33 34  2  0  0  0
 34 35  1  0  0  0
 35 36  1  0  0  0
  2  3  1  0  0  0
  2 11  2  0  0  0
  3  4  2  0  0  0
  4  5  1  0  0  0
  5  6  1  0  0  0
  5 10  2  0  0  0
  6  7  2  0  0  0
  7  8  1  0  0  0
  8 12  1  0  0  0
  8  9  2  0  0  0
 12 13  1  0  0  0
 12 17  2  0  0  0
 13 14  2  0  0  0
 14 15  1  0  0  0
 15 16  1  0  0  0
 15 17  1  0  0  0
  9 10  1  0  0  0
 10 11  1  0  0  0
M  END
> <minimizedAffinity>
-8.09803

$$$$
