CHEMBL119276


 34 38  0  0  0  0  0  0  0  0999 V2000
  -18.7732    2.0351  -15.4818 C   0  0  0  0  0  0  0  0  0  0  0  0
  -19.4208    3.2416  -15.2103 C   0  0  0  0  0  0  0  0  0  0  0  0
  -20.6929    3.2612  -14.6351 C   0  0  0  0  0  0  0  0  0  0  0  0
  -21.2922    2.0281  -14.3743 C   0  0  0  0  0  0  0  0  0  0  0  0
  -22.5244    1.7384  -13.8488 N   0  0  0  0  0  0  0  0  0  0  0  0
  -22.7511    0.3796  -13.8301 C   0  0  0  0  0  0  0  0  0  0  0  0
  -21.5857   -0.2124  -14.2841 C   0  0  0  0  0  0  0  0  0  0  0  0
  -20.6793    0.8122  -14.6564 C   0  0  0  0  0  0  0  0  0  0  0  0
  -19.3987    0.8131  -15.2266 C   0  0  0  0  0  0  0  0  0  0  0  0
  -23.2157    2.4260  -13.5755 H   0  0  0  0  0  0  0  0  0  0  0  0
  -24.0430   -0.1970  -13.4517 C   0  0  0  0  0  0  0  0  0  0  0  0
  -24.4259   -0.2551  -12.1110 C   0  0  0  0  0  0  0  0  0  0  0  0
  -25.6066   -0.9092  -11.7412 C   0  0  0  0  0  0  0  0  0  0  0  0
  -25.9850   -1.0196  -10.3934 C   0  0  0  0  0  0  0  0  0  0  0  0
  -27.1409   -1.7112  -10.0464 C   0  0  0  0  0  0  0  0  0  0  0  0
  -27.9247   -2.2854  -11.0427 C   0  0  0  0  0  0  0  0  0  0  0  0
  -27.5507   -2.1604  -12.3835 C   0  0  0  0  0  0  0  0  0  0  0  0
  -26.4014   -1.4807  -12.7590 C   0  0  0  0  0  0  0  0  0  0  0  0
  -26.0763   -1.4013  -14.0603 N   0  0  0  0  0  0  0  0  0  0  0  0
  -24.9255   -0.7763  -14.3597 C   0  0  0  0  0  0  0  0  0  0  0  0
  -24.6810   -0.7850  -15.7009 O   0  0  0  0  0  0  0  0  0  0  0  0
  -25.4665   -1.2831  -15.9950 H   0  0  0  0  0  0  0  0  0  0  0  0
  -17.5213    1.9238  -16.0167 O   0  0  0  0  0  0  0  0  0  0  0  0
  -16.4781    2.4785  -15.2164 C   0  0  0  0  0  0  0  0  0  0  0  0
  -15.4338    1.3804  -15.0130 C   0  0  0  0  0  0  0  0  0  0  0  0
  -12.3569   -2.9172  -12.4102 C   0  0  0  0  0  0  0  0  0  0  0  0
  -13.8333   -2.7338  -12.6462 C   0  0  0  0  0  0  0  0  0  0  0  0
  -14.6382   -3.5341  -12.1699 O   0  0  0  0  0  0  0  0  0  0  0  0
  -14.2223   -1.6253  -13.3731 N   0  0  0  0  0  0  0  0  0  0  0  0
  -13.3207   -0.6480  -13.9895 C   0  0  0  0  0  0  0  0  0  0  0  0
  -13.6199    0.7657  -13.4592 C   0  0  0  0  0  0  0  0  0  0  0  0
  -15.0327    1.1800  -13.6098 N   0  0  0  0  0  0  0  0  0  0  0  0
  -15.9012    0.1541  -12.9767 C   0  0  0  0  0  0  0  0  0  0  0  0
  -15.6461   -1.2894  -13.4670 C   0  0  0  0  0  0  0  0  0  0  0  0
 26 27  1  0  0  0
 27 28  2  0  0  0
 27 29  1  0  0  0
 29 30  1  0  0  0
 29 34  1  0  0  0
 30 31  1  0  0  0
 31 32  1  0  0  0
 32 25  1  0  0  0
 32 33  1  0  0  0
 25 24  1  0  0  0
 24 23  1  0  0  0
 23  1  1  0  0  0
  1  2  1  0  0  0
  1  9  2  0  0  0
  2  3  2  0  0  0
  3  4  1  0  0  0
  4  5  1  0  0  0
  4  8  2  0  0  0
  5  6  1  0  0  0
  5 10  1  0  0  0
  6 11  1  0  0  0
  6  7  2  0  0  0
 11 12  1  0  0  0
 11 20  2  0  0  0
 12 13  2  0  0  0
 13 14  1  0  0  0
 13 18  1  0  0  0
 14 15  2  0  0  0
 15 16  1  0  0  0
 16 17  2  0  0  0
 17 18  1  0  0  0
 18 19  2  0  0  0
 19 20  1  0  0  0
 20 21  1  0  0  0
 21 22  1  0  0  0
  7  8  1  0  0  0
  8  9  1  0  0  0
 33 34  1  0  0  0
M  END
> <minimizedAffinity>
-9.49315

$$$$
