CHEMBL189354


 45 48  0  0  0  0  0  0  0  0999 V2000
  -29.0660   -4.4940   -5.9765 C   0  0  0  0  0  0  0  0  0  0  0  0
  -28.3255   -3.3606   -5.6697 C   0  0  0  0  0  0  0  0  0  0  0  0
  -27.9753   -2.4473   -6.6646 C   0  0  0  0  0  0  0  0  0  0  0  0
  -28.3491   -2.6210   -8.0021 C   0  0  0  0  0  0  0  0  0  0  0  0
  -29.0490   -3.7814   -8.3320 C   0  0  0  0  0  0  0  0  0  0  0  0
  -29.4020   -4.7002   -7.3291 C   0  0  0  0  0  0  0  0  0  0  0  0
  -28.0535   -1.6660   -9.0121 N   0  0  0  0  0  0  0  0  0  0  0  0
  -27.2310   -1.8928  -10.1023 C   0  0  0  0  0  0  0  0  0  0  0  0
  -26.6468   -2.9543  -10.3400 O   0  0  0  0  0  0  0  0  0  0  0  0
  -27.1024   -0.8058  -10.9508 N   0  0  0  0  0  0  0  0  0  0  0  0
  -28.4942   -0.7561   -8.9341 H   0  0  0  0  0  0  0  0  0  0  0  0
  -27.0687    0.0930  -10.4871 H   0  0  0  0  0  0  0  0  0  0  0  0
  -26.2589   -0.9418  -12.0912 C   0  0  0  0  0  0  0  0  0  0  0  0
  -24.9655   -0.4000  -12.0825 C   0  0  0  0  0  0  0  0  0  0  0  0
  -24.1137   -0.5184  -13.1946 C   0  0  0  0  0  0  0  0  0  0  0  0
  -24.5894   -1.1693  -14.3441 C   0  0  0  0  0  0  0  0  0  0  0  0
  -25.8840   -1.7037  -14.3648 C   0  0  0  0  0  0  0  0  0  0  0  0
  -26.7009   -1.6011  -13.2370 C   0  0  0  0  0  0  0  0  0  0  0  0
  -27.9482   -2.0933  -13.2870 F   0  0  0  0  0  0  0  0  0  0  0  0
  -22.7098    0.0385  -13.1341 C   0  0  0  0  0  0  0  0  0  0  0  0
  -21.8679   -0.5310  -14.0414 F   0  0  0  0  0  0  0  0  0  0  0  0
  -22.6703    1.3769  -13.3869 F   0  0  0  0  0  0  0  0  0  0  0  0
  -22.1202   -0.1306  -11.9199 F   0  0  0  0  0  0  0  0  0  0  0  0
  -29.9951   -4.9437   -3.7389 C   0  0  0  0  0  0  0  0  0  0  0  0
  -29.4293   -5.4400   -4.9989 N   0  0  0  0  0  0  0  0  0  0  0  0
  -28.8503   -6.7321   -4.8791 C   0  0  0  0  0  0  0  0  0  0  0  0
  -29.6029   -7.8578   -5.1576 C   0  0  0  0  0  0  0  0  0  0  0  0
  -28.9910   -9.0719   -5.0882 C   0  0  0  0  0  0  0  0  0  0  0  0
  -27.7009   -9.2219   -4.7704 N   0  0  0  0  0  0  0  0  0  0  0  0
  -27.0300   -8.1037   -4.4572 C   0  0  0  0  0  0  0  0  0  0  0  0
  -27.5666   -6.8674   -4.5208 N   0  0  0  0  0  0  0  0  0  0  0  0
  -25.6969   -8.2321   -4.0725 N   0  0  0  0  0  0  0  0  0  0  0  0
  -25.2655   -7.3492   -3.8473 H   0  0  0  0  0  0  0  0  0  0  0  0
  -24.9182   -9.3955   -4.0947 C   0  0  0  0  0  0  0  0  0  0  0  0
  -24.8890  -10.2676   -2.9938 C   0  0  0  0  0  0  0  0  0  0  0  0
  -24.0284  -11.3656   -2.9454 C   0  0  0  0  0  0  0  0  0  0  0  0
  -23.1791  -11.6170   -4.0128 C   0  0  0  0  0  0  0  0  0  0  0  0
  -23.2077  -10.7695   -5.1215 C   0  0  0  0  0  0  0  0  0  0  0  0
  -24.0619   -9.6555   -5.1669 C   0  0  0  0  0  0  0  0  0  0  0  0
  -22.1847  -11.1386   -6.5227 S   0  0  0  0  0  0  0  0  0  0  0  0
  -21.5203   -9.6402   -6.8345 N   0  0  0  0  0  0  0  0  0  0  0  0
  -21.1048  -11.9991   -6.0809 O   0  0  0  0  0  0  0  0  0  0  0  0
  -23.0361  -11.4642   -7.6333 O   0  0  0  0  0  0  0  0  0  0  0  0
  -20.7626   -9.3666   -6.2137 H   0  0  0  0  0  0  0  0  0  0  0  0
  -22.1825   -8.9377   -7.1515 H   0  0  0  0  0  0  0  0  0  0  0  0
 24 25  1  0  0  0
 25  1  1  0  0  0
 25 26  1  0  0  0
  1  2  1  0  0  0
  1  6  2  0  0  0
  2  3  2  0  0  0
  3  4  1  0  0  0
  4  7  1  0  0  0
  4  5  2  0  0  0
  7  8  1  0  0  0
  7 11  1  0  0  0
  8  9  2  0  0  0
  8 10  1  0  0  0
 10 13  1  0  0  0
 10 12  1  0  0  0
 13 14  1  0  0  0
 13 18  2  0  0  0
 14 15  2  0  0  0
 15 20  1  0  0  0
 15 16  1  0  0  0
 20 21  1  0  0  0
 20 22  1  0  0  0
 20 23  1  0  0  0
 16 17  2  0  0  0
 17 18  1  0  0  0
 18 19  1  0  0  0
  5  6  1  0  0  0
 26 27  1  0  0  0
 26 31  2  0  0  0
 27 28  2  0  0  0
 28 29  1  0  0  0
 29 30  2  0  0  0
 30 32  1  0  0  0
 30 31  1  0  0  0
 32 34  1  0  0  0
 32 33  1  0  0  0
 34 35  1  0  0  0
 34 39  2  0  0  0
 35 36  2  0  0  0
 36 37  1  0  0  0
 37 38  2  0  0  0
 38 40  1  0  0  0
 38 39  1  0  0  0
 40 41  1  0  0  0
 40 42  2  0  0  0
 40 43  2  0  0  0
 41 44  1  0  0  0
 41 45  1  0  0  0
M  END
> <minimizedAffinity>
-11.48005

$$$$
