CHEMBL3676345


 41 43  0  0  0  0  0  0  0  0999 V2000
  -15.3031    0.0091  -13.6505 C   0  0  0  0  0  0  0  0  0  0  0  0
  -16.4303    0.7627  -13.9642 C   0  0  0  0  0  0  0  0  0  0  0  0
  -16.3866    1.7196  -15.0046 C   0  0  0  0  0  0  0  0  0  0  0  0
  -17.3843    2.6641  -15.2537 C   0  0  0  0  0  0  0  0  0  0  0  0
  -17.2959    3.5330  -16.2852 N   0  0  0  0  0  0  0  0  0  0  0  0
  -16.1888    3.4837  -17.0326 C   0  0  0  0  0  0  0  0  0  0  0  0
  -15.1533    2.6721  -16.8401 N   0  0  0  0  0  0  0  0  0  0  0  0
  -15.2490    1.8096  -15.8187 C   0  0  0  0  0  0  0  0  0  0  0  0
  -14.1688    0.9869  -15.5491 C   0  0  0  0  0  0  0  0  0  0  0  0
  -14.1786    0.0777  -14.4848 C   0  0  0  0  0  0  0  0  0  0  0  0
  -15.7506   -2.0965  -12.5156 C   0  0  0  0  0  0  0  0  0  0  0  0
  -15.9977   -2.7523  -13.5174 O   0  0  0  0  0  0  0  0  0  0  0  0
  -15.3779   -0.7669  -12.4801 N   0  0  0  0  0  0  0  0  0  0  0  0
  -14.8166   -0.4811  -11.6858 H   0  0  0  0  0  0  0  0  0  0  0  0
  -16.2845   -3.9193  -10.9530 C   0  0  0  0  0  0  0  0  0  0  0  0
  -15.7792   -2.6982  -11.1533 C   0  0  0  0  0  0  0  0  0  0  0  0
  -18.4669    2.8156  -14.3459 N   0  0  0  0  0  0  0  0  0  0  0  0
  -18.1561    2.8833  -13.3810 H   0  0  0  0  0  0  0  0  0  0  0  0
  -19.7023    2.1407  -14.4918 C   0  0  0  0  0  0  0  0  0  0  0  0
  -19.7333    0.8433  -15.0268 C   0  0  0  0  0  0  0  0  0  0  0  0
  -20.9000    0.0787  -14.9998 C   0  0  0  0  0  0  0  0  0  0  0  0
  -22.0629    0.6232  -14.4616 C   0  0  0  0  0  0  0  0  0  0  0  0
  -23.6004   -0.4666  -14.3092 Br  0  0  0  0  0  0  0  0  0  0  0  0
  -22.0703    1.9413  -14.0073 C   0  0  0  0  0  0  0  0  0  0  0  0
  -23.1942    2.4830  -13.5121 F   0  0  0  0  0  0  0  0  0  0  0  0
  -20.8995    2.6949  -14.0299 C   0  0  0  0  0  0  0  0  0  0  0  0
  -20.9069    3.9515  -13.5552 F   0  0  0  0  0  0  0  0  0  0  0  0
  -13.0628   -0.7148  -14.4361 O   0  0  0  0  0  0  0  0  0  0  0  0
  -13.1044   -1.9616  -15.1322 C   0  0  0  0  0  0  0  0  0  0  0  0
  -11.9637   -2.9242  -14.7884 C   0  0  0  0  0  0  0  0  0  0  0  0
  -12.3918   -3.9452  -13.8612 N   0  0  0  0  0  0  0  0  0  0  0  0
  -12.4328   -3.7760  -12.4984 C   0  0  0  0  0  0  0  0  0  0  0  0
  -12.1435   -2.7174  -11.9438 O   0  0  0  0  0  0  0  0  0  0  0  0
  -12.5365   -4.8899  -14.2226 H   0  0  0  0  0  0  0  0  0  0  0  0
  -12.7713   -5.0325  -11.7142 C   0  0  0  0  0  0  0  0  0  0  0  0
  -13.7555   -5.9797  -12.4150 C   0  0  0  0  0  0  0  0  0  0  0  0
  -13.1734   -6.8459  -13.4772 N   0  0  0  0  0  0  0  0  0  0  0  0
  -12.6636   -8.1364  -12.9791 C   0  0  0  0  0  0  0  0  0  0  0  0
  -13.4977   -8.8161  -11.9020 C   0  0  0  0  0  0  0  0  0  0  0  0
  -14.1390   -6.9694  -14.5862 C   0  0  0  0  0  0  0  0  0  0  0  0
  -15.5802   -6.6267  -14.2237 C   0  0  0  0  0  0  0  0  0  0  0  0
 15 16  2  0  0  0
 16 11  1  0  0  0
 11 12  2  0  0  0
 11 13  1  0  0  0
 13  1  1  0  0  0
 13 14  1  0  0  0
  1  2  1  0  0  0
  1 10  2  0  0  0
  2  3  2  0  0  0
  3  4  1  0  0  0
  3  8  1  0  0  0
  4 17  1  0  0  0
  4  5  2  0  0  0
 17 19  1  0  0  0
 17 18  1  0  0  0
 19 20  1  0  0  0
 19 26  2  0  0  0
 20 21  2  0  0  0
 21 22  1  0  0  0
 22 23  1  0  0  0
 22 24  2  0  0  0
 24 25  1  0  0  0
 24 26  1  0  0  0
 26 27  1  0  0  0
  5  6  1  0  0  0
  6  7  2  0  0  0
  7  8  1  0  0  0
  8  9  2  0  0  0
  9 10  1  0  0  0
 10 28  1  0  0  0
 28 29  1  0  0  0
 29 30  1  0  0  0
 30 31  1  0  0  0
 31 32  1  0  0  0
 31 34  1  0  0  0
 32 33  2  0  0  0
 32 35  1  0  0  0
 35 36  1  0  0  0
 36 37  1  0  0  0
 37 38  1  0  0  0
 37 40  1  0  0  0
 38 39  1  0  0  0
 40 41  1  0  0  0
M  END
> <minimizedAffinity>
-7.36730

$$$$
