CHEMBL3911621


 38 42  0  0  0  0  0  0  0  0999 V2000
  -13.9120   -3.7859  -12.9641 N   0  0  0  0  0  0  0  0  0  0  0  0
  -13.9404   -2.3573  -13.3128 C   0  0  0  0  0  0  0  0  0  0  0  0
  -12.6902   -1.7998  -13.3911 C   0  0  0  0  0  0  0  0  0  0  0  0
  -12.4896   -0.5433  -13.8285 C   0  0  0  0  0  0  0  0  0  0  0  0
  -13.4816    0.3599  -13.9865 C   0  0  0  0  0  0  0  0  0  0  0  0
  -12.8308    1.4604  -13.8962 N   0  0  0  0  0  0  0  0  0  0  0  0
  -13.3559    2.5031  -14.4798 C   0  0  0  0  0  0  0  0  0  0  0  0
  -14.5725    2.5100  -15.1165 C   0  0  0  0  0  0  0  0  0  0  0  0
  -15.3947    1.3484  -14.9267 N   0  0  0  0  0  0  0  0  0  0  0  0
  -14.8042    0.1031  -14.2171 C   0  0  0  0  0  0  0  0  0  0  0  0
  -15.0318   -1.4124  -13.6966 C   0  0  0  0  0  0  0  0  0  0  0  0
  -14.5269    3.6718  -16.1294 C   0  0  0  0  0  0  0  0  0  0  0  0
  -15.5186    3.7765  -17.1980 C   0  0  0  0  0  0  0  0  0  0  0  0
  -15.1944    4.5535  -18.2175 N   0  0  0  0  0  0  0  0  0  0  0  0
  -14.0293    5.0756  -17.8480 N   0  0  0  0  0  0  0  0  0  0  0  0
  -13.4896    6.0473  -18.7793 C   0  0  0  0  0  0  0  0  0  0  0  0
  -13.5574    4.5540  -16.6269 C   0  0  0  0  0  0  0  0  0  0  0  0
  -13.5865   -6.1195  -15.9764 C   0  0  0  0  0  0  0  0  0  0  0  0
  -12.5291   -6.9128  -15.5724 C   0  0  0  0  0  0  0  0  0  0  0  0
  -11.8836   -6.6321  -14.3655 C   0  0  0  0  0  0  0  0  0  0  0  0
  -12.3490   -5.6144  -13.5110 C   0  0  0  0  0  0  0  0  0  0  0  0
  -13.4030   -4.7799  -13.8891 C   0  0  0  0  0  0  0  0  0  0  0  0
  -13.9562   -5.0305  -15.1726 C   0  0  0  0  0  0  0  0  0  0  0  0
  -13.9449   -5.6217  -18.2815 C   0  0  0  0  0  0  0  0  0  0  0  0
  -14.3463   -6.3150  -17.1018 O   0  0  0  0  0  0  0  0  0  0  0  0
  -10.7821   -7.3204  -13.9096 O   0  0  0  0  0  0  0  0  0  0  0  0
  -10.6977   -7.4597  -12.4932 C   0  0  0  0  0  0  0  0  0  0  0  0
  -15.2844   -4.2932  -12.2953 C   0  0  0  0  0  0  0  0  0  0  0  0
  -15.3230   -5.7423  -11.7353 C   0  0  0  0  0  0  0  0  0  0  0  0
  -14.2478   -5.9396  -10.6968 C   0  0  0  0  0  0  0  0  0  0  0  0
  -14.4869   -4.9956   -9.5188 C   0  0  0  0  0  0  0  0  0  0  0  0
  -14.7275   -3.5413   -9.9472 C   0  0  0  0  0  0  0  0  0  0  0  0
  -15.7341   -3.4388  -11.0728 C   0  0  0  0  0  0  0  0  0  0  0  0
  -13.3354   -5.1124   -8.6304 N   0  0  0  0  0  0  0  0  0  0  0  0
  -12.9846   -6.0702   -8.6774 H   0  0  0  0  0  0  0  0  0  0  0  0
  -12.2475   -4.1824   -8.9339 C   0  0  0  0  0  0  0  0  0  0  0  0
  -11.8853   -3.3112   -7.7315 C   0  0  0  0  0  0  0  0  0  0  0  0
  -11.0461   -5.0129   -9.3710 C   0  0  0  0  0  0  0  0  0  0  0  0
 24 25  1  0  0  0
 25 18  1  0  0  0
 18 19  1  0  0  0
 18 23  2  0  0  0
 19 20  2  0  0  0
 20 26  1  0  0  0
 20 21  1  0  0  0
 26 27  1  0  0  0
 21 22  2  0  0  0
 22  1  1  0  0  0
 22 23  1  0  0  0
  1  2  1  0  0  0
  2  3  1  0  0  0
  2 11  2  0  0  0
  3  4  2  0  0  0
  4  5  1  0  0  0
  5  6  1  0  0  0
  5 10  2  0  0  0
  6  7  2  0  0  0
  7  8  1  0  0  0
  8 12  1  0  0  0
  8  9  2  0  0  0
 12 13  1  0  0  0
 12 17  2  0  0  0
 13 14  2  0  0  0
 14 15  1  0  0  0
 15 16  1  0  0  0
 15 17  1  0  0  0
  9 10  1  0  0  0
 10 11  1  0  0  0
 28 29  1  0  0  0
 28 33  1  0  0  0
 28  1  1  0  0  0
 29 30  1  0  0  0
 30 31  1  0  0  0
 31 34  1  0  0  0
 31 32  1  0  0  0
 34 36  1  0  0  0
 34 35  1  0  0  0
 36 37  1  0  0  0
 36 38  1  0  0  0
 32 33  1  0  0  0
M  END
> <minimizedAffinity>
-6.71763

$$$$
