CHEMBL1242656


 27 30  0  0  0  0  0  0  0  0999 V2000
  -15.0116    3.0044  -16.1250 N   0  0  0  0  0  0  0  0  0  0  0  0
  -16.3519    2.9295  -16.2700 N   0  0  0  0  0  0  0  0  0  0  0  0
  -16.7599    2.1291  -15.2658 C   0  0  0  0  0  0  0  0  0  0  0  0
  -15.6411    1.6442  -14.5073 C   0  0  0  0  0  0  0  0  0  0  0  0
  -15.3798    0.7967  -13.4179 C   0  0  0  0  0  0  0  0  0  0  0  0
  -16.3212    0.0553  -12.7184 N   0  0  0  0  0  0  0  0  0  0  0  0
  -14.1049    0.6634  -12.9921 N   0  0  0  0  0  0  0  0  0  0  0  0
  -13.1323    1.3351  -13.6343 C   0  0  0  0  0  0  0  0  0  0  0  0
  -13.2545    2.1420  -14.6965 N   0  0  0  0  0  0  0  0  0  0  0  0
  -14.5390    2.2566  -15.0830 C   0  0  0  0  0  0  0  0  0  0  0  0
  -17.0801   -0.3097  -13.2795 H   0  0  0  0  0  0  0  0  0  0  0  0
  -15.8600   -0.6228  -12.1201 H   0  0  0  0  0  0  0  0  0  0  0  0
  -18.1955    1.8792  -15.0790 C   0  0  0  0  0  0  0  0  0  0  0  0
  -18.7419    0.6004  -15.2820 C   0  0  0  0  0  0  0  0  0  0  0  0
  -20.1122    0.3695  -15.1357 C   0  0  0  0  0  0  0  0  0  0  0  0
  -20.9326    1.4060  -14.7195 C   0  0  0  0  0  0  0  0  0  0  0  0
  -22.2451    1.1915  -14.5509 F   0  0  0  0  0  0  0  0  0  0  0  0
  -20.4024    2.6644  -14.4570 C   0  0  0  0  0  0  0  0  0  0  0  0
  -21.2004    3.6742  -13.9987 O   0  0  0  0  0  0  0  0  0  0  0  0
  -19.0458    2.9119  -14.6461 C   0  0  0  0  0  0  0  0  0  0  0  0
  -22.0867    3.2918  -13.8561 H   0  0  0  0  0  0  0  0  0  0  0  0
  -12.3365    4.9251  -19.3214 C   0  0  0  0  0  0  0  0  0  0  0  0
  -13.5770    4.0340  -19.3603 C   0  0  0  0  0  0  0  0  0  0  0  0
  -14.8675    4.8265  -19.1607 C   0  0  0  0  0  0  0  0  0  0  0  0
  -15.0024    4.9955  -17.6489 C   0  0  0  0  0  0  0  0  0  0  0  0
  -14.2207    3.8256  -17.0228 C   0  0  0  0  0  0  0  0  0  0  0  0
  -13.6200    3.0396  -18.2001 C   0  0  0  0  0  0  0  0  0  0  0  0
 22 23  1  0  0  0
 23 24  1  0  0  0
 23 27  1  0  0  0
 24 25  1  0  0  0
 25 26  1  0  0  0
 26  1  1  0  0  0
 26 27  1  0  0  0
  1  2  1  0  0  0
  1 10  1  0  0  0
  2  3  2  0  0  0
  3 13  1  0  0  0
  3  4  1  0  0  0
 13 14  1  0  0  0
 13 20  2  0  0  0
 14 15  2  0  0  0
 15 16  1  0  0  0
 16 17  1  0  0  0
 16 18  2  0  0  0
 18 19  1  0  0  0
 18 20  1  0  0  0
 19 21  1  0  0  0
  4  5  1  0  0  0
  4 10  2  0  0  0
  5  6  1  0  0  0
  5  7  2  0  0  0
  6 11  1  0  0  0
  6 12  1  0  0  0
  7  8  1  0  0  0
  8  9  2  0  0  0
  9 10  1  0  0  0
M  END
> <minimizedAffinity>
-8.03117

$$$$
