CHEMBL1934328


 41 45  0  0  0  0  0  0  0  0999 V2000
  -22.3358   -0.2841  -14.3618 N   0  0  0  0  0  0  0  0  0  0  0  0
  -21.6078   -0.9518  -14.5829 H   0  0  0  0  0  0  0  0  0  0  0  0
  -17.8688    2.0265  -15.3770 C   0  0  0  0  0  0  0  0  0  0  0  0
  -18.2312    0.6867  -15.4262 C   0  0  0  0  0  0  0  0  0  0  0  0
  -19.5378    0.3148  -15.1073 C   0  0  0  0  0  0  0  0  0  0  0  0
  -20.4890    1.2902  -14.7113 C   0  0  0  0  0  0  0  0  0  0  0  0
  -21.8116    1.0400  -14.3034 C   0  0  0  0  0  0  0  0  0  0  0  0
  -22.6159    2.0461  -13.8986 N   0  0  0  0  0  0  0  0  0  0  0  0
  -22.1460    3.2889  -13.9505 C   0  0  0  0  0  0  0  0  0  0  0  0
  -20.9276    3.6374  -14.3493 N   0  0  0  0  0  0  0  0  0  0  0  0
  -20.1160    2.6445  -14.7085 C   0  0  0  0  0  0  0  0  0  0  0  0
  -18.8318    2.9902  -15.0769 C   0  0  0  0  0  0  0  0  0  0  0  0
  -16.5470    2.3101  -15.6118 O   0  0  0  0  0  0  0  0  0  0  0  0
  -15.6961    1.1572  -15.5938 C   0  0  0  0  0  0  0  0  0  0  0  0
  -14.2687   -3.0628  -13.9992 C   0  0  0  0  0  0  0  0  0  0  0  0
  -14.1462   -1.6254  -13.7454 N   0  0  0  0  0  0  0  0  0  0  0  0
  -13.5115   -0.9638  -14.8937 C   0  0  0  0  0  0  0  0  0  0  0  0
  -13.3932    0.5468  -14.6818 C   0  0  0  0  0  0  0  0  0  0  0  0
  -14.7531    1.1926  -14.3842 C   0  0  0  0  0  0  0  0  0  0  0  0
  -15.3901    0.4636  -13.1924 C   0  0  0  0  0  0  0  0  0  0  0  0
  -15.4564   -1.0549  -13.4071 C   0  0  0  0  0  0  0  0  0  0  0  0
  -23.3392   -0.8310  -13.5282 C   0  0  0  0  0  0  0  0  0  0  0  0
  -23.0837   -1.1611  -12.1982 C   0  0  0  0  0  0  0  0  0  0  0  0
  -24.0574   -1.7321  -11.3857 C   0  0  0  0  0  0  0  0  0  0  0  0
  -25.3509   -1.9468  -11.8512 C   0  0  0  0  0  0  0  0  0  0  0  0
  -25.6527   -1.5393  -13.1576 C   0  0  0  0  0  0  0  0  0  0  0  0
  -24.6560   -0.9827  -13.9833 C   0  0  0  0  0  0  0  0  0  0  0  0
  -26.3495   -2.5751  -11.0698 N   0  0  0  0  0  0  0  0  0  0  0  0
  -26.8541   -2.0825   -9.8787 C   0  0  0  0  0  0  0  0  0  0  0  0
  -26.6005   -0.9856   -9.3946 O   0  0  0  0  0  0  0  0  0  0  0  0
  -27.6630   -3.0090   -9.2279 N   0  0  0  0  0  0  0  0  0  0  0  0
  -26.7827   -3.4036  -11.4487 H   0  0  0  0  0  0  0  0  0  0  0  0
  -27.3664   -3.9671   -9.3469 H   0  0  0  0  0  0  0  0  0  0  0  0
  -28.2265   -2.6732   -7.9712 C   0  0  0  0  0  0  0  0  0  0  0  0
  -27.7631   -1.5713   -7.2363 C   0  0  0  0  0  0  0  0  0  0  0  0
  -28.2447   -1.3147   -5.9522 C   0  0  0  0  0  0  0  0  0  0  0  0
  -29.1929   -2.1680   -5.4048 C   0  0  0  0  0  0  0  0  0  0  0  0
  -29.6328   -1.9487   -4.1584 F   0  0  0  0  0  0  0  0  0  0  0  0
  -29.6745   -3.2466   -6.1395 C   0  0  0  0  0  0  0  0  0  0  0  0
  -30.5691   -4.0829   -5.5947 F   0  0  0  0  0  0  0  0  0  0  0  0
  -29.2172   -3.4939   -7.4324 C   0  0  0  0  0  0  0  0  0  0  0  0
 15 16  1  0  0  0
 16 17  1  0  0  0
 16 21  1  0  0  0
 17 18  1  0  0  0
 18 19  1  0  0  0
 19 14  1  0  0  0
 19 20  1  0  0  0
 14 13  1  0  0  0
 13  3  1  0  0  0
  3  4  1  0  0  0
  3 12  2  0  0  0
  4  5  2  0  0  0
  5  6  1  0  0  0
  6  7  1  0  0  0
  6 11  2  0  0  0
  7  1  1  0  0  0
  7  8  2  0  0  0
  1 22  1  0  0  0
  1  2  1  0  0  0
 22 23  1  0  0  0
 22 27  2  0  0  0
 23 24  2  0  0  0
 24 25  1  0  0  0
 25 28  1  0  0  0
 25 26  2  0  0  0
 28 29  1  0  0  0
 28 32  1  0  0  0
 29 30  2  0  0  0
 29 31  1  0  0  0
 31 34  1  0  0  0
 31 33  1  0  0  0
 34 35  1  0  0  0
 34 41  2  0  0  0
 35 36  2  0  0  0
 36 37  1  0  0  0
 37 38  1  0  0  0
 37 39  2  0  0  0
 39 40  1  0  0  0
 39 41  1  0  0  0
 26 27  1  0  0  0
  8  9  1  0  0  0
  9 10  2  0  0  0
 10 11  1  0  0  0
 11 12  1  0  0  0
 20 21  1  0  0  0
M  END
> <minimizedAffinity>
-12.09232

$$$$
