CHEMBL3912569


 36 39  0  0  0  0  0  0  0  0999 V2000
  -15.8357    2.4225  -16.0028 N   0  0  0  0  0  0  0  0  0  0  0  0
  -17.2207    2.4821  -15.5729 C   0  0  0  0  0  0  0  0  0  0  0  0
  -17.9776    3.6078  -15.9168 C   0  0  0  0  0  0  0  0  0  0  0  0
  -19.2953    3.7811  -15.5576 C   0  0  0  0  0  0  0  0  0  0  0  0
  -19.9662    2.8532  -14.8207 C   0  0  0  0  0  0  0  0  0  0  0  0
  -21.1805    3.2975  -14.5279 N   0  0  0  0  0  0  0  0  0  0  0  0
  -22.0088    2.4190  -13.9921 C   0  0  0  0  0  0  0  0  0  0  0  0
  -21.6413    1.1079  -13.7644 C   0  0  0  0  0  0  0  0  0  0  0  0
  -20.3412    0.6688  -13.9878 N   0  0  0  0  0  0  0  0  0  0  0  0
  -19.4186    1.5870  -14.5355 C   0  0  0  0  0  0  0  0  0  0  0  0
  -17.9712    1.4765  -14.8641 C   0  0  0  0  0  0  0  0  0  0  0  0
  -22.7732    0.2367  -13.4295 C   0  0  0  0  0  0  0  0  0  0  0  0
  -22.8833   -0.7644  -12.4264 C   0  0  0  0  0  0  0  0  0  0  0  0
  -23.9065   -1.6080  -12.6314 N   0  0  0  0  0  0  0  0  0  0  0  0
  -24.4459   -1.1718  -13.7816 N   0  0  0  0  0  0  0  0  0  0  0  0
  -25.7114   -1.6861  -14.2523 C   0  0  0  0  0  0  0  0  0  0  0  0
  -23.7141   -0.1765  -14.3662 C   0  0  0  0  0  0  0  0  0  0  0  0
  -14.9550    3.4684  -16.4682 C   0  0  0  0  0  0  0  0  0  0  0  0
  -13.9974    4.0777  -15.6049 C   0  0  0  0  0  0  0  0  0  0  0  0
  -13.2215    5.1852  -15.9380 C   0  0  0  0  0  0  0  0  0  0  0  0
  -13.2722    5.6540  -17.2333 C   0  0  0  0  0  0  0  0  0  0  0  0
  -14.0613    4.9849  -18.1776 C   0  0  0  0  0  0  0  0  0  0  0  0
  -14.9319    3.9341  -17.7866 C   0  0  0  0  0  0  0  0  0  0  0  0
  -12.3698    5.8369  -15.0749 O   0  0  0  0  0  0  0  0  0  0  0  0
  -12.0073    7.1719  -15.3703 C   0  0  0  0  0  0  0  0  0  0  0  0
  -14.0563    5.2985  -19.5133 O   0  0  0  0  0  0  0  0  0  0  0  0
  -14.2426    6.6810  -19.8000 C   0  0  0  0  0  0  0  0  0  0  0  0
  -15.3653    1.0440  -16.4262 C   0  0  0  0  0  0  0  0  0  0  0  0
  -14.4844    0.2793  -15.4071 C   0  0  0  0  0  0  0  0  0  0  0  0
  -15.1693   -0.8002  -14.6591 N   0  0  0  0  0  0  0  0  0  0  0  0
  -16.1693   -0.8378  -14.8513 H   0  0  0  0  0  0  0  0  0  0  0  0
  -14.7752   -0.9318  -13.0304 S   0  0  0  0  0  0  0  0  0  0  0  0
  -15.4740    0.1329  -12.3434 O   0  0  0  0  0  0  0  0  0  0  0  0
  -13.3432   -1.1022  -12.9133 O   0  0  0  0  0  0  0  0  0  0  0  0
  -15.7697   -2.5338  -11.1100 C   0  0  0  0  0  0  0  0  0  0  0  0
  -15.5414   -2.4771  -12.6045 C   0  0  0  0  0  0  0  0  0  0  0  0
 35 36  1  0  0  0
 36 32  1  0  0  0
 32 33  2  0  0  0
 32 34  2  0  0  0
 32 30  1  0  0  0
 30 29  1  0  0  0
 30 31  1  0  0  0
 29 28  1  0  0  0
 28  1  1  0  0  0
  1 18  1  0  0  0
  1  2  1  0  0  0
 18 19  1  0  0  0
 18 23  2  0  0  0
 19 20  2  0  0  0
 20 24  1  0  0  0
 20 21  1  0  0  0
 24 25  1  0  0  0
 21 22  2  0  0  0
 22 26  1  0  0  0
 22 23  1  0  0  0
 26 27  1  0  0  0
  2  3  1  0  0  0
  2 11  2  0  0  0
  3  4  2  0  0  0
  4  5  1  0  0  0
  5  6  1  0  0  0
  5 10  2  0  0  0
  6  7  2  0  0  0
  7  8  1  0  0  0
  8 12  1  0  0  0
  8  9  2  0  0  0
 12 13  1  0  0  0
 12 17  2  0  0  0
 13 14  2  0  0  0
 14 15  1  0  0  0
 15 16  1  0  0  0
 15 17  1  0  0  0
  9 10  1  0  0  0
 10 11  1  0  0  0
M  END
> <minimizedAffinity>
-8.13346

$$$$
