CHEMBL1242288


 28 31  0  0  0  0  0  0  0  0999 V2000
  -29.5648   -7.8489   -7.8424 C   0  0  0  0  0  0  0  0  0  0  0  0
  -28.6797   -8.3155   -8.7433 N   0  0  0  0  0  0  0  0  0  0  0  0
  -29.1903   -9.4969   -9.1457 N   0  0  0  0  0  0  0  0  0  0  0  0
  -30.4049   -9.7778   -8.5813 C   0  0  0  0  0  0  0  0  0  0  0  0
  -31.1537  -10.8730   -8.7973 N   0  0  0  0  0  0  0  0  0  0  0  0
  -32.2814  -10.8460   -8.0714 C   0  0  0  0  0  0  0  0  0  0  0  0
  -32.7027   -9.8787   -7.2358 N   0  0  0  0  0  0  0  0  0  0  0  0
  -31.9262   -8.7892   -7.0593 C   0  0  0  0  0  0  0  0  0  0  0  0
  -32.4355   -7.8173   -6.2089 N   0  0  0  0  0  0  0  0  0  0  0  0
  -30.6996   -8.7163   -7.7394 C   0  0  0  0  0  0  0  0  0  0  0  0
  -33.4133   -8.0032   -6.0129 H   0  0  0  0  0  0  0  0  0  0  0  0
  -32.2224   -6.8664   -6.4798 H   0  0  0  0  0  0  0  0  0  0  0  0
  -28.7177   -4.2296   -5.6881 C   0  0  0  0  0  0  0  0  0  0  0  0
  -29.3861   -4.1871   -6.9112 C   0  0  0  0  0  0  0  0  0  0  0  0
  -29.6805   -5.3693   -7.5985 C   0  0  0  0  0  0  0  0  0  0  0  0
  -29.2628   -6.6127   -7.1131 C   0  0  0  0  0  0  0  0  0  0  0  0
  -28.5973   -6.6597   -5.8806 C   0  0  0  0  0  0  0  0  0  0  0  0
  -28.3374   -5.4806   -5.1751 C   0  0  0  0  0  0  0  0  0  0  0  0
  -27.7116   -5.5394   -3.9586 O   0  0  0  0  0  0  0  0  0  0  0  0
  -27.6179   -6.4695   -3.6990 H   0  0  0  0  0  0  0  0  0  0  0  0
  -27.6078   -2.1293   -5.5383 C   0  0  0  0  0  0  0  0  0  0  0  0
  -28.4094   -3.1316   -4.9294 O   0  0  0  0  0  0  0  0  0  0  0  0
  -28.4510  -10.3713  -10.0428 C   0  0  0  0  0  0  0  0  0  0  0  0
  -26.9547  -10.0843  -10.1230 C   0  0  0  0  0  0  0  0  0  0  0  0
  -26.8325   -9.1808  -11.3347 C   0  0  0  0  0  0  0  0  0  0  0  0
  -27.8077   -9.7062  -12.2977 N   0  0  0  0  0  0  0  0  0  0  0  0
  -28.9223  -10.2523  -11.4957 C   0  0  0  0  0  0  0  0  0  0  0  0
  -27.3753  -10.4606  -12.8313 H   0  0  0  0  0  0  0  0  0  0  0  0
 21 22  1  0  0  0
 22 13  1  0  0  0
 13 14  1  0  0  0
 13 18  2  0  0  0
 14 15  2  0  0  0
 15 16  1  0  0  0
 16  1  1  0  0  0
 16 17  2  0  0  0
  1  2  2  0  0  0
  1 10  1  0  0  0
  2  3  1  0  0  0
  3 23  1  0  0  0
  3  4  1  0  0  0
 23 24  1  0  0  0
 23 27  1  0  0  0
 24 25  1  0  0  0
 25 26  1  0  0  0
 26 27  1  0  0  0
 26 28  1  0  0  0
  4  5  1  0  0  0
  4 10  2  0  0  0
  5  6  2  0  0  0
  6  7  1  0  0  0
  7  8  2  0  0  0
  8  9  1  0  0  0
  8 10  1  0  0  0
  9 11  1  0  0  0
  9 12  1  0  0  0
 17 18  1  0  0  0
 18 19  1  0  0  0
 19 20  1  0  0  0
M  END
> <minimizedAffinity>
-7.91380

$$$$
