CHEMBL1999414


 43 46  0  0  0  0  0  0  0  0999 V2000
  -12.7295    7.3826  -17.7948 C   0  0  0  0  0  0  0  0  0  0  0  0
  -12.0470    7.5085  -16.6029 C   0  0  0  0  0  0  0  0  0  0  0  0
  -12.0643    6.5902  -15.6271 N   0  0  0  0  0  0  0  0  0  0  0  0
  -12.7939    5.4722  -15.7558 C   0  0  0  0  0  0  0  0  0  0  0  0
  -12.6792    4.6218  -14.6664 N   0  0  0  0  0  0  0  0  0  0  0  0
  -13.5805    5.2411  -16.9262 C   0  0  0  0  0  0  0  0  0  0  0  0
  -14.5046    4.1547  -17.3095 C   0  0  0  0  0  0  0  0  0  0  0  0
  -15.0485    4.3652  -18.5590 C   0  0  0  0  0  0  0  0  0  0  0  0
  -14.5102    5.7856  -19.2882 S   0  0  0  0  0  0  0  0  0  0  0  0
  -13.5160    6.2189  -17.9442 C   0  0  0  0  0  0  0  0  0  0  0  0
  -11.9413    4.9448  -14.0506 H   0  0  0  0  0  0  0  0  0  0  0  0
  -12.6778    3.6347  -14.8820 H   0  0  0  0  0  0  0  0  0  0  0  0
  -14.9343    2.9774  -16.5430 C   0  0  0  0  0  0  0  0  0  0  0  0
  -14.0875    1.8814  -16.4215 C   0  0  0  0  0  0  0  0  0  0  0  0
  -14.5108    0.7144  -15.7921 C   0  0  0  0  0  0  0  0  0  0  0  0
  -15.7379    0.6543  -15.1337 C   0  0  0  0  0  0  0  0  0  0  0  0
  -16.5756    1.7691  -15.1847 C   0  0  0  0  0  0  0  0  0  0  0  0
  -16.1813    2.9166  -15.8956 C   0  0  0  0  0  0  0  0  0  0  0  0
  -16.1497   -0.4955  -14.4239 N   0  0  0  0  0  0  0  0  0  0  0  0
  -15.4097   -1.0750  -13.4063 C   0  0  0  0  0  0  0  0  0  0  0  0
  -14.3946   -0.5909  -12.9176 O   0  0  0  0  0  0  0  0  0  0  0  0
  -15.9368   -2.2948  -13.0139 N   0  0  0  0  0  0  0  0  0  0  0  0
  -17.1280   -0.7421  -14.4538 H   0  0  0  0  0  0  0  0  0  0  0  0
  -16.3321   -2.8392  -13.7666 H   0  0  0  0  0  0  0  0  0  0  0  0
  -15.3499   -3.0162  -11.9483 C   0  0  0  0  0  0  0  0  0  0  0  0
  -15.6803   -2.7454  -10.6160 C   0  0  0  0  0  0  0  0  0  0  0  0
  -15.0462   -3.4243   -9.5784 C   0  0  0  0  0  0  0  0  0  0  0  0
  -14.0625   -4.3675   -9.8672 C   0  0  0  0  0  0  0  0  0  0  0  0
  -13.7193   -4.6470  -11.1958 C   0  0  0  0  0  0  0  0  0  0  0  0
  -12.6010   -5.5939  -11.5131 C   0  0  0  0  0  0  0  0  0  0  0  0
  -14.3939   -3.9909  -12.2370 C   0  0  0  0  0  0  0  0  0  0  0  0
  -13.5675    9.4369  -18.8052 N   0  0  0  0  0  0  0  0  0  0  0  0
  -12.5824    8.4755  -18.7767 C   0  0  0  0  0  0  0  0  0  0  0  0
  -11.6359    8.4721  -19.5509 O   0  0  0  0  0  0  0  0  0  0  0  0
  -14.3771    9.3518  -18.2001 H   0  0  0  0  0  0  0  0  0  0  0  0
  -13.5552   10.5350  -19.7437 C   0  0  0  0  0  0  0  0  0  0  0  0
  -14.7521   10.5104  -20.6902 C   0  0  0  0  0  0  0  0  0  0  0  0
  -16.0185   11.1685  -20.1209 C   0  0  0  0  0  0  0  0  0  0  0  0
  -17.2903   10.4977  -20.4582 N   0  0  0  0  0  0  0  0  0  0  0  0
  -19.5637   11.1984  -19.6127 C   0  0  0  0  0  0  0  0  0  0  0  0
  -18.4035   11.4560  -20.5695 C   0  0  0  0  0  0  0  0  0  0  0  0
  -17.1366    9.6212  -21.6342 C   0  0  0  0  0  0  0  0  0  0  0  0
  -18.1802    8.5191  -21.8028 C   0  0  0  0  0  0  0  0  0  0  0  0
 40 41  1  0  0  0
 41 39  1  0  0  0
 39 42  1  0  0  0
 39 38  1  0  0  0
 42 43  1  0  0  0
 38 37  1  0  0  0
 37 36  1  0  0  0
 36 32  1  0  0  0
 32 33  1  0  0  0
 32 35  1  0  0  0
 33 34  2  0  0  0
 33  1  1  0  0  0
  1  2  1  0  0  0
  1 10  2  0  0  0
  2  3  2  0  0  0
  3  4  1  0  0  0
  4  5  1  0  0  0
  4  6  2  0  0  0
  5 11  1  0  0  0
  5 12  1  0  0  0
  6  7  1  0  0  0
  6 10  1  0  0  0
  7 13  1  0  0  0
  7  8  2  0  0  0
 13 14  1  0  0  0
 13 18  2  0  0  0
 14 15  2  0  0  0
 15 16  1  0  0  0
 16 19  1  0  0  0
 16 17  2  0  0  0
 19 20  1  0  0  0
 19 23  1  0  0  0
 20 21  2  0  0  0
 20 22  1  0  0  0
 22 25  1  0  0  0
 22 24  1  0  0  0
 25 26  1  0  0  0
 25 31  2  0  0  0
 26 27  2  0  0  0
 27 28  1  0  0  0
 28 29  2  0  0  0
 29 30  1  0  0  0
 29 31  1  0  0  0
 17 18  1  0  0  0
  8  9  1  0  0  0
  9 10  1  0  0  0
M  END
> <minimizedAffinity>
-6.84600

$$$$
