CHEMBL3895267


 33 36  0  0  0  0  0  0  0  0999 V2000
  -17.1703    2.0974  -15.4866 N   0  0  0  0  0  0  0  0  0  0  0  0
  -18.5985    1.9148  -15.4813 C   0  0  0  0  0  0  0  0  0  0  0  0
  -19.3262    3.0722  -15.7631 C   0  0  0  0  0  0  0  0  0  0  0  0
  -20.5599    3.2571  -15.1922 C   0  0  0  0  0  0  0  0  0  0  0  0
  -21.1929    2.2341  -14.5405 C   0  0  0  0  0  0  0  0  0  0  0  0
  -22.2796    2.6162  -13.8727 N   0  0  0  0  0  0  0  0  0  0  0  0
  -23.0861    1.6432  -13.4478 C   0  0  0  0  0  0  0  0  0  0  0  0
  -22.8542    0.3317  -13.7647 C   0  0  0  0  0  0  0  0  0  0  0  0
  -21.6471   -0.0853  -14.2974 N   0  0  0  0  0  0  0  0  0  0  0  0
  -20.7320    0.9043  -14.6426 C   0  0  0  0  0  0  0  0  0  0  0  0
  -19.3462    0.7926  -15.0558 C   0  0  0  0  0  0  0  0  0  0  0  0
  -24.0315   -0.5352  -13.7379 C   0  0  0  0  0  0  0  0  0  0  0  0
  -24.7862   -1.0615  -14.8199 C   0  0  0  0  0  0  0  0  0  0  0  0
  -25.9646   -1.5690  -14.4350 N   0  0  0  0  0  0  0  0  0  0  0  0
  -25.9761   -1.3592  -13.1082 N   0  0  0  0  0  0  0  0  0  0  0  0
  -26.9775   -1.9803  -12.2736 C   0  0  0  0  0  0  0  0  0  0  0  0
  -24.9174   -0.6097  -12.6762 C   0  0  0  0  0  0  0  0  0  0  0  0
  -15.3697   -0.2576  -13.1908 C   0  0  0  0  0  0  0  0  0  0  0  0
  -14.2678   -0.6045  -13.9768 C   0  0  0  0  0  0  0  0  0  0  0  0
  -14.0733    0.0048  -15.2100 C   0  0  0  0  0  0  0  0  0  0  0  0
  -14.9775    0.9741  -15.6493 C   0  0  0  0  0  0  0  0  0  0  0  0
  -16.1130    1.3396  -14.9051 C   0  0  0  0  0  0  0  0  0  0  0  0
  -16.2864    0.7091  -13.6573 C   0  0  0  0  0  0  0  0  0  0  0  0
  -15.6225   -2.2689  -11.9308 C   0  0  0  0  0  0  0  0  0  0  0  0
  -15.6610   -0.8405  -11.9800 O   0  0  0  0  0  0  0  0  0  0  0  0
  -13.0727   -0.2802  -16.0991 O   0  0  0  0  0  0  0  0  0  0  0  0
  -13.4557   -0.5075  -17.4490 C   0  0  0  0  0  0  0  0  0  0  0  0
  -16.8747    3.5774  -15.5433 C   0  0  0  0  0  0  0  0  0  0  0  0
  -16.1315    3.9929  -16.7502 C   0  0  0  0  0  0  0  0  0  0  0  0
  -15.5455    4.3172  -17.7479 C   0  0  0  0  0  0  0  0  0  0  0  0
  -14.8174    4.7556  -18.9378 C   0  0  0  0  0  0  0  0  0  0  0  0
  -15.7432    5.0769  -19.9658 O   0  0  0  0  0  0  0  0  0  0  0  0
  -16.4041    4.3618  -19.9711 H   0  0  0  0  0  0  0  0  0  0  0  0
 24 25  1  0  0  0
 25 18  1  0  0  0
 18 19  1  0  0  0
 18 23  2  0  0  0
 19 20  2  0  0  0
 20 26  1  0  0  0
 20 21  1  0  0  0
 26 27  1  0  0  0
 21 22  2  0  0  0
 22  1  1  0  0  0
 22 23  1  0  0  0
  1 28  1  0  0  0
  1  2  1  0  0  0
 28 29  1  0  0  0
 29 30  3  0  0  0
 30 31  1  0  0  0
 31 32  1  0  0  0
 32 33  1  0  0  0
  2  3  1  0  0  0
  2 11  2  0  0  0
  3  4  2  0  0  0
  4  5  1  0  0  0
  5  6  1  0  0  0
  5 10  2  0  0  0
  6  7  2  0  0  0
  7  8  1  0  0  0
  8 12  1  0  0  0
  8  9  2  0  0  0
 12 13  1  0  0  0
 12 17  2  0  0  0
 13 14  2  0  0  0
 14 15  1  0  0  0
 15 16  1  0  0  0
 15 17  1  0  0  0
  9 10  1  0  0  0
 10 11  1  0  0  0
M  END
> <minimizedAffinity>
-8.91569

$$$$
