CHEMBL3780637


 32 36  0  0  0  0  0  0  0  0999 V2000
  -17.9380    2.0371  -15.3916 C   0  0  0  0  0  0  0  0  0  0  0  0
  -17.0318    0.9981  -15.2204 C   0  0  0  0  0  0  0  0  0  0  0  0
  -15.7499    1.0515  -15.6509 N   0  0  0  0  0  0  0  0  0  0  0  0
  -15.3578    2.2173  -16.2330 C   0  0  0  0  0  0  0  0  0  0  0  0
  -14.0515    2.4224  -16.6984 C   0  0  0  0  0  0  0  0  0  0  0  0
  -13.6318    3.6002  -17.2259 N   0  0  0  0  0  0  0  0  0  0  0  0
  -14.5204    4.6004  -17.3267 C   0  0  0  0  0  0  0  0  0  0  0  0
  -15.8338    4.4786  -16.9377 C   0  0  0  0  0  0  0  0  0  0  0  0
  -16.2585    3.2895  -16.3827 C   0  0  0  0  0  0  0  0  0  0  0  0
  -17.5378    3.1959  -15.9758 N   0  0  0  0  0  0  0  0  0  0  0  0
  -22.0494    1.9174  -14.1083 C   0  0  0  0  0  0  0  0  0  0  0  0
  -21.3594    3.1257  -14.1615 C   0  0  0  0  0  0  0  0  0  0  0  0
  -20.0261    3.1519  -14.5825 C   0  0  0  0  0  0  0  0  0  0  0  0
  -19.3437    1.9798  -14.9618 C   0  0  0  0  0  0  0  0  0  0  0  0
  -20.0627    0.7779  -14.9238 C   0  0  0  0  0  0  0  0  0  0  0  0
  -21.3985    0.7490  -14.5002 C   0  0  0  0  0  0  0  0  0  0  0  0
  -23.6060    0.6240  -12.8719 C   0  0  0  0  0  0  0  0  0  0  0  0
  -23.3424    1.7483  -13.7021 O   0  0  0  0  0  0  0  0  0  0  0  0
  -13.1465    1.3398  -16.5826 N   0  0  0  0  0  0  0  0  0  0  0  0
  -12.2753    1.6249  -16.1445 H   0  0  0  0  0  0  0  0  0  0  0  0
  -13.1397    0.0882  -17.2103 C   0  0  0  0  0  0  0  0  0  0  0  0
  -13.6268   -0.1163  -18.4995 C   0  0  0  0  0  0  0  0  0  0  0  0
  -13.6041   -1.3810  -19.0944 C   0  0  0  0  0  0  0  0  0  0  0  0
  -13.1329   -2.5027  -18.4105 C   0  0  0  0  0  0  0  0  0  0  0  0
  -12.6844   -2.2960  -17.0949 C   0  0  0  0  0  0  0  0  0  0  0  0
  -12.6911   -1.0282  -16.5011 C   0  0  0  0  0  0  0  0  0  0  0  0
  -13.0871   -3.7563  -18.9819 N   0  0  0  0  0  0  0  0  0  0  0  0
  -13.8035   -4.0992  -20.2176 C   0  0  0  0  0  0  0  0  0  0  0  0
  -14.8644   -5.1763  -19.9547 C   0  0  0  0  0  0  0  0  0  0  0  0
  -14.3034   -6.3223  -19.2917 O   0  0  0  0  0  0  0  0  0  0  0  0
  -13.7415   -5.9315  -18.0279 C   0  0  0  0  0  0  0  0  0  0  0  0
  -12.6103   -4.9048  -18.1997 C   0  0  0  0  0  0  0  0  0  0  0  0
 17 18  1  0  0  0
 18 11  1  0  0  0
 11 12  1  0  0  0
 11 16  2  0  0  0
 12 13  2  0  0  0
 13 14  1  0  0  0
 14  1  1  0  0  0
 14 15  2  0  0  0
  1  2  1  0  0  0
  1 10  2  0  0  0
  2  3  2  0  0  0
  3  4  1  0  0  0
  4  5  1  0  0  0
  4  9  2  0  0  0
  5 19  1  0  0  0
  5  6  2  0  0  0
 19 21  1  0  0  0
 19 20  1  0  0  0
 21 22  1  0  0  0
 21 26  2  0  0  0
 22 23  2  0  0  0
 23 24  1  0  0  0
 24 27  1  0  0  0
 24 25  2  0  0  0
 27 28  1  0  0  0
 27 32  1  0  0  0
 28 29  1  0  0  0
 29 30  1  0  0  0
 30 31  1  0  0  0
 31 32  1  0  0  0
 25 26  1  0  0  0
  6  7  1  0  0  0
  7  8  2  0  0  0
  8  9  1  0  0  0
  9 10  1  0  0  0
 15 16  1  0  0  0
M  END
> <minimizedAffinity>
-8.32199

$$$$
