CHEMBL3890520


 48 52  0  0  0  0  0  0  0  0999 V2000
  -27.9331   -2.0133   -8.8274 C   0  0  0  0  0  0  0  0  0  0  0  0
  -27.5716   -1.2133   -7.7617 C   0  0  0  0  0  0  0  0  0  0  0  0
  -28.0657   -1.6893   -6.5170 C   0  0  0  0  0  0  0  0  0  0  0  0
  -27.8699   -1.0829   -5.3164 N   0  0  0  0  0  0  0  0  0  0  0  0
  -28.4514   -1.6746   -4.2587 C   0  0  0  0  0  0  0  0  0  0  0  0
  -29.1889   -2.8392   -4.3056 C   0  0  0  0  0  0  0  0  0  0  0  0
  -29.3165   -3.5006   -5.5252 C   0  0  0  0  0  0  0  0  0  0  0  0
  -28.7815   -2.8748   -6.6605 C   0  0  0  0  0  0  0  0  0  0  0  0
  -28.8582   -3.3539   -8.3097 S   0  0  0  0  0  0  0  0  0  0  0  0
  -26.4078   -2.3414  -10.6562 N   0  0  0  0  0  0  0  0  0  0  0  0
  -27.5960   -1.7855  -10.2231 C   0  0  0  0  0  0  0  0  0  0  0  0
  -28.3213   -1.1467  -10.9794 O   0  0  0  0  0  0  0  0  0  0  0  0
  -25.7896   -2.7354   -9.9582 H   0  0  0  0  0  0  0  0  0  0  0  0
  -25.9149   -2.1148  -12.0004 C   0  0  0  0  0  0  0  0  0  0  0  0
  -25.4123   -0.6737  -12.1853 C   0  0  0  0  0  0  0  0  0  0  0  0
  -21.3667    1.0119  -14.5794 C   0  0  0  0  0  0  0  0  0  0  0  0
  -20.5420    0.2657  -15.0924 O   0  0  0  0  0  0  0  0  0  0  0  0
  -22.5397    0.5833  -13.9968 N   0  0  0  0  0  0  0  0  0  0  0  0
  -23.4483    1.4664  -13.2620 C   0  0  0  0  0  0  0  0  0  0  0  0
  -23.6181    0.9812  -11.8091 C   0  0  0  0  0  0  0  0  0  0  0  0
  -24.0437   -0.4351  -11.6888 N   0  0  0  0  0  0  0  0  0  0  0  0
  -23.0639   -1.2741  -12.4275 C   0  0  0  0  0  0  0  0  0  0  0  0
  -22.8193   -0.8470  -13.8934 C   0  0  0  0  0  0  0  0  0  0  0  0
  -21.1960    2.3538  -14.4513 O   0  0  0  0  0  0  0  0  0  0  0  0
  -19.1055    3.3870  -14.9535 C   0  0  0  0  0  0  0  0  0  0  0  0
  -20.4623    2.9854  -15.5057 C   0  0  0  0  0  0  0  0  0  0  0  0
  -29.9992   -4.6851   -5.6743 O   0  0  0  0  0  0  0  0  0  0  0  0
  -29.3445   -5.8709   -5.4546 C   0  0  0  0  0  0  0  0  0  0  0  0
  -29.2218   -6.2341   -4.1151 C   0  0  0  0  0  0  0  0  0  0  0  0
  -28.5778   -7.4204   -3.7671 C   0  0  0  0  0  0  0  0  0  0  0  0
  -28.0675   -8.2728   -4.7544 C   0  0  0  0  0  0  0  0  0  0  0  0
  -28.1975   -7.8958   -6.0898 C   0  0  0  0  0  0  0  0  0  0  0  0
  -27.7027   -8.6862   -7.0570 F   0  0  0  0  0  0  0  0  0  0  0  0
  -28.8605   -6.7241   -6.4490 C   0  0  0  0  0  0  0  0  0  0  0  0
  -27.4320   -9.5026   -4.4469 N   0  0  0  0  0  0  0  0  0  0  0  0
  -26.0785   -9.5908   -4.2121 C   0  0  0  0  0  0  0  0  0  0  0  0
  -25.3350   -8.6148   -4.1246 O   0  0  0  0  0  0  0  0  0  0  0  0
  -25.6339  -10.8989   -4.1094 N   0  0  0  0  0  0  0  0  0  0  0  0
  -28.0078  -10.2228   -4.0400 H   0  0  0  0  0  0  0  0  0  0  0  0
  -26.0817  -11.5281   -4.7657 H   0  0  0  0  0  0  0  0  0  0  0  0
  -24.2371  -11.0986   -3.9487 C   0  0  0  0  0  0  0  0  0  0  0  0
  -23.3903  -11.1423   -5.0630 C   0  0  0  0  0  0  0  0  0  0  0  0
  -22.0696  -11.5854   -4.9379 C   0  0  0  0  0  0  0  0  0  0  0  0
  -21.2051  -11.7320   -6.1555 C   0  0  0  0  0  0  0  0  0  0  0  0
  -21.5990  -11.9675   -3.6752 C   0  0  0  0  0  0  0  0  0  0  0  0
  -22.4204  -11.8559   -2.5488 C   0  0  0  0  0  0  0  0  0  0  0  0
  -23.7275  -11.4013   -2.6887 C   0  0  0  0  0  0  0  0  0  0  0  0
  -24.5313  -11.3605   -1.6147 F   0  0  0  0  0  0  0  0  0  0  0  0
 25 26  1  0  0  0
 26 24  1  0  0  0
 24 16  1  0  0  0
 16 17  2  0  0  0
 16 18  1  0  0  0
 18 19  1  0  0  0
 18 23  1  0  0  0
 19 20  1  0  0  0
 20 21  1  0  0  0
 21 15  1  0  0  0
 21 22  1  0  0  0
 15 14  1  0  0  0
 14 10  1  0  0  0
 10 11  1  0  0  0
 10 13  1  0  0  0
 11 12  2  0  0  0
 11  1  1  0  0  0
  1  2  2  0  0  0
  1  9  1  0  0  0
  2  3  1  0  0  0
  3  4  1  0  0  0
  3  8  2  0  0  0
  4  5  2  0  0  0
  5  6  1  0  0  0
  6  7  2  0  0  0
  7 27  1  0  0  0
  7  8  1  0  0  0
 27 28  1  0  0  0
 28 29  1  0  0  0
 28 34  2  0  0  0
 29 30  2  0  0  0
 30 31  1  0  0  0
 31 35  1  0  0  0
 31 32  2  0  0  0
 35 36  1  0  0  0
 35 39  1  0  0  0
 36 37  2  0  0  0
 36 38  1  0  0  0
 38 41  1  0  0  0
 38 40  1  0  0  0
 41 42  1  0  0  0
 41 47  2  0  0  0
 42 43  2  0  0  0
 43 44  1  0  0  0
 43 45  1  0  0  0
 45 46  2  0  0  0
 46 47  1  0  0  0
 47 48  1  0  0  0
 32 33  1  0  0  0
 32 34  1  0  0  0
  8  9  1  0  0  0
 22 23  1  0  0  0
M  END
> <minimizedAffinity>
-10.31865

$$$$
