CHEMBL2031904


 47 51  0  0  0  0  0  0  0  0999 V2000
  -27.2780   -8.8969   -8.6820 N   0  0  0  0  0  0  0  0  0  0  0  0
  -26.5859  -10.0733   -8.5593 C   0  0  0  0  0  0  0  0  0  0  0  0
  -26.2186  -10.6247   -9.6012 O   0  0  0  0  0  0  0  0  0  0  0  0
  -27.4046   -8.6211   -9.6502 H   0  0  0  0  0  0  0  0  0  0  0  0
  -29.9963   -7.0456   -6.0677 C   0  0  0  0  0  0  0  0  0  0  0  0
  -28.7181   -7.3859   -5.6081 C   0  0  0  0  0  0  0  0  0  0  0  0
  -27.7876   -7.9727   -6.4797 C   0  0  0  0  0  0  0  0  0  0  0  0
  -28.1728   -8.3160   -7.7758 C   0  0  0  0  0  0  0  0  0  0  0  0
  -29.4928   -8.1306   -8.1834 C   0  0  0  0  0  0  0  0  0  0  0  0
  -30.3747   -7.4488   -7.3510 C   0  0  0  0  0  0  0  0  0  0  0  0
  -31.5936   -7.1418   -7.8211 F   0  0  0  0  0  0  0  0  0  0  0  0
  -30.9412   -6.3172   -5.3766 O   0  0  0  0  0  0  0  0  0  0  0  0
  -28.5300   -1.9281   -6.7115 C   0  0  0  0  0  0  0  0  0  0  0  0
  -28.7292   -3.1069   -7.4091 C   0  0  0  0  0  0  0  0  0  0  0  0
  -29.5012   -4.1194   -6.8519 C   0  0  0  0  0  0  0  0  0  0  0  0
  -29.9885   -4.0271   -5.5326 C   0  0  0  0  0  0  0  0  0  0  0  0
  -30.6605   -5.0712   -4.8560 C   0  0  0  0  0  0  0  0  0  0  0  0
  -31.1871   -4.8492   -3.5876 C   0  0  0  0  0  0  0  0  0  0  0  0
  -30.9674   -3.6218   -3.0008 C   0  0  0  0  0  0  0  0  0  0  0  0
  -30.2642   -2.6278   -3.5821 N   0  0  0  0  0  0  0  0  0  0  0  0
  -29.7827   -2.8243   -4.8218 C   0  0  0  0  0  0  0  0  0  0  0  0
  -29.0563   -1.8017   -5.4252 C   0  0  0  0  0  0  0  0  0  0  0  0
  -28.2110    0.4030   -6.6597 C   0  0  0  0  0  0  0  0  0  0  0  0
  -27.8256   -0.8615   -7.1999 O   0  0  0  0  0  0  0  0  0  0  0  0
  -26.1987  -10.6324   -7.2439 C   0  0  0  0  0  0  0  0  0  0  0  0
  -26.9205  -11.4800   -6.4628 C   0  0  0  0  0  0  0  0  0  0  0  0
  -26.1672  -11.9415   -5.3652 N   0  0  0  0  0  0  0  0  0  0  0  0
  -26.6888  -12.4557   -4.1088 C   0  0  0  0  0  0  0  0  0  0  0  0
  -25.0184  -11.1597   -5.3236 N   0  0  0  0  0  0  0  0  0  0  0  0
  -24.8891  -10.5126   -6.5470 C   0  0  0  0  0  0  0  0  0  0  0  0
  -23.8684  -10.0046   -6.9837 O   0  0  0  0  0  0  0  0  0  0  0  0
  -23.9494  -11.3363   -4.4334 C   0  0  0  0  0  0  0  0  0  0  0  0
  -22.9369  -12.2088   -4.8374 C   0  0  0  0  0  0  0  0  0  0  0  0
  -21.8166  -12.4312   -4.0444 C   0  0  0  0  0  0  0  0  0  0  0  0
  -21.7359  -11.8174   -2.7987 C   0  0  0  0  0  0  0  0  0  0  0  0
  -22.7674  -10.9784   -2.3652 C   0  0  0  0  0  0  0  0  0  0  0  0
  -23.8696  -10.7172   -3.1899 C   0  0  0  0  0  0  0  0  0  0  0  0
  -28.2988  -12.0325   -6.7318 C   0  0  0  0  0  0  0  0  0  0  0  0
  -29.3374  -11.0756   -6.4026 N   0  0  0  0  0  0  0  0  0  0  0  0
  -30.4153  -11.4740   -5.6530 C   0  0  0  0  0  0  0  0  0  0  0  0
  -30.3979  -12.4613   -4.9217 O   0  0  0  0  0  0  0  0  0  0  0  0
  -29.5424  -10.3373   -7.0623 H   0  0  0  0  0  0  0  0  0  0  0  0
  -31.4856  -10.6678   -5.8534 O   0  0  0  0  0  0  0  0  0  0  0  0
  -32.4175  -10.9617   -6.9379 C   0  0  0  0  0  0  0  0  0  0  0  0
  -33.2801  -12.1850   -6.6032 C   0  0  0  0  0  0  0  0  0  0  0  0
  -33.3482   -9.7424   -7.0657 C   0  0  0  0  0  0  0  0  0  0  0  0
  -31.6931  -11.1236   -8.2841 C   0  0  0  0  0  0  0  0  0  0  0  0
 23 24  1  0  0  0
 24 13  1  0  0  0
 13 14  1  0  0  0
 13 22  2  0  0  0
 14 15  2  0  0  0
 15 16  1  0  0  0
 16 17  1  0  0  0
 16 21  2  0  0  0
 17 12  1  0  0  0
 17 18  2  0  0  0
 12  5  1  0  0  0
  5  6  1  0  0  0
  5 10  2  0  0  0
  6  7  2  0  0  0
  7  8  1  0  0  0
  8  1  1  0  0  0
  8  9  2  0  0  0
  1  2  1  0  0  0
  1  4  1  0  0  0
  2  3  2  0  0  0
  2 25  1  0  0  0
 25 26  2  0  0  0
 25 30  1  0  0  0
 26 38  1  0  0  0
 26 27  1  0  0  0
 38 39  1  0  0  0
 39 40  1  0  0  0
 39 42  1  0  0  0
 40 41  2  0  0  0
 40 43  1  0  0  0
 43 44  1  0  0  0
 44 45  1  0  0  0
 44 46  1  0  0  0
 44 47  1  0  0  0
 27 28  1  0  0  0
 27 29  1  0  0  0
 29 32  1  0  0  0
 29 30  1  0  0  0
 32 33  1  0  0  0
 32 37  2  0  0  0
 33 34  2  0  0  0
 34 35  1  0  0  0
 35 36  2  0  0  0
 36 37  1  0  0  0
 30 31  2  0  0  0
  9 10  1  0  0  0
 10 11  1  0  0  0
 18 19  1  0  0  0
 19 20  2  0  0  0
 20 21  1  0  0  0
 21 22  1  0  0  0
M  END
> <minimizedAffinity>
-8.42444

$$$$
