CHEMBL3702665


 30 33  0  0  0  0  0  0  0  0999 V2000
  -15.2912   -1.0697  -13.6163 C   0  0  0  0  0  0  0  0  0  0  0  0
  -14.1465   -0.9388  -14.4076 C   0  0  0  0  0  0  0  0  0  0  0  0
  -13.2236   -1.9750  -14.4647 C   0  0  0  0  0  0  0  0  0  0  0  0
  -13.4489   -3.1441  -13.7345 C   0  0  0  0  0  0  0  0  0  0  0  0
  -14.5900   -3.3117  -12.9295 C   0  0  0  0  0  0  0  0  0  0  0  0
  -15.5101   -2.2483  -12.8895 C   0  0  0  0  0  0  0  0  0  0  0  0
  -14.7775   -4.4751  -12.2024 N   0  0  0  0  0  0  0  0  0  0  0  0
  -15.9928   -5.2815  -12.3218 C   0  0  0  0  0  0  0  0  0  0  0  0
  -15.6947   -6.5491  -13.1114 C   0  0  0  0  0  0  0  0  0  0  0  0
  -14.4946   -7.2593  -12.5473 C   0  0  0  0  0  0  0  0  0  0  0  0
  -14.3839   -8.5758  -12.8338 N   0  0  0  0  0  0  0  0  0  0  0  0
  -13.2931   -9.1966  -12.3607 C   0  0  0  0  0  0  0  0  0  0  0  0
  -12.3199   -8.6328  -11.6321 N   0  0  0  0  0  0  0  0  0  0  0  0
  -12.4709   -7.3189  -11.3763 C   0  0  0  0  0  0  0  0  0  0  0  0
  -13.5414   -6.5644  -11.8166 C   0  0  0  0  0  0  0  0  0  0  0  0
  -13.6613   -5.1034  -11.4832 C   0  0  0  0  0  0  0  0  0  0  0  0
  -16.3705    0.7167  -12.6115 O   0  0  0  0  0  0  0  0  0  0  0  0
  -16.2728    0.0458  -13.6351 C   0  0  0  0  0  0  0  0  0  0  0  0
  -17.0394    0.1793  -14.7821 N   0  0  0  0  0  0  0  0  0  0  0  0
  -16.9592   -0.5498  -15.4825 H   0  0  0  0  0  0  0  0  0  0  0  0
  -18.0865    1.1167  -14.9616 C   0  0  0  0  0  0  0  0  0  0  0  0
  -17.8870    2.3804  -15.5225 C   0  0  0  0  0  0  0  0  0  0  0  0
  -18.9303    3.3038  -15.6095 C   0  0  0  0  0  0  0  0  0  0  0  0
  -20.1979    2.9685  -15.1474 C   0  0  0  0  0  0  0  0  0  0  0  0
  -20.4389    1.6952  -14.6142 C   0  0  0  0  0  0  0  0  0  0  0  0
  -19.3766    0.7695  -14.5359 C   0  0  0  0  0  0  0  0  0  0  0  0
  -21.8133    1.3255  -14.1150 C   0  0  0  0  0  0  0  0  0  0  0  0
  -22.4654    0.4344  -14.9146 F   0  0  0  0  0  0  0  0  0  0  0  0
  -21.7830    0.7599  -12.8761 F   0  0  0  0  0  0  0  0  0  0  0  0
  -22.6381    2.4044  -14.0118 F   0  0  0  0  0  0  0  0  0  0  0  0
 17 18  2  0  0  0
 18 19  1  0  0  0
 18  1  1  0  0  0
 19 21  1  0  0  0
 19 20  1  0  0  0
 21 22  1  0  0  0
 21 26  2  0  0  0
 22 23  2  0  0  0
 23 24  1  0  0  0
 24 25  2  0  0  0
 25 27  1  0  0  0
 25 26  1  0  0  0
 27 28  1  0  0  0
 27 29  1  0  0  0
 27 30  1  0  0  0
  1  2  1  0  0  0
  1  6  2  0  0  0
  2  3  2  0  0  0
  3  4  1  0  0  0
  4  5  2  0  0  0
  5  7  1  0  0  0
  5  6  1  0  0  0
  7  8  1  0  0  0
  7 16  1  0  0  0
  8  9  1  0  0  0
  9 10  1  0  0  0
 10 11  1  0  0  0
 10 15  2  0  0  0
 11 12  2  0  0  0
 12 13  1  0  0  0
 13 14  2  0  0  0
 14 15  1  0  0  0
 15 16  1  0  0  0
M  END
> <minimizedAffinity>
-10.07732

$$$$
