CHEMBL1088028


 38 42  0  0  0  0  0  0  0  0999 V2000
  -29.8493   -5.8182   -6.3021 N   0  0  0  0  0  0  0  0  0  0  0  0
  -30.5264   -6.0300   -7.0343 H   0  0  0  0  0  0  0  0  0  0  0  0
  -29.0994   -6.8688   -5.8470 C   0  0  0  0  0  0  0  0  0  0  0  0
  -27.9860   -6.8143   -5.1454 N   0  0  0  0  0  0  0  0  0  0  0  0
  -27.6555   -8.0925   -4.8263 C   0  0  0  0  0  0  0  0  0  0  0  0
  -26.5700   -8.5423   -4.0595 C   0  0  0  0  0  0  0  0  0  0  0  0
  -26.3987   -9.9141   -3.8683 C   0  0  0  0  0  0  0  0  0  0  0  0
  -27.2709  -10.8207   -4.4641 C   0  0  0  0  0  0  0  0  0  0  0  0
  -28.3482  -10.3863   -5.2484 C   0  0  0  0  0  0  0  0  0  0  0  0
  -28.5533   -8.9998   -5.3790 C   0  0  0  0  0  0  0  0  0  0  0  0
  -29.4970   -8.2000   -6.0277 N   0  0  0  0  0  0  0  0  0  0  0  0
  -30.6630   -8.6230   -6.7325 C   0  0  0  0  0  0  0  0  0  0  0  0
  -30.6016   -9.7365   -7.5443 C   0  0  0  0  0  0  0  0  0  0  0  0
  -31.7710  -10.1159   -8.1617 C   0  0  0  0  0  0  0  0  0  0  0  0
  -31.8222  -11.3062   -8.8804 N   0  0  0  0  0  0  0  0  0  0  0  0
  -32.9138   -9.4378   -8.0287 N   0  0  0  0  0  0  0  0  0  0  0  0
  -32.8803   -8.3729   -7.2183 C   0  0  0  0  0  0  0  0  0  0  0  0
  -31.8165   -7.9432   -6.5238 N   0  0  0  0  0  0  0  0  0  0  0  0
  -31.0827  -11.4004   -9.5654 H   0  0  0  0  0  0  0  0  0  0  0  0
  -32.7484  -11.3991   -9.2880 H   0  0  0  0  0  0  0  0  0  0  0  0
  -30.4611   -4.1971   -3.8907 C   0  0  0  0  0  0  0  0  0  0  0  0
  -29.8689   -3.6332   -5.1550 C   0  0  0  0  0  0  0  0  0  0  0  0
  -29.6565   -2.2425   -5.2197 C   0  0  0  0  0  0  0  0  0  0  0  0
  -28.9962   -1.6682   -6.3033 C   0  0  0  0  0  0  0  0  0  0  0  0
  -28.4925   -2.4841   -7.3130 C   0  0  0  0  0  0  0  0  0  0  0  0
  -28.7085   -3.8602   -7.2543 C   0  0  0  0  0  0  0  0  0  0  0  0
  -29.4786   -4.4515   -6.2398 C   0  0  0  0  0  0  0  0  0  0  0  0
  -27.7057   -1.8716   -8.4165 C   0  0  0  0  0  0  0  0  0  0  0  0
  -27.1195   -0.8233   -8.1856 O   0  0  0  0  0  0  0  0  0  0  0  0
  -27.7613   -2.5292   -9.6375 N   0  0  0  0  0  0  0  0  0  0  0  0
  -28.4409   -3.2772   -9.7287 H   0  0  0  0  0  0  0  0  0  0  0  0
  -27.0973   -2.1363  -10.8188 C   0  0  0  0  0  0  0  0  0  0  0  0
  -27.7562   -1.9341  -12.0338 C   0  0  0  0  0  0  0  0  0  0  0  0
  -27.0446   -1.5966  -13.1867 C   0  0  0  0  0  0  0  0  0  0  0  0
  -25.6605   -1.4565  -13.1362 C   0  0  0  0  0  0  0  0  0  0  0  0
  -25.0016   -1.6199  -11.9186 C   0  0  0  0  0  0  0  0  0  0  0  0
  -23.1196   -1.4390  -11.8478 Br  0  0  0  0  0  0  0  0  0  0  0  0
  -25.7142   -1.9394  -10.7604 C   0  0  0  0  0  0  0  0  0  0  0  0
 21 22  1  0  0  0
 22 23  1  0  0  0
 22 27  2  0  0  0
 23 24  2  0  0  0
 24 25  1  0  0  0
 25 28  1  0  0  0
 25 26  2  0  0  0
 28 29  2  0  0  0
 28 30  1  0  0  0
 30 32  1  0  0  0
 30 31  1  0  0  0
 32 33  1  0  0  0
 32 38  2  0  0  0
 33 34  2  0  0  0
 34 35  1  0  0  0
 35 36  2  0  0  0
 36 37  1  0  0  0
 36 38  1  0  0  0
 26 27  1  0  0  0
 27  1  1  0  0  0
  1  3  1  0  0  0
  1  2  1  0  0  0
  3  4  2  0  0  0
  3 11  1  0  0  0
  4  5  1  0  0  0
  5  6  1  0  0  0
  5 10  2  0  0  0
  6  7  2  0  0  0
  7  8  1  0  0  0
  8  9  2  0  0  0
  9 10  1  0  0  0
 10 11  1  0  0  0
 11 12  1  0  0  0
 12 13  1  0  0  0
 12 18  2  0  0  0
 13 14  2  0  0  0
 14 15  1  0  0  0
 14 16  1  0  0  0
 15 19  1  0  0  0
 15 20  1  0  0  0
 16 17  2  0  0  0
 17 18  1  0  0  0
M  END
> <minimizedAffinity>
-10.75656

$$$$
