CHEMBL4087656


 37 41  0  0  0  0  0  0  0  0999 V2000
  -15.0083   -5.6328  -11.3859 N   0  0  0  0  0  0  0  0  0  0  0  0
  -15.3805   -4.5347  -12.1308 C   0  0  0  0  0  0  0  0  0  0  0  0
  -16.4630   -4.5560  -12.7110 O   0  0  0  0  0  0  0  0  0  0  0  0
  -14.4499   -3.5291  -12.1883 N   0  0  0  0  0  0  0  0  0  0  0  0
  -15.5032   -6.4618  -11.6829 H   0  0  0  0  0  0  0  0  0  0  0  0
  -13.5267   -3.7921  -11.8769 H   0  0  0  0  0  0  0  0  0  0  0  0
  -12.3123   -4.6370   -7.4397 C   0  0  0  0  0  0  0  0  0  0  0  0
  -12.4273   -5.2740   -8.7913 C   0  0  0  0  0  0  0  0  0  0  0  0
  -11.3593   -5.9653   -9.3541 C   0  0  0  0  0  0  0  0  0  0  0  0
  -11.4886   -6.5567  -10.6147 C   0  0  0  0  0  0  0  0  0  0  0  0
  -12.6775   -6.4915  -11.3702 C   0  0  0  0  0  0  0  0  0  0  0  0
  -13.7577   -5.8127  -10.7676 C   0  0  0  0  0  0  0  0  0  0  0  0
  -13.6246   -5.2042   -9.5056 C   0  0  0  0  0  0  0  0  0  0  0  0
  -12.6558   -7.0806  -12.6325 N   0  0  0  0  0  0  0  0  0  0  0  0
  -11.5404   -6.8957  -13.5716 C   0  0  0  0  0  0  0  0  0  0  0  0
  -12.0173   -7.1911  -15.0143 C   0  0  0  0  0  0  0  0  0  0  0  0
  -12.5826   -8.5521  -15.1526 N   0  0  0  0  0  0  0  0  0  0  0  0
  -13.0334   -8.7860  -16.5210 C   0  0  0  0  0  0  0  0  0  0  0  0
  -13.6969   -8.7113  -14.1938 C   0  0  0  0  0  0  0  0  0  0  0  0
  -13.2649   -8.4299  -12.7343 C   0  0  0  0  0  0  0  0  0  0  0  0
  -14.5376   -2.3182  -12.8892 C   0  0  0  0  0  0  0  0  0  0  0  0
  -13.8776   -2.0567  -14.0834 C   0  0  0  0  0  0  0  0  0  0  0  0
  -13.9831   -0.7917  -14.6823 C   0  0  0  0  0  0  0  0  0  0  0  0
  -14.7739    0.2343  -14.1256 C   0  0  0  0  0  0  0  0  0  0  0  0
  -15.5089   -0.0986  -12.9842 C   0  0  0  0  0  0  0  0  0  0  0  0
  -15.3641   -1.3350  -12.3480 C   0  0  0  0  0  0  0  0  0  0  0  0
  -14.8580    1.5725  -14.7490 C   0  0  0  0  0  0  0  0  0  0  0  0
  -13.7074    2.3817  -14.8601 C   0  0  0  0  0  0  0  0  0  0  0  0
  -13.7753    3.6390  -15.4489 C   0  0  0  0  0  0  0  0  0  0  0  0
  -14.8827    4.1855  -15.9741 N   0  0  0  0  0  0  0  0  0  0  0  0
  -15.9621    3.3916  -15.8612 C   0  0  0  0  0  0  0  0  0  0  0  0
  -17.2014    3.7180  -16.3157 N   0  0  0  0  0  0  0  0  0  0  0  0
  -18.1321    2.7852  -16.0796 N   0  0  0  0  0  0  0  0  0  0  0  0
  -17.4609    1.8192  -15.4296 C   0  0  0  0  0  0  0  0  0  0  0  0
  -18.2540    0.6437  -14.9806 C   0  0  0  0  0  0  0  0  0  0  0  0
  -16.0613    2.1244  -15.2804 C   0  0  0  0  0  0  0  0  0  0  0  0
  -17.4648    4.5710  -16.7909 H   0  0  0  0  0  0  0  0  0  0  0  0
  7  8  1  0  0  0
  8  9  1  0  0  0
  8 13  2  0  0  0
  9 10  2  0  0  0
 10 11  1  0  0  0
 11 14  1  0  0  0
 11 12  2  0  0  0
 14 15  1  0  0  0
 14 20  1  0  0  0
 15 16  1  0  0  0
 16 17  1  0  0  0
 17 18  1  0  0  0
 17 19  1  0  0  0
 19 20  1  0  0  0
 12  1  1  0  0  0
 12 13  1  0  0  0
  1  2  1  0  0  0
  1  5  1  0  0  0
  2  3  2  0  0  0
  2  4  1  0  0  0
  4 21  1  0  0  0
  4  6  1  0  0  0
 21 22  1  0  0  0
 21 26  2  0  0  0
 22 23  2  0  0  0
 23 24  1  0  0  0
 24 27  1  0  0  0
 24 25  2  0  0  0
 27 28  1  0  0  0
 27 36  2  0  0  0
 28 29  2  0  0  0
 29 30  1  0  0  0
 30 31  2  0  0  0
 31 32  1  0  0  0
 31 36  1  0  0  0
 32 33  1  0  0  0
 32 37  1  0  0  0
 33 34  2  0  0  0
 34 35  1  0  0  0
 34 36  1  0  0  0
 25 26  1  0  0  0
M  END
> <minimizedAffinity>
-8.58190

$$$$
