CHEMBL3933295


 43 45  0  0  0  0  0  0  0  0999 V2000
  -28.9280   -6.7213   -5.4503 C   0  0  0  0  0  0  0  0  0  0  0  0
  -28.6604   -7.9644   -6.0010 C   0  0  0  0  0  0  0  0  0  0  0  0
  -28.1991   -8.1472   -7.2672 N   0  0  0  0  0  0  0  0  0  0  0  0
  -27.9839   -7.0488   -8.0227 C   0  0  0  0  0  0  0  0  0  0  0  0
  -27.6370   -7.3000   -9.3489 N   0  0  0  0  0  0  0  0  0  0  0  0
  -28.1907   -5.7490   -7.5408 C   0  0  0  0  0  0  0  0  0  0  0  0
  -28.6691   -5.5920   -6.2368 C   0  0  0  0  0  0  0  0  0  0  0  0
  -27.4484   -8.2927   -9.4461 H   0  0  0  0  0  0  0  0  0  0  0  0
  -26.8905   -6.7066   -9.6865 H   0  0  0  0  0  0  0  0  0  0  0  0
  -29.4895   -6.5928   -4.0778 C   0  0  0  0  0  0  0  0  0  0  0  0
  -29.7593   -7.6459   -3.5056 O   0  0  0  0  0  0  0  0  0  0  0  0
  -30.8354   -4.4461   -3.6934 S   0  0  0  0  0  0  0  0  0  0  0  0
  -32.2249   -5.1745   -2.8323 C   0  0  0  0  0  0  0  0  0  0  0  0
  -31.3007   -4.0790   -5.0155 O   0  0  0  0  0  0  0  0  0  0  0  0
  -29.5979   -5.3410   -3.4389 N   0  0  0  0  0  0  0  0  0  0  0  0
  -30.6027   -2.9134   -2.7947 C   0  0  0  0  0  0  0  0  0  0  0  0
  -29.1342   -2.4858   -2.7513 C   0  0  0  0  0  0  0  0  0  0  0  0
  -28.5553   -2.3152   -4.1586 C   0  0  0  0  0  0  0  0  0  0  0  0
  -29.2190   -1.1679   -4.9285 C   0  0  0  0  0  0  0  0  0  0  0  0
  -28.3310   -0.6711   -6.0491 C   0  0  0  0  0  0  0  0  0  0  0  0
  -27.3249   -1.2384   -6.4525 O   0  0  0  0  0  0  0  0  0  0  0  0
  -29.9326    1.0184   -5.8141 C   0  0  0  0  0  0  0  0  0  0  0  0
  -28.8161    0.5035   -6.5440 O   0  0  0  0  0  0  0  0  0  0  0  0
  -27.8987   -4.5938   -8.3428 C   0  0  0  0  0  0  0  0  0  0  0  0
  -27.7202   -3.6082   -9.0130 C   0  0  0  0  0  0  0  0  0  0  0  0
  -27.5645   -2.4061   -9.7784 C   0  0  0  0  0  0  0  0  0  0  0  0
  -28.5819   -1.4492   -9.7875 C   0  0  0  0  0  0  0  0  0  0  0  0
  -28.4485   -0.3091  -10.5749 C   0  0  0  0  0  0  0  0  0  0  0  0
  -27.3066   -0.1273  -11.3520 C   0  0  0  0  0  0  0  0  0  0  0  0
  -26.2670   -1.0624  -11.3446 C   0  0  0  0  0  0  0  0  0  0  0  0
  -26.4042   -2.2074  -10.5469 C   0  0  0  0  0  0  0  0  0  0  0  0
  -25.0962   -0.9101  -12.1349 N   0  0  0  0  0  0  0  0  0  0  0  0
  -24.2423    0.1829  -12.0734 C   0  0  0  0  0  0  0  0  0  0  0  0
  -24.3284    1.1170  -11.2810 O   0  0  0  0  0  0  0  0  0  0  0  0
  -24.8235   -1.6983  -12.7016 H   0  0  0  0  0  0  0  0  0  0  0  0
  -23.0792    0.2059  -13.0015 C   0  0  0  0  0  0  0  0  0  0  0  0
  -22.6063   -0.9221  -13.6775 C   0  0  0  0  0  0  0  0  0  0  0  0
  -21.5545   -0.7837  -14.5880 C   0  0  0  0  0  0  0  0  0  0  0  0
  -20.9723    0.4695  -14.8096 C   0  0  0  0  0  0  0  0  0  0  0  0
  -21.4359    1.5998  -14.1364 C   0  0  0  0  0  0  0  0  0  0  0  0
  -22.4978    1.4628  -13.2472 C   0  0  0  0  0  0  0  0  0  0  0  0
  -20.7853    2.7681  -14.4245 O   0  0  0  0  0  0  0  0  0  0  0  0
  -19.7548    2.7010  -15.4072 C   0  0  0  0  0  0  0  0  0  0  0  0
 22 23  1  0  0  0
 23 20  1  0  0  0
 20 21  2  0  0  0
 20 19  1  0  0  0
 19 18  1  0  0  0
 18 17  1  0  0  0
 17 16  1  0  0  0
 16 12  1  0  0  0
 12 13  1  0  0  0
 12 14  2  0  0  0
 12 15  2  0  0  0
 15 10  1  0  0  0
 10 11  2  0  0  0
 10  1  1  0  0  0
  1  2  1  0  0  0
  1  7  2  0  0  0
  2  3  2  0  0  0
  3  4  1  0  0  0
  4  5  1  0  0  0
  4  6  2  0  0  0
  5  8  1  0  0  0
  5  9  1  0  0  0
  6 24  1  0  0  0
  6  7  1  0  0  0
 24 25  3  0  0  0
 25 26  1  0  0  0
 26 27  1  0  0  0
 26 31  2  0  0  0
 27 28  2  0  0  0
 28 29  1  0  0  0
 29 30  2  0  0  0
 30 32  1  0  0  0
 30 31  1  0  0  0
 32 33  1  0  0  0
 32 35  1  0  0  0
 33 34  2  0  0  0
 33 36  1  0  0  0
 36 37  1  0  0  0
 36 41  2  0  0  0
 37 38  2  0  0  0
 38 39  1  0  0  0
 39 40  2  0  0  0
 40 42  1  0  0  0
 40 41  1  0  0  0
 42 43  1  0  0  0
M  END
> <minimizedAffinity>
-5.73879

$$$$
