CHEMBL2071213


 28 30  0  0  0  0  0  0  0  0999 V2000
  -27.2499   -8.3000   -4.7489 C   0  0  0  0  0  0  0  0  0  0  0  0
  -27.5758   -9.3196   -5.5534 N   0  0  0  0  0  0  0  0  0  0  0  0
  -28.7780   -9.2323   -6.1626 C   0  0  0  0  0  0  0  0  0  0  0  0
  -29.6643   -8.1919   -5.9760 C   0  0  0  0  0  0  0  0  0  0  0  0
  -31.1728   -8.1799   -6.7987 Cl  0  0  0  0  0  0  0  0  0  0  0  0
  -29.2670   -7.1977   -5.0961 C   0  0  0  0  0  0  0  0  0  0  0  0
  -28.0742   -7.2729   -4.4852 N   0  0  0  0  0  0  0  0  0  0  0  0
  -25.9633   -8.3065   -4.1994 N   0  0  0  0  0  0  0  0  0  0  0  0
  -25.8371   -7.4665   -3.6505 H   0  0  0  0  0  0  0  0  0  0  0  0
  -22.2593  -11.3314   -5.0656 C   0  0  0  0  0  0  0  0  0  0  0  0
  -23.4291  -10.6871   -4.5225 N   0  0  0  0  0  0  0  0  0  0  0  0
  -24.0579   -9.5770   -5.0024 C   0  0  0  0  0  0  0  0  0  0  0  0
  -25.0940   -9.3337   -4.1367 C   0  0  0  0  0  0  0  0  0  0  0  0
  -24.9906  -10.3582   -3.1573 C   0  0  0  0  0  0  0  0  0  0  0  0
  -23.9695  -11.1840   -3.3959 N   0  0  0  0  0  0  0  0  0  0  0  0
  -30.0535   -6.0953   -4.8122 N   0  0  0  0  0  0  0  0  0  0  0  0
  -30.4855   -6.0366   -3.8913 H   0  0  0  0  0  0  0  0  0  0  0  0
  -30.0701   -4.9027   -5.6640 C   0  0  0  0  0  0  0  0  0  0  0  0
  -28.9992   -5.0108   -6.7644 C   0  0  0  0  0  0  0  0  0  0  0  0
  -28.8557   -3.7359   -7.5929 C   0  0  0  0  0  0  0  0  0  0  0  0
  -28.6515   -2.5155   -6.7097 C   0  0  0  0  0  0  0  0  0  0  0  0
  -29.8094   -2.3609   -5.7279 C   0  0  0  0  0  0  0  0  0  0  0  0
  -29.9933   -3.5984   -4.8310 C   0  0  0  0  0  0  0  0  0  0  0  0
  -28.9503   -3.5947   -3.7171 C   0  0  0  0  0  0  0  0  0  0  0  0
  -29.3536   -3.0035   -2.5522 N   0  0  0  0  0  0  0  0  0  0  0  0
  -27.8408   -4.1076   -3.7985 O   0  0  0  0  0  0  0  0  0  0  0  0
  -30.3104   -2.7271   -2.3818 H   0  0  0  0  0  0  0  0  0  0  0  0
  -28.7229   -3.0409   -1.7610 H   0  0  0  0  0  0  0  0  0  0  0  0
 10 11  1  0  0  0
 11 12  1  0  0  0
 11 15  1  0  0  0
 12 13  2  0  0  0
 13  8  1  0  0  0
 13 14  1  0  0  0
  8  1  1  0  0  0
  8  9  1  0  0  0
  1  2  1  0  0  0
  1  7  2  0  0  0
  2  3  2  0  0  0
  3  4  1  0  0  0
  4  5  1  0  0  0
  4  6  2  0  0  0
  6 16  1  0  0  0
  6  7  1  0  0  0
 16 18  1  0  0  0
 16 17  1  0  0  0
 18 19  1  0  0  0
 18 23  1  0  0  0
 19 20  1  0  0  0
 20 21  1  0  0  0
 21 22  1  0  0  0
 22 23  1  0  0  0
 23 24  1  0  0  0
 24 25  1  0  0  0
 24 26  2  0  0  0
 25 27  1  0  0  0
 25 28  1  0  0  0
 14 15  2  0  0  0
M  END
> <minimizedAffinity>
-7.54991

$$$$
