CHEMBL2005886


 38 42  0  0  0  0  0  0  0  0999 V2000
  -26.4908   -1.8480  -11.8277 C   0  0  0  0  0  0  0  0  0  0  0  0
  -25.2321   -1.6670  -12.3116 C   0  0  0  0  0  0  0  0  0  0  0  0
  -25.0495   -1.5765  -13.7572 C   0  0  0  0  0  0  0  0  0  0  0  0
  -26.0855   -1.6540  -14.6028 C   0  0  0  0  0  0  0  0  0  0  0  0
  -27.3506   -1.8225  -14.1205 N   0  0  0  0  0  0  0  0  0  0  0  0
  -27.6535   -1.9491  -12.7871 C   0  0  0  0  0  0  0  0  0  0  0  0
  -28.8031   -2.1805  -12.4197 O   0  0  0  0  0  0  0  0  0  0  0  0
  -28.1377   -1.8851  -14.7527 H   0  0  0  0  0  0  0  0  0  0  0  0
  -27.8754    0.3390   -6.8741 C   0  0  0  0  0  0  0  0  0  0  0  0
  -27.9900   -1.1137   -7.2252 C   0  0  0  0  0  0  0  0  0  0  0  0
  -28.6258   -2.0186   -6.3339 C   0  0  0  0  0  0  0  0  0  0  0  0
  -28.7913   -3.3901   -6.6009 C   0  0  0  0  0  0  0  0  0  0  0  0
  -28.3144   -3.8745   -7.8295 C   0  0  0  0  0  0  0  0  0  0  0  0
  -27.6964   -2.9841   -8.7108 C   0  0  0  0  0  0  0  0  0  0  0  0
  -27.1780   -3.1595   -9.9661 N   0  0  0  0  0  0  0  0  0  0  0  0
  -26.7852   -1.9343  -10.4469 C   0  0  0  0  0  0  0  0  0  0  0  0
  -26.8846   -1.0137   -9.5041 N   0  0  0  0  0  0  0  0  0  0  0  0
  -27.5159   -1.6359   -8.4435 C   0  0  0  0  0  0  0  0  0  0  0  0
  -27.1922   -4.0204  -10.4923 H   0  0  0  0  0  0  0  0  0  0  0  0
  -29.3579   -4.2549   -5.6861 N   0  0  0  0  0  0  0  0  0  0  0  0
  -29.2325   -5.7160   -5.7772 C   0  0  0  0  0  0  0  0  0  0  0  0
  -30.5960   -6.3524   -5.4421 C   0  0  0  0  0  0  0  0  0  0  0  0
  -31.0990   -5.9202   -4.1650 O   0  0  0  0  0  0  0  0  0  0  0  0
  -31.2373   -4.4879   -4.1389 C   0  0  0  0  0  0  0  0  0  0  0  0
  -29.8900   -3.7952   -4.3932 C   0  0  0  0  0  0  0  0  0  0  0  0
  -24.0508   -1.5887  -11.5639 N   0  0  0  0  0  0  0  0  0  0  0  0
  -24.2568   -1.2431  -10.6238 H   0  0  0  0  0  0  0  0  0  0  0  0
  -22.9349   -0.7803  -12.1107 C   0  0  0  0  0  0  0  0  0  0  0  0
  -23.4546    0.4361  -12.9182 C   0  0  0  0  0  0  0  0  0  0  0  0
  -24.1377    1.3810  -12.0884 O   0  0  0  0  0  0  0  0  0  0  0  0
  -23.7631    1.3101  -11.1945 H   0  0  0  0  0  0  0  0  0  0  0  0
  -22.3171    1.1252  -13.6412 C   0  0  0  0  0  0  0  0  0  0  0  0
  -22.3894    2.5046  -13.8936 C   0  0  0  0  0  0  0  0  0  0  0  0
  -21.3830    3.1507  -14.6141 C   0  0  0  0  0  0  0  0  0  0  0  0
  -20.2942    2.4260  -15.0967 C   0  0  0  0  0  0  0  0  0  0  0  0
  -20.2141    1.0574  -14.8534 C   0  0  0  0  0  0  0  0  0  0  0  0
  -18.8824    0.1558  -15.4665 Cl  0  0  0  0  0  0  0  0  0  0  0  0
  -21.2141    0.4068  -14.1313 C   0  0  0  0  0  0  0  0  0  0  0  0
  9 10  1  0  0  0
 10 11  1  0  0  0
 10 18  2  0  0  0
 11 12  2  0  0  0
 12 20  1  0  0  0
 12 13  1  0  0  0
 20 21  1  0  0  0
 20 25  1  0  0  0
 21 22  1  0  0  0
 22 23  1  0  0  0
 23 24  1  0  0  0
 24 25  1  0  0  0
 13 14  2  0  0  0
 14 15  1  0  0  0
 14 18  1  0  0  0
 15 16  1  0  0  0
 15 19  1  0  0  0
 16  1  1  0  0  0
 16 17  2  0  0  0
  1  2  2  0  0  0
  1  6  1  0  0  0
  2 26  1  0  0  0
  2  3  1  0  0  0
 26 28  1  0  0  0
 26 27  1  0  0  0
 28 29  1  0  0  0
 29 30  1  0  0  0
 29 32  1  0  0  0
 30 31  1  0  0  0
 32 33  1  0  0  0
 32 38  2  0  0  0
 33 34  2  0  0  0
 34 35  1  0  0  0
 35 36  2  0  0  0
 36 37  1  0  0  0
 36 38  1  0  0  0
  3  4  2  0  0  0
  4  5  1  0  0  0
  5  6  1  0  0  0
  5  8  1  0  0  0
  6  7  2  0  0  0
 17 18  1  0  0  0
M  END
> <minimizedAffinity>
-10.28690

$$$$
