CHEMBL3964931


 37 41  0  0  0  0  0  0  0  0999 V2000
  -15.3051    1.9781  -15.8960 N   0  0  0  0  0  0  0  0  0  0  0  0
  -16.6959    2.1472  -15.6550 C   0  0  0  0  0  0  0  0  0  0  0  0
  -17.3662    1.0385  -15.2086 C   0  0  0  0  0  0  0  0  0  0  0  0
  -18.6638    1.0544  -14.8536 C   0  0  0  0  0  0  0  0  0  0  0  0
  -19.3916    2.1231  -14.9391 C   0  0  0  0  0  0  0  0  0  0  0  0
  -20.5952    1.7632  -14.8697 N   0  0  0  0  0  0  0  0  0  0  0  0
  -21.3165    1.0133  -14.2733 C   0  0  0  0  0  0  0  0  0  0  0  0
  -21.9997    2.0492  -14.1136 C   0  0  0  0  0  0  0  0  0  0  0  0
  -20.8966    3.5674  -14.4864 N   0  0  0  0  0  0  0  0  0  0  0  0
  -19.1835    3.4237  -15.1224 C   0  0  0  0  0  0  0  0  0  0  0  0
  -17.5311    3.3259  -15.7395 C   0  0  0  0  0  0  0  0  0  0  0  0
  -23.2621    0.7234  -13.6047 C   0  0  0  0  0  0  0  0  0  0  0  0
  -23.8717   -0.9423  -13.9809 C   0  0  0  0  0  0  0  0  0  0  0  0
  -24.7339   -1.7083  -13.1863 N   0  0  0  0  0  0  0  0  0  0  0  0
  -24.8122   -0.9592  -12.0781 N   0  0  0  0  0  0  0  0  0  0  0  0
  -25.5612   -1.4541  -10.8801 C   0  0  0  0  0  0  0  0  0  0  0  0
  -23.9828    0.2861  -12.2497 C   0  0  0  0  0  0  0  0  0  0  0  0
  -13.7427    2.9810  -19.1321 C   0  0  0  0  0  0  0  0  0  0  0  0
  -13.3281    1.7625  -19.5167 C   0  0  0  0  0  0  0  0  0  0  0  0
  -13.5916    0.6023  -18.8206 C   0  0  0  0  0  0  0  0  0  0  0  0
  -14.3665    0.6748  -17.6887 C   0  0  0  0  0  0  0  0  0  0  0  0
  -14.7493    1.8865  -17.1753 C   0  0  0  0  0  0  0  0  0  0  0  0
  -14.5383    2.9440  -18.0377 C   0  0  0  0  0  0  0  0  0  0  0  0
  -13.9395    5.3347  -19.2915 C   0  0  0  0  0  0  0  0  0  0  0  0
  -13.2792    4.1292  -19.6932 O   0  0  0  0  0  0  0  0  0  0  0  0
  -13.0900   -0.6065  -19.1872 O   0  0  0  0  0  0  0  0  0  0  0  0
  -13.2412   -1.6805  -18.2532 C   0  0  0  0  0  0  0  0  0  0  0  0
  -14.4367    1.7266  -14.7037 C   0  0  0  0  0  0  0  0  0  0  0  0
  -14.4980    0.3386  -14.0054 C   0  0  0  0  0  0  0  0  0  0  0  0
  -14.7311   -0.7323  -13.4361 C   0  0  0  0  0  0  0  0  0  0  0  0
  -15.2314   -1.9786  -12.7683 C   0  0  0  0  0  0  0  0  0  0  0  0
  -15.6420   -1.8078  -11.4762 N   0  0  0  0  0  0  0  0  0  0  0  0
  -15.9898   -2.9199  -10.7785 C   0  0  0  0  0  0  0  0  0  0  0  0
  -16.2610   -4.0961  -11.4323 C   0  0  0  0  0  0  0  0  0  0  0  0
  -15.6853   -4.3621  -12.6335 N   0  0  0  0  0  0  0  0  0  0  0  0
  -15.1353   -3.2777  -13.2811 C   0  0  0  0  0  0  0  0  0  0  0  0
  -14.3061   -3.5887  -14.7693 Cl  0  0  0  0  0  0  0  0  0  0  0  0
 24 25  1  0  0  0
 25 18  1  0  0  0
 18 19  1  0  0  0
 18 23  2  0  0  0
 19 20  2  0  0  0
 20 26  1  0  0  0
 20 21  1  0  0  0
 26 27  1  0  0  0
 21 22  2  0  0  0
 22  1  1  0  0  0
 22 23  1  0  0  0
  1 28  1  0  0  0
  1  2  1  0  0  0
 28 29  1  0  0  0
 29 30  3  0  0  0
 30 31  1  0  0  0
 31 32  1  0  0  0
 31 36  2  0  0  0
 32 33  2  0  0  0
 33 34  1  0  0  0
 34 35  2  0  0  0
 35 36  1  0  0  0
 36 37  1  0  0  0
  2  3  1  0  0  0
  2 11  2  0  0  0
  3  4  2  0  0  0
  4  5  1  0  0  0
  5  6  1  0  0  0
  5 10  2  0  0  0
  6  7  2  0  0  0
  7  8  1  0  0  0
  8 12  1  0  0  0
  8  9  2  0  0  0
 12 13  1  0  0  0
 12 17  2  0  0  0
 13 14  2  0  0  0
 14 15  1  0  0  0
 15 16  1  0  0  0
 15 17  1  0  0  0
  9 10  1  0  0  0
 10 11  1  0  0  0
M  END
> <minimizedAffinity>
-10.28979

$$$$
