CHEMBL239591


 40 45  0  0  0  0  0  0  0  0999 V2000
  -14.5489   -1.4656  -13.4701 C   0  0  0  0  0  0  0  0  0  0  0  0
  -15.1094   -0.2811  -13.9471 C   0  0  0  0  0  0  0  0  0  0  0  0
  -14.1320    0.5730  -14.3552 O   0  0  0  0  0  0  0  0  0  0  0  0
  -12.9326   -0.0110  -14.0686 C   0  0  0  0  0  0  0  0  0  0  0  0
  -11.7573    0.6051  -14.2938 N   0  0  0  0  0  0  0  0  0  0  0  0
  -10.6970   -0.1190  -13.8970 C   0  0  0  0  0  0  0  0  0  0  0  0
  -10.7424   -1.3801  -13.3228 C   0  0  0  0  0  0  0  0  0  0  0  0
  -11.9696   -2.0303  -13.1672 C   0  0  0  0  0  0  0  0  0  0  0  0
  -13.1243   -1.2819  -13.5216 C   0  0  0  0  0  0  0  0  0  0  0  0
  -16.7578   -4.8041  -11.9531 C   0  0  0  0  0  0  0  0  0  0  0  0
  -16.3261   -3.8084  -11.0889 C   0  0  0  0  0  0  0  0  0  0  0  0
  -15.6870   -2.6772  -11.5946 C   0  0  0  0  0  0  0  0  0  0  0  0
  -15.3353   -2.5936  -12.9495 C   0  0  0  0  0  0  0  0  0  0  0  0
  -15.7068   -3.6488  -13.7835 C   0  0  0  0  0  0  0  0  0  0  0  0
  -16.4770   -4.7086  -13.3124 C   0  0  0  0  0  0  0  0  0  0  0  0
  -16.4904    0.2008  -14.0606 C   0  0  0  0  0  0  0  0  0  0  0  0
  -17.3488   -0.4347  -14.9682 C   0  0  0  0  0  0  0  0  0  0  0  0
  -18.5325    0.1636  -15.3882 C   0  0  0  0  0  0  0  0  0  0  0  0
  -18.9558    1.3573  -14.8123 C   0  0  0  0  0  0  0  0  0  0  0  0
  -18.1658    1.9469  -13.8205 C   0  0  0  0  0  0  0  0  0  0  0  0
  -16.9344    1.3764  -13.4470 C   0  0  0  0  0  0  0  0  0  0  0  0
  -20.0960    2.0264  -15.1911 O   0  0  0  0  0  0  0  0  0  0  0  0
  -21.2800    1.2192  -15.0974 C   0  0  0  0  0  0  0  0  0  0  0  0
  -21.6503    0.9300  -13.6351 C   0  0  0  0  0  0  0  0  0  0  0  0
  -22.4763   -0.2925  -13.4708 N   0  0  0  0  0  0  0  0  0  0  0  0
  -22.7195   -0.6104  -12.0533 C   0  0  0  0  0  0  0  0  0  0  0  0
  -23.5706   -1.8692  -11.8825 C   0  0  0  0  0  0  0  0  0  0  0  0
  -24.8941   -1.7358  -12.6170 C   0  0  0  0  0  0  0  0  0  0  0  0
  -24.6426   -1.3739  -14.0758 C   0  0  0  0  0  0  0  0  0  0  0  0
  -23.7464   -0.1386  -14.2017 C   0  0  0  0  0  0  0  0  0  0  0  0
  -11.9999   -3.3697  -12.7832 N   0  0  0  0  0  0  0  0  0  0  0  0
  -12.6075   -3.9509  -13.3516 H   0  0  0  0  0  0  0  0  0  0  0  0
  -11.8991   -3.7771  -11.3896 C   0  0  0  0  0  0  0  0  0  0  0  0
  -12.8325   -4.9686  -11.2152 C   0  0  0  0  0  0  0  0  0  0  0  0
  -12.0479   -6.2162  -10.8551 C   0  0  0  0  0  0  0  0  0  0  0  0
  -12.6103   -7.3960  -11.4745 N   0  0  0  0  0  0  0  0  0  0  0  0
  -11.9873   -8.6019  -11.6116 C   0  0  0  0  0  0  0  0  0  0  0  0
  -12.9290   -9.3938  -12.2380 C   0  0  0  0  0  0  0  0  0  0  0  0
  -14.0762   -8.7127  -12.4761 N   0  0  0  0  0  0  0  0  0  0  0  0
  -13.8646   -7.4924  -12.0105 C   0  0  0  0  0  0  0  0  0  0  0  0
 10 11  1  0  0  0
 10 15  2  0  0  0
 11 12  2  0  0  0
 12 13  1  0  0  0
 13  1  1  0  0  0
 13 14  2  0  0  0
  1  2  2  0  0  0
  1  9  1  0  0  0
  2 16  1  0  0  0
  2  3  1  0  0  0
 16 17  1  0  0  0
 16 21  2  0  0  0
 17 18  2  0  0  0
 18 19  1  0  0  0
 19 22  1  0  0  0
 19 20  2  0  0  0
 22 23  1  0  0  0
 23 24  1  0  0  0
 24 25  1  0  0  0
 25 26  1  0  0  0
 25 30  1  0  0  0
 26 27  1  0  0  0
 27 28  1  0  0  0
 28 29  1  0  0  0
 29 30  1  0  0  0
 20 21  1  0  0  0
  3  4  1  0  0  0
  4  5  1  0  0  0
  4  9  2  0  0  0
  5  6  2  0  0  0
  6  7  1  0  0  0
  7  8  2  0  0  0
  8 31  1  0  0  0
  8  9  1  0  0  0
 31 33  1  0  0  0
 31 32  1  0  0  0
 33 34  1  0  0  0
 34 35  1  0  0  0
 35 36  1  0  0  0
 36 37  1  0  0  0
 36 40  1  0  0  0
 37 38  2  0  0  0
 38 39  1  0  0  0
 39 40  2  0  0  0
 14 15  1  0  0  0
M  END
> <minimizedAffinity>
-8.55844

$$$$
