CHEMBL4790424


 32 34  0  0  0  0  0  0  0  0999 V2000
  -29.1049   -8.7047   -5.2016 C   0  0  0  0  0  0  0  0  0  0  0  0
  -29.0252   -7.9706   -6.3817 C   0  0  0  0  0  0  0  0  0  0  0  0
  -28.8007   -6.5952   -6.3380 C   0  0  0  0  0  0  0  0  0  0  0  0
  -28.7231   -5.9101   -5.1238 C   0  0  0  0  0  0  0  0  0  0  0  0
  -28.9206   -6.6367   -3.9405 C   0  0  0  0  0  0  0  0  0  0  0  0
  -29.1057   -8.0273   -3.9817 C   0  0  0  0  0  0  0  0  0  0  0  0
  -28.4358   -4.5273   -5.0280 N   0  0  0  0  0  0  0  0  0  0  0  0
  -29.3733   -3.5083   -5.0862 C   0  0  0  0  0  0  0  0  0  0  0  0
  -30.5906   -3.6554   -5.1595 O   0  0  0  0  0  0  0  0  0  0  0  0
  -27.4631   -4.2781   -4.9184 H   0  0  0  0  0  0  0  0  0  0  0  0
  -28.8912   -2.1007   -5.0575 C   0  0  0  0  0  0  0  0  0  0  0  0
  -27.5596   -1.7320   -4.8392 C   0  0  0  0  0  0  0  0  0  0  0  0
  -27.1904   -0.3822   -4.9135 C   0  0  0  0  0  0  0  0  0  0  0  0
  -28.1377    0.5975   -5.2288 C   0  0  0  0  0  0  0  0  0  0  0  0
  -29.4703    0.2449   -5.4701 C   0  0  0  0  0  0  0  0  0  0  0  0
  -29.8330   -1.1038   -5.3650 C   0  0  0  0  0  0  0  0  0  0  0  0
  -30.5134    1.2605   -5.8652 C   0  0  0  0  0  0  0  0  0  0  0  0
  -30.9137    2.0593   -4.8367 F   0  0  0  0  0  0  0  0  0  0  0  0
  -30.0751    2.1036   -6.8410 F   0  0  0  0  0  0  0  0  0  0  0  0
  -31.6466    0.6823   -6.3516 F   0  0  0  0  0  0  0  0  0  0  0  0
  -29.2197  -10.0771   -5.1623 O   0  0  0  0  0  0  0  0  0  0  0  0
  -25.9667  -11.6793   -4.5217 C   0  0  0  0  0  0  0  0  0  0  0  0
  -26.8847  -10.8273   -5.1178 C   0  0  0  0  0  0  0  0  0  0  0  0
  -28.1891  -10.8265   -4.6299 C   0  0  0  0  0  0  0  0  0  0  0  0
  -28.4976  -11.5909   -3.5084 C   0  0  0  0  0  0  0  0  0  0  0  0
  -27.5023  -12.3808   -2.9541 C   0  0  0  0  0  0  0  0  0  0  0  0
  -26.2452  -12.4632   -3.4417 N   0  0  0  0  0  0  0  0  0  0  0  0
  -23.2044  -11.3622   -7.0873 C   0  0  0  0  0  0  0  0  0  0  0  0
  -24.4596  -11.3182   -6.3889 N   0  0  0  0  0  0  0  0  0  0  0  0
  -24.5878  -11.7905   -5.1002 C   0  0  0  0  0  0  0  0  0  0  0  0
  -23.6586  -12.2611   -4.4539 O   0  0  0  0  0  0  0  0  0  0  0  0
  -25.2943  -10.9360   -6.8249 H   0  0  0  0  0  0  0  0  0  0  0  0
 28 29  1  0  0  0
 29 30  1  0  0  0
 29 32  1  0  0  0
 30 31  2  0  0  0
 30 22  1  0  0  0
 22 23  1  0  0  0
 22 27  2  0  0  0
 23 24  2  0  0  0
 24 21  1  0  0  0
 24 25  1  0  0  0
 21  1  1  0  0  0
  1  2  1  0  0  0
  1  6  2  0  0  0
  2  3  2  0  0  0
  3  4  1  0  0  0
  4  7  1  0  0  0
  4  5  2  0  0  0
  7  8  1  0  0  0
  7 10  1  0  0  0
  8  9  2  0  0  0
  8 11  1  0  0  0
 11 12  1  0  0  0
 11 16  2  0  0  0
 12 13  2  0  0  0
 13 14  1  0  0  0
 14 15  2  0  0  0
 15 17  1  0  0  0
 15 16  1  0  0  0
 17 18  1  0  0  0
 17 19  1  0  0  0
 17 20  1  0  0  0
  5  6  1  0  0  0
 25 26  2  0  0  0
 26 27  1  0  0  0
M  END
> <minimizedAffinity>
-7.98817

$$$$
