CHEMBL271849


 37 43  0  0  0  0  0  0  0  0999 V2000
  -29.8300   -4.6487   -6.2808 N   0  0  0  0  0  0  0  0  0  0  0  0
  -29.0993   -3.7219   -7.0742 C   0  0  0  0  0  0  0  0  0  0  0  0
  -29.2129   -2.3259   -7.2557 C   0  0  0  0  0  0  0  0  0  0  0  0
  -28.4026   -1.7017   -8.2291 C   0  0  0  0  0  0  0  0  0  0  0  0
  -27.4641   -2.4151   -8.9748 C   0  0  0  0  0  0  0  0  0  0  0  0
  -27.3562   -3.7914   -8.7681 C   0  0  0  0  0  0  0  0  0  0  0  0
  -28.2002   -4.4501   -7.8682 C   0  0  0  0  0  0  0  0  0  0  0  0
  -28.5308   -5.7579   -7.5864 C   0  0  0  0  0  0  0  0  0  0  0  0
  -28.1564   -6.8259   -8.4202 C   0  0  0  0  0  0  0  0  0  0  0  0
  -28.9176   -8.0023   -8.2740 C   0  0  0  0  0  0  0  0  0  0  0  0
  -29.9104   -8.1749   -7.3010 C   0  0  0  0  0  0  0  0  0  0  0  0
  -29.7926   -7.2659   -6.1958 C   0  0  0  0  0  0  0  0  0  0  0  0
  -29.4062   -5.9563   -6.5592 C   0  0  0  0  0  0  0  0  0  0  0  0
  -29.3057   -7.9764   -4.8737 C   0  0  0  0  0  0  0  0  0  0  0  0
  -28.7603   -9.4468   -5.1076 C   0  0  0  0  0  0  0  0  0  0  0  0
  -29.8094  -10.1665   -5.8786 C   0  0  0  0  0  0  0  0  0  0  0  0
  -30.5305  -11.2137   -5.4813 N   0  0  0  0  0  0  0  0  0  0  0  0
  -31.6099  -11.1558   -6.3017 N   0  0  0  0  0  0  0  0  0  0  0  0
  -32.7332  -12.0280   -6.0574 C   0  0  0  0  0  0  0  0  0  0  0  0
  -31.6070  -10.0653   -7.1388 C   0  0  0  0  0  0  0  0  0  0  0  0
  -30.3660   -9.5030   -6.9830 C   0  0  0  0  0  0  0  0  0  0  0  0
  -28.3700   -8.9852   -9.1803 C   0  0  0  0  0  0  0  0  0  0  0  0
  -28.6171  -10.1628   -9.3982 O   0  0  0  0  0  0  0  0  0  0  0  0
  -27.3299   -8.3203   -9.8198 N   0  0  0  0  0  0  0  0  0  0  0  0
  -27.1342   -6.9386   -9.4546 C   0  0  0  0  0  0  0  0  0  0  0  0
  -26.7285   -8.8312  -10.4490 H   0  0  0  0  0  0  0  0  0  0  0  0
  -26.6664   -1.8891  -10.1059 C   0  0  0  0  0  0  0  0  0  0  0  0
  -25.5762   -1.3749   -9.8483 O   0  0  0  0  0  0  0  0  0  0  0  0
  -27.1348   -1.9694  -11.4864 C   0  0  0  0  0  0  0  0  0  0  0  0
  -28.4720   -2.1224  -11.9784 C   0  0  0  0  0  0  0  0  0  0  0  0
  -28.5346   -2.1105  -13.3554 C   0  0  0  0  0  0  0  0  0  0  0  0
  -26.9985   -1.8990  -14.0707 S   0  0  0  0  0  0  0  0  0  0  0  0
  -26.2490   -1.8060  -12.5413 C   0  0  0  0  0  0  0  0  0  0  0  0
  -31.1044   -4.3109   -5.6484 C   0  0  0  0  0  0  0  0  0  0  0  0
  -31.6661   -5.4624   -3.4507 C   0  0  0  0  0  0  0  0  0  0  0  0
  -31.1068   -4.2066   -4.1173 C   0  0  0  0  0  0  0  0  0  0  0  0
  -29.6763   -3.9617   -3.6168 C   0  0  0  0  0  0  0  0  0  0  0  0
 35 36  1  0  0  0
 36 37  1  0  0  0
 36 34  1  0  0  0
 34  1  1  0  0  0
  1  2  1  0  0  0
  1 13  1  0  0  0
  2  3  1  0  0  0
  2  7  2  0  0  0
  3  4  2  0  0  0
  4  5  1  0  0  0
  5 27  1  0  0  0
  5  6  2  0  0  0
 27 28  2  0  0  0
 27 29  1  0  0  0
 29 30  1  0  0  0
 29 33  2  0  0  0
 30 31  2  0  0  0
 31 32  1  0  0  0
 32 33  1  0  0  0
  6  7  1  0  0  0
  7  8  1  0  0  0
  8  9  1  0  0  0
  8 13  2  0  0  0
  9 10  2  0  0  0
  9 25  1  0  0  0
 10 11  1  0  0  0
 10 22  1  0  0  0
 11 12  2  0  0  0
 11 21  1  0  0  0
 12 13  1  0  0  0
 12 14  1  0  0  0
 14 15  1  0  0  0
 15 16  1  0  0  0
 16 17  2  0  0  0
 16 21  1  0  0  0
 17 18  1  0  0  0
 18 19  1  0  0  0
 18 20  1  0  0  0
 20 21  2  0  0  0
 22 23  2  0  0  0
 22 24  1  0  0  0
 24 25  1  0  0  0
 24 26  1  0  0  0
M  END
> <minimizedAffinity>
-6.56981

$$$$
