CHEMBL3930218


 38 42  0  0  0  0  0  0  0  0999 V2000
  -30.5726   -3.9697   -4.7837 C   0  0  0  0  0  0  0  0  0  0  0  0
  -29.7183   -4.2393   -5.9430 N   0  0  0  0  0  0  0  0  0  0  0  0
  -29.4983   -5.6163   -6.2568 C   0  0  0  0  0  0  0  0  0  0  0  0
  -28.7781   -6.5060   -5.4204 C   0  0  0  0  0  0  0  0  0  0  0  0
  -28.6625   -7.9015   -5.6943 C   0  0  0  0  0  0  0  0  0  0  0  0
  -29.4132   -8.4286   -6.7561 C   0  0  0  0  0  0  0  0  0  0  0  0
  -29.9683   -9.7002   -7.1981 C   0  0  0  0  0  0  0  0  0  0  0  0
  -31.2967   -9.5028   -7.0035 N   0  0  0  0  0  0  0  0  0  0  0  0
  -31.4147   -8.2687   -7.5520 N   0  0  0  0  0  0  0  0  0  0  0  0
  -30.2696   -7.5255   -7.3775 C   0  0  0  0  0  0  0  0  0  0  0  0
  -30.1043   -6.1562   -7.3981 C   0  0  0  0  0  0  0  0  0  0  0  0
  -32.3355   -7.9348   -7.7888 H   0  0  0  0  0  0  0  0  0  0  0  0
  -29.7496  -10.3443   -8.5024 C   0  0  0  0  0  0  0  0  0  0  0  0
  -28.5227  -10.5125   -9.0393 C   0  0  0  0  0  0  0  0  0  0  0  0
  -28.1671  -10.2660  -10.4501 C   0  0  0  0  0  0  0  0  0  0  0  0
  -29.0586  -10.5022  -11.5151 C   0  0  0  0  0  0  0  0  0  0  0  0
  -28.7625  -10.0578  -12.8078 C   0  0  0  0  0  0  0  0  0  0  0  0
  -27.5832   -9.3615  -13.0573 C   0  0  0  0  0  0  0  0  0  0  0  0
  -26.7069   -9.0938  -12.0090 C   0  0  0  0  0  0  0  0  0  0  0  0
  -27.0014   -9.5397  -10.7179 C   0  0  0  0  0  0  0  0  0  0  0  0
  -29.0143   -3.1221   -6.4828 C   0  0  0  0  0  0  0  0  0  0  0  0
  -28.9994   -1.8937   -5.8050 C   0  0  0  0  0  0  0  0  0  0  0  0
  -28.4286   -0.7548   -6.3830 C   0  0  0  0  0  0  0  0  0  0  0  0
  -27.7977   -0.8596   -7.6174 C   0  0  0  0  0  0  0  0  0  0  0  0
  -27.6962   -2.0816   -8.2780 C   0  0  0  0  0  0  0  0  0  0  0  0
  -28.3451   -3.1966   -7.7252 C   0  0  0  0  0  0  0  0  0  0  0  0
  -26.9631   -2.2375   -9.4802 N   0  0  0  0  0  0  0  0  0  0  0  0
  -27.2862   -1.6715  -10.6917 C   0  0  0  0  0  0  0  0  0  0  0  0
  -28.2395   -0.9473  -10.9309 O   0  0  0  0  0  0  0  0  0  0  0  0
  -26.1370   -2.8028   -9.4751 H   0  0  0  0  0  0  0  0  0  0  0  0
  -26.4262   -2.0780  -11.6624 O   0  0  0  0  0  0  0  0  0  0  0  0
  -25.0503   -1.9128  -11.2863 C   0  0  0  0  0  0  0  0  0  0  0  0
  -24.1920   -1.2243  -12.3197 C   0  0  0  0  0  0  0  0  0  0  0  0
  -24.6016   -1.1701  -13.6589 C   0  0  0  0  0  0  0  0  0  0  0  0
  -23.8553   -0.4591  -14.6008 C   0  0  0  0  0  0  0  0  0  0  0  0
  -22.6920    0.2044  -14.2163 C   0  0  0  0  0  0  0  0  0  0  0  0
  -22.2689    0.1501  -12.8891 C   0  0  0  0  0  0  0  0  0  0  0  0
  -23.0121   -0.5640  -11.9463 C   0  0  0  0  0  0  0  0  0  0  0  0
  1  2  1  0  0  0
  2 21  1  0  0  0
  2  3  1  0  0  0
 21 22  1  0  0  0
 21 26  2  0  0  0
 22 23  2  0  0  0
 23 24  1  0  0  0
 24 25  2  0  0  0
 25 27  1  0  0  0
 25 26  1  0  0  0
 27 28  1  0  0  0
 27 30  1  0  0  0
 28 29  2  0  0  0
 28 31  1  0  0  0
 31 32  1  0  0  0
 32 33  1  0  0  0
 33 34  1  0  0  0
 33 38  2  0  0  0
 34 35  2  0  0  0
 35 36  1  0  0  0
 36 37  2  0  0  0
 37 38  1  0  0  0
  3  4  1  0  0  0
  3 11  2  0  0  0
  4  5  2  0  0  0
  5  6  1  0  0  0
  6  7  1  0  0  0
  6 10  2  0  0  0
  7 13  1  0  0  0
  7  8  2  0  0  0
 13 14  2  0  0  0
 14 15  1  0  0  0
 15 16  1  0  0  0
 15 20  2  0  0  0
 16 17  2  0  0  0
 17 18  1  0  0  0
 18 19  2  0  0  0
 19 20  1  0  0  0
  8  9  1  0  0  0
  9 10  1  0  0  0
  9 12  1  0  0  0
 10 11  1  0  0  0
M  END
> <minimizedAffinity>
-10.82778

$$$$
