CHEMBL4521028


 41 44  0  0  0  0  0  0  0  0999 V2000
  -30.4979   -7.7460   -6.5850 C   0  0  0  0  0  0  0  0  0  0  0  0
  -29.7314   -8.8504   -6.9619 C   0  0  0  0  0  0  0  0  0  0  0  0
  -28.5442   -9.1789   -6.2768 C   0  0  0  0  0  0  0  0  0  0  0  0
  -27.7359  -10.2833   -6.5899 C   0  0  0  0  0  0  0  0  0  0  0  0
  -26.6351  -10.5729   -5.8744 N   0  0  0  0  0  0  0  0  0  0  0  0
  -26.3244   -9.7493   -4.8761 C   0  0  0  0  0  0  0  0  0  0  0  0
  -26.9915   -8.6435   -4.5289 N   0  0  0  0  0  0  0  0  0  0  0  0
  -28.0984   -8.3634   -5.2289 C   0  0  0  0  0  0  0  0  0  0  0  0
  -28.8189   -7.2114   -4.9350 C   0  0  0  0  0  0  0  0  0  0  0  0
  -30.0114   -6.8777   -5.5950 C   0  0  0  0  0  0  0  0  0  0  0  0
  -32.7487   -8.3856   -6.9511 C   0  0  0  0  0  0  0  0  0  0  0  0
  -31.6743   -7.4878   -7.2300 O   0  0  0  0  0  0  0  0  0  0  0  0
  -28.0617  -11.1100   -7.6978 N   0  0  0  0  0  0  0  0  0  0  0  0
  -27.6496  -12.0337   -7.5921 H   0  0  0  0  0  0  0  0  0  0  0  0
  -28.0227  -10.6674   -9.0401 C   0  0  0  0  0  0  0  0  0  0  0  0
  -26.8783  -10.0450   -9.5570 C   0  0  0  0  0  0  0  0  0  0  0  0
  -26.8012   -9.6952  -10.9050 C   0  0  0  0  0  0  0  0  0  0  0  0
  -27.8861   -9.9407  -11.7417 C   0  0  0  0  0  0  0  0  0  0  0  0
  -27.7429   -9.5462  -13.5835 Br  0  0  0  0  0  0  0  0  0  0  0  0
  -29.0639  -10.4898  -11.2360 C   0  0  0  0  0  0  0  0  0  0  0  0
  -29.1230  -10.8371   -9.8893 C   0  0  0  0  0  0  0  0  0  0  0  0
  -30.2520  -11.3818   -9.4048 F   0  0  0  0  0  0  0  0  0  0  0  0
  -30.5667   -5.6988   -5.1448 O   0  0  0  0  0  0  0  0  0  0  0  0
  -29.9946   -5.1378   -3.9677 C   0  0  0  0  0  0  0  0  0  0  0  0
  -30.4622   -3.7093   -3.7096 C   0  0  0  0  0  0  0  0  0  0  0  0
  -29.2784   -2.9355   -3.4926 O   0  0  0  0  0  0  0  0  0  0  0  0
  -29.2082   -1.7675   -4.2979 C   0  0  0  0  0  0  0  0  0  0  0  0
  -27.8830   -1.7966   -5.0653 C   0  0  0  0  0  0  0  0  0  0  0  0
  -28.0002   -2.4631   -6.3494 N   0  0  0  0  0  0  0  0  0  0  0  0
  -27.9141   -1.7636   -7.5339 C   0  0  0  0  0  0  0  0  0  0  0  0
  -27.7809   -0.5433   -7.5823 O   0  0  0  0  0  0  0  0  0  0  0  0
  -28.1422   -3.4665   -6.3495 H   0  0  0  0  0  0  0  0  0  0  0  0
  -27.9740   -2.6052   -8.7851 C   0  0  0  0  0  0  0  0  0  0  0  0
  -27.3113   -1.9471   -9.8869 N   0  0  0  0  0  0  0  0  0  0  0  0
  -27.8780   -1.3306  -10.9628 C   0  0  0  0  0  0  0  0  0  0  0  0
  -26.9384   -0.8467  -11.7449 N   0  0  0  0  0  0  0  0  0  0  0  0
  -25.7864   -1.2008  -11.0819 C   0  0  0  0  0  0  0  0  0  0  0  0
  -25.9649   -1.8587   -9.9215 N   0  0  0  0  0  0  0  0  0  0  0  0
  -24.4560   -0.9291  -11.6018 N   0  0  0  0  0  0  0  0  0  0  0  0
  -24.1762    0.2538  -11.8598 O   0  0  0  0  0  0  0  0  0  0  0  0
  -23.6849   -1.8906  -11.7626 O   0  0  0  0  0  0  0  0  0  0  0  0
 11 12  1  0  0  0
 12  1  1  0  0  0
  1  2  1  0  0  0
  1 10  2  0  0  0
  2  3  2  0  0  0
  3  4  1  0  0  0
  3  8  1  0  0  0
  4 13  1  0  0  0
  4  5  2  0  0  0
 13 15  1  0  0  0
 13 14  1  0  0  0
 15 16  1  0  0  0
 15 21  2  0  0  0
 16 17  2  0  0  0
 17 18  1  0  0  0
 18 19  1  0  0  0
 18 20  2  0  0  0
 20 21  1  0  0  0
 21 22  1  0  0  0
  5  6  1  0  0  0
  6  7  2  0  0  0
  7  8  1  0  0  0
  8  9  2  0  0  0
  9 10  1  0  0  0
 10 23  1  0  0  0
 23 24  1  0  0  0
 24 25  1  0  0  0
 25 26  1  0  0  0
 26 27  1  0  0  0
 27 28  1  0  0  0
 28 29  1  0  0  0
 29 30  1  0  0  0
 29 32  1  0  0  0
 30 31  2  0  0  0
 30 33  1  0  0  0
 33 34  1  0  0  0
 34 35  1  0  0  0
 34 38  1  0  0  0
 35 36  2  0  0  0
 36 37  1  0  0  0
 37 39  1  0  0  0
 37 38  2  0  0  0
 39 40  2  0  0  0
 39 41  1  0  0  0
M  CHG 1  39   1
M  CHG 1  41  -1
M  END
> <minimizedAffinity>
-8.02275

$$$$
