CHEMBL4162947


 42 46  0  0  0  0  0  0  0  0999 V2000
  -14.9498   -1.2010  -14.2202 N   0  0  0  0  0  0  0  0  0  0  0  0
  -15.1614   -1.2854  -12.8610 C   0  0  0  0  0  0  0  0  0  0  0  0
  -15.3482   -0.3563  -12.0881 O   0  0  0  0  0  0  0  0  0  0  0  0
  -14.9981   -2.0554  -14.7603 H   0  0  0  0  0  0  0  0  0  0  0  0
  -14.4881    2.4713  -16.2924 C   0  0  0  0  0  0  0  0  0  0  0  0
  -15.7675    1.9942  -15.9500 C   0  0  0  0  0  0  0  0  0  0  0  0
  -15.9440    0.7654  -15.2956 C   0  0  0  0  0  0  0  0  0  0  0  0
  -14.8374   -0.0017  -14.9401 C   0  0  0  0  0  0  0  0  0  0  0  0
  -13.5606    0.4533  -15.2580 C   0  0  0  0  0  0  0  0  0  0  0  0
  -13.3929    1.6564  -15.9528 C   0  0  0  0  0  0  0  0  0  0  0  0
  -16.0722    7.2420  -21.4776 N   0  0  0  0  0  0  0  0  0  0  0  0
  -15.2872    6.8917  -20.3999 C   0  0  0  0  0  0  0  0  0  0  0  0
  -14.3175    7.7398  -20.0550 N   0  0  0  0  0  0  0  0  0  0  0  0
  -13.5773    7.3874  -18.9885 C   0  0  0  0  0  0  0  0  0  0  0  0
  -13.7817    6.2296  -18.2559 C   0  0  0  0  0  0  0  0  0  0  0  0
  -12.9994    5.8583  -17.1506 C   0  0  0  0  0  0  0  0  0  0  0  0
  -13.2514    4.6518  -16.4976 C   0  0  0  0  0  0  0  0  0  0  0  0
  -14.2836    3.7998  -16.9212 C   0  0  0  0  0  0  0  0  0  0  0  0
  -15.0690    4.2347  -18.0117 C   0  0  0  0  0  0  0  0  0  0  0  0
  -14.8322    5.4262  -18.6974 C   0  0  0  0  0  0  0  0  0  0  0  0
  -15.5878    5.7600  -19.7539 N   0  0  0  0  0  0  0  0  0  0  0  0
  -16.0454    8.2405  -21.6043 H   0  0  0  0  0  0  0  0  0  0  0  0
  -16.9806    6.8060  -21.3899 H   0  0  0  0  0  0  0  0  0  0  0  0
  -15.1570   -2.6848  -12.3219 C   0  0  0  0  0  0  0  0  0  0  0  0
  -16.2458   -3.1017  -11.3250 C   0  0  0  0  0  0  0  0  0  0  0  0
  -14.8392   -2.9262  -10.8508 C   0  0  0  0  0  0  0  0  0  0  0  0
  -14.7581   -3.7026  -13.3373 C   0  0  0  0  0  0  0  0  0  0  0  0
  -15.5533   -3.9358  -14.2378 O   0  0  0  0  0  0  0  0  0  0  0  0
  -13.5233   -4.2952  -13.1347 N   0  0  0  0  0  0  0  0  0  0  0  0
  -13.0525   -4.1220  -12.2559 H   0  0  0  0  0  0  0  0  0  0  0  0
  -12.9735   -5.2950  -13.9723 C   0  0  0  0  0  0  0  0  0  0  0  0
  -13.2131   -6.6496  -13.7115 C   0  0  0  0  0  0  0  0  0  0  0  0
  -12.5069   -7.6486  -14.3647 C   0  0  0  0  0  0  0  0  0  0  0  0
  -11.6668   -7.3011  -15.4248 C   0  0  0  0  0  0  0  0  0  0  0  0
  -11.5048   -5.9565  -15.7877 C   0  0  0  0  0  0  0  0  0  0  0  0
  -12.1518   -4.9565  -15.0612 C   0  0  0  0  0  0  0  0  0  0  0  0
  -11.8394   -3.1486  -15.5467 Br  0  0  0  0  0  0  0  0  0  0  0  0
  -12.5960   -8.9757  -14.0821 O   0  0  0  0  0  0  0  0  0  0  0  0
  -12.5267   -9.3898  -12.7160 C   0  0  0  0  0  0  0  0  0  0  0  0
  -11.6798   -8.6808  -11.9466 F   0  0  0  0  0  0  0  0  0  0  0  0
  -13.7626   -9.3263  -12.1743 F   0  0  0  0  0  0  0  0  0  0  0  0
  -12.1190  -10.6798  -12.6819 F   0  0  0  0  0  0  0  0  0  0  0  0
 11 12  1  0  0  0
 11 22  1  0  0  0
 11 23  1  0  0  0
 12 13  1  0  0  0
 12 21  2  0  0  0
 13 14  2  0  0  0
 14 15  1  0  0  0
 15 16  1  0  0  0
 15 20  2  0  0  0
 16 17  2  0  0  0
 17 18  1  0  0  0
 18  5  1  0  0  0
 18 19  2  0  0  0
  5  6  1  0  0  0
  5 10  2  0  0  0
  6  7  2  0  0  0
  7  8  1  0  0  0
  8  1  1  0  0  0
  8  9  2  0  0  0
  1  2  1  0  0  0
  1  4  1  0  0  0
  2  3  2  0  0  0
  2 24  1  0  0  0
 24 27  1  0  0  0
 24 25  1  0  0  0
 24 26  1  0  0  0
 27 28  2  0  0  0
 27 29  1  0  0  0
 29 31  1  0  0  0
 29 30  1  0  0  0
 31 32  1  0  0  0
 31 36  2  0  0  0
 32 33  2  0  0  0
 33 38  1  0  0  0
 33 34  1  0  0  0
 38 39  1  0  0  0
 39 40  1  0  0  0
 39 41  1  0  0  0
 39 42  1  0  0  0
 34 35  2  0  0  0
 35 36  1  0  0  0
 36 37  1  0  0  0
 25 26  1  0  0  0
  9 10  1  0  0  0
 19 20  1  0  0  0
 20 21  1  0  0  0
M  END
> <minimizedAffinity>
-7.34512

$$$$
