CHEMBL3612840


 39 44  0  0  0  0  0  0  0  0999 V2000
  -17.4178    0.2130  -15.0106 N   0  0  0  0  0  0  0  0  0  0  0  0
  -16.4257    1.1502  -15.2649 C   0  0  0  0  0  0  0  0  0  0  0  0
  -16.8772    2.2361  -15.9221 N   0  0  0  0  0  0  0  0  0  0  0  0
  -16.0353    3.2379  -16.2205 C   0  0  0  0  0  0  0  0  0  0  0  0
  -14.6905    3.2599  -15.8978 C   0  0  0  0  0  0  0  0  0  0  0  0
  -14.2088    2.1245  -15.2150 C   0  0  0  0  0  0  0  0  0  0  0  0
  -12.5851    1.8336  -14.7017 S   0  0  0  0  0  0  0  0  0  0  0  0
  -12.9624    0.3213  -14.0713 C   0  0  0  0  0  0  0  0  0  0  0  0
  -14.2935   -0.0192  -14.2104 C   0  0  0  0  0  0  0  0  0  0  0  0
  -15.0534    1.0395  -14.8897 C   0  0  0  0  0  0  0  0  0  0  0  0
  -18.3196    0.6251  -15.2284 H   0  0  0  0  0  0  0  0  0  0  0  0
  -17.3517   -0.2161  -14.0975 H   0  0  0  0  0  0  0  0  0  0  0  0
  -14.7273   -1.3188  -13.6815 C   0  0  0  0  0  0  0  0  0  0  0  0
  -15.4725   -1.3697  -12.4935 C   0  0  0  0  0  0  0  0  0  0  0  0
  -15.8980   -2.5853  -11.9670 C   0  0  0  0  0  0  0  0  0  0  0  0
  -15.7036   -3.7642  -12.6868 C   0  0  0  0  0  0  0  0  0  0  0  0
  -14.9119   -3.7400  -13.8321 C   0  0  0  0  0  0  0  0  0  0  0  0
  -14.3910   -2.5272  -14.3001 C   0  0  0  0  0  0  0  0  0  0  0  0
  -16.2465   -4.9816  -12.3302 O   0  0  0  0  0  0  0  0  0  0  0  0
  -15.4117   -6.0798  -12.3064 C   0  0  0  0  0  0  0  0  0  0  0  0
  -14.4206   -6.2683  -11.3352 C   0  0  0  0  0  0  0  0  0  0  0  0
  -13.5096   -7.3145  -11.4641 C   0  0  0  0  0  0  0  0  0  0  0  0
  -13.6401   -8.2202  -12.5149 C   0  0  0  0  0  0  0  0  0  0  0  0
  -14.6926   -8.0924  -13.4235 C   0  0  0  0  0  0  0  0  0  0  0  0
  -15.5810   -7.0214  -13.3197 C   0  0  0  0  0  0  0  0  0  0  0  0
  -13.8307    4.3519  -16.3006 C   0  0  0  0  0  0  0  0  0  0  0  0
  -13.2622    5.4399  -15.5978 C   0  0  0  0  0  0  0  0  0  0  0  0
  -12.4686    6.1947  -16.3636 N   0  0  0  0  0  0  0  0  0  0  0  0
  -12.5666    5.6204  -17.5804 N   0  0  0  0  0  0  0  0  0  0  0  0
  -13.3496    4.5013  -17.5833 C   0  0  0  0  0  0  0  0  0  0  0  0
  -11.7579    6.1112  -18.6785 C   0  0  0  0  0  0  0  0  0  0  0  0
  -12.5411    6.2466  -19.9702 C   0  0  0  0  0  0  0  0  0  0  0  0
  -12.4261    5.4502  -20.9036 O   0  0  0  0  0  0  0  0  0  0  0  0
  -13.3991    7.3348  -20.0595 N   0  0  0  0  0  0  0  0  0  0  0  0
  -13.5874    8.3872  -19.0506 C   0  0  0  0  0  0  0  0  0  0  0  0
  -15.0790    8.5505  -18.7334 C   0  0  0  0  0  0  0  0  0  0  0  0
  -15.8419    8.7792  -19.9277 O   0  0  0  0  0  0  0  0  0  0  0  0
  -15.6898    7.6861  -20.8503 C   0  0  0  0  0  0  0  0  0  0  0  0
  -14.2224    7.5154  -21.2538 C   0  0  0  0  0  0  0  0  0  0  0  0
  1  2  1  0  0  0
  1 11  1  0  0  0
  1 12  1  0  0  0
  2  3  1  0  0  0
  2 10  2  0  0  0
  3  4  2  0  0  0
  4  5  1  0  0  0
  5 26  1  0  0  0
  5  6  2  0  0  0
 26 27  1  0  0  0
 26 30  2  0  0  0
 27 28  2  0  0  0
 28 29  1  0  0  0
 29 31  1  0  0  0
 29 30  1  0  0  0
 31 32  1  0  0  0
 32 33  2  0  0  0
 32 34  1  0  0  0
 34 35  1  0  0  0
 34 39  1  0  0  0
 35 36  1  0  0  0
 36 37  1  0  0  0
 37 38  1  0  0  0
 38 39  1  0  0  0
  6  7  1  0  0  0
  6 10  1  0  0  0
  7  8  1  0  0  0
  8  9  2  0  0  0
  9 13  1  0  0  0
  9 10  1  0  0  0
 13 14  1  0  0  0
 13 18  2  0  0  0
 14 15  2  0  0  0
 15 16  1  0  0  0
 16 19  1  0  0  0
 16 17  2  0  0  0
 19 20  1  0  0  0
 20 21  1  0  0  0
 20 25  2  0  0  0
 21 22  2  0  0  0
 22 23  1  0  0  0
 23 24  2  0  0  0
 24 25  1  0  0  0
 17 18  1  0  0  0
M  END
> <minimizedAffinity>
-7.69380

$$$$
