CHEMBL182904


 23 26  0  0  0  0  0  0  0  0999 V2000
  -28.8074   -2.7607   -5.9363 C   0  0  0  0  0  0  0  0  0  0  0  0
  -29.0311   -1.8571   -4.9634 N   0  0  0  0  0  0  0  0  0  0  0  0
  -28.7190   -0.5682   -5.1800 C   0  0  0  0  0  0  0  0  0  0  0  0
  -28.1876   -0.0308   -6.2839 N   0  0  0  0  0  0  0  0  0  0  0  0
  -27.9806   -0.9592   -7.2256 C   0  0  0  0  0  0  0  0  0  0  0  0
  -27.4679   -0.6664   -8.4531 O   0  0  0  0  0  0  0  0  0  0  0  0
  -27.4077   -1.8292   -9.1674 C   0  0  0  0  0  0  0  0  0  0  0  0
  -27.8605   -2.8749   -8.3845 C   0  0  0  0  0  0  0  0  0  0  0  0
  -28.2501   -2.3168   -7.1385 C   0  0  0  0  0  0  0  0  0  0  0  0
  -26.9178   -1.7301  -10.5403 C   0  0  0  0  0  0  0  0  0  0  0  0
  -27.7683   -1.9230  -11.6409 C   0  0  0  0  0  0  0  0  0  0  0  0
  -27.2801   -1.8374  -12.9501 C   0  0  0  0  0  0  0  0  0  0  0  0
  -25.9348   -1.5569  -13.1707 C   0  0  0  0  0  0  0  0  0  0  0  0
  -25.3310   -1.4457  -14.7770 Cl  0  0  0  0  0  0  0  0  0  0  0  0
  -25.0735   -1.3658  -12.0949 C   0  0  0  0  0  0  0  0  0  0  0  0
  -25.5637   -1.4521  -10.7882 C   0  0  0  0  0  0  0  0  0  0  0  0
  -27.4638   -4.7650   -4.2877 O   0  0  0  0  0  0  0  0  0  0  0  0
  -28.4504   -4.9943   -4.9723 C   0  0  0  0  0  0  0  0  0  0  0  0
  -29.1364   -4.1146   -5.7745 N   0  0  0  0  0  0  0  0  0  0  0  0
  -29.9501   -4.4511   -6.2651 H   0  0  0  0  0  0  0  0  0  0  0  0
  -29.0523   -6.3664   -4.9586 C   0  0  0  0  0  0  0  0  0  0  0  0
  -30.5313   -6.5266   -5.2287 C   0  0  0  0  0  0  0  0  0  0  0  0
  -29.9965   -6.7697   -3.8476 C   0  0  0  0  0  0  0  0  0  0  0  0
 17 18  2  0  0  0
 18 19  1  0  0  0
 18 21  1  0  0  0
 19  1  1  0  0  0
 19 20  1  0  0  0
  1  2  1  0  0  0
  1  9  2  0  0  0
  2  3  2  0  0  0
  3  4  1  0  0  0
  4  5  2  0  0  0
  5  6  1  0  0  0
  5  9  1  0  0  0
  6  7  1  0  0  0
  7 10  1  0  0  0
  7  8  2  0  0  0
 10 11  1  0  0  0
 10 16  2  0  0  0
 11 12  2  0  0  0
 12 13  1  0  0  0
 13 14  1  0  0  0
 13 15  2  0  0  0
 15 16  1  0  0  0
  8  9  1  0  0  0
 21 22  1  0  0  0
 21 23  1  0  0  0
 22 23  1  0  0  0
M  END
> <minimizedAffinity>
-8.45117

$$$$
