CHEMBL206146


 32 36  0  0  0  0  0  0  0  0999 V2000
  -29.8085   -3.5674   -5.3141 C   0  0  0  0  0  0  0  0  0  0  0  0
  -30.0910   -3.1209   -4.1373 N   0  0  0  0  0  0  0  0  0  0  0  0
  -29.5574   -1.9027   -3.7997 C   0  0  0  0  0  0  0  0  0  0  0  0
  -28.8316   -1.1305   -4.5514 N   0  0  0  0  0  0  0  0  0  0  0  0
  -28.5785   -1.6295   -5.7701 N   0  0  0  0  0  0  0  0  0  0  0  0
  -27.8561   -1.0102   -6.7383 C   0  0  0  0  0  0  0  0  0  0  0  0
  -27.7414   -1.8827   -7.8016 C   0  0  0  0  0  0  0  0  0  0  0  0
  -28.5208   -3.0400   -7.5062 C   0  0  0  0  0  0  0  0  0  0  0  0
  -28.7574   -4.2326   -8.3636 C   0  0  0  0  0  0  0  0  0  0  0  0
  -28.9967   -2.8388   -6.2185 C   0  0  0  0  0  0  0  0  0  0  0  0
  -30.2558   -4.7600   -5.8440 O   0  0  0  0  0  0  0  0  0  0  0  0
  -28.9928  -11.9782   -5.5563 C   0  0  0  0  0  0  0  0  0  0  0  0
  -28.9392  -10.5073   -5.7307 C   0  0  0  0  0  0  0  0  0  0  0  0
  -29.7158   -9.6589   -6.4931 C   0  0  0  0  0  0  0  0  0  0  0  0
  -29.4114   -8.3253   -6.1020 C   0  0  0  0  0  0  0  0  0  0  0  0
  -29.9685   -7.0672   -6.3894 C   0  0  0  0  0  0  0  0  0  0  0  0
  -31.0092   -6.9621   -7.2323 F   0  0  0  0  0  0  0  0  0  0  0  0
  -29.4916   -5.9420   -5.7117 C   0  0  0  0  0  0  0  0  0  0  0  0
  -28.4493   -6.0354   -4.7952 C   0  0  0  0  0  0  0  0  0  0  0  0
  -27.8430   -7.2700   -4.5348 C   0  0  0  0  0  0  0  0  0  0  0  0
  -28.3659   -8.3976   -5.1793 C   0  0  0  0  0  0  0  0  0  0  0  0
  -28.0437   -9.7285   -5.0383 N   0  0  0  0  0  0  0  0  0  0  0  0
  -27.3267  -10.0787   -4.4179 H   0  0  0  0  0  0  0  0  0  0  0  0
  -27.0114   -1.6751   -8.9245 O   0  0  0  0  0  0  0  0  0  0  0  0
  -27.8304   -1.4731  -10.0821 C   0  0  0  0  0  0  0  0  0  0  0  0
  -26.9726   -1.4520  -11.3368 C   0  0  0  0  0  0  0  0  0  0  0  0
  -25.4900   -1.3997  -10.9400 C   0  0  0  0  0  0  0  0  0  0  0  0
  -24.6075   -2.0210  -11.9373 N   0  0  0  0  0  0  0  0  0  0  0  0
  -23.1880   -1.8022  -11.6042 C   0  0  0  0  0  0  0  0  0  0  0  0
  -22.8310   -0.4893  -12.2721 C   0  0  0  0  0  0  0  0  0  0  0  0
  -23.5871   -0.5686  -13.5816 C   0  0  0  0  0  0  0  0  0  0  0  0
  -24.7904   -1.4545  -13.2851 C   0  0  0  0  0  0  0  0  0  0  0  0
 12 13  1  0  0  0
 13 14  2  0  0  0
 13 22  1  0  0  0
 14 15  1  0  0  0
 15 16  1  0  0  0
 15 21  2  0  0  0
 16 17  1  0  0  0
 16 18  2  0  0  0
 18 11  1  0  0  0
 18 19  1  0  0  0
 11  1  1  0  0  0
  1  2  2  0  0  0
  1 10  1  0  0  0
  2  3  1  0  0  0
  3  4  2  0  0  0
  4  5  1  0  0  0
  5  6  1  0  0  0
  5 10  1  0  0  0
  6  7  2  0  0  0
  7 24  1  0  0  0
  7  8  1  0  0  0
 24 25  1  0  0  0
 25 26  1  0  0  0
 26 27  1  0  0  0
 27 28  1  0  0  0
 28 29  1  0  0  0
 28 32  1  0  0  0
 29 30  1  0  0  0
 30 31  1  0  0  0
 31 32  1  0  0  0
  8  9  1  0  0  0
  8 10  2  0  0  0
 19 20  2  0  0  0
 20 21  1  0  0  0
 21 22  1  0  0  0
 22 23  1  0  0  0
M  END
> <minimizedAffinity>
-8.84133

$$$$
