CHEMBL3984316


 33 37  0  0  0  0  0  0  0  0999 V2000
  -26.8324   -1.7794  -11.0050 C   0  0  0  0  0  0  0  0  0  0  0  0
  -27.8295   -2.1178  -11.9384 C   0  0  0  0  0  0  0  0  0  0  0  0
  -27.6057   -2.0134  -13.3012 C   0  0  0  0  0  0  0  0  0  0  0  0
  -26.3788   -1.5455  -13.7668 C   0  0  0  0  0  0  0  0  0  0  0  0
  -25.3245   -1.1338  -12.9139 C   0  0  0  0  0  0  0  0  0  0  0  0
  -25.5781   -1.2995  -11.5087 C   0  0  0  0  0  0  0  0  0  0  0  0
  -24.1247   -0.6170  -13.4888 N   0  0  0  0  0  0  0  0  0  0  0  0
  -22.9190   -1.4395  -13.6538 C   0  0  0  0  0  0  0  0  0  0  0  0
  -21.6559   -0.7555  -14.2824 C   0  0  0  0  0  0  0  0  0  0  0  0
  -21.5221    0.7486  -14.2016 C   0  0  0  0  0  0  0  0  0  0  0  0
  -22.6526    1.4540  -13.8035 C   0  0  0  0  0  0  0  0  0  0  0  0
  -22.5752    2.8431  -13.8034 C   0  0  0  0  0  0  0  0  0  0  0  0
  -21.5444    3.5624  -14.2777 N   0  0  0  0  0  0  0  0  0  0  0  0
  -20.4639    2.9033  -14.6894 C   0  0  0  0  0  0  0  0  0  0  0  0
  -19.4382    3.6894  -15.1996 C   0  0  0  0  0  0  0  0  0  0  0  0
  -18.2004    3.1551  -15.5313 C   0  0  0  0  0  0  0  0  0  0  0  0
  -17.9933    1.7960  -15.3526 C   0  0  0  0  0  0  0  0  0  0  0  0
  -19.0536    0.9671  -14.9306 C   0  0  0  0  0  0  0  0  0  0  0  0
  -20.3399    1.4907  -14.6076 C   0  0  0  0  0  0  0  0  0  0  0  0
  -23.9679    0.8476  -13.4119 C   0  0  0  0  0  0  0  0  0  0  0  0
  -28.2442   -2.9059   -9.2315 N   0  0  0  0  0  0  0  0  0  0  0  0
  -27.2802   -1.9576   -9.5492 C   0  0  0  0  0  0  0  0  0  0  0  0
  -26.7451   -1.2309   -8.7095 O   0  0  0  0  0  0  0  0  0  0  0  0
  -28.6271   -3.4553   -9.9849 H   0  0  0  0  0  0  0  0  0  0  0  0
  -29.7005   -4.9389   -6.4084 C   0  0  0  0  0  0  0  0  0  0  0  0
  -29.6841   -4.0023   -5.3624 C   0  0  0  0  0  0  0  0  0  0  0  0
  -29.2212   -2.7197   -5.5744 C   0  0  0  0  0  0  0  0  0  0  0  0
  -28.7485   -2.3328   -6.8425 C   0  0  0  0  0  0  0  0  0  0  0  0
  -28.7438   -3.2272   -7.9190 C   0  0  0  0  0  0  0  0  0  0  0  0
  -29.2440   -4.5234   -7.6867 C   0  0  0  0  0  0  0  0  0  0  0  0
  -31.0845   -6.3879   -4.8596 C   0  0  0  0  0  0  0  0  0  0  0  0
  -30.1710   -6.3537   -6.0894 C   0  0  0  0  0  0  0  0  0  0  0  0
  -30.8226   -7.0950   -7.2550 C   0  0  0  0  0  0  0  0  0  0  0  0
 31 32  1  0  0  0
 32 33  1  0  0  0
 32 25  1  0  0  0
 25 26  1  0  0  0
 25 30  2  0  0  0
 26 27  2  0  0  0
 27 28  1  0  0  0
 28 29  2  0  0  0
 29 21  1  0  0  0
 29 30  1  0  0  0
 21 22  1  0  0  0
 21 24  1  0  0  0
 22 23  2  0  0  0
 22  1  1  0  0  0
  1  2  1  0  0  0
  1  6  2  0  0  0
  2  3  2  0  0  0
  3  4  1  0  0  0
  4  5  2  0  0  0
  5  7  1  0  0  0
  5  6  1  0  0  0
  7  8  1  0  0  0
  7 20  1  0  0  0
  8  9  1  0  0  0
  9 10  1  0  0  0
 10 11  1  0  0  0
 10 19  2  0  0  0
 11 12  2  0  0  0
 11 20  1  0  0  0
 12 13  1  0  0  0
 13 14  2  0  0  0
 14 15  1  0  0  0
 14 19  1  0  0  0
 15 16  2  0  0  0
 16 17  1  0  0  0
 17 18  2  0  0  0
 18 19  1  0  0  0
M  END
> <minimizedAffinity>
-12.21483

$$$$
