CHEMBL3955685


 34 37  0  0  0  0  0  0  0  0999 V2000
  -28.2097  -10.0176   -5.6460 N   0  0  0  0  0  0  0  0  0  0  0  0
  -28.3429   -8.6233   -5.2224 C   0  0  0  0  0  0  0  0  0  0  0  0
  -28.9294   -8.4844   -3.9695 C   0  0  0  0  0  0  0  0  0  0  0  0
  -29.4471   -7.3131   -3.5457 C   0  0  0  0  0  0  0  0  0  0  0  0
  -29.3773   -6.1956   -4.3162 C   0  0  0  0  0  0  0  0  0  0  0  0
  -30.0928   -5.1687   -3.8765 N   0  0  0  0  0  0  0  0  0  0  0  0
  -30.0947   -3.9951   -4.4749 C   0  0  0  0  0  0  0  0  0  0  0  0
  -29.2312   -3.7337   -5.5396 C   0  0  0  0  0  0  0  0  0  0  0  0
  -28.5440   -4.8344   -6.1052 N   0  0  0  0  0  0  0  0  0  0  0  0
  -28.6497   -6.1176   -5.5197 C   0  0  0  0  0  0  0  0  0  0  0  0
  -28.1135   -7.3983   -6.0129 C   0  0  0  0  0  0  0  0  0  0  0  0
  -29.0371   -2.2092   -5.7461 C   0  0  0  0  0  0  0  0  0  0  0  0
  -28.0472   -1.6684   -6.5976 C   0  0  0  0  0  0  0  0  0  0  0  0
  -28.2194   -0.3575   -6.7571 N   0  0  0  0  0  0  0  0  0  0  0  0
  -29.2621   -0.0005   -6.0408 N   0  0  0  0  0  0  0  0  0  0  0  0
  -29.7683    1.3668   -6.1383 C   0  0  0  0  0  0  0  0  0  0  0  0
  -29.7649   -1.0634   -5.3750 C   0  0  0  0  0  0  0  0  0  0  0  0
  -26.0511  -11.0099   -8.5398 C   0  0  0  0  0  0  0  0  0  0  0  0
  -25.0015  -11.6909   -7.9083 C   0  0  0  0  0  0  0  0  0  0  0  0
  -25.0074  -11.8473   -6.5220 C   0  0  0  0  0  0  0  0  0  0  0  0
  -26.0439  -11.2955   -5.7265 C   0  0  0  0  0  0  0  0  0  0  0  0
  -27.0938  -10.5774   -6.3658 C   0  0  0  0  0  0  0  0  0  0  0  0
  -27.0865  -10.4917   -7.7729 C   0  0  0  0  0  0  0  0  0  0  0  0
  -27.2241  -10.4676  -10.6057 C   0  0  0  0  0  0  0  0  0  0  0  0
  -26.1029  -10.7967   -9.8782 O   0  0  0  0  0  0  0  0  0  0  0  0
  -26.0719  -11.5022   -4.3775 O   0  0  0  0  0  0  0  0  0  0  0  0
  -25.5254  -10.6463   -3.4299 C   0  0  0  0  0  0  0  0  0  0  0  0
  -29.4174  -10.8835   -5.4193 C   0  0  0  0  0  0  0  0  0  0  0  0
  -30.3956  -10.9811   -6.6334 C   0  0  0  0  0  0  0  0  0  0  0  0
  -31.5498  -10.0493   -6.5014 N   0  0  0  0  0  0  0  0  0  0  0  0
  -31.4661   -9.5345   -5.5850 H   0  0  0  0  0  0  0  0  0  0  0  0
  -31.6170   -9.0214   -7.5775 C   0  0  0  0  0  0  0  0  0  0  0  0
  -31.6965   -7.5954   -7.0083 C   0  0  0  0  0  0  0  0  0  0  0  0
  -30.3896   -9.0869   -8.5157 C   0  0  0  0  0  0  0  0  0  0  0  0
 24 25  1  0  0  0
 25 18  1  0  0  0
 18 19  1  0  0  0
 18 23  2  0  0  0
 19 20  2  0  0  0
 20 21  1  0  0  0
 21 26  1  0  0  0
 21 22  2  0  0  0
 26 27  1  0  0  0
 22  1  1  0  0  0
 22 23  1  0  0  0
  1 28  1  0  0  0
  1  2  1  0  0  0
 28 29  1  0  0  0
 29 30  1  0  0  0
 30 32  1  0  0  0
 30 31  1  0  0  0
 32 33  1  0  0  0
 32 34  1  0  0  0
  2  3  1  0  0  0
  2 11  2  0  0  0
  3  4  2  0  0  0
  4  5  1  0  0  0
  5  6  1  0  0  0
  5 10  2  0  0  0
  6  7  2  0  0  0
  7  8  1  0  0  0
  8 12  1  0  0  0
  8  9  2  0  0  0
 12 13  1  0  0  0
 12 17  2  0  0  0
 13 14  2  0  0  0
 14 15  1  0  0  0
 15 16  1  0  0  0
 15 17  1  0  0  0
  9 10  1  0  0  0
 10 11  1  0  0  0
M  END
> <minimizedAffinity>
-7.02491

$$$$
