CHEMBL1271781


 22 24  0  0  0  0  0  0  0  0999 V2000
  -16.7941    1.3332  -14.0487 O   0  0  0  0  0  0  0  0  0  0  0  0
  -16.8300    1.7322  -15.2095 C   0  0  0  0  0  0  0  0  0  0  0  0
  -17.9716    2.0997  -15.8981 N   0  0  0  0  0  0  0  0  0  0  0  0
  -17.8948    2.2935  -16.8894 H   0  0  0  0  0  0  0  0  0  0  0  0
  -19.2756    2.1455  -15.3503 C   0  0  0  0  0  0  0  0  0  0  0  0
  -19.9570    3.3127  -15.0256 C   0  0  0  0  0  0  0  0  0  0  0  0
  -21.1913    3.3512  -14.4632 N   0  0  0  0  0  0  0  0  0  0  0  0
  -21.7904    2.1858  -14.1790 C   0  0  0  0  0  0  0  0  0  0  0  0
  -23.0284    2.1996  -13.5555 C   0  0  0  0  0  0  0  0  0  0  0  0
  -23.6875    1.0174  -13.2097 C   0  0  0  0  0  0  0  0  0  0  0  0
  -23.1041   -0.2096  -13.5033 C   0  0  0  0  0  0  0  0  0  0  0  0
  -21.8663   -0.2505  -14.1441 C   0  0  0  0  0  0  0  0  0  0  0  0
  -21.1972    0.9420  -14.4822 C   0  0  0  0  0  0  0  0  0  0  0  0
  -19.9348    0.9416  -15.0982 C   0  0  0  0  0  0  0  0  0  0  0  0
  -15.5542    1.7179  -15.9580 C   0  0  0  0  0  0  0  0  0  0  0  0
  -14.8642    0.4925  -15.9908 C   0  0  0  0  0  0  0  0  0  0  0  0
  -13.6325    0.4078  -16.6253 C   0  0  0  0  0  0  0  0  0  0  0  0
  -12.7662   -1.0709  -16.6673 Cl  0  0  0  0  0  0  0  0  0  0  0  0
  -13.1246    1.5498  -17.2164 C   0  0  0  0  0  0  0  0  0  0  0  0
  -13.7606    2.7465  -17.2061 N   0  0  0  0  0  0  0  0  0  0  0  0
  -14.9561    2.8210  -16.5636 C   0  0  0  0  0  0  0  0  0  0  0  0
  -15.7165    4.5655  -16.5057 Br  0  0  0  0  0  0  0  0  0  0  0  0
  1  2  2  0  0  0
  2  3  1  0  0  0
  2 15  1  0  0  0
  3  5  1  0  0  0
  3  4  1  0  0  0
  5  6  1  0  0  0
  5 14  2  0  0  0
  6  7  2  0  0  0
  7  8  1  0  0  0
  8  9  1  0  0  0
  8 13  2  0  0  0
  9 10  2  0  0  0
 10 11  1  0  0  0
 11 12  2  0  0  0
 12 13  1  0  0  0
 13 14  1  0  0  0
 15 16  1  0  0  0
 15 21  2  0  0  0
 16 17  2  0  0  0
 17 18  1  0  0  0
 17 19  1  0  0  0
 19 20  2  0  0  0
 20 21  1  0  0  0
 21 22  1  0  0  0
M  END
> <minimizedAffinity>
-7.76655

$$$$
