CHEMBL151219


 29 34  0  0  0  0  0  0  0  0999 V2000
  -28.1261   -8.8453   -9.3472 O   0  0  0  0  0  0  0  0  0  0  0  0
  -28.2118   -7.7960   -8.7208 C   0  0  0  0  0  0  0  0  0  0  0  0
  -27.5004   -6.6592   -9.0851 N   0  0  0  0  0  0  0  0  0  0  0  0
  -27.7276   -5.4793   -8.2791 C   0  0  0  0  0  0  0  0  0  0  0  0
  -28.7415   -6.0062   -7.3686 C   0  0  0  0  0  0  0  0  0  0  0  0
  -29.0050   -7.3696   -7.6018 C   0  0  0  0  0  0  0  0  0  0  0  0
  -30.0017   -8.0397   -6.9246 C   0  0  0  0  0  0  0  0  0  0  0  0
  -30.9935   -7.2857   -6.2743 C   0  0  0  0  0  0  0  0  0  0  0  0
  -30.6243   -6.0366   -5.8357 C   0  0  0  0  0  0  0  0  0  0  0  0
  -29.5363   -5.3908   -6.3655 C   0  0  0  0  0  0  0  0  0  0  0  0
  -29.2652   -4.1359   -5.8561 C   0  0  0  0  0  0  0  0  0  0  0  0
  -28.3146   -3.1162   -6.0599 C   0  0  0  0  0  0  0  0  0  0  0  0
  -28.3301   -1.9903   -5.2415 C   0  0  0  0  0  0  0  0  0  0  0  0
  -29.2550   -1.8848   -4.2151 C   0  0  0  0  0  0  0  0  0  0  0  0
  -30.2228   -2.8770   -4.0014 C   0  0  0  0  0  0  0  0  0  0  0  0
  -30.2281   -4.0074   -4.8425 C   0  0  0  0  0  0  0  0  0  0  0  0
  -31.0469   -5.1659   -4.8448 N   0  0  0  0  0  0  0  0  0  0  0  0
  -32.3163   -7.9853   -6.4542 C   0  0  0  0  0  0  0  0  0  0  0  0
  -31.8886   -9.3452   -7.0094 C   0  0  0  0  0  0  0  0  0  0  0  0
  -32.6114  -10.4717   -7.3636 C   0  0  0  0  0  0  0  0  0  0  0  0
  -31.9042  -11.6431   -7.6892 C   0  0  0  0  0  0  0  0  0  0  0  0
  -30.5015  -11.6846   -7.6381 C   0  0  0  0  0  0  0  0  0  0  0  0
  -29.7854  -10.5234   -7.3768 C   0  0  0  0  0  0  0  0  0  0  0  0
  -30.4925   -9.3553   -7.1461 C   0  0  0  0  0  0  0  0  0  0  0  0
  -26.9675   -6.6714   -9.9410 H   0  0  0  0  0  0  0  0  0  0  0  0
  -32.0106   -5.4555   -3.7886 C   0  0  0  0  0  0  0  0  0  0  0  0
  -31.3819   -5.9989   -2.5001 C   0  0  0  0  0  0  0  0  0  0  0  0
  -30.3959   -6.9980   -2.7440 O   0  0  0  0  0  0  0  0  0  0  0  0
  -30.8665   -7.8420   -2.8794 H   0  0  0  0  0  0  0  0  0  0  0  0
  1  2  2  0  0  0
  2  3  1  0  0  0
  2  6  1  0  0  0
  3  4  1  0  0  0
  3 25  1  0  0  0
  4  5  1  0  0  0
  5  6  1  0  0  0
  5 10  2  0  0  0
  6  7  2  0  0  0
  7  8  1  0  0  0
  7 24  1  0  0  0
  8  9  2  0  0  0
  8 18  1  0  0  0
  9 10  1  0  0  0
  9 17  1  0  0  0
 10 11  1  0  0  0
 11 12  1  0  0  0
 11 16  2  0  0  0
 12 13  2  0  0  0
 13 14  1  0  0  0
 14 15  2  0  0  0
 15 16  1  0  0  0
 16 17  1  0  0  0
 17 26  1  0  0  0
 26 27  1  0  0  0
 27 28  1  0  0  0
 28 29  1  0  0  0
 18 19  1  0  0  0
 19 20  1  0  0  0
 19 24  2  0  0  0
 20 21  2  0  0  0
 21 22  1  0  0  0
 22 23  2  0  0  0
 23 24  1  0  0  0
M  END
> <minimizedAffinity>
-8.04005

$$$$
