CHEMBL224917


 34 39  0  0  0  0  0  0  0  0999 V2000
  -31.4122   -9.7768   -6.9913 C   0  0  0  0  0  0  0  0  0  0  0  0
  -32.3057   -9.3965   -7.9313 N   0  0  0  0  0  0  0  0  0  0  0  0
  -31.7356   -9.9404   -9.0442 N   0  0  0  0  0  0  0  0  0  0  0  0
  -30.8026  -10.8891   -8.7147 C   0  0  0  0  0  0  0  0  0  0  0  0
  -31.1063  -11.1480   -7.3653 C   0  0  0  0  0  0  0  0  0  0  0  0
  -30.2262  -12.2583   -6.8869 C   0  0  0  0  0  0  0  0  0  0  0  0
  -28.9852  -11.7818   -7.6310 C   0  0  0  0  0  0  0  0  0  0  0  0
  -27.7742  -11.7124   -6.9669 C   0  0  0  0  0  0  0  0  0  0  0  0
  -26.9664  -10.6182   -7.2623 C   0  0  0  0  0  0  0  0  0  0  0  0
  -27.2451   -9.8217   -8.4036 C   0  0  0  0  0  0  0  0  0  0  0  0
  -28.4140  -10.0113   -9.1796 C   0  0  0  0  0  0  0  0  0  0  0  0
  -29.3229  -10.9675   -8.7549 C   0  0  0  0  0  0  0  0  0  0  0  0
  -32.2327   -9.8276   -9.9223 H   0  0  0  0  0  0  0  0  0  0  0  0
  -29.4437   -6.5404   -6.9310 C   0  0  0  0  0  0  0  0  0  0  0  0
  -30.3581   -7.4733   -7.3631 C   0  0  0  0  0  0  0  0  0  0  0  0
  -30.4285   -8.6962   -6.5723 C   0  0  0  0  0  0  0  0  0  0  0  0
  -29.4587   -8.6724   -5.5942 C   0  0  0  0  0  0  0  0  0  0  0  0
  -28.5694   -7.1764   -5.5992 S   0  0  0  0  0  0  0  0  0  0  0  0
  -28.8602   -4.0795   -7.9962 C   0  0  0  0  0  0  0  0  0  0  0  0
  -29.2138   -5.2581   -7.5651 C   0  0  0  0  0  0  0  0  0  0  0  0
  -28.4479   -2.7056   -8.4989 C   0  0  0  0  0  0  0  0  0  0  0  0
  -27.3989   -2.1802   -7.6953 O   0  0  0  0  0  0  0  0  0  0  0  0
  -27.7547   -1.1671   -6.8408 C   0  0  0  0  0  0  0  0  0  0  0  0
  -28.3586    0.0387   -7.2039 C   0  0  0  0  0  0  0  0  0  0  0  0
  -28.6777    0.9915   -6.2382 C   0  0  0  0  0  0  0  0  0  0  0  0
  -28.4039    0.7379   -4.8920 C   0  0  0  0  0  0  0  0  0  0  0  0
  -27.8065   -0.4621   -4.5300 C   0  0  0  0  0  0  0  0  0  0  0  0
  -27.4848   -1.4148   -5.4961 C   0  0  0  0  0  0  0  0  0  0  0  0
  -26.0087  -10.1742   -6.1755 C   0  0  0  0  0  0  0  0  0  0  0  0
  -24.6386  -10.5341   -6.4542 N   0  0  0  0  0  0  0  0  0  0  0  0
  -24.1982  -11.5060   -7.2941 C   0  0  0  0  0  0  0  0  0  0  0  0
  -22.8361  -11.3571   -7.2633 C   0  0  0  0  0  0  0  0  0  0  0  0
  -22.5011  -10.3183   -6.4458 N   0  0  0  0  0  0  0  0  0  0  0  0
  -23.6217   -9.8066   -5.9592 N   0  0  0  0  0  0  0  0  0  0  0  0
 19 20  3  0  0  0
 19 21  1  0  0  0
 20 14  1  0  0  0
 14 15  2  0  0  0
 14 18  1  0  0  0
 15 16  1  0  0  0
 16  1  1  0  0  0
 16 17  2  0  0  0
  1  2  2  0  0  0
  1  5  1  0  0  0
  2  3  1  0  0  0
  3  4  1  0  0  0
  3 13  1  0  0  0
  4  5  2  0  0  0
  4 12  1  0  0  0
  5  6  1  0  0  0
  6  7  1  0  0  0
  7  8  1  0  0  0
  7 12  2  0  0  0
  8  9  2  0  0  0
  9 29  1  0  0  0
  9 10  1  0  0  0
 29 30  1  0  0  0
 30 31  1  0  0  0
 30 34  1  0  0  0
 31 32  2  0  0  0
 32 33  1  0  0  0
 33 34  2  0  0  0
 10 11  2  0  0  0
 11 12  1  0  0  0
 17 18  1  0  0  0
 21 22  1  0  0  0
 22 23  1  0  0  0
 23 24  1  0  0  0
 23 28  2  0  0  0
 24 25  2  0  0  0
 25 26  1  0  0  0
 26 27  2  0  0  0
 27 28  1  0  0  0
M  END
> <minimizedAffinity>
-8.83378

$$$$
