CHEMBL333640


 35 39  0  0  0  0  0  0  0  0999 V2000
  -18.4716    2.1741  -15.2015 C   0  0  0  0  0  0  0  0  0  0  0  0
  -19.4348    2.9296  -14.5295 C   0  0  0  0  0  0  0  0  0  0  0  0
  -20.6223    2.3361  -14.1054 C   0  0  0  0  0  0  0  0  0  0  0  0
  -20.8587    0.9828  -14.3596 C   0  0  0  0  0  0  0  0  0  0  0  0
  -19.9121    0.2320  -15.0625 C   0  0  0  0  0  0  0  0  0  0  0  0
  -18.7236    0.8295  -15.4869 C   0  0  0  0  0  0  0  0  0  0  0  0
  -22.0944    0.3714  -13.8942 C   0  0  0  0  0  0  0  0  0  0  0  0
  -22.4752    0.3655  -12.4514 C   0  0  0  0  0  0  0  0  0  0  0  0
  -23.5781   -0.1181  -11.9553 N   0  0  0  0  0  0  0  0  0  0  0  0
  -24.4539   -0.6693  -12.8523 C   0  0  0  0  0  0  0  0  0  0  0  0
  -25.7048   -1.2385  -12.7125 C   0  0  0  0  0  0  0  0  0  0  0  0
  -26.0766   -1.6182  -14.0176 C   0  0  0  0  0  0  0  0  0  0  0  0
  -25.1579   -1.3158  -14.9330 N   0  0  0  0  0  0  0  0  0  0  0  0
  -24.1659   -0.7244  -14.2248 N   0  0  0  0  0  0  0  0  0  0  0  0
  -22.9804   -0.1935  -14.7247 C   0  0  0  0  0  0  0  0  0  0  0  0
  -26.5155   -1.4246  -11.5060 C   0  0  0  0  0  0  0  0  0  0  0  0
  -27.9224   -1.1659  -11.4590 C   0  0  0  0  0  0  0  0  0  0  0  0
  -28.4664   -1.4286  -10.2210 C   0  0  0  0  0  0  0  0  0  0  0  0
  -27.2923   -1.9803   -9.1091 S   0  0  0  0  0  0  0  0  0  0  0  0
  -26.0522   -1.8696  -10.2853 C   0  0  0  0  0  0  0  0  0  0  0  0
  -17.2774    2.6744  -15.6478 O   0  0  0  0  0  0  0  0  0  0  0  0
  -16.1512    1.8324  -15.3847 C   0  0  0  0  0  0  0  0  0  0  0  0
  -16.1127    1.3789  -13.9147 C   0  0  0  0  0  0  0  0  0  0  0  0
  -15.1257    0.3644  -13.4937 N   0  0  0  0  0  0  0  0  0  0  0  0
  -13.7169    0.7880  -13.6898 C   0  0  0  0  0  0  0  0  0  0  0  0
  -12.8851   -0.1945  -14.5338 C   0  0  0  0  0  0  0  0  0  0  0  0
  -11.8506   -1.6562  -13.0294 C   0  0  0  0  0  0  0  0  0  0  0  0
  -11.6522   -0.5375  -13.8937 O   0  0  0  0  0  0  0  0  0  0  0  0
  -15.3431   -0.9521  -14.1183 C   0  0  0  0  0  0  0  0  0  0  0  0
  -15.6309   -2.0912  -13.1565 C   0  0  0  0  0  0  0  0  0  0  0  0
  -15.5957   -1.8758  -11.7693 C   0  0  0  0  0  0  0  0  0  0  0  0
  -15.9732   -2.8849  -10.8811 C   0  0  0  0  0  0  0  0  0  0  0  0
  -16.3920   -4.1204  -11.3677 C   0  0  0  0  0  0  0  0  0  0  0  0
  -16.3905   -4.3632  -12.7411 C   0  0  0  0  0  0  0  0  0  0  0  0
  -16.0009   -3.3582  -13.6309 C   0  0  0  0  0  0  0  0  0  0  0  0
 27 28  1  0  0  0
 28 26  1  0  0  0
 26 25  1  0  0  0
 25 24  1  0  0  0
 24 23  1  0  0  0
 24 29  1  0  0  0
 23 22  1  0  0  0
 22 21  1  0  0  0
 21  1  1  0  0  0
  1  2  1  0  0  0
  1  6  2  0  0  0
  2  3  2  0  0  0
  3  4  1  0  0  0
  4  7  1  0  0  0
  4  5  2  0  0  0
  7  8  1  0  0  0
  7 15  2  0  0  0
  8  9  2  0  0  0
  9 10  1  0  0  0
 10 11  2  0  0  0
 10 14  1  0  0  0
 11 16  1  0  0  0
 11 12  1  0  0  0
 16 17  1  0  0  0
 16 20  2  0  0  0
 17 18  2  0  0  0
 18 19  1  0  0  0
 19 20  1  0  0  0
 12 13  2  0  0  0
 13 14  1  0  0  0
 14 15  1  0  0  0
  5  6  1  0  0  0
 29 30  1  0  0  0
 30 31  1  0  0  0
 30 35  2  0  0  0
 31 32  2  0  0  0
 32 33  1  0  0  0
 33 34  2  0  0  0
 34 35  1  0  0  0
M  END
> <minimizedAffinity>
-8.43265

$$$$
