CHEMBL939


 32 35  0  0  0  0  0  0  0  0999 V2000
  -13.1850    1.0559  -13.6082 C   0  0  0  0  0  0  0  0  0  0  0  0
  -13.3070    2.2379  -14.3459 C   0  0  0  0  0  0  0  0  0  0  0  0
  -14.4518    2.5539  -15.0651 C   0  0  0  0  0  0  0  0  0  0  0  0
  -14.4650    3.7081  -15.7389 N   0  0  0  0  0  0  0  0  0  0  0  0
  -15.5894    4.0017  -16.3942 C   0  0  0  0  0  0  0  0  0  0  0  0
  -16.6965    3.2658  -16.4125 N   0  0  0  0  0  0  0  0  0  0  0  0
  -16.6814    2.1007  -15.7340 C   0  0  0  0  0  0  0  0  0  0  0  0
  -15.5349    1.6730  -15.0439 C   0  0  0  0  0  0  0  0  0  0  0  0
  -15.4190    0.4601  -14.3241 C   0  0  0  0  0  0  0  0  0  0  0  0
  -14.2782    0.1786  -13.5732 C   0  0  0  0  0  0  0  0  0  0  0  0
  -10.8654    0.4092  -13.6451 C   0  0  0  0  0  0  0  0  0  0  0  0
  -12.0596    0.6918  -12.9209 O   0  0  0  0  0  0  0  0  0  0  0  0
  -17.8558    1.3009  -15.6931 N   0  0  0  0  0  0  0  0  0  0  0  0
  -17.6047    0.3650  -15.3966 H   0  0  0  0  0  0  0  0  0  0  0  0
  -19.1210    1.6721  -15.1839 C   0  0  0  0  0  0  0  0  0  0  0  0
  -19.4959    3.0164  -15.0164 C   0  0  0  0  0  0  0  0  0  0  0  0
  -20.7415    3.3618  -14.4926 C   0  0  0  0  0  0  0  0  0  0  0  0
  -21.6500    2.3646  -14.1783 C   0  0  0  0  0  0  0  0  0  0  0  0
  -22.8407    2.7135  -13.6653 F   0  0  0  0  0  0  0  0  0  0  0  0
  -21.3357    1.0293  -14.4074 C   0  0  0  0  0  0  0  0  0  0  0  0
  -22.4790   -0.2125  -14.0625 Cl  0  0  0  0  0  0  0  0  0  0  0  0
  -20.0802    0.6832  -14.9194 C   0  0  0  0  0  0  0  0  0  0  0  0
  -14.3424   -1.0018  -12.8832 O   0  0  0  0  0  0  0  0  0  0  0  0
  -15.6538   -1.5576  -12.7585 C   0  0  0  0  0  0  0  0  0  0  0  0
  -15.7732   -2.3138  -11.4285 C   0  0  0  0  0  0  0  0  0  0  0  0
  -14.8584   -3.5454  -11.4004 C   0  0  0  0  0  0  0  0  0  0  0  0
  -15.4840   -4.7806  -10.8859 N   0  0  0  0  0  0  0  0  0  0  0  0
  -14.6033   -5.9697  -10.9237 C   0  0  0  0  0  0  0  0  0  0  0  0
  -14.2895   -6.4606  -12.3457 C   0  0  0  0  0  0  0  0  0  0  0  0
  -15.4918   -6.7712  -13.0611 O   0  0  0  0  0  0  0  0  0  0  0  0
  -16.3726   -5.6408  -13.1037 C   0  0  0  0  0  0  0  0  0  0  0  0
  -16.6905   -5.1091  -11.6913 C   0  0  0  0  0  0  0  0  0  0  0  0
 11 12  1  0  0  0
 12  1  1  0  0  0
  1  2  1  0  0  0
  1 10  2  0  0  0
  2  3  2  0  0  0
  3  4  1  0  0  0
  3  8  1  0  0  0
  4  5  2  0  0  0
  5  6  1  0  0  0
  6  7  2  0  0  0
  7 13  1  0  0  0
  7  8  1  0  0  0
 13 15  1  0  0  0
 13 14  1  0  0  0
 15 16  1  0  0  0
 15 22  2  0  0  0
 16 17  2  0  0  0
 17 18  1  0  0  0
 18 19  1  0  0  0
 18 20  2  0  0  0
 20 21  1  0  0  0
 20 22  1  0  0  0
  8  9  2  0  0  0
  9 10  1  0  0  0
 10 23  1  0  0  0
 23 24  1  0  0  0
 24 25  1  0  0  0
 25 26  1  0  0  0
 26 27  1  0  0  0
 27 28  1  0  0  0
 27 32  1  0  0  0
 28 29  1  0  0  0
 29 30  1  0  0  0
 30 31  1  0  0  0
 31 32  1  0  0  0
M  END
> <minimizedAffinity>
-8.63955

$$$$
