CHEMBL3696072


 43 46  0  0  0  0  0  0  0  0999 V2000
  -15.3364    0.9902  -14.0833 C   0  0  0  0  0  0  0  0  0  0  0  0
  -16.1694    1.8281  -14.9545 C   0  0  0  0  0  0  0  0  0  0  0  0
  -15.5035    2.7128  -15.7069 N   0  0  0  0  0  0  0  0  0  0  0  0
  -13.8952    2.6455  -15.3344 S   0  0  0  0  0  0  0  0  0  0  0  0
  -14.0104    1.3445  -14.2529 C   0  0  0  0  0  0  0  0  0  0  0  0
  -17.6421    1.8070  -14.9966 C   0  0  0  0  0  0  0  0  0  0  0  0
  -18.3287    2.9485  -14.5891 C   0  0  0  0  0  0  0  0  0  0  0  0
  -19.7062    2.9243  -14.4150 C   0  0  0  0  0  0  0  0  0  0  0  0
  -20.4549    1.7837  -14.7052 C   0  0  0  0  0  0  0  0  0  0  0  0
  -19.7846    0.6742  -15.2398 C   0  0  0  0  0  0  0  0  0  0  0  0
  -18.3824    0.6830  -15.3817 C   0  0  0  0  0  0  0  0  0  0  0  0
  -21.8460    1.7024  -14.4341 N   0  0  0  0  0  0  0  0  0  0  0  0
  -22.4629    0.6745  -13.7404 C   0  0  0  0  0  0  0  0  0  0  0  0
  -21.8796   -0.2349  -13.1600 O   0  0  0  0  0  0  0  0  0  0  0  0
  -23.8499    0.7436  -13.7993 N   0  0  0  0  0  0  0  0  0  0  0  0
  -22.4271    2.4619  -14.7573 H   0  0  0  0  0  0  0  0  0  0  0  0
  -24.2141    1.0662  -14.6836 H   0  0  0  0  0  0  0  0  0  0  0  0
  -24.6162   -0.2472  -13.1313 C   0  0  0  0  0  0  0  0  0  0  0  0
  -25.3285   -1.2178  -13.8490 C   0  0  0  0  0  0  0  0  0  0  0  0
  -26.1787   -2.1063  -13.1914 C   0  0  0  0  0  0  0  0  0  0  0  0
  -26.3199   -2.0311  -11.8088 C   0  0  0  0  0  0  0  0  0  0  0  0
  -25.5869   -1.0896  -11.0840 C   0  0  0  0  0  0  0  0  0  0  0  0
  -24.7166   -0.2123  -11.7399 C   0  0  0  0  0  0  0  0  0  0  0  0
  -12.8167    0.8620  -13.7459 N   0  0  0  0  0  0  0  0  0  0  0  0
  -12.4573   -0.4395  -14.0304 C   0  0  0  0  0  0  0  0  0  0  0  0
  -13.0766   -1.1977  -14.7698 O   0  0  0  0  0  0  0  0  0  0  0  0
  -11.3269   -0.8310  -13.3643 N   0  0  0  0  0  0  0  0  0  0  0  0
  -12.0542    1.5223  -13.6855 H   0  0  0  0  0  0  0  0  0  0  0  0
  -10.8252   -0.1763  -12.7826 H   0  0  0  0  0  0  0  0  0  0  0  0
  -10.7940   -2.1686  -13.5472 C   0  0  0  0  0  0  0  0  0  0  0  0
  -10.9260   -2.9943  -12.2704 C   0  0  0  0  0  0  0  0  0  0  0  0
  -12.3427   -3.5668  -12.1478 C   0  0  0  0  0  0  0  0  0  0  0  0
  -13.0788   -3.1057  -10.9577 N   0  0  0  0  0  0  0  0  0  0  0  0
  -12.5497   -3.7550   -9.7316 C   0  0  0  0  0  0  0  0  0  0  0  0
  -12.9323   -5.2431   -9.5976 C   0  0  0  0  0  0  0  0  0  0  0  0
  -14.3477   -5.4481   -9.7037 O   0  0  0  0  0  0  0  0  0  0  0  0
  -14.8662   -4.8788  -10.9120 C   0  0  0  0  0  0  0  0  0  0  0  0
  -14.5314   -3.3829  -11.0017 C   0  0  0  0  0  0  0  0  0  0  0  0
  -15.9525   -1.2893  -13.6505 N   0  0  0  0  0  0  0  0  0  0  0  0
  -15.8343   -0.0183  -13.1529 C   0  0  0  0  0  0  0  0  0  0  0  0
  -16.0648    0.1886  -11.9666 O   0  0  0  0  0  0  0  0  0  0  0  0
  -16.3834   -1.9631  -13.0324 H   0  0  0  0  0  0  0  0  0  0  0  0
  -15.9607   -1.4701  -14.6419 H   0  0  0  0  0  0  0  0  0  0  0  0
 39 40  1  0  0  0
 39 42  1  0  0  0
 39 43  1  0  0  0
 40 41  2  0  0  0
 40  1  1  0  0  0
  1  2  1  0  0  0
  1  5  2  0  0  0
  2  6  1  0  0  0
  2  3  2  0  0  0
  6  7  1  0  0  0
  6 11  2  0  0  0
  7  8  2  0  0  0
  8  9  1  0  0  0
  9 12  1  0  0  0
  9 10  2  0  0  0
 12 13  1  0  0  0
 12 16  1  0  0  0
 13 14  2  0  0  0
 13 15  1  0  0  0
 15 18  1  0  0  0
 15 17  1  0  0  0
 18 19  1  0  0  0
 18 23  2  0  0  0
 19 20  2  0  0  0
 20 21  1  0  0  0
 21 22  2  0  0  0
 22 23  1  0  0  0
 10 11  1  0  0  0
  3  4  1  0  0  0
  4  5  1  0  0  0
  5 24  1  0  0  0
 24 25  1  0  0  0
 24 28  1  0  0  0
 25 26  2  0  0  0
 25 27  1  0  0  0
 27 30  1  0  0  0
 27 29  1  0  0  0
 30 31  1  0  0  0
 31 32  1  0  0  0
 32 33  1  0  0  0
 33 34  1  0  0  0
 33 38  1  0  0  0
 34 35  1  0  0  0
 35 36  1  0  0  0
 36 37  1  0  0  0
 37 38  1  0  0  0
M  END
> <minimizedAffinity>
-8.73033

$$$$
