CHEMBL3940175


 34 37  0  0  0  0  0  0  0  0999 V2000
  -28.5716   -8.6655   -5.6350 N   0  0  0  0  0  0  0  0  0  0  0  0
  -28.9228   -7.2993   -5.2955 C   0  0  0  0  0  0  0  0  0  0  0  0
  -28.5894   -6.3811   -6.2813 C   0  0  0  0  0  0  0  0  0  0  0  0
  -28.8312   -5.1716   -6.0880 C   0  0  0  0  0  0  0  0  0  0  0  0
  -29.3569   -4.7876   -4.9800 C   0  0  0  0  0  0  0  0  0  0  0  0
  -29.2503   -3.7223   -5.0367 N   0  0  0  0  0  0  0  0  0  0  0  0
  -29.1234   -2.6406   -5.1500 C   0  0  0  0  0  0  0  0  0  0  0  0
  -29.7765   -2.0295   -4.3442 C   0  0  0  0  0  0  0  0  0  0  0  0
  -30.2876   -3.4466   -3.2763 N   0  0  0  0  0  0  0  0  0  0  0  0
  -29.8404   -5.0793   -3.8326 C   0  0  0  0  0  0  0  0  0  0  0  0
  -29.5550   -6.7529   -3.9676 C   0  0  0  0  0  0  0  0  0  0  0  0
  -29.4971   -0.2073   -5.2821 C   0  0  0  0  0  0  0  0  0  0  0  0
  -28.1965    0.4404   -5.9162 C   0  0  0  0  0  0  0  0  0  0  0  0
  -28.5174    1.5362   -6.7367 N   0  0  0  0  0  0  0  0  0  0  0  0
  -29.8248    1.7380   -6.6962 N   0  0  0  0  0  0  0  0  0  0  0  0
  -30.4050    0.7772   -5.8215 C   0  0  0  0  0  0  0  0  0  0  0  0
  -30.3291    2.5176   -7.2975 H   0  0  0  0  0  0  0  0  0  0  0  0
  -31.0421   -9.6627   -8.2013 C   0  0  0  0  0  0  0  0  0  0  0  0
  -30.1851  -10.1340   -9.1562 C   0  0  0  0  0  0  0  0  0  0  0  0
  -28.7698  -10.1247   -9.0306 C   0  0  0  0  0  0  0  0  0  0  0  0
  -28.2515   -9.7024   -7.8306 C   0  0  0  0  0  0  0  0  0  0  0  0
  -29.0865   -9.2856   -6.8266 C   0  0  0  0  0  0  0  0  0  0  0  0
  -30.4618   -9.4484   -7.0507 C   0  0  0  0  0  0  0  0  0  0  0  0
  -33.0521   -8.6892   -7.2745 C   0  0  0  0  0  0  0  0  0  0  0  0
  -32.4249   -9.4404   -8.2414 O   0  0  0  0  0  0  0  0  0  0  0  0
  -27.9471  -10.4940  -10.0448 O   0  0  0  0  0  0  0  0  0  0  0  0
  -28.2933  -10.3147  -11.3710 C   0  0  0  0  0  0  0  0  0  0  0  0
  -27.7724   -9.4398   -4.6276 C   0  0  0  0  0  0  0  0  0  0  0  0
  -26.4623   -8.8063   -4.2533 C   0  0  0  0  0  0  0  0  0  0  0  0
  -25.3085   -9.1507   -5.0365 N   0  0  0  0  0  0  0  0  0  0  0  0
  -24.5996   -8.4262   -4.8013 H   0  0  0  0  0  0  0  0  0  0  0  0
  -24.8122  -10.4667   -4.5628 C   0  0  0  0  0  0  0  0  0  0  0  0
  -23.5660  -10.9305   -5.3322 C   0  0  0  0  0  0  0  0  0  0  0  0
  -24.4533  -10.3036   -3.1112 C   0  0  0  0  0  0  0  0  0  0  0  0
 24 25  1  0  0  0
 25 18  1  0  0  0
 18 19  1  0  0  0
 18 23  2  0  0  0
 19 20  2  0  0  0
 20 26  1  0  0  0
 20 21  1  0  0  0
 26 27  1  0  0  0
 21 22  2  0  0  0
 22  1  1  0  0  0
 22 23  1  0  0  0
  1 28  1  0  0  0
  1  2  1  0  0  0
 28 29  1  0  0  0
 29 30  1  0  0  0
 30 32  1  0  0  0
 30 31  1  0  0  0
 32 33  1  0  0  0
 32 34  1  0  0  0
  2  3  1  0  0  0
  2 11  2  0  0  0
  3  4  2  0  0  0
  4  5  1  0  0  0
  5  6  1  0  0  0
  5 10  2  0  0  0
  6  7  2  0  0  0
  7  8  1  0  0  0
  8 12  1  0  0  0
  8  9  2  0  0  0
 12 13  1  0  0  0
 12 16  2  0  0  0
 13 14  2  0  0  0
 14 15  1  0  0  0
 15 16  1  0  0  0
 15 17  1  0  0  0
  9 10  1  0  0  0
 10 11  1  0  0  0
M  END
> <minimizedAffinity>
-8.54776

$$$$
