CHEMBL4251080


 32 35  0  0  0  0  0  0  0  0999 V2000
  -28.7916   -4.3859   -6.0971 C   0  0  0  0  0  0  0  0  0  0  0  0
  -29.0885   -4.7045   -7.4282 C   0  0  0  0  0  0  0  0  0  0  0  0
  -28.7794   -3.8410   -8.4767 C   0  0  0  0  0  0  0  0  0  0  0  0
  -28.2064   -2.5945   -8.2383 C   0  0  0  0  0  0  0  0  0  0  0  0
  -27.9009   -2.2535   -6.9185 C   0  0  0  0  0  0  0  0  0  0  0  0
  -28.1602   -3.1546   -5.8681 C   0  0  0  0  0  0  0  0  0  0  0  0
  -27.9023   -8.8290   -3.9041 C   0  0  0  0  0  0  0  0  0  0  0  0
  -28.7191   -7.5650   -3.9444 C   0  0  0  0  0  0  0  0  0  0  0  0
  -28.3734   -6.5549   -4.8763 C   0  0  0  0  0  0  0  0  0  0  0  0
  -29.1151   -5.3599   -5.0535 C   0  0  0  0  0  0  0  0  0  0  0  0
  -30.1895   -5.3514   -4.1513 C   0  0  0  0  0  0  0  0  0  0  0  0
  -31.2093   -4.4396   -3.9883 C   0  0  0  0  0  0  0  0  0  0  0  0
  -31.5894   -3.2952   -4.5885 N   0  0  0  0  0  0  0  0  0  0  0  0
  -32.0127   -4.8534   -2.9650 O   0  0  0  0  0  0  0  0  0  0  0  0
  -31.5782   -6.0682   -2.4706 N   0  0  0  0  0  0  0  0  0  0  0  0
  -30.4968   -6.3756   -3.1885 C   0  0  0  0  0  0  0  0  0  0  0  0
  -29.7615   -7.5129   -3.0732 N   0  0  0  0  0  0  0  0  0  0  0  0
  -31.3513   -3.1524   -5.5657 H   0  0  0  0  0  0  0  0  0  0  0  0
  -32.5116   -2.9349   -4.3550 H   0  0  0  0  0  0  0  0  0  0  0  0
  -27.9003   -1.6806   -9.2740 N   0  0  0  0  0  0  0  0  0  0  0  0
  -26.9209   -1.8634  -10.2308 C   0  0  0  0  0  0  0  0  0  0  0  0
  -26.2598   -2.8829  -10.3791 O   0  0  0  0  0  0  0  0  0  0  0  0
  -26.7344   -0.7331  -11.0096 N   0  0  0  0  0  0  0  0  0  0  0  0
  -28.5247   -0.8989   -9.4058 H   0  0  0  0  0  0  0  0  0  0  0  0
  -26.8088    0.1432  -10.5078 H   0  0  0  0  0  0  0  0  0  0  0  0
  -25.7862   -0.7419  -12.0695 C   0  0  0  0  0  0  0  0  0  0  0  0
  -24.5524   -0.0877  -11.9334 C   0  0  0  0  0  0  0  0  0  0  0  0
  -23.6509   -0.0406  -12.9957 C   0  0  0  0  0  0  0  0  0  0  0  0
  -23.9703   -0.6515  -14.2043 C   0  0  0  0  0  0  0  0  0  0  0  0
  -25.1855   -1.3242  -14.3479 C   0  0  0  0  0  0  0  0  0  0  0  0
  -26.0850   -1.3815  -13.2791 C   0  0  0  0  0  0  0  0  0  0  0  0
  -27.6020   -2.1785  -13.5148 Cl  0  0  0  0  0  0  0  0  0  0  0  0
  7  8  1  0  0  0
  8  9  1  0  0  0
  8 17  2  0  0  0
  9 10  2  0  0  0
 10  1  1  0  0  0
 10 11  1  0  0  0
  1  2  1  0  0  0
  1  6  2  0  0  0
  2  3  2  0  0  0
  3  4  1  0  0  0
  4 20  1  0  0  0
  4  5  2  0  0  0
 20 21  1  0  0  0
 20 24  1  0  0  0
 21 22  2  0  0  0
 21 23  1  0  0  0
 23 26  1  0  0  0
 23 25  1  0  0  0
 26 27  1  0  0  0
 26 31  2  0  0  0
 27 28  2  0  0  0
 28 29  1  0  0  0
 29 30  2  0  0  0
 30 31  1  0  0  0
 31 32  1  0  0  0
  5  6  1  0  0  0
 11 12  2  0  0  0
 11 16  1  0  0  0
 12 13  1  0  0  0
 12 14  1  0  0  0
 13 18  1  0  0  0
 13 19  1  0  0  0
 14 15  1  0  0  0
 15 16  2  0  0  0
 16 17  1  0  0  0
M  END
> <minimizedAffinity>
-8.85469

$$$$
