CHEMBL495299


 38 43  0  0  0  0  0  0  0  0999 V2000
  -15.0576    0.2978  -13.8375 N   0  0  0  0  0  0  0  0  0  0  0  0
  -16.1172    0.4866  -12.8521 C   0  0  0  0  0  0  0  0  0  0  0  0
  -17.5336    0.6783  -13.4232 C   0  0  0  0  0  0  0  0  0  0  0  0
  -17.5938    1.7262  -14.5074 C   0  0  0  0  0  0  0  0  0  0  0  0
  -16.4056    1.9747  -15.2294 C   0  0  0  0  0  0  0  0  0  0  0  0
  -16.4052    2.9444  -16.2506 C   0  0  0  0  0  0  0  0  0  0  0  0
  -17.5494    3.6822  -16.5459 C   0  0  0  0  0  0  0  0  0  0  0  0
  -18.7266    3.4280  -15.8501 C   0  0  0  0  0  0  0  0  0  0  0  0
  -18.7824    2.4179  -14.8695 C   0  0  0  0  0  0  0  0  0  0  0  0
  -15.1116    1.2159  -14.9743 C   0  0  0  0  0  0  0  0  0  0  0  0
  -20.1347    2.1388  -14.2606 C   0  0  0  0  0  0  0  0  0  0  0  0
  -20.7521    3.0526  -13.7296 O   0  0  0  0  0  0  0  0  0  0  0  0
  -20.5374    0.8176  -14.3311 N   0  0  0  0  0  0  0  0  0  0  0  0
  -19.8580    0.0981  -14.5376 H   0  0  0  0  0  0  0  0  0  0  0  0
  -21.7667    0.3225  -13.9547 C   0  0  0  0  0  0  0  0  0  0  0  0
  -22.6547   -0.0794  -14.8429 N   0  0  0  0  0  0  0  0  0  0  0  0
  -23.7962   -0.5364  -14.1857 C   0  0  0  0  0  0  0  0  0  0  0  0
  -24.9291   -1.1288  -14.7817 C   0  0  0  0  0  0  0  0  0  0  0  0
  -26.0039   -1.5375  -13.9813 C   0  0  0  0  0  0  0  0  0  0  0  0
  -25.9774   -1.3404  -12.6075 C   0  0  0  0  0  0  0  0  0  0  0  0
  -24.8693   -0.7505  -11.9934 C   0  0  0  0  0  0  0  0  0  0  0  0
  -23.7820   -0.3723  -12.7988 C   0  0  0  0  0  0  0  0  0  0  0  0
  -22.2750    0.3154  -12.3350 S   0  0  0  0  0  0  0  0  0  0  0  0
  -14.7226   -1.0950  -14.1701 C   0  0  0  0  0  0  0  0  0  0  0  0
  -14.0422   -4.5229  -10.1349 C   0  0  0  0  0  0  0  0  0  0  0  0
  -12.8156   -3.9342  -10.4719 C   0  0  0  0  0  0  0  0  0  0  0  0
  -12.6755   -3.0269  -11.5157 C   0  0  0  0  0  0  0  0  0  0  0  0
  -11.4523   -2.5075  -11.6921 N   0  0  0  0  0  0  0  0  0  0  0  0
  -11.2971   -1.5893  -12.6609 C   0  0  0  0  0  0  0  0  0  0  0  0
  -12.3238   -1.1380  -13.4575 C   0  0  0  0  0  0  0  0  0  0  0  0
  -13.6156   -1.6644  -13.2853 C   0  0  0  0  0  0  0  0  0  0  0  0
  -13.7985   -2.6805  -12.2948 C   0  0  0  0  0  0  0  0  0  0  0  0
  -15.0051   -3.3856  -12.0476 C   0  0  0  0  0  0  0  0  0  0  0  0
  -15.1398   -4.2842  -10.9695 C   0  0  0  0  0  0  0  0  0  0  0  0
  -13.0344   -5.4425   -8.1898 C   0  0  0  0  0  0  0  0  0  0  0  0
  -14.1712   -5.3570   -9.0523 O   0  0  0  0  0  0  0  0  0  0  0  0
  -16.3718   -4.8715  -10.9183 O   0  0  0  0  0  0  0  0  0  0  0  0
  -16.9103   -5.4135  -12.1179 C   0  0  0  0  0  0  0  0  0  0  0  0
 35 36  1  0  0  0
 36 25  1  0  0  0
 25 26  1  0  0  0
 25 34  2  0  0  0
 26 27  2  0  0  0
 27 28  1  0  0  0
 27 32  1  0  0  0
 28 29  2  0  0  0
 29 30  1  0  0  0
 30 31  2  0  0  0
 31 24  1  0  0  0
 31 32  1  0  0  0
 24  1  1  0  0  0
  1  2  1  0  0  0
  1 10  1  0  0  0
  2  3  1  0  0  0
  3  4  1  0  0  0
  4  5  1  0  0  0
  4  9  2  0  0  0
  5  6  2  0  0  0
  5 10  1  0  0  0
  6  7  1  0  0  0
  7  8  2  0  0  0
  8  9  1  0  0  0
  9 11  1  0  0  0
 11 12  2  0  0  0
 11 13  1  0  0  0
 13 15  1  0  0  0
 13 14  1  0  0  0
 15 16  2  0  0  0
 15 23  1  0  0  0
 16 17  1  0  0  0
 17 18  1  0  0  0
 17 22  2  0  0  0
 18 19  2  0  0  0
 19 20  1  0  0  0
 20 21  2  0  0  0
 21 22  1  0  0  0
 22 23  1  0  0  0
 32 33  2  0  0  0
 33 34  1  0  0  0
 34 37  1  0  0  0
 37 38  1  0  0  0
M  END
> <minimizedAffinity>
-9.43574

$$$$
