CHEMBL3099482


 45 48  0  0  0  0  0  0  0  0999 V2000
  -28.0374   -2.3137   -8.3480 C   0  0  0  0  0  0  0  0  0  0  0  0
  -28.4713   -3.6429   -8.1514 C   0  0  0  0  0  0  0  0  0  0  0  0
  -29.0775   -4.1078   -6.9847 C   0  0  0  0  0  0  0  0  0  0  0  0
  -29.2595   -3.2148   -5.9383 C   0  0  0  0  0  0  0  0  0  0  0  0
  -28.7916   -1.8934   -6.0490 C   0  0  0  0  0  0  0  0  0  0  0  0
  -28.1925   -1.4280   -7.2467 C   0  0  0  0  0  0  0  0  0  0  0  0
  -25.4477   -1.5240  -11.0731 C   0  0  0  0  0  0  0  0  0  0  0  0
  -26.0577   -1.9340   -9.8762 C   0  0  0  0  0  0  0  0  0  0  0  0
  -27.4633   -1.9607   -9.6868 C   0  0  0  0  0  0  0  0  0  0  0  0
  -28.2407   -1.5681  -10.7830 C   0  0  0  0  0  0  0  0  0  0  0  0
  -27.6522   -1.2208  -12.0104 C   0  0  0  0  0  0  0  0  0  0  0  0
  -26.2568   -1.2167  -12.1708 C   0  0  0  0  0  0  0  0  0  0  0  0
  -25.7092   -0.9222  -13.5347 C   0  0  0  0  0  0  0  0  0  0  0  0
  -24.5739    0.0790  -13.6746 C   0  0  0  0  0  0  0  0  0  0  0  0
  -26.1788   -1.5808  -14.5586 N   0  0  0  0  0  0  0  0  0  0  0  0
  -25.5277   -1.2164  -15.7433 O   0  0  0  0  0  0  0  0  0  0  0  0
  -25.9616   -1.7859  -16.4041 H   0  0  0  0  0  0  0  0  0  0  0  0
  -23.3272   -2.3414  -11.8109 C   0  0  0  0  0  0  0  0  0  0  0  0
  -24.0977   -1.3175  -11.1933 O   0  0  0  0  0  0  0  0  0  0  0  0
  -29.5516   -5.4369   -6.8701 N   0  0  0  0  0  0  0  0  0  0  0  0
  -28.9005   -6.4351   -6.1634 C   0  0  0  0  0  0  0  0  0  0  0  0
  -27.9461   -6.2496   -5.4178 O   0  0  0  0  0  0  0  0  0  0  0  0
  -29.4236   -7.6931   -6.4295 N   0  0  0  0  0  0  0  0  0  0  0  0
  -30.5155   -5.6167   -7.1070 H   0  0  0  0  0  0  0  0  0  0  0  0
  -29.7471   -7.8097   -7.3771 H   0  0  0  0  0  0  0  0  0  0  0  0
  -28.8637   -8.8330   -5.7958 C   0  0  0  0  0  0  0  0  0  0  0  0
  -29.0714   -9.0329   -4.4237 C   0  0  0  0  0  0  0  0  0  0  0  0
  -28.4689  -10.0958   -3.7513 C   0  0  0  0  0  0  0  0  0  0  0  0
  -27.6783  -11.0001   -4.4519 C   0  0  0  0  0  0  0  0  0  0  0  0
  -27.4701  -10.8090   -5.8216 C   0  0  0  0  0  0  0  0  0  0  0  0
  -28.0624   -9.7344   -6.5136 C   0  0  0  0  0  0  0  0  0  0  0  0
  -27.7032   -9.5123   -7.9552 C   0  0  0  0  0  0  0  0  0  0  0  0
  -27.0452  -12.0831   -3.9020 O   0  0  0  0  0  0  0  0  0  0  0  0
  -25.9604  -11.7785   -3.0141 C   0  0  0  0  0  0  0  0  0  0  0  0
  -24.6384  -12.0341   -3.7543 C   0  0  0  0  0  0  0  0  0  0  0  0
  -23.6524  -10.9368   -3.6818 N   0  0  0  0  0  0  0  0  0  0  0  0
  -24.0103   -9.8492   -4.6245 C   0  0  0  0  0  0  0  0  0  0  0  0
  -23.7700  -10.2150   -6.1010 C   0  0  0  0  0  0  0  0  0  0  0  0
  -22.4037  -10.5807   -6.3277 O   0  0  0  0  0  0  0  0  0  0  0  0
  -22.0024  -11.6582   -5.4719 C   0  0  0  0  0  0  0  0  0  0  0  0
  -22.2625  -11.3409   -3.9891 C   0  0  0  0  0  0  0  0  0  0  0  0
  -29.0082   -1.0150   -5.0135 O   0  0  0  0  0  0  0  0  0  0  0  0
  -27.9722   -1.0101   -4.0319 C   0  0  0  0  0  0  0  0  0  0  0  0
  -27.8030   -0.1237   -7.4584 O   0  0  0  0  0  0  0  0  0  0  0  0
  -28.7483    0.8999   -7.1809 C   0  0  0  0  0  0  0  0  0  0  0  0
 18 19  1  0  0  0
 19  7  1  0  0  0
  7  8  1  0  0  0
  7 12  2  0  0  0
  8  9  2  0  0  0
  9  1  1  0  0  0
  9 10  1  0  0  0
  1  2  1  0  0  0
  1  6  2  0  0  0
  2  3  2  0  0  0
  3 20  1  0  0  0
  3  4  1  0  0  0
 20 21  1  0  0  0
 20 24  1  0  0  0
 21 22  2  0  0  0
 21 23  1  0  0  0
 23 26  1  0  0  0
 23 25  1  0  0  0
 26 27  1  0  0  0
 26 31  2  0  0  0
 27 28  2  0  0  0
 28 29  1  0  0  0
 29 33  1  0  0  0
 29 30  2  0  0  0
 33 34  1  0  0  0
 34 35  1  0  0  0
 35 36  1  0  0  0
 36 37  1  0  0  0
 36 41  1  0  0  0
 37 38  1  0  0  0
 38 39  1  0  0  0
 39 40  1  0  0  0
 40 41  1  0  0  0
 30 31  1  0  0  0
 31 32  1  0  0  0
  4  5  2  0  0  0
  5 42  1  0  0  0
  5  6  1  0  0  0
 42 43  1  0  0  0
  6 44  1  0  0  0
 44 45  1  0  0  0
 10 11  2  0  0  0
 11 12  1  0  0  0
 12 13  1  0  0  0
 13 14  1  0  0  0
 13 15  2  0  0  0
 15 16  1  0  0  0
 16 17  1  0  0  0
M  END
> <minimizedAffinity>
-7.79627

$$$$
