CHEMBL685


 24 26  0  0  0  0  0  0  0  0999 V2000
  -30.6865   -8.2251   -6.9733 C   0  0  0  0  0  0  0  0  0  0  0  0
  -30.0082   -7.4302   -7.7661 N   0  0  0  0  0  0  0  0  0  0  0  0
  -29.9138   -6.2339   -7.1155 C   0  0  0  0  0  0  0  0  0  0  0  0
  -29.3335   -5.0321   -7.5389 C   0  0  0  0  0  0  0  0  0  0  0  0
  -29.3571   -3.9353   -6.6686 C   0  0  0  0  0  0  0  0  0  0  0  0
  -29.9079   -4.0510   -5.3827 C   0  0  0  0  0  0  0  0  0  0  0  0
  -30.5204   -5.2441   -4.9600 C   0  0  0  0  0  0  0  0  0  0  0  0
  -30.5106   -6.3062   -5.8641 C   0  0  0  0  0  0  0  0  0  0  0  0
  -31.0265   -7.5762   -5.8128 N   0  0  0  0  0  0  0  0  0  0  0  0
  -31.5364   -7.9730   -5.0395 H   0  0  0  0  0  0  0  0  0  0  0  0
  -32.3445   -9.8399   -7.5369 C   0  0  0  0  0  0  0  0  0  0  0  0
  -33.2792   -9.0835   -7.7628 O   0  0  0  0  0  0  0  0  0  0  0  0
  -31.0588   -9.5204   -7.2027 N   0  0  0  0  0  0  0  0  0  0  0  0
  -30.3943  -10.2751   -7.1841 H   0  0  0  0  0  0  0  0  0  0  0  0
  -31.4295  -11.7515   -8.5083 C   0  0  0  0  0  0  0  0  0  0  0  0
  -32.4365  -11.1951   -7.6561 O   0  0  0  0  0  0  0  0  0  0  0  0
  -29.9013   -2.9127   -4.4267 C   0  0  0  0  0  0  0  0  0  0  0  0
  -30.3504   -3.0868   -3.2957 O   0  0  0  0  0  0  0  0  0  0  0  0
  -29.3476   -1.5825   -4.7915 C   0  0  0  0  0  0  0  0  0  0  0  0
  -28.0025   -1.2551   -4.5777 C   0  0  0  0  0  0  0  0  0  0  0  0
  -27.5276    0.0111   -4.9218 C   0  0  0  0  0  0  0  0  0  0  0  0
  -28.3964    0.9603   -5.4576 C   0  0  0  0  0  0  0  0  0  0  0  0
  -29.7419    0.6479   -5.6510 C   0  0  0  0  0  0  0  0  0  0  0  0
  -30.2189   -0.6199   -5.3158 C   0  0  0  0  0  0  0  0  0  0  0  0
 15 16  1  0  0  0
 16 11  1  0  0  0
 11 12  2  0  0  0
 11 13  1  0  0  0
 13  1  1  0  0  0
 13 14  1  0  0  0
  1  2  2  0  0  0
  1  9  1  0  0  0
  2  3  1  0  0  0
  3  4  1  0  0  0
  3  8  2  0  0  0
  4  5  2  0  0  0
  5  6  1  0  0  0
  6 17  1  0  0  0
  6  7  2  0  0  0
 17 18  2  0  0  0
 17 19  1  0  0  0
 19 20  1  0  0  0
 19 24  2  0  0  0
 20 21  2  0  0  0
 21 22  1  0  0  0
 22 23  2  0  0  0
 23 24  1  0  0  0
  7  8  1  0  0  0
  8  9  1  0  0  0
  9 10  1  0  0  0
M  END
> <minimizedAffinity>
-8.44199

$$$$
