CHEMBL1242471


 24 26  0  0  0  0  0  0  0  0999 V2000
  -15.1634   -5.5463  -13.1995 C   0  0  0  0  0  0  0  0  0  0  0  0
  -16.0609   -6.1225  -14.0262 N   0  0  0  0  0  0  0  0  0  0  0  0
  -15.7604   -7.4300  -13.9823 N   0  0  0  0  0  0  0  0  0  0  0  0
  -14.7351   -7.7307  -13.1437 C   0  0  0  0  0  0  0  0  0  0  0  0
  -14.2413   -8.9568  -12.9132 N   0  0  0  0  0  0  0  0  0  0  0  0
  -13.2396   -8.9111  -12.0229 C   0  0  0  0  0  0  0  0  0  0  0  0
  -12.7553   -7.8331  -11.3782 N   0  0  0  0  0  0  0  0  0  0  0  0
  -13.2933   -6.6227  -11.6389 C   0  0  0  0  0  0  0  0  0  0  0  0
  -12.7732   -5.5627  -10.9096 N   0  0  0  0  0  0  0  0  0  0  0  0
  -14.3253   -6.5331  -12.5824 C   0  0  0  0  0  0  0  0  0  0  0  0
  -16.2963   -8.0789  -14.5445 H   0  0  0  0  0  0  0  0  0  0  0  0
  -12.2052   -5.8982  -10.1399 H   0  0  0  0  0  0  0  0  0  0  0  0
  -13.4246   -4.8221  -10.6858 H   0  0  0  0  0  0  0  0  0  0  0  0
  -15.2247   -1.2764  -12.6837 C   0  0  0  0  0  0  0  0  0  0  0  0
  -15.8479   -2.1300  -11.7640 C   0  0  0  0  0  0  0  0  0  0  0  0
  -15.8140   -3.5178  -11.9317 C   0  0  0  0  0  0  0  0  0  0  0  0
  -15.1700   -4.0913  -13.0319 C   0  0  0  0  0  0  0  0  0  0  0  0
  -14.5725   -3.2372  -13.9626 C   0  0  0  0  0  0  0  0  0  0  0  0
  -14.5492   -1.8457  -13.7753 C   0  0  0  0  0  0  0  0  0  0  0  0
  -13.8779   -1.1848  -14.7725 O   0  0  0  0  0  0  0  0  0  0  0  0
  -12.9727   -1.9551  -15.5531 C   0  0  0  0  0  0  0  0  0  0  0  0
  -15.2669    0.0904  -12.5854 O   0  0  0  0  0  0  0  0  0  0  0  0
  -16.5421    1.0935  -14.3465 C   0  0  0  0  0  0  0  0  0  0  0  0
  -16.5137    0.7226  -12.8764 C   0  0  0  0  0  0  0  0  0  0  0  0
 23 24  1  0  0  0
 24 22  1  0  0  0
 22 14  1  0  0  0
 14 15  1  0  0  0
 14 19  2  0  0  0
 15 16  2  0  0  0
 16 17  1  0  0  0
 17  1  1  0  0  0
 17 18  2  0  0  0
  1  2  2  0  0  0
  1 10  1  0  0  0
  2  3  1  0  0  0
  3  4  1  0  0  0
  3 11  1  0  0  0
  4  5  1  0  0  0
  4 10  2  0  0  0
  5  6  2  0  0  0
  6  7  1  0  0  0
  7  8  2  0  0  0
  8  9  1  0  0  0
  8 10  1  0  0  0
  9 12  1  0  0  0
  9 13  1  0  0  0
 18 19  1  0  0  0
 19 20  1  0  0  0
 20 21  1  0  0  0
M  END
> <minimizedAffinity>
-6.34791

$$$$
