CHEMBL3959260


 37 40  0  0  0  0  0  0  0  0999 V2000
  -27.9326   -2.2994   -8.4653 N   0  0  0  0  0  0  0  0  0  0  0  0
  -27.4338   -1.6015   -9.6351 C   0  0  0  0  0  0  0  0  0  0  0  0
  -28.3303   -1.5762  -10.6957 C   0  0  0  0  0  0  0  0  0  0  0  0
  -27.8262   -1.6327  -11.9820 C   0  0  0  0  0  0  0  0  0  0  0  0
  -26.4907   -1.4847  -12.2486 C   0  0  0  0  0  0  0  0  0  0  0  0
  -26.1639   -1.7801  -13.5102 N   0  0  0  0  0  0  0  0  0  0  0  0
  -24.9458   -1.4096  -13.9067 C   0  0  0  0  0  0  0  0  0  0  0  0
  -24.1072   -0.6745  -13.0948 C   0  0  0  0  0  0  0  0  0  0  0  0
  -24.3697   -0.5263  -11.7440 N   0  0  0  0  0  0  0  0  0  0  0  0
  -25.5929   -1.0202  -11.2643 C   0  0  0  0  0  0  0  0  0  0  0  0
  -26.0884   -1.1915   -9.9039 C   0  0  0  0  0  0  0  0  0  0  0  0
  -23.0969    0.1070  -13.8090 C   0  0  0  0  0  0  0  0  0  0  0  0
  -21.8547   -0.3212  -14.3533 C   0  0  0  0  0  0  0  0  0  0  0  0
  -21.0391    0.6948  -14.6657 N   0  0  0  0  0  0  0  0  0  0  0  0
  -21.7430    1.7813  -14.3085 N   0  0  0  0  0  0  0  0  0  0  0  0
  -21.3073    3.1020  -14.7000 C   0  0  0  0  0  0  0  0  0  0  0  0
  -22.9023    1.4717  -13.6493 C   0  0  0  0  0  0  0  0  0  0  0  0
  -28.6994   -0.1372   -5.4892 C   0  0  0  0  0  0  0  0  0  0  0  0
  -28.3718   -0.9936   -4.4380 C   0  0  0  0  0  0  0  0  0  0  0  0
  -27.8923   -2.2693   -4.7084 C   0  0  0  0  0  0  0  0  0  0  0  0
  -27.6903   -2.6701   -6.0328 C   0  0  0  0  0  0  0  0  0  0  0  0
  -28.0003   -1.8423   -7.1246 C   0  0  0  0  0  0  0  0  0  0  0  0
  -28.5202   -0.5676   -6.8212 C   0  0  0  0  0  0  0  0  0  0  0  0
  -30.5369    1.3477   -5.8322 C   0  0  0  0  0  0  0  0  0  0  0  0
  -29.2208    1.1229   -5.3217 O   0  0  0  0  0  0  0  0  0  0  0  0
  -27.5687   -3.2055   -3.7621 O   0  0  0  0  0  0  0  0  0  0  0  0
  -27.8228   -4.5612   -4.1191 C   0  0  0  0  0  0  0  0  0  0  0  0
  -27.6717   -3.7839   -8.6677 C   0  0  0  0  0  0  0  0  0  0  0  0
  -28.5061   -4.7787   -7.7918 C   0  0  0  0  0  0  0  0  0  0  0  0
  -30.0207   -4.5663   -7.9490 C   0  0  0  0  0  0  0  0  0  0  0  0
  -28.2940   -6.2095   -8.1399 N   0  0  0  0  0  0  0  0  0  0  0  0
  -27.3007   -6.4239   -8.2528 H   0  0  0  0  0  0  0  0  0  0  0  0
  -28.9269   -7.1709   -7.2102 C   0  0  0  0  0  0  0  0  0  0  0  0
  -29.8148   -8.2871   -7.8236 C   0  0  0  0  0  0  0  0  0  0  0  0
  -29.7661   -9.4400   -7.1210 F   0  0  0  0  0  0  0  0  0  0  0  0
  -31.1117   -7.8947   -7.8578 F   0  0  0  0  0  0  0  0  0  0  0  0
  -29.4436   -8.5611   -9.0949 F   0  0  0  0  0  0  0  0  0  0  0  0
 24 25  1  0  0  0
 25 18  1  0  0  0
 18 19  1  0  0  0
 18 23  2  0  0  0
 19 20  2  0  0  0
 20 26  1  0  0  0
 20 21  1  0  0  0
 26 27  1  0  0  0
 21 22  2  0  0  0
 22  1  1  0  0  0
 22 23  1  0  0  0
  1 28  1  0  0  0
  1  2  1  0  0  0
 28 29  1  0  0  0
 29 30  1  0  0  0
 29 31  1  0  0  0
 31 33  1  0  0  0
 31 32  1  0  0  0
 33 34  1  0  0  0
 34 35  1  0  0  0
 34 36  1  0  0  0
 34 37  1  0  0  0
  2  3  1  0  0  0
  2 11  2  0  0  0
  3  4  2  0  0  0
  4  5  1  0  0  0
  5  6  1  0  0  0
  5 10  2  0  0  0
  6  7  2  0  0  0
  7  8  1  0  0  0
  8 12  1  0  0  0
  8  9  2  0  0  0
 12 13  1  0  0  0
 12 17  2  0  0  0
 13 14  2  0  0  0
 14 15  1  0  0  0
 15 16  1  0  0  0
 15 17  1  0  0  0
  9 10  1  0  0  0
 10 11  1  0  0  0
M  END
> <minimizedAffinity>
-8.68397

$$$$
