CHEMBL470483


 34 36  0  0  0  0  0  0  0  0999 V2000
  -27.5757  -11.8488   -9.6451 C   0  0  0  0  0  0  0  0  0  0  0  0
  -28.1468  -10.6670   -8.9138 C   0  0  0  0  0  0  0  0  0  0  0  0
  -29.2705  -10.0307   -9.4775 C   0  0  0  0  0  0  0  0  0  0  0  0
  -29.8957   -8.9598   -8.8357 C   0  0  0  0  0  0  0  0  0  0  0  0
  -29.3976   -8.4793   -7.6237 C   0  0  0  0  0  0  0  0  0  0  0  0
  -28.2896   -9.0995   -7.0467 C   0  0  0  0  0  0  0  0  0  0  0  0
  -27.6511  -10.1851   -7.6838 C   0  0  0  0  0  0  0  0  0  0  0  0
  -30.1089   -7.3585   -6.9517 C   0  0  0  0  0  0  0  0  0  0  0  0
  -30.9305   -6.7288   -7.6068 O   0  0  0  0  0  0  0  0  0  0  0  0
  -29.7118   -7.0917   -5.6508 N   0  0  0  0  0  0  0  0  0  0  0  0
  -28.8897   -7.5728   -5.3098 H   0  0  0  0  0  0  0  0  0  0  0  0
  -30.2206   -6.0685   -4.8205 C   0  0  0  0  0  0  0  0  0  0  0  0
  -31.5162   -6.0723   -4.3007 C   0  0  0  0  0  0  0  0  0  0  0  0
  -31.9761   -5.0069   -3.5229 C   0  0  0  0  0  0  0  0  0  0  0  0
  -31.1456   -3.9195   -3.2634 C   0  0  0  0  0  0  0  0  0  0  0  0
  -29.8362   -3.8983   -3.7610 C   0  0  0  0  0  0  0  0  0  0  0  0
  -29.3751   -4.9929   -4.5179 C   0  0  0  0  0  0  0  0  0  0  0  0
  -28.9347   -2.7134   -3.5217 C   0  0  0  0  0  0  0  0  0  0  0  0
  -29.4806   -1.5238   -3.8989 F   0  0  0  0  0  0  0  0  0  0  0  0
  -28.5952   -2.5713   -2.2111 F   0  0  0  0  0  0  0  0  0  0  0  0
  -27.7578   -2.8136   -4.2018 F   0  0  0  0  0  0  0  0  0  0  0  0
  -26.5337  -10.7987   -6.9043 C   0  0  0  0  0  0  0  0  0  0  0  0
  -26.7536  -11.8909   -6.3907 O   0  0  0  0  0  0  0  0  0  0  0  0
  -25.3838  -10.0473   -6.7444 N   0  0  0  0  0  0  0  0  0  0  0  0
  -25.3957   -9.0948   -7.0834 H   0  0  0  0  0  0  0  0  0  0  0  0
  -24.2555  -10.4221   -5.9724 C   0  0  0  0  0  0  0  0  0  0  0  0
  -23.0656  -10.9086   -6.5038 C   0  0  0  0  0  0  0  0  0  0  0  0
  -22.0424  -11.3343   -5.6527 C   0  0  0  0  0  0  0  0  0  0  0  0
  -22.2211  -11.2409   -4.2827 C   0  0  0  0  0  0  0  0  0  0  0  0
  -21.2564  -11.7369   -3.4114 N   0  0  0  0  0  0  0  0  0  0  0  0
  -23.3369  -10.7365   -3.7334 N   0  0  0  0  0  0  0  0  0  0  0  0
  -24.3189  -10.3371   -4.5830 C   0  0  0  0  0  0  0  0  0  0  0  0
  -20.3327  -11.3769   -3.6138 H   0  0  0  0  0  0  0  0  0  0  0  0
  -21.5596  -11.5263   -2.4648 H   0  0  0  0  0  0  0  0  0  0  0  0
  1  2  1  0  0  0
  2  3  1  0  0  0
  2  7  2  0  0  0
  3  4  2  0  0  0
  4  5  1  0  0  0
  5  8  1  0  0  0
  5  6  2  0  0  0
  8  9  2  0  0  0
  8 10  1  0  0  0
 10 12  1  0  0  0
 10 11  1  0  0  0
 12 13  1  0  0  0
 12 17  2  0  0  0
 13 14  2  0  0  0
 14 15  1  0  0  0
 15 16  2  0  0  0
 16 18  1  0  0  0
 16 17  1  0  0  0
 18 19  1  0  0  0
 18 20  1  0  0  0
 18 21  1  0  0  0
  6  7  1  0  0  0
  7 22  1  0  0  0
 22 23  2  0  0  0
 22 24  1  0  0  0
 24 26  1  0  0  0
 24 25  1  0  0  0
 26 27  1  0  0  0
 26 32  2  0  0  0
 27 28  2  0  0  0
 28 29  1  0  0  0
 29 30  1  0  0  0
 29 31  2  0  0  0
 30 33  1  0  0  0
 30 34  1  0  0  0
 31 32  1  0  0  0
M  END
> <minimizedAffinity>
-9.00596

$$$$
