CHEMBL2113163


 38 42  0  0  0  0  0  0  0  0999 V2000
  -27.8538   -9.9927   -5.7511 C   0  0  0  0  0  0  0  0  0  0  0  0
  -28.8432   -9.0210   -5.6748 C   0  0  0  0  0  0  0  0  0  0  0  0
  -29.9923   -9.0675   -6.4853 C   0  0  0  0  0  0  0  0  0  0  0  0
  -30.9820   -8.0778   -6.4817 C   0  0  0  0  0  0  0  0  0  0  0  0
  -32.0773   -8.1741   -7.2525 N   0  0  0  0  0  0  0  0  0  0  0  0
  -32.1783   -9.2600   -8.0254 C   0  0  0  0  0  0  0  0  0  0  0  0
  -31.2876  -10.2521   -8.1147 N   0  0  0  0  0  0  0  0  0  0  0  0
  -30.1987  -10.1519   -7.3452 C   0  0  0  0  0  0  0  0  0  0  0  0
  -29.2510  -11.1660   -7.3520 C   0  0  0  0  0  0  0  0  0  0  0  0
  -28.0991  -11.1240   -6.5450 C   0  0  0  0  0  0  0  0  0  0  0  0
  -26.6506   -9.0415   -3.9011 C   0  0  0  0  0  0  0  0  0  0  0  0
  -26.6949   -9.9067   -5.0339 O   0  0  0  0  0  0  0  0  0  0  0  0
  -30.8460   -6.9732   -5.6041 N   0  0  0  0  0  0  0  0  0  0  0  0
  -30.7360   -7.2556   -4.6270 H   0  0  0  0  0  0  0  0  0  0  0  0
  -30.1429   -5.8077   -5.8736 C   0  0  0  0  0  0  0  0  0  0  0  0
  -29.7905   -5.3566   -7.0793 C   0  0  0  0  0  0  0  0  0  0  0  0
  -28.9495   -4.1709   -7.2976 C   0  0  0  0  0  0  0  0  0  0  0  0
  -28.6264   -3.8525   -8.4368 O   0  0  0  0  0  0  0  0  0  0  0  0
  -28.4822   -3.4270   -6.0944 C   0  0  0  0  0  0  0  0  0  0  0  0
  -28.9397   -3.7854   -4.8855 C   0  0  0  0  0  0  0  0  0  0  0  0
  -29.7976   -4.9678   -4.6870 C   0  0  0  0  0  0  0  0  0  0  0  0
  -30.1869   -5.2711   -3.5619 O   0  0  0  0  0  0  0  0  0  0  0  0
  -27.5697   -2.4199   -6.3382 O   0  0  0  0  0  0  0  0  0  0  0  0
  -27.4233   -1.4352   -5.3160 C   0  0  0  0  0  0  0  0  0  0  0  0
  -28.4160   -0.3652   -5.5702 C   0  0  0  0  0  0  0  0  0  0  0  0
  -29.6800   -0.0900   -5.0902 C   0  0  0  0  0  0  0  0  0  0  0  0
  -30.1361    1.0487   -5.7965 C   0  0  0  0  0  0  0  0  0  0  0  0
  -29.1233    1.3946   -6.6589 C   0  0  0  0  0  0  0  0  0  0  0  0
  -28.0766    0.5420   -6.5320 O   0  0  0  0  0  0  0  0  0  0  0  0
  -27.3180  -12.2523   -6.6331 O   0  0  0  0  0  0  0  0  0  0  0  0
  -26.2511  -12.1955   -7.5851 C   0  0  0  0  0  0  0  0  0  0  0  0
  -24.8961  -12.3017   -6.8899 C   0  0  0  0  0  0  0  0  0  0  0  0
  -23.7653  -11.6279   -7.6736 C   0  0  0  0  0  0  0  0  0  0  0  0
  -22.9400  -10.7533   -6.8169 N   0  0  0  0  0  0  0  0  0  0  0  0
  -21.5040  -10.9966   -7.0399 C   0  0  0  0  0  0  0  0  0  0  0  0
  -21.1483  -12.1201   -6.0864 C   0  0  0  0  0  0  0  0  0  0  0  0
  -21.9696  -11.7935   -4.8563 C   0  0  0  0  0  0  0  0  0  0  0  0
  -23.1506  -10.9813   -5.3754 C   0  0  0  0  0  0  0  0  0  0  0  0
 11 12  1  0  0  0
 12  1  1  0  0  0
  1  2  1  0  0  0
  1 10  2  0  0  0
  2  3  2  0  0  0
  3  4  1  0  0  0
  3  8  1  0  0  0
  4 13  1  0  0  0
  4  5  2  0  0  0
 13 15  1  0  0  0
 13 14  1  0  0  0
 15 16  2  0  0  0
 15 21  1  0  0  0
 16 17  1  0  0  0
 17 18  2  0  0  0
 17 19  1  0  0  0
 19 23  1  0  0  0
 19 20  2  0  0  0
 23 24  1  0  0  0
 24 25  1  0  0  0
 25 26  2  0  0  0
 25 29  1  0  0  0
 26 27  1  0  0  0
 27 28  2  0  0  0
 28 29  1  0  0  0
 20 21  1  0  0  0
 21 22  2  0  0  0
  5  6  1  0  0  0
  6  7  2  0  0  0
  7  8  1  0  0  0
  8  9  2  0  0  0
  9 10  1  0  0  0
 10 30  1  0  0  0
 30 31  1  0  0  0
 31 32  1  0  0  0
 32 33  1  0  0  0
 33 34  1  0  0  0
 34 35  1  0  0  0
 34 38  1  0  0  0
 35 36  1  0  0  0
 36 37  1  0  0  0
 37 38  1  0  0  0
M  END
> <minimizedAffinity>
-7.89828

$$$$
