CHEMBL2023484


 34 37  0  0  0  0  0  0  0  0999 V2000
  -28.4544   -2.8143   -7.4223 C   0  0  0  0  0  0  0  0  0  0  0  0
  -28.5607   -3.9735   -8.2157 C   0  0  0  0  0  0  0  0  0  0  0  0
  -29.2498   -5.1218   -7.7686 C   0  0  0  0  0  0  0  0  0  0  0  0
  -29.8399   -5.2015   -6.4942 C   0  0  0  0  0  0  0  0  0  0  0  0
  -29.8243   -4.0210   -5.7332 C   0  0  0  0  0  0  0  0  0  0  0  0
  -29.1607   -2.8181   -6.1872 C   0  0  0  0  0  0  0  0  0  0  0  0
  -29.1361   -1.6460   -5.4442 O   0  0  0  0  0  0  0  0  0  0  0  0
  -28.0734   -1.4852   -4.4867 C   0  0  0  0  0  0  0  0  0  0  0  0
  -27.5457   -1.6955   -7.9556 C   0  0  0  0  0  0  0  0  0  0  0  0
  -26.3419   -1.9947  -10.1098 N   0  0  0  0  0  0  0  0  0  0  0  0
  -27.5142   -1.5248   -9.4935 C   0  0  0  0  0  0  0  0  0  0  0  0
  -28.4515   -0.9493  -10.0470 O   0  0  0  0  0  0  0  0  0  0  0  0
  -25.6572   -2.4666   -9.5324 H   0  0  0  0  0  0  0  0  0  0  0  0
  -24.8051   -1.7734  -12.1635 C   0  0  0  0  0  0  0  0  0  0  0  0
  -25.1329   -1.7266  -13.5090 C   0  0  0  0  0  0  0  0  0  0  0  0
  -26.4810   -1.8169  -13.5760 N   0  0  0  0  0  0  0  0  0  0  0  0
  -27.0691   -1.9044  -12.3897 N   0  0  0  0  0  0  0  0  0  0  0  0
  -26.0791   -1.8946  -11.4798 C   0  0  0  0  0  0  0  0  0  0  0  0
  -27.0669   -1.8203  -14.4017 H   0  0  0  0  0  0  0  0  0  0  0  0
  -22.6439   -0.4961  -12.1399 C   0  0  0  0  0  0  0  0  0  0  0  0
  -23.3876   -1.7356  -11.6888 C   0  0  0  0  0  0  0  0  0  0  0  0
  -30.0682   -6.5199   -6.0885 O   0  0  0  0  0  0  0  0  0  0  0  0
  -30.7859   -7.5737   -6.6563 C   0  0  0  0  0  0  0  0  0  0  0  0
  -32.1983   -7.7031   -6.6702 C   0  0  0  0  0  0  0  0  0  0  0  0
  -32.7700   -8.7259   -7.4265 C   0  0  0  0  0  0  0  0  0  0  0  0
  -32.0702   -9.6672   -8.0129 N   0  0  0  0  0  0  0  0  0  0  0  0
  -30.8403   -9.4303   -8.2377 C   0  0  0  0  0  0  0  0  0  0  0  0
  -30.4498  -10.1754   -9.2833 C   0  0  0  0  0  0  0  0  0  0  0  0
  -29.1895  -10.1014   -9.7914 C   0  0  0  0  0  0  0  0  0  0  0  0
  -28.2734   -9.2695   -9.1729 C   0  0  0  0  0  0  0  0  0  0  0  0
  -28.6744   -8.4279   -8.0907 C   0  0  0  0  0  0  0  0  0  0  0  0
  -30.0372   -8.3942   -7.6063 C   0  0  0  0  0  0  0  0  0  0  0  0
  -29.0307  -10.9247  -10.8739 O   0  0  0  0  0  0  0  0  0  0  0  0
  -28.9318  -10.2726  -12.1154 C   0  0  0  0  0  0  0  0  0  0  0  0
 20 21  1  0  0  0
 21 14  1  0  0  0
 14 15  2  0  0  0
 14 18  1  0  0  0
 15 16  1  0  0  0
 16 17  1  0  0  0
 16 19  1  0  0  0
 17 18  2  0  0  0
 18 10  1  0  0  0
 10 11  1  0  0  0
 10 13  1  0  0  0
 11 12  2  0  0  0
 11  9  1  0  0  0
  9  1  1  0  0  0
  1  2  1  0  0  0
  1  6  2  0  0  0
  2  3  2  0  0  0
  3  4  1  0  0  0
  4 22  1  0  0  0
  4  5  2  0  0  0
 22 23  1  0  0  0
 23 24  1  0  0  0
 23 32  2  0  0  0
 24 25  2  0  0  0
 25 26  1  0  0  0
 26 27  2  0  0  0
 27 28  1  0  0  0
 27 32  1  0  0  0
 28 29  2  0  0  0
 29 33  1  0  0  0
 29 30  1  0  0  0
 33 34  1  0  0  0
 30 31  2  0  0  0
 31 32  1  0  0  0
  5  6  1  0  0  0
  6  7  1  0  0  0
  7  8  1  0  0  0
M  END
> <minimizedAffinity>
-9.42979

$$$$
