CHEMBL3827784


 38 43  0  0  0  0  0  0  0  0999 V2000
  -15.9026    4.9798  -17.1646 O   0  0  0  0  0  0  0  0  0  0  0  0
  -15.3041    3.9996  -16.7609 C   0  0  0  0  0  0  0  0  0  0  0  0
  -13.8914    3.7303  -16.9741 C   0  0  0  0  0  0  0  0  0  0  0  0
  -12.9737    4.5133  -17.6583 C   0  0  0  0  0  0  0  0  0  0  0  0
  -11.6845    4.0130  -17.7576 C   0  0  0  0  0  0  0  0  0  0  0  0
  -10.6969    4.7060  -18.3902 O   0  0  0  0  0  0  0  0  0  0  0  0
  -11.3550    2.7655  -17.2217 C   0  0  0  0  0  0  0  0  0  0  0  0
  -12.3208    1.9926  -16.5582 C   0  0  0  0  0  0  0  0  0  0  0  0
  -13.6043    2.4968  -16.3927 C   0  0  0  0  0  0  0  0  0  0  0  0
  -14.8296    2.0008  -15.7454 C   0  0  0  0  0  0  0  0  0  0  0  0
  -15.8402    2.8561  -15.9971 C   0  0  0  0  0  0  0  0  0  0  0  0
  -17.2019    2.5932  -15.5576 C   0  0  0  0  0  0  0  0  0  0  0  0
  -18.2771    3.4566  -15.7997 C   0  0  0  0  0  0  0  0  0  0  0  0
  -19.5616    3.1424  -15.3388 C   0  0  0  0  0  0  0  0  0  0  0  0
  -19.7735    1.9602  -14.6413 C   0  0  0  0  0  0  0  0  0  0  0  0
  -21.0034    1.6183  -14.1668 O   0  0  0  0  0  0  0  0  0  0  0  0
  -18.7281    1.0836  -14.4031 C   0  0  0  0  0  0  0  0  0  0  0  0
  -17.4430    1.4005  -14.8627 C   0  0  0  0  0  0  0  0  0  0  0  0
  -16.3291    0.4555  -14.5950 C   0  0  0  0  0  0  0  0  0  0  0  0
  -16.5974   -0.5813  -13.9877 O   0  0  0  0  0  0  0  0  0  0  0  0
  -15.0293    0.8242  -15.0359 N   0  0  0  0  0  0  0  0  0  0  0  0
  -11.0602    5.5428  -18.7268 H   0  0  0  0  0  0  0  0  0  0  0  0
  -21.6321    2.3261  -14.3821 H   0  0  0  0  0  0  0  0  0  0  0  0
  -14.0038   -0.1148  -14.7436 C   0  0  0  0  0  0  0  0  0  0  0  0
  -13.7732   -1.1366  -15.6594 C   0  0  0  0  0  0  0  0  0  0  0  0
  -12.8074   -2.0954  -15.4049 C   0  0  0  0  0  0  0  0  0  0  0  0
  -12.0533   -2.0660  -14.2236 C   0  0  0  0  0  0  0  0  0  0  0  0
  -12.2863   -1.0459  -13.2980 C   0  0  0  0  0  0  0  0  0  0  0  0
  -13.2672   -0.0730  -13.5524 C   0  0  0  0  0  0  0  0  0  0  0  0
  -11.0851   -3.0004  -13.9038 O   0  0  0  0  0  0  0  0  0  0  0  0
  -11.4990   -3.8334  -12.8152 C   0  0  0  0  0  0  0  0  0  0  0  0
  -12.6349   -4.8097  -13.1212 C   0  0  0  0  0  0  0  0  0  0  0  0
  -13.8030   -4.5619  -12.2322 N   0  0  0  0  0  0  0  0  0  0  0  0
  -13.3949   -3.7503  -11.0778 C   0  0  0  0  0  0  0  0  0  0  0  0
  -14.5624   -3.4648  -10.1292 C   0  0  0  0  0  0  0  0  0  0  0  0
  -15.7253   -2.8083  -10.8611 C   0  0  0  0  0  0  0  0  0  0  0  0
  -16.1341   -3.6703  -12.0417 C   0  0  0  0  0  0  0  0  0  0  0  0
  -14.9391   -3.9532  -12.9499 C   0  0  0  0  0  0  0  0  0  0  0  0
  1  2  2  0  0  0
  2  3  1  0  0  0
  2 11  1  0  0  0
  3  4  1  0  0  0
  3  9  2  0  0  0
  4  5  2  0  0  0
  5  6  1  0  0  0
  5  7  1  0  0  0
  6 22  1  0  0  0
  7  8  2  0  0  0
  8  9  1  0  0  0
  9 10  1  0  0  0
 10 11  2  0  0  0
 10 21  1  0  0  0
 11 12  1  0  0  0
 12 13  1  0  0  0
 12 18  2  0  0  0
 13 14  2  0  0  0
 14 15  1  0  0  0
 15 16  1  0  0  0
 15 17  2  0  0  0
 16 23  1  0  0  0
 17 18  1  0  0  0
 18 19  1  0  0  0
 19 20  2  0  0  0
 19 21  1  0  0  0
 21 24  1  0  0  0
 24 25  1  0  0  0
 24 29  2  0  0  0
 25 26  2  0  0  0
 26 27  1  0  0  0
 27 30  1  0  0  0
 27 28  2  0  0  0
 30 31  1  0  0  0
 31 32  1  0  0  0
 32 33  1  0  0  0
 33 34  1  0  0  0
 33 38  1  0  0  0
 34 35  1  0  0  0
 35 36  1  0  0  0
 36 37  1  0  0  0
 37 38  1  0  0  0
 28 29  1  0  0  0
M  END
> <minimizedAffinity>
-7.77525

$$$$
