CHEMBL219998


 34 37  0  0  0  0  0  0  0  0999 V2000
  -13.6788   -3.3360  -11.0879 C   0  0  0  0  0  0  0  0  0  0  0  0
  -13.1117   -2.7959  -12.2366 C   0  0  0  0  0  0  0  0  0  0  0  0
  -13.8891   -2.3203  -13.2918 C   0  0  0  0  0  0  0  0  0  0  0  0
  -15.2720   -2.1926  -13.1817 C   0  0  0  0  0  0  0  0  0  0  0  0
  -15.8619   -2.6398  -11.9972 C   0  0  0  0  0  0  0  0  0  0  0  0
  -15.0799   -3.2230  -10.9769 C   0  0  0  0  0  0  0  0  0  0  0  0
  -11.3040   -5.2350   -7.9766 C   0  0  0  0  0  0  0  0  0  0  0  0
  -11.9070   -3.9918   -7.7850 C   0  0  0  0  0  0  0  0  0  0  0  0
  -12.6427   -3.3810   -8.7994 C   0  0  0  0  0  0  0  0  0  0  0  0
  -12.8371   -3.9898  -10.0616 C   0  0  0  0  0  0  0  0  0  0  0  0
  -12.2089   -5.2648  -10.2799 C   0  0  0  0  0  0  0  0  0  0  0  0
  -12.0958   -6.2468  -11.3321 C   0  0  0  0  0  0  0  0  0  0  0  0
  -12.6120   -6.2086  -12.5667 N   0  0  0  0  0  0  0  0  0  0  0  0
  -11.3782   -7.3027  -10.9747 N   0  0  0  0  0  0  0  0  0  0  0  0
  -11.0701   -7.0588   -9.7068 N   0  0  0  0  0  0  0  0  0  0  0  0
  -11.4741   -5.8440   -9.2289 C   0  0  0  0  0  0  0  0  0  0  0  0
  -13.4458   -5.6760  -12.7765 H   0  0  0  0  0  0  0  0  0  0  0  0
  -12.5364   -7.0616  -13.1085 H   0  0  0  0  0  0  0  0  0  0  0  0
  -10.5707   -7.7865   -9.2180 H   0  0  0  0  0  0  0  0  0  0  0  0
  -10.6967   -4.9635   -5.6875 C   0  0  0  0  0  0  0  0  0  0  0  0
  -10.6998   -5.7740   -6.8546 O   0  0  0  0  0  0  0  0  0  0  0  0
  -16.0648   -1.5927  -14.1975 N   0  0  0  0  0  0  0  0  0  0  0  0
  -16.6411   -0.3347  -14.1142 C   0  0  0  0  0  0  0  0  0  0  0  0
  -16.4623    0.4652  -13.1955 O   0  0  0  0  0  0  0  0  0  0  0  0
  -17.4834   -0.0435  -15.1760 N   0  0  0  0  0  0  0  0  0  0  0  0
  -16.1846   -2.1074  -15.0568 H   0  0  0  0  0  0  0  0  0  0  0  0
  -18.0012   -0.8319  -15.5346 H   0  0  0  0  0  0  0  0  0  0  0  0
  -18.1565    1.2151  -15.2106 C   0  0  0  0  0  0  0  0  0  0  0  0
  -17.4675    2.3779  -15.5875 C   0  0  0  0  0  0  0  0  0  0  0  0
  -18.1227    3.6051  -15.5884 C   0  0  0  0  0  0  0  0  0  0  0  0
  -19.4589    3.6874  -15.2047 C   0  0  0  0  0  0  0  0  0  0  0  0
  -20.1572    2.5279  -14.8319 C   0  0  0  0  0  0  0  0  0  0  0  0
  -21.5902    2.6259  -14.3969 C   0  0  0  0  0  0  0  0  0  0  0  0
  -19.4983    1.2933  -14.8387 C   0  0  0  0  0  0  0  0  0  0  0  0
 20 21  1  0  0  0
 21  7  1  0  0  0
  7  8  1  0  0  0
  7 16  2  0  0  0
  8  9  2  0  0  0
  9 10  1  0  0  0
 10  1  1  0  0  0
 10 11  2  0  0  0
  1  2  1  0  0  0
  1  6  2  0  0  0
  2  3  2  0  0  0
  3  4  1  0  0  0
  4 22  1  0  0  0
  4  5  2  0  0  0
 22 23  1  0  0  0
 22 26  1  0  0  0
 23 24  2  0  0  0
 23 25  1  0  0  0
 25 28  1  0  0  0
 25 27  1  0  0  0
 28 29  1  0  0  0
 28 34  2  0  0  0
 29 30  2  0  0  0
 30 31  1  0  0  0
 31 32  2  0  0  0
 32 33  1  0  0  0
 32 34  1  0  0  0
  5  6  1  0  0  0
 11 12  1  0  0  0
 11 16  1  0  0  0
 12 13  1  0  0  0
 12 14  2  0  0  0
 13 17  1  0  0  0
 13 18  1  0  0  0
 14 15  1  0  0  0
 15 16  1  0  0  0
 15 19  1  0  0  0
M  END
> <minimizedAffinity>
-8.69850

$$$$
