CHEMBL3931381


 35 39  0  0  0  0  0  0  0  0999 V2000
  -27.3547   -1.8102   -9.4567 C   0  0  0  0  0  0  0  0  0  0  0  0
  -27.3202   -0.7670   -8.5435 C   0  0  0  0  0  0  0  0  0  0  0  0
  -27.8092   -0.8829   -7.2856 N   0  0  0  0  0  0  0  0  0  0  0  0
  -28.3374   -2.0832   -6.9586 C   0  0  0  0  0  0  0  0  0  0  0  0
  -28.8476   -2.2918   -5.6923 C   0  0  0  0  0  0  0  0  0  0  0  0
  -29.3938   -3.5317   -5.3280 C   0  0  0  0  0  0  0  0  0  0  0  0
  -29.4380   -4.6237   -6.2097 C   0  0  0  0  0  0  0  0  0  0  0  0
  -28.9381   -4.3762   -7.5016 C   0  0  0  0  0  0  0  0  0  0  0  0
  -28.3882   -3.1497   -7.8830 C   0  0  0  0  0  0  0  0  0  0  0  0
  -27.8989   -3.0067   -9.1309 N   0  0  0  0  0  0  0  0  0  0  0  0
  -25.5005   -1.4515  -12.5520 N   0  0  0  0  0  0  0  0  0  0  0  0
  -25.5120   -1.5331  -11.1793 C   0  0  0  0  0  0  0  0  0  0  0  0
  -26.8288   -1.7161  -10.8052 C   0  0  0  0  0  0  0  0  0  0  0  0
  -27.5231   -1.7808  -12.0342 C   0  0  0  0  0  0  0  0  0  0  0  0
  -26.7197   -1.6182  -13.0941 N   0  0  0  0  0  0  0  0  0  0  0  0
  -24.3680   -1.1210  -13.3874 C   0  0  0  0  0  0  0  0  0  0  0  0
  -23.4652   -0.1126  -12.6786 C   0  0  0  0  0  0  0  0  0  0  0  0
  -21.7155    0.8393  -14.0188 C   0  0  0  0  0  0  0  0  0  0  0  0
  -23.0908    1.0005  -13.5617 N   0  0  0  0  0  0  0  0  0  0  0  0
  -23.7088    1.0297  -14.3716 H   0  0  0  0  0  0  0  0  0  0  0  0
  -29.9474   -5.8974   -5.7986 N   0  0  0  0  0  0  0  0  0  0  0  0
  -30.0374   -7.0605   -6.6271 C   0  0  0  0  0  0  0  0  0  0  0  0
  -31.2664   -7.6447   -6.9806 C   0  0  0  0  0  0  0  0  0  0  0  0
  -31.3602   -8.8065   -7.7466 C   0  0  0  0  0  0  0  0  0  0  0  0
  -30.1998   -9.4450   -8.1720 C   0  0  0  0  0  0  0  0  0  0  0  0
  -28.9594   -8.8915   -7.8727 C   0  0  0  0  0  0  0  0  0  0  0  0
  -28.8866   -7.7149   -7.1125 C   0  0  0  0  0  0  0  0  0  0  0  0
  -32.5329   -9.4153   -8.1077 O   0  0  0  0  0  0  0  0  0  0  0  0
  -33.0987  -10.3224   -7.1637 C   0  0  0  0  0  0  0  0  0  0  0  0
  -27.7556   -9.4409   -8.2297 O   0  0  0  0  0  0  0  0  0  0  0  0
  -27.2769   -9.0480   -9.5126 C   0  0  0  0  0  0  0  0  0  0  0  0
  -30.2499   -6.0714   -4.3432 C   0  0  0  0  0  0  0  0  0  0  0  0
  -31.6745   -5.7092   -3.9834 C   0  0  0  0  0  0  0  0  0  0  0  0
  -32.0131   -4.3630   -3.3629 C   0  0  0  0  0  0  0  0  0  0  0  0
  -32.1140   -5.6110   -2.5367 C   0  0  0  0  0  0  0  0  0  0  0  0
 18 19  1  0  0  0
 19 17  1  0  0  0
 19 20  1  0  0  0
 17 16  1  0  0  0
 16 11  1  0  0  0
 11 12  1  0  0  0
 11 15  1  0  0  0
 12 13  2  0  0  0
 13  1  1  0  0  0
 13 14  1  0  0  0
  1  2  1  0  0  0
  1 10  2  0  0  0
  2  3  2  0  0  0
  3  4  1  0  0  0
  4  5  1  0  0  0
  4  9  2  0  0  0
  5  6  2  0  0  0
  6  7  1  0  0  0
  7 21  1  0  0  0
  7  8  2  0  0  0
 21 32  1  0  0  0
 21 22  1  0  0  0
 32 33  1  0  0  0
 33 34  1  0  0  0
 33 35  1  0  0  0
 34 35  1  0  0  0
 22 23  1  0  0  0
 22 27  2  0  0  0
 23 24  2  0  0  0
 24 28  1  0  0  0
 24 25  1  0  0  0
 28 29  1  0  0  0
 25 26  2  0  0  0
 26 30  1  0  0  0
 26 27  1  0  0  0
 30 31  1  0  0  0
  8  9  1  0  0  0
  9 10  1  0  0  0
 14 15  2  0  0  0
M  END
> <minimizedAffinity>
-8.52122

$$$$
