CHEMBL260307


 33 36  0  0  0  0  0  0  0  0999 V2000
  -24.9730   -1.7182  -12.4589 C   0  0  0  0  0  0  0  0  0  0  0  0
  -23.7195   -1.7580  -11.8450 C   0  0  0  0  0  0  0  0  0  0  0  0
  -22.6136   -1.1189  -12.4270 C   0  0  0  0  0  0  0  0  0  0  0  0
  -22.7250   -0.4250  -13.6432 C   0  0  0  0  0  0  0  0  0  0  0  0
  -23.9760   -0.4923  -14.2888 C   0  0  0  0  0  0  0  0  0  0  0  0
  -25.0909   -1.1169  -13.7064 C   0  0  0  0  0  0  0  0  0  0  0  0
  -21.5848    0.3314  -14.2167 C   0  0  0  0  0  0  0  0  0  0  0  0
  -20.4206   -0.3184  -14.7017 C   0  0  0  0  0  0  0  0  0  0  0  0
  -19.3514    0.3757  -15.2871 C   0  0  0  0  0  0  0  0  0  0  0  0
  -19.3875    1.7635  -15.4597 C   0  0  0  0  0  0  0  0  0  0  0  0
  -18.2623    2.5236  -16.0883 C   0  0  0  0  0  0  0  0  0  0  0  0
  -20.5366    2.3860  -14.9657 C   0  0  0  0  0  0  0  0  0  0  0  0
  -20.7771    3.7223  -15.0328 O   0  0  0  0  0  0  0  0  0  0  0  0
  -21.9448    4.0183  -14.3647 N   0  0  0  0  0  0  0  0  0  0  0  0
  -22.3898    2.8578  -13.8843 C   0  0  0  0  0  0  0  0  0  0  0  0
  -23.4410    2.7735  -13.0423 N   0  0  0  0  0  0  0  0  0  0  0  0
  -21.5910    1.7520  -14.3185 C   0  0  0  0  0  0  0  0  0  0  0  0
  -23.7530    3.6497  -12.6367 H   0  0  0  0  0  0  0  0  0  0  0  0
  -23.4567    2.0114  -12.3695 H   0  0  0  0  0  0  0  0  0  0  0  0
  -27.4544   -2.6204   -9.9624 N   0  0  0  0  0  0  0  0  0  0  0  0
  -26.3377   -1.9772  -10.4650 C   0  0  0  0  0  0  0  0  0  0  0  0
  -25.6225   -1.1938   -9.8468 O   0  0  0  0  0  0  0  0  0  0  0  0
  -26.1319   -2.2419  -11.8212 N   0  0  0  0  0  0  0  0  0  0  0  0
  -28.0601   -3.0746  -10.6285 H   0  0  0  0  0  0  0  0  0  0  0  0
  -26.9715   -2.2492  -12.3721 H   0  0  0  0  0  0  0  0  0  0  0  0
  -28.2466    0.2768   -6.0114 C   0  0  0  0  0  0  0  0  0  0  0  0
  -28.2793   -1.0773   -6.6610 C   0  0  0  0  0  0  0  0  0  0  0  0
  -28.6901   -2.1876   -5.9187 C   0  0  0  0  0  0  0  0  0  0  0  0
  -28.7618   -3.4374   -6.5189 C   0  0  0  0  0  0  0  0  0  0  0  0
  -28.4052   -3.5899   -7.8565 C   0  0  0  0  0  0  0  0  0  0  0  0
  -28.6426   -4.7974   -8.3879 F   0  0  0  0  0  0  0  0  0  0  0  0
  -27.9210   -2.5181   -8.6192 C   0  0  0  0  0  0  0  0  0  0  0  0
  -27.8959   -1.2474   -8.0080 C   0  0  0  0  0  0  0  0  0  0  0  0
 26 27  1  0  0  0
 27 28  1  0  0  0
 27 33  2  0  0  0
 28 29  2  0  0  0
 29 30  1  0  0  0
 30 31  1  0  0  0
 30 32  2  0  0  0
 32 20  1  0  0  0
 32 33  1  0  0  0
 20 21  1  0  0  0
 20 24  1  0  0  0
 21 22  2  0  0  0
 21 23  1  0  0  0
 23  1  1  0  0  0
 23 25  1  0  0  0
  1  2  1  0  0  0
  1  6  2  0  0  0
  2  3  2  0  0  0
  3  4  1  0  0  0
  4  7  1  0  0  0
  4  5  2  0  0  0
  7  8  1  0  0  0
  7 17  2  0  0  0
  8  9  2  0  0  0
  9 10  1  0  0  0
 10 11  1  0  0  0
 10 12  2  0  0  0
 12 13  1  0  0  0
 12 17  1  0  0  0
 13 14  1  0  0  0
 14 15  2  0  0  0
 15 16  1  0  0  0
 15 17  1  0  0  0
 16 18  1  0  0  0
 16 19  1  0  0  0
  5  6  1  0  0  0
M  END
> <minimizedAffinity>
-10.61435

$$$$
