CHEMBL3671533


 38 40  0  0  0  0  0  0  0  0999 V2000
  -28.5326   -8.9365   -8.0192 C   0  0  0  0  0  0  0  0  0  0  0  0
  -28.0554   -9.9515   -7.1820 C   0  0  0  0  0  0  0  0  0  0  0  0
  -27.9463   -9.7894   -5.7807 C   0  0  0  0  0  0  0  0  0  0  0  0
  -27.2576  -10.6718   -4.9057 C   0  0  0  0  0  0  0  0  0  0  0  0
  -27.2634  -10.4909   -3.5757 N   0  0  0  0  0  0  0  0  0  0  0  0
  -27.9255   -9.4337   -3.1165 C   0  0  0  0  0  0  0  0  0  0  0  0
  -28.5361   -8.4986   -3.8648 N   0  0  0  0  0  0  0  0  0  0  0  0
  -28.5243   -8.6666   -5.1884 C   0  0  0  0  0  0  0  0  0  0  0  0
  -29.1323   -7.7144   -6.0224 C   0  0  0  0  0  0  0  0  0  0  0  0
  -29.1507   -7.8211   -7.4271 C   0  0  0  0  0  0  0  0  0  0  0  0
  -29.1458  -10.1474  -10.0590 C   0  0  0  0  0  0  0  0  0  0  0  0
  -29.9520  -10.9137   -9.5508 O   0  0  0  0  0  0  0  0  0  0  0  0
  -28.3969   -9.1553   -9.4192 N   0  0  0  0  0  0  0  0  0  0  0  0
  -28.3492   -8.3089   -9.9821 H   0  0  0  0  0  0  0  0  0  0  0  0
  -27.6645   -9.7484  -11.9919 C   0  0  0  0  0  0  0  0  0  0  0  0
  -28.8190  -10.2128  -11.5195 C   0  0  0  0  0  0  0  0  0  0  0  0
  -26.4824  -11.7486   -5.4281 N   0  0  0  0  0  0  0  0  0  0  0  0
  -26.7784  -12.6396   -5.0718 H   0  0  0  0  0  0  0  0  0  0  0  0
  -25.1131  -11.6691   -5.8051 C   0  0  0  0  0  0  0  0  0  0  0  0
  -24.7657  -11.7665   -7.1557 C   0  0  0  0  0  0  0  0  0  0  0  0
  -23.4866  -11.4242   -7.5966 C   0  0  0  0  0  0  0  0  0  0  0  0
  -22.5241  -11.0181   -6.6726 C   0  0  0  0  0  0  0  0  0  0  0  0
  -20.8608  -10.3673   -7.2923 Br  0  0  0  0  0  0  0  0  0  0  0  0
  -22.8015  -11.0317   -5.3094 C   0  0  0  0  0  0  0  0  0  0  0  0
  -24.0900  -11.3723   -4.8835 C   0  0  0  0  0  0  0  0  0  0  0  0
  -24.3536  -11.3194   -3.5695 F   0  0  0  0  0  0  0  0  0  0  0  0
  -29.8890   -6.8183   -8.0348 O   0  0  0  0  0  0  0  0  0  0  0  0
  -29.9950   -5.6122   -7.2834 C   0  0  0  0  0  0  0  0  0  0  0  0
  -29.3419   -4.3819   -7.9137 C   0  0  0  0  0  0  0  0  0  0  0  0
  -29.2877   -3.2876   -6.9452 N   0  0  0  0  0  0  0  0  0  0  0  0
  -28.2707   -2.3509   -7.0094 C   0  0  0  0  0  0  0  0  0  0  0  0
  -27.4240   -2.3597   -7.8618 O   0  0  0  0  0  0  0  0  0  0  0  0
  -30.0591   -3.1488   -6.3046 H   0  0  0  0  0  0  0  0  0  0  0  0
  -28.3284   -1.3060   -5.8982 C   0  0  0  0  0  0  0  0  0  0  0  0
  -27.8681   -1.9430   -4.5859 C   0  0  0  0  0  0  0  0  0  0  0  0
  -28.6486   -3.1015   -4.1194 N   0  0  0  0  0  0  0  0  0  0  0  0
  -27.8151   -4.2821   -3.8903 C   0  0  0  0  0  0  0  0  0  0  0  0
  -29.3304   -2.7387   -2.8694 C   0  0  0  0  0  0  0  0  0  0  0  0
 15 16  2  0  0  0
 16 11  1  0  0  0
 11 12  2  0  0  0
 11 13  1  0  0  0
 13  1  1  0  0  0
 13 14  1  0  0  0
  1  2  1  0  0  0
  1 10  2  0  0  0
  2  3  2  0  0  0
  3  4  1  0  0  0
  3  8  1  0  0  0
  4 17  1  0  0  0
  4  5  2  0  0  0
 17 19  1  0  0  0
 17 18  1  0  0  0
 19 20  1  0  0  0
 19 25  2  0  0  0
 20 21  2  0  0  0
 21 22  1  0  0  0
 22 23  1  0  0  0
 22 24  2  0  0  0
 24 25  1  0  0  0
 25 26  1  0  0  0
  5  6  1  0  0  0
  6  7  2  0  0  0
  7  8  1  0  0  0
  8  9  2  0  0  0
  9 10  1  0  0  0
 10 27  1  0  0  0
 27 28  1  0  0  0
 28 29  1  0  0  0
 29 30  1  0  0  0
 30 31  1  0  0  0
 30 33  1  0  0  0
 31 32  2  0  0  0
 31 34  1  0  0  0
 34 35  1  0  0  0
 35 36  1  0  0  0
 36 37  1  0  0  0
 36 38  1  0  0  0
M  END
> <minimizedAffinity>
-7.14996

$$$$
