CHEMBL231526


 36 39  0  0  0  0  0  0  0  0999 V2000
  -14.2690    4.8031  -17.4094 C   0  0  0  0  0  0  0  0  0  0  0  0
  -13.2133    4.0961  -16.7728 C   0  0  0  0  0  0  0  0  0  0  0  0
  -13.4207    2.9121  -16.0740 C   0  0  0  0  0  0  0  0  0  0  0  0
  -14.7093    2.4319  -15.9894 C   0  0  0  0  0  0  0  0  0  0  0  0
  -15.7663    3.1115  -16.5900 C   0  0  0  0  0  0  0  0  0  0  0  0
  -15.5752    4.2775  -17.3131 C   0  0  0  0  0  0  0  0  0  0  0  0
  -16.9666    2.4568  -16.3176 N   0  0  0  0  0  0  0  0  0  0  0  0
  -16.7626    1.3233  -15.5363 C   0  0  0  0  0  0  0  0  0  0  0  0
  -17.6154    0.5726  -15.1016 O   0  0  0  0  0  0  0  0  0  0  0  0
  -15.2724    1.2448  -15.3342 C   0  0  0  0  0  0  0  0  0  0  0  0
  -14.4722    0.3365  -14.7568 C   0  0  0  0  0  0  0  0  0  0  0  0
  -17.8828    2.7672  -16.6029 H   0  0  0  0  0  0  0  0  0  0  0  0
  -14.7806   -0.9018  -14.1509 C   0  0  0  0  0  0  0  0  0  0  0  0
  -14.3481   -2.0926  -14.6620 N   0  0  0  0  0  0  0  0  0  0  0  0
  -14.7413   -3.1275  -13.8502 C   0  0  0  0  0  0  0  0  0  0  0  0
  -14.3501   -4.5200  -14.1871 C   0  0  0  0  0  0  0  0  0  0  0  0
  -15.4901   -2.5985  -12.8077 C   0  0  0  0  0  0  0  0  0  0  0  0
  -15.5139   -1.1768  -13.0023 C   0  0  0  0  0  0  0  0  0  0  0  0
  -16.1827   -0.1470  -12.1499 C   0  0  0  0  0  0  0  0  0  0  0  0
  -13.8039   -2.2020  -15.5133 H   0  0  0  0  0  0  0  0  0  0  0  0
  -16.1598   -3.3615  -11.6982 C   0  0  0  0  0  0  0  0  0  0  0  0
  -15.5437   -3.0791  -10.3325 C   0  0  0  0  0  0  0  0  0  0  0  0
  -14.3575   -3.9683  -10.0631 C   0  0  0  0  0  0  0  0  0  0  0  0
  -14.4060   -5.1482   -9.7567 O   0  0  0  0  0  0  0  0  0  0  0  0
  -13.1840   -3.3049  -10.1998 O   0  0  0  0  0  0  0  0  0  0  0  0
  -13.2946   -2.3671  -10.4486 H   0  0  0  0  0  0  0  0  0  0  0  0
  -14.6407    7.9766  -19.4606 C   0  0  0  0  0  0  0  0  0  0  0  0
  -13.5927    8.7532  -18.9617 C   0  0  0  0  0  0  0  0  0  0  0  0
  -12.7051    8.2122  -18.0363 C   0  0  0  0  0  0  0  0  0  0  0  0
  -12.8779    6.8889  -17.6187 C   0  0  0  0  0  0  0  0  0  0  0  0
  -13.9619    6.1021  -18.0518 C   0  0  0  0  0  0  0  0  0  0  0  0
  -14.8125    6.6622  -19.0138 C   0  0  0  0  0  0  0  0  0  0  0  0
  -16.2599    9.6097  -20.0505 C   0  0  0  0  0  0  0  0  0  0  0  0
  -15.5830    8.3979  -20.3605 O   0  0  0  0  0  0  0  0  0  0  0  0
  -11.6615    8.8652  -17.4405 O   0  0  0  0  0  0  0  0  0  0  0  0
  -11.9741    9.6753  -16.3145 C   0  0  0  0  0  0  0  0  0  0  0  0
 33 34  1  0  0  0
 34 27  1  0  0  0
 27 28  1  0  0  0
 27 32  2  0  0  0
 28 29  2  0  0  0
 29 35  1  0  0  0
 29 30  1  0  0  0
 35 36  1  0  0  0
 30 31  2  0  0  0
 31  1  1  0  0  0
 31 32  1  0  0  0
  1  2  1  0  0  0
  1  6  2  0  0  0
  2  3  2  0  0  0
  3  4  1  0  0  0
  4  5  2  0  0  0
  4 10  1  0  0  0
  5  6  1  0  0  0
  5  7  1  0  0  0
  7  8  1  0  0  0
  7 12  1  0  0  0
  8  9  2  0  0  0
  8 10  1  0  0  0
 10 11  2  0  0  0
 11 13  1  0  0  0
 13 14  1  0  0  0
 13 18  2  0  0  0
 14 15  1  0  0  0
 14 20  1  0  0  0
 15 16  1  0  0  0
 15 17  2  0  0  0
 17 21  1  0  0  0
 17 18  1  0  0  0
 21 22  1  0  0  0
 22 23  1  0  0  0
 23 24  2  0  0  0
 23 25  1  0  0  0
 25 26  1  0  0  0
 18 19  1  0  0  0
M  END
> <minimizedAffinity>
-7.23783

$$$$
