CHEMBL191993


 33 36  0  0  0  0  0  0  0  0999 V2000
  -29.2771   -7.9972   -8.2915 C   0  0  0  0  0  0  0  0  0  0  0  0
  -30.4176   -8.6121   -8.0700 N   0  0  0  0  0  0  0  0  0  0  0  0
  -31.0427   -7.8298   -7.1356 C   0  0  0  0  0  0  0  0  0  0  0  0
  -30.2450   -6.7569   -6.8026 C   0  0  0  0  0  0  0  0  0  0  0  0
  -29.1026   -6.8563   -7.5580 O   0  0  0  0  0  0  0  0  0  0  0  0
  -30.3519   -5.6314   -5.8862 C   0  0  0  0  0  0  0  0  0  0  0  0
  -30.9094   -5.7854   -4.6134 C   0  0  0  0  0  0  0  0  0  0  0  0
  -31.0309   -4.6940   -3.7601 C   0  0  0  0  0  0  0  0  0  0  0  0
  -30.5914   -3.4343   -4.1713 C   0  0  0  0  0  0  0  0  0  0  0  0
  -29.9733   -3.2331   -5.4215 C   0  0  0  0  0  0  0  0  0  0  0  0
  -29.8768   -4.3585   -6.2630 C   0  0  0  0  0  0  0  0  0  0  0  0
  -29.3577   -1.9171   -5.7632 C   0  0  0  0  0  0  0  0  0  0  0  0
  -29.6975   -0.8012   -4.9580 C   0  0  0  0  0  0  0  0  0  0  0  0
  -29.1455    0.4659   -5.1580 C   0  0  0  0  0  0  0  0  0  0  0  0
  -28.2055    0.6594   -6.1553 C   0  0  0  0  0  0  0  0  0  0  0  0
  -27.8438   -0.4116   -6.9725 C   0  0  0  0  0  0  0  0  0  0  0  0
  -28.4267   -1.6790   -6.7969 C   0  0  0  0  0  0  0  0  0  0  0  0
  -27.9579   -2.8746   -7.9604 Cl  0  0  0  0  0  0  0  0  0  0  0  0
  -28.2708   -8.3264   -9.1227 N   0  0  0  0  0  0  0  0  0  0  0  0
  -27.8589   -7.5938   -9.6831 H   0  0  0  0  0  0  0  0  0  0  0  0
  -25.8882  -10.5565   -7.3445 C   0  0  0  0  0  0  0  0  0  0  0  0
  -25.5871  -11.4924   -8.3343 C   0  0  0  0  0  0  0  0  0  0  0  0
  -26.1682  -11.3704   -9.6006 C   0  0  0  0  0  0  0  0  0  0  0  0
  -27.0479  -10.3154   -9.8810 C   0  0  0  0  0  0  0  0  0  0  0  0
  -27.3777   -9.3881   -8.8652 C   0  0  0  0  0  0  0  0  0  0  0  0
  -26.7743   -9.5139   -7.6049 C   0  0  0  0  0  0  0  0  0  0  0  0
  -25.0622  -10.6120   -5.7723 S   0  0  0  0  0  0  0  0  0  0  0  0
  -24.8451  -12.0090   -5.4480 O   0  0  0  0  0  0  0  0  0  0  0  0
  -25.8096   -9.7518   -4.8711 O   0  0  0  0  0  0  0  0  0  0  0  0
  -22.3857  -10.8884   -6.2061 C   0  0  0  0  0  0  0  0  0  0  0  0
  -23.4876   -9.8525   -6.0972 C   0  0  0  0  0  0  0  0  0  0  0  0
  -27.6075  -10.0865  -11.1158 O   0  0  0  0  0  0  0  0  0  0  0  0
  -28.8672  -10.6961  -11.3709 C   0  0  0  0  0  0  0  0  0  0  0  0
 30 31  1  0  0  0
 31 27  1  0  0  0
 27 28  2  0  0  0
 27 29  2  0  0  0
 27 21  1  0  0  0
 21 22  1  0  0  0
 21 26  2  0  0  0
 22 23  2  0  0  0
 23 24  1  0  0  0
 24 32  1  0  0  0
 24 25  2  0  0  0
 32 33  1  0  0  0
 25 19  1  0  0  0
 25 26  1  0  0  0
 19  1  1  0  0  0
 19 20  1  0  0  0
  1  2  2  0  0  0
  1  5  1  0  0  0
  2  3  1  0  0  0
  3  4  2  0  0  0
  4  6  1  0  0  0
  4  5  1  0  0  0
  6  7  1  0  0  0
  6 11  2  0  0  0
  7  8  2  0  0  0
  8  9  1  0  0  0
  9 10  2  0  0  0
 10 12  1  0  0  0
 10 11  1  0  0  0
 12 13  1  0  0  0
 12 17  2  0  0  0
 13 14  2  0  0  0
 14 15  1  0  0  0
 15 16  2  0  0  0
 16 17  1  0  0  0
 17 18  1  0  0  0
M  END
> <minimizedAffinity>
-9.06573

$$$$
