CHEMBL3903713


 28 31  0  0  0  0  0  0  0  0999 V2000
  -27.9303   -2.1049   -8.3808 C   0  0  0  0  0  0  0  0  0  0  0  0
  -28.7104   -3.1372   -8.5683 N   0  0  0  0  0  0  0  0  0  0  0  0
  -27.9300   -1.1911   -7.1841 C   0  0  0  0  0  0  0  0  0  0  0  0
  -28.4279    0.1113   -7.3076 C   0  0  0  0  0  0  0  0  0  0  0  0
  -28.5203    0.9470   -6.1917 C   0  0  0  0  0  0  0  0  0  0  0  0
  -28.1382    0.4839   -4.9305 C   0  0  0  0  0  0  0  0  0  0  0  0
  -27.6233   -0.8013   -4.7983 C   0  0  0  0  0  0  0  0  0  0  0  0
  -27.4887   -1.6207   -5.9217 C   0  0  0  0  0  0  0  0  0  0  0  0
  -26.8593   -1.8316   -9.4023 C   0  0  0  0  0  0  0  0  0  0  0  0
  -27.1700   -1.5950  -10.6917 C   0  0  0  0  0  0  0  0  0  0  0  0
  -26.1971   -1.3901  -11.7803 C   0  0  0  0  0  0  0  0  0  0  0  0
  -26.4257   -1.8253  -13.0947 C   0  0  0  0  0  0  0  0  0  0  0  0
  -25.5078   -1.5503  -14.1122 C   0  0  0  0  0  0  0  0  0  0  0  0
  -24.3521   -0.8275  -13.8368 C   0  0  0  0  0  0  0  0  0  0  0  0
  -24.1124   -0.3772  -12.5410 C   0  0  0  0  0  0  0  0  0  0  0  0
  -25.0308   -0.6551  -11.5218 C   0  0  0  0  0  0  0  0  0  0  0  0
  -29.6206   -3.4469   -7.6133 N   0  0  0  0  0  0  0  0  0  0  0  0
  -30.6006   -3.2374   -7.8053 H   0  0  0  0  0  0  0  0  0  0  0  0
  -29.5461   -4.6976   -6.9617 C   0  0  0  0  0  0  0  0  0  0  0  0
  -28.9123   -5.6755   -7.6578 N   0  0  0  0  0  0  0  0  0  0  0  0
  -28.7646   -6.9243   -7.1367 N   0  0  0  0  0  0  0  0  0  0  0  0
  -29.2925   -7.1930   -5.9284 C   0  0  0  0  0  0  0  0  0  0  0  0
  -30.0215   -6.2697   -5.1899 C   0  0  0  0  0  0  0  0  0  0  0  0
  -30.6254   -6.6215   -3.9657 C   0  0  0  0  0  0  0  0  0  0  0  0
  -31.3620   -5.6898   -3.2354 C   0  0  0  0  0  0  0  0  0  0  0  0
  -31.4912   -4.3942   -3.7116 C   0  0  0  0  0  0  0  0  0  0  0  0
  -30.9061   -4.0456   -4.9281 C   0  0  0  0  0  0  0  0  0  0  0  0
  -30.1553   -4.9663   -5.7066 C   0  0  0  0  0  0  0  0  0  0  0  0
  9 10  2  0  0  0
  9  1  1  0  0  0
 10 11  1  0  0  0
 11 12  1  0  0  0
 11 16  2  0  0  0
 12 13  2  0  0  0
 13 14  1  0  0  0
 14 15  2  0  0  0
 15 16  1  0  0  0
  1  2  2  0  0  0
  1  3  1  0  0  0
  2 17  1  0  0  0
 17 19  1  0  0  0
 17 18  1  0  0  0
 19 20  1  0  0  0
 19 28  2  0  0  0
 20 21  2  0  0  0
 21 22  1  0  0  0
 22 23  2  0  0  0
 23 24  1  0  0  0
 23 28  1  0  0  0
 24 25  2  0  0  0
 25 26  1  0  0  0
 26 27  2  0  0  0
 27 28  1  0  0  0
  3  4  1  0  0  0
  3  8  2  0  0  0
  4  5  2  0  0  0
  5  6  1  0  0  0
  6  7  2  0  0  0
  7  8  1  0  0  0
M  END
> <minimizedAffinity>
-10.32518

$$$$
