CHEMBL1999484


 30 33  0  0  0  0  0  0  0  0999 V2000
  -27.5961   -1.8450   -9.4656 C   0  0  0  0  0  0  0  0  0  0  0  0
  -28.4986   -1.4110  -10.4155 C   0  0  0  0  0  0  0  0  0  0  0  0
  -27.9689   -1.0689  -11.6281 C   0  0  0  0  0  0  0  0  0  0  0  0
  -26.6609   -1.1476  -11.8971 N   0  0  0  0  0  0  0  0  0  0  0  0
  -25.8401   -1.5777  -10.9222 C   0  0  0  0  0  0  0  0  0  0  0  0
  -26.2634   -1.9109   -9.6953 N   0  0  0  0  0  0  0  0  0  0  0  0
  -28.7813   -3.6218   -6.2215 C   0  0  0  0  0  0  0  0  0  0  0  0
  -28.5393   -2.3863   -5.8542 N   0  0  0  0  0  0  0  0  0  0  0  0
  -28.0942   -1.6233   -6.9277 C   0  0  0  0  0  0  0  0  0  0  0  0
  -27.7723   -0.1933   -6.6750 C   0  0  0  0  0  0  0  0  0  0  0  0
  -28.0207   -2.2980   -8.1376 C   0  0  0  0  0  0  0  0  0  0  0  0
  -28.5042   -3.9310   -7.8869 S   0  0  0  0  0  0  0  0  0  0  0  0
  -30.1793   -5.5585   -5.7283 C   0  0  0  0  0  0  0  0  0  0  0  0
  -29.2273   -4.5426   -5.3350 N   0  0  0  0  0  0  0  0  0  0  0  0
  -28.4921   -4.8759   -4.7191 H   0  0  0  0  0  0  0  0  0  0  0  0
  -24.4714   -1.6928  -11.1910 N   0  0  0  0  0  0  0  0  0  0  0  0
  -24.1977   -2.6640  -11.1580 H   0  0  0  0  0  0  0  0  0  0  0  0
  -23.7379   -0.9088  -12.0999 C   0  0  0  0  0  0  0  0  0  0  0  0
  -22.9902   -1.5189  -13.1096 C   0  0  0  0  0  0  0  0  0  0  0  0
  -22.1915   -0.7530  -13.9785 C   0  0  0  0  0  0  0  0  0  0  0  0
  -22.1224    0.6420  -13.8764 C   0  0  0  0  0  0  0  0  0  0  0  0
  -22.9268    1.2400  -12.8989 C   0  0  0  0  0  0  0  0  0  0  0  0
  -23.7170    0.4848  -12.0307 C   0  0  0  0  0  0  0  0  0  0  0  0
  -21.3168    1.4269  -14.6788 N   0  0  0  0  0  0  0  0  0  0  0  0
  -20.0778    0.9362  -15.2936 C   0  0  0  0  0  0  0  0  0  0  0  0
  -18.8424    1.7001  -14.7707 C   0  0  0  0  0  0  0  0  0  0  0  0
  -18.9710    3.1712  -14.8598 N   0  0  0  0  0  0  0  0  0  0  0  0
  -20.1868    3.5727  -14.1207 C   0  0  0  0  0  0  0  0  0  0  0  0
  -21.4759    2.8921  -14.6362 C   0  0  0  0  0  0  0  0  0  0  0  0
  -19.1114    3.4136  -15.8413 H   0  0  0  0  0  0  0  0  0  0  0  0
 13 14  1  0  0  0
 14  7  1  0  0  0
 14 15  1  0  0  0
  7  8  2  0  0  0
  7 12  1  0  0  0
  8  9  1  0  0  0
  9 10  1  0  0  0
  9 11  2  0  0  0
 11  1  1  0  0  0
 11 12  1  0  0  0
  1  2  1  0  0  0
  1  6  2  0  0  0
  2  3  2  0  0  0
  3  4  1  0  0  0
  4  5  2  0  0  0
  5 16  1  0  0  0
  5  6  1  0  0  0
 16 18  1  0  0  0
 16 17  1  0  0  0
 18 19  1  0  0  0
 18 23  2  0  0  0
 19 20  2  0  0  0
 20 21  1  0  0  0
 21 24  1  0  0  0
 21 22  2  0  0  0
 24 25  1  0  0  0
 24 29  1  0  0  0
 25 26  1  0  0  0
 26 27  1  0  0  0
 27 28  1  0  0  0
 27 30  1  0  0  0
 28 29  1  0  0  0
 22 23  1  0  0  0
M  END
> <minimizedAffinity>
-8.54091

$$$$
