CHEMBL3671575


 42 45  0  0  0  0  0  0  0  0999 V2000
  -14.8377   -0.8926  -13.9406 C   0  0  0  0  0  0  0  0  0  0  0  0
  -15.8236    0.0794  -14.1763 C   0  0  0  0  0  0  0  0  0  0  0  0
  -15.6853    1.0315  -15.2064 C   0  0  0  0  0  0  0  0  0  0  0  0
  -16.5135    2.1492  -15.4187 C   0  0  0  0  0  0  0  0  0  0  0  0
  -16.3164    2.9957  -16.4500 N   0  0  0  0  0  0  0  0  0  0  0  0
  -15.2862    2.7454  -17.2554 C   0  0  0  0  0  0  0  0  0  0  0  0
  -14.4085    1.7526  -17.1128 N   0  0  0  0  0  0  0  0  0  0  0  0
  -14.6013    0.9306  -16.0796 C   0  0  0  0  0  0  0  0  0  0  0  0
  -13.6384   -0.0311  -15.8368 C   0  0  0  0  0  0  0  0  0  0  0  0
  -13.6846   -0.8998  -14.7333 C   0  0  0  0  0  0  0  0  0  0  0  0
  -15.8607   -2.8679  -12.9327 C   0  0  0  0  0  0  0  0  0  0  0  0
  -16.3501   -3.3127  -13.9665 O   0  0  0  0  0  0  0  0  0  0  0  0
  -14.9986   -1.7920  -12.8618 N   0  0  0  0  0  0  0  0  0  0  0  0
  -14.3140   -1.7439  -12.1171 H   0  0  0  0  0  0  0  0  0  0  0  0
  -16.6301   -4.7372  -11.5647 C   0  0  0  0  0  0  0  0  0  0  0  0
  -16.1740   -3.4811  -11.6161 C   0  0  0  0  0  0  0  0  0  0  0  0
  -17.5331    2.4722  -14.4862 N   0  0  0  0  0  0  0  0  0  0  0  0
  -17.1719    2.4913  -13.5350 H   0  0  0  0  0  0  0  0  0  0  0  0
  -18.8545    1.9662  -14.5586 C   0  0  0  0  0  0  0  0  0  0  0  0
  -19.1150    0.7051  -15.1183 C   0  0  0  0  0  0  0  0  0  0  0  0
  -20.4041    0.1667  -15.1126 C   0  0  0  0  0  0  0  0  0  0  0  0
  -21.4505    0.8969  -14.5549 C   0  0  0  0  0  0  0  0  0  0  0  0
  -23.1787    0.1370  -14.4829 Br  0  0  0  0  0  0  0  0  0  0  0  0
  -21.2273    2.1694  -14.0355 C   0  0  0  0  0  0  0  0  0  0  0  0
  -19.9362    2.6947  -14.0509 C   0  0  0  0  0  0  0  0  0  0  0  0
  -19.7253    3.9155  -13.5338 F   0  0  0  0  0  0  0  0  0  0  0  0
  -12.6584   -1.7716  -14.4164 O   0  0  0  0  0  0  0  0  0  0  0  0
  -12.0678   -2.4159  -15.5618 C   0  0  0  0  0  0  0  0  0  0  0  0
  -12.7724   -3.7208  -15.9461 C   0  0  0  0  0  0  0  0  0  0  0  0
  -12.4103   -4.8081  -15.0413 N   0  0  0  0  0  0  0  0  0  0  0  0
  -13.3326   -5.7753  -14.6934 C   0  0  0  0  0  0  0  0  0  0  0  0
  -14.4903   -5.7476  -15.1138 O   0  0  0  0  0  0  0  0  0  0  0  0
  -11.5147   -4.8032  -14.5685 H   0  0  0  0  0  0  0  0  0  0  0  0
  -12.9309   -6.7212  -13.5378 C   0  0  0  0  0  0  0  0  0  0  0  0
  -13.5629   -8.0963  -13.8001 C   0  0  0  0  0  0  0  0  0  0  0  0
  -13.4832   -8.8092  -12.4593 C   0  0  0  0  0  0  0  0  0  0  0  0
  -13.5385   -7.6930  -11.4291 C   0  0  0  0  0  0  0  0  0  0  0  0
  -13.3784   -6.4478  -12.1682 N   0  0  0  0  0  0  0  0  0  0  0  0
  -13.0809   -5.2407  -11.5490 C   0  0  0  0  0  0  0  0  0  0  0  0
  -12.6887   -4.2620  -12.1776 O   0  0  0  0  0  0  0  0  0  0  0  0
  -13.2869   -5.2170  -10.0346 C   0  0  0  0  0  0  0  0  0  0  0  0
  -12.8867   -3.9107   -9.3706 C   0  0  0  0  0  0  0  0  0  0  0  0
 15 16  2  0  0  0
 16 11  1  0  0  0
 11 12  2  0  0  0
 11 13  1  0  0  0
 13  1  1  0  0  0
 13 14  1  0  0  0
  1  2  1  0  0  0
  1 10  2  0  0  0
  2  3  2  0  0  0
  3  4  1  0  0  0
  3  8  1  0  0  0
  4 17  1  0  0  0
  4  5  2  0  0  0
 17 19  1  0  0  0
 17 18  1  0  0  0
 19 20  1  0  0  0
 19 25  2  0  0  0
 20 21  2  0  0  0
 21 22  1  0  0  0
 22 23  1  0  0  0
 22 24  2  0  0  0
 24 25  1  0  0  0
 25 26  1  0  0  0
  5  6  1  0  0  0
  6  7  2  0  0  0
  7  8  1  0  0  0
  8  9  2  0  0  0
  9 10  1  0  0  0
 10 27  1  0  0  0
 27 28  1  0  0  0
 28 29  1  0  0  0
 29 30  1  0  0  0
 30 31  1  0  0  0
 30 33  1  0  0  0
 31 32  2  0  0  0
 31 34  1  0  0  0
 34 35  1  0  0  0
 34 38  1  0  0  0
 35 36  1  0  0  0
 36 37  1  0  0  0
 37 38  1  0  0  0
 38 39  1  0  0  0
 39 40  2  0  0  0
 39 41  1  0  0  0
 41 42  1  0  0  0
M  END
> <minimizedAffinity>
-7.89873

$$$$
