CHEMBL3950516


 37 40  0  0  0  0  0  0  0  0999 V2000
  -28.7201   -3.1444   -6.6339 C   0  0  0  0  0  0  0  0  0  0  0  0
  -28.0343   -3.2242   -5.4206 C   0  0  0  0  0  0  0  0  0  0  0  0
  -28.3255   -4.2240   -4.4938 C   0  0  0  0  0  0  0  0  0  0  0  0
  -29.3616   -5.1257   -4.7292 C   0  0  0  0  0  0  0  0  0  0  0  0
  -30.0861   -5.0285   -5.9201 C   0  0  0  0  0  0  0  0  0  0  0  0
  -29.7740   -4.0368   -6.8635 C   0  0  0  0  0  0  0  0  0  0  0  0
  -27.1498   -3.6593   -9.0052 O   0  0  0  0  0  0  0  0  0  0  0  0
  -27.6203   -2.5500   -8.7832 C   0  0  0  0  0  0  0  0  0  0  0  0
  -28.3667   -2.2291   -7.6573 N   0  0  0  0  0  0  0  0  0  0  0  0
  -27.5025   -1.4762   -9.6520 N   0  0  0  0  0  0  0  0  0  0  0  0
  -28.8712   -1.3560   -7.6684 H   0  0  0  0  0  0  0  0  0  0  0  0
  -27.8369   -0.5856   -9.3270 H   0  0  0  0  0  0  0  0  0  0  0  0
  -26.9064   -1.5103  -10.9373 C   0  0  0  0  0  0  0  0  0  0  0  0
  -27.6253   -1.6522  -12.1293 C   0  0  0  0  0  0  0  0  0  0  0  0
  -26.9637   -1.6689  -13.3523 C   0  0  0  0  0  0  0  0  0  0  0  0
  -27.6720   -1.8083  -14.4795 F   0  0  0  0  0  0  0  0  0  0  0  0
  -25.5875   -1.5303  -13.4243 C   0  0  0  0  0  0  0  0  0  0  0  0
  -24.8440   -1.3682  -12.2524 C   0  0  0  0  0  0  0  0  0  0  0  0
  -25.5147   -1.3706  -11.0108 C   0  0  0  0  0  0  0  0  0  0  0  0
  -23.3528   -1.1713  -12.3065 C   0  0  0  0  0  0  0  0  0  0  0  0
  -22.9634    0.1188  -12.1176 F   0  0  0  0  0  0  0  0  0  0  0  0
  -22.7048   -1.9013  -11.3568 F   0  0  0  0  0  0  0  0  0  0  0  0
  -22.8209   -1.5548  -13.4995 F   0  0  0  0  0  0  0  0  0  0  0  0
  -29.6637   -6.1694   -3.8805 O   0  0  0  0  0  0  0  0  0  0  0  0
  -29.0234   -7.3887   -4.0897 C   0  0  0  0  0  0  0  0  0  0  0  0
  -28.3816   -7.5640   -5.2993 C   0  0  0  0  0  0  0  0  0  0  0  0
  -27.7902   -8.7967   -5.4880 C   0  0  0  0  0  0  0  0  0  0  0  0
  -27.8029   -9.7382   -4.5376 N   0  0  0  0  0  0  0  0  0  0  0  0
  -28.4589   -9.4713   -3.4086 C   0  0  0  0  0  0  0  0  0  0  0  0
  -29.1051   -8.3388   -3.1429 N   0  0  0  0  0  0  0  0  0  0  0  0
  -27.1789   -9.0741   -6.7250 N   0  0  0  0  0  0  0  0  0  0  0  0
  -27.8421   -9.6389   -7.7971 C   0  0  0  0  0  0  0  0  0  0  0  0
  -29.0010  -10.0285   -7.8297 O   0  0  0  0  0  0  0  0  0  0  0  0
  -26.2293   -8.7706   -6.8544 H   0  0  0  0  0  0  0  0  0  0  0  0
  -27.0686   -9.7549   -9.0704 C   0  0  0  0  0  0  0  0  0  0  0  0
  -27.4084  -10.5925  -10.2743 C   0  0  0  0  0  0  0  0  0  0  0  0
  -26.3131  -11.0361   -9.3476 C   0  0  0  0  0  0  0  0  0  0  0  0
  7  8  2  0  0  0
  8  9  1  0  0  0
  8 10  1  0  0  0
  9  1  1  0  0  0
  9 11  1  0  0  0
  1  2  1  0  0  0
  1  6  2  0  0  0
  2  3  2  0  0  0
  3  4  1  0  0  0
  4 24  1  0  0  0
  4  5  2  0  0  0
 24 25  1  0  0  0
 25 26  1  0  0  0
 25 30  2  0  0  0
 26 27  2  0  0  0
 27 31  1  0  0  0
 27 28  1  0  0  0
 31 32  1  0  0  0
 31 34  1  0  0  0
 32 33  2  0  0  0
 32 35  1  0  0  0
 35 36  1  0  0  0
 35 37  1  0  0  0
 36 37  1  0  0  0
 28 29  2  0  0  0
 29 30  1  0  0  0
  5  6  1  0  0  0
 10 13  1  0  0  0
 10 12  1  0  0  0
 13 14  1  0  0  0
 13 19  2  0  0  0
 14 15  2  0  0  0
 15 16  1  0  0  0
 15 17  1  0  0  0
 17 18  2  0  0  0
 18 20  1  0  0  0
 18 19  1  0  0  0
 20 21  1  0  0  0
 20 22  1  0  0  0
 20 23  1  0  0  0
M  END
> <minimizedAffinity>
-10.15646

$$$$
