CHEMBL200231


 35 38  0  0  0  0  0  0  0  0999 V2000
  -15.6995    2.5999  -15.9947 C   0  0  0  0  0  0  0  0  0  0  0  0
  -16.8696    3.2519  -16.1678 N   0  0  0  0  0  0  0  0  0  0  0  0
  -17.8658    2.9372  -15.3410 C   0  0  0  0  0  0  0  0  0  0  0  0
  -17.8190    2.0195  -14.3797 N   0  0  0  0  0  0  0  0  0  0  0  0
  -16.6612    1.3750  -14.2237 C   0  0  0  0  0  0  0  0  0  0  0  0
  -16.6256    0.4178  -13.2302 C   0  0  0  0  0  0  0  0  0  0  0  0
  -15.4786   -0.3189  -12.9534 C   0  0  0  0  0  0  0  0  0  0  0  0
  -14.3203   -0.0759  -13.6840 C   0  0  0  0  0  0  0  0  0  0  0  0
  -14.3384    0.8424  -14.7380 C   0  0  0  0  0  0  0  0  0  0  0  0
  -15.5201    1.6052  -15.0034 C   0  0  0  0  0  0  0  0  0  0  0  0
  -14.6162    2.9410  -16.8413 N   0  0  0  0  0  0  0  0  0  0  0  0
  -14.8595    2.6864  -17.7916 H   0  0  0  0  0  0  0  0  0  0  0  0
  -12.5796    5.6525  -15.7515 C   0  0  0  0  0  0  0  0  0  0  0  0
  -12.6093    6.5747  -16.7818 C   0  0  0  0  0  0  0  0  0  0  0  0
  -13.3872    6.2847  -17.8968 C   0  0  0  0  0  0  0  0  0  0  0  0
  -14.0820    5.0787  -17.9497 C   0  0  0  0  0  0  0  0  0  0  0  0
  -15.1512    4.8327  -19.2884 Cl  0  0  0  0  0  0  0  0  0  0  0  0
  -13.9648    4.1794  -16.8773 C   0  0  0  0  0  0  0  0  0  0  0  0
  -13.2418    4.4770  -15.7686 N   0  0  0  0  0  0  0  0  0  0  0  0
  -11.5070    7.3864  -14.5990 C   0  0  0  0  0  0  0  0  0  0  0  0
  -11.8094    5.9957  -14.6546 O   0  0  0  0  0  0  0  0  0  0  0  0
  -15.3911   -1.3008  -12.0041 O   0  0  0  0  0  0  0  0  0  0  0  0
  -15.7288   -2.6232  -12.4408 C   0  0  0  0  0  0  0  0  0  0  0  0
  -16.1425   -3.4394  -11.2262 C   0  0  0  0  0  0  0  0  0  0  0  0
  -15.0229   -3.5051  -10.1798 C   0  0  0  0  0  0  0  0  0  0  0  0
  -14.7540   -4.8861   -9.7530 N   0  0  0  0  0  0  0  0  0  0  0  0
  -13.6028   -5.0125   -8.8322 C   0  0  0  0  0  0  0  0  0  0  0  0
  -12.2385   -4.8448   -9.5182 C   0  0  0  0  0  0  0  0  0  0  0  0
  -12.0761   -5.8028  -10.5696 O   0  0  0  0  0  0  0  0  0  0  0  0
  -13.1222   -5.6732  -11.5399 C   0  0  0  0  0  0  0  0  0  0  0  0
  -14.5195   -5.7907  -10.9019 C   0  0  0  0  0  0  0  0  0  0  0  0
  -13.2655    1.0591  -15.5662 O   0  0  0  0  0  0  0  0  0  0  0  0
  -12.5675   -0.0526  -16.1422 C   0  0  0  0  0  0  0  0  0  0  0  0
  -12.7294   -0.0802  -17.6615 C   0  0  0  0  0  0  0  0  0  0  0  0
  -11.0870    0.1394  -15.8048 C   0  0  0  0  0  0  0  0  0  0  0  0
 20 21  1  0  0  0
 21 13  1  0  0  0
 13 14  1  0  0  0
 13 19  2  0  0  0
 14 15  2  0  0  0
 15 16  1  0  0  0
 16 17  1  0  0  0
 16 18  2  0  0  0
 18 11  1  0  0  0
 18 19  1  0  0  0
 11  1  1  0  0  0
 11 12  1  0  0  0
  1  2  1  0  0  0
  1 10  2  0  0  0
  2  3  2  0  0  0
  3  4  1  0  0  0
  4  5  2  0  0  0
  5  6  1  0  0  0
  5 10  1  0  0  0
  6  7  2  0  0  0
  7 22  1  0  0  0
  7  8  1  0  0  0
 22 23  1  0  0  0
 23 24  1  0  0  0
 24 25  1  0  0  0
 25 26  1  0  0  0
 26 27  1  0  0  0
 26 31  1  0  0  0
 27 28  1  0  0  0
 28 29  1  0  0  0
 29 30  1  0  0  0
 30 31  1  0  0  0
  8  9  2  0  0  0
  9 32  1  0  0  0
  9 10  1  0  0  0
 32 33  1  0  0  0
 33 34  1  0  0  0
 33 35  1  0  0  0
M  END
> <minimizedAffinity>
-6.59126

$$$$
