CHEMBL3941695


 37 40  0  0  0  0  0  0  0  0999 V2000
  -28.0518   -2.2429   -8.5134 N   0  0  0  0  0  0  0  0  0  0  0  0
  -27.3786   -1.6214   -9.6718 C   0  0  0  0  0  0  0  0  0  0  0  0
  -28.1805   -1.5672  -10.8050 C   0  0  0  0  0  0  0  0  0  0  0  0
  -27.6975   -1.5072  -12.0506 C   0  0  0  0  0  0  0  0  0  0  0  0
  -26.3667   -1.4011  -12.2721 C   0  0  0  0  0  0  0  0  0  0  0  0
  -25.9810   -1.5953  -13.5308 N   0  0  0  0  0  0  0  0  0  0  0  0
  -24.7333   -1.4095  -13.9103 C   0  0  0  0  0  0  0  0  0  0  0  0
  -23.8297   -0.8040  -13.0451 C   0  0  0  0  0  0  0  0  0  0  0  0
  -24.1482   -0.7560  -11.6733 N   0  0  0  0  0  0  0  0  0  0  0  0
  -25.4387   -1.1326  -11.2435 C   0  0  0  0  0  0  0  0  0  0  0  0
  -25.9458   -1.2927   -9.8586 C   0  0  0  0  0  0  0  0  0  0  0  0
  -22.8271    0.0437  -13.8337 C   0  0  0  0  0  0  0  0  0  0  0  0
  -22.8297    1.4492  -13.7800 C   0  0  0  0  0  0  0  0  0  0  0  0
  -21.7073    1.9471  -14.3055 N   0  0  0  0  0  0  0  0  0  0  0  0
  -20.9887    0.9297  -14.7243 N   0  0  0  0  0  0  0  0  0  0  0  0
  -19.6330    1.1473  -15.1961 C   0  0  0  0  0  0  0  0  0  0  0  0
  -21.6407   -0.2517  -14.5045 C   0  0  0  0  0  0  0  0  0  0  0  0
  -28.8104   -0.2487   -5.3333 C   0  0  0  0  0  0  0  0  0  0  0  0
  -28.5317   -1.2171   -4.3560 C   0  0  0  0  0  0  0  0  0  0  0  0
  -28.0482   -2.4737   -4.7215 C   0  0  0  0  0  0  0  0  0  0  0  0
  -27.8704   -2.7674   -6.0751 C   0  0  0  0  0  0  0  0  0  0  0  0
  -28.1285   -1.8223   -7.1129 C   0  0  0  0  0  0  0  0  0  0  0  0
  -28.5844   -0.5474   -6.7039 C   0  0  0  0  0  0  0  0  0  0  0  0
  -30.5506    1.4726   -5.3947 C   0  0  0  0  0  0  0  0  0  0  0  0
  -29.3224    0.9680   -4.9897 O   0  0  0  0  0  0  0  0  0  0  0  0
  -27.7527   -3.4321   -3.7995 O   0  0  0  0  0  0  0  0  0  0  0  0
  -27.7634   -4.7950   -4.0256 C   0  0  0  0  0  0  0  0  0  0  0  0
  -28.6398   -3.5893   -8.8441 C   0  0  0  0  0  0  0  0  0  0  0  0
  -28.0457   -4.8246   -8.0879 C   0  0  0  0  0  0  0  0  0  0  0  0
  -27.2155   -5.5325   -8.9797 O   0  0  0  0  0  0  0  0  0  0  0  0
  -27.8016   -6.0518   -9.5953 H   0  0  0  0  0  0  0  0  0  0  0  0
  -28.9784   -5.8520   -7.3695 C   0  0  0  0  0  0  0  0  0  0  0  0
  -28.3880   -7.1944   -7.5738 N   0  0  0  0  0  0  0  0  0  0  0  0
  -27.7625   -7.3684   -6.7521 H   0  0  0  0  0  0  0  0  0  0  0  0
  -29.3217   -8.3362   -7.6248 C   0  0  0  0  0  0  0  0  0  0  0  0
  -30.7779   -7.9001   -7.4164 C   0  0  0  0  0  0  0  0  0  0  0  0
  -29.1990   -9.0049   -9.0092 C   0  0  0  0  0  0  0  0  0  0  0  0
 24 25  1  0  0  0
 25 18  1  0  0  0
 18 19  1  0  0  0
 18 23  2  0  0  0
 19 20  2  0  0  0
 20 26  1  0  0  0
 20 21  1  0  0  0
 26 27  1  0  0  0
 21 22  2  0  0  0
 22  1  1  0  0  0
 22 23  1  0  0  0
  1 28  1  0  0  0
  1  2  1  0  0  0
 29 32  1  0  0  0
 29 30  1  0  0  0
 29 28  1  0  0  0
 30 31  1  0  0  0
 32 33  1  0  0  0
 33 35  1  0  0  0
 33 34  1  0  0  0
 35 36  1  0  0  0
 35 37  1  0  0  0
  2  3  1  0  0  0
  2 11  2  0  0  0
  3  4  2  0  0  0
  4  5  1  0  0  0
  5  6  1  0  0  0
  5 10  2  0  0  0
  6  7  2  0  0  0
  7  8  1  0  0  0
  8 12  1  0  0  0
  8  9  2  0  0  0
 12 13  1  0  0  0
 12 17  2  0  0  0
 13 14  2  0  0  0
 14 15  1  0  0  0
 15 16  1  0  0  0
 15 17  1  0  0  0
  9 10  1  0  0  0
 10 11  1  0  0  0
M  END
> <minimizedAffinity>
-8.52728

$$$$
