CHEMBL2071211


 29 32  0  0  0  0  0  0  0  0999 V2000
  -27.2546   -7.9655   -4.6864 C   0  0  0  0  0  0  0  0  0  0  0  0
  -27.7634   -9.0201   -5.3330 N   0  0  0  0  0  0  0  0  0  0  0  0
  -28.9230   -8.8164   -5.9917 C   0  0  0  0  0  0  0  0  0  0  0  0
  -29.5512   -7.5896   -6.1023 C   0  0  0  0  0  0  0  0  0  0  0  0
  -30.9513   -7.4044   -7.0722 Cl  0  0  0  0  0  0  0  0  0  0  0  0
  -28.9233   -6.5303   -5.4595 C   0  0  0  0  0  0  0  0  0  0  0  0
  -27.8243   -6.7468   -4.7060 N   0  0  0  0  0  0  0  0  0  0  0  0
  -26.0184   -8.1444   -4.0577 N   0  0  0  0  0  0  0  0  0  0  0  0
  -25.8160   -7.3430   -3.4740 H   0  0  0  0  0  0  0  0  0  0  0  0
  -22.6952  -11.5020   -5.2352 C   0  0  0  0  0  0  0  0  0  0  0  0
  -23.7628  -10.7587   -4.6125 N   0  0  0  0  0  0  0  0  0  0  0  0
  -24.2716   -9.5495   -5.0041 C   0  0  0  0  0  0  0  0  0  0  0  0
  -25.2340   -9.2389   -4.0759 C   0  0  0  0  0  0  0  0  0  0  0  0
  -25.2500  -10.3306   -3.1850 C   0  0  0  0  0  0  0  0  0  0  0  0
  -24.3607  -11.2695   -3.5200 N   0  0  0  0  0  0  0  0  0  0  0  0
  -29.4424   -5.1996   -5.5614 N   0  0  0  0  0  0  0  0  0  0  0  0
  -29.7014   -5.0289   -6.5324 H   0  0  0  0  0  0  0  0  0  0  0  0
  -28.4997   -4.1918   -5.0464 C   0  0  0  0  0  0  0  0  0  0  0  0
  -28.2017   -3.0518   -6.0573 C   0  0  0  0  0  0  0  0  0  0  0  0
  -29.4574   -2.1924   -6.3189 C   0  0  0  0  0  0  0  0  0  0  0  0
  -29.5434   -1.3140   -5.0679 C   0  0  0  0  0  0  0  0  0  0  0  0
  -28.4734   -1.9352   -4.1532 C   0  0  0  0  0  0  0  0  0  0  0  0
  -27.3517   -2.1376   -5.1750 C   0  0  0  0  0  0  0  0  0  0  0  0
  -28.8649   -3.4001   -3.7600 C   0  0  0  0  0  0  0  0  0  0  0  0
  -30.2476   -3.4366   -3.1254 C   0  0  0  0  0  0  0  0  0  0  0  0
  -30.4291   -2.7350   -1.9816 N   0  0  0  0  0  0  0  0  0  0  0  0
  -31.2173   -3.9740   -3.6549 O   0  0  0  0  0  0  0  0  0  0  0  0
  -29.6840   -2.1929   -1.5579 H   0  0  0  0  0  0  0  0  0  0  0  0
  -31.3646   -2.6962   -1.5994 H   0  0  0  0  0  0  0  0  0  0  0  0
 10 11  1  0  0  0
 11 12  1  0  0  0
 11 15  1  0  0  0
 12 13  2  0  0  0
 13  8  1  0  0  0
 13 14  1  0  0  0
  8  1  1  0  0  0
  8  9  1  0  0  0
  1  2  1  0  0  0
  1  7  2  0  0  0
  2  3  2  0  0  0
  3  4  1  0  0  0
  4  5  1  0  0  0
  4  6  2  0  0  0
  6 16  1  0  0  0
  6  7  1  0  0  0
 16 17  1  0  0  0
 18 19  1  0  0  0
 18 24  1  0  0  0
 18 16  1  0  0  0
 19 20  1  0  0  0
 19 23  1  0  0  0
 20 21  1  0  0  0
 21 22  1  0  0  0
 22 23  1  0  0  0
 22 24  1  0  0  0
 24 25  1  0  0  0
 25 26  1  0  0  0
 25 27  2  0  0  0
 26 28  1  0  0  0
 26 29  1  0  0  0
 14 15  2  0  0  0
M  END
> <minimizedAffinity>
-7.64305

$$$$
