CHEMBL3947293


 29 32  0  0  0  0  0  0  0  0999 V2000
  -18.4819    2.0632  -15.3503 C   0  0  0  0  0  0  0  0  0  0  0  0
  -19.2867    3.1245  -15.7314 C   0  0  0  0  0  0  0  0  0  0  0  0
  -20.5363    3.3422  -15.1670 C   0  0  0  0  0  0  0  0  0  0  0  0
  -21.1482    2.4102  -14.4224 C   0  0  0  0  0  0  0  0  0  0  0  0
  -22.3228    2.8366  -13.9681 N   0  0  0  0  0  0  0  0  0  0  0  0
  -23.1556    1.8787  -13.5774 C   0  0  0  0  0  0  0  0  0  0  0  0
  -22.8249    0.5406  -13.6743 C   0  0  0  0  0  0  0  0  0  0  0  0
  -21.5434    0.1292  -13.9902 N   0  0  0  0  0  0  0  0  0  0  0  0
  -20.6222    1.1109  -14.3564 C   0  0  0  0  0  0  0  0  0  0  0  0
  -19.2040    1.0083  -14.7125 C   0  0  0  0  0  0  0  0  0  0  0  0
  -23.9521   -0.3746  -13.5653 C   0  0  0  0  0  0  0  0  0  0  0  0
  -24.6927   -1.0376  -14.5825 C   0  0  0  0  0  0  0  0  0  0  0  0
  -25.8209   -1.5954  -14.1216 N   0  0  0  0  0  0  0  0  0  0  0  0
  -25.8105   -1.2765  -12.8167 N   0  0  0  0  0  0  0  0  0  0  0  0
  -26.6456   -1.9795  -11.8732 C   0  0  0  0  0  0  0  0  0  0  0  0
  -24.8276   -0.3854  -12.4929 C   0  0  0  0  0  0  0  0  0  0  0  0
  -17.0854    2.1237  -15.6515 N   0  0  0  0  0  0  0  0  0  0  0  0
  -16.0163    1.2826  -15.2185 C   0  0  0  0  0  0  0  0  0  0  0  0
  -14.9396    0.9369  -16.0471 C   0  0  0  0  0  0  0  0  0  0  0  0
  -13.9621    0.0133  -15.6258 C   0  0  0  0  0  0  0  0  0  0  0  0
  -14.0177   -0.5679  -14.3572 C   0  0  0  0  0  0  0  0  0  0  0  0
  -15.0462   -0.2024  -13.5014 C   0  0  0  0  0  0  0  0  0  0  0  0
  -16.0329    0.6879  -13.9380 C   0  0  0  0  0  0  0  0  0  0  0  0
  -15.2118   -0.6919  -12.2319 O   0  0  0  0  0  0  0  0  0  0  0  0
  -15.4823   -2.0891  -12.1765 C   0  0  0  0  0  0  0  0  0  0  0  0
  -16.6339    3.1987  -16.6208 C   0  0  0  0  0  0  0  0  0  0  0  0
  -15.9492    4.4773  -16.0616 C   0  0  0  0  0  0  0  0  0  0  0  0
  -15.0045    4.1647  -18.2442 C   0  0  0  0  0  0  0  0  0  0  0  0
  -15.2082    5.0559  -17.1563 O   0  0  0  0  0  0  0  0  0  0  0  0
 28 29  1  0  0  0
 29 27  1  0  0  0
 27 26  1  0  0  0
 26 17  1  0  0  0
 17 18  1  0  0  0
 17  1  1  0  0  0
 18 19  1  0  0  0
 18 23  2  0  0  0
 19 20  2  0  0  0
 20 21  1  0  0  0
 21 22  2  0  0  0
 22 24  1  0  0  0
 22 23  1  0  0  0
 24 25  1  0  0  0
  1  2  1  0  0  0
  1 10  2  0  0  0
  2  3  2  0  0  0
  3  4  1  0  0  0
  4  5  1  0  0  0
  4  9  2  0  0  0
  5  6  2  0  0  0
  6  7  1  0  0  0
  7 11  1  0  0  0
  7  8  2  0  0  0
 11 12  1  0  0  0
 11 16  2  0  0  0
 12 13  2  0  0  0
 13 14  1  0  0  0
 14 15  1  0  0  0
 14 16  1  0  0  0
  8  9  1  0  0  0
  9 10  1  0  0  0
M  END
> <minimizedAffinity>
-8.16479

$$$$
