CHEMBL3648115


 31 32  0  0  0  0  0  0  0  0999 V2000
  -29.0947   -7.9052   -7.3471 C   0  0  0  0  0  0  0  0  0  0  0  0
  -29.2247   -8.1550   -8.6599 N   0  0  0  0  0  0  0  0  0  0  0  0
  -28.6000   -9.2466   -9.1338 C   0  0  0  0  0  0  0  0  0  0  0  0
  -27.8431  -10.0863   -8.3489 C   0  0  0  0  0  0  0  0  0  0  0  0
  -27.0267  -11.6074   -9.1067 Br  0  0  0  0  0  0  0  0  0  0  0  0
  -27.6998   -9.7208   -7.0162 C   0  0  0  0  0  0  0  0  0  0  0  0
  -28.3348   -8.6433   -6.5186 N   0  0  0  0  0  0  0  0  0  0  0  0
  -29.8447   -6.8859   -6.7635 N   0  0  0  0  0  0  0  0  0  0  0  0
  -30.3404   -7.2771   -5.9695 H   0  0  0  0  0  0  0  0  0  0  0  0
  -28.8358   -3.7173   -5.1140 C   0  0  0  0  0  0  0  0  0  0  0  0
  -29.2605   -5.0369   -5.3281 C   0  0  0  0  0  0  0  0  0  0  0  0
  -29.4989   -5.5331   -6.6187 C   0  0  0  0  0  0  0  0  0  0  0  0
  -29.2947   -4.6903   -7.7127 C   0  0  0  0  0  0  0  0  0  0  0  0
  -28.8500   -3.3801   -7.5237 C   0  0  0  0  0  0  0  0  0  0  0  0
  -28.6161   -2.8986   -6.2290 C   0  0  0  0  0  0  0  0  0  0  0  0
  -27.9369   -1.2563   -6.0509 S   0  0  0  0  0  0  0  0  0  0  0  0
  -29.2736   -0.2773   -5.4225 C   0  0  0  0  0  0  0  0  0  0  0  0
  -26.8408   -1.3473   -4.9665 N   0  0  0  0  0  0  0  0  0  0  0  0
  -27.6925   -0.7575   -7.3953 O   0  0  0  0  0  0  0  0  0  0  0  0
  -27.2446   -1.5122   -4.0420 H   0  0  0  0  0  0  0  0  0  0  0  0
  -29.8188   -2.9414   -3.0891 C   0  0  0  0  0  0  0  0  0  0  0  0
  -28.6511   -3.1721   -3.8715 O   0  0  0  0  0  0  0  0  0  0  0  0
  -26.9852  -10.5608   -6.1337 N   0  0  0  0  0  0  0  0  0  0  0  0
  -26.9202  -11.5013   -6.5215 H   0  0  0  0  0  0  0  0  0  0  0  0
  -25.6684  -10.0680   -5.6591 C   0  0  0  0  0  0  0  0  0  0  0  0
  -24.6109  -11.1618   -5.8258 C   0  0  0  0  0  0  0  0  0  0  0  0
  -25.8340   -9.5661   -4.1848 C   0  0  0  0  0  0  0  0  0  0  0  0
  -27.0612  -10.1341   -3.4628 C   0  0  0  0  0  0  0  0  0  0  0  0
  -24.5773   -9.8413   -3.3542 C   0  0  0  0  0  0  0  0  0  0  0  0
  -26.0016   -8.1367   -4.2281 O   0  0  0  0  0  0  0  0  0  0  0  0
  -26.4923   -7.9650   -5.0590 H   0  0  0  0  0  0  0  0  0  0  0  0
 21 22  1  0  0  0
 22 10  1  0  0  0
 10 11  1  0  0  0
 10 15  2  0  0  0
 11 12  2  0  0  0
 12  8  1  0  0  0
 12 13  1  0  0  0
  8  1  1  0  0  0
  8  9  1  0  0  0
  1  2  1  0  0  0
  1  7  2  0  0  0
  2  3  2  0  0  0
  3  4  1  0  0  0
  4  5  1  0  0  0
  4  6  2  0  0  0
  6 23  1  0  0  0
  6  7  1  0  0  0
 23 24  1  0  0  0
 25 27  1  0  0  0
 25 26  1  0  0  0
 25 23  1  0  0  0
 27 28  1  0  0  0
 27 29  1  0  0  0
 27 30  1  0  0  0
 30 31  1  0  0  0
 13 14  2  0  0  0
 14 15  1  0  0  0
 15 16  1  0  0  0
 16 17  1  0  0  0
 16 18  2  0  0  0
 16 19  2  0  0  0
 18 20  1  0  0  0
M  END
> <minimizedAffinity>
-7.10202

$$$$
