CHEMBL1097189


 36 40  0  0  0  0  0  0  0  0999 V2000
  -24.6430   -9.7651   -3.8384 N   0  0  0  0  0  0  0  0  0  0  0  0
  -26.0447   -9.6220   -4.2174 C   0  0  0  0  0  0  0  0  0  0  0  0
  -26.3160  -10.2443   -5.6018 C   0  0  0  0  0  0  0  0  0  0  0  0
  -27.8345  -10.2626   -5.8995 C   0  0  0  0  0  0  0  0  0  0  0  0
  -28.4891   -8.9678   -5.4990 C   0  0  0  0  0  0  0  0  0  0  0  0
  -27.8313   -7.9883   -4.7699 C   0  0  0  0  0  0  0  0  0  0  0  0
  -28.7228   -6.9577   -4.6070 C   0  0  0  0  0  0  0  0  0  0  0  0
  -28.5874   -5.7239   -3.9664 C   0  0  0  0  0  0  0  0  0  0  0  0
  -29.7032   -4.8648   -3.9271 C   0  0  0  0  0  0  0  0  0  0  0  0
  -30.9263   -5.2922   -4.5233 C   0  0  0  0  0  0  0  0  0  0  0  0
  -31.0334   -6.5405   -5.1548 C   0  0  0  0  0  0  0  0  0  0  0  0
  -29.9036   -7.3584   -5.1975 C   0  0  0  0  0  0  0  0  0  0  0  0
  -29.7702   -8.5912   -5.7568 N   0  0  0  0  0  0  0  0  0  0  0  0
  -26.4367   -8.1231   -4.2448 C   0  0  0  0  0  0  0  0  0  0  0  0
  -24.4196  -10.7826   -3.7477 H   0  0  0  0  0  0  0  0  0  0  0  0
  -24.4977   -9.3309   -2.8977 H   0  0  0  0  0  0  0  0  0  0  0  0
  -29.5826   -3.6506   -3.3195 O   0  0  0  0  0  0  0  0  0  0  0  0
  -28.7764   -2.6374   -3.8036 C   0  0  0  0  0  0  0  0  0  0  0  0
  -29.4820   -1.8043   -4.8802 C   0  0  0  0  0  0  0  0  0  0  0  0
  -28.8365   -2.0728   -6.2229 C   0  0  0  0  0  0  0  0  0  0  0  0
  -28.1344   -1.0559   -6.8928 C   0  0  0  0  0  0  0  0  0  0  0  0
  -27.5733   -1.2928   -8.1521 C   0  0  0  0  0  0  0  0  0  0  0  0
  -27.7061   -2.5520   -8.7580 C   0  0  0  0  0  0  0  0  0  0  0  0
  -27.1841   -2.7905   -9.9780 O   0  0  0  0  0  0  0  0  0  0  0  0
  -28.3919   -3.5714   -8.0914 C   0  0  0  0  0  0  0  0  0  0  0  0
  -28.9508   -3.3375   -6.8321 C   0  0  0  0  0  0  0  0  0  0  0  0
  -26.7152   -2.1080  -10.4790 H   0  0  0  0  0  0  0  0  0  0  0  0
  -30.7778   -9.3753   -6.4889 C   0  0  0  0  0  0  0  0  0  0  0  0
  -30.9644   -8.8343   -7.9137 C   0  0  0  0  0  0  0  0  0  0  0  0
  -30.8361   -9.9286   -8.9856 C   0  0  0  0  0  0  0  0  0  0  0  0
  -29.3767  -10.1996   -9.2744 C   0  0  0  0  0  0  0  0  0  0  0  0
  -28.9301  -11.5085   -9.5348 C   0  0  0  0  0  0  0  0  0  0  0  0
  -27.5742  -11.7607   -9.7636 C   0  0  0  0  0  0  0  0  0  0  0  0
  -26.6529  -10.7113   -9.7425 C   0  0  0  0  0  0  0  0  0  0  0  0
  -27.0866   -9.4060   -9.4983 C   0  0  0  0  0  0  0  0  0  0  0  0
  -28.4417   -9.1484   -9.2651 C   0  0  0  0  0  0  0  0  0  0  0  0
  1  2  1  0  0  0
  1 15  1  0  0  0
  1 16  1  0  0  0
  2  3  1  0  0  0
  2 14  1  0  0  0
  3  4  1  0  0  0
  4  5  1  0  0  0
  5  6  2  0  0  0
  5 13  1  0  0  0
  6  7  1  0  0  0
  6 14  1  0  0  0
  7  8  1  0  0  0
  7 12  2  0  0  0
  8  9  2  0  0  0
  9 17  1  0  0  0
  9 10  1  0  0  0
 17 18  1  0  0  0
 18 19  1  0  0  0
 19 20  1  0  0  0
 20 21  1  0  0  0
 20 26  2  0  0  0
 21 22  2  0  0  0
 22 23  1  0  0  0
 23 24  1  0  0  0
 23 25  2  0  0  0
 24 27  1  0  0  0
 25 26  1  0  0  0
 10 11  2  0  0  0
 11 12  1  0  0  0
 12 13  1  0  0  0
 13 28  1  0  0  0
 28 29  1  0  0  0
 29 30  1  0  0  0
 30 31  1  0  0  0
 31 32  1  0  0  0
 31 36  2  0  0  0
 32 33  2  0  0  0
 33 34  1  0  0  0
 34 35  2  0  0  0
 35 36  1  0  0  0
M  END
> <minimizedAffinity>
-8.55227

$$$$
