CHEMBL4107720


 42 46  0  0  0  0  0  0  0  0999 V2000
  -12.9169   -3.2574  -17.3720 C   0  0  0  0  0  0  0  0  0  0  0  0
  -13.3061   -3.0238  -16.0526 C   0  0  0  0  0  0  0  0  0  0  0  0
  -13.2790   -1.7280  -15.5142 C   0  0  0  0  0  0  0  0  0  0  0  0
  -12.8625   -0.6515  -16.2951 C   0  0  0  0  0  0  0  0  0  0  0  0
  -12.3707   -0.9058  -17.5785 C   0  0  0  0  0  0  0  0  0  0  0  0
  -11.8892    0.0872  -18.3398 F   0  0  0  0  0  0  0  0  0  0  0  0
  -12.4197   -2.1907  -18.1250 C   0  0  0  0  0  0  0  0  0  0  0  0
  -13.8870   -4.8939  -19.0098 C   0  0  0  0  0  0  0  0  0  0  0  0
  -14.7571   -4.1743  -19.5005 O   0  0  0  0  0  0  0  0  0  0  0  0
  -13.0072   -4.5129  -18.0086 N   0  0  0  0  0  0  0  0  0  0  0  0
  -12.2859   -5.1958  -17.7556 H   0  0  0  0  0  0  0  0  0  0  0  0
  -13.2761   -5.8878  -22.0334 C   0  0  0  0  0  0  0  0  0  0  0  0
  -13.3270   -6.6977  -20.7699 C   0  0  0  0  0  0  0  0  0  0  0  0
  -13.6545   -6.2661  -19.5344 C   0  0  0  0  0  0  0  0  0  0  0  0
  -13.8202   -7.5046  -18.7442 C   0  0  0  0  0  0  0  0  0  0  0  0
  -14.0776   -7.5070  -17.5472 O   0  0  0  0  0  0  0  0  0  0  0  0
  -13.5956   -8.5839  -19.6029 N   0  0  0  0  0  0  0  0  0  0  0  0
  -13.0732   -8.0815  -20.8033 N   0  0  0  0  0  0  0  0  0  0  0  0
  -13.2031   -8.8863  -22.0172 C   0  0  0  0  0  0  0  0  0  0  0  0
  -13.4024   -9.8923  -19.1218 C   0  0  0  0  0  0  0  0  0  0  0  0
  -12.1503  -10.2035  -18.5730 C   0  0  0  0  0  0  0  0  0  0  0  0
  -11.8900  -11.4802  -18.0813 C   0  0  0  0  0  0  0  0  0  0  0  0
  -12.8680  -12.4657  -18.1715 C   0  0  0  0  0  0  0  0  0  0  0  0
  -14.1124  -12.1698  -18.7352 C   0  0  0  0  0  0  0  0  0  0  0  0
  -14.3894  -10.8763  -19.1931 C   0  0  0  0  0  0  0  0  0  0  0  0
  -12.9393    0.6044  -15.7262 O   0  0  0  0  0  0  0  0  0  0  0  0
  -13.8766    1.5137  -16.1975 C   0  0  0  0  0  0  0  0  0  0  0  0
  -13.6262    2.3553  -17.2832 C   0  0  0  0  0  0  0  0  0  0  0  0
  -14.5844    3.2863  -17.6231 C   0  0  0  0  0  0  0  0  0  0  0  0
  -15.7841    3.3757  -17.0223 N   0  0  0  0  0  0  0  0  0  0  0  0
  -16.0681    2.5044  -16.0416 C   0  0  0  0  0  0  0  0  0  0  0  0
  -17.3311    2.5681  -15.4764 C   0  0  0  0  0  0  0  0  0  0  0  0
  -17.7288    1.7140  -14.4487 C   0  0  0  0  0  0  0  0  0  0  0  0
  -16.8417    0.7514  -13.9827 C   0  0  0  0  0  0  0  0  0  0  0  0
  -15.5553    0.6723  -14.5309 C   0  0  0  0  0  0  0  0  0  0  0  0
  -15.1471    1.5450  -15.5726 C   0  0  0  0  0  0  0  0  0  0  0  0
  -19.0118    1.9030  -14.0143 O   0  0  0  0  0  0  0  0  0  0  0  0
  -19.6549    3.1137  -14.4293 C   0  0  0  0  0  0  0  0  0  0  0  0
  -21.1287    2.8073  -14.7461 C   0  0  0  0  0  0  0  0  0  0  0  0
  -21.5477    1.4172  -14.2815 C   0  0  0  0  0  0  0  0  0  0  0  0
  -21.9830    3.7690  -14.1230 O   0  0  0  0  0  0  0  0  0  0  0  0
  -21.8101    3.7134  -13.1643 H   0  0  0  0  0  0  0  0  0  0  0  0
 12 13  1  0  0  0
 13 14  2  0  0  0
 13 18  1  0  0  0
 14  8  1  0  0  0
 14 15  1  0  0  0
  8  9  2  0  0  0
  8 10  1  0  0  0
 10  1  1  0  0  0
 10 11  1  0  0  0
  1  2  1  0  0  0
  1  7  2  0  0  0
  2  3  2  0  0  0
  3  4  1  0  0  0
  4 26  1  0  0  0
  4  5  2  0  0  0
 26 27  1  0  0  0
 27 28  1  0  0  0
 27 36  2  0  0  0
 28 29  2  0  0  0
 29 30  1  0  0  0
 30 31  2  0  0  0
 31 32  1  0  0  0
 31 36  1  0  0  0
 32 33  2  0  0  0
 33 37  1  0  0  0
 33 34  1  0  0  0
 37 38  1  0  0  0
 38 39  1  0  0  0
 39 40  1  0  0  0
 39 41  1  0  0  0
 41 42  1  0  0  0
 34 35  2  0  0  0
 35 36  1  0  0  0
  5  6  1  0  0  0
  5  7  1  0  0  0
 15 16  2  0  0  0
 15 17  1  0  0  0
 17 20  1  0  0  0
 17 18  1  0  0  0
 20 21  1  0  0  0
 20 25  2  0  0  0
 21 22  2  0  0  0
 22 23  1  0  0  0
 23 24  2  0  0  0
 24 25  1  0  0  0
 18 19  1  0  0  0
M  END
> <minimizedAffinity>
-7.77726

$$$$
