CHEMBL297856


 25 28  0  0  0  0  0  0  0  0999 V2000
  -29.7336   -4.7820   -6.0282 C   0  0  0  0  0  0  0  0  0  0  0  0
  -29.5044   -3.8851   -7.0517 C   0  0  0  0  0  0  0  0  0  0  0  0
  -28.7509   -4.3645   -8.0889 C   0  0  0  0  0  0  0  0  0  0  0  0
  -28.2987   -5.6230   -8.1454 N   0  0  0  0  0  0  0  0  0  0  0  0
  -28.6470   -6.4628   -7.1587 C   0  0  0  0  0  0  0  0  0  0  0  0
  -29.3231   -6.0703   -6.0736 N   0  0  0  0  0  0  0  0  0  0  0  0
  -30.1821   -3.1363   -4.1494 C   0  0  0  0  0  0  0  0  0  0  0  0
  -30.8662   -3.1577   -3.0116 N   0  0  0  0  0  0  0  0  0  0  0  0
  -31.5995   -4.3090   -3.0188 C   0  0  0  0  0  0  0  0  0  0  0  0
  -31.3767   -5.0169   -4.1705 C   0  0  0  0  0  0  0  0  0  0  0  0
  -30.3948   -4.3261   -4.8529 N   0  0  0  0  0  0  0  0  0  0  0  0
  -27.8886    0.3035   -5.2936 C   0  0  0  0  0  0  0  0  0  0  0  0
  -29.2654    0.2674   -5.5056 C   0  0  0  0  0  0  0  0  0  0  0  0
  -30.0005   -0.8710   -5.1586 C   0  0  0  0  0  0  0  0  0  0  0  0
  -29.3692   -1.9876   -4.5950 C   0  0  0  0  0  0  0  0  0  0  0  0
  -27.9693   -1.9683   -4.4897 C   0  0  0  0  0  0  0  0  0  0  0  0
  -27.2372   -0.8197   -4.7965 C   0  0  0  0  0  0  0  0  0  0  0  0
  -28.2398   -7.7935   -7.2167 N   0  0  0  0  0  0  0  0  0  0  0  0
  -28.6308   -8.2948   -6.4293 H   0  0  0  0  0  0  0  0  0  0  0  0
  -28.2811   -8.5372   -8.4051 C   0  0  0  0  0  0  0  0  0  0  0  0
  -29.4883   -9.0935   -8.8155 C   0  0  0  0  0  0  0  0  0  0  0  0
  -29.5069   -9.9263   -9.9358 C   0  0  0  0  0  0  0  0  0  0  0  0
  -28.3288  -10.1496  -10.6402 C   0  0  0  0  0  0  0  0  0  0  0  0
  -27.1841   -9.5109  -10.2029 C   0  0  0  0  0  0  0  0  0  0  0  0
  -27.1482   -8.7156   -9.1206 N   0  0  0  0  0  0  0  0  0  0  0  0
 12 13  1  0  0  0
 12 17  2  0  0  0
 13 14  2  0  0  0
 14 15  1  0  0  0
 15  7  1  0  0  0
 15 16  2  0  0  0
  7  8  2  0  0  0
  7 11  1  0  0  0
  8  9  1  0  0  0
  9 10  2  0  0  0
 10 11  1  0  0  0
 11  1  1  0  0  0
  1  2  1  0  0  0
  1  6  2  0  0  0
  2  3  2  0  0  0
  3  4  1  0  0  0
  4  5  2  0  0  0
  5 18  1  0  0  0
  5  6  1  0  0  0
 18 20  1  0  0  0
 18 19  1  0  0  0
 20 21  1  0  0  0
 20 25  2  0  0  0
 21 22  2  0  0  0
 22 23  1  0  0  0
 23 24  2  0  0  0
 24 25  1  0  0  0
 16 17  1  0  0  0
M  END
> <minimizedAffinity>
-8.34192

$$$$
