CHEMBL1242751


 25 27  0  0  0  0  0  0  0  0999 V2000
  -29.6185   -2.9991   -5.4954 C   0  0  0  0  0  0  0  0  0  0  0  0
  -29.6213   -1.7424   -4.9912 N   0  0  0  0  0  0  0  0  0  0  0  0
  -29.0336   -0.9953   -5.9475 N   0  0  0  0  0  0  0  0  0  0  0  0
  -28.5496   -1.7191   -6.9987 C   0  0  0  0  0  0  0  0  0  0  0  0
  -27.8448   -1.2533   -8.0405 N   0  0  0  0  0  0  0  0  0  0  0  0
  -27.5238   -2.2321   -8.8943 C   0  0  0  0  0  0  0  0  0  0  0  0
  -27.8465   -3.5355   -8.8129 N   0  0  0  0  0  0  0  0  0  0  0  0
  -28.5829   -3.9604   -7.7613 C   0  0  0  0  0  0  0  0  0  0  0  0
  -28.8798   -5.3028   -7.7618 N   0  0  0  0  0  0  0  0  0  0  0  0
  -28.9395   -3.0334   -6.7641 C   0  0  0  0  0  0  0  0  0  0  0  0
  -28.5118   -5.8363   -8.5369 H   0  0  0  0  0  0  0  0  0  0  0  0
  -29.5405   -5.7156   -7.1252 H   0  0  0  0  0  0  0  0  0  0  0  0
  -30.0619   -6.2852   -3.5956 C   0  0  0  0  0  0  0  0  0  0  0  0
  -31.3540   -6.0910   -3.0941 C   0  0  0  0  0  0  0  0  0  0  0  0
  -32.0848   -4.9606   -3.4437 C   0  0  0  0  0  0  0  0  0  0  0  0
  -31.5198   -3.9998   -4.2782 C   0  0  0  0  0  0  0  0  0  0  0  0
  -30.1912   -4.1120   -4.7237 C   0  0  0  0  0  0  0  0  0  0  0  0
  -29.4737   -5.2925   -4.4147 C   0  0  0  0  0  0  0  0  0  0  0  0
  -29.1580   -8.3839   -4.2552 C   0  0  0  0  0  0  0  0  0  0  0  0
  -29.3010   -7.3777   -3.2575 O   0  0  0  0  0  0  0  0  0  0  0  0
  -28.1730   -5.3948   -4.8587 O   0  0  0  0  0  0  0  0  0  0  0  0
  -27.2054   -4.7966   -3.9947 C   0  0  0  0  0  0  0  0  0  0  0  0
  -28.9776    0.4580   -5.8002 C   0  0  0  0  0  0  0  0  0  0  0  0
  -30.3827    1.0454   -5.6379 C   0  0  0  0  0  0  0  0  0  0  0  0
  -28.0678    0.8733   -4.6434 C   0  0  0  0  0  0  0  0  0  0  0  0
 19 20  1  0  0  0
 20 13  1  0  0  0
 13 14  1  0  0  0
 13 18  2  0  0  0
 14 15  2  0  0  0
 15 16  1  0  0  0
 16 17  2  0  0  0
 17  1  1  0  0  0
 17 18  1  0  0  0
  1  2  2  0  0  0
  1 10  1  0  0  0
  2  3  1  0  0  0
  3 23  1  0  0  0
  3  4  1  0  0  0
 23 24  1  0  0  0
 23 25  1  0  0  0
  4  5  1  0  0  0
  4 10  2  0  0  0
  5  6  2  0  0  0
  6  7  1  0  0  0
  7  8  2  0  0  0
  8  9  1  0  0  0
  8 10  1  0  0  0
  9 11  1  0  0  0
  9 12  1  0  0  0
 18 21  1  0  0  0
 21 22  1  0  0  0
M  END
> <minimizedAffinity>
-7.83530

$$$$
