CHEMBL2088257


 30 33  0  0  0  0  0  0  0  0999 V2000
  -28.9751   -3.6611   -6.5168 C   0  0  0  0  0  0  0  0  0  0  0  0
  -28.6595   -2.5925   -5.7037 C   0  0  0  0  0  0  0  0  0  0  0  0
  -27.9047   -1.5949   -6.2720 C   0  0  0  0  0  0  0  0  0  0  0  0
  -27.4877   -1.6127   -7.5486 N   0  0  0  0  0  0  0  0  0  0  0  0
  -27.8229   -2.6860   -8.2685 C   0  0  0  0  0  0  0  0  0  0  0  0
  -28.5612   -3.6924   -7.7967 N   0  0  0  0  0  0  0  0  0  0  0  0
  -29.6951   -4.7414   -5.9699 N   0  0  0  0  0  0  0  0  0  0  0  0
  -30.6978   -4.6211   -5.9723 H   0  0  0  0  0  0  0  0  0  0  0  0
  -28.2768   -7.6570   -4.5679 C   0  0  0  0  0  0  0  0  0  0  0  0
  -28.6641   -6.9644   -5.6897 C   0  0  0  0  0  0  0  0  0  0  0  0
  -29.2580   -5.7729   -5.2181 C   0  0  0  0  0  0  0  0  0  0  0  0
  -29.3107   -5.7589   -3.8817 N   0  0  0  0  0  0  0  0  0  0  0  0
  -28.7051   -6.9021   -3.5139 N   0  0  0  0  0  0  0  0  0  0  0  0
  -28.5748   -7.0881   -2.5240 H   0  0  0  0  0  0  0  0  0  0  0  0
  -27.5171   -8.9234   -4.4100 C   0  0  0  0  0  0  0  0  0  0  0  0
  -26.0255   -8.6726   -4.1607 C   0  0  0  0  0  0  0  0  0  0  0  0
  -25.2969   -9.8681   -3.5509 C   0  0  0  0  0  0  0  0  0  0  0  0
  -23.6319   -9.8234   -5.2211 C   0  0  0  0  0  0  0  0  0  0  0  0
  -24.6458  -10.5944   -4.5928 O   0  0  0  0  0  0  0  0  0  0  0  0
  -27.3779   -2.8419   -9.5674 N   0  0  0  0  0  0  0  0  0  0  0  0
  -27.8030   -3.6900   -9.9266 H   0  0  0  0  0  0  0  0  0  0  0  0
  -27.4909   -1.6920  -10.4433 C   0  0  0  0  0  0  0  0  0  0  0  0
  -26.4436   -1.5861  -11.4941 C   0  0  0  0  0  0  0  0  0  0  0  0
  -25.0947   -1.3192  -11.4869 C   0  0  0  0  0  0  0  0  0  0  0  0
  -24.7261   -1.3880  -12.8436 C   0  0  0  0  0  0  0  0  0  0  0  0
  -25.7667   -1.6735  -13.6315 N   0  0  0  0  0  0  0  0  0  0  0  0
  -26.8506   -1.7942  -12.7779 O   0  0  0  0  0  0  0  0  0  0  0  0
  -23.3070   -1.1645  -13.3406 C   0  0  0  0  0  0  0  0  0  0  0  0
  -22.4651   -0.0870  -12.6856 C   0  0  0  0  0  0  0  0  0  0  0  0
  -22.9815    0.1264  -14.0665 C   0  0  0  0  0  0  0  0  0  0  0  0
 18 19  1  0  0  0
 19 17  1  0  0  0
 17 16  1  0  0  0
 16 15  1  0  0  0
 15  9  1  0  0  0
  9 10  2  0  0  0
  9 13  1  0  0  0
 10 11  1  0  0  0
 11  7  1  0  0  0
 11 12  2  0  0  0
  7  1  1  0  0  0
  7  8  1  0  0  0
  1  2  1  0  0  0
  1  6  2  0  0  0
  2  3  2  0  0  0
  3  4  1  0  0  0
  4  5  2  0  0  0
  5 20  1  0  0  0
  5  6  1  0  0  0
 20 22  1  0  0  0
 20 21  1  0  0  0
 22 23  1  0  0  0
 23 24  2  0  0  0
 23 27  1  0  0  0
 24 25  1  0  0  0
 25 28  1  0  0  0
 25 26  2  0  0  0
 28 29  1  0  0  0
 28 30  1  0  0  0
 29 30  1  0  0  0
 26 27  1  0  0  0
 12 13  1  0  0  0
 13 14  1  0  0  0
M  END
> <minimizedAffinity>
-8.00634

$$$$
