CHEMBL3918011


 40 45  0  0  0  0  0  0  0  0999 V2000
  -14.2630    2.1589  -16.3451 C   0  0  0  0  0  0  0  0  0  0  0  0
  -13.9304    1.9722  -15.0255 C   0  0  0  0  0  0  0  0  0  0  0  0
  -13.4727    0.7644  -14.5671 C   0  0  0  0  0  0  0  0  0  0  0  0
  -13.1120   -0.2561  -15.3232 C   0  0  0  0  0  0  0  0  0  0  0  0
  -12.4122   -0.9889  -14.4985 N   0  0  0  0  0  0  0  0  0  0  0  0
  -12.1657   -2.2210  -14.8551 C   0  0  0  0  0  0  0  0  0  0  0  0
  -12.6807   -2.8387  -15.9626 C   0  0  0  0  0  0  0  0  0  0  0  0
  -13.2411   -1.9773  -16.9654 N   0  0  0  0  0  0  0  0  0  0  0  0
  -13.4772   -0.4719  -16.6489 C   0  0  0  0  0  0  0  0  0  0  0  0
  -13.9889    0.9700  -17.1927 C   0  0  0  0  0  0  0  0  0  0  0  0
  -12.6465   -4.3635  -15.7056 C   0  0  0  0  0  0  0  0  0  0  0  0
  -11.6504   -5.3798  -15.6631 C   0  0  0  0  0  0  0  0  0  0  0  0
  -11.9719   -6.4647  -14.9173 N   0  0  0  0  0  0  0  0  0  0  0  0
  -13.2024   -6.2017  -14.4244 N   0  0  0  0  0  0  0  0  0  0  0  0
  -13.6534   -5.0029  -14.9295 C   0  0  0  0  0  0  0  0  0  0  0  0
  -13.9171   -7.1803  -13.5576 C   0  0  0  0  0  0  0  0  0  0  0  0
  -15.3326   -6.8156  -13.0313 C   0  0  0  0  0  0  0  0  0  0  0  0
  -15.3003   -5.7140  -11.9825 C   0  0  0  0  0  0  0  0  0  0  0  0
  -14.3729   -6.0218  -10.8660 N   0  0  0  0  0  0  0  0  0  0  0  0
  -13.0391   -6.5562  -11.2548 C   0  0  0  0  0  0  0  0  0  0  0  0
  -13.1584   -7.6600  -12.2991 C   0  0  0  0  0  0  0  0  0  0  0  0
  -14.3289   -4.8237   -9.6273 S   0  0  0  0  0  0  0  0  0  0  0  0
  -12.9512   -3.8114  -10.1471 C   0  0  0  0  0  0  0  0  0  0  0  0
  -15.5264   -4.0191   -9.7434 O   0  0  0  0  0  0  0  0  0  0  0  0
  -13.9725   -5.4667   -8.3814 O   0  0  0  0  0  0  0  0  0  0  0  0
  -14.9629    3.4337  -16.5096 N   0  0  0  0  0  0  0  0  0  0  0  0
  -14.6867    5.9943  -19.4389 C   0  0  0  0  0  0  0  0  0  0  0  0
  -13.5283    6.6735  -19.0595 C   0  0  0  0  0  0  0  0  0  0  0  0
  -12.8839    6.3221  -17.8868 C   0  0  0  0  0  0  0  0  0  0  0  0
  -13.4116    5.3022  -17.0856 C   0  0  0  0  0  0  0  0  0  0  0  0
  -14.5319    4.5152  -17.4394 C   0  0  0  0  0  0  0  0  0  0  0  0
  -15.1458    4.8837  -18.6698 C   0  0  0  0  0  0  0  0  0  0  0  0
  -15.3619    7.7464  -20.9316 C   0  0  0  0  0  0  0  0  0  0  0  0
  -15.4269    6.3623  -20.5431 O   0  0  0  0  0  0  0  0  0  0  0  0
  -11.7345    6.8911  -17.4090 O   0  0  0  0  0  0  0  0  0  0  0  0
  -11.5964    8.2967  -17.5770 C   0  0  0  0  0  0  0  0  0  0  0  0
  -16.2218    3.7326  -15.8067 C   0  0  0  0  0  0  0  0  0  0  0  0
  -17.2531    2.7173  -16.2305 C   0  0  0  0  0  0  0  0  0  0  0  0
  -18.6118    2.8233  -15.5919 C   0  0  0  0  0  0  0  0  0  0  0  0
  -17.7657    1.6051  -15.3602 C   0  0  0  0  0  0  0  0  0  0  0  0
 33 34  1  0  0  0
 34 27  1  0  0  0
 27 28  1  0  0  0
 27 32  2  0  0  0
 28 29  2  0  0  0
 29 35  1  0  0  0
 29 30  1  0  0  0
 35 36  1  0  0  0
 30 31  2  0  0  0
 31 26  1  0  0  0
 31 32  1  0  0  0
 26 37  1  0  0  0
 26  1  1  0  0  0
 37 38  1  0  0  0
 38 39  1  0  0  0
 38 40  1  0  0  0
 39 40  1  0  0  0
  1  2  1  0  0  0
  1 10  2  0  0  0
  2  3  2  0  0  0
  3  4  1  0  0  0
  4  5  1  0  0  0
  4  9  2  0  0  0
  5  6  2  0  0  0
  6  7  1  0  0  0
  7 11  1  0  0  0
  7  8  2  0  0  0
 11 12  1  0  0  0
 11 15  2  0  0  0
 12 13  2  0  0  0
 13 14  1  0  0  0
 14 16  1  0  0  0
 14 15  1  0  0  0
 16 17  1  0  0  0
 16 21  1  0  0  0
 17 18  1  0  0  0
 18 19  1  0  0  0
 19 22  1  0  0  0
 19 20  1  0  0  0
 22 23  1  0  0  0
 22 24  2  0  0  0
 22 25  2  0  0  0
 20 21  1  0  0  0
  8  9  1  0  0  0
  9 10  1  0  0  0
M  END
> <minimizedAffinity>
-7.24879

$$$$
