CHEMBL4102191


 42 46  0  0  0  0  0  0  0  0999 V2000
  -23.2449   -0.8639  -13.2740 C   0  0  0  0  0  0  0  0  0  0  0  0
  -23.0875   -1.0609  -11.9050 C   0  0  0  0  0  0  0  0  0  0  0  0
  -24.1046   -1.6171  -11.1459 C   0  0  0  0  0  0  0  0  0  0  0  0
  -25.3377   -1.9622  -11.7122 C   0  0  0  0  0  0  0  0  0  0  0  0
  -25.5618   -1.6109  -13.0891 C   0  0  0  0  0  0  0  0  0  0  0  0
  -26.7978   -1.7957  -13.7595 C   0  0  0  0  0  0  0  0  0  0  0  0
  -26.9629   -1.4316  -15.0946 C   0  0  0  0  0  0  0  0  0  0  0  0
  -25.8705   -0.8993  -15.7490 C   0  0  0  0  0  0  0  0  0  0  0  0
  -24.6690   -0.7241  -15.1756 N   0  0  0  0  0  0  0  0  0  0  0  0
  -24.4985   -1.0576  -13.8741 C   0  0  0  0  0  0  0  0  0  0  0  0
  -26.3180   -2.6356  -10.9081 N   0  0  0  0  0  0  0  0  0  0  0  0
  -26.7652   -2.2018   -9.6557 C   0  0  0  0  0  0  0  0  0  0  0  0
  -26.3610   -1.2043   -9.0663 O   0  0  0  0  0  0  0  0  0  0  0  0
  -27.7102   -3.0504   -9.0802 N   0  0  0  0  0  0  0  0  0  0  0  0
  -26.6174   -3.5518  -11.2101 H   0  0  0  0  0  0  0  0  0  0  0  0
  -27.5685   -4.0301   -9.2805 H   0  0  0  0  0  0  0  0  0  0  0  0
  -28.2348   -2.7579   -7.7865 C   0  0  0  0  0  0  0  0  0  0  0  0
  -28.6999   -3.7992   -6.9857 C   0  0  0  0  0  0  0  0  0  0  0  0
  -29.2315   -3.5262   -5.7208 C   0  0  0  0  0  0  0  0  0  0  0  0
  -29.3477   -2.2119   -5.2536 C   0  0  0  0  0  0  0  0  0  0  0  0
  -30.0739   -2.0227   -3.6978 Cl  0  0  0  0  0  0  0  0  0  0  0  0
  -28.8965   -1.1445   -6.0372 C   0  0  0  0  0  0  0  0  0  0  0  0
  -28.3183   -1.4417   -7.3022 C   0  0  0  0  0  0  0  0  0  0  0  0
  -28.9959    0.3030   -5.6186 C   0  0  0  0  0  0  0  0  0  0  0  0
  -30.2442    0.7556   -5.3100 F   0  0  0  0  0  0  0  0  0  0  0  0
  -28.2359    0.5793   -4.5236 F   0  0  0  0  0  0  0  0  0  0  0  0
  -28.5524    1.1453   -6.5963 F   0  0  0  0  0  0  0  0  0  0  0  0
  -22.1626   -0.4237  -14.0358 O   0  0  0  0  0  0  0  0  0  0  0  0
  -18.2088    2.7045  -14.9962 C   0  0  0  0  0  0  0  0  0  0  0  0
  -19.4023    3.4418  -14.8280 C   0  0  0  0  0  0  0  0  0  0  0  0
  -20.6207    2.8539  -14.5343 C   0  0  0  0  0  0  0  0  0  0  0  0
  -21.6512    3.6574  -14.2690 N   0  0  0  0  0  0  0  0  0  0  0  0
  -22.7886    3.0718  -13.8926 C   0  0  0  0  0  0  0  0  0  0  0  0
  -22.9913    1.7644  -13.7528 N   0  0  0  0  0  0  0  0  0  0  0  0
  -21.9577    0.9636  -14.1088 C   0  0  0  0  0  0  0  0  0  0  0  0
  -20.7108    1.4616  -14.5082 C   0  0  0  0  0  0  0  0  0  0  0  0
  -19.5703    0.7105  -14.8633 C   0  0  0  0  0  0  0  0  0  0  0  0
  -18.3106    1.3100  -15.0521 C   0  0  0  0  0  0  0  0  0  0  0  0
  -16.5893    3.6434  -16.4528 C   0  0  0  0  0  0  0  0  0  0  0  0
  -17.0091    3.3436  -15.1072 O   0  0  0  0  0  0  0  0  0  0  0  0
  -17.3711    0.3388  -15.2285 O   0  0  0  0  0  0  0  0  0  0  0  0
  -16.3591    0.0530  -14.2860 C   0  0  0  0  0  0  0  0  0  0  0  0
 39 40  1  0  0  0
 40 29  1  0  0  0
 29 30  1  0  0  0
 29 38  2  0  0  0
 30 31  2  0  0  0
 31 32  1  0  0  0
 31 36  1  0  0  0
 32 33  2  0  0  0
 33 34  1  0  0  0
 34 35  2  0  0  0
 35 28  1  0  0  0
 35 36  1  0  0  0
 28  1  1  0  0  0
  1  2  1  0  0  0
  1 10  2  0  0  0
  2  3  2  0  0  0
  3  4  1  0  0  0
  4 11  1  0  0  0
  4  5  2  0  0  0
 11 12  1  0  0  0
 11 15  1  0  0  0
 12 13  2  0  0  0
 12 14  1  0  0  0
 14 17  1  0  0  0
 14 16  1  0  0  0
 17 18  1  0  0  0
 17 23  2  0  0  0
 18 19  2  0  0  0
 19 20  1  0  0  0
 20 21  1  0  0  0
 20 22  2  0  0  0
 22 24  1  0  0  0
 22 23  1  0  0  0
 24 25  1  0  0  0
 24 26  1  0  0  0
 24 27  1  0  0  0
  5  6  1  0  0  0
  5 10  1  0  0  0
  6  7  2  0  0  0
  7  8  1  0  0  0
  8  9  2  0  0  0
  9 10  1  0  0  0
 36 37  2  0  0  0
 37 38  1  0  0  0
 38 41  1  0  0  0
 41 42  1  0  0  0
M  END
> <minimizedAffinity>
-12.27221

$$$$
