CHEMBL3633280


 42 44  0  0  0  0  0  0  0  0999 V2000
  -27.5486   -2.1984   -7.3137 N   0  0  0  0  0  0  0  0  0  0  0  0
  -27.5881   -2.1617   -8.7035 C   0  0  0  0  0  0  0  0  0  0  0  0
  -28.5643   -2.5302   -9.3522 O   0  0  0  0  0  0  0  0  0  0  0  0
  -26.4257   -1.6966   -9.3059 N   0  0  0  0  0  0  0  0  0  0  0  0
  -26.8864   -1.6034   -6.8249 H   0  0  0  0  0  0  0  0  0  0  0  0
  -25.5815   -1.7286   -8.7540 H   0  0  0  0  0  0  0  0  0  0  0  0
  -29.1958   -2.0251   -5.4762 C   0  0  0  0  0  0  0  0  0  0  0  0
  -30.1762   -2.6348   -4.6607 C   0  0  0  0  0  0  0  0  0  0  0  0
  -30.5569   -3.9596   -4.8592 C   0  0  0  0  0  0  0  0  0  0  0  0
  -29.9735   -4.6930   -5.8800 C   0  0  0  0  0  0  0  0  0  0  0  0
  -28.9684   -4.1054   -6.6597 C   0  0  0  0  0  0  0  0  0  0  0  0
  -28.5759   -2.7739   -6.4983 C   0  0  0  0  0  0  0  0  0  0  0  0
  -29.8675    0.2489   -5.5023 C   0  0  0  0  0  0  0  0  0  0  0  0
  -28.8200   -0.7079   -5.3465 O   0  0  0  0  0  0  0  0  0  0  0  0
  -30.3599   -6.1156   -6.0529 C   0  0  0  0  0  0  0  0  0  0  0  0
  -30.8831   -6.7922   -5.1941 O   0  0  0  0  0  0  0  0  0  0  0  0
  -29.9539   -6.5425   -7.2687 O   0  0  0  0  0  0  0  0  0  0  0  0
  -30.3050   -7.8913   -7.5624 C   0  0  0  0  0  0  0  0  0  0  0  0
  -29.2794   -8.4737   -8.5704 C   0  0  0  0  0  0  0  0  0  0  0  0
  -29.5729   -9.7680   -9.2835 N   0  0  0  0  0  0  0  0  0  0  0  0
  -28.4659  -10.1221  -10.2281 C   0  0  0  0  0  0  0  0  0  0  0  0
  -28.8923  -10.3040  -11.6904 C   0  0  0  0  0  0  0  0  0  0  0  0
  -27.1597   -9.3081  -10.1409 C   0  0  0  0  0  0  0  0  0  0  0  0
  -29.9550  -10.8113   -8.2686 C   0  0  0  0  0  0  0  0  0  0  0  0
  -31.3355  -11.4534   -8.5494 C   0  0  0  0  0  0  0  0  0  0  0  0
  -28.9995  -12.0068   -8.1253 C   0  0  0  0  0  0  0  0  0  0  0  0
  -26.2846   -1.5500  -10.7232 C   0  0  0  0  0  0  0  0  0  0  0  0
  -25.1323   -0.9948  -11.3042 C   0  0  0  0  0  0  0  0  0  0  0  0
  -25.0025   -0.7207  -12.6792 C   0  0  0  0  0  0  0  0  0  0  0  0
  -26.0696   -1.1050  -13.4965 C   0  0  0  0  0  0  0  0  0  0  0  0
  -27.2036   -1.7552  -12.9714 C   0  0  0  0  0  0  0  0  0  0  0  0
  -27.3086   -1.9624  -11.5773 C   0  0  0  0  0  0  0  0  0  0  0  0
  -23.7783   -0.0713  -13.2094 C   0  0  0  0  0  0  0  0  0  0  0  0
  -22.7040   -0.8099  -13.7339 C   0  0  0  0  0  0  0  0  0  0  0  0
  -21.5880   -0.1717  -14.2754 C   0  0  0  0  0  0  0  0  0  0  0  0
  -21.5547    1.2091  -14.2627 C   0  0  0  0  0  0  0  0  0  0  0  0
  -22.5416    1.9718  -13.7532 N   0  0  0  0  0  0  0  0  0  0  0  0
  -23.6196    1.3168  -13.2502 C   0  0  0  0  0  0  0  0  0  0  0  0
  -28.2911   -2.2301  -13.9071 C   0  0  0  0  0  0  0  0  0  0  0  0
  -28.5114   -3.5744  -13.8506 F   0  0  0  0  0  0  0  0  0  0  0  0
  -29.4924   -1.6488  -13.6403 F   0  0  0  0  0  0  0  0  0  0  0  0
  -28.0198   -1.9521  -15.2114 F   0  0  0  0  0  0  0  0  0  0  0  0
 13 14  1  0  0  0
 14  7  1  0  0  0
  7  8  1  0  0  0
  7 12  2  0  0  0
  8  9  2  0  0  0
  9 10  1  0  0  0
 10 15  1  0  0  0
 10 11  2  0  0  0
 15 16  2  0  0  0
 15 17  1  0  0  0
 17 18  1  0  0  0
 18 19  1  0  0  0
 19 20  1  0  0  0
 20 21  1  0  0  0
 20 24  1  0  0  0
 21 22  1  0  0  0
 21 23  1  0  0  0
 24 25  1  0  0  0
 24 26  1  0  0  0
 11 12  1  0  0  0
 12  1  1  0  0  0
  1  2  1  0  0  0
  1  5  1  0  0  0
  2  3  2  0  0  0
  2  4  1  0  0  0
  4 27  1  0  0  0
  4  6  1  0  0  0
 27 28  1  0  0  0
 27 32  2  0  0  0
 28 29  2  0  0  0
 29 33  1  0  0  0
 29 30  1  0  0  0
 33 34  1  0  0  0
 33 38  2  0  0  0
 34 35  2  0  0  0
 35 36  1  0  0  0
 36 37  2  0  0  0
 37 38  1  0  0  0
 30 31  2  0  0  0
 31 39  1  0  0  0
 31 32  1  0  0  0
 39 40  1  0  0  0
 39 41  1  0  0  0
 39 42  1  0  0  0
M  END
> <minimizedAffinity>
-8.94694

$$$$
