CHEMBL3397944


 34 37  0  0  0  0  0  0  0  0999 V2000
  -28.2733   -0.2861  -10.6484 O   0  0  0  0  0  0  0  0  0  0  0  0
  -27.5318   -1.2414  -10.8379 C   0  0  0  0  0  0  0  0  0  0  0  0
  -27.2645   -2.2819   -9.9577 N   0  0  0  0  0  0  0  0  0  0  0  0
  -26.4954   -2.9022  -10.1773 H   0  0  0  0  0  0  0  0  0  0  0  0
  -27.8464   -2.4280   -8.6821 C   0  0  0  0  0  0  0  0  0  0  0  0
  -28.7240   -3.4647   -8.3935 C   0  0  0  0  0  0  0  0  0  0  0  0
  -29.3380   -3.5500   -7.1522 C   0  0  0  0  0  0  0  0  0  0  0  0
  -29.0468   -2.6342   -6.1357 C   0  0  0  0  0  0  0  0  0  0  0  0
  -28.1622   -1.5869   -6.4220 C   0  0  0  0  0  0  0  0  0  0  0  0
  -27.7966   -0.3735   -5.2463 Cl  0  0  0  0  0  0  0  0  0  0  0  0
  -27.5513   -1.4930   -7.6838 C   0  0  0  0  0  0  0  0  0  0  0  0
  -29.5723   -2.7385   -4.8633 O   0  0  0  0  0  0  0  0  0  0  0  0
  -30.2578   -3.9760   -4.6498 C   0  0  0  0  0  0  0  0  0  0  0  0
  -29.3706   -5.0703   -4.0588 C   0  0  0  0  0  0  0  0  0  0  0  0
  -30.0464   -6.3852   -4.1411 N   0  0  0  0  0  0  0  0  0  0  0  0
  -29.2182   -7.5198   -3.6700 C   0  0  0  0  0  0  0  0  0  0  0  0
  -28.0453   -7.8326   -4.6077 C   0  0  0  0  0  0  0  0  0  0  0  0
  -28.5238   -8.1497   -5.9207 O   0  0  0  0  0  0  0  0  0  0  0  0
  -29.3206   -7.0832   -6.4556 C   0  0  0  0  0  0  0  0  0  0  0  0
  -30.4779   -6.6914   -5.5191 C   0  0  0  0  0  0  0  0  0  0  0  0
  -26.7706   -1.2654  -12.1056 C   0  0  0  0  0  0  0  0  0  0  0  0
  -27.3124   -1.9765  -13.1780 C   0  0  0  0  0  0  0  0  0  0  0  0
  -26.6228   -2.0337  -14.3810 C   0  0  0  0  0  0  0  0  0  0  0  0
  -25.3950   -1.3795  -14.5076 C   0  0  0  0  0  0  0  0  0  0  0  0
  -24.8313   -0.6426  -13.4460 C   0  0  0  0  0  0  0  0  0  0  0  0
  -25.5368   -0.6204  -12.2309 C   0  0  0  0  0  0  0  0  0  0  0  0
  -23.5817    0.1343  -13.6118 C   0  0  0  0  0  0  0  0  0  0  0  0
  -22.3712   -0.5056  -13.9385 C   0  0  0  0  0  0  0  0  0  0  0  0
  -21.2023    0.2193  -14.1872 C   0  0  0  0  0  0  0  0  0  0  0  0
  -21.2167    1.6097  -14.1305 C   0  0  0  0  0  0  0  0  0  0  0  0
  -22.4008    2.2582  -13.8095 C   0  0  0  0  0  0  0  0  0  0  0  0
  -22.4789    3.6195  -13.7794 O   0  0  0  0  0  0  0  0  0  0  0  0
  -23.5594    1.5392  -13.5257 C   0  0  0  0  0  0  0  0  0  0  0  0
  -21.6452    3.9836  -14.1192 H   0  0  0  0  0  0  0  0  0  0  0  0
  1  2  2  0  0  0
  2  3  1  0  0  0
  2 21  1  0  0  0
  3  5  1  0  0  0
  3  4  1  0  0  0
  5  6  1  0  0  0
  5 11  2  0  0  0
  6  7  2  0  0  0
  7  8  1  0  0  0
  8 12  1  0  0  0
  8  9  2  0  0  0
 12 13  1  0  0  0
 13 14  1  0  0  0
 14 15  1  0  0  0
 15 16  1  0  0  0
 15 20  1  0  0  0
 16 17  1  0  0  0
 17 18  1  0  0  0
 18 19  1  0  0  0
 19 20  1  0  0  0
  9 10  1  0  0  0
  9 11  1  0  0  0
 21 22  1  0  0  0
 21 26  2  0  0  0
 22 23  2  0  0  0
 23 24  1  0  0  0
 24 25  2  0  0  0
 25 27  1  0  0  0
 25 26  1  0  0  0
 27 28  1  0  0  0
 27 33  2  0  0  0
 28 29  2  0  0  0
 29 30  1  0  0  0
 30 31  2  0  0  0
 31 32  1  0  0  0
 31 33  1  0  0  0
 32 34  1  0  0  0
M  END
> <minimizedAffinity>
-10.38183

$$$$
