CHEMBL2036728


 30 34  0  0  0  0  0  0  0  0999 V2000
  -27.5803   -1.8680   -9.4301 C   0  0  0  0  0  0  0  0  0  0  0  0
  -28.4815   -1.3261  -10.3222 C   0  0  0  0  0  0  0  0  0  0  0  0
  -27.9655   -0.9880  -11.5433 C   0  0  0  0  0  0  0  0  0  0  0  0
  -26.6698   -1.1378  -11.8557 N   0  0  0  0  0  0  0  0  0  0  0  0
  -25.8644   -1.7051  -10.9417 C   0  0  0  0  0  0  0  0  0  0  0  0
  -26.2852   -2.1068   -9.7364 N   0  0  0  0  0  0  0  0  0  0  0  0
  -27.9077    0.0348   -6.9495 C   0  0  0  0  0  0  0  0  0  0  0  0
  -28.1204   -1.3924   -6.9946 N   0  0  0  0  0  0  0  0  0  0  0  0
  -28.0105   -2.2431   -8.0800 C   0  0  0  0  0  0  0  0  0  0  0  0
  -28.3783   -3.4682   -7.7294 N   0  0  0  0  0  0  0  0  0  0  0  0
  -28.6379   -3.4249   -6.3833 C   0  0  0  0  0  0  0  0  0  0  0  0
  -28.9969   -4.4586   -5.5079 C   0  0  0  0  0  0  0  0  0  0  0  0
  -29.2062   -4.1523   -4.1551 C   0  0  0  0  0  0  0  0  0  0  0  0
  -29.0749   -2.8448   -3.6898 C   0  0  0  0  0  0  0  0  0  0  0  0
  -28.7222   -1.8040   -4.5507 C   0  0  0  0  0  0  0  0  0  0  0  0
  -28.4996   -2.1333   -5.8952 C   0  0  0  0  0  0  0  0  0  0  0  0
  -24.5241   -1.9134  -11.2480 N   0  0  0  0  0  0  0  0  0  0  0  0
  -24.1318   -2.7066  -10.7669 H   0  0  0  0  0  0  0  0  0  0  0  0
  -23.6729   -1.1124  -12.0120 C   0  0  0  0  0  0  0  0  0  0  0  0
  -23.5418    0.2598  -11.7840 C   0  0  0  0  0  0  0  0  0  0  0  0
  -22.7629    1.0713  -12.6185 C   0  0  0  0  0  0  0  0  0  0  0  0
  -22.1217    0.5515  -13.7442 C   0  0  0  0  0  0  0  0  0  0  0  0
  -22.2459   -0.8309  -13.9552 C   0  0  0  0  0  0  0  0  0  0  0  0
  -22.9978   -1.6545  -13.1050 C   0  0  0  0  0  0  0  0  0  0  0  0
  -21.4080    1.3400  -14.6220 N   0  0  0  0  0  0  0  0  0  0  0  0
  -20.2826    0.8516  -15.4322 C   0  0  0  0  0  0  0  0  0  0  0  0
  -18.9892    1.6107  -15.0979 C   0  0  0  0  0  0  0  0  0  0  0  0
  -19.1688    3.0348  -15.1757 O   0  0  0  0  0  0  0  0  0  0  0  0
  -20.1875    3.4512  -14.2524 C   0  0  0  0  0  0  0  0  0  0  0  0
  -21.5442    2.8053  -14.5776 C   0  0  0  0  0  0  0  0  0  0  0  0
  7  8  1  0  0  0
  8  9  1  0  0  0
  8 16  1  0  0  0
  9  1  1  0  0  0
  9 10  2  0  0  0
  1  2  1  0  0  0
  1  6  2  0  0  0
  2  3  2  0  0  0
  3  4  1  0  0  0
  4  5  2  0  0  0
  5 17  1  0  0  0
  5  6  1  0  0  0
 17 19  1  0  0  0
 17 18  1  0  0  0
 19 20  1  0  0  0
 19 24  2  0  0  0
 20 21  2  0  0  0
 21 22  1  0  0  0
 22 25  1  0  0  0
 22 23  2  0  0  0
 25 26  1  0  0  0
 25 30  1  0  0  0
 26 27  1  0  0  0
 27 28  1  0  0  0
 28 29  1  0  0  0
 29 30  1  0  0  0
 23 24  1  0  0  0
 10 11  1  0  0  0
 11 12  1  0  0  0
 11 16  2  0  0  0
 12 13  2  0  0  0
 13 14  1  0  0  0
 14 15  2  0  0  0
 15 16  1  0  0  0
M  END
> <minimizedAffinity>
-9.26247

$$$$
