CHEMBL3909140


 37 40  0  0  0  0  0  0  0  0999 V2000
  -29.3819   -5.8640   -5.7903 C   0  0  0  0  0  0  0  0  0  0  0  0
  -29.7355   -6.6581   -6.8969 C   0  0  0  0  0  0  0  0  0  0  0  0
  -29.2888   -7.8981   -7.1213 C   0  0  0  0  0  0  0  0  0  0  0  0
  -28.4713   -8.5140   -6.2557 C   0  0  0  0  0  0  0  0  0  0  0  0
  -28.1369   -9.7438   -6.6276 N   0  0  0  0  0  0  0  0  0  0  0  0
  -27.2839  -10.4768   -5.9494 C   0  0  0  0  0  0  0  0  0  0  0  0
  -26.6610   -9.9794   -4.8143 C   0  0  0  0  0  0  0  0  0  0  0  0
  -27.0631   -8.7054   -4.3316 N   0  0  0  0  0  0  0  0  0  0  0  0
  -27.9992   -7.9249   -5.0631 C   0  0  0  0  0  0  0  0  0  0  0  0
  -28.5010   -6.5374   -4.7905 C   0  0  0  0  0  0  0  0  0  0  0  0
  -25.5242  -10.9303   -4.3912 C   0  0  0  0  0  0  0  0  0  0  0  0
  -25.2787  -11.7641   -3.3032 C   0  0  0  0  0  0  0  0  0  0  0  0
  -24.0335  -12.3130   -3.4273 N   0  0  0  0  0  0  0  0  0  0  0  0
  -23.4697  -11.8732   -4.5476 N   0  0  0  0  0  0  0  0  0  0  0  0
  -24.3367  -11.0594   -5.1602 C   0  0  0  0  0  0  0  0  0  0  0  0
  -22.0519  -12.0956   -4.9433 C   0  0  0  0  0  0  0  0  0  0  0  0
  -21.5928  -11.5538   -6.2993 C   0  0  0  0  0  0  0  0  0  0  0  0
  -21.5082  -12.3254   -7.2426 O   0  0  0  0  0  0  0  0  0  0  0  0
  -21.1542  -10.2560   -6.4298 N   0  0  0  0  0  0  0  0  0  0  0  0
  -20.5250   -9.7181   -7.6316 C   0  0  0  0  0  0  0  0  0  0  0  0
  -21.2073   -9.6185   -5.6212 H   0  0  0  0  0  0  0  0  0  0  0  0
  -29.9142   -4.4649   -5.8966 N   0  0  0  0  0  0  0  0  0  0  0  0
  -29.2407   -3.2487   -6.3798 C   0  0  0  0  0  0  0  0  0  0  0  0
  -28.4605   -3.3139   -7.5752 C   0  0  0  0  0  0  0  0  0  0  0  0
  -27.7303   -2.2471   -8.1145 C   0  0  0  0  0  0  0  0  0  0  0  0
  -27.8417   -1.0188   -7.4947 C   0  0  0  0  0  0  0  0  0  0  0  0
  -28.6759   -0.8458   -6.3699 C   0  0  0  0  0  0  0  0  0  0  0  0
  -29.3611   -1.9643   -5.8038 C   0  0  0  0  0  0  0  0  0  0  0  0
  -26.9194   -2.4135   -9.2015 O   0  0  0  0  0  0  0  0  0  0  0  0
  -26.9456   -1.7066  -10.3982 C   0  0  0  0  0  0  0  0  0  0  0  0
  -28.8637    0.3913   -5.8403 O   0  0  0  0  0  0  0  0  0  0  0  0
  -28.0718    0.9577   -4.8523 C   0  0  0  0  0  0  0  0  0  0  0  0
  -31.2292   -4.2306   -5.2006 C   0  0  0  0  0  0  0  0  0  0  0  0
  -31.3633   -4.5840   -3.6923 C   0  0  0  0  0  0  0  0  0  0  0  0
  -30.5042   -2.5761   -2.5242 C   0  0  0  0  0  0  0  0  0  0  0  0
  -30.2643   -3.9760   -2.9060 N   0  0  0  0  0  0  0  0  0  0  0  0
  -30.0630   -4.5369   -2.0419 H   0  0  0  0  0  0  0  0  0  0  0  0
 35 36  1  0  0  0
 36 34  1  0  0  0
 36 37  1  0  0  0
 34 33  1  0  0  0
 33 22  1  0  0  0
 22 23  1  0  0  0
 22  1  1  0  0  0
 23 24  1  0  0  0
 23 28  2  0  0  0
 24 25  2  0  0  0
 25 29  1  0  0  0
 25 26  1  0  0  0
 29 30  1  0  0  0
 26 27  2  0  0  0
 27 31  1  0  0  0
 27 28  1  0  0  0
 31 32  1  0  0  0
  1  2  1  0  0  0
  1 10  2  0  0  0
  2  3  2  0  0  0
  3  4  1  0  0  0
  4  5  1  0  0  0
  4  9  2  0  0  0
  5  6  2  0  0  0
  6  7  1  0  0  0
  7 11  1  0  0  0
  7  8  2  0  0  0
 11 12  1  0  0  0
 11 15  2  0  0  0
 12 13  2  0  0  0
 13 14  1  0  0  0
 14 16  1  0  0  0
 14 15  1  0  0  0
 16 17  1  0  0  0
 17 18  2  0  0  0
 17 19  1  0  0  0
 19 20  1  0  0  0
 19 21  1  0  0  0
  8  9  1  0  0  0
  9 10  1  0  0  0
M  END
> <minimizedAffinity>
-7.82011

$$$$
