CHEMBL180978


 34 37  0  0  0  0  0  0  0  0999 V2000
  -26.4549  -10.8352   -6.6376 C   0  0  0  0  0  0  0  0  0  0  0  0
  -25.1617  -10.9620   -6.5098 N   0  0  0  0  0  0  0  0  0  0  0  0
  -24.4759  -10.2029   -5.6094 C   0  0  0  0  0  0  0  0  0  0  0  0
  -24.9741   -9.3164   -4.8120 N   0  0  0  0  0  0  0  0  0  0  0  0
  -26.2964   -9.1634   -4.9418 N   0  0  0  0  0  0  0  0  0  0  0  0
  -27.0377   -8.2953   -4.2022 C   0  0  0  0  0  0  0  0  0  0  0  0
  -28.3678   -8.3968   -4.5721 C   0  0  0  0  0  0  0  0  0  0  0  0
  -28.4072   -9.3891   -5.6318 C   0  0  0  0  0  0  0  0  0  0  0  0
  -29.6169   -9.8525   -6.3705 C   0  0  0  0  0  0  0  0  0  0  0  0
  -27.0994   -9.8457   -5.8069 C   0  0  0  0  0  0  0  0  0  0  0  0
  -29.4569   -7.6123   -3.9685 C   0  0  0  0  0  0  0  0  0  0  0  0
  -29.5767   -7.4655   -2.7574 O   0  0  0  0  0  0  0  0  0  0  0  0
  -30.3040   -7.0182   -4.8910 N   0  0  0  0  0  0  0  0  0  0  0  0
  -29.9918   -7.0080   -5.8522 H   0  0  0  0  0  0  0  0  0  0  0  0
  -31.3006   -6.0235   -4.5172 C   0  0  0  0  0  0  0  0  0  0  0  0
  -30.6412   -4.6522   -4.4228 C   0  0  0  0  0  0  0  0  0  0  0  0
  -30.2246   -4.0241   -5.7599 C   0  0  0  0  0  0  0  0  0  0  0  0
  -28.7962   -4.2901   -6.0237 N   0  0  0  0  0  0  0  0  0  0  0  0
  -27.8734   -3.2809   -5.4518 C   0  0  0  0  0  0  0  0  0  0  0  0
  -27.8351   -1.9537   -6.2236 C   0  0  0  0  0  0  0  0  0  0  0  0
  -27.4965   -2.1657   -7.5988 O   0  0  0  0  0  0  0  0  0  0  0  0
  -28.4188   -3.0720   -8.2158 C   0  0  0  0  0  0  0  0  0  0  0  0
  -28.4857   -4.4136   -7.4648 C   0  0  0  0  0  0  0  0  0  0  0  0
  -27.1197  -11.6204   -7.5678 N   0  0  0  0  0  0  0  0  0  0  0  0
  -26.9850  -12.6179   -7.5283 H   0  0  0  0  0  0  0  0  0  0  0  0
  -28.5916   -9.8393  -12.8280 C   0  0  0  0  0  0  0  0  0  0  0  0
  -28.2254  -10.2802  -11.4413 C   0  0  0  0  0  0  0  0  0  0  0  0
  -28.9337  -11.3144  -10.8238 C   0  0  0  0  0  0  0  0  0  0  0  0
  -28.5762  -11.7537   -9.5471 C   0  0  0  0  0  0  0  0  0  0  0  0
  -27.5085  -11.1707   -8.8516 C   0  0  0  0  0  0  0  0  0  0  0  0
  -26.8134  -10.1173   -9.4604 C   0  0  0  0  0  0  0  0  0  0  0  0
  -27.1660   -9.6909  -10.7459 C   0  0  0  0  0  0  0  0  0  0  0  0
  -26.4672   -8.6874  -11.3590 O   0  0  0  0  0  0  0  0  0  0  0  0
  -25.7169   -8.4363  -10.7970 H   0  0  0  0  0  0  0  0  0  0  0  0
 26 27  1  0  0  0
 27 28  1  0  0  0
 27 32  2  0  0  0
 28 29  2  0  0  0
 29 30  1  0  0  0
 30 24  1  0  0  0
 30 31  2  0  0  0
 24  1  1  0  0  0
 24 25  1  0  0  0
  1  2  2  0  0  0
  1 10  1  0  0  0
  2  3  1  0  0  0
  3  4  2  0  0  0
  4  5  1  0  0  0
  5  6  1  0  0  0
  5 10  1  0  0  0
  6  7  2  0  0  0
  7 11  1  0  0  0
  7  8  1  0  0  0
 11 12  2  0  0  0
 11 13  1  0  0  0
 13 15  1  0  0  0
 13 14  1  0  0  0
 15 16  1  0  0  0
 16 17  1  0  0  0
 17 18  1  0  0  0
 18 19  1  0  0  0
 18 23  1  0  0  0
 19 20  1  0  0  0
 20 21  1  0  0  0
 21 22  1  0  0  0
 22 23  1  0  0  0
  8  9  1  0  0  0
  8 10  2  0  0  0
 31 32  1  0  0  0
 32 33  1  0  0  0
 33 34  1  0  0  0
M  END
> <minimizedAffinity>
-8.09575

$$$$
