CHEMBL241668


 29 31  0  0  0  0  0  0  0  0999 V2000
  -28.2195   -2.3832  -13.0407 C   0  0  0  0  0  0  0  0  0  0  0  0
  -26.9139   -1.8650  -13.3741 N   0  0  0  0  0  0  0  0  0  0  0  0
  -26.4611   -1.6252  -14.6405 C   0  0  0  0  0  0  0  0  0  0  0  0
  -25.2385   -1.1427  -14.6273 N   0  0  0  0  0  0  0  0  0  0  0  0
  -24.8994   -1.0607  -13.3101 C   0  0  0  0  0  0  0  0  0  0  0  0
  -25.9250   -1.4871  -12.4890 C   0  0  0  0  0  0  0  0  0  0  0  0
  -26.0000   -1.6135  -11.0552 C   0  0  0  0  0  0  0  0  0  0  0  0
  -25.0099   -1.4626  -10.3461 O   0  0  0  0  0  0  0  0  0  0  0  0
  -27.2532   -1.9799  -10.5967 N   0  0  0  0  0  0  0  0  0  0  0  0
  -27.8852   -2.3434  -11.3017 H   0  0  0  0  0  0  0  0  0  0  0  0
  -27.6543   -2.0940   -9.2522 C   0  0  0  0  0  0  0  0  0  0  0  0
  -28.0917   -3.2917   -8.6839 C   0  0  0  0  0  0  0  0  0  0  0  0
  -28.5483   -3.3282   -7.3632 C   0  0  0  0  0  0  0  0  0  0  0  0
  -28.5713   -2.1653   -6.5842 C   0  0  0  0  0  0  0  0  0  0  0  0
  -28.0714   -0.9769   -7.1370 C   0  0  0  0  0  0  0  0  0  0  0  0
  -27.6058   -0.9452   -8.4565 C   0  0  0  0  0  0  0  0  0  0  0  0
  -29.1443   -2.1761   -5.1883 C   0  0  0  0  0  0  0  0  0  0  0  0
  -29.8643   -1.0603   -4.8838 F   0  0  0  0  0  0  0  0  0  0  0  0
  -29.9774   -3.2303   -4.9709 F   0  0  0  0  0  0  0  0  0  0  0  0
  -28.1752   -2.2629   -4.2343 F   0  0  0  0  0  0  0  0  0  0  0  0
  -23.6837   -0.6359  -12.9115 N   0  0  0  0  0  0  0  0  0  0  0  0
  -23.4055   -0.7619  -11.9446 H   0  0  0  0  0  0  0  0  0  0  0  0
  -22.5440   -0.7324  -13.8150 C   0  0  0  0  0  0  0  0  0  0  0  0
  -22.0106    0.6552  -14.1026 C   0  0  0  0  0  0  0  0  0  0  0  0
  -20.7806    0.8252  -14.7498 C   0  0  0  0  0  0  0  0  0  0  0  0
  -20.3308    2.1114  -15.0040 C   0  0  0  0  0  0  0  0  0  0  0  0
  -21.0125    3.2253  -14.6638 N   0  0  0  0  0  0  0  0  0  0  0  0
  -22.1960    3.0439  -14.0411 C   0  0  0  0  0  0  0  0  0  0  0  0
  -22.7285    1.7986  -13.7389 C   0  0  0  0  0  0  0  0  0  0  0  0
  1  2  1  0  0  0
  2  3  1  0  0  0
  2  6  1  0  0  0
  3  4  2  0  0  0
  4  5  1  0  0  0
  5 21  1  0  0  0
  5  6  2  0  0  0
 21 23  1  0  0  0
 21 22  1  0  0  0
 23 24  1  0  0  0
 24 25  1  0  0  0
 24 29  2  0  0  0
 25 26  2  0  0  0
 26 27  1  0  0  0
 27 28  2  0  0  0
 28 29  1  0  0  0
  6  7  1  0  0  0
  7  8  2  0  0  0
  7  9  1  0  0  0
  9 11  1  0  0  0
  9 10  1  0  0  0
 11 12  1  0  0  0
 11 16  2  0  0  0
 12 13  2  0  0  0
 13 14  1  0  0  0
 14 17  1  0  0  0
 14 15  2  0  0  0
 17 18  1  0  0  0
 17 19  1  0  0  0
 17 20  1  0  0  0
 15 16  1  0  0  0
M  END
> <minimizedAffinity>
-9.19019

$$$$
