CHEMBL3690584


 32 35  0  0  0  0  0  0  0  0999 V2000
  -22.7664    1.3815  -13.9999 C   0  0  0  0  0  0  0  0  0  0  0  0
  -22.9665    2.7080  -13.6449 C   0  0  0  0  0  0  0  0  0  0  0  0
  -21.8600    3.4808  -13.8774 N   0  0  0  0  0  0  0  0  0  0  0  0
  -20.9580    2.6550  -14.3560 C   0  0  0  0  0  0  0  0  0  0  0  0
  -19.6086    2.8861  -14.7601 C   0  0  0  0  0  0  0  0  0  0  0  0
  -18.8458    1.8824  -15.2607 C   0  0  0  0  0  0  0  0  0  0  0  0
  -19.4152    0.5299  -15.3319 C   0  0  0  0  0  0  0  0  0  0  0  0
  -20.6669    0.2997  -14.9126 C   0  0  0  0  0  0  0  0  0  0  0  0
  -21.4521    1.3557  -14.4514 N   0  0  0  0  0  0  0  0  0  0  0  0
  -24.9694   -1.3096  -12.4623 C   0  0  0  0  0  0  0  0  0  0  0  0
  -25.5264   -1.8543  -13.6201 C   0  0  0  0  0  0  0  0  0  0  0  0
  -25.1150   -1.4191  -14.8791 C   0  0  0  0  0  0  0  0  0  0  0  0
  -24.1859   -0.3876  -14.9927 C   0  0  0  0  0  0  0  0  0  0  0  0
  -23.6566    0.2233  -13.8491 C   0  0  0  0  0  0  0  0  0  0  0  0
  -24.0227   -0.2851  -12.5893 C   0  0  0  0  0  0  0  0  0  0  0  0
  -26.6504   -2.1138   -9.3316 N   0  0  0  0  0  0  0  0  0  0  0  0
  -26.6101   -1.6904  -10.6497 C   0  0  0  0  0  0  0  0  0  0  0  0
  -27.6218   -1.3662  -11.2545 O   0  0  0  0  0  0  0  0  0  0  0  0
  -25.3316   -1.7287  -11.1627 N   0  0  0  0  0  0  0  0  0  0  0  0
  -25.8726   -1.8048   -8.7686 H   0  0  0  0  0  0  0  0  0  0  0  0
  -24.6849   -2.3206  -10.6625 H   0  0  0  0  0  0  0  0  0  0  0  0
  -27.9417   -1.5609   -7.2955 C   0  0  0  0  0  0  0  0  0  0  0  0
  -27.9561   -2.1266   -8.6958 C   0  0  0  0  0  0  0  0  0  0  0  0
  -17.5014    2.2008  -15.6539 C   0  0  0  0  0  0  0  0  0  0  0  0
  -16.5122    1.3541  -15.8788 N   0  0  0  0  0  0  0  0  0  0  0  0
  -15.3440    1.9682  -16.2789 N   0  0  0  0  0  0  0  0  0  0  0  0
  -15.4560    3.2805  -16.3223 C   0  0  0  0  0  0  0  0  0  0  0  0
  -17.0138    3.8516  -15.8793 S   0  0  0  0  0  0  0  0  0  0  0  0
  -14.3915    4.2518  -16.7016 C   0  0  0  0  0  0  0  0  0  0  0  0
  -14.8642    5.3178  -17.3977 F   0  0  0  0  0  0  0  0  0  0  0  0
  -13.7498    4.7565  -15.6114 F   0  0  0  0  0  0  0  0  0  0  0  0
  -13.4316    3.6771  -17.4774 F   0  0  0  0  0  0  0  0  0  0  0  0
 22 23  1  0  0  0
 23 16  1  0  0  0
 16 17  1  0  0  0
 16 20  1  0  0  0
 17 18  2  0  0  0
 17 19  1  0  0  0
 19 10  1  0  0  0
 19 21  1  0  0  0
 10 11  1  0  0  0
 10 15  2  0  0  0
 11 12  2  0  0  0
 12 13  1  0  0  0
 13 14  2  0  0  0
 14  1  1  0  0  0
 14 15  1  0  0  0
  1  2  2  0  0  0
  1  9  1  0  0  0
  2  3  1  0  0  0
  3  4  2  0  0  0
  4  5  1  0  0  0
  4  9  1  0  0  0
  5  6  2  0  0  0
  6 24  1  0  0  0
  6  7  1  0  0  0
 24 25  2  0  0  0
 24 28  1  0  0  0
 25 26  1  0  0  0
 26 27  2  0  0  0
 27 29  1  0  0  0
 27 28  1  0  0  0
 29 30  1  0  0  0
 29 31  1  0  0  0
 29 32  1  0  0  0
  7  8  2  0  0  0
  8  9  1  0  0  0
M  END
> <minimizedAffinity>
-9.68409

$$$$
