CHEMBL1254591


 26 28  0  0  0  0  0  0  0  0999 V2000
  -25.3143   -1.9338  -12.0839 C   0  0  0  0  0  0  0  0  0  0  0  0
  -24.0398   -1.8566  -11.5212 C   0  0  0  0  0  0  0  0  0  0  0  0
  -22.9677   -1.3291  -12.2403 C   0  0  0  0  0  0  0  0  0  0  0  0
  -23.1317   -0.9342  -13.5666 C   0  0  0  0  0  0  0  0  0  0  0  0
  -24.3997   -1.0249  -14.1474 C   0  0  0  0  0  0  0  0  0  0  0  0
  -25.4855   -1.5321  -13.4131 C   0  0  0  0  0  0  0  0  0  0  0  0
  -27.8480   -2.6562   -9.5677 N   0  0  0  0  0  0  0  0  0  0  0  0
  -26.7502   -1.9896  -10.0730 C   0  0  0  0  0  0  0  0  0  0  0  0
  -26.1780   -1.1206   -9.4238 O   0  0  0  0  0  0  0  0  0  0  0  0
  -26.4333   -2.3952  -11.3520 N   0  0  0  0  0  0  0  0  0  0  0  0
  -27.9132   -3.6261   -9.8429 H   0  0  0  0  0  0  0  0  0  0  0  0
  -27.1836   -2.8255  -11.8713 H   0  0  0  0  0  0  0  0  0  0  0  0
  -28.2485   -2.3238   -8.2121 C   0  0  0  0  0  0  0  0  0  0  0  0
  -29.9349   -4.1723   -7.8214 C   0  0  0  0  0  0  0  0  0  0  0  0
  -28.6313   -3.5332   -7.3722 C   0  0  0  0  0  0  0  0  0  0  0  0
  -22.1242   -0.3874  -14.3347 O   0  0  0  0  0  0  0  0  0  0  0  0
  -21.9146    0.9850  -14.2557 C   0  0  0  0  0  0  0  0  0  0  0  0
  -22.8677    1.7842  -13.7247 N   0  0  0  0  0  0  0  0  0  0  0  0
  -22.6529    3.1086  -13.7161 C   0  0  0  0  0  0  0  0  0  0  0  0
  -21.5684    3.7655  -14.1409 N   0  0  0  0  0  0  0  0  0  0  0  0
  -20.5988    2.9525  -14.6088 C   0  0  0  0  0  0  0  0  0  0  0  0
  -19.3219    3.2967  -15.1090 C   0  0  0  0  0  0  0  0  0  0  0  0
  -18.6913    2.1249  -15.4615 C   0  0  0  0  0  0  0  0  0  0  0  0
  -19.5482    1.0854  -15.1960 N   0  0  0  0  0  0  0  0  0  0  0  0
  -19.2344   -0.3079  -15.4201 C   0  0  0  0  0  0  0  0  0  0  0  0
  -20.7275    1.5693  -14.6751 C   0  0  0  0  0  0  0  0  0  0  0  0
 14 15  1  0  0  0
 15 13  1  0  0  0
 13  7  1  0  0  0
  7  8  1  0  0  0
  7 11  1  0  0  0
  8  9  2  0  0  0
  8 10  1  0  0  0
 10  1  1  0  0  0
 10 12  1  0  0  0
  1  2  1  0  0  0
  1  6  2  0  0  0
  2  3  2  0  0  0
  3  4  1  0  0  0
  4 16  1  0  0  0
  4  5  2  0  0  0
 16 17  1  0  0  0
 17 18  1  0  0  0
 17 26  2  0  0  0
 18 19  2  0  0  0
 19 20  1  0  0  0
 20 21  2  0  0  0
 21 22  1  0  0  0
 21 26  1  0  0  0
 22 23  2  0  0  0
 23 24  1  0  0  0
 24 25  1  0  0  0
 24 26  1  0  0  0
  5  6  1  0  0  0
M  END
> <minimizedAffinity>
-8.53040

$$$$
