CHEMBL223604


 33 37  0  0  0  0  0  0  0  0999 V2000
  -12.7989   -2.7393  -12.6542 C   0  0  0  0  0  0  0  0  0  0  0  0
  -11.9294   -2.1876  -13.6207 C   0  0  0  0  0  0  0  0  0  0  0  0
  -12.3584   -1.1944  -14.5089 C   0  0  0  0  0  0  0  0  0  0  0  0
  -13.6623   -0.7753  -14.4020 C   0  0  0  0  0  0  0  0  0  0  0  0
  -14.5514   -1.2988  -13.4257 C   0  0  0  0  0  0  0  0  0  0  0  0
  -14.1203   -2.2827  -12.5501 C   0  0  0  0  0  0  0  0  0  0  0  0
  -15.9565   -0.6752  -13.4873 C   0  0  0  0  0  0  0  0  0  0  0  0
  -15.7097    0.2347  -14.6395 C   0  0  0  0  0  0  0  0  0  0  0  0
  -16.3378    1.2163  -15.4121 C   0  0  0  0  0  0  0  0  0  0  0  0
  -15.4930    1.7267  -16.3325 N   0  0  0  0  0  0  0  0  0  0  0  0
  -14.3292    1.0504  -16.1375 N   0  0  0  0  0  0  0  0  0  0  0  0
  -14.4344    0.1686  -15.1270 C   0  0  0  0  0  0  0  0  0  0  0  0
  -13.5316    1.2687  -16.7258 H   0  0  0  0  0  0  0  0  0  0  0  0
  -17.7070    1.6996  -15.2149 C   0  0  0  0  0  0  0  0  0  0  0  0
  -18.0598    3.0294  -15.1210 C   0  0  0  0  0  0  0  0  0  0  0  0
  -19.7254    3.2336  -14.7944 S   0  0  0  0  0  0  0  0  0  0  0  0
  -19.9939    1.5462  -14.7940 C   0  0  0  0  0  0  0  0  0  0  0  0
  -18.8417    0.8421  -15.0705 C   0  0  0  0  0  0  0  0  0  0  0  0
  -21.2654    0.9656  -14.5252 C   0  0  0  0  0  0  0  0  0  0  0  0
  -22.3357    0.4451  -14.3559 C   0  0  0  0  0  0  0  0  0  0  0  0
  -23.6048   -0.2718  -14.2238 C   0  0  0  0  0  0  0  0  0  0  0  0
  -23.6448   -0.9929  -12.9925 O   0  0  0  0  0  0  0  0  0  0  0  0
  -24.9000   -1.2621  -12.5066 C   0  0  0  0  0  0  0  0  0  0  0  0
  -25.2709   -1.2344  -11.1590 C   0  0  0  0  0  0  0  0  0  0  0  0
  -26.5811   -1.5303  -10.7792 C   0  0  0  0  0  0  0  0  0  0  0  0
  -27.5321   -1.8517  -11.7434 C   0  0  0  0  0  0  0  0  0  0  0  0
  -27.1730   -1.8774  -13.0895 C   0  0  0  0  0  0  0  0  0  0  0  0
  -25.8596   -1.5863  -13.4687 C   0  0  0  0  0  0  0  0  0  0  0  0
  -12.4664   -3.7280  -11.7639 O   0  0  0  0  0  0  0  0  0  0  0  0
  -13.4104   -3.9889  -10.7241 C   0  0  0  0  0  0  0  0  0  0  0  0
  -13.7949   -5.4644  -10.7442 C   0  0  0  0  0  0  0  0  0  0  0  0
  -15.7361   -5.7450  -12.0516 C   0  0  0  0  0  0  0  0  0  0  0  0
  -15.2191   -5.5735  -10.7388 O   0  0  0  0  0  0  0  0  0  0  0  0
 32 33  1  0  0  0
 33 31  1  0  0  0
 31 30  1  0  0  0
 30 29  1  0  0  0
 29  1  1  0  0  0
  1  2  1  0  0  0
  1  6  2  0  0  0
  2  3  2  0  0  0
  3  4  1  0  0  0
  4  5  2  0  0  0
  4 12  1  0  0  0
  5  6  1  0  0  0
  5  7  1  0  0  0
  7  8  1  0  0  0
  8  9  1  0  0  0
  8 12  2  0  0  0
  9 14  1  0  0  0
  9 10  2  0  0  0
 14 15  2  0  0  0
 14 18  1  0  0  0
 15 16  1  0  0  0
 16 17  1  0  0  0
 17 19  1  0  0  0
 17 18  2  0  0  0
 19 20  3  0  0  0
 20 21  1  0  0  0
 21 22  1  0  0  0
 22 23  1  0  0  0
 23 24  1  0  0  0
 23 28  2  0  0  0
 24 25  2  0  0  0
 25 26  1  0  0  0
 26 27  2  0  0  0
 27 28  1  0  0  0
 10 11  1  0  0  0
 11 12  1  0  0  0
 11 13  1  0  0  0
M  END
> <minimizedAffinity>
-8.60764

$$$$
