CHEMBL3942331


 38 41  0  0  0  0  0  0  0  0999 V2000
  -25.2599   -1.9244  -11.8045 C   0  0  0  0  0  0  0  0  0  0  0  0
  -23.9519   -1.7397  -11.3376 C   0  0  0  0  0  0  0  0  0  0  0  0
  -22.9415   -1.2680  -12.1850 C   0  0  0  0  0  0  0  0  0  0  0  0
  -23.2192   -0.9775  -13.5190 C   0  0  0  0  0  0  0  0  0  0  0  0
  -24.5175   -1.1588  -14.0022 C   0  0  0  0  0  0  0  0  0  0  0  0
  -25.5310   -1.6080  -13.1461 C   0  0  0  0  0  0  0  0  0  0  0  0
  -27.1320   -1.7635  -13.7883 Cl  0  0  0  0  0  0  0  0  0  0  0  0
  -26.5624   -0.7691   -9.4867 O   0  0  0  0  0  0  0  0  0  0  0  0
  -26.7956   -1.9203   -9.8386 C   0  0  0  0  0  0  0  0  0  0  0  0
  -27.5554   -2.8245   -9.1082 N   0  0  0  0  0  0  0  0  0  0  0  0
  -26.2884   -2.4830  -10.9949 N   0  0  0  0  0  0  0  0  0  0  0  0
  -27.4746   -3.7937   -9.3804 H   0  0  0  0  0  0  0  0  0  0  0  0
  -26.8000   -3.2537  -11.4051 H   0  0  0  0  0  0  0  0  0  0  0  0
  -28.1489   -2.5567   -7.8492 C   0  0  0  0  0  0  0  0  0  0  0  0
  -28.8168   -3.5268   -7.0978 C   0  0  0  0  0  0  0  0  0  0  0  0
  -29.4394   -3.1852   -5.9020 C   0  0  0  0  0  0  0  0  0  0  0  0
  -30.0920   -4.1260   -5.2069 F   0  0  0  0  0  0  0  0  0  0  0  0
  -29.4076   -1.8856   -5.4209 C   0  0  0  0  0  0  0  0  0  0  0  0
  -28.7248   -0.8975   -6.1399 C   0  0  0  0  0  0  0  0  0  0  0  0
  -28.0813   -1.2481   -7.3469 C   0  0  0  0  0  0  0  0  0  0  0  0
  -28.6983    0.5258   -5.6452 C   0  0  0  0  0  0  0  0  0  0  0  0
  -27.7907    0.7421   -4.6533 F   0  0  0  0  0  0  0  0  0  0  0  0
  -28.3951    1.4132   -6.6313 F   0  0  0  0  0  0  0  0  0  0  0  0
  -29.9008    0.9203   -5.1425 F   0  0  0  0  0  0  0  0  0  0  0  0
  -22.1458   -0.6257  -14.3110 O   0  0  0  0  0  0  0  0  0  0  0  0
  -21.7752    0.7142  -14.3734 C   0  0  0  0  0  0  0  0  0  0  0  0
  -20.5452    0.9977  -14.9424 C   0  0  0  0  0  0  0  0  0  0  0  0
  -20.1991    2.3322  -14.9919 C   0  0  0  0  0  0  0  0  0  0  0  0
  -21.0091    3.2791  -14.5076 N   0  0  0  0  0  0  0  0  0  0  0  0
  -22.1642    2.8985  -13.9585 C   0  0  0  0  0  0  0  0  0  0  0  0
  -22.5940    1.6427  -13.8528 N   0  0  0  0  0  0  0  0  0  0  0  0
  -18.9560    2.7063  -15.5485 N   0  0  0  0  0  0  0  0  0  0  0  0
  -17.7428    2.3384  -14.9984 C   0  0  0  0  0  0  0  0  0  0  0  0
  -17.5674    1.7362  -13.9458 O   0  0  0  0  0  0  0  0  0  0  0  0
  -18.9577    3.2916  -16.3689 H   0  0  0  0  0  0  0  0  0  0  0  0
  -16.5046    2.7430  -15.7288 C   0  0  0  0  0  0  0  0  0  0  0  0
  -15.7184    1.7241  -16.5183 C   0  0  0  0  0  0  0  0  0  0  0  0
  -15.0796    2.4310  -15.3550 C   0  0  0  0  0  0  0  0  0  0  0  0
  8  9  2  0  0  0
  9 10  1  0  0  0
  9 11  1  0  0  0
 10 14  1  0  0  0
 10 12  1  0  0  0
 14 15  1  0  0  0
 14 20  2  0  0  0
 15 16  2  0  0  0
 16 17  1  0  0  0
 16 18  1  0  0  0
 18 19  2  0  0  0
 19 21  1  0  0  0
 19 20  1  0  0  0
 21 22  1  0  0  0
 21 23  1  0  0  0
 21 24  1  0  0  0
 11  1  1  0  0  0
 11 13  1  0  0  0
  1  2  1  0  0  0
  1  6  2  0  0  0
  2  3  2  0  0  0
  3  4  1  0  0  0
  4 25  1  0  0  0
  4  5  2  0  0  0
 25 26  1  0  0  0
 26 27  1  0  0  0
 26 31  2  0  0  0
 27 28  2  0  0  0
 28 32  1  0  0  0
 28 29  1  0  0  0
 32 33  1  0  0  0
 32 35  1  0  0  0
 33 34  2  0  0  0
 33 36  1  0  0  0
 36 37  1  0  0  0
 36 38  1  0  0  0
 37 38  1  0  0  0
 29 30  2  0  0  0
 30 31  1  0  0  0
  5  6  1  0  0  0
  6  7  1  0  0  0
M  END
> <minimizedAffinity>
-12.12165

$$$$
