CHEMBL150894


 35 40  0  0  0  0  0  0  0  0999 V2000
  -19.1321    1.7910  -14.6447 C   0  0  0  0  0  0  0  0  0  0  0  0
  -18.8448    2.7117  -15.6553 C   0  0  0  0  0  0  0  0  0  0  0  0
  -17.5327    2.9547  -16.0617 C   0  0  0  0  0  0  0  0  0  0  0  0
  -16.4969    2.2746  -15.4056 C   0  0  0  0  0  0  0  0  0  0  0  0
  -16.7915    1.2615  -14.4754 C   0  0  0  0  0  0  0  0  0  0  0  0
  -18.1155    0.9893  -14.1172 C   0  0  0  0  0  0  0  0  0  0  0  0
  -15.5536    0.7224  -14.2299 C   0  0  0  0  0  0  0  0  0  0  0  0
  -15.2899   -0.6135  -13.8668 C   0  0  0  0  0  0  0  0  0  0  0  0
  -14.0173   -1.1199  -14.3153 C   0  0  0  0  0  0  0  0  0  0  0  0
  -13.0536   -0.2586  -14.8368 C   0  0  0  0  0  0  0  0  0  0  0  0
  -13.2348    1.0522  -14.3546 C   0  0  0  0  0  0  0  0  0  0  0  0
  -14.5075    1.5142  -14.5897 C   0  0  0  0  0  0  0  0  0  0  0  0
  -15.0904    2.3098  -15.5890 N   0  0  0  0  0  0  0  0  0  0  0  0
  -11.9095    1.6878  -14.3198 C   0  0  0  0  0  0  0  0  0  0  0  0
  -11.4047    1.1896  -15.6395 C   0  0  0  0  0  0  0  0  0  0  0  0
  -10.7994    2.0770  -16.5207 C   0  0  0  0  0  0  0  0  0  0  0  0
  -11.0442    1.8751  -17.8621 C   0  0  0  0  0  0  0  0  0  0  0  0
  -11.7877    0.7501  -18.2751 C   0  0  0  0  0  0  0  0  0  0  0  0
  -12.3173   -0.2038  -17.3477 C   0  0  0  0  0  0  0  0  0  0  0  0
  -12.1508    0.0069  -15.9839 C   0  0  0  0  0  0  0  0  0  0  0  0
  -13.7179   -2.2219  -13.4172 C   0  0  0  0  0  0  0  0  0  0  0  0
  -12.7031   -2.8740  -13.2144 O   0  0  0  0  0  0  0  0  0  0  0  0
  -14.8252   -2.3231  -12.5530 N   0  0  0  0  0  0  0  0  0  0  0  0
  -15.8949   -1.3655  -12.7717 C   0  0  0  0  0  0  0  0  0  0  0  0
  -14.6678   -2.7406  -11.6429 H   0  0  0  0  0  0  0  0  0  0  0  0
  -20.5094    1.6914  -14.0705 C   0  0  0  0  0  0  0  0  0  0  0  0
  -21.1035    0.4797  -14.4975 O   0  0  0  0  0  0  0  0  0  0  0  0
  -22.6989   -0.6555  -13.1839 C   0  0  0  0  0  0  0  0  0  0  0  0
  -22.5031    0.4255  -14.2362 C   0  0  0  0  0  0  0  0  0  0  0  0
  -23.0227    1.7688  -13.7350 C   0  0  0  0  0  0  0  0  0  0  0  0
  -14.4737    2.4698  -16.9090 C   0  0  0  0  0  0  0  0  0  0  0  0
  -14.0358    3.8254  -17.4555 C   0  0  0  0  0  0  0  0  0  0  0  0
  -13.4059    4.6952  -16.3871 C   0  0  0  0  0  0  0  0  0  0  0  0
  -14.4196    5.2393  -15.5519 O   0  0  0  0  0  0  0  0  0  0  0  0
  -14.9687    5.8302  -16.0956 H   0  0  0  0  0  0  0  0  0  0  0  0
 28 29  1  0  0  0
 29 30  1  0  0  0
 29 27  1  0  0  0
 27 26  1  0  0  0
 26  1  1  0  0  0
  1  2  1  0  0  0
  1  6  2  0  0  0
  2  3  2  0  0  0
  3  4  1  0  0  0
  4  5  2  0  0  0
  4 13  1  0  0  0
  5  6  1  0  0  0
  5  7  1  0  0  0
  7  8  1  0  0  0
  7 12  2  0  0  0
  8  9  2  0  0  0
  8 24  1  0  0  0
  9 10  1  0  0  0
  9 21  1  0  0  0
 10 11  2  0  0  0
 10 20  1  0  0  0
 11 12  1  0  0  0
 11 14  1  0  0  0
 12 13  1  0  0  0
 13 31  1  0  0  0
 31 32  1  0  0  0
 32 33  1  0  0  0
 33 34  1  0  0  0
 34 35  1  0  0  0
 14 15  1  0  0  0
 15 16  1  0  0  0
 15 20  2  0  0  0
 16 17  2  0  0  0
 17 18  1  0  0  0
 18 19  2  0  0  0
 19 20  1  0  0  0
 21 22  2  0  0  0
 21 23  1  0  0  0
 23 24  1  0  0  0
 23 25  1  0  0  0
M  END
> <minimizedAffinity>
-7.63096

$$$$
