CHEMBL3740276


 41 45  0  0  0  0  0  0  0  0999 V2000
  -30.0357  -10.4797   -8.3884 O   0  0  0  0  0  0  0  0  0  0  0  0
  -30.2759   -9.4126   -7.5552 C   0  0  0  0  0  0  0  0  0  0  0  0
  -31.6031   -9.1207   -7.2657 C   0  0  0  0  0  0  0  0  0  0  0  0
  -31.9077   -7.9213   -6.6083 C   0  0  0  0  0  0  0  0  0  0  0  0
  -30.8785   -7.0732   -6.1523 C   0  0  0  0  0  0  0  0  0  0  0  0
  -31.0651   -5.8791   -5.4363 C   0  0  0  0  0  0  0  0  0  0  0  0
  -30.9092   -6.1344   -4.0989 C   0  0  0  0  0  0  0  0  0  0  0  0
  -29.7357   -6.7970   -3.7525 C   0  0  0  0  0  0  0  0  0  0  0  0
  -28.9991   -7.4384   -4.7727 C   0  0  0  0  0  0  0  0  0  0  0  0
  -29.6407   -7.6961   -5.9997 C   0  0  0  0  0  0  0  0  0  0  0  0
  -29.2706   -8.7342   -6.8697 C   0  0  0  0  0  0  0  0  0  0  0  0
  -30.0907   -4.7127   -5.8869 C   0  0  0  0  0  0  0  0  0  0  0  0
  -29.3849   -4.8404   -6.8899 O   0  0  0  0  0  0  0  0  0  0  0  0
  -30.0918   -3.5780   -5.0568 N   0  0  0  0  0  0  0  0  0  0  0  0
  -30.7526   -3.5802   -4.2949 H   0  0  0  0  0  0  0  0  0  0  0  0
  -29.2581   -2.4235   -5.1003 C   0  0  0  0  0  0  0  0  0  0  0  0
  -27.8748   -2.4334   -4.9080 C   0  0  0  0  0  0  0  0  0  0  0  0
  -27.1245   -1.2510   -4.9881 C   0  0  0  0  0  0  0  0  0  0  0  0
  -27.7424   -0.0276   -5.2510 C   0  0  0  0  0  0  0  0  0  0  0  0
  -29.1225    0.0120   -5.4159 C   0  0  0  0  0  0  0  0  0  0  0  0
  -29.8695   -1.1773   -5.3321 C   0  0  0  0  0  0  0  0  0  0  0  0
  -26.7369  -11.3113   -9.2706 C   0  0  0  0  0  0  0  0  0  0  0  0
  -26.4757  -10.6185  -10.4045 N   0  0  0  0  0  0  0  0  0  0  0  0
  -27.4826   -9.8794  -10.9047 C   0  0  0  0  0  0  0  0  0  0  0  0
  -28.7158   -9.7874  -10.3146 C   0  0  0  0  0  0  0  0  0  0  0  0
  -28.8677  -10.4827   -9.1328 C   0  0  0  0  0  0  0  0  0  0  0  0
  -27.9043  -11.2630   -8.6264 N   0  0  0  0  0  0  0  0  0  0  0  0
  -25.6788  -12.0936   -8.7906 N   0  0  0  0  0  0  0  0  0  0  0  0
  -26.1019  -12.9203   -8.3801 H   0  0  0  0  0  0  0  0  0  0  0  0
  -23.6772  -10.2257   -6.2557 C   0  0  0  0  0  0  0  0  0  0  0  0
  -22.4410  -10.8582   -6.3784 C   0  0  0  0  0  0  0  0  0  0  0  0
  -22.2864  -11.8913   -7.3081 C   0  0  0  0  0  0  0  0  0  0  0  0
  -23.3637  -12.2767   -8.1112 C   0  0  0  0  0  0  0  0  0  0  0  0
  -24.5963  -11.6190   -8.0222 C   0  0  0  0  0  0  0  0  0  0  0  0
  -24.7402  -10.5965   -7.0770 C   0  0  0  0  0  0  0  0  0  0  0  0
  -23.8822   -9.2014   -5.2878 N   0  0  0  0  0  0  0  0  0  0  0  0
  -23.9777   -8.2569   -5.6636 H   0  0  0  0  0  0  0  0  0  0  0  0
  -24.3086  -10.7502   -3.1183 C   0  0  0  0  0  0  0  0  0  0  0  0
  -25.0504   -9.4587   -4.0968 S   0  0  0  0  0  0  0  0  0  0  0  0
  -26.2667   -9.9381   -4.6878 O   0  0  0  0  0  0  0  0  0  0  0  0
  -25.0387   -8.2442   -3.2870 O   0  0  0  0  0  0  0  0  0  0  0  0
 38 39  1  0  0  0
 39 40  2  0  0  0
 39 41  2  0  0  0
 39 36  1  0  0  0
 36 30  1  0  0  0
 36 37  1  0  0  0
 30 31  1  0  0  0
 30 35  2  0  0  0
 31 32  2  0  0  0
 32 33  1  0  0  0
 33 34  2  0  0  0
 34 28  1  0  0  0
 34 35  1  0  0  0
 28 22  1  0  0  0
 28 29  1  0  0  0
 22 23  1  0  0  0
 22 27  2  0  0  0
 23 24  2  0  0  0
 24 25  1  0  0  0
 25 26  2  0  0  0
 26  1  1  0  0  0
 26 27  1  0  0  0
  1  2  1  0  0  0
  2  3  1  0  0  0
  2 11  2  0  0  0
  3  4  2  0  0  0
  4  5  1  0  0  0
  5  6  1  0  0  0
  5 10  2  0  0  0
  6 12  1  0  0  0
  6  7  2  0  0  0
 12 13  2  0  0  0
 12 14  1  0  0  0
 14 16  1  0  0  0
 14 15  1  0  0  0
 16 17  1  0  0  0
 16 21  2  0  0  0
 17 18  2  0  0  0
 18 19  1  0  0  0
 19 20  2  0  0  0
 20 21  1  0  0  0
  7  8  1  0  0  0
  8  9  2  0  0  0
  9 10  1  0  0  0
 10 11  1  0  0  0
M  END
> <minimizedAffinity>
-9.78341

$$$$
