CHEMBL2386798


 43 47  0  0  0  0  0  0  0  0999 V2000
  -20.4388    1.5575  -14.8811 C   0  0  0  0  0  0  0  0  0  0  0  0
  -21.1945    0.4569  -14.5596 C   0  0  0  0  0  0  0  0  0  0  0  0
  -22.3991    0.9572  -13.9978 C   0  0  0  0  0  0  0  0  0  0  0  0
  -22.3924    2.2998  -13.9875 N   0  0  0  0  0  0  0  0  0  0  0  0
  -21.1937    2.6314  -14.4907 N   0  0  0  0  0  0  0  0  0  0  0  0
  -20.9714    3.6174  -14.5619 H   0  0  0  0  0  0  0  0  0  0  0  0
  -23.5136    0.1729  -13.4716 C   0  0  0  0  0  0  0  0  0  0  0  0
  -24.1311   -0.7980  -14.2715 C   0  0  0  0  0  0  0  0  0  0  0  0
  -25.2094   -1.5417  -13.7848 C   0  0  0  0  0  0  0  0  0  0  0  0
  -25.6980   -1.3179  -12.4923 C   0  0  0  0  0  0  0  0  0  0  0  0
  -25.0709   -0.3604  -11.6850 C   0  0  0  0  0  0  0  0  0  0  0  0
  -23.9894    0.3806  -12.1706 C   0  0  0  0  0  0  0  0  0  0  0  0
  -26.9056   -2.0664  -12.0003 C   0  0  0  0  0  0  0  0  0  0  0  0
  -26.7832   -2.5099  -10.6289 N   0  0  0  0  0  0  0  0  0  0  0  0
  -27.5707   -1.8641   -9.6999 C   0  0  0  0  0  0  0  0  0  0  0  0
  -28.3073   -0.9349  -10.0206 O   0  0  0  0  0  0  0  0  0  0  0  0
  -27.3868   -2.3550   -8.4271 N   0  0  0  0  0  0  0  0  0  0  0  0
  -26.6505   -3.4986  -10.4791 H   0  0  0  0  0  0  0  0  0  0  0  0
  -26.5328   -2.8773   -8.2870 H   0  0  0  0  0  0  0  0  0  0  0  0
  -28.0640   -1.9127   -7.2690 C   0  0  0  0  0  0  0  0  0  0  0  0
  -27.8533   -0.6537   -6.6977 C   0  0  0  0  0  0  0  0  0  0  0  0
  -28.5133   -0.2823   -5.5226 C   0  0  0  0  0  0  0  0  0  0  0  0
  -29.3985   -1.1635   -4.9104 C   0  0  0  0  0  0  0  0  0  0  0  0
  -29.6392   -2.4095   -5.4851 C   0  0  0  0  0  0  0  0  0  0  0  0
  -28.9829   -2.7792   -6.6658 C   0  0  0  0  0  0  0  0  0  0  0  0
  -18.2313    2.6505  -15.1687 C   0  0  0  0  0  0  0  0  0  0  0  0
  -18.4590    3.5134  -14.3385 O   0  0  0  0  0  0  0  0  0  0  0  0
  -19.1769    1.6075  -15.4599 N   0  0  0  0  0  0  0  0  0  0  0  0
  -18.8835    0.8259  -16.0325 H   0  0  0  0  0  0  0  0  0  0  0  0
  -14.5045    2.2800  -17.2520 C   0  0  0  0  0  0  0  0  0  0  0  0
  -15.0779    1.1872  -16.5835 C   0  0  0  0  0  0  0  0  0  0  0  0
  -16.2874    1.3208  -15.9042 C   0  0  0  0  0  0  0  0  0  0  0  0
  -16.9285    2.5609  -15.8637 C   0  0  0  0  0  0  0  0  0  0  0  0
  -16.3415    3.6756  -16.4768 C   0  0  0  0  0  0  0  0  0  0  0  0
  -15.1415    3.5284  -17.1808 C   0  0  0  0  0  0  0  0  0  0  0  0
  -13.2146    2.1055  -18.0348 C   0  0  0  0  0  0  0  0  0  0  0  0
  -10.8422   -1.3854  -20.2955 C   0  0  0  0  0  0  0  0  0  0  0  0
  -11.7367   -0.2502  -20.5038 N   0  0  0  0  0  0  0  0  0  0  0  0
  -13.0150   -0.4502  -19.8059 C   0  0  0  0  0  0  0  0  0  0  0  0
  -13.9483    0.7673  -19.9904 C   0  0  0  0  0  0  0  0  0  0  0  0
  -13.3888    2.0467  -19.4975 N   0  0  0  0  0  0  0  0  0  0  0  0
  -12.0775    2.2303  -20.1766 C   0  0  0  0  0  0  0  0  0  0  0  0
  -11.1097    1.0167  -20.0834 C   0  0  0  0  0  0  0  0  0  0  0  0
 37 38  1  0  0  0
 38 39  1  0  0  0
 38 43  1  0  0  0
 39 40  1  0  0  0
 40 41  1  0  0  0
 41 36  1  0  0  0
 41 42  1  0  0  0
 36 30  1  0  0  0
 30 31  1  0  0  0
 30 35  2  0  0  0
 31 32  2  0  0  0
 32 33  1  0  0  0
 33 26  1  0  0  0
 33 34  2  0  0  0
 26 27  2  0  0  0
 26 28  1  0  0  0
 28  1  1  0  0  0
 28 29  1  0  0  0
  1  2  2  0  0  0
  1  5  1  0  0  0
  2  3  1  0  0  0
  3  7  1  0  0  0
  3  4  2  0  0  0
  7  8  1  0  0  0
  7 12  2  0  0  0
  8  9  2  0  0  0
  9 10  1  0  0  0
 10 13  1  0  0  0
 10 11  2  0  0  0
 13 14  1  0  0  0
 14 15  1  0  0  0
 14 18  1  0  0  0
 15 16  2  0  0  0
 15 17  1  0  0  0
 17 20  1  0  0  0
 17 19  1  0  0  0
 20 21  1  0  0  0
 20 25  2  0  0  0
 21 22  2  0  0  0
 22 23  1  0  0  0
 23 24  2  0  0  0
 24 25  1  0  0  0
 11 12  1  0  0  0
  4  5  1  0  0  0
  5  6  1  0  0  0
 34 35  1  0  0  0
 42 43  1  0  0  0
M  END
> <minimizedAffinity>
-11.41154

$$$$
