CHEMBL1242027


 25 27  0  0  0  0  0  0  0  0999 V2000
  -29.7219   -6.4027   -6.2948 C   0  0  0  0  0  0  0  0  0  0  0  0
  -30.7247   -6.9810   -6.9762 N   0  0  0  0  0  0  0  0  0  0  0  0
  -30.6320   -8.2933   -6.6827 N   0  0  0  0  0  0  0  0  0  0  0  0
  -29.5753   -8.5914   -5.8691 C   0  0  0  0  0  0  0  0  0  0  0  0
  -29.2102   -9.8123   -5.4340 N   0  0  0  0  0  0  0  0  0  0  0  0
  -28.1238   -9.7519   -4.6526 C   0  0  0  0  0  0  0  0  0  0  0  0
  -27.4363   -8.6590   -4.2758 N   0  0  0  0  0  0  0  0  0  0  0  0
  -27.8461   -7.4514   -4.7195 C   0  0  0  0  0  0  0  0  0  0  0  0
  -27.1001   -6.3729   -4.2652 N   0  0  0  0  0  0  0  0  0  0  0  0
  -28.9586   -7.3859   -5.5754 C   0  0  0  0  0  0  0  0  0  0  0  0
  -26.4614   -6.6716   -3.5367 H   0  0  0  0  0  0  0  0  0  0  0  0
  -27.6352   -5.5440   -4.0434 H   0  0  0  0  0  0  0  0  0  0  0  0
  -29.0314   -2.1602   -6.3634 C   0  0  0  0  0  0  0  0  0  0  0  0
  -29.9096   -2.7125   -5.4337 C   0  0  0  0  0  0  0  0  0  0  0  0
  -30.1425   -4.0926   -5.4254 C   0  0  0  0  0  0  0  0  0  0  0  0
  -30.9516   -4.5683   -4.4653 F   0  0  0  0  0  0  0  0  0  0  0  0
  -29.5324   -4.9498   -6.3539 C   0  0  0  0  0  0  0  0  0  0  0  0
  -28.7165   -4.3715   -7.3302 C   0  0  0  0  0  0  0  0  0  0  0  0
  -28.4406   -3.0065   -7.3027 C   0  0  0  0  0  0  0  0  0  0  0  0
  -27.5719   -2.5151   -8.1993 F   0  0  0  0  0  0  0  0  0  0  0  0
  -27.6627   -0.3933   -5.5515 C   0  0  0  0  0  0  0  0  0  0  0  0
  -28.6757   -0.8430   -6.4419 O   0  0  0  0  0  0  0  0  0  0  0  0
  -31.6117   -9.2340   -7.2203 C   0  0  0  0  0  0  0  0  0  0  0  0
  -33.0105   -8.6186   -7.2825 C   0  0  0  0  0  0  0  0  0  0  0  0
  -31.1895   -9.7636   -8.5917 C   0  0  0  0  0  0  0  0  0  0  0  0
 21 22  1  0  0  0
 22 13  1  0  0  0
 13 14  1  0  0  0
 13 19  2  0  0  0
 14 15  2  0  0  0
 15 16  1  0  0  0
 15 17  1  0  0  0
 17  1  1  0  0  0
 17 18  2  0  0  0
  1  2  2  0  0  0
  1 10  1  0  0  0
  2  3  1  0  0  0
  3 23  1  0  0  0
  3  4  1  0  0  0
 23 24  1  0  0  0
 23 25  1  0  0  0
  4  5  1  0  0  0
  4 10  2  0  0  0
  5  6  2  0  0  0
  6  7  1  0  0  0
  7  8  2  0  0  0
  8  9  1  0  0  0
  8 10  1  0  0  0
  9 11  1  0  0  0
  9 12  1  0  0  0
 18 19  1  0  0  0
 19 20  1  0  0  0
M  END
> <minimizedAffinity>
-7.43992

$$$$
