CHEMBL4218369


 38 43  0  0  0  0  0  0  0  0999 V2000
  -28.1079   -0.0194   -6.2360 C   0  0  0  0  0  0  0  0  0  0  0  0
  -28.3321   -1.0002   -5.3449 N   0  0  0  0  0  0  0  0  0  0  0  0
  -28.4987   -2.2633   -5.7728 C   0  0  0  0  0  0  0  0  0  0  0  0
  -28.4256   -2.5382   -7.1277 C   0  0  0  0  0  0  0  0  0  0  0  0
  -28.5640   -3.6611   -7.9809 C   0  0  0  0  0  0  0  0  0  0  0  0
  -28.4040   -3.3049   -9.2704 N   0  0  0  0  0  0  0  0  0  0  0  0
  -28.2328   -1.9602   -9.2339 N   0  0  0  0  0  0  0  0  0  0  0  0
  -28.2019   -1.4540   -7.9590 C   0  0  0  0  0  0  0  0  0  0  0  0
  -28.0289   -0.1754   -7.5711 N   0  0  0  0  0  0  0  0  0  0  0  0
  -28.9160   -5.0275   -7.6110 C   0  0  0  0  0  0  0  0  0  0  0  0
  -29.9029   -5.2647   -6.6627 C   0  0  0  0  0  0  0  0  0  0  0  0
  -30.1383   -6.5637   -6.2319 C   0  0  0  0  0  0  0  0  0  0  0  0
  -29.3963   -7.6251   -6.7551 C   0  0  0  0  0  0  0  0  0  0  0  0
  -28.4811   -7.4253   -7.7216 N   0  0  0  0  0  0  0  0  0  0  0  0
  -28.2638   -6.1454   -8.1211 C   0  0  0  0  0  0  0  0  0  0  0  0
  -29.6832   -8.8978   -6.3043 N   0  0  0  0  0  0  0  0  0  0  0  0
  -30.3751   -9.8296   -7.1963 C   0  0  0  0  0  0  0  0  0  0  0  0
  -31.0876  -10.8725   -6.2942 C   0  0  0  0  0  0  0  0  0  0  0  0
  -30.1541  -11.5848   -5.3802 N   0  0  0  0  0  0  0  0  0  0  0  0
  -30.8958  -12.4649   -4.4793 C   0  0  0  0  0  0  0  0  0  0  0  0
  -29.3639  -10.6039   -4.5966 C   0  0  0  0  0  0  0  0  0  0  0  0
  -28.6570   -9.5590   -5.4879 C   0  0  0  0  0  0  0  0  0  0  0  0
  -28.1550    1.3846   -4.3222 C   0  0  0  0  0  0  0  0  0  0  0  0
  -27.9401    1.2737   -5.7517 N   0  0  0  0  0  0  0  0  0  0  0  0
  -27.0427    1.5999   -6.0881 H   0  0  0  0  0  0  0  0  0  0  0  0
  -28.0891   -1.2134  -10.4779 C   0  0  0  0  0  0  0  0  0  0  0  0
  -26.7266   -1.3686  -11.0493 C   0  0  0  0  0  0  0  0  0  0  0  0
  -26.3039   -1.3207  -12.3579 C   0  0  0  0  0  0  0  0  0  0  0  0
  -24.9592   -1.5522  -12.2836 N   0  0  0  0  0  0  0  0  0  0  0  0
  -24.5540   -1.6524  -11.0041 N   0  0  0  0  0  0  0  0  0  0  0  0
  -25.6348   -1.5523  -10.2376 N   0  0  0  0  0  0  0  0  0  0  0  0
  -24.0174   -1.6818  -13.3779 C   0  0  0  0  0  0  0  0  0  0  0  0
  -23.2259   -0.4059  -13.5446 C   0  0  0  0  0  0  0  0  0  0  0  0
  -23.7981    0.8375  -13.2360 C   0  0  0  0  0  0  0  0  0  0  0  0
  -23.1167    2.0196  -13.5282 C   0  0  0  0  0  0  0  0  0  0  0  0
  -21.8548    1.9711  -14.1173 C   0  0  0  0  0  0  0  0  0  0  0  0
  -21.2606    0.7411  -14.3923 C   0  0  0  0  0  0  0  0  0  0  0  0
  -21.9415   -0.4428  -14.1073 C   0  0  0  0  0  0  0  0  0  0  0  0
 23 24  1  0  0  0
 24  1  1  0  0  0
 24 25  1  0  0  0
  1  2  1  0  0  0
  1  9  2  0  0  0
  2  3  2  0  0  0
  3  4  1  0  0  0
  4  5  1  0  0  0
  4  8  2  0  0  0
  5 10  1  0  0  0
  5  6  2  0  0  0
 10 11  1  0  0  0
 10 15  2  0  0  0
 11 12  2  0  0  0
 12 13  1  0  0  0
 13 16  1  0  0  0
 13 14  2  0  0  0
 16 17  1  0  0  0
 16 22  1  0  0  0
 17 18  1  0  0  0
 18 19  1  0  0  0
 19 20  1  0  0  0
 19 21  1  0  0  0
 21 22  1  0  0  0
 14 15  1  0  0  0
  6  7  1  0  0  0
  7 26  1  0  0  0
  7  8  1  0  0  0
 26 27  1  0  0  0
 27 28  2  0  0  0
 27 31  1  0  0  0
 28 29  1  0  0  0
 29 32  1  0  0  0
 29 30  1  0  0  0
 32 33  1  0  0  0
 33 34  1  0  0  0
 33 38  2  0  0  0
 34 35  2  0  0  0
 35 36  1  0  0  0
 36 37  2  0  0  0
 37 38  1  0  0  0
 30 31  2  0  0  0
  8  9  1  0  0  0
M  END
> <minimizedAffinity>
-8.92673

$$$$
