CHEMBL3907551


 27 31  0  0  0  0  0  0  0  0999 V2000
  -27.7178   -9.0240   -5.2540 C   0  0  0  0  0  0  0  0  0  0  0  0
  -28.1519   -9.2331   -6.5541 C   0  0  0  0  0  0  0  0  0  0  0  0
  -28.6296   -8.2361   -7.3427 N   0  0  0  0  0  0  0  0  0  0  0  0
  -28.6964   -7.0118   -6.7799 C   0  0  0  0  0  0  0  0  0  0  0  0
  -29.2925   -5.9559   -7.4501 C   0  0  0  0  0  0  0  0  0  0  0  0
  -29.5226   -4.7192   -6.8183 C   0  0  0  0  0  0  0  0  0  0  0  0
  -29.0978   -4.4729   -5.5060 C   0  0  0  0  0  0  0  0  0  0  0  0
  -28.3272   -5.5059   -4.9348 C   0  0  0  0  0  0  0  0  0  0  0  0
  -28.2078   -6.7789   -5.4823 C   0  0  0  0  0  0  0  0  0  0  0  0
  -27.6978   -7.7759   -4.7280 N   0  0  0  0  0  0  0  0  0  0  0  0
  -25.0887  -11.9442   -2.2204 C   0  0  0  0  0  0  0  0  0  0  0  0
  -26.1555  -11.3728   -3.0062 N   0  0  0  0  0  0  0  0  0  0  0  0
  -26.1129  -10.2252   -3.7407 C   0  0  0  0  0  0  0  0  0  0  0  0
  -27.3372  -10.1152   -4.3739 C   0  0  0  0  0  0  0  0  0  0  0  0
  -28.0552  -11.2401   -3.9058 C   0  0  0  0  0  0  0  0  0  0  0  0
  -27.3393  -12.0081   -3.0793 N   0  0  0  0  0  0  0  0  0  0  0  0
  -29.4539   -3.3173   -4.7463 N   0  0  0  0  0  0  0  0  0  0  0  0
  -29.1005   -1.9515   -5.0367 C   0  0  0  0  0  0  0  0  0  0  0  0
  -27.7825   -1.4611   -4.9432 C   0  0  0  0  0  0  0  0  0  0  0  0
  -27.4827   -0.0941   -5.0035 C   0  0  0  0  0  0  0  0  0  0  0  0
  -28.4933    0.8323   -5.2046 C   0  0  0  0  0  0  0  0  0  0  0  0
  -29.7829    0.3799   -5.4370 C   0  0  0  0  0  0  0  0  0  0  0  0
  -30.0644   -0.9924   -5.3998 C   0  0  0  0  0  0  0  0  0  0  0  0
  -30.3284   -3.5047   -3.5624 C   0  0  0  0  0  0  0  0  0  0  0  0
  -31.5958   -4.2549   -3.9061 C   0  0  0  0  0  0  0  0  0  0  0  0
  -32.2970   -5.0060   -2.7880 C   0  0  0  0  0  0  0  0  0  0  0  0
  -31.6904   -5.7544   -3.9395 C   0  0  0  0  0  0  0  0  0  0  0  0
 11 12  1  0  0  0
 12 13  1  0  0  0
 12 16  1  0  0  0
 13 14  2  0  0  0
 14  1  1  0  0  0
 14 15  1  0  0  0
  1  2  1  0  0  0
  1 10  2  0  0  0
  2  3  2  0  0  0
  3  4  1  0  0  0
  4  5  1  0  0  0
  4  9  2  0  0  0
  5  6  2  0  0  0
  6  7  1  0  0  0
  7 17  1  0  0  0
  7  8  2  0  0  0
 17 24  1  0  0  0
 17 18  1  0  0  0
 24 25  1  0  0  0
 25 26  1  0  0  0
 25 27  1  0  0  0
 26 27  1  0  0  0
 18 19  1  0  0  0
 18 23  2  0  0  0
 19 20  2  0  0  0
 20 21  1  0  0  0
 21 22  2  0  0  0
 22 23  1  0  0  0
  8  9  1  0  0  0
  9 10  1  0  0  0
 15 16  2  0  0  0
M  END
> <minimizedAffinity>
-8.41529

$$$$
