CHEMBL3822938


 25 27  0  0  0  0  0  0  0  0999 V2000
  -31.0310   -7.7949   -7.4760 C   0  0  0  0  0  0  0  0  0  0  0  0
  -32.3222   -8.0278   -6.9912 C   0  0  0  0  0  0  0  0  0  0  0  0
  -32.9213   -9.2487   -7.2299 C   0  0  0  0  0  0  0  0  0  0  0  0
  -32.3250  -10.2438   -7.9099 N   0  0  0  0  0  0  0  0  0  0  0  0
  -31.0870  -10.0362   -8.3800 C   0  0  0  0  0  0  0  0  0  0  0  0
  -30.5113  -11.0466   -9.1328 C   0  0  0  0  0  0  0  0  0  0  0  0
  -29.2447  -10.9131   -9.7019 C   0  0  0  0  0  0  0  0  0  0  0  0
  -28.5057   -9.7456   -9.5054 C   0  0  0  0  0  0  0  0  0  0  0  0
  -29.0695   -8.7180   -8.7306 C   0  0  0  0  0  0  0  0  0  0  0  0
  -30.3686   -8.8343   -8.1766 C   0  0  0  0  0  0  0  0  0  0  0  0
  -27.1409   -9.5672  -10.1253 C   0  0  0  0  0  0  0  0  0  0  0  0
  -26.2230  -10.4759   -9.6930 F   0  0  0  0  0  0  0  0  0  0  0  0
  -27.1679   -9.6819  -11.4820 F   0  0  0  0  0  0  0  0  0  0  0  0
  -26.6075   -8.3424   -9.8643 F   0  0  0  0  0  0  0  0  0  0  0  0
  -30.4704   -6.4958   -7.3563 N   0  0  0  0  0  0  0  0  0  0  0  0
  -30.3506   -5.9950   -8.2259 H   0  0  0  0  0  0  0  0  0  0  0  0
  -29.3187   -3.7469   -7.4238 C   0  0  0  0  0  0  0  0  0  0  0  0
  -29.3239   -4.6309   -6.2067 C   0  0  0  0  0  0  0  0  0  0  0  0
  -28.6503   -4.1740   -5.0540 C   0  0  0  0  0  0  0  0  0  0  0  0
  -28.6353   -4.9241   -3.8780 C   0  0  0  0  0  0  0  0  0  0  0  0
  -29.3126   -6.1303   -3.8446 C   0  0  0  0  0  0  0  0  0  0  0  0
  -29.3592   -6.8976   -2.7175 O   0  0  0  0  0  0  0  0  0  0  0  0
  -29.9563   -6.6096   -4.9756 C   0  0  0  0  0  0  0  0  0  0  0  0
  -29.9428   -5.8971   -6.1889 C   0  0  0  0  0  0  0  0  0  0  0  0
  -28.9096   -6.4206   -2.0040 H   0  0  0  0  0  0  0  0  0  0  0  0
 17 18  1  0  0  0
 18 19  1  0  0  0
 18 24  2  0  0  0
 19 20  2  0  0  0
 20 21  1  0  0  0
 21 22  1  0  0  0
 21 23  2  0  0  0
 22 25  1  0  0  0
 23 24  1  0  0  0
 24 15  1  0  0  0
 15  1  1  0  0  0
 15 16  1  0  0  0
  1  2  1  0  0  0
  1 10  2  0  0  0
  2  3  2  0  0  0
  3  4  1  0  0  0
  4  5  2  0  0  0
  5  6  1  0  0  0
  5 10  1  0  0  0
  6  7  2  0  0  0
  7  8  1  0  0  0
  8 11  1  0  0  0
  8  9  2  0  0  0
 11 12  1  0  0  0
 11 13  1  0  0  0
 11 14  1  0  0  0
  9 10  1  0  0  0
M  END
> <minimizedAffinity>
-8.53033

$$$$
