CHEMBL249611


 35 39  0  0  0  0  0  0  0  0999 V2000
  -27.8603   -1.7587   -8.1790 C   0  0  0  0  0  0  0  0  0  0  0  0
  -27.6443   -0.5967   -7.4153 C   0  0  0  0  0  0  0  0  0  0  0  0
  -28.1010   -0.5197   -6.1056 C   0  0  0  0  0  0  0  0  0  0  0  0
  -28.7475   -1.6191   -5.5909 C   0  0  0  0  0  0  0  0  0  0  0  0
  -28.9556   -2.7617   -6.2843 N   0  0  0  0  0  0  0  0  0  0  0  0
  -28.5254   -2.8298   -7.5749 C   0  0  0  0  0  0  0  0  0  0  0  0
  -28.2171   -1.6353  -10.4605 O   0  0  0  0  0  0  0  0  0  0  0  0
  -27.3613   -1.7284   -9.5842 C   0  0  0  0  0  0  0  0  0  0  0  0
  -25.9913   -1.7561   -9.7961 N   0  0  0  0  0  0  0  0  0  0  0  0
  -25.3953   -1.8376   -8.9744 H   0  0  0  0  0  0  0  0  0  0  0  0
  -25.3333   -1.5385  -11.0383 C   0  0  0  0  0  0  0  0  0  0  0  0
  -26.0025   -1.1872  -12.2150 C   0  0  0  0  0  0  0  0  0  0  0  0
  -25.3010   -0.8740  -13.3854 C   0  0  0  0  0  0  0  0  0  0  0  0
  -23.9107   -0.8557  -13.3821 C   0  0  0  0  0  0  0  0  0  0  0  0
  -23.2290   -1.3011  -12.2491 C   0  0  0  0  0  0  0  0  0  0  0  0
  -23.9361   -1.6396  -11.0823 C   0  0  0  0  0  0  0  0  0  0  0  0
  -23.1562   -0.4698  -14.4667 O   0  0  0  0  0  0  0  0  0  0  0  0
  -22.3845    0.6763  -14.3970 C   0  0  0  0  0  0  0  0  0  0  0  0
  -22.8396    1.9329  -13.9859 C   0  0  0  0  0  0  0  0  0  0  0  0
  -21.9736    3.0318  -13.9777 C   0  0  0  0  0  0  0  0  0  0  0  0
  -20.6351    2.8696  -14.3271 C   0  0  0  0  0  0  0  0  0  0  0  0
  -20.1607    1.6086  -14.6846 C   0  0  0  0  0  0  0  0  0  0  0  0
  -21.0333    0.5171  -14.7212 C   0  0  0  0  0  0  0  0  0  0  0  0
  -28.8593   -3.9901   -8.3160 N   0  0  0  0  0  0  0  0  0  0  0  0
  -29.4942   -3.7153   -9.0619 H   0  0  0  0  0  0  0  0  0  0  0  0
  -29.1848   -5.2593   -7.7795 C   0  0  0  0  0  0  0  0  0  0  0  0
  -30.2378   -5.4166   -6.8628 C   0  0  0  0  0  0  0  0  0  0  0  0
  -30.4218   -6.6067   -6.1419 C   0  0  0  0  0  0  0  0  0  0  0  0
  -29.5211   -7.6610   -6.3501 C   0  0  0  0  0  0  0  0  0  0  0  0
  -29.2853   -8.9314   -5.7805 C   0  0  0  0  0  0  0  0  0  0  0  0
  -28.2877   -9.5878   -6.3792 N   0  0  0  0  0  0  0  0  0  0  0  0
  -27.8839   -8.7324   -7.3358 N   0  0  0  0  0  0  0  0  0  0  0  0
  -28.5339   -7.5264   -7.3175 C   0  0  0  0  0  0  0  0  0  0  0  0
  -28.3316   -6.3448   -8.0417 C   0  0  0  0  0  0  0  0  0  0  0  0
  -27.1413   -9.0264   -7.9596 H   0  0  0  0  0  0  0  0  0  0  0  0
  7  8  2  0  0  0
  8  9  1  0  0  0
  8  1  1  0  0  0
  9 11  1  0  0  0
  9 10  1  0  0  0
 11 12  1  0  0  0
 11 16  2  0  0  0
 12 13  2  0  0  0
 13 14  1  0  0  0
 14 17  1  0  0  0
 14 15  2  0  0  0
 17 18  1  0  0  0
 18 19  1  0  0  0
 18 23  2  0  0  0
 19 20  2  0  0  0
 20 21  1  0  0  0
 21 22  2  0  0  0
 22 23  1  0  0  0
 15 16  1  0  0  0
  1  2  1  0  0  0
  1  6  2  0  0  0
  2  3  2  0  0  0
  3  4  1  0  0  0
  4  5  2  0  0  0
  5  6  1  0  0  0
  6 24  1  0  0  0
 24 26  1  0  0  0
 24 25  1  0  0  0
 26 27  1  0  0  0
 26 34  2  0  0  0
 27 28  2  0  0  0
 28 29  1  0  0  0
 29 30  1  0  0  0
 29 33  2  0  0  0
 30 31  2  0  0  0
 31 32  1  0  0  0
 32 33  1  0  0  0
 32 35  1  0  0  0
 33 34  1  0  0  0
M  END
> <minimizedAffinity>
-10.38564

$$$$
