CHEMBL2403375


 29 32  0  0  0  0  0  0  0  0999 V2000
  -28.8357   -6.4137   -7.9043 C   0  0  0  0  0  0  0  0  0  0  0  0
  -29.7838   -7.2871   -7.5152 C   0  0  0  0  0  0  0  0  0  0  0  0
  -30.8216   -7.1477   -6.4138 C   0  0  0  0  0  0  0  0  0  0  0  0
  -30.9405   -6.2802   -5.5698 O   0  0  0  0  0  0  0  0  0  0  0  0
  -31.6001   -8.2819   -6.4915 N   0  0  0  0  0  0  0  0  0  0  0  0
  -31.1377   -9.1491   -7.4683 C   0  0  0  0  0  0  0  0  0  0  0  0
  -31.6515  -10.3937   -7.7428 C   0  0  0  0  0  0  0  0  0  0  0  0
  -30.9936  -11.1456   -8.7107 C   0  0  0  0  0  0  0  0  0  0  0  0
  -29.8543  -10.6450   -9.3711 C   0  0  0  0  0  0  0  0  0  0  0  0
  -29.3899   -9.3455   -9.1195 C   0  0  0  0  0  0  0  0  0  0  0  0
  -30.0305   -8.6067   -8.1346 C   0  0  0  0  0  0  0  0  0  0  0  0
  -32.3565   -8.4639   -5.8508 H   0  0  0  0  0  0  0  0  0  0  0  0
  -28.1816    1.3832   -4.4454 C   0  0  0  0  0  0  0  0  0  0  0  0
  -28.3765    0.6453   -5.7473 C   0  0  0  0  0  0  0  0  0  0  0  0
  -28.5105    1.2728   -6.8002 O   0  0  0  0  0  0  0  0  0  0  0  0
  -28.3734   -0.7453   -5.7008 N   0  0  0  0  0  0  0  0  0  0  0  0
  -28.1948   -1.4839   -4.4308 C   0  0  0  0  0  0  0  0  0  0  0  0
  -28.2631   -3.0189   -4.4037 C   0  0  0  0  0  0  0  0  0  0  0  0
  -28.3343   -3.5866   -5.7562 C   0  0  0  0  0  0  0  0  0  0  0  0
  -28.3886   -4.9199   -6.0277 N   0  0  0  0  0  0  0  0  0  0  0  0
  -28.6146   -5.1143   -7.3706 C   0  0  0  0  0  0  0  0  0  0  0  0
  -28.5581   -3.8607   -7.9625 C   0  0  0  0  0  0  0  0  0  0  0  0
  -28.4436   -2.8889   -6.9282 C   0  0  0  0  0  0  0  0  0  0  0  0
  -28.4974   -1.4119   -7.0088 C   0  0  0  0  0  0  0  0  0  0  0  0
  -28.4318   -5.6436   -5.3185 H   0  0  0  0  0  0  0  0  0  0  0  0
  -29.2787  -11.5467  -10.2232 O   0  0  0  0  0  0  0  0  0  0  0  0
  -27.9515  -12.0092   -9.9440 C   0  0  0  0  0  0  0  0  0  0  0  0
  -26.8949  -10.9221  -10.1545 C   0  0  0  0  0  0  0  0  0  0  0  0
  -27.9519  -12.4109   -8.4683 C   0  0  0  0  0  0  0  0  0  0  0  0
 13 14  1  0  0  0
 14 15  2  0  0  0
 14 16  1  0  0  0
 16 17  1  0  0  0
 16 24  1  0  0  0
 17 18  1  0  0  0
 18 19  1  0  0  0
 19 20  1  0  0  0
 19 23  2  0  0  0
 20 21  1  0  0  0
 20 25  1  0  0  0
 21  1  1  0  0  0
 21 22  2  0  0  0
  1  2  2  0  0  0
  2  3  1  0  0  0
  2 11  1  0  0  0
  3  4  2  0  0  0
  3  5  1  0  0  0
  5  6  1  0  0  0
  5 12  1  0  0  0
  6  7  1  0  0  0
  6 11  2  0  0  0
  7  8  2  0  0  0
  8  9  1  0  0  0
  9 26  1  0  0  0
  9 10  2  0  0  0
 26 27  1  0  0  0
 27 28  1  0  0  0
 27 29  1  0  0  0
 10 11  1  0  0  0
 22 23  1  0  0  0
 23 24  1  0  0  0
M  END
> <minimizedAffinity>
-8.71104

$$$$
