CHEMBL3965640


 34 38  0  0  0  0  0  0  0  0999 V2000
  -29.8039   -4.4126   -6.6494 N   0  0  0  0  0  0  0  0  0  0  0  0
  -29.3318   -5.7770   -6.5118 C   0  0  0  0  0  0  0  0  0  0  0  0
  -30.1525   -6.7443   -7.0828 C   0  0  0  0  0  0  0  0  0  0  0  0
  -30.1236   -8.0441   -6.6168 C   0  0  0  0  0  0  0  0  0  0  0  0
  -29.2009   -8.4673   -5.6899 C   0  0  0  0  0  0  0  0  0  0  0  0
  -29.4227   -9.6968   -5.2125 N   0  0  0  0  0  0  0  0  0  0  0  0
  -28.4735  -10.2192   -4.4283 C   0  0  0  0  0  0  0  0  0  0  0  0
  -27.2790   -9.5728   -4.1916 C   0  0  0  0  0  0  0  0  0  0  0  0
  -27.0927   -8.2636   -4.5839 N   0  0  0  0  0  0  0  0  0  0  0  0
  -28.1165   -7.6400   -5.3117 C   0  0  0  0  0  0  0  0  0  0  0  0
  -28.2538   -6.2447   -5.7100 C   0  0  0  0  0  0  0  0  0  0  0  0
  -26.2056  -10.4002   -3.6463 C   0  0  0  0  0  0  0  0  0  0  0  0
  -26.2860  -11.5716   -2.8456 C   0  0  0  0  0  0  0  0  0  0  0  0
  -25.1064  -11.9298   -2.3206 N   0  0  0  0  0  0  0  0  0  0  0  0
  -24.2643  -10.9883   -2.7778 N   0  0  0  0  0  0  0  0  0  0  0  0
  -22.8349  -11.1769   -2.6893 C   0  0  0  0  0  0  0  0  0  0  0  0
  -24.9081   -9.9652   -3.4209 C   0  0  0  0  0  0  0  0  0  0  0  0
  -27.6916   -1.8989   -8.5706 C   0  0  0  0  0  0  0  0  0  0  0  0
  -27.7103   -0.8198   -7.6981 C   0  0  0  0  0  0  0  0  0  0  0  0
  -28.3520   -0.9366   -6.4679 C   0  0  0  0  0  0  0  0  0  0  0  0
  -29.0015   -2.1383   -6.1213 C   0  0  0  0  0  0  0  0  0  0  0  0
  -29.1008   -3.2235   -7.0052 C   0  0  0  0  0  0  0  0  0  0  0  0
  -28.3944   -3.0743   -8.2250 C   0  0  0  0  0  0  0  0  0  0  0  0
  -27.3143   -1.8675  -12.3678 C   0  0  0  0  0  0  0  0  0  0  0  0
  -27.8495   -1.8794  -11.0278 N   0  0  0  0  0  0  0  0  0  0  0  0
  -27.0325   -1.7981   -9.9108 C   0  0  0  0  0  0  0  0  0  0  0  0
  -25.8187   -1.6272   -9.9905 O   0  0  0  0  0  0  0  0  0  0  0  0
  -28.8489   -1.7893  -10.9198 H   0  0  0  0  0  0  0  0  0  0  0  0
  -28.4253    0.0560   -5.5246 O   0  0  0  0  0  0  0  0  0  0  0  0
  -29.6364    0.8052   -5.4690 C   0  0  0  0  0  0  0  0  0  0  0  0
  -30.9959   -4.2517   -5.7432 C   0  0  0  0  0  0  0  0  0  0  0  0
  -30.7956   -4.5838   -4.2696 C   0  0  0  0  0  0  0  0  0  0  0  0
  -31.6494   -5.7410   -3.7741 C   0  0  0  0  0  0  0  0  0  0  0  0
  -31.8132   -4.3918   -3.1532 C   0  0  0  0  0  0  0  0  0  0  0  0
 24 25  1  0  0  0
 25 26  1  0  0  0
 25 28  1  0  0  0
 26 27  2  0  0  0
 26 18  1  0  0  0
 18 19  1  0  0  0
 18 23  2  0  0  0
 19 20  2  0  0  0
 20 29  1  0  0  0
 20 21  1  0  0  0
 29 30  1  0  0  0
 21 22  2  0  0  0
 22  1  1  0  0  0
 22 23  1  0  0  0
  1 31  1  0  0  0
  1  2  1  0  0  0
 31 32  1  0  0  0
 32 33  1  0  0  0
 32 34  1  0  0  0
 33 34  1  0  0  0
  2  3  1  0  0  0
  2 11  2  0  0  0
  3  4  2  0  0  0
  4  5  1  0  0  0
  5  6  1  0  0  0
  5 10  2  0  0  0
  6  7  2  0  0  0
  7  8  1  0  0  0
  8 12  1  0  0  0
  8  9  2  0  0  0
 12 13  1  0  0  0
 12 17  2  0  0  0
 13 14  2  0  0  0
 14 15  1  0  0  0
 15 16  1  0  0  0
 15 17  1  0  0  0
  9 10  1  0  0  0
 10 11  1  0  0  0
M  END
> <minimizedAffinity>
-8.89284

$$$$
