CHEMBL3906122


 38 43  0  0  0  0  0  0  0  0999 V2000
  -14.2664    2.8233  -16.3124 C   0  0  0  0  0  0  0  0  0  0  0  0
  -15.0735    3.7325  -16.9642 C   0  0  0  0  0  0  0  0  0  0  0  0
  -16.3520    3.8010  -16.5332 C   0  0  0  0  0  0  0  0  0  0  0  0
  -16.8838    2.9092  -15.6498 C   0  0  0  0  0  0  0  0  0  0  0  0
  -17.9256    3.5288  -15.2677 N   0  0  0  0  0  0  0  0  0  0  0  0
  -18.9758    2.9367  -15.6506 C   0  0  0  0  0  0  0  0  0  0  0  0
  -19.2192    1.6636  -15.2347 C   0  0  0  0  0  0  0  0  0  0  0  0
  -18.0157    0.9165  -15.0430 N   0  0  0  0  0  0  0  0  0  0  0  0
  -16.6100    1.5967  -15.4497 C   0  0  0  0  0  0  0  0  0  0  0  0
  -15.0088    1.6715  -15.7071 C   0  0  0  0  0  0  0  0  0  0  0  0
  -20.7381    1.7192  -14.9228 C   0  0  0  0  0  0  0  0  0  0  0  0
  -21.7304    2.6355  -14.4506 C   0  0  0  0  0  0  0  0  0  0  0  0
  -22.7551    2.0604  -13.7550 N   0  0  0  0  0  0  0  0  0  0  0  0
  -22.4500    0.7383  -13.6952 N   0  0  0  0  0  0  0  0  0  0  0  0
  -21.3548    0.5010  -14.4839 C   0  0  0  0  0  0  0  0  0  0  0  0
  -23.2346   -0.2607  -12.9029 C   0  0  0  0  0  0  0  0  0  0  0  0
  -24.4108   -0.9775  -13.6529 C   0  0  0  0  0  0  0  0  0  0  0  0
  -25.3350   -0.7353  -12.5103 N   0  0  0  0  0  0  0  0  0  0  0  0
  -24.3878    0.2818  -11.9969 C   0  0  0  0  0  0  0  0  0  0  0  0
  -25.4628   -1.9277  -11.6256 C   0  0  0  0  0  0  0  0  0  0  0  0
  -26.7570   -1.9581  -10.7703 C   0  0  0  0  0  0  0  0  0  0  0  0
  -26.4738   -1.9926   -9.3741 O   0  0  0  0  0  0  0  0  0  0  0  0
  -25.8639   -2.7403   -9.2412 H   0  0  0  0  0  0  0  0  0  0  0  0
  -12.9058    3.2725  -16.2129 N   0  0  0  0  0  0  0  0  0  0  0  0
  -11.6170    6.4009  -17.8030 C   0  0  0  0  0  0  0  0  0  0  0  0
  -11.4631    7.2298  -16.6902 C   0  0  0  0  0  0  0  0  0  0  0  0
  -11.7609    6.7555  -15.4191 C   0  0  0  0  0  0  0  0  0  0  0  0
  -12.2070    5.4380  -15.2738 C   0  0  0  0  0  0  0  0  0  0  0  0
  -12.3526    4.5618  -16.3736 C   0  0  0  0  0  0  0  0  0  0  0  0
  -12.0222    5.0666  -17.6364 C   0  0  0  0  0  0  0  0  0  0  0  0
  -12.5968    7.1111  -19.8507 C   0  0  0  0  0  0  0  0  0  0  0  0
  -11.4243    6.8017  -19.1007 O   0  0  0  0  0  0  0  0  0  0  0  0
  -11.6777    7.4835  -14.2607 O   0  0  0  0  0  0  0  0  0  0  0  0
  -10.8161    6.9703  -13.2481 C   0  0  0  0  0  0  0  0  0  0  0  0
  -11.9464    2.2487  -15.5928 C   0  0  0  0  0  0  0  0  0  0  0  0
  -11.6866    2.0860  -14.0820 C   0  0  0  0  0  0  0  0  0  0  0  0
  -12.5199    1.2164  -13.1594 C   0  0  0  0  0  0  0  0  0  0  0  0
  -12.3659    2.6797  -12.8598 C   0  0  0  0  0  0  0  0  0  0  0  0
 31 32  1  0  0  0
 32 25  1  0  0  0
 25 26  1  0  0  0
 25 30  2  0  0  0
 26 27  2  0  0  0
 27 33  1  0  0  0
 27 28  1  0  0  0
 33 34  1  0  0  0
 28 29  2  0  0  0
 29 24  1  0  0  0
 29 30  1  0  0  0
 24 35  1  0  0  0
 24  1  1  0  0  0
 35 36  1  0  0  0
 36 37  1  0  0  0
 36 38  1  0  0  0
 37 38  1  0  0  0
  1  2  1  0  0  0
  1 10  2  0  0  0
  2  3  2  0  0  0
  3  4  1  0  0  0
  4  5  1  0  0  0
  4  9  2  0  0  0
  5  6  2  0  0  0
  6  7  1  0  0  0
  7 11  1  0  0  0
  7  8  2  0  0  0
 11 12  1  0  0  0
 11 15  2  0  0  0
 12 13  2  0  0  0
 13 14  1  0  0  0
 14 16  1  0  0  0
 14 15  1  0  0  0
 16 17  1  0  0  0
 16 19  1  0  0  0
 17 18  1  0  0  0
 18 20  1  0  0  0
 18 19  1  0  0  0
 20 21  1  0  0  0
 21 22  1  0  0  0
 22 23  1  0  0  0
  8  9  1  0  0  0
  9 10  1  0  0  0
M  END
> <minimizedAffinity>
-7.93841

$$$$
