CHEMBL3960591


 36 40  0  0  0  0  0  0  0  0999 V2000
  -28.5214   -9.4391   -5.6699 N   0  0  0  0  0  0  0  0  0  0  0  0
  -28.4989   -8.1310   -5.0661 C   0  0  0  0  0  0  0  0  0  0  0  0
  -29.1545   -8.0578   -3.8394 C   0  0  0  0  0  0  0  0  0  0  0  0
  -29.7233   -6.8773   -3.4242 C   0  0  0  0  0  0  0  0  0  0  0  0
  -29.5362   -5.7083   -4.1150 C   0  0  0  0  0  0  0  0  0  0  0  0
  -30.2942   -4.7133   -3.6520 N   0  0  0  0  0  0  0  0  0  0  0  0
  -30.0739   -3.5068   -4.1645 C   0  0  0  0  0  0  0  0  0  0  0  0
  -29.0684   -3.2524   -5.0711 C   0  0  0  0  0  0  0  0  0  0  0  0
  -28.3500   -4.3017   -5.6301 N   0  0  0  0  0  0  0  0  0  0  0  0
  -28.6168   -5.5987   -5.1853 C   0  0  0  0  0  0  0  0  0  0  0  0
  -28.1445   -6.8941   -5.6836 C   0  0  0  0  0  0  0  0  0  0  0  0
  -28.7949   -1.8265   -5.2939 C   0  0  0  0  0  0  0  0  0  0  0  0
  -27.8607   -0.9694   -4.6470 C   0  0  0  0  0  0  0  0  0  0  0  0
  -28.1108    0.3350   -4.8420 N   0  0  0  0  0  0  0  0  0  0  0  0
  -29.2310    0.3272   -5.5851 N   0  0  0  0  0  0  0  0  0  0  0  0
  -29.7250    1.5442   -6.1856 C   0  0  0  0  0  0  0  0  0  0  0  0
  -29.7556   -0.9281   -5.7392 C   0  0  0  0  0  0  0  0  0  0  0  0
  -31.1402  -10.0541   -8.3021 C   0  0  0  0  0  0  0  0  0  0  0  0
  -30.3804  -10.5966   -9.3222 C   0  0  0  0  0  0  0  0  0  0  0  0
  -29.0424  -10.9279   -9.0795 C   0  0  0  0  0  0  0  0  0  0  0  0
  -28.4323  -10.6059   -7.8505 C   0  0  0  0  0  0  0  0  0  0  0  0
  -29.1481   -9.9743   -6.8324 C   0  0  0  0  0  0  0  0  0  0  0  0
  -30.5454   -9.8380   -7.0559 C   0  0  0  0  0  0  0  0  0  0  0  0
  -32.9499   -8.8434   -7.3619 C   0  0  0  0  0  0  0  0  0  0  0  0
  -32.4536   -9.6767   -8.4053 O   0  0  0  0  0  0  0  0  0  0  0  0
  -28.2176  -11.5147  -10.0055 O   0  0  0  0  0  0  0  0  0  0  0  0
  -27.0334  -10.7940  -10.3312 C   0  0  0  0  0  0  0  0  0  0  0  0
  -27.9079  -10.4382   -4.7212 C   0  0  0  0  0  0  0  0  0  0  0  0
  -26.4107  -10.2983   -4.5138 C   0  0  0  0  0  0  0  0  0  0  0  0
  -25.8227  -10.4328   -3.2496 C   0  0  0  0  0  0  0  0  0  0  0  0
  -24.4389  -10.4803   -3.1376 C   0  0  0  0  0  0  0  0  0  0  0  0
  -23.6612  -10.3215   -4.2716 C   0  0  0  0  0  0  0  0  0  0  0  0
  -24.3085  -10.1030   -5.4710 C   0  0  0  0  0  0  0  0  0  0  0  0
  -25.6491  -10.1102   -5.6353 N   0  0  0  0  0  0  0  0  0  0  0  0
  -23.4836   -9.8978   -6.5665 O   0  0  0  0  0  0  0  0  0  0  0  0
  -22.2546  -10.6087   -6.4857 C   0  0  0  0  0  0  0  0  0  0  0  0
 24 25  1  0  0  0
 25 18  1  0  0  0
 18 19  1  0  0  0
 18 23  2  0  0  0
 19 20  2  0  0  0
 20 26  1  0  0  0
 20 21  1  0  0  0
 26 27  1  0  0  0
 21 22  2  0  0  0
 22  1  1  0  0  0
 22 23  1  0  0  0
  1 28  1  0  0  0
  1  2  1  0  0  0
 28 29  1  0  0  0
 29 30  1  0  0  0
 29 34  2  0  0  0
 30 31  2  0  0  0
 31 32  1  0  0  0
 32 33  2  0  0  0
 33 35  1  0  0  0
 33 34  1  0  0  0
 35 36  1  0  0  0
  2  3  1  0  0  0
  2 11  2  0  0  0
  3  4  2  0  0  0
  4  5  1  0  0  0
  5  6  1  0  0  0
  5 10  2  0  0  0
  6  7  2  0  0  0
  7  8  1  0  0  0
  8 12  1  0  0  0
  8  9  2  0  0  0
 12 13  1  0  0  0
 12 17  2  0  0  0
 13 14  2  0  0  0
 14 15  1  0  0  0
 15 16  1  0  0  0
 15 17  1  0  0  0
  9 10  1  0  0  0
 10 11  1  0  0  0
M  END
> <minimizedAffinity>
-8.31420

$$$$
