CHEMBL4638978


 44 47  0  0  0  0  0  0  0  0999 V2000
  -29.8284   -3.8302   -5.2871 N   0  0  0  0  0  0  0  0  0  0  0  0
  -30.7621   -3.4898   -5.1089 H   0  0  0  0  0  0  0  0  0  0  0  0
  -28.5296   -6.9526   -4.1730 C   0  0  0  0  0  0  0  0  0  0  0  0
  -29.4823   -7.3443   -3.3301 N   0  0  0  0  0  0  0  0  0  0  0  0
  -30.4894   -6.4994   -3.1563 C   0  0  0  0  0  0  0  0  0  0  0  0
  -30.6252   -5.3227   -3.7414 N   0  0  0  0  0  0  0  0  0  0  0  0
  -29.6316   -5.0060   -4.5624 C   0  0  0  0  0  0  0  0  0  0  0  0
  -28.5591   -5.7735   -4.7699 N   0  0  0  0  0  0  0  0  0  0  0  0
  -27.4727   -7.8185   -4.5411 N   0  0  0  0  0  0  0  0  0  0  0  0
  -27.0181   -7.4146   -5.3691 H   0  0  0  0  0  0  0  0  0  0  0  0
  -28.3262  -10.0032   -5.3986 C   0  0  0  0  0  0  0  0  0  0  0  0
  -28.5181  -11.3846   -5.1821 C   0  0  0  0  0  0  0  0  0  0  0  0
  -27.8490  -12.0404   -4.1568 C   0  0  0  0  0  0  0  0  0  0  0  0
  -26.9558  -11.3306   -3.3735 C   0  0  0  0  0  0  0  0  0  0  0  0
  -26.7909   -9.9591   -3.5733 C   0  0  0  0  0  0  0  0  0  0  0  0
  -27.5336   -9.2352   -4.5262 C   0  0  0  0  0  0  0  0  0  0  0  0
  -29.1801   -9.3370   -6.8082 S   0  0  0  0  0  0  0  0  0  0  0  0
  -29.7774  -10.4256   -7.5498 O   0  0  0  0  0  0  0  0  0  0  0  0
  -28.2773   -8.3937   -7.4288 O   0  0  0  0  0  0  0  0  0  0  0  0
  -30.4253   -8.4203   -6.0749 N   0  0  0  0  0  0  0  0  0  0  0  0
  -30.9561   -8.9945   -5.4187 H   0  0  0  0  0  0  0  0  0  0  0  0
  -32.6224   -8.3424   -7.1613 C   0  0  0  0  0  0  0  0  0  0  0  0
  -31.2861   -7.6358   -6.9793 C   0  0  0  0  0  0  0  0  0  0  0  0
  -29.2156   -3.3955   -6.4670 C   0  0  0  0  0  0  0  0  0  0  0  0
  -29.3078   -4.0890   -7.6646 C   0  0  0  0  0  0  0  0  0  0  0  0
  -28.6772   -3.6245   -8.8190 C   0  0  0  0  0  0  0  0  0  0  0  0
  -27.9258   -2.4355   -8.8566 C   0  0  0  0  0  0  0  0  0  0  0  0
  -27.9137   -1.6813   -7.6564 C   0  0  0  0  0  0  0  0  0  0  0  0
  -28.5004   -2.1956   -6.4785 C   0  0  0  0  0  0  0  0  0  0  0  0
  -27.2912   -2.0601  -10.0458 N   0  0  0  0  0  0  0  0  0  0  0  0
  -28.0842   -1.3629  -11.0844 C   0  0  0  0  0  0  0  0  0  0  0  0
  -27.4080   -1.6158  -12.4611 C   0  0  0  0  0  0  0  0  0  0  0  0
  -26.0255   -1.0831  -12.4892 N   0  0  0  0  0  0  0  0  0  0  0  0
  -25.3876   -1.3248  -13.7793 C   0  0  0  0  0  0  0  0  0  0  0  0
  -25.2451   -1.7218  -11.4053 C   0  0  0  0  0  0  0  0  0  0  0  0
  -25.8991   -1.5552  -10.0165 C   0  0  0  0  0  0  0  0  0  0  0  0
  -27.4116   -0.4164   -7.4362 O   0  0  0  0  0  0  0  0  0  0  0  0
  -27.7918    0.2465   -6.2383 C   0  0  0  0  0  0  0  0  0  0  0  0
  -28.8849    1.2791   -6.4350 C   0  0  0  0  0  0  0  0  0  0  0  0
  -29.9171    0.9054   -5.5173 O   0  0  0  0  0  0  0  0  0  0  0  0
  -31.1174    1.6430   -5.7044 C   0  0  0  0  0  0  0  0  0  0  0  0
  -31.1611    2.1278   -7.1494 C   0  0  0  0  0  0  0  0  0  0  0  0
  -32.5110    2.0671   -7.6114 O   0  0  0  0  0  0  0  0  0  0  0  0
  -32.6842    2.8031   -8.8105 C   0  0  0  0  0  0  0  0  0  0  0  0
 22 23  1  0  0  0
 23 20  1  0  0  0
 20 17  1  0  0  0
 20 21  1  0  0  0
 17 18  2  0  0  0
 17 19  2  0  0  0
 17 11  1  0  0  0
 11 12  1  0  0  0
 11 16  2  0  0  0
 12 13  2  0  0  0
 13 14  1  0  0  0
 14 15  2  0  0  0
 15 16  1  0  0  0
 16  9  1  0  0  0
  9  3  1  0  0  0
  9 10  1  0  0  0
  3  4  1  0  0  0
  3  8  2  0  0  0
  4  5  2  0  0  0
  5  6  1  0  0  0
  6  7  2  0  0  0
  7  1  1  0  0  0
  7  8  1  0  0  0
  1 24  1  0  0  0
  1  2  1  0  0  0
 24 25  1  0  0  0
 24 29  2  0  0  0
 25 26  2  0  0  0
 26 27  1  0  0  0
 27 30  1  0  0  0
 27 28  2  0  0  0
 30 31  1  0  0  0
 30 36  1  0  0  0
 31 32  1  0  0  0
 32 33  1  0  0  0
 33 34  1  0  0  0
 33 35  1  0  0  0
 35 36  1  0  0  0
 28 37  1  0  0  0
 28 29  1  0  0  0
 37 38  1  0  0  0
 38 39  1  0  0  0
 39 40  1  0  0  0
 40 41  1  0  0  0
 41 42  1  0  0  0
 42 43  1  0  0  0
 43 44  1  0  0  0
M  END
> <minimizedAffinity>
-7.36328

$$$$
