CHEMBL213138


 39 44  0  0  0  0  0  0  0  0999 V2000
  -28.1324   -2.8472   -5.4072 C   0  0  0  0  0  0  0  0  0  0  0  0
  -27.1633   -3.3784   -4.6492 N   0  0  0  0  0  0  0  0  0  0  0  0
  -27.8353   -4.1641   -3.7335 N   0  0  0  0  0  0  0  0  0  0  0  0
  -29.2034   -4.0233   -3.7793 C   0  0  0  0  0  0  0  0  0  0  0  0
  -29.3851   -3.0530   -4.7685 C   0  0  0  0  0  0  0  0  0  0  0  0
  -30.7512   -3.1448   -5.3178 C   0  0  0  0  0  0  0  0  0  0  0  0
  -30.6815   -4.6801   -5.3083 C   0  0  0  0  0  0  0  0  0  0  0  0
  -30.1155   -5.5099   -6.3008 C   0  0  0  0  0  0  0  0  0  0  0  0
  -29.7295   -6.8168   -5.9455 C   0  0  0  0  0  0  0  0  0  0  0  0
  -30.1515   -7.2950   -4.7038 C   0  0  0  0  0  0  0  0  0  0  0  0
  -30.3406   -6.3789   -3.6780 C   0  0  0  0  0  0  0  0  0  0  0  0
  -30.3061   -5.0404   -3.9986 C   0  0  0  0  0  0  0  0  0  0  0  0
  -27.2958   -4.8202   -3.1746 H   0  0  0  0  0  0  0  0  0  0  0  0
  -27.5574   -1.8898   -9.2548 C   0  0  0  0  0  0  0  0  0  0  0  0
  -27.5653   -0.7341   -8.5109 C   0  0  0  0  0  0  0  0  0  0  0  0
  -27.9342   -0.9973   -7.1795 C   0  0  0  0  0  0  0  0  0  0  0  0
  -27.9881   -2.3432   -6.8445 C   0  0  0  0  0  0  0  0  0  0  0  0
  -27.9557   -3.2649   -8.2880 S   0  0  0  0  0  0  0  0  0  0  0  0
  -27.2475   -1.9686  -10.7106 C   0  0  0  0  0  0  0  0  0  0  0  0
  -25.3123   -1.7147  -12.1876 C   0  0  0  0  0  0  0  0  0  0  0  0
  -26.0049   -1.7829  -13.1703 O   0  0  0  0  0  0  0  0  0  0  0  0
  -25.8505   -1.7548  -10.8962 N   0  0  0  0  0  0  0  0  0  0  0  0
  -25.2642   -1.5719  -10.0956 H   0  0  0  0  0  0  0  0  0  0  0  0
  -23.8108   -1.6408  -12.2062 C   0  0  0  0  0  0  0  0  0  0  0  0
  -20.3490    0.5138  -15.1912 C   0  0  0  0  0  0  0  0  0  0  0  0
  -21.5761    0.6334  -14.3328 C   0  0  0  0  0  0  0  0  0  0  0  0
  -22.1629    1.8812  -14.0925 C   0  0  0  0  0  0  0  0  0  0  0  0
  -23.2841    1.9750  -13.2737 C   0  0  0  0  0  0  0  0  0  0  0  0
  -23.8298    0.8386  -12.6870 C   0  0  0  0  0  0  0  0  0  0  0  0
  -23.2571   -0.4202  -12.9156 C   0  0  0  0  0  0  0  0  0  0  0  0
  -22.1302   -0.5112  -13.7455 C   0  0  0  0  0  0  0  0  0  0  0  0
  -28.6131   -7.5801   -6.6486 C   0  0  0  0  0  0  0  0  0  0  0  0
  -29.0228   -8.8907   -7.1577 N   0  0  0  0  0  0  0  0  0  0  0  0
  -30.0860   -8.7390   -8.1618 C   0  0  0  0  0  0  0  0  0  0  0  0
  -30.5160  -10.1011   -8.7417 C   0  0  0  0  0  0  0  0  0  0  0  0
  -29.4215  -10.8896   -9.3421 N   0  0  0  0  0  0  0  0  0  0  0  0
  -28.9841  -10.3207  -10.6147 C   0  0  0  0  0  0  0  0  0  0  0  0
  -28.3081  -10.9798   -8.3753 C   0  0  0  0  0  0  0  0  0  0  0  0
  -27.8816   -9.6322   -7.7364 C   0  0  0  0  0  0  0  0  0  0  0  0
 25 26  1  0  0  0
 26 27  1  0  0  0
 26 31  2  0  0  0
 27 28  2  0  0  0
 28 29  1  0  0  0
 29 30  2  0  0  0
 30 24  1  0  0  0
 30 31  1  0  0  0
 24 20  1  0  0  0
 20 21  2  0  0  0
 20 22  1  0  0  0
 22 19  1  0  0  0
 22 23  1  0  0  0
 19 14  1  0  0  0
 14 15  2  0  0  0
 14 18  1  0  0  0
 15 16  1  0  0  0
 16 17  2  0  0  0
 17  1  1  0  0  0
 17 18  1  0  0  0
  1  2  2  0  0  0
  1  5  1  0  0  0
  2  3  1  0  0  0
  3  4  1  0  0  0
  3 13  1  0  0  0
  4  5  2  0  0  0
  4 12  1  0  0  0
  5  6  1  0  0  0
  6  7  1  0  0  0
  7  8  1  0  0  0
  7 12  2  0  0  0
  8  9  2  0  0  0
  9 32  1  0  0  0
  9 10  1  0  0  0
 32 33  1  0  0  0
 33 34  1  0  0  0
 33 39  1  0  0  0
 34 35  1  0  0  0
 35 36  1  0  0  0
 36 37  1  0  0  0
 36 38  1  0  0  0
 38 39  1  0  0  0
 10 11  2  0  0  0
 11 12  1  0  0  0
M  END
> <minimizedAffinity>
-10.81498

$$$$
