CHEMBL3938610


 36 39  0  0  0  0  0  0  0  0999 V2000
  -15.2952    1.9485  -15.8081 N   0  0  0  0  0  0  0  0  0  0  0  0
  -16.7022    2.0228  -15.5890 C   0  0  0  0  0  0  0  0  0  0  0  0
  -17.3355    0.8245  -15.2631 C   0  0  0  0  0  0  0  0  0  0  0  0
  -18.5739    0.8008  -14.8971 C   0  0  0  0  0  0  0  0  0  0  0  0
  -19.2888    1.9817  -14.9148 C   0  0  0  0  0  0  0  0  0  0  0  0
  -20.4526    1.5634  -15.1277 N   0  0  0  0  0  0  0  0  0  0  0  0
  -21.1766    0.9159  -14.2968 C   0  0  0  0  0  0  0  0  0  0  0  0
  -21.9083    1.8332  -14.0375 C   0  0  0  0  0  0  0  0  0  0  0  0
  -20.9604    3.3050  -14.3828 N   0  0  0  0  0  0  0  0  0  0  0  0
  -19.2765    3.2840  -14.9437 C   0  0  0  0  0  0  0  0  0  0  0  0
  -17.5990    3.2338  -15.4885 C   0  0  0  0  0  0  0  0  0  0  0  0
  -23.3666    0.6739  -13.7240 C   0  0  0  0  0  0  0  0  0  0  0  0
  -24.1434   -0.7634  -14.2069 C   0  0  0  0  0  0  0  0  0  0  0  0
  -25.0319   -1.4698  -13.4008 N   0  0  0  0  0  0  0  0  0  0  0  0
  -24.9643   -0.8897  -12.2001 N   0  0  0  0  0  0  0  0  0  0  0  0
  -25.7510   -1.4360  -11.0188 C   0  0  0  0  0  0  0  0  0  0  0  0
  -23.9500    0.2495  -12.3153 C   0  0  0  0  0  0  0  0  0  0  0  0
  -14.7638    1.9039  -17.1007 C   0  0  0  0  0  0  0  0  0  0  0  0
  -14.4177    3.0936  -17.7369 C   0  0  0  0  0  0  0  0  0  0  0  0
  -13.9098    3.1631  -19.0108 C   0  0  0  0  0  0  0  0  0  0  0  0
  -13.5690    1.9766  -19.6160 C   0  0  0  0  0  0  0  0  0  0  0  0
  -13.7209    0.7672  -18.9414 C   0  0  0  0  0  0  0  0  0  0  0  0
  -14.4625    0.7186  -17.7573 C   0  0  0  0  0  0  0  0  0  0  0  0
  -13.6553    4.3353  -19.6625 O   0  0  0  0  0  0  0  0  0  0  0  0
  -14.4284    5.4690  -19.2503 C   0  0  0  0  0  0  0  0  0  0  0  0
  -13.1065   -0.3868  -19.3579 O   0  0  0  0  0  0  0  0  0  0  0  0
  -12.5133   -1.1920  -18.3284 C   0  0  0  0  0  0  0  0  0  0  0  0
  -14.3533    1.9490  -14.6055 C   0  0  0  0  0  0  0  0  0  0  0  0
  -14.2711   -0.5687  -14.1810 N   0  0  0  0  0  0  0  0  0  0  0  0
  -14.4589    0.6833  -13.6966 C   0  0  0  0  0  0  0  0  0  0  0  0
  -14.7493    0.6864  -12.5029 O   0  0  0  0  0  0  0  0  0  0  0  0
  -14.1330   -0.7292  -15.1615 H   0  0  0  0  0  0  0  0  0  0  0  0
  -14.4301   -1.7067  -13.2669 C   0  0  0  0  0  0  0  0  0  0  0  0
  -15.8051   -2.3170  -13.3846 C   0  0  0  0  0  0  0  0  0  0  0  0
  -15.7704   -2.5945  -11.0798 C   0  0  0  0  0  0  0  0  0  0  0  0
  -16.0448   -3.2307  -12.3210 O   0  0  0  0  0  0  0  0  0  0  0  0
 35 36  1  0  0  0
 36 34  1  0  0  0
 34 33  1  0  0  0
 33 29  1  0  0  0
 29 30  1  0  0  0
 29 32  1  0  0  0
 30 31  2  0  0  0
 30 28  1  0  0  0
 28  1  1  0  0  0
  1 18  1  0  0  0
  1  2  1  0  0  0
 18 19  1  0  0  0
 18 23  2  0  0  0
 19 20  2  0  0  0
 20 24  1  0  0  0
 20 21  1  0  0  0
 24 25  1  0  0  0
 21 22  2  0  0  0
 22 26  1  0  0  0
 22 23  1  0  0  0
 26 27  1  0  0  0
  2  3  1  0  0  0
  2 11  2  0  0  0
  3  4  2  0  0  0
  4  5  1  0  0  0
  5  6  1  0  0  0
  5 10  2  0  0  0
  6  7  2  0  0  0
  7  8  1  0  0  0
  8 12  1  0  0  0
  8  9  2  0  0  0
 12 13  1  0  0  0
 12 17  2  0  0  0
 13 14  2  0  0  0
 14 15  1  0  0  0
 15 16  1  0  0  0
 15 17  1  0  0  0
  9 10  1  0  0  0
 10 11  1  0  0  0
M  END
> <minimizedAffinity>
-9.18136

$$$$
