CHEMBL248392


 35 39  0  0  0  0  0  0  0  0999 V2000
  -15.2474   -2.1699  -13.3094 C   0  0  0  0  0  0  0  0  0  0  0  0
  -15.6986   -0.8843  -13.6443 C   0  0  0  0  0  0  0  0  0  0  0  0
  -15.0011   -0.0219  -14.5367 C   0  0  0  0  0  0  0  0  0  0  0  0
  -15.4511    1.2880  -14.9465 C   0  0  0  0  0  0  0  0  0  0  0  0
  -14.6919    1.9684  -15.9080 C   0  0  0  0  0  0  0  0  0  0  0  0
  -13.4939    1.4104  -16.3232 C   0  0  0  0  0  0  0  0  0  0  0  0
  -13.0251    0.2151  -15.9108 N   0  0  0  0  0  0  0  0  0  0  0  0
  -13.7806   -0.5006  -15.0657 C   0  0  0  0  0  0  0  0  0  0  0  0
  -13.3389   -1.7724  -14.7265 C   0  0  0  0  0  0  0  0  0  0  0  0
  -14.0657   -2.6268  -13.8878 C   0  0  0  0  0  0  0  0  0  0  0  0
  -15.8088   -2.7307  -11.0560 C   0  0  0  0  0  0  0  0  0  0  0  0
  -15.8991   -3.0083  -12.4471 O   0  0  0  0  0  0  0  0  0  0  0  0
  -16.6989    1.8040  -14.4481 N   0  0  0  0  0  0  0  0  0  0  0  0
  -16.6075    2.7804  -14.1915 H   0  0  0  0  0  0  0  0  0  0  0  0
  -18.0065    1.5763  -15.1346 C   0  0  0  0  0  0  0  0  0  0  0  0
  -18.7290    2.7020  -15.8096 C   0  0  0  0  0  0  0  0  0  0  0  0
  -19.2343    2.1854  -14.4847 C   0  0  0  0  0  0  0  0  0  0  0  0
  -20.6713    1.7241  -14.4267 C   0  0  0  0  0  0  0  0  0  0  0  0
  -21.1100    0.3954  -14.5098 C   0  0  0  0  0  0  0  0  0  0  0  0
  -22.4303    0.0510  -14.1697 C   0  0  0  0  0  0  0  0  0  0  0  0
  -23.3345    1.0266  -13.7482 C   0  0  0  0  0  0  0  0  0  0  0  0
  -22.9408    2.3565  -13.7197 C   0  0  0  0  0  0  0  0  0  0  0  0
  -21.6344    2.6930  -14.0708 C   0  0  0  0  0  0  0  0  0  0  0  0
  -15.1185    3.1551  -16.5708 C   0  0  0  0  0  0  0  0  0  0  0  0
  -15.4835    4.1212  -17.0959 N   0  0  0  0  0  0  0  0  0  0  0  0
  -13.4684   -3.8339  -13.6549 O   0  0  0  0  0  0  0  0  0  0  0  0
  -12.3068   -3.8673  -12.8057 C   0  0  0  0  0  0  0  0  0  0  0  0
  -12.7324   -4.6539  -11.5690 C   0  0  0  0  0  0  0  0  0  0  0  0
  -12.3159   -6.1348  -11.5248 C   0  0  0  0  0  0  0  0  0  0  0  0
  -13.5095   -6.9677  -11.3272 N   0  0  0  0  0  0  0  0  0  0  0  0
  -13.3950   -8.3595  -11.7976 C   0  0  0  0  0  0  0  0  0  0  0  0
  -13.8293   -8.5706  -13.2494 C   0  0  0  0  0  0  0  0  0  0  0  0
  -15.1928   -8.1787  -13.4112 O   0  0  0  0  0  0  0  0  0  0  0  0
  -15.3278   -6.7799  -13.1430 C   0  0  0  0  0  0  0  0  0  0  0  0
  -14.7894   -6.3747  -11.7538 C   0  0  0  0  0  0  0  0  0  0  0  0
 11 12  1  0  0  0
 12  1  1  0  0  0
  1  2  1  0  0  0
  1 10  2  0  0  0
  2  3  2  0  0  0
  3  4  1  0  0  0
  3  8  1  0  0  0
  4 13  1  0  0  0
  4  5  2  0  0  0
 13 15  1  0  0  0
 13 14  1  0  0  0
 15 16  1  0  0  0
 15 17  1  0  0  0
 16 17  1  0  0  0
 17 18  1  0  0  0
 18 19  1  0  0  0
 18 23  2  0  0  0
 19 20  2  0  0  0
 20 21  1  0  0  0
 21 22  2  0  0  0
 22 23  1  0  0  0
  5 24  1  0  0  0
  5  6  1  0  0  0
 24 25  3  0  0  0
  6  7  2  0  0  0
  7  8  1  0  0  0
  8  9  2  0  0  0
  9 10  1  0  0  0
 10 26  1  0  0  0
 26 27  1  0  0  0
 27 28  1  0  0  0
 28 29  1  0  0  0
 29 30  1  0  0  0
 30 31  1  0  0  0
 30 35  1  0  0  0
 31 32  1  0  0  0
 32 33  1  0  0  0
 33 34  1  0  0  0
 34 35  1  0  0  0
M  END
> <minimizedAffinity>
-7.88572

$$$$
