CHEMBL2018886


 38 42  0  0  0  0  0  0  0  0999 V2000
  -30.7285   11.7358  -14.6605 C   0  0  0  0  0  0  0  0  0  0  0  0
  -29.7429   11.9096  -13.7077 C   0  0  0  0  0  0  0  0  0  0  0  0
  -28.4739   11.3766  -13.9226 C   0  0  0  0  0  0  0  0  0  0  0  0
  -28.1526   10.6388  -15.0704 C   0  0  0  0  0  0  0  0  0  0  0  0
  -29.1816   10.3874  -16.0077 C   0  0  0  0  0  0  0  0  0  0  0  0
  -28.9983    9.5620  -17.2542 C   0  0  0  0  0  0  0  0  0  0  0  0
  -30.4699   10.9346  -15.7797 C   0  0  0  0  0  0  0  0  0  0  0  0
  -26.8229   10.1697  -15.2748 N   0  0  0  0  0  0  0  0  0  0  0  0
  -25.8646   10.8127  -16.0571 C   0  0  0  0  0  0  0  0  0  0  0  0
  -26.0325   11.8631  -16.6681 O   0  0  0  0  0  0  0  0  0  0  0  0
  -24.6738   10.0979  -16.1374 N   0  0  0  0  0  0  0  0  0  0  0  0
  -26.5810    9.2667  -14.8983 H   0  0  0  0  0  0  0  0  0  0  0  0
  -24.7891    9.0958  -16.1291 H   0  0  0  0  0  0  0  0  0  0  0  0
  -23.6016   10.5910  -16.9303 C   0  0  0  0  0  0  0  0  0  0  0  0
  -22.3211   10.6024  -16.3825 C   0  0  0  0  0  0  0  0  0  0  0  0
  -21.2282   10.9813  -17.1668 C   0  0  0  0  0  0  0  0  0  0  0  0
  -21.4008   11.4156  -18.4899 C   0  0  0  0  0  0  0  0  0  0  0  0
  -20.3065   11.8032  -19.2834 C   0  0  0  0  0  0  0  0  0  0  0  0
  -20.4938   12.2618  -20.5873 C   0  0  0  0  0  0  0  0  0  0  0  0
  -21.7775   12.3318  -21.1186 C   0  0  0  0  0  0  0  0  0  0  0  0
  -22.8734   11.9286  -20.3515 C   0  0  0  0  0  0  0  0  0  0  0  0
  -22.7031   11.4622  -19.0346 C   0  0  0  0  0  0  0  0  0  0  0  0
  -23.7904   11.0324  -18.2490 C   0  0  0  0  0  0  0  0  0  0  0  0
  -31.9781   12.3054  -14.5237 O   0  0  0  0  0  0  0  0  0  0  0  0
  -32.5283   10.9613   -9.6855 C   0  0  0  0  0  0  0  0  0  0  0  0
  -33.6082   10.4578  -10.4318 C   0  0  0  0  0  0  0  0  0  0  0  0
  -33.7420   10.6862  -11.7916 C   0  0  0  0  0  0  0  0  0  0  0  0
  -34.7261   10.0634  -12.4454 N   0  0  0  0  0  0  0  0  0  0  0  0
  -34.7530   10.2004  -13.7742 C   0  0  0  0  0  0  0  0  0  0  0  0
  -33.8821   10.9049  -14.5031 N   0  0  0  0  0  0  0  0  0  0  0  0
  -32.9395   11.5793  -13.8107 C   0  0  0  0  0  0  0  0  0  0  0  0
  -32.8129   11.5116  -12.4201 C   0  0  0  0  0  0  0  0  0  0  0  0
  -31.8283   12.1686  -11.6492 C   0  0  0  0  0  0  0  0  0  0  0  0
  -31.6677   11.8886  -10.2843 C   0  0  0  0  0  0  0  0  0  0  0  0
  -31.3288   11.2935   -7.6717 C   0  0  0  0  0  0  0  0  0  0  0  0
  -32.3219   10.5515   -8.3925 O   0  0  0  0  0  0  0  0  0  0  0  0
  -30.6207   12.5819   -9.7463 O   0  0  0  0  0  0  0  0  0  0  0  0
  -29.2951   12.2756  -10.1455 C   0  0  0  0  0  0  0  0  0  0  0  0
 35 36  1  0  0  0
 36 25  1  0  0  0
 25 26  1  0  0  0
 25 34  2  0  0  0
 26 27  2  0  0  0
 27 28  1  0  0  0
 27 32  1  0  0  0
 28 29  2  0  0  0
 29 30  1  0  0  0
 30 31  2  0  0  0
 31 24  1  0  0  0
 31 32  1  0  0  0
 24  1  1  0  0  0
  1  2  1  0  0  0
  1  7  2  0  0  0
  2  3  2  0  0  0
  3  4  1  0  0  0
  4  8  1  0  0  0
  4  5  2  0  0  0
  8  9  1  0  0  0
  8 12  1  0  0  0
  9 10  2  0  0  0
  9 11  1  0  0  0
 11 14  1  0  0  0
 11 13  1  0  0  0
 14 15  1  0  0  0
 14 23  2  0  0  0
 15 16  2  0  0  0
 16 17  1  0  0  0
 17 18  1  0  0  0
 17 22  2  0  0  0
 18 19  2  0  0  0
 19 20  1  0  0  0
 20 21  2  0  0  0
 21 22  1  0  0  0
 22 23  1  0  0  0
  5  6  1  0  0  0
  5  7  1  0  0  0
 32 33  2  0  0  0
 33 34  1  0  0  0
 34 37  1  0  0  0
 37 38  1  0  0  0
M  END
> <minimizedAffinity>
-3.97502

$$$$
