CHEMBL1289977


 23 26  0  0  0  0  0  0  0  0999 V2000
  -16.9367    1.1793  -14.8788 C   0  0  0  0  0  0  0  0  0  0  0  0
  -15.7356    1.8477  -15.1750 C   0  0  0  0  0  0  0  0  0  0  0  0
  -15.7517    3.0618  -15.8525 C   0  0  0  0  0  0  0  0  0  0  0  0
  -16.8601    3.7726  -16.1475 N   0  0  0  0  0  0  0  0  0  0  0  0
  -17.9873    3.1264  -15.7861 C   0  0  0  0  0  0  0  0  0  0  0  0
  -19.1515    3.7750  -15.5010 O   0  0  0  0  0  0  0  0  0  0  0  0
  -19.9913    2.8259  -15.0078 C   0  0  0  0  0  0  0  0  0  0  0  0
  -21.1163    3.0247  -14.2070 C   0  0  0  0  0  0  0  0  0  0  0  0
  -21.8299    1.8783  -13.8546 C   0  0  0  0  0  0  0  0  0  0  0  0
  -21.5320    0.6405  -14.4233 C   0  0  0  0  0  0  0  0  0  0  0  0
  -20.3773    0.4606  -15.1938 C   0  0  0  0  0  0  0  0  0  0  0  0
  -19.5145    1.5672  -15.3326 C   0  0  0  0  0  0  0  0  0  0  0  0
  -18.1064    1.7992  -15.3743 C   0  0  0  0  0  0  0  0  0  0  0  0
  -16.8882    0.1816  -13.8678 N   0  0  0  0  0  0  0  0  0  0  0  0
  -17.7500    0.0395  -13.3552 H   0  0  0  0  0  0  0  0  0  0  0  0
  -15.6511   -0.0255  -13.1206 C   0  0  0  0  0  0  0  0  0  0  0  0
  -14.9146   -1.3209  -13.4278 C   0  0  0  0  0  0  0  0  0  0  0  0
  -16.6648   -4.9041  -11.7673 C   0  0  0  0  0  0  0  0  0  0  0  0
  -16.5438   -4.7777  -13.1479 C   0  0  0  0  0  0  0  0  0  0  0  0
  -15.9837   -3.6231  -13.6934 C   0  0  0  0  0  0  0  0  0  0  0  0
  -15.5510   -2.5708  -12.8617 C   0  0  0  0  0  0  0  0  0  0  0  0
  -15.6670   -2.7243  -11.4766 C   0  0  0  0  0  0  0  0  0  0  0  0
  -16.2215   -3.8811  -10.9332 C   0  0  0  0  0  0  0  0  0  0  0  0
 18 19  1  0  0  0
 18 23  2  0  0  0
 19 20  2  0  0  0
 20 21  1  0  0  0
 21 17  1  0  0  0
 21 22  2  0  0  0
 17 16  1  0  0  0
 16 14  1  0  0  0
 14  1  1  0  0  0
 14 15  1  0  0  0
  1  2  1  0  0  0
  1 13  2  0  0  0
  2  3  2  0  0  0
  3  4  1  0  0  0
  4  5  2  0  0  0
  5  6  1  0  0  0
  5 13  1  0  0  0
  6  7  1  0  0  0
  7  8  1  0  0  0
  7 12  2  0  0  0
  8  9  2  0  0  0
  9 10  1  0  0  0
 10 11  2  0  0  0
 11 12  1  0  0  0
 12 13  1  0  0  0
 22 23  1  0  0  0
M  END
> <minimizedAffinity>
-9.20371

$$$$
