CHEMBL3323594


 29 33  0  0  0  0  0  0  0  0999 V2000
  -23.4861    0.2822  -13.3351 C   0  0  0  0  0  0  0  0  0  0  0  0
  -24.5027   -0.1737  -14.0389 N   0  0  0  0  0  0  0  0  0  0  0  0
  -25.2763   -0.8809  -13.1635 C   0  0  0  0  0  0  0  0  0  0  0  0
  -26.4562   -1.5830  -13.4019 C   0  0  0  0  0  0  0  0  0  0  0  0
  -27.0665   -2.2258  -12.3239 C   0  0  0  0  0  0  0  0  0  0  0  0
  -26.5314   -2.1835  -11.0215 C   0  0  0  0  0  0  0  0  0  0  0  0
  -25.3338   -1.4891  -10.7873 C   0  0  0  0  0  0  0  0  0  0  0  0
  -24.7444   -0.8466  -11.8809 C   0  0  0  0  0  0  0  0  0  0  0  0
  -23.6070   -0.0994  -12.0182 N   0  0  0  0  0  0  0  0  0  0  0  0
  -22.9673    0.1574  -11.2799 H   0  0  0  0  0  0  0  0  0  0  0  0
  -18.9225    0.5201  -15.2993 C   0  0  0  0  0  0  0  0  0  0  0  0
  -20.1511    1.2193  -14.7993 C   0  0  0  0  0  0  0  0  0  0  0  0
  -20.2486    2.6126  -14.8067 C   0  0  0  0  0  0  0  0  0  0  0  0
  -21.3985    3.2468  -14.3358 C   0  0  0  0  0  0  0  0  0  0  0  0
  -22.4707    2.4908  -13.8638 C   0  0  0  0  0  0  0  0  0  0  0  0
  -22.3927    1.0956  -13.8496 C   0  0  0  0  0  0  0  0  0  0  0  0
  -21.2273    0.4665  -14.3099 C   0  0  0  0  0  0  0  0  0  0  0  0
  -27.1184   -2.9226   -9.9598 N   0  0  0  0  0  0  0  0  0  0  0  0
  -26.7126   -3.8444   -9.8390 H   0  0  0  0  0  0  0  0  0  0  0  0
  -27.5831   -2.3600   -8.7398 C   0  0  0  0  0  0  0  0  0  0  0  0
  -27.3845   -1.0011   -8.4976 C   0  0  0  0  0  0  0  0  0  0  0  0
  -27.9718   -0.4292   -7.4018 C   0  0  0  0  0  0  0  0  0  0  0  0
  -28.7217   -1.1105   -6.5072 N   0  0  0  0  0  0  0  0  0  0  0  0
  -28.8735   -2.4323   -6.6916 C   0  0  0  0  0  0  0  0  0  0  0  0
  -29.6722   -3.1364   -5.7958 C   0  0  0  0  0  0  0  0  0  0  0  0
  -29.9129   -4.5076   -5.9392 C   0  0  0  0  0  0  0  0  0  0  0  0
  -29.3324   -5.2032   -6.9926 C   0  0  0  0  0  0  0  0  0  0  0  0
  -28.5248   -4.5186   -7.8996 C   0  0  0  0  0  0  0  0  0  0  0  0
  -28.2970   -3.1313   -7.7854 C   0  0  0  0  0  0  0  0  0  0  0  0
 11 12  1  0  0  0
 12 13  1  0  0  0
 12 17  2  0  0  0
 13 14  2  0  0  0
 14 15  1  0  0  0
 15 16  2  0  0  0
 16  1  1  0  0  0
 16 17  1  0  0  0
  1  2  2  0  0  0
  1  9  1  0  0  0
  2  3  1  0  0  0
  3  4  1  0  0  0
  3  8  2  0  0  0
  4  5  2  0  0  0
  5  6  1  0  0  0
  6 18  1  0  0  0
  6  7  2  0  0  0
 18 20  1  0  0  0
 18 19  1  0  0  0
 20 21  1  0  0  0
 20 29  2  0  0  0
 21 22  2  0  0  0
 22 23  1  0  0  0
 23 24  2  0  0  0
 24 25  1  0  0  0
 24 29  1  0  0  0
 25 26  2  0  0  0
 26 27  1  0  0  0
 27 28  2  0  0  0
 28 29  1  0  0  0
  7  8  1  0  0  0
  8  9  1  0  0  0
  9 10  1  0  0  0
M  END
> <minimizedAffinity>
-10.74076

$$$$
