CHEMBL536151


 27 28  0  0  0  0  0  0  0  0999 V2000
  -27.8918   -2.8274   -8.3525 C   0  0  0  0  0  0  0  0  0  0  0  0
  -28.5045   -4.0586   -8.1160 C   0  0  0  0  0  0  0  0  0  0  0  0
  -29.2496   -4.2907   -6.9520 C   0  0  0  0  0  0  0  0  0  0  0  0
  -29.3889   -3.2533   -6.0182 C   0  0  0  0  0  0  0  0  0  0  0  0
  -28.7642   -2.0113   -6.2260 C   0  0  0  0  0  0  0  0  0  0  0  0
  -28.0038   -1.8167   -7.3923 C   0  0  0  0  0  0  0  0  0  0  0  0
  -28.4180   -0.8747  -10.4816 O   0  0  0  0  0  0  0  0  0  0  0  0
  -27.4594   -1.6411  -10.5046 C   0  0  0  0  0  0  0  0  0  0  0  0
  -27.1459   -2.5565   -9.5166 N   0  0  0  0  0  0  0  0  0  0  0  0
  -26.2601   -3.0449   -9.6299 H   0  0  0  0  0  0  0  0  0  0  0  0
  -26.5213   -1.5551  -11.6676 C   0  0  0  0  0  0  0  0  0  0  0  0
  -25.2149   -1.1113  -11.3945 C   0  0  0  0  0  0  0  0  0  0  0  0
  -24.2796   -0.9987  -12.4181 C   0  0  0  0  0  0  0  0  0  0  0  0
  -22.6863   -0.4547  -12.0664 Cl  0  0  0  0  0  0  0  0  0  0  0  0
  -24.6258   -1.3240  -13.7275 C   0  0  0  0  0  0  0  0  0  0  0  0
  -25.9197   -1.7595  -14.0166 C   0  0  0  0  0  0  0  0  0  0  0  0
  -26.8641   -1.8692  -12.9922 C   0  0  0  0  0  0  0  0  0  0  0  0
  -28.1301   -2.2895  -13.3090 O   0  0  0  0  0  0  0  0  0  0  0  0
  -28.2410   -2.2443  -14.2769 H   0  0  0  0  0  0  0  0  0  0  0  0
  -29.8790   -5.6403   -6.7013 C   0  0  0  0  0  0  0  0  0  0  0  0
  -30.6746   -6.0795   -7.7152 F   0  0  0  0  0  0  0  0  0  0  0  0
  -28.9437   -6.6139   -6.5172 F   0  0  0  0  0  0  0  0  0  0  0  0
  -30.6544   -5.6521   -5.5830 F   0  0  0  0  0  0  0  0  0  0  0  0
  -28.9006   -0.8956   -5.2178 C   0  0  0  0  0  0  0  0  0  0  0  0
  -30.0145   -0.1326   -5.3946 F   0  0  0  0  0  0  0  0  0  0  0  0
  -28.9645   -1.3589   -3.9390 F   0  0  0  0  0  0  0  0  0  0  0  0
  -27.8477   -0.0329   -5.2506 F   0  0  0  0  0  0  0  0  0  0  0  0
  7  8  2  0  0  0
  8  9  1  0  0  0
  8 11  1  0  0  0
  9  1  1  0  0  0
  9 10  1  0  0  0
  1  2  1  0  0  0
  1  6  2  0  0  0
  2  3  2  0  0  0
  3 20  1  0  0  0
  3  4  1  0  0  0
 20 21  1  0  0  0
 20 22  1  0  0  0
 20 23  1  0  0  0
  4  5  2  0  0  0
  5 24  1  0  0  0
  5  6  1  0  0  0
 24 25  1  0  0  0
 24 26  1  0  0  0
 24 27  1  0  0  0
 11 12  1  0  0  0
 11 17  2  0  0  0
 12 13  2  0  0  0
 13 14  1  0  0  0
 13 15  1  0  0  0
 15 16  2  0  0  0
 16 17  1  0  0  0
 17 18  1  0  0  0
 18 19  1  0  0  0
M  END
> <minimizedAffinity>
-10.31141

$$$$
