CHEMBL424719


 36 39  0  0  0  0  0  0  0  0999 V2000
  -29.5922   -7.1040   -5.4260 C   0  0  0  0  0  0  0  0  0  0  0  0
  -28.7049   -7.8407   -4.5951 C   0  0  0  0  0  0  0  0  0  0  0  0
  -28.5528   -9.2308   -4.6715 C   0  0  0  0  0  0  0  0  0  0  0  0
  -29.3093   -9.9359   -5.5978 C   0  0  0  0  0  0  0  0  0  0  0  0
  -30.2202   -9.2586   -6.4083 C   0  0  0  0  0  0  0  0  0  0  0  0
  -30.3638   -7.8545   -6.3521 C   0  0  0  0  0  0  0  0  0  0  0  0
  -31.3472   -7.2404   -7.3174 C   0  0  0  0  0  0  0  0  0  0  0  0
  -28.9899   -0.6713   -5.8650 C   0  0  0  0  0  0  0  0  0  0  0  0
  -28.0114   -1.1891   -6.6157 N   0  0  0  0  0  0  0  0  0  0  0  0
  -27.9330   -2.5337   -6.6596 C   0  0  0  0  0  0  0  0  0  0  0  0
  -28.7876   -3.3833   -5.9755 C   0  0  0  0  0  0  0  0  0  0  0  0
  -28.7438   -4.7980   -6.0506 C   0  0  0  0  0  0  0  0  0  0  0  0
  -29.6187   -5.6107   -5.3028 C   0  0  0  0  0  0  0  0  0  0  0  0
  -30.4914   -4.9293   -4.4451 C   0  0  0  0  0  0  0  0  0  0  0  0
  -30.5680   -3.5271   -4.4200 C   0  0  0  0  0  0  0  0  0  0  0  0
  -29.7298   -2.7363   -5.1846 C   0  0  0  0  0  0  0  0  0  0  0  0
  -29.8404   -1.4026   -5.1324 N   0  0  0  0  0  0  0  0  0  0  0  0
  -30.4374    1.2264   -5.8078 C   0  0  0  0  0  0  0  0  0  0  0  0
  -29.0899    0.7121   -5.8825 N   0  0  0  0  0  0  0  0  0  0  0  0
  -28.4422    1.0533   -5.1817 H   0  0  0  0  0  0  0  0  0  0  0  0
  -27.6303   -9.9449   -3.8668 N   0  0  0  0  0  0  0  0  0  0  0  0
  -26.2743  -10.0570   -4.1264 C   0  0  0  0  0  0  0  0  0  0  0  0
  -25.6730   -9.4134   -4.9835 O   0  0  0  0  0  0  0  0  0  0  0  0
  -25.6727  -11.0116   -3.3247 N   0  0  0  0  0  0  0  0  0  0  0  0
  -27.9105  -10.1597   -2.9209 H   0  0  0  0  0  0  0  0  0  0  0  0
  -26.2607  -11.8088   -3.1227 H   0  0  0  0  0  0  0  0  0  0  0  0
  -24.2823  -11.2635   -3.4129 C   0  0  0  0  0  0  0  0  0  0  0  0
  -23.5424  -11.3913   -2.2366 C   0  0  0  0  0  0  0  0  0  0  0  0
  -22.1822  -11.7028   -2.2966 C   0  0  0  0  0  0  0  0  0  0  0  0
  -21.5433  -11.8272   -3.5311 C   0  0  0  0  0  0  0  0  0  0  0  0
  -22.2607  -11.6524   -4.7234 C   0  0  0  0  0  0  0  0  0  0  0  0
  -23.6393  -11.3895   -4.6507 C   0  0  0  0  0  0  0  0  0  0  0  0
  -21.5733  -11.7294   -6.0645 C   0  0  0  0  0  0  0  0  0  0  0  0
  -22.3380  -12.3143   -7.0307 F   0  0  0  0  0  0  0  0  0  0  0  0
  -21.2233  -10.5104   -6.5571 F   0  0  0  0  0  0  0  0  0  0  0  0
  -20.4239  -12.4604   -6.0167 F   0  0  0  0  0  0  0  0  0  0  0  0
 18 19  1  0  0  0
 19  8  1  0  0  0
 19 20  1  0  0  0
  8  9  1  0  0  0
  8 17  2  0  0  0
  9 10  2  0  0  0
 10 11  1  0  0  0
 11 12  1  0  0  0
 11 16  2  0  0  0
 12 13  2  0  0  0
 13  1  1  0  0  0
 13 14  1  0  0  0
  1  2  1  0  0  0
  1  6  2  0  0  0
  2  3  2  0  0  0
  3 21  1  0  0  0
  3  4  1  0  0  0
 21 22  1  0  0  0
 21 25  1  0  0  0
 22 23  2  0  0  0
 22 24  1  0  0  0
 24 27  1  0  0  0
 24 26  1  0  0  0
 27 28  1  0  0  0
 27 32  2  0  0  0
 28 29  2  0  0  0
 29 30  1  0  0  0
 30 31  2  0  0  0
 31 33  1  0  0  0
 31 32  1  0  0  0
 33 34  1  0  0  0
 33 35  1  0  0  0
 33 36  1  0  0  0
  4  5  2  0  0  0
  5  6  1  0  0  0
  6  7  1  0  0  0
 14 15  2  0  0  0
 15 16  1  0  0  0
 16 17  1  0  0  0
M  END
> <minimizedAffinity>
-9.58991

$$$$
