CHEMBL220549


 36 39  0  0  0  0  0  0  0  0999 V2000
  -30.4177   -7.8983   -6.8151 C   0  0  0  0  0  0  0  0  0  0  0  0
  -31.7775   -8.0111   -7.0941 C   0  0  0  0  0  0  0  0  0  0  0  0
  -32.2754   -9.2272   -7.5837 C   0  0  0  0  0  0  0  0  0  0  0  0
  -31.4182  -10.3161   -7.8510 C   0  0  0  0  0  0  0  0  0  0  0  0
  -32.0035  -11.6334   -8.2703 C   0  0  0  0  0  0  0  0  0  0  0  0
  -30.0363  -10.1370   -7.7023 C   0  0  0  0  0  0  0  0  0  0  0  0
  -29.5661   -8.9697   -7.0973 C   0  0  0  0  0  0  0  0  0  0  0  0
  -30.5705   -5.6451   -5.8598 N   0  0  0  0  0  0  0  0  0  0  0  0
  -29.7584   -6.6571   -6.3416 C   0  0  0  0  0  0  0  0  0  0  0  0
  -28.5303   -6.6479   -6.3586 O   0  0  0  0  0  0  0  0  0  0  0  0
  -31.5631   -5.8175   -5.7507 H   0  0  0  0  0  0  0  0  0  0  0  0
  -30.2836   -4.1833   -3.9325 C   0  0  0  0  0  0  0  0  0  0  0  0
  -29.8158   -2.9839   -3.3753 C   0  0  0  0  0  0  0  0  0  0  0  0
  -29.1669   -2.0278   -4.1647 C   0  0  0  0  0  0  0  0  0  0  0  0
  -28.9979   -2.2482   -5.5350 C   0  0  0  0  0  0  0  0  0  0  0  0
  -29.4799   -3.4392   -6.0903 C   0  0  0  0  0  0  0  0  0  0  0  0
  -30.1083   -4.4196   -5.3102 C   0  0  0  0  0  0  0  0  0  0  0  0
  -28.2886   -1.2534   -6.4200 C   0  0  0  0  0  0  0  0  0  0  0  0
  -29.0253   -0.1389   -6.6811 F   0  0  0  0  0  0  0  0  0  0  0  0
  -27.1222   -0.8077   -5.8754 F   0  0  0  0  0  0  0  0  0  0  0  0
  -27.9612   -1.7743   -7.6358 F   0  0  0  0  0  0  0  0  0  0  0  0
  -32.2867   -5.0305   -2.9665 C   0  0  0  0  0  0  0  0  0  0  0  0
  -30.8901   -5.1856   -3.2098 O   0  0  0  0  0  0  0  0  0  0  0  0
  -29.1504  -11.1088   -8.1499 O   0  0  0  0  0  0  0  0  0  0  0  0
  -28.5450  -10.8572   -9.3943 C   0  0  0  0  0  0  0  0  0  0  0  0
  -29.3810  -10.6521  -10.4511 N   0  0  0  0  0  0  0  0  0  0  0  0
  -28.8490  -10.1423  -11.5796 C   0  0  0  0  0  0  0  0  0  0  0  0
  -27.5025   -9.8955  -11.7384 C   0  0  0  0  0  0  0  0  0  0  0  0
  -26.6540  -10.2134  -10.6811 C   0  0  0  0  0  0  0  0  0  0  0  0
  -27.1530  -10.7177   -9.4611 C   0  0  0  0  0  0  0  0  0  0  0  0
  -26.2200  -11.0327   -8.3668 C   0  0  0  0  0  0  0  0  0  0  0  0
  -25.3591  -12.1145   -8.3912 C   0  0  0  0  0  0  0  0  0  0  0  0
  -24.4929  -12.2387   -7.3283 C   0  0  0  0  0  0  0  0  0  0  0  0
  -24.4435  -11.3749   -6.3010 N   0  0  0  0  0  0  0  0  0  0  0  0
  -25.3074  -10.3549   -6.3672 C   0  0  0  0  0  0  0  0  0  0  0  0
  -26.1923  -10.1366   -7.3502 N   0  0  0  0  0  0  0  0  0  0  0  0
 22 23  1  0  0  0
 23 12  1  0  0  0
 12 13  1  0  0  0
 12 17  2  0  0  0
 13 14  2  0  0  0
 14 15  1  0  0  0
 15 18  1  0  0  0
 15 16  2  0  0  0
 18 19  1  0  0  0
 18 20  1  0  0  0
 18 21  1  0  0  0
 16 17  1  0  0  0
 17  8  1  0  0  0
  8  9  1  0  0  0
  8 11  1  0  0  0
  9 10  2  0  0  0
  9  1  1  0  0  0
  1  2  1  0  0  0
  1  7  2  0  0  0
  2  3  2  0  0  0
  3  4  1  0  0  0
  4  5  1  0  0  0
  4  6  2  0  0  0
  6 24  1  0  0  0
  6  7  1  0  0  0
 24 25  1  0  0  0
 25 26  1  0  0  0
 25 30  2  0  0  0
 26 27  2  0  0  0
 27 28  1  0  0  0
 28 29  2  0  0  0
 29 30  1  0  0  0
 30 31  1  0  0  0
 31 32  1  0  0  0
 31 36  2  0  0  0
 32 33  2  0  0  0
 33 34  1  0  0  0
 34 35  2  0  0  0
 35 36  1  0  0  0
M  END
> <minimizedAffinity>
-8.78901

$$$$
