CHEMBL3676387


 40 43  0  0  0  0  0  0  0  0999 V2000
  -27.8539   -3.0351   -8.0524 C   0  0  0  0  0  0  0  0  0  0  0  0
  -28.0219   -2.7634   -6.6930 C   0  0  0  0  0  0  0  0  0  0  0  0
  -28.1425   -1.4506   -6.2129 C   0  0  0  0  0  0  0  0  0  0  0  0
  -28.2495   -1.1285   -4.8586 C   0  0  0  0  0  0  0  0  0  0  0  0
  -28.3244    0.1509   -4.4406 N   0  0  0  0  0  0  0  0  0  0  0  0
  -28.2732    1.0961   -5.3824 C   0  0  0  0  0  0  0  0  0  0  0  0
  -28.1630    0.8925   -6.6989 N   0  0  0  0  0  0  0  0  0  0  0  0
  -28.0964   -0.3784   -7.1080 C   0  0  0  0  0  0  0  0  0  0  0  0
  -27.9551   -0.6601   -8.4633 C   0  0  0  0  0  0  0  0  0  0  0  0
  -27.8531   -1.9703   -8.9673 C   0  0  0  0  0  0  0  0  0  0  0  0
  -28.6785   -5.3241   -8.1083 C   0  0  0  0  0  0  0  0  0  0  0  0
  -29.7912   -5.0708   -7.6641 O   0  0  0  0  0  0  0  0  0  0  0  0
  -27.6881   -4.3971   -8.3790 N   0  0  0  0  0  0  0  0  0  0  0  0
  -26.7675   -4.7396   -8.5830 H   0  0  0  0  0  0  0  0  0  0  0  0
  -29.0626   -7.7402   -8.1254 C   0  0  0  0  0  0  0  0  0  0  0  0
  -28.2211   -6.7189   -8.3332 C   0  0  0  0  0  0  0  0  0  0  0  0
  -28.2478   -2.1681   -3.8868 N   0  0  0  0  0  0  0  0  0  0  0  0
  -27.3292   -2.2798   -3.4712 H   0  0  0  0  0  0  0  0  0  0  0  0
  -28.9272   -3.3907   -4.0529 C   0  0  0  0  0  0  0  0  0  0  0  0
  -30.3250   -3.4260   -4.1650 C   0  0  0  0  0  0  0  0  0  0  0  0
  -30.9920   -4.6207   -4.4285 C   0  0  0  0  0  0  0  0  0  0  0  0
  -30.2607   -5.7996   -4.5566 C   0  0  0  0  0  0  0  0  0  0  0  0
  -31.1550   -7.4016   -5.0093 Br  0  0  0  0  0  0  0  0  0  0  0  0
  -28.8799   -5.8016   -4.3762 C   0  0  0  0  0  0  0  0  0  0  0  0
  -28.2283   -4.6007   -4.1143 C   0  0  0  0  0  0  0  0  0  0  0  0
  -26.8953   -4.6036   -3.9543 F   0  0  0  0  0  0  0  0  0  0  0  0
  -27.6824   -1.9828  -10.3359 O   0  0  0  0  0  0  0  0  0  0  0  0
  -26.3553   -1.9517  -10.8305 C   0  0  0  0  0  0  0  0  0  0  0  0
  -26.2299   -1.2139  -12.1695 C   0  0  0  0  0  0  0  0  0  0  0  0
  -25.3427   -2.0527  -13.1151 C   0  0  0  0  0  0  0  0  0  0  0  0
  -23.8611   -1.9612  -12.7493 C   0  0  0  0  0  0  0  0  0  0  0  0
  -23.4537   -0.5637  -12.7027 N   0  0  0  0  0  0  0  0  0  0  0  0
  -22.4774   -0.1411  -13.5844 C   0  0  0  0  0  0  0  0  0  0  0  0
  -21.8931   -0.9088  -14.3467 O   0  0  0  0  0  0  0  0  0  0  0  0
  -22.1888    1.1988  -13.5579 N   0  0  0  0  0  0  0  0  0  0  0  0
  -24.1853    0.2500  -11.7286 C   0  0  0  0  0  0  0  0  0  0  0  0
  -25.6807    0.2188  -12.0434 C   0  0  0  0  0  0  0  0  0  0  0  0
  -22.9775    1.7968  -13.3763 H   0  0  0  0  0  0  0  0  0  0  0  0
  -21.2037    1.7218  -14.4829 C   0  0  0  0  0  0  0  0  0  0  0  0
  -21.2260    3.2382  -14.5239 C   0  0  0  0  0  0  0  0  0  0  0  0
 15 16  2  0  0  0
 16 11  1  0  0  0
 11 12  2  0  0  0
 11 13  1  0  0  0
 13  1  1  0  0  0
 13 14  1  0  0  0
  1  2  1  0  0  0
  1 10  2  0  0  0
  2  3  2  0  0  0
  3  4  1  0  0  0
  3  8  1  0  0  0
  4 17  1  0  0  0
  4  5  2  0  0  0
 17 19  1  0  0  0
 17 18  1  0  0  0
 19 20  1  0  0  0
 19 25  2  0  0  0
 20 21  2  0  0  0
 21 22  1  0  0  0
 22 23  1  0  0  0
 22 24  2  0  0  0
 24 25  1  0  0  0
 25 26  1  0  0  0
  5  6  1  0  0  0
  6  7  2  0  0  0
  7  8  1  0  0  0
  8  9  2  0  0  0
  9 10  1  0  0  0
 10 27  1  0  0  0
 27 28  1  0  0  0
 28 29  1  0  0  0
 29 30  1  0  0  0
 29 37  1  0  0  0
 30 31  1  0  0  0
 31 32  1  0  0  0
 32 33  1  0  0  0
 32 36  1  0  0  0
 33 34  2  0  0  0
 33 35  1  0  0  0
 35 39  1  0  0  0
 35 38  1  0  0  0
 39 40  1  0  0  0
 36 37  1  0  0  0
M  END
> <minimizedAffinity>
-8.61099

$$$$
