CHEMBL365585


 38 44  0  0  0  0  0  0  0  0999 V2000
  -29.3821   -5.3687   -7.0394 N   0  0  0  0  0  0  0  0  0  0  0  0
  -29.9639   -5.3515   -5.7384 C   0  0  0  0  0  0  0  0  0  0  0  0
  -30.4914   -6.3905   -4.9596 C   0  0  0  0  0  0  0  0  0  0  0  0
  -31.0682   -6.0811   -3.7060 C   0  0  0  0  0  0  0  0  0  0  0  0
  -31.1087   -4.7834   -3.2454 C   0  0  0  0  0  0  0  0  0  0  0  0
  -30.5823   -3.7447   -4.0087 C   0  0  0  0  0  0  0  0  0  0  0  0
  -30.0021   -4.0216   -5.2676 C   0  0  0  0  0  0  0  0  0  0  0  0
  -29.4142   -3.3025   -6.2972 C   0  0  0  0  0  0  0  0  0  0  0  0
  -29.1448   -1.9028   -6.2957 C   0  0  0  0  0  0  0  0  0  0  0  0
  -28.7096   -1.3264   -7.5084 C   0  0  0  0  0  0  0  0  0  0  0  0
  -28.5855   -2.1547   -8.6563 C   0  0  0  0  0  0  0  0  0  0  0  0
  -27.9535   -1.7365   -9.8089 C   0  0  0  0  0  0  0  0  0  0  0  0
  -28.1978   -0.8479  -10.8595 C   0  0  0  0  0  0  0  0  0  0  0  0
  -27.2096   -0.7001  -11.8377 C   0  0  0  0  0  0  0  0  0  0  0  0
  -25.9633   -1.3034  -11.6669 C   0  0  0  0  0  0  0  0  0  0  0  0
  -25.7585   -2.2839  -10.6826 C   0  0  0  0  0  0  0  0  0  0  0  0
  -26.8730   -2.6183   -9.8978 C   0  0  0  0  0  0  0  0  0  0  0  0
  -27.2121   -3.7527   -9.1510 N   0  0  0  0  0  0  0  0  0  0  0  0
  -28.3059   -3.4576   -8.3718 C   0  0  0  0  0  0  0  0  0  0  0  0
  -28.9691   -4.0890   -7.3247 C   0  0  0  0  0  0  0  0  0  0  0  0
  -28.2902    0.0723   -7.3099 C   0  0  0  0  0  0  0  0  0  0  0  0
  -28.6808    0.2506   -5.9235 N   0  0  0  0  0  0  0  0  0  0  0  0
  -29.1500   -0.8942   -5.2716 C   0  0  0  0  0  0  0  0  0  0  0  0
  -29.3910   -0.8672   -4.0712 O   0  0  0  0  0  0  0  0  0  0  0  0
  -26.6810   -4.6074   -9.1216 H   0  0  0  0  0  0  0  0  0  0  0  0
  -28.4971    1.0819   -5.3854 H   0  0  0  0  0  0  0  0  0  0  0  0
  -31.1815   -9.5730   -8.5636 C   0  0  0  0  0  0  0  0  0  0  0  0
  -30.1509   -8.8159   -7.7182 C   0  0  0  0  0  0  0  0  0  0  0  0
  -30.2224   -9.3896   -6.2930 C   0  0  0  0  0  0  0  0  0  0  0  0
  -30.5640   -7.4164   -7.6290 O   0  0  0  0  0  0  0  0  0  0  0  0
  -29.4456   -6.5563   -7.9070 C   0  0  0  0  0  0  0  0  0  0  0  0
  -28.1952   -7.4573   -7.8324 C   0  0  0  0  0  0  0  0  0  0  0  0
  -28.7015   -8.8212   -8.2843 C   0  0  0  0  0  0  0  0  0  0  0  0
  -27.8917   -9.8817   -7.7484 O   0  0  0  0  0  0  0  0  0  0  0  0
  -27.7195   -9.7119   -6.8053 H   0  0  0  0  0  0  0  0  0  0  0  0
  -28.5699   -8.9774   -9.8182 C   0  0  0  0  0  0  0  0  0  0  0  0
  -27.3284   -8.4391  -10.2824 O   0  0  0  0  0  0  0  0  0  0  0  0
  -27.2242   -7.5858   -9.8144 H   0  0  0  0  0  0  0  0  0  0  0  0
 27 28  1  0  0  0
 28 29  1  0  0  0
 28 30  1  0  0  0
 28 33  1  0  0  0
 30 31  1  0  0  0
 31  1  1  0  0  0
 31 32  1  0  0  0
  1  2  1  0  0  0
  1 20  1  0  0  0
  2  3  1  0  0  0
  2  7  2  0  0  0
  3  4  2  0  0  0
  4  5  1  0  0  0
  5  6  2  0  0  0
  6  7  1  0  0  0
  7  8  1  0  0  0
  8  9  1  0  0  0
  8 20  2  0  0  0
  9 10  2  0  0  0
  9 23  1  0  0  0
 10 11  1  0  0  0
 10 21  1  0  0  0
 11 12  1  0  0  0
 11 19  2  0  0  0
 12 13  1  0  0  0
 12 17  2  0  0  0
 13 14  2  0  0  0
 14 15  1  0  0  0
 15 16  2  0  0  0
 16 17  1  0  0  0
 17 18  1  0  0  0
 18 19  1  0  0  0
 18 25  1  0  0  0
 19 20  1  0  0  0
 21 22  1  0  0  0
 22 23  1  0  0  0
 22 26  1  0  0  0
 23 24  2  0  0  0
 32 33  1  0  0  0
 33 34  1  0  0  0
 33 36  1  0  0  0
 34 35  1  0  0  0
 36 37  1  0  0  0
 37 38  1  0  0  0
M  END
> <minimizedAffinity>
-8.86112

$$$$
