CHEMBL370744


 28 30  0  0  0  0  0  0  0  0999 V2000
  -18.1713    3.2195  -14.3307 N   0  0  0  0  0  0  0  0  0  0  0  0
  -17.9528    3.6816  -13.4525 H   0  0  0  0  0  0  0  0  0  0  0  0
  -15.7783    0.3506  -14.1602 C   0  0  0  0  0  0  0  0  0  0  0  0
  -15.1464    0.4398  -15.3961 C   0  0  0  0  0  0  0  0  0  0  0  0
  -15.4973    1.4572  -16.2828 C   0  0  0  0  0  0  0  0  0  0  0  0
  -16.4917    2.3843  -15.9411 C   0  0  0  0  0  0  0  0  0  0  0  0
  -17.1660    2.2804  -14.7002 C   0  0  0  0  0  0  0  0  0  0  0  0
  -16.7977    1.2454  -13.8218 C   0  0  0  0  0  0  0  0  0  0  0  0
  -15.2325   -0.8705  -12.9870 S   0  0  0  0  0  0  0  0  0  0  0  0
  -15.8575   -0.5239  -11.7073 O   0  0  0  0  0  0  0  0  0  0  0  0
  -13.8057   -0.9799  -13.1034 O   0  0  0  0  0  0  0  0  0  0  0  0
  -15.6771   -3.5514  -12.6455 C   0  0  0  0  0  0  0  0  0  0  0  0
  -15.9860   -2.3816  -13.5616 C   0  0  0  0  0  0  0  0  0  0  0  0
  -16.7602    3.5123  -16.6852 O   0  0  0  0  0  0  0  0  0  0  0  0
  -15.6950    4.4323  -16.8939 C   0  0  0  0  0  0  0  0  0  0  0  0
  -19.4829    3.0206  -14.5675 C   0  0  0  0  0  0  0  0  0  0  0  0
  -20.2910    3.6504  -15.3990 N   0  0  0  0  0  0  0  0  0  0  0  0
  -21.5144    3.1107  -15.1720 C   0  0  0  0  0  0  0  0  0  0  0  0
  -21.4074    2.0787  -14.2712 C   0  0  0  0  0  0  0  0  0  0  0  0
  -20.0921    2.0032  -13.8833 O   0  0  0  0  0  0  0  0  0  0  0  0
  -22.3579    1.1449  -13.6939 C   0  0  0  0  0  0  0  0  0  0  0  0
  -22.2221   -0.2300  -13.9533 C   0  0  0  0  0  0  0  0  0  0  0  0
  -23.1254   -1.1550  -13.4213 C   0  0  0  0  0  0  0  0  0  0  0  0
  -24.1825   -0.7238  -12.6212 C   0  0  0  0  0  0  0  0  0  0  0  0
  -24.3303    0.6432  -12.3563 C   0  0  0  0  0  0  0  0  0  0  0  0
  -23.4202    1.5677  -12.8884 C   0  0  0  0  0  0  0  0  0  0  0  0
  -25.1099   -1.6783  -12.0801 C   0  0  0  0  0  0  0  0  0  0  0  0
  -25.8654   -2.4402  -11.6392 N   0  0  0  0  0  0  0  0  0  0  0  0
 12 13  1  0  0  0
 13  9  1  0  0  0
  9 10  2  0  0  0
  9 11  2  0  0  0
  9  3  1  0  0  0
  3  4  1  0  0  0
  3  8  2  0  0  0
  4  5  2  0  0  0
  5  6  1  0  0  0
  6 14  1  0  0  0
  6  7  2  0  0  0
 14 15  1  0  0  0
  7  1  1  0  0  0
  7  8  1  0  0  0
  1 16  1  0  0  0
  1  2  1  0  0  0
 16 17  2  0  0  0
 16 20  1  0  0  0
 17 18  1  0  0  0
 18 19  2  0  0  0
 19 21  1  0  0  0
 19 20  1  0  0  0
 21 22  1  0  0  0
 21 26  2  0  0  0
 22 23  2  0  0  0
 23 24  1  0  0  0
 24 27  1  0  0  0
 24 25  2  0  0  0
 27 28  3  0  0  0
 25 26  1  0  0  0
M  END
> <minimizedAffinity>
-7.70341

$$$$
