CHEMBL3676378


 39 41  0  0  0  0  0  0  0  0999 V2000
  -29.2788   -9.2450   -5.1972 C   0  0  0  0  0  0  0  0  0  0  0  0
  -28.4962  -10.2199   -5.8129 C   0  0  0  0  0  0  0  0  0  0  0  0
  -27.1129  -10.2830   -5.5524 C   0  0  0  0  0  0  0  0  0  0  0  0
  -26.2181  -11.0957   -6.2641 C   0  0  0  0  0  0  0  0  0  0  0  0
  -24.8968  -11.0798   -6.0068 N   0  0  0  0  0  0  0  0  0  0  0  0
  -24.4656  -10.2387   -5.0640 C   0  0  0  0  0  0  0  0  0  0  0  0
  -25.2291   -9.3993   -4.3567 N   0  0  0  0  0  0  0  0  0  0  0  0
  -26.5406   -9.4126   -4.6125 C   0  0  0  0  0  0  0  0  0  0  0  0
  -27.3633   -8.5047   -3.9480 C   0  0  0  0  0  0  0  0  0  0  0  0
  -28.7352   -8.4187   -4.2073 C   0  0  0  0  0  0  0  0  0  0  0  0
  -30.6722   -8.2374   -6.9243 C   0  0  0  0  0  0  0  0  0  0  0  0
  -31.7138   -8.3031   -7.5709 O   0  0  0  0  0  0  0  0  0  0  0  0
  -30.5329   -8.9675   -5.7668 N   0  0  0  0  0  0  0  0  0  0  0  0
  -31.2110   -9.7207   -5.7657 H   0  0  0  0  0  0  0  0  0  0  0  0
  -28.8335   -7.8128   -8.4681 C   0  0  0  0  0  0  0  0  0  0  0  0
  -29.5099   -7.4288   -7.3776 C   0  0  0  0  0  0  0  0  0  0  0  0
  -26.6859  -11.8911   -7.3454 N   0  0  0  0  0  0  0  0  0  0  0  0
  -26.0533  -12.6661   -7.5267 H   0  0  0  0  0  0  0  0  0  0  0  0
  -27.2007  -11.3404   -8.5438 C   0  0  0  0  0  0  0  0  0  0  0  0
  -26.4143  -10.5000   -9.3464 C   0  0  0  0  0  0  0  0  0  0  0  0
  -26.8622  -10.0841  -10.5997 C   0  0  0  0  0  0  0  0  0  0  0  0
  -28.1181  -10.4879  -11.0495 C   0  0  0  0  0  0  0  0  0  0  0  0
  -28.6722  -10.0265  -12.7956 Br  0  0  0  0  0  0  0  0  0  0  0  0
  -28.9505  -11.2518  -10.2349 C   0  0  0  0  0  0  0  0  0  0  0  0
  -28.4882  -11.6621   -8.9873 C   0  0  0  0  0  0  0  0  0  0  0  0
  -29.2790  -12.4255   -8.2161 F   0  0  0  0  0  0  0  0  0  0  0  0
  -29.4197   -7.4389   -3.5230 O   0  0  0  0  0  0  0  0  0  0  0  0
  -29.0153   -6.1039   -3.8667 C   0  0  0  0  0  0  0  0  0  0  0  0
  -30.1414   -5.3055   -4.5646 C   0  0  0  0  0  0  0  0  0  0  0  0
  -30.0176   -3.8835   -4.2233 N   0  0  0  0  0  0  0  0  0  0  0  0
  -29.8781   -2.9051   -5.1863 C   0  0  0  0  0  0  0  0  0  0  0  0
  -29.9693   -3.1236   -6.3911 O   0  0  0  0  0  0  0  0  0  0  0  0
  -29.6758   -3.6350   -3.2994 H   0  0  0  0  0  0  0  0  0  0  0  0
  -29.5863   -1.5097   -4.6157 C   0  0  0  0  0  0  0  0  0  0  0  0
  -28.5689   -0.8030   -5.4343 N   0  0  0  0  0  0  0  0  0  0  0  0
  -28.5527    0.6308   -5.1142 C   0  0  0  0  0  0  0  0  0  0  0  0
  -27.2392   -1.3621   -5.1455 C   0  0  0  0  0  0  0  0  0  0  0  0
  -31.5275   -5.8281   -4.1460 C   0  0  0  0  0  0  0  0  0  0  0  0
  -32.1570   -5.0280   -3.0108 C   0  0  0  0  0  0  0  0  0  0  0  0
 15 16  2  0  0  0
 16 11  1  0  0  0
 11 12  2  0  0  0
 11 13  1  0  0  0
 13  1  1  0  0  0
 13 14  1  0  0  0
  1  2  1  0  0  0
  1 10  2  0  0  0
  2  3  2  0  0  0
  3  4  1  0  0  0
  3  8  1  0  0  0
  4 17  1  0  0  0
  4  5  2  0  0  0
 17 19  1  0  0  0
 17 18  1  0  0  0
 19 20  1  0  0  0
 19 25  2  0  0  0
 20 21  2  0  0  0
 21 22  1  0  0  0
 22 23  1  0  0  0
 22 24  2  0  0  0
 24 25  1  0  0  0
 25 26  1  0  0  0
  5  6  1  0  0  0
  6  7  2  0  0  0
  7  8  1  0  0  0
  8  9  2  0  0  0
  9 10  1  0  0  0
 10 27  1  0  0  0
 27 28  1  0  0  0
 28 29  1  0  0  0
 29 38  1  0  0  0
 29 30  1  0  0  0
 38 39  1  0  0  0
 30 31  1  0  0  0
 30 33  1  0  0  0
 31 32  2  0  0  0
 31 34  1  0  0  0
 34 35  1  0  0  0
 35 36  1  0  0  0
 35 37  1  0  0  0
M  END
> <minimizedAffinity>
-7.64594

$$$$
