CHEMBL3690398


 32 35  0  0  0  0  0  0  0  0999 V2000
  -16.7673    0.6866  -15.0205 C   0  0  0  0  0  0  0  0  0  0  0  0
  -16.0899    1.5712  -15.8594 C   0  0  0  0  0  0  0  0  0  0  0  0
  -16.6511    2.8000  -16.1898 C   0  0  0  0  0  0  0  0  0  0  0  0
  -17.9088    3.1427  -15.7045 C   0  0  0  0  0  0  0  0  0  0  0  0
  -18.6675    2.2339  -14.9588 C   0  0  0  0  0  0  0  0  0  0  0  0
  -18.0649    1.0175  -14.5885 C   0  0  0  0  0  0  0  0  0  0  0  0
  -20.0533    2.5416  -14.5691 C   0  0  0  0  0  0  0  0  0  0  0  0
  -20.6806    3.7636  -14.3874 C   0  0  0  0  0  0  0  0  0  0  0  0
  -22.0016    3.6262  -14.0438 N   0  0  0  0  0  0  0  0  0  0  0  0
  -22.2124    2.3291  -13.9981 C   0  0  0  0  0  0  0  0  0  0  0  0
  -23.3964    1.5890  -13.6995 C   0  0  0  0  0  0  0  0  0  0  0  0
  -23.3875    0.2330  -13.6605 C   0  0  0  0  0  0  0  0  0  0  0  0
  -22.1330   -0.4714  -13.9541 C   0  0  0  0  0  0  0  0  0  0  0  0
  -21.0115    0.2180  -14.2074 C   0  0  0  0  0  0  0  0  0  0  0  0
  -21.0480    1.6131  -14.2643 N   0  0  0  0  0  0  0  0  0  0  0  0
  -24.6409   -0.4932  -13.3125 C   0  0  0  0  0  0  0  0  0  0  0  0
  -25.2991   -1.2640  -14.2551 C   0  0  0  0  0  0  0  0  0  0  0  0
  -26.4535   -1.8881  -13.8418 C   0  0  0  0  0  0  0  0  0  0  0  0
  -26.9444   -1.7823  -12.5970 N   0  0  0  0  0  0  0  0  0  0  0  0
  -26.2302   -1.0226  -11.7544 C   0  0  0  0  0  0  0  0  0  0  0  0
  -25.0959   -0.3689  -12.0478 N   0  0  0  0  0  0  0  0  0  0  0  0
  -15.8111   -0.0947  -12.3129 O   0  0  0  0  0  0  0  0  0  0  0  0
  -15.7900   -0.8277  -13.2920 C   0  0  0  0  0  0  0  0  0  0  0  0
  -15.3324   -2.1253  -13.1975 N   0  0  0  0  0  0  0  0  0  0  0  0
  -16.2067   -0.5300  -14.5712 N   0  0  0  0  0  0  0  0  0  0  0  0
  -14.9305   -2.5107  -14.0411 H   0  0  0  0  0  0  0  0  0  0  0  0
  -16.1891   -1.2886  -15.2352 H   0  0  0  0  0  0  0  0  0  0  0  0
  -14.7206   -2.5639  -11.9377 C   0  0  0  0  0  0  0  0  0  0  0  0
  -15.6702   -3.2893  -10.9741 C   0  0  0  0  0  0  0  0  0  0  0  0
  -16.7136   -3.8551  -11.6259 F   0  0  0  0  0  0  0  0  0  0  0  0
  -15.0494   -4.2497  -10.2604 F   0  0  0  0  0  0  0  0  0  0  0  0
  -16.1980   -2.4038  -10.0920 F   0  0  0  0  0  0  0  0  0  0  0  0
 22 23  2  0  0  0
 23 24  1  0  0  0
 23 25  1  0  0  0
 24 28  1  0  0  0
 24 26  1  0  0  0
 28 29  1  0  0  0
 29 30  1  0  0  0
 29 31  1  0  0  0
 29 32  1  0  0  0
 25  1  1  0  0  0
 25 27  1  0  0  0
  1  2  1  0  0  0
  1  6  2  0  0  0
  2  3  2  0  0  0
  3  4  1  0  0  0
  4  5  2  0  0  0
  5  7  1  0  0  0
  5  6  1  0  0  0
  7  8  2  0  0  0
  7 15  1  0  0  0
  8  9  1  0  0  0
  9 10  2  0  0  0
 10 11  1  0  0  0
 10 15  1  0  0  0
 11 12  2  0  0  0
 12 16  1  0  0  0
 12 13  1  0  0  0
 16 17  1  0  0  0
 16 21  2  0  0  0
 17 18  2  0  0  0
 18 19  1  0  0  0
 19 20  2  0  0  0
 20 21  1  0  0  0
 13 14  2  0  0  0
 14 15  1  0  0  0
M  END
> <minimizedAffinity>
-10.18150

$$$$
