CHEMBL3906945


 36 40  0  0  0  0  0  0  0  0999 V2000
  -27.8043   -9.4881   -4.0747 N   0  0  0  0  0  0  0  0  0  0  0  0
  -28.1091   -8.0754   -3.8923 C   0  0  0  0  0  0  0  0  0  0  0  0
  -29.4273   -7.8646   -3.5392 C   0  0  0  0  0  0  0  0  0  0  0  0
  -30.0217   -6.6809   -3.8587 C   0  0  0  0  0  0  0  0  0  0  0  0
  -29.3501   -5.6151   -4.4256 C   0  0  0  0  0  0  0  0  0  0  0  0
  -30.2865   -4.7508   -4.7825 N   0  0  0  0  0  0  0  0  0  0  0  0
  -29.9059   -3.5429   -5.1467 C   0  0  0  0  0  0  0  0  0  0  0  0
  -28.5967   -3.1358   -5.1525 C   0  0  0  0  0  0  0  0  0  0  0  0
  -27.5915   -4.0942   -4.8923 N   0  0  0  0  0  0  0  0  0  0  0  0
  -27.9752   -5.4882   -4.5563 C   0  0  0  0  0  0  0  0  0  0  0  0
  -27.3595   -6.8860   -4.2864 C   0  0  0  0  0  0  0  0  0  0  0  0
  -28.5406   -1.6595   -5.4685 C   0  0  0  0  0  0  0  0  0  0  0  0
  -27.8253   -0.6075   -4.7848 C   0  0  0  0  0  0  0  0  0  0  0  0
  -28.4222    0.5977   -4.8322 N   0  0  0  0  0  0  0  0  0  0  0  0
  -29.5741    0.3631   -5.4773 N   0  0  0  0  0  0  0  0  0  0  0  0
  -30.5471    1.4232   -5.6779 C   0  0  0  0  0  0  0  0  0  0  0  0
  -29.7168   -0.9645   -5.8064 C   0  0  0  0  0  0  0  0  0  0  0  0
  -24.5133  -10.6807   -5.5110 C   0  0  0  0  0  0  0  0  0  0  0  0
  -24.0258  -11.4384   -4.4435 C   0  0  0  0  0  0  0  0  0  0  0  0
  -24.7798  -11.5679   -3.2853 C   0  0  0  0  0  0  0  0  0  0  0  0
  -26.0207  -10.9288   -3.1982 C   0  0  0  0  0  0  0  0  0  0  0  0
  -26.5789  -10.1863   -4.2602 C   0  0  0  0  0  0  0  0  0  0  0  0
  -25.7962  -10.0830   -5.4263 C   0  0  0  0  0  0  0  0  0  0  0  0
  -22.3740  -10.4545   -6.5612 C   0  0  0  0  0  0  0  0  0  0  0  0
  -23.8019  -10.4533   -6.6674 O   0  0  0  0  0  0  0  0  0  0  0  0
  -24.4134  -12.2695   -2.1679 O   0  0  0  0  0  0  0  0  0  0  0  0
  -23.0268  -12.2864   -1.8501 C   0  0  0  0  0  0  0  0  0  0  0  0
  -29.0629  -10.3700   -4.0741 C   0  0  0  0  0  0  0  0  0  0  0  0
  -29.2866  -11.2769   -5.2915 C   0  0  0  0  0  0  0  0  0  0  0  0
  -29.6365  -10.8442   -6.5345 C   0  0  0  0  0  0  0  0  0  0  0  0
  -29.7964   -9.4466   -6.9733 C   0  0  0  0  0  0  0  0  0  0  0  0
  -31.0325   -8.9223   -6.8796 N   0  0  0  0  0  0  0  0  0  0  0  0
  -31.1648   -7.6217   -7.2019 C   0  0  0  0  0  0  0  0  0  0  0  0
  -30.1250   -6.8474   -7.6547 C   0  0  0  0  0  0  0  0  0  0  0  0
  -28.9067   -7.4744   -7.7372 C   0  0  0  0  0  0  0  0  0  0  0  0
  -28.7099   -8.7712   -7.3777 N   0  0  0  0  0  0  0  0  0  0  0  0
 24 25  1  0  0  0
 25 18  1  0  0  0
 18 19  1  0  0  0
 18 23  2  0  0  0
 19 20  2  0  0  0
 20 26  1  0  0  0
 20 21  1  0  0  0
 26 27  1  0  0  0
 21 22  2  0  0  0
 22  1  1  0  0  0
 22 23  1  0  0  0
  1 28  1  0  0  0
  1  2  1  0  0  0
 28 29  1  0  0  0
 29 30  2  0  0  0
 30 31  1  0  0  0
 31 32  1  0  0  0
 31 36  2  0  0  0
 32 33  2  0  0  0
 33 34  1  0  0  0
 34 35  2  0  0  0
 35 36  1  0  0  0
  2  3  1  0  0  0
  2 11  2  0  0  0
  3  4  2  0  0  0
  4  5  1  0  0  0
  5  6  1  0  0  0
  5 10  2  0  0  0
  6  7  2  0  0  0
  7  8  1  0  0  0
  8 12  1  0  0  0
  8  9  2  0  0  0
 12 13  1  0  0  0
 12 17  2  0  0  0
 13 14  2  0  0  0
 14 15  1  0  0  0
 15 16  1  0  0  0
 15 17  1  0  0  0
  9 10  1  0  0  0
 10 11  1  0  0  0
M  END
> <minimizedAffinity>
-7.30795

$$$$
