CHEMBL3985894


 24 27  0  0  0  0  0  0  0  0999 V2000
  -32.0714   -4.9054   -2.7404 N   0  0  0  0  0  0  0  0  0  0  0  0
  -31.1903   -5.1142   -3.7809 C   0  0  0  0  0  0  0  0  0  0  0  0
  -30.1302   -4.2951   -3.8377 N   0  0  0  0  0  0  0  0  0  0  0  0
  -29.2087   -4.4765   -4.8054 C   0  0  0  0  0  0  0  0  0  0  0  0
  -29.3953   -5.4511   -5.7364 C   0  0  0  0  0  0  0  0  0  0  0  0
  -30.5354   -6.2264   -5.6016 C   0  0  0  0  0  0  0  0  0  0  0  0
  -31.4606   -6.0897   -4.6487 N   0  0  0  0  0  0  0  0  0  0  0  0
  -30.5318   -7.2576   -6.6108 C   0  0  0  0  0  0  0  0  0  0  0  0
  -31.4399   -8.2661   -6.8766 C   0  0  0  0  0  0  0  0  0  0  0  0
  -31.1631   -9.1399   -7.9311 C   0  0  0  0  0  0  0  0  0  0  0  0
  -29.9912   -8.9980   -8.6969 C   0  0  0  0  0  0  0  0  0  0  0  0
  -29.0719   -7.9810   -8.4247 C   0  0  0  0  0  0  0  0  0  0  0  0
  -29.3550   -7.1180   -7.3813 C   0  0  0  0  0  0  0  0  0  0  0  0
  -28.5371   -5.9473   -6.8653 C   0  0  0  0  0  0  0  0  0  0  0  0
  -31.9927   -3.9560   -2.4102 H   0  0  0  0  0  0  0  0  0  0  0  0
  -32.9888   -5.2515   -2.9827 H   0  0  0  0  0  0  0  0  0  0  0  0
  -28.0468   -3.6749   -4.8290 N   0  0  0  0  0  0  0  0  0  0  0  0
  -27.2488   -4.2336   -5.1103 H   0  0  0  0  0  0  0  0  0  0  0  0
  -28.0166   -2.3648   -5.3598 C   0  0  0  0  0  0  0  0  0  0  0  0
  -27.9857   -1.2487   -4.5094 C   0  0  0  0  0  0  0  0  0  0  0  0
  -27.9861    0.0488   -5.0142 C   0  0  0  0  0  0  0  0  0  0  0  0
  -27.9818    0.2502   -6.3895 C   0  0  0  0  0  0  0  0  0  0  0  0
  -27.9465   -0.8457   -7.2512 C   0  0  0  0  0  0  0  0  0  0  0  0
  -27.9469   -2.1482   -6.7393 C   0  0  0  0  0  0  0  0  0  0  0  0
  1  2  1  0  0  0
  1 15  1  0  0  0
  1 16  1  0  0  0
  2  3  1  0  0  0
  2  7  2  0  0  0
  3  4  2  0  0  0
  4 17  1  0  0  0
  4  5  1  0  0  0
 17 19  1  0  0  0
 17 18  1  0  0  0
 19 20  1  0  0  0
 19 24  2  0  0  0
 20 21  2  0  0  0
 21 22  1  0  0  0
 22 23  2  0  0  0
 23 24  1  0  0  0
  5  6  2  0  0  0
  5 14  1  0  0  0
  6  7  1  0  0  0
  6  8  1  0  0  0
  8  9  1  0  0  0
  8 13  2  0  0  0
  9 10  2  0  0  0
 10 11  1  0  0  0
 11 12  2  0  0  0
 12 13  1  0  0  0
 13 14  1  0  0  0
M  END
> <minimizedAffinity>
-8.71084

$$$$
