CHEMBL462563


 36 40  0  0  0  0  0  0  0  0999 V2000
  -29.5343   -6.9270   -6.1862 C   0  0  0  0  0  0  0  0  0  0  0  0
  -28.7571   -6.8540   -5.0272 C   0  0  0  0  0  0  0  0  0  0  0  0
  -27.8862   -7.9028   -4.6574 C   0  0  0  0  0  0  0  0  0  0  0  0
  -27.8219   -9.0644   -5.4589 C   0  0  0  0  0  0  0  0  0  0  0  0
  -27.1375  -10.3298   -5.4262 C   0  0  0  0  0  0  0  0  0  0  0  0
  -27.5010  -11.0824   -6.4676 N   0  0  0  0  0  0  0  0  0  0  0  0
  -28.3962  -10.3517   -7.1340 N   0  0  0  0  0  0  0  0  0  0  0  0
  -29.0842  -10.9437   -8.2571 C   0  0  0  0  0  0  0  0  0  0  0  0
  -28.6237   -9.1160   -6.5981 C   0  0  0  0  0  0  0  0  0  0  0  0
  -29.4861   -8.0725   -6.9870 C   0  0  0  0  0  0  0  0  0  0  0  0
  -26.2339  -10.7586   -4.4619 N   0  0  0  0  0  0  0  0  0  0  0  0
  -24.8745  -10.4918   -4.5148 C   0  0  0  0  0  0  0  0  0  0  0  0
  -24.2737   -9.8687   -5.3871 O   0  0  0  0  0  0  0  0  0  0  0  0
  -26.6279  -11.2608   -3.6830 H   0  0  0  0  0  0  0  0  0  0  0  0
  -24.0329  -11.0152   -3.3928 C   0  0  0  0  0  0  0  0  0  0  0  0
  -22.6313  -11.0235   -3.4232 C   0  0  0  0  0  0  0  0  0  0  0  0
  -21.9138  -11.4816   -2.3097 C   0  0  0  0  0  0  0  0  0  0  0  0
  -22.5874  -11.9220   -1.1681 C   0  0  0  0  0  0  0  0  0  0  0  0
  -21.6920  -12.4649    0.1960 Cl  0  0  0  0  0  0  0  0  0  0  0  0
  -23.9772  -11.9093   -1.1228 C   0  0  0  0  0  0  0  0  0  0  0  0
  -24.6950  -11.4587   -2.2330 C   0  0  0  0  0  0  0  0  0  0  0  0
  -30.3907   -5.8620   -6.4442 O   0  0  0  0  0  0  0  0  0  0  0  0
  -28.3672   -1.2709   -5.3805 C   0  0  0  0  0  0  0  0  0  0  0  0
  -29.3445   -1.5935   -4.4325 C   0  0  0  0  0  0  0  0  0  0  0  0
  -30.0674   -2.7766   -4.4622 C   0  0  0  0  0  0  0  0  0  0  0  0
  -30.8808   -3.0238   -3.4338 N   0  0  0  0  0  0  0  0  0  0  0  0
  -31.5660   -4.1897   -3.4164 C   0  0  0  0  0  0  0  0  0  0  0  0
  -31.4700   -5.1389   -4.4108 C   0  0  0  0  0  0  0  0  0  0  0  0
  -30.5814   -4.9032   -5.4611 C   0  0  0  0  0  0  0  0  0  0  0  0
  -29.8890   -3.6677   -5.5402 C   0  0  0  0  0  0  0  0  0  0  0  0
  -29.0094   -3.2767   -6.5760 C   0  0  0  0  0  0  0  0  0  0  0  0
  -28.2338   -2.0951   -6.5029 C   0  0  0  0  0  0  0  0  0  0  0  0
  -28.1936    1.0957   -5.4409 C   0  0  0  0  0  0  0  0  0  0  0  0
  -27.5636   -0.1664   -5.2222 O   0  0  0  0  0  0  0  0  0  0  0  0
  -27.4132   -1.9711   -7.5925 O   0  0  0  0  0  0  0  0  0  0  0  0
  -27.8033   -2.4837   -8.8533 C   0  0  0  0  0  0  0  0  0  0  0  0
 33 34  1  0  0  0
 34 23  1  0  0  0
 23 24  1  0  0  0
 23 32  2  0  0  0
 24 25  2  0  0  0
 25 26  1  0  0  0
 25 30  1  0  0  0
 26 27  2  0  0  0
 27 28  1  0  0  0
 28 29  2  0  0  0
 29 22  1  0  0  0
 29 30  1  0  0  0
 22  1  1  0  0  0
  1  2  1  0  0  0
  1 10  2  0  0  0
  2  3  2  0  0  0
  3  4  1  0  0  0
  4  5  1  0  0  0
  4  9  2  0  0  0
  5 11  1  0  0  0
  5  6  2  0  0  0
 11 12  1  0  0  0
 11 14  1  0  0  0
 12 13  2  0  0  0
 12 15  1  0  0  0
 15 16  1  0  0  0
 15 21  2  0  0  0
 16 17  2  0  0  0
 17 18  1  0  0  0
 18 19  1  0  0  0
 18 20  2  0  0  0
 20 21  1  0  0  0
  6  7  1  0  0  0
  7  8  1  0  0  0
  7  9  1  0  0  0
  9 10  1  0  0  0
 30 31  2  0  0  0
 31 32  1  0  0  0
 32 35  1  0  0  0
 35 36  1  0  0  0
M  END
> <minimizedAffinity>
-8.88109

$$$$
