CHEMBL3353347


 35 40  0  0  0  0  0  0  0  0999 V2000
  -30.5418   -4.6728   -4.8314 C   0  0  0  0  0  0  0  0  0  0  0  0
  -31.0769   -4.6732   -3.5988 N   0  0  0  0  0  0  0  0  0  0  0  0
  -30.7485   -5.8702   -3.1078 N   0  0  0  0  0  0  0  0  0  0  0  0
  -30.0164   -6.6481   -3.9683 C   0  0  0  0  0  0  0  0  0  0  0  0
  -29.2637   -7.8146   -3.7696 C   0  0  0  0  0  0  0  0  0  0  0  0
  -28.5675   -8.3323   -4.8727 C   0  0  0  0  0  0  0  0  0  0  0  0
  -28.8230   -7.7872   -6.1477 C   0  0  0  0  0  0  0  0  0  0  0  0
  -29.5388   -6.5995   -6.3233 C   0  0  0  0  0  0  0  0  0  0  0  0
  -30.0776   -5.9804   -5.1866 C   0  0  0  0  0  0  0  0  0  0  0  0
  -30.9739   -6.0683   -2.1456 H   0  0  0  0  0  0  0  0  0  0  0  0
  -27.4975   -9.3909   -4.7611 C   0  0  0  0  0  0  0  0  0  0  0  0
  -27.0266  -10.3633   -5.8109 C   0  0  0  0  0  0  0  0  0  0  0  0
  -28.0162  -10.8471   -4.8049 C   0  0  0  0  0  0  0  0  0  0  0  0
  -27.7765  -11.6278   -3.5373 C   0  0  0  0  0  0  0  0  0  0  0  0
  -26.7569  -11.5966   -2.8693 O   0  0  0  0  0  0  0  0  0  0  0  0
  -28.9562  -12.2940   -3.2418 N   0  0  0  0  0  0  0  0  0  0  0  0
  -29.9501  -12.0326   -4.1890 C   0  0  0  0  0  0  0  0  0  0  0  0
  -31.2657  -12.4475   -4.1617 C   0  0  0  0  0  0  0  0  0  0  0  0
  -32.0665  -12.1037   -5.2520 C   0  0  0  0  0  0  0  0  0  0  0  0
  -31.5188  -11.4278   -6.3554 C   0  0  0  0  0  0  0  0  0  0  0  0
  -30.1856  -11.0004   -6.3439 C   0  0  0  0  0  0  0  0  0  0  0  0
  -29.4139  -11.2449   -5.2165 C   0  0  0  0  0  0  0  0  0  0  0  0
  -29.0599  -12.8915   -2.4370 H   0  0  0  0  0  0  0  0  0  0  0  0
  -28.8182   -3.1602   -5.6436 C   0  0  0  0  0  0  0  0  0  0  0  0
  -30.1216   -3.4773   -5.5140 C   0  0  0  0  0  0  0  0  0  0  0  0
  -27.5989   -1.5814   -9.4220 C   0  0  0  0  0  0  0  0  0  0  0  0
  -27.6372   -0.7357   -8.3012 C   0  0  0  0  0  0  0  0  0  0  0  0
  -28.0158   -1.2215   -7.0415 C   0  0  0  0  0  0  0  0  0  0  0  0
  -28.3539   -2.5669   -6.8992 C   0  0  0  0  0  0  0  0  0  0  0  0
  -28.2902   -3.4196   -8.0107 C   0  0  0  0  0  0  0  0  0  0  0  0
  -27.9153   -2.9351   -9.2623 C   0  0  0  0  0  0  0  0  0  0  0  0
  -27.2653   -1.0463  -10.7997 C   0  0  0  0  0  0  0  0  0  0  0  0
  -27.1401   -2.0102  -13.0260 C   0  0  0  0  0  0  0  0  0  0  0  0
  -26.5762   -2.0095  -11.6733 N   0  0  0  0  0  0  0  0  0  0  0  0
  -25.1498   -1.6801  -11.7387 C   0  0  0  0  0  0  0  0  0  0  0  0
 33 34  1  0  0  0
 34 35  1  0  0  0
 34 32  1  0  0  0
 32 26  1  0  0  0
 26 27  1  0  0  0
 26 31  2  0  0  0
 27 28  2  0  0  0
 28 29  1  0  0  0
 29 24  1  0  0  0
 29 30  2  0  0  0
 24 25  2  0  0  0
 25  1  1  0  0  0
  1  2  2  0  0  0
  1  9  1  0  0  0
  2  3  1  0  0  0
  3  4  1  0  0  0
  3 10  1  0  0  0
  4  5  1  0  0  0
  4  9  2  0  0  0
  5  6  2  0  0  0
  6  7  1  0  0  0
  6 11  1  0  0  0
 11 12  1  0  0  0
 11 13  1  0  0  0
 12 13  1  0  0  0
 13 14  1  0  0  0
 13 22  1  0  0  0
 14 16  1  0  0  0
 14 15  2  0  0  0
 16 17  1  0  0  0
 16 23  1  0  0  0
 17 18  1  0  0  0
 17 22  2  0  0  0
 18 19  2  0  0  0
 19 20  1  0  0  0
 20 21  2  0  0  0
 21 22  1  0  0  0
  7  8  2  0  0  0
  8  9  1  0  0  0
 30 31  1  0  0  0
M  END
> <minimizedAffinity>
-8.36445

$$$$
