CHEMBL119552


 31 35  0  0  0  0  0  0  0  0999 V2000
  -15.6999    3.4769  -16.0259 C   0  0  0  0  0  0  0  0  0  0  0  0
  -15.4963    2.0923  -16.0889 C   0  0  0  0  0  0  0  0  0  0  0  0
  -16.5449    1.1860  -15.9126 C   0  0  0  0  0  0  0  0  0  0  0  0
  -17.7762    1.7159  -15.5279 C   0  0  0  0  0  0  0  0  0  0  0  0
  -18.9476    1.0776  -15.1994 N   0  0  0  0  0  0  0  0  0  0  0  0
  -19.8791    1.9741  -14.7249 C   0  0  0  0  0  0  0  0  0  0  0  0
  -19.3178    3.2305  -14.8792 C   0  0  0  0  0  0  0  0  0  0  0  0
  -17.9930    3.0795  -15.3605 C   0  0  0  0  0  0  0  0  0  0  0  0
  -16.9491    3.9802  -15.6351 C   0  0  0  0  0  0  0  0  0  0  0  0
  -19.0833    0.0752  -15.1914 H   0  0  0  0  0  0  0  0  0  0  0  0
  -21.1471    1.5639  -14.1161 C   0  0  0  0  0  0  0  0  0  0  0  0
  -21.3568    0.2260  -13.7902 C   0  0  0  0  0  0  0  0  0  0  0  0
  -22.6041   -0.2071  -13.3345 C   0  0  0  0  0  0  0  0  0  0  0  0
  -22.8326   -1.5636  -13.0589 C   0  0  0  0  0  0  0  0  0  0  0  0
  -24.0921   -1.9921  -12.6561 C   0  0  0  0  0  0  0  0  0  0  0  0
  -25.1170   -1.0647  -12.5131 C   0  0  0  0  0  0  0  0  0  0  0  0
  -24.8777    0.2894  -12.7716 C   0  0  0  0  0  0  0  0  0  0  0  0
  -23.6334    0.7448  -13.1866 C   0  0  0  0  0  0  0  0  0  0  0  0
  -23.4453    2.0508  -13.4481 N   0  0  0  0  0  0  0  0  0  0  0  0
  -22.2297    2.4132  -13.9016 C   0  0  0  0  0  0  0  0  0  0  0  0
  -22.1662    3.7459  -14.1745 O   0  0  0  0  0  0  0  0  0  0  0  0
  -23.0797    3.9942  -13.9381 H   0  0  0  0  0  0  0  0  0  0  0  0
  -13.9549    4.8580  -15.3400 O   0  0  0  0  0  0  0  0  0  0  0  0
  -14.6157    4.4575  -16.3002 C   0  0  0  0  0  0  0  0  0  0  0  0
  -14.4055    4.9337  -17.6003 N   0  0  0  0  0  0  0  0  0  0  0  0
  -13.2238    5.7649  -17.8518 C   0  0  0  0  0  0  0  0  0  0  0  0
  -13.4960    6.8767  -18.8825 C   0  0  0  0  0  0  0  0  0  0  0  0
  -14.1077    6.3813  -20.1318 N   0  0  0  0  0  0  0  0  0  0  0  0
  -15.3568    5.6847  -19.7937 C   0  0  0  0  0  0  0  0  0  0  0  0
  -15.1490    4.5335  -18.8018 C   0  0  0  0  0  0  0  0  0  0  0  0
  -13.4682    5.7102  -20.5567 H   0  0  0  0  0  0  0  0  0  0  0  0
 23 24  2  0  0  0
 24  1  1  0  0  0
 24 25  1  0  0  0
  1  2  1  0  0  0
  1  9  2  0  0  0
  2  3  2  0  0  0
  3  4  1  0  0  0
  4  5  1  0  0  0
  4  8  2  0  0  0
  5  6  1  0  0  0
  5 10  1  0  0  0
  6 11  1  0  0  0
  6  7  2  0  0  0
 11 12  1  0  0  0
 11 20  2  0  0  0
 12 13  2  0  0  0
 13 14  1  0  0  0
 13 18  1  0  0  0
 14 15  2  0  0  0
 15 16  1  0  0  0
 16 17  2  0  0  0
 17 18  1  0  0  0
 18 19  2  0  0  0
 19 20  1  0  0  0
 20 21  1  0  0  0
 21 22  1  0  0  0
  7  8  1  0  0  0
  8  9  1  0  0  0
 25 26  1  0  0  0
 25 30  1  0  0  0
 26 27  1  0  0  0
 27 28  1  0  0  0
 28 29  1  0  0  0
 28 31  1  0  0  0
 29 30  1  0  0  0
M  END
> <minimizedAffinity>
-10.49432

$$$$
