CHEMBL516635


 31 35  0  0  0  0  0  0  0  0999 V2000
  -28.6467   -8.6739   -6.2098 C   0  0  0  0  0  0  0  0  0  0  0  0
  -29.3861   -9.8502   -6.4970 C   0  0  0  0  0  0  0  0  0  0  0  0
  -30.6077   -9.8181   -7.1594 C   0  0  0  0  0  0  0  0  0  0  0  0
  -31.1265   -8.6002   -7.5526 C   0  0  0  0  0  0  0  0  0  0  0  0
  -30.4102   -7.4282   -7.3021 C   0  0  0  0  0  0  0  0  0  0  0  0
  -29.1562   -7.4224   -6.6508 C   0  0  0  0  0  0  0  0  0  0  0  0
  -25.5320   -9.6972   -4.6377 N   0  0  0  0  0  0  0  0  0  0  0  0
  -26.4458   -9.8974   -5.6610 C   0  0  0  0  0  0  0  0  0  0  0  0
  -27.3959   -8.9153   -5.4895 C   0  0  0  0  0  0  0  0  0  0  0  0
  -27.0579   -8.1798   -4.3757 N   0  0  0  0  0  0  0  0  0  0  0  0
  -25.9485   -8.6759   -3.8568 N   0  0  0  0  0  0  0  0  0  0  0  0
  -21.1627  -11.7676   -6.3904 Cl  0  0  0  0  0  0  0  0  0  0  0  0
  -22.2351  -11.3561   -5.1072 C   0  0  0  0  0  0  0  0  0  0  0  0
  -21.8708  -11.6280   -3.7899 C   0  0  0  0  0  0  0  0  0  0  0  0
  -22.7320  -11.2789   -2.7519 C   0  0  0  0  0  0  0  0  0  0  0  0
  -23.9478  -10.6484   -3.0311 C   0  0  0  0  0  0  0  0  0  0  0  0
  -24.3166  -10.3716   -4.3666 C   0  0  0  0  0  0  0  0  0  0  0  0
  -23.4510  -10.7393   -5.4069 C   0  0  0  0  0  0  0  0  0  0  0  0
  -28.5141   -6.1956   -6.4054 N   0  0  0  0  0  0  0  0  0  0  0  0
  -27.8107   -6.2347   -5.6752 H   0  0  0  0  0  0  0  0  0  0  0  0
  -29.2719   -4.9376   -6.5070 C   0  0  0  0  0  0  0  0  0  0  0  0
  -28.6336   -3.7132   -7.1557 C   0  0  0  0  0  0  0  0  0  0  0  0
  -28.0940   -3.7287   -8.4447 C   0  0  0  0  0  0  0  0  0  0  0  0
  -27.5370   -2.5632   -8.9516 C   0  0  0  0  0  0  0  0  0  0  0  0
  -27.4730   -1.3955   -8.2795 N   0  0  0  0  0  0  0  0  0  0  0  0
  -27.9774   -1.3538   -7.0410 C   0  0  0  0  0  0  0  0  0  0  0  0
  -27.8749   -0.1579   -6.3338 C   0  0  0  0  0  0  0  0  0  0  0  0
  -28.3516   -0.0256   -5.0303 C   0  0  0  0  0  0  0  0  0  0  0  0
  -28.9859   -1.0985   -4.4276 C   0  0  0  0  0  0  0  0  0  0  0  0
  -29.1183   -2.3007   -5.1242 C   0  0  0  0  0  0  0  0  0  0  0  0
  -28.5940   -2.4744   -6.4298 C   0  0  0  0  0  0  0  0  0  0  0  0
 12 13  1  0  0  0
 13 14  1  0  0  0
 13 18  2  0  0  0
 14 15  2  0  0  0
 15 16  1  0  0  0
 16 17  2  0  0  0
 17  7  1  0  0  0
 17 18  1  0  0  0
  7  8  1  0  0  0
  7 11  1  0  0  0
  8  9  2  0  0  0
  9  1  1  0  0  0
  9 10  1  0  0  0
  1  2  1  0  0  0
  1  6  2  0  0  0
  2  3  2  0  0  0
  3  4  1  0  0  0
  4  5  2  0  0  0
  5  6  1  0  0  0
  6 19  1  0  0  0
 19 21  1  0  0  0
 19 20  1  0  0  0
 21 22  1  0  0  0
 22 23  1  0  0  0
 22 31  2  0  0  0
 23 24  2  0  0  0
 24 25  1  0  0  0
 25 26  2  0  0  0
 26 27  1  0  0  0
 26 31  1  0  0  0
 27 28  2  0  0  0
 28 29  1  0  0  0
 29 30  2  0  0  0
 30 31  1  0  0  0
 10 11  2  0  0  0
M  END
> <minimizedAffinity>
-9.42237

$$$$
