CHEMBL3952894


 46 51  0  0  0  0  0  0  0  0999 V2000
  -26.0482   -1.7928   -9.4648 O   0  0  0  0  0  0  0  0  0  0  0  0
  -26.9933   -2.0217  -10.2096 C   0  0  0  0  0  0  0  0  0  0  0  0
  -28.2404   -2.4499   -9.7659 N   0  0  0  0  0  0  0  0  0  0  0  0
  -26.9202   -1.9010  -11.5858 N   0  0  0  0  0  0  0  0  0  0  0  0
  -28.8573   -2.8664  -10.4458 H   0  0  0  0  0  0  0  0  0  0  0  0
  -27.7732   -2.0196  -12.1102 H   0  0  0  0  0  0  0  0  0  0  0  0
  -25.7535   -1.5470  -12.3141 C   0  0  0  0  0  0  0  0  0  0  0  0
  -25.7076   -1.4667  -13.7124 C   0  0  0  0  0  0  0  0  0  0  0  0
  -24.5386   -1.1101  -14.3886 C   0  0  0  0  0  0  0  0  0  0  0  0
  -23.3625   -0.8831  -13.6785 C   0  0  0  0  0  0  0  0  0  0  0  0
  -23.4117   -0.9214  -12.2851 C   0  0  0  0  0  0  0  0  0  0  0  0
  -22.3112   -0.6493  -11.5681 F   0  0  0  0  0  0  0  0  0  0  0  0
  -24.5886   -1.2507  -11.6026 C   0  0  0  0  0  0  0  0  0  0  0  0
  -22.1615   -0.5851  -14.2848 O   0  0  0  0  0  0  0  0  0  0  0  0
  -21.7739    0.7404  -14.3794 C   0  0  0  0  0  0  0  0  0  0  0  0
  -22.5772    1.7994  -13.9606 C   0  0  0  0  0  0  0  0  0  0  0  0
  -22.0586    3.0705  -14.0513 C   0  0  0  0  0  0  0  0  0  0  0  0
  -20.8515    3.3376  -14.5672 N   0  0  0  0  0  0  0  0  0  0  0  0
  -20.0983    2.3239  -15.0313 C   0  0  0  0  0  0  0  0  0  0  0  0
  -20.5305    1.0009  -14.9593 C   0  0  0  0  0  0  0  0  0  0  0  0
  -18.8480    2.5996  -15.6070 N   0  0  0  0  0  0  0  0  0  0  0  0
  -17.6466    2.2144  -15.0486 C   0  0  0  0  0  0  0  0  0  0  0  0
  -17.4583    1.5750  -14.0207 O   0  0  0  0  0  0  0  0  0  0  0  0
  -18.8355    3.1206  -16.4650 H   0  0  0  0  0  0  0  0  0  0  0  0
  -16.4541    2.6843  -15.8211 C   0  0  0  0  0  0  0  0  0  0  0  0
  -15.5851    1.6926  -16.5639 C   0  0  0  0  0  0  0  0  0  0  0  0
  -15.0734    2.3387  -15.3108 C   0  0  0  0  0  0  0  0  0  0  0  0
  -28.5579   -2.6570   -8.3964 C   0  0  0  0  0  0  0  0  0  0  0  0
  -29.2581   -3.7892   -7.9664 C   0  0  0  0  0  0  0  0  0  0  0  0
  -29.7299   -3.9564   -6.6612 C   0  0  0  0  0  0  0  0  0  0  0  0
  -29.3620   -2.9810   -5.7270 C   0  0  0  0  0  0  0  0  0  0  0  0
  -28.5742   -1.8719   -6.0977 C   0  0  0  0  0  0  0  0  0  0  0  0
  -28.1842   -1.7132   -7.4437 C   0  0  0  0  0  0  0  0  0  0  0  0
  -30.5575   -5.1784   -6.2550 C   0  0  0  0  0  0  0  0  0  0  0  0
  -30.5880   -5.5321   -4.7511 C   0  0  0  0  0  0  0  0  0  0  0  0
  -29.2911   -6.1893   -4.2606 C   0  0  0  0  0  0  0  0  0  0  0  0
  -28.9061   -7.3745   -5.0456 N   0  0  0  0  0  0  0  0  0  0  0  0
  -28.8631   -7.0758   -6.4844 C   0  0  0  0  0  0  0  0  0  0  0  0
  -30.1622   -6.4585   -7.0079 C   0  0  0  0  0  0  0  0  0  0  0  0
  -27.6106   -7.9123   -4.5578 C   0  0  0  0  0  0  0  0  0  0  0  0
  -27.0427   -9.1992   -5.0945 C   0  0  0  0  0  0  0  0  0  0  0  0
  -27.6223   -9.1593   -3.7138 C   0  0  0  0  0  0  0  0  0  0  0  0
  -28.1463   -0.8590   -5.0639 C   0  0  0  0  0  0  0  0  0  0  0  0
  -29.1335    0.0083   -4.7042 F   0  0  0  0  0  0  0  0  0  0  0  0
  -27.7277   -1.4459   -3.9080 F   0  0  0  0  0  0  0  0  0  0  0  0
  -27.1073   -0.0875   -5.4873 F   0  0  0  0  0  0  0  0  0  0  0  0
  1  2  2  0  0  0
  2  3  1  0  0  0
  2  4  1  0  0  0
  3 28  1  0  0  0
  3  5  1  0  0  0
 28 29  1  0  0  0
 28 33  2  0  0  0
 29 30  2  0  0  0
 30 34  1  0  0  0
 30 31  1  0  0  0
 34 35  1  0  0  0
 34 39  1  0  0  0
 35 36  1  0  0  0
 36 37  1  0  0  0
 37 40  1  0  0  0
 37 38  1  0  0  0
 40 41  1  0  0  0
 40 42  1  0  0  0
 41 42  1  0  0  0
 38 39  1  0  0  0
 31 32  2  0  0  0
 32 43  1  0  0  0
 32 33  1  0  0  0
 43 44  1  0  0  0
 43 45  1  0  0  0
 43 46  1  0  0  0
  4  7  1  0  0  0
  4  6  1  0  0  0
  7  8  1  0  0  0
  7 13  2  0  0  0
  8  9  2  0  0  0
  9 10  1  0  0  0
 10 14  1  0  0  0
 10 11  2  0  0  0
 14 15  1  0  0  0
 15 16  1  0  0  0
 15 20  2  0  0  0
 16 17  2  0  0  0
 17 18  1  0  0  0
 18 19  2  0  0  0
 19 21  1  0  0  0
 19 20  1  0  0  0
 21 22  1  0  0  0
 21 24  1  0  0  0
 22 23  2  0  0  0
 22 25  1  0  0  0
 25 26  1  0  0  0
 25 27  1  0  0  0
 26 27  1  0  0  0
 11 12  1  0  0  0
 11 13  1  0  0  0
M  END
> <minimizedAffinity>
-12.90576

$$$$
