CHEMBL4088552


 30 33  0  0  0  0  0  0  0  0999 V2000
  -26.3580   -1.3402  -11.5085 C   0  0  0  0  0  0  0  0  0  0  0  0
  -25.7393   -1.4979  -10.2680 C   0  0  0  0  0  0  0  0  0  0  0  0
  -26.4720   -1.9217   -9.1560 C   0  0  0  0  0  0  0  0  0  0  0  0
  -27.8552   -2.1572   -9.2330 C   0  0  0  0  0  0  0  0  0  0  0  0
  -28.4668   -1.8521  -10.4597 C   0  0  0  0  0  0  0  0  0  0  0  0
  -27.7347   -1.4842  -11.5965 C   0  0  0  0  0  0  0  0  0  0  0  0
  -28.6193   -2.6631   -8.0720 C   0  0  0  0  0  0  0  0  0  0  0  0
  -29.1871   -3.9599   -8.0960 C   0  0  0  0  0  0  0  0  0  0  0  0
  -29.9023   -4.4454   -7.0120 C   0  0  0  0  0  0  0  0  0  0  0  0
  -30.1173   -3.7778   -5.8677 N   0  0  0  0  0  0  0  0  0  0  0  0
  -29.5769   -2.5468   -5.8722 C   0  0  0  0  0  0  0  0  0  0  0  0
  -29.6587   -1.6761   -4.8321 N   0  0  0  0  0  0  0  0  0  0  0  0
  -29.0625   -0.4997   -5.0568 N   0  0  0  0  0  0  0  0  0  0  0  0
  -28.5896   -0.6136   -6.3100 C   0  0  0  0  0  0  0  0  0  0  0  0
  -27.9015    0.5799   -6.8704 C   0  0  0  0  0  0  0  0  0  0  0  0
  -28.8494   -1.9135   -6.8788 C   0  0  0  0  0  0  0  0  0  0  0  0
  -30.1158   -1.8379   -3.9446 H   0  0  0  0  0  0  0  0  0  0  0  0
  -23.9469   -0.0273  -13.8652 N   0  0  0  0  0  0  0  0  0  0  0  0
  -24.5914   -0.1507  -12.6502 C   0  0  0  0  0  0  0  0  0  0  0  0
  -24.3187    0.4781  -11.6341 O   0  0  0  0  0  0  0  0  0  0  0  0
  -25.6097   -1.0978  -12.6873 N   0  0  0  0  0  0  0  0  0  0  0  0
  -24.3917   -0.4334  -14.6701 H   0  0  0  0  0  0  0  0  0  0  0  0
  -25.4125   -1.8944  -13.2708 H   0  0  0  0  0  0  0  0  0  0  0  0
  -19.3061    3.2241  -14.8481 C   0  0  0  0  0  0  0  0  0  0  0  0
  -20.5107    2.3679  -14.5899 C   0  0  0  0  0  0  0  0  0  0  0  0
  -21.7066    2.9645  -14.2133 C   0  0  0  0  0  0  0  0  0  0  0  0
  -22.8361    2.1846  -13.9584 C   0  0  0  0  0  0  0  0  0  0  0  0
  -22.8078    0.7964  -14.0972 C   0  0  0  0  0  0  0  0  0  0  0  0
  -21.6040    0.1930  -14.4752 C   0  0  0  0  0  0  0  0  0  0  0  0
  -20.4592    0.9762  -14.7206 C   0  0  0  0  0  0  0  0  0  0  0  0
 24 25  1  0  0  0
 25 26  1  0  0  0
 25 30  2  0  0  0
 26 27  2  0  0  0
 27 28  1  0  0  0
 28 18  1  0  0  0
 28 29  2  0  0  0
 18 19  1  0  0  0
 18 22  1  0  0  0
 19 20  2  0  0  0
 19 21  1  0  0  0
 21  1  1  0  0  0
 21 23  1  0  0  0
  1  2  1  0  0  0
  1  6  2  0  0  0
  2  3  2  0  0  0
  3  4  1  0  0  0
  4  7  1  0  0  0
  4  5  2  0  0  0
  7  8  1  0  0  0
  7 16  2  0  0  0
  8  9  2  0  0  0
  9 10  1  0  0  0
 10 11  2  0  0  0
 11 12  1  0  0  0
 11 16  1  0  0  0
 12 13  1  0  0  0
 12 17  1  0  0  0
 13 14  2  0  0  0
 14 15  1  0  0  0
 14 16  1  0  0  0
  5  6  1  0  0  0
 29 30  1  0  0  0
M  END
> <minimizedAffinity>
-9.01454

$$$$
