CHEMBL218252


 43 49  0  0  0  0  0  0  0  0999 V2000
  -14.2933   -6.4067  -13.5611 N   0  0  0  0  0  0  0  0  0  0  0  0
  -14.7108   -5.1105  -13.1871 C   0  0  0  0  0  0  0  0  0  0  0  0
  -15.4813   -4.6606  -12.1050 C   0  0  0  0  0  0  0  0  0  0  0  0
  -15.8172   -3.2978  -12.0422 C   0  0  0  0  0  0  0  0  0  0  0  0
  -15.3764   -2.3765  -12.9939 C   0  0  0  0  0  0  0  0  0  0  0  0
  -14.6344   -2.8428  -14.0788 C   0  0  0  0  0  0  0  0  0  0  0  0
  -14.3236   -4.2086  -14.1816 C   0  0  0  0  0  0  0  0  0  0  0  0
  -13.7798   -5.0582  -15.1292 C   0  0  0  0  0  0  0  0  0  0  0  0
  -13.6917   -4.7056  -16.4816 C   0  0  0  0  0  0  0  0  0  0  0  0
  -13.6729   -5.7855  -17.3877 C   0  0  0  0  0  0  0  0  0  0  0  0
  -13.5895   -7.1333  -16.9978 C   0  0  0  0  0  0  0  0  0  0  0  0
  -13.0513   -7.2964  -15.6777 C   0  0  0  0  0  0  0  0  0  0  0  0
  -13.5732   -6.3593  -14.7549 C   0  0  0  0  0  0  0  0  0  0  0  0
  -11.5090   -7.6966  -15.7290 C   0  0  0  0  0  0  0  0  0  0  0  0
  -10.8542   -7.6309  -17.1743 C   0  0  0  0  0  0  0  0  0  0  0  0
  -11.7727   -8.3595  -18.0901 C   0  0  0  0  0  0  0  0  0  0  0  0
  -11.5173   -9.4466  -18.8162 N   0  0  0  0  0  0  0  0  0  0  0  0
  -12.7631   -9.9114  -19.0939 N   0  0  0  0  0  0  0  0  0  0  0  0
  -12.9225  -11.1714  -19.7777 C   0  0  0  0  0  0  0  0  0  0  0  0
  -13.7666   -9.1991  -18.4824 C   0  0  0  0  0  0  0  0  0  0  0  0
  -13.1443   -8.0917  -17.9728 C   0  0  0  0  0  0  0  0  0  0  0  0
  -13.5932   -5.2242  -18.7174 C   0  0  0  0  0  0  0  0  0  0  0  0
  -13.5024   -5.7104  -19.8370 O   0  0  0  0  0  0  0  0  0  0  0  0
  -13.5757   -3.8485  -18.5110 N   0  0  0  0  0  0  0  0  0  0  0  0
  -13.6952   -3.4069  -17.1429 C   0  0  0  0  0  0  0  0  0  0  0  0
  -13.4418   -3.2349  -19.3007 H   0  0  0  0  0  0  0  0  0  0  0  0
  -15.6438   -0.9859  -12.9477 N   0  0  0  0  0  0  0  0  0  0  0  0
  -16.4703   -0.3068  -13.8194 C   0  0  0  0  0  0  0  0  0  0  0  0
  -17.0645   -0.8380  -14.7481 O   0  0  0  0  0  0  0  0  0  0  0  0
  -16.5704    1.0426  -13.5160 N   0  0  0  0  0  0  0  0  0  0  0  0
  -15.3589   -0.4886  -12.1174 H   0  0  0  0  0  0  0  0  0  0  0  0
  -15.7749    1.4869  -13.0727 H   0  0  0  0  0  0  0  0  0  0  0  0
  -17.4596    1.9154  -14.1984 C   0  0  0  0  0  0  0  0  0  0  0  0
  -18.8221    1.9864  -13.8880 C   0  0  0  0  0  0  0  0  0  0  0  0
  -19.7140    2.7342  -14.6655 C   0  0  0  0  0  0  0  0  0  0  0  0
  -21.1859    2.6529  -14.3846 C   0  0  0  0  0  0  0  0  0  0  0  0
  -19.2179    3.4815  -15.7370 C   0  0  0  0  0  0  0  0  0  0  0  0
  -17.8468    3.4925  -16.0075 C   0  0  0  0  0  0  0  0  0  0  0  0
  -16.9798    2.7147  -15.2390 C   0  0  0  0  0  0  0  0  0  0  0  0
  -15.6713    2.7070  -15.5376 F   0  0  0  0  0  0  0  0  0  0  0  0
  -14.7299   -7.6139  -12.8705 C   0  0  0  0  0  0  0  0  0  0  0  0
  -12.9174   -9.4395  -12.5305 C   0  0  0  0  0  0  0  0  0  0  0  0
  -13.6870   -8.2605  -11.9445 C   0  0  0  0  0  0  0  0  0  0  0  0
 42 43  1  0  0  0
 43 41  1  0  0  0
 41  1  1  0  0  0
  1  2  1  0  0  0
  1 13  1  0  0  0
  2  3  1  0  0  0
  2  7  2  0  0  0
  3  4  2  0  0  0
  4  5  1  0  0  0
  5 27  1  0  0  0
  5  6  2  0  0  0
 27 28  1  0  0  0
 27 31  1  0  0  0
 28 29  2  0  0  0
 28 30  1  0  0  0
 30 33  1  0  0  0
 30 32  1  0  0  0
 33 34  1  0  0  0
 33 39  2  0  0  0
 34 35  2  0  0  0
 35 36  1  0  0  0
 35 37  1  0  0  0
 37 38  2  0  0  0
 38 39  1  0  0  0
 39 40  1  0  0  0
  6  7  1  0  0  0
  7  8  1  0  0  0
  8  9  1  0  0  0
  8 13  2  0  0  0
  9 10  2  0  0  0
  9 25  1  0  0  0
 10 11  1  0  0  0
 10 22  1  0  0  0
 11 12  2  0  0  0
 11 21  1  0  0  0
 12 13  1  0  0  0
 12 14  1  0  0  0
 14 15  1  0  0  0
 15 16  1  0  0  0
 16 17  2  0  0  0
 16 21  1  0  0  0
 17 18  1  0  0  0
 18 19  1  0  0  0
 18 20  1  0  0  0
 20 21  2  0  0  0
 22 23  2  0  0  0
 22 24  1  0  0  0
 24 25  1  0  0  0
 24 26  1  0  0  0
M  END
> <minimizedAffinity>
-8.08346

$$$$
