CHEMBL3763360


 40 44  0  0  0  0  0  0  0  0999 V2000
  -28.2515  -11.2744   -7.5845 C   0  0  0  0  0  0  0  0  0  0  0  0
  -27.2124  -10.7955   -6.7912 C   0  0  0  0  0  0  0  0  0  0  0  0
  -27.5471  -10.2255   -5.5445 C   0  0  0  0  0  0  0  0  0  0  0  0
  -26.6824   -9.6312   -4.6152 C   0  0  0  0  0  0  0  0  0  0  0  0
  -26.9376   -8.3850   -4.2129 N   0  0  0  0  0  0  0  0  0  0  0  0
  -28.2219   -8.0364   -4.2917 C   0  0  0  0  0  0  0  0  0  0  0  0
  -29.2312   -8.8669   -4.6117 N   0  0  0  0  0  0  0  0  0  0  0  0
  -28.8819   -9.9675   -5.2852 C   0  0  0  0  0  0  0  0  0  0  0  0
  -29.8399  -10.7876   -5.8709 C   0  0  0  0  0  0  0  0  0  0  0  0
  -29.5217  -11.4801   -7.0297 C   0  0  0  0  0  0  0  0  0  0  0  0
  -28.4602  -10.1934   -9.8054 C   0  0  0  0  0  0  0  0  0  0  0  0
  -28.1993  -10.2187  -11.0068 O   0  0  0  0  0  0  0  0  0  0  0  0
  -28.1286  -11.2624   -8.9912 N   0  0  0  0  0  0  0  0  0  0  0  0
  -27.4896  -11.9071   -9.4330 H   0  0  0  0  0  0  0  0  0  0  0  0
  -28.3091   -7.9921   -8.6727 C   0  0  0  0  0  0  0  0  0  0  0  0
  -29.0682   -8.9793   -9.1841 C   0  0  0  0  0  0  0  0  0  0  0  0
  -29.8982   -4.5261   -6.6237 C   0  0  0  0  0  0  0  0  0  0  0  0
  -28.7536   -4.4084   -7.4077 C   0  0  0  0  0  0  0  0  0  0  0  0
  -28.2238   -5.5287   -8.0692 C   0  0  0  0  0  0  0  0  0  0  0  0
  -28.8158   -6.7875   -7.9737 C   0  0  0  0  0  0  0  0  0  0  0  0
  -29.9846   -6.9020   -7.1866 C   0  0  0  0  0  0  0  0  0  0  0  0
  -30.5125   -5.7799   -6.5229 C   0  0  0  0  0  0  0  0  0  0  0  0
  -29.7078   -2.7887   -5.0099 C   0  0  0  0  0  0  0  0  0  0  0  0
  -30.5074   -3.5174   -5.9353 O   0  0  0  0  0  0  0  0  0  0  0  0
  -26.1563  -10.5315   -3.6043 N   0  0  0  0  0  0  0  0  0  0  0  0
  -26.3388  -10.0632   -2.7153 H   0  0  0  0  0  0  0  0  0  0  0  0
  -24.8212  -11.0339   -3.5700 C   0  0  0  0  0  0  0  0  0  0  0  0
  -23.9453  -10.8646   -4.6637 C   0  0  0  0  0  0  0  0  0  0  0  0
  -22.5807  -11.1626   -4.5413 C   0  0  0  0  0  0  0  0  0  0  0  0
  -22.0865  -11.6165   -3.3250 C   0  0  0  0  0  0  0  0  0  0  0  0
  -20.7659  -11.8120   -3.1912 F   0  0  0  0  0  0  0  0  0  0  0  0
  -22.9521  -11.8355   -2.2525 C   0  0  0  0  0  0  0  0  0  0  0  0
  -22.3470  -12.3675   -0.7313 Cl  0  0  0  0  0  0  0  0  0  0  0  0
  -24.3168  -11.5712   -2.3837 C   0  0  0  0  0  0  0  0  0  0  0  0
  -30.3339  -12.3022   -7.7503 O   0  0  0  0  0  0  0  0  0  0  0  0
  -31.7257  -12.0686   -7.8154 C   0  0  0  0  0  0  0  0  0  0  0  0
  -32.3876  -12.4232   -6.5046 C   0  0  0  0  0  0  0  0  0  0  0  0
  -33.5909  -11.5116   -6.4840 C   0  0  0  0  0  0  0  0  0  0  0  0
  -33.2402  -10.3291   -7.2137 O   0  0  0  0  0  0  0  0  0  0  0  0
  -31.9983  -10.5695   -7.8893 C   0  0  0  0  0  0  0  0  0  0  0  0
 23 24  1  0  0  0
 24 17  1  0  0  0
 17 18  1  0  0  0
 17 22  2  0  0  0
 18 19  2  0  0  0
 19 20  1  0  0  0
 20 15  1  0  0  0
 20 21  2  0  0  0
 15 16  2  0  0  0
 16 11  1  0  0  0
 11 12  2  0  0  0
 11 13  1  0  0  0
 13  1  1  0  0  0
 13 14  1  0  0  0
  1  2  1  0  0  0
  1 10  2  0  0  0
  2  3  2  0  0  0
  3  4  1  0  0  0
  3  8  1  0  0  0
  4 25  1  0  0  0
  4  5  2  0  0  0
 25 27  1  0  0  0
 25 26  1  0  0  0
 27 28  1  0  0  0
 27 34  2  0  0  0
 28 29  2  0  0  0
 29 30  1  0  0  0
 30 31  1  0  0  0
 30 32  2  0  0  0
 32 33  1  0  0  0
 32 34  1  0  0  0
  5  6  1  0  0  0
  6  7  2  0  0  0
  7  8  1  0  0  0
  8  9  2  0  0  0
  9 10  1  0  0  0
 10 35  1  0  0  0
 36 37  1  0  0  0
 36 40  1  0  0  0
 36 35  1  0  0  0
 37 38  1  0  0  0
 38 39  1  0  0  0
 39 40  1  0  0  0
 21 22  1  0  0  0
M  END
> <minimizedAffinity>
-8.19358

$$$$
