CHEMBL3219510


 30 32  0  0  0  0  0  0  0  0999 V2000
  -28.2189   -1.3480   -5.6539 C   0  0  0  0  0  0  0  0  0  0  0  0
  -29.0334   -1.8799   -4.6243 C   0  0  0  0  0  0  0  0  0  0  0  0
  -29.6689   -3.1064   -4.7505 C   0  0  0  0  0  0  0  0  0  0  0  0
  -30.4296   -3.5670   -3.7253 N   0  0  0  0  0  0  0  0  0  0  0  0
  -31.0391   -4.7717   -3.7960 C   0  0  0  0  0  0  0  0  0  0  0  0
  -30.8911   -5.5418   -4.8988 N   0  0  0  0  0  0  0  0  0  0  0  0
  -30.1543   -5.1352   -5.9646 C   0  0  0  0  0  0  0  0  0  0  0  0
  -29.5166   -3.8688   -5.9206 C   0  0  0  0  0  0  0  0  0  0  0  0
  -28.7232   -3.3561   -6.9605 C   0  0  0  0  0  0  0  0  0  0  0  0
  -28.0731   -2.1136   -6.8562 C   0  0  0  0  0  0  0  0  0  0  0  0
  -30.0756   -5.9826   -7.1127 N   0  0  0  0  0  0  0  0  0  0  0  0
  -30.1147   -5.5649   -8.0515 H   0  0  0  0  0  0  0  0  0  0  0  0
  -29.9562   -7.4008   -7.0299 C   0  0  0  0  0  0  0  0  0  0  0  0
  -28.7527   -8.0297   -6.6493 C   0  0  0  0  0  0  0  0  0  0  0  0
  -28.6419   -9.4176   -6.6523 C   0  0  0  0  0  0  0  0  0  0  0  0
  -29.7279  -10.2067   -7.0229 C   0  0  0  0  0  0  0  0  0  0  0  0
  -30.9455   -9.6110   -7.3867 C   0  0  0  0  0  0  0  0  0  0  0  0
  -31.0488   -8.2065   -7.4020 C   0  0  0  0  0  0  0  0  0  0  0  0
  -32.1761  -10.5228   -7.7728 B   0  0  0  0  0  0  0  0  0  0  0  0
  -33.3523  -10.6078   -6.9018 O   0  0  0  0  0  0  0  0  0  0  0  0
  -32.1026  -11.3815   -8.9568 O   0  0  0  0  0  0  0  0  0  0  0  0
  -33.6761   -9.6813   -6.7803 H   0  0  0  0  0  0  0  0  0  0  0  0
  -31.4361  -12.0793   -8.7327 H   0  0  0  0  0  0  0  0  0  0  0  0
  -27.3553   -1.7616   -7.9613 O   0  0  0  0  0  0  0  0  0  0  0  0
  -27.5368   -1.9897   -9.3074 C   0  0  0  0  0  0  0  0  0  0  0  0
  -27.6110   -0.1350   -5.4763 O   0  0  0  0  0  0  0  0  0  0  0  0
  -28.3127    1.0555   -5.3042 C   0  0  0  0  0  0  0  0  0  0  0  0
  -29.2525    1.3501   -6.4618 C   0  0  0  0  0  0  0  0  0  0  0  0
  -31.3956    2.0415   -6.9002 C   0  0  0  0  0  0  0  0  0  0  0  0
  -30.5841    1.3219   -6.0013 O   0  0  0  0  0  0  0  0  0  0  0  0
 29 30  1  0  0  0
 30 28  1  0  0  0
 28 27  1  0  0  0
 27 26  1  0  0  0
 26  1  1  0  0  0
  1  2  1  0  0  0
  1 10  2  0  0  0
  2  3  2  0  0  0
  3  4  1  0  0  0
  3  8  1  0  0  0
  4  5  2  0  0  0
  5  6  1  0  0  0
  6  7  2  0  0  0
  7 11  1  0  0  0
  7  8  1  0  0  0
 11 13  1  0  0  0
 11 12  1  0  0  0
 13 14  1  0  0  0
 13 18  2  0  0  0
 14 15  2  0  0  0
 15 16  1  0  0  0
 16 17  2  0  0  0
 17 19  1  0  0  0
 17 18  1  0  0  0
 19 20  1  0  0  0
 19 21  1  0  0  0
 20 22  1  0  0  0
 21 23  1  0  0  0
  8  9  2  0  0  0
  9 10  1  0  0  0
 10 24  1  0  0  0
 24 25  1  0  0  0
M  END
> <minimizedAffinity>
-7.88370

$$$$
