CHEMBL364411


 24 27  0  0  0  0  0  0  0  0999 V2000
  -19.7961    1.0963  -14.3347 C   0  0  0  0  0  0  0  0  0  0  0  0
  -20.9017    1.8584  -14.2739 C   0  0  0  0  0  0  0  0  0  0  0  0
  -21.0789    3.2822  -14.6625 C   0  0  0  0  0  0  0  0  0  0  0  0
  -20.4097    3.9952  -15.3816 O   0  0  0  0  0  0  0  0  0  0  0  0
  -22.2738    3.6257  -14.0513 N   0  0  0  0  0  0  0  0  0  0  0  0
  -22.9855    2.5733  -13.5343 N   0  0  0  0  0  0  0  0  0  0  0  0
  -22.2316    1.5076  -13.6921 C   0  0  0  0  0  0  0  0  0  0  0  0
  -22.7050    4.5349  -14.1686 H   0  0  0  0  0  0  0  0  0  0  0  0
  -16.1025    3.1252  -16.9162 C   0  0  0  0  0  0  0  0  0  0  0  0
  -16.8010    2.3702  -15.9010 N   0  0  0  0  0  0  0  0  0  0  0  0
  -18.1622    2.3180  -15.7812 C   0  0  0  0  0  0  0  0  0  0  0  0
  -18.4754    1.4446  -14.7654 C   0  0  0  0  0  0  0  0  0  0  0  0
  -17.2351    1.0403  -14.1651 C   0  0  0  0  0  0  0  0  0  0  0  0
  -16.8817    0.2332  -13.0598 C   0  0  0  0  0  0  0  0  0  0  0  0
  -15.5328    0.0362  -12.7418 C   0  0  0  0  0  0  0  0  0  0  0  0
  -14.5288    0.6179  -13.5133 C   0  0  0  0  0  0  0  0  0  0  0  0
  -14.8465    1.4184  -14.6122 C   0  0  0  0  0  0  0  0  0  0  0  0
  -16.2036    1.6241  -14.9108 C   0  0  0  0  0  0  0  0  0  0  0  0
  -22.7120    0.1502  -13.3961 C   0  0  0  0  0  0  0  0  0  0  0  0
  -22.4423   -0.4177  -12.1567 C   0  0  0  0  0  0  0  0  0  0  0  0
  -22.9510   -1.6190  -11.7731 N   0  0  0  0  0  0  0  0  0  0  0  0
  -23.7479   -2.2233  -12.6813 C   0  0  0  0  0  0  0  0  0  0  0  0
  -24.0143   -1.6619  -13.9188 C   0  0  0  0  0  0  0  0  0  0  0  0
  -23.5073   -0.4676  -14.3022 N   0  0  0  0  0  0  0  0  0  0  0  0
  9 10  1  0  0  0
 10 11  1  0  0  0
 10 18  1  0  0  0
 11 12  2  0  0  0
 12  1  1  0  0  0
 12 13  1  0  0  0
  1  2  2  0  0  0
  2  3  1  0  0  0
  2  7  1  0  0  0
  3  4  2  0  0  0
  3  5  1  0  0  0
  5  6  1  0  0  0
  5  8  1  0  0  0
  6  7  2  0  0  0
  7 19  1  0  0  0
 19 20  1  0  0  0
 19 24  2  0  0  0
 20 21  2  0  0  0
 21 22  1  0  0  0
 22 23  2  0  0  0
 23 24  1  0  0  0
 13 14  1  0  0  0
 13 18  2  0  0  0
 14 15  2  0  0  0
 15 16  1  0  0  0
 16 17  2  0  0  0
 17 18  1  0  0  0
M  END
> <minimizedAffinity>
-8.12109

$$$$
