CHEMBL387174


 41 46  0  0  0  0  0  0  0  0999 V2000
  -28.1606   -3.7063   -8.2038 N   0  0  0  0  0  0  0  0  0  0  0  0
  -27.5021   -3.0156   -9.2575 C   0  0  0  0  0  0  0  0  0  0  0  0
  -26.8339   -3.4736  -10.4094 C   0  0  0  0  0  0  0  0  0  0  0  0
  -26.2486   -2.5322  -11.2849 C   0  0  0  0  0  0  0  0  0  0  0  0
  -26.3154   -1.1566  -11.0727 C   0  0  0  0  0  0  0  0  0  0  0  0
  -26.9637   -0.7210   -9.9085 C   0  0  0  0  0  0  0  0  0  0  0  0
  -27.5391   -1.6420   -8.9880 C   0  0  0  0  0  0  0  0  0  0  0  0
  -28.1428   -1.6133   -7.7391 C   0  0  0  0  0  0  0  0  0  0  0  0
  -28.2031   -0.4276   -6.9838 C   0  0  0  0  0  0  0  0  0  0  0  0
  -28.5256   -0.6008   -5.6392 C   0  0  0  0  0  0  0  0  0  0  0  0
  -28.8782   -1.8139   -5.0707 C   0  0  0  0  0  0  0  0  0  0  0  0
  -29.2299   -2.8734   -5.9426 C   0  0  0  0  0  0  0  0  0  0  0  0
  -28.6008   -2.8074   -7.2232 C   0  0  0  0  0  0  0  0  0  0  0  0
  -30.2114   -3.8632   -5.2894 C   0  0  0  0  0  0  0  0  0  0  0  0
  -29.7326   -4.2976   -3.9268 C   0  0  0  0  0  0  0  0  0  0  0  0
  -28.9486   -3.4867   -3.1928 C   0  0  0  0  0  0  0  0  0  0  0  0
  -28.7920   -2.0399   -3.5857 C   0  0  0  0  0  0  0  0  0  0  0  0
  -28.4317    0.6766   -4.9855 C   0  0  0  0  0  0  0  0  0  0  0  0
  -28.6305    1.0372   -3.8352 O   0  0  0  0  0  0  0  0  0  0  0  0
  -28.0549    1.5524   -5.9964 N   0  0  0  0  0  0  0  0  0  0  0  0
  -27.8415    0.9532   -7.2941 C   0  0  0  0  0  0  0  0  0  0  0  0
  -27.9407    2.5332   -5.7889 H   0  0  0  0  0  0  0  0  0  0  0  0
  -25.7702   -0.1557  -11.9455 N   0  0  0  0  0  0  0  0  0  0  0  0
  -24.4228    0.0306  -12.2190 C   0  0  0  0  0  0  0  0  0  0  0  0
  -23.5422   -0.6389  -11.6971 O   0  0  0  0  0  0  0  0  0  0  0  0
  -24.1691    1.0626  -13.1233 N   0  0  0  0  0  0  0  0  0  0  0  0
  -26.4206    0.4379  -12.4314 H   0  0  0  0  0  0  0  0  0  0  0  0
  -24.8507    1.7925  -13.2081 H   0  0  0  0  0  0  0  0  0  0  0  0
  -22.8446    1.3758  -13.5959 C   0  0  0  0  0  0  0  0  0  0  0  0
  -22.3660    2.6847  -13.6038 C   0  0  0  0  0  0  0  0  0  0  0  0
  -21.1520    3.0036  -14.2384 C   0  0  0  0  0  0  0  0  0  0  0  0
  -20.3828    2.0109  -14.8401 C   0  0  0  0  0  0  0  0  0  0  0  0
  -19.1582    2.3866  -15.6285 C   0  0  0  0  0  0  0  0  0  0  0  0
  -20.7914    0.6767  -14.7162 C   0  0  0  0  0  0  0  0  0  0  0  0
  -22.0173    0.3595  -14.0939 C   0  0  0  0  0  0  0  0  0  0  0  0
  -30.2058   -5.5090   -3.2219 C   0  0  0  0  0  0  0  0  0  0  0  0
  -29.5123   -6.5490   -2.9101 N   0  0  0  0  0  0  0  0  0  0  0  0
  -28.5379   -6.4661   -3.2036 H   0  0  0  0  0  0  0  0  0  0  0  0
  -28.1733   -5.1635   -8.1120 C   0  0  0  0  0  0  0  0  0  0  0  0
  -29.4300   -7.0313   -6.8783 C   0  0  0  0  0  0  0  0  0  0  0  0
  -29.5311   -5.7930   -7.7551 C   0  0  0  0  0  0  0  0  0  0  0  0
 40 41  1  0  0  0
 41 39  1  0  0  0
 39  1  1  0  0  0
  1  2  1  0  0  0
  1 13  1  0  0  0
  2  3  1  0  0  0
  2  7  2  0  0  0
  3  4  2  0  0  0
  4  5  1  0  0  0
  5 23  1  0  0  0
  5  6  2  0  0  0
 23 24  1  0  0  0
 23 27  1  0  0  0
 24 25  2  0  0  0
 24 26  1  0  0  0
 26 29  1  0  0  0
 26 28  1  0  0  0
 29 30  1  0  0  0
 29 35  2  0  0  0
 30 31  2  0  0  0
 31 32  1  0  0  0
 32 33  1  0  0  0
 32 34  2  0  0  0
 34 35  1  0  0  0
  6  7  1  0  0  0
  7  8  1  0  0  0
  8  9  1  0  0  0
  8 13  2  0  0  0
  9 10  2  0  0  0
  9 21  1  0  0  0
 10 11  1  0  0  0
 10 18  1  0  0  0
 11 12  2  0  0  0
 11 17  1  0  0  0
 12 13  1  0  0  0
 12 14  1  0  0  0
 14 15  1  0  0  0
 15 36  1  0  0  0
 15 16  2  0  0  0
 36 37  2  0  0  0
 37 38  1  0  0  0
 16 17  1  0  0  0
 18 19  2  0  0  0
 18 20  1  0  0  0
 20 21  1  0  0  0
 20 22  1  0  0  0
M  END
> <minimizedAffinity>
-7.00367

$$$$
