CHEMBL3971285


 44 48  0  0  0  0  0  0  0  0999 V2000
  -15.0756   -2.6441  -12.9029 O   0  0  0  0  0  0  0  0  0  0  0  0
  -14.0624   -1.9644  -12.9860 C   0  0  0  0  0  0  0  0  0  0  0  0
  -12.8399   -2.3222  -12.4425 N   0  0  0  0  0  0  0  0  0  0  0  0
  -14.0097   -0.7151  -13.5938 N   0  0  0  0  0  0  0  0  0  0  0  0
  -12.1116   -1.6247  -12.4427 H   0  0  0  0  0  0  0  0  0  0  0  0
  -13.1037   -0.2861  -13.6931 H   0  0  0  0  0  0  0  0  0  0  0  0
  -15.1078   -0.0304  -14.1667 C   0  0  0  0  0  0  0  0  0  0  0  0
  -16.3808   -0.0194  -13.5935 C   0  0  0  0  0  0  0  0  0  0  0  0
  -17.4459    0.6345  -14.2103 C   0  0  0  0  0  0  0  0  0  0  0  0
  -17.2426    1.3881  -15.3658 C   0  0  0  0  0  0  0  0  0  0  0  0
  -15.9724    1.3806  -15.9419 C   0  0  0  0  0  0  0  0  0  0  0  0
  -15.7402    2.0724  -17.0679 F   0  0  0  0  0  0  0  0  0  0  0  0
  -14.9122    0.6727  -15.3587 C   0  0  0  0  0  0  0  0  0  0  0  0
  -18.2404    2.1235  -15.9795 O   0  0  0  0  0  0  0  0  0  0  0  0
  -19.4690    2.2381  -15.3487 C   0  0  0  0  0  0  0  0  0  0  0  0
  -19.9467    3.4490  -14.8544 C   0  0  0  0  0  0  0  0  0  0  0  0
  -21.1227    3.4348  -14.1462 C   0  0  0  0  0  0  0  0  0  0  0  0
  -21.8615    2.3302  -13.9826 N   0  0  0  0  0  0  0  0  0  0  0  0
  -21.4535    1.1732  -14.5316 C   0  0  0  0  0  0  0  0  0  0  0  0
  -20.2514    1.0824  -15.2278 C   0  0  0  0  0  0  0  0  0  0  0  0
  -22.2742    0.0366  -14.3692 N   0  0  0  0  0  0  0  0  0  0  0  0
  -22.6481   -0.4422  -13.1198 C   0  0  0  0  0  0  0  0  0  0  0  0
  -22.3353    0.0007  -12.0327 O   0  0  0  0  0  0  0  0  0  0  0  0
  -22.5862   -0.4412  -15.2015 H   0  0  0  0  0  0  0  0  0  0  0  0
  -23.5126   -1.6659  -13.1610 C   0  0  0  0  0  0  0  0  0  0  0  0
  -25.0026   -1.4981  -13.4033 C   0  0  0  0  0  0  0  0  0  0  0  0
  -24.5101   -1.8902  -12.0423 C   0  0  0  0  0  0  0  0  0  0  0  0
  -12.5761   -3.5100  -11.7200 C   0  0  0  0  0  0  0  0  0  0  0  0
  -12.5222   -4.7802  -12.3115 C   0  0  0  0  0  0  0  0  0  0  0  0
  -12.2941   -5.9521  -11.5781 C   0  0  0  0  0  0  0  0  0  0  0  0
  -12.1096   -5.8060  -10.2017 C   0  0  0  0  0  0  0  0  0  0  0  0
  -12.1006   -4.5482   -9.5814 C   0  0  0  0  0  0  0  0  0  0  0  0
  -12.3500   -3.4024  -10.3488 C   0  0  0  0  0  0  0  0  0  0  0  0
  -12.2455   -7.1888  -12.1872 N   0  0  0  0  0  0  0  0  0  0  0  0
  -13.4228   -7.7903  -12.8225 C   0  0  0  0  0  0  0  0  0  0  0  0
  -13.6719   -9.1693  -12.2253 C   0  0  0  0  0  0  0  0  0  0  0  0
  -12.4068  -10.0136  -12.2868 C   0  0  0  0  0  0  0  0  0  0  0  0
  -12.1138  -10.2663  -13.5950 F   0  0  0  0  0  0  0  0  0  0  0  0
  -11.2158   -9.3125  -11.6535 C   0  0  0  0  0  0  0  0  0  0  0  0
  -11.0026   -7.9500  -12.3004 C   0  0  0  0  0  0  0  0  0  0  0  0
  -11.7623   -4.4350   -8.1201 C   0  0  0  0  0  0  0  0  0  0  0  0
  -11.4606   -3.1672   -7.7224 F   0  0  0  0  0  0  0  0  0  0  0  0
  -12.7961   -4.8349   -7.3280 F   0  0  0  0  0  0  0  0  0  0  0  0
  -10.6978   -5.2031   -7.7618 F   0  0  0  0  0  0  0  0  0  0  0  0
  1  2  2  0  0  0
  2  3  1  0  0  0
  2  4  1  0  0  0
  3 28  1  0  0  0
  3  5  1  0  0  0
 28 29  1  0  0  0
 28 33  2  0  0  0
 29 30  2  0  0  0
 30 34  1  0  0  0
 30 31  1  0  0  0
 34 35  1  0  0  0
 34 40  1  0  0  0
 35 36  1  0  0  0
 36 37  1  0  0  0
 37 38  1  0  0  0
 37 39  1  0  0  0
 39 40  1  0  0  0
 31 32  2  0  0  0
 32 41  1  0  0  0
 32 33  1  0  0  0
 41 42  1  0  0  0
 41 43  1  0  0  0
 41 44  1  0  0  0
  4  7  1  0  0  0
  4  6  1  0  0  0
  7  8  1  0  0  0
  7 13  2  0  0  0
  8  9  2  0  0  0
  9 10  1  0  0  0
 10 14  1  0  0  0
 10 11  2  0  0  0
 14 15  1  0  0  0
 15 16  1  0  0  0
 15 20  2  0  0  0
 16 17  2  0  0  0
 17 18  1  0  0  0
 18 19  2  0  0  0
 19 21  1  0  0  0
 19 20  1  0  0  0
 21 22  1  0  0  0
 21 24  1  0  0  0
 22 23  2  0  0  0
 22 25  1  0  0  0
 25 26  1  0  0  0
 25 27  1  0  0  0
 26 27  1  0  0  0
 11 12  1  0  0  0
 11 13  1  0  0  0
M  END
> <minimizedAffinity>
-9.87574

$$$$
