CHEMBL248393


 36 40  0  0  0  0  0  0  0  0999 V2000
  -18.3671    1.3719  -15.2294 C   0  0  0  0  0  0  0  0  0  0  0  0
  -16.9892    1.1285  -15.2619 C   0  0  0  0  0  0  0  0  0  0  0  0
  -16.0295    2.1587  -15.4754 C   0  0  0  0  0  0  0  0  0  0  0  0
  -14.6007    1.9588  -15.4497 C   0  0  0  0  0  0  0  0  0  0  0  0
  -13.7966    3.0997  -15.5068 C   0  0  0  0  0  0  0  0  0  0  0  0
  -14.3918    4.3255  -15.7722 C   0  0  0  0  0  0  0  0  0  0  0  0
  -15.7226    4.5135  -15.8986 N   0  0  0  0  0  0  0  0  0  0  0  0
  -16.5220    3.4593  -15.7008 C   0  0  0  0  0  0  0  0  0  0  0  0
  -17.8855    3.6949  -15.6850 C   0  0  0  0  0  0  0  0  0  0  0  0
  -18.8107    2.6825  -15.4139 C   0  0  0  0  0  0  0  0  0  0  0  0
  -19.1728   -0.8164  -15.7702 C   0  0  0  0  0  0  0  0  0  0  0  0
  -19.3015    0.3904  -15.0272 O   0  0  0  0  0  0  0  0  0  0  0  0
  -14.1031    0.6403  -15.2409 N   0  0  0  0  0  0  0  0  0  0  0  0
  -13.1502    0.5361  -15.5719 H   0  0  0  0  0  0  0  0  0  0  0  0
  -14.3525   -0.2060  -14.0553 C   0  0  0  0  0  0  0  0  0  0  0  0
  -13.3602   -1.3279  -13.8817 C   0  0  0  0  0  0  0  0  0  0  0  0
  -14.8014   -1.6369  -14.2077 C   0  0  0  0  0  0  0  0  0  0  0  0
  -15.5041   -2.5330  -13.2166 C   0  0  0  0  0  0  0  0  0  0  0  0
  -16.0317   -3.7966  -13.5065 C   0  0  0  0  0  0  0  0  0  0  0  0
  -16.4844   -4.6459  -12.4877 C   0  0  0  0  0  0  0  0  0  0  0  0
  -16.4449   -4.2331  -11.1581 C   0  0  0  0  0  0  0  0  0  0  0  0
  -15.9879   -2.9588  -10.8491 C   0  0  0  0  0  0  0  0  0  0  0  0
  -15.5311   -2.1243  -11.8678 C   0  0  0  0  0  0  0  0  0  0  0  0
  -12.4036    3.1467  -15.1996 C   0  0  0  0  0  0  0  0  0  0  0  0
  -11.2809    3.3142  -14.9624 N   0  0  0  0  0  0  0  0  0  0  0  0
  -20.1070    3.1216  -15.3914 O   0  0  0  0  0  0  0  0  0  0  0  0
  -20.6734    3.3431  -14.0985 C   0  0  0  0  0  0  0  0  0  0  0  0
  -22.0692    2.7284  -14.0872 C   0  0  0  0  0  0  0  0  0  0  0  0
  -22.0005    1.2237  -14.3598 C   0  0  0  0  0  0  0  0  0  0  0  0
  -22.5856    0.4155  -13.2835 N   0  0  0  0  0  0  0  0  0  0  0  0
  -23.8873    0.9301  -12.8172 C   0  0  0  0  0  0  0  0  0  0  0  0
  -24.4855    0.0455  -11.6996 C   0  0  0  0  0  0  0  0  0  0  0  0
  -24.6463   -1.3776  -12.0549 N   0  0  0  0  0  0  0  0  0  0  0  0
  -25.7554   -1.5737  -12.9842 C   0  0  0  0  0  0  0  0  0  0  0  0
  -23.3715   -1.8776  -12.6093 C   0  0  0  0  0  0  0  0  0  0  0  0
  -22.7399   -0.9911  -13.7110 C   0  0  0  0  0  0  0  0  0  0  0  0
 11 12  1  0  0  0
 12  1  1  0  0  0
  1  2  1  0  0  0
  1 10  2  0  0  0
  2  3  2  0  0  0
  3  4  1  0  0  0
  3  8  1  0  0  0
  4 13  1  0  0  0
  4  5  2  0  0  0
 13 15  1  0  0  0
 13 14  1  0  0  0
 15 16  1  0  0  0
 15 17  1  0  0  0
 16 17  1  0  0  0
 17 18  1  0  0  0
 18 19  1  0  0  0
 18 23  2  0  0  0
 19 20  2  0  0  0
 20 21  1  0  0  0
 21 22  2  0  0  0
 22 23  1  0  0  0
  5 24  1  0  0  0
  5  6  1  0  0  0
 24 25  3  0  0  0
  6  7  2  0  0  0
  7  8  1  0  0  0
  8  9  2  0  0  0
  9 10  1  0  0  0
 10 26  1  0  0  0
 26 27  1  0  0  0
 27 28  1  0  0  0
 28 29  1  0  0  0
 29 30  1  0  0  0
 30 31  1  0  0  0
 30 36  1  0  0  0
 31 32  1  0  0  0
 32 33  1  0  0  0
 33 34  1  0  0  0
 33 35  1  0  0  0
 35 36  1  0  0  0
M  END
> <minimizedAffinity>
-7.95927

$$$$
