CHEMBL410731


 38 41  0  0  0  0  0  0  0  0999 V2000
  -16.8716    2.2950  -15.7099 C   0  0  0  0  0  0  0  0  0  0  0  0
  -17.2371    1.1579  -14.9982 C   0  0  0  0  0  0  0  0  0  0  0  0
  -18.5174    1.0493  -14.4579 C   0  0  0  0  0  0  0  0  0  0  0  0
  -19.4637    2.0670  -14.6095 C   0  0  0  0  0  0  0  0  0  0  0  0
  -19.1063    3.1966  -15.3553 C   0  0  0  0  0  0  0  0  0  0  0  0
  -17.8171    3.3092  -15.9076 C   0  0  0  0  0  0  0  0  0  0  0  0
  -13.3785    5.6538  -15.8171 N   0  0  0  0  0  0  0  0  0  0  0  0
  -12.9428    4.7623  -16.8137 C   0  0  0  0  0  0  0  0  0  0  0  0
  -11.7136    4.9840  -17.3021 N   0  0  0  0  0  0  0  0  0  0  0  0
  -11.2869    4.1001  -18.2123 C   0  0  0  0  0  0  0  0  0  0  0  0
  -11.9570    3.0274  -18.6577 N   0  0  0  0  0  0  0  0  0  0  0  0
  -13.1824    2.8264  -18.1376 C   0  0  0  0  0  0  0  0  0  0  0  0
  -13.7523    3.6855  -17.1842 C   0  0  0  0  0  0  0  0  0  0  0  0
  -15.0662    3.5798  -16.6491 N   0  0  0  0  0  0  0  0  0  0  0  0
  -15.4920    2.4156  -16.2584 C   0  0  0  0  0  0  0  0  0  0  0  0
  -14.6305    1.1656  -16.3257 C   0  0  0  0  0  0  0  0  0  0  0  0
  -14.4475    0.7349  -17.7720 C   0  0  0  0  0  0  0  0  0  0  0  0
  -13.8340    1.7142  -18.6623 N   0  0  0  0  0  0  0  0  0  0  0  0
  -12.7517    6.4499  -15.7994 H   0  0  0  0  0  0  0  0  0  0  0  0
  -14.3561    5.8792  -15.9737 H   0  0  0  0  0  0  0  0  0  0  0  0
  -13.1779    1.2925  -19.3180 H   0  0  0  0  0  0  0  0  0  0  0  0
  -20.7660    1.9876  -14.0557 N   0  0  0  0  0  0  0  0  0  0  0  0
  -21.6011    0.8878  -14.1436 C   0  0  0  0  0  0  0  0  0  0  0  0
  -21.2947   -0.1931  -14.6358 O   0  0  0  0  0  0  0  0  0  0  0  0
  -22.8698    1.1407  -13.6376 N   0  0  0  0  0  0  0  0  0  0  0  0
  -21.0537    2.7296  -13.4335 H   0  0  0  0  0  0  0  0  0  0  0  0
  -23.2193    2.0683  -13.8464 H   0  0  0  0  0  0  0  0  0  0  0  0
  -23.8425    0.1055  -13.6965 C   0  0  0  0  0  0  0  0  0  0  0  0
  -24.1917   -0.4980  -14.9101 C   0  0  0  0  0  0  0  0  0  0  0  0
  -25.2471   -1.4073  -14.9665 C   0  0  0  0  0  0  0  0  0  0  0  0
  -25.9626   -1.7138  -13.8096 C   0  0  0  0  0  0  0  0  0  0  0  0
  -25.6079   -1.1344  -12.5801 C   0  0  0  0  0  0  0  0  0  0  0  0
  -24.5268   -0.2533  -12.5341 C   0  0  0  0  0  0  0  0  0  0  0  0
  -24.1912    0.3314  -11.3733 F   0  0  0  0  0  0  0  0  0  0  0  0
  -26.3942   -1.3915  -11.3324 C   0  0  0  0  0  0  0  0  0  0  0  0
  -26.8167   -2.6844  -11.2247 F   0  0  0  0  0  0  0  0  0  0  0  0
  -25.6849   -1.1430  -10.1979 F   0  0  0  0  0  0  0  0  0  0  0  0
  -27.5224   -0.6336  -11.2521 F   0  0  0  0  0  0  0  0  0  0  0  0
  7  8  1  0  0  0
  7 19  1  0  0  0
  7 20  1  0  0  0
  8  9  1  0  0  0
  8 13  2  0  0  0
  9 10  2  0  0  0
 10 11  1  0  0  0
 11 12  2  0  0  0
 12 13  1  0  0  0
 12 18  1  0  0  0
 13 14  1  0  0  0
 14 15  2  0  0  0
 15  1  1  0  0  0
 15 16  1  0  0  0
  1  2  1  0  0  0
  1  6  2  0  0  0
  2  3  2  0  0  0
  3  4  1  0  0  0
  4 22  1  0  0  0
  4  5  2  0  0  0
 22 23  1  0  0  0
 22 26  1  0  0  0
 23 24  2  0  0  0
 23 25  1  0  0  0
 25 28  1  0  0  0
 25 27  1  0  0  0
 28 29  1  0  0  0
 28 33  2  0  0  0
 29 30  2  0  0  0
 30 31  1  0  0  0
 31 32  2  0  0  0
 32 35  1  0  0  0
 32 33  1  0  0  0
 35 36  1  0  0  0
 35 37  1  0  0  0
 35 38  1  0  0  0
 33 34  1  0  0  0
  5  6  1  0  0  0
 16 17  1  0  0  0
 17 18  1  0  0  0
 18 21  1  0  0  0
M  END
> <minimizedAffinity>
-10.28190

$$$$
