CHEMBL3706826


 37 40  0  0  0  0  0  0  0  0999 V2000
  -26.8589  -10.1757   -5.2949 C   0  0  0  0  0  0  0  0  0  0  0  0
  -28.0019   -9.4315   -5.5918 C   0  0  0  0  0  0  0  0  0  0  0  0
  -28.6990   -9.5479   -6.8008 C   0  0  0  0  0  0  0  0  0  0  0  0
  -29.8731   -8.8469   -7.0717 C   0  0  0  0  0  0  0  0  0  0  0  0
  -30.5653   -9.0915   -8.1958 N   0  0  0  0  0  0  0  0  0  0  0  0
  -30.0747   -9.9970   -9.0410 C   0  0  0  0  0  0  0  0  0  0  0  0
  -28.9252  -10.6576   -8.8969 N   0  0  0  0  0  0  0  0  0  0  0  0
  -28.2451  -10.4284   -7.7729 C   0  0  0  0  0  0  0  0  0  0  0  0
  -27.0750  -11.1178   -7.5210 C   0  0  0  0  0  0  0  0  0  0  0  0
  -26.3827  -11.0616   -6.2874 C   0  0  0  0  0  0  0  0  0  0  0  0
  -25.6195   -8.8493   -3.6795 C   0  0  0  0  0  0  0  0  0  0  0  0
  -26.2480  -10.0808   -4.0705 O   0  0  0  0  0  0  0  0  0  0  0  0
  -30.3853   -7.9422   -6.1005 N   0  0  0  0  0  0  0  0  0  0  0  0
  -30.3310   -8.3052   -5.1496 H   0  0  0  0  0  0  0  0  0  0  0  0
  -30.2626   -6.5585   -6.1410 C   0  0  0  0  0  0  0  0  0  0  0  0
  -30.1108   -5.8269   -7.2366 C   0  0  0  0  0  0  0  0  0  0  0  0
  -29.8131   -4.3999   -7.2239 C   0  0  0  0  0  0  0  0  0  0  0  0
  -29.4167   -3.8651   -8.2577 O   0  0  0  0  0  0  0  0  0  0  0  0
  -30.0089   -3.6607   -5.9417 C   0  0  0  0  0  0  0  0  0  0  0  0
  -30.2445   -4.3668   -4.8214 C   0  0  0  0  0  0  0  0  0  0  0  0
  -30.3302   -5.8475   -4.8116 C   0  0  0  0  0  0  0  0  0  0  0  0
  -30.4832   -6.4686   -3.7641 O   0  0  0  0  0  0  0  0  0  0  0  0
  -29.9358   -2.2776   -5.8605 O   0  0  0  0  0  0  0  0  0  0  0  0
  -28.9091   -1.6717   -5.0416 C   0  0  0  0  0  0  0  0  0  0  0  0
  -27.5141   -1.7910   -5.6545 C   0  0  0  0  0  0  0  0  0  0  0  0
  -27.6051   -1.6706   -7.0091 F   0  0  0  0  0  0  0  0  0  0  0  0
  -29.2534   -0.1931   -4.8869 C   0  0  0  0  0  0  0  0  0  0  0  0
  -30.0694    0.1947   -5.9042 F   0  0  0  0  0  0  0  0  0  0  0  0
  -25.2995  -11.9120   -6.0356 O   0  0  0  0  0  0  0  0  0  0  0  0
  -24.4374  -12.0443   -7.1897 C   0  0  0  0  0  0  0  0  0  0  0  0
  -23.2821  -11.0399   -7.3499 C   0  0  0  0  0  0  0  0  0  0  0  0
  -21.8986  -11.6687   -7.5013 C   0  0  0  0  0  0  0  0  0  0  0  0
  -21.4507  -12.4136   -6.2402 C   0  0  0  0  0  0  0  0  0  0  0  0
  -21.5256  -11.6080   -5.0136 N   0  0  0  0  0  0  0  0  0  0  0  0
  -21.2774  -12.4621   -3.8424 C   0  0  0  0  0  0  0  0  0  0  0  0
  -22.7786  -10.8670   -4.8383 C   0  0  0  0  0  0  0  0  0  0  0  0
  -23.2301  -10.1247   -6.1052 C   0  0  0  0  0  0  0  0  0  0  0  0
 11 12  1  0  0  0
 12  1  1  0  0  0
  1  2  1  0  0  0
  1 10  2  0  0  0
  2  3  2  0  0  0
  3  4  1  0  0  0
  3  8  1  0  0  0
  4 13  1  0  0  0
  4  5  2  0  0  0
 13 15  1  0  0  0
 13 14  1  0  0  0
 15 16  2  0  0  0
 15 21  1  0  0  0
 16 17  1  0  0  0
 17 18  2  0  0  0
 17 19  1  0  0  0
 19 23  1  0  0  0
 19 20  2  0  0  0
 23 24  1  0  0  0
 24 25  1  0  0  0
 24 27  1  0  0  0
 25 26  1  0  0  0
 27 28  1  0  0  0
 20 21  1  0  0  0
 21 22  2  0  0  0
  5  6  1  0  0  0
  6  7  2  0  0  0
  7  8  1  0  0  0
  8  9  2  0  0  0
  9 10  1  0  0  0
 10 29  1  0  0  0
 29 30  1  0  0  0
 30 31  1  0  0  0
 31 32  1  0  0  0
 31 37  1  0  0  0
 32 33  1  0  0  0
 33 34  1  0  0  0
 34 35  1  0  0  0
 34 36  1  0  0  0
 36 37  1  0  0  0
M  END
> <minimizedAffinity>
-7.78347

$$$$
