CHEMBL272170


 32 36  0  0  0  0  0  0  0  0999 V2000
  -13.5548   -7.7692  -14.3059 N   0  0  0  0  0  0  0  0  0  0  0  0
  -14.1440   -6.5160  -14.2858 C   0  0  0  0  0  0  0  0  0  0  0  0
  -14.3197   -5.8732  -15.3181 O   0  0  0  0  0  0  0  0  0  0  0  0
  -14.4685   -6.0295  -13.0147 N   0  0  0  0  0  0  0  0  0  0  0  0
  -14.3130   -6.7645  -11.7496 C   0  0  0  0  0  0  0  0  0  0  0  0
  -13.4470   -5.9516  -10.8129 C   0  0  0  0  0  0  0  0  0  0  0  0
  -14.0951   -4.7326  -10.4566 O   0  0  0  0  0  0  0  0  0  0  0  0
  -14.6319   -4.0716  -11.5388 C   0  0  0  0  0  0  0  0  0  0  0  0
  -14.9650   -2.7384  -11.2967 C   0  0  0  0  0  0  0  0  0  0  0  0
  -15.5250   -1.9557  -12.3059 C   0  0  0  0  0  0  0  0  0  0  0  0
  -15.6890   -2.4914  -13.5777 C   0  0  0  0  0  0  0  0  0  0  0  0
  -15.3529   -3.8265  -13.8211 C   0  0  0  0  0  0  0  0  0  0  0  0
  -14.8297   -4.6467  -12.8097 C   0  0  0  0  0  0  0  0  0  0  0  0
  -13.6368   -8.3537  -13.4983 H   0  0  0  0  0  0  0  0  0  0  0  0
  -11.7030  -10.5124  -18.9684 C   0  0  0  0  0  0  0  0  0  0  0  0
  -12.1608   -9.8037  -17.7304 C   0  0  0  0  0  0  0  0  0  0  0  0
  -11.8591   -8.4544  -17.5555 C   0  0  0  0  0  0  0  0  0  0  0  0
  -12.2918   -7.7747  -16.4214 C   0  0  0  0  0  0  0  0  0  0  0  0
  -13.0474   -8.4223  -15.4464 C   0  0  0  0  0  0  0  0  0  0  0  0
  -13.3222   -9.7861  -15.5961 C   0  0  0  0  0  0  0  0  0  0  0  0
  -12.8898  -10.4705  -16.7382 C   0  0  0  0  0  0  0  0  0  0  0  0
  -15.8772   -0.6365  -12.1449 O   0  0  0  0  0  0  0  0  0  0  0  0
  -15.3054    0.2915  -13.0148 C   0  0  0  0  0  0  0  0  0  0  0  0
  -14.0173    0.6687  -12.8523 N   0  0  0  0  0  0  0  0  0  0  0  0
  -13.5069    1.5613  -13.7180 C   0  0  0  0  0  0  0  0  0  0  0  0
  -14.1396    2.1738  -14.7293 N   0  0  0  0  0  0  0  0  0  0  0  0
  -15.4193    1.7939  -14.8221 C   0  0  0  0  0  0  0  0  0  0  0  0
  -16.3109    2.2663  -15.7431 N   0  0  0  0  0  0  0  0  0  0  0  0
  -17.5195    1.6342  -15.5925 C   0  0  0  0  0  0  0  0  0  0  0  0
  -17.4012    0.7561  -14.5323 C   0  0  0  0  0  0  0  0  0  0  0  0
  -16.0763    0.8621  -14.0294 C   0  0  0  0  0  0  0  0  0  0  0  0
  -16.0841    2.9732  -16.4295 H   0  0  0  0  0  0  0  0  0  0  0  0
 15 16  1  0  0  0
 16 17  1  0  0  0
 16 21  2  0  0  0
 17 18  2  0  0  0
 18 19  1  0  0  0
 19  1  1  0  0  0
 19 20  2  0  0  0
  1  2  1  0  0  0
  1 14  1  0  0  0
  2  3  2  0  0  0
  2  4  1  0  0  0
  4  5  1  0  0  0
  4 13  1  0  0  0
  5  6  1  0  0  0
  6  7  1  0  0  0
  7  8  1  0  0  0
  8  9  1  0  0  0
  8 13  2  0  0  0
  9 10  2  0  0  0
 10 22  1  0  0  0
 10 11  1  0  0  0
 22 23  1  0  0  0
 23 24  1  0  0  0
 23 31  2  0  0  0
 24 25  2  0  0  0
 25 26  1  0  0  0
 26 27  2  0  0  0
 27 28  1  0  0  0
 27 31  1  0  0  0
 28 29  1  0  0  0
 28 32  1  0  0  0
 29 30  2  0  0  0
 30 31  1  0  0  0
 11 12  2  0  0  0
 12 13  1  0  0  0
 20 21  1  0  0  0
M  END
> <minimizedAffinity>
-7.87608

$$$$
