CHEMBL3904228


 42 47  0  0  0  0  0  0  0  0999 V2000
  -22.9634    1.4568  -13.5715 N   0  0  0  0  0  0  0  0  0  0  0  0
  -23.5143    2.7847  -13.2662 C   0  0  0  0  0  0  0  0  0  0  0  0
  -21.6512    1.4527  -14.1217 C   0  0  0  0  0  0  0  0  0  0  0  0
  -21.1068    0.3371  -14.7971 C   0  0  0  0  0  0  0  0  0  0  0  0
  -19.7845    0.3162  -15.2982 C   0  0  0  0  0  0  0  0  0  0  0  0
  -19.0594    1.5319  -15.2885 C   0  0  0  0  0  0  0  0  0  0  0  0
  -17.7528    2.0504  -15.5445 C   0  0  0  0  0  0  0  0  0  0  0  0
  -17.8039    3.3726  -15.7379 N   0  0  0  0  0  0  0  0  0  0  0  0
  -18.9381    3.7125  -15.1393 N   0  0  0  0  0  0  0  0  0  0  0  0
  -19.6967    2.6469  -14.7768 C   0  0  0  0  0  0  0  0  0  0  0  0
  -20.8768    2.6112  -14.0564 C   0  0  0  0  0  0  0  0  0  0  0  0
  -19.1516    4.6983  -15.0264 H   0  0  0  0  0  0  0  0  0  0  0  0
  -16.4695    1.4246  -15.4160 C   0  0  0  0  0  0  0  0  0  0  0  0
  -16.2353    0.5785  -14.3964 C   0  0  0  0  0  0  0  0  0  0  0  0
  -15.0974   -0.3107  -14.1749 C   0  0  0  0  0  0  0  0  0  0  0  0
  -13.7863    0.0605  -14.5229 C   0  0  0  0  0  0  0  0  0  0  0  0
  -12.6940   -0.6796  -14.0765 C   0  0  0  0  0  0  0  0  0  0  0  0
  -12.9437   -1.7860  -13.2856 C   0  0  0  0  0  0  0  0  0  0  0  0
  -14.2256   -2.1907  -12.9988 C   0  0  0  0  0  0  0  0  0  0  0  0
  -15.3202   -1.4912  -13.4421 C   0  0  0  0  0  0  0  0  0  0  0  0
  -14.2496   -3.2861  -12.1913 O   0  0  0  0  0  0  0  0  0  0  0  0
  -12.8397   -3.4775  -11.9521 C   0  0  0  0  0  0  0  0  0  0  0  0
  -12.0018   -2.5607  -12.6861 O   0  0  0  0  0  0  0  0  0  0  0  0
  -25.3559   -1.0773  -12.1850 C   0  0  0  0  0  0  0  0  0  0  0  0
  -25.5701   -1.8531  -13.3219 C   0  0  0  0  0  0  0  0  0  0  0  0
  -24.8931   -1.5753  -14.5082 C   0  0  0  0  0  0  0  0  0  0  0  0
  -24.0202   -0.5013  -14.5619 C   0  0  0  0  0  0  0  0  0  0  0  0
  -23.8195    0.3436  -13.4600 C   0  0  0  0  0  0  0  0  0  0  0  0
  -24.5028    0.0389  -12.2670 C   0  0  0  0  0  0  0  0  0  0  0  0
  -27.3007   -1.5394  -10.7116 C   0  0  0  0  0  0  0  0  0  0  0  0
  -28.1933   -1.4981  -11.5452 O   0  0  0  0  0  0  0  0  0  0  0  0
  -25.9423   -1.3507  -10.9288 N   0  0  0  0  0  0  0  0  0  0  0  0
  -25.3149   -1.5697  -10.1765 H   0  0  0  0  0  0  0  0  0  0  0  0
  -27.9425   -1.1854   -7.0039 C   0  0  0  0  0  0  0  0  0  0  0  0
  -28.2328   -2.5238   -6.6849 C   0  0  0  0  0  0  0  0  0  0  0  0
  -28.2382   -3.5439   -7.6503 C   0  0  0  0  0  0  0  0  0  0  0  0
  -27.9557   -3.2539   -8.9810 C   0  0  0  0  0  0  0  0  0  0  0  0
  -27.6758   -1.9362   -9.3316 C   0  0  0  0  0  0  0  0  0  0  0  0
  -27.6745   -0.9263   -8.3547 C   0  0  0  0  0  0  0  0  0  0  0  0
  -27.5651   -0.4677   -4.6647 C   0  0  0  0  0  0  0  0  0  0  0  0
  -27.9359   -0.1730   -6.0469 N   0  0  0  0  0  0  0  0  0  0  0  0
  -28.6549    1.0711   -6.2919 C   0  0  0  0  0  0  0  0  0  0  0  0
 40 41  1  0  0  0
 41 42  1  0  0  0
 41 34  1  0  0  0
 34 35  1  0  0  0
 34 39  2  0  0  0
 35 36  2  0  0  0
 36 37  1  0  0  0
 37 38  2  0  0  0
 38 30  1  0  0  0
 38 39  1  0  0  0
 30 31  2  0  0  0
 30 32  1  0  0  0
 32 24  1  0  0  0
 32 33  1  0  0  0
 24 25  1  0  0  0
 24 29  2  0  0  0
 25 26  2  0  0  0
 26 27  1  0  0  0
 27 28  2  0  0  0
 28  1  1  0  0  0
 28 29  1  0  0  0
  1  2  1  0  0  0
  1  3  1  0  0  0
  3  4  1  0  0  0
  3 11  2  0  0  0
  4  5  2  0  0  0
  5  6  1  0  0  0
  6  7  1  0  0  0
  6 10  2  0  0  0
  7 13  1  0  0  0
  7  8  2  0  0  0
 13 14  2  0  0  0
 14 15  1  0  0  0
 15 16  1  0  0  0
 15 20  2  0  0  0
 16 17  2  0  0  0
 17 18  1  0  0  0
 18 19  2  0  0  0
 18 23  1  0  0  0
 19 20  1  0  0  0
 19 21  1  0  0  0
 21 22  1  0  0  0
 22 23  1  0  0  0
  8  9  1  0  0  0
  9 10  1  0  0  0
  9 12  1  0  0  0
 10 11  1  0  0  0
M  END
> <minimizedAffinity>
-10.91398

$$$$
