CHEMBL243017


 32 34  0  0  0  0  0  0  0  0999 V2000
  -28.6380   -4.2113   -7.4409 C   0  0  0  0  0  0  0  0  0  0  0  0
  -28.5798   -3.5261   -8.6184 N   0  0  0  0  0  0  0  0  0  0  0  0
  -28.1292   -2.2680   -8.5975 C   0  0  0  0  0  0  0  0  0  0  0  0
  -27.7187   -1.6574   -7.4758 N   0  0  0  0  0  0  0  0  0  0  0  0
  -27.8086   -2.3368   -6.3262 C   0  0  0  0  0  0  0  0  0  0  0  0
  -28.2772   -3.6216   -6.2420 C   0  0  0  0  0  0  0  0  0  0  0  0
  -30.1150   -8.2594   -7.9123 C   0  0  0  0  0  0  0  0  0  0  0  0
  -28.8095   -7.9252   -8.2840 C   0  0  0  0  0  0  0  0  0  0  0  0
  -28.3363   -6.6225   -8.1447 C   0  0  0  0  0  0  0  0  0  0  0  0
  -29.1202   -5.6044   -7.5838 C   0  0  0  0  0  0  0  0  0  0  0  0
  -30.4153   -5.9561   -7.1707 C   0  0  0  0  0  0  0  0  0  0  0  0
  -30.8939   -7.2612   -7.3095 C   0  0  0  0  0  0  0  0  0  0  0  0
  -30.5993  -10.4864   -6.8866 C   0  0  0  0  0  0  0  0  0  0  0  0
  -30.6753   -9.6557   -8.1732 C   0  0  0  0  0  0  0  0  0  0  0  0
  -29.9162  -10.3693   -9.3119 C   0  0  0  0  0  0  0  0  0  0  0  0
  -32.0880   -9.5798   -8.5883 N   0  0  0  0  0  0  0  0  0  0  0  0
  -32.4385  -10.5128   -8.7913 H   0  0  0  0  0  0  0  0  0  0  0  0
  -32.1425   -9.0537   -9.4598 H   0  0  0  0  0  0  0  0  0  0  0  0
  -28.1337   -1.5504   -9.7879 N   0  0  0  0  0  0  0  0  0  0  0  0
  -29.0708   -1.3618  -10.1117 H   0  0  0  0  0  0  0  0  0  0  0  0
  -27.1376   -1.5833  -10.7741 C   0  0  0  0  0  0  0  0  0  0  0  0
  -25.7752   -1.5140  -10.4494 C   0  0  0  0  0  0  0  0  0  0  0  0
  -24.7934   -1.4828  -11.4391 C   0  0  0  0  0  0  0  0  0  0  0  0
  -25.1597   -1.5130  -12.7859 C   0  0  0  0  0  0  0  0  0  0  0  0
  -26.5181   -1.6196  -13.1183 C   0  0  0  0  0  0  0  0  0  0  0  0
  -27.4965   -1.6548  -12.1205 C   0  0  0  0  0  0  0  0  0  0  0  0
  -24.1166   -1.4018  -13.8734 C   0  0  0  0  0  0  0  0  0  0  0  0
  -22.9420   -0.4952  -13.5125 C   0  0  0  0  0  0  0  0  0  0  0  0
  -23.3124    0.8788  -13.5296 O   0  0  0  0  0  0  0  0  0  0  0  0
  -23.5244    1.0982  -14.4549 H   0  0  0  0  0  0  0  0  0  0  0  0
  -28.3825   -4.2249   -4.9536 C   0  0  0  0  0  0  0  0  0  0  0  0
  -28.4327   -4.7078   -3.9060 N   0  0  0  0  0  0  0  0  0  0  0  0
 13 14  1  0  0  0
 14 15  1  0  0  0
 14 16  1  0  0  0
 14  7  1  0  0  0
 16 17  1  0  0  0
 16 18  1  0  0  0
  7  8  1  0  0  0
  7 12  2  0  0  0
  8  9  2  0  0  0
  9 10  1  0  0  0
 10  1  1  0  0  0
 10 11  2  0  0  0
  1  2  1  0  0  0
  1  6  2  0  0  0
  2  3  2  0  0  0
  3 19  1  0  0  0
  3  4  1  0  0  0
 19 21  1  0  0  0
 19 20  1  0  0  0
 21 22  1  0  0  0
 21 26  2  0  0  0
 22 23  2  0  0  0
 23 24  1  0  0  0
 24 27  1  0  0  0
 24 25  2  0  0  0
 27 28  1  0  0  0
 28 29  1  0  0  0
 29 30  1  0  0  0
 25 26  1  0  0  0
  4  5  2  0  0  0
  5  6  1  0  0  0
  6 31  1  0  0  0
 31 32  3  0  0  0
 11 12  1  0  0  0
M  END
> <minimizedAffinity>
-8.86999

$$$$
