CHEMBL2086731


 31 35  0  0  0  0  0  0  0  0999 V2000
  -28.9282   -8.0714   -6.6976 C   0  0  0  0  0  0  0  0  0  0  0  0
  -29.4385   -8.1894   -7.9483 C   0  0  0  0  0  0  0  0  0  0  0  0
  -30.7741   -8.9361   -7.9470 C   0  0  0  0  0  0  0  0  0  0  0  0
  -31.7083   -8.7920   -7.1636 O   0  0  0  0  0  0  0  0  0  0  0  0
  -30.7104   -9.8804   -8.9522 N   0  0  0  0  0  0  0  0  0  0  0  0
  -29.4479   -9.9118   -9.5183 C   0  0  0  0  0  0  0  0  0  0  0  0
  -28.9485  -10.8420  -10.4052 C   0  0  0  0  0  0  0  0  0  0  0  0
  -27.6408  -10.6550  -10.8601 C   0  0  0  0  0  0  0  0  0  0  0  0
  -26.9081   -9.5145  -10.4844 C   0  0  0  0  0  0  0  0  0  0  0  0
  -27.4294   -8.6013   -9.5621 C   0  0  0  0  0  0  0  0  0  0  0  0
  -28.6778   -8.8637   -9.0244 C   0  0  0  0  0  0  0  0  0  0  0  0
  -31.4767  -10.4933   -9.1731 H   0  0  0  0  0  0  0  0  0  0  0  0
  -29.1289   -6.7991   -6.0480 C   0  0  0  0  0  0  0  0  0  0  0  0
  -30.1059   -5.9116   -6.1185 N   0  0  0  0  0  0  0  0  0  0  0  0
  -29.7352   -4.8641   -5.3058 C   0  0  0  0  0  0  0  0  0  0  0  0
  -30.4001   -3.6632   -5.0073 C   0  0  0  0  0  0  0  0  0  0  0  0
  -29.7605   -2.7190   -4.1906 C   0  0  0  0  0  0  0  0  0  0  0  0
  -28.4909   -2.9723   -3.6636 C   0  0  0  0  0  0  0  0  0  0  0  0
  -27.8299   -4.1811   -3.9111 C   0  0  0  0  0  0  0  0  0  0  0  0
  -28.4879   -5.0955   -4.7383 C   0  0  0  0  0  0  0  0  0  0  0  0
  -28.1483   -6.3444   -5.1884 N   0  0  0  0  0  0  0  0  0  0  0  0
  -27.3073   -6.8425   -4.9414 H   0  0  0  0  0  0  0  0  0  0  0  0
  -27.4947  -11.1972   -4.1186 C   0  0  0  0  0  0  0  0  0  0  0  0
  -26.7934  -10.9182   -5.2906 C   0  0  0  0  0  0  0  0  0  0  0  0
  -27.2831   -9.9578   -6.1934 C   0  0  0  0  0  0  0  0  0  0  0  0
  -28.4836   -9.2828   -5.9350 C   0  0  0  0  0  0  0  0  0  0  0  0
  -29.2379   -9.6661   -4.8175 C   0  0  0  0  0  0  0  0  0  0  0  0
  -28.7350  -10.5946   -3.9098 C   0  0  0  0  0  0  0  0  0  0  0  0
  -27.1000  -12.0089   -3.0966 O   0  0  0  0  0  0  0  0  0  0  0  0
  -25.3735  -12.4638   -1.5430 C   0  0  0  0  0  0  0  0  0  0  0  0
  -25.7295  -12.3880   -3.0193 C   0  0  0  0  0  0  0  0  0  0  0  0
 30 31  1  0  0  0
 31 29  1  0  0  0
 29 23  1  0  0  0
 23 24  1  0  0  0
 23 28  2  0  0  0
 24 25  2  0  0  0
 25 26  1  0  0  0
 26  1  1  0  0  0
 26 27  2  0  0  0
  1  2  2  0  0  0
  1 13  1  0  0  0
  2  3  1  0  0  0
  2 11  1  0  0  0
  3  4  2  0  0  0
  3  5  1  0  0  0
  5  6  1  0  0  0
  5 12  1  0  0  0
  6  7  1  0  0  0
  6 11  2  0  0  0
  7  8  2  0  0  0
  8  9  1  0  0  0
  9 10  2  0  0  0
 10 11  1  0  0  0
 13 14  2  0  0  0
 13 21  1  0  0  0
 14 15  1  0  0  0
 15 16  1  0  0  0
 15 20  2  0  0  0
 16 17  2  0  0  0
 17 18  1  0  0  0
 18 19  2  0  0  0
 19 20  1  0  0  0
 20 21  1  0  0  0
 21 22  1  0  0  0
 27 28  1  0  0  0
M  END
> <minimizedAffinity>
-8.51798

$$$$
