CHEMBL3651854


 45 49  0  0  0  0  0  0  0  0999 V2000
  -29.2424   -7.3885   -5.9722 C   0  0  0  0  0  0  0  0  0  0  0  0
  -28.6036   -8.1349   -6.9383 N   0  0  0  0  0  0  0  0  0  0  0  0
  -27.8426   -9.2350   -6.6424 C   0  0  0  0  0  0  0  0  0  0  0  0
  -27.8348   -9.5009   -5.2663 C   0  0  0  0  0  0  0  0  0  0  0  0
  -27.2318  -10.5051   -4.5386 C   0  0  0  0  0  0  0  0  0  0  0  0
  -26.3972  -11.6909   -4.8297 C   0  0  0  0  0  0  0  0  0  0  0  0
  -27.5696  -10.2286   -3.2319 N   0  0  0  0  0  0  0  0  0  0  0  0
  -28.3313   -9.1394   -3.0677 N   0  0  0  0  0  0  0  0  0  0  0  0
  -28.5020   -8.6840   -4.3081 C   0  0  0  0  0  0  0  0  0  0  0  0
  -29.2115   -7.5919   -4.6460 N   0  0  0  0  0  0  0  0  0  0  0  0
  -27.3048  -10.7490   -2.4013 H   0  0  0  0  0  0  0  0  0  0  0  0
  -29.9681   -6.2689   -6.3740 N   0  0  0  0  0  0  0  0  0  0  0  0
  -30.6045   -6.5395   -7.1178 H   0  0  0  0  0  0  0  0  0  0  0  0
  -28.0119   -2.6578   -9.1826 C   0  0  0  0  0  0  0  0  0  0  0  0
  -28.5553   -3.1275   -7.8503 C   0  0  0  0  0  0  0  0  0  0  0  0
  -29.0528   -4.4338   -7.7160 C   0  0  0  0  0  0  0  0  0  0  0  0
  -29.5220   -4.9411   -6.4818 C   0  0  0  0  0  0  0  0  0  0  0  0
  -29.6048   -4.0722   -5.3925 C   0  0  0  0  0  0  0  0  0  0  0  0
  -29.2110   -2.7393   -5.5489 C   0  0  0  0  0  0  0  0  0  0  0  0
  -28.5601   -2.2987   -6.7124 C   0  0  0  0  0  0  0  0  0  0  0  0
  -27.5606   -1.1436   -6.6406 C   0  0  0  0  0  0  0  0  0  0  0  0
  -27.4864   -0.7078   -5.1614 C   0  0  0  0  0  0  0  0  0  0  0  0
  -28.7723   -0.0209   -4.7181 C   0  0  0  0  0  0  0  0  0  0  0  0
  -29.1707    1.1197   -5.5429 N   0  0  0  0  0  0  0  0  0  0  0  0
  -30.5914    1.3996   -5.2931 C   0  0  0  0  0  0  0  0  0  0  0  0
  -28.9162    1.0379   -6.9842 C   0  0  0  0  0  0  0  0  0  0  0  0
  -27.8267    0.0900   -7.5026 C   0  0  0  0  0  0  0  0  0  0  0  0
  -29.9629   -4.3600   -4.0985 O   0  0  0  0  0  0  0  0  0  0  0  0
  -31.2733   -4.0228   -3.6092 C   0  0  0  0  0  0  0  0  0  0  0  0
  -32.0937   -5.2133   -3.1010 C   0  0  0  0  0  0  0  0  0  0  0  0
  -31.0818   -3.0499   -2.4362 C   0  0  0  0  0  0  0  0  0  0  0  0
  -27.2303   -9.9590   -7.6744 N   0  0  0  0  0  0  0  0  0  0  0  0
  -26.2433  -10.1555   -7.5477 H   0  0  0  0  0  0  0  0  0  0  0  0
  -27.6223  -10.0092   -9.0328 C   0  0  0  0  0  0  0  0  0  0  0  0
  -26.8644   -9.3487  -10.0172 C   0  0  0  0  0  0  0  0  0  0  0  0
  -27.2089   -9.4003  -11.3712 C   0  0  0  0  0  0  0  0  0  0  0  0
  -28.3332  -10.1080  -11.7757 C   0  0  0  0  0  0  0  0  0  0  0  0
  -29.1119  -10.7648  -10.8257 C   0  0  0  0  0  0  0  0  0  0  0  0
  -28.7633  -10.7102   -9.4645 C   0  0  0  0  0  0  0  0  0  0  0  0
  -29.7655  -11.6286   -8.3157 S   0  0  0  0  0  0  0  0  0  0  0  0
  -30.6699  -12.4643   -9.0866 O   0  0  0  0  0  0  0  0  0  0  0  0
  -28.8277  -12.2368   -7.3826 O   0  0  0  0  0  0  0  0  0  0  0  0
  -30.7526  -10.4487   -7.4003 C   0  0  0  0  0  0  0  0  0  0  0  0
  -31.5211   -9.4902   -8.2984 C   0  0  0  0  0  0  0  0  0  0  0  0
  -31.7223  -11.1951   -6.4801 C   0  0  0  0  0  0  0  0  0  0  0  0
 14 15  1  0  0  0
 15 16  1  0  0  0
 15 20  2  0  0  0
 16 17  2  0  0  0
 17 12  1  0  0  0
 17 18  1  0  0  0
 12  1  1  0  0  0
 12 13  1  0  0  0
  1  2  1  0  0  0
  1 10  2  0  0  0
  2  3  2  0  0  0
  3 32  1  0  0  0
  3  4  1  0  0  0
 32 34  1  0  0  0
 32 33  1  0  0  0
 34 35  1  0  0  0
 34 39  2  0  0  0
 35 36  2  0  0  0
 36 37  1  0  0  0
 37 38  2  0  0  0
 38 39  1  0  0  0
 39 40  1  0  0  0
 40 41  2  0  0  0
 40 42  2  0  0  0
 40 43  1  0  0  0
 43 44  1  0  0  0
 43 45  1  0  0  0
  4  5  2  0  0  0
  4  9  1  0  0  0
  5  6  1  0  0  0
  5  7  1  0  0  0
  7  8  1  0  0  0
  7 11  1  0  0  0
  8  9  2  0  0  0
  9 10  1  0  0  0
 18 28  1  0  0  0
 18 19  2  0  0  0
 28 29  1  0  0  0
 29 30  1  0  0  0
 29 31  1  0  0  0
 19 20  1  0  0  0
 20 21  1  0  0  0
 21 22  1  0  0  0
 21 27  1  0  0  0
 22 23  1  0  0  0
 23 24  1  0  0  0
 24 25  1  0  0  0
 24 26  1  0  0  0
 26 27  1  0  0  0
M  END
> <minimizedAffinity>
-9.01220

$$$$
