CHEMBL3916041


 38 41  0  0  0  0  0  0  0  0999 V2000
  -25.5762   -1.9364  -12.2027 C   0  0  0  0  0  0  0  0  0  0  0  0
  -24.3033   -1.8597  -11.6299 C   0  0  0  0  0  0  0  0  0  0  0  0
  -23.1847   -1.4786  -12.2956 N   0  0  0  0  0  0  0  0  0  0  0  0
  -23.3447   -1.0840  -13.5809 C   0  0  0  0  0  0  0  0  0  0  0  0
  -24.5701   -1.1462  -14.2369 C   0  0  0  0  0  0  0  0  0  0  0  0
  -24.6992   -0.7432  -15.5092 F   0  0  0  0  0  0  0  0  0  0  0  0
  -25.6975   -1.6007  -13.5484 C   0  0  0  0  0  0  0  0  0  0  0  0
  -27.9079   -2.5485   -9.4839 N   0  0  0  0  0  0  0  0  0  0  0  0
  -26.7913   -2.0079  -10.0964 C   0  0  0  0  0  0  0  0  0  0  0  0
  -25.9623   -1.2720   -9.5705 O   0  0  0  0  0  0  0  0  0  0  0  0
  -26.7194   -2.3210  -11.4516 N   0  0  0  0  0  0  0  0  0  0  0  0
  -28.5481   -3.0598  -10.0731 H   0  0  0  0  0  0  0  0  0  0  0  0
  -27.6053   -2.3162  -11.9365 H   0  0  0  0  0  0  0  0  0  0  0  0
  -28.6628   -0.7778   -6.2819 C   0  0  0  0  0  0  0  0  0  0  0  0
  -28.9253   -1.8479   -5.4162 C   0  0  0  0  0  0  0  0  0  0  0  0
  -28.9145   -3.1506   -5.8977 C   0  0  0  0  0  0  0  0  0  0  0  0
  -28.6249   -3.4016   -7.2376 C   0  0  0  0  0  0  0  0  0  0  0  0
  -28.7746   -4.6691   -7.6362 F   0  0  0  0  0  0  0  0  0  0  0  0
  -28.2909   -2.3663   -8.1245 C   0  0  0  0  0  0  0  0  0  0  0  0
  -28.3427   -1.0477   -7.6325 C   0  0  0  0  0  0  0  0  0  0  0  0
  -30.1605    1.0227   -5.3511 C   0  0  0  0  0  0  0  0  0  0  0  0
  -28.7448    0.6405   -5.7527 C   0  0  0  0  0  0  0  0  0  0  0  0
  -28.3238    1.5540   -6.6785 F   0  0  0  0  0  0  0  0  0  0  0  0
  -27.9373    0.8320   -4.6688 F   0  0  0  0  0  0  0  0  0  0  0  0
  -22.2383   -0.6157  -14.2878 O   0  0  0  0  0  0  0  0  0  0  0  0
  -22.0016    0.7480  -14.2783 C   0  0  0  0  0  0  0  0  0  0  0  0
  -22.8911    1.6591  -13.7163 C   0  0  0  0  0  0  0  0  0  0  0  0
  -22.5627    2.9932  -13.7611 C   0  0  0  0  0  0  0  0  0  0  0  0
  -21.4528    3.4600  -14.3616 N   0  0  0  0  0  0  0  0  0  0  0  0
  -20.6106    2.5905  -14.9413 C   0  0  0  0  0  0  0  0  0  0  0  0
  -20.8514    1.2183  -14.9261 C   0  0  0  0  0  0  0  0  0  0  0  0
  -19.4586    3.0837  -15.5839 N   0  0  0  0  0  0  0  0  0  0  0  0
  -18.1720    2.8341  -15.1387 C   0  0  0  0  0  0  0  0  0  0  0  0
  -17.8346    2.1735  -14.1670 O   0  0  0  0  0  0  0  0  0  0  0  0
  -19.5862    3.6464  -16.4080 H   0  0  0  0  0  0  0  0  0  0  0  0
  -17.0928    3.4681  -15.9650 C   0  0  0  0  0  0  0  0  0  0  0  0
  -16.1196    2.5797  -16.7186 C   0  0  0  0  0  0  0  0  0  0  0  0
  -15.6502    3.3371  -15.5116 C   0  0  0  0  0  0  0  0  0  0  0  0
 21 22  1  0  0  0
 22 23  1  0  0  0
 22 24  1  0  0  0
 22 14  1  0  0  0
 14 15  1  0  0  0
 14 20  2  0  0  0
 15 16  2  0  0  0
 16 17  1  0  0  0
 17 18  1  0  0  0
 17 19  2  0  0  0
 19  8  1  0  0  0
 19 20  1  0  0  0
  8  9  1  0  0  0
  8 12  1  0  0  0
  9 10  2  0  0  0
  9 11  1  0  0  0
 11  1  1  0  0  0
 11 13  1  0  0  0
  1  2  1  0  0  0
  1  7  2  0  0  0
  2  3  2  0  0  0
  3  4  1  0  0  0
  4 25  1  0  0  0
  4  5  2  0  0  0
 25 26  1  0  0  0
 26 27  1  0  0  0
 26 31  2  0  0  0
 27 28  2  0  0  0
 28 29  1  0  0  0
 29 30  2  0  0  0
 30 32  1  0  0  0
 30 31  1  0  0  0
 32 33  1  0  0  0
 32 35  1  0  0  0
 33 34  2  0  0  0
 33 36  1  0  0  0
 36 37  1  0  0  0
 36 38  1  0  0  0
 37 38  1  0  0  0
  5  6  1  0  0  0
  5  7  1  0  0  0
M  END
> <minimizedAffinity>
-11.67400

$$$$
