CHEMBL3921618


 35 38  0  0  0  0  0  0  0  0999 V2000
  -27.8640   -2.3965   -8.3959 N   0  0  0  0  0  0  0  0  0  0  0  0
  -27.3506   -1.7232   -9.5729 C   0  0  0  0  0  0  0  0  0  0  0  0
  -28.2476   -1.7468  -10.6436 C   0  0  0  0  0  0  0  0  0  0  0  0
  -27.7739   -1.7409  -11.9433 C   0  0  0  0  0  0  0  0  0  0  0  0
  -26.4625   -1.5023  -12.2409 C   0  0  0  0  0  0  0  0  0  0  0  0
  -26.1796   -1.7189  -13.5248 N   0  0  0  0  0  0  0  0  0  0  0  0
  -24.9936   -1.2960  -13.9602 C   0  0  0  0  0  0  0  0  0  0  0  0
  -24.1223   -0.5923  -13.1572 C   0  0  0  0  0  0  0  0  0  0  0  0
  -24.3475   -0.4958  -11.7910 N   0  0  0  0  0  0  0  0  0  0  0  0
  -25.5518   -1.0399  -11.2662 C   0  0  0  0  0  0  0  0  0  0  0  0
  -26.0360   -1.2542   -9.8763 C   0  0  0  0  0  0  0  0  0  0  0  0
  -23.0922    0.1546  -13.9026 C   0  0  0  0  0  0  0  0  0  0  0  0
  -21.8294   -0.2981  -14.3868 C   0  0  0  0  0  0  0  0  0  0  0  0
  -20.9801    0.6977  -14.6810 N   0  0  0  0  0  0  0  0  0  0  0  0
  -21.6687    1.8049  -14.3604 N   0  0  0  0  0  0  0  0  0  0  0  0
  -21.1369    3.1158  -14.6654 C   0  0  0  0  0  0  0  0  0  0  0  0
  -22.8746    1.5239  -13.7710 C   0  0  0  0  0  0  0  0  0  0  0  0
  -28.7501   -0.1900   -5.4866 C   0  0  0  0  0  0  0  0  0  0  0  0
  -28.6409   -1.0823   -4.4199 C   0  0  0  0  0  0  0  0  0  0  0  0
  -28.2156   -2.3872   -4.6479 C   0  0  0  0  0  0  0  0  0  0  0  0
  -27.8991   -2.7994   -5.9518 C   0  0  0  0  0  0  0  0  0  0  0  0
  -27.9824   -1.9343   -7.0574 C   0  0  0  0  0  0  0  0  0  0  0  0
  -28.3977   -0.6115   -6.7897 C   0  0  0  0  0  0  0  0  0  0  0  0
  -30.5388    1.3551   -5.8639 C   0  0  0  0  0  0  0  0  0  0  0  0
  -29.2221    1.0964   -5.3673 O   0  0  0  0  0  0  0  0  0  0  0  0
  -28.1024   -3.3624   -3.6914 O   0  0  0  0  0  0  0  0  0  0  0  0
  -27.8151   -4.6822   -4.1444 C   0  0  0  0  0  0  0  0  0  0  0  0
  -27.6439   -3.8951   -8.5686 C   0  0  0  0  0  0  0  0  0  0  0  0
  -28.7047   -4.8822   -8.0035 C   0  0  0  0  0  0  0  0  0  0  0  0
  -28.2842   -6.3105   -7.8230 N   0  0  0  0  0  0  0  0  0  0  0  0
  -27.5065   -6.4056   -7.1701 H   0  0  0  0  0  0  0  0  0  0  0  0
  -29.4933   -7.4823   -7.6796 S   0  0  0  0  0  0  0  0  0  0  0  0
  -29.0881   -8.2651   -6.1294 C   0  0  0  0  0  0  0  0  0  0  0  0
  -30.7451   -6.7852   -7.4906 O   0  0  0  0  0  0  0  0  0  0  0  0
  -29.3215   -8.4473   -8.7468 O   0  0  0  0  0  0  0  0  0  0  0  0
 24 25  1  0  0  0
 25 18  1  0  0  0
 18 19  1  0  0  0
 18 23  2  0  0  0
 19 20  2  0  0  0
 20 26  1  0  0  0
 20 21  1  0  0  0
 26 27  1  0  0  0
 21 22  2  0  0  0
 22  1  1  0  0  0
 22 23  1  0  0  0
  1 28  1  0  0  0
  1  2  1  0  0  0
 28 29  1  0  0  0
 29 30  1  0  0  0
 30 32  1  0  0  0
 30 31  1  0  0  0
 32 33  1  0  0  0
 32 34  2  0  0  0
 32 35  2  0  0  0
  2  3  1  0  0  0
  2 11  2  0  0  0
  3  4  2  0  0  0
  4  5  1  0  0  0
  5  6  1  0  0  0
  5 10  2  0  0  0
  6  7  2  0  0  0
  7  8  1  0  0  0
  8 12  1  0  0  0
  8  9  2  0  0  0
 12 13  1  0  0  0
 12 17  2  0  0  0
 13 14  2  0  0  0
 14 15  1  0  0  0
 15 16  1  0  0  0
 15 17  1  0  0  0
  9 10  1  0  0  0
 10 11  1  0  0  0
M  END
> <minimizedAffinity>
-8.79919

$$$$
