CHEMBL1965131


 27 29  0  0  0  0  0  0  0  0999 V2000
  -28.5281   -7.7844   -5.4546 C   0  0  0  0  0  0  0  0  0  0  0  0
  -28.9378   -6.5729   -4.9031 C   0  0  0  0  0  0  0  0  0  0  0  0
  -30.5430   -6.2005   -5.3756 S   0  0  0  0  0  0  0  0  0  0  0  0
  -30.6965   -7.5956   -6.3487 C   0  0  0  0  0  0  0  0  0  0  0  0
  -31.8502   -7.9590   -7.0755 C   0  0  0  0  0  0  0  0  0  0  0  0
  -31.8418   -9.1252   -7.8378 C   0  0  0  0  0  0  0  0  0  0  0  0
  -30.7018   -9.9105   -7.8971 C   0  0  0  0  0  0  0  0  0  0  0  0
  -30.7610  -11.3428   -8.8617 Cl  0  0  0  0  0  0  0  0  0  0  0  0
  -29.5571   -9.5343   -7.1783 C   0  0  0  0  0  0  0  0  0  0  0  0
  -28.1070  -10.4639   -7.2351 Cl  0  0  0  0  0  0  0  0  0  0  0  0
  -29.5264   -8.3614   -6.3604 C   0  0  0  0  0  0  0  0  0  0  0  0
  -28.2719   -5.5486   -4.1036 C   0  0  0  0  0  0  0  0  0  0  0  0
  -29.0388   -4.7463   -3.3110 N   0  0  0  0  0  0  0  0  0  0  0  0
  -27.0599   -5.3301   -4.1165 O   0  0  0  0  0  0  0  0  0  0  0  0
  -30.0089   -4.5990   -3.5792 H   0  0  0  0  0  0  0  0  0  0  0  0
  -28.5620   -3.9439   -2.9258 H   0  0  0  0  0  0  0  0  0  0  0  0
  -26.9989   -9.2059   -4.2014 C   0  0  0  0  0  0  0  0  0  0  0  0
  -27.8033   -9.5088   -3.3267 O   0  0  0  0  0  0  0  0  0  0  0  0
  -27.2718   -8.3754   -5.2761 N   0  0  0  0  0  0  0  0  0  0  0  0
  -26.8042   -8.6622   -6.1317 H   0  0  0  0  0  0  0  0  0  0  0  0
  -21.6990  -11.5203   -4.0448 C   0  0  0  0  0  0  0  0  0  0  0  0
  -23.0523  -10.8745   -4.0904 C   0  0  0  0  0  0  0  0  0  0  0  0
  -23.5588  -10.3295   -5.2757 C   0  0  0  0  0  0  0  0  0  0  0  0
  -24.8361   -9.7620   -5.3030 C   0  0  0  0  0  0  0  0  0  0  0  0
  -25.6108   -9.7290   -4.1365 C   0  0  0  0  0  0  0  0  0  0  0  0
  -25.1085  -10.2732   -2.9503 C   0  0  0  0  0  0  0  0  0  0  0  0
  -23.8351  -10.8390   -2.9277 C   0  0  0  0  0  0  0  0  0  0  0  0
 21 22  1  0  0  0
 22 23  1  0  0  0
 22 27  2  0  0  0
 23 24  2  0  0  0
 24 25  1  0  0  0
 25 17  1  0  0  0
 25 26  2  0  0  0
 17 18  2  0  0  0
 17 19  1  0  0  0
 19  1  1  0  0  0
 19 20  1  0  0  0
  1  2  2  0  0  0
  1 11  1  0  0  0
  2 12  1  0  0  0
  2  3  1  0  0  0
 12 13  1  0  0  0
 12 14  2  0  0  0
 13 15  1  0  0  0
 13 16  1  0  0  0
  3  4  1  0  0  0
  4  5  1  0  0  0
  4 11  2  0  0  0
  5  6  2  0  0  0
  6  7  1  0  0  0
  7  8  1  0  0  0
  7  9  2  0  0  0
  9 10  1  0  0  0
  9 11  1  0  0  0
 26 27  1  0  0  0
M  END
> <minimizedAffinity>
-7.56476

$$$$
