CHEMBL410664


 32 35  0  0  0  0  0  0  0  0999 V2000
  -21.4008    1.5902  -14.5352 C   0  0  0  0  0  0  0  0  0  0  0  0
  -21.3522    0.1976  -14.4298 C   0  0  0  0  0  0  0  0  0  0  0  0
  -22.3895   -0.5088  -13.8118 C   0  0  0  0  0  0  0  0  0  0  0  0
  -23.4921    0.1555  -13.2532 C   0  0  0  0  0  0  0  0  0  0  0  0
  -23.4561    1.5634  -13.2664 C   0  0  0  0  0  0  0  0  0  0  0  0
  -22.4331    2.2767  -13.9073 C   0  0  0  0  0  0  0  0  0  0  0  0
  -24.6169   -0.5949  -12.6539 C   0  0  0  0  0  0  0  0  0  0  0  0
  -24.6796   -0.8345  -11.2554 C   0  0  0  0  0  0  0  0  0  0  0  0
  -25.7649   -1.4713  -10.6462 C   0  0  0  0  0  0  0  0  0  0  0  0
  -26.8627   -1.8793  -11.3984 C   0  0  0  0  0  0  0  0  0  0  0  0
  -26.7757   -1.6762  -12.7717 C   0  0  0  0  0  0  0  0  0  0  0  0
  -27.7350   -2.0246  -13.6659 O   0  0  0  0  0  0  0  0  0  0  0  0
  -27.2965   -1.7501  -14.9436 N   0  0  0  0  0  0  0  0  0  0  0  0
  -26.0676   -1.2480  -14.8063 C   0  0  0  0  0  0  0  0  0  0  0  0
  -25.2773   -0.9693  -15.8643 N   0  0  0  0  0  0  0  0  0  0  0  0
  -25.6979   -1.0993  -13.4315 C   0  0  0  0  0  0  0  0  0  0  0  0
  -25.5874   -1.3378  -16.7581 H   0  0  0  0  0  0  0  0  0  0  0  0
  -24.2702   -1.0300  -15.7479 H   0  0  0  0  0  0  0  0  0  0  0  0
  -18.3329    2.9350  -15.9257 N   0  0  0  0  0  0  0  0  0  0  0  0
  -19.1047    2.2017  -15.0452 C   0  0  0  0  0  0  0  0  0  0  0  0
  -18.6565    1.4925  -14.1430 O   0  0  0  0  0  0  0  0  0  0  0  0
  -20.4622    2.3093  -15.3149 N   0  0  0  0  0  0  0  0  0  0  0  0
  -18.8052    3.6616  -16.4439 H   0  0  0  0  0  0  0  0  0  0  0  0
  -20.6897    2.4328  -16.2893 H   0  0  0  0  0  0  0  0  0  0  0  0
  -12.6050    2.8576  -16.3690 C   0  0  0  0  0  0  0  0  0  0  0  0
  -14.0974    2.8627  -16.2402 C   0  0  0  0  0  0  0  0  0  0  0  0
  -14.8188    1.6763  -16.3283 C   0  0  0  0  0  0  0  0  0  0  0  0
  -16.2122    1.6878  -16.2267 C   0  0  0  0  0  0  0  0  0  0  0  0
  -16.9190    2.8795  -16.0203 C   0  0  0  0  0  0  0  0  0  0  0  0
  -16.1958    4.0699  -15.9293 C   0  0  0  0  0  0  0  0  0  0  0  0
  -14.8035    4.0506  -16.0375 C   0  0  0  0  0  0  0  0  0  0  0  0
  -14.1336    5.2106  -15.9521 F   0  0  0  0  0  0  0  0  0  0  0  0
 25 26  1  0  0  0
 26 27  1  0  0  0
 26 31  2  0  0  0
 27 28  2  0  0  0
 28 29  1  0  0  0
 29 19  1  0  0  0
 29 30  2  0  0  0
 19 20  1  0  0  0
 19 23  1  0  0  0
 20 21  2  0  0  0
 20 22  1  0  0  0
 22  1  1  0  0  0
 22 24  1  0  0  0
  1  2  1  0  0  0
  1  6  2  0  0  0
  2  3  2  0  0  0
  3  4  1  0  0  0
  4  7  1  0  0  0
  4  5  2  0  0  0
  7  8  1  0  0  0
  7 16  2  0  0  0
  8  9  2  0  0  0
  9 10  1  0  0  0
 10 11  2  0  0  0
 11 12  1  0  0  0
 11 16  1  0  0  0
 12 13  1  0  0  0
 13 14  2  0  0  0
 14 15  1  0  0  0
 14 16  1  0  0  0
 15 17  1  0  0  0
 15 18  1  0  0  0
  5  6  1  0  0  0
 30 31  1  0  0  0
 31 32  1  0  0  0
M  END
> <minimizedAffinity>
-9.97181

$$$$
