CHEMBL3929084


 38 41  0  0  0  0  0  0  0  0999 V2000
  -25.5238   -1.4686  -12.4150 C   0  0  0  0  0  0  0  0  0  0  0  0
  -25.5124   -1.2243  -13.7945 C   0  0  0  0  0  0  0  0  0  0  0  0
  -24.3306   -0.8717  -14.4548 C   0  0  0  0  0  0  0  0  0  0  0  0
  -23.1502   -0.6925  -13.7335 C   0  0  0  0  0  0  0  0  0  0  0  0
  -23.1608   -0.9203  -12.3517 C   0  0  0  0  0  0  0  0  0  0  0  0
  -24.3470   -1.2843  -11.6878 C   0  0  0  0  0  0  0  0  0  0  0  0
  -27.9353   -2.4767   -9.8716 N   0  0  0  0  0  0  0  0  0  0  0  0
  -26.7492   -1.9591  -10.3810 C   0  0  0  0  0  0  0  0  0  0  0  0
  -25.8478   -1.4871   -9.6977 O   0  0  0  0  0  0  0  0  0  0  0  0
  -26.6882   -1.9816  -11.7732 N   0  0  0  0  0  0  0  0  0  0  0  0
  -28.5032   -3.0225  -10.5037 H   0  0  0  0  0  0  0  0  0  0  0  0
  -27.5682   -1.8175  -12.2409 H   0  0  0  0  0  0  0  0  0  0  0  0
  -28.9992   -2.3205   -5.7445 C   0  0  0  0  0  0  0  0  0  0  0  0
  -29.0435   -3.5256   -6.4424 C   0  0  0  0  0  0  0  0  0  0  0  0
  -28.7007   -3.5821   -7.7932 C   0  0  0  0  0  0  0  0  0  0  0  0
  -28.3099   -2.4412   -8.4996 C   0  0  0  0  0  0  0  0  0  0  0  0
  -28.2729   -1.2240   -7.8007 C   0  0  0  0  0  0  0  0  0  0  0  0
  -28.6146   -1.1490   -6.4196 C   0  0  0  0  0  0  0  0  0  0  0  0
  -28.5438    0.1942   -5.7279 C   0  0  0  0  0  0  0  0  0  0  0  0
  -29.6707    0.5713   -5.0723 F   0  0  0  0  0  0  0  0  0  0  0  0
  -27.5489    0.2336   -4.7986 F   0  0  0  0  0  0  0  0  0  0  0  0
  -28.2744    1.2021   -6.6028 F   0  0  0  0  0  0  0  0  0  0  0  0
  -29.6252   -2.4399   -3.2280 N   0  0  0  0  0  0  0  0  0  0  0  0
  -29.3461   -2.3621   -4.3511 C   0  0  0  0  0  0  0  0  0  0  0  0
  -21.9326   -0.3857  -14.3139 O   0  0  0  0  0  0  0  0  0  0  0  0
  -21.5352    0.9332  -14.4504 C   0  0  0  0  0  0  0  0  0  0  0  0
  -22.2412    2.0081  -13.9235 C   0  0  0  0  0  0  0  0  0  0  0  0
  -21.7463    3.2732  -14.1456 C   0  0  0  0  0  0  0  0  0  0  0  0
  -20.5928    3.5171  -14.7917 N   0  0  0  0  0  0  0  0  0  0  0  0
  -19.8683    2.4863  -15.2482 C   0  0  0  0  0  0  0  0  0  0  0  0
  -20.3111    1.1709  -15.1006 C   0  0  0  0  0  0  0  0  0  0  0  0
  -18.6291    2.7438  -15.8802 N   0  0  0  0  0  0  0  0  0  0  0  0
  -17.4112    2.3457  -15.3553 C   0  0  0  0  0  0  0  0  0  0  0  0
  -17.2163    1.7683  -14.2920 O   0  0  0  0  0  0  0  0  0  0  0  0
  -18.6435    3.2191  -16.7673 H   0  0  0  0  0  0  0  0  0  0  0  0
  -16.1815    2.6417  -16.1569 C   0  0  0  0  0  0  0  0  0  0  0  0
  -15.1596    3.6751  -15.7617 C   0  0  0  0  0  0  0  0  0  0  0  0
  -15.9961    3.8788  -16.9950 C   0  0  0  0  0  0  0  0  0  0  0  0
 23 24  3  0  0  0
 24 13  1  0  0  0
 13 14  1  0  0  0
 13 18  2  0  0  0
 14 15  2  0  0  0
 15 16  1  0  0  0
 16  7  1  0  0  0
 16 17  2  0  0  0
  7  8  1  0  0  0
  7 11  1  0  0  0
  8  9  2  0  0  0
  8 10  1  0  0  0
 10  1  1  0  0  0
 10 12  1  0  0  0
  1  2  1  0  0  0
  1  6  2  0  0  0
  2  3  2  0  0  0
  3  4  1  0  0  0
  4 25  1  0  0  0
  4  5  2  0  0  0
 25 26  1  0  0  0
 26 27  1  0  0  0
 26 31  2  0  0  0
 27 28  2  0  0  0
 28 29  1  0  0  0
 29 30  2  0  0  0
 30 32  1  0  0  0
 30 31  1  0  0  0
 32 33  1  0  0  0
 32 35  1  0  0  0
 33 34  2  0  0  0
 33 36  1  0  0  0
 36 37  1  0  0  0
 36 38  1  0  0  0
 37 38  1  0  0  0
  5  6  1  0  0  0
 17 18  1  0  0  0
 18 19  1  0  0  0
 19 20  1  0  0  0
 19 21  1  0  0  0
 19 22  1  0  0  0
M  END
> <minimizedAffinity>
-11.67654

$$$$
