CHEMBL189325


 46 49  0  0  0  0  0  0  0  0999 V2000
  -29.0091   -4.6132   -6.7690 C   0  0  0  0  0  0  0  0  0  0  0  0
  -28.9490   -3.2555   -7.1341 C   0  0  0  0  0  0  0  0  0  0  0  0
  -28.2772   -2.8271   -8.2807 C   0  0  0  0  0  0  0  0  0  0  0  0
  -28.3034   -1.4999   -8.6947 C   0  0  0  0  0  0  0  0  0  0  0  0
  -27.7269   -1.0526   -9.8246 N   0  0  0  0  0  0  0  0  0  0  0  0
  -27.0789   -1.9487  -10.5880 C   0  0  0  0  0  0  0  0  0  0  0  0
  -26.9520   -3.2881  -10.1989 C   0  0  0  0  0  0  0  0  0  0  0  0
  -27.5712   -3.7591   -9.0384 C   0  0  0  0  0  0  0  0  0  0  0  0
  -27.5217   -5.0628   -8.6634 N   0  0  0  0  0  0  0  0  0  0  0  0
  -28.2814   -5.4827   -7.6055 C   0  0  0  0  0  0  0  0  0  0  0  0
  -30.1392   -6.4642   -3.6175 C   0  0  0  0  0  0  0  0  0  0  0  0
  -30.8984   -5.4850   -2.9779 C   0  0  0  0  0  0  0  0  0  0  0  0
  -31.0741   -4.2482   -3.5867 C   0  0  0  0  0  0  0  0  0  0  0  0
  -30.5481   -4.0192   -4.8621 C   0  0  0  0  0  0  0  0  0  0  0  0
  -29.7380   -4.9687   -5.5198 C   0  0  0  0  0  0  0  0  0  0  0  0
  -29.5572   -6.1954   -4.8644 C   0  0  0  0  0  0  0  0  0  0  0  0
  -28.9900   -8.5237   -3.8942 C   0  0  0  0  0  0  0  0  0  0  0  0
  -29.8685   -7.7136   -3.1244 O   0  0  0  0  0  0  0  0  0  0  0  0
  -31.7330   -3.1853   -3.0252 O   0  0  0  0  0  0  0  0  0  0  0  0
  -30.9454   -2.3617   -2.1681 C   0  0  0  0  0  0  0  0  0  0  0  0
  -28.2578   -6.8846   -7.3749 N   0  0  0  0  0  0  0  0  0  0  0  0
  -29.3474   -7.6222   -7.8149 C   0  0  0  0  0  0  0  0  0  0  0  0
  -30.3290   -7.1447   -8.3765 O   0  0  0  0  0  0  0  0  0  0  0  0
  -29.1653   -8.9809   -7.5946 N   0  0  0  0  0  0  0  0  0  0  0  0
  -27.4307   -7.2905   -7.7922 H   0  0  0  0  0  0  0  0  0  0  0  0
  -28.6618   -9.1884   -6.7437 H   0  0  0  0  0  0  0  0  0  0  0  0
  -30.0914  -10.0259   -8.0966 C   0  0  0  0  0  0  0  0  0  0  0  0
  -29.8702  -10.2489   -9.6034 C   0  0  0  0  0  0  0  0  0  0  0  0
  -29.8045  -11.3668   -7.3855 C   0  0  0  0  0  0  0  0  0  0  0  0
  -31.5637   -9.6705   -7.8306 C   0  0  0  0  0  0  0  0  0  0  0  0
  -26.5034   -1.4793  -11.7958 N   0  0  0  0  0  0  0  0  0  0  0  0
  -27.0973   -1.6723  -13.0481 C   0  0  0  0  0  0  0  0  0  0  0  0
  -28.4119   -2.4062  -13.1632 C   0  0  0  0  0  0  0  0  0  0  0  0
  -26.5937   -1.2158  -14.0824 O   0  0  0  0  0  0  0  0  0  0  0  0
  -25.4890   -0.4200  -11.7797 C   0  0  0  0  0  0  0  0  0  0  0  0
  -23.9876   -0.7315  -11.7005 C   0  0  0  0  0  0  0  0  0  0  0  0
  -23.3779   -1.4363  -12.9109 C   0  0  0  0  0  0  0  0  0  0  0  0
  -22.9693   -0.4652  -13.9999 C   0  0  0  0  0  0  0  0  0  0  0  0
  -21.9482    0.3922  -13.5137 O   0  0  0  0  0  0  0  0  0  0  0  0
  -21.9213    1.6164  -14.2505 C   0  0  0  0  0  0  0  0  0  0  0  0
  -20.5263    1.8961  -14.7178 C   0  0  0  0  0  0  0  0  0  0  0  0
  -20.1487    3.1904  -15.0998 C   0  0  0  0  0  0  0  0  0  0  0  0
  -18.8399    3.4533  -15.5012 C   0  0  0  0  0  0  0  0  0  0  0  0
  -17.8974    2.4258  -15.5253 C   0  0  0  0  0  0  0  0  0  0  0  0
  -18.2655    1.1331  -15.1532 C   0  0  0  0  0  0  0  0  0  0  0  0
  -19.5736    0.8692  -14.7513 C   0  0  0  0  0  0  0  0  0  0  0  0
 17 18  1  0  0  0
 18 11  1  0  0  0
 11 12  1  0  0  0
 11 16  2  0  0  0
 12 13  2  0  0  0
 13 19  1  0  0  0
 13 14  1  0  0  0
 19 20  1  0  0  0
 14 15  2  0  0  0
 15  1  1  0  0  0
 15 16  1  0  0  0
  1  2  1  0  0  0
  1 10  2  0  0  0
  2  3  2  0  0  0
  3  4  1  0  0  0
  3  8  1  0  0  0
  4  5  2  0  0  0
  5  6  1  0  0  0
  6 31  1  0  0  0
  6  7  2  0  0  0
 31 35  1  0  0  0
 31 32  1  0  0  0
 35 36  1  0  0  0
 36 37  1  0  0  0
 37 38  1  0  0  0
 38 39  1  0  0  0
 39 40  1  0  0  0
 40 41  1  0  0  0
 41 42  1  0  0  0
 41 46  2  0  0  0
 42 43  2  0  0  0
 43 44  1  0  0  0
 44 45  2  0  0  0
 45 46  1  0  0  0
 32 33  1  0  0  0
 32 34  2  0  0  0
  7  8  1  0  0  0
  8  9  2  0  0  0
  9 10  1  0  0  0
 10 21  1  0  0  0
 21 22  1  0  0  0
 21 25  1  0  0  0
 22 23  2  0  0  0
 22 24  1  0  0  0
 24 27  1  0  0  0
 24 26  1  0  0  0
 27 28  1  0  0  0
 27 29  1  0  0  0
 27 30  1  0  0  0
M  END
> <minimizedAffinity>
-7.38592

$$$$
