CHEMBL255744


 33 36  0  0  0  0  0  0  0  0999 V2000
  -14.8707   -2.3625  -12.5420 C   0  0  0  0  0  0  0  0  0  0  0  0
  -13.4799   -2.3814  -12.6477 C   0  0  0  0  0  0  0  0  0  0  0  0
  -12.7008   -2.9859  -11.6532 C   0  0  0  0  0  0  0  0  0  0  0  0
  -13.2844   -3.5676  -10.5137 C   0  0  0  0  0  0  0  0  0  0  0  0
  -14.6729   -3.4013  -10.3697 C   0  0  0  0  0  0  0  0  0  0  0  0
  -15.4661   -2.8385  -11.3806 C   0  0  0  0  0  0  0  0  0  0  0  0
  -12.4691   -4.3270   -9.5404 C   0  0  0  0  0  0  0  0  0  0  0  0
  -12.1663   -3.8036   -8.2614 C   0  0  0  0  0  0  0  0  0  0  0  0
  -11.3696   -4.5128   -7.3732 C   0  0  0  0  0  0  0  0  0  0  0  0
  -10.8294   -5.7214   -7.6085 N   0  0  0  0  0  0  0  0  0  0  0  0
  -11.1251   -6.1934   -8.8358 C   0  0  0  0  0  0  0  0  0  0  0  0
  -10.7019   -7.3846   -9.3319 N   0  0  0  0  0  0  0  0  0  0  0  0
  -11.0976   -7.6353  -10.5835 N   0  0  0  0  0  0  0  0  0  0  0  0
  -11.7875   -6.5411  -10.9084 C   0  0  0  0  0  0  0  0  0  0  0  0
  -12.3117   -6.4193  -12.1399 N   0  0  0  0  0  0  0  0  0  0  0  0
  -11.8867   -5.5933   -9.8368 C   0  0  0  0  0  0  0  0  0  0  0  0
  -10.1267   -8.0698   -8.8461 H   0  0  0  0  0  0  0  0  0  0  0  0
  -12.0186   -7.1226  -12.8094 H   0  0  0  0  0  0  0  0  0  0  0  0
  -12.3817   -5.4948  -12.5513 H   0  0  0  0  0  0  0  0  0  0  0  0
  -16.8826   -0.3127  -14.7522 N   0  0  0  0  0  0  0  0  0  0  0  0
  -16.1061   -0.5922  -13.6378 C   0  0  0  0  0  0  0  0  0  0  0  0
  -15.7994    0.2240  -12.7744 O   0  0  0  0  0  0  0  0  0  0  0  0
  -15.6873   -1.9192  -13.6111 N   0  0  0  0  0  0  0  0  0  0  0  0
  -17.3429   -1.0987  -15.1833 H   0  0  0  0  0  0  0  0  0  0  0  0
  -15.4786   -2.3012  -14.5224 H   0  0  0  0  0  0  0  0  0  0  0  0
  -16.0083    4.0998  -16.8096 C   0  0  0  0  0  0  0  0  0  0  0  0
  -16.9359    3.1595  -16.0958 C   0  0  0  0  0  0  0  0  0  0  0  0
  -18.2569    3.5414  -15.8280 C   0  0  0  0  0  0  0  0  0  0  0  0
  -19.1276    2.6673  -15.1757 C   0  0  0  0  0  0  0  0  0  0  0  0
  -20.5445    3.0551  -14.8702 C   0  0  0  0  0  0  0  0  0  0  0  0
  -18.6682    1.3955  -14.8076 C   0  0  0  0  0  0  0  0  0  0  0  0
  -17.3604    0.9813  -15.0833 C   0  0  0  0  0  0  0  0  0  0  0  0
  -16.4905    1.8827  -15.7068 C   0  0  0  0  0  0  0  0  0  0  0  0
 26 27  1  0  0  0
 27 28  1  0  0  0
 27 33  2  0  0  0
 28 29  2  0  0  0
 29 30  1  0  0  0
 29 31  1  0  0  0
 31 32  2  0  0  0
 32 20  1  0  0  0
 32 33  1  0  0  0
 20 21  1  0  0  0
 20 24  1  0  0  0
 21 22  2  0  0  0
 21 23  1  0  0  0
 23  1  1  0  0  0
 23 25  1  0  0  0
  1  2  1  0  0  0
  1  6  2  0  0  0
  2  3  2  0  0  0
  3  4  1  0  0  0
  4  7  1  0  0  0
  4  5  2  0  0  0
  7  8  1  0  0  0
  7 16  2  0  0  0
  8  9  2  0  0  0
  9 10  1  0  0  0
 10 11  2  0  0  0
 11 12  1  0  0  0
 11 16  1  0  0  0
 12 13  1  0  0  0
 12 17  1  0  0  0
 13 14  2  0  0  0
 14 15  1  0  0  0
 14 16  1  0  0  0
 15 18  1  0  0  0
 15 19  1  0  0  0
  5  6  1  0  0  0
M  END
> <minimizedAffinity>
-9.33620

$$$$
