CHEMBL201511


 30 33  0  0  0  0  0  0  0  0999 V2000
  -29.4125   -6.4700   -5.1565 C   0  0  0  0  0  0  0  0  0  0  0  0
  -29.1259   -5.1561   -5.2469 C   0  0  0  0  0  0  0  0  0  0  0  0
  -28.8887   -4.6481   -3.8698 C   0  0  0  0  0  0  0  0  0  0  0  0
  -28.6639   -3.5098   -3.5328 O   0  0  0  0  0  0  0  0  0  0  0  0
  -28.9929   -5.7119   -3.0397 N   0  0  0  0  0  0  0  0  0  0  0  0
  -29.2764   -6.8324   -3.7302 C   0  0  0  0  0  0  0  0  0  0  0  0
  -29.3799   -7.9532   -3.2721 O   0  0  0  0  0  0  0  0  0  0  0  0
  -28.8375   -5.6758   -2.0507 H   0  0  0  0  0  0  0  0  0  0  0  0
  -28.9370   -4.3746   -6.4103 C   0  0  0  0  0  0  0  0  0  0  0  0
  -28.2697   -4.7816   -7.5481 C   0  0  0  0  0  0  0  0  0  0  0  0
  -28.2713   -3.6945   -8.3780 N   0  0  0  0  0  0  0  0  0  0  0  0
  -28.3444   -2.5713   -7.5930 C   0  0  0  0  0  0  0  0  0  0  0  0
  -27.8029   -1.2930   -7.7213 C   0  0  0  0  0  0  0  0  0  0  0  0
  -28.1853   -0.3582   -6.7555 C   0  0  0  0  0  0  0  0  0  0  0  0
  -29.1793   -0.6537   -5.8216 C   0  0  0  0  0  0  0  0  0  0  0  0
  -29.6839   -1.9529   -5.6985 C   0  0  0  0  0  0  0  0  0  0  0  0
  -29.1301   -2.9585   -6.5113 C   0  0  0  0  0  0  0  0  0  0  0  0
  -28.4721   -3.7202   -9.3695 H   0  0  0  0  0  0  0  0  0  0  0  0
  -31.3285   -8.6690   -7.6004 C   0  0  0  0  0  0  0  0  0  0  0  0
  -31.0370   -7.7615   -6.5559 C   0  0  0  0  0  0  0  0  0  0  0  0
  -29.7147   -7.4455   -6.2077 C   0  0  0  0  0  0  0  0  0  0  0  0
  -28.6661   -8.0699   -6.8937 C   0  0  0  0  0  0  0  0  0  0  0  0
  -28.9317   -8.9875   -7.9161 C   0  0  0  0  0  0  0  0  0  0  0  0
  -30.2524   -9.2606   -8.2962 C   0  0  0  0  0  0  0  0  0  0  0  0
  -33.2420  -10.0022   -7.0952 C   0  0  0  0  0  0  0  0  0  0  0  0
  -32.5866   -9.0502   -7.9306 O   0  0  0  0  0  0  0  0  0  0  0  0
  -27.9362   -9.6172   -8.6297 O   0  0  0  0  0  0  0  0  0  0  0  0
  -27.1560   -8.7817   -9.4745 C   0  0  0  0  0  0  0  0  0  0  0  0
  -30.3873  -10.1869   -9.3204 O   0  0  0  0  0  0  0  0  0  0  0  0
  -30.4523  -11.5615   -8.9635 C   0  0  0  0  0  0  0  0  0  0  0  0
 25 26  1  0  0  0
 26 19  1  0  0  0
 19 20  1  0  0  0
 19 24  2  0  0  0
 20 21  2  0  0  0
 21  1  1  0  0  0
 21 22  1  0  0  0
  1  2  2  0  0  0
  1  6  1  0  0  0
  2  9  1  0  0  0
  2  3  1  0  0  0
  9 10  2  0  0  0
  9 17  1  0  0  0
 10 11  1  0  0  0
 11 12  1  0  0  0
 11 18  1  0  0  0
 12 13  1  0  0  0
 12 17  2  0  0  0
 13 14  2  0  0  0
 14 15  1  0  0  0
 15 16  2  0  0  0
 16 17  1  0  0  0
  3  4  2  0  0  0
  3  5  1  0  0  0
  5  6  1  0  0  0
  5  8  1  0  0  0
  6  7  2  0  0  0
 22 23  2  0  0  0
 23 27  1  0  0  0
 23 24  1  0  0  0
 27 28  1  0  0  0
 24 29  1  0  0  0
 29 30  1  0  0  0
M  END
> <minimizedAffinity>
-8.72617

$$$$
