CHEMBL3961158


 39 42  0  0  0  0  0  0  0  0999 V2000
  -20.8575    3.5058  -15.2171 C   0  0  0  0  0  0  0  0  0  0  0  0
  -19.6685    2.5859  -15.2576 C   0  0  0  0  0  0  0  0  0  0  0  0
  -18.3970    3.2043  -15.2981 C   0  0  0  0  0  0  0  0  0  0  0  0
  -17.2154    2.4629  -15.2203 C   0  0  0  0  0  0  0  0  0  0  0  0
  -17.3090    1.0840  -15.1501 C   0  0  0  0  0  0  0  0  0  0  0  0
  -16.2006    0.3304  -15.0854 F   0  0  0  0  0  0  0  0  0  0  0  0
  -18.5508    0.4492  -15.1510 C   0  0  0  0  0  0  0  0  0  0  0  0
  -19.7500    1.1736  -15.2283 C   0  0  0  0  0  0  0  0  0  0  0  0
  -21.0137    0.5136  -15.2889 N   0  0  0  0  0  0  0  0  0  0  0  0
  -21.8470    0.2553  -14.2020 C   0  0  0  0  0  0  0  0  0  0  0  0
  -21.6332    0.6090  -13.0500 O   0  0  0  0  0  0  0  0  0  0  0  0
  -22.9471   -0.5285  -14.5365 N   0  0  0  0  0  0  0  0  0  0  0  0
  -21.3021    0.1499  -16.1863 H   0  0  0  0  0  0  0  0  0  0  0  0
  -22.7783   -1.1945  -15.2754 H   0  0  0  0  0  0  0  0  0  0  0  0
  -23.8709   -0.9361  -13.5347 C   0  0  0  0  0  0  0  0  0  0  0  0
  -23.4273   -1.0332  -12.2197 C   0  0  0  0  0  0  0  0  0  0  0  0
  -24.3299   -1.3519  -11.2020 C   0  0  0  0  0  0  0  0  0  0  0  0
  -25.6726   -1.6339  -11.4877 C   0  0  0  0  0  0  0  0  0  0  0  0
  -26.6754   -2.0146  -10.1361 Cl  0  0  0  0  0  0  0  0  0  0  0  0
  -26.1357   -1.5925  -12.8058 C   0  0  0  0  0  0  0  0  0  0  0  0
  -25.2153   -1.2204  -13.8213 C   0  0  0  0  0  0  0  0  0  0  0  0
  -27.5526   -1.9149  -13.2199 C   0  0  0  0  0  0  0  0  0  0  0  0
  -27.9211   -3.2235  -13.1874 F   0  0  0  0  0  0  0  0  0  0  0  0
  -28.4739   -1.2595  -12.4573 F   0  0  0  0  0  0  0  0  0  0  0  0
  -27.7979   -1.5158  -14.5042 F   0  0  0  0  0  0  0  0  0  0  0  0
  -15.9598    3.0307  -15.2735 O   0  0  0  0  0  0  0  0  0  0  0  0
  -15.3485    3.1338  -16.5197 C   0  0  0  0  0  0  0  0  0  0  0  0
  -15.5698    4.2925  -17.2382 C   0  0  0  0  0  0  0  0  0  0  0  0
  -14.9438    4.3701  -18.4634 C   0  0  0  0  0  0  0  0  0  0  0  0
  -14.1579    3.3835  -18.9116 N   0  0  0  0  0  0  0  0  0  0  0  0
  -14.0306    2.2947  -18.1521 C   0  0  0  0  0  0  0  0  0  0  0  0
  -14.6060    2.1076  -16.9706 N   0  0  0  0  0  0  0  0  0  0  0  0
  -15.1493    5.5060  -19.2717 N   0  0  0  0  0  0  0  0  0  0  0  0
  -14.3965    6.6622  -19.1781 C   0  0  0  0  0  0  0  0  0  0  0  0
  -13.5043    6.8979  -18.3741 O   0  0  0  0  0  0  0  0  0  0  0  0
  -15.8686    5.4556  -19.9736 H   0  0  0  0  0  0  0  0  0  0  0  0
  -14.6979    7.7425  -20.1652 C   0  0  0  0  0  0  0  0  0  0  0  0
  -15.6995    8.8163  -19.8110 C   0  0  0  0  0  0  0  0  0  0  0  0
  -15.9548    7.9060  -20.9778 C   0  0  0  0  0  0  0  0  0  0  0  0
  1  2  1  0  0  0
  2  3  1  0  0  0
  2  8  2  0  0  0
  3  4  2  0  0  0
  4 26  1  0  0  0
  4  5  1  0  0  0
 26 27  1  0  0  0
 27 28  1  0  0  0
 27 32  2  0  0  0
 28 29  2  0  0  0
 29 33  1  0  0  0
 29 30  1  0  0  0
 33 34  1  0  0  0
 33 36  1  0  0  0
 34 35  2  0  0  0
 34 37  1  0  0  0
 37 38  1  0  0  0
 37 39  1  0  0  0
 38 39  1  0  0  0
 30 31  2  0  0  0
 31 32  1  0  0  0
  5  6  1  0  0  0
  5  7  2  0  0  0
  7  8  1  0  0  0
  8  9  1  0  0  0
  9 10  1  0  0  0
  9 13  1  0  0  0
 10 11  2  0  0  0
 10 12  1  0  0  0
 12 15  1  0  0  0
 12 14  1  0  0  0
 15 16  1  0  0  0
 15 21  2  0  0  0
 16 17  2  0  0  0
 17 18  1  0  0  0
 18 19  1  0  0  0
 18 20  2  0  0  0
 20 22  1  0  0  0
 20 21  1  0  0  0
 22 23  1  0  0  0
 22 24  1  0  0  0
 22 25  1  0  0  0
M  END
> <minimizedAffinity>
-9.81716

$$$$
