CHEMBL3919791


 36 39  0  0  0  0  0  0  0  0999 V2000
  -13.7969   -5.1271  -12.9470 C   0  0  0  0  0  0  0  0  0  0  0  0
  -13.3346   -4.2394  -13.9376 C   0  0  0  0  0  0  0  0  0  0  0  0
  -13.6954   -2.8798  -13.9624 C   0  0  0  0  0  0  0  0  0  0  0  0
  -14.5631   -2.3852  -12.9719 C   0  0  0  0  0  0  0  0  0  0  0  0
  -15.1707   -1.1331  -12.6430 C   0  0  0  0  0  0  0  0  0  0  0  0
  -15.9461   -1.2399  -11.5541 N   0  0  0  0  0  0  0  0  0  0  0  0
  -15.8466   -2.5268  -11.2037 N   0  0  0  0  0  0  0  0  0  0  0  0
  -15.0267   -3.2685  -12.0058 C   0  0  0  0  0  0  0  0  0  0  0  0
  -14.6655   -4.6203  -11.9593 C   0  0  0  0  0  0  0  0  0  0  0  0
  -16.3758   -2.8440  -10.4004 H   0  0  0  0  0  0  0  0  0  0  0  0
  -12.9651   -8.6715  -14.1098 C   0  0  0  0  0  0  0  0  0  0  0  0
  -13.3278   -7.3178  -14.1158 C   0  0  0  0  0  0  0  0  0  0  0  0
  -13.3786   -6.5527  -12.9299 C   0  0  0  0  0  0  0  0  0  0  0  0
  -13.0314   -7.1981  -11.7299 C   0  0  0  0  0  0  0  0  0  0  0  0
  -12.6480   -8.5415  -11.7079 C   0  0  0  0  0  0  0  0  0  0  0  0
  -12.6224   -9.2701  -12.8932 C   0  0  0  0  0  0  0  0  0  0  0  0
  -12.2606  -10.5906  -12.8720 O   0  0  0  0  0  0  0  0  0  0  0  0
  -12.0589  -10.8503  -11.9601 H   0  0  0  0  0  0  0  0  0  0  0  0
  -12.9180   -8.8436  -16.4899 C   0  0  0  0  0  0  0  0  0  0  0  0
  -12.9144   -9.4761  -15.2183 O   0  0  0  0  0  0  0  0  0  0  0  0
  -15.0196    0.0853  -13.3904 C   0  0  0  0  0  0  0  0  0  0  0  0
  -15.8951    0.5156  -14.3143 C   0  0  0  0  0  0  0  0  0  0  0  0
  -15.7167    1.6987  -15.1670 C   0  0  0  0  0  0  0  0  0  0  0  0
  -16.8043    2.4732  -15.5799 C   0  0  0  0  0  0  0  0  0  0  0  0
  -16.6116    3.6362  -16.3283 C   0  0  0  0  0  0  0  0  0  0  0  0
  -15.3305    4.0630  -16.6777 C   0  0  0  0  0  0  0  0  0  0  0  0
  -14.2353    3.3077  -16.2485 C   0  0  0  0  0  0  0  0  0  0  0  0
  -14.4280    2.1367  -15.4984 C   0  0  0  0  0  0  0  0  0  0  0  0
  -15.0934    5.2282  -17.4308 N   0  0  0  0  0  0  0  0  0  0  0  0
  -15.0432    5.3391  -18.8112 C   0  0  0  0  0  0  0  0  0  0  0  0
  -15.1732    4.4344  -19.6307 O   0  0  0  0  0  0  0  0  0  0  0  0
  -14.9434    6.1035  -16.9348 H   0  0  0  0  0  0  0  0  0  0  0  0
  -14.7536    6.7645  -19.2869 C   0  0  0  0  0  0  0  0  0  0  0  0
  -14.7689    7.7258  -18.1658 N   0  0  0  0  0  0  0  0  0  0  0  0
  -15.6778    7.6550  -17.7022 H   0  0  0  0  0  0  0  0  0  0  0  0
  -14.7576    8.6647  -18.5709 H   0  0  0  0  0  0  0  0  0  0  0  0
 19 20  1  0  0  0
 20 11  1  0  0  0
 11 12  1  0  0  0
 11 16  2  0  0  0
 12 13  2  0  0  0
 13  1  1  0  0  0
 13 14  1  0  0  0
  1  2  1  0  0  0
  1  9  2  0  0  0
  2  3  2  0  0  0
  3  4  1  0  0  0
  4  5  1  0  0  0
  4  8  2  0  0  0
  5 21  1  0  0  0
  5  6  2  0  0  0
 21 22  2  0  0  0
 22 23  1  0  0  0
 23 24  1  0  0  0
 23 28  2  0  0  0
 24 25  2  0  0  0
 25 26  1  0  0  0
 26 29  1  0  0  0
 26 27  2  0  0  0
 29 30  1  0  0  0
 29 32  1  0  0  0
 30 31  2  0  0  0
 30 33  1  0  0  0
 33 34  1  0  0  0
 34 35  1  0  0  0
 34 36  1  0  0  0
 27 28  1  0  0  0
  6  7  1  0  0  0
  7  8  1  0  0  0
  7 10  1  0  0  0
  8  9  1  0  0  0
 14 15  2  0  0  0
 15 16  1  0  0  0
 16 17  1  0  0  0
 17 18  1  0  0  0
M  END
> <minimizedAffinity>
-7.59350

$$$$
