CHEMBL3893896


 29 32  0  0  0  0  0  0  0  0999 V2000
  -27.2329   -1.8056  -11.0127 C   0  0  0  0  0  0  0  0  0  0  0  0
  -27.5444   -1.8747  -12.3819 C   0  0  0  0  0  0  0  0  0  0  0  0
  -26.5829   -1.5906  -13.3862 C   0  0  0  0  0  0  0  0  0  0  0  0
  -25.2380   -1.4681  -12.9877 C   0  0  0  0  0  0  0  0  0  0  0  0
  -23.9206   -1.2333  -13.5298 C   0  0  0  0  0  0  0  0  0  0  0  0
  -23.0663   -1.9877  -12.8062 N   0  0  0  0  0  0  0  0  0  0  0  0
  -23.6122   -1.9004  -11.5906 N   0  0  0  0  0  0  0  0  0  0  0  0
  -24.9587   -1.6253  -11.6305 C   0  0  0  0  0  0  0  0  0  0  0  0
  -25.9082   -1.6021  -10.6194 C   0  0  0  0  0  0  0  0  0  0  0  0
  -23.0416   -2.1606  -10.7798 H   0  0  0  0  0  0  0  0  0  0  0  0
  -28.1807   -2.2392  -10.0370 N   0  0  0  0  0  0  0  0  0  0  0  0
  -28.3331   -3.2329  -10.2137 H   0  0  0  0  0  0  0  0  0  0  0  0
  -27.8631    0.8006   -6.2423 N   0  0  0  0  0  0  0  0  0  0  0  0
  -27.8172   -0.5084   -6.7380 C   0  0  0  0  0  0  0  0  0  0  0  0
  -27.9427   -1.5939   -5.8655 C   0  0  0  0  0  0  0  0  0  0  0  0
  -28.0566   -2.8924   -6.3660 C   0  0  0  0  0  0  0  0  0  0  0  0
  -28.1039   -3.1103   -7.7432 C   0  0  0  0  0  0  0  0  0  0  0  0
  -28.0251   -2.0353   -8.6360 C   0  0  0  0  0  0  0  0  0  0  0  0
  -27.9032   -0.7396   -8.1159 C   0  0  0  0  0  0  0  0  0  0  0  0
  -27.5051    0.9012   -5.2989 H   0  0  0  0  0  0  0  0  0  0  0  0
  -27.4809    1.4903   -6.8807 H   0  0  0  0  0  0  0  0  0  0  0  0
  -23.3163    0.0120  -13.9750 C   0  0  0  0  0  0  0  0  0  0  0  0
  -22.1481    0.4695  -13.4968 C   0  0  0  0  0  0  0  0  0  0  0  0
  -21.1142    1.2447  -14.2313 C   0  0  0  0  0  0  0  0  0  0  0  0
  -19.9211    0.7339  -14.7672 C   0  0  0  0  0  0  0  0  0  0  0  0
  -19.0015    1.5841  -15.4011 C   0  0  0  0  0  0  0  0  0  0  0  0
  -19.2501    2.9544  -15.4944 C   0  0  0  0  0  0  0  0  0  0  0  0
  -20.4029    3.4795  -14.9199 C   0  0  0  0  0  0  0  0  0  0  0  0
  -21.3158    2.6351  -14.2913 C   0  0  0  0  0  0  0  0  0  0  0  0
 13 14  1  0  0  0
 13 20  1  0  0  0
 13 21  1  0  0  0
 14 15  1  0  0  0
 14 19  2  0  0  0
 15 16  2  0  0  0
 16 17  1  0  0  0
 17 18  2  0  0  0
 18 11  1  0  0  0
 18 19  1  0  0  0
 11  1  1  0  0  0
 11 12  1  0  0  0
  1  2  1  0  0  0
  1  9  2  0  0  0
  2  3  2  0  0  0
  3  4  1  0  0  0
  4  5  1  0  0  0
  4  8  2  0  0  0
  5 22  1  0  0  0
  5  6  2  0  0  0
 22 23  2  0  0  0
 23 24  1  0  0  0
 24 25  1  0  0  0
 24 29  2  0  0  0
 25 26  2  0  0  0
 26 27  1  0  0  0
 27 28  2  0  0  0
 28 29  1  0  0  0
  6  7  1  0  0  0
  7  8  1  0  0  0
  7 10  1  0  0  0
  8  9  1  0  0  0
M  END
> <minimizedAffinity>
-11.33809

$$$$
