CHEMBL3774451
 OpenBabel04072215373D

 49 53  0  0  0  0  0  0  0  0999 V2000
    1.3083   -0.7314    0.5552 O   0  0  0  0  0  0  0  0  0  0  0  0
    2.4494   -0.3988    0.2657 C   0  0  0  0  0  0  0  0  0  0  0  0
    3.0446    0.7995    0.6446 N   0  0  0  0  0  0  0  0  0  0  0  0
    2.4710    1.8418    1.4185 C   0  0  0  0  0  0  0  0  0  0  0  0
    1.2954    1.7194    2.1663 C   0  0  0  0  0  0  0  0  0  0  0  0
    0.7705    2.8180    2.8786 C   0  0  0  0  0  0  0  0  0  0  0  0
    1.4016    4.0640    2.8474 C   0  0  0  0  0  0  0  0  0  0  0  0
    0.8065    5.0737    3.5789 O   0  0  0  0  0  0  0  0  0  0  0  0
    0.8606    6.3891    3.1506 C   0  0  0  0  0  0  0  0  0  0  0  0
    0.9286    6.7649    1.8045 C   0  0  0  0  0  0  0  0  0  0  0  0
    1.0304    8.1103    1.4718 C   0  0  0  0  0  0  0  0  0  0  0  0
    1.0071    9.1422    2.3410 N   0  0  0  0  0  0  0  0  0  0  0  0
    0.8444    8.7449    3.6179 C   0  0  0  0  0  0  0  0  0  0  0  0
    0.7427    9.6045    4.6726 N   0  0  0  0  0  0  0  0  0  0  0  0
    0.5506    8.8953    5.8298 C   0  0  0  0  0  0  0  0  0  0  0  0
    0.5598    7.5534    5.5041 C   0  0  0  0  0  0  0  0  0  0  0  0
    0.7545    7.4382    4.0945 C   0  0  0  0  0  0  0  0  0  0  0  0
    2.6097    4.1613    2.1537 C   0  0  0  0  0  0  0  0  0  0  0  0
    3.3089    5.3056    2.1365 F   0  0  0  0  0  0  0  0  0  0  0  0
    3.1324    3.0740    1.4392 C   0  0  0  0  0  0  0  0  0  0  0  0
    3.3091   -1.2428   -0.5843 C   0  0  0  0  0  0  0  0  0  0  0  0
    4.6373   -0.9569   -0.7621 N   0  0  0  0  0  0  0  0  0  0  0  0
    5.1765   -1.9200   -1.4950 N   0  0  0  0  0  0  0  0  0  0  0  0
    4.1959   -2.7595   -1.9101 N   0  0  0  0  0  0  0  0  0  0  0  0
    4.5185   -3.7723   -2.8731 C   0  0  0  0  0  0  0  0  0  0  0  0
    5.8260   -4.2978   -2.8875 C   0  0  0  0  0  0  0  0  0  0  0  0
    6.1936   -5.2678   -3.8270 C   0  0  0  0  0  0  0  0  0  0  0  0
    5.2737   -5.6975   -4.7703 C   0  0  0  0  0  0  0  0  0  0  0  0
    5.6316   -6.6108   -5.6812 F   0  0  0  0  0  0  0  0  0  0  0  0
    3.9879   -5.1731   -4.7921 C   0  0  0  0  0  0  0  0  0  0  0  0
    3.6056   -4.2114   -3.8424 C   0  0  0  0  0  0  0  0  0  0  0  0
    3.0113   -2.4117   -1.2778 C   0  0  0  0  0  0  0  0  0  0  0  0
    1.8208   -3.2619   -1.3070 C   0  0  0  0  0  0  0  0  0  0  0  0
    0.8769   -2.9403   -0.3974 F   0  0  0  0  0  0  0  0  0  0  0  0
    1.2017   -3.2296   -2.5122 F   0  0  0  0  0  0  0  0  0  0  0  0
    2.1423   -4.5585   -1.0620 F   0  0  0  0  0  0  0  0  0  0  0  0
    3.9631    0.9725    0.2468 H   0  0  0  0  0  0  0  0  0  0  0  0
    0.7644    0.7730    2.2367 H   0  0  0  0  0  0  0  0  0  0  0  0
   -0.1411    2.6887    3.4588 H   0  0  0  0  0  0  0  0  0  0  0  0
    0.9302    6.0308    1.0087 H   0  0  0  0  0  0  0  0  0  0  0  0
    1.1441    8.4038    0.4323 H   0  0  0  0  0  0  0  0  0  0  0  0
    0.7834   10.6085    4.5830 H   0  0  0  0  0  0  0  0  0  0  0  0
    0.4220    9.4061    6.7756 H   0  0  0  0  0  0  0  0  0  0  0  0
    0.4234    6.7381    6.2051 H   0  0  0  0  0  0  0  0  0  0  0  0
    4.0535    3.2301    0.8849 H   0  0  0  0  0  0  0  0  0  0  0  0
    6.5688   -3.9790   -2.1582 H   0  0  0  0  0  0  0  0  0  0  0  0
    7.1981   -5.6868   -3.8289 H   0  0  0  0  0  0  0  0  0  0  0  0
    3.2942   -5.4964   -5.5636 H   0  0  0  0  0  0  0  0  0  0  0  0
    2.6165   -3.7830   -3.9576 H   0  0  0  0  0  0  0  0  0  0  0  0
  1  2  2  0  0  0  0
  2  3  1  0  0  0  0
  2 21  1  0  0  0  0
  3  4  1  0  0  0  0
  3 37  1  0  0  0  0
  4  5  1  0  0  0  0
  4 20  2  0  0  0  0
  5  6  2  0  0  0  0
  5 38  1  0  0  0  0
  6  7  1  0  0  0  0
  6 39  1  0  0  0  0
  7  8  1  0  0  0  0
  7 18  2  0  0  0  0
  8  9  1  0  0  0  0
  9 10  1  0  0  0  0
  9 17  2  0  0  0  0
 10 11  2  0  0  0  0
 10 40  1  0  0  0  0
 11 12  1  0  0  0  0
 11 41  1  0  0  0  0
 12 13  2  0  0  0  0
 13 14  1  0  0  0  0
 13 17  1  0  0  0  0
 14 15  1  0  0  0  0
 14 42  1  0  0  0  0
 15 16  2  0  0  0  0
 15 43  1  0  0  0  0
 16 17  1  0  0  0  0
 16 44  1  0  0  0  0
 18 19  1  0  0  0  0
 18 20  1  0  0  0  0
 20 45  1  0  0  0  0
 21 22  1  0  0  0  0
 21 32  2  0  0  0  0
 22 23  2  0  0  0  0
 23 24  1  0  0  0  0
 24 25  1  0  0  0  0
 24 32  1  0  0  0  0
 25 26  1  0  0  0  0
 25 31  2  0  0  0  0
 26 27  2  0  0  0  0
 26 46  1  0  0  0  0
 27 28  1  0  0  0  0
 27 47  1  0  0  0  0
 28 29  1  0  0  0  0
 28 30  2  0  0  0  0
 30 31  1  0  0  0  0
 30 48  1  0  0  0  0
 31 49  1  0  0  0  0
 32 33  1  0  0  0  0
 33 34  1  0  0  0  0
 33 35  1  0  0  0  0
 33 36  1  0  0  0  0
M  END
$$$$
