CHEMBL191594
 OpenBabel04072215363D

 66 69  0  0  0  0  0  0  0  0999 V2000
   -1.3335   -9.6543   -4.3888 C   0  0  0  0  0  0  0  0  0  0  0  0
   -1.7710   -8.3488   -4.0171 O   0  0  0  0  0  0  0  0  0  0  0  0
   -0.6589   -7.6365   -3.5039 N   0  0  0  0  0  0  0  0  0  0  0  0
    0.0061   -6.8601   -4.4285 C   0  0  0  0  0  0  0  0  0  0  0  0
   -0.1572   -6.9273   -5.6450 O   0  0  0  0  0  0  0  0  0  0  0  0
    1.0038   -5.8977   -3.8988 C   0  0  0  0  0  0  0  0  0  0  0  0
    2.0599   -5.5072   -4.7449 C   0  0  0  0  0  0  0  0  0  0  0  0
    2.9712   -4.5147   -4.3589 C   0  0  0  0  0  0  0  0  0  0  0  0
    4.0104   -4.0746   -5.2107 N   0  0  0  0  0  0  0  0  0  0  0  0
    4.6287   -4.7959   -6.2160 C   0  0  0  0  0  0  0  0  0  0  0  0
    4.7440   -6.0892   -6.0724 N   0  0  0  0  0  0  0  0  0  0  0  0
    5.4122   -6.8259   -7.0052 C   0  0  0  0  0  0  0  0  0  0  0  0
    5.9828   -6.3815   -8.0763 N   0  0  0  0  0  0  0  0  0  0  0  0
    5.8433   -5.0620   -8.2599 N   0  0  0  0  0  0  0  0  0  0  0  0
    6.3070   -4.3862   -9.3434 C   0  0  0  0  0  0  0  0  0  0  0  0
    5.9014   -3.0733   -9.2872 C   0  0  0  0  0  0  0  0  0  0  0  0
    6.1510   -2.1256  -10.2934 N   0  0  0  0  0  0  0  0  0  0  0  0
    6.5830   -2.4227  -11.5734 C   0  0  0  0  0  0  0  0  0  0  0  0
    6.8470   -3.5274  -12.0223 O   0  0  0  0  0  0  0  0  0  0  0  0
    6.5965   -1.2968  -12.3705 O   0  0  0  0  0  0  0  0  0  0  0  0
    6.5354   -1.5463  -13.8028 C   0  0  0  0  0  0  0  0  0  0  0  0
    7.8683   -1.9115  -14.4680 C   0  0  0  0  0  0  0  0  0  0  0  0
    8.8211   -0.7272  -14.6424 C   0  0  0  0  0  0  0  0  0  0  0  0
    8.1898    0.4511  -15.2545 N   0  0  0  0  0  0  0  0  0  0  0  0
    9.1357    1.5747  -15.2580 C   0  0  0  0  0  0  0  0  0  0  0  0
    6.9565    0.8360  -14.5608 C   0  0  0  0  0  0  0  0  0  0  0  0
    5.9535   -0.3143  -14.4980 C   0  0  0  0  0  0  0  0  0  0  0  0
    5.1714   -2.9359   -8.0280 C   0  0  0  0  0  0  0  0  0  0  0  0
    4.4571   -1.7240   -7.4648 C   0  0  0  0  0  0  0  0  0  0  0  0
    5.3771   -0.8894   -6.5764 C   0  0  0  0  0  0  0  0  0  0  0  0
    3.7631   -0.8378   -8.4984 C   0  0  0  0  0  0  0  0  0  0  0  0
    5.1863   -4.2061   -7.4239 C   0  0  0  0  0  0  0  0  0  0  0  0
    2.8331   -3.9764   -3.0695 C   0  0  0  0  0  0  0  0  0  0  0  0
    3.6983   -3.0426   -2.6475 F   0  0  0  0  0  0  0  0  0  0  0  0
    1.8150   -4.3788   -2.2017 C   0  0  0  0  0  0  0  0  0  0  0  0
    0.8977   -5.3335   -2.6308 C   0  0  0  0  0  0  0  0  0  0  0  0
   -0.1013   -5.6794   -1.8044 F   0  0  0  0  0  0  0  0  0  0  0  0
   -2.1917  -10.2082   -4.7781 H   0  0  0  0  0  0  0  0  0  0  0  0
   -0.9374  -10.1845   -3.5172 H   0  0  0  0  0  0  0  0  0  0  0  0
   -0.5721   -9.6000   -5.1737 H   0  0  0  0  0  0  0  0  0  0  0  0
   -0.7536   -7.3312   -2.5397 H   0  0  0  0  0  0  0  0  0  0  0  0
    2.1351   -5.9622   -5.7307 H   0  0  0  0  0  0  0  0  0  0  0  0
    4.3332   -3.1331   -5.0295 H   0  0  0  0  0  0  0  0  0  0  0  0
    5.4721   -7.9099   -6.8051 H   0  0  0  0  0  0  0  0  0  0  0  0
    6.8706   -4.9309  -10.0933 H   0  0  0  0  0  0  0  0  0  0  0  0
    5.8874   -1.1622  -10.1427 H   0  0  0  0  0  0  0  0  0  0  0  0
    5.8270   -2.3693  -13.9615 H   0  0  0  0  0  0  0  0  0  0  0  0
    7.6495   -2.3204  -15.4648 H   0  0  0  0  0  0  0  0  0  0  0  0
    8.3874   -2.6979  -13.9110 H   0  0  0  0  0  0  0  0  0  0  0  0
    9.6418   -1.0546  -15.2968 H   0  0  0  0  0  0  0  0  0  0  0  0
    9.2631   -0.4779  -13.6718 H   0  0  0  0  0  0  0  0  0  0  0  0
    9.9819    1.3668  -15.9221 H   0  0  0  0  0  0  0  0  0  0  0  0
    9.5284    1.7819  -14.2548 H   0  0  0  0  0  0  0  0  0  0  0  0
    8.6622    2.4919  -15.6273 H   0  0  0  0  0  0  0  0  0  0  0  0
    6.4832    1.6596  -15.1110 H   0  0  0  0  0  0  0  0  0  0  0  0
    7.1712    1.1994  -13.5487 H   0  0  0  0  0  0  0  0  0  0  0  0
    5.6578   -0.5858  -15.5223 H   0  0  0  0  0  0  0  0  0  0  0  0
    5.0523    0.0254  -13.9785 H   0  0  0  0  0  0  0  0  0  0  0  0
    3.6405   -2.0935   -6.8310 H   0  0  0  0  0  0  0  0  0  0  0  0
    6.2021   -0.4540   -7.1461 H   0  0  0  0  0  0  0  0  0  0  0  0
    5.8127   -1.4946   -5.7708 H   0  0  0  0  0  0  0  0  0  0  0  0
    4.8204   -0.0699   -6.1030 H   0  0  0  0  0  0  0  0  0  0  0  0
    4.4731   -0.2284   -9.0620 H   0  0  0  0  0  0  0  0  0  0  0  0
    3.0827   -0.1403   -7.9963 H   0  0  0  0  0  0  0  0  0  0  0  0
    3.1723   -1.4323   -9.2015 H   0  0  0  0  0  0  0  0  0  0  0  0
    1.7268   -3.9420   -1.2157 H   0  0  0  0  0  0  0  0  0  0  0  0
  1  2  1  0  0  0  0
  1 38  1  0  0  0  0
  1 39  1  0  0  0  0
  1 40  1  0  0  0  0
  2  3  1  0  0  0  0
  3  4  1  0  0  0  0
  3 41  1  0  0  0  0
  4  5  2  0  0  0  0
  4  6  1  0  0  0  0
  6  7  1  0  0  0  0
  6 36  2  0  0  0  0
  7  8  2  0  0  0  0
  7 42  1  0  0  0  0
  8  9  1  0  0  0  0
  8 33  1  0  0  0  0
  9 10  1  0  0  0  0
  9 43  1  0  0  0  0
 10 11  2  0  0  0  0
 10 32  1  0  0  0  0
 11 12  1  0  0  0  0
 12 13  2  0  0  0  0
 12 44  1  0  0  0  0
 13 14  1  0  0  0  0
 14 15  1  0  0  0  0
 14 32  1  0  0  0  0
 15 16  2  0  0  0  0
 15 45  1  0  0  0  0
 16 17  1  0  0  0  0
 16 28  1  0  0  0  0
 17 18  1  0  0  0  0
 17 46  1  0  0  0  0
 18 19  2  0  0  0  0
 18 20  1  0  0  0  0
 20 21  1  0  0  0  0
 21 22  1  0  0  0  0
 21 27  1  0  0  0  0
 21 47  1  0  0  0  0
 22 23  1  0  0  0  0
 22 48  1  0  0  0  0
 22 49  1  0  0  0  0
 23 24  1  0  0  0  0
 23 50  1  0  0  0  0
 23 51  1  0  0  0  0
 24 25  1  0  0  0  0
 24 26  1  0  0  0  0
 25 52  1  0  0  0  0
 25 53  1  0  0  0  0
 25 54  1  0  0  0  0
 26 27  1  0  0  0  0
 26 55  1  0  0  0  0
 26 56  1  0  0  0  0
 27 57  1  0  0  0  0
 27 58  1  0  0  0  0
 28 29  1  0  0  0  0
 28 32  2  0  0  0  0
 29 30  1  0  0  0  0
 29 31  1  0  0  0  0
 29 59  1  0  0  0  0
 30 60  1  0  0  0  0
 30 61  1  0  0  0  0
 30 62  1  0  0  0  0
 31 63  1  0  0  0  0
 31 64  1  0  0  0  0
 31 65  1  0  0  0  0
 33 34  1  0  0  0  0
 33 35  2  0  0  0  0
 35 36  1  0  0  0  0
 35 66  1  0  0  0  0
 36 37  1  0  0  0  0
M  END
$$$$
