CHEMBL4294161
 OpenBabel04072215383D

 37 40  0  0  0  0  0  0  0  0999 V2000
    2.7883    1.9819    0.6707 C   0  0  0  0  0  0  0  0  0  0  0  0
    2.9349    0.2471    0.1687 S   0  0  0  0  0  0  0  0  0  0  0  0
    3.4252    0.4714   -1.5211 C   0  0  0  0  0  0  0  0  0  0  0  0
    3.0464   -0.4690   -2.3982 N   0  0  0  0  0  0  0  0  0  0  0  0
    3.3867   -0.2563   -3.6864 C   0  0  0  0  0  0  0  0  0  0  0  0
    4.0849    0.8500   -4.1280 C   0  0  0  0  0  0  0  0  0  0  0  0
    4.3989    1.7762   -3.1458 C   0  0  0  0  0  0  0  0  0  0  0  0
    4.1128    1.5761   -1.8418 N   0  0  0  0  0  0  0  0  0  0  0  0
    4.9344    3.0395   -3.4373 N   0  0  0  0  0  0  0  0  0  0  0  0
    4.3658    3.7862   -4.4054 C   0  0  0  0  0  0  0  0  0  0  0  0
    3.9721    5.0533   -4.2433 N   0  0  0  0  0  0  0  0  0  0  0  0
    3.3280    5.3359   -5.3917 N   0  0  0  0  0  0  0  0  0  0  0  0
    3.3051    4.3032   -6.2892 C   0  0  0  0  0  0  0  0  0  0  0  0
    2.6430    4.3903   -7.6056 C   0  0  0  0  0  0  0  0  0  0  0  0
    3.9982    3.2923   -5.6769 C   0  0  0  0  0  0  0  0  0  0  0  0
    4.3335    2.0868   -6.2874 N   0  0  0  0  0  0  0  0  0  0  0  0
    4.4312    1.0032   -5.5715 C   0  0  0  0  0  0  0  0  0  0  0  0
    4.9489   -0.2075   -6.3113 C   0  0  0  0  0  0  0  0  0  0  0  0
    5.7219   -1.1884   -5.6744 C   0  0  0  0  0  0  0  0  0  0  0  0
    6.2413   -2.2592   -6.4081 C   0  0  0  0  0  0  0  0  0  0  0  0
    6.0061   -2.3503   -7.7794 C   0  0  0  0  0  0  0  0  0  0  0  0
    5.2470   -1.3748   -8.4220 C   0  0  0  0  0  0  0  0  0  0  0  0
    4.7230   -0.3060   -7.6923 C   0  0  0  0  0  0  0  0  0  0  0  0
    2.4100    2.0274    1.6957 H   0  0  0  0  0  0  0  0  0  0  0  0
    2.0874    2.5176    0.0232 H   0  0  0  0  0  0  0  0  0  0  0  0
    3.7615    2.4805    0.6458 H   0  0  0  0  0  0  0  0  0  0  0  0
    3.0478   -1.0304   -4.3702 H   0  0  0  0  0  0  0  0  0  0  0  0
    5.0346    3.5344   -2.5567 H   0  0  0  0  0  0  0  0  0  0  0  0
    2.9152    6.2576   -5.4897 H   0  0  0  0  0  0  0  0  0  0  0  0
    2.1005    5.3339   -7.7223 H   0  0  0  0  0  0  0  0  0  0  0  0
    1.9210    3.5744   -7.7179 H   0  0  0  0  0  0  0  0  0  0  0  0
    3.3766    4.3137   -8.4131 H   0  0  0  0  0  0  0  0  0  0  0  0
    5.9606   -1.1270   -4.6161 H   0  0  0  0  0  0  0  0  0  0  0  0
    6.8475   -3.0140   -5.9125 H   0  0  0  0  0  0  0  0  0  0  0  0
    6.4278   -3.1739   -8.3507 H   0  0  0  0  0  0  0  0  0  0  0  0
    5.0756   -1.4354   -9.4940 H   0  0  0  0  0  0  0  0  0  0  0  0
    4.1518    0.4604   -8.2125 H   0  0  0  0  0  0  0  0  0  0  0  0
  1  2  1  0  0  0  0
  1 24  1  0  0  0  0
  1 25  1  0  0  0  0
  1 26  1  0  0  0  0
  2  3  1  0  0  0  0
  3  4  1  0  0  0  0
  3  8  2  0  0  0  0
  4  5  2  0  0  0  0
  5  6  1  0  0  0  0
  5 27  1  0  0  0  0
  6  7  2  0  0  0  0
  6 17  1  0  0  0  0
  7  8  1  0  0  0  0
  7  9  1  0  0  0  0
  9 10  1  0  0  0  0
  9 28  1  0  0  0  0
 10 11  2  0  0  0  0
 10 15  1  0  0  0  0
 11 12  1  0  0  0  0
 12 13  1  0  0  0  0
 12 29  1  0  0  0  0
 13 14  1  0  0  0  0
 13 15  2  0  0  0  0
 14 30  1  0  0  0  0
 14 31  1  0  0  0  0
 14 32  1  0  0  0  0
 15 16  1  0  0  0  0
 16 17  2  0  0  0  0
 17 18  1  0  0  0  0
 18 19  1  0  0  0  0
 18 23  2  0  0  0  0
 19 20  2  0  0  0  0
 19 33  1  0  0  0  0
 20 21  1  0  0  0  0
 20 34  1  0  0  0  0
 21 22  2  0  0  0  0
 21 35  1  0  0  0  0
 22 23  1  0  0  0  0
 22 36  1  0  0  0  0
 23 37  1  0  0  0  0
M  END
$$$$
