CHEMBL3633772
 OpenBabel04072215373D

 50 52  0  0  0  0  0  0  0  0999 V2000
    2.7135    0.8765    1.3636 C   0  0  0  0  0  0  0  0  0  0  0  0
    2.4579    0.0656    0.2226 O   0  0  0  0  0  0  0  0  0  0  0  0
    3.1304   -1.1133    0.0702 C   0  0  0  0  0  0  0  0  0  0  0  0
    4.2698   -1.4565    0.8067 C   0  0  0  0  0  0  0  0  0  0  0  0
    4.8905   -2.6915    0.6874 C   0  0  0  0  0  0  0  0  0  0  0  0
    5.9466   -2.9367    1.4669 N   0  0  0  0  0  0  0  0  0  0  0  0
    6.5239   -4.1327    1.3359 C   0  0  0  0  0  0  0  0  0  0  0  0
    6.1596   -5.0859    0.4792 N   0  0  0  0  0  0  0  0  0  0  0  0
    5.1035   -4.8250   -0.3164 C   0  0  0  0  0  0  0  0  0  0  0  0
    4.7396   -5.7964   -1.2907 N   0  0  0  0  0  0  0  0  0  0  0  0
    5.2813   -7.1114   -1.3208 C   0  0  0  0  0  0  0  0  0  0  0  0
    5.2943   -7.8883   -0.1533 C   0  0  0  0  0  0  0  0  0  0  0  0
    5.8753   -9.1540   -0.1473 C   0  0  0  0  0  0  0  0  0  0  0  0
    5.9193  -10.0620    1.3124 Cl  0  0  0  0  0  0  0  0  0  0  0  0
    6.4323   -9.6795   -1.3108 C   0  0  0  0  0  0  0  0  0  0  0  0
    6.3944   -8.9371   -2.4917 C   0  0  0  0  0  0  0  0  0  0  0  0
    5.8162   -7.6636   -2.4986 C   0  0  0  0  0  0  0  0  0  0  0  0
    5.8095   -6.7674   -3.9768 Cl  0  0  0  0  0  0  0  0  0  0  0  0
    4.3888   -3.6179   -0.2325 C   0  0  0  0  0  0  0  0  0  0  0  0
    3.2394   -3.2871   -0.9878 C   0  0  0  0  0  0  0  0  0  0  0  0
    2.6348   -2.0330   -0.8640 C   0  0  0  0  0  0  0  0  0  0  0  0
    1.5266   -1.8619   -1.6531 O   0  0  0  0  0  0  0  0  0  0  0  0
    1.4653   -0.6179   -2.3571 C   0  0  0  0  0  0  0  0  0  0  0  0
    0.3893   -0.7109   -3.4458 C   0  0  0  0  0  0  0  0  0  0  0  0
   -0.9779   -1.0560   -2.8479 C   0  0  0  0  0  0  0  0  0  0  0  0
   -2.1043   -1.0094   -3.8773 C   0  0  0  0  0  0  0  0  0  0  0  0
   -3.4350   -1.3824   -3.2525 C   0  0  0  0  0  0  0  0  0  0  0  0
   -3.6016   -1.6463   -2.0642 O   0  0  0  0  0  0  0  0  0  0  0  0
   -4.4806   -1.4003   -4.1452 N   0  0  0  0  0  0  0  0  0  0  0  0
   -5.7557   -1.6256   -3.5704 O   0  0  0  0  0  0  0  0  0  0  0  0
    3.3656    1.7074    1.0780 H   0  0  0  0  0  0  0  0  0  0  0  0
    3.1309    0.3428    2.2214 H   0  0  0  0  0  0  0  0  0  0  0  0
    1.7561    1.2914    1.6929 H   0  0  0  0  0  0  0  0  0  0  0  0
    4.7178   -0.7605    1.5089 H   0  0  0  0  0  0  0  0  0  0  0  0
    7.3708   -4.3465    1.9786 H   0  0  0  0  0  0  0  0  0  0  0  0
    4.7929   -5.3662   -2.2137 H   0  0  0  0  0  0  0  0  0  0  0  0
    4.8677   -7.4874    0.7638 H   0  0  0  0  0  0  0  0  0  0  0  0
    6.8965  -10.6612   -1.2992 H   0  0  0  0  0  0  0  0  0  0  0  0
    6.8274   -9.3517   -3.3980 H   0  0  0  0  0  0  0  0  0  0  0  0
    2.8018   -4.0128   -1.6704 H   0  0  0  0  0  0  0  0  0  0  0  0
    2.4327   -0.3912   -2.8218 H   0  0  0  0  0  0  0  0  0  0  0  0
    1.1826    0.1949   -1.6828 H   0  0  0  0  0  0  0  0  0  0  0  0
    0.6674   -1.4821   -4.1742 H   0  0  0  0  0  0  0  0  0  0  0  0
    0.3380    0.2461   -3.9786 H   0  0  0  0  0  0  0  0  0  0  0  0
   -1.2060   -0.3584   -2.0326 H   0  0  0  0  0  0  0  0  0  0  0  0
   -0.9398   -2.0582   -2.4035 H   0  0  0  0  0  0  0  0  0  0  0  0
   -1.8980   -1.7074   -4.6959 H   0  0  0  0  0  0  0  0  0  0  0  0
   -2.1914    0.0001   -4.2960 H   0  0  0  0  0  0  0  0  0  0  0  0
   -4.4642   -0.8853   -5.0162 H   0  0  0  0  0  0  0  0  0  0  0  0
   -5.5345   -1.7662   -2.6224 H   0  0  0  0  0  0  0  0  0  0  0  0
  1  2  1  0  0  0  0
  1 31  1  0  0  0  0
  1 32  1  0  0  0  0
  1 33  1  0  0  0  0
  2  3  1  0  0  0  0
  3  4  1  0  0  0  0
  3 21  2  0  0  0  0
  4  5  2  0  0  0  0
  4 34  1  0  0  0  0
  5  6  1  0  0  0  0
  5 19  1  0  0  0  0
  6  7  2  0  0  0  0
  7  8  1  0  0  0  0
  7 35  1  0  0  0  0
  8  9  2  0  0  0  0
  9 10  1  0  0  0  0
  9 19  1  0  0  0  0
 10 11  1  0  0  0  0
 10 36  1  0  0  0  0
 11 12  1  0  0  0  0
 11 17  2  0  0  0  0
 12 13  2  0  0  0  0
 12 37  1  0  0  0  0
 13 14  1  0  0  0  0
 13 15  1  0  0  0  0
 15 16  2  0  0  0  0
 15 38  1  0  0  0  0
 16 17  1  0  0  0  0
 16 39  1  0  0  0  0
 17 18  1  0  0  0  0
 19 20  2  0  0  0  0
 20 21  1  0  0  0  0
 20 40  1  0  0  0  0
 21 22  1  0  0  0  0
 22 23  1  0  0  0  0
 23 24  1  0  0  0  0
 23 41  1  0  0  0  0
 23 42  1  0  0  0  0
 24 25  1  0  0  0  0
 24 43  1  0  0  0  0
 24 44  1  0  0  0  0
 25 26  1  0  0  0  0
 25 45  1  0  0  0  0
 25 46  1  0  0  0  0
 26 27  1  0  0  0  0
 26 47  1  0  0  0  0
 26 48  1  0  0  0  0
 27 28  2  0  0  0  0
 27 29  1  0  0  0  0
 29 30  1  0  0  0  0
 29 49  1  0  0  0  0
 30 50  1  0  0  0  0
M  END
$$$$
