CHEMBL3969373
 OpenBabel04072215373D

 60 63  0  0  0  0  0  0  0  0999 V2000
    0.6731   -2.1320    3.6949 C   0  0  0  0  0  0  0  0  0  0  0  0
    2.0500   -1.9445    4.0359 O   0  0  0  0  0  0  0  0  0  0  0  0
    2.9193   -1.6432    3.0140 C   0  0  0  0  0  0  0  0  0  0  0  0
    2.5542   -1.5922    1.6674 C   0  0  0  0  0  0  0  0  0  0  0  0
    3.4912   -1.2104    0.7123 C   0  0  0  0  0  0  0  0  0  0  0  0
    3.2466   -1.0843   -0.6314 O   0  0  0  0  0  0  0  0  0  0  0  0
    1.9545   -1.4622   -1.0968 C   0  0  0  0  0  0  0  0  0  0  0  0
    4.7996   -0.8824    1.1075 C   0  0  0  0  0  0  0  0  0  0  0  0
    5.2177   -0.9262    2.4498 C   0  0  0  0  0  0  0  0  0  0  0  0
    6.4698   -0.4075    2.8842 N   0  0  0  0  0  0  0  0  0  0  0  0
    7.0075    0.7789    2.1145 C   0  0  0  0  0  0  0  0  0  0  0  0
    6.1207    2.0347    1.9798 C   0  0  0  0  0  0  0  0  0  0  0  0
    5.8618    2.9223    3.2112 C   0  0  0  0  0  0  0  0  0  0  0  0
    7.1117    3.5250    3.8608 C   0  0  0  0  0  0  0  0  0  0  0  0
    6.7449    4.4433    4.9383 N   0  0  0  0  0  0  0  0  0  0  0  0
    7.6082   -1.1050    3.4586 C   0  0  0  0  0  0  0  0  0  0  0  0
    8.3302   -0.3540    4.3728 C   0  0  0  0  0  0  0  0  0  0  0  0
    9.6707   -0.6109    4.5968 C   0  0  0  0  0  0  0  0  0  0  0  0
   10.2985   -1.7067    4.0538 C   0  0  0  0  0  0  0  0  0  0  0  0
   11.6242   -1.7145    4.2381 N   0  0  0  0  0  0  0  0  0  0  0  0
   12.2723   -2.8328    3.8969 C   0  0  0  0  0  0  0  0  0  0  0  0
   11.6055   -3.9534    3.4431 C   0  0  0  0  0  0  0  0  0  0  0  0
   12.3868   -5.1894    3.4508 C   0  0  0  0  0  0  0  0  0  0  0  0
   12.4772   -6.1937    4.4526 C   0  0  0  0  0  0  0  0  0  0  0  0
   13.4849   -7.0519    4.2444 N   0  0  0  0  0  0  0  0  0  0  0  0
   14.0504   -6.5979    3.1136 N   0  0  0  0  0  0  0  0  0  0  0  0
   14.9973   -7.4123    2.3879 C   0  0  0  0  0  0  0  0  0  0  0  0
   13.5404   -5.3942    2.7087 C   0  0  0  0  0  0  0  0  0  0  0  0
   10.2582   -3.9111    3.1394 N   0  0  0  0  0  0  0  0  0  0  0  0
    9.5641   -2.7203    3.3962 C   0  0  0  0  0  0  0  0  0  0  0  0
    8.1934   -2.3438    3.0528 C   0  0  0  0  0  0  0  0  0  0  0  0
    4.2484   -1.3351    3.3906 C   0  0  0  0  0  0  0  0  0  0  0  0
    0.1068   -2.2389    4.6237 H   0  0  0  0  0  0  0  0  0  0  0  0
    0.5350   -3.0518    3.1153 H   0  0  0  0  0  0  0  0  0  0  0  0
    0.2589   -1.2625    3.1634 H   0  0  0  0  0  0  0  0  0  0  0  0
    1.5429   -1.8319    1.3683 H   0  0  0  0  0  0  0  0  0  0  0  0
    1.9435   -1.3504   -2.1855 H   0  0  0  0  0  0  0  0  0  0  0  0
    1.1774   -0.8061   -0.6893 H   0  0  0  0  0  0  0  0  0  0  0  0
    1.7426   -2.5124   -0.8696 H   0  0  0  0  0  0  0  0  0  0  0  0
    5.4829   -0.5556    0.3300 H   0  0  0  0  0  0  0  0  0  0  0  0
    7.2828    0.4354    1.1091 H   0  0  0  0  0  0  0  0  0  0  0  0
    7.9528    1.1415    2.5359 H   0  0  0  0  0  0  0  0  0  0  0  0
    5.1544    1.7851    1.5320 H   0  0  0  0  0  0  0  0  0  0  0  0
    6.6243    2.6778    1.2428 H   0  0  0  0  0  0  0  0  0  0  0  0
    5.2709    2.3740    3.9525 H   0  0  0  0  0  0  0  0  0  0  0  0
    5.2312    3.7577    2.8696 H   0  0  0  0  0  0  0  0  0  0  0  0
    7.7091    4.0696    3.1217 H   0  0  0  0  0  0  0  0  0  0  0  0
    7.7384    2.7388    4.2845 H   0  0  0  0  0  0  0  0  0  0  0  0
    6.2392    5.2443    4.5599 H   0  0  0  0  0  0  0  0  0  0  0  0
    7.5870    4.8228    5.3709 H   0  0  0  0  0  0  0  0  0  0  0  0
    7.8994    0.5385    4.8200 H   0  0  0  0  0  0  0  0  0  0  0  0
   10.2545    0.0896    5.1821 H   0  0  0  0  0  0  0  0  0  0  0  0
   13.3435   -2.8186    4.0547 H   0  0  0  0  0  0  0  0  0  0  0  0
   11.8816   -6.3134    5.3492 H   0  0  0  0  0  0  0  0  0  0  0  0
   15.1278   -8.3727    2.8939 H   0  0  0  0  0  0  0  0  0  0  0  0
   15.9526   -6.8874    2.3154 H   0  0  0  0  0  0  0  0  0  0  0  0
   14.5789   -7.5812    1.3916 H   0  0  0  0  0  0  0  0  0  0  0  0
   14.0190   -4.8194    1.9282 H   0  0  0  0  0  0  0  0  0  0  0  0
    7.6297   -3.0210    2.4110 H   0  0  0  0  0  0  0  0  0  0  0  0
    4.4987   -1.3370    4.4495 H   0  0  0  0  0  0  0  0  0  0  0  0
  1  2  1  0  0  0  0
  1 33  1  0  0  0  0
  1 34  1  0  0  0  0
  1 35  1  0  0  0  0
  2  3  1  0  0  0  0
  3  4  1  0  0  0  0
  3 32  2  0  0  0  0
  4  5  2  0  0  0  0
  4 36  1  0  0  0  0
  5  6  1  0  0  0  0
  5  8  1  0  0  0  0
  6  7  1  0  0  0  0
  7 37  1  0  0  0  0
  7 38  1  0  0  0  0
  7 39  1  0  0  0  0
  8  9  2  0  0  0  0
  8 40  1  0  0  0  0
  9 10  1  0  0  0  0
  9 32  1  0  0  0  0
 10 11  1  0  0  0  0
 10 16  1  0  0  0  0
 11 12  1  0  0  0  0
 11 41  1  0  0  0  0
 11 42  1  0  0  0  0
 12 13  1  0  0  0  0
 12 43  1  0  0  0  0
 12 44  1  0  0  0  0
 13 14  1  0  0  0  0
 13 45  1  0  0  0  0
 13 46  1  0  0  0  0
 14 15  1  0  0  0  0
 14 47  1  0  0  0  0
 14 48  1  0  0  0  0
 15 49  1  0  0  0  0
 15 50  1  0  0  0  0
 16 17  1  0  0  0  0
 16 31  2  0  0  0  0
 17 18  2  0  0  0  0
 17 51  1  0  0  0  0
 18 19  1  0  0  0  0
 18 52  1  0  0  0  0
 19 20  1  0  0  0  0
 19 30  2  0  0  0  0
 20 21  2  0  0  0  0
 21 22  1  0  0  0  0
 21 53  1  0  0  0  0
 22 23  1  0  0  0  0
 22 29  2  0  0  0  0
 23 24  1  0  0  0  0
 23 28  2  0  0  0  0
 24 25  2  0  0  0  0
 24 54  1  0  0  0  0
 25 26  1  0  0  0  0
 26 27  1  0  0  0  0
 26 28  1  0  0  0  0
 27 55  1  0  0  0  0
 27 56  1  0  0  0  0
 27 57  1  0  0  0  0
 28 58  1  0  0  0  0
 29 30  1  0  0  0  0
 30 31  1  0  0  0  0
 31 59  1  0  0  0  0
 32 60  1  0  0  0  0
M  END
$$$$
