CHEMBL197635
 OpenBabel04072215363D

 54 57  0  0  0  0  0  0  0  0999 V2000
    2.3611   -0.4369    1.5768 C   0  0  0  0  0  0  0  0  0  0  0  0
    0.8646   -0.3302    1.5486 C   0  0  0  0  0  0  0  0  0  0  0  0
    0.2502    0.8500    1.9792 C   0  0  0  0  0  0  0  0  0  0  0  0
   -1.1340    0.9635    1.9580 C   0  0  0  0  0  0  0  0  0  0  0  0
   -1.9118   -0.1001    1.5098 C   0  0  0  0  0  0  0  0  0  0  0  0
   -1.3310   -1.2932    1.0653 C   0  0  0  0  0  0  0  0  0  0  0  0
   -2.0901   -2.3990    0.6085 N   0  0  0  0  0  0  0  0  0  0  0  0
   -3.4623   -2.4118    0.4342 C   0  0  0  0  0  0  0  0  0  0  0  0
   -4.1919   -1.4391    0.5906 O   0  0  0  0  0  0  0  0  0  0  0  0
   -3.9569   -3.6698    0.0981 N   0  0  0  0  0  0  0  0  0  0  0  0
   -5.3518   -3.8285   -0.1109 C   0  0  0  0  0  0  0  0  0  0  0  0
   -6.0805   -2.8691   -0.8141 C   0  0  0  0  0  0  0  0  0  0  0  0
   -7.4751   -2.8881   -0.8055 C   0  0  0  0  0  0  0  0  0  0  0  0
   -8.1874   -3.9311   -0.2025 C   0  0  0  0  0  0  0  0  0  0  0  0
   -9.6682   -3.9238   -0.1617 C   0  0  0  0  0  0  0  0  0  0  0  0
  -10.4383   -3.5188   -1.2623 C   0  0  0  0  0  0  0  0  0  0  0  0
  -10.0725   -3.0216   -2.6471 C   0  0  0  0  0  0  0  0  0  0  0  0
   -9.2772   -4.0286   -3.4683 C   0  0  0  0  0  0  0  0  0  0  0  0
   -8.8260   -3.4236   -4.7766 C   0  0  0  0  0  0  0  0  0  0  0  0
   -8.1069   -4.2678   -5.5673 N   0  0  0  0  0  0  0  0  0  0  0  0
   -9.0591   -2.2726   -5.1341 O   0  0  0  0  0  0  0  0  0  0  0  0
  -12.1194   -3.5738   -0.9182 S   0  0  0  0  0  0  0  0  0  0  0  0
  -11.8675   -4.1374    0.6525 C   0  0  0  0  0  0  0  0  0  0  0  0
  -12.9360   -4.3737    1.4318 N   0  0  0  0  0  0  0  0  0  0  0  0
  -12.6003   -4.8188    2.6370 C   0  0  0  0  0  0  0  0  0  0  0  0
  -11.3643   -5.0225    3.1031 N   0  0  0  0  0  0  0  0  0  0  0  0
  -10.3139   -4.7556    2.3021 C   0  0  0  0  0  0  0  0  0  0  0  0
   -9.0777   -4.9590    2.9050 N   0  0  0  0  0  0  0  0  0  0  0  0
  -10.5281   -4.2961    0.9795 C   0  0  0  0  0  0  0  0  0  0  0  0
   -7.4357   -4.9649    0.3790 C   0  0  0  0  0  0  0  0  0  0  0  0
   -6.0317   -4.9021    0.4562 C   0  0  0  0  0  0  0  0  0  0  0  0
    0.0676   -1.3971    1.0903 C   0  0  0  0  0  0  0  0  0  0  0  0
    2.8164    0.4731    1.9824 H   0  0  0  0  0  0  0  0  0  0  0  0
    2.7504   -0.5802    0.5639 H   0  0  0  0  0  0  0  0  0  0  0  0
    2.6700   -1.2729    2.2123 H   0  0  0  0  0  0  0  0  0  0  0  0
    0.8416    1.6902    2.3337 H   0  0  0  0  0  0  0  0  0  0  0  0
   -1.6154    1.8796    2.2887 H   0  0  0  0  0  0  0  0  0  0  0  0
   -2.9866    0.0559    1.5228 H   0  0  0  0  0  0  0  0  0  0  0  0
   -1.5764   -3.1993    0.2596 H   0  0  0  0  0  0  0  0  0  0  0  0
   -3.4671   -4.4480    0.5149 H   0  0  0  0  0  0  0  0  0  0  0  0
   -5.5749   -2.0516   -1.3247 H   0  0  0  0  0  0  0  0  0  0  0  0
   -7.9747   -2.0415   -1.2638 H   0  0  0  0  0  0  0  0  0  0  0  0
   -9.5499   -2.0619   -2.5654 H   0  0  0  0  0  0  0  0  0  0  0  0
  -10.9822   -2.7734   -3.2140 H   0  0  0  0  0  0  0  0  0  0  0  0
   -9.8925   -4.9105   -3.6812 H   0  0  0  0  0  0  0  0  0  0  0  0
   -8.3823   -4.3704   -2.9411 H   0  0  0  0  0  0  0  0  0  0  0  0
   -7.8303   -5.1940   -5.2738 H   0  0  0  0  0  0  0  0  0  0  0  0
   -7.7466   -3.9032   -6.4397 H   0  0  0  0  0  0  0  0  0  0  0  0
  -13.4164   -5.0360    3.3188 H   0  0  0  0  0  0  0  0  0  0  0  0
   -9.2133   -5.0938    3.9019 H   0  0  0  0  0  0  0  0  0  0  0  0
   -8.3918   -4.2542    2.6627 H   0  0  0  0  0  0  0  0  0  0  0  0
   -7.9335   -5.8156    0.8414 H   0  0  0  0  0  0  0  0  0  0  0  0
   -5.5034   -5.6574    1.0323 H   0  0  0  0  0  0  0  0  0  0  0  0
    0.5566   -2.3088    0.7536 H   0  0  0  0  0  0  0  0  0  0  0  0
  1  2  1  0  0  0  0
  1 33  1  0  0  0  0
  1 34  1  0  0  0  0
  1 35  1  0  0  0  0
  2  3  1  0  0  0  0
  2 32  2  0  0  0  0
  3  4  2  0  0  0  0
  3 36  1  0  0  0  0
  4  5  1  0  0  0  0
  4 37  1  0  0  0  0
  5  6  2  0  0  0  0
  5 38  1  0  0  0  0
  6  7  1  0  0  0  0
  6 32  1  0  0  0  0
  7  8  1  0  0  0  0
  7 39  1  0  0  0  0
  8  9  2  0  0  0  0
  8 10  1  0  0  0  0
 10 11  1  0  0  0  0
 10 40  1  0  0  0  0
 11 12  1  0  0  0  0
 11 31  2  0  0  0  0
 12 13  2  0  0  0  0
 12 41  1  0  0  0  0
 13 14  1  0  0  0  0
 13 42  1  0  0  0  0
 14 15  1  0  0  0  0
 14 30  2  0  0  0  0
 15 16  2  0  0  0  0
 15 29  1  0  0  0  0
 16 17  1  0  0  0  0
 16 22  1  0  0  0  0
 17 18  1  0  0  0  0
 17 43  1  0  0  0  0
 17 44  1  0  0  0  0
 18 19  1  0  0  0  0
 18 45  1  0  0  0  0
 18 46  1  0  0  0  0
 19 20  1  0  0  0  0
 19 21  2  0  0  0  0
 20 47  1  0  0  0  0
 20 48  1  0  0  0  0
 22 23  1  0  0  0  0
 23 24  1  0  0  0  0
 23 29  2  0  0  0  0
 24 25  2  0  0  0  0
 25 26  1  0  0  0  0
 25 49  1  0  0  0  0
 26 27  2  0  0  0  0
 27 28  1  0  0  0  0
 27 29  1  0  0  0  0
 28 50  1  0  0  0  0
 28 51  1  0  0  0  0
 30 31  1  0  0  0  0
 30 52  1  0  0  0  0
 31 53  1  0  0  0  0
 32 54  1  0  0  0  0
M  END
$$$$
