CHEMBL3759190
 OpenBabel04072215373D

 73 77  0  0  0  0  0  0  0  0999 V2000
    2.3673    0.2162    1.2395 C   0  0  0  0  0  0  0  0  0  0  0  0
    2.4086    0.1024   -0.1803 O   0  0  0  0  0  0  0  0  0  0  0  0
    3.1402   -0.9015   -0.7476 C   0  0  0  0  0  0  0  0  0  0  0  0
    4.1869   -1.5317   -0.0840 C   0  0  0  0  0  0  0  0  0  0  0  0
    4.8317   -2.6567   -0.6353 C   0  0  0  0  0  0  0  0  0  0  0  0
    5.8027   -3.4042    0.0437 C   0  0  0  0  0  0  0  0  0  0  0  0
    6.1611   -3.0254    1.3664 N   0  0  0  0  0  0  0  0  0  0  0  0
    6.8273   -3.8383    2.3023 C   0  0  0  0  0  0  0  0  0  0  0  0
    7.7385   -3.2680    3.1907 C   0  0  0  0  0  0  0  0  0  0  0  0
    8.4717   -4.0710    4.0678 C   0  0  0  0  0  0  0  0  0  0  0  0
    8.2899   -5.4547    4.0942 C   0  0  0  0  0  0  0  0  0  0  0  0
    9.0669   -6.3314    4.8824 N   0  0  0  0  0  0  0  0  0  0  0  0
   10.1563   -5.9880    5.6574 C   0  0  0  0  0  0  0  0  0  0  0  0
   10.6278   -4.8590    5.7655 O   0  0  0  0  0  0  0  0  0  0  0  0
   10.8518   -7.0716    6.4082 C   0  0  0  0  0  0  0  0  0  0  0  0
   12.2152   -6.8341    6.6789 C   0  0  0  0  0  0  0  0  0  0  0  0
   12.9518   -7.6914    7.4935 C   0  0  0  0  0  0  0  0  0  0  0  0
   12.3362   -8.8047    8.0515 C   0  0  0  0  0  0  0  0  0  0  0  0
   10.9971   -9.0762    7.7636 C   0  0  0  0  0  0  0  0  0  0  0  0
   10.2523   -8.2208    6.9377 C   0  0  0  0  0  0  0  0  0  0  0  0
    8.6019   -8.6589    6.6713 Cl  0  0  0  0  0  0  0  0  0  0  0  0
    7.2942   -6.0135    3.2914 C   0  0  0  0  0  0  0  0  0  0  0  0
    6.5648   -5.2079    2.4119 C   0  0  0  0  0  0  0  0  0  0  0  0
    6.3804   -4.4820   -0.5124 N   0  0  0  0  0  0  0  0  0  0  0  0
    5.9843   -4.8098   -1.7456 C   0  0  0  0  0  0  0  0  0  0  0  0
    5.0619   -4.1780   -2.4713 N   0  0  0  0  0  0  0  0  0  0  0  0
    4.4783   -3.1149   -1.9096 C   0  0  0  0  0  0  0  0  0  0  0  0
    3.4953   -2.4255   -2.6037 C   0  0  0  0  0  0  0  0  0  0  0  0
    2.8453   -1.3043   -2.0625 C   0  0  0  0  0  0  0  0  0  0  0  0
    1.9529   -0.7132   -2.9265 O   0  0  0  0  0  0  0  0  0  0  0  0
    1.7744    0.6866   -2.7188 C   0  0  0  0  0  0  0  0  0  0  0  0
    1.4208    1.4045   -4.0176 C   0  0  0  0  0  0  0  0  0  0  0  0
    1.2881    2.9007   -3.6995 C   0  0  0  0  0  0  0  0  0  0  0  0
    1.0401    3.7633   -4.8557 N   0  0  0  0  0  0  0  0  0  0  0  0
   -0.2377    3.4745   -5.5295 C   0  0  0  0  0  0  0  0  0  0  0  0
   -0.4577    4.4168   -6.7362 C   0  0  0  0  0  0  0  0  0  0  0  0
   -0.4114    5.8590   -6.4224 N   0  0  0  0  0  0  0  0  0  0  0  0
   -1.6250    6.3008   -5.7424 C   0  0  0  0  0  0  0  0  0  0  0  0
    0.7992    6.1454   -5.6264 C   0  0  0  0  0  0  0  0  0  0  0  0
    1.0510    5.1844   -4.4408 C   0  0  0  0  0  0  0  0  0  0  0  0
    2.8667    1.1452    1.5294 H   0  0  0  0  0  0  0  0  0  0  0  0
    2.8014   -0.6207    1.7923 H   0  0  0  0  0  0  0  0  0  0  0  0
    1.3185    0.2781    1.5429 H   0  0  0  0  0  0  0  0  0  0  0  0
    4.5155   -1.1661    0.8821 H   0  0  0  0  0  0  0  0  0  0  0  0
    6.5278   -2.0795    1.3538 H   0  0  0  0  0  0  0  0  0  0  0  0
    7.9268   -2.1982    3.1900 H   0  0  0  0  0  0  0  0  0  0  0  0
    9.1920   -3.5740    4.7082 H   0  0  0  0  0  0  0  0  0  0  0  0
    8.8160   -7.3118    4.8357 H   0  0  0  0  0  0  0  0  0  0  0  0
   12.7070   -5.9520    6.2670 H   0  0  0  0  0  0  0  0  0  0  0  0
   13.9951   -7.4718    7.7084 H   0  0  0  0  0  0  0  0  0  0  0  0
   12.8951   -9.4568    8.7185 H   0  0  0  0  0  0  0  0  0  0  0  0
   10.5310   -9.9522    8.2100 H   0  0  0  0  0  0  0  0  0  0  0  0
    7.0843   -7.0788    3.3098 H   0  0  0  0  0  0  0  0  0  0  0  0
    5.8021   -5.6661    1.7867 H   0  0  0  0  0  0  0  0  0  0  0  0
    6.4653   -5.6717   -2.1966 H   0  0  0  0  0  0  0  0  0  0  0  0
    3.2240   -2.7654   -3.6015 H   0  0  0  0  0  0  0  0  0  0  0  0
    2.6947    1.1476   -2.3403 H   0  0  0  0  0  0  0  0  0  0  0  0
    0.9547    0.8272   -2.0048 H   0  0  0  0  0  0  0  0  0  0  0  0
    0.4954    0.9839   -4.4251 H   0  0  0  0  0  0  0  0  0  0  0  0
    2.2028    1.2292   -4.7667 H   0  0  0  0  0  0  0  0  0  0  0  0
    2.2362    3.2191   -3.2443 H   0  0  0  0  0  0  0  0  0  0  0  0
    0.5102    3.0431   -2.9381 H   0  0  0  0  0  0  0  0  0  0  0  0
   -1.0757    3.5628   -4.8255 H   0  0  0  0  0  0  0  0  0  0  0  0
   -0.2428    2.4491   -5.9129 H   0  0  0  0  0  0  0  0  0  0  0  0
   -1.4049    4.1661   -7.2287 H   0  0  0  0  0  0  0  0  0  0  0  0
    0.3236    4.2100   -7.4801 H   0  0  0  0  0  0  0  0  0  0  0  0
   -2.5051    6.0892   -6.3602 H   0  0  0  0  0  0  0  0  0  0  0  0
   -1.6037    7.3868   -5.5985 H   0  0  0  0  0  0  0  0  0  0  0  0
   -1.7733    5.8299   -4.7657 H   0  0  0  0  0  0  0  0  0  0  0  0
    0.7769    7.1797   -5.2603 H   0  0  0  0  0  0  0  0  0  0  0  0
    1.6644    6.0911   -6.3003 H   0  0  0  0  0  0  0  0  0  0  0  0
    0.2976    5.3614   -3.6611 H   0  0  0  0  0  0  0  0  0  0  0  0
    2.0266    5.4327   -4.0044 H   0  0  0  0  0  0  0  0  0  0  0  0
  1  2  1  0  0  0  0
  1 41  1  0  0  0  0
  1 42  1  0  0  0  0
  1 43  1  0  0  0  0
  2  3  1  0  0  0  0
  3  4  1  0  0  0  0
  3 29  2  0  0  0  0
  4  5  2  0  0  0  0
  4 44  1  0  0  0  0
  5  6  1  0  0  0  0
  5 27  1  0  0  0  0
  6  7  1  0  0  0  0
  6 24  2  0  0  0  0
  7  8  1  0  0  0  0
  7 45  1  0  0  0  0
  8  9  1  0  0  0  0
  8 23  2  0  0  0  0
  9 10  2  0  0  0  0
  9 46  1  0  0  0  0
 10 11  1  0  0  0  0
 10 47  1  0  0  0  0
 11 12  1  0  0  0  0
 11 22  2  0  0  0  0
 12 13  1  0  0  0  0
 12 48  1  0  0  0  0
 13 14  2  0  0  0  0
 13 15  1  0  0  0  0
 15 16  1  0  0  0  0
 15 20  2  0  0  0  0
 16 17  2  0  0  0  0
 16 49  1  0  0  0  0
 17 18  1  0  0  0  0
 17 50  1  0  0  0  0
 18 19  2  0  0  0  0
 18 51  1  0  0  0  0
 19 20  1  0  0  0  0
 19 52  1  0  0  0  0
 20 21  1  0  0  0  0
 22 23  1  0  0  0  0
 22 53  1  0  0  0  0
 23 54  1  0  0  0  0
 24 25  1  0  0  0  0
 25 26  2  0  0  0  0
 25 55  1  0  0  0  0
 26 27  1  0  0  0  0
 27 28  2  0  0  0  0
 28 29  1  0  0  0  0
 28 56  1  0  0  0  0
 29 30  1  0  0  0  0
 30 31  1  0  0  0  0
 31 32  1  0  0  0  0
 31 57  1  0  0  0  0
 31 58  1  0  0  0  0
 32 33  1  0  0  0  0
 32 59  1  0  0  0  0
 32 60  1  0  0  0  0
 33 34  1  0  0  0  0
 33 61  1  0  0  0  0
 33 62  1  0  0  0  0
 34 35  1  0  0  0  0
 34 40  1  0  0  0  0
 35 36  1  0  0  0  0
 35 63  1  0  0  0  0
 35 64  1  0  0  0  0
 36 37  1  0  0  0  0
 36 65  1  0  0  0  0
 36 66  1  0  0  0  0
 37 38  1  0  0  0  0
 37 39  1  0  0  0  0
 38 67  1  0  0  0  0
 38 68  1  0  0  0  0
 38 69  1  0  0  0  0
 39 40  1  0  0  0  0
 39 70  1  0  0  0  0
 39 71  1  0  0  0  0
 40 72  1  0  0  0  0
 40 73  1  0  0  0  0
M  END
$$$$
