CHEMBL191336
 OpenBabel04072215363D

 42 44  0  0  0  0  0  0  0  0999 V2000
    0.4227   -3.4249   -3.1347 O   0  0  0  0  0  0  0  0  0  0  0  0
    1.7950   -3.6309   -3.4426 C   0  0  0  0  0  0  0  0  0  0  0  0
    2.6486   -2.9243   -2.4004 C   0  0  0  0  0  0  0  0  0  0  0  0
    4.1327   -3.1209   -2.6849 C   0  0  0  0  0  0  0  0  0  0  0  0
    4.9299   -2.4778   -1.6396 N   0  0  0  0  0  0  0  0  0  0  0  0
    6.3131   -2.6260   -1.8591 C   0  0  0  0  0  0  0  0  0  0  0  0
    7.1809   -2.5304   -0.7766 C   0  0  0  0  0  0  0  0  0  0  0  0
    8.5702   -2.6491   -0.9650 C   0  0  0  0  0  0  0  0  0  0  0  0
    9.4963   -2.6215    0.1729 C   0  0  0  0  0  0  0  0  0  0  0  0
   10.7290   -2.1580   -0.0217 N   0  0  0  0  0  0  0  0  0  0  0  0
   11.4923   -2.1872    1.0660 C   0  0  0  0  0  0  0  0  0  0  0  0
   11.1511   -2.6640    2.2617 N   0  0  0  0  0  0  0  0  0  0  0  0
    9.8967   -3.0940    2.3498 C   0  0  0  0  0  0  0  0  0  0  0  0
    9.4738   -3.6089    3.5724 N   0  0  0  0  0  0  0  0  0  0  0  0
    8.1668   -3.6435    4.0825 C   0  0  0  0  0  0  0  0  0  0  0  0
    7.8001   -4.6411    4.9937 C   0  0  0  0  0  0  0  0  0  0  0  0
    6.4760   -4.7514    5.4319 C   0  0  0  0  0  0  0  0  0  0  0  0
    5.5051   -3.8648    4.9653 C   0  0  0  0  0  0  0  0  0  0  0  0
    5.8586   -2.8723    4.0642 C   0  0  0  0  0  0  0  0  0  0  0  0
    4.6734   -1.7814    3.4612 Cl  0  0  0  0  0  0  0  0  0  0  0  0
    7.1769   -2.7602    3.6275 C   0  0  0  0  0  0  0  0  0  0  0  0
    9.0406   -3.0820    1.3315 N   0  0  0  0  0  0  0  0  0  0  0  0
    9.0290   -2.8194   -2.2704 C   0  0  0  0  0  0  0  0  0  0  0  0
    8.1083   -2.8730   -3.2991 C   0  0  0  0  0  0  0  0  0  0  0  0
    6.7772   -2.7839   -3.1138 N   0  0  0  0  0  0  0  0  0  0  0  0
   -0.0967   -3.8527   -3.8369 H   0  0  0  0  0  0  0  0  0  0  0  0
    1.9909   -3.2350   -4.4447 H   0  0  0  0  0  0  0  0  0  0  0  0
    1.9899   -4.7084   -3.4430 H   0  0  0  0  0  0  0  0  0  0  0  0
    2.3948   -3.3001   -1.4011 H   0  0  0  0  0  0  0  0  0  0  0  0
    2.4035   -1.8549   -2.3849 H   0  0  0  0  0  0  0  0  0  0  0  0
    4.3601   -2.7047   -3.6742 H   0  0  0  0  0  0  0  0  0  0  0  0
    4.3580   -4.1957   -2.7019 H   0  0  0  0  0  0  0  0  0  0  0  0
    4.6873   -2.8324   -0.7190 H   0  0  0  0  0  0  0  0  0  0  0  0
    6.7784   -2.3874    0.2235 H   0  0  0  0  0  0  0  0  0  0  0  0
   12.4925   -1.7803    0.9692 H   0  0  0  0  0  0  0  0  0  0  0  0
   10.2331   -3.7451    4.2203 H   0  0  0  0  0  0  0  0  0  0  0  0
    8.5324   -5.3666    5.3389 H   0  0  0  0  0  0  0  0  0  0  0  0
    6.1957   -5.5432    6.1215 H   0  0  0  0  0  0  0  0  0  0  0  0
    4.4741   -3.9619    5.2983 H   0  0  0  0  0  0  0  0  0  0  0  0
    7.4314   -1.9663    2.9305 H   0  0  0  0  0  0  0  0  0  0  0  0
   10.0890   -2.9239   -2.4891 H   0  0  0  0  0  0  0  0  0  0  0  0
    8.4239   -2.9986   -4.3278 H   0  0  0  0  0  0  0  0  0  0  0  0
  1  2  1  0  0  0  0
  1 26  1  0  0  0  0
  2  3  1  0  0  0  0
  2 27  1  0  0  0  0
  2 28  1  0  0  0  0
  3  4  1  0  0  0  0
  3 29  1  0  0  0  0
  3 30  1  0  0  0  0
  4  5  1  0  0  0  0
  4 31  1  0  0  0  0
  4 32  1  0  0  0  0
  5  6  1  0  0  0  0
  5 33  1  0  0  0  0
  6  7  1  0  0  0  0
  6 25  2  0  0  0  0
  7  8  2  0  0  0  0
  7 34  1  0  0  0  0
  8  9  1  0  0  0  0
  8 23  1  0  0  0  0
  9 10  1  0  0  0  0
  9 22  2  0  0  0  0
 10 11  2  0  0  0  0
 11 12  1  0  0  0  0
 11 35  1  0  0  0  0
 12 13  2  0  0  0  0
 13 14  1  0  0  0  0
 13 22  1  0  0  0  0
 14 15  1  0  0  0  0
 14 36  1  0  0  0  0
 15 16  1  0  0  0  0
 15 21  2  0  0  0  0
 16 17  2  0  0  0  0
 16 37  1  0  0  0  0
 17 18  1  0  0  0  0
 17 38  1  0  0  0  0
 18 19  2  0  0  0  0
 18 39  1  0  0  0  0
 19 20  1  0  0  0  0
 19 21  1  0  0  0  0
 21 40  1  0  0  0  0
 23 24  2  0  0  0  0
 23 41  1  0  0  0  0
 24 25  1  0  0  0  0
 24 42  1  0  0  0  0
M  END
$$$$
