CHEMBL3287321
 OpenBabel04072215363D

 67 71  0  0  0  0  0  0  0  0999 V2000
   -0.2194    8.5854    3.8831 C   0  0  0  0  0  0  0  0  0  0  0  0
   -0.4383    6.8301    4.0617 S   0  0  0  0  0  0  0  0  0  0  0  0
    0.3246    6.3948    5.2167 O   0  0  0  0  0  0  0  0  0  0  0  0
   -1.8694    6.5822    4.0072 O   0  0  0  0  0  0  0  0  0  0  0  0
    0.2653    6.1277    2.5759 C   0  0  0  0  0  0  0  0  0  0  0  0
    1.7390    6.4083    2.4740 C   0  0  0  0  0  0  0  0  0  0  0  0
    2.6547    5.5464    3.0909 C   0  0  0  0  0  0  0  0  0  0  0  0
    4.0259    5.7504    2.9424 C   0  0  0  0  0  0  0  0  0  0  0  0
    4.5134    6.8101    2.1724 C   0  0  0  0  0  0  0  0  0  0  0  0
    5.8884    7.0339    2.0024 N   0  0  0  0  0  0  0  0  0  0  0  0
    6.8666    6.0394    1.9213 C   0  0  0  0  0  0  0  0  0  0  0  0
    6.5736    4.8421    1.3857 N   0  0  0  0  0  0  0  0  0  0  0  0
    7.5629    3.9368    1.3051 C   0  0  0  0  0  0  0  0  0  0  0  0
    8.8407    4.1891    1.7198 C   0  0  0  0  0  0  0  0  0  0  0  0
    9.0473    5.4474    2.2236 C   0  0  0  0  0  0  0  0  0  0  0  0
   10.3425    5.7587    2.6177 O   0  0  0  0  0  0  0  0  0  0  0  0
   10.7174    7.0821    2.5751 C   0  0  0  0  0  0  0  0  0  0  0  0
   10.3775    7.9431    1.5295 C   0  0  0  0  0  0  0  0  0  0  0  0
   10.8123    9.2725    1.5397 C   0  0  0  0  0  0  0  0  0  0  0  0
   11.6355    9.7444    2.5650 C   0  0  0  0  0  0  0  0  0  0  0  0
   12.1412   11.0592    2.6062 N   0  0  0  0  0  0  0  0  0  0  0  0
   11.7366   12.1239    1.8276 C   0  0  0  0  0  0  0  0  0  0  0  0
   10.8268   12.1544    1.0106 O   0  0  0  0  0  0  0  0  0  0  0  0
   12.5531   13.3620    2.0226 C   0  0  0  0  0  0  0  0  0  0  0  0
   13.7779   13.4591    1.1661 C   0  0  0  0  0  0  0  0  0  0  0  0
   14.8720   13.3150    1.6915 O   0  0  0  0  0  0  0  0  0  0  0  0
   13.4950   13.7091   -0.1613 N   0  0  0  0  0  0  0  0  0  0  0  0
   14.4192   13.9688   -1.1913 C   0  0  0  0  0  0  0  0  0  0  0  0
   15.7998   14.0456   -0.9845 C   0  0  0  0  0  0  0  0  0  0  0  0
   16.6613   14.3374   -2.0447 C   0  0  0  0  0  0  0  0  0  0  0  0
   16.1413   14.5522   -3.3126 C   0  0  0  0  0  0  0  0  0  0  0  0
   16.9683   14.8381   -4.3261 F   0  0  0  0  0  0  0  0  0  0  0  0
   14.7734   14.4785   -3.5413 C   0  0  0  0  0  0  0  0  0  0  0  0
   13.9110   14.1858   -2.4804 C   0  0  0  0  0  0  0  0  0  0  0  0
   12.5827   14.0132    3.4056 C   0  0  0  0  0  0  0  0  0  0  0  0
   11.8145   14.6727    2.3056 C   0  0  0  0  0  0  0  0  0  0  0  0
   12.0106    8.8679    3.5887 C   0  0  0  0  0  0  0  0  0  0  0  0
   11.5433    7.5528    3.5914 C   0  0  0  0  0  0  0  0  0  0  0  0
   11.9037    6.7418    4.5975 F   0  0  0  0  0  0  0  0  0  0  0  0
    8.0797    6.3734    2.3613 N   0  0  0  0  0  0  0  0  0  0  0  0
    3.6003    7.7115    1.6184 C   0  0  0  0  0  0  0  0  0  0  0  0
    2.2257    7.4990    1.7442 C   0  0  0  0  0  0  0  0  0  0  0  0
   -0.7059    9.0724    4.7310 H   0  0  0  0  0  0  0  0  0  0  0  0
   -0.6931    8.9045    2.9525 H   0  0  0  0  0  0  0  0  0  0  0  0
    0.8435    8.8268    3.8864 H   0  0  0  0  0  0  0  0  0  0  0  0
   -0.2799    6.5290    1.7165 H   0  0  0  0  0  0  0  0  0  0  0  0
    0.0817    5.0480    2.6108 H   0  0  0  0  0  0  0  0  0  0  0  0
    2.3145    4.6985    3.6817 H   0  0  0  0  0  0  0  0  0  0  0  0
    4.7130    5.0570    3.4216 H   0  0  0  0  0  0  0  0  0  0  0  0
    6.2571    7.7690    2.5944 H   0  0  0  0  0  0  0  0  0  0  0  0
    7.2797    2.9826    0.8719 H   0  0  0  0  0  0  0  0  0  0  0  0
    9.6320    3.4551    1.6374 H   0  0  0  0  0  0  0  0  0  0  0  0
    9.7615    7.6014    0.7015 H   0  0  0  0  0  0  0  0  0  0  0  0
   10.5104    9.9046    0.7099 H   0  0  0  0  0  0  0  0  0  0  0  0
   12.8808   11.2413    3.2761 H   0  0  0  0  0  0  0  0  0  0  0  0
   12.5128   13.6975   -0.4215 H   0  0  0  0  0  0  0  0  0  0  0  0
   16.2424   13.8908   -0.0060 H   0  0  0  0  0  0  0  0  0  0  0  0
   17.7319   14.4013   -1.8795 H   0  0  0  0  0  0  0  0  0  0  0  0
   14.3883   14.6531   -4.5408 H   0  0  0  0  0  0  0  0  0  0  0  0
   12.8428   14.1351   -2.6768 H   0  0  0  0  0  0  0  0  0  0  0  0
   13.5081   14.4803    3.7291 H   0  0  0  0  0  0  0  0  0  0  0  0
   12.0141   13.5666    4.2131 H   0  0  0  0  0  0  0  0  0  0  0  0
   12.2169   15.5908    1.8895 H   0  0  0  0  0  0  0  0  0  0  0  0
   10.7313   14.6530    2.3545 H   0  0  0  0  0  0  0  0  0  0  0  0
   12.6479    9.1880    4.4066 H   0  0  0  0  0  0  0  0  0  0  0  0
    3.9624    8.5558    1.0358 H   0  0  0  0  0  0  0  0  0  0  0  0
    1.5454    8.1846    1.2457 H   0  0  0  0  0  0  0  0  0  0  0  0
  1  2  1  0  0  0  0
  1 43  1  0  0  0  0
  1 44  1  0  0  0  0
  1 45  1  0  0  0  0
  2  3  2  0  0  0  0
  2  4  2  0  0  0  0
  2  5  1  0  0  0  0
  5  6  1  0  0  0  0
  5 46  1  0  0  0  0
  5 47  1  0  0  0  0
  6  7  1  0  0  0  0
  6 42  2  0  0  0  0
  7  8  2  0  0  0  0
  7 48  1  0  0  0  0
  8  9  1  0  0  0  0
  8 49  1  0  0  0  0
  9 10  1  0  0  0  0
  9 41  2  0  0  0  0
 10 11  1  0  0  0  0
 10 50  1  0  0  0  0
 11 12  1  0  0  0  0
 11 40  2  0  0  0  0
 12 13  2  0  0  0  0
 13 14  1  0  0  0  0
 13 51  1  0  0  0  0
 14 15  2  0  0  0  0
 14 52  1  0  0  0  0
 15 16  1  0  0  0  0
 15 40  1  0  0  0  0
 16 17  1  0  0  0  0
 17 18  1  0  0  0  0
 17 38  2  0  0  0  0
 18 19  2  0  0  0  0
 18 53  1  0  0  0  0
 19 20  1  0  0  0  0
 19 54  1  0  0  0  0
 20 21  1  0  0  0  0
 20 37  2  0  0  0  0
 21 22  1  0  0  0  0
 21 55  1  0  0  0  0
 22 23  2  0  0  0  0
 22 24  1  0  0  0  0
 24 25  1  0  0  0  0
 24 35  1  0  0  0  0
 24 36  1  0  0  0  0
 25 26  2  0  0  0  0
 25 27  1  0  0  0  0
 27 28  1  0  0  0  0
 27 56  1  0  0  0  0
 28 29  1  0  0  0  0
 28 34  2  0  0  0  0
 29 30  2  0  0  0  0
 29 57  1  0  0  0  0
 30 31  1  0  0  0  0
 30 58  1  0  0  0  0
 31 32  1  0  0  0  0
 31 33  2  0  0  0  0
 33 34  1  0  0  0  0
 33 59  1  0  0  0  0
 34 60  1  0  0  0  0
 35 36  1  0  0  0  0
 35 61  1  0  0  0  0
 35 62  1  0  0  0  0
 36 63  1  0  0  0  0
 36 64  1  0  0  0  0
 37 38  1  0  0  0  0
 37 65  1  0  0  0  0
 38 39  1  0  0  0  0
 41 42  1  0  0  0  0
 41 66  1  0  0  0  0
 42 67  1  0  0  0  0
M  END
$$$$
