CHEMBL3694647
 OpenBabel04072215373D

 48 51  0  0  0  0  0  0  0  0999 V2000
    2.9364    1.1509   -1.2550 O   0  0  0  0  0  0  0  0  0  0  0  0
    2.5239    0.1276   -0.7285 C   0  0  0  0  0  0  0  0  0  0  0  0
    1.2870   -0.3955   -1.0419 N   0  0  0  0  0  0  0  0  0  0  0  0
    0.4044    0.3766   -1.9261 C   0  0  0  0  0  0  0  0  0  0  0  0
   -0.3902    1.4972   -1.2399 C   0  0  0  0  0  0  0  0  0  0  0  0
   -0.1796    1.5185    0.0971 F   0  0  0  0  0  0  0  0  0  0  0  0
   -0.0941    2.7162   -1.7332 F   0  0  0  0  0  0  0  0  0  0  0  0
   -1.7197    1.2968   -1.4208 F   0  0  0  0  0  0  0  0  0  0  0  0
    3.1926   -0.6709    0.1751 N   0  0  0  0  0  0  0  0  0  0  0  0
    4.4839   -0.4307    0.6973 C   0  0  0  0  0  0  0  0  0  0  0  0
    5.1189    0.8067    0.6020 C   0  0  0  0  0  0  0  0  0  0  0  0
    6.4121    0.9545    1.0801 C   0  0  0  0  0  0  0  0  0  0  0  0
    7.0148    2.1476    0.9954 F   0  0  0  0  0  0  0  0  0  0  0  0
    7.0939   -0.1119    1.6489 C   0  0  0  0  0  0  0  0  0  0  0  0
    6.4738   -1.3616    1.7836 C   0  0  0  0  0  0  0  0  0  0  0  0
    7.2242   -2.4532    2.4198 C   0  0  0  0  0  0  0  0  0  0  0  0
    8.1560   -2.3597    3.4466 C   0  0  0  0  0  0  0  0  0  0  0  0
    8.7169   -3.5634    3.7562 N   0  0  0  0  0  0  0  0  0  0  0  0
    8.1612   -4.4167    2.9292 C   0  0  0  0  0  0  0  0  0  0  0  0
    8.3996   -5.8104    2.7748 C   0  0  0  0  0  0  0  0  0  0  0  0
    7.7737   -6.5297    1.8133 C   0  0  0  0  0  0  0  0  0  0  0  0
    8.1032   -7.9738    1.6466 C   0  0  0  0  0  0  0  0  0  0  0  0
    9.3734   -8.4683    1.8807 C   0  0  0  0  0  0  0  0  0  0  0  0
    9.5565   -9.8131    1.6735 C   0  0  0  0  0  0  0  0  0  0  0  0
    8.5844  -10.6356    1.2538 N   0  0  0  0  0  0  0  0  0  0  0  0
    7.3663  -10.0848    1.0190 C   0  0  0  0  0  0  0  0  0  0  0  0
    6.2403  -10.9944    0.5165 C   0  0  0  0  0  0  0  0  0  0  0  0
    6.6157  -12.2970    0.3321 F   0  0  0  0  0  0  0  0  0  0  0  0
    5.1720  -11.0450    1.3688 F   0  0  0  0  0  0  0  0  0  0  0  0
    5.7300  -10.5943   -0.6882 F   0  0  0  0  0  0  0  0  0  0  0  0
    7.0997   -8.7646    1.2029 N   0  0  0  0  0  0  0  0  0  0  0  0
    6.7791   -5.8495    0.9670 C   0  0  0  0  0  0  0  0  0  0  0  0
    6.5560   -4.5296    1.1011 C   0  0  0  0  0  0  0  0  0  0  0  0
    7.2405   -3.8049    2.0798 N   0  0  0  0  0  0  0  0  0  0  0  0
    5.1492   -1.4957    1.3322 C   0  0  0  0  0  0  0  0  0  0  0  0
    0.8316   -0.9025   -0.2955 H   0  0  0  0  0  0  0  0  0  0  0  0
   -0.2864   -0.3451   -2.3714 H   0  0  0  0  0  0  0  0  0  0  0  0
    1.0014    0.8003   -2.7429 H   0  0  0  0  0  0  0  0  0  0  0  0
    2.8121   -1.5968    0.3014 H   0  0  0  0  0  0  0  0  0  0  0  0
    4.6383    1.6787    0.1724 H   0  0  0  0  0  0  0  0  0  0  0  0
    8.1132    0.0578    1.9861 H   0  0  0  0  0  0  0  0  0  0  0  0
    8.4576   -1.4640    3.9761 H   0  0  0  0  0  0  0  0  0  0  0  0
    9.1215   -6.2416    3.4590 H   0  0  0  0  0  0  0  0  0  0  0  0
   10.1996   -7.8467    2.1983 H   0  0  0  0  0  0  0  0  0  0  0  0
   10.5262  -10.2786    1.8426 H   0  0  0  0  0  0  0  0  0  0  0  0
    6.2449   -6.4367    0.2250 H   0  0  0  0  0  0  0  0  0  0  0  0
    5.8590   -4.0060    0.4640 H   0  0  0  0  0  0  0  0  0  0  0  0
    4.6257   -2.4369    1.4731 H   0  0  0  0  0  0  0  0  0  0  0  0
  1  2  2  0  0  0  0
  2  3  1  0  0  0  0
  2  9  1  0  0  0  0
  3  4  1  0  0  0  0
  3 36  1  0  0  0  0
  4  5  1  0  0  0  0
  4 37  1  0  0  0  0
  4 38  1  0  0  0  0
  5  6  1  0  0  0  0
  5  7  1  0  0  0  0
  5  8  1  0  0  0  0
  9 10  1  0  0  0  0
  9 39  1  0  0  0  0
 10 11  1  0  0  0  0
 10 35  2  0  0  0  0
 11 12  2  0  0  0  0
 11 40  1  0  0  0  0
 12 13  1  0  0  0  0
 12 14  1  0  0  0  0
 14 15  2  0  0  0  0
 14 41  1  0  0  0  0
 15 16  1  0  0  0  0
 15 35  1  0  0  0  0
 16 17  2  0  0  0  0
 16 34  1  0  0  0  0
 17 18  1  0  0  0  0
 17 42  1  0  0  0  0
 18 19  2  0  0  0  0
 19 20  1  0  0  0  0
 19 34  1  0  0  0  0
 20 21  2  0  0  0  0
 20 43  1  0  0  0  0
 21 22  1  0  0  0  0
 21 32  1  0  0  0  0
 22 23  1  0  0  0  0
 22 31  2  0  0  0  0
 23 24  2  0  0  0  0
 23 44  1  0  0  0  0
 24 25  1  0  0  0  0
 24 45  1  0  0  0  0
 25 26  2  0  0  0  0
 26 27  1  0  0  0  0
 26 31  1  0  0  0  0
 27 28  1  0  0  0  0
 27 29  1  0  0  0  0
 27 30  1  0  0  0  0
 32 33  2  0  0  0  0
 32 46  1  0  0  0  0
 33 34  1  0  0  0  0
 33 47  1  0  0  0  0
 35 48  1  0  0  0  0
M  END
$$$$
