CHEMBL459896
 OpenBabel04072215383D

 58 62  0  0  0  0  0  0  0  0999 V2000
    8.0791   -1.6126   -1.7283 C   0  0  0  0  0  0  0  0  0  0  0  0
    7.1756   -0.6701   -1.1500 O   0  0  0  0  0  0  0  0  0  0  0  0
    7.7550    0.2358   -0.2696 C   0  0  0  0  0  0  0  0  0  0  0  0
    9.1172    0.5640   -0.3009 C   0  0  0  0  0  0  0  0  0  0  0  0
    9.6506    1.4085    0.6767 C   0  0  0  0  0  0  0  0  0  0  0  0
    8.8548    1.8903    1.7078 C   0  0  0  0  0  0  0  0  0  0  0  0
    7.4963    1.5978    1.7238 C   0  0  0  0  0  0  0  0  0  0  0  0
    6.9074    0.8316    0.7037 C   0  0  0  0  0  0  0  0  0  0  0  0
    5.5263    0.6079    0.7052 N   0  0  0  0  0  0  0  0  0  0  0  0
    4.4522    1.1606    1.4342 C   0  0  0  0  0  0  0  0  0  0  0  0
    3.4940    0.2078    1.8715 C   0  0  0  0  0  0  0  0  0  0  0  0
    2.2105    0.6089    2.2182 C   0  0  0  0  0  0  0  0  0  0  0  0
    1.9809    1.9403    2.3836 C   0  0  0  0  0  0  0  0  0  0  0  0
    3.0906    2.7225    2.5131 C   0  0  0  0  0  0  0  0  0  0  0  0
    2.9760    3.8031    3.3593 C   0  0  0  0  0  0  0  0  0  0  0  0
    2.8082    4.8727    2.5652 C   0  0  0  0  0  0  0  0  0  0  0  0
    1.6225    5.4693    2.8733 O   0  0  0  0  0  0  0  0  0  0  0  0
    0.7207    5.8765    1.9225 C   0  0  0  0  0  0  0  0  0  0  0  0
    1.1542    6.6745    0.8739 C   0  0  0  0  0  0  0  0  0  0  0  0
    0.2607    7.5573    0.3231 C   0  0  0  0  0  0  0  0  0  0  0  0
   -1.0140    7.6586    0.7108 N   0  0  0  0  0  0  0  0  0  0  0  0
   -1.4761    6.6737    1.4986 C   0  0  0  0  0  0  0  0  0  0  0  0
   -2.8494    6.6411    1.5264 C   0  0  0  0  0  0  0  0  0  0  0  0
   -3.4992    5.4504    1.8494 C   0  0  0  0  0  0  0  0  0  0  0  0
   -4.7897    5.2282    1.4234 O   0  0  0  0  0  0  0  0  0  0  0  0
   -5.2871    6.1238    0.4191 C   0  0  0  0  0  0  0  0  0  0  0  0
   -2.7692    4.4377    2.4945 C   0  0  0  0  0  0  0  0  0  0  0  0
   -3.2284    3.1943    2.8481 O   0  0  0  0  0  0  0  0  0  0  0  0
   -4.6391    2.9967    2.8995 C   0  0  0  0  0  0  0  0  0  0  0  0
   -1.3772    4.6226    2.7088 C   0  0  0  0  0  0  0  0  0  0  0  0
   -0.6924    5.7200    2.1056 C   0  0  0  0  0  0  0  0  0  0  0  0
    3.8374    5.0549    1.6468 C   0  0  0  0  0  0  0  0  0  0  0  0
    4.6372    3.8943    1.2868 C   0  0  0  0  0  0  0  0  0  0  0  0
    4.1884    2.5663    1.6950 C   0  0  0  0  0  0  0  0  0  0  0  0
    7.4937   -2.3833   -2.2409 H   0  0  0  0  0  0  0  0  0  0  0  0
    8.6954   -2.1176   -0.9741 H   0  0  0  0  0  0  0  0  0  0  0  0
    8.7093   -1.1307   -2.4830 H   0  0  0  0  0  0  0  0  0  0  0  0
    9.7753    0.1829   -1.0635 H   0  0  0  0  0  0  0  0  0  0  0  0
   10.7040    1.6730    0.6327 H   0  0  0  0  0  0  0  0  0  0  0  0
    9.2845    2.5049    2.4904 H   0  0  0  0  0  0  0  0  0  0  0  0
    6.8890    1.9507    2.5597 H   0  0  0  0  0  0  0  0  0  0  0  0
    5.2235    0.0771   -0.1081 H   0  0  0  0  0  0  0  0  0  0  0  0
    3.7243   -0.8522    1.8809 H   0  0  0  0  0  0  0  0  0  0  0  0
    1.4034   -0.0796    2.4241 H   0  0  0  0  0  0  0  0  0  0  0  0
    0.9921    2.3588    2.5440 H   0  0  0  0  0  0  0  0  0  0  0  0
    3.9056    3.9134    3.9811 H   0  0  0  0  0  0  0  0  0  0  0  0
    2.1577    6.6463    0.4991 H   0  0  0  0  0  0  0  0  0  0  0  0
    0.5550    8.2257   -0.4741 H   0  0  0  0  0  0  0  0  0  0  0  0
   -3.3865    7.4827    1.1129 H   0  0  0  0  0  0  0  0  0  0  0  0
   -6.1750    5.6841   -0.0425 H   0  0  0  0  0  0  0  0  0  0  0  0
   -4.5632    6.2967   -0.3902 H   0  0  0  0  0  0  0  0  0  0  0  0
   -5.5797    7.0682    0.8870 H   0  0  0  0  0  0  0  0  0  0  0  0
   -4.8304    2.0699    3.4526 H   0  0  0  0  0  0  0  0  0  0  0  0
   -5.0657    2.8597    1.8980 H   0  0  0  0  0  0  0  0  0  0  0  0
   -5.1351    3.8054    3.4431 H   0  0  0  0  0  0  0  0  0  0  0  0
   -0.8125    3.8137    3.1699 H   0  0  0  0  0  0  0  0  0  0  0  0
    4.0158    6.0122    1.1714 H   0  0  0  0  0  0  0  0  0  0  0  0
    5.4624    4.0194    0.5913 H   0  0  0  0  0  0  0  0  0  0  0  0
  1  2  1  0  0  0  0
  1 35  1  0  0  0  0
  1 36  1  0  0  0  0
  1 37  1  0  0  0  0
  2  3  1  0  0  0  0
  3  4  1  0  0  0  0
  3  8  2  0  0  0  0
  4  5  2  0  0  0  0
  4 38  1  0  0  0  0
  5  6  1  0  0  0  0
  5 39  1  0  0  0  0
  6  7  2  0  0  0  0
  6 40  1  0  0  0  0
  7  8  1  0  0  0  0
  7 41  1  0  0  0  0
  8  9  1  0  0  0  0
  9 10  1  0  0  0  0
  9 42  1  0  0  0  0
 10 11  1  0  0  0  0
 10 34  2  0  0  0  0
 11 12  2  0  0  0  0
 11 43  1  0  0  0  0
 12 13  1  0  0  0  0
 12 44  1  0  0  0  0
 13 14  2  0  0  0  0
 13 45  1  0  0  0  0
 14 15  1  0  0  0  0
 14 34  1  0  0  0  0
 15 16  2  0  0  0  0
 15 46  1  0  0  0  0
 16 17  1  0  0  0  0
 16 32  1  0  0  0  0
 17 18  1  0  0  0  0
 18 19  1  0  0  0  0
 18 31  2  0  0  0  0
 19 20  2  0  0  0  0
 19 47  1  0  0  0  0
 20 21  1  0  0  0  0
 20 48  1  0  0  0  0
 21 22  2  0  0  0  0
 22 23  1  0  0  0  0
 22 31  1  0  0  0  0
 23 24  2  0  0  0  0
 23 49  1  0  0  0  0
 24 25  1  0  0  0  0
 24 27  1  0  0  0  0
 25 26  1  0  0  0  0
 26 50  1  0  0  0  0
 26 51  1  0  0  0  0
 26 52  1  0  0  0  0
 27 28  1  0  0  0  0
 27 30  2  0  0  0  0
 28 29  1  0  0  0  0
 29 53  1  0  0  0  0
 29 54  1  0  0  0  0
 29 55  1  0  0  0  0
 30 31  1  0  0  0  0
 30 56  1  0  0  0  0
 32 33  2  0  0  0  0
 32 57  1  0  0  0  0
 33 34  1  0  0  0  0
 33 58  1  0  0  0  0
M  END
$$$$
