CHEMBL3676343
 OpenBabel04072215373D

 58 60  0  0  0  0  0  0  0  0999 V2000
    3.6423    1.5548    3.6221 C   0  0  0  0  0  0  0  0  0  0  0  0
    3.6746    0.3457    3.0490 C   0  0  0  0  0  0  0  0  0  0  0  0
    3.7876    0.2422    1.5695 C   0  0  0  0  0  0  0  0  0  0  0  0
    3.3403    1.1029    0.8173 O   0  0  0  0  0  0  0  0  0  0  0  0
    4.4601   -0.8454    1.0615 N   0  0  0  0  0  0  0  0  0  0  0  0
    5.3291   -1.6383    1.8330 C   0  0  0  0  0  0  0  0  0  0  0  0
    6.5021   -1.0520    2.3148 C   0  0  0  0  0  0  0  0  0  0  0  0
    7.2966   -1.7211    3.2656 C   0  0  0  0  0  0  0  0  0  0  0  0
    8.4557   -1.1815    3.8540 C   0  0  0  0  0  0  0  0  0  0  0  0
    8.8415    0.1526    3.5464 N   0  0  0  0  0  0  0  0  0  0  0  0
   10.1408    0.6498    3.8232 C   0  0  0  0  0  0  0  0  0  0  0  0
   11.2951   -0.0372    3.4189 C   0  0  0  0  0  0  0  0  0  0  0  0
   11.1930   -1.1447    2.6662 F   0  0  0  0  0  0  0  0  0  0  0  0
   12.5675    0.4080    3.7614 C   0  0  0  0  0  0  0  0  0  0  0  0
   12.7019    1.5735    4.5077 C   0  0  0  0  0  0  0  0  0  0  0  0
   14.4227    2.1438    5.0389 Br  0  0  0  0  0  0  0  0  0  0  0  0
   11.5806    2.3132    4.8787 C   0  0  0  0  0  0  0  0  0  0  0  0
   10.3150    1.8469    4.5267 C   0  0  0  0  0  0  0  0  0  0  0  0
    9.2372    2.5553    4.8996 F   0  0  0  0  0  0  0  0  0  0  0  0
    9.1873   -1.8718    4.7441 N   0  0  0  0  0  0  0  0  0  0  0  0
    8.7615   -3.0989    5.0503 C   0  0  0  0  0  0  0  0  0  0  0  0
    7.6598   -3.6954    4.5788 N   0  0  0  0  0  0  0  0  0  0  0  0
    6.9379   -3.0088    3.6893 C   0  0  0  0  0  0  0  0  0  0  0  0
    5.7882   -3.5900    3.1617 C   0  0  0  0  0  0  0  0  0  0  0  0
    4.9854   -2.9388    2.2174 C   0  0  0  0  0  0  0  0  0  0  0  0
    3.8927   -3.6578    1.7984 O   0  0  0  0  0  0  0  0  0  0  0  0
    3.4989   -3.4415    0.4361 C   0  0  0  0  0  0  0  0  0  0  0  0
    2.9185   -4.7251   -0.1687 C   0  0  0  0  0  0  0  0  0  0  0  0
    2.6079   -4.5678   -1.5816 N   0  0  0  0  0  0  0  0  0  0  0  0
    3.6051   -4.5455   -2.5342 C   0  0  0  0  0  0  0  0  0  0  0  0
    4.7715   -4.8489   -2.2961 O   0  0  0  0  0  0  0  0  0  0  0  0
    3.1395   -4.1317   -3.9396 C   0  0  0  0  0  0  0  0  0  0  0  0
    2.0969   -3.0706   -3.8942 N   0  0  0  0  0  0  0  0  0  0  0  0
    2.6386   -1.8172   -3.3497 C   0  0  0  0  0  0  0  0  0  0  0  0
    1.6190   -2.8167   -5.2616 C   0  0  0  0  0  0  0  0  0  0  0  0
    3.6130    1.6596    4.7010 H   0  0  0  0  0  0  0  0  0  0  0  0
    3.6568    2.4632    3.0257 H   0  0  0  0  0  0  0  0  0  0  0  0
    3.6723   -0.5600    3.6430 H   0  0  0  0  0  0  0  0  0  0  0  0
    4.7789   -0.6226    0.1241 H   0  0  0  0  0  0  0  0  0  0  0  0
    6.7827   -0.0571    1.9731 H   0  0  0  0  0  0  0  0  0  0  0  0
    8.1270    0.7881    3.8973 H   0  0  0  0  0  0  0  0  0  0  0  0
   13.4286   -0.1735    3.4478 H   0  0  0  0  0  0  0  0  0  0  0  0
   11.6721    3.2301    5.4515 H   0  0  0  0  0  0  0  0  0  0  0  0
    9.3638   -3.6650    5.7528 H   0  0  0  0  0  0  0  0  0  0  0  0
    5.5092   -4.5868    3.4973 H   0  0  0  0  0  0  0  0  0  0  0  0
    4.3473   -3.1251   -0.1795 H   0  0  0  0  0  0  0  0  0  0  0  0
    2.7262   -2.6644    0.4152 H   0  0  0  0  0  0  0  0  0  0  0  0
    1.9987   -5.0131    0.3503 H   0  0  0  0  0  0  0  0  0  0  0  0
    3.6321   -5.5480   -0.0499 H   0  0  0  0  0  0  0  0  0  0  0  0
    1.7335   -4.1254   -1.8607 H   0  0  0  0  0  0  0  0  0  0  0  0
    2.7372   -5.0352   -4.4126 H   0  0  0  0  0  0  0  0  0  0  0  0
    4.0145   -3.7989   -4.5123 H   0  0  0  0  0  0  0  0  0  0  0  0
    2.9937   -1.9444   -2.3225 H   0  0  0  0  0  0  0  0  0  0  0  0
    1.8518   -1.0556   -3.3062 H   0  0  0  0  0  0  0  0  0  0  0  0
    3.4670   -1.4258   -3.9509 H   0  0  0  0  0  0  0  0  0  0  0  0
    1.2148   -3.7299   -5.7119 H   0  0  0  0  0  0  0  0  0  0  0  0
    2.4157   -2.4374   -5.9140 H   0  0  0  0  0  0  0  0  0  0  0  0
    0.8059   -2.0822   -5.2532 H   0  0  0  0  0  0  0  0  0  0  0  0
  1  2  2  0  0  0  0
  1 36  1  0  0  0  0
  1 37  1  0  0  0  0
  2  3  1  0  0  0  0
  2 38  1  0  0  0  0
  3  4  2  0  0  0  0
  3  5  1  0  0  0  0
  5  6  1  0  0  0  0
  5 39  1  0  0  0  0
  6  7  1  0  0  0  0
  6 25  2  0  0  0  0
  7  8  2  0  0  0  0
  7 40  1  0  0  0  0
  8  9  1  0  0  0  0
  8 23  1  0  0  0  0
  9 10  1  0  0  0  0
  9 20  2  0  0  0  0
 10 11  1  0  0  0  0
 10 41  1  0  0  0  0
 11 12  1  0  0  0  0
 11 18  2  0  0  0  0
 12 13  1  0  0  0  0
 12 14  2  0  0  0  0
 14 15  1  0  0  0  0
 14 42  1  0  0  0  0
 15 16  1  0  0  0  0
 15 17  2  0  0  0  0
 17 18  1  0  0  0  0
 17 43  1  0  0  0  0
 18 19  1  0  0  0  0
 20 21  1  0  0  0  0
 21 22  2  0  0  0  0
 21 44  1  0  0  0  0
 22 23  1  0  0  0  0
 23 24  2  0  0  0  0
 24 25  1  0  0  0  0
 24 45  1  0  0  0  0
 25 26  1  0  0  0  0
 26 27  1  0  0  0  0
 27 28  1  0  0  0  0
 27 46  1  0  0  0  0
 27 47  1  0  0  0  0
 28 29  1  0  0  0  0
 28 48  1  0  0  0  0
 28 49  1  0  0  0  0
 29 30  1  0  0  0  0
 29 50  1  0  0  0  0
 30 31  2  0  0  0  0
 30 32  1  0  0  0  0
 32 33  1  0  0  0  0
 32 51  1  0  0  0  0
 32 52  1  0  0  0  0
 33 34  1  0  0  0  0
 33 35  1  0  0  0  0
 34 53  1  0  0  0  0
 34 54  1  0  0  0  0
 34 55  1  0  0  0  0
 35 56  1  0  0  0  0
 35 57  1  0  0  0  0
 35 58  1  0  0  0  0
M  END
$$$$
