CHEMBL101221
 OpenBabel04072215353D

 42 45  0  0  0  0  0  0  0  0999 V2000
    1.1596   -0.2510   -2.2163 C   0  0  0  0  0  0  0  0  0  0  0  0
    2.6631   -0.2609   -2.2973 C   0  0  0  0  0  0  0  0  0  0  0  0
    3.2475    0.1636   -3.2849 O   0  0  0  0  0  0  0  0  0  0  0  0
    3.2340   -0.7501   -1.1389 N   0  0  0  0  0  0  0  0  0  0  0  0
    4.5938   -0.7918   -0.9411 C   0  0  0  0  0  0  0  0  0  0  0  0
    5.4351   -0.6587   -2.0041 O   0  0  0  0  0  0  0  0  0  0  0  0
    6.6926   -0.8123   -1.4809 C   0  0  0  0  0  0  0  0  0  0  0  0
    7.8060   -0.7044   -2.4299 C   0  0  0  0  0  0  0  0  0  0  0  0
    7.5707   -0.6814   -3.8203 C   0  0  0  0  0  0  0  0  0  0  0  0
    8.6254   -0.5646   -4.7499 C   0  0  0  0  0  0  0  0  0  0  0  0
    8.3933   -0.5315   -6.1375 C   0  0  0  0  0  0  0  0  0  0  0  0
    9.4535   -0.4038   -7.0374 C   0  0  0  0  0  0  0  0  0  0  0  0
   10.7599   -0.3107   -6.5672 C   0  0  0  0  0  0  0  0  0  0  0  0
   11.0081   -0.3473   -5.1958 C   0  0  0  0  0  0  0  0  0  0  0  0
    9.9525   -0.4723   -4.2784 C   0  0  0  0  0  0  0  0  0  0  0  0
   10.1945   -0.5026   -2.8989 C   0  0  0  0  0  0  0  0  0  0  0  0
    9.1356   -0.6142   -1.9944 C   0  0  0  0  0  0  0  0  0  0  0  0
    9.4233   -0.6224   -0.6539 O   0  0  0  0  0  0  0  0  0  0  0  0
    6.6977   -1.0353   -0.1793 N   0  0  0  0  0  0  0  0  0  0  0  0
    5.3729   -0.9965    0.1822 C   0  0  0  0  0  0  0  0  0  0  0  0
    4.9184   -1.1821    1.5488 C   0  0  0  0  0  0  0  0  0  0  0  0
    3.7611   -0.5575    2.0357 C   0  0  0  0  0  0  0  0  0  0  0  0
    3.2849   -0.8428    3.3169 C   0  0  0  0  0  0  0  0  0  0  0  0
    3.9839   -1.7227    4.1390 C   0  0  0  0  0  0  0  0  0  0  0  0
    5.1778   -2.2887    3.6958 C   0  0  0  0  0  0  0  0  0  0  0  0
    5.6465   -2.0145    2.4088 C   0  0  0  0  0  0  0  0  0  0  0  0
    0.7505    0.2089   -3.1197 H   0  0  0  0  0  0  0  0  0  0  0  0
    0.8352    0.3334   -1.3511 H   0  0  0  0  0  0  0  0  0  0  0  0
    0.7827   -1.2746   -2.1362 H   0  0  0  0  0  0  0  0  0  0  0  0
    2.6418   -1.0130   -0.3633 H   0  0  0  0  0  0  0  0  0  0  0  0
    6.5485   -0.7519   -4.1902 H   0  0  0  0  0  0  0  0  0  0  0  0
    7.3795   -0.6007   -6.5257 H   0  0  0  0  0  0  0  0  0  0  0  0
    9.2583   -0.3746   -8.1063 H   0  0  0  0  0  0  0  0  0  0  0  0
   11.5860   -0.2091   -7.2664 H   0  0  0  0  0  0  0  0  0  0  0  0
   12.0354   -0.2712   -4.8466 H   0  0  0  0  0  0  0  0  0  0  0  0
   11.2146   -0.4336   -2.5358 H   0  0  0  0  0  0  0  0  0  0  0  0
   10.3740   -0.4896   -0.5189 H   0  0  0  0  0  0  0  0  0  0  0  0
    3.2233    0.1714    1.4359 H   0  0  0  0  0  0  0  0  0  0  0  0
    2.3704   -0.3751    3.6734 H   0  0  0  0  0  0  0  0  0  0  0  0
    3.6071   -1.9558    5.1316 H   0  0  0  0  0  0  0  0  0  0  0  0
    5.7425   -2.9508    4.3471 H   0  0  0  0  0  0  0  0  0  0  0  0
    6.5806   -2.4627    2.0728 H   0  0  0  0  0  0  0  0  0  0  0  0
  1  2  1  0  0  0  0
  1 27  1  0  0  0  0
  1 28  1  0  0  0  0
  1 29  1  0  0  0  0
  2  3  2  0  0  0  0
  2  4  1  0  0  0  0
  4  5  1  0  0  0  0
  4 30  1  0  0  0  0
  5  6  1  0  0  0  0
  5 20  2  0  0  0  0
  6  7  1  0  0  0  0
  7  8  1  0  0  0  0
  7 19  2  0  0  0  0
  8  9  1  0  0  0  0
  8 17  2  0  0  0  0
  9 10  2  0  0  0  0
  9 31  1  0  0  0  0
 10 11  1  0  0  0  0
 10 15  1  0  0  0  0
 11 12  2  0  0  0  0
 11 32  1  0  0  0  0
 12 13  1  0  0  0  0
 12 33  1  0  0  0  0
 13 14  2  0  0  0  0
 13 34  1  0  0  0  0
 14 15  1  0  0  0  0
 14 35  1  0  0  0  0
 15 16  2  0  0  0  0
 16 17  1  0  0  0  0
 16 36  1  0  0  0  0
 17 18  1  0  0  0  0
 18 37  1  0  0  0  0
 19 20  1  0  0  0  0
 20 21  1  0  0  0  0
 21 22  1  0  0  0  0
 21 26  2  0  0  0  0
 22 23  2  0  0  0  0
 22 38  1  0  0  0  0
 23 24  1  0  0  0  0
 23 39  1  0  0  0  0
 24 25  2  0  0  0  0
 24 40  1  0  0  0  0
 25 26  1  0  0  0  0
 25 41  1  0  0  0  0
 26 42  1  0  0  0  0
M  END
$$$$
