CHEMBL453577
 OpenBabel04072215383D

 46 49  0  0  0  0  0  0  0  0999 V2000
    2.3591   -0.4271    1.5789 C   0  0  0  0  0  0  0  0  0  0  0  0
    0.8615   -0.3219    1.5229 C   0  0  0  0  0  0  0  0  0  0  0  0
    0.2466    0.8644    1.9350 C   0  0  0  0  0  0  0  0  0  0  0  0
   -1.1345    0.9827    1.8902 C   0  0  0  0  0  0  0  0  0  0  0  0
   -1.9125   -0.0819    1.4366 C   0  0  0  0  0  0  0  0  0  0  0  0
   -1.3349   -1.2825    1.0105 C   0  0  0  0  0  0  0  0  0  0  0  0
   -2.1069   -2.3876    0.5496 N   0  0  0  0  0  0  0  0  0  0  0  0
   -3.4860   -2.3926    0.3852 C   0  0  0  0  0  0  0  0  0  0  0  0
   -4.2214   -1.4252    0.5515 O   0  0  0  0  0  0  0  0  0  0  0  0
   -3.9869   -3.6512    0.0491 N   0  0  0  0  0  0  0  0  0  0  0  0
   -5.3933   -3.8050   -0.1055 C   0  0  0  0  0  0  0  0  0  0  0  0
   -6.1308   -2.9377   -0.9214 C   0  0  0  0  0  0  0  0  0  0  0  0
   -7.5280   -3.0067   -0.9608 C   0  0  0  0  0  0  0  0  0  0  0  0
   -8.2077   -3.9381   -0.1711 C   0  0  0  0  0  0  0  0  0  0  0  0
   -9.6768   -3.9501   -0.1364 C   0  0  0  0  0  0  0  0  0  0  0  0
  -10.4104   -3.1198    0.8746 C   0  0  0  0  0  0  0  0  0  0  0  0
  -11.6987   -3.0353    1.0295 N   0  0  0  0  0  0  0  0  0  0  0  0
  -12.4538   -3.7853    0.1715 C   0  0  0  0  0  0  0  0  0  0  0  0
  -13.8135   -3.9482    0.0350 C   0  0  0  0  0  0  0  0  0  0  0  0
  -14.8343   -3.3285    0.8029 C   0  0  0  0  0  0  0  0  0  0  0  0
  -15.7021   -2.8433    1.4078 N   0  0  0  0  0  0  0  0  0  0  0  0
  -13.9799   -4.8618   -1.0121 C   0  0  0  0  0  0  0  0  0  0  0  0
  -12.8180   -5.2708   -1.5301 N   0  0  0  0  0  0  0  0  0  0  0  0
  -11.8691   -4.5844   -0.8182 N   0  0  0  0  0  0  0  0  0  0  0  0
  -10.4572   -4.6574   -0.9844 C   0  0  0  0  0  0  0  0  0  0  0  0
   -9.9863   -5.4709   -2.0145 N   0  0  0  0  0  0  0  0  0  0  0  0
   -7.4666   -4.8370    0.6096 C   0  0  0  0  0  0  0  0  0  0  0  0
   -6.0639   -4.7874    0.6241 C   0  0  0  0  0  0  0  0  0  0  0  0
    0.0658   -1.3929    1.0597 C   0  0  0  0  0  0  0  0  0  0  0  0
    2.8060    0.4904    1.9817 H   0  0  0  0  0  0  0  0  0  0  0  0
    2.7692   -0.5787    0.5762 H   0  0  0  0  0  0  0  0  0  0  0  0
    2.6616   -1.2514    2.2313 H   0  0  0  0  0  0  0  0  0  0  0  0
    0.8355    1.7051    2.2943 H   0  0  0  0  0  0  0  0  0  0  0  0
   -1.6192    1.9020    2.2071 H   0  0  0  0  0  0  0  0  0  0  0  0
   -2.9844    0.0785    1.4333 H   0  0  0  0  0  0  0  0  0  0  0  0
   -1.5992   -3.1936    0.2154 H   0  0  0  0  0  0  0  0  0  0  0  0
   -3.5023   -4.4159    0.4961 H   0  0  0  0  0  0  0  0  0  0  0  0
   -5.6247   -2.1772   -1.5131 H   0  0  0  0  0  0  0  0  0  0  0  0
   -8.0740   -2.3059   -1.5894 H   0  0  0  0  0  0  0  0  0  0  0  0
   -9.7696   -2.5247    1.5485 H   0  0  0  0  0  0  0  0  0  0  0  0
  -14.8996   -5.2581   -1.4260 H   0  0  0  0  0  0  0  0  0  0  0  0
  -10.6835   -6.1591   -2.3089 H   0  0  0  0  0  0  0  0  0  0  0  0
   -9.0567   -5.8517   -1.8656 H   0  0  0  0  0  0  0  0  0  0  0  0
   -7.9754   -5.5619    1.2421 H   0  0  0  0  0  0  0  0  0  0  0  0
   -5.5203   -5.4635    1.2775 H   0  0  0  0  0  0  0  0  0  0  0  0
    0.5575   -2.3090    0.7429 H   0  0  0  0  0  0  0  0  0  0  0  0
  1  2  1  0  0  0  0
  1 30  1  0  0  0  0
  1 31  1  0  0  0  0
  1 32  1  0  0  0  0
  2  3  1  0  0  0  0
  2 29  2  0  0  0  0
  3  4  2  0  0  0  0
  3 33  1  0  0  0  0
  4  5  1  0  0  0  0
  4 34  1  0  0  0  0
  5  6  2  0  0  0  0
  5 35  1  0  0  0  0
  6  7  1  0  0  0  0
  6 29  1  0  0  0  0
  7  8  1  0  0  0  0
  7 36  1  0  0  0  0
  8  9  2  0  0  0  0
  8 10  1  0  0  0  0
 10 11  1  0  0  0  0
 10 37  1  0  0  0  0
 11 12  1  0  0  0  0
 11 28  2  0  0  0  0
 12 13  2  0  0  0  0
 12 38  1  0  0  0  0
 13 14  1  0  0  0  0
 13 39  1  0  0  0  0
 14 15  1  0  0  0  0
 14 27  2  0  0  0  0
 15 16  1  0  0  0  0
 15 25  2  0  0  0  0
 16 17  2  0  0  0  0
 16 40  1  0  0  0  0
 17 18  1  0  0  0  0
 18 19  2  0  0  0  0
 18 24  1  0  0  0  0
 19 20  1  0  0  0  0
 19 22  1  0  0  0  0
 20 21  3  0  0  0  0
 22 23  2  0  0  0  0
 22 41  1  0  0  0  0
 23 24  1  0  0  0  0
 24 25  1  0  0  0  0
 25 26  1  0  0  0  0
 26 42  1  0  0  0  0
 26 43  1  0  0  0  0
 27 28  1  0  0  0  0
 27 44  1  0  0  0  0
 28 45  1  0  0  0  0
 29 46  1  0  0  0  0
M  END
$$$$
