CHEMBL1980167
 OpenBabel04072215363D

 57 60  0  0  0  0  0  0  0  0999 V2000
    1.7808    0.9813   -0.8072 C   0  0  0  0  0  0  0  0  0  0  0  0
    2.4564   -0.0647   -0.0487 N   0  0  0  0  0  0  0  0  0  0  0  0
    2.2611   -0.0895    1.3945 C   0  0  0  0  0  0  0  0  0  0  0  0
    3.1674   -1.0704   -0.6905 C   0  0  0  0  0  0  0  0  0  0  0  0
    3.3139   -1.1001   -2.0840 C   0  0  0  0  0  0  0  0  0  0  0  0
    4.0077   -2.1256   -2.7423 C   0  0  0  0  0  0  0  0  0  0  0  0
    4.6088   -3.1766   -2.0354 C   0  0  0  0  0  0  0  0  0  0  0  0
    5.3335   -4.2627   -2.7223 C   0  0  0  0  0  0  0  0  0  0  0  0
    6.0181   -4.0460   -3.9059 C   0  0  0  0  0  0  0  0  0  0  0  0
    6.6353   -5.1310   -4.4988 C   0  0  0  0  0  0  0  0  0  0  0  0
    7.3640   -5.0257   -5.7800 C   0  0  0  0  0  0  0  0  0  0  0  0
    8.0392   -3.8463   -6.1536 C   0  0  0  0  0  0  0  0  0  0  0  0
    8.7251   -3.7486   -7.3695 C   0  0  0  0  0  0  0  0  0  0  0  0
    8.7472   -4.8433   -8.2382 C   0  0  0  0  0  0  0  0  0  0  0  0
    9.4742   -4.7467   -9.5102 N   0  3  0  0  0  0  0  0  0  0  0  0
   10.0360   -3.6730   -9.7715 O   0  0  0  0  0  0  0  0  0  0  0  0
    9.4755   -5.7367  -10.2509 O   0  5  0  0  0  0  0  0  0  0  0  0
    8.0874   -6.0274   -7.8987 C   0  0  0  0  0  0  0  0  0  0  0  0
    7.4049   -6.1105   -6.6784 C   0  0  0  0  0  0  0  0  0  0  0  0
    6.5748   -6.3576   -3.9455 N   0  0  0  0  0  0  0  0  0  0  0  0
    5.9025   -6.4579   -2.7997 C   0  0  0  0  0  0  0  0  0  0  0  0
    5.7298   -7.7329   -2.2803 N   0  0  0  0  0  0  0  0  0  0  0  0
    6.9632   -8.3043   -1.3113 S   0  0  0  0  0  0  0  0  0  0  0  0
    6.5390   -9.6181   -0.8675 O   0  0  0  0  0  0  0  0  0  0  0  0
    8.2380   -8.1301   -1.9684 O   0  0  0  0  0  0  0  0  0  0  0  0
    6.9635   -7.2619    0.1428 C   0  0  0  0  0  0  0  0  0  0  0  0
    6.1777   -7.6188    1.2439 C   0  0  0  0  0  0  0  0  0  0  0  0
    6.3363   -6.9427    2.4617 C   0  0  0  0  0  0  0  0  0  0  0  0
    7.2497   -5.8930    2.5871 C   0  0  0  0  0  0  0  0  0  0  0  0
    7.5370   -5.3630    3.8493 N   0  0  0  0  0  0  0  0  0  0  0  0
    8.0542   -5.5722    1.4884 C   0  0  0  0  0  0  0  0  0  0  0  0
    7.9088   -6.2395    0.2662 C   0  0  0  0  0  0  0  0  0  0  0  0
    5.2717   -5.4831   -2.1492 N   0  0  0  0  0  0  0  0  0  0  0  0
    4.4850   -3.1499   -0.6428 C   0  0  0  0  0  0  0  0  0  0  0  0
    3.7833   -2.1210    0.0081 C   0  0  0  0  0  0  0  0  0  0  0  0
    1.1975    1.6459   -0.1613 H   0  0  0  0  0  0  0  0  0  0  0  0
    1.0798    0.5542   -1.5334 H   0  0  0  0  0  0  0  0  0  0  0  0
    2.5110    1.6064   -1.3331 H   0  0  0  0  0  0  0  0  0  0  0  0
    1.6715    0.7653    1.7425 H   0  0  0  0  0  0  0  0  0  0  0  0
    3.2230   -0.0419    1.9165 H   0  0  0  0  0  0  0  0  0  0  0  0
    1.7251   -0.9948    1.7008 H   0  0  0  0  0  0  0  0  0  0  0  0
    2.8779   -0.3244   -2.7071 H   0  0  0  0  0  0  0  0  0  0  0  0
    4.0431   -2.0864   -3.8286 H   0  0  0  0  0  0  0  0  0  0  0  0
    6.0557   -3.0640   -4.3592 H   0  0  0  0  0  0  0  0  0  0  0  0
    8.0620   -2.9837   -5.4900 H   0  0  0  0  0  0  0  0  0  0  0  0
    9.2382   -2.8205   -7.6138 H   0  0  0  0  0  0  0  0  0  0  0  0
    8.0955   -6.8925   -8.5590 H   0  0  0  0  0  0  0  0  0  0  0  0
    6.8977   -7.0425   -6.4259 H   0  0  0  0  0  0  0  0  0  0  0  0
    4.8116   -7.8691   -1.8681 H   0  0  0  0  0  0  0  0  0  0  0  0
    5.4902   -8.4596    1.1896 H   0  0  0  0  0  0  0  0  0  0  0  0
    5.7648   -7.2753    3.3252 H   0  0  0  0  0  0  0  0  0  0  0  0
    6.7762   -5.4200    4.5184 H   0  0  0  0  0  0  0  0  0  0  0  0
    7.9795   -4.4498    3.8360 H   0  0  0  0  0  0  0  0  0  0  0  0
    8.8366   -4.8228    1.5903 H   0  0  0  0  0  0  0  0  0  0  0  0
    8.5777   -5.9968   -0.5573 H   0  0  0  0  0  0  0  0  0  0  0  0
    4.9375   -3.9349   -0.0383 H   0  0  0  0  0  0  0  0  0  0  0  0
    3.7308   -2.1747    1.0917 H   0  0  0  0  0  0  0  0  0  0  0  0
  1  2  1  0  0  0  0
  1 36  1  0  0  0  0
  1 37  1  0  0  0  0
  1 38  1  0  0  0  0
  2  3  1  0  0  0  0
  2  4  1  0  0  0  0
  3 39  1  0  0  0  0
  3 40  1  0  0  0  0
  3 41  1  0  0  0  0
  4  5  1  0  0  0  0
  4 35  2  0  0  0  0
  5  6  2  0  0  0  0
  5 42  1  0  0  0  0
  6  7  1  0  0  0  0
  6 43  1  0  0  0  0
  7  8  1  0  0  0  0
  7 34  2  0  0  0  0
  8  9  1  0  0  0  0
  8 33  2  0  0  0  0
  9 10  2  0  0  0  0
  9 44  1  0  0  0  0
 10 11  1  0  0  0  0
 10 20  1  0  0  0  0
 11 12  1  0  0  0  0
 11 19  2  0  0  0  0
 12 13  2  0  0  0  0
 12 45  1  0  0  0  0
 13 14  1  0  0  0  0
 13 46  1  0  0  0  0
 14 15  1  0  0  0  0
 14 18  2  0  0  0  0
 15 16  2  0  0  0  0
 15 17  1  0  0  0  0
 18 19  1  0  0  0  0
 18 47  1  0  0  0  0
 19 48  1  0  0  0  0
 20 21  2  0  0  0  0
 21 22  1  0  0  0  0
 21 33  1  0  0  0  0
 22 23  1  0  0  0  0
 22 49  1  0  0  0  0
 23 24  2  0  0  0  0
 23 25  2  0  0  0  0
 23 26  1  0  0  0  0
 26 27  1  0  0  0  0
 26 32  2  0  0  0  0
 27 28  2  0  0  0  0
 27 50  1  0  0  0  0
 28 29  1  0  0  0  0
 28 51  1  0  0  0  0
 29 30  1  0  0  0  0
 29 31  2  0  0  0  0
 30 52  1  0  0  0  0
 30 53  1  0  0  0  0
 31 32  1  0  0  0  0
 31 54  1  0  0  0  0
 32 55  1  0  0  0  0
 34 35  1  0  0  0  0
 34 56  1  0  0  0  0
 35 57  1  0  0  0  0
M  CHG  2  15   1  17  -1
M  END
$$$$
