CHEMBL3920254
 OpenBabel04072215373D

 59 62  0  0  0  0  0  0  0  0999 V2000
    3.4303   -1.0851   -0.8282 C   0  0  0  0  0  0  0  0  0  0  0  0
    2.5557   -0.3924    0.0666 O   0  0  0  0  0  0  0  0  0  0  0  0
    3.1783    0.3670    1.0239 C   0  0  0  0  0  0  0  0  0  0  0  0
    4.2712    1.1566    0.6754 C   0  0  0  0  0  0  0  0  0  0  0  0
    4.9715    1.9007    1.6456 C   0  0  0  0  0  0  0  0  0  0  0  0
    6.1512    2.6109    1.3860 C   0  0  0  0  0  0  0  0  0  0  0  0
    6.6594    2.6522    0.0554 N   0  0  0  0  0  0  0  0  0  0  0  0
    7.9757    3.0402   -0.2862 C   0  0  0  0  0  0  0  0  0  0  0  0
    9.0723    2.5062    0.4105 C   0  0  0  0  0  0  0  0  0  0  0  0
   10.3859    2.9094    0.1539 C   0  0  0  0  0  0  0  0  0  0  0  0
   10.5478    3.8743   -0.8314 C   0  0  0  0  0  0  0  0  0  0  0  0
   11.7341    4.4303   -1.2004 O   0  0  0  0  0  0  0  0  0  0  0  0
   11.4559    5.3351   -2.1782 C   0  0  0  0  0  0  0  0  0  0  0  0
   10.1115    5.3527   -2.4538 C   0  0  0  0  0  0  0  0  0  0  0  0
    9.5054    4.4143   -1.5756 C   0  0  0  0  0  0  0  0  0  0  0  0
    8.1920    3.9752   -1.3167 C   0  0  0  0  0  0  0  0  0  0  0  0
    6.8304    3.2320    2.3641 N   0  0  0  0  0  0  0  0  0  0  0  0
    6.3100    3.1719    3.5931 C   0  0  0  0  0  0  0  0  0  0  0  0
    5.1746    2.5568    3.9405 N   0  0  0  0  0  0  0  0  0  0  0  0
    4.5218    1.9137    2.9690 C   0  0  0  0  0  0  0  0  0  0  0  0
    3.3713    1.1976    3.2837 C   0  0  0  0  0  0  0  0  0  0  0  0
    2.7061    0.4005    2.3437 C   0  0  0  0  0  0  0  0  0  0  0  0
    1.6500   -0.3027    2.8805 O   0  0  0  0  0  0  0  0  0  0  0  0
    1.2855   -1.4767    2.1654 C   0  0  0  0  0  0  0  0  0  0  0  0
    0.6206   -2.5061    3.0746 C   0  0  0  0  0  0  0  0  0  0  0  0
    0.3908   -3.7710    2.2441 C   0  0  0  0  0  0  0  0  0  0  0  0
   -0.2145   -4.9125    3.0460 C   0  0  0  0  0  0  0  0  0  0  0  0
   -0.4100   -6.1472    2.1605 C   0  0  0  0  0  0  0  0  0  0  0  0
   -1.0206   -7.2880    2.9647 C   0  0  0  0  0  0  0  0  0  0  0  0
   -1.2241   -8.5441    2.1493 C   0  0  0  0  0  0  0  0  0  0  0  0
   -0.9333   -8.6732    0.9623 O   0  0  0  0  0  0  0  0  0  0  0  0
   -1.7719   -9.5724    2.8870 N   0  0  0  0  0  0  0  0  0  0  0  0
   -2.0841  -10.7472    2.1648 O   0  0  0  0  0  0  0  0  0  0  0  0
    3.1114   -2.1305   -0.8790 H   0  0  0  0  0  0  0  0  0  0  0  0
    4.4837   -1.0868   -0.5226 H   0  0  0  0  0  0  0  0  0  0  0  0
    3.3355   -0.6432   -1.8241 H   0  0  0  0  0  0  0  0  0  0  0  0
    4.6186    1.1663   -0.3537 H   0  0  0  0  0  0  0  0  0  0  0  0
    5.9606    3.0484   -0.5619 H   0  0  0  0  0  0  0  0  0  0  0  0
    8.9009    1.7645    1.1888 H   0  0  0  0  0  0  0  0  0  0  0  0
   11.2272    2.5127    0.7067 H   0  0  0  0  0  0  0  0  0  0  0  0
   12.3127    5.8743   -2.5609 H   0  0  0  0  0  0  0  0  0  0  0  0
    9.6225    5.9808   -3.1852 H   0  0  0  0  0  0  0  0  0  0  0  0
    7.3636    4.3954   -1.8762 H   0  0  0  0  0  0  0  0  0  0  0  0
    6.8682    3.6615    4.3823 H   0  0  0  0  0  0  0  0  0  0  0  0
    3.0076    1.2215    4.3114 H   0  0  0  0  0  0  0  0  0  0  0  0
    2.1756   -1.9653    1.7583 H   0  0  0  0  0  0  0  0  0  0  0  0
    0.5896   -1.2016    1.3648 H   0  0  0  0  0  0  0  0  0  0  0  0
   -0.3201   -2.1164    3.4791 H   0  0  0  0  0  0  0  0  0  0  0  0
    1.2669   -2.7159    3.9359 H   0  0  0  0  0  0  0  0  0  0  0  0
    1.3484   -4.1032    1.8228 H   0  0  0  0  0  0  0  0  0  0  0  0
   -0.2621   -3.5306    1.3956 H   0  0  0  0  0  0  0  0  0  0  0  0
   -1.1768   -4.5994    3.4660 H   0  0  0  0  0  0  0  0  0  0  0  0
    0.4454   -5.1627    3.8849 H   0  0  0  0  0  0  0  0  0  0  0  0
    0.5533   -6.4612    1.7385 H   0  0  0  0  0  0  0  0  0  0  0  0
   -1.0577   -5.8996    1.3099 H   0  0  0  0  0  0  0  0  0  0  0  0
   -1.9932   -6.9763    3.3637 H   0  0  0  0  0  0  0  0  0  0  0  0
   -0.3661   -7.5343    3.8087 H   0  0  0  0  0  0  0  0  0  0  0  0
   -2.2934   -9.4143    3.7423 H   0  0  0  0  0  0  0  0  0  0  0  0
   -1.7521  -10.5347    1.2654 H   0  0  0  0  0  0  0  0  0  0  0  0
  1  2  1  0  0  0  0
  1 34  1  0  0  0  0
  1 35  1  0  0  0  0
  1 36  1  0  0  0  0
  2  3  1  0  0  0  0
  3  4  1  0  0  0  0
  3 22  2  0  0  0  0
  4  5  2  0  0  0  0
  4 37  1  0  0  0  0
  5  6  1  0  0  0  0
  5 20  1  0  0  0  0
  6  7  1  0  0  0  0
  6 17  2  0  0  0  0
  7  8  1  0  0  0  0
  7 38  1  0  0  0  0
  8  9  1  0  0  0  0
  8 16  2  0  0  0  0
  9 10  2  0  0  0  0
  9 39  1  0  0  0  0
 10 11  1  0  0  0  0
 10 40  1  0  0  0  0
 11 12  1  0  0  0  0
 11 15  2  0  0  0  0
 12 13  1  0  0  0  0
 13 14  2  0  0  0  0
 13 41  1  0  0  0  0
 14 15  1  0  0  0  0
 14 42  1  0  0  0  0
 15 16  1  0  0  0  0
 16 43  1  0  0  0  0
 17 18  1  0  0  0  0
 18 19  2  0  0  0  0
 18 44  1  0  0  0  0
 19 20  1  0  0  0  0
 20 21  2  0  0  0  0
 21 22  1  0  0  0  0
 21 45  1  0  0  0  0
 22 23  1  0  0  0  0
 23 24  1  0  0  0  0
 24 25  1  0  0  0  0
 24 46  1  0  0  0  0
 24 47  1  0  0  0  0
 25 26  1  0  0  0  0
 25 48  1  0  0  0  0
 25 49  1  0  0  0  0
 26 27  1  0  0  0  0
 26 50  1  0  0  0  0
 26 51  1  0  0  0  0
 27 28  1  0  0  0  0
 27 52  1  0  0  0  0
 27 53  1  0  0  0  0
 28 29  1  0  0  0  0
 28 54  1  0  0  0  0
 28 55  1  0  0  0  0
 29 30  1  0  0  0  0
 29 56  1  0  0  0  0
 29 57  1  0  0  0  0
 30 31  2  0  0  0  0
 30 32  1  0  0  0  0
 32 33  1  0  0  0  0
 32 58  1  0  0  0  0
 33 59  1  0  0  0  0
M  END
$$$$
