CHEMBL507202
 OpenBabel04072215383D

 26 28  0  0  0  0  0  0  0  0999 V2000
    2.2553   -2.2276   -0.3747 N   0  0  0  0  0  0  0  0  0  0  0  0
    1.5015   -1.0789   -0.2552 C   0  0  0  0  0  0  0  0  0  0  0  0
    0.1806   -1.2342   -0.1467 N   0  0  0  0  0  0  0  0  0  0  0  0
   -0.5462   -0.1123   -0.0244 C   0  0  0  0  0  0  0  0  0  0  0  0
    0.0044    1.1436   -0.0181 C   0  0  0  0  0  0  0  0  0  0  0  0
    1.3768    1.1995   -0.1559 C   0  0  0  0  0  0  0  0  0  0  0  0
    2.0506    2.5099   -0.1164 C   0  0  0  0  0  0  0  0  0  0  0  0
    3.3767    2.7139   -0.1996 C   0  0  0  0  0  0  0  0  0  0  0  0
    3.9277    4.0177   -0.0455 C   0  0  0  0  0  0  0  0  0  0  0  0
    3.5821    5.1810    0.6556 C   0  0  0  0  0  0  0  0  0  0  0  0
    2.2402    5.4157    1.6870 Cl  0  0  0  0  0  0  0  0  0  0  0  0
    4.4988    6.1973    0.4738 N   0  0  0  0  0  0  0  0  0  0  0  0
    5.3903    5.6529   -0.2987 C   0  0  0  0  0  0  0  0  0  0  0  0
    6.8814    6.2085   -0.9926 S   0  0  0  0  0  0  0  0  0  0  0  0
    7.0798    4.6185   -1.7411 C   0  0  0  0  0  0  0  0  0  0  0  0
    6.0712    3.7740   -1.4582 C   0  0  0  0  0  0  0  0  0  0  0  0
    5.1231    4.3597   -0.6416 N   0  0  0  0  0  0  0  0  0  0  0  0
    2.1403    0.0973   -0.2919 N   0  0  0  0  0  0  0  0  0  0  0  0
    1.6696   -2.9797   -0.7111 H   0  0  0  0  0  0  0  0  0  0  0  0
    3.1073   -2.0360   -0.8797 H   0  0  0  0  0  0  0  0  0  0  0  0
   -1.6182   -0.2598    0.0805 H   0  0  0  0  0  0  0  0  0  0  0  0
   -0.6126    2.0238    0.1020 H   0  0  0  0  0  0  0  0  0  0  0  0
    1.3750    3.3499    0.0135 H   0  0  0  0  0  0  0  0  0  0  0  0
    4.0434    1.8682   -0.3580 H   0  0  0  0  0  0  0  0  0  0  0  0
    7.9416    4.3951   -2.3561 H   0  0  0  0  0  0  0  0  0  0  0  0
    5.9668    2.7569   -1.8000 H   0  0  0  0  0  0  0  0  0  0  0  0
  1  2  1  0  0  0  0
  1 19  1  0  0  0  0
  1 20  1  0  0  0  0
  2  3  1  0  0  0  0
  2 18  2  0  0  0  0
  3  4  2  0  0  0  0
  4  5  1  0  0  0  0
  4 21  1  0  0  0  0
  5  6  2  0  0  0  0
  5 22  1  0  0  0  0
  6  7  1  0  0  0  0
  6 18  1  0  0  0  0
  7  8  2  0  0  0  0
  7 23  1  0  0  0  0
  8  9  1  0  0  0  0
  8 24  1  0  0  0  0
  9 10  2  0  0  0  0
  9 17  1  0  0  0  0
 10 11  1  0  0  0  0
 10 12  1  0  0  0  0
 12 13  2  0  0  0  0
 13 14  1  0  0  0  0
 13 17  1  0  0  0  0
 14 15  1  0  0  0  0
 15 16  2  0  0  0  0
 15 25  1  0  0  0  0
 16 17  1  0  0  0  0
 16 26  1  0  0  0  0
M  END
$$$$
