CHEMBL1762532
 OpenBabel04072215363D

 73 77  0  0  1  0  0  0  0  0999 V2000
    2.9134   -0.0922    0.2176 C   0  0  0  0  0  0  0  0  0  0  0  0
    1.4952   -0.6019    0.2216 C   0  0  0  0  0  0  0  0  0  0  0  0
    0.8729   -0.7143    1.4841 C   0  0  0  0  0  0  0  0  0  0  0  0
   -0.4565   -1.1091    1.6116 C   0  0  0  0  0  0  0  0  0  0  0  0
   -1.1990   -1.4355    0.4795 C   0  0  0  0  0  0  0  0  0  0  0  0
   -2.6540   -1.8474    0.5664 C   0  0  3  0  0  0  0  0  0  0  0  0
   -2.8732   -3.0905    1.4198 C   0  0  0  0  0  0  0  0  0  0  0  0
   -3.4384   -0.7786    1.0934 O   0  0  0  0  0  0  0  0  0  0  0  0
   -0.5609   -1.3657   -0.7752 C   0  0  0  0  0  0  0  0  0  0  0  0
    0.7789   -0.9357   -0.9535 C   0  0  0  0  0  0  0  0  0  0  0  0
    1.3270   -0.7741   -2.2538 N   0  0  0  0  0  0  0  0  0  0  0  0
    0.3993   -0.5448   -3.3747 C   0  0  0  0  0  0  0  0  0  0  0  0
    2.6267   -1.1695   -2.7123 C   0  0  0  0  0  0  0  0  0  0  0  0
    3.1904   -0.4742   -3.7764 C   0  0  0  0  0  0  0  0  0  0  0  0
    4.3881   -0.9163   -4.2540 C   0  0  0  0  0  0  0  0  0  0  0  0
    5.0341   -1.9431   -3.7125 N   0  0  0  0  0  0  0  0  0  0  0  0
    4.4930   -2.5471   -2.6470 C   0  0  0  0  0  0  0  0  0  0  0  0
    5.2086   -3.5561   -1.9886 N   0  0  0  0  0  0  0  0  0  0  0  0
    6.5854   -3.8578   -2.0612 C   0  0  0  0  0  0  0  0  0  0  0  0
    7.2158   -4.4970   -0.9848 C   0  0  0  0  0  0  0  0  0  0  0  0
    8.6025   -4.7319   -0.9571 C   0  0  0  0  0  0  0  0  0  0  0  0
    9.2097   -5.2913    0.1485 N   0  0  0  0  0  0  0  0  0  0  0  0
    8.6079   -6.3935    0.9084 C   0  0  0  0  0  0  0  0  0  0  0  0
    8.6904   -6.0685    2.4066 C   0  0  0  0  0  0  0  0  0  0  0  0
   10.0469   -5.8132    2.8158 O   0  0  0  0  0  0  0  0  0  0  0  0
   10.5918   -4.7037    2.0783 C   0  0  0  0  0  0  0  0  0  0  0  0
   10.5817   -4.9622    0.5604 C   0  0  0  0  0  0  0  0  0  0  0  0
    9.3459   -4.3135   -2.0732 C   0  0  0  0  0  0  0  0  0  0  0  0
    8.7675   -3.7080   -3.1990 C   0  0  0  0  0  0  0  0  0  0  0  0
    9.5485   -3.2782   -4.2605 N   0  0  0  0  0  0  0  0  0  0  0  0
    9.1397   -2.1852   -5.1594 C   0  0  0  0  0  0  0  0  0  0  0  0
    8.8488   -2.7186   -6.5689 C   0  0  0  0  0  0  0  0  0  0  0  0
    9.9688   -3.4567   -7.0885 O   0  0  0  0  0  0  0  0  0  0  0  0
   10.2535   -4.5796   -6.2372 C   0  0  0  0  0  0  0  0  0  0  0  0
   10.6067   -4.1433   -4.8044 C   0  0  0  0  0  0  0  0  0  0  0  0
    7.3819   -3.5183   -3.1618 C   0  0  0  0  0  0  0  0  0  0  0  0
    3.2917   -2.1983   -2.1379 N   0  0  0  0  0  0  0  0  0  0  0  0
    3.1528    0.4094    1.1627 H   0  0  0  0  0  0  0  0  0  0  0  0
    3.0668    0.6517   -0.5690 H   0  0  0  0  0  0  0  0  0  0  0  0
    3.6184   -0.9198    0.1065 H   0  0  0  0  0  0  0  0  0  0  0  0
    1.4262   -0.4631    2.3875 H   0  0  0  0  0  0  0  0  0  0  0  0
   -0.8977   -1.1538    2.6036 H   0  0  0  0  0  0  0  0  0  0  0  0
   -3.0467   -2.0461   -0.4372 H   0  0  0  0  0  0  0  0  0  0  0  0
   -2.5467   -2.9355    2.4542 H   0  0  0  0  0  0  0  0  0  0  0  0
   -2.3337   -3.9510    1.0125 H   0  0  0  0  0  0  0  0  0  0  0  0
   -3.9404   -3.3336    1.4673 H   0  0  0  0  0  0  0  0  0  0  0  0
   -3.0730   -0.5440    1.9615 H   0  0  0  0  0  0  0  0  0  0  0  0
   -1.1475   -1.6729   -1.6371 H   0  0  0  0  0  0  0  0  0  0  0  0
   -0.6365   -0.3545   -3.0830 H   0  0  0  0  0  0  0  0  0  0  0  0
    0.4015   -1.3992   -4.0636 H   0  0  0  0  0  0  0  0  0  0  0  0
    0.6742    0.3574   -3.9328 H   0  0  0  0  0  0  0  0  0  0  0  0
    2.7304    0.3917   -4.2278 H   0  0  0  0  0  0  0  0  0  0  0  0
    4.8737   -0.4480   -5.1023 H   0  0  0  0  0  0  0  0  0  0  0  0
    4.7300   -3.8013   -1.1349 H   0  0  0  0  0  0  0  0  0  0  0  0
    6.6200   -4.7525   -0.1134 H   0  0  0  0  0  0  0  0  0  0  0  0
    9.1853   -7.3038    0.7025 H   0  0  0  0  0  0  0  0  0  0  0  0
    7.5715   -6.6022    0.6267 H   0  0  0  0  0  0  0  0  0  0  0  0
    8.3221   -6.9160    2.9921 H   0  0  0  0  0  0  0  0  0  0  0  0
    8.0738   -5.1952    2.6521 H   0  0  0  0  0  0  0  0  0  0  0  0
   11.6181   -4.5459    2.4234 H   0  0  0  0  0  0  0  0  0  0  0  0
   10.0154   -3.8022    2.3207 H   0  0  0  0  0  0  0  0  0  0  0  0
   11.2377   -5.8079    0.3210 H   0  0  0  0  0  0  0  0  0  0  0  0
   10.9729   -4.0697    0.0606 H   0  0  0  0  0  0  0  0  0  0  0  0
   10.4230   -4.4500   -2.0653 H   0  0  0  0  0  0  0  0  0  0  0  0
    9.9809   -1.4835   -5.2191 H   0  0  0  0  0  0  0  0  0  0  0  0
    8.2890   -1.6073   -4.7824 H   0  0  0  0  0  0  0  0  0  0  0  0
    8.6643   -1.8820   -7.2508 H   0  0  0  0  0  0  0  0  0  0  0  0
    7.9611   -3.3615   -6.5807 H   0  0  0  0  0  0  0  0  0  0  0  0
   11.0991   -5.1189   -6.6754 H   0  0  0  0  0  0  0  0  0  0  0  0
    9.3890   -5.2540   -6.2418 H   0  0  0  0  0  0  0  0  0  0  0  0
   11.5379   -3.5655   -4.8185 H   0  0  0  0  0  0  0  0  0  0  0  0
   10.7809   -5.0401   -4.2009 H   0  0  0  0  0  0  0  0  0  0  0  0
    6.9083   -3.1137   -4.0475 H   0  0  0  0  0  0  0  0  0  0  0  0
  1  2  1  0  0  0  0
  1 38  1  0  0  0  0
  1 39  1  0  0  0  0
  1 40  1  0  0  0  0
  2  3  1  0  0  0  0
  2 10  2  0  0  0  0
  3  4  2  0  0  0  0
  3 41  1  0  0  0  0
  4  5  1  0  0  0  0
  4 42  1  0  0  0  0
  5  6  1  0  0  0  0
  5  9  2  0  0  0  0
  6  7  1  0  0  0  0
  6  8  1  0  0  0  0
  6 43  1  0  0  0  0
  7 44  1  0  0  0  0
  7 45  1  0  0  0  0
  7 46  1  0  0  0  0
  8 47  1  0  0  0  0
  9 10  1  0  0  0  0
  9 48  1  0  0  0  0
 10 11  1  0  0  0  0
 11 12  1  0  0  0  0
 11 13  1  0  0  0  0
 12 49  1  0  0  0  0
 12 50  1  0  0  0  0
 12 51  1  0  0  0  0
 13 14  1  0  0  0  0
 13 37  2  0  0  0  0
 14 15  2  0  0  0  0
 14 52  1  0  0  0  0
 15 16  1  0  0  0  0
 15 53  1  0  0  0  0
 16 17  2  0  0  0  0
 17 18  1  0  0  0  0
 17 37  1  0  0  0  0
 18 19  1  0  0  0  0
 18 54  1  0  0  0  0
 19 20  1  0  0  0  0
 19 36  2  0  0  0  0
 20 21  2  0  0  0  0
 20 55  1  0  0  0  0
 21 22  1  0  0  0  0
 21 28  1  0  0  0  0
 22 23  1  0  0  0  0
 22 27  1  0  0  0  0
 23 24  1  0  0  0  0
 23 56  1  0  0  0  0
 23 57  1  0  0  0  0
 24 25  1  0  0  0  0
 24 58  1  0  0  0  0
 24 59  1  0  0  0  0
 25 26  1  0  0  0  0
 26 27  1  0  0  0  0
 26 60  1  0  0  0  0
 26 61  1  0  0  0  0
 27 62  1  0  0  0  0
 27 63  1  0  0  0  0
 28 29  2  0  0  0  0
 28 64  1  0  0  0  0
 29 30  1  0  0  0  0
 29 36  1  0  0  0  0
 30 31  1  0  0  0  0
 30 35  1  0  0  0  0
 31 32  1  0  0  0  0
 31 65  1  0  0  0  0
 31 66  1  0  0  0  0
 32 33  1  0  0  0  0
 32 67  1  0  0  0  0
 32 68  1  0  0  0  0
 33 34  1  0  0  0  0
 34 35  1  0  0  0  0
 34 69  1  0  0  0  0
 34 70  1  0  0  0  0
 35 71  1  0  0  0  0
 35 72  1  0  0  0  0
 36 73  1  0  0  0  0
M  END
$$$$
