CHEMBL3690535
 OpenBabel04072215373D

 49 52  0  0  0  0  0  0  0  0999 V2000
    6.1820   -1.9828    0.5886 C   0  0  0  0  0  0  0  0  0  0  0  0
    6.0826   -2.1614   -0.8226 O   0  0  0  0  0  0  0  0  0  0  0  0
    4.8195   -1.8836   -1.3149 C   0  0  0  0  0  0  0  0  0  0  0  0
    4.6473   -2.0125   -2.6705 C   0  0  0  0  0  0  0  0  0  0  0  0
    3.3786   -1.7481   -3.1310 C   0  0  0  0  0  0  0  0  0  0  0  0
    3.0439   -1.8341   -4.5623 C   0  0  0  0  0  0  0  0  0  0  0  0
    3.1680   -0.6891   -5.4640 C   0  0  0  0  0  0  0  0  0  0  0  0
    2.7862   -0.8047   -6.7474 C   0  0  0  0  0  0  0  0  0  0  0  0
    2.2562   -2.0136   -7.2087 N   0  0  0  0  0  0  0  0  0  0  0  0
    1.7513   -2.3835   -8.4523 C   0  0  0  0  0  0  0  0  0  0  0  0
    1.6260   -1.5629   -9.6685 C   0  0  0  0  0  0  0  0  0  0  0  0
    1.8133   -2.1847  -10.9126 C   0  0  0  0  0  0  0  0  0  0  0  0
    1.6862   -1.4694  -12.0988 C   0  0  0  0  0  0  0  0  0  0  0  0
    1.3669   -0.1154  -12.0639 C   0  0  0  0  0  0  0  0  0  0  0  0
    1.1415    0.5339  -10.8496 C   0  0  0  0  0  0  0  0  0  0  0  0
    0.7892    1.9063  -10.7663 N   0  0  0  0  0  0  0  0  0  0  0  0
    0.5381    2.7496  -11.8275 C   0  0  0  0  0  0  0  0  0  0  0  0
    0.5413    2.4611  -13.0179 O   0  0  0  0  0  0  0  0  0  0  0  0
    0.3063    4.0465  -11.4293 N   0  0  0  0  0  0  0  0  0  0  0  0
   -0.0104    5.0392  -12.4657 C   0  0  0  0  0  0  0  0  0  0  0  0
   -1.4480    5.0082  -13.0126 C   0  0  0  0  0  0  0  0  0  0  0  0
   -2.2451    4.1831  -12.2978 F   0  0  0  0  0  0  0  0  0  0  0  0
   -1.9963    6.2478  -12.9303 F   0  0  0  0  0  0  0  0  0  0  0  0
   -1.5010    4.6343  -14.3072 F   0  0  0  0  0  0  0  0  0  0  0  0
    1.2712   -0.2002   -9.6553 C   0  0  0  0  0  0  0  0  0  0  0  0
    1.4380   -3.7283   -8.2910 C   0  0  0  0  0  0  0  0  0  0  0  0
    1.6936   -4.1811   -7.0290 N   0  0  0  0  0  0  0  0  0  0  0  0
    2.1657   -3.1394   -6.3858 C   0  0  0  0  0  0  0  0  0  0  0  0
    2.5738   -3.0123   -5.0276 C   0  0  0  0  0  0  0  0  0  0  0  0
    2.3624   -1.3789   -2.3236 N   0  0  0  0  0  0  0  0  0  0  0  0
    2.6494   -1.2906   -1.0237 C   0  0  0  0  0  0  0  0  0  0  0  0
    3.8442   -1.5202   -0.4642 N   0  0  0  0  0  0  0  0  0  0  0  0
    7.1744   -2.3209    0.9004 H   0  0  0  0  0  0  0  0  0  0  0  0
    5.4451   -2.5909    1.1270 H   0  0  0  0  0  0  0  0  0  0  0  0
    6.0861   -0.9255    0.8531 H   0  0  0  0  0  0  0  0  0  0  0  0
    5.4607   -2.3056   -3.3231 H   0  0  0  0  0  0  0  0  0  0  0  0
    3.5586    0.2434   -5.0691 H   0  0  0  0  0  0  0  0  0  0  0  0
    2.8764    0.0154   -7.4438 H   0  0  0  0  0  0  0  0  0  0  0  0
    2.0611   -3.2418  -10.9785 H   0  0  0  0  0  0  0  0  0  0  0  0
    1.8322   -1.9630  -13.0559 H   0  0  0  0  0  0  0  0  0  0  0  0
    1.2996    0.3995  -13.0161 H   0  0  0  0  0  0  0  0  0  0  0  0
    0.7120    2.3011   -9.8426 H   0  0  0  0  0  0  0  0  0  0  0  0
   -0.1296    4.1759  -10.5267 H   0  0  0  0  0  0  0  0  0  0  0  0
    0.6891    4.9079  -13.3000 H   0  0  0  0  0  0  0  0  0  0  0  0
    0.1955    6.0209  -12.0268 H   0  0  0  0  0  0  0  0  0  0  0  0
    1.0563    0.2901   -8.7106 H   0  0  0  0  0  0  0  0  0  0  0  0
    1.0280   -4.3980   -9.0374 H   0  0  0  0  0  0  0  0  0  0  0  0
    2.4611   -3.8835   -4.3897 H   0  0  0  0  0  0  0  0  0  0  0  0
    1.8420   -1.0063   -0.3571 H   0  0  0  0  0  0  0  0  0  0  0  0
  1  2  1  0  0  0  0
  1 33  1  0  0  0  0
  1 34  1  0  0  0  0
  1 35  1  0  0  0  0
  2  3  1  0  0  0  0
  3  4  1  0  0  0  0
  3 32  2  0  0  0  0
  4  5  2  0  0  0  0
  4 36  1  0  0  0  0
  5  6  1  0  0  0  0
  5 30  1  0  0  0  0
  6  7  1  0  0  0  0
  6 29  2  0  0  0  0
  7  8  2  0  0  0  0
  7 37  1  0  0  0  0
  8  9  1  0  0  0  0
  8 38  1  0  0  0  0
  9 10  1  0  0  0  0
  9 28  1  0  0  0  0
 10 11  1  0  0  0  0
 10 26  2  0  0  0  0
 11 12  1  0  0  0  0
 11 25  2  0  0  0  0
 12 13  2  0  0  0  0
 12 39  1  0  0  0  0
 13 14  1  0  0  0  0
 13 40  1  0  0  0  0
 14 15  2  0  0  0  0
 14 41  1  0  0  0  0
 15 16  1  0  0  0  0
 15 25  1  0  0  0  0
 16 17  1  0  0  0  0
 16 42  1  0  0  0  0
 17 18  2  0  0  0  0
 17 19  1  0  0  0  0
 19 20  1  0  0  0  0
 19 43  1  0  0  0  0
 20 21  1  0  0  0  0
 20 44  1  0  0  0  0
 20 45  1  0  0  0  0
 21 22  1  0  0  0  0
 21 23  1  0  0  0  0
 21 24  1  0  0  0  0
 25 46  1  0  0  0  0
 26 27  1  0  0  0  0
 26 47  1  0  0  0  0
 27 28  2  0  0  0  0
 28 29  1  0  0  0  0
 29 48  1  0  0  0  0
 30 31  2  0  0  0  0
 31 32  1  0  0  0  0
 31 49  1  0  0  0  0
M  END
$$$$
