CHEMBL4751362
 OpenBabel04072215383D

 43 47  0  0  0  0  0  0  0  0999 V2000
   -8.4303   -0.5486    0.4016 C   0  0  0  0  0  0  0  0  0  0  0  0
   -7.0135   -0.7096    0.7668 C   0  0  0  0  0  0  0  0  0  0  0  0
   -6.0317   -1.5981    0.4123 C   0  0  0  0  0  0  0  0  0  0  0  0
   -4.8903   -1.1952    1.1494 C   0  0  0  0  0  0  0  0  0  0  0  0
   -3.6752   -1.7915    1.1727 N   0  0  0  0  0  0  0  0  0  0  0  0
   -3.4988   -3.1060    0.8607 C   0  0  0  0  0  0  0  0  0  0  0  0
   -4.2269   -3.8709    0.1222 N   0  0  0  0  0  0  0  0  0  0  0  0
   -3.7810   -5.1673    0.0400 C   0  0  0  0  0  0  0  0  0  0  0  0
   -4.3706   -6.0442   -0.5708 O   0  0  0  0  0  0  0  0  0  0  0  0
   -2.5154   -5.3623    0.8163 C   0  0  0  0  0  0  0  0  0  0  0  0
   -1.7797   -6.4791    0.9178 C   0  0  0  0  0  0  0  0  0  0  0  0
   -2.0895   -7.7244    0.1841 C   0  0  0  0  0  0  0  0  0  0  0  0
   -1.5698   -7.8891   -1.1362 C   0  0  0  0  0  0  0  0  0  0  0  0
   -0.6675   -6.9842   -1.7529 C   0  0  0  0  0  0  0  0  0  0  0  0
   -0.2267   -7.1592   -3.0657 C   0  0  0  0  0  0  0  0  0  0  0  0
   -0.6713   -8.2490   -3.8006 C   0  0  0  0  0  0  0  0  0  0  0  0
   -1.5358   -9.1706   -3.2137 C   0  0  0  0  0  0  0  0  0  0  0  0
   -1.9831   -9.0087   -1.8896 C   0  0  0  0  0  0  0  0  0  0  0  0
   -2.8502   -9.9500   -1.3178 C   0  0  0  0  0  0  0  0  0  0  0  0
   -3.3336   -9.8161   -0.0086 C   0  0  0  0  0  0  0  0  0  0  0  0
   -4.1998  -10.7857    0.5256 C   0  0  0  0  0  0  0  0  0  0  0  0
   -4.7050  -10.6671    1.8192 C   0  0  0  0  0  0  0  0  0  0  0  0
   -4.3484   -9.5756    2.5967 C   0  0  0  0  0  0  0  0  0  0  0  0
   -3.4895   -8.6042    2.0786 C   0  0  0  0  0  0  0  0  0  0  0  0
   -2.9587   -8.6961    0.7676 C   0  0  0  0  0  0  0  0  0  0  0  0
   -2.0907   -3.8724    1.5792 S   0  0  0  0  0  0  0  0  0  0  0  0
   -5.1672   -0.1007    1.8695 N   0  0  0  0  0  0  0  0  0  0  0  0
   -6.4992    0.1905    1.6423 O   0  0  0  0  0  0  0  0  0  0  0  0
   -8.7438   -1.3256   -0.3034 H   0  0  0  0  0  0  0  0  0  0  0  0
   -8.5941    0.4243   -0.0701 H   0  0  0  0  0  0  0  0  0  0  0  0
   -9.0680   -0.6182    1.2880 H   0  0  0  0  0  0  0  0  0  0  0  0
   -6.1450   -2.4236   -0.2748 H   0  0  0  0  0  0  0  0  0  0  0  0
   -2.9918   -1.3894    1.8011 H   0  0  0  0  0  0  0  0  0  0  0  0
   -0.8728   -6.5132    1.5116 H   0  0  0  0  0  0  0  0  0  0  0  0
   -0.2914   -6.1206   -1.2094 H   0  0  0  0  0  0  0  0  0  0  0  0
    0.4568   -6.4415   -3.5114 H   0  0  0  0  0  0  0  0  0  0  0  0
   -0.3480   -8.3830   -4.8290 H   0  0  0  0  0  0  0  0  0  0  0  0
   -1.8706  -10.0200   -3.8053 H   0  0  0  0  0  0  0  0  0  0  0  0
   -3.1630  -10.8083   -1.9116 H   0  0  0  0  0  0  0  0  0  0  0  0
   -4.4961  -11.6457   -0.0714 H   0  0  0  0  0  0  0  0  0  0  0  0
   -5.3768  -11.4251    2.2133 H   0  0  0  0  0  0  0  0  0  0  0  0
   -4.7409   -9.4727    3.6056 H   0  0  0  0  0  0  0  0  0  0  0  0
   -3.2368   -7.7623    2.7189 H   0  0  0  0  0  0  0  0  0  0  0  0
  1  2  1  0  0  0  0
  1 29  1  0  0  0  0
  1 30  1  0  0  0  0
  1 31  1  0  0  0  0
  2  3  2  0  0  0  0
  2 28  1  0  0  0  0
  3  4  1  0  0  0  0
  3 32  1  0  0  0  0
  4  5  1  0  0  0  0
  4 27  2  0  0  0  0
  5  6  1  0  0  0  0
  5 33  1  0  0  0  0
  6  7  2  0  0  0  0
  6 26  1  0  0  0  0
  7  8  1  0  0  0  0
  8  9  2  0  0  0  0
  8 10  1  0  0  0  0
 10 11  2  0  0  0  0
 10 26  1  0  0  0  0
 11 12  1  0  0  0  0
 11 34  1  0  0  0  0
 12 13  1  0  0  0  0
 12 25  2  0  0  0  0
 13 14  1  0  0  0  0
 13 18  2  0  0  0  0
 14 15  2  0  0  0  0
 14 35  1  0  0  0  0
 15 16  1  0  0  0  0
 15 36  1  0  0  0  0
 16 17  2  0  0  0  0
 16 37  1  0  0  0  0
 17 18  1  0  0  0  0
 17 38  1  0  0  0  0
 18 19  1  0  0  0  0
 19 20  2  0  0  0  0
 19 39  1  0  0  0  0
 20 21  1  0  0  0  0
 20 25  1  0  0  0  0
 21 22  2  0  0  0  0
 21 40  1  0  0  0  0
 22 23  1  0  0  0  0
 22 41  1  0  0  0  0
 23 24  2  0  0  0  0
 23 42  1  0  0  0  0
 24 25  1  0  0  0  0
 24 43  1  0  0  0  0
 27 28  1  0  0  0  0
M  END
$$$$
