CHEMBL363639
 OpenBabel04072215373D

 52 54  0  0  0  0  0  0  0  0999 V2000
    6.3051   -0.8367   -0.0545 C   0  0  0  0  0  0  0  0  0  0  0  0
    5.2854   -0.1766   -0.9653 C   0  0  0  0  0  0  0  0  0  0  0  0
    5.2242    1.2126   -0.6243 O   0  0  0  0  0  0  0  0  0  0  0  0
    4.4005    1.5205    0.4215 C   0  0  0  0  0  0  0  0  0  0  0  0
    3.5104    0.7819    0.8329 O   0  0  0  0  0  0  0  0  0  0  0  0
    4.7896    2.7756    1.0693 C   0  0  0  0  0  0  0  0  0  0  0  0
    5.8413    3.5551    0.6337 C   0  0  0  0  0  0  0  0  0  0  0  0
    6.0029    4.5950    1.4854 N   0  0  0  0  0  0  0  0  0  0  0  0
    6.9583    5.5197    1.3309 N   0  0  0  0  0  0  0  0  0  0  0  0
    6.9837    6.4056    2.2675 C   0  0  0  0  0  0  0  0  0  0  0  0
    6.1561    6.4583    3.3489 N   0  0  0  0  0  0  0  0  0  0  0  0
    5.2328    5.5515    3.5221 C   0  0  0  0  0  0  0  0  0  0  0  0
    4.4592    5.6205    4.6610 N   0  0  0  0  0  0  0  0  0  0  0  0
    4.9471    6.0631    5.9187 C   0  0  0  0  0  0  0  0  0  0  0  0
    6.2951    5.9350    6.2808 C   0  0  0  0  0  0  0  0  0  0  0  0
    6.7461    6.3058    7.5552 C   0  0  0  0  0  0  0  0  0  0  0  0
    8.1876    6.1126    7.8672 C   0  0  0  0  0  0  0  0  0  0  0  0
    8.8300    5.2638    7.2564 O   0  0  0  0  0  0  0  0  0  0  0  0
    8.6926    6.9242    8.8601 N   0  0  0  0  0  0  0  0  0  0  0  0
   10.0957    6.8473    9.0311 O   0  0  0  0  0  0  0  0  0  0  0  0
   10.3517    5.9190   10.0826 C   0  0  0  0  0  0  0  0  0  0  0  0
    5.8323    6.7673    8.5108 C   0  0  0  0  0  0  0  0  0  0  0  0
    4.4786    6.8583    8.1824 C   0  0  0  0  0  0  0  0  0  0  0  0
    4.0509    6.5017    6.9034 C   0  0  0  0  0  0  0  0  0  0  0  0
    2.7420    6.5755    6.6158 F   0  0  0  0  0  0  0  0  0  0  0  0
    5.0887    4.5290    2.5067 C   0  0  0  0  0  0  0  0  0  0  0  0
    4.2741    3.4060    2.2830 C   0  0  0  0  0  0  0  0  0  0  0  0
    3.1329    2.7817    3.0801 C   0  0  0  0  0  0  0  0  0  0  0  0
    3.6400    1.7342    4.0752 C   0  0  0  0  0  0  0  0  0  0  0  0
    2.1454    3.7254    3.7536 C   0  0  0  0  0  0  0  0  0  0  0  0
    6.4167   -1.8986   -0.2876 H   0  0  0  0  0  0  0  0  0  0  0  0
    6.0150   -0.7343    0.9958 H   0  0  0  0  0  0  0  0  0  0  0  0
    7.2786   -0.3446   -0.1586 H   0  0  0  0  0  0  0  0  0  0  0  0
    4.3008   -0.6670   -0.8970 H   0  0  0  0  0  0  0  0  0  0  0  0
    5.6108   -0.2471   -2.0048 H   0  0  0  0  0  0  0  0  0  0  0  0
    6.5179    3.4308   -0.2004 H   0  0  0  0  0  0  0  0  0  0  0  0
    7.7477    7.1994    2.2079 H   0  0  0  0  0  0  0  0  0  0  0  0
    3.5317    5.9962    4.4840 H   0  0  0  0  0  0  0  0  0  0  0  0
    7.0173    5.5358    5.5702 H   0  0  0  0  0  0  0  0  0  0  0  0
    8.2985    7.8448    9.0137 H   0  0  0  0  0  0  0  0  0  0  0  0
   11.4304    5.8649   10.2457 H   0  0  0  0  0  0  0  0  0  0  0  0
    9.9878    4.9219    9.8131 H   0  0  0  0  0  0  0  0  0  0  0  0
    9.8695    6.2559   11.0058 H   0  0  0  0  0  0  0  0  0  0  0  0
    6.1466    7.0099    9.5225 H   0  0  0  0  0  0  0  0  0  0  0  0
    3.7506    7.1817    8.9205 H   0  0  0  0  0  0  0  0  0  0  0  0
    2.5055    2.2485    2.3555 H   0  0  0  0  0  0  0  0  0  0  0  0
    4.3306    2.1706    4.8023 H   0  0  0  0  0  0  0  0  0  0  0  0
    4.1651    0.9221    3.5594 H   0  0  0  0  0  0  0  0  0  0  0  0
    2.8049    1.2823    4.6240 H   0  0  0  0  0  0  0  0  0  0  0  0
    2.5465    4.1672    4.6636 H   0  0  0  0  0  0  0  0  0  0  0  0
    1.2578    3.1622    4.0730 H   0  0  0  0  0  0  0  0  0  0  0  0
    1.8093    4.5138    3.0753 H   0  0  0  0  0  0  0  0  0  0  0  0
  1  2  1  0  0  0  0
  1 31  1  0  0  0  0
  1 32  1  0  0  0  0
  1 33  1  0  0  0  0
  2  3  1  0  0  0  0
  2 34  1  0  0  0  0
  2 35  1  0  0  0  0
  3  4  1  0  0  0  0
  4  5  2  0  0  0  0
  4  6  1  0  0  0  0
  6  7  2  0  0  0  0
  6 27  1  0  0  0  0
  7  8  1  0  0  0  0
  7 36  1  0  0  0  0
  8  9  1  0  0  0  0
  8 26  1  0  0  0  0
  9 10  2  0  0  0  0
 10 11  1  0  0  0  0
 10 37  1  0  0  0  0
 11 12  2  0  0  0  0
 12 13  1  0  0  0  0
 12 26  1  0  0  0  0
 13 14  1  0  0  0  0
 13 38  1  0  0  0  0
 14 15  1  0  0  0  0
 14 24  2  0  0  0  0
 15 16  2  0  0  0  0
 15 39  1  0  0  0  0
 16 17  1  0  0  0  0
 16 22  1  0  0  0  0
 17 18  2  0  0  0  0
 17 19  1  0  0  0  0
 19 20  1  0  0  0  0
 19 40  1  0  0  0  0
 20 21  1  0  0  0  0
 21 41  1  0  0  0  0
 21 42  1  0  0  0  0
 21 43  1  0  0  0  0
 22 23  2  0  0  0  0
 22 44  1  0  0  0  0
 23 24  1  0  0  0  0
 23 45  1  0  0  0  0
 24 25  1  0  0  0  0
 26 27  2  0  0  0  0
 27 28  1  0  0  0  0
 28 29  1  0  0  0  0
 28 30  1  0  0  0  0
 28 46  1  0  0  0  0
 29 47  1  0  0  0  0
 29 48  1  0  0  0  0
 29 49  1  0  0  0  0
 30 50  1  0  0  0  0
 30 51  1  0  0  0  0
 30 52  1  0  0  0  0
M  END
$$$$
