CHEMBL2337372
 OpenBabel04072215363D

 52 55  0  0  0  0  0  0  0  0999 V2000
    2.9133    4.8026   -6.9020 C   0  0  0  0  0  0  0  0  0  0  0  0
    2.9867    3.3785   -6.9249 O   0  0  0  0  0  0  0  0  0  0  0  0
    3.5749    2.8233   -5.8174 C   0  0  0  0  0  0  0  0  0  0  0  0
    3.1526    1.5381   -5.4921 C   0  0  0  0  0  0  0  0  0  0  0  0
    3.6331    0.9244   -4.3411 C   0  0  0  0  0  0  0  0  0  0  0  0
    4.5533    1.6084   -3.5291 C   0  0  0  0  0  0  0  0  0  0  0  0
    5.0168    2.8895   -3.8692 C   0  0  0  0  0  0  0  0  0  0  0  0
    5.9092    3.5316   -2.9921 N   0  0  0  0  0  0  0  0  0  0  0  0
    6.7217    4.6902   -3.1208 C   0  0  0  0  0  0  0  0  0  0  0  0
    6.9160    5.2910   -1.9116 N   0  0  0  0  0  0  0  0  0  0  0  0
    8.1107    5.1127   -1.3225 C   0  0  0  0  0  0  0  0  0  0  0  0
    8.4419    5.7703   -0.1390 N   0  0  0  0  0  0  0  0  0  0  0  0
    7.5418    6.3274    0.7339 C   0  0  0  0  0  0  0  0  0  0  0  0
    6.3212    6.2266    0.6220 O   0  0  0  0  0  0  0  0  0  0  0  0
    8.1604    7.1274    1.9116 C   0  0  0  0  0  0  0  0  0  0  0  0
    8.7542    8.4485    1.4011 C   0  0  0  0  0  0  0  0  0  0  0  0
    7.0362    7.4507    2.9167 C   0  0  0  0  0  0  0  0  0  0  0  0
    9.2477    6.3334    2.6522 C   0  0  0  0  0  0  0  0  0  0  0  0
    9.1155    4.3763   -1.8350 N   0  0  0  0  0  0  0  0  0  0  0  0
    8.9199    4.1023   -3.1454 C   0  0  0  0  0  0  0  0  0  0  0  0
    9.9242    3.8967   -4.0695 N   0  0  0  0  0  0  0  0  0  0  0  0
   10.0740    5.2031   -4.5213 C   0  0  0  0  0  0  0  0  0  0  0  0
   11.2292    5.9609   -4.7063 C   0  0  0  0  0  0  0  0  0  0  0  0
   11.0482    7.3022   -5.0298 C   0  0  0  0  0  0  0  0  0  0  0  0
    9.7698    7.8123   -5.2714 C   0  0  0  0  0  0  0  0  0  0  0  0
    8.6299    7.0096   -5.0864 C   0  0  0  0  0  0  0  0  0  0  0  0
    7.0583    7.5893   -5.3983 Cl  0  0  0  0  0  0  0  0  0  0  0  0
    8.7493    5.6864   -4.6064 C   0  0  0  0  0  0  0  0  0  0  0  0
    7.8965    4.6643   -3.9251 C   0  0  0  0  0  0  0  0  0  0  0  0
    4.5402    3.4774   -5.0362 C   0  0  0  0  0  0  0  0  0  0  0  0
    2.2283    5.1186   -7.6931 H   0  0  0  0  0  0  0  0  0  0  0  0
    3.8932    5.2420   -7.1124 H   0  0  0  0  0  0  0  0  0  0  0  0
    2.5149    5.1695   -5.9483 H   0  0  0  0  0  0  0  0  0  0  0  0
    2.4095    1.0381   -6.1079 H   0  0  0  0  0  0  0  0  0  0  0  0
    3.2892   -0.0716   -4.0684 H   0  0  0  0  0  0  0  0  0  0  0  0
    4.9072    1.1099   -2.6270 H   0  0  0  0  0  0  0  0  0  0  0  0
    5.5516    3.5324   -2.0369 H   0  0  0  0  0  0  0  0  0  0  0  0
    9.4243    5.7185    0.0737 H   0  0  0  0  0  0  0  0  0  0  0  0
    8.0005    9.0435    0.8731 H   0  0  0  0  0  0  0  0  0  0  0  0
    9.5859    8.2812    0.7086 H   0  0  0  0  0  0  0  0  0  0  0  0
    9.1323    9.0561    2.2329 H   0  0  0  0  0  0  0  0  0  0  0  0
    6.2452    8.0501    2.4505 H   0  0  0  0  0  0  0  0  0  0  0  0
    7.4124    8.0107    3.7794 H   0  0  0  0  0  0  0  0  0  0  0  0
    6.5713    6.5304    3.2905 H   0  0  0  0  0  0  0  0  0  0  0  0
   10.1276    6.1533    2.0258 H   0  0  0  0  0  0  0  0  0  0  0  0
    8.8712    5.3603    2.9846 H   0  0  0  0  0  0  0  0  0  0  0  0
    9.5956    6.8793    3.5382 H   0  0  0  0  0  0  0  0  0  0  0  0
    9.7886    3.1897   -4.7760 H   0  0  0  0  0  0  0  0  0  0  0  0
   12.2112    5.5455   -4.5049 H   0  0  0  0  0  0  0  0  0  0  0  0
   11.9202    7.9512   -5.0894 H   0  0  0  0  0  0  0  0  0  0  0  0
    9.6701    8.8514   -5.5725 H   0  0  0  0  0  0  0  0  0  0  0  0
    4.8999    4.4591   -5.3050 H   0  0  0  0  0  0  0  0  0  0  0  0
  1  2  1  0  0  0  0
  1 31  1  0  0  0  0
  1 32  1  0  0  0  0
  1 33  1  0  0  0  0
  2  3  1  0  0  0  0
  3  4  1  0  0  0  0
  3 30  2  0  0  0  0
  4  5  2  0  0  0  0
  4 34  1  0  0  0  0
  5  6  1  0  0  0  0
  5 35  1  0  0  0  0
  6  7  2  0  0  0  0
  6 36  1  0  0  0  0
  7  8  1  0  0  0  0
  7 30  1  0  0  0  0
  8  9  1  0  0  0  0
  8 37  1  0  0  0  0
  9 10  1  0  0  0  0
  9 29  2  0  0  0  0
 10 11  2  0  0  0  0
 11 12  1  0  0  0  0
 11 19  1  0  0  0  0
 12 13  1  0  0  0  0
 12 38  1  0  0  0  0
 13 14  2  0  0  0  0
 13 15  1  0  0  0  0
 15 16  1  0  0  0  0
 15 17  1  0  0  0  0
 15 18  1  0  0  0  0
 16 39  1  0  0  0  0
 16 40  1  0  0  0  0
 16 41  1  0  0  0  0
 17 42  1  0  0  0  0
 17 43  1  0  0  0  0
 17 44  1  0  0  0  0
 18 45  1  0  0  0  0
 18 46  1  0  0  0  0
 18 47  1  0  0  0  0
 19 20  2  0  0  0  0
 20 21  1  0  0  0  0
 20 29  1  0  0  0  0
 21 22  1  0  0  0  0
 21 48  1  0  0  0  0
 22 23  1  0  0  0  0
 22 28  2  0  0  0  0
 23 24  2  0  0  0  0
 23 49  1  0  0  0  0
 24 25  1  0  0  0  0
 24 50  1  0  0  0  0
 25 26  2  0  0  0  0
 25 51  1  0  0  0  0
 26 27  1  0  0  0  0
 26 28  1  0  0  0  0
 28 29  1  0  0  0  0
 30 52  1  0  0  0  0
M  END
$$$$
