CHEMBL4100555
 OpenBabel04072215383D

 52 57  0  0  0  0  0  0  0  0999 V2000
    2.7562   -0.9461    0.1491 O   0  0  0  0  0  0  0  0  0  0  0  0
    2.2412    0.1243   -0.1321 C   0  0  0  0  0  0  0  0  0  0  0  0
    0.9737    0.4000   -0.5924 N   0  0  0  0  0  0  0  0  0  0  0  0
    0.0627   -0.6216   -0.7449 C   0  0  0  0  0  0  0  0  0  0  0  0
   -0.2919   -1.5997    0.2116 C   0  0  0  0  0  0  0  0  0  0  0  0
   -1.1862   -2.4116   -0.4440 C   0  0  0  0  0  0  0  0  0  0  0  0
   -1.9018   -3.6697    0.0809 C   0  0  0  0  0  0  0  0  0  0  0  0
   -2.6654   -4.4425   -0.9785 C   0  0  0  0  0  0  0  0  0  0  0  0
   -3.2737   -5.6222   -0.4595 O   0  0  0  0  0  0  0  0  0  0  0  0
   -2.4859   -3.5877    1.4893 C   0  0  0  0  0  0  0  0  0  0  0  0
   -1.2603   -4.4053    1.2579 C   0  0  0  0  0  0  0  0  0  0  0  0
   -1.3672   -1.9249   -1.7071 O   0  0  0  0  0  0  0  0  0  0  0  0
   -0.6464   -0.7551   -1.8627 N   0  0  0  0  0  0  0  0  0  0  0  0
    3.0235    1.2904   -0.1642 N   0  0  0  0  0  0  0  0  0  0  0  0
    4.2423    1.4196   -0.8030 C   0  0  0  0  0  0  0  0  0  0  0  0
    4.6498    2.7309   -0.7108 C   0  0  0  0  0  0  0  0  0  0  0  0
    3.7076    3.4236    0.0979 C   0  0  0  0  0  0  0  0  0  0  0  0
    3.6110    4.7488    0.5608 C   0  0  0  0  0  0  0  0  0  0  0  0
    2.5553    5.1095    1.4048 C   0  0  0  0  0  0  0  0  0  0  0  0
    2.5033    6.4402    1.7930 O   0  0  0  0  0  0  0  0  0  0  0  0
    1.2729    6.9046    2.2202 C   0  0  0  0  0  0  0  0  0  0  0  0
    0.1853    6.6508    1.4558 N   0  0  0  0  0  0  0  0  0  0  0  0
   -1.0092    6.7865    2.0618 C   0  0  0  0  0  0  0  0  0  0  0  0
   -1.2164    7.1219    3.3460 N   0  0  0  0  0  0  0  0  0  0  0  0
   -0.0954    7.4202    4.0154 C   0  0  0  0  0  0  0  0  0  0  0  0
    1.1722    7.3898    3.4864 C   0  0  0  0  0  0  0  0  0  0  0  0
    2.1609    7.7180    4.5338 C   0  0  0  0  0  0  0  0  0  0  0  0
    1.4844    7.3131    5.7964 N   0  0  0  0  0  0  0  0  0  0  0  0
    0.0342    7.5640    5.5126 C   0  0  0  0  0  0  0  0  0  0  0  0
    1.6546    4.1238    1.8467 C   0  0  0  0  0  0  0  0  0  0  0  0
    1.7032    2.8205    1.3654 C   0  0  0  0  0  0  0  0  0  0  0  0
    2.7256    2.4980    0.4614 C   0  0  0  0  0  0  0  0  0  0  0  0
    0.8820    1.1395   -1.2795 H   0  0  0  0  0  0  0  0  0  0  0  0
    0.0574   -1.6886    1.2292 H   0  0  0  0  0  0  0  0  0  0  0  0
   -1.9947   -4.7354   -1.7942 H   0  0  0  0  0  0  0  0  0  0  0  0
   -3.4599   -3.8170   -1.3972 H   0  0  0  0  0  0  0  0  0  0  0  0
   -2.5713   -6.2895   -0.3856 H   0  0  0  0  0  0  0  0  0  0  0  0
   -3.4181   -4.1096    1.6865 H   0  0  0  0  0  0  0  0  0  0  0  0
   -2.3956   -2.6634    2.0485 H   0  0  0  0  0  0  0  0  0  0  0  0
   -1.3578   -5.4817    1.3305 H   0  0  0  0  0  0  0  0  0  0  0  0
   -0.3270   -4.0449    1.6752 H   0  0  0  0  0  0  0  0  0  0  0  0
    4.6770    0.5740   -1.3235 H   0  0  0  0  0  0  0  0  0  0  0  0
    5.5452    3.1475   -1.1560 H   0  0  0  0  0  0  0  0  0  0  0  0
    4.3506    5.4909    0.2713 H   0  0  0  0  0  0  0  0  0  0  0  0
   -1.8838    6.5487    1.4663 H   0  0  0  0  0  0  0  0  0  0  0  0
    2.3344    8.8003    4.5602 H   0  0  0  0  0  0  0  0  0  0  0  0
    3.1230    7.2129    4.4107 H   0  0  0  0  0  0  0  0  0  0  0  0
    1.5935    6.2996    5.8560 H   0  0  0  0  0  0  0  0  0  0  0  0
   -0.2372    8.5737    5.8329 H   0  0  0  0  0  0  0  0  0  0  0  0
   -0.5818    6.8251    6.0339 H   0  0  0  0  0  0  0  0  0  0  0  0
    0.8752    4.3622    2.5696 H   0  0  0  0  0  0  0  0  0  0  0  0
    0.9752    2.0857    1.6945 H   0  0  0  0  0  0  0  0  0  0  0  0
  1  2  2  0  0  0  0
  2  3  1  0  0  0  0
  2 14  1  0  0  0  0
  3  4  1  0  0  0  0
  3 33  1  0  0  0  0
  4  5  1  0  0  0  0
  4 13  2  0  0  0  0
  5  6  2  0  0  0  0
  5 34  1  0  0  0  0
  6  7  1  0  0  0  0
  6 12  1  0  0  0  0
  7  8  1  0  0  0  0
  7 10  1  0  0  0  0
  7 11  1  0  0  0  0
  8  9  1  0  0  0  0
  8 35  1  0  0  0  0
  8 36  1  0  0  0  0
  9 37  1  0  0  0  0
 10 11  1  0  0  0  0
 10 38  1  0  0  0  0
 10 39  1  0  0  0  0
 11 40  1  0  0  0  0
 11 41  1  0  0  0  0
 12 13  1  0  0  0  0
 14 15  1  0  0  0  0
 14 32  1  0  0  0  0
 15 16  2  0  0  0  0
 15 42  1  0  0  0  0
 16 17  1  0  0  0  0
 16 43  1  0  0  0  0
 17 18  1  0  0  0  0
 17 32  2  0  0  0  0
 18 19  2  0  0  0  0
 18 44  1  0  0  0  0
 19 20  1  0  0  0  0
 19 30  1  0  0  0  0
 20 21  1  0  0  0  0
 21 22  1  0  0  0  0
 21 26  2  0  0  0  0
 22 23  2  0  0  0  0
 23 24  1  0  0  0  0
 23 45  1  0  0  0  0
 24 25  2  0  0  0  0
 25 26  1  0  0  0  0
 25 29  1  0  0  0  0
 26 27  1  0  0  0  0
 27 28  1  0  0  0  0
 27 46  1  0  0  0  0
 27 47  1  0  0  0  0
 28 29  1  0  0  0  0
 28 48  1  0  0  0  0
 29 49  1  0  0  0  0
 29 50  1  0  0  0  0
 30 31  2  0  0  0  0
 30 51  1  0  0  0  0
 31 32  1  0  0  0  0
 31 52  1  0  0  0  0
M  END
$$$$
