CHEMBL2403368
 OpenBabel04072215363D

 50 54  0  0  0  0  0  0  0  0999 V2000
    1.4280   -0.3171    0.1452 C   0  0  0  0  0  0  0  0  0  0  0  0
    2.8363   -0.1535    0.0496 O   0  0  0  0  0  0  0  0  0  0  0  0
    3.6179   -1.1738    0.5218 C   0  0  0  0  0  0  0  0  0  0  0  0
    5.0019   -0.9289    0.4034 C   0  0  0  0  0  0  0  0  0  0  0  0
    5.9448   -1.8577    0.8434 C   0  0  0  0  0  0  0  0  0  0  0  0
    5.4630   -3.0254    1.3922 C   0  0  0  0  0  0  0  0  0  0  0  0
    4.0962   -3.2970    1.5135 C   0  0  0  0  0  0  0  0  0  0  0  0
    3.1556   -2.3716    1.0852 C   0  0  0  0  0  0  0  0  0  0  0  0
    4.0043   -4.6204    2.1507 C   0  0  0  0  0  0  0  0  0  0  0  0
    2.8729   -5.2524    2.5006 C   0  0  0  0  0  0  0  0  0  0  0  0
    2.8852   -6.4609    3.2305 C   0  0  0  0  0  0  0  0  0  0  0  0
    2.8111   -6.7419    4.5820 C   0  0  0  0  0  0  0  0  0  0  0  0
    2.9783   -8.1431    4.7418 C   0  0  0  0  0  0  0  0  0  0  0  0
    3.0890   -8.6657    3.4799 C   0  0  0  0  0  0  0  0  0  0  0  0
    3.0375   -7.6525    2.5631 N   0  0  0  0  0  0  0  0  0  0  0  0
    3.3236  -10.0782    3.1602 C   0  0  0  0  0  0  0  0  0  0  0  0
    3.2605  -10.9582    4.4192 C   0  0  0  0  0  0  0  0  0  0  0  0
    3.3493  -10.3677    5.7664 N   0  0  0  0  0  0  0  0  0  0  0  0
    3.2914  -11.1429    6.9446 C   0  0  0  0  0  0  0  0  0  0  0  0
    3.2924  -10.5924    8.0477 O   0  0  0  0  0  0  0  0  0  0  0  0
    3.1199  -12.5920    6.8758 C   0  0  0  0  0  0  0  0  0  0  0  0
    3.5078  -13.5862    5.9484 C   0  0  0  0  0  0  0  0  0  0  0  0
    3.0703  -14.8050    6.2699 N   0  0  0  0  0  0  0  0  0  0  0  0
    2.4264  -14.6470    7.4789 O   0  0  0  0  0  0  0  0  0  0  0  0
    2.4809  -13.3413    7.8516 C   0  0  0  0  0  0  0  0  0  0  0  0
    1.8555  -13.0216    9.1506 C   0  0  0  0  0  0  0  0  0  0  0  0
    3.0526   -8.9397    5.9927 C   0  0  0  0  0  0  0  0  0  0  0  0
    5.4235   -5.1035    2.3619 C   0  0  0  0  0  0  0  0  0  0  0  0
    5.8195   -6.1660    2.7983 O   0  0  0  0  0  0  0  0  0  0  0  0
    6.2224   -4.0747    1.8916 N   0  0  0  0  0  0  0  0  0  0  0  0
    0.9596    0.5843   -0.2619 H   0  0  0  0  0  0  0  0  0  0  0  0
    1.1118   -0.4149    1.1887 H   0  0  0  0  0  0  0  0  0  0  0  0
    1.0905   -1.1689   -0.4538 H   0  0  0  0  0  0  0  0  0  0  0  0
    5.3402    0.0074   -0.0372 H   0  0  0  0  0  0  0  0  0  0  0  0
    7.0062   -1.6603    0.7555 H   0  0  0  0  0  0  0  0  0  0  0  0
    2.1000   -2.5825    1.1983 H   0  0  0  0  0  0  0  0  0  0  0  0
    1.9030   -4.8054    2.3051 H   0  0  0  0  0  0  0  0  0  0  0  0
    2.7096   -6.0073    5.3700 H   0  0  0  0  0  0  0  0  0  0  0  0
    3.1651   -7.7548    1.5657 H   0  0  0  0  0  0  0  0  0  0  0  0
    4.3068  -10.1882    2.6870 H   0  0  0  0  0  0  0  0  0  0  0  0
    2.5854  -10.4419    2.4362 H   0  0  0  0  0  0  0  0  0  0  0  0
    4.1130  -11.6357    4.3337 H   0  0  0  0  0  0  0  0  0  0  0  0
    2.3458  -11.5591    4.3883 H   0  0  0  0  0  0  0  0  0  0  0  0
    4.0854  -13.5087    5.0417 H   0  0  0  0  0  0  0  0  0  0  0  0
    1.4197  -13.9153    9.6086 H   0  0  0  0  0  0  0  0  0  0  0  0
    1.0581  -12.2834    9.0254 H   0  0  0  0  0  0  0  0  0  0  0  0
    2.5995  -12.6203    9.8453 H   0  0  0  0  0  0  0  0  0  0  0  0
    3.8243   -8.5298    6.6560 H   0  0  0  0  0  0  0  0  0  0  0  0
    2.0903   -8.8735    6.5159 H   0  0  0  0  0  0  0  0  0  0  0  0
    7.2291   -4.1235    1.9100 H   0  0  0  0  0  0  0  0  0  0  0  0
  1  2  1  0  0  0  0
  1 31  1  0  0  0  0
  1 32  1  0  0  0  0
  1 33  1  0  0  0  0
  2  3  1  0  0  0  0
  3  4  1  0  0  0  0
  3  8  2  0  0  0  0
  4  5  2  0  0  0  0
  4 34  1  0  0  0  0
  5  6  1  0  0  0  0
  5 35  1  0  0  0  0
  6  7  2  0  0  0  0
  6 30  1  0  0  0  0
  7  8  1  0  0  0  0
  7  9  1  0  0  0  0
  8 36  1  0  0  0  0
  9 10  2  0  0  0  0
  9 28  1  0  0  0  0
 10 11  1  0  0  0  0
 10 37  1  0  0  0  0
 11 12  2  0  0  0  0
 11 15  1  0  0  0  0
 12 13  1  0  0  0  0
 12 38  1  0  0  0  0
 13 14  2  0  0  0  0
 13 27  1  0  0  0  0
 14 15  1  0  0  0  0
 14 16  1  0  0  0  0
 15 39  1  0  0  0  0
 16 17  1  0  0  0  0
 16 40  1  0  0  0  0
 16 41  1  0  0  0  0
 17 18  1  0  0  0  0
 17 42  1  0  0  0  0
 17 43  1  0  0  0  0
 18 19  1  0  0  0  0
 18 27  1  0  0  0  0
 19 20  2  0  0  0  0
 19 21  1  0  0  0  0
 21 22  1  0  0  0  0
 21 25  2  0  0  0  0
 22 23  2  0  0  0  0
 22 44  1  0  0  0  0
 23 24  1  0  0  0  0
 24 25  1  0  0  0  0
 25 26  1  0  0  0  0
 26 45  1  0  0  0  0
 26 46  1  0  0  0  0
 26 47  1  0  0  0  0
 27 48  1  0  0  0  0
 27 49  1  0  0  0  0
 28 29  2  0  0  0  0
 28 30  1  0  0  0  0
 30 50  1  0  0  0  0
M  END
$$$$
