CHEMBL2002702
 OpenBabel04072215363D

 32 34  0  0  0  0  0  0  0  0999 V2000
    2.3298    0.5109   -0.9873 C   0  0  0  0  0  0  0  0  0  0  0  0
    0.9714    0.1531   -0.5138 C   0  0  0  0  0  0  0  0  0  0  0  0
   -0.0181    0.9272    0.0547 C   0  0  0  0  0  0  0  0  0  0  0  0
   -1.1093    0.0765    0.3891 C   0  0  0  0  0  0  0  0  0  0  0  0
   -2.3650    0.4868    1.0681 C   0  0  0  0  0  0  0  0  0  0  0  0
   -0.7475   -1.2034    0.0041 C   0  0  0  0  0  0  0  0  0  0  0  0
   -1.3829   -2.4632    0.1017 C   0  0  0  0  0  0  0  0  0  0  0  0
   -1.2131   -3.2752    1.1566 C   0  0  0  0  0  0  0  0  0  0  0  0
   -0.3242   -3.0426    2.3583 C   0  0  0  0  0  0  0  0  0  0  0  0
    0.4662   -2.1461    2.5741 O   0  0  0  0  0  0  0  0  0  0  0  0
   -0.5676   -4.1204    3.1948 N   0  0  0  0  0  0  0  0  0  0  0  0
   -1.4745   -5.0100    2.6327 C   0  0  0  0  0  0  0  0  0  0  0  0
   -1.9146   -6.1917    3.1929 C   0  0  0  0  0  0  0  0  0  0  0  0
   -2.8161   -6.9536    2.4495 C   0  0  0  0  0  0  0  0  0  0  0  0
   -3.2482   -6.5197    1.1823 C   0  0  0  0  0  0  0  0  0  0  0  0
   -2.7907   -5.3118    0.6366 C   0  0  0  0  0  0  0  0  0  0  0  0
   -1.8979   -4.5581    1.3787 C   0  0  0  0  0  0  0  0  0  0  0  0
    0.5054   -1.1389   -0.5552 N   0  0  0  0  0  0  0  0  0  0  0  0
    2.5348    1.5737   -0.8222 H   0  0  0  0  0  0  0  0  0  0  0  0
    2.4327    0.3070   -2.0574 H   0  0  0  0  0  0  0  0  0  0  0  0
    3.0890   -0.0653   -0.4485 H   0  0  0  0  0  0  0  0  0  0  0  0
    0.0499    1.9909    0.2458 H   0  0  0  0  0  0  0  0  0  0  0  0
   -2.3457    1.5509    1.3251 H   0  0  0  0  0  0  0  0  0  0  0  0
   -2.5033   -0.0798    1.9947 H   0  0  0  0  0  0  0  0  0  0  0  0
   -3.2278    0.3094    0.4187 H   0  0  0  0  0  0  0  0  0  0  0  0
   -2.0735   -2.7275   -0.6934 H   0  0  0  0  0  0  0  0  0  0  0  0
   -0.1016   -4.2274    4.0803 H   0  0  0  0  0  0  0  0  0  0  0  0
   -1.5761   -6.5205    4.1687 H   0  0  0  0  0  0  0  0  0  0  0  0
   -3.1874   -7.8938    2.8525 H   0  0  0  0  0  0  0  0  0  0  0  0
   -3.9488   -7.1343    0.6203 H   0  0  0  0  0  0  0  0  0  0  0  0
   -3.1340   -4.9906   -0.3407 H   0  0  0  0  0  0  0  0  0  0  0  0
    1.0310   -1.9325   -0.8947 H   0  0  0  0  0  0  0  0  0  0  0  0
  1  2  1  0  0  0  0
  1 19  1  0  0  0  0
  1 20  1  0  0  0  0
  1 21  1  0  0  0  0
  2  3  2  0  0  0  0
  2 18  1  0  0  0  0
  3  4  1  0  0  0  0
  3 22  1  0  0  0  0
  4  5  1  0  0  0  0
  4  6  2  0  0  0  0
  5 23  1  0  0  0  0
  5 24  1  0  0  0  0
  5 25  1  0  0  0  0
  6  7  1  0  0  0  0
  6 18  1  0  0  0  0
  7  8  2  3  0  0  0
  7 26  1  0  0  0  0
  8  9  1  0  0  0  0
  8 17  1  0  0  0  0
  9 10  2  0  0  0  0
  9 11  1  0  0  0  0
 11 12  1  0  0  0  0
 11 27  1  0  0  0  0
 12 13  1  0  0  0  0
 12 17  2  0  0  0  0
 13 14  2  0  0  0  0
 13 28  1  0  0  0  0
 14 15  1  0  0  0  0
 14 29  1  0  0  0  0
 15 16  2  0  0  0  0
 15 30  1  0  0  0  0
 16 17  1  0  0  0  0
 16 31  1  0  0  0  0
 18 32  1  0  0  0  0
M  END
$$$$
