CHEMBL431006
 OpenBabel04072215383D

 52 55  0  0  0  0  0  0  0  0999 V2000
    0.1075   -0.2429   -1.4739 C   0  0  0  0  0  0  0  0  0  0  0  0
    1.6128   -0.1939   -1.1118 C   0  0  0  0  0  0  0  0  0  0  0  0
    1.7501   -0.3019    0.4191 C   0  0  0  0  0  0  0  0  0  0  0  0
    2.2503   -1.4467   -1.7526 C   0  0  0  0  0  0  0  0  0  0  0  0
    2.2791    1.1178   -1.5651 C   0  0  0  0  0  0  0  0  0  0  0  0
    1.5481    2.3127   -1.6080 C   0  0  0  0  0  0  0  0  0  0  0  0
    2.1365    3.5179   -2.0018 C   0  0  0  0  0  0  0  0  0  0  0  0
    3.4908    3.6007   -2.3359 C   0  0  0  0  0  0  0  0  0  0  0  0
    4.0660    4.8046   -2.7891 N   0  0  0  0  0  0  0  0  0  0  0  0
    3.5892    6.1151   -2.5331 C   0  0  0  0  0  0  0  0  0  0  0  0
    2.9279    6.3574   -1.3802 N   0  0  0  0  0  0  0  0  0  0  0  0
    2.3108    7.5495   -1.1554 N   0  0  0  0  0  0  0  0  0  0  0  0
    2.3153    8.5095   -2.1054 C   0  0  0  0  0  0  0  0  0  0  0  0
    1.4857    9.7269   -1.7611 C   0  0  0  0  0  0  0  0  0  0  0  0
    0.0232    9.6105   -2.1272 C   0  0  0  0  0  0  0  0  0  0  0  0
   -0.7880    8.6298   -1.5398 C   0  0  0  0  0  0  0  0  0  0  0  0
   -2.1317    8.5774   -1.8773 C   0  0  0  0  0  0  0  0  0  0  0  0
   -2.7222    9.4278   -2.7427 N   0  0  0  0  0  0  0  0  0  0  0  0
   -1.9300   10.3698   -3.2940 C   0  0  0  0  0  0  0  0  0  0  0  0
   -0.5746   10.5026   -3.0223 C   0  0  0  0  0  0  0  0  0  0  0  0
    3.0227    8.3444   -3.3114 C   0  0  0  0  0  0  0  0  0  0  0  0
    3.0641    9.3183   -4.3391 C   0  0  0  0  0  0  0  0  0  0  0  0
    3.8015    9.1224   -5.5074 C   0  0  0  0  0  0  0  0  0  0  0  0
    4.5118    7.9457   -5.6851 C   0  0  0  0  0  0  0  0  0  0  0  0
    4.4593    6.9533   -4.7069 C   0  0  0  0  0  0  0  0  0  0  0  0
    3.7169    7.1237   -3.5114 C   0  0  0  0  0  0  0  0  0  0  0  0
    4.2322    2.4173   -2.2980 C   0  0  0  0  0  0  0  0  0  0  0  0
    3.6405    1.2000   -1.9069 C   0  0  0  0  0  0  0  0  0  0  0  0
   -0.3320   -1.2143   -1.2185 H   0  0  0  0  0  0  0  0  0  0  0  0
   -0.0466   -0.0800   -2.5473 H   0  0  0  0  0  0  0  0  0  0  0  0
   -0.4773    0.5073   -0.9307 H   0  0  0  0  0  0  0  0  0  0  0  0
    1.2563   -1.2041    0.7982 H   0  0  0  0  0  0  0  0  0  0  0  0
    1.2981    0.5595    0.9248 H   0  0  0  0  0  0  0  0  0  0  0  0
    2.8021   -0.3463    0.7242 H   0  0  0  0  0  0  0  0  0  0  0  0
    1.7125   -2.3557   -1.4553 H   0  0  0  0  0  0  0  0  0  0  0  0
    3.2913   -1.5888   -1.4446 H   0  0  0  0  0  0  0  0  0  0  0  0
    2.2234   -1.3899   -2.8468 H   0  0  0  0  0  0  0  0  0  0  0  0
    0.4974    2.3478   -1.3363 H   0  0  0  0  0  0  0  0  0  0  0  0
    1.5002    4.3988   -2.0450 H   0  0  0  0  0  0  0  0  0  0  0  0
    5.0628    4.7785   -2.9500 H   0  0  0  0  0  0  0  0  0  0  0  0
    1.9251   10.6303   -2.1978 H   0  0  0  0  0  0  0  0  0  0  0  0
    1.5457    9.8958   -0.6770 H   0  0  0  0  0  0  0  0  0  0  0  0
   -0.3839    7.9162   -0.8284 H   0  0  0  0  0  0  0  0  0  0  0  0
   -2.7879    7.8293   -1.4415 H   0  0  0  0  0  0  0  0  0  0  0  0
   -2.4321   11.0464   -3.9821 H   0  0  0  0  0  0  0  0  0  0  0  0
   -0.0101   11.2966   -3.4984 H   0  0  0  0  0  0  0  0  0  0  0  0
    2.5118   10.2500   -4.2513 H   0  0  0  0  0  0  0  0  0  0  0  0
    3.8143    9.8891   -6.2781 H   0  0  0  0  0  0  0  0  0  0  0  0
    5.0921    7.7891   -6.5910 H   0  0  0  0  0  0  0  0  0  0  0  0
    5.0040    6.0299   -4.8924 H   0  0  0  0  0  0  0  0  0  0  0  0
    5.2862    2.4198   -2.5620 H   0  0  0  0  0  0  0  0  0  0  0  0
    4.2784    0.3206   -1.8728 H   0  0  0  0  0  0  0  0  0  0  0  0
  1  2  1  0  0  0  0
  1 29  1  0  0  0  0
  1 30  1  0  0  0  0
  1 31  1  0  0  0  0
  2  3  1  0  0  0  0
  2  4  1  0  0  0  0
  2  5  1  0  0  0  0
  3 32  1  0  0  0  0
  3 33  1  0  0  0  0
  3 34  1  0  0  0  0
  4 35  1  0  0  0  0
  4 36  1  0  0  0  0
  4 37  1  0  0  0  0
  5  6  1  0  0  0  0
  5 28  2  0  0  0  0
  6  7  2  0  0  0  0
  6 38  1  0  0  0  0
  7  8  1  0  0  0  0
  7 39  1  0  0  0  0
  8  9  1  0  0  0  0
  8 27  2  0  0  0  0
  9 10  1  0  0  0  0
  9 40  1  0  0  0  0
 10 11  1  0  0  0  0
 10 26  2  0  0  0  0
 11 12  2  0  0  0  0
 12 13  1  0  0  0  0
 13 14  1  0  0  0  0
 13 21  2  0  0  0  0
 14 15  1  0  0  0  0
 14 41  1  0  0  0  0
 14 42  1  0  0  0  0
 15 16  1  0  0  0  0
 15 20  2  0  0  0  0
 16 17  2  0  0  0  0
 16 43  1  0  0  0  0
 17 18  1  0  0  0  0
 17 44  1  0  0  0  0
 18 19  2  0  0  0  0
 19 20  1  0  0  0  0
 19 45  1  0  0  0  0
 20 46  1  0  0  0  0
 21 22  1  0  0  0  0
 21 26  1  0  0  0  0
 22 23  2  0  0  0  0
 22 47  1  0  0  0  0
 23 24  1  0  0  0  0
 23 48  1  0  0  0  0
 24 25  2  0  0  0  0
 24 49  1  0  0  0  0
 25 26  1  0  0  0  0
 25 50  1  0  0  0  0
 27 28  1  0  0  0  0
 27 51  1  0  0  0  0
 28 52  1  0  0  0  0
M  END
$$$$
