CHEMBL3128231
 OpenBabel04072215363D

 60 64  0  0  0  0  0  0  0  0999 V2000
   -1.0955   -1.2287   -0.0818 O   0  0  0  0  0  0  0  0  0  0  0  0
   -1.2174   -0.8519    1.0786 C   0  0  0  0  0  0  0  0  0  0  0  0
   -0.4452   -1.2552    2.1614 N   0  0  0  0  0  0  0  0  0  0  0  0
    0.6628   -2.1409    2.0698 C   0  0  0  0  0  0  0  0  0  0  0  0
    1.2843   -2.4410    0.8534 C   0  0  0  0  0  0  0  0  0  0  0  0
    2.3243   -3.3674    0.7810 C   0  0  0  0  0  0  0  0  0  0  0  0
    2.7855   -3.9876    1.9370 C   0  0  0  0  0  0  0  0  0  0  0  0
    2.2277   -3.6648    3.1826 C   0  0  0  0  0  0  0  0  0  0  0  0
    2.7456   -4.3526    4.4322 C   0  0  0  0  0  0  0  0  0  0  0  0
    2.0231   -5.5980    4.6071 N   0  0  0  0  0  0  0  0  0  0  0  0
    2.3546   -6.3861    5.7062 C   0  0  0  0  0  0  0  0  0  0  0  0
    2.8820   -5.8373    6.8247 N   0  0  0  0  0  0  0  0  0  0  0  0
    3.1248   -6.6350    7.8895 C   0  0  0  0  0  0  0  0  0  0  0  0
    2.9133   -7.9584    8.0047 N   0  0  0  0  0  0  0  0  0  0  0  0
    2.3906   -8.4720    6.8773 C   0  0  0  0  0  0  0  0  0  0  0  0
    2.1074   -7.7682    5.7189 C   0  0  0  0  0  0  0  0  0  0  0  0
    1.6133   -8.7406    4.8309 C   0  0  0  0  0  0  0  0  0  0  0  0
    1.5644   -9.9626    5.3672 N   0  0  0  0  0  0  0  0  0  0  0  0
    2.0122   -9.7725    6.6351 N   0  0  0  0  0  0  0  0  0  0  0  0
    2.0797  -10.9269    7.5156 C   0  0  0  0  0  0  0  0  0  0  0  0
    1.8005  -10.6492    8.9911 C   0  0  0  0  0  0  0  0  0  0  0  0
    1.8310  -11.9064    9.8289 C   0  0  0  0  0  0  0  0  0  0  0  0
    3.0406  -12.3570   10.3768 C   0  0  0  0  0  0  0  0  0  0  0  0
    3.0723  -13.4939   11.1854 C   0  0  0  0  0  0  0  0  0  0  0  0
    1.8980  -14.1963   11.4471 C   0  0  0  0  0  0  0  0  0  0  0  0
    0.6938  -13.7696   10.8895 C   0  0  0  0  0  0  0  0  0  0  0  0
    0.6594  -12.6320   10.0798 C   0  0  0  0  0  0  0  0  0  0  0  0
    1.1572   -2.7444    3.2381 C   0  0  0  0  0  0  0  0  0  0  0  0
   -2.3379    0.0908    1.3447 C   0  0  0  0  0  0  0  0  0  0  0  0
   -3.4920   -0.0520    0.5556 C   0  0  0  0  0  0  0  0  0  0  0  0
   -4.5406    0.8619    0.6472 C   0  0  0  0  0  0  0  0  0  0  0  0
   -4.4279    1.9411    1.5303 C   0  0  0  0  0  0  0  0  0  0  0  0
   -5.5121    2.9319    1.5985 N   0  3  0  0  0  0  0  0  0  0  0  0
   -6.4962    2.7643    0.8646 O   0  0  0  0  0  0  0  0  0  0  0  0
   -5.3765    3.8747    2.3925 O   0  5  0  0  0  0  0  0  0  0  0  0
   -3.2802    2.0934    2.3280 C   0  0  0  0  0  0  0  0  0  0  0  0
   -2.2315    1.1637    2.2346 C   0  0  0  0  0  0  0  0  0  0  0  0
   -0.7786   -1.0376    3.0914 H   0  0  0  0  0  0  0  0  0  0  0  0
    0.9834   -1.9645   -0.0739 H   0  0  0  0  0  0  0  0  0  0  0  0
    2.7655   -3.6006   -0.1847 H   0  0  0  0  0  0  0  0  0  0  0  0
    3.5850   -4.7205    1.8579 H   0  0  0  0  0  0  0  0  0  0  0  0
    2.6266   -3.6836    5.2924 H   0  0  0  0  0  0  0  0  0  0  0  0
    3.8206   -4.5448    4.3134 H   0  0  0  0  0  0  0  0  0  0  0  0
    1.9045   -6.1296    3.7542 H   0  0  0  0  0  0  0  0  0  0  0  0
    3.5366   -6.1435    8.7667 H   0  0  0  0  0  0  0  0  0  0  0  0
    1.2899   -8.6072    3.8071 H   0  0  0  0  0  0  0  0  0  0  0  0
    3.0693  -11.3739    7.3698 H   0  0  0  0  0  0  0  0  0  0  0  0
    1.3383  -11.6472    7.1415 H   0  0  0  0  0  0  0  0  0  0  0  0
    0.8295  -10.1516    9.1094 H   0  0  0  0  0  0  0  0  0  0  0  0
    2.5430   -9.9590    9.4057 H   0  0  0  0  0  0  0  0  0  0  0  0
    3.9655  -11.8151   10.1905 H   0  0  0  0  0  0  0  0  0  0  0  0
    4.0123  -13.8261   11.6184 H   0  0  0  0  0  0  0  0  0  0  0  0
    1.9210  -15.0742   12.0874 H   0  0  0  0  0  0  0  0  0  0  0  0
   -0.2216  -14.3195   11.0933 H   0  0  0  0  0  0  0  0  0  0  0  0
   -0.2910  -12.3105    9.6594 H   0  0  0  0  0  0  0  0  0  0  0  0
    0.6990   -2.5348    4.2016 H   0  0  0  0  0  0  0  0  0  0  0  0
   -3.5629   -0.8720   -0.1593 H   0  0  0  0  0  0  0  0  0  0  0  0
   -5.4122    0.7346    0.0081 H   0  0  0  0  0  0  0  0  0  0  0  0
   -3.1767    2.9434    3.0009 H   0  0  0  0  0  0  0  0  0  0  0  0
   -1.3259    1.3252    2.8136 H   0  0  0  0  0  0  0  0  0  0  0  0
  1  2  2  0  0  0  0
  2  3  1  0  0  0  0
  2 29  1  0  0  0  0
  3  4  1  0  0  0  0
  3 38  1  0  0  0  0
  4  5  1  0  0  0  0
  4 28  2  0  0  0  0
  5  6  2  0  0  0  0
  5 39  1  0  0  0  0
  6  7  1  0  0  0  0
  6 40  1  0  0  0  0
  7  8  2  0  0  0  0
  7 41  1  0  0  0  0
  8  9  1  0  0  0  0
  8 28  1  0  0  0  0
  9 10  1  0  0  0  0
  9 42  1  0  0  0  0
  9 43  1  0  0  0  0
 10 11  1  0  0  0  0
 10 44  1  0  0  0  0
 11 12  1  0  0  0  0
 11 16  2  0  0  0  0
 12 13  2  0  0  0  0
 13 14  1  0  0  0  0
 13 45  1  0  0  0  0
 14 15  2  0  0  0  0
 15 16  1  0  0  0  0
 15 19  1  0  0  0  0
 16 17  1  0  0  0  0
 17 18  2  0  0  0  0
 17 46  1  0  0  0  0
 18 19  1  0  0  0  0
 19 20  1  0  0  0  0
 20 21  1  0  0  0  0
 20 47  1  0  0  0  0
 20 48  1  0  0  0  0
 21 22  1  0  0  0  0
 21 49  1  0  0  0  0
 21 50  1  0  0  0  0
 22 23  1  0  0  0  0
 22 27  2  0  0  0  0
 23 24  2  0  0  0  0
 23 51  1  0  0  0  0
 24 25  1  0  0  0  0
 24 52  1  0  0  0  0
 25 26  2  0  0  0  0
 25 53  1  0  0  0  0
 26 27  1  0  0  0  0
 26 54  1  0  0  0  0
 27 55  1  0  0  0  0
 28 56  1  0  0  0  0
 29 30  1  0  0  0  0
 29 37  2  0  0  0  0
 30 31  2  0  0  0  0
 30 57  1  0  0  0  0
 31 32  1  0  0  0  0
 31 58  1  0  0  0  0
 32 33  1  0  0  0  0
 32 36  2  0  0  0  0
 33 34  2  0  0  0  0
 33 35  1  0  0  0  0
 36 37  1  0  0  0  0
 36 59  1  0  0  0  0
 37 60  1  0  0  0  0
M  CHG  2  33   1  35  -1
M  END
$$$$
