CHEMBL304760
 OpenBabel04072215363D

 39 42  0  0  0  0  0  0  0  0999 V2000
    0.9030    0.4465    1.6977 C   0  0  0  0  0  0  0  0  0  0  0  0
    0.4032   -0.8063    1.3449 C   0  0  0  0  0  0  0  0  0  0  0  0
   -0.8217   -0.9106    0.6841 C   0  0  0  0  0  0  0  0  0  0  0  0
   -1.5778    0.2359    0.4265 C   0  0  0  0  0  0  0  0  0  0  0  0
   -2.8076    0.2402   -0.1899 O   0  0  0  0  0  0  0  0  0  0  0  0
   -3.6662   -0.8235   -0.0383 C   0  0  0  0  0  0  0  0  0  0  0  0
   -3.8079   -1.5796    1.1267 C   0  0  0  0  0  0  0  0  0  0  0  0
   -4.7166   -2.6481    1.1748 C   0  0  0  0  0  0  0  0  0  0  0  0
   -5.5116   -2.9632    0.0719 C   0  0  0  0  0  0  0  0  0  0  0  0
   -6.5209   -3.9430    0.0754 N   0  0  0  0  0  0  0  0  0  0  0  0
   -6.8351   -4.9990    0.9711 C   0  0  0  0  0  0  0  0  0  0  0  0
   -5.9289   -5.4305    1.8607 N   0  0  0  0  0  0  0  0  0  0  0  0
   -6.3015   -6.4604    2.6357 C   0  0  0  0  0  0  0  0  0  0  0  0
   -7.4843   -7.0834    2.6195 N   0  0  0  0  0  0  0  0  0  0  0  0
   -8.3871   -6.6340    1.7440 C   0  0  0  0  0  0  0  0  0  0  0  0
   -9.6384   -7.2421    1.6908 C   0  0  0  0  0  0  0  0  0  0  0  0
  -10.6298   -6.8270    0.7969 C   0  0  0  0  0  0  0  0  0  0  0  0
  -10.3798   -5.7684   -0.0632 C   0  0  0  0  0  0  0  0  0  0  0  0
   -9.1394   -5.1372   -0.0220 C   0  0  0  0  0  0  0  0  0  0  0  0
   -8.1252   -5.5696    0.8745 C   0  0  0  0  0  0  0  0  0  0  0  0
   -5.4186   -2.1332   -1.0595 C   0  0  0  0  0  0  0  0  0  0  0  0
   -4.5027   -1.0808   -1.1199 C   0  0  0  0  0  0  0  0  0  0  0  0
   -1.0539    1.4918    0.7436 C   0  0  0  0  0  0  0  0  0  0  0  0
    0.1842    1.5977    1.3793 C   0  0  0  0  0  0  0  0  0  0  0  0
    1.8575    0.5253    2.2115 H   0  0  0  0  0  0  0  0  0  0  0  0
    0.9670   -1.7047    1.5822 H   0  0  0  0  0  0  0  0  0  0  0  0
   -1.1771   -1.8933    0.3882 H   0  0  0  0  0  0  0  0  0  0  0  0
   -3.2213   -1.3525    2.0125 H   0  0  0  0  0  0  0  0  0  0  0  0
   -4.7914   -3.2220    2.0942 H   0  0  0  0  0  0  0  0  0  0  0  0
   -6.7480   -4.2356   -0.8689 H   0  0  0  0  0  0  0  0  0  0  0  0
   -5.5651   -6.8300    3.3451 H   0  0  0  0  0  0  0  0  0  0  0  0
   -9.8502   -8.0674    2.3682 H   0  0  0  0  0  0  0  0  0  0  0  0
  -11.5935   -7.3271    0.7815 H   0  0  0  0  0  0  0  0  0  0  0  0
  -11.1432   -5.4280   -0.7583 H   0  0  0  0  0  0  0  0  0  0  0  0
   -8.9712   -4.2907   -0.6836 H   0  0  0  0  0  0  0  0  0  0  0  0
   -6.0775   -2.2921   -1.9096 H   0  0  0  0  0  0  0  0  0  0  0  0
   -4.4534   -0.4569   -2.0083 H   0  0  0  0  0  0  0  0  0  0  0  0
   -1.6135    2.3908    0.4979 H   0  0  0  0  0  0  0  0  0  0  0  0
    0.5847    2.5765    1.6297 H   0  0  0  0  0  0  0  0  0  0  0  0
  1  2  1  0  0  0  0
  1 24  2  0  0  0  0
  1 25  1  0  0  0  0
  2  3  2  0  0  0  0
  2 26  1  0  0  0  0
  3  4  1  0  0  0  0
  3 27  1  0  0  0  0
  4  5  1  0  0  0  0
  4 23  2  0  0  0  0
  5  6  1  0  0  0  0
  6  7  1  0  0  0  0
  6 22  2  0  0  0  0
  7  8  2  0  0  0  0
  7 28  1  0  0  0  0
  8  9  1  0  0  0  0
  8 29  1  0  0  0  0
  9 10  1  0  0  0  0
  9 21  2  0  0  0  0
 10 11  1  0  0  0  0
 10 30  1  0  0  0  0
 11 12  1  0  0  0  0
 11 20  2  0  0  0  0
 12 13  2  0  0  0  0
 13 14  1  0  0  0  0
 13 31  1  0  0  0  0
 14 15  2  0  0  0  0
 15 16  1  0  0  0  0
 15 20  1  0  0  0  0
 16 17  2  0  0  0  0
 16 32  1  0  0  0  0
 17 18  1  0  0  0  0
 17 33  1  0  0  0  0
 18 19  2  0  0  0  0
 18 34  1  0  0  0  0
 19 20  1  0  0  0  0
 19 35  1  0  0  0  0
 21 22  1  0  0  0  0
 21 36  1  0  0  0  0
 22 37  1  0  0  0  0
 23 24  1  0  0  0  0
 23 38  1  0  0  0  0
 24 39  1  0  0  0  0
M  END
$$$$
