CHEMBL45389
 OpenBabel04072215383D

 39 42  0  0  0  0  0  0  0  0999 V2000
   -1.8830   -1.1552    2.4579 Cl  0  0  0  0  0  0  0  0  0  0  0  0
   -0.3250   -0.7341    1.8564 C   0  0  0  0  0  0  0  0  0  0  0  0
    0.1552    0.5614    2.0497 C   0  0  0  0  0  0  0  0  0  0  0  0
    1.4133    0.9019    1.5696 C   0  0  0  0  0  0  0  0  0  0  0  0
    2.1901   -0.0571    0.9148 C   0  0  0  0  0  0  0  0  0  0  0  0
    1.7251   -1.3697    0.7323 C   0  0  0  0  0  0  0  0  0  0  0  0
    2.5132   -2.3549    0.1007 N   0  0  0  0  0  0  0  0  0  0  0  0
    3.9082   -2.3781    0.0592 C   0  0  0  0  0  0  0  0  0  0  0  0
    4.5095   -2.9463   -0.9907 N   0  0  0  0  0  0  0  0  0  0  0  0
    5.8592   -2.8943   -1.0174 C   0  0  0  0  0  0  0  0  0  0  0  0
    6.6316   -2.3035   -0.0418 C   0  0  0  0  0  0  0  0  0  0  0  0
    5.9275   -1.8105    1.0305 C   0  0  0  0  0  0  0  0  0  0  0  0
    6.5948   -1.2630    2.1578 N   0  0  0  0  0  0  0  0  0  0  0  0
    7.7742   -0.5459    2.1203 C   0  0  0  0  0  0  0  0  0  0  0  0
    7.9255   -0.0166    3.3764 C   0  0  0  0  0  0  0  0  0  0  0  0
    6.9415   -0.4620    4.2110 N   0  0  0  0  0  0  0  0  0  0  0  0
    6.1686   -1.2684    3.4924 C   0  0  0  0  0  0  0  0  0  0  0  0
    5.0775   -2.0848    4.0715 C   0  0  0  0  0  0  0  0  0  0  0  0
    4.3917   -1.6244    5.2047 C   0  0  0  0  0  0  0  0  0  0  0  0
    3.3347   -2.3594    5.7555 C   0  0  0  0  0  0  0  0  0  0  0  0
    2.9411   -3.5639    5.1763 C   0  0  0  0  0  0  0  0  0  0  0  0
    3.6344   -4.0573    4.0782 C   0  0  0  0  0  0  0  0  0  0  0  0
    4.7152   -3.3411    3.5582 C   0  0  0  0  0  0  0  0  0  0  0  0
    4.5867   -1.8376    1.0756 N   0  0  0  0  0  0  0  0  0  0  0  0
    0.4451   -1.6937    1.1911 C   0  0  0  0  0  0  0  0  0  0  0  0
   -0.4405    1.3017    2.5733 H   0  0  0  0  0  0  0  0  0  0  0  0
    1.8067    1.9048    1.7148 H   0  0  0  0  0  0  0  0  0  0  0  0
    3.1704    0.2393    0.5563 H   0  0  0  0  0  0  0  0  0  0  0  0
    2.1393   -2.7042   -0.7708 H   0  0  0  0  0  0  0  0  0  0  0  0
    6.3187   -3.3741   -1.8779 H   0  0  0  0  0  0  0  0  0  0  0  0
    7.7104   -2.3081   -0.1027 H   0  0  0  0  0  0  0  0  0  0  0  0
    8.3326   -0.3863    1.2104 H   0  0  0  0  0  0  0  0  0  0  0  0
    8.6900    0.6670    3.7234 H   0  0  0  0  0  0  0  0  0  0  0  0
    4.6779   -0.6807    5.6652 H   0  0  0  0  0  0  0  0  0  0  0  0
    2.8130   -1.9849    6.6316 H   0  0  0  0  0  0  0  0  0  0  0  0
    2.1009   -4.1199    5.5828 H   0  0  0  0  0  0  0  0  0  0  0  0
    3.3360   -4.9939    3.6151 H   0  0  0  0  0  0  0  0  0  0  0  0
    5.2475   -3.7788    2.7196 H   0  0  0  0  0  0  0  0  0  0  0  0
    0.0635   -2.7025    1.0721 H   0  0  0  0  0  0  0  0  0  0  0  0
  1  2  1  0  0  0  0
  2  3  1  0  0  0  0
  2 25  2  0  0  0  0
  3  4  2  0  0  0  0
  3 26  1  0  0  0  0
  4  5  1  0  0  0  0
  4 27  1  0  0  0  0
  5  6  2  0  0  0  0
  5 28  1  0  0  0  0
  6  7  1  0  0  0  0
  6 25  1  0  0  0  0
  7  8  1  0  0  0  0
  7 29  1  0  0  0  0
  8  9  1  0  0  0  0
  8 24  2  0  0  0  0
  9 10  2  0  0  0  0
 10 11  1  0  0  0  0
 10 30  1  0  0  0  0
 11 12  2  0  0  0  0
 11 31  1  0  0  0  0
 12 13  1  0  0  0  0
 12 24  1  0  0  0  0
 13 14  1  0  0  0  0
 13 17  1  0  0  0  0
 14 15  2  0  0  0  0
 14 32  1  0  0  0  0
 15 16  1  0  0  0  0
 15 33  1  0  0  0  0
 16 17  2  0  0  0  0
 17 18  1  0  0  0  0
 18 19  1  0  0  0  0
 18 23  2  0  0  0  0
 19 20  2  0  0  0  0
 19 34  1  0  0  0  0
 20 21  1  0  0  0  0
 20 35  1  0  0  0  0
 21 22  2  0  0  0  0
 21 36  1  0  0  0  0
 22 23  1  0  0  0  0
 22 37  1  0  0  0  0
 23 38  1  0  0  0  0
 25 39  1  0  0  0  0
M  END
$$$$
