CHEMBL3676379
 OpenBabel04072215373D

 65 67  0  0  1  0  0  0  0  0999 V2000
    2.4727    2.3872   -0.7834 C   0  0  0  0  0  0  0  0  0  0  0  0
    3.1219    1.2878   -0.3796 C   0  0  0  0  0  0  0  0  0  0  0  0
    3.9908    1.3483    0.8243 C   0  0  0  0  0  0  0  0  0  0  0  0
    4.2184    2.4070    1.3981 O   0  0  0  0  0  0  0  0  0  0  0  0
    4.4262    0.0975    1.2285 N   0  0  0  0  0  0  0  0  0  0  0  0
    5.1519   -0.0658    2.4317 C   0  0  0  0  0  0  0  0  0  0  0  0
    6.2412    0.7785    2.6252 C   0  0  0  0  0  0  0  0  0  0  0  0
    6.9492    0.8156    3.8404 C   0  0  0  0  0  0  0  0  0  0  0  0
    8.0604    1.6433    4.0748 C   0  0  0  0  0  0  0  0  0  0  0  0
    8.4904    2.5112    3.0476 N   0  0  0  0  0  0  0  0  0  0  0  0
    9.7878    2.9626    2.7473 C   0  0  0  0  0  0  0  0  0  0  0  0
   10.9270    2.2136    3.0631 C   0  0  0  0  0  0  0  0  0  0  0  0
   12.1888    2.6018    2.6005 C   0  0  0  0  0  0  0  0  0  0  0  0
   12.3205    3.7521    1.8243 C   0  0  0  0  0  0  0  0  0  0  0  0
   14.0105    4.2147    1.1162 Br  0  0  0  0  0  0  0  0  0  0  0  0
   11.2112    4.5386    1.5342 C   0  0  0  0  0  0  0  0  0  0  0  0
    9.9605    4.1320    1.9895 C   0  0  0  0  0  0  0  0  0  0  0  0
    8.8861    4.8745    1.6751 F   0  0  0  0  0  0  0  0  0  0  0  0
    8.7214    1.6270    5.2435 N   0  0  0  0  0  0  0  0  0  0  0  0
    8.2320    0.8176    6.1883 C   0  0  0  0  0  0  0  0  0  0  0  0
    7.1801   -0.0070    6.0686 N   0  0  0  0  0  0  0  0  0  0  0  0
    6.5538   -0.0181    4.8879 C   0  0  0  0  0  0  0  0  0  0  0  0
    5.4841   -0.8878    4.6692 C   0  0  0  0  0  0  0  0  0  0  0  0
    4.7983   -0.9693    3.4442 C   0  0  0  0  0  0  0  0  0  0  0  0
    3.7629   -1.8719    3.4545 O   0  0  0  0  0  0  0  0  0  0  0  0
    3.4824   -2.5289    2.2215 C   0  0  0  0  0  0  0  0  0  0  0  0
    2.9310   -3.9387    2.4420 C   0  0  0  0  0  0  0  0  0  0  0  0
    2.7309   -4.6363    1.1809 N   0  0  0  0  0  0  0  0  0  0  0  0
    3.7971   -5.1697    0.4742 C   0  0  0  0  0  0  0  0  0  0  0  0
    4.9298   -5.2531    0.9399 O   0  0  0  0  0  0  0  0  0  0  0  0
    3.4377   -5.6841   -0.9381 C   0  0  3  0  0  0  0  0  0  0  0  0
    2.9173   -7.1271   -0.7199 C   0  0  0  0  0  0  0  0  0  0  0  0
    2.8125   -7.8449   -1.9552 O   0  0  0  0  0  0  0  0  0  0  0  0
    2.2082   -9.1199   -1.7716 C   0  0  0  0  0  0  0  0  0  0  0  0
    2.4699   -4.7218   -1.5919 N   0  0  0  0  0  0  0  0  0  0  0  0
    3.1139   -3.4160   -1.8155 C   0  0  0  0  0  0  0  0  0  0  0  0
    2.0416   -5.2295   -2.9058 C   0  0  0  0  0  0  0  0  0  0  0  0
    1.8364    2.3688   -1.6610 H   0  0  0  0  0  0  0  0  0  0  0  0
    2.5563    3.3282   -0.2445 H   0  0  0  0  0  0  0  0  0  0  0  0
    3.0300    0.3560   -0.9205 H   0  0  0  0  0  0  0  0  0  0  0  0
    3.9838   -0.6999    0.8094 H   0  0  0  0  0  0  0  0  0  0  0  0
    6.5621    1.4151    1.8020 H   0  0  0  0  0  0  0  0  0  0  0  0
    7.7579    3.1583    2.7649 H   0  0  0  0  0  0  0  0  0  0  0  0
   10.8369    1.2950    3.6380 H   0  0  0  0  0  0  0  0  0  0  0  0
   13.0528    1.9842    2.8332 H   0  0  0  0  0  0  0  0  0  0  0  0
   11.2936    5.4438    0.9424 H   0  0  0  0  0  0  0  0  0  0  0  0
    8.7385    0.8297    7.1480 H   0  0  0  0  0  0  0  0  0  0  0  0
    5.1699   -1.5254    5.4938 H   0  0  0  0  0  0  0  0  0  0  0  0
    4.3878   -2.5996    1.6067 H   0  0  0  0  0  0  0  0  0  0  0  0
    2.7152   -1.9518    1.6907 H   0  0  0  0  0  0  0  0  0  0  0  0
    1.9704   -3.9015    2.9658 H   0  0  0  0  0  0  0  0  0  0  0  0
    3.6211   -4.5181    3.0653 H   0  0  0  0  0  0  0  0  0  0  0  0
    1.9120   -4.4252    0.6138 H   0  0  0  0  0  0  0  0  0  0  0  0
    4.3581   -5.7197   -1.5363 H   0  0  0  0  0  0  0  0  0  0  0  0
    1.9446   -7.1058   -0.2130 H   0  0  0  0  0  0  0  0  0  0  0  0
    3.6179   -7.6768   -0.0776 H   0  0  0  0  0  0  0  0  0  0  0  0
    2.0237   -9.5591   -2.7560 H   0  0  0  0  0  0  0  0  0  0  0  0
    1.2488   -9.0278   -1.2517 H   0  0  0  0  0  0  0  0  0  0  0  0
    2.8786   -9.7777   -1.2118 H   0  0  0  0  0  0  0  0  0  0  0  0
    3.4189   -2.9463   -0.8759 H   0  0  0  0  0  0  0  0  0  0  0  0
    2.4018   -2.7201   -2.2758 H   0  0  0  0  0  0  0  0  0  0  0  0
    3.9934   -3.4898   -2.4648 H   0  0  0  0  0  0  0  0  0  0  0  0
    1.4119   -6.1169   -2.8115 H   0  0  0  0  0  0  0  0  0  0  0  0
    2.8953   -5.4567   -3.5586 H   0  0  0  0  0  0  0  0  0  0  0  0
    1.4176   -4.4883   -3.4197 H   0  0  0  0  0  0  0  0  0  0  0  0
  1  2  2  0  0  0  0
  1 38  1  0  0  0  0
  1 39  1  0  0  0  0
  2  3  1  0  0  0  0
  2 40  1  0  0  0  0
  3  4  2  0  0  0  0
  3  5  1  0  0  0  0
  5  6  1  0  0  0  0
  5 41  1  0  0  0  0
  6  7  1  0  0  0  0
  6 24  2  0  0  0  0
  7  8  2  0  0  0  0
  7 42  1  0  0  0  0
  8  9  1  0  0  0  0
  8 22  1  0  0  0  0
  9 10  1  0  0  0  0
  9 19  2  0  0  0  0
 10 11  1  0  0  0  0
 10 43  1  0  0  0  0
 11 12  1  0  0  0  0
 11 17  2  0  0  0  0
 12 13  2  0  0  0  0
 12 44  1  0  0  0  0
 13 14  1  0  0  0  0
 13 45  1  0  0  0  0
 14 15  1  0  0  0  0
 14 16  2  0  0  0  0
 16 17  1  0  0  0  0
 16 46  1  0  0  0  0
 17 18  1  0  0  0  0
 19 20  1  0  0  0  0
 20 21  2  0  0  0  0
 20 47  1  0  0  0  0
 21 22  1  0  0  0  0
 22 23  2  0  0  0  0
 23 24  1  0  0  0  0
 23 48  1  0  0  0  0
 24 25  1  0  0  0  0
 25 26  1  0  0  0  0
 26 27  1  0  0  0  0
 26 49  1  0  0  0  0
 26 50  1  0  0  0  0
 27 28  1  0  0  0  0
 27 51  1  0  0  0  0
 27 52  1  0  0  0  0
 28 29  1  0  0  0  0
 28 53  1  0  0  0  0
 29 30  2  0  0  0  0
 29 31  1  0  0  0  0
 31 32  1  0  0  0  0
 31 35  1  0  0  0  0
 31 54  1  0  0  0  0
 32 33  1  0  0  0  0
 32 55  1  0  0  0  0
 32 56  1  0  0  0  0
 33 34  1  0  0  0  0
 34 57  1  0  0  0  0
 34 58  1  0  0  0  0
 34 59  1  0  0  0  0
 35 36  1  0  0  0  0
 35 37  1  0  0  0  0
 36 60  1  0  0  0  0
 36 61  1  0  0  0  0
 36 62  1  0  0  0  0
 37 63  1  0  0  0  0
 37 64  1  0  0  0  0
 37 65  1  0  0  0  0
M  END
$$$$
