CHEMBL3919644
 OpenBabel04072215373D

 57 60  0  0  0  0  0  0  0  0999 V2000
    2.7034   -4.2787    2.0482 C   0  0  0  0  0  0  0  0  0  0  0  0
    2.9702   -2.8945    1.8430 O   0  0  0  0  0  0  0  0  0  0  0  0
    3.4153   -2.5146    0.6024 C   0  0  0  0  0  0  0  0  0  0  0  0
    3.1251   -3.2541   -0.5559 C   0  0  0  0  0  0  0  0  0  0  0  0
    3.5271   -2.8331   -1.8333 C   0  0  0  0  0  0  0  0  0  0  0  0
    3.2541   -3.6564   -3.0177 C   0  0  0  0  0  0  0  0  0  0  0  0
    2.9418   -3.2801   -4.2696 C   0  0  0  0  0  0  0  0  0  0  0  0
    2.6397   -2.0315   -4.8758 C   0  0  0  0  0  0  0  0  0  0  0  0
    1.3262   -1.6191   -4.9534 C   0  0  0  0  0  0  0  0  0  0  0  0
    1.1544   -1.2065   -6.2556 N   0  0  0  0  0  0  0  0  0  0  0  0
   -0.1286   -1.2784   -6.9340 C   0  0  0  0  0  0  0  0  0  0  0  0
   -1.2106   -0.3763   -6.3400 C   0  0  0  0  0  0  0  0  0  0  0  0
   -0.8221    1.0993   -6.3942 C   0  0  0  0  0  0  0  0  0  0  0  0
   -1.9275    1.9132   -5.9056 N   0  0  0  0  0  0  0  0  0  0  0  0
    2.3817   -1.0191   -6.8634 C   0  0  0  0  0  0  0  0  0  0  0  0
    2.7221   -0.6631   -8.1786 C   0  0  0  0  0  0  0  0  0  0  0  0
    4.0763   -0.5790   -8.5121 C   0  0  0  0  0  0  0  0  0  0  0  0
    5.0630   -0.8279   -7.5645 C   0  0  0  0  0  0  0  0  0  0  0  0
    4.7189   -1.2678   -6.2805 C   0  0  0  0  0  0  0  0  0  0  0  0
    3.3574   -1.3920   -5.9281 C   0  0  0  0  0  0  0  0  0  0  0  0
    2.6261   -4.5101   -5.0540 C   0  0  0  0  0  0  0  0  0  0  0  0
    2.1766   -4.5725   -6.1814 O   0  0  0  0  0  0  0  0  0  0  0  0
    2.8330   -5.5611   -4.2431 N   0  0  0  0  0  0  0  0  0  0  0  0
    3.1036   -5.1434   -2.9989 C   0  0  0  0  0  0  0  0  0  0  0  0
    3.1433   -5.8652   -2.0205 O   0  0  0  0  0  0  0  0  0  0  0  0
    4.2193   -1.6249   -1.9374 C   0  0  0  0  0  0  0  0  0  0  0  0
    4.4791   -0.8427   -0.8036 C   0  0  0  0  0  0  0  0  0  0  0  0
    5.1487    0.3573   -0.8773 O   0  0  0  0  0  0  0  0  0  0  0  0
    4.9092    1.1137   -2.0612 C   0  0  0  0  0  0  0  0  0  0  0  0
    4.1078   -1.2982    0.4786 C   0  0  0  0  0  0  0  0  0  0  0  0
    4.4068   -0.4432    1.5141 O   0  0  0  0  0  0  0  0  0  0  0  0
    4.7460   -1.0397    2.7596 C   0  0  0  0  0  0  0  0  0  0  0  0
    2.4712   -4.4182    3.1086 H   0  0  0  0  0  0  0  0  0  0  0  0
    3.5814   -4.8898    1.8127 H   0  0  0  0  0  0  0  0  0  0  0  0
    1.8264   -4.6075    1.4826 H   0  0  0  0  0  0  0  0  0  0  0  0
    2.5515   -4.1711   -0.4683 H   0  0  0  0  0  0  0  0  0  0  0  0
    0.4675   -1.8858   -4.3520 H   0  0  0  0  0  0  0  0  0  0  0  0
   -0.4456   -2.3295   -6.8644 H   0  0  0  0  0  0  0  0  0  0  0  0
    0.0101   -1.0557   -7.9910 H   0  0  0  0  0  0  0  0  0  0  0  0
   -1.4224   -0.6740   -5.3021 H   0  0  0  0  0  0  0  0  0  0  0  0
   -2.1355   -0.5479   -6.9056 H   0  0  0  0  0  0  0  0  0  0  0  0
   -0.5749    1.3844   -7.4241 H   0  0  0  0  0  0  0  0  0  0  0  0
    0.0583    1.2806   -5.7725 H   0  0  0  0  0  0  0  0  0  0  0  0
   -2.7322    1.8040   -6.5186 H   0  0  0  0  0  0  0  0  0  0  0  0
   -1.6612    2.8910   -5.9451 H   0  0  0  0  0  0  0  0  0  0  0  0
    1.9656   -0.4944   -8.9377 H   0  0  0  0  0  0  0  0  0  0  0  0
    4.3589   -0.3280   -9.5323 H   0  0  0  0  0  0  0  0  0  0  0  0
    6.1099   -0.7238   -7.8381 H   0  0  0  0  0  0  0  0  0  0  0  0
    5.5012   -1.5125   -5.5682 H   0  0  0  0  0  0  0  0  0  0  0  0
    2.5589   -6.4963   -4.4847 H   0  0  0  0  0  0  0  0  0  0  0  0
    4.5765   -1.2965   -2.9080 H   0  0  0  0  0  0  0  0  0  0  0  0
    5.2279    2.1433   -1.8727 H   0  0  0  0  0  0  0  0  0  0  0  0
    3.8452    1.1351   -2.3227 H   0  0  0  0  0  0  0  0  0  0  0  0
    5.5081    0.7289   -2.8928 H   0  0  0  0  0  0  0  0  0  0  0  0
    5.3171   -0.3039    3.3348 H   0  0  0  0  0  0  0  0  0  0  0  0
    5.3779   -1.9265    2.6388 H   0  0  0  0  0  0  0  0  0  0  0  0
    3.8465   -1.2641    3.3401 H   0  0  0  0  0  0  0  0  0  0  0  0
  1  2  1  0  0  0  0
  1 33  1  0  0  0  0
  1 34  1  0  0  0  0
  1 35  1  0  0  0  0
  2  3  1  0  0  0  0
  3  4  1  0  0  0  0
  3 30  2  0  0  0  0
  4  5  2  0  0  0  0
  4 36  1  0  0  0  0
  5  6  1  0  0  0  0
  5 26  1  0  0  0  0
  6  7  2  0  0  0  0
  6 24  1  0  0  0  0
  7  8  1  0  0  0  0
  7 21  1  0  0  0  0
  8  9  2  0  0  0  0
  8 20  1  0  0  0  0
  9 10  1  0  0  0  0
  9 37  1  0  0  0  0
 10 11  1  0  0  0  0
 10 15  1  0  0  0  0
 11 12  1  0  0  0  0
 11 38  1  0  0  0  0
 11 39  1  0  0  0  0
 12 13  1  0  0  0  0
 12 40  1  0  0  0  0
 12 41  1  0  0  0  0
 13 14  1  0  0  0  0
 13 42  1  0  0  0  0
 13 43  1  0  0  0  0
 14 44  1  0  0  0  0
 14 45  1  0  0  0  0
 15 16  1  0  0  0  0
 15 20  2  0  0  0  0
 16 17  2  0  0  0  0
 16 46  1  0  0  0  0
 17 18  1  0  0  0  0
 17 47  1  0  0  0  0
 18 19  2  0  0  0  0
 18 48  1  0  0  0  0
 19 20  1  0  0  0  0
 19 49  1  0  0  0  0
 21 22  2  0  0  0  0
 21 23  1  0  0  0  0
 23 24  1  0  0  0  0
 23 50  1  0  0  0  0
 24 25  2  0  0  0  0
 26 27  2  0  0  0  0
 26 51  1  0  0  0  0
 27 28  1  0  0  0  0
 27 30  1  0  0  0  0
 28 29  1  0  0  0  0
 29 52  1  0  0  0  0
 29 53  1  0  0  0  0
 29 54  1  0  0  0  0
 30 31  1  0  0  0  0
 31 32  1  0  0  0  0
 32 55  1  0  0  0  0
 32 56  1  0  0  0  0
 32 57  1  0  0  0  0
M  END
$$$$
