CHEMBL3133754
 OpenBabel04072215363D

 74 78  0  0  0  0  0  0  0  0999 V2000
    2.6500    1.5841    1.3662 C   0  0  0  0  0  0  0  0  0  0  0  0
    2.5262    0.4627    0.4873 O   0  0  0  0  0  0  0  0  0  0  0  0
    3.1285   -0.6838    0.9417 C   0  0  0  0  0  0  0  0  0  0  0  0
    4.2702   -0.6436    1.7533 C   0  0  0  0  0  0  0  0  0  0  0  0
    4.7997   -1.7770    2.3403 C   0  0  0  0  0  0  0  0  0  0  0  0
    5.8416   -1.6144    3.1567 N   0  0  0  0  0  0  0  0  0  0  0  0
    6.3157   -2.7112    3.7448 C   0  0  0  0  0  0  0  0  0  0  0  0
    5.8592   -3.9481    3.5646 N   0  0  0  0  0  0  0  0  0  0  0  0
    4.8152   -4.1079    2.7246 C   0  0  0  0  0  0  0  0  0  0  0  0
    4.3296   -5.4263    2.5113 N   0  0  0  0  0  0  0  0  0  0  0  0
    5.0404   -6.5924    2.8912 C   0  0  0  0  0  0  0  0  0  0  0  0
    4.3612   -7.6752    3.4515 C   0  0  0  0  0  0  0  0  0  0  0  0
    5.0660   -8.7941    3.8919 C   0  0  0  0  0  0  0  0  0  0  0  0
    6.4496   -8.8619    3.7213 C   0  0  0  0  0  0  0  0  0  0  0  0
    7.1362   -7.8420    3.0606 C   0  0  0  0  0  0  0  0  0  0  0  0
    8.5275   -7.8975    2.8017 N   0  0  0  0  0  0  0  0  0  0  0  0
    9.2570   -9.0695    2.7373 C   0  0  0  0  0  0  0  0  0  0  0  0
    8.7652  -10.1925    2.7478 O   0  0  0  0  0  0  0  0  0  0  0  0
   10.6214   -8.8286    2.6894 N   0  0  0  0  0  0  0  0  0  0  0  0
   11.5464   -9.8972    2.6153 C   0  0  0  0  0  0  0  0  0  0  0  0
   12.6819   -9.8606    3.4242 C   0  0  0  0  0  0  0  0  0  0  0  0
   13.5662  -10.9416    3.4304 C   0  0  0  0  0  0  0  0  0  0  0  0
   13.3465  -12.0385    2.5934 C   0  0  0  0  0  0  0  0  0  0  0  0
   12.2340  -12.0692    1.7475 C   0  0  0  0  0  0  0  0  0  0  0  0
   11.9893  -13.2296    0.8285 C   0  0  0  0  0  0  0  0  0  0  0  0
   11.3364  -10.9932    1.7692 C   0  0  0  0  0  0  0  0  0  0  0  0
    6.4274   -6.7065    2.6617 C   0  0  0  0  0  0  0  0  0  0  0  0
    4.2066   -3.0167    2.0805 C   0  0  0  0  0  0  0  0  0  0  0  0
    3.0974   -3.0795    1.1958 C   0  0  0  0  0  0  0  0  0  0  0  0
    2.5708   -1.9195    0.6145 C   0  0  0  0  0  0  0  0  0  0  0  0
    1.4737   -2.1270   -0.1761 O   0  0  0  0  0  0  0  0  0  0  0  0
    1.4106   -1.3647   -1.3880 C   0  0  0  0  0  0  0  0  0  0  0  0
    0.8092   -2.2550   -2.4856 C   0  0  0  0  0  0  0  0  0  0  0  0
    1.7472   -3.4294   -2.8038 C   0  0  0  0  0  0  0  0  0  0  0  0
    1.2996   -4.3063   -3.9005 N   0  0  0  0  0  0  0  0  0  0  0  0
    0.0459   -5.0431   -3.6215 C   0  0  0  0  0  0  0  0  0  0  0  0
    0.1817   -6.2093   -2.6238 C   0  0  0  0  0  0  0  0  0  0  0  0
    1.2316   -7.1142   -2.9886 O   0  0  0  0  0  0  0  0  0  0  0  0
    2.4725   -6.4170   -3.1449 C   0  0  0  0  0  0  0  0  0  0  0  0
    2.3461   -5.3147   -4.2115 C   0  0  0  0  0  0  0  0  0  0  0  0
    1.8443    2.2860    1.1377 H   0  0  0  0  0  0  0  0  0  0  0  0
    3.6039    2.0953    1.1983 H   0  0  0  0  0  0  0  0  0  0  0  0
    2.5464    1.2963    2.4200 H   0  0  0  0  0  0  0  0  0  0  0  0
    4.7701    0.2966    1.9640 H   0  0  0  0  0  0  0  0  0  0  0  0
    7.1442   -2.5898    4.4342 H   0  0  0  0  0  0  0  0  0  0  0  0
    3.3539   -5.4708    2.7826 H   0  0  0  0  0  0  0  0  0  0  0  0
    3.2839   -7.6510    3.5910 H   0  0  0  0  0  0  0  0  0  0  0  0
    4.5477   -9.6150    4.3798 H   0  0  0  0  0  0  0  0  0  0  0  0
    6.9713   -9.7280    4.1176 H   0  0  0  0  0  0  0  0  0  0  0  0
    8.9416   -7.0998    2.3424 H   0  0  0  0  0  0  0  0  0  0  0  0
   10.9143   -8.0113    3.2019 H   0  0  0  0  0  0  0  0  0  0  0  0
   12.8582   -9.0318    4.1027 H   0  0  0  0  0  0  0  0  0  0  0  0
   14.4203  -10.9399    4.1022 H   0  0  0  0  0  0  0  0  0  0  0  0
   14.0440  -12.8721    2.6146 H   0  0  0  0  0  0  0  0  0  0  0  0
   12.7461  -14.0101    0.9578 H   0  0  0  0  0  0  0  0  0  0  0  0
   12.0237  -12.8982   -0.2145 H   0  0  0  0  0  0  0  0  0  0  0  0
   11.0107  -13.6760    1.0322 H   0  0  0  0  0  0  0  0  0  0  0  0
   10.4634  -11.0195    1.1187 H   0  0  0  0  0  0  0  0  0  0  0  0
    6.9457   -5.8916    2.1640 H   0  0  0  0  0  0  0  0  0  0  0  0
    2.6336   -4.0346    0.9626 H   0  0  0  0  0  0  0  0  0  0  0  0
    2.3952   -1.0058   -1.7111 H   0  0  0  0  0  0  0  0  0  0  0  0
    0.7509   -0.5054   -1.2222 H   0  0  0  0  0  0  0  0  0  0  0  0
    0.6349   -1.6574   -3.3879 H   0  0  0  0  0  0  0  0  0  0  0  0
   -0.1581   -2.6318   -2.1361 H   0  0  0  0  0  0  0  0  0  0  0  0
    1.9331   -4.0021   -1.8902 H   0  0  0  0  0  0  0  0  0  0  0  0
    2.7092   -2.9911   -3.1030 H   0  0  0  0  0  0  0  0  0  0  0  0
   -0.2943   -5.4608   -4.5789 H   0  0  0  0  0  0  0  0  0  0  0  0
   -0.7544   -4.3689   -3.3017 H   0  0  0  0  0  0  0  0  0  0  0  0
   -0.7485   -6.7878   -2.6152 H   0  0  0  0  0  0  0  0  0  0  0  0
    0.3556   -5.8491   -1.6042 H   0  0  0  0  0  0  0  0  0  0  0  0
    3.2276   -7.1470   -3.4531 H   0  0  0  0  0  0  0  0  0  0  0  0
    2.7881   -6.0190   -2.1736 H   0  0  0  0  0  0  0  0  0  0  0  0
    2.0786   -5.7858   -5.1665 H   0  0  0  0  0  0  0  0  0  0  0  0
    3.3146   -4.8270   -4.3713 H   0  0  0  0  0  0  0  0  0  0  0  0
  1  2  1  0  0  0  0
  1 41  1  0  0  0  0
  1 42  1  0  0  0  0
  1 43  1  0  0  0  0
  2  3  1  0  0  0  0
  3  4  1  0  0  0  0
  3 30  2  0  0  0  0
  4  5  2  0  0  0  0
  4 44  1  0  0  0  0
  5  6  1  0  0  0  0
  5 28  1  0  0  0  0
  6  7  2  0  0  0  0
  7  8  1  0  0  0  0
  7 45  1  0  0  0  0
  8  9  2  0  0  0  0
  9 10  1  0  0  0  0
  9 28  1  0  0  0  0
 10 11  1  0  0  0  0
 10 46  1  0  0  0  0
 11 12  1  0  0  0  0
 11 27  2  0  0  0  0
 12 13  2  0  0  0  0
 12 47  1  0  0  0  0
 13 14  1  0  0  0  0
 13 48  1  0  0  0  0
 14 15  2  0  0  0  0
 14 49  1  0  0  0  0
 15 16  1  0  0  0  0
 15 27  1  0  0  0  0
 16 17  1  0  0  0  0
 16 50  1  0  0  0  0
 17 18  2  0  0  0  0
 17 19  1  0  0  0  0
 19 20  1  0  0  0  0
 19 51  1  0  0  0  0
 20 21  1  0  0  0  0
 20 26  2  0  0  0  0
 21 22  2  0  0  0  0
 21 52  1  0  0  0  0
 22 23  1  0  0  0  0
 22 53  1  0  0  0  0
 23 24  2  0  0  0  0
 23 54  1  0  0  0  0
 24 25  1  0  0  0  0
 24 26  1  0  0  0  0
 25 55  1  0  0  0  0
 25 56  1  0  0  0  0
 25 57  1  0  0  0  0
 26 58  1  0  0  0  0
 27 59  1  0  0  0  0
 28 29  2  0  0  0  0
 29 30  1  0  0  0  0
 29 60  1  0  0  0  0
 30 31  1  0  0  0  0
 31 32  1  0  0  0  0
 32 33  1  0  0  0  0
 32 61  1  0  0  0  0
 32 62  1  0  0  0  0
 33 34  1  0  0  0  0
 33 63  1  0  0  0  0
 33 64  1  0  0  0  0
 34 35  1  0  0  0  0
 34 65  1  0  0  0  0
 34 66  1  0  0  0  0
 35 36  1  0  0  0  0
 35 40  1  0  0  0  0
 36 37  1  0  0  0  0
 36 67  1  0  0  0  0
 36 68  1  0  0  0  0
 37 38  1  0  0  0  0
 37 69  1  0  0  0  0
 37 70  1  0  0  0  0
 38 39  1  0  0  0  0
 39 40  1  0  0  0  0
 39 71  1  0  0  0  0
 39 72  1  0  0  0  0
 40 73  1  0  0  0  0
 40 74  1  0  0  0  0
M  END
$$$$
