CHEMBL4566054
 OpenBabel04072215383D

 51 53  0  0  0  0  0  0  0  0999 V2000
    6.5404   -2.0491  -10.3526 C   0  0  0  0  0  0  0  0  0  0  0  0
    7.9751   -1.9477   -9.8645 C   0  0  0  0  0  0  0  0  0  0  0  0
    8.0218   -0.9047   -8.8826 O   0  0  0  0  0  0  0  0  0  0  0  0
    8.1787    0.3486   -9.3738 C   0  0  0  0  0  0  0  0  0  0  0  0
    8.5909    0.6453  -10.4827 O   0  0  0  0  0  0  0  0  0  0  0  0
    7.6223    1.3298   -8.4056 C   0  0  0  0  0  0  0  0  0  0  0  0
    7.6074    2.6781   -8.7634 C   0  0  0  0  0  0  0  0  0  0  0  0
    7.0165    3.6182   -7.9148 C   0  0  0  0  0  0  0  0  0  0  0  0
    6.4134    3.2216   -6.7133 C   0  0  0  0  0  0  0  0  0  0  0  0
    5.9083    4.1618   -5.7806 N   0  0  0  0  0  0  0  0  0  0  0  0
    5.2225    5.3450   -6.1516 C   0  0  0  0  0  0  0  0  0  0  0  0
    5.1865    6.4045   -5.2681 C   0  0  0  0  0  0  0  0  0  0  0  0
    4.4776    7.5114   -5.6707 C   0  0  0  0  0  0  0  0  0  0  0  0
    3.8089    7.5803   -6.8322 N   0  0  0  0  0  0  0  0  0  0  0  0
    3.8431    6.4792   -7.5961 C   0  0  0  0  0  0  0  0  0  0  0  0
    2.9285    6.5090   -9.1172 S   0  0  0  0  0  0  0  0  0  0  0  0
    2.5914    4.7239   -9.2871 C   0  0  0  0  0  0  0  0  0  0  0  0
    1.7677    4.1832   -8.1277 C   0  0  0  0  0  0  0  0  0  0  0  0
    0.9366    4.8687   -7.5294 O   0  0  0  0  0  0  0  0  0  0  0  0
    1.9131    2.7458   -7.7284 C   0  0  0  0  0  0  0  0  0  0  0  0
    2.7017    1.8246   -8.4278 C   0  0  0  0  0  0  0  0  0  0  0  0
    2.8010    0.4938   -7.9899 C   0  0  0  0  0  0  0  0  0  0  0  0
    2.1052    0.0676   -6.8585 C   0  0  0  0  0  0  0  0  0  0  0  0
    2.1144   -1.1924   -6.3298 O   0  0  0  0  0  0  0  0  0  0  0  0
    2.9358   -2.1588   -6.9712 C   0  0  0  0  0  0  0  0  0  0  0  0
    1.3052    0.9798   -6.1708 C   0  0  0  0  0  0  0  0  0  0  0  0
    1.2088    2.3063   -6.5991 C   0  0  0  0  0  0  0  0  0  0  0  0
    4.5424    5.3729   -7.3098 N   0  0  0  0  0  0  0  0  0  0  0  0
    6.4626    1.8747   -6.3454 C   0  0  0  0  0  0  0  0  0  0  0  0
    7.0483    0.9298   -7.1901 C   0  0  0  0  0  0  0  0  0  0  0  0
    6.4252   -2.8737  -11.0618 H   0  0  0  0  0  0  0  0  0  0  0  0
    6.2268   -1.1178  -10.8367 H   0  0  0  0  0  0  0  0  0  0  0  0
    5.8605   -2.2044   -9.5071 H   0  0  0  0  0  0  0  0  0  0  0  0
    8.6765   -1.7714  -10.6865 H   0  0  0  0  0  0  0  0  0  0  0  0
    8.2709   -2.8781   -9.3719 H   0  0  0  0  0  0  0  0  0  0  0  0
    8.0445    3.0063   -9.7057 H   0  0  0  0  0  0  0  0  0  0  0  0
    7.0255    4.6652   -8.2099 H   0  0  0  0  0  0  0  0  0  0  0  0
    6.6592    4.3864   -5.1331 H   0  0  0  0  0  0  0  0  0  0  0  0
    5.7008    6.3869   -4.3174 H   0  0  0  0  0  0  0  0  0  0  0  0
    4.4223    8.4001   -5.0493 H   0  0  0  0  0  0  0  0  0  0  0  0
    3.5486    4.2103   -9.3903 H   0  0  0  0  0  0  0  0  0  0  0  0
    2.0164    4.5693  -10.2059 H   0  0  0  0  0  0  0  0  0  0  0  0
    3.2547    2.1017   -9.3195 H   0  0  0  0  0  0  0  0  0  0  0  0
    3.4308   -0.1831   -8.5585 H   0  0  0  0  0  0  0  0  0  0  0  0
    2.7984   -3.1113   -6.4501 H   0  0  0  0  0  0  0  0  0  0  0  0
    3.9934   -1.8851   -6.8962 H   0  0  0  0  0  0  0  0  0  0  0  0
    2.6374   -2.3064   -8.0142 H   0  0  0  0  0  0  0  0  0  0  0  0
    0.7516    0.6591   -5.2912 H   0  0  0  0  0  0  0  0  0  0  0  0
    0.5775    2.9956   -6.0406 H   0  0  0  0  0  0  0  0  0  0  0  0
    6.0139    1.5495   -5.4096 H   0  0  0  0  0  0  0  0  0  0  0  0
    7.0357   -0.1151   -6.8896 H   0  0  0  0  0  0  0  0  0  0  0  0
  1  2  1  0  0  0  0
  1 31  1  0  0  0  0
  1 32  1  0  0  0  0
  1 33  1  0  0  0  0
  2  3  1  0  0  0  0
  2 34  1  0  0  0  0
  2 35  1  0  0  0  0
  3  4  1  0  0  0  0
  4  5  2  0  0  0  0
  4  6  1  0  0  0  0
  6  7  1  0  0  0  0
  6 30  2  0  0  0  0
  7  8  2  0  0  0  0
  7 36  1  0  0  0  0
  8  9  1  0  0  0  0
  8 37  1  0  0  0  0
  9 10  1  0  0  0  0
  9 29  2  0  0  0  0
 10 11  1  0  0  0  0
 10 38  1  0  0  0  0
 11 12  1  0  0  0  0
 11 28  2  0  0  0  0
 12 13  2  0  0  0  0
 12 39  1  0  0  0  0
 13 14  1  0  0  0  0
 13 40  1  0  0  0  0
 14 15  2  0  0  0  0
 15 16  1  0  0  0  0
 15 28  1  0  0  0  0
 16 17  1  0  0  0  0
 17 18  1  0  0  0  0
 17 41  1  0  0  0  0
 17 42  1  0  0  0  0
 18 19  2  0  0  0  0
 18 20  1  0  0  0  0
 20 21  1  0  0  0  0
 20 27  2  0  0  0  0
 21 22  2  0  0  0  0
 21 43  1  0  0  0  0
 22 23  1  0  0  0  0
 22 44  1  0  0  0  0
 23 24  1  0  0  0  0
 23 26  2  0  0  0  0
 24 25  1  0  0  0  0
 25 45  1  0  0  0  0
 25 46  1  0  0  0  0
 25 47  1  0  0  0  0
 26 27  1  0  0  0  0
 26 48  1  0  0  0  0
 27 49  1  0  0  0  0
 29 30  1  0  0  0  0
 29 50  1  0  0  0  0
 30 51  1  0  0  0  0
M  END
$$$$
