CHEMBL611649
 OpenBabel04072215383D

 28 30  0  0  0  0  0  0  0  0999 V2000
   -2.9546    0.9793    0.0854 O   0  0  0  0  0  0  0  0  0  0  0  0
   -1.7842    0.6549    0.0692 C   0  0  0  0  0  0  0  0  0  0  0  0
   -0.7015    1.5168    0.0760 N   0  0  0  0  0  0  0  0  0  0  0  0
    0.5019    0.8221    0.0527 C   0  0  0  0  0  0  0  0  0  0  0  0
    1.7649    1.3774    0.0419 C   0  0  0  0  0  0  0  0  0  0  0  0
    2.8479    0.4990    0.0052 C   0  0  0  0  0  0  0  0  0  0  0  0
    2.6421   -0.8936   -0.0165 C   0  0  0  0  0  0  0  0  0  0  0  0
    1.3489   -1.4337   -0.0025 C   0  0  0  0  0  0  0  0  0  0  0  0
    0.2786   -0.5582    0.0337 C   0  0  0  0  0  0  0  0  0  0  0  0
   -1.1783   -0.7308    0.0416 C   0  0  0  0  0  0  0  0  0  0  0  0
   -1.8506   -1.8928    0.0161 C   0  0  0  0  0  0  0  0  0  0  0  0
   -3.3127   -1.9696   -0.0233 C   0  0  0  0  0  0  0  0  0  0  0  0
   -3.9712   -1.9970   -1.2605 C   0  0  0  0  0  0  0  0  0  0  0  0
   -5.3652   -1.9571   -1.3130 C   0  0  0  0  0  0  0  0  0  0  0  0
   -6.0935   -1.8956   -0.1307 C   0  0  0  0  0  0  0  0  0  0  0  0
   -7.4307   -1.8305   -0.1836 F   0  0  0  0  0  0  0  0  0  0  0  0
   -5.4559   -1.8910    1.1048 C   0  0  0  0  0  0  0  0  0  0  0  0
   -4.0612   -1.9311    1.1610 C   0  0  0  0  0  0  0  0  0  0  0  0
   -0.8115    2.5187    0.0924 H   0  0  0  0  0  0  0  0  0  0  0  0
    1.9162    2.4515    0.0559 H   0  0  0  0  0  0  0  0  0  0  0  0
    3.8615    0.8937   -0.0077 H   0  0  0  0  0  0  0  0  0  0  0  0
    3.5039   -1.5578   -0.0495 H   0  0  0  0  0  0  0  0  0  0  0  0
    1.2047   -2.5085   -0.0252 H   0  0  0  0  0  0  0  0  0  0  0  0
   -1.3340   -2.8473   -0.0058 H   0  0  0  0  0  0  0  0  0  0  0  0
   -3.4029   -2.0122   -2.1871 H   0  0  0  0  0  0  0  0  0  0  0  0
   -5.8838   -1.9474   -2.2656 H   0  0  0  0  0  0  0  0  0  0  0  0
   -6.0462   -1.8292    2.0130 H   0  0  0  0  0  0  0  0  0  0  0  0
   -3.5652   -1.8915    2.1274 H   0  0  0  0  0  0  0  0  0  0  0  0
  1  2  2  0  0  0  0
  2  3  1  0  0  0  0
  2 10  1  0  0  0  0
  3  4  1  0  0  0  0
  3 19  1  0  0  0  0
  4  5  1  0  0  0  0
  4  9  2  0  0  0  0
  5  6  2  0  0  0  0
  5 20  1  0  0  0  0
  6  7  1  0  0  0  0
  6 21  1  0  0  0  0
  7  8  2  0  0  0  0
  7 22  1  0  0  0  0
  8  9  1  0  0  0  0
  8 23  1  0  0  0  0
  9 10  1  0  0  0  0
 10 11  2  0  0  0  0
 11 12  1  0  0  0  0
 11 24  1  0  0  0  0
 12 13  1  0  0  0  0
 12 18  2  0  0  0  0
 13 14  2  0  0  0  0
 13 25  1  0  0  0  0
 14 15  1  0  0  0  0
 14 26  1  0  0  0  0
 15 16  1  0  0  0  0
 15 17  2  0  0  0  0
 17 18  1  0  0  0  0
 17 27  1  0  0  0  0
 18 28  1  0  0  0  0
M  END
$$$$
