CHEMBL3910983
 OpenBabel04072215373D

 53 56  0  0  0  0  0  0  0  0999 V2000
    2.5141   -0.0407    1.2841 O   0  0  0  0  0  0  0  0  0  0  0  0
    2.1578   -0.3754    0.1626 C   0  0  0  0  0  0  0  0  0  0  0  0
    0.8354   -0.4370   -0.2457 N   0  0  0  0  0  0  0  0  0  0  0  0
   -0.2896   -0.1417    0.5641 C   0  0  0  0  0  0  0  0  0  0  0  0
   -0.2081    0.5118    1.7956 C   0  0  0  0  0  0  0  0  0  0  0  0
   -1.3470    0.6989    2.5813 C   0  0  0  0  0  0  0  0  0  0  0  0
   -2.5899    0.2607    2.1326 C   0  0  0  0  0  0  0  0  0  0  0  0
   -2.7056   -0.3150    0.8703 C   0  0  0  0  0  0  0  0  0  0  0  0
   -3.8610   -0.7529    0.2979 O   0  0  0  0  0  0  0  0  0  0  0  0
   -5.0900   -0.1152    0.6218 C   0  0  0  0  0  0  0  0  0  0  0  0
   -4.9589    1.0273    1.3270 F   0  0  0  0  0  0  0  0  0  0  0  0
   -5.7261    0.1884   -0.5326 F   0  0  0  0  0  0  0  0  0  0  0  0
   -5.8684   -0.9715    1.3174 F   0  0  0  0  0  0  0  0  0  0  0  0
   -1.5508   -0.5375    0.1042 C   0  0  0  0  0  0  0  0  0  0  0  0
    3.0294   -0.7697   -0.8416 N   0  0  0  0  0  0  0  0  0  0  0  0
    4.4329   -0.9348   -0.7094 C   0  0  0  0  0  0  0  0  0  0  0  0
    5.1187   -0.7898    0.4967 C   0  0  0  0  0  0  0  0  0  0  0  0
    6.5014   -0.9780    0.5613 C   0  0  0  0  0  0  0  0  0  0  0  0
    7.2361   -1.2576   -0.5921 C   0  0  0  0  0  0  0  0  0  0  0  0
    8.6103   -1.3918   -0.5944 O   0  0  0  0  0  0  0  0  0  0  0  0
    9.3573   -0.5602    0.2215 C   0  0  0  0  0  0  0  0  0  0  0  0
    8.9967    0.7559    0.4993 C   0  0  0  0  0  0  0  0  0  0  0  0
    9.7887    1.4673    1.3707 C   0  0  0  0  0  0  0  0  0  0  0  0
   10.9144    0.9748    1.9146 N   0  0  0  0  0  0  0  0  0  0  0  0
   11.3019   -0.2719    1.5956 C   0  0  0  0  0  0  0  0  0  0  0  0
   12.5063   -0.7766    2.1261 N   0  0  0  0  0  0  0  0  0  0  0  0
   13.3125   -0.0695    2.9952 C   0  0  0  0  0  0  0  0  0  0  0  0
   13.1188    1.0395    3.4751 O   0  0  0  0  0  0  0  0  0  0  0  0
   14.5843   -0.7833    3.3399 C   0  0  0  0  0  0  0  0  0  0  0  0
   15.4674   -0.2701    4.4594 C   0  0  0  0  0  0  0  0  0  0  0  0
   15.9057   -0.1099    3.0339 C   0  0  0  0  0  0  0  0  0  0  0  0
   10.5447   -1.0770    0.7482 C   0  0  0  0  0  0  0  0  0  0  0  0
    6.5625   -1.4474   -1.7992 C   0  0  0  0  0  0  0  0  0  0  0  0
    5.1743   -1.2840   -1.8459 C   0  0  0  0  0  0  0  0  0  0  0  0
    4.5402   -1.4621   -3.0167 F   0  0  0  0  0  0  0  0  0  0  0  0
    0.6495   -0.8956   -1.1242 H   0  0  0  0  0  0  0  0  0  0  0  0
    0.7321    0.8879    2.1866 H   0  0  0  0  0  0  0  0  0  0  0  0
   -1.2537    1.1852    3.5498 H   0  0  0  0  0  0  0  0  0  0  0  0
   -3.4412    0.3862    2.7951 H   0  0  0  0  0  0  0  0  0  0  0  0
   -1.6528   -1.0396   -0.8547 H   0  0  0  0  0  0  0  0  0  0  0  0
    2.6628   -0.8945   -1.7737 H   0  0  0  0  0  0  0  0  0  0  0  0
    4.6185   -0.5276    1.4228 H   0  0  0  0  0  0  0  0  0  0  0  0
    6.9886   -0.8719    1.5280 H   0  0  0  0  0  0  0  0  0  0  0  0
    8.1102    1.2187    0.0852 H   0  0  0  0  0  0  0  0  0  0  0  0
    9.5364    2.4796    1.6718 H   0  0  0  0  0  0  0  0  0  0  0  0
   12.7995   -1.6918    1.8269 H   0  0  0  0  0  0  0  0  0  0  0  0
   14.5529   -1.8634    3.2365 H   0  0  0  0  0  0  0  0  0  0  0  0
   15.9915   -0.9893    5.0767 H   0  0  0  0  0  0  0  0  0  0  0  0
   15.1544    0.6211    4.9961 H   0  0  0  0  0  0  0  0  0  0  0  0
   16.7262   -0.7220    2.6824 H   0  0  0  0  0  0  0  0  0  0  0  0
   15.8869    0.8938    2.6194 H   0  0  0  0  0  0  0  0  0  0  0  0
   10.8526   -2.0836    0.5022 H   0  0  0  0  0  0  0  0  0  0  0  0
    7.1028   -1.7110   -2.7020 H   0  0  0  0  0  0  0  0  0  0  0  0
  1  2  2  0  0  0  0
  2  3  1  0  0  0  0
  2 15  1  0  0  0  0
  3  4  1  0  0  0  0
  3 36  1  0  0  0  0
  4  5  1  0  0  0  0
  4 14  2  0  0  0  0
  5  6  2  0  0  0  0
  5 37  1  0  0  0  0
  6  7  1  0  0  0  0
  6 38  1  0  0  0  0
  7  8  2  0  0  0  0
  7 39  1  0  0  0  0
  8  9  1  0  0  0  0
  8 14  1  0  0  0  0
  9 10  1  0  0  0  0
 10 11  1  0  0  0  0
 10 12  1  0  0  0  0
 10 13  1  0  0  0  0
 14 40  1  0  0  0  0
 15 16  1  0  0  0  0
 15 41  1  0  0  0  0
 16 17  1  0  0  0  0
 16 34  2  0  0  0  0
 17 18  2  0  0  0  0
 17 42  1  0  0  0  0
 18 19  1  0  0  0  0
 18 43  1  0  0  0  0
 19 20  1  0  0  0  0
 19 33  2  0  0  0  0
 20 21  1  0  0  0  0
 21 22  1  0  0  0  0
 21 32  2  0  0  0  0
 22 23  2  0  0  0  0
 22 44  1  0  0  0  0
 23 24  1  0  0  0  0
 23 45  1  0  0  0  0
 24 25  2  0  0  0  0
 25 26  1  0  0  0  0
 25 32  1  0  0  0  0
 26 27  1  0  0  0  0
 26 46  1  0  0  0  0
 27 28  2  0  0  0  0
 27 29  1  0  0  0  0
 29 30  1  0  0  0  0
 29 31  1  0  0  0  0
 29 47  1  0  0  0  0
 30 31  1  0  0  0  0
 30 48  1  0  0  0  0
 30 49  1  0  0  0  0
 31 50  1  0  0  0  0
 31 51  1  0  0  0  0
 32 52  1  0  0  0  0
 33 34  1  0  0  0  0
 33 53  1  0  0  0  0
 34 35  1  0  0  0  0
M  END
$$$$
