CHEMBL3622958
 OpenBabel04072215373D

 58 62  0  0  0  0  0  0  0  0999 V2000
    2.2589   -1.5816   -1.4044 C   0  0  0  0  0  0  0  0  0  0  0  0
    2.7800   -0.3011   -0.8595 C   0  0  0  0  0  0  0  0  0  0  0  0
    4.0730    0.0170   -1.0162 N   0  0  0  0  0  0  0  0  0  0  0  0
    4.2284    1.1528   -0.2917 N   0  0  0  0  0  0  0  0  0  0  0  0
    5.4349    1.9064   -0.2556 C   0  0  0  0  0  0  0  0  0  0  0  0
    6.4739    1.5646   -1.0889 C   0  0  0  0  0  0  0  0  0  0  0  0
    7.5747    2.3771   -1.0009 C   0  0  0  0  0  0  0  0  0  0  0  0
    7.6682    3.4233   -0.1562 N   0  0  0  0  0  0  0  0  0  0  0  0
    6.6006    3.6972    0.6087 C   0  0  0  0  0  0  0  0  0  0  0  0
    6.7309    4.7879    1.4630 N   0  0  0  0  0  0  0  0  0  0  0  0
    5.7840    5.6699    2.0115 C   0  0  0  0  0  0  0  0  0  0  0  0
    4.4081    5.5733    1.7920 C   0  0  0  0  0  0  0  0  0  0  0  0
    3.4954    6.4709    2.3627 C   0  0  0  0  0  0  0  0  0  0  0  0
    3.9972    7.5001    3.1724 C   0  0  0  0  0  0  0  0  0  0  0  0
    5.3595    7.6189    3.4509 C   0  0  0  0  0  0  0  0  0  0  0  0
    6.2423    6.6711    2.8872 C   0  0  0  0  0  0  0  0  0  0  0  0
    5.5306    8.7548    4.2937 C   0  0  0  0  0  0  0  0  0  0  0  0
    6.8198    9.2663    4.8337 C   0  0  0  0  0  0  0  0  0  0  0  0
    4.2775    9.3199    4.4884 C   0  0  0  0  0  0  0  0  0  0  0  0
    3.9066   10.5498    5.2437 C   0  0  0  0  0  0  0  0  0  0  0  0
    3.3588    8.5359    3.8279 N   0  0  0  0  0  0  0  0  0  0  0  0
    1.9262    8.7420    3.7823 C   0  0  0  0  0  0  0  0  0  0  0  0
    5.4804    2.9692    0.5837 N   0  0  0  0  0  0  0  0  0  0  0  0
    3.0778    1.4726    0.3882 C   0  0  0  0  0  0  0  0  0  0  0  0
    2.0674    0.6728   -0.1016 C   0  0  0  0  0  0  0  0  0  0  0  0
    0.6078    0.6954    0.2213 C   0  0  0  0  0  0  0  0  0  0  0  0
   -0.0664    1.9472   -0.1915 N   0  0  0  0  0  0  0  0  0  0  0  0
    0.3069    3.1753    0.5631 C   0  0  0  0  0  0  0  0  0  0  0  0
   -0.7228    2.8211    1.6534 C   0  0  0  0  0  0  0  0  0  0  0  0
   -0.2473    2.0840    2.8091 O   0  0  0  0  0  0  0  0  0  0  0  0
   -1.3924    2.0133    0.5092 C   0  0  0  0  0  0  0  0  0  0  0  0
    3.0703   -2.2312   -1.7487 H   0  0  0  0  0  0  0  0  0  0  0  0
    1.5757   -1.4019   -2.2384 H   0  0  0  0  0  0  0  0  0  0  0  0
    1.7168   -2.1263   -0.6224 H   0  0  0  0  0  0  0  0  0  0  0  0
    6.4281    0.7375   -1.7845 H   0  0  0  0  0  0  0  0  0  0  0  0
    8.4426    2.2154   -1.6336 H   0  0  0  0  0  0  0  0  0  0  0  0
    7.6593    5.1730    1.3517 H   0  0  0  0  0  0  0  0  0  0  0  0
    4.0094    4.7982    1.1421 H   0  0  0  0  0  0  0  0  0  0  0  0
    2.4353    6.3814    2.1461 H   0  0  0  0  0  0  0  0  0  0  0  0
    7.3022    6.7428    3.1163 H   0  0  0  0  0  0  0  0  0  0  0  0
    7.6612    8.6251    4.5569 H   0  0  0  0  0  0  0  0  0  0  0  0
    6.7836    9.3160    5.9268 H   0  0  0  0  0  0  0  0  0  0  0  0
    7.0210   10.2697    4.4450 H   0  0  0  0  0  0  0  0  0  0  0  0
    4.7888   11.0343    5.6737 H   0  0  0  0  0  0  0  0  0  0  0  0
    3.2243   10.3114    6.0654 H   0  0  0  0  0  0  0  0  0  0  0  0
    3.4246   11.2757    4.5804 H   0  0  0  0  0  0  0  0  0  0  0  0
    1.6490    9.6423    4.3323 H   0  0  0  0  0  0  0  0  0  0  0  0
    1.4388    7.8748    4.2360 H   0  0  0  0  0  0  0  0  0  0  0  0
    1.6246    8.8503    2.7367 H   0  0  0  0  0  0  0  0  0  0  0  0
    3.0911    2.2815    1.1017 H   0  0  0  0  0  0  0  0  0  0  0  0
    0.4757    0.4257    1.2725 H   0  0  0  0  0  0  0  0  0  0  0  0
    0.1200   -0.1072   -0.3485 H   0  0  0  0  0  0  0  0  0  0  0  0
    0.0453    4.0969    0.0216 H   0  0  0  0  0  0  0  0  0  0  0  0
    1.3341    3.3048    0.8929 H   0  0  0  0  0  0  0  0  0  0  0  0
   -1.3110    3.6751    2.0024 H   0  0  0  0  0  0  0  0  0  0  0  0
    0.7249    2.0939    2.7391 H   0  0  0  0  0  0  0  0  0  0  0  0
   -2.1409    2.5968   -0.0444 H   0  0  0  0  0  0  0  0  0  0  0  0
   -1.8494    1.0579    0.7850 H   0  0  0  0  0  0  0  0  0  0  0  0
  1  2  1  0  0  0  0
  1 32  1  0  0  0  0
  1 33  1  0  0  0  0
  1 34  1  0  0  0  0
  2  3  2  0  0  0  0
  2 25  1  0  0  0  0
  3  4  1  0  0  0  0
  4  5  1  0  0  0  0
  4 24  1  0  0  0  0
  5  6  1  0  0  0  0
  5 23  2  0  0  0  0
  6  7  2  0  0  0  0
  6 35  1  0  0  0  0
  7  8  1  0  0  0  0
  7 36  1  0  0  0  0
  8  9  2  0  0  0  0
  9 10  1  0  0  0  0
  9 23  1  0  0  0  0
 10 11  1  0  0  0  0
 10 37  1  0  0  0  0
 11 12  1  0  0  0  0
 11 16  2  0  0  0  0
 12 13  2  0  0  0  0
 12 38  1  0  0  0  0
 13 14  1  0  0  0  0
 13 39  1  0  0  0  0
 14 15  2  0  0  0  0
 14 21  1  0  0  0  0
 15 16  1  0  0  0  0
 15 17  1  0  0  0  0
 16 40  1  0  0  0  0
 17 18  1  0  0  0  0
 17 19  2  0  0  0  0
 18 41  1  0  0  0  0
 18 42  1  0  0  0  0
 18 43  1  0  0  0  0
 19 20  1  0  0  0  0
 19 21  1  0  0  0  0
 20 44  1  0  0  0  0
 20 45  1  0  0  0  0
 20 46  1  0  0  0  0
 21 22  1  0  0  0  0
 22 47  1  0  0  0  0
 22 48  1  0  0  0  0
 22 49  1  0  0  0  0
 24 25  2  0  0  0  0
 24 50  1  0  0  0  0
 25 26  1  0  0  0  0
 26 27  1  0  0  0  0
 26 51  1  0  0  0  0
 26 52  1  0  0  0  0
 27 28  1  0  0  0  0
 27 31  1  0  0  0  0
 28 29  1  0  0  0  0
 28 53  1  0  0  0  0
 28 54  1  0  0  0  0
 29 30  1  0  0  0  0
 29 31  1  0  0  0  0
 29 55  1  0  0  0  0
 30 56  1  0  0  0  0
 31 57  1  0  0  0  0
 31 58  1  0  0  0  0
M  END
$$$$
