CHEMBL3740163
 OpenBabel04072215373D

 63 67  0  0  0  0  0  0  0  0999 V2000
    7.8786    0.4316   -0.4703 C   0  0  0  0  0  0  0  0  0  0  0  0
    6.5821    0.0936    0.6972 S   0  0  0  0  0  0  0  0  0  0  0  0
    5.3819   -0.2449   -0.0456 O   0  0  0  0  0  0  0  0  0  0  0  0
    7.1198   -0.8610    1.6532 O   0  0  0  0  0  0  0  0  0  0  0  0
    6.3348    1.6290    1.5819 C   0  0  0  0  0  0  0  0  0  0  0  0
    5.9551    2.7859    0.6926 C   0  0  0  0  0  0  0  0  0  0  0  0
    4.7855    2.7866   -0.0767 C   0  0  0  0  0  0  0  0  0  0  0  0
    4.4220    3.9118   -0.8195 C   0  0  0  0  0  0  0  0  0  0  0  0
    5.2069    5.0639   -0.7821 C   0  0  0  0  0  0  0  0  0  0  0  0
    6.3817    5.0959   -0.0295 C   0  0  0  0  0  0  0  0  0  0  0  0
    7.1169    6.2973    0.0350 N   0  0  0  0  0  0  0  0  0  0  0  0
    8.4798    6.3972    0.3252 C   0  0  0  0  0  0  0  0  0  0  0  0
    8.8724    7.4487    1.0591 N   0  0  0  0  0  0  0  0  0  0  0  0
   10.1727    7.4968    1.4027 C   0  0  0  0  0  0  0  0  0  0  0  0
   11.0886    6.5443    1.0346 C   0  0  0  0  0  0  0  0  0  0  0  0
   10.6061    5.5485    0.2174 C   0  0  0  0  0  0  0  0  0  0  0  0
   11.3695    4.5142   -0.2489 O   0  0  0  0  0  0  0  0  0  0  0  0
   12.6336    4.7592   -0.7195 C   0  0  0  0  0  0  0  0  0  0  0  0
   13.4968    3.6757   -0.6703 C   0  0  0  0  0  0  0  0  0  0  0  0
   14.8121    3.8091   -1.1224 C   0  0  0  0  0  0  0  0  0  0  0  0
   15.3242    5.0339   -1.5873 C   0  0  0  0  0  0  0  0  0  0  0  0
   14.4194    6.1039   -1.6624 C   0  0  0  0  0  0  0  0  0  0  0  0
   13.0803    5.9597   -1.2676 C   0  0  0  0  0  0  0  0  0  0  0  0
   14.7746    7.3753   -2.0304 O   0  0  0  0  0  0  0  0  0  0  0  0
   15.8542    7.3854   -2.9561 C   0  0  0  0  0  0  0  0  0  0  0  0
   17.0464    6.5267   -2.5335 C   0  0  0  0  0  0  0  0  0  0  0  0
   16.7063    5.2089   -1.9722 N   0  0  0  0  0  0  0  0  0  0  0  0
   17.6833    4.2684   -1.6028 C   0  0  0  0  0  0  0  0  0  0  0  0
   17.4529    3.3481   -0.8192 O   0  0  0  0  0  0  0  0  0  0  0  0
   18.9435    4.4255   -2.1618 N   0  0  0  0  0  0  0  0  0  0  0  0
   19.9490    3.4206   -2.0503 C   0  0  0  0  0  0  0  0  0  0  0  0
   19.6305    2.0631   -1.8984 C   0  0  0  0  0  0  0  0  0  0  0  0
   20.6217    1.1021   -1.6862 C   0  0  0  0  0  0  0  0  0  0  0  0
   21.9571    1.4819   -1.6613 C   0  0  0  0  0  0  0  0  0  0  0  0
   22.2963    2.8196   -1.8744 C   0  0  0  0  0  0  0  0  0  0  0  0
   21.2982    3.7841   -2.0812 C   0  0  0  0  0  0  0  0  0  0  0  0
    9.3099    5.4448   -0.1190 N   0  0  0  0  0  0  0  0  0  0  0  0
    6.7339    3.9560    0.7134 C   0  0  0  0  0  0  0  0  0  0  0  0
    8.0696   -0.4895   -1.0273 H   0  0  0  0  0  0  0  0  0  0  0  0
    8.7772    0.7235    0.0764 H   0  0  0  0  0  0  0  0  0  0  0  0
    7.5614    1.2166   -1.1564 H   0  0  0  0  0  0  0  0  0  0  0  0
    7.2732    1.8270    2.1131 H   0  0  0  0  0  0  0  0  0  0  0  0
    5.5552    1.4594    2.3310 H   0  0  0  0  0  0  0  0  0  0  0  0
    4.1306    1.9172   -0.1015 H   0  0  0  0  0  0  0  0  0  0  0  0
    3.5173    3.8930   -1.4220 H   0  0  0  0  0  0  0  0  0  0  0  0
    4.9076    5.9345   -1.3606 H   0  0  0  0  0  0  0  0  0  0  0  0
    6.6480    7.0145    0.5761 H   0  0  0  0  0  0  0  0  0  0  0  0
   10.4665    8.3515    2.0049 H   0  0  0  0  0  0  0  0  0  0  0  0
   12.1210    6.5955    1.3497 H   0  0  0  0  0  0  0  0  0  0  0  0
   13.1599    2.7186   -0.2771 H   0  0  0  0  0  0  0  0  0  0  0  0
   15.4102    2.9043   -1.0757 H   0  0  0  0  0  0  0  0  0  0  0  0
   12.4065    6.8030   -1.3926 H   0  0  0  0  0  0  0  0  0  0  0  0
   15.4766    7.0987   -3.9442 H   0  0  0  0  0  0  0  0  0  0  0  0
   16.1869    8.4283   -3.0330 H   0  0  0  0  0  0  0  0  0  0  0  0
   17.6169    7.0486   -1.7604 H   0  0  0  0  0  0  0  0  0  0  0  0
   17.7023    6.3908   -3.3974 H   0  0  0  0  0  0  0  0  0  0  0  0
   19.2702    5.3632   -2.3251 H   0  0  0  0  0  0  0  0  0  0  0  0
   18.5999    1.7196   -1.9303 H   0  0  0  0  0  0  0  0  0  0  0  0
   20.3380    0.0653   -1.5243 H   0  0  0  0  0  0  0  0  0  0  0  0
   22.7275    0.7391   -1.4721 H   0  0  0  0  0  0  0  0  0  0  0  0
   23.3436    3.1094   -1.8641 H   0  0  0  0  0  0  0  0  0  0  0  0
   21.5977    4.8181   -2.2192 H   0  0  0  0  0  0  0  0  0  0  0  0
    7.6234    3.9889    1.3406 H   0  0  0  0  0  0  0  0  0  0  0  0
  1  2  1  0  0  0  0
  1 39  1  0  0  0  0
  1 40  1  0  0  0  0
  1 41  1  0  0  0  0
  2  3  2  0  0  0  0
  2  4  2  0  0  0  0
  2  5  1  0  0  0  0
  5  6  1  0  0  0  0
  5 42  1  0  0  0  0
  5 43  1  0  0  0  0
  6  7  1  0  0  0  0
  6 38  2  0  0  0  0
  7  8  2  0  0  0  0
  7 44  1  0  0  0  0
  8  9  1  0  0  0  0
  8 45  1  0  0  0  0
  9 10  2  0  0  0  0
  9 46  1  0  0  0  0
 10 11  1  0  0  0  0
 10 38  1  0  0  0  0
 11 12  1  0  0  0  0
 11 47  1  0  0  0  0
 12 13  1  0  0  0  0
 12 37  2  0  0  0  0
 13 14  2  0  0  0  0
 14 15  1  0  0  0  0
 14 48  1  0  0  0  0
 15 16  2  0  0  0  0
 15 49  1  0  0  0  0
 16 17  1  0  0  0  0
 16 37  1  0  0  0  0
 17 18  1  0  0  0  0
 18 19  1  0  0  0  0
 18 23  2  0  0  0  0
 19 20  2  0  0  0  0
 19 50  1  0  0  0  0
 20 21  1  0  0  0  0
 20 51  1  0  0  0  0
 21 22  2  0  0  0  0
 21 27  1  0  0  0  0
 22 23  1  0  0  0  0
 22 24  1  0  0  0  0
 23 52  1  0  0  0  0
 24 25  1  0  0  0  0
 25 26  1  0  0  0  0
 25 53  1  0  0  0  0
 25 54  1  0  0  0  0
 26 27  1  0  0  0  0
 26 55  1  0  0  0  0
 26 56  1  0  0  0  0
 27 28  1  0  0  0  0
 28 29  2  0  0  0  0
 28 30  1  0  0  0  0
 30 31  1  0  0  0  0
 30 57  1  0  0  0  0
 31 32  1  0  0  0  0
 31 36  2  0  0  0  0
 32 33  2  0  0  0  0
 32 58  1  0  0  0  0
 33 34  1  0  0  0  0
 33 59  1  0  0  0  0
 34 35  2  0  0  0  0
 34 60  1  0  0  0  0
 35 36  1  0  0  0  0
 35 61  1  0  0  0  0
 36 62  1  0  0  0  0
 38 63  1  0  0  0  0
M  END
$$$$
