CHEMBL393963
 OpenBabel04072215373D

 42 44  0  0  0  0  0  0  0  0999 V2000
    2.3567    0.0198    0.0297 C   0  0  0  0  0  0  0  0  0  0  0  0
    0.8865   -0.1590    0.0458 C   0  0  0  0  0  0  0  0  0  0  0  0
    0.0992    0.9215    0.0837 N   0  0  0  0  0  0  0  0  0  0  0  0
   -1.1919    0.4462   -0.0075 O   0  0  0  0  0  0  0  0  0  0  0  0
   -1.1847   -0.9129   -0.0883 C   0  0  0  0  0  0  0  0  0  0  0  0
   -2.3704   -1.5636   -0.1655 N   0  0  0  0  0  0  0  0  0  0  0  0
   -3.5656   -0.9002   -0.6662 C   0  0  0  0  0  0  0  0  0  0  0  0
   -3.8146   -1.1086   -2.1463 C   0  0  0  0  0  0  0  0  0  0  0  0
   -3.0428   -1.9408   -2.9619 C   0  0  0  0  0  0  0  0  0  0  0  0
   -3.3786   -2.0688   -4.3002 C   0  0  0  0  0  0  0  0  0  0  0  0
   -4.4190   -1.4402   -4.8832 N   0  0  0  0  0  0  0  0  0  0  0  0
   -5.1570   -0.6405   -4.0887 C   0  0  0  0  0  0  0  0  0  0  0  0
   -4.9012   -0.4486   -2.7384 C   0  0  0  0  0  0  0  0  0  0  0  0
    0.1227   -1.3561   -0.0346 C   0  0  0  0  0  0  0  0  0  0  0  0
    0.5404   -2.7369   -0.1461 C   0  0  0  0  0  0  0  0  0  0  0  0
   -0.0628   -3.5192   -0.8752 O   0  0  0  0  0  0  0  0  0  0  0  0
    1.5816   -3.1083    0.7003 N   0  0  0  0  0  0  0  0  0  0  0  0
    2.0495   -4.4413    0.7432 C   0  0  0  0  0  0  0  0  0  0  0  0
    2.3219   -5.1528   -0.4267 C   0  0  0  0  0  0  0  0  0  0  0  0
    2.7131   -6.4933   -0.3648 C   0  0  0  0  0  0  0  0  0  0  0  0
    2.8122   -7.1585    0.8692 C   0  0  0  0  0  0  0  0  0  0  0  0
    3.1647   -8.6229    0.9082 C   0  0  0  0  0  0  0  0  0  0  0  0
    3.4043   -9.1466   -0.3301 F   0  0  0  0  0  0  0  0  0  0  0  0
    4.2894   -8.8822    1.6296 F   0  0  0  0  0  0  0  0  0  0  0  0
    2.1776   -9.3957    1.4389 F   0  0  0  0  0  0  0  0  0  0  0  0
    2.5583   -6.4275    2.0372 C   0  0  0  0  0  0  0  0  0  0  0  0
    2.6022   -7.1653    3.5989 Cl  0  0  0  0  0  0  0  0  0  0  0  0
    2.2164   -5.0672    1.9783 C   0  0  0  0  0  0  0  0  0  0  0  0
    2.6279    1.0797   -0.0280 H   0  0  0  0  0  0  0  0  0  0  0  0
    2.7937   -0.4819   -0.8394 H   0  0  0  0  0  0  0  0  0  0  0  0
    2.8068   -0.3917    0.9374 H   0  0  0  0  0  0  0  0  0  0  0  0
   -2.3653   -2.5735   -0.2996 H   0  0  0  0  0  0  0  0  0  0  0  0
   -3.5476    0.1764   -0.4547 H   0  0  0  0  0  0  0  0  0  0  0  0
   -4.4250   -1.3111   -0.1221 H   0  0  0  0  0  0  0  0  0  0  0  0
   -2.1826   -2.4852   -2.5832 H   0  0  0  0  0  0  0  0  0  0  0  0
   -2.7966   -2.7039   -4.9626 H   0  0  0  0  0  0  0  0  0  0  0  0
   -5.9881   -0.1405   -4.5780 H   0  0  0  0  0  0  0  0  0  0  0  0
   -5.5425    0.2106   -2.1619 H   0  0  0  0  0  0  0  0  0  0  0  0
    1.6806   -2.5525    1.5416 H   0  0  0  0  0  0  0  0  0  0  0  0
    2.2382   -4.6738   -1.4005 H   0  0  0  0  0  0  0  0  0  0  0  0
    2.9183   -7.0236   -1.2951 H   0  0  0  0  0  0  0  0  0  0  0  0
    2.0027   -4.5315    2.8998 H   0  0  0  0  0  0  0  0  0  0  0  0
  1  2  1  0  0  0  0
  1 29  1  0  0  0  0
  1 30  1  0  0  0  0
  1 31  1  0  0  0  0
  2  3  2  0  0  0  0
  2 14  1  0  0  0  0
  3  4  1  0  0  0  0
  4  5  1  0  0  0  0
  5  6  1  0  0  0  0
  5 14  2  0  0  0  0
  6  7  1  0  0  0  0
  6 32  1  0  0  0  0
  7  8  1  0  0  0  0
  7 33  1  0  0  0  0
  7 34  1  0  0  0  0
  8  9  1  0  0  0  0
  8 13  2  0  0  0  0
  9 10  2  0  0  0  0
  9 35  1  0  0  0  0
 10 11  1  0  0  0  0
 10 36  1  0  0  0  0
 11 12  2  0  0  0  0
 12 13  1  0  0  0  0
 12 37  1  0  0  0  0
 13 38  1  0  0  0  0
 14 15  1  0  0  0  0
 15 16  2  0  0  0  0
 15 17  1  0  0  0  0
 17 18  1  0  0  0  0
 17 39  1  0  0  0  0
 18 19  1  0  0  0  0
 18 28  2  0  0  0  0
 19 20  2  0  0  0  0
 19 40  1  0  0  0  0
 20 21  1  0  0  0  0
 20 41  1  0  0  0  0
 21 22  1  0  0  0  0
 21 26  2  0  0  0  0
 22 23  1  0  0  0  0
 22 24  1  0  0  0  0
 22 25  1  0  0  0  0
 26 27  1  0  0  0  0
 26 28  1  0  0  0  0
 28 42  1  0  0  0  0
M  END
$$$$
