CHEMBL459729
 OpenBabel04072215383D

 67 71  0  0  0  0  0  0  0  0999 V2000
   -1.8079    2.1464   -0.0366 C   0  0  0  0  0  0  0  0  0  0  0  0
   -1.2611    0.7526    0.0565 C   0  0  0  0  0  0  0  0  0  0  0  0
   -2.1130   -0.3804   -0.0086 C   0  0  0  0  0  0  0  0  0  0  0  0
   -1.6144   -1.6926    0.0618 C   0  0  0  0  0  0  0  0  0  0  0  0
   -2.4582   -2.9498   -0.1489 C   0  0  0  0  0  0  0  0  0  0  0  0
   -3.6658   -2.8375   -1.0921 C   0  0  0  0  0  0  0  0  0  0  0  0
   -5.0130   -2.6421   -0.4013 C   0  0  0  0  0  0  0  0  0  0  0  0
   -5.2063   -3.6308    0.6692 N   0  0  0  0  0  0  0  0  0  0  0  0
   -6.5601   -3.5573    1.2585 C   0  0  0  0  0  0  0  0  0  0  0  0
   -7.6728   -3.9380    0.2703 C   0  0  0  0  0  0  0  0  0  0  0  0
   -9.0413   -3.8762    0.9238 C   0  0  0  0  0  0  0  0  0  0  0  0
   -9.2618   -2.6139    1.3793 F   0  0  0  0  0  0  0  0  0  0  0  0
   -4.1857   -3.3997    1.7072 C   0  0  0  0  0  0  0  0  0  0  0  0
   -2.7879   -3.6831    1.1608 C   0  0  0  0  0  0  0  0  0  0  0  0
   -0.2341   -1.8940    0.2819 C   0  0  0  0  0  0  0  0  0  0  0  0
    0.5944   -0.7764    0.3016 C   0  0  0  0  0  0  0  0  0  0  0  0
    1.9545   -0.6392    0.4198 N   0  0  0  0  0  0  0  0  0  0  0  0
    2.2740    0.6761    0.1909 C   0  0  0  0  0  0  0  0  0  0  0  0
    3.6423    1.0201    0.0493 C   0  0  0  0  0  0  0  0  0  0  0  0
    4.3035    0.8967   -1.1343 C   0  0  0  0  0  0  0  0  0  0  0  0
    3.7880    0.4108   -2.3497 N   0  0  0  0  0  0  0  0  0  0  0  0
    2.6656    1.1055   -3.0123 C   0  0  0  0  0  0  0  0  0  0  0  0
    2.3250    0.4917   -4.3657 C   0  0  0  0  0  0  0  0  0  0  0  0
    1.2161    1.2056   -4.9737 N   0  0  0  0  0  0  0  0  0  0  0  0
   -0.1122    0.9236   -4.8323 C   0  0  0  0  0  0  0  0  0  0  0  0
   -0.7789    1.9183   -5.5031 C   0  0  0  0  0  0  0  0  0  0  0  0
   -2.4467    2.1309   -5.6720 Cl  0  0  0  0  0  0  0  0  0  0  0  0
    0.2310    2.7501   -6.0180 C   0  0  0  0  0  0  0  0  0  0  0  0
    1.4568    2.3118   -5.7076 N   0  0  0  0  0  0  0  0  0  0  0  0
    5.7060    1.3085   -1.1871 C   0  0  0  0  0  0  0  0  0  0  0  0
    6.3372    1.7945   -0.1109 C   0  0  0  0  0  0  0  0  0  0  0  0
    5.6855    1.8790    1.0833 N   0  0  0  0  0  0  0  0  0  0  0  0
    4.3797    1.4969    1.2747 C   0  0  0  0  0  0  0  0  0  0  0  0
    3.8798    1.5081    2.3932 O   0  0  0  0  0  0  0  0  0  0  0  0
    1.1778    1.4095    0.1111 N   0  0  0  0  0  0  0  0  0  0  0  0
    0.1260    0.5211    0.1633 C   0  0  0  0  0  0  0  0  0  0  0  0
   -2.9018    2.1561   -0.0548 H   0  0  0  0  0  0  0  0  0  0  0  0
   -1.4428    2.6351   -0.9455 H   0  0  0  0  0  0  0  0  0  0  0  0
   -1.4825    2.7317    0.8307 H   0  0  0  0  0  0  0  0  0  0  0  0
   -3.1790   -0.2132   -0.1420 H   0  0  0  0  0  0  0  0  0  0  0  0
   -1.7722   -3.6156   -0.6977 H   0  0  0  0  0  0  0  0  0  0  0  0
   -3.7307   -3.7809   -1.6546 H   0  0  0  0  0  0  0  0  0  0  0  0
   -3.5188   -2.0557   -1.8463 H   0  0  0  0  0  0  0  0  0  0  0  0
   -5.7705   -2.7657   -1.1812 H   0  0  0  0  0  0  0  0  0  0  0  0
   -5.1131   -1.6205   -0.0167 H   0  0  0  0  0  0  0  0  0  0  0  0
   -6.7452   -2.5580    1.6717 H   0  0  0  0  0  0  0  0  0  0  0  0
   -6.6145   -4.2657    2.0964 H   0  0  0  0  0  0  0  0  0  0  0  0
   -7.5012   -4.9447   -0.1261 H   0  0  0  0  0  0  0  0  0  0  0  0
   -7.6877   -3.2428   -0.5746 H   0  0  0  0  0  0  0  0  0  0  0  0
   -9.1272   -4.5661    1.7675 H   0  0  0  0  0  0  0  0  0  0  0  0
   -9.8255   -4.1074    0.1963 H   0  0  0  0  0  0  0  0  0  0  0  0
   -4.3515   -4.0772    2.5534 H   0  0  0  0  0  0  0  0  0  0  0  0
   -4.2421   -2.3755    2.0987 H   0  0  0  0  0  0  0  0  0  0  0  0
   -2.7167   -4.7626    0.9683 H   0  0  0  0  0  0  0  0  0  0  0  0
   -2.0451   -3.4672    1.9386 H   0  0  0  0  0  0  0  0  0  0  0  0
    0.1819   -2.8943    0.3662 H   0  0  0  0  0  0  0  0  0  0  0  0
    2.6153   -1.3887    0.5590 H   0  0  0  0  0  0  0  0  0  0  0  0
    4.5400    0.2579   -3.0213 H   0  0  0  0  0  0  0  0  0  0  0  0
    2.9297    2.1637   -3.1405 H   0  0  0  0  0  0  0  0  0  0  0  0
    1.7712    1.0655   -2.3849 H   0  0  0  0  0  0  0  0  0  0  0  0
    2.0358   -0.5611   -4.2705 H   0  0  0  0  0  0  0  0  0  0  0  0
    3.1744    0.5404   -5.0576 H   0  0  0  0  0  0  0  0  0  0  0  0
   -0.4634    0.0766   -4.2598 H   0  0  0  0  0  0  0  0  0  0  0  0
    0.1265    3.6564   -6.6002 H   0  0  0  0  0  0  0  0  0  0  0  0
    6.2383    1.2605   -2.1300 H   0  0  0  0  0  0  0  0  0  0  0  0
    7.3685    2.1324   -0.1357 H   0  0  0  0  0  0  0  0  0  0  0  0
    6.1625    2.2162    1.9106 H   0  0  0  0  0  0  0  0  0  0  0  0
  1  2  1  0  0  0  0
  1 37  1  0  0  0  0
  1 38  1  0  0  0  0
  1 39  1  0  0  0  0
  2  3  1  0  0  0  0
  2 36  2  0  0  0  0
  3  4  2  0  0  0  0
  3 40  1  0  0  0  0
  4  5  1  0  0  0  0
  4 15  1  0  0  0  0
  5  6  1  0  0  0  0
  5 14  1  0  0  0  0
  5 41  1  0  0  0  0
  6  7  1  0  0  0  0
  6 42  1  0  0  0  0
  6 43  1  0  0  0  0
  7  8  1  0  0  0  0
  7 44  1  0  0  0  0
  7 45  1  0  0  0  0
  8  9  1  0  0  0  0
  8 13  1  0  0  0  0
  9 10  1  0  0  0  0
  9 46  1  0  0  0  0
  9 47  1  0  0  0  0
 10 11  1  0  0  0  0
 10 48  1  0  0  0  0
 10 49  1  0  0  0  0
 11 12  1  0  0  0  0
 11 50  1  0  0  0  0
 11 51  1  0  0  0  0
 13 14  1  0  0  0  0
 13 52  1  0  0  0  0
 13 53  1  0  0  0  0
 14 54  1  0  0  0  0
 14 55  1  0  0  0  0
 15 16  2  0  0  0  0
 15 56  1  0  0  0  0
 16 17  1  0  0  0  0
 16 36  1  0  0  0  0
 17 18  1  0  0  0  0
 17 57  1  0  0  0  0
 18 19  1  0  0  0  0
 18 35  2  0  0  0  0
 19 20  2  0  0  0  0
 19 33  1  0  0  0  0
 20 21  1  0  0  0  0
 20 30  1  0  0  0  0
 21 22  1  0  0  0  0
 21 58  1  0  0  0  0
 22 23  1  0  0  0  0
 22 59  1  0  0  0  0
 22 60  1  0  0  0  0
 23 24  1  0  0  0  0
 23 61  1  0  0  0  0
 23 62  1  0  0  0  0
 24 25  1  0  0  0  0
 24 29  1  0  0  0  0
 25 26  2  0  0  0  0
 25 63  1  0  0  0  0
 26 27  1  0  0  0  0
 26 28  1  0  0  0  0
 28 29  2  0  0  0  0
 28 64  1  0  0  0  0
 30 31  2  0  0  0  0
 30 65  1  0  0  0  0
 31 32  1  0  0  0  0
 31 66  1  0  0  0  0
 32 33  1  0  0  0  0
 32 67  1  0  0  0  0
 33 34  2  0  0  0  0
 35 36  1  0  0  0  0
M  END
$$$$
