CHEMBL2011291
 OpenBabel04072215363D

 40 43  0  0  0  0  0  0  0  0999 V2000
    1.2361    0.3137   -0.1066 N   0  0  0  0  0  0  0  0  0  0  0  0
    2.5774    0.1074    0.0298 C   0  0  0  0  0  0  0  0  0  0  0  0
    3.2712   -1.0939    0.0938 C   0  0  0  0  0  0  0  0  0  0  0  0
    2.6695   -2.4333    0.1392 C   0  0  0  0  0  0  0  0  0  0  0  0
    1.5275   -2.7555   -0.6077 C   0  0  0  0  0  0  0  0  0  0  0  0
    1.0383   -4.0654   -0.6382 C   0  0  0  0  0  0  0  0  0  0  0  0
    1.7237   -5.0707    0.0312 C   0  0  0  0  0  0  0  0  0  0  0  0
    1.2986   -6.3372   -0.0664 F   0  0  0  0  0  0  0  0  0  0  0  0
    2.8515   -4.7828    0.7811 C   0  0  0  0  0  0  0  0  0  0  0  0
    3.2926   -3.4602    0.8745 C   0  0  0  0  0  0  0  0  0  0  0  0
    4.6529   -0.7240    0.0183 C   0  0  0  0  0  0  0  0  0  0  0  0
    5.8192   -1.6164   -0.0642 C   0  0  0  0  0  0  0  0  0  0  0  0
    5.7681   -2.7898   -0.8271 C   0  0  0  0  0  0  0  0  0  0  0  0
    6.7692   -3.7318   -0.6694 C   0  0  0  0  0  0  0  0  0  0  0  0
    7.8449   -3.5499    0.1207 N   0  0  0  0  0  0  0  0  0  0  0  0
    7.9288   -2.3644    0.7651 C   0  0  0  0  0  0  0  0  0  0  0  0
    6.9561   -1.3796    0.7078 C   0  0  0  0  0  0  0  0  0  0  0  0
    4.7998    0.6071    0.0812 N   0  0  0  0  0  0  0  0  0  0  0  0
    3.5444    1.1324    0.0762 N   0  0  0  0  0  0  0  0  0  0  0  0
    3.3635    2.5552    0.1173 C   0  0  0  0  0  0  0  0  0  0  0  0
    4.2576    3.4153   -0.5654 C   0  0  0  0  0  0  0  0  0  0  0  0
    5.5907    2.8983   -1.5476 Cl  0  0  0  0  0  0  0  0  0  0  0  0
    4.0579    4.8079   -0.5685 C   0  0  0  0  0  0  0  0  0  0  0  0
    2.9675    5.3671    0.0802 C   0  0  0  0  0  0  0  0  0  0  0  0
    2.7136    7.0657    0.0466 Cl  0  0  0  0  0  0  0  0  0  0  0  0
    2.0945    4.5517    0.7829 C   0  0  0  0  0  0  0  0  0  0  0  0
    2.3088    3.1637    0.8333 C   0  0  0  0  0  0  0  0  0  0  0  0
    1.2906    2.3513    1.9829 Cl  0  0  0  0  0  0  0  0  0  0  0  0
    0.6124   -0.4032    0.2636 H   0  0  0  0  0  0  0  0  0  0  0  0
    0.8351    1.2336    0.0619 H   0  0  0  0  0  0  0  0  0  0  0  0
    1.0181   -2.0042   -1.2050 H   0  0  0  0  0  0  0  0  0  0  0  0
    0.1476   -4.3087   -1.2067 H   0  0  0  0  0  0  0  0  0  0  0  0
    3.3940   -5.5833    1.2755 H   0  0  0  0  0  0  0  0  0  0  0  0
    4.1711   -3.2582    1.4854 H   0  0  0  0  0  0  0  0  0  0  0  0
    4.9303   -3.0104   -1.4804 H   0  0  0  0  0  0  0  0  0  0  0  0
    6.7113   -4.6969   -1.1665 H   0  0  0  0  0  0  0  0  0  0  0  0
    8.8218   -2.2350    1.3701 H   0  0  0  0  0  0  0  0  0  0  0  0
    7.0692   -0.4639    1.2793 H   0  0  0  0  0  0  0  0  0  0  0  0
    4.7519    5.4590   -1.0961 H   0  0  0  0  0  0  0  0  0  0  0  0
    1.2524    4.9970    1.3066 H   0  0  0  0  0  0  0  0  0  0  0  0
  1  2  1  0  0  0  0
  1 29  1  0  0  0  0
  1 30  1  0  0  0  0
  2  3  2  0  0  0  0
  2 19  1  0  0  0  0
  3  4  1  0  0  0  0
  3 11  1  0  0  0  0
  4  5  1  0  0  0  0
  4 10  2  0  0  0  0
  5  6  2  0  0  0  0
  5 31  1  0  0  0  0
  6  7  1  0  0  0  0
  6 32  1  0  0  0  0
  7  8  1  0  0  0  0
  7  9  2  0  0  0  0
  9 10  1  0  0  0  0
  9 33  1  0  0  0  0
 10 34  1  0  0  0  0
 11 12  1  0  0  0  0
 11 18  2  0  0  0  0
 12 13  1  0  0  0  0
 12 17  2  0  0  0  0
 13 14  2  0  0  0  0
 13 35  1  0  0  0  0
 14 15  1  0  0  0  0
 14 36  1  0  0  0  0
 15 16  2  0  0  0  0
 16 17  1  0  0  0  0
 16 37  1  0  0  0  0
 17 38  1  0  0  0  0
 18 19  1  0  0  0  0
 19 20  1  0  0  0  0
 20 21  1  0  0  0  0
 20 27  2  0  0  0  0
 21 22  1  0  0  0  0
 21 23  2  0  0  0  0
 23 24  1  0  0  0  0
 23 39  1  0  0  0  0
 24 25  1  0  0  0  0
 24 26  2  0  0  0  0
 26 27  1  0  0  0  0
 26 40  1  0  0  0  0
 27 28  1  0  0  0  0
M  END
$$$$
