CHEMBL3822791
 OpenBabel04072215373D

 37 40  0  0  0  0  0  0  0  0999 V2000
    1.8456   -0.6714   -1.3871 C   0  0  0  0  0  0  0  0  0  0  0  0
    3.0005   -0.0543   -0.1934 S   0  0  0  0  0  0  0  0  0  0  0  0
    2.2954    0.1116    1.0629 O   0  0  0  0  0  0  0  0  0  0  0  0
    4.2033   -0.8603   -0.2678 O   0  0  0  0  0  0  0  0  0  0  0  0
    3.4127    1.5713   -0.7810 C   0  0  0  0  0  0  0  0  0  0  0  0
    4.4587    1.7366   -1.6778 C   0  0  0  0  0  0  0  0  0  0  0  0
    4.8009    3.0279   -2.0831 C   0  0  0  0  0  0  0  0  0  0  0  0
    4.1493    4.1531   -1.5981 C   0  0  0  0  0  0  0  0  0  0  0  0
    4.5571    5.3470   -2.0567 N   0  0  0  0  0  0  0  0  0  0  0  0
    3.9451    6.4520   -1.5916 C   0  0  0  0  0  0  0  0  0  0  0  0
    2.9415    6.4286   -0.6482 C   0  0  0  0  0  0  0  0  0  0  0  0
    2.5275    5.1984   -0.1288 C   0  0  0  0  0  0  0  0  0  0  0  0
    1.5416    5.1791    0.8956 N   0  0  0  0  0  0  0  0  0  0  0  0
    1.4535    6.0121    2.0431 C   0  0  0  0  0  0  0  0  0  0  0  0
    2.5333    6.7553    2.5271 C   0  0  0  0  0  0  0  0  0  0  0  0
    2.4412    7.5102    3.7034 C   0  0  0  0  0  0  0  0  0  0  0  0
    1.2321    7.4873    4.4119 C   0  0  0  0  0  0  0  0  0  0  0  0
    0.8328    8.2474    5.9058 S   0  0  0  0  0  0  0  0  0  0  0  0
   -0.7302    7.5546    5.8279 C   0  0  0  0  0  0  0  0  0  0  0  0
   -0.9966    6.8276    4.7669 N   0  0  0  0  0  0  0  0  0  0  0  0
    0.1257    6.7694    3.9543 C   0  0  0  0  0  0  0  0  0  0  0  0
    0.2396    6.0425    2.7498 C   0  0  0  0  0  0  0  0  0  0  0  0
    3.1091    4.0037   -0.6478 C   0  0  0  0  0  0  0  0  0  0  0  0
    2.7418    2.6858   -0.2660 C   0  0  0  0  0  0  0  0  0  0  0  0
    1.4843   -1.6409   -1.0345 H   0  0  0  0  0  0  0  0  0  0  0  0
    2.3503   -0.7928   -2.3470 H   0  0  0  0  0  0  0  0  0  0  0  0
    1.0092    0.0244   -1.4700 H   0  0  0  0  0  0  0  0  0  0  0  0
    5.0244    0.8879   -2.0526 H   0  0  0  0  0  0  0  0  0  0  0  0
    5.6225    3.1648   -2.7852 H   0  0  0  0  0  0  0  0  0  0  0  0
    4.3015    7.3909   -2.0057 H   0  0  0  0  0  0  0  0  0  0  0  0
    2.4885    7.3582   -0.3204 H   0  0  0  0  0  0  0  0  0  0  0  0
    1.2625    4.2413    1.1657 H   0  0  0  0  0  0  0  0  0  0  0  0
    3.4941    6.7285    2.0185 H   0  0  0  0  0  0  0  0  0  0  0  0
    3.2977    8.0657    4.0729 H   0  0  0  0  0  0  0  0  0  0  0  0
   -1.4551    7.7118    6.6159 H   0  0  0  0  0  0  0  0  0  0  0  0
   -0.6252    5.4911    2.3938 H   0  0  0  0  0  0  0  0  0  0  0  0
    1.9378    2.5190    0.4461 H   0  0  0  0  0  0  0  0  0  0  0  0
  1  2  1  0  0  0  0
  1 25  1  0  0  0  0
  1 26  1  0  0  0  0
  1 27  1  0  0  0  0
  2  3  2  0  0  0  0
  2  4  2  0  0  0  0
  2  5  1  0  0  0  0
  5  6  1  0  0  0  0
  5 24  2  0  0  0  0
  6  7  2  0  0  0  0
  6 28  1  0  0  0  0
  7  8  1  0  0  0  0
  7 29  1  0  0  0  0
  8  9  1  0  0  0  0
  8 23  2  0  0  0  0
  9 10  2  0  0  0  0
 10 11  1  0  0  0  0
 10 30  1  0  0  0  0
 11 12  2  0  0  0  0
 11 31  1  0  0  0  0
 12 13  1  0  0  0  0
 12 23  1  0  0  0  0
 13 14  1  0  0  0  0
 13 32  1  0  0  0  0
 14 15  1  0  0  0  0
 14 22  2  0  0  0  0
 15 16  2  0  0  0  0
 15 33  1  0  0  0  0
 16 17  1  0  0  0  0
 16 34  1  0  0  0  0
 17 18  1  0  0  0  0
 17 21  2  0  0  0  0
 18 19  1  0  0  0  0
 19 20  2  0  0  0  0
 19 35  1  0  0  0  0
 20 21  1  0  0  0  0
 21 22  1  0  0  0  0
 22 36  1  0  0  0  0
 23 24  1  0  0  0  0
 24 37  1  0  0  0  0
M  END
$$$$
