CHEMBL230003
 OpenBabel04072215363D

 68 73  0  0  1  0  0  0  0  0999 V2000
   -1.2066  -22.2320    3.1697 C   0  0  0  0  0  0  0  0  0  0  0  0
   -2.6375  -22.1823    3.1228 O   0  0  0  0  0  0  0  0  0  0  0  0
   -3.1708  -21.1043    2.4621 C   0  0  0  0  0  0  0  0  0  0  0  0
   -2.4625  -20.4695    1.4262 C   0  0  0  0  0  0  0  0  0  0  0  0
   -2.8919  -19.2918    0.8401 C   0  0  0  0  0  0  0  0  0  0  0  0
   -2.0934  -18.6964   -0.0533 N   0  0  0  0  0  0  0  0  0  0  0  0
   -2.4942  -17.5135   -0.5286 C   0  0  0  0  0  0  0  0  0  0  0  0
   -3.6281  -16.8932   -0.2175 N   0  0  0  0  0  0  0  0  0  0  0  0
   -4.4445  -17.5509    0.6341 C   0  0  0  0  0  0  0  0  0  0  0  0
   -5.6688  -16.9714    0.9738 O   0  0  0  0  0  0  0  0  0  0  0  0
   -6.1394  -15.9762    0.1437 C   0  0  0  0  0  0  0  0  0  0  0  0
   -6.1734  -16.1324   -1.2550 C   0  0  0  0  0  0  0  0  0  0  0  0
   -6.5770  -15.0946   -2.0978 C   0  0  0  0  0  0  0  0  0  0  0  0
   -6.9675  -13.9339   -1.4530 C   0  0  0  0  0  0  0  0  0  0  0  0
   -7.3627  -12.7678   -2.0310 O   0  0  0  0  0  0  0  0  0  0  0  0
   -7.5657  -11.9309   -0.9644 C   0  0  0  0  0  0  0  0  0  0  0  0
   -7.8683  -10.6751   -1.2987 N   0  0  0  0  0  0  0  0  0  0  0  0
   -7.7236   -9.5281   -0.4987 C   0  0  0  0  0  0  0  0  0  0  0  0
   -7.1915   -9.5264    0.7928 C   0  0  0  0  0  0  0  0  0  0  0  0
   -7.1253   -8.3487    1.5432 C   0  0  0  0  0  0  0  0  0  0  0  0
   -7.6136   -7.1527    1.0131 C   0  0  0  0  0  0  0  0  0  0  0  0
   -7.5135   -5.7320    1.9938 Cl  0  0  0  0  0  0  0  0  0  0  0  0
   -8.1667   -7.1222   -0.2729 C   0  0  0  0  0  0  0  0  0  0  0  0
   -8.6499   -5.9248   -0.7541 O   0  0  0  0  0  0  0  0  0  0  0  0
   -9.1817   -5.9841   -2.0814 C   0  0  0  0  0  0  0  0  0  0  0  0
   -9.7286   -4.6417   -2.5711 C   0  0  2  0  0  0  0  0  0  0  0  0
  -10.8786   -4.1273   -1.7015 C   0  0  0  0  0  0  0  0  0  0  0  0
  -11.8542   -3.4676   -2.6726 C   0  0  0  0  0  0  0  0  0  0  0  0
  -11.1960   -3.5743   -4.0381 C   0  0  0  0  0  0  0  0  0  0  0  0
  -10.3583   -4.7640   -3.9023 N   0  0  0  0  0  0  0  0  0  0  0  0
   -9.4084   -4.8944   -4.9991 C   0  0  0  0  0  0  0  0  0  0  0  0
   -8.2183   -8.3207   -1.0052 C   0  0  0  0  0  0  0  0  0  0  0  0
   -7.4002  -12.4944    0.2144 N   0  0  0  0  0  0  0  0  0  0  0  0
   -6.9940  -13.7622   -0.0804 C   0  0  0  0  0  0  0  0  0  0  0  0
   -6.5983  -14.8072    0.7586 C   0  0  0  0  0  0  0  0  0  0  0  0
   -4.1206  -18.7675    1.2339 C   0  0  0  0  0  0  0  0  0  0  0  0
   -4.9086  -19.4632    2.1762 C   0  0  0  0  0  0  0  0  0  0  0  0
   -4.4369  -20.6201    2.8109 C   0  0  0  0  0  0  0  0  0  0  0  0
   -5.3338  -21.0826    3.7300 O   0  0  0  0  0  0  0  0  0  0  0  0
   -4.9895  -22.1404    4.6084 C   0  0  0  0  0  0  0  0  0  0  0  0
   -0.9092  -22.7265    4.0986 H   0  0  0  0  0  0  0  0  0  0  0  0
   -0.7381  -21.2393    3.1771 H   0  0  0  0  0  0  0  0  0  0  0  0
   -0.8300  -22.8232    2.3284 H   0  0  0  0  0  0  0  0  0  0  0  0
   -1.5173  -20.8719    1.0702 H   0  0  0  0  0  0  0  0  0  0  0  0
   -1.8397  -17.0167   -1.2358 H   0  0  0  0  0  0  0  0  0  0  0  0
   -5.8290  -17.0619   -1.7025 H   0  0  0  0  0  0  0  0  0  0  0  0
   -6.5444  -15.1754   -3.1758 H   0  0  0  0  0  0  0  0  0  0  0  0
   -7.9730  -10.4917   -2.2888 H   0  0  0  0  0  0  0  0  0  0  0  0
   -6.8030  -10.4376    1.2390 H   0  0  0  0  0  0  0  0  0  0  0  0
   -6.6929   -8.3809    2.5394 H   0  0  0  0  0  0  0  0  0  0  0  0
  -10.0034   -6.7119   -2.1109 H   0  0  0  0  0  0  0  0  0  0  0  0
   -8.3789   -6.2959   -2.7604 H   0  0  0  0  0  0  0  0  0  0  0  0
   -8.9302   -3.8867   -2.5740 H   0  0  0  0  0  0  0  0  0  0  0  0
  -10.5183   -3.4114   -0.9555 H   0  0  0  0  0  0  0  0  0  0  0  0
  -11.3887   -4.9373   -1.1660 H   0  0  0  0  0  0  0  0  0  0  0  0
  -12.0591   -2.4277   -2.4013 H   0  0  0  0  0  0  0  0  0  0  0  0
  -12.8067   -4.0113   -2.6630 H   0  0  0  0  0  0  0  0  0  0  0  0
  -10.5953   -2.6785   -4.2381 H   0  0  0  0  0  0  0  0  0  0  0  0
  -11.9382   -3.6850   -4.8350 H   0  0  0  0  0  0  0  0  0  0  0  0
   -9.9416   -4.9605   -5.9541 H   0  0  0  0  0  0  0  0  0  0  0  0
   -8.8298   -5.8202   -4.9096 H   0  0  0  0  0  0  0  0  0  0  0  0
   -8.7088   -4.0541   -5.0509 H   0  0  0  0  0  0  0  0  0  0  0  0
   -8.6528   -8.3512   -1.9938 H   0  0  0  0  0  0  0  0  0  0  0  0
   -6.6039  -14.6835    1.8350 H   0  0  0  0  0  0  0  0  0  0  0  0
   -5.8882  -19.0773    2.4549 H   0  0  0  0  0  0  0  0  0  0  0  0
   -5.7181  -22.1213    5.4252 H   0  0  0  0  0  0  0  0  0  0  0  0
   -4.0077  -22.0094    5.0652 H   0  0  0  0  0  0  0  0  0  0  0  0
   -5.0854  -23.1077    4.1031 H   0  0  0  0  0  0  0  0  0  0  0  0
  1  2  1  0  0  0  0
  1 41  1  0  0  0  0
  1 42  1  0  0  0  0
  1 43  1  0  0  0  0
  2  3  1  0  0  0  0
  3  4  1  0  0  0  0
  3 38  2  0  0  0  0
  4  5  2  0  0  0  0
  4 44  1  0  0  0  0
  5  6  1  0  0  0  0
  5 36  1  0  0  0  0
  6  7  2  0  0  0  0
  7  8  1  0  0  0  0
  7 45  1  0  0  0  0
  8  9  2  0  0  0  0
  9 10  1  0  0  0  0
  9 36  1  0  0  0  0
 10 11  1  0  0  0  0
 11 12  1  0  0  0  0
 11 35  2  0  0  0  0
 12 13  2  0  0  0  0
 12 46  1  0  0  0  0
 13 14  1  0  0  0  0
 13 47  1  0  0  0  0
 14 15  1  0  0  0  0
 14 34  2  0  0  0  0
 15 16  1  0  0  0  0
 16 17  1  0  0  0  0
 16 33  2  0  0  0  0
 17 18  1  0  0  0  0
 17 48  1  0  0  0  0
 18 19  1  0  0  0  0
 18 32  2  0  0  0  0
 19 20  2  0  0  0  0
 19 49  1  0  0  0  0
 20 21  1  0  0  0  0
 20 50  1  0  0  0  0
 21 22  1  0  0  0  0
 21 23  2  0  0  0  0
 23 24  1  0  0  0  0
 23 32  1  0  0  0  0
 24 25  1  0  0  0  0
 25 51  1  0  0  0  0
 25 52  1  0  0  0  0
 26 27  1  0  0  0  0
 26 30  1  0  0  0  0
 26 25  1  0  0  0  0
 26 53  1  6  0  0  0
 27 28  1  0  0  0  0
 27 54  1  0  0  0  0
 27 55  1  0  0  0  0
 28 29  1  0  0  0  0
 28 56  1  0  0  0  0
 28 57  1  0  0  0  0
 29 30  1  0  0  0  0
 29 58  1  0  0  0  0
 29 59  1  0  0  0  0
 30 31  1  0  0  0  0
 31 60  1  0  0  0  0
 31 61  1  0  0  0  0
 31 62  1  0  0  0  0
 32 63  1  0  0  0  0
 33 34  1  0  0  0  0
 34 35  1  0  0  0  0
 35 64  1  0  0  0  0
 36 37  2  0  0  0  0
 37 38  1  0  0  0  0
 37 65  1  0  0  0  0
 38 39  1  0  0  0  0
 39 40  1  0  0  0  0
 40 66  1  0  0  0  0
 40 67  1  0  0  0  0
 40 68  1  0  0  0  0
M  END
$$$$
