CHEMBL4102831
 OpenBabel04072215383D

 54 57  0  0  0  0  0  0  0  0999 V2000
   -3.6917    3.1535    1.5139 C   0  0  0  0  0  0  0  0  0  0  0  0
   -3.2537    1.7477    1.3139 C   0  0  0  0  0  0  0  0  0  0  0  0
   -4.1073    0.7889    1.7202 N   0  0  0  0  0  0  0  0  0  0  0  0
   -3.4765   -0.3463    1.4078 N   0  0  0  0  0  0  0  0  0  0  0  0
   -2.2658   -0.1782    0.8286 C   0  0  0  0  0  0  0  0  0  0  0  0
   -1.4660   -1.1853    0.4226 N   0  0  0  0  0  0  0  0  0  0  0  0
   -0.3249   -0.7577   -0.1103 C   0  0  0  0  0  0  0  0  0  0  0  0
    0.0587    0.5678   -0.2345 C   0  0  0  0  0  0  0  0  0  0  0  0
   -0.7998    1.6095    0.1964 C   0  0  0  0  0  0  0  0  0  0  0  0
   -0.3963    3.0201    0.0497 C   0  0  0  0  0  0  0  0  0  0  0  0
    0.4458    3.4220   -0.9888 C   0  0  0  0  0  0  0  0  0  0  0  0
    0.8809    4.7420   -1.1047 C   0  0  0  0  0  0  0  0  0  0  0  0
    0.4546    5.7389   -0.2249 C   0  0  0  0  0  0  0  0  0  0  0  0
    0.9080    7.0812   -0.2927 N   0  0  0  0  0  0  0  0  0  0  0  0
    1.8104    7.5513   -1.2251 C   0  0  0  0  0  0  0  0  0  0  0  0
    2.3004    6.8898   -2.1361 O   0  0  0  0  0  0  0  0  0  0  0  0
    2.1548    8.8743   -1.0191 N   0  0  0  0  0  0  0  0  0  0  0  0
    3.0729    9.4874   -1.9057 C   0  0  0  0  0  0  0  0  0  0  0  0
    4.2002   10.1100   -1.3768 C   0  0  0  0  0  0  0  0  0  0  0  0
    5.0878   10.7703   -2.2254 C   0  0  0  0  0  0  0  0  0  0  0  0
    4.8618   10.7928   -3.6037 C   0  0  0  0  0  0  0  0  0  0  0  0
    3.7910   10.0818   -4.1622 C   0  0  0  0  0  0  0  0  0  0  0  0
    3.6373    9.9657   -5.6686 C   0  0  0  0  0  0  0  0  0  0  0  0
    4.8137    9.3844   -6.3522 N   0  0  0  0  0  0  0  0  0  0  0  0
    5.0894    8.0121   -5.9118 C   0  0  0  0  0  0  0  0  0  0  0  0
    4.6034    9.3812   -7.8033 C   0  0  0  0  0  0  0  0  0  0  0  0
    2.8804    9.4555   -3.2961 C   0  0  0  0  0  0  0  0  0  0  0  0
   -0.4177    5.3719    0.7913 C   0  0  0  0  0  0  0  0  0  0  0  0
   -0.7631    4.0234    0.9549 C   0  0  0  0  0  0  0  0  0  0  0  0
   -2.0408    1.1950    0.7609 C   0  0  0  0  0  0  0  0  0  0  0  0
   -4.7555    3.2198    1.7729 H   0  0  0  0  0  0  0  0  0  0  0  0
   -3.5362    3.7461    0.6084 H   0  0  0  0  0  0  0  0  0  0  0  0
   -3.1697    3.6077    2.3590 H   0  0  0  0  0  0  0  0  0  0  0  0
   -3.9302   -1.2400    1.6006 H   0  0  0  0  0  0  0  0  0  0  0  0
    0.3591   -1.5506   -0.4379 H   0  0  0  0  0  0  0  0  0  0  0  0
    1.0306    0.7794   -0.6678 H   0  0  0  0  0  0  0  0  0  0  0  0
    0.8185    2.7176   -1.7286 H   0  0  0  0  0  0  0  0  0  0  0  0
    1.5742    4.9362   -1.9133 H   0  0  0  0  0  0  0  0  0  0  0  0
    0.5378    7.7288    0.3883 H   0  0  0  0  0  0  0  0  0  0  0  0
    2.2200    9.1475   -0.0501 H   0  0  0  0  0  0  0  0  0  0  0  0
    4.4309   10.0345   -0.3185 H   0  0  0  0  0  0  0  0  0  0  0  0
    5.9730   11.2488   -1.8163 H   0  0  0  0  0  0  0  0  0  0  0  0
    5.5489   11.3318   -4.2525 H   0  0  0  0  0  0  0  0  0  0  0  0
    3.4730   10.9844   -6.0458 H   0  0  0  0  0  0  0  0  0  0  0  0
    2.7331    9.3930   -5.9133 H   0  0  0  0  0  0  0  0  0  0  0  0
    5.3003    7.9601   -4.8394 H   0  0  0  0  0  0  0  0  0  0  0  0
    5.9897    7.6333   -6.4120 H   0  0  0  0  0  0  0  0  0  0  0  0
    4.2627    7.3292   -6.1386 H   0  0  0  0  0  0  0  0  0  0  0  0
    4.4050   10.3916   -8.1757 H   0  0  0  0  0  0  0  0  0  0  0  0
    3.7681    8.7343   -8.0982 H   0  0  0  0  0  0  0  0  0  0  0  0
    5.5042    9.0282   -8.3197 H   0  0  0  0  0  0  0  0  0  0  0  0
    2.0210    8.9303   -3.7090 H   0  0  0  0  0  0  0  0  0  0  0  0
   -0.8111    6.0963    1.4991 H   0  0  0  0  0  0  0  0  0  0  0  0
   -1.2990    3.7583    1.8534 H   0  0  0  0  0  0  0  0  0  0  0  0
  1  2  1  0  0  0  0
  1 31  1  0  0  0  0
  1 32  1  0  0  0  0
  1 33  1  0  0  0  0
  2  3  2  0  0  0  0
  2 30  1  0  0  0  0
  3  4  1  0  0  0  0
  4  5  1  0  0  0  0
  4 34  1  0  0  0  0
  5  6  1  0  0  0  0
  5 30  2  0  0  0  0
  6  7  2  0  0  0  0
  7  8  1  0  0  0  0
  7 35  1  0  0  0  0
  8  9  2  0  0  0  0
  8 36  1  0  0  0  0
  9 10  1  0  0  0  0
  9 30  1  0  0  0  0
 10 11  1  0  0  0  0
 10 29  2  0  0  0  0
 11 12  2  0  0  0  0
 11 37  1  0  0  0  0
 12 13  1  0  0  0  0
 12 38  1  0  0  0  0
 13 14  1  0  0  0  0
 13 28  2  0  0  0  0
 14 15  1  0  0  0  0
 14 39  1  0  0  0  0
 15 16  2  0  0  0  0
 15 17  1  0  0  0  0
 17 18  1  0  0  0  0
 17 40  1  0  0  0  0
 18 19  1  0  0  0  0
 18 27  2  0  0  0  0
 19 20  2  0  0  0  0
 19 41  1  0  0  0  0
 20 21  1  0  0  0  0
 20 42  1  0  0  0  0
 21 22  2  0  0  0  0
 21 43  1  0  0  0  0
 22 23  1  0  0  0  0
 22 27  1  0  0  0  0
 23 24  1  0  0  0  0
 23 44  1  0  0  0  0
 23 45  1  0  0  0  0
 24 25  1  0  0  0  0
 24 26  1  0  0  0  0
 25 46  1  0  0  0  0
 25 47  1  0  0  0  0
 25 48  1  0  0  0  0
 26 49  1  0  0  0  0
 26 50  1  0  0  0  0
 26 51  1  0  0  0  0
 27 52  1  0  0  0  0
 28 29  1  0  0  0  0
 28 53  1  0  0  0  0
 29 54  1  0  0  0  0
M  END
$$$$
