CHEMBL185522
 OpenBabel04072215363D

 46 49  0  0  0  0  0  0  0  0999 V2000
    2.6367   -6.3453   -1.6152 C   0  0  0  0  0  0  0  0  0  0  0  0
    1.2139   -6.6366   -1.2349 C   0  0  0  0  0  0  0  0  0  0  0  0
    0.7709   -7.9623   -1.1878 C   0  0  0  0  0  0  0  0  0  0  0  0
   -0.5366   -8.2482   -0.8371 C   0  0  0  0  0  0  0  0  0  0  0  0
   -1.4260   -7.2077   -0.5461 C   0  0  0  0  0  0  0  0  0  0  0  0
   -1.0204   -5.8725   -0.6180 C   0  0  0  0  0  0  0  0  0  0  0  0
   -1.9131   -4.7937   -0.3857 N   0  0  0  0  0  0  0  0  0  0  0  0
   -3.2919   -4.9055   -0.3204 C   0  0  0  0  0  0  0  0  0  0  0  0
   -3.9284   -5.9449   -0.4273 O   0  0  0  0  0  0  0  0  0  0  0  0
   -3.9163   -3.6730   -0.1667 N   0  0  0  0  0  0  0  0  0  0  0  0
   -5.3336   -3.6210   -0.0565 C   0  0  0  0  0  0  0  0  0  0  0  0
   -5.9973   -4.4516    0.8454 C   0  0  0  0  0  0  0  0  0  0  0  0
   -7.3896   -4.4127    0.9508 C   0  0  0  0  0  0  0  0  0  0  0  0
   -8.1751   -3.6034    0.1144 C   0  0  0  0  0  0  0  0  0  0  0  0
   -9.6558   -3.6790    0.1269 C   0  0  0  0  0  0  0  0  0  0  0  0
  -10.4588   -2.5290   -0.0682 C   0  0  0  0  0  0  0  0  0  0  0  0
  -11.8688   -2.5874   -0.1254 C   0  0  0  0  0  0  0  0  0  0  0  0
  -12.5305   -3.8008    0.0158 C   0  0  0  0  0  0  0  0  0  0  0  0
  -11.7486   -4.9186    0.2131 C   0  0  0  0  0  0  0  0  0  0  0  0
  -10.3503   -4.8831    0.2741 C   0  0  0  0  0  0  0  0  0  0  0  0
   -9.8443   -6.2813    0.4741 C   0  0  0  0  0  0  0  0  0  0  0  0
  -11.0453   -7.0723    0.4770 N   0  0  0  0  0  0  0  0  0  0  0  0
  -12.1767   -6.3091    0.3628 C   0  0  0  0  0  0  0  0  0  0  0  0
  -13.3285   -6.7004    0.3877 O   0  0  0  0  0  0  0  0  0  0  0  0
   -7.4890   -2.7562   -0.7766 C   0  0  0  0  0  0  0  0  0  0  0  0
   -6.0881   -2.7520   -0.8497 C   0  0  0  0  0  0  0  0  0  0  0  0
   -5.3240   -1.7423   -2.0269 Cl  0  0  0  0  0  0  0  0  0  0  0  0
    0.3150   -5.5935   -0.9348 C   0  0  0  0  0  0  0  0  0  0  0  0
    3.1857   -7.2691   -1.8306 H   0  0  0  0  0  0  0  0  0  0  0  0
    3.1524   -5.8363   -0.7959 H   0  0  0  0  0  0  0  0  0  0  0  0
    2.6709   -5.7240   -2.5149 H   0  0  0  0  0  0  0  0  0  0  0  0
    1.4424   -8.7841   -1.4230 H   0  0  0  0  0  0  0  0  0  0  0  0
   -0.8900   -9.2752   -0.7894 H   0  0  0  0  0  0  0  0  0  0  0  0
   -2.4299   -7.4952   -0.2584 H   0  0  0  0  0  0  0  0  0  0  0  0
   -1.5159   -3.8700   -0.3248 H   0  0  0  0  0  0  0  0  0  0  0  0
   -3.5014   -2.9203   -0.6991 H   0  0  0  0  0  0  0  0  0  0  0  0
   -5.4448   -5.1485    1.4723 H   0  0  0  0  0  0  0  0  0  0  0  0
   -7.8407   -5.0479    1.7063 H   0  0  0  0  0  0  0  0  0  0  0  0
   -9.9943   -1.5509   -0.1846 H   0  0  0  0  0  0  0  0  0  0  0  0
  -12.4398   -1.6761   -0.2885 H   0  0  0  0  0  0  0  0  0  0  0  0
  -13.6123   -3.8759   -0.0343 H   0  0  0  0  0  0  0  0  0  0  0  0
   -9.3775   -6.4241    1.4491 H   0  0  0  0  0  0  0  0  0  0  0  0
   -9.1984   -6.6163   -0.3406 H   0  0  0  0  0  0  0  0  0  0  0  0
  -11.0916   -8.0669    0.6551 H   0  0  0  0  0  0  0  0  0  0  0  0
   -8.0472   -2.1142   -1.4550 H   0  0  0  0  0  0  0  0  0  0  0  0
    0.6651   -4.5666   -0.9882 H   0  0  0  0  0  0  0  0  0  0  0  0
  1  2  1  0  0  0  0
  1 29  1  0  0  0  0
  1 30  1  0  0  0  0
  1 31  1  0  0  0  0
  2  3  1  0  0  0  0
  2 28  2  0  0  0  0
  3  4  2  0  0  0  0
  3 32  1  0  0  0  0
  4  5  1  0  0  0  0
  4 33  1  0  0  0  0
  5  6  2  0  0  0  0
  5 34  1  0  0  0  0
  6  7  1  0  0  0  0
  6 28  1  0  0  0  0
  7  8  1  0  0  0  0
  7 35  1  0  0  0  0
  8  9  2  0  0  0  0
  8 10  1  0  0  0  0
 10 11  1  0  0  0  0
 10 36  1  0  0  0  0
 11 12  1  0  0  0  0
 11 26  2  0  0  0  0
 12 13  2  0  0  0  0
 12 37  1  0  0  0  0
 13 14  1  0  0  0  0
 13 38  1  0  0  0  0
 14 15  1  0  0  0  0
 14 25  2  0  0  0  0
 15 16  1  0  0  0  0
 15 20  2  0  0  0  0
 16 17  2  0  0  0  0
 16 39  1  0  0  0  0
 17 18  1  0  0  0  0
 17 40  1  0  0  0  0
 18 19  2  0  0  0  0
 18 41  1  0  0  0  0
 19 20  1  0  0  0  0
 19 23  1  0  0  0  0
 20 21  1  0  0  0  0
 21 22  1  0  0  0  0
 21 42  1  0  0  0  0
 21 43  1  0  0  0  0
 22 23  1  0  0  0  0
 22 44  1  0  0  0  0
 23 24  2  0  0  0  0
 25 26  1  0  0  0  0
 25 45  1  0  0  0  0
 26 27  1  0  0  0  0
 28 46  1  0  0  0  0
M  END
$$$$
