CHEMBL1762529
 OpenBabel04072215363D

 71 75  0  0  0  0  0  0  0  0999 V2000
    4.2715    2.5963   -2.8018 C   0  0  0  0  0  0  0  0  0  0  0  0
    4.4751    1.5016   -1.9139 O   0  0  0  0  0  0  0  0  0  0  0  0
    5.0307    0.3717   -2.4586 C   0  0  0  0  0  0  0  0  0  0  0  0
    5.3845    0.2132   -3.7986 C   0  0  0  0  0  0  0  0  0  0  0  0
    5.9386   -0.9923   -4.2461 C   0  0  0  0  0  0  0  0  0  0  0  0
    6.3795   -1.1783   -5.6783 C   0  0  0  0  0  0  0  0  0  0  0  0
    5.6007   -0.4066   -6.5815 O   0  0  0  0  0  0  0  0  0  0  0  0
    6.1712   -2.0100   -3.3167 C   0  0  0  0  0  0  0  0  0  0  0  0
    5.8691   -1.8657   -1.9456 C   0  0  0  0  0  0  0  0  0  0  0  0
    6.2213   -2.8968   -1.0571 N   0  0  0  0  0  0  0  0  0  0  0  0
    5.4610   -3.1301    0.1644 C   0  0  0  0  0  0  0  0  0  0  0  0
    7.4625   -3.5870   -1.0407 C   0  0  0  0  0  0  0  0  0  0  0  0
    8.6103   -2.9296   -1.4452 C   0  0  0  0  0  0  0  0  0  0  0  0
    9.7660   -3.6560   -1.4403 C   0  0  0  0  0  0  0  0  0  0  0  0
    9.8051   -4.9463   -1.0937 N   0  0  0  0  0  0  0  0  0  0  0  0
    8.6577   -5.5331   -0.7199 C   0  0  0  0  0  0  0  0  0  0  0  0
    8.6027   -6.9091   -0.4578 N   0  0  0  0  0  0  0  0  0  0  0  0
    9.3851   -7.9246   -1.0449 C   0  0  0  0  0  0  0  0  0  0  0  0
   10.7096   -7.7070   -1.4384 C   0  0  0  0  0  0  0  0  0  0  0  0
   11.4964   -8.6718   -2.0692 C   0  0  0  0  0  0  0  0  0  0  0  0
   12.8077   -8.4190   -2.4119 N   0  0  0  0  0  0  0  0  0  0  0  0
   13.6578   -7.4811   -1.6607 C   0  0  0  0  0  0  0  0  0  0  0  0
   14.1612   -6.3654   -2.5829 C   0  0  0  0  0  0  0  0  0  0  0  0
   14.8266   -6.9028   -3.7397 O   0  0  0  0  0  0  0  0  0  0  0  0
   13.9195   -7.7266   -4.4923 C   0  0  0  0  0  0  0  0  0  0  0  0
   13.3878   -8.9115   -3.6653 C   0  0  0  0  0  0  0  0  0  0  0  0
   10.8890   -9.9079   -2.3092 C   0  0  0  0  0  0  0  0  0  0  0  0
    9.5773  -10.2075   -1.8949 C   0  0  0  0  0  0  0  0  0  0  0  0
    9.0996  -11.5001   -2.0982 N   0  0  0  0  0  0  0  0  0  0  0  0
    8.0802  -12.0459   -1.1899 C   0  0  0  0  0  0  0  0  0  0  0  0
    8.0635  -13.5763   -1.3411 C   0  0  0  0  0  0  0  0  0  0  0  0
    7.8160  -13.9729   -2.7032 O   0  0  0  0  0  0  0  0  0  0  0  0
    8.8260  -13.4303   -3.5752 C   0  0  0  0  0  0  0  0  0  0  0  0
    8.8651  -11.8939   -3.5027 C   0  0  0  0  0  0  0  0  0  0  0  0
    8.8470   -9.2014   -1.2484 C   0  0  0  0  0  0  0  0  0  0  0  0
    7.4943   -4.8750   -0.6372 N   0  0  0  0  0  0  0  0  0  0  0  0
    5.2687   -0.6663   -1.5444 C   0  0  0  0  0  0  0  0  0  0  0  0
    3.8149    3.4109   -2.2324 H   0  0  0  0  0  0  0  0  0  0  0  0
    3.5816    2.3289   -3.6094 H   0  0  0  0  0  0  0  0  0  0  0  0
    5.2243    2.9613   -3.2001 H   0  0  0  0  0  0  0  0  0  0  0  0
    5.2505    1.0134   -4.5185 H   0  0  0  0  0  0  0  0  0  0  0  0
    6.2980   -2.2279   -5.9798 H   0  0  0  0  0  0  0  0  0  0  0  0
    7.4275   -0.8695   -5.7777 H   0  0  0  0  0  0  0  0  0  0  0  0
    4.6859   -0.7305   -6.5002 H   0  0  0  0  0  0  0  0  0  0  0  0
    6.6031   -2.9511   -3.6597 H   0  0  0  0  0  0  0  0  0  0  0  0
    4.4964   -2.6133    0.1776 H   0  0  0  0  0  0  0  0  0  0  0  0
    6.0301   -2.8076    1.0447 H   0  0  0  0  0  0  0  0  0  0  0  0
    5.2255   -4.1986    0.2836 H   0  0  0  0  0  0  0  0  0  0  0  0
    8.6149   -1.8859   -1.7288 H   0  0  0  0  0  0  0  0  0  0  0  0
   10.7144   -3.2199   -1.7340 H   0  0  0  0  0  0  0  0  0  0  0  0
    7.6393   -7.1505   -0.2740 H   0  0  0  0  0  0  0  0  0  0  0  0
   11.1483   -6.7324   -1.2679 H   0  0  0  0  0  0  0  0  0  0  0  0
   14.5139   -8.0497   -1.2791 H   0  0  0  0  0  0  0  0  0  0  0  0
   13.1651   -7.0482   -0.7842 H   0  0  0  0  0  0  0  0  0  0  0  0
   14.8828   -5.7415   -2.0466 H   0  0  0  0  0  0  0  0  0  0  0  0
   13.3391   -5.7186   -2.9118 H   0  0  0  0  0  0  0  0  0  0  0  0
   14.4611   -8.1005   -5.3668 H   0  0  0  0  0  0  0  0  0  0  0  0
   13.0941   -7.1011   -4.8542 H   0  0  0  0  0  0  0  0  0  0  0  0
   14.2124   -9.5892   -3.4174 H   0  0  0  0  0  0  0  0  0  0  0  0
   12.6682   -9.4644   -4.2790 H   0  0  0  0  0  0  0  0  0  0  0  0
   11.4777  -10.7065   -2.7523 H   0  0  0  0  0  0  0  0  0  0  0  0
    7.0952  -11.6385   -1.4482 H   0  0  0  0  0  0  0  0  0  0  0  0
    8.3088  -11.7948   -0.1479 H   0  0  0  0  0  0  0  0  0  0  0  0
    7.2694  -14.0017   -0.7206 H   0  0  0  0  0  0  0  0  0  0  0  0
    9.0161  -14.0109   -1.0136 H   0  0  0  0  0  0  0  0  0  0  0  0
    8.5927  -13.7539   -4.5943 H   0  0  0  0  0  0  0  0  0  0  0  0
    9.7985  -13.8575   -3.3015 H   0  0  0  0  0  0  0  0  0  0  0  0
    7.9011  -11.4864   -3.8336 H   0  0  0  0  0  0  0  0  0  0  0  0
    9.6425  -11.5206   -4.1787 H   0  0  0  0  0  0  0  0  0  0  0  0
    7.8281   -9.3977   -0.9298 H   0  0  0  0  0  0  0  0  0  0  0  0
    5.0196   -0.4975   -0.5016 H   0  0  0  0  0  0  0  0  0  0  0  0
  1  2  1  0  0  0  0
  1 38  1  0  0  0  0
  1 39  1  0  0  0  0
  1 40  1  0  0  0  0
  2  3  1  0  0  0  0
  3  4  1  0  0  0  0
  3 37  2  0  0  0  0
  4  5  2  0  0  0  0
  4 41  1  0  0  0  0
  5  6  1  0  0  0  0
  5  8  1  0  0  0  0
  6  7  1  0  0  0  0
  6 42  1  0  0  0  0
  6 43  1  0  0  0  0
  7 44  1  0  0  0  0
  8  9  2  0  0  0  0
  8 45  1  0  0  0  0
  9 10  1  0  0  0  0
  9 37  1  0  0  0  0
 10 11  1  0  0  0  0
 10 12  1  0  0  0  0
 11 46  1  0  0  0  0
 11 47  1  0  0  0  0
 11 48  1  0  0  0  0
 12 13  1  0  0  0  0
 12 36  2  0  0  0  0
 13 14  2  0  0  0  0
 13 49  1  0  0  0  0
 14 15  1  0  0  0  0
 14 50  1  0  0  0  0
 15 16  2  0  0  0  0
 16 17  1  0  0  0  0
 16 36  1  0  0  0  0
 17 18  1  0  0  0  0
 17 51  1  0  0  0  0
 18 19  1  0  0  0  0
 18 35  2  0  0  0  0
 19 20  2  0  0  0  0
 19 52  1  0  0  0  0
 20 21  1  0  0  0  0
 20 27  1  0  0  0  0
 21 22  1  0  0  0  0
 21 26  1  0  0  0  0
 22 23  1  0  0  0  0
 22 53  1  0  0  0  0
 22 54  1  0  0  0  0
 23 24  1  0  0  0  0
 23 55  1  0  0  0  0
 23 56  1  0  0  0  0
 24 25  1  0  0  0  0
 25 26  1  0  0  0  0
 25 57  1  0  0  0  0
 25 58  1  0  0  0  0
 26 59  1  0  0  0  0
 26 60  1  0  0  0  0
 27 28  2  0  0  0  0
 27 61  1  0  0  0  0
 28 29  1  0  0  0  0
 28 35  1  0  0  0  0
 29 30  1  0  0  0  0
 29 34  1  0  0  0  0
 30 31  1  0  0  0  0
 30 62  1  0  0  0  0
 30 63  1  0  0  0  0
 31 32  1  0  0  0  0
 31 64  1  0  0  0  0
 31 65  1  0  0  0  0
 32 33  1  0  0  0  0
 33 34  1  0  0  0  0
 33 66  1  0  0  0  0
 33 67  1  0  0  0  0
 34 68  1  0  0  0  0
 34 69  1  0  0  0  0
 35 70  1  0  0  0  0
 37 71  1  0  0  0  0
M  END
$$$$
