CHEMBL4475243
 OpenBabel04072215383D

 54 58  0  0  1  0  0  0  0  0999 V2000
    2.1207    4.7752   -1.8092 C   0  0  0  0  0  0  0  0  0  0  0  0
    2.8428    3.8443   -1.1742 C   0  0  0  0  0  0  0  0  0  0  0  0
    4.3019    4.0358   -0.9599 C   0  0  0  0  0  0  0  0  0  0  0  0
    4.8226    5.1367   -1.1254 O   0  0  0  0  0  0  0  0  0  0  0  0
    5.0112    2.9413   -0.5305 N   0  0  0  0  0  0  0  0  0  0  0  0
    4.6178    1.5446   -0.4882 C   0  0  0  0  0  0  0  0  0  0  0  0
    5.4327    0.9831    0.6595 C   0  0  0  0  0  0  0  0  0  0  0  0
    6.7560    1.7548    0.5619 C   0  0  2  0  0  0  0  0  0  0  0  0
    7.4698    1.8478    1.8205 N   0  0  0  0  0  0  0  0  0  0  0  0
    8.7152    1.3214    2.0256 C   0  0  0  0  0  0  0  0  0  0  0  0
    9.0264    1.4650    3.3612 C   0  0  0  0  0  0  0  0  0  0  0  0
   10.3092    0.9831    3.9435 C   0  0  0  0  0  0  0  0  0  0  0  0
   10.4762    0.4904    5.2154 C   0  0  0  0  0  0  0  0  0  0  0  0
   11.8528    0.2384    5.5369 C   0  0  0  0  0  0  0  0  0  0  0  0
   12.4417   -0.2256    6.7350 C   0  0  0  0  0  0  0  0  0  0  0  0
   13.8330   -0.3538    6.8382 C   0  0  0  0  0  0  0  0  0  0  0  0
   14.4593   -0.8710    8.1004 C   0  0  0  0  0  0  0  0  0  0  0  0
   14.6432   -0.0037    5.7529 C   0  0  0  0  0  0  0  0  0  0  0  0
   14.0962    0.4457    4.5443 C   0  0  0  0  0  0  0  0  0  0  0  0
   14.8111    0.8064    3.4349 O   0  0  0  0  0  0  0  0  0  0  0  0
   16.2262    0.7939    3.5231 C   0  0  0  0  0  0  0  0  0  0  0  0
   12.6894    0.5357    4.4597 C   0  0  0  0  0  0  0  0  0  0  0  0
   11.7684    0.9884    3.0741 S   0  0  0  0  0  0  0  0  0  0  0  0
    7.9625    2.1810    3.9863 C   0  0  0  0  0  0  0  0  0  0  0  0
    7.6774    2.7280    5.2509 C   0  0  0  0  0  0  0  0  0  0  0  0
    8.5202    2.6635    6.3558 N   0  0  0  0  0  0  0  0  0  0  0  0
    6.5383    3.4268    5.4211 N   0  0  0  0  0  0  0  0  0  0  0  0
    5.7204    3.5851    4.3663 C   0  0  0  0  0  0  0  0  0  0  0  0
    5.8770    3.1120    3.1213 N   0  0  0  0  0  0  0  0  0  0  0  0
    7.0228    2.4242    2.9859 C   0  0  0  0  0  0  0  0  0  0  0  0
    6.3900    3.0952   -0.0860 C   0  0  0  0  0  0  0  0  0  0  0  0
    1.0483    4.6649   -1.9230 H   0  0  0  0  0  0  0  0  0  0  0  0
    2.5817    5.6723   -2.2126 H   0  0  0  0  0  0  0  0  0  0  0  0
    2.3490    2.9835   -0.7497 H   0  0  0  0  0  0  0  0  0  0  0  0
    4.9186    1.0903   -1.4406 H   0  0  0  0  0  0  0  0  0  0  0  0
    3.5488    1.3874   -0.3500 H   0  0  0  0  0  0  0  0  0  0  0  0
    5.5714   -0.0998    0.5861 H   0  0  0  0  0  0  0  0  0  0  0  0
    4.9117    1.1840    1.6021 H   0  0  0  0  0  0  0  0  0  0  0  0
    7.4091    1.2119   -0.1363 H   0  0  0  0  0  0  0  0  0  0  0  0
    9.2643    0.8467    1.2208 H   0  0  0  0  0  0  0  0  0  0  0  0
    9.6598    0.3238    5.9088 H   0  0  0  0  0  0  0  0  0  0  0  0
   11.8024   -0.4764    7.5790 H   0  0  0  0  0  0  0  0  0  0  0  0
   13.7063   -1.0830    8.8663 H   0  0  0  0  0  0  0  0  0  0  0  0
   15.1560   -0.1322    8.5087 H   0  0  0  0  0  0  0  0  0  0  0  0
   14.9986   -1.8012    7.8937 H   0  0  0  0  0  0  0  0  0  0  0  0
   15.7188   -0.0981    5.8687 H   0  0  0  0  0  0  0  0  0  0  0  0
   16.6191    1.1435    2.5635 H   0  0  0  0  0  0  0  0  0  0  0  0
   16.5966   -0.2226    3.6856 H   0  0  0  0  0  0  0  0  0  0  0  0
   16.5828    1.4788    4.2989 H   0  0  0  0  0  0  0  0  0  0  0  0
    9.5022    2.7071    6.1114 H   0  0  0  0  0  0  0  0  0  0  0  0
    8.2261    3.3486    7.0439 H   0  0  0  0  0  0  0  0  0  0  0  0
    4.8290    4.1785    4.5450 H   0  0  0  0  0  0  0  0  0  0  0  0
    7.0125    3.2738   -0.9722 H   0  0  0  0  0  0  0  0  0  0  0  0
    6.4826    3.9668    0.5687 H   0  0  0  0  0  0  0  0  0  0  0  0
  1  2  2  0  0  0  0
  1 32  1  0  0  0  0
  1 33  1  0  0  0  0
  2  3  1  0  0  0  0
  2 34  1  0  0  0  0
  3  4  2  0  0  0  0
  3  5  1  0  0  0  0
  5  6  1  0  0  0  0
  5 31  1  0  0  0  0
  6  7  1  0  0  0  0
  6 35  1  0  0  0  0
  6 36  1  0  0  0  0
  7  8  1  0  0  0  0
  7 37  1  0  0  0  0
  7 38  1  0  0  0  0
  8 31  1  0  0  0  0
  8  9  1  0  0  0  0
  8 39  1  6  0  0  0
  9 10  1  0  0  0  0
  9 30  1  0  0  0  0
 10 11  2  0  0  0  0
 10 40  1  0  0  0  0
 11 12  1  0  0  0  0
 11 24  1  0  0  0  0
 12 13  2  0  0  0  0
 12 23  1  0  0  0  0
 13 14  1  0  0  0  0
 13 41  1  0  0  0  0
 14 15  1  0  0  0  0
 14 22  2  0  0  0  0
 15 16  2  0  0  0  0
 15 42  1  0  0  0  0
 16 17  1  0  0  0  0
 16 18  1  0  0  0  0
 17 43  1  0  0  0  0
 17 44  1  0  0  0  0
 17 45  1  0  0  0  0
 18 19  2  0  0  0  0
 18 46  1  0  0  0  0
 19 20  1  0  0  0  0
 19 22  1  0  0  0  0
 20 21  1  0  0  0  0
 21 47  1  0  0  0  0
 21 48  1  0  0  0  0
 21 49  1  0  0  0  0
 22 23  1  0  0  0  0
 24 25  1  0  0  0  0
 24 30  2  0  0  0  0
 25 26  1  0  0  0  0
 25 27  2  0  0  0  0
 26 50  1  0  0  0  0
 26 51  1  0  0  0  0
 27 28  1  0  0  0  0
 28 29  2  0  0  0  0
 28 52  1  0  0  0  0
 29 30  1  0  0  0  0
 31 53  1  0  0  0  0
 31 54  1  0  0  0  0
M  END
$$$$
