CHEMBL3657551
 OpenBabel04072215373D

 61 65  0  0  1  0  0  0  0  0999 V2000
    2.2564   -1.0375   -2.0108 C   0  0  0  0  0  0  0  0  0  0  0  0
    2.7660   -0.0204   -1.0543 C   0  0  0  0  0  0  0  0  0  0  0  0
    4.0749    0.2794   -1.0189 N   0  0  0  0  0  0  0  0  0  0  0  0
    4.1955    1.1941   -0.0113 N   0  0  0  0  0  0  0  0  0  0  0  0
    5.4160    1.8871    0.2533 C   0  0  0  0  0  0  0  0  0  0  0  0
    6.4321    1.8070   -0.6985 C   0  0  0  0  0  0  0  0  0  0  0  0
    7.5870    2.5443   -0.4916 C   0  0  0  0  0  0  0  0  0  0  0  0
    7.7027    3.2995    0.6692 C   0  0  0  0  0  0  0  0  0  0  0  0
    6.6702    3.3016    1.6153 C   0  0  0  0  0  0  0  0  0  0  0  0
    6.9318    4.0400    2.8067 N   0  0  0  0  0  0  0  0  0  0  0  0
    6.1746    4.0828    4.0016 C   0  0  0  0  0  0  0  0  0  0  0  0
    4.7870    4.1974    4.0434 C   0  0  0  0  0  0  0  0  0  0  0  0
    4.0804    4.1833    5.2620 C   0  0  0  0  0  0  0  0  0  0  0  0
    4.8051    3.9422    6.4417 C   0  0  0  0  0  0  0  0  0  0  0  0
    6.1952    3.8318    6.4280 C   0  0  0  0  0  0  0  0  0  0  0  0
    6.8803    4.0214    5.2136 C   0  0  0  0  0  0  0  0  0  0  0  0
    6.6216    3.3960    7.7210 C   0  0  0  0  0  0  0  0  0  0  0  0
    7.9815    2.9730    8.0685 C   0  0  0  0  0  0  0  0  0  0  0  0
    8.9525    3.5331    7.5466 O   0  0  0  0  0  0  0  0  0  0  0  0
    8.1679    1.7660    8.9873 C   0  0  0  0  0  0  0  0  0  0  0  0
    7.0168    1.2531    9.5079 F   0  0  0  0  0  0  0  0  0  0  0  0
    8.7710    0.7255    8.3384 F   0  0  0  0  0  0  0  0  0  0  0  0
    8.9651    2.0516   10.0561 F   0  0  0  0  0  0  0  0  0  0  0  0
    5.4900    3.3626    8.5133 C   0  0  0  0  0  0  0  0  0  0  0  0
    4.4128    3.7460    7.7493 N   0  0  0  0  0  0  0  0  0  0  0  0
    3.0563    3.8328    8.2459 C   0  0  0  0  0  0  0  0  0  0  0  0
    5.5151    2.6362    1.3940 N   0  0  0  0  0  0  0  0  0  0  0  0
    2.9852    1.4040    0.6116 C   0  0  0  0  0  0  0  0  0  0  0  0
    2.0209    0.7496   -0.1247 C   0  0  0  0  0  0  0  0  0  0  0  0
    0.5306    0.8968   -0.0140 C   0  0  0  0  0  0  0  0  0  0  0  0
   -0.1011   -0.3002    0.5430 N   0  0  0  0  0  0  0  0  0  0  0  0
    0.1506   -0.4435    1.9908 C   0  0  0  0  0  0  0  0  0  0  0  0
   -1.1304   -0.1101    2.7513 C   0  0  0  0  0  0  0  0  0  0  0  0
   -2.1212    0.3429    1.7002 C   0  0  1  0  0  0  0  0  0  0  0  0
   -2.1687    1.7696    1.7013 O   0  0  0  0  0  0  0  0  0  0  0  0
   -1.5705   -0.2432    0.4007 C   0  0  0  0  0  0  0  0  0  0  0  0
    3.0712   -1.5922   -2.4869 H   0  0  0  0  0  0  0  0  0  0  0  0
    1.6620   -0.5618   -2.7967 H   0  0  0  0  0  0  0  0  0  0  0  0
    1.6219   -1.7677   -1.4954 H   0  0  0  0  0  0  0  0  0  0  0  0
    6.3176    1.2254   -1.6091 H   0  0  0  0  0  0  0  0  0  0  0  0
    8.3870    2.5371   -1.2252 H   0  0  0  0  0  0  0  0  0  0  0  0
    8.6111    3.8678    0.8455 H   0  0  0  0  0  0  0  0  0  0  0  0
    7.9052    3.8670    3.0477 H   0  0  0  0  0  0  0  0  0  0  0  0
    4.2304    4.2928    3.1139 H   0  0  0  0  0  0  0  0  0  0  0  0
    2.9992    4.2779    5.2664 H   0  0  0  0  0  0  0  0  0  0  0  0
    7.9668    4.0054    5.2185 H   0  0  0  0  0  0  0  0  0  0  0  0
    5.3524    3.0733    9.5483 H   0  0  0  0  0  0  0  0  0  0  0  0
    3.0092    3.4051    9.2520 H   0  0  0  0  0  0  0  0  0  0  0  0
    2.3970    3.2698    7.5817 H   0  0  0  0  0  0  0  0  0  0  0  0
    2.7714    4.8869    8.2795 H   0  0  0  0  0  0  0  0  0  0  0  0
    2.9206    2.0835    1.4542 H   0  0  0  0  0  0  0  0  0  0  0  0
    0.1625    1.0608   -1.0356 H   0  0  0  0  0  0  0  0  0  0  0  0
    0.2820    1.8037    0.5545 H   0  0  0  0  0  0  0  0  0  0  0  0
    0.9784    0.1759    2.3558 H   0  0  0  0  0  0  0  0  0  0  0  0
    0.4321   -1.4824    2.1906 H   0  0  0  0  0  0  0  0  0  0  0  0
   -0.9523    0.6574    3.5123 H   0  0  0  0  0  0  0  0  0  0  0  0
   -1.4979   -1.0151    3.2494 H   0  0  0  0  0  0  0  0  0  0  0  0
   -3.1315   -0.0214    1.9095 H   0  0  0  0  0  0  0  0  0  0  0  0
   -2.1002    2.0875    0.7870 H   0  0  0  0  0  0  0  0  0  0  0  0
   -1.8940    0.3153   -0.4850 H   0  0  0  0  0  0  0  0  0  0  0  0
   -1.9309   -1.2722    0.2851 H   0  0  0  0  0  0  0  0  0  0  0  0
  1  2  1  0  0  0  0
  1 37  1  0  0  0  0
  1 38  1  0  0  0  0
  1 39  1  0  0  0  0
  2  3  2  0  0  0  0
  2 29  1  0  0  0  0
  3  4  1  0  0  0  0
  4  5  1  0  0  0  0
  4 28  1  0  0  0  0
  5  6  1  0  0  0  0
  5 27  2  0  0  0  0
  6  7  2  0  0  0  0
  6 40  1  0  0  0  0
  7  8  1  0  0  0  0
  7 41  1  0  0  0  0
  8  9  2  0  0  0  0
  8 42  1  0  0  0  0
  9 10  1  0  0  0  0
  9 27  1  0  0  0  0
 10 11  1  0  0  0  0
 10 43  1  0  0  0  0
 11 12  1  0  0  0  0
 11 16  2  0  0  0  0
 12 13  2  0  0  0  0
 12 44  1  0  0  0  0
 13 14  1  0  0  0  0
 13 45  1  0  0  0  0
 14 15  2  0  0  0  0
 14 25  1  0  0  0  0
 15 16  1  0  0  0  0
 15 17  1  0  0  0  0
 16 46  1  0  0  0  0
 17 18  1  0  0  0  0
 17 24  2  0  0  0  0
 18 19  2  0  0  0  0
 18 20  1  0  0  0  0
 20 21  1  0  0  0  0
 20 22  1  0  0  0  0
 20 23  1  0  0  0  0
 24 25  1  0  0  0  0
 24 47  1  0  0  0  0
 25 26  1  0  0  0  0
 26 48  1  0  0  0  0
 26 49  1  0  0  0  0
 26 50  1  0  0  0  0
 28 29  2  0  0  0  0
 28 51  1  0  0  0  0
 29 30  1  0  0  0  0
 30 31  1  0  0  0  0
 30 52  1  0  0  0  0
 30 53  1  0  0  0  0
 31 32  1  0  0  0  0
 31 36  1  0  0  0  0
 32 33  1  0  0  0  0
 32 54  1  0  0  0  0
 32 55  1  0  0  0  0
 33 34  1  0  0  0  0
 33 56  1  0  0  0  0
 33 57  1  0  0  0  0
 34 35  1  0  0  0  0
 34 36  1  0  0  0  0
 34 58  1  1  0  0  0
 35 59  1  0  0  0  0
 36 60  1  0  0  0  0
 36 61  1  0  0  0  0
M  END
$$$$
