CHEMBL465131
 OpenBabel04072215383D

 60 65  0  0  0  0  0  0  0  0999 V2000
    0.3258    3.1757   -2.4054 C   0  0  0  0  0  0  0  0  0  0  0  0
    0.0771    1.8233   -2.8305 N   0  0  0  0  0  0  0  0  0  0  0  0
    0.9641    0.9799   -3.4315 C   0  0  0  0  0  0  0  0  0  0  0  0
    0.4471   -0.2182   -3.5990 N   0  0  0  0  0  0  0  0  0  0  0  0
   -0.8382   -0.1279   -3.1174 C   0  0  0  0  0  0  0  0  0  0  0  0
   -1.7979   -1.2625   -3.0864 C   0  0  0  0  0  0  0  0  0  0  0  0
   -1.4642   -2.5599   -3.4046 C   0  0  0  0  0  0  0  0  0  0  0  0
   -2.5580   -3.4580   -3.2359 C   0  0  0  0  0  0  0  0  0  0  0  0
   -2.5086   -4.8035   -3.4382 N   0  0  0  0  0  0  0  0  0  0  0  0
   -3.6520   -5.4731   -3.2054 C   0  0  0  0  0  0  0  0  0  0  0  0
   -4.8464   -4.8989   -2.8145 C   0  0  0  0  0  0  0  0  0  0  0  0
   -4.9150   -3.5109   -2.6811 C   0  0  0  0  0  0  0  0  0  0  0  0
   -6.0824   -2.8379   -2.3718 O   0  0  0  0  0  0  0  0  0  0  0  0
   -7.2301   -3.1807   -3.0544 C   0  0  0  0  0  0  0  0  0  0  0  0
   -7.2253   -3.7495   -4.3262 C   0  0  0  0  0  0  0  0  0  0  0  0
   -8.4086   -4.2365   -4.8680 C   0  0  0  0  0  0  0  0  0  0  0  0
   -9.6210   -4.1096   -4.1867 C   0  0  0  0  0  0  0  0  0  0  0  0
  -10.8063   -4.7130   -4.6736 N   0  0  0  0  0  0  0  0  0  0  0  0
  -10.8094   -5.7817   -5.5474 C   0  0  0  0  0  0  0  0  0  0  0  0
   -9.8322   -6.4216   -5.9217 O   0  0  0  0  0  0  0  0  0  0  0  0
  -12.1420   -6.1931   -6.0782 C   0  0  0  0  0  0  0  0  0  0  0  0
  -12.5568   -5.4053   -7.2696 C   0  0  0  0  0  0  0  0  0  0  0  0
  -13.0189   -4.2860   -7.0690 O   0  0  0  0  0  0  0  0  0  0  0  0
  -12.3920   -6.0025   -8.5073 N   0  0  0  0  0  0  0  0  0  0  0  0
  -12.7375   -5.3008   -9.6781 C   0  0  0  0  0  0  0  0  0  0  0  0
  -12.3197   -3.9781   -9.8629 C   0  0  0  0  0  0  0  0  0  0  0  0
  -12.8156   -3.2262  -10.9246 C   0  0  0  0  0  0  0  0  0  0  0  0
  -13.7374   -3.7953  -11.7986 C   0  0  0  0  0  0  0  0  0  0  0  0
  -14.1024   -5.1359  -11.6538 C   0  0  0  0  0  0  0  0  0  0  0  0
  -13.5723   -5.9055  -10.6150 C   0  0  0  0  0  0  0  0  0  0  0  0
  -13.2743   -6.6384   -5.1537 C   0  0  0  0  0  0  0  0  0  0  0  0
  -12.4762   -7.6697   -5.8837 C   0  0  0  0  0  0  0  0  0  0  0  0
   -9.6560   -3.3793   -2.9970 C   0  0  0  0  0  0  0  0  0  0  0  0
   -8.4563   -2.9351   -2.4333 C   0  0  0  0  0  0  0  0  0  0  0  0
   -8.4963   -2.2981   -1.2534 F   0  0  0  0  0  0  0  0  0  0  0  0
   -3.7216   -2.7943   -2.8449 C   0  0  0  0  0  0  0  0  0  0  0  0
   -3.4336   -1.1164   -2.6364 S   0  0  0  0  0  0  0  0  0  0  0  0
   -1.0931    1.1445   -2.6541 C   0  0  0  0  0  0  0  0  0  0  0  0
    1.2979    3.5062   -2.7775 H   0  0  0  0  0  0  0  0  0  0  0  0
    0.3173    3.1931   -1.3119 H   0  0  0  0  0  0  0  0  0  0  0  0
   -0.4654    3.8176   -2.8007 H   0  0  0  0  0  0  0  0  0  0  0  0
    1.9663    1.2769   -3.7128 H   0  0  0  0  0  0  0  0  0  0  0  0
   -0.4716   -2.8660   -3.7144 H   0  0  0  0  0  0  0  0  0  0  0  0
   -3.5881   -6.5476   -3.3635 H   0  0  0  0  0  0  0  0  0  0  0  0
   -5.7179   -5.5257   -2.6573 H   0  0  0  0  0  0  0  0  0  0  0  0
   -6.3110   -3.8728   -4.8965 H   0  0  0  0  0  0  0  0  0  0  0  0
   -8.3519   -4.7158   -5.8432 H   0  0  0  0  0  0  0  0  0  0  0  0
  -11.6938   -4.3952   -4.3010 H   0  0  0  0  0  0  0  0  0  0  0  0
  -12.3619   -7.0113   -8.5400 H   0  0  0  0  0  0  0  0  0  0  0  0
  -11.6177   -3.5193   -9.1700 H   0  0  0  0  0  0  0  0  0  0  0  0
  -12.5083   -2.1905  -11.0427 H   0  0  0  0  0  0  0  0  0  0  0  0
  -14.1788   -3.1898  -12.5858 H   0  0  0  0  0  0  0  0  0  0  0  0
  -14.8329   -5.5694  -12.3318 H   0  0  0  0  0  0  0  0  0  0  0  0
  -13.8990   -6.9336  -10.4950 H   0  0  0  0  0  0  0  0  0  0  0  0
  -14.2997   -6.4941   -5.4857 H   0  0  0  0  0  0  0  0  0  0  0  0
  -13.1440   -6.5283   -4.0850 H   0  0  0  0  0  0  0  0  0  0  0  0
  -12.9363   -8.2221   -6.6904 H   0  0  0  0  0  0  0  0  0  0  0  0
  -11.7848   -8.2665   -5.2913 H   0  0  0  0  0  0  0  0  0  0  0  0
  -10.5817   -3.1961   -2.4597 H   0  0  0  0  0  0  0  0  0  0  0  0
   -1.9643    1.5923   -2.1984 H   0  0  0  0  0  0  0  0  0  0  0  0
  1  2  1  0  0  0  0
  1 39  1  0  0  0  0
  1 40  1  0  0  0  0
  1 41  1  0  0  0  0
  2  3  1  0  0  0  0
  2 38  1  0  0  0  0
  3  4  2  0  0  0  0
  3 42  1  0  0  0  0
  4  5  1  0  0  0  0
  5  6  1  0  0  0  0
  5 38  2  0  0  0  0
  6  7  2  0  0  0  0
  6 37  1  0  0  0  0
  7  8  1  0  0  0  0
  7 43  1  0  0  0  0
  8  9  1  0  0  0  0
  8 36  2  0  0  0  0
  9 10  2  0  0  0  0
 10 11  1  0  0  0  0
 10 44  1  0  0  0  0
 11 12  2  0  0  0  0
 11 45  1  0  0  0  0
 12 13  1  0  0  0  0
 12 36  1  0  0  0  0
 13 14  1  0  0  0  0
 14 15  1  0  0  0  0
 14 34  2  0  0  0  0
 15 16  2  0  0  0  0
 15 46  1  0  0  0  0
 16 17  1  0  0  0  0
 16 47  1  0  0  0  0
 17 18  1  0  0  0  0
 17 33  2  0  0  0  0
 18 19  1  0  0  0  0
 18 48  1  0  0  0  0
 19 20  2  0  0  0  0
 19 21  1  0  0  0  0
 21 22  1  0  0  0  0
 21 31  1  0  0  0  0
 21 32  1  0  0  0  0
 22 23  2  0  0  0  0
 22 24  1  0  0  0  0
 24 25  1  0  0  0  0
 24 49  1  0  0  0  0
 25 26  1  0  0  0  0
 25 30  2  0  0  0  0
 26 27  2  0  0  0  0
 26 50  1  0  0  0  0
 27 28  1  0  0  0  0
 27 51  1  0  0  0  0
 28 29  2  0  0  0  0
 28 52  1  0  0  0  0
 29 30  1  0  0  0  0
 29 53  1  0  0  0  0
 30 54  1  0  0  0  0
 31 32  1  0  0  0  0
 31 55  1  0  0  0  0
 31 56  1  0  0  0  0
 32 57  1  0  0  0  0
 32 58  1  0  0  0  0
 33 34  1  0  0  0  0
 33 59  1  0  0  0  0
 34 35  1  0  0  0  0
 36 37  1  0  0  0  0
 38 60  1  0  0  0  0
M  END
$$$$
