CHEMBL3919169
 OpenBabel04072215373D

 74 78  0  0  0  0  0  0  0  0999 V2000
    5.6956   -4.8125    2.0390 C   0  0  0  0  0  0  0  0  0  0  0  0
    6.1324   -5.3011    3.3164 O   0  0  0  0  0  0  0  0  0  0  0  0
    6.1088   -4.3461    4.3075 C   0  0  0  0  0  0  0  0  0  0  0  0
    6.2995   -2.9826    4.0106 C   0  0  0  0  0  0  0  0  0  0  0  0
    6.0558   -1.9789    4.9675 C   0  0  0  0  0  0  0  0  0  0  0  0
    6.0611   -0.5899    4.6993 C   0  0  0  0  0  0  0  0  0  0  0  0
    6.3010   -0.1712    3.4019 O   0  0  0  0  0  0  0  0  0  0  0  0
    5.6668    0.9542    2.9128 C   0  0  0  0  0  0  0  0  0  0  0  0
    6.4168    1.7639    2.0629 C   0  0  0  0  0  0  0  0  0  0  0  0
    5.8477    2.9087    1.4768 C   0  0  0  0  0  0  0  0  0  0  0  0
    4.5150    3.2731    1.7168 C   0  0  0  0  0  0  0  0  0  0  0  0
    3.8763    4.4034    1.1253 N   0  0  0  0  0  0  0  0  0  0  0  0
    4.4450    5.2908    0.2236 C   0  0  0  0  0  0  0  0  0  0  0  0
    5.6296    5.2845   -0.1012 O   0  0  0  0  0  0  0  0  0  0  0  0
    3.5244    6.2757   -0.4035 C   0  0  0  0  0  0  0  0  0  0  0  0
    3.7352    7.0190   -1.5146 C   0  0  0  0  0  0  0  0  0  0  0  0
    4.9858    7.1139   -2.3358 C   0  0  0  0  0  0  0  0  0  0  0  0
    2.6031    7.7551   -1.8856 N   0  0  0  0  0  0  0  0  0  0  0  0
    2.6194    8.9814   -2.6816 C   0  0  0  0  0  0  0  0  0  0  0  0
    1.7147    7.6764   -0.8006 N   0  0  0  0  0  0  0  0  0  0  0  0
    0.4036    8.1845   -0.8453 C   0  0  0  0  0  0  0  0  0  0  0  0
   -0.0820    8.9056    0.2518 C   0  0  0  0  0  0  0  0  0  0  0  0
   -1.3502    9.4912    0.2070 C   0  0  0  0  0  0  0  0  0  0  0  0
   -2.1570    9.3234   -0.9175 C   0  0  0  0  0  0  0  0  0  0  0  0
   -1.6882    8.5905   -2.0068 C   0  0  0  0  0  0  0  0  0  0  0  0
   -0.4034    8.0398   -1.9796 C   0  0  0  0  0  0  0  0  0  0  0  0
    2.1751    6.6873    0.0795 C   0  0  0  0  0  0  0  0  0  0  0  0
    1.6292    6.1882    1.0530 O   0  0  0  0  0  0  0  0  0  0  0  0
    3.7626    2.4489    2.5631 C   0  0  0  0  0  0  0  0  0  0  0  0
    4.3308    1.2958    3.1336 C   0  0  0  0  0  0  0  0  0  0  0  0
    3.5458    0.5207    3.8964 F   0  0  0  0  0  0  0  0  0  0  0  0
    5.8488    0.3165    5.7326 C   0  0  0  0  0  0  0  0  0  0  0  0
    5.5480   -0.1935    6.9797 C   0  0  0  0  0  0  0  0  0  0  0  0
    5.5040   -1.5066    7.2658 N   0  0  0  0  0  0  0  0  0  0  0  0
    5.7505   -2.3739    6.2797 C   0  0  0  0  0  0  0  0  0  0  0  0
    5.6799   -3.7230    6.5889 C   0  0  0  0  0  0  0  0  0  0  0  0
    5.8497   -4.7379    5.6332 C   0  0  0  0  0  0  0  0  0  0  0  0
    5.7543   -6.0855    5.9451 O   0  0  0  0  0  0  0  0  0  0  0  0
    5.5250   -6.3702    7.3447 C   0  0  0  0  0  0  0  0  0  0  0  0
    5.5087   -7.8805    7.6651 C   0  0  0  0  0  0  0  0  0  0  0  0
    6.8539   -8.5403    7.3667 C   0  0  0  0  0  0  0  0  0  0  0  0
    5.1497   -8.0844    9.1487 C   0  0  0  0  0  0  0  0  0  0  0  0
    4.4993   -8.5320    6.8943 O   0  0  0  0  0  0  0  0  0  0  0  0
    5.3620   -5.6562    1.4292 H   0  0  0  0  0  0  0  0  0  0  0  0
    6.5268   -4.3269    1.5149 H   0  0  0  0  0  0  0  0  0  0  0  0
    4.8464   -4.1211    2.1269 H   0  0  0  0  0  0  0  0  0  0  0  0
    6.6096   -2.6767    3.0145 H   0  0  0  0  0  0  0  0  0  0  0  0
    7.4524    1.5136    1.8422 H   0  0  0  0  0  0  0  0  0  0  0  0
    6.4894    3.4903    0.8226 H   0  0  0  0  0  0  0  0  0  0  0  0
    2.8958    4.5552    1.3642 H   0  0  0  0  0  0  0  0  0  0  0  0
    5.7394    6.3654   -2.0942 H   0  0  0  0  0  0  0  0  0  0  0  0
    5.4482    8.0970   -2.1870 H   0  0  0  0  0  0  0  0  0  0  0  0
    4.7576    6.9980   -3.3997 H   0  0  0  0  0  0  0  0  0  0  0  0
    3.5660    9.1208   -3.2129 H   0  0  0  0  0  0  0  0  0  0  0  0
    2.4517    9.8709   -2.0655 H   0  0  0  0  0  0  0  0  0  0  0  0
    1.8426    8.9335   -3.4521 H   0  0  0  0  0  0  0  0  0  0  0  0
    0.5446    9.0623    1.1264 H   0  0  0  0  0  0  0  0  0  0  0  0
   -1.7064   10.0818    1.0476 H   0  0  0  0  0  0  0  0  0  0  0  0
   -3.1514    9.7630   -0.9434 H   0  0  0  0  0  0  0  0  0  0  0  0
   -2.3248    8.4467   -2.8764 H   0  0  0  0  0  0  0  0  0  0  0  0
   -0.0532    7.4652   -2.8332 H   0  0  0  0  0  0  0  0  0  0  0  0
    2.7245    2.6683    2.7894 H   0  0  0  0  0  0  0  0  0  0  0  0
    5.8730    1.3864    5.5814 H   0  0  0  0  0  0  0  0  0  0  0  0
    5.3145    0.4673    7.8114 H   0  0  0  0  0  0  0  0  0  0  0  0
    5.4497   -3.9400    7.6254 H   0  0  0  0  0  0  0  0  0  0  0  0
    4.5439   -5.9595    7.6172 H   0  0  0  0  0  0  0  0  0  0  0  0
    6.3172   -5.9073    7.9471 H   0  0  0  0  0  0  0  0  0  0  0  0
    7.6595   -8.0971    7.9617 H   0  0  0  0  0  0  0  0  0  0  0  0
    7.1092   -8.4475    6.3058 H   0  0  0  0  0  0  0  0  0  0  0  0
    6.8165   -9.6137    7.5861 H   0  0  0  0  0  0  0  0  0  0  0  0
    5.8828   -7.6176    9.8159 H   0  0  0  0  0  0  0  0  0  0  0  0
    5.0859   -9.1502    9.3973 H   0  0  0  0  0  0  0  0  0  0  0  0
    4.1635   -7.6599    9.3732 H   0  0  0  0  0  0  0  0  0  0  0  0
    4.6264   -8.2364    5.9780 H   0  0  0  0  0  0  0  0  0  0  0  0
  1  2  1  0  0  0  0
  1 44  1  0  0  0  0
  1 45  1  0  0  0  0
  1 46  1  0  0  0  0
  2  3  1  0  0  0  0
  3  4  1  0  0  0  0
  3 37  2  0  0  0  0
  4  5  2  0  0  0  0
  4 47  1  0  0  0  0
  5  6  1  0  0  0  0
  5 35  1  0  0  0  0
  6  7  1  0  0  0  0
  6 32  2  0  0  0  0
  7  8  1  0  0  0  0
  8  9  1  0  0  0  0
  8 30  2  0  0  0  0
  9 10  2  0  0  0  0
  9 48  1  0  0  0  0
 10 11  1  0  0  0  0
 10 49  1  0  0  0  0
 11 12  1  0  0  0  0
 11 29  2  0  0  0  0
 12 13  1  0  0  0  0
 12 50  1  0  0  0  0
 13 14  2  0  0  0  0
 13 15  1  0  0  0  0
 15 16  2  0  0  0  0
 15 27  1  0  0  0  0
 16 17  1  0  0  0  0
 16 18  1  0  0  0  0
 17 51  1  0  0  0  0
 17 52  1  0  0  0  0
 17 53  1  0  0  0  0
 18 19  1  0  0  0  0
 18 20  1  0  0  0  0
 19 54  1  0  0  0  0
 19 55  1  0  0  0  0
 19 56  1  0  0  0  0
 20 21  1  0  0  0  0
 20 27  1  0  0  0  0
 21 22  1  0  0  0  0
 21 26  2  0  0  0  0
 22 23  2  0  0  0  0
 22 57  1  0  0  0  0
 23 24  1  0  0  0  0
 23 58  1  0  0  0  0
 24 25  2  0  0  0  0
 24 59  1  0  0  0  0
 25 26  1  0  0  0  0
 25 60  1  0  0  0  0
 26 61  1  0  0  0  0
 27 28  2  0  0  0  0
 29 30  1  0  0  0  0
 29 62  1  0  0  0  0
 30 31  1  0  0  0  0
 32 33  1  0  0  0  0
 32 63  1  0  0  0  0
 33 34  2  0  0  0  0
 33 64  1  0  0  0  0
 34 35  1  0  0  0  0
 35 36  2  0  0  0  0
 36 37  1  0  0  0  0
 36 65  1  0  0  0  0
 37 38  1  0  0  0  0
 38 39  1  0  0  0  0
 39 40  1  0  0  0  0
 39 66  1  0  0  0  0
 39 67  1  0  0  0  0
 40 41  1  0  0  0  0
 40 42  1  0  0  0  0
 40 43  1  0  0  0  0
 41 68  1  0  0  0  0
 41 69  1  0  0  0  0
 41 70  1  0  0  0  0
 42 71  1  0  0  0  0
 42 72  1  0  0  0  0
 42 73  1  0  0  0  0
 43 74  1  0  0  0  0
M  END
$$$$
