CHEMBL2011302
 OpenBabel04072215363D

 33 35  0  0  0  0  0  0  0  0999 V2000
    1.0643    0.1888   -0.2348 N   0  0  0  0  0  0  0  0  0  0  0  0
    2.4042    0.0025   -0.0307 C   0  0  0  0  0  0  0  0  0  0  0  0
    3.0803   -1.1933    0.1498 C   0  0  0  0  0  0  0  0  0  0  0  0
    2.4882   -2.5034    0.3197 C   0  0  0  0  0  0  0  0  0  0  0  0
    2.9840   -3.4063    0.9762 O   0  0  0  0  0  0  0  0  0  0  0  0
    1.3050   -2.6695   -0.3347 O   0  0  0  0  0  0  0  0  0  0  0  0
    4.4598   -0.8558    0.0744 C   0  0  0  0  0  0  0  0  0  0  0  0
    5.6075   -1.7721    0.0246 C   0  0  0  0  0  0  0  0  0  0  0  0
    5.5116   -3.0078   -0.6260 C   0  0  0  0  0  0  0  0  0  0  0  0
    6.5723   -3.8934   -0.5428 C   0  0  0  0  0  0  0  0  0  0  0  0
    7.7286   -3.6143    0.0888 N   0  0  0  0  0  0  0  0  0  0  0  0
    7.8261   -2.3931    0.6576 C   0  0  0  0  0  0  0  0  0  0  0  0
    6.8122   -1.4468    0.6474 C   0  0  0  0  0  0  0  0  0  0  0  0
    4.6239    0.4737    0.0197 N   0  0  0  0  0  0  0  0  0  0  0  0
    3.3788    1.0165    0.0062 N   0  0  0  0  0  0  0  0  0  0  0  0
    3.2127    2.4401    0.0585 C   0  0  0  0  0  0  0  0  0  0  0  0
    4.1107    3.2974   -0.6192 C   0  0  0  0  0  0  0  0  0  0  0  0
    5.4091    2.7676   -1.6397 Cl  0  0  0  0  0  0  0  0  0  0  0  0
    3.9407    4.6926   -0.5820 C   0  0  0  0  0  0  0  0  0  0  0  0
    2.8756    5.2524    0.1070 C   0  0  0  0  0  0  0  0  0  0  0  0
    2.6573    6.9574    0.1241 Cl  0  0  0  0  0  0  0  0  0  0  0  0
    1.9934    4.4364    0.7968 C   0  0  0  0  0  0  0  0  0  0  0  0
    2.1757    3.0441    0.8041 C   0  0  0  0  0  0  0  0  0  0  0  0
    1.1446    2.2101    1.9220 Cl  0  0  0  0  0  0  0  0  0  0  0  0
    0.4220   -0.3859    0.3224 H   0  0  0  0  0  0  0  0  0  0  0  0
    0.6996    1.1441   -0.2138 H   0  0  0  0  0  0  0  0  0  0  0  0
    1.1062   -1.8778   -0.8800 H   0  0  0  0  0  0  0  0  0  0  0  0
    4.6249   -3.3102   -1.1711 H   0  0  0  0  0  0  0  0  0  0  0  0
    6.5072   -4.8831   -0.9868 H   0  0  0  0  0  0  0  0  0  0  0  0
    8.7725   -2.1938    1.1517 H   0  0  0  0  0  0  0  0  0  0  0  0
    6.9577   -0.4879    1.1324 H   0  0  0  0  0  0  0  0  0  0  0  0
    4.6362    5.3432   -1.1101 H   0  0  0  0  0  0  0  0  0  0  0  0
    1.1792    4.8877    1.3622 H   0  0  0  0  0  0  0  0  0  0  0  0
  1  2  1  0  0  0  0
  1 25  1  0  0  0  0
  1 26  1  0  0  0  0
  2  3  2  0  0  0  0
  2 15  1  0  0  0  0
  3  4  1  0  0  0  0
  3  7  1  0  0  0  0
  4  5  2  0  0  0  0
  4  6  1  0  0  0  0
  6 27  1  0  0  0  0
  7  8  1  0  0  0  0
  7 14  2  0  0  0  0
  8  9  1  0  0  0  0
  8 13  2  0  0  0  0
  9 10  2  0  0  0  0
  9 28  1  0  0  0  0
 10 11  1  0  0  0  0
 10 29  1  0  0  0  0
 11 12  2  0  0  0  0
 12 13  1  0  0  0  0
 12 30  1  0  0  0  0
 13 31  1  0  0  0  0
 14 15  1  0  0  0  0
 15 16  1  0  0  0  0
 16 17  1  0  0  0  0
 16 23  2  0  0  0  0
 17 18  1  0  0  0  0
 17 19  2  0  0  0  0
 19 20  1  0  0  0  0
 19 32  1  0  0  0  0
 20 21  1  0  0  0  0
 20 22  2  0  0  0  0
 22 23  1  0  0  0  0
 22 33  1  0  0  0  0
 23 24  1  0  0  0  0
M  END
$$$$
