CHEMBL3985840
 OpenBabel04072215373D

 55 59  0  0  0  0  0  0  0  0999 V2000
   11.5376   -6.7094    0.2909 C   0  0  0  0  0  0  0  0  0  0  0  0
   10.1865   -6.3048    0.4528 O   0  0  0  0  0  0  0  0  0  0  0  0
    9.5928   -5.7846   -0.6684 C   0  0  0  0  0  0  0  0  0  0  0  0
   10.2448   -5.4734   -1.8651 C   0  0  0  0  0  0  0  0  0  0  0  0
    9.5219   -4.9228   -2.9155 C   0  0  0  0  0  0  0  0  0  0  0  0
    8.1529   -4.6498   -2.7742 C   0  0  0  0  0  0  0  0  0  0  0  0
    7.4565   -4.0348   -3.8750 C   0  0  0  0  0  0  0  0  0  0  0  0
    7.9376   -3.6786   -5.0395 N   0  0  0  0  0  0  0  0  0  0  0  0
    6.8332   -3.1513   -5.6377 C   0  0  0  0  0  0  0  0  0  0  0  0
    6.8872   -2.6879   -7.0253 C   0  0  0  0  0  0  0  0  0  0  0  0
    7.3503   -1.3299   -7.1351 O   0  0  0  0  0  0  0  0  0  0  0  0
    7.8421   -1.0410   -8.3821 C   0  0  0  0  0  0  0  0  0  0  0  0
    7.3129   -1.7188   -9.4734 C   0  0  0  0  0  0  0  0  0  0  0  0
    7.7971   -1.6233  -10.7420 C   0  0  0  0  0  0  0  0  0  0  0  0
    7.2267   -2.5161  -11.5364 N   0  0  0  0  0  0  0  0  0  0  0  0
    7.6463   -2.5576  -12.7850 C   0  0  0  0  0  0  0  0  0  0  0  0
    8.5917   -1.7811  -13.2925 N   0  0  0  0  0  0  0  0  0  0  0  0
    9.1860   -0.9029  -12.4556 C   0  0  0  0  0  0  0  0  0  0  0  0
   10.4687   -0.4640  -12.8905 N   0  0  0  0  0  0  0  0  0  0  0  0
   11.0145   -0.2873  -14.2081 C   0  0  0  0  0  0  0  0  0  0  0  0
   12.2965    0.2872  -14.2199 C   0  0  0  0  0  0  0  0  0  0  0  0
   13.0796    0.3288  -15.3728 C   0  0  0  0  0  0  0  0  0  0  0  0
   12.5992   -0.2208  -16.5570 C   0  0  0  0  0  0  0  0  0  0  0  0
   13.6515   -0.1943  -17.9286 Cl  0  0  0  0  0  0  0  0  0  0  0  0
   11.3215   -0.7946  -16.5795 C   0  0  0  0  0  0  0  0  0  0  0  0
   10.7049   -1.5533  -18.0108 Cl  0  0  0  0  0  0  0  0  0  0  0  0
   10.5287   -0.8239  -15.4094 C   0  0  0  0  0  0  0  0  0  0  0  0
    8.8182   -0.7439  -11.0624 C   0  0  0  0  0  0  0  0  0  0  0  0
    9.3088    0.0798   -9.9432 C   0  0  0  0  0  0  0  0  0  0  0  0
    8.8457   -0.0977   -8.5997 C   0  0  0  0  0  0  0  0  0  0  0  0
    9.4231    0.6814   -7.6230 O   0  0  0  0  0  0  0  0  0  0  0  0
    9.4733    0.1417   -6.2900 C   0  0  0  0  0  0  0  0  0  0  0  0
    5.7048   -3.1873   -4.9189 N   0  0  0  0  0  0  0  0  0  0  0  0
    6.1231   -3.7783   -3.7277 O   0  0  0  0  0  0  0  0  0  0  0  0
    7.5027   -4.9538   -1.5792 C   0  0  0  0  0  0  0  0  0  0  0  0
    8.2204   -5.5208   -0.5298 C   0  0  0  0  0  0  0  0  0  0  0  0
   11.8472   -7.1815    1.2259 H   0  0  0  0  0  0  0  0  0  0  0  0
   12.1907   -5.8478    0.1159 H   0  0  0  0  0  0  0  0  0  0  0  0
   11.6375   -7.4514   -0.5096 H   0  0  0  0  0  0  0  0  0  0  0  0
   11.3067   -5.6471   -2.0153 H   0  0  0  0  0  0  0  0  0  0  0  0
   10.0347   -4.6864   -3.8466 H   0  0  0  0  0  0  0  0  0  0  0  0
    5.8865   -2.7775   -7.4645 H   0  0  0  0  0  0  0  0  0  0  0  0
    7.5798   -3.3654   -7.5497 H   0  0  0  0  0  0  0  0  0  0  0  0
    6.4976   -2.4250   -9.3510 H   0  0  0  0  0  0  0  0  0  0  0  0
    7.2233   -3.3370  -13.4054 H   0  0  0  0  0  0  0  0  0  0  0  0
   10.9880   -1.3069  -12.6054 H   0  0  0  0  0  0  0  0  0  0  0  0
   12.7022    0.6796  -13.2894 H   0  0  0  0  0  0  0  0  0  0  0  0
   14.0774    0.7559  -15.3190 H   0  0  0  0  0  0  0  0  0  0  0  0
    9.5565   -1.3073  -15.4642 H   0  0  0  0  0  0  0  0  0  0  0  0
   10.0472    0.8595  -10.1297 H   0  0  0  0  0  0  0  0  0  0  0  0
   10.0434    0.8245   -5.6479 H   0  0  0  0  0  0  0  0  0  0  0  0
    9.9912   -0.8241   -6.2841 H   0  0  0  0  0  0  0  0  0  0  0  0
    8.4886    0.0653   -5.8161 H   0  0  0  0  0  0  0  0  0  0  0  0
    6.4411   -4.7568   -1.4509 H   0  0  0  0  0  0  0  0  0  0  0  0
    7.7249   -5.7279    0.4058 H   0  0  0  0  0  0  0  0  0  0  0  0
  1  2  1  0  0  0  0
  1 37  1  0  0  0  0
  1 38  1  0  0  0  0
  1 39  1  0  0  0  0
  2  3  1  0  0  0  0
  3  4  1  0  0  0  0
  3 36  2  0  0  0  0
  4  5  2  0  0  0  0
  4 40  1  0  0  0  0
  5  6  1  0  0  0  0
  5 41  1  0  0  0  0
  6  7  1  0  0  0  0
  6 35  2  0  0  0  0
  7  8  2  0  0  0  0
  7 34  1  0  0  0  0
  8  9  1  0  0  0  0
  9 10  1  0  0  0  0
  9 33  2  0  0  0  0
 10 11  1  0  0  0  0
 10 42  1  0  0  0  0
 10 43  1  0  0  0  0
 11 12  1  0  0  0  0
 12 13  1  0  0  0  0
 12 30  2  0  0  0  0
 13 14  2  0  0  0  0
 13 44  1  0  0  0  0
 14 15  1  0  0  0  0
 14 28  1  0  0  0  0
 15 16  2  0  0  0  0
 16 17  1  0  0  0  0
 16 45  1  0  0  0  0
 17 18  2  0  0  0  0
 18 19  1  0  0  0  0
 18 28  1  0  0  0  0
 19 20  1  0  0  0  0
 19 46  1  0  0  0  0
 20 21  1  0  0  0  0
 20 27  2  0  0  0  0
 21 22  2  0  0  0  0
 21 47  1  0  0  0  0
 22 23  1  0  0  0  0
 22 48  1  0  0  0  0
 23 24  1  0  0  0  0
 23 25  2  0  0  0  0
 25 26  1  0  0  0  0
 25 27  1  0  0  0  0
 27 49  1  0  0  0  0
 28 29  2  0  0  0  0
 29 30  1  0  0  0  0
 29 50  1  0  0  0  0
 30 31  1  0  0  0  0
 31 32  1  0  0  0  0
 32 51  1  0  0  0  0
 32 52  1  0  0  0  0
 32 53  1  0  0  0  0
 33 34  1  0  0  0  0
 35 36  1  0  0  0  0
 35 54  1  0  0  0  0
 36 55  1  0  0  0  0
M  END
$$$$
