CHEMBL3923551
 OpenBabel04072215373D

 75 79  0  0  0  0  0  0  0  0999 V2000
    2.8033    0.0167   -1.3777 C   0  0  0  0  0  0  0  0  0  0  0  0
    2.4608   -0.1232   -0.0073 O   0  0  0  0  0  0  0  0  0  0  0  0
    3.1811    0.5228    0.9521 C   0  0  0  0  0  0  0  0  0  0  0  0
    4.3972    1.1444    0.6869 C   0  0  0  0  0  0  0  0  0  0  0  0
    5.0648    1.9011    1.6743 C   0  0  0  0  0  0  0  0  0  0  0  0
    6.2198    2.6588    1.4330 C   0  0  0  0  0  0  0  0  0  0  0  0
    6.7166    2.7671    0.1024 N   0  0  0  0  0  0  0  0  0  0  0  0
    7.6150    3.7578   -0.3451 C   0  0  0  0  0  0  0  0  0  0  0  0
    8.5754    3.4466   -1.3043 C   0  0  0  0  0  0  0  0  0  0  0  0
    9.5576    4.3803   -1.6471 C   0  0  0  0  0  0  0  0  0  0  0  0
    9.5845    5.6494   -1.0612 C   0  0  0  0  0  0  0  0  0  0  0  0
   10.6462    6.5658   -1.2272 N   0  0  0  0  0  0  0  0  0  0  0  0
   11.7614    6.3726   -2.0163 C   0  0  0  0  0  0  0  0  0  0  0  0
   11.8994    5.4636   -2.8279 O   0  0  0  0  0  0  0  0  0  0  0  0
   12.7550    7.3083   -1.7452 N   0  0  0  0  0  0  0  0  0  0  0  0
   13.9791    7.2535   -2.4518 C   0  0  0  0  0  0  0  0  0  0  0  0
   14.0032    7.0630   -3.8384 C   0  0  0  0  0  0  0  0  0  0  0  0
   15.2145    6.9067   -4.5089 C   0  0  0  0  0  0  0  0  0  0  0  0
   16.4086    6.9356   -3.7941 C   0  0  0  0  0  0  0  0  0  0  0  0
   16.3911    7.1486   -2.4152 C   0  0  0  0  0  0  0  0  0  0  0  0
   15.1788    7.3349   -1.7449 C   0  0  0  0  0  0  0  0  0  0  0  0
    8.5391    6.0102   -0.2121 C   0  0  0  0  0  0  0  0  0  0  0  0
    7.5542    5.0760    0.1231 C   0  0  0  0  0  0  0  0  0  0  0  0
    6.8372    3.3384    2.4177 N   0  0  0  0  0  0  0  0  0  0  0  0
    6.2888    3.2810    3.6237 C   0  0  0  0  0  0  0  0  0  0  0  0
    5.1627    2.6415    3.9519 N   0  0  0  0  0  0  0  0  0  0  0  0
    4.5501    1.9657    2.9742 C   0  0  0  0  0  0  0  0  0  0  0  0
    3.3493    1.3188    3.2388 C   0  0  0  0  0  0  0  0  0  0  0  0
    2.6601    0.5895    2.2567 C   0  0  0  0  0  0  0  0  0  0  0  0
    1.4719    0.0323    2.6896 O   0  0  0  0  0  0  0  0  0  0  0  0
    1.1757   -1.2373    2.1013 C   0  0  0  0  0  0  0  0  0  0  0  0
   -0.0104   -1.9130    2.7849 C   0  0  0  0  0  0  0  0  0  0  0  0
   -0.2650   -3.2909    2.1468 C   0  0  0  0  0  0  0  0  0  0  0  0
    0.8872   -4.1991    2.2557 N   0  0  0  0  0  0  0  0  0  0  0  0
    1.1949   -4.5445    3.6548 C   0  0  0  0  0  0  0  0  0  0  0  0
    2.3880   -5.5167    3.7652 C   0  0  0  0  0  0  0  0  0  0  0  0
    2.2257   -6.7716    3.0086 N   0  0  0  0  0  0  0  0  0  0  0  0
    1.2353   -7.6458    3.6326 C   0  0  0  0  0  0  0  0  0  0  0  0
    1.8619   -6.4405    1.6154 C   0  0  0  0  0  0  0  0  0  0  0  0
    0.6988   -5.4247    1.4548 C   0  0  0  0  0  0  0  0  0  0  0  0
    3.4339   -0.8234   -1.6831 H   0  0  0  0  0  0  0  0  0  0  0  0
    3.2783    0.9695   -1.6248 H   0  0  0  0  0  0  0  0  0  0  0  0
    1.8733   -0.0255   -1.9518 H   0  0  0  0  0  0  0  0  0  0  0  0
    4.8474    1.0696   -0.2956 H   0  0  0  0  0  0  0  0  0  0  0  0
    6.9639    1.8445   -0.2395 H   0  0  0  0  0  0  0  0  0  0  0  0
    8.6173    2.4616   -1.7606 H   0  0  0  0  0  0  0  0  0  0  0  0
   10.3127    4.0553   -2.3540 H   0  0  0  0  0  0  0  0  0  0  0  0
   10.5781    7.4467   -0.7398 H   0  0  0  0  0  0  0  0  0  0  0  0
   12.8107    7.5896   -0.7773 H   0  0  0  0  0  0  0  0  0  0  0  0
   13.0759    7.0165   -4.4061 H   0  0  0  0  0  0  0  0  0  0  0  0
   15.2179    6.7378   -5.5826 H   0  0  0  0  0  0  0  0  0  0  0  0
   17.3512    6.7758   -4.3108 H   0  0  0  0  0  0  0  0  0  0  0  0
   17.3232    7.1404   -1.8570 H   0  0  0  0  0  0  0  0  0  0  0  0
   15.1858    7.4628   -0.6668 H   0  0  0  0  0  0  0  0  0  0  0  0
    8.4854    6.9982    0.2349 H   0  0  0  0  0  0  0  0  0  0  0  0
    6.7570    5.3735    0.8003 H   0  0  0  0  0  0  0  0  0  0  0  0
    6.8070    3.8092    4.4189 H   0  0  0  0  0  0  0  0  0  0  0  0
    2.9316    1.3870    4.2416 H   0  0  0  0  0  0  0  0  0  0  0  0
    2.0641   -1.8757    2.1648 H   0  0  0  0  0  0  0  0  0  0  0  0
    0.8666   -1.1042    1.0634 H   0  0  0  0  0  0  0  0  0  0  0  0
   -0.9015   -1.2847    2.6591 H   0  0  0  0  0  0  0  0  0  0  0  0
    0.1427   -1.9794    3.8678 H   0  0  0  0  0  0  0  0  0  0  0  0
   -0.4816   -3.1243    1.0822 H   0  0  0  0  0  0  0  0  0  0  0  0
   -1.1643   -3.7427    2.5815 H   0  0  0  0  0  0  0  0  0  0  0  0
    0.3125   -4.9739    4.1453 H   0  0  0  0  0  0  0  0  0  0  0  0
    1.4703   -3.6448    4.2143 H   0  0  0  0  0  0  0  0  0  0  0  0
    2.5865   -5.7329    4.8220 H   0  0  0  0  0  0  0  0  0  0  0  0
    3.2894   -5.0081    3.3964 H   0  0  0  0  0  0  0  0  0  0  0  0
    1.4996   -7.8394    4.6785 H   0  0  0  0  0  0  0  0  0  0  0  0
    1.2219   -8.6185    3.1297 H   0  0  0  0  0  0  0  0  0  0  0  0
    0.2193   -7.2390    3.6120 H   0  0  0  0  0  0  0  0  0  0  0  0
    1.6284   -7.3579    1.0606 H   0  0  0  0  0  0  0  0  0  0  0  0
    2.7545   -6.0239    1.1290 H   0  0  0  0  0  0  0  0  0  0  0  0
   -0.2467   -5.9136    1.7201 H   0  0  0  0  0  0  0  0  0  0  0  0
    0.6362   -5.1555    0.3928 H   0  0  0  0  0  0  0  0  0  0  0  0
  1  2  1  0  0  0  0
  1 41  1  0  0  0  0
  1 42  1  0  0  0  0
  1 43  1  0  0  0  0
  2  3  1  0  0  0  0
  3  4  1  0  0  0  0
  3 29  2  0  0  0  0
  4  5  2  0  0  0  0
  4 44  1  0  0  0  0
  5  6  1  0  0  0  0
  5 27  1  0  0  0  0
  6  7  1  0  0  0  0
  6 24  2  0  0  0  0
  7  8  1  0  0  0  0
  7 45  1  0  0  0  0
  8  9  1  0  0  0  0
  8 23  2  0  0  0  0
  9 10  2  0  0  0  0
  9 46  1  0  0  0  0
 10 11  1  0  0  0  0
 10 47  1  0  0  0  0
 11 12  1  0  0  0  0
 11 22  2  0  0  0  0
 12 13  1  0  0  0  0
 12 48  1  0  0  0  0
 13 14  2  0  0  0  0
 13 15  1  0  0  0  0
 15 16  1  0  0  0  0
 15 49  1  0  0  0  0
 16 17  1  0  0  0  0
 16 21  2  0  0  0  0
 17 18  2  0  0  0  0
 17 50  1  0  0  0  0
 18 19  1  0  0  0  0
 18 51  1  0  0  0  0
 19 20  2  0  0  0  0
 19 52  1  0  0  0  0
 20 21  1  0  0  0  0
 20 53  1  0  0  0  0
 21 54  1  0  0  0  0
 22 23  1  0  0  0  0
 22 55  1  0  0  0  0
 23 56  1  0  0  0  0
 24 25  1  0  0  0  0
 25 26  2  0  0  0  0
 25 57  1  0  0  0  0
 26 27  1  0  0  0  0
 27 28  2  0  0  0  0
 28 29  1  0  0  0  0
 28 58  1  0  0  0  0
 29 30  1  0  0  0  0
 30 31  1  0  0  0  0
 31 32  1  0  0  0  0
 31 59  1  0  0  0  0
 31 60  1  0  0  0  0
 32 33  1  0  0  0  0
 32 61  1  0  0  0  0
 32 62  1  0  0  0  0
 33 34  1  0  0  0  0
 33 63  1  0  0  0  0
 33 64  1  0  0  0  0
 34 35  1  0  0  0  0
 34 40  1  0  0  0  0
 35 36  1  0  0  0  0
 35 65  1  0  0  0  0
 35 66  1  0  0  0  0
 36 37  1  0  0  0  0
 36 67  1  0  0  0  0
 36 68  1  0  0  0  0
 37 38  1  0  0  0  0
 37 39  1  0  0  0  0
 38 69  1  0  0  0  0
 38 70  1  0  0  0  0
 38 71  1  0  0  0  0
 39 40  1  0  0  0  0
 39 72  1  0  0  0  0
 39 73  1  0  0  0  0
 40 74  1  0  0  0  0
 40 75  1  0  0  0  0
M  END
$$$$
