CHEMBL214258
 OpenBabel04072215363D

 43 46  0  0  0  0  0  0  0  0999 V2000
    1.1153   -0.1054   -1.6008 N   0  0  0  0  0  0  0  0  0  0  0  0
    2.4777   -0.2052   -1.3433 C   0  0  0  0  0  0  0  0  0  0  0  0
    3.2040    0.8690   -1.7165 N   0  0  0  0  0  0  0  0  0  0  0  0
    4.5189    0.8821   -1.4638 C   0  0  0  0  0  0  0  0  0  0  0  0
    5.2358   -0.0645   -0.8593 N   0  0  0  0  0  0  0  0  0  0  0  0
    4.4822   -1.1223   -0.5209 C   0  0  0  0  0  0  0  0  0  0  0  0
    5.1262   -2.4770    0.2699 S   0  0  0  0  0  0  0  0  0  0  0  0
    3.7118   -3.3167    0.3506 N   0  0  0  0  0  0  0  0  0  0  0  0
    2.7219   -2.6009   -0.2057 C   0  0  0  0  0  0  0  0  0  0  0  0
    1.3707   -3.1877   -0.1663 C   0  0  0  0  0  0  0  0  0  0  0  0
    0.9768   -3.9071    0.9586 C   0  0  0  0  0  0  0  0  0  0  0  0
   -0.3118   -4.4366    1.0582 C   0  0  0  0  0  0  0  0  0  0  0  0
   -1.2553   -4.2339    0.0489 C   0  0  0  0  0  0  0  0  0  0  0  0
   -2.5832   -4.7143    0.1200 N   0  0  0  0  0  0  0  0  0  0  0  0
   -3.1446   -5.3522    1.2077 C   0  0  0  0  0  0  0  0  0  0  0  0
   -2.6077   -5.4857    2.3016 O   0  0  0  0  0  0  0  0  0  0  0  0
   -4.3891   -5.8973    0.9116 N   0  0  0  0  0  0  0  0  0  0  0  0
   -5.0160   -6.7086    1.8929 C   0  0  0  0  0  0  0  0  0  0  0  0
   -5.1009   -6.3033    3.2301 C   0  0  0  0  0  0  0  0  0  0  0  0
   -5.5271   -7.1972    4.2234 C   0  0  0  0  0  0  0  0  0  0  0  0
   -5.5548   -6.7793    5.6728 C   0  0  0  0  0  0  0  0  0  0  0  0
   -5.2136   -5.4784    5.8811 F   0  0  0  0  0  0  0  0  0  0  0  0
   -6.7922   -6.9295    6.2264 F   0  0  0  0  0  0  0  0  0  0  0  0
   -4.7123   -7.5186    6.4464 F   0  0  0  0  0  0  0  0  0  0  0  0
   -5.8888   -8.5024    3.8482 C   0  0  0  0  0  0  0  0  0  0  0  0
   -5.8608   -8.8906    2.5055 C   0  0  0  0  0  0  0  0  0  0  0  0
   -5.4465   -7.9841    1.5353 C   0  0  0  0  0  0  0  0  0  0  0  0
   -5.3695   -8.3784    0.2553 F   0  0  0  0  0  0  0  0  0  0  0  0
   -0.8584   -3.5441   -1.0989 C   0  0  0  0  0  0  0  0  0  0  0  0
    0.4548   -3.0567   -1.2193 C   0  0  0  0  0  0  0  0  0  0  0  0
    3.1187   -1.2972   -0.7275 C   0  0  0  0  0  0  0  0  0  0  0  0
    0.8923    0.8470   -1.8730 H   0  0  0  0  0  0  0  0  0  0  0  0
    0.5233   -0.4818   -0.8696 H   0  0  0  0  0  0  0  0  0  0  0  0
    5.0589    1.7673   -1.7870 H   0  0  0  0  0  0  0  0  0  0  0  0
    1.6680   -4.0785    1.7812 H   0  0  0  0  0  0  0  0  0  0  0  0
   -0.5311   -5.0023    1.9578 H   0  0  0  0  0  0  0  0  0  0  0  0
   -3.2057   -4.4764   -0.6382 H   0  0  0  0  0  0  0  0  0  0  0  0
   -4.4660   -6.2487   -0.0359 H   0  0  0  0  0  0  0  0  0  0  0  0
   -4.7819   -5.2990    3.5129 H   0  0  0  0  0  0  0  0  0  0  0  0
   -6.1781   -9.2263    4.6091 H   0  0  0  0  0  0  0  0  0  0  0  0
   -6.1199   -9.9041    2.2160 H   0  0  0  0  0  0  0  0  0  0  0  0
   -1.5512   -3.3794   -1.9184 H   0  0  0  0  0  0  0  0  0  0  0  0
    0.7386   -2.5661   -2.1496 H   0  0  0  0  0  0  0  0  0  0  0  0
  1  2  1  0  0  0  0
  1 32  1  0  0  0  0
  1 33  1  0  0  0  0
  2  3  1  0  0  0  0
  2 31  2  0  0  0  0
  3  4  2  0  0  0  0
  4  5  1  0  0  0  0
  4 34  1  0  0  0  0
  5  6  2  0  0  0  0
  6  7  1  0  0  0  0
  6 31  1  0  0  0  0
  7  8  1  0  0  0  0
  8  9  2  0  0  0  0
  9 10  1  0  0  0  0
  9 31  1  0  0  0  0
 10 11  1  0  0  0  0
 10 30  2  0  0  0  0
 11 12  2  0  0  0  0
 11 35  1  0  0  0  0
 12 13  1  0  0  0  0
 12 36  1  0  0  0  0
 13 14  1  0  0  0  0
 13 29  2  0  0  0  0
 14 15  1  0  0  0  0
 14 37  1  0  0  0  0
 15 16  2  0  0  0  0
 15 17  1  0  0  0  0
 17 18  1  0  0  0  0
 17 38  1  0  0  0  0
 18 19  1  0  0  0  0
 18 27  2  0  0  0  0
 19 20  2  0  0  0  0
 19 39  1  0  0  0  0
 20 21  1  0  0  0  0
 20 25  1  0  0  0  0
 21 22  1  0  0  0  0
 21 23  1  0  0  0  0
 21 24  1  0  0  0  0
 25 26  2  0  0  0  0
 25 40  1  0  0  0  0
 26 27  1  0  0  0  0
 26 41  1  0  0  0  0
 27 28  1  0  0  0  0
 29 30  1  0  0  0  0
 29 42  1  0  0  0  0
 30 43  1  0  0  0  0
M  END
$$$$
