CHEMBL1241682
 OpenBabel04072215363D

 42 45  0  0  0  0  0  0  0  0999 V2000
   -2.7894   -2.3908   -1.6131 C   0  0  0  0  0  0  0  0  0  0  0  0
   -1.3439   -2.0607   -1.4039 C   0  0  0  0  0  0  0  0  0  0  0  0
   -0.3393   -2.9223   -1.8245 C   0  0  0  0  0  0  0  0  0  0  0  0
    0.9862   -2.5520   -1.6162 C   0  0  0  0  0  0  0  0  0  0  0  0
    1.2789   -1.3260   -1.0097 C   0  0  0  0  0  0  0  0  0  0  0  0
    2.6021   -0.8936   -0.7970 C   0  0  0  0  0  0  0  0  0  0  0  0
    2.8677    0.3596   -0.2233 C   0  0  0  0  0  0  0  0  0  0  0  0
    4.2464    0.8104   -0.0239 C   0  0  0  0  0  0  0  0  0  0  0  0
    5.1881    0.4937   -0.9326 N   0  0  0  0  0  0  0  0  0  0  0  0
    6.3058    1.1069   -0.4886 N   0  0  0  0  0  0  0  0  0  0  0  0
    7.5415    1.0240   -1.2614 C   0  0  0  0  0  0  0  0  0  0  0  0
    8.0262   -0.4215   -1.3881 C   0  0  0  0  0  0  0  0  0  0  0  0
    7.3896    1.6756   -2.6358 C   0  0  0  0  0  0  0  0  0  0  0  0
    6.1288    1.7664    0.6965 C   0  0  0  0  0  0  0  0  0  0  0  0
    7.0577    2.4542    1.3842 N   0  0  0  0  0  0  0  0  0  0  0  0
    6.5453    2.9818    2.5065 C   0  0  0  0  0  0  0  0  0  0  0  0
    5.2892    2.8714    2.9738 N   0  0  0  0  0  0  0  0  0  0  0  0
    4.3910    2.1667    2.2556 C   0  0  0  0  0  0  0  0  0  0  0  0
    3.1205    2.0703    2.8065 N   0  0  0  0  0  0  0  0  0  0  0  0
    4.7994    1.5845    1.0455 C   0  0  0  0  0  0  0  0  0  0  0  0
    1.7842    1.1728    0.1155 C   0  0  0  0  0  0  0  0  0  0  0  0
    0.4718    0.7217   -0.0597 C   0  0  0  0  0  0  0  0  0  0  0  0
    0.1965   -0.5124   -0.6238 C   0  0  0  0  0  0  0  0  0  0  0  0
   -1.0831   -0.8755   -0.8032 N   0  0  0  0  0  0  0  0  0  0  0  0
   -2.9196   -3.3578   -2.1073 H   0  0  0  0  0  0  0  0  0  0  0  0
   -3.2562   -1.6218   -2.2372 H   0  0  0  0  0  0  0  0  0  0  0  0
   -3.3071   -2.4251   -0.6492 H   0  0  0  0  0  0  0  0  0  0  0  0
   -0.5762   -3.8616   -2.3127 H   0  0  0  0  0  0  0  0  0  0  0  0
    1.7823   -3.2147   -1.9444 H   0  0  0  0  0  0  0  0  0  0  0  0
    3.4351   -1.5290   -1.0964 H   0  0  0  0  0  0  0  0  0  0  0  0
    8.3027    1.5852   -0.7070 H   0  0  0  0  0  0  0  0  0  0  0  0
    7.3000   -1.0467   -1.9188 H   0  0  0  0  0  0  0  0  0  0  0  0
    8.1910   -0.8649   -0.4006 H   0  0  0  0  0  0  0  0  0  0  0  0
    8.9710   -0.4638   -1.9400 H   0  0  0  0  0  0  0  0  0  0  0  0
    6.6433    1.1583   -3.2489 H   0  0  0  0  0  0  0  0  0  0  0  0
    8.3404    1.6578   -3.1790 H   0  0  0  0  0  0  0  0  0  0  0  0
    7.0759    2.7209   -2.5408 H   0  0  0  0  0  0  0  0  0  0  0  0
    7.2301    3.5611    3.1192 H   0  0  0  0  0  0  0  0  0  0  0  0
    3.1295    2.3767    3.7734 H   0  0  0  0  0  0  0  0  0  0  0  0
    2.6435    1.1945    2.6336 H   0  0  0  0  0  0  0  0  0  0  0  0
    1.9358    2.1769    0.5051 H   0  0  0  0  0  0  0  0  0  0  0  0
   -0.3567    1.3632    0.2312 H   0  0  0  0  0  0  0  0  0  0  0  0
  1  2  1  0  0  0  0
  1 25  1  0  0  0  0
  1 26  1  0  0  0  0
  1 27  1  0  0  0  0
  2  3  1  0  0  0  0
  2 24  2  0  0  0  0
  3  4  2  0  0  0  0
  3 28  1  0  0  0  0
  4  5  1  0  0  0  0
  4 29  1  0  0  0  0
  5  6  1  0  0  0  0
  5 23  2  0  0  0  0
  6  7  2  0  0  0  0
  6 30  1  0  0  0  0
  7  8  1  0  0  0  0
  7 21  1  0  0  0  0
  8  9  2  0  0  0  0
  8 20  1  0  0  0  0
  9 10  1  0  0  0  0
 10 11  1  0  0  0  0
 10 14  1  0  0  0  0
 11 12  1  0  0  0  0
 11 13  1  0  0  0  0
 11 31  1  0  0  0  0
 12 32  1  0  0  0  0
 12 33  1  0  0  0  0
 12 34  1  0  0  0  0
 13 35  1  0  0  0  0
 13 36  1  0  0  0  0
 13 37  1  0  0  0  0
 14 15  1  0  0  0  0
 14 20  2  0  0  0  0
 15 16  2  0  0  0  0
 16 17  1  0  0  0  0
 16 38  1  0  0  0  0
 17 18  2  0  0  0  0
 18 19  1  0  0  0  0
 18 20  1  0  0  0  0
 19 39  1  0  0  0  0
 19 40  1  0  0  0  0
 21 22  2  0  0  0  0
 21 41  1  0  0  0  0
 22 23  1  0  0  0  0
 22 42  1  0  0  0  0
 23 24  1  0  0  0  0
M  END
$$$$
