CHEMBL3947361
 OpenBabel04072215373D

 68 70  0  0  0  0  0  0  0  0999 V2000
    3.4839   -1.3848   -0.3234 C   0  0  0  0  0  0  0  0  0  0  0  0
    2.9545   -0.6251    0.6883 O   0  0  0  0  0  0  0  0  0  0  0  0
    3.3621    0.5958    1.1221 C   0  0  0  0  0  0  0  0  0  0  0  0
    2.5540    1.2007    2.0427 C   0  0  0  0  0  0  0  0  0  0  0  0
    2.8445    2.4459    2.5499 C   0  0  0  0  0  0  0  0  0  0  0  0
    2.0360    3.0161    3.4850 O   0  0  0  0  0  0  0  0  0  0  0  0
    0.9648    2.5053    4.1740 C   0  0  0  0  0  0  0  0  0  0  0  0
    3.9900    3.1614    2.1021 C   0  0  0  0  0  0  0  0  0  0  0  0
    4.0312    4.5141    2.7628 C   0  0  0  0  0  0  0  0  0  0  0  0
    4.9168    2.5703    1.0852 C   0  0  0  0  0  0  0  0  0  0  0  0
    6.1677    3.1415    0.4460 N   0  0  0  0  0  0  0  0  0  0  0  0
    6.6266    2.6133   -0.8715 C   0  0  0  0  0  0  0  0  0  0  0  0
    5.5048    2.6442   -1.9301 C   0  0  0  0  0  0  0  0  0  0  0  0
    5.9636    2.3944   -3.3102 N   0  0  0  0  0  0  0  0  0  0  0  0
    4.7975    2.1522   -4.1992 C   0  0  0  0  0  0  0  0  0  0  0  0
    3.8391    3.3596   -4.2292 C   0  0  0  0  0  0  0  0  0  0  0  0
    5.2460    1.8354   -5.6305 C   0  0  0  0  0  0  0  0  0  0  0  0
    7.0806    4.1502    1.0069 C   0  0  0  0  0  0  0  0  0  0  0  0
    6.6344    5.2790    1.6698 C   0  0  0  0  0  0  0  0  0  0  0  0
    7.4270    6.2123    2.2875 C   0  0  0  0  0  0  0  0  0  0  0  0
    8.7758    6.1358    2.1405 C   0  0  0  0  0  0  0  0  0  0  0  0
    9.5435    7.1135    2.6651 N   0  0  0  0  0  0  0  0  0  0  0  0
   10.8683    7.1438    2.4386 C   0  0  0  0  0  0  0  0  0  0  0  0
   11.4517    6.1448    1.6433 C   0  0  0  0  0  0  0  0  0  0  0  0
   12.8726    6.1837    1.3369 C   0  0  0  0  0  0  0  0  0  0  0  0
   13.5464    5.3220    0.5059 C   0  0  0  0  0  0  0  0  0  0  0  0
   14.8484    5.6670    0.4891 N   0  0  0  0  0  0  0  0  0  0  0  0
   14.9897    6.7245    1.2837 N   0  0  0  0  0  0  0  0  0  0  0  0
   16.2557    7.3776    1.5622 C   0  0  0  0  0  0  0  0  0  0  0  0
   13.8134    7.0727    1.8070 C   0  0  0  0  0  0  0  0  0  0  0  0
   10.6774    5.1344    1.1438 N   0  0  0  0  0  0  0  0  0  0  0  0
    9.3389    5.1032    1.3707 C   0  0  0  0  0  0  0  0  0  0  0  0
    8.5072    4.0883    0.8322 C   0  0  0  0  0  0  0  0  0  0  0  0
    4.5289    1.2506    0.6692 C   0  0  0  0  0  0  0  0  0  0  0  0
    0.5524   -1.8453    2.4168 Cl  0  0  0  0  0  0  0  0  0  0  0  0
    2.8861   -2.3187   -0.4052 H   0  0  0  0  0  0  0  0  0  0  0  0
    4.5322   -1.6527   -0.0901 H   0  0  0  0  0  0  0  0  0  0  0  0
    3.4135   -0.8398   -1.2882 H   0  0  0  0  0  0  0  0  0  0  0  0
    1.6668    0.6979    2.3933 H   0  0  0  0  0  0  0  0  0  0  0  0
    0.6071    3.2912    4.8745 H   0  0  0  0  0  0  0  0  0  0  0  0
    1.2887    1.6285    4.7698 H   0  0  0  0  0  0  0  0  0  0  0  0
    0.1433    2.2510    3.4760 H   0  0  0  0  0  0  0  0  0  0  0  0
    3.2626    4.8063    3.5012 H   0  0  0  0  0  0  0  0  0  0  0  0
    3.7784    5.2608    1.9779 H   0  0  0  0  0  0  0  0  0  0  0  0
    4.9486    4.5885    3.3796 H   0  0  0  0  0  0  0  0  0  0  0  0
    7.0817    1.6034   -0.7789 H   0  0  0  0  0  0  0  0  0  0  0  0
    7.4096    3.2780   -1.3027 H   0  0  0  0  0  0  0  0  0  0  0  0
    5.0661    3.6584   -1.8758 H   0  0  0  0  0  0  0  0  0  0  0  0
    4.7247    1.9039   -1.6938 H   0  0  0  0  0  0  0  0  0  0  0  0
    6.5649    1.5353   -3.3242 H   0  0  0  0  0  0  0  0  0  0  0  0
    4.2341    1.2616   -3.8370 H   0  0  0  0  0  0  0  0  0  0  0  0
    4.3772    4.2710   -4.5656 H   0  0  0  0  0  0  0  0  0  0  0  0
    3.3915    3.5497   -3.2328 H   0  0  0  0  0  0  0  0  0  0  0  0
    2.9872    3.1586   -4.9091 H   0  0  0  0  0  0  0  0  0  0  0  0
    5.7996    2.6895   -6.0740 H   0  0  0  0  0  0  0  0  0  0  0  0
    4.3510    1.6273   -6.2589 H   0  0  0  0  0  0  0  0  0  0  0  0
    5.8877    0.9298   -5.6487 H   0  0  0  0  0  0  0  0  0  0  0  0
    5.6690    5.5383    1.6668 H   0  0  0  0  0  0  0  0  0  0  0  0
    6.9765    7.0347    2.8277 H   0  0  0  0  0  0  0  0  0  0  0  0
   11.4370    7.9621    2.8533 H   0  0  0  0  0  0  0  0  0  0  0  0
   13.1299    4.4971   -0.0586 H   0  0  0  0  0  0  0  0  0  0  0  0
   17.0731    6.8752    1.0196 H   0  0  0  0  0  0  0  0  0  0  0  0
   16.4486    7.3299    2.6545 H   0  0  0  0  0  0  0  0  0  0  0  0
   16.1999    8.4510    1.2515 H   0  0  0  0  0  0  0  0  0  0  0  0
   13.6553    7.9128    2.4833 H   0  0  0  0  0  0  0  0  0  0  0  0
    8.9768    3.2898    0.2686 H   0  0  0  0  0  0  0  0  0  0  0  0
    5.1377    0.6963   -0.0228 H   0  0  0  0  0  0  0  0  0  0  0  0
   -0.1048   -0.6793    2.0908 H   0  0  0  0  0  0  0  0  0  0  0  0
  1  2  1  0  0  0  0
  1 36  1  0  0  0  0
  1 37  1  0  0  0  0
  1 38  1  0  0  0  0
  2  3  1  0  0  0  0
  3  4  1  0  0  0  0
  3 34  2  0  0  0  0
  4  5  2  0  0  0  0
  4 39  1  0  0  0  0
  5  6  1  0  0  0  0
  5  8  1  0  0  0  0
  6  7  1  0  0  0  0
  7 40  1  0  0  0  0
  7 41  1  0  0  0  0
  7 42  1  0  0  0  0
  8  9  1  0  0  0  0
  8 10  2  0  0  0  0
  9 43  1  0  0  0  0
  9 44  1  0  0  0  0
  9 45  1  0  0  0  0
 10 11  1  0  0  0  0
 10 34  1  0  0  0  0
 11 12  1  0  0  0  0
 11 18  1  0  0  0  0
 12 13  1  0  0  0  0
 12 46  1  0  0  0  0
 12 47  1  0  0  0  0
 13 14  1  0  0  0  0
 13 48  1  0  0  0  0
 13 49  1  0  0  0  0
 14 15  1  0  0  0  0
 14 50  1  0  0  0  0
 15 16  1  0  0  0  0
 15 17  1  0  0  0  0
 15 51  1  0  0  0  0
 16 52  1  0  0  0  0
 16 53  1  0  0  0  0
 16 54  1  0  0  0  0
 17 55  1  0  0  0  0
 17 56  1  0  0  0  0
 17 57  1  0  0  0  0
 18 19  1  0  0  0  0
 18 33  2  0  0  0  0
 19 20  2  0  0  0  0
 19 58  1  0  0  0  0
 20 21  1  0  0  0  0
 20 59  1  0  0  0  0
 21 22  1  0  0  0  0
 21 32  2  0  0  0  0
 22 23  2  0  0  0  0
 23 24  1  0  0  0  0
 23 60  1  0  0  0  0
 24 25  1  0  0  0  0
 24 31  2  0  0  0  0
 25 26  1  0  0  0  0
 25 30  2  0  0  0  0
 26 27  2  0  0  0  0
 26 61  1  0  0  0  0
 27 28  1  0  0  0  0
 28 29  1  0  0  0  0
 28 30  1  0  0  0  0
 29 62  1  0  0  0  0
 29 63  1  0  0  0  0
 29 64  1  0  0  0  0
 30 65  1  0  0  0  0
 31 32  1  0  0  0  0
 32 33  1  0  0  0  0
 33 66  1  0  0  0  0
 34 67  1  0  0  0  0
 35 68  1  0  0  0  0
M  END
$$$$
