CHEMBL3593294
 OpenBabel04072215363D

 69 73  0  0  0  0  0  0  0  0999 V2000
   -1.7115    9.8904   -7.4051 C   0  0  0  0  0  0  0  0  0  0  0  0
   -1.2933    8.5623   -6.7834 C   0  0  0  0  0  0  0  0  0  0  0  0
   -0.5402    8.6997   -5.5307 N   0  0  0  0  0  0  0  0  0  0  0  0
    0.8402    9.2227   -5.6919 C   0  0  0  0  0  0  0  0  0  0  0  0
    1.9726    8.2354   -6.1139 C   0  0  0  0  0  0  0  0  0  0  0  0
    1.8428    6.9260   -5.4563 N   0  0  0  0  0  0  0  0  0  0  0  0
    2.8111    6.2793   -4.7171 C   0  0  0  0  0  0  0  0  0  0  0  0
    4.1216    6.7033   -4.6607 C   0  0  0  0  0  0  0  0  0  0  0  0
    5.0540    5.9716   -3.9362 C   0  0  0  0  0  0  0  0  0  0  0  0
    6.4174    6.2960   -3.8792 N   0  0  0  0  0  0  0  0  0  0  0  0
    7.1016    7.0705   -4.7504 C   0  0  0  0  0  0  0  0  0  0  0  0
    6.5609    7.8502   -5.6582 N   0  0  0  0  0  0  0  0  0  0  0  0
    7.5176    8.4709   -6.4104 C   0  0  0  0  0  0  0  0  0  0  0  0
    8.8288    8.1966   -6.0750 C   0  0  0  0  0  0  0  0  0  0  0  0
   10.0338    8.7831   -6.6651 C   0  0  0  0  0  0  0  0  0  0  0  0
    9.9738   10.1175   -7.0858 C   0  0  0  0  0  0  0  0  0  0  0  0
   11.0551   10.7309   -7.7148 C   0  0  0  0  0  0  0  0  0  0  0  0
   12.2389   10.0355   -7.9452 C   0  0  0  0  0  0  0  0  0  0  0  0
   13.3419   10.6093   -8.6162 N   0  0  0  0  0  0  0  0  0  0  0  0
   13.3853   11.8536   -9.1998 C   0  0  0  0  0  0  0  0  0  0  0  0
   12.5225   12.7190   -9.1543 O   0  0  0  0  0  0  0  0  0  0  0  0
   14.5211   11.9725   -9.9432 O   0  0  0  0  0  0  0  0  0  0  0  0
   14.4359   12.9769  -10.9668 C   0  0  0  0  0  0  0  0  0  0  0  0
   15.2683   14.2062  -10.7124 C   0  0  0  0  0  0  0  0  0  0  0  0
   16.6667   14.1215  -10.6060 C   0  0  0  0  0  0  0  0  0  0  0  0
   17.4381   15.2814  -10.5096 C   0  0  0  0  0  0  0  0  0  0  0  0
   16.8283   16.5367  -10.5047 C   0  0  0  0  0  0  0  0  0  0  0  0
   15.4434   16.6349  -10.5836 C   0  0  0  0  0  0  0  0  0  0  0  0
   14.6665   15.4751  -10.6804 C   0  0  0  0  0  0  0  0  0  0  0  0
   12.3161    8.7012   -7.5194 C   0  0  0  0  0  0  0  0  0  0  0  0
   11.2224    8.0791   -6.8852 C   0  0  0  0  0  0  0  0  0  0  0  0
    8.8363    7.0842   -4.7673 S   0  0  0  0  0  0  0  0  0  0  0  0
    4.6938    4.8770   -3.2509 N   0  0  0  0  0  0  0  0  0  0  0  0
    3.4056    4.5140   -3.3424 C   0  0  0  0  0  0  0  0  0  0  0  0
    2.9711    3.2608   -2.6495 C   0  0  0  0  0  0  0  0  0  0  0  0
    2.4665    5.1678   -4.0472 N   0  0  0  0  0  0  0  0  0  0  0  0
    0.4843    6.3787   -5.4746 C   0  0  0  0  0  0  0  0  0  0  0  0
   -0.4704    7.3967   -4.8211 C   0  0  0  0  0  0  0  0  0  0  0  0
   -2.3221    9.6983   -8.2951 H   0  0  0  0  0  0  0  0  0  0  0  0
   -0.8547   10.4910   -7.7198 H   0  0  0  0  0  0  0  0  0  0  0  0
   -2.3192   10.4812   -6.7114 H   0  0  0  0  0  0  0  0  0  0  0  0
   -0.7533    7.9665   -7.5262 H   0  0  0  0  0  0  0  0  0  0  0  0
   -2.2295    8.0300   -6.5664 H   0  0  0  0  0  0  0  0  0  0  0  0
    1.1257    9.6336   -4.7137 H   0  0  0  0  0  0  0  0  0  0  0  0
    0.8564   10.0845   -6.3683 H   0  0  0  0  0  0  0  0  0  0  0  0
    2.9226    8.7331   -5.8960 H   0  0  0  0  0  0  0  0  0  0  0  0
    1.9386    8.0837   -7.1989 H   0  0  0  0  0  0  0  0  0  0  0  0
    4.4227    7.5881   -5.1908 H   0  0  0  0  0  0  0  0  0  0  0  0
    6.9149    5.6319   -3.3016 H   0  0  0  0  0  0  0  0  0  0  0  0
    7.2003    9.1389   -7.2015 H   0  0  0  0  0  0  0  0  0  0  0  0
    9.0744   10.7113   -6.9351 H   0  0  0  0  0  0  0  0  0  0  0  0
   10.9190   11.7644   -8.0155 H   0  0  0  0  0  0  0  0  0  0  0  0
   14.1541   10.0355   -8.7832 H   0  0  0  0  0  0  0  0  0  0  0  0
   13.3989   13.2528  -11.1921 H   0  0  0  0  0  0  0  0  0  0  0  0
   14.8060   12.5081  -11.8925 H   0  0  0  0  0  0  0  0  0  0  0  0
   17.1575   13.1514  -10.6287 H   0  0  0  0  0  0  0  0  0  0  0  0
   18.5223   15.2091  -10.4447 H   0  0  0  0  0  0  0  0  0  0  0  0
   17.4333   17.4370  -10.4451 H   0  0  0  0  0  0  0  0  0  0  0  0
   14.9640   17.6100  -10.5860 H   0  0  0  0  0  0  0  0  0  0  0  0
   13.5852   15.5716  -10.7574 H   0  0  0  0  0  0  0  0  0  0  0  0
   13.2173    8.1160   -7.6882 H   0  0  0  0  0  0  0  0  0  0  0  0
   11.3081    7.0336   -6.5950 H   0  0  0  0  0  0  0  0  0  0  0  0
    3.7874    2.8259   -2.0652 H   0  0  0  0  0  0  0  0  0  0  0  0
    2.6439    2.5244   -3.3904 H   0  0  0  0  0  0  0  0  0  0  0  0
    2.1364    3.4759   -1.9760 H   0  0  0  0  0  0  0  0  0  0  0  0
    0.3791    5.4133   -4.9704 H   0  0  0  0  0  0  0  0  0  0  0  0
    0.1985    6.1924   -6.5174 H   0  0  0  0  0  0  0  0  0  0  0  0
   -0.1369    7.5872   -3.7922 H   0  0  0  0  0  0  0  0  0  0  0  0
   -1.4723    6.9605   -4.7342 H   0  0  0  0  0  0  0  0  0  0  0  0
  1  2  1  0  0  0  0
  1 39  1  0  0  0  0
  1 40  1  0  0  0  0
  1 41  1  0  0  0  0
  2  3  1  0  0  0  0
  2 42  1  0  0  0  0
  2 43  1  0  0  0  0
  3  4  1  0  0  0  0
  3 38  1  0  0  0  0
  4  5  1  0  0  0  0
  4 44  1  0  0  0  0
  4 45  1  0  0  0  0
  5  6  1  0  0  0  0
  5 46  1  0  0  0  0
  5 47  1  0  0  0  0
  6  7  1  0  0  0  0
  6 37  1  0  0  0  0
  7  8  1  0  0  0  0
  7 36  2  0  0  0  0
  8  9  2  0  0  0  0
  8 48  1  0  0  0  0
  9 10  1  0  0  0  0
  9 33  1  0  0  0  0
 10 11  1  0  0  0  0
 10 49  1  0  0  0  0
 11 12  2  0  0  0  0
 11 32  1  0  0  0  0
 12 13  1  0  0  0  0
 13 14  2  0  0  0  0
 13 50  1  0  0  0  0
 14 15  1  0  0  0  0
 14 32  1  0  0  0  0
 15 16  1  0  0  0  0
 15 31  2  0  0  0  0
 16 17  2  0  0  0  0
 16 51  1  0  0  0  0
 17 18  1  0  0  0  0
 17 52  1  0  0  0  0
 18 19  1  0  0  0  0
 18 30  2  0  0  0  0
 19 20  1  0  0  0  0
 19 53  1  0  0  0  0
 20 21  2  0  0  0  0
 20 22  1  0  0  0  0
 22 23  1  0  0  0  0
 23 24  1  0  0  0  0
 23 54  1  0  0  0  0
 23 55  1  0  0  0  0
 24 25  1  0  0  0  0
 24 29  2  0  0  0  0
 25 26  2  0  0  0  0
 25 56  1  0  0  0  0
 26 27  1  0  0  0  0
 26 57  1  0  0  0  0
 27 28  2  0  0  0  0
 27 58  1  0  0  0  0
 28 29  1  0  0  0  0
 28 59  1  0  0  0  0
 29 60  1  0  0  0  0
 30 31  1  0  0  0  0
 30 61  1  0  0  0  0
 31 62  1  0  0  0  0
 33 34  2  0  0  0  0
 34 35  1  0  0  0  0
 34 36  1  0  0  0  0
 35 63  1  0  0  0  0
 35 64  1  0  0  0  0
 35 65  1  0  0  0  0
 37 38  1  0  0  0  0
 37 66  1  0  0  0  0
 37 67  1  0  0  0  0
 38 68  1  0  0  0  0
 38 69  1  0  0  0  0
M  END
$$$$
