CHEMBL4785888
 OpenBabel04072215383D

 38 41  0  0  0  0  0  0  0  0999 V2000
    0.8476    0.0311    0.1692 N   0  0  0  0  0  0  0  0  0  0  0  0
    2.2027   -0.0140    0.1170 C   0  0  0  0  0  0  0  0  0  0  0  0
    2.8146   -1.1764    0.0594 N   0  0  0  0  0  0  0  0  0  0  0  0
    4.1428   -0.9132   -0.1202 N   0  0  0  0  0  0  0  0  0  0  0  0
    4.4421    0.4165   -0.3198 C   0  0  0  0  0  0  0  0  0  0  0  0
    5.4838    0.8507   -0.7623 O   0  0  0  0  0  0  0  0  0  0  0  0
    3.1882    1.1183    0.0613 C   0  0  0  0  0  0  0  0  0  0  0  0
    3.0311    2.4144    0.3910 C   0  0  0  0  0  0  0  0  0  0  0  0
    1.7312    2.9901    0.9221 C   0  0  0  0  0  0  0  0  0  0  0  0
    0.6686    2.4062    1.0717 O   0  0  0  0  0  0  0  0  0  0  0  0
    2.0017    4.3117    1.2544 N   0  0  0  0  0  0  0  0  0  0  0  0
    1.0472    5.1986    1.8996 C   0  0  0  0  0  0  0  0  0  0  0  0
    0.3435    6.1309    0.9413 C   0  0  0  0  0  0  0  0  0  0  0  0
   -0.5122    5.6172   -0.0441 C   0  0  0  0  0  0  0  0  0  0  0  0
   -1.1460    6.4683   -0.9509 C   0  0  0  0  0  0  0  0  0  0  0  0
   -0.9432    7.8442   -0.8769 C   0  0  0  0  0  0  0  0  0  0  0  0
   -0.1250    8.3723    0.1193 C   0  0  0  0  0  0  0  0  0  0  0  0
    0.5112    7.5218    1.0275 C   0  0  0  0  0  0  0  0  0  0  0  0
    3.3373    4.6385    0.9737 C   0  0  0  0  0  0  0  0  0  0  0  0
    3.9723    5.8535    1.1910 C   0  0  0  0  0  0  0  0  0  0  0  0
    5.3263    5.9577    0.8781 C   0  0  0  0  0  0  0  0  0  0  0  0
    6.0162    4.8529    0.3780 C   0  0  0  0  0  0  0  0  0  0  0  0
    7.6962    4.9880    0.0237 Cl  0  0  0  0  0  0  0  0  0  0  0  0
    5.3675    3.6325    0.1695 C   0  0  0  0  0  0  0  0  0  0  0  0
    4.0155    3.5207    0.4575 C   0  0  0  0  0  0  0  0  0  0  0  0
    0.4073   -0.8342    0.4564 H   0  0  0  0  0  0  0  0  0  0  0  0
    0.4173    0.8725    0.5622 H   0  0  0  0  0  0  0  0  0  0  0  0
    4.7896   -1.6609   -0.3422 H   0  0  0  0  0  0  0  0  0  0  0  0
    1.5651    5.7630    2.6856 H   0  0  0  0  0  0  0  0  0  0  0  0
    0.2900    4.5958    2.4150 H   0  0  0  0  0  0  0  0  0  0  0  0
   -0.6916    4.5458   -0.1099 H   0  0  0  0  0  0  0  0  0  0  0  0
   -1.7968    6.0548   -1.7174 H   0  0  0  0  0  0  0  0  0  0  0  0
   -1.4272    8.5040   -1.5924 H   0  0  0  0  0  0  0  0  0  0  0  0
    0.0181    9.4482    0.1864 H   0  0  0  0  0  0  0  0  0  0  0  0
    1.1370    7.9596    1.8018 H   0  0  0  0  0  0  0  0  0  0  0  0
    3.4439    6.7177    1.5853 H   0  0  0  0  0  0  0  0  0  0  0  0
    5.8480    6.8984    1.0354 H   0  0  0  0  0  0  0  0  0  0  0  0
    5.9599    2.8135   -0.2018 H   0  0  0  0  0  0  0  0  0  0  0  0
  1  2  1  0  0  0  0
  1 26  1  0  0  0  0
  1 27  1  0  0  0  0
  2  3  2  0  0  0  0
  2  7  1  0  0  0  0
  3  4  1  0  0  0  0
  4  5  1  0  0  0  0
  4 28  1  0  0  0  0
  5  6  2  0  0  0  0
  5  7  1  0  0  0  0
  7  8  2  0  0  0  0
  8  9  1  0  0  0  0
  8 25  1  0  0  0  0
  9 10  2  0  0  0  0
  9 11  1  0  0  0  0
 11 12  1  0  0  0  0
 11 19  1  0  0  0  0
 12 13  1  0  0  0  0
 12 29  1  0  0  0  0
 12 30  1  0  0  0  0
 13 14  1  0  0  0  0
 13 18  2  0  0  0  0
 14 15  2  0  0  0  0
 14 31  1  0  0  0  0
 15 16  1  0  0  0  0
 15 32  1  0  0  0  0
 16 17  2  0  0  0  0
 16 33  1  0  0  0  0
 17 18  1  0  0  0  0
 17 34  1  0  0  0  0
 18 35  1  0  0  0  0
 19 20  1  0  0  0  0
 19 25  2  0  0  0  0
 20 21  2  0  0  0  0
 20 36  1  0  0  0  0
 21 22  1  0  0  0  0
 21 37  1  0  0  0  0
 22 23  1  0  0  0  0
 22 24  2  0  0  0  0
 24 25  1  0  0  0  0
 24 38  1  0  0  0  0
M  END
$$$$
