CHEMBL3969197
 OpenBabel04072215373D

 57 61  0  0  0  0  0  0  0  0999 V2000
    1.4488    0.7313    0.2182 O   0  0  0  0  0  0  0  0  0  0  0  0
    2.5222    0.2230   -0.0958 C   0  0  0  0  0  0  0  0  0  0  0  0
    2.9597   -0.0330   -1.3541 N   0  0  0  0  0  0  0  0  0  0  0  0
    2.2806    0.2879   -2.5518 C   0  0  0  0  0  0  0  0  0  0  0  0
    1.1578    1.1123   -2.5862 C   0  0  0  0  0  0  0  0  0  0  0  0
    0.4744    1.3290   -3.7784 C   0  0  0  0  0  0  0  0  0  0  0  0
    0.9681    0.8112   -4.9770 C   0  0  0  0  0  0  0  0  0  0  0  0
    0.3839    1.0496   -6.2049 O   0  0  0  0  0  0  0  0  0  0  0  0
   -0.1710    2.2918   -6.4514 C   0  0  0  0  0  0  0  0  0  0  0  0
    0.2840    3.4679   -5.8593 C   0  0  0  0  0  0  0  0  0  0  0  0
   -0.4046    4.6290   -6.1235 C   0  0  0  0  0  0  0  0  0  0  0  0
   -1.4385    4.6907   -6.9726 N   0  0  0  0  0  0  0  0  0  0  0  0
   -1.8308    3.5750   -7.6086 C   0  0  0  0  0  0  0  0  0  0  0  0
   -2.8833    3.6509   -8.5340 N   0  0  0  0  0  0  0  0  0  0  0  0
   -3.5604    4.8202   -8.8206 C   0  0  0  0  0  0  0  0  0  0  0  0
   -3.3772    5.9318   -8.3440 O   0  0  0  0  0  0  0  0  0  0  0  0
   -4.6263    4.6622   -9.8610 C   0  0  0  0  0  0  0  0  0  0  0  0
   -4.5893    5.5465  -11.0878 C   0  0  0  0  0  0  0  0  0  0  0  0
   -5.6564    5.7572  -10.0546 C   0  0  0  0  0  0  0  0  0  0  0  0
   -1.2220    2.3489   -7.3719 C   0  0  0  0  0  0  0  0  0  0  0  0
    2.0930   -0.0166   -4.9543 C   0  0  0  0  0  0  0  0  0  0  0  0
    2.7482   -0.2759   -3.7488 C   0  0  0  0  0  0  0  0  0  0  0  0
    3.2986   -0.2023    0.9382 N   0  0  0  0  0  0  0  0  0  0  0  0
    4.6140   -0.6626    1.0381 C   0  0  0  0  0  0  0  0  0  0  0  0
    5.6156   -0.4690    0.0855 C   0  0  0  0  0  0  0  0  0  0  0  0
    6.9007   -0.9683    0.3203 C   0  0  0  0  0  0  0  0  0  0  0  0
    7.2052   -1.6254    1.5150 C   0  0  0  0  0  0  0  0  0  0  0  0
    6.2237   -1.7974    2.4741 C   0  0  0  0  0  0  0  0  0  0  0  0
    4.9315   -1.3181    2.2254 C   0  0  0  0  0  0  0  0  0  0  0  0
    6.4934   -2.4798    3.7673 C   0  0  0  0  0  0  0  0  0  0  0  0
    6.0264   -1.7427    4.8233 F   0  0  0  0  0  0  0  0  0  0  0  0
    5.8150   -3.6633    3.8527 F   0  0  0  0  0  0  0  0  0  0  0  0
    7.9511   -2.7518    4.0365 C   0  0  0  0  0  0  0  0  0  0  0  0
    8.8495   -2.7782    2.8117 C   0  0  0  0  0  0  0  0  0  0  0  0
    8.4954   -2.0041    1.6736 O   0  0  0  0  0  0  0  0  0  0  0  0
    3.6946   -0.7118   -1.4368 H   0  0  0  0  0  0  0  0  0  0  0  0
    0.7769    1.6036   -1.6952 H   0  0  0  0  0  0  0  0  0  0  0  0
   -0.4260    1.9333   -3.7479 H   0  0  0  0  0  0  0  0  0  0  0  0
    1.1239    3.4950   -5.1766 H   0  0  0  0  0  0  0  0  0  0  0  0
   -0.1409    5.5674   -5.6430 H   0  0  0  0  0  0  0  0  0  0  0  0
   -3.1399    2.8103   -9.0236 H   0  0  0  0  0  0  0  0  0  0  0  0
   -4.9918    3.6509  -10.0017 H   0  0  0  0  0  0  0  0  0  0  0  0
   -4.8809    5.1185  -12.0384 H   0  0  0  0  0  0  0  0  0  0  0  0
   -3.8065    6.2955  -11.1573 H   0  0  0  0  0  0  0  0  0  0  0  0
   -6.6714    5.4701  -10.2990 H   0  0  0  0  0  0  0  0  0  0  0  0
   -5.5883    6.6446   -9.4316 H   0  0  0  0  0  0  0  0  0  0  0  0
   -1.5444    1.4415   -7.8745 H   0  0  0  0  0  0  0  0  0  0  0  0
    2.4601   -0.4596   -5.8751 H   0  0  0  0  0  0  0  0  0  0  0  0
    3.6203   -0.9271   -3.7527 H   0  0  0  0  0  0  0  0  0  0  0  0
    2.7629   -0.1648    1.7988 H   0  0  0  0  0  0  0  0  0  0  0  0
    5.4593    0.1167   -0.8155 H   0  0  0  0  0  0  0  0  0  0  0  0
    7.6809   -0.8175   -0.4242 H   0  0  0  0  0  0  0  0  0  0  0  0
    4.1653   -1.4702    2.9852 H   0  0  0  0  0  0  0  0  0  0  0  0
    8.3313   -1.9930    4.7316 H   0  0  0  0  0  0  0  0  0  0  0  0
    8.0541   -3.7076    4.5639 H   0  0  0  0  0  0  0  0  0  0  0  0
    9.0194   -3.8092    2.4808 H   0  0  0  0  0  0  0  0  0  0  0  0
    9.8297   -2.4040    3.1231 H   0  0  0  0  0  0  0  0  0  0  0  0
  1  2  2  0  0  0  0
  2  3  1  0  0  0  0
  2 23  1  0  0  0  0
  3  4  1  0  0  0  0
  3 36  1  0  0  0  0
  4  5  1  0  0  0  0
  4 22  2  0  0  0  0
  5  6  2  0  0  0  0
  5 37  1  0  0  0  0
  6  7  1  0  0  0  0
  6 38  1  0  0  0  0
  7  8  1  0  0  0  0
  7 21  2  0  0  0  0
  8  9  1  0  0  0  0
  9 10  1  0  0  0  0
  9 20  2  0  0  0  0
 10 11  2  0  0  0  0
 10 39  1  0  0  0  0
 11 12  1  0  0  0  0
 11 40  1  0  0  0  0
 12 13  2  0  0  0  0
 13 14  1  0  0  0  0
 13 20  1  0  0  0  0
 14 15  1  0  0  0  0
 14 41  1  0  0  0  0
 15 16  2  0  0  0  0
 15 17  1  0  0  0  0
 17 18  1  0  0  0  0
 17 19  1  0  0  0  0
 17 42  1  0  0  0  0
 18 19  1  0  0  0  0
 18 43  1  0  0  0  0
 18 44  1  0  0  0  0
 19 45  1  0  0  0  0
 19 46  1  0  0  0  0
 20 47  1  0  0  0  0
 21 22  1  0  0  0  0
 21 48  1  0  0  0  0
 22 49  1  0  0  0  0
 23 24  1  0  0  0  0
 23 50  1  0  0  0  0
 24 25  1  0  0  0  0
 24 29  2  0  0  0  0
 25 26  2  0  0  0  0
 25 51  1  0  0  0  0
 26 27  1  0  0  0  0
 26 52  1  0  0  0  0
 27 28  2  0  0  0  0
 27 35  1  0  0  0  0
 28 29  1  0  0  0  0
 28 30  1  0  0  0  0
 29 53  1  0  0  0  0
 30 31  1  0  0  0  0
 30 32  1  0  0  0  0
 30 33  1  0  0  0  0
 33 34  1  0  0  0  0
 33 54  1  0  0  0  0
 33 55  1  0  0  0  0
 34 35  1  0  0  0  0
 34 56  1  0  0  0  0
 34 57  1  0  0  0  0
M  END
$$$$
