CHEMBL242131
 OpenBabel04072215363D

 47 49  0  0  0  0  0  0  0  0999 V2000
    1.1532    1.0464    1.4448 C   0  0  0  0  0  0  0  0  0  0  0  0
    2.6186    1.1359    1.4948 N   0  0  0  0  0  0  0  0  0  0  0  0
    3.1482   -0.1172    2.0429 C   0  0  0  0  0  0  0  0  0  0  0  0
    3.1332    1.4328    0.1502 C   0  0  0  0  0  0  0  0  0  0  0  0
    4.6271    1.5380    0.0647 C   0  0  0  0  0  0  0  0  0  0  0  0
    5.3265    2.6283   -0.2901 C   0  0  0  0  0  0  0  0  0  0  0  0
    6.7886    2.4755   -0.5041 C   0  0  0  0  0  0  0  0  0  0  0  0
    7.2588    1.3863   -0.8122 O   0  0  0  0  0  0  0  0  0  0  0  0
    7.4977    3.6393   -0.2698 N   0  0  0  0  0  0  0  0  0  0  0  0
    8.9055    3.7409   -0.3352 C   0  0  0  0  0  0  0  0  0  0  0  0
    9.7069    2.8437   -1.0371 C   0  0  0  0  0  0  0  0  0  0  0  0
   11.0956    2.9431   -0.9820 C   0  0  0  0  0  0  0  0  0  0  0  0
   11.7313    3.8929   -0.2030 C   0  0  0  0  0  0  0  0  0  0  0  0
   13.0623    3.8773   -0.1535 N   0  0  0  0  0  0  0  0  0  0  0  0
   13.6384    4.7422    0.6820 C   0  0  0  0  0  0  0  0  0  0  0  0
   12.9990    5.5990    1.4814 N   0  0  0  0  0  0  0  0  0  0  0  0
   11.6513    5.6128    1.4235 C   0  0  0  0  0  0  0  0  0  0  0  0
   10.9500    6.3800    2.3953 N   0  0  0  0  0  0  0  0  0  0  0  0
   11.5300    6.8363    3.6038 C   0  0  0  0  0  0  0  0  0  0  0  0
   12.3486    5.9857    4.3642 C   0  0  0  0  0  0  0  0  0  0  0  0
   13.0475    6.4600    5.4748 C   0  0  0  0  0  0  0  0  0  0  0  0
   12.9161    7.7944    5.8497 C   0  0  0  0  0  0  0  0  0  0  0  0
   13.9635    8.4644    7.2734 Br  0  0  0  0  0  0  0  0  0  0  0  0
   12.0503    8.6399    5.1618 C   0  0  0  0  0  0  0  0  0  0  0  0
   11.3594    8.1517    4.0513 C   0  0  0  0  0  0  0  0  0  0  0  0
   10.5473    8.9809    3.3758 F   0  0  0  0  0  0  0  0  0  0  0  0
   10.9397    4.7943    0.5303 C   0  0  0  0  0  0  0  0  0  0  0  0
    9.5255    4.7570    0.3923 C   0  0  0  0  0  0  0  0  0  0  0  0
    0.7415    0.8853    2.4475 H   0  0  0  0  0  0  0  0  0  0  0  0
    0.8118    0.2267    0.7998 H   0  0  0  0  0  0  0  0  0  0  0  0
    0.7166    1.9798    1.0727 H   0  0  0  0  0  0  0  0  0  0  0  0
    2.7194   -0.3121    3.0328 H   0  0  0  0  0  0  0  0  0  0  0  0
    4.2302   -0.0603    2.1983 H   0  0  0  0  0  0  0  0  0  0  0  0
    2.9313   -0.9774    1.3990 H   0  0  0  0  0  0  0  0  0  0  0  0
    2.6941    2.3784   -0.1946 H   0  0  0  0  0  0  0  0  0  0  0  0
    2.8132    0.6619   -0.5633 H   0  0  0  0  0  0  0  0  0  0  0  0
    5.1692    0.6091    0.2402 H   0  0  0  0  0  0  0  0  0  0  0  0
    4.8600    3.5813   -0.5020 H   0  0  0  0  0  0  0  0  0  0  0  0
    7.0024    4.3953    0.1772 H   0  0  0  0  0  0  0  0  0  0  0  0
    9.2801    2.0457   -1.6390 H   0  0  0  0  0  0  0  0  0  0  0  0
   11.7018    2.2185   -1.5296 H   0  0  0  0  0  0  0  0  0  0  0  0
   14.7200    4.7358    0.7330 H   0  0  0  0  0  0  0  0  0  0  0  0
   10.3149    7.0489    1.9762 H   0  0  0  0  0  0  0  0  0  0  0  0
   12.4750    4.9473    4.0656 H   0  0  0  0  0  0  0  0  0  0  0  0
   13.7104    5.7864    6.0117 H   0  0  0  0  0  0  0  0  0  0  0  0
   11.9278    9.6771    5.4538 H   0  0  0  0  0  0  0  0  0  0  0  0
    8.9213    5.4902    0.9188 H   0  0  0  0  0  0  0  0  0  0  0  0
  1  2  1  0  0  0  0
  1 29  1  0  0  0  0
  1 30  1  0  0  0  0
  1 31  1  0  0  0  0
  2  3  1  0  0  0  0
  2  4  1  0  0  0  0
  3 32  1  0  0  0  0
  3 33  1  0  0  0  0
  3 34  1  0  0  0  0
  4  5  1  0  0  0  0
  4 35  1  0  0  0  0
  4 36  1  0  0  0  0
  5  6  2  0  0  0  0
  5 37  1  0  0  0  0
  6  7  1  0  0  0  0
  6 38  1  0  0  0  0
  7  8  2  0  0  0  0
  7  9  1  0  0  0  0
  9 10  1  0  0  0  0
  9 39  1  0  0  0  0
 10 11  1  0  0  0  0
 10 28  2  0  0  0  0
 11 12  2  0  0  0  0
 11 40  1  0  0  0  0
 12 13  1  0  0  0  0
 12 41  1  0  0  0  0
 13 14  1  0  0  0  0
 13 27  2  0  0  0  0
 14 15  2  0  0  0  0
 15 16  1  0  0  0  0
 15 42  1  0  0  0  0
 16 17  2  0  0  0  0
 17 18  1  0  0  0  0
 17 27  1  0  0  0  0
 18 19  1  0  0  0  0
 18 43  1  0  0  0  0
 19 20  1  0  0  0  0
 19 25  2  0  0  0  0
 20 21  2  0  0  0  0
 20 44  1  0  0  0  0
 21 22  1  0  0  0  0
 21 45  1  0  0  0  0
 22 23  1  0  0  0  0
 22 24  2  0  0  0  0
 24 25  1  0  0  0  0
 24 46  1  0  0  0  0
 25 26  1  0  0  0  0
 27 28  1  0  0  0  0
 28 47  1  0  0  0  0
M  END
$$$$
