CHEMBL3401987
 OpenBabel04072215363D

 52 56  0  0  1  0  0  0  0  0999 V2000
    1.8687    1.2909    0.4311 C   0  0  0  0  0  0  0  0  0  0  0  0
    2.4090   -0.0641   -0.0119 C   0  0  3  0  0  0  0  0  0  0  0  0
    3.5350    0.1991   -0.8526 O   0  0  0  0  0  0  0  0  0  0  0  0
    2.8239   -0.9877    1.1600 C   0  0  1  0  0  0  0  0  0  0  0  0
    1.6690   -1.3538    2.1387 C   0  0  3  0  0  0  0  0  0  0  0  0
    0.5919   -2.2036    1.4409 C   0  0  0  0  0  0  0  0  0  0  0  0
    1.2404   -3.3998    0.7379 C   0  0  0  0  0  0  0  0  0  0  0  0
    2.7075   -3.5338    1.1823 C   0  0  3  0  0  0  0  0  0  0  0  0
    2.7488   -3.5569    2.7221 C   0  0  0  0  0  0  0  0  0  0  0  0
    2.2661   -2.2114    3.2767 C   0  0  0  0  0  0  0  0  0  0  0  0
    3.4904   -2.3045    0.6310 C   0  0  2  0  0  0  0  0  0  0  0  0
    4.8984   -2.3288    1.0726 N   0  0  0  0  0  0  0  0  0  0  0  0
    5.6487   -3.4332    0.6084 C   0  0  0  0  0  0  0  0  0  0  0  0
    5.3457   -4.0075   -0.5735 N   0  0  0  0  0  0  0  0  0  0  0  0
    6.0827   -5.0726   -0.9393 C   0  0  0  0  0  0  0  0  0  0  0  0
    5.6980   -5.7951   -2.1425 C   0  0  0  0  0  0  0  0  0  0  0  0
    4.9606   -5.2587   -3.1874 C   0  0  0  0  0  0  0  0  0  0  0  0
    4.7971   -6.2307   -4.1414 N   0  0  0  0  0  0  0  0  0  0  0  0
    5.3984   -7.3890   -3.7318 C   0  0  0  0  0  0  0  0  0  0  0  0
    5.4124   -8.5371   -4.4389 N   0  0  0  0  0  0  0  0  0  0  0  0
    6.0669   -9.5373   -3.7949 C   0  0  0  0  0  0  0  0  0  0  0  0
    6.6668   -9.4399   -2.5492 C   0  0  0  0  0  0  0  0  0  0  0  0
    7.2802  -10.4988   -2.0062 F   0  0  0  0  0  0  0  0  0  0  0  0
    6.6250   -8.2369   -1.8612 C   0  0  0  0  0  0  0  0  0  0  0  0
    5.9677   -7.1583   -2.4818 C   0  0  0  0  0  0  0  0  0  0  0  0
    7.1057   -5.5941   -0.2327 N   0  0  0  0  0  0  0  0  0  0  0  0
    7.3986   -4.9784    0.9256 C   0  0  0  0  0  0  0  0  0  0  0  0
    6.7039   -3.8913    1.3871 C   0  0  0  0  0  0  0  0  0  0  0  0
    6.9770   -3.3565    2.5857 F   0  0  0  0  0  0  0  0  0  0  0  0
    1.7513    1.9535   -0.4349 H   0  0  0  0  0  0  0  0  0  0  0  0
    2.5698    1.7910    1.1084 H   0  0  0  0  0  0  0  0  0  0  0  0
    0.8992    1.2031    0.9278 H   0  0  0  0  0  0  0  0  0  0  0  0
    1.6603   -0.5550   -0.6420 H   0  0  0  0  0  0  0  0  0  0  0  0
    4.2997    0.4029   -0.2849 H   0  0  0  0  0  0  0  0  0  0  0  0
    3.5742   -0.4278    1.7384 H   0  0  0  0  0  0  0  0  0  0  0  0
    1.2197   -0.4534    2.5693 H   0  0  0  0  0  0  0  0  0  0  0  0
    0.0089   -1.6117    0.7280 H   0  0  0  0  0  0  0  0  0  0  0  0
   -0.1235   -2.5730    2.1893 H   0  0  0  0  0  0  0  0  0  0  0  0
    1.1871   -3.2690   -0.3501 H   0  0  0  0  0  0  0  0  0  0  0  0
    0.6856   -4.3171    0.9689 H   0  0  0  0  0  0  0  0  0  0  0  0
    3.1122   -4.4728    0.7902 H   0  0  0  0  0  0  0  0  0  0  0  0
    3.7563   -3.7772    3.0931 H   0  0  0  0  0  0  0  0  0  0  0  0
    2.1090   -4.3651    3.0966 H   0  0  0  0  0  0  0  0  0  0  0  0
    3.0999   -1.6798    3.7515 H   0  0  0  0  0  0  0  0  0  0  0  0
    1.5207   -2.3848    4.0617 H   0  0  0  0  0  0  0  0  0  0  0  0
    3.4540   -2.3179   -0.4660 H   0  0  0  0  0  0  0  0  0  0  0  0
    4.9881   -2.2701    2.0853 H   0  0  0  0  0  0  0  0  0  0  0  0
    4.5475   -4.2684   -3.3315 H   0  0  0  0  0  0  0  0  0  0  0  0
    4.3058   -6.1355   -5.0206 H   0  0  0  0  0  0  0  0  0  0  0  0
    6.1082  -10.4796   -4.3338 H   0  0  0  0  0  0  0  0  0  0  0  0
    7.0837   -8.1432   -0.8839 H   0  0  0  0  0  0  0  0  0  0  0  0
    8.2092   -5.4101    1.5009 H   0  0  0  0  0  0  0  0  0  0  0  0
  1  2  1  0  0  0  0
  1 30  1  0  0  0  0
  1 31  1  0  0  0  0
  1 32  1  0  0  0  0
  2  3  1  0  0  0  0
  2  4  1  0  0  0  0
  2 33  1  0  0  0  0
  3 34  1  0  0  0  0
  4  5  1  0  0  0  0
  4 11  1  0  0  0  0
  4 35  1  1  0  0  0
  5  6  1  0  0  0  0
  5 10  1  0  0  0  0
  5 36  1  0  0  0  0
  6  7  1  0  0  0  0
  6 37  1  0  0  0  0
  6 38  1  0  0  0  0
  7  8  1  0  0  0  0
  7 39  1  0  0  0  0
  7 40  1  0  0  0  0
  8  9  1  0  0  0  0
  8 11  1  0  0  0  0
  8 41  1  0  0  0  0
  9 10  1  0  0  0  0
  9 42  1  0  0  0  0
  9 43  1  0  0  0  0
 10 44  1  0  0  0  0
 10 45  1  0  0  0  0
 11 12  1  0  0  0  0
 11 46  1  6  0  0  0
 12 13  1  0  0  0  0
 12 47  1  0  0  0  0
 13 14  1  0  0  0  0
 13 28  2  0  0  0  0
 14 15  2  0  0  0  0
 15 16  1  0  0  0  0
 15 26  1  0  0  0  0
 16 17  2  0  0  0  0
 16 25  1  0  0  0  0
 17 18  1  0  0  0  0
 17 48  1  0  0  0  0
 18 19  1  0  0  0  0
 18 49  1  0  0  0  0
 19 20  1  0  0  0  0
 19 25  2  0  0  0  0
 20 21  2  0  0  0  0
 21 22  1  0  0  0  0
 21 50  1  0  0  0  0
 22 23  1  0  0  0  0
 22 24  2  0  0  0  0
 24 25  1  0  0  0  0
 24 51  1  0  0  0  0
 26 27  2  0  0  0  0
 27 28  1  0  0  0  0
 27 52  1  0  0  0  0
 28 29  1  0  0  0  0
M  END
$$$$
