CHEMBL3951790
 OpenBabel04072215373D

 64 69  0  0  0  0  0  0  0  0999 V2000
    0.8133   -9.6133    4.6171 C   0  0  0  0  0  0  0  0  0  0  0  0
    0.2075   -9.4303    3.2572 C   0  0  0  0  0  0  0  0  0  0  0  0
    0.4282  -10.3556    2.2246 C   0  0  0  0  0  0  0  0  0  0  0  0
   -0.1247  -10.1401    0.9630 C   0  0  0  0  0  0  0  0  0  0  0  0
   -0.9058   -9.0046    0.7044 C   0  0  0  0  0  0  0  0  0  0  0  0
   -1.1410   -8.0840    1.7321 C   0  0  0  0  0  0  0  0  0  0  0  0
   -1.8881   -6.8180    1.5323 C   0  0  0  0  0  0  0  0  0  0  0  0
   -1.5265   -5.8550    2.2034 O   0  0  0  0  0  0  0  0  0  0  0  0
   -2.9598   -6.8524    0.6520 N   0  0  0  0  0  0  0  0  0  0  0  0
   -3.8039   -5.7464    0.3709 C   0  0  0  0  0  0  0  0  0  0  0  0
   -3.4709   -4.4350    0.7156 C   0  0  0  0  0  0  0  0  0  0  0  0
   -4.3587   -3.3920    0.4923 C   0  0  0  0  0  0  0  0  0  0  0  0
   -5.5886   -3.6449   -0.1022 C   0  0  0  0  0  0  0  0  0  0  0  0
   -5.9444   -4.9373   -0.5252 C   0  0  0  0  0  0  0  0  0  0  0  0
   -7.1682   -5.1919   -1.1900 N   0  0  0  0  0  0  0  0  0  0  0  0
   -7.7206   -4.0710   -1.9762 C   0  0  0  0  0  0  0  0  0  0  0  0
   -8.1083   -6.2240   -0.8963 C   0  0  0  0  0  0  0  0  0  0  0  0
   -8.0856   -6.9476    0.3184 C   0  0  0  0  0  0  0  0  0  0  0  0
   -9.0155   -7.9791    0.6186 C   0  0  0  0  0  0  0  0  0  0  0  0
  -10.0824   -8.1822   -0.2750 C   0  0  0  0  0  0  0  0  0  0  0  0
  -11.2637   -8.9948   -0.4564 C   0  0  0  0  0  0  0  0  0  0  0  0
  -11.3849  -10.1885   -1.3004 C   0  0  0  0  0  0  0  0  0  0  0  0
  -10.4446  -10.5449   -2.2016 C   0  0  0  0  0  0  0  0  0  0  0  0
  -10.7149  -10.9833   -3.5945 C   0  0  0  0  0  0  0  0  0  0  0  0
  -11.9804  -11.3581   -4.1089 C   0  0  0  0  0  0  0  0  0  0  0  0
  -12.1604  -11.6404   -5.4764 C   0  0  0  0  0  0  0  0  0  0  0  0
  -11.0652  -11.5488   -6.3068 C   0  0  0  0  0  0  0  0  0  0  0  0
   -9.8394  -11.1656   -5.8266 C   0  0  0  0  0  0  0  0  0  0  0  0
   -9.6383  -10.8705   -4.4941 C   0  0  0  0  0  0  0  0  0  0  0  0
   -8.8912  -11.1089   -6.8005 O   0  0  0  0  0  0  0  0  0  0  0  0
   -9.6294  -11.6440   -7.9176 C   0  0  0  0  0  0  0  0  0  0  0  0
  -11.0384  -11.8031   -7.6428 O   0  0  0  0  0  0  0  0  0  0  0  0
  -12.2284   -8.0964   -0.7750 N   0  0  0  0  0  0  0  0  0  0  0  0
  -11.5345   -7.2971   -1.6163 N   0  0  0  0  0  0  0  0  0  0  0  0
  -10.1988   -7.2779   -1.3209 C   0  0  0  0  0  0  0  0  0  0  0  0
   -9.1687   -6.4726   -1.7817 C   0  0  0  0  0  0  0  0  0  0  0  0
   -5.0284   -5.9812   -0.2772 C   0  0  0  0  0  0  0  0  0  0  0  0
   -0.5837   -8.2983    2.9989 C   0  0  0  0  0  0  0  0  0  0  0  0
    1.4338  -10.5145    4.6687 H   0  0  0  0  0  0  0  0  0  0  0  0
    0.0254   -9.7011    5.3717 H   0  0  0  0  0  0  0  0  0  0  0  0
    1.4483   -8.7556    4.8636 H   0  0  0  0  0  0  0  0  0  0  0  0
    1.0580  -11.2254    2.3909 H   0  0  0  0  0  0  0  0  0  0  0  0
    0.0814  -10.8417    0.1498 H   0  0  0  0  0  0  0  0  0  0  0  0
   -1.2891   -8.8315   -0.2961 H   0  0  0  0  0  0  0  0  0  0  0  0
   -3.2702   -7.7529    0.3206 H   0  0  0  0  0  0  0  0  0  0  0  0
   -2.5145   -4.1863    1.1651 H   0  0  0  0  0  0  0  0  0  0  0  0
   -4.0928   -2.3815    0.7915 H   0  0  0  0  0  0  0  0  0  0  0  0
   -6.2728   -2.8093   -0.2127 H   0  0  0  0  0  0  0  0  0  0  0  0
   -6.9999   -3.2716   -2.1782 H   0  0  0  0  0  0  0  0  0  0  0  0
   -8.5835   -3.6279   -1.4630 H   0  0  0  0  0  0  0  0  0  0  0  0
   -8.0258   -4.3956   -2.9768 H   0  0  0  0  0  0  0  0  0  0  0  0
   -7.3661   -6.6753    1.0902 H   0  0  0  0  0  0  0  0  0  0  0  0
   -8.9722   -8.4919    1.5754 H   0  0  0  0  0  0  0  0  0  0  0  0
  -12.4246  -10.4674   -1.4790 H   0  0  0  0  0  0  0  0  0  0  0  0
   -9.4206  -10.2188   -2.0313 H   0  0  0  0  0  0  0  0  0  0  0  0
  -12.8542  -11.4147   -3.4641 H   0  0  0  0  0  0  0  0  0  0  0  0
  -13.1324  -11.9173   -5.8729 H   0  0  0  0  0  0  0  0  0  0  0  0
   -8.6596  -10.5312   -4.1709 H   0  0  0  0  0  0  0  0  0  0  0  0
   -9.2067  -12.6245   -8.1707 H   0  0  0  0  0  0  0  0  0  0  0  0
   -9.5056  -10.9773   -8.7782 H   0  0  0  0  0  0  0  0  0  0  0  0
  -12.0475   -6.6873   -2.2432 H   0  0  0  0  0  0  0  0  0  0  0  0
   -9.2798   -5.9612   -2.7264 H   0  0  0  0  0  0  0  0  0  0  0  0
   -5.2876   -6.9871   -0.5980 H   0  0  0  0  0  0  0  0  0  0  0  0
   -0.7435   -7.5693    3.7951 H   0  0  0  0  0  0  0  0  0  0  0  0
  1  2  1  0  0  0  0
  1 39  1  0  0  0  0
  1 40  1  0  0  0  0
  1 41  1  0  0  0  0
  2  3  1  0  0  0  0
  2 38  2  0  0  0  0
  3  4  2  0  0  0  0
  3 42  1  0  0  0  0
  4  5  1  0  0  0  0
  4 43  1  0  0  0  0
  5  6  2  0  0  0  0
  5 44  1  0  0  0  0
  6  7  1  0  0  0  0
  6 38  1  0  0  0  0
  7  8  2  0  0  0  0
  7  9  1  0  0  0  0
  9 10  1  0  0  0  0
  9 45  1  0  0  0  0
 10 11  1  0  0  0  0
 10 37  2  0  0  0  0
 11 12  2  0  0  0  0
 11 46  1  0  0  0  0
 12 13  1  0  0  0  0
 12 47  1  0  0  0  0
 13 14  2  0  0  0  0
 13 48  1  0  0  0  0
 14 15  1  0  0  0  0
 14 37  1  0  0  0  0
 15 16  1  0  0  0  0
 15 17  1  0  0  0  0
 16 49  1  0  0  0  0
 16 50  1  0  0  0  0
 16 51  1  0  0  0  0
 17 18  1  0  0  0  0
 17 36  2  0  0  0  0
 18 19  2  0  0  0  0
 18 52  1  0  0  0  0
 19 20  1  0  0  0  0
 19 53  1  0  0  0  0
 20 21  1  0  0  0  0
 20 35  2  0  0  0  0
 21 22  1  0  0  0  0
 21 33  2  0  0  0  0
 22 23  2  0  0  0  0
 22 54  1  0  0  0  0
 23 24  1  0  0  0  0
 23 55  1  0  0  0  0
 24 25  1  0  0  0  0
 24 29  2  0  0  0  0
 25 26  2  0  0  0  0
 25 56  1  0  0  0  0
 26 27  1  0  0  0  0
 26 57  1  0  0  0  0
 27 28  2  0  0  0  0
 27 32  1  0  0  0  0
 28 29  1  0  0  0  0
 28 30  1  0  0  0  0
 29 58  1  0  0  0  0
 30 31  1  0  0  0  0
 31 32  1  0  0  0  0
 31 59  1  0  0  0  0
 31 60  1  0  0  0  0
 33 34  1  0  0  0  0
 34 35  1  0  0  0  0
 34 61  1  0  0  0  0
 35 36  1  0  0  0  0
 36 62  1  0  0  0  0
 37 63  1  0  0  0  0
 38 64  1  0  0  0  0
M  END
$$$$
