CHEMBL390186
 OpenBabel04072215373D

 44 47  0  0  0  0  0  0  0  0999 V2000
   -3.2544    0.3574    0.5164 N   0  0  0  0  0  0  0  0  0  0  0  0
   -2.1138    0.1524    0.4341 C   0  0  0  0  0  0  0  0  0  0  0  0
   -0.7113   -0.0476    0.3279 C   0  0  0  0  0  0  0  0  0  0  0  0
    0.1222    1.0421    0.2423 C   0  0  0  0  0  0  0  0  0  0  0  0
    1.4655    0.9632    0.1658 N   0  0  0  0  0  0  0  0  0  0  0  0
    2.0102   -0.2625    0.1572 C   0  0  0  0  0  0  0  0  0  0  0  0
    3.3981   -0.2738   -0.0067 N   0  0  0  0  0  0  0  0  0  0  0  0
    4.2343   -1.2486   -0.5721 C   0  0  0  0  0  0  0  0  0  0  0  0
    5.4148   -0.8538   -1.2226 C   0  0  0  0  0  0  0  0  0  0  0  0
    6.2438   -1.7878   -1.8620 C   0  0  0  0  0  0  0  0  0  0  0  0
    5.9128   -3.1456   -1.8521 C   0  0  0  0  0  0  0  0  0  0  0  0
    6.7464   -4.1739   -2.5792 C   0  0  0  0  0  0  0  0  0  0  0  0
    7.8806   -4.7624   -1.7415 C   0  0  0  0  0  0  0  0  0  0  0  0
    7.3897   -5.4610   -0.6022 O   0  0  0  0  0  0  0  0  0  0  0  0
    4.7664   -3.5493   -1.1604 C   0  0  0  0  0  0  0  0  0  0  0  0
    3.9450   -2.6129   -0.5272 C   0  0  0  0  0  0  0  0  0  0  0  0
    1.2773   -1.3868    0.2556 N   0  0  0  0  0  0  0  0  0  0  0  0
   -0.0756   -1.2728    0.3280 C   0  0  0  0  0  0  0  0  0  0  0  0
   -0.7571   -2.5750    0.4061 C   0  0  0  0  0  0  0  0  0  0  0  0
   -2.0446   -2.9888    0.0968 C   0  0  0  0  0  0  0  0  0  0  0  0
   -2.1699   -4.3762    0.3969 C   0  0  0  0  0  0  0  0  0  0  0  0
   -3.2206   -5.3106    0.3052 C   0  0  0  0  0  0  0  0  0  0  0  0
   -3.0001   -6.6339    0.7058 C   0  0  0  0  0  0  0  0  0  0  0  0
   -1.7537   -7.0293    1.1856 C   0  0  0  0  0  0  0  0  0  0  0  0
   -0.6930   -6.1209    1.2733 C   0  0  0  0  0  0  0  0  0  0  0  0
   -0.9323   -4.7996    0.8718 C   0  0  0  0  0  0  0  0  0  0  0  0
   -0.0972   -3.7082    0.8425 N   0  0  0  0  0  0  0  0  0  0  0  0
   -0.2717    2.0564    0.2251 H   0  0  0  0  0  0  0  0  0  0  0  0
    3.6972    0.6842   -0.1361 H   0  0  0  0  0  0  0  0  0  0  0  0
    5.6868    0.1988   -1.2736 H   0  0  0  0  0  0  0  0  0  0  0  0
    7.1297   -1.4390   -2.3883 H   0  0  0  0  0  0  0  0  0  0  0  0
    7.1606   -3.7225   -3.4889 H   0  0  0  0  0  0  0  0  0  0  0  0
    6.0835   -4.9826   -2.9132 H   0  0  0  0  0  0  0  0  0  0  0  0
    8.5851   -3.9948   -1.4067 H   0  0  0  0  0  0  0  0  0  0  0  0
    8.4347   -5.4872   -2.3475 H   0  0  0  0  0  0  0  0  0  0  0  0
    7.0282   -4.7891    0.0039 H   0  0  0  0  0  0  0  0  0  0  0  0
    4.4903   -4.6009   -1.1216 H   0  0  0  0  0  0  0  0  0  0  0  0
    3.0674   -2.9763   -0.0061 H   0  0  0  0  0  0  0  0  0  0  0  0
   -2.8433   -2.3783   -0.3055 H   0  0  0  0  0  0  0  0  0  0  0  0
   -4.1957   -5.0113   -0.0677 H   0  0  0  0  0  0  0  0  0  0  0  0
   -3.8103   -7.3572    0.6433 H   0  0  0  0  0  0  0  0  0  0  0  0
   -1.6018   -8.0611    1.4959 H   0  0  0  0  0  0  0  0  0  0  0  0
    0.2774   -6.4353    1.6427 H   0  0  0  0  0  0  0  0  0  0  0  0
    0.8752   -3.7147    1.1182 H   0  0  0  0  0  0  0  0  0  0  0  0
  1  2  3  0  0  0  0
  2  3  1  0  0  0  0
  3  4  1  0  0  0  0
  3 18  2  0  0  0  0
  4  5  2  0  0  0  0
  4 28  1  0  0  0  0
  5  6  1  0  0  0  0
  6  7  1  0  0  0  0
  6 17  2  0  0  0  0
  7  8  1  0  0  0  0
  7 29  1  0  0  0  0
  8  9  1  0  0  0  0
  8 16  2  0  0  0  0
  9 10  2  0  0  0  0
  9 30  1  0  0  0  0
 10 11  1  0  0  0  0
 10 31  1  0  0  0  0
 11 12  1  0  0  0  0
 11 15  2  0  0  0  0
 12 13  1  0  0  0  0
 12 32  1  0  0  0  0
 12 33  1  0  0  0  0
 13 14  1  0  0  0  0
 13 34  1  0  0  0  0
 13 35  1  0  0  0  0
 14 36  1  0  0  0  0
 15 16  1  0  0  0  0
 15 37  1  0  0  0  0
 16 38  1  0  0  0  0
 17 18  1  0  0  0  0
 18 19  1  0  0  0  0
 19 20  2  0  0  0  0
 19 27  1  0  0  0  0
 20 21  1  0  0  0  0
 20 39  1  0  0  0  0
 21 22  1  0  0  0  0
 21 26  2  0  0  0  0
 22 23  2  0  0  0  0
 22 40  1  0  0  0  0
 23 24  1  0  0  0  0
 23 41  1  0  0  0  0
 24 25  2  0  0  0  0
 24 42  1  0  0  0  0
 25 26  1  0  0  0  0
 25 43  1  0  0  0  0
 26 27  1  0  0  0  0
 27 44  1  0  0  0  0
M  END
$$$$
