CHEMBL457100
 OpenBabel04072215383D

 59 64  0  0  0  0  0  0  0  0999 V2000
    3.1922   11.3885   -2.1053 C   0  0  0  0  0  0  0  0  0  0  0  0
    2.8550   11.1155   -0.7288 N   0  0  0  0  0  0  0  0  0  0  0  0
    3.2122    9.8716   -0.2277 C   0  0  0  0  0  0  0  0  0  0  0  0
    3.4409    9.8453    1.0861 N   0  0  0  0  0  0  0  0  0  0  0  0
    3.8295    8.6700    1.6071 C   0  0  0  0  0  0  0  0  0  0  0  0
    4.0165    7.5270    0.8660 C   0  0  0  0  0  0  0  0  0  0  0  0
    3.7644    7.6280   -0.4855 C   0  0  0  0  0  0  0  0  0  0  0  0
    4.0024    6.5393   -1.4631 C   0  0  0  0  0  0  0  0  0  0  0  0
    4.3579    6.8967   -2.7855 C   0  0  0  0  0  0  0  0  0  0  0  0
    4.6286    5.9430   -3.7621 C   0  0  0  0  0  0  0  0  0  0  0  0
    4.4973    4.6200   -3.4162 C   0  0  0  0  0  0  0  0  0  0  0  0
    4.1376    4.2153   -2.1859 N   0  0  0  0  0  0  0  0  0  0  0  0
    3.9434    5.1566   -1.2169 C   0  0  0  0  0  0  0  0  0  0  0  0
    3.6813    4.6826    0.0749 O   0  0  0  0  0  0  0  0  0  0  0  0
    4.0854    3.3834    0.3780 C   0  0  0  0  0  0  0  0  0  0  0  0
    5.3386    2.9197   -0.0205 C   0  0  0  0  0  0  0  0  0  0  0  0
    5.6747    1.5783    0.1330 C   0  0  0  0  0  0  0  0  0  0  0  0
    4.8029    0.6656    0.7408 C   0  0  0  0  0  0  0  0  0  0  0  0
    5.1084   -0.7323    0.7896 N   0  0  0  0  0  0  0  0  0  0  0  0
    6.2776   -1.3134    0.4207 C   0  0  0  0  0  0  0  0  0  0  0  0
    7.4726   -0.7801    0.3115 N   0  0  0  0  0  0  0  0  0  0  0  0
    8.3132   -1.7847   -0.0784 C   0  0  0  0  0  0  0  0  0  0  0  0
    9.6879   -1.7240   -0.3359 C   0  0  0  0  0  0  0  0  0  0  0  0
   10.3514   -2.8943   -0.7040 C   0  0  0  0  0  0  0  0  0  0  0  0
    9.6534   -4.0983   -0.8204 C   0  0  0  0  0  0  0  0  0  0  0  0
    8.2654   -4.1930   -0.5788 C   0  0  0  0  0  0  0  0  0  0  0  0
    7.5703   -5.5133   -0.7250 C   0  0  0  0  0  0  0  0  0  0  0  0
    7.6337   -2.9910   -0.2056 C   0  0  0  0  0  0  0  0  0  0  0  0
    6.3343   -2.6574    0.1149 N   0  0  0  0  0  0  0  0  0  0  0  0
    3.6175    1.1794    1.3565 C   0  0  0  0  0  0  0  0  0  0  0  0
    2.7855    0.3891    2.1885 C   0  0  0  0  0  0  0  0  0  0  0  0
    1.6261    0.8985    2.7772 C   0  0  0  0  0  0  0  0  0  0  0  0
    1.2551    2.2135    2.5427 C   0  0  0  0  0  0  0  0  0  0  0  0
    2.0527    3.0261    1.7352 C   0  0  0  0  0  0  0  0  0  0  0  0
    3.2455    2.5462    1.1489 C   0  0  0  0  0  0  0  0  0  0  0  0
    3.3548    8.8072   -1.0302 N   0  0  0  0  0  0  0  0  0  0  0  0
    3.2724   12.4724   -2.2476 H   0  0  0  0  0  0  0  0  0  0  0  0
    2.4019   11.0302   -2.7727 H   0  0  0  0  0  0  0  0  0  0  0  0
    4.1498   10.9514   -2.4086 H   0  0  0  0  0  0  0  0  0  0  0  0
    3.1719   11.7953   -0.0474 H   0  0  0  0  0  0  0  0  0  0  0  0
    4.0139    8.6781    2.6770 H   0  0  0  0  0  0  0  0  0  0  0  0
    4.3791    6.6270    1.3405 H   0  0  0  0  0  0  0  0  0  0  0  0
    4.4456    7.9478   -3.0586 H   0  0  0  0  0  0  0  0  0  0  0  0
    4.9302    6.2331   -4.7617 H   0  0  0  0  0  0  0  0  0  0  0  0
    4.6952    3.8245   -4.1280 H   0  0  0  0  0  0  0  0  0  0  0  0
    6.0401    3.5702   -0.5345 H   0  0  0  0  0  0  0  0  0  0  0  0
    6.6203    1.2585   -0.2923 H   0  0  0  0  0  0  0  0  0  0  0  0
    4.2627   -1.2877    0.8118 H   0  0  0  0  0  0  0  0  0  0  0  0
   10.2136   -0.7810   -0.2404 H   0  0  0  0  0  0  0  0  0  0  0  0
   11.4207   -2.8645   -0.8970 H   0  0  0  0  0  0  0  0  0  0  0  0
   10.2131   -4.9888   -1.1055 H   0  0  0  0  0  0  0  0  0  0  0  0
    8.2803   -6.3128   -0.9671 H   0  0  0  0  0  0  0  0  0  0  0  0
    6.8327   -5.4665   -1.5316 H   0  0  0  0  0  0  0  0  0  0  0  0
    7.0710   -5.7855    0.2094 H   0  0  0  0  0  0  0  0  0  0  0  0
    5.5508   -3.2896    0.1132 H   0  0  0  0  0  0  0  0  0  0  0  0
    3.0565   -0.6352    2.4315 H   0  0  0  0  0  0  0  0  0  0  0  0
    1.0234    0.2686    3.4267 H   0  0  0  0  0  0  0  0  0  0  0  0
    0.3551    2.6159    3.0015 H   0  0  0  0  0  0  0  0  0  0  0  0
    1.7465    4.0598    1.5868 H   0  0  0  0  0  0  0  0  0  0  0  0
  1  2  1  0  0  0  0
  1 37  1  0  0  0  0
  1 38  1  0  0  0  0
  1 39  1  0  0  0  0
  2  3  1  0  0  0  0
  2 40  1  0  0  0  0
  3  4  1  0  0  0  0
  3 36  2  0  0  0  0
  4  5  2  0  0  0  0
  5  6  1  0  0  0  0
  5 41  1  0  0  0  0
  6  7  2  0  0  0  0
  6 42  1  0  0  0  0
  7  8  1  0  0  0  0
  7 36  1  0  0  0  0
  8  9  1  0  0  0  0
  8 13  2  0  0  0  0
  9 10  2  0  0  0  0
  9 43  1  0  0  0  0
 10 11  1  0  0  0  0
 10 44  1  0  0  0  0
 11 12  2  0  0  0  0
 11 45  1  0  0  0  0
 12 13  1  0  0  0  0
 13 14  1  0  0  0  0
 14 15  1  0  0  0  0
 15 16  1  0  0  0  0
 15 35  2  0  0  0  0
 16 17  2  0  0  0  0
 16 46  1  0  0  0  0
 17 18  1  0  0  0  0
 17 47  1  0  0  0  0
 18 19  1  0  0  0  0
 18 30  2  0  0  0  0
 19 20  1  0  0  0  0
 19 48  1  0  0  0  0
 20 21  2  0  0  0  0
 20 29  1  0  0  0  0
 21 22  1  0  0  0  0
 22 23  1  0  0  0  0
 22 28  2  0  0  0  0
 23 24  2  0  0  0  0
 23 49  1  0  0  0  0
 24 25  1  0  0  0  0
 24 50  1  0  0  0  0
 25 26  2  0  0  0  0
 25 51  1  0  0  0  0
 26 27  1  0  0  0  0
 26 28  1  0  0  0  0
 27 52  1  0  0  0  0
 27 53  1  0  0  0  0
 27 54  1  0  0  0  0
 28 29  1  0  0  0  0
 29 55  1  0  0  0  0
 30 31  1  0  0  0  0
 30 35  1  0  0  0  0
 31 32  2  0  0  0  0
 31 56  1  0  0  0  0
 32 33  1  0  0  0  0
 32 57  1  0  0  0  0
 33 34  2  0  0  0  0
 33 58  1  0  0  0  0
 34 35  1  0  0  0  0
 34 59  1  0  0  0  0
M  END
$$$$
