CHEMBL1095359
 OpenBabel04072215363D

 68 73  0  0  0  0  0  0  0  0999 V2000
    0.7432    1.8095   -0.2726 C   0  0  0  0  0  0  0  0  0  0  0  0
    2.1951    1.7567   -0.2029 N   0  0  0  0  0  0  0  0  0  0  0  0
    2.8066    2.0475    1.0871 C   0  0  0  0  0  0  0  0  0  0  0  0
    2.8657    1.6014   -1.4185 C   0  0  0  0  0  0  0  0  0  0  0  0
    2.2606    1.6018   -2.4925 O   0  0  0  0  0  0  0  0  0  0  0  0
    4.3342    1.4099   -1.4917 C   0  0  0  0  0  0  0  0  0  0  0  0
    5.0306    1.8397   -2.6295 C   0  0  0  0  0  0  0  0  0  0  0  0
    6.3928    1.5620   -2.7683 C   0  0  0  0  0  0  0  0  0  0  0  0
    7.0213    0.8495   -1.7587 C   0  0  0  0  0  0  0  0  0  0  0  0
    8.4555    0.5788   -1.7671 C   0  0  0  0  0  0  0  0  0  0  0  0
    9.3248    0.2275   -2.7870 C   0  0  0  0  0  0  0  0  0  0  0  0
   10.6927    0.2127   -2.3652 C   0  0  0  0  0  0  0  0  0  0  0  0
   11.7843   -0.0579   -3.1357 N   0  0  0  0  0  0  0  0  0  0  0  0
   12.9821    0.1059   -2.5241 C   0  0  0  0  0  0  0  0  0  0  0  0
   13.1774    0.5448   -1.2278 C   0  0  0  0  0  0  0  0  0  0  0  0
   12.0527    0.8283   -0.4732 C   0  0  0  0  0  0  0  0  0  0  0  0
   12.0837    1.2316    0.8233 O   0  0  0  0  0  0  0  0  0  0  0  0
   12.6810    2.4118    1.1636 C   0  0  0  0  0  0  0  0  0  0  0  0
   12.7272    2.5800    2.5420 C   0  0  0  0  0  0  0  0  0  0  0  0
   13.5017    3.5877    3.0869 C   0  0  0  0  0  0  0  0  0  0  0  0
   14.2273    4.4416    2.2581 C   0  0  0  0  0  0  0  0  0  0  0  0
   15.1567    5.3437    2.7896 N   0  0  0  0  0  0  0  0  0  0  0  0
   15.7528    5.1921    4.0303 C   0  0  0  0  0  0  0  0  0  0  0  0
   15.7124    4.2035    4.7488 O   0  0  0  0  0  0  0  0  0  0  0  0
   16.4676    6.3688    4.4497 C   0  0  0  0  0  0  0  0  0  0  0  0
   17.2891    7.2171    3.6991 C   0  0  0  0  0  0  0  0  0  0  0  0
   17.6451    8.2929    4.3851 N   0  0  0  0  0  0  0  0  0  0  0  0
   17.1617    8.0819    5.6463 N   0  0  0  0  0  0  0  0  0  0  0  0
   17.4732    9.0465    6.6419 C   0  0  0  0  0  0  0  0  0  0  0  0
   17.6362   10.3806    6.2389 C   0  0  0  0  0  0  0  0  0  0  0  0
   17.9162   11.3675    7.1805 C   0  0  0  0  0  0  0  0  0  0  0  0
   18.0619   11.0246    8.5217 C   0  0  0  0  0  0  0  0  0  0  0  0
   17.9316    9.6950    8.9223 C   0  0  0  0  0  0  0  0  0  0  0  0
   17.6384    8.7021    7.9861 C   0  0  0  0  0  0  0  0  0  0  0  0
   16.4078    6.9407    5.7132 C   0  0  0  0  0  0  0  0  0  0  0  0
   15.5814    6.5624    6.8781 C   0  0  0  0  0  0  0  0  0  0  0  0
   14.5918    5.6837    6.5719 F   0  0  0  0  0  0  0  0  0  0  0  0
   16.3108    5.9901    7.8667 F   0  0  0  0  0  0  0  0  0  0  0  0
   14.9473    7.6351    7.4162 F   0  0  0  0  0  0  0  0  0  0  0  0
   14.0264    4.4042    0.8788 C   0  0  0  0  0  0  0  0  0  0  0  0
   13.2500    3.3817    0.3353 C   0  0  0  0  0  0  0  0  0  0  0  0
   13.1154    3.3468   -0.9983 F   0  0  0  0  0  0  0  0  0  0  0  0
   10.8028    0.5975   -1.0389 C   0  0  0  0  0  0  0  0  0  0  0  0
    9.2853    0.7480   -0.2826 S   0  0  0  0  0  0  0  0  0  0  0  0
    6.3669    0.4163   -0.6532 N   0  0  0  0  0  0  0  0  0  0  0  0
    5.0468    0.6883   -0.5532 C   0  0  0  0  0  0  0  0  0  0  0  0
    0.2983    1.8575    0.7246 H   0  0  0  0  0  0  0  0  0  0  0  0
    0.3738    0.9153   -0.7844 H   0  0  0  0  0  0  0  0  0  0  0  0
    0.4495    2.6934   -0.8478 H   0  0  0  0  0  0  0  0  0  0  0  0
    2.0983    2.5651    1.7409 H   0  0  0  0  0  0  0  0  0  0  0  0
    3.6892    2.6779    0.9580 H   0  0  0  0  0  0  0  0  0  0  0  0
    3.0791    1.1037    1.5670 H   0  0  0  0  0  0  0  0  0  0  0  0
    4.5089    2.3760   -3.4193 H   0  0  0  0  0  0  0  0  0  0  0  0
    6.9407    1.9126   -3.6366 H   0  0  0  0  0  0  0  0  0  0  0  0
    9.0181    0.0311   -3.8056 H   0  0  0  0  0  0  0  0  0  0  0  0
   13.8415   -0.1318   -3.1471 H   0  0  0  0  0  0  0  0  0  0  0  0
   14.1742    0.6759   -0.8221 H   0  0  0  0  0  0  0  0  0  0  0  0
   12.2005    1.8887    3.1954 H   0  0  0  0  0  0  0  0  0  0  0  0
   13.5391    3.6634    4.1705 H   0  0  0  0  0  0  0  0  0  0  0  0
   15.4611    6.0982    2.1907 H   0  0  0  0  0  0  0  0  0  0  0  0
   17.6090    7.1214    2.6696 H   0  0  0  0  0  0  0  0  0  0  0  0
   17.5117   10.6672    5.1952 H   0  0  0  0  0  0  0  0  0  0  0  0
   18.0183   12.4019    6.8647 H   0  0  0  0  0  0  0  0  0  0  0  0
   18.2862   11.7927    9.2569 H   0  0  0  0  0  0  0  0  0  0  0  0
   18.0715    9.4276    9.9667 H   0  0  0  0  0  0  0  0  0  0  0  0
   17.6080    7.6762    8.3353 H   0  0  0  0  0  0  0  0  0  0  0  0
   14.5176    5.0986    0.2049 H   0  0  0  0  0  0  0  0  0  0  0  0
    4.5870    0.2529    0.3242 H   0  0  0  0  0  0  0  0  0  0  0  0
  1  2  1  0  0  0  0
  1 47  1  0  0  0  0
  1 48  1  0  0  0  0
  1 49  1  0  0  0  0
  2  3  1  0  0  0  0
  2  4  1  0  0  0  0
  3 50  1  0  0  0  0
  3 51  1  0  0  0  0
  3 52  1  0  0  0  0
  4  5  2  0  0  0  0
  4  6  1  0  0  0  0
  6  7  1  0  0  0  0
  6 46  2  0  0  0  0
  7  8  2  0  0  0  0
  7 53  1  0  0  0  0
  8  9  1  0  0  0  0
  8 54  1  0  0  0  0
  9 10  1  0  0  0  0
  9 45  2  0  0  0  0
 10 11  2  0  0  0  0
 10 44  1  0  0  0  0
 11 12  1  0  0  0  0
 11 55  1  0  0  0  0
 12 13  1  0  0  0  0
 12 43  2  0  0  0  0
 13 14  2  0  0  0  0
 14 15  1  0  0  0  0
 14 56  1  0  0  0  0
 15 16  2  0  0  0  0
 15 57  1  0  0  0  0
 16 17  1  0  0  0  0
 16 43  1  0  0  0  0
 17 18  1  0  0  0  0
 18 19  1  0  0  0  0
 18 41  2  0  0  0  0
 19 20  2  0  0  0  0
 19 58  1  0  0  0  0
 20 21  1  0  0  0  0
 20 59  1  0  0  0  0
 21 22  1  0  0  0  0
 21 40  2  0  0  0  0
 22 23  1  0  0  0  0
 22 60  1  0  0  0  0
 23 24  2  0  0  0  0
 23 25  1  0  0  0  0
 25 26  1  0  0  0  0
 25 35  2  0  0  0  0
 26 27  2  0  0  0  0
 26 61  1  0  0  0  0
 27 28  1  0  0  0  0
 28 29  1  0  0  0  0
 28 35  1  0  0  0  0
 29 30  1  0  0  0  0
 29 34  2  0  0  0  0
 30 31  2  0  0  0  0
 30 62  1  0  0  0  0
 31 32  1  0  0  0  0
 31 63  1  0  0  0  0
 32 33  2  0  0  0  0
 32 64  1  0  0  0  0
 33 34  1  0  0  0  0
 33 65  1  0  0  0  0
 34 66  1  0  0  0  0
 35 36  1  0  0  0  0
 36 37  1  0  0  0  0
 36 38  1  0  0  0  0
 36 39  1  0  0  0  0
 40 41  1  0  0  0  0
 40 67  1  0  0  0  0
 41 42  1  0  0  0  0
 43 44  1  0  0  0  0
 45 46  1  0  0  0  0
 46 68  1  0  0  0  0
M  END
$$$$
