CHEMBL1967116
 OpenBabel04072215363D

 55 59  0  0  0  0  0  0  0  0999 V2000
    2.3739   -0.4227    1.5323 C   0  0  0  0  0  0  0  0  0  0  0  0
    0.8784   -0.2982    1.5088 C   0  0  0  0  0  0  0  0  0  0  0  0
    0.2720    0.8893    1.9367 C   0  0  0  0  0  0  0  0  0  0  0  0
   -1.1084    1.0067    1.9217 C   0  0  0  0  0  0  0  0  0  0  0  0
   -1.8984   -0.0564    1.4836 C   0  0  0  0  0  0  0  0  0  0  0  0
   -1.3221   -1.2514    1.0396 C   0  0  0  0  0  0  0  0  0  0  0  0
   -2.0837   -2.3619    0.5904 N   0  0  0  0  0  0  0  0  0  0  0  0
   -3.4487   -2.3659    0.3923 C   0  0  0  0  0  0  0  0  0  0  0  0
   -4.1805   -1.3890    0.5004 O   0  0  0  0  0  0  0  0  0  0  0  0
   -3.9359   -3.6374    0.0884 N   0  0  0  0  0  0  0  0  0  0  0  0
   -5.3230   -3.8232   -0.1413 C   0  0  0  0  0  0  0  0  0  0  0  0
   -6.0566   -2.9053   -0.8941 C   0  0  0  0  0  0  0  0  0  0  0  0
   -7.4489   -2.9755   -0.9354 C   0  0  0  0  0  0  0  0  0  0  0  0
   -8.1386   -3.9926   -0.2601 C   0  0  0  0  0  0  0  0  0  0  0  0
   -9.6134   -3.9827   -0.2264 C   0  0  0  0  0  0  0  0  0  0  0  0
  -10.2884   -3.6090   -1.3715 C   0  0  0  0  0  0  0  0  0  0  0  0
  -11.9599   -3.5382   -1.1721 S   0  0  0  0  0  0  0  0  0  0  0  0
  -11.8901   -4.1139    0.4569 C   0  0  0  0  0  0  0  0  0  0  0  0
  -12.9793   -4.3705    1.3233 C   0  0  0  0  0  0  0  0  0  0  0  0
  -14.3691   -4.2219    0.9240 C   0  0  0  0  0  0  0  0  0  0  0  0
  -15.0310   -4.4324   -0.3101 C   0  0  0  0  0  0  0  0  0  0  0  0
  -16.3453   -4.2041   -0.2449 N   0  0  0  0  0  0  0  0  0  0  0  0
  -16.5400   -3.8553    1.0355 N   0  0  0  0  0  0  0  0  0  0  0  0
  -17.8711   -3.5658    1.5107 C   0  0  0  0  0  0  0  0  0  0  0  0
  -15.3920   -3.8479    1.7764 C   0  0  0  0  0  0  0  0  0  0  0  0
  -12.6335   -4.7828    2.5958 C   0  0  0  0  0  0  0  0  0  0  0  0
  -11.3751   -4.9292    3.0434 N   0  0  0  0  0  0  0  0  0  0  0  0
  -10.3356   -4.6708    2.2279 C   0  0  0  0  0  0  0  0  0  0  0  0
   -9.0996   -4.8058    2.8471 N   0  0  0  0  0  0  0  0  0  0  0  0
  -10.5491   -4.2797    0.8731 C   0  0  0  0  0  0  0  0  0  0  0  0
   -7.3851   -4.9863    0.3760 C   0  0  0  0  0  0  0  0  0  0  0  0
   -5.9852   -4.8979    0.4496 C   0  0  0  0  0  0  0  0  0  0  0  0
    0.0755   -1.3629    1.0577 C   0  0  0  0  0  0  0  0  0  0  0  0
    2.8436    0.4862    1.9260 H   0  0  0  0  0  0  0  0  0  0  0  0
    2.7556   -0.5845    0.5196 H   0  0  0  0  0  0  0  0  0  0  0  0
    2.6768   -1.2550    2.1752 H   0  0  0  0  0  0  0  0  0  0  0  0
    0.8725    1.7267    2.2815 H   0  0  0  0  0  0  0  0  0  0  0  0
   -1.5850    1.9271    2.2514 H   0  0  0  0  0  0  0  0  0  0  0  0
   -2.9716    0.0952    1.5076 H   0  0  0  0  0  0  0  0  0  0  0  0
   -1.5719   -3.1626    0.2541 H   0  0  0  0  0  0  0  0  0  0  0  0
   -3.4506   -4.3960    0.5447 H   0  0  0  0  0  0  0  0  0  0  0  0
   -5.5590   -2.0904   -1.4161 H   0  0  0  0  0  0  0  0  0  0  0  0
   -7.9768   -2.1934   -1.4758 H   0  0  0  0  0  0  0  0  0  0  0  0
   -9.8726   -3.3404   -2.3338 H   0  0  0  0  0  0  0  0  0  0  0  0
  -14.6190   -4.7535   -1.2575 H   0  0  0  0  0  0  0  0  0  0  0  0
  -18.5784   -3.6254    0.6793 H   0  0  0  0  0  0  0  0  0  0  0  0
  -17.8761   -2.5586    1.9337 H   0  0  0  0  0  0  0  0  0  0  0  0
  -18.1293   -4.3052    2.2729 H   0  0  0  0  0  0  0  0  0  0  0  0
  -15.4085   -3.5815    2.8242 H   0  0  0  0  0  0  0  0  0  0  0  0
  -13.3920   -5.0301    3.3367 H   0  0  0  0  0  0  0  0  0  0  0  0
   -9.2477   -4.8916    3.8476 H   0  0  0  0  0  0  0  0  0  0  0  0
   -8.4361   -4.0903    2.5775 H   0  0  0  0  0  0  0  0  0  0  0  0
   -7.8776   -5.8215    0.8702 H   0  0  0  0  0  0  0  0  0  0  0  0
   -5.4455   -5.6319    1.0408 H   0  0  0  0  0  0  0  0  0  0  0  0
    0.5568   -2.2815    0.7306 H   0  0  0  0  0  0  0  0  0  0  0  0
  1  2  1  0  0  0  0
  1 34  1  0  0  0  0
  1 35  1  0  0  0  0
  1 36  1  0  0  0  0
  2  3  1  0  0  0  0
  2 33  2  0  0  0  0
  3  4  2  0  0  0  0
  3 37  1  0  0  0  0
  4  5  1  0  0  0  0
  4 38  1  0  0  0  0
  5  6  2  0  0  0  0
  5 39  1  0  0  0  0
  6  7  1  0  0  0  0
  6 33  1  0  0  0  0
  7  8  1  0  0  0  0
  7 40  1  0  0  0  0
  8  9  2  0  0  0  0
  8 10  1  0  0  0  0
 10 11  1  0  0  0  0
 10 41  1  0  0  0  0
 11 12  1  0  0  0  0
 11 32  2  0  0  0  0
 12 13  2  0  0  0  0
 12 42  1  0  0  0  0
 13 14  1  0  0  0  0
 13 43  1  0  0  0  0
 14 15  1  0  0  0  0
 14 31  2  0  0  0  0
 15 16  2  0  0  0  0
 15 30  1  0  0  0  0
 16 17  1  0  0  0  0
 16 44  1  0  0  0  0
 17 18  1  0  0  0  0
 18 19  1  0  0  0  0
 18 30  2  0  0  0  0
 19 20  1  0  0  0  0
 19 26  2  0  0  0  0
 20 21  1  0  0  0  0
 20 25  2  0  0  0  0
 21 22  2  0  0  0  0
 21 45  1  0  0  0  0
 22 23  1  0  0  0  0
 23 24  1  0  0  0  0
 23 25  1  0  0  0  0
 24 46  1  0  0  0  0
 24 47  1  0  0  0  0
 24 48  1  0  0  0  0
 25 49  1  0  0  0  0
 26 27  1  0  0  0  0
 26 50  1  0  0  0  0
 27 28  2  0  0  0  0
 28 29  1  0  0  0  0
 28 30  1  0  0  0  0
 29 51  1  0  0  0  0
 29 52  1  0  0  0  0
 31 32  1  0  0  0  0
 31 53  1  0  0  0  0
 32 54  1  0  0  0  0
 33 55  1  0  0  0  0
M  END
$$$$
