CHEMBL3671557
 OpenBabel04072215373D

 56 58  0  0  0  0  0  0  0  0999 V2000
    2.1844   -1.3124   -1.7589 C   0  0  0  0  0  0  0  0  0  0  0  0
    2.8697   -0.5490   -0.9002 C   0  0  0  0  0  0  0  0  0  0  0  0
    3.5525    0.7006   -1.3532 C   0  0  0  0  0  0  0  0  0  0  0  0
    3.2977    1.2190   -2.4285 O   0  0  0  0  0  0  0  0  0  0  0  0
    4.5019    1.1364   -0.4386 N   0  0  0  0  0  0  0  0  0  0  0  0
    5.2167    2.3183   -0.7281 C   0  0  0  0  0  0  0  0  0  0  0  0
    6.3657    2.1985   -1.5203 C   0  0  0  0  0  0  0  0  0  0  0  0
    6.9705    3.3422   -2.0821 C   0  0  0  0  0  0  0  0  0  0  0  0
    8.0345    3.3104   -3.0098 C   0  0  0  0  0  0  0  0  0  0  0  0
    8.4891    2.0653   -3.5018 N   0  0  0  0  0  0  0  0  0  0  0  0
    9.7785    1.7356   -3.9687 C   0  0  0  0  0  0  0  0  0  0  0  0
   10.9170    2.3440   -3.4274 C   0  0  0  0  0  0  0  0  0  0  0  0
   12.1876    1.8129   -3.6528 C   0  0  0  0  0  0  0  0  0  0  0  0
   12.3353    0.6857   -4.4578 C   0  0  0  0  0  0  0  0  0  0  0  0
   14.0267   -0.1466   -4.5915 Br  0  0  0  0  0  0  0  0  0  0  0  0
   11.2348    0.1347   -5.1068 C   0  0  0  0  0  0  0  0  0  0  0  0
    9.9698    0.6639   -4.8560 C   0  0  0  0  0  0  0  0  0  0  0  0
    8.9065    0.0970   -5.4497 F   0  0  0  0  0  0  0  0  0  0  0  0
    8.6181    4.4316   -3.4614 N   0  0  0  0  0  0  0  0  0  0  0  0
    8.1067    5.5916   -3.0362 C   0  0  0  0  0  0  0  0  0  0  0  0
    7.0740    5.7381   -2.1931 N   0  0  0  0  0  0  0  0  0  0  0  0
    6.5087    4.6203   -1.7326 C   0  0  0  0  0  0  0  0  0  0  0  0
    5.4177    4.7123   -0.8664 C   0  0  0  0  0  0  0  0  0  0  0  0
    4.7615    3.5865   -0.3541 C   0  0  0  0  0  0  0  0  0  0  0  0
    3.7095    3.8575    0.4961 O   0  0  0  0  0  0  0  0  0  0  0  0
    3.5838    2.9559    1.6027 C   0  0  0  0  0  0  0  0  0  0  0  0
    2.5657    3.4311    2.6378 C   0  0  0  0  0  0  0  0  0  0  0  0
    2.9523    4.7734    3.2530 C   0  0  0  0  0  0  0  0  0  0  0  0
    1.9669    5.1527    4.2716 N   0  0  0  0  0  0  0  0  0  0  0  0
    2.3192    6.4561    4.8466 C   0  0  0  0  0  0  0  0  0  0  0  0
    1.2902    6.8552    5.8929 C   0  0  0  0  0  0  0  0  0  0  0  0
    1.6167    8.1910    6.5104 C   0  0  0  0  0  0  0  0  0  0  0  0
    2.5932    8.8738    6.2215 O   0  0  0  0  0  0  0  0  0  0  0  0
    1.6298   -2.1807   -1.4135 H   0  0  0  0  0  0  0  0  0  0  0  0
    2.1409   -1.0851   -2.8200 H   0  0  0  0  0  0  0  0  0  0  0  0
    2.8825   -0.7759    0.1600 H   0  0  0  0  0  0  0  0  0  0  0  0
    5.0451    0.3705   -0.0545 H   0  0  0  0  0  0  0  0  0  0  0  0
    6.7549    1.2108   -1.7491 H   0  0  0  0  0  0  0  0  0  0  0  0
    7.7469    1.5437   -3.9579 H   0  0  0  0  0  0  0  0  0  0  0  0
   10.8167    3.1983   -2.7629 H   0  0  0  0  0  0  0  0  0  0  0  0
   13.0431    2.2588   -3.1505 H   0  0  0  0  0  0  0  0  0  0  0  0
   11.3370   -0.7259   -5.7610 H   0  0  0  0  0  0  0  0  0  0  0  0
    8.5659    6.4957   -3.4102 H   0  0  0  0  0  0  0  0  0  0  0  0
    5.0632    5.7100   -0.5886 H   0  0  0  0  0  0  0  0  0  0  0  0
    4.5574    2.8174    2.0894 H   0  0  0  0  0  0  0  0  0  0  0  0
    3.2005    1.9949    1.2547 H   0  0  0  0  0  0  0  0  0  0  0  0
    2.4980    2.6672    3.4235 H   0  0  0  0  0  0  0  0  0  0  0  0
    1.5753    3.5061    2.1708 H   0  0  0  0  0  0  0  0  0  0  0  0
    2.9896    5.5338    2.4675 H   0  0  0  0  0  0  0  0  0  0  0  0
    3.9436    4.6893    3.7070 H   0  0  0  0  0  0  0  0  0  0  0  0
    1.9435    4.4468    5.0070 H   0  0  0  0  0  0  0  0  0  0  0  0
    2.3523    7.2159    4.0558 H   0  0  0  0  0  0  0  0  0  0  0  0
    3.3158    6.4090    5.3036 H   0  0  0  0  0  0  0  0  0  0  0  0
    1.2527    6.1182    6.7031 H   0  0  0  0  0  0  0  0  0  0  0  0
    0.2911    6.9299    5.4492 H   0  0  0  0  0  0  0  0  0  0  0  0
    0.9032    8.5345    7.2782 H   0  0  0  0  0  0  0  0  0  0  0  0
  1  2  2  0  0  0  0
  1 34  1  0  0  0  0
  1 35  1  0  0  0  0
  2  3  1  0  0  0  0
  2 36  1  0  0  0  0
  3  4  2  0  0  0  0
  3  5  1  0  0  0  0
  5  6  1  0  0  0  0
  5 37  1  0  0  0  0
  6  7  1  0  0  0  0
  6 24  2  0  0  0  0
  7  8  2  0  0  0  0
  7 38  1  0  0  0  0
  8  9  1  0  0  0  0
  8 22  1  0  0  0  0
  9 10  1  0  0  0  0
  9 19  2  0  0  0  0
 10 11  1  0  0  0  0
 10 39  1  0  0  0  0
 11 12  1  0  0  0  0
 11 17  2  0  0  0  0
 12 13  2  0  0  0  0
 12 40  1  0  0  0  0
 13 14  1  0  0  0  0
 13 41  1  0  0  0  0
 14 15  1  0  0  0  0
 14 16  2  0  0  0  0
 16 17  1  0  0  0  0
 16 42  1  0  0  0  0
 17 18  1  0  0  0  0
 19 20  1  0  0  0  0
 20 21  2  0  0  0  0
 20 43  1  0  0  0  0
 21 22  1  0  0  0  0
 22 23  2  0  0  0  0
 23 24  1  0  0  0  0
 23 44  1  0  0  0  0
 24 25  1  0  0  0  0
 25 26  1  0  0  0  0
 26 27  1  0  0  0  0
 26 45  1  0  0  0  0
 26 46  1  0  0  0  0
 27 28  1  0  0  0  0
 27 47  1  0  0  0  0
 27 48  1  0  0  0  0
 28 29  1  0  0  0  0
 28 49  1  0  0  0  0
 28 50  1  0  0  0  0
 29 30  1  0  0  0  0
 29 51  1  0  0  0  0
 30 31  1  0  0  0  0
 30 52  1  0  0  0  0
 30 53  1  0  0  0  0
 31 32  1  0  0  0  0
 31 54  1  0  0  0  0
 31 55  1  0  0  0  0
 32 33  2  0  0  0  0
 32 56  1  0  0  0  0
M  END
$$$$
