CHEMBL2088101
 OpenBabel04072215363D

 36 38  0  0  0  0  0  0  0  0999 V2000
    5.9607   -0.1241   -2.9802 C   0  0  0  0  0  0  0  0  0  0  0  0
    4.9505    0.1247   -1.9324 C   0  0  0  0  0  0  0  0  0  0  0  0
    4.1698    1.2242   -1.6618 C   0  0  0  0  0  0  0  0  0  0  0  0
    3.4187    0.8908   -0.5129 C   0  0  0  0  0  0  0  0  0  0  0  0
    2.5584    1.6891    0.1507 N   0  0  0  0  0  0  0  0  0  0  0  0
    2.4124    3.0925    0.1157 C   0  0  0  0  0  0  0  0  0  0  0  0
    2.9826    3.8015   -0.8844 N   0  0  0  0  0  0  0  0  0  0  0  0
    2.8887    5.1340   -0.8763 C   0  0  0  0  0  0  0  0  0  0  0  0
    3.5865    5.7911   -1.8673 N   0  0  0  0  0  0  0  0  0  0  0  0
    3.0092    7.0354   -2.3439 C   0  0  0  0  0  0  0  0  0  0  0  0
    4.0975    7.9482   -2.8768 C   0  0  0  0  0  0  0  0  0  0  0  0
    5.1378    8.3466   -2.0347 C   0  0  0  0  0  0  0  0  0  0  0  0
    6.1028    9.2209   -2.5198 C   0  0  0  0  0  0  0  0  0  0  0  0
    6.0066    9.6790   -3.8272 C   0  0  0  0  0  0  0  0  0  0  0  0
    4.9470    9.2347   -4.5991 C   0  0  0  0  0  0  0  0  0  0  0  0
    3.9937    8.3833   -4.1591 N   0  0  0  0  0  0  0  0  0  0  0  0
    2.2344    5.8239    0.0625 N   0  0  0  0  0  0  0  0  0  0  0  0
    1.6615    5.1093    1.0487 C   0  0  0  0  0  0  0  0  0  0  0  0
    1.7154    3.7380    1.1265 C   0  0  0  0  0  0  0  0  0  0  0  0
    0.9230    2.8421    2.5870 Br  0  0  0  0  0  0  0  0  0  0  0  0
    3.6796   -0.3590   -0.1178 N   0  0  0  0  0  0  0  0  0  0  0  0
    4.6236   -0.7881   -0.9718 N   0  0  0  0  0  0  0  0  0  0  0  0
    6.0153    0.7217   -3.6740 H   0  0  0  0  0  0  0  0  0  0  0  0
    5.7090   -1.0184   -3.5580 H   0  0  0  0  0  0  0  0  0  0  0  0
    6.9520   -0.2597   -2.5367 H   0  0  0  0  0  0  0  0  0  0  0  0
    4.1648    2.1498   -2.2171 H   0  0  0  0  0  0  0  0  0  0  0  0
    2.1306    1.2647    0.9651 H   0  0  0  0  0  0  0  0  0  0  0  0
    3.8138    5.1266   -2.5955 H   0  0  0  0  0  0  0  0  0  0  0  0
    2.4807    7.5970   -1.5651 H   0  0  0  0  0  0  0  0  0  0  0  0
    2.2851    6.8190   -3.1393 H   0  0  0  0  0  0  0  0  0  0  0  0
    5.1911    7.9738   -1.0156 H   0  0  0  0  0  0  0  0  0  0  0  0
    6.9199    9.5432   -1.8813 H   0  0  0  0  0  0  0  0  0  0  0  0
    6.7377   10.3679   -4.2337 H   0  0  0  0  0  0  0  0  0  0  0  0
    4.8284    9.5677   -5.6272 H   0  0  0  0  0  0  0  0  0  0  0  0
    1.1614    5.7055    1.8060 H   0  0  0  0  0  0  0  0  0  0  0  0
    5.0059   -1.7177   -0.8354 H   0  0  0  0  0  0  0  0  0  0  0  0
  1  2  1  0  0  0  0
  1 23  1  0  0  0  0
  1 24  1  0  0  0  0
  1 25  1  0  0  0  0
  2  3  2  0  0  0  0
  2 22  1  0  0  0  0
  3  4  1  0  0  0  0
  3 26  1  0  0  0  0
  4  5  1  0  0  0  0
  4 21  2  0  0  0  0
  5  6  1  0  0  0  0
  5 27  1  0  0  0  0
  6  7  1  0  0  0  0
  6 19  2  0  0  0  0
  7  8  2  0  0  0  0
  8  9  1  0  0  0  0
  8 17  1  0  0  0  0
  9 10  1  0  0  0  0
  9 28  1  0  0  0  0
 10 11  1  0  0  0  0
 10 29  1  0  0  0  0
 10 30  1  0  0  0  0
 11 12  1  0  0  0  0
 11 16  2  0  0  0  0
 12 13  2  0  0  0  0
 12 31  1  0  0  0  0
 13 14  1  0  0  0  0
 13 32  1  0  0  0  0
 14 15  2  0  0  0  0
 14 33  1  0  0  0  0
 15 16  1  0  0  0  0
 15 34  1  0  0  0  0
 17 18  2  0  0  0  0
 18 19  1  0  0  0  0
 18 35  1  0  0  0  0
 19 20  1  0  0  0  0
 21 22  1  0  0  0  0
 22 36  1  0  0  0  0
M  END
$$$$
