CHEMBL1977681
 OpenBabel04072215363D

 29 31  0  0  0  0  0  0  0  0999 V2000
    0.9884   -2.0224    1.4006 C   0  0  0  0  0  0  0  0  0  0  0  0
    2.4199   -1.9151    1.3343 N   0  0  0  0  0  0  0  0  0  0  0  0
    3.0616   -0.7161    1.0950 C   0  0  0  0  0  0  0  0  0  0  0  0
    2.4342    0.3267    0.9263 O   0  0  0  0  0  0  0  0  0  0  0  0
    4.5178   -0.7839    1.0687 C   0  0  0  0  0  0  0  0  0  0  0  0
    5.4139    0.2821    0.9126 C   0  0  0  0  0  0  0  0  0  0  0  0
    6.7215   -0.1987    0.9714 C   0  0  0  0  0  0  0  0  0  0  0  0
    8.0238    0.3135    0.9083 C   0  0  0  0  0  0  0  0  0  0  0  0
    8.5222    1.6811    0.7757 C   0  0  0  0  0  0  0  0  0  0  0  0
    9.7404    1.9181    0.1147 C   0  0  0  0  0  0  0  0  0  0  0  0
   10.2539    3.2134   -0.0062 C   0  0  0  0  0  0  0  0  0  0  0  0
    9.5573    4.2925    0.5326 C   0  0  0  0  0  0  0  0  0  0  0  0
    8.3533    4.0731    1.1981 C   0  0  0  0  0  0  0  0  0  0  0  0
    7.8486    2.7777    1.3210 C   0  0  0  0  0  0  0  0  0  0  0  0
    6.7122    2.6200    2.0149 F   0  0  0  0  0  0  0  0  0  0  0  0
    8.8937   -0.7320    0.9843 N   0  0  0  0  0  0  0  0  0  0  0  0
    8.1125   -1.8338    1.1302 N   0  0  0  0  0  0  0  0  0  0  0  0
    6.8053   -1.5211    1.1193 C   0  0  0  0  0  0  0  0  0  0  0  0
    5.3608   -2.3147    1.2350 S   0  0  0  0  0  0  0  0  0  0  0  0
    0.7277   -3.0640    1.6019 H   0  0  0  0  0  0  0  0  0  0  0  0
    0.5571   -1.7067    0.4472 H   0  0  0  0  0  0  0  0  0  0  0  0
    0.6130   -1.3813    2.2022 H   0  0  0  0  0  0  0  0  0  0  0  0
    2.9898   -2.7360    1.4908 H   0  0  0  0  0  0  0  0  0  0  0  0
    5.0946    1.3094    0.7846 H   0  0  0  0  0  0  0  0  0  0  0  0
   10.3033    1.0855   -0.3050 H   0  0  0  0  0  0  0  0  0  0  0  0
   11.2012    3.3741   -0.5155 H   0  0  0  0  0  0  0  0  0  0  0  0
    9.9564    5.2996    0.4438 H   0  0  0  0  0  0  0  0  0  0  0  0
    7.8052    4.9014    1.6367 H   0  0  0  0  0  0  0  0  0  0  0  0
    8.5559   -2.7409    1.2245 H   0  0  0  0  0  0  0  0  0  0  0  0
  1  2  1  0  0  0  0
  1 20  1  0  0  0  0
  1 21  1  0  0  0  0
  1 22  1  0  0  0  0
  2  3  1  0  0  0  0
  2 23  1  0  0  0  0
  3  4  2  0  0  0  0
  3  5  1  0  0  0  0
  5  6  2  0  0  0  0
  5 19  1  0  0  0  0
  6  7  1  0  0  0  0
  6 24  1  0  0  0  0
  7  8  1  0  0  0  0
  7 18  2  0  0  0  0
  8  9  1  0  0  0  0
  8 16  2  0  0  0  0
  9 10  1  0  0  0  0
  9 14  2  0  0  0  0
 10 11  2  0  0  0  0
 10 25  1  0  0  0  0
 11 12  1  0  0  0  0
 11 26  1  0  0  0  0
 12 13  2  0  0  0  0
 12 27  1  0  0  0  0
 13 14  1  0  0  0  0
 13 28  1  0  0  0  0
 14 15  1  0  0  0  0
 16 17  1  0  0  0  0
 17 18  1  0  0  0  0
 17 29  1  0  0  0  0
 18 19  1  0  0  0  0
M  END
$$$$
