CHEMBL461831
 OpenBabel04072215383D

 60 64  0  0  0  0  0  0  0  0999 V2000
   11.0822   -4.3834   -7.5084 C   0  0  0  0  0  0  0  0  0  0  0  0
    9.7878   -3.8570   -7.8083 O   0  0  0  0  0  0  0  0  0  0  0  0
    8.8674   -3.9785   -6.7997 C   0  0  0  0  0  0  0  0  0  0  0  0
    9.2468   -3.9324   -5.4461 C   0  0  0  0  0  0  0  0  0  0  0  0
    8.3484   -4.1122   -4.4035 C   0  0  0  0  0  0  0  0  0  0  0  0
    8.8352   -4.1344   -3.1510 N   0  0  0  0  0  0  0  0  0  0  0  0
    7.9773   -4.3705   -2.1386 C   0  0  0  0  0  0  0  0  0  0  0  0
    6.6240   -4.5554   -2.3135 C   0  0  0  0  0  0  0  0  0  0  0  0
    6.1128   -4.4911   -3.6075 C   0  0  0  0  0  0  0  0  0  0  0  0
    4.7702   -4.7915   -3.6866 O   0  0  0  0  0  0  0  0  0  0  0  0
    3.9092   -4.0669   -4.4737 C   0  0  0  0  0  0  0  0  0  0  0  0
    2.7785   -4.7759   -4.8968 C   0  0  0  0  0  0  0  0  0  0  0  0
    1.8174   -4.1673   -5.7064 C   0  0  0  0  0  0  0  0  0  0  0  0
    1.9824   -2.8377   -6.1073 C   0  0  0  0  0  0  0  0  0  0  0  0
    0.9373   -2.1499   -6.8660 C   0  0  0  0  0  0  0  0  0  0  0  0
    0.0029   -1.4565   -6.2117 C   0  0  0  0  0  0  0  0  0  0  0  0
   -0.9847   -0.7272   -6.7935 N   0  0  0  0  0  0  0  0  0  0  0  0
   -1.0279   -0.6232   -8.0914 C   0  0  0  0  0  0  0  0  0  0  0  0
   -2.0246    0.1264   -8.6875 N   0  0  0  0  0  0  0  0  0  0  0  0
   -2.7868    1.0916   -7.9959 C   0  0  0  0  0  0  0  0  0  0  0  0
   -2.1746    1.9760   -7.0912 C   0  0  0  0  0  0  0  0  0  0  0  0
   -2.9279    2.8687   -6.3294 C   0  0  0  0  0  0  0  0  0  0  0  0
   -4.3068    2.8773   -6.4663 C   0  0  0  0  0  0  0  0  0  0  0  0
   -5.0383    3.7140   -5.7192 F   0  0  0  0  0  0  0  0  0  0  0  0
   -4.9401    2.0208   -7.3604 C   0  0  0  0  0  0  0  0  0  0  0  0
   -4.1812    1.1296   -8.1281 C   0  0  0  0  0  0  0  0  0  0  0  0
   -0.0944   -1.2778   -8.8906 N   0  0  0  0  0  0  0  0  0  0  0  0
   -0.0368   -1.0899  -10.3306 C   0  0  0  0  0  0  0  0  0  0  0  0
    0.8729   -2.1160   -8.3435 C   0  0  0  0  0  0  0  0  0  0  0  0
    1.6513   -2.7937   -9.0219 O   0  0  0  0  0  0  0  0  0  0  0  0
    3.1106   -2.1249   -5.6819 C   0  0  0  0  0  0  0  0  0  0  0  0
    4.0498   -2.7305   -4.8493 C   0  0  0  0  0  0  0  0  0  0  0  0
    5.0879   -1.9934   -4.4312 F   0  0  0  0  0  0  0  0  0  0  0  0
    6.9861   -4.2996   -4.7046 C   0  0  0  0  0  0  0  0  0  0  0  0
    6.6058   -4.3061   -6.0653 C   0  0  0  0  0  0  0  0  0  0  0  0
    7.5180   -4.1325   -7.1107 C   0  0  0  0  0  0  0  0  0  0  0  0
    6.8901   -4.1469   -8.3218 O   0  0  0  0  0  0  0  0  0  0  0  0
    7.6397   -4.3339   -9.5063 C   0  0  0  0  0  0  0  0  0  0  0  0
   11.5645   -4.6580   -8.4507 H   0  0  0  0  0  0  0  0  0  0  0  0
   11.0349   -5.2899   -6.8920 H   0  0  0  0  0  0  0  0  0  0  0  0
   11.6951   -3.6179   -7.0218 H   0  0  0  0  0  0  0  0  0  0  0  0
   10.2841   -3.7628   -5.1685 H   0  0  0  0  0  0  0  0  0  0  0  0
    8.4292   -4.4266   -1.1527 H   0  0  0  0  0  0  0  0  0  0  0  0
    5.9811   -4.7641   -1.4664 H   0  0  0  0  0  0  0  0  0  0  0  0
    2.6468   -5.8124   -4.5931 H   0  0  0  0  0  0  0  0  0  0  0  0
    0.9389   -4.7329   -6.0099 H   0  0  0  0  0  0  0  0  0  0  0  0
   -0.0009   -1.4312   -5.1230 H   0  0  0  0  0  0  0  0  0  0  0  0
   -2.4804   -0.2881   -9.4871 H   0  0  0  0  0  0  0  0  0  0  0  0
   -1.0937    1.9615   -6.9642 H   0  0  0  0  0  0  0  0  0  0  0  0
   -2.4448    3.5365   -5.6241 H   0  0  0  0  0  0  0  0  0  0  0  0
   -6.0224    2.0399   -7.4386 H   0  0  0  0  0  0  0  0  0  0  0  0
   -4.6954    0.4450   -8.7964 H   0  0  0  0  0  0  0  0  0  0  0  0
   -0.5427   -0.1727  -10.6437 H   0  0  0  0  0  0  0  0  0  0  0  0
   -0.5086   -1.9496  -10.8150 H   0  0  0  0  0  0  0  0  0  0  0  0
    1.0059   -1.0303  -10.6592 H   0  0  0  0  0  0  0  0  0  0  0  0
    3.2643   -1.0911   -5.9798 H   0  0  0  0  0  0  0  0  0  0  0  0
    5.5703   -4.4650   -6.3500 H   0  0  0  0  0  0  0  0  0  0  0  0
    6.9467   -4.7260  -10.2587 H   0  0  0  0  0  0  0  0  0  0  0  0
    8.4345   -5.0745   -9.3950 H   0  0  0  0  0  0  0  0  0  0  0  0
    8.0187   -3.3750   -9.8725 H   0  0  0  0  0  0  0  0  0  0  0  0
  1  2  1  0  0  0  0
  1 39  1  0  0  0  0
  1 40  1  0  0  0  0
  1 41  1  0  0  0  0
  2  3  1  0  0  0  0
  3  4  1  0  0  0  0
  3 36  2  0  0  0  0
  4  5  2  0  0  0  0
  4 42  1  0  0  0  0
  5  6  1  0  0  0  0
  5 34  1  0  0  0  0
  6  7  2  0  0  0  0
  7  8  1  0  0  0  0
  7 43  1  0  0  0  0
  8  9  2  0  0  0  0
  8 44  1  0  0  0  0
  9 10  1  0  0  0  0
  9 34  1  0  0  0  0
 10 11  1  0  0  0  0
 11 12  1  0  0  0  0
 11 32  2  0  0  0  0
 12 13  2  0  0  0  0
 12 45  1  0  0  0  0
 13 14  1  0  0  0  0
 13 46  1  0  0  0  0
 14 15  1  0  0  0  0
 14 31  2  0  0  0  0
 15 16  2  0  0  0  0
 15 29  1  0  0  0  0
 16 17  1  0  0  0  0
 16 47  1  0  0  0  0
 17 18  2  0  0  0  0
 18 19  1  0  0  0  0
 18 27  1  0  0  0  0
 19 20  1  0  0  0  0
 19 48  1  0  0  0  0
 20 21  1  0  0  0  0
 20 26  2  0  0  0  0
 21 22  2  0  0  0  0
 21 49  1  0  0  0  0
 22 23  1  0  0  0  0
 22 50  1  0  0  0  0
 23 24  1  0  0  0  0
 23 25  2  0  0  0  0
 25 26  1  0  0  0  0
 25 51  1  0  0  0  0
 26 52  1  0  0  0  0
 27 28  1  0  0  0  0
 27 29  1  0  0  0  0
 28 53  1  0  0  0  0
 28 54  1  0  0  0  0
 28 55  1  0  0  0  0
 29 30  2  0  0  0  0
 31 32  1  0  0  0  0
 31 56  1  0  0  0  0
 32 33  1  0  0  0  0
 34 35  2  0  0  0  0
 35 36  1  0  0  0  0
 35 57  1  0  0  0  0
 36 37  1  0  0  0  0
 37 38  1  0  0  0  0
 38 58  1  0  0  0  0
 38 59  1  0  0  0  0
 38 60  1  0  0  0  0
M  END
$$$$
