CHEMBL407715
 OpenBabel04072215383D

 68 72  0  0  0  0  0  0  0  0999 V2000
    5.2112    1.2739   -1.1375 C   0  0  0  0  0  0  0  0  0  0  0  0
    4.0613    0.4271   -1.0777 O   0  0  0  0  0  0  0  0  0  0  0  0
    4.2995   -0.8820   -0.7486 C   0  0  0  0  0  0  0  0  0  0  0  0
    5.4301   -1.2733   -0.0112 C   0  0  0  0  0  0  0  0  0  0  0  0
    5.7907   -2.6035    0.1673 C   0  0  0  0  0  0  0  0  0  0  0  0
    6.9835   -2.8663    0.7281 N   0  0  0  0  0  0  0  0  0  0  0  0
    7.3900   -4.1498    0.7996 C   0  0  0  0  0  0  0  0  0  0  0  0
    6.6585   -5.2111    0.3131 C   0  0  0  0  0  0  0  0  0  0  0  0
    5.4167   -4.9448   -0.2644 C   0  0  0  0  0  0  0  0  0  0  0  0
    4.8088   -6.0863   -0.7693 O   0  0  0  0  0  0  0  0  0  0  0  0
    3.9706   -6.0254   -1.8575 C   0  0  0  0  0  0  0  0  0  0  0  0
    4.1280   -5.1415   -2.9160 C   0  0  0  0  0  0  0  0  0  0  0  0
    3.0486   -4.9027   -3.7725 C   0  0  0  0  0  0  0  0  0  0  0  0
    1.8661   -5.6867   -3.7361 C   0  0  0  0  0  0  0  0  0  0  0  0
    0.7158   -5.5106   -4.5779 C   0  0  0  0  0  0  0  0  0  0  0  0
    0.5410   -4.4222   -5.5842 C   0  0  0  0  0  0  0  0  0  0  0  0
   -0.5964   -3.9802   -5.7368 O   0  0  0  0  0  0  0  0  0  0  0  0
    1.6472   -4.0575   -6.3281 N   0  0  0  0  0  0  0  0  0  0  0  0
    1.6762   -3.0873   -7.3523 C   0  0  0  0  0  0  0  0  0  0  0  0
    0.6368   -2.1958   -7.5967 C   0  0  0  0  0  0  0  0  0  0  0  0
    0.6603   -1.3606   -8.7178 C   0  0  0  0  0  0  0  0  0  0  0  0
    1.7268   -1.3852   -9.6277 C   0  0  0  0  0  0  0  0  0  0  0  0
    1.7098   -0.5707  -10.9315 C   0  0  0  0  0  0  0  0  0  0  0  0
    0.3980    0.2238  -11.1293 C   0  0  0  0  0  0  0  0  0  0  0  0
    2.8791    0.4325  -10.9436 C   0  0  0  0  0  0  0  0  0  0  0  0
    1.8530   -1.5143  -12.1474 C   0  0  0  0  0  0  0  0  0  0  0  0
    2.8151   -2.2177   -9.3118 C   0  0  0  0  0  0  0  0  0  0  0  0
    2.7953   -3.0502   -8.1847 C   0  0  0  0  0  0  0  0  0  0  0  0
   -0.3911   -6.3671   -4.4402 C   0  0  0  0  0  0  0  0  0  0  0  0
   -0.4088   -7.3770   -3.4950 C   0  0  0  0  0  0  0  0  0  0  0  0
    0.6805   -7.5402   -2.6520 C   0  0  0  0  0  0  0  0  0  0  0  0
    1.8095   -6.7075   -2.7508 C   0  0  0  0  0  0  0  0  0  0  0  0
    2.8505   -6.8517   -1.8207 C   0  0  0  0  0  0  0  0  0  0  0  0
    4.9256   -3.6101   -0.2886 C   0  0  0  0  0  0  0  0  0  0  0  0
    3.6662   -3.1904   -0.7791 C   0  0  0  0  0  0  0  0  0  0  0  0
    3.3901   -1.8649   -1.1317 C   0  0  0  0  0  0  0  0  0  0  0  0
    2.2467   -1.7923   -1.8718 O   0  0  0  0  0  0  0  0  0  0  0  0
    1.8987   -0.6149   -2.5741 C   0  0  0  0  0  0  0  0  0  0  0  0
    5.0469    2.0157   -1.9239 H   0  0  0  0  0  0  0  0  0  0  0  0
    6.1351    0.7432   -1.3992 H   0  0  0  0  0  0  0  0  0  0  0  0
    5.3353    1.8003   -0.1845 H   0  0  0  0  0  0  0  0  0  0  0  0
    6.1111   -0.5299    0.3985 H   0  0  0  0  0  0  0  0  0  0  0  0
    8.3642   -4.3017    1.2574 H   0  0  0  0  0  0  0  0  0  0  0  0
    7.0479   -6.2208    0.3660 H   0  0  0  0  0  0  0  0  0  0  0  0
    5.0087   -4.5084   -2.9909 H   0  0  0  0  0  0  0  0  0  0  0  0
    3.1351   -4.0259   -4.4073 H   0  0  0  0  0  0  0  0  0  0  0  0
    2.4692   -4.6404   -6.2485 H   0  0  0  0  0  0  0  0  0  0  0  0
   -0.2300   -2.1339   -6.9459 H   0  0  0  0  0  0  0  0  0  0  0  0
   -0.2030   -0.7173   -8.8620 H   0  0  0  0  0  0  0  0  0  0  0  0
    0.2537    0.9657  -10.3349 H   0  0  0  0  0  0  0  0  0  0  0  0
   -0.4751   -0.4406  -11.1348 H   0  0  0  0  0  0  0  0  0  0  0  0
    0.3964    0.7648  -12.0820 H   0  0  0  0  0  0  0  0  0  0  0  0
    2.7916    1.1537  -10.1231 H   0  0  0  0  0  0  0  0  0  0  0  0
    2.9025    0.9958  -11.8840 H   0  0  0  0  0  0  0  0  0  0  0  0
    3.8500   -0.0648  -10.8431 H   0  0  0  0  0  0  0  0  0  0  0  0
    1.0347   -2.2430  -12.1850 H   0  0  0  0  0  0  0  0  0  0  0  0
    2.7939   -2.0749  -12.1301 H   0  0  0  0  0  0  0  0  0  0  0  0
    1.8364   -0.9482  -13.0867 H   0  0  0  0  0  0  0  0  0  0  0  0
    3.6875   -2.2560   -9.9607 H   0  0  0  0  0  0  0  0  0  0  0  0
    3.6482   -3.6976   -8.0015 H   0  0  0  0  0  0  0  0  0  0  0  0
   -1.2664   -6.2269   -5.0782 H   0  0  0  0  0  0  0  0  0  0  0  0
   -1.2807   -8.0222   -3.3985 H   0  0  0  0  0  0  0  0  0  0  0  0
    0.6357   -8.3164   -1.8895 H   0  0  0  0  0  0  0  0  0  0  0  0
    2.7625   -7.5743   -1.0063 H   0  0  0  0  0  0  0  0  0  0  0  0
    2.8956   -3.9213   -1.0083 H   0  0  0  0  0  0  0  0  0  0  0  0
    1.1819   -0.9024   -3.3526 H   0  0  0  0  0  0  0  0  0  0  0  0
    2.7447   -0.1421   -3.0857 H   0  0  0  0  0  0  0  0  0  0  0  0
    1.3925    0.0761   -1.8983 H   0  0  0  0  0  0  0  0  0  0  0  0
  1  2  1  0  0  0  0
  1 39  1  0  0  0  0
  1 40  1  0  0  0  0
  1 41  1  0  0  0  0
  2  3  1  0  0  0  0
  3  4  1  0  0  0  0
  3 36  2  0  0  0  0
  4  5  2  0  0  0  0
  4 42  1  0  0  0  0
  5  6  1  0  0  0  0
  5 34  1  0  0  0  0
  6  7  2  0  0  0  0
  7  8  1  0  0  0  0
  7 43  1  0  0  0  0
  8  9  2  0  0  0  0
  8 44  1  0  0  0  0
  9 10  1  0  0  0  0
  9 34  1  0  0  0  0
 10 11  1  0  0  0  0
 11 12  1  0  0  0  0
 11 33  2  0  0  0  0
 12 13  2  0  0  0  0
 12 45  1  0  0  0  0
 13 14  1  0  0  0  0
 13 46  1  0  0  0  0
 14 15  1  0  0  0  0
 14 32  2  0  0  0  0
 15 16  1  0  0  0  0
 15 29  2  0  0  0  0
 16 17  2  0  0  0  0
 16 18  1  0  0  0  0
 18 19  1  0  0  0  0
 18 47  1  0  0  0  0
 19 20  1  0  0  0  0
 19 28  2  0  0  0  0
 20 21  2  0  0  0  0
 20 48  1  0  0  0  0
 21 22  1  0  0  0  0
 21 49  1  0  0  0  0
 22 23  1  0  0  0  0
 22 27  2  0  0  0  0
 23 24  1  0  0  0  0
 23 25  1  0  0  0  0
 23 26  1  0  0  0  0
 24 50  1  0  0  0  0
 24 51  1  0  0  0  0
 24 52  1  0  0  0  0
 25 53  1  0  0  0  0
 25 54  1  0  0  0  0
 25 55  1  0  0  0  0
 26 56  1  0  0  0  0
 26 57  1  0  0  0  0
 26 58  1  0  0  0  0
 27 28  1  0  0  0  0
 27 59  1  0  0  0  0
 28 60  1  0  0  0  0
 29 30  1  0  0  0  0
 29 61  1  0  0  0  0
 30 31  2  0  0  0  0
 30 62  1  0  0  0  0
 31 32  1  0  0  0  0
 31 63  1  0  0  0  0
 32 33  1  0  0  0  0
 33 64  1  0  0  0  0
 34 35  2  0  0  0  0
 35 36  1  0  0  0  0
 35 65  1  0  0  0  0
 36 37  1  0  0  0  0
 37 38  1  0  0  0  0
 38 66  1  0  0  0  0
 38 67  1  0  0  0  0
 38 68  1  0  0  0  0
M  END
$$$$
