CHEMBL3671536
 OpenBabel04072215373D

 57 59  0  0  0  0  0  0  0  0999 V2000
    2.0251   -0.4429    2.0212 C   0  0  0  0  0  0  0  0  0  0  0  0
    2.6766   -0.3053    0.8598 C   0  0  0  0  0  0  0  0  0  0  0  0
    3.3361   -1.4688    0.2121 C   0  0  0  0  0  0  0  0  0  0  0  0
    3.0378   -2.6228    0.4879 O   0  0  0  0  0  0  0  0  0  0  0  0
    4.3225   -1.0661   -0.6765 N   0  0  0  0  0  0  0  0  0  0  0  0
    5.1168   -2.0623   -1.2819 C   0  0  0  0  0  0  0  0  0  0  0  0
    6.2048   -2.5470   -0.5573 C   0  0  0  0  0  0  0  0  0  0  0  0
    6.9155   -3.6789   -1.0123 C   0  0  0  0  0  0  0  0  0  0  0  0
    7.9191   -4.3290   -0.2799 C   0  0  0  0  0  0  0  0  0  0  0  0
    8.2277   -3.9020    1.0404 N   0  0  0  0  0  0  0  0  0  0  0  0
    8.8946   -4.7199    1.9816 C   0  0  0  0  0  0  0  0  0  0  0  0
    8.5352   -6.0665    2.1397 C   0  0  0  0  0  0  0  0  0  0  0  0
    9.2820   -6.9147    2.9562 C   0  0  0  0  0  0  0  0  0  0  0  0
   10.3807   -6.4098    3.6470 C   0  0  0  0  0  0  0  0  0  0  0  0
   11.4574   -7.5840    4.6631 Br  0  0  0  0  0  0  0  0  0  0  0  0
   10.7061   -5.0572    3.5718 C   0  0  0  0  0  0  0  0  0  0  0  0
    9.9540   -4.2234    2.7484 C   0  0  0  0  0  0  0  0  0  0  0  0
   10.2854   -2.9256    2.6555 F   0  0  0  0  0  0  0  0  0  0  0  0
    8.5611   -5.4107   -0.7632 N   0  0  0  0  0  0  0  0  0  0  0  0
    8.1804   -5.8614   -1.9589 C   0  0  0  0  0  0  0  0  0  0  0  0
    7.2122   -5.3449   -2.7183 N   0  0  0  0  0  0  0  0  0  0  0  0
    6.5808   -4.2709   -2.2344 C   0  0  0  0  0  0  0  0  0  0  0  0
    5.5285   -3.7311   -2.9672 C   0  0  0  0  0  0  0  0  0  0  0  0
    4.7948   -2.6248   -2.5227 C   0  0  0  0  0  0  0  0  0  0  0  0
    3.8108   -2.2036   -3.3862 O   0  0  0  0  0  0  0  0  0  0  0  0
    3.5960   -0.7894   -3.4163 C   0  0  0  0  0  0  0  0  0  0  0  0
    3.1567   -0.3355   -4.8125 C   0  0  0  0  0  0  0  0  0  0  0  0
    3.0054    1.1125   -4.8805 N   0  0  0  0  0  0  0  0  0  0  0  0
    4.1128    1.9302   -4.9773 C   0  0  0  0  0  0  0  0  0  0  0  0
    5.2424    1.4944   -5.1816 O   0  0  0  0  0  0  0  0  0  0  0  0
    3.8394    3.4109   -4.8235 C   0  0  0  0  0  0  0  0  0  0  0  0
    3.3650    3.7612   -3.4203 C   0  0  0  0  0  0  0  0  0  0  0  0
    4.3615    3.3965   -2.4662 O   0  0  0  0  0  0  0  0  0  0  0  0
    3.9592    3.6832   -1.1351 C   0  0  0  0  0  0  0  0  0  0  0  0
    1.5071    0.3963    2.4729 H   0  0  0  0  0  0  0  0  0  0  0  0
    1.9878   -1.3962    2.5433 H   0  0  0  0  0  0  0  0  0  0  0  0
    2.6978    0.6415    0.3361 H   0  0  0  0  0  0  0  0  0  0  0  0
    4.8279   -0.2508   -0.3494 H   0  0  0  0  0  0  0  0  0  0  0  0
    6.4461   -2.1024    0.4040 H   0  0  0  0  0  0  0  0  0  0  0  0
    8.5764   -2.9478    1.0409 H   0  0  0  0  0  0  0  0  0  0  0  0
    7.6893   -6.4701    1.5866 H   0  0  0  0  0  0  0  0  0  0  0  0
    9.0114   -7.9654    3.0162 H   0  0  0  0  0  0  0  0  0  0  0  0
   11.5496   -4.6483    4.1166 H   0  0  0  0  0  0  0  0  0  0  0  0
    8.6964   -6.7361   -2.3389 H   0  0  0  0  0  0  0  0  0  0  0  0
    5.2576   -4.1995   -3.9136 H   0  0  0  0  0  0  0  0  0  0  0  0
    4.5050   -0.2388   -3.1466 H   0  0  0  0  0  0  0  0  0  0  0  0
    2.7986   -0.5417   -2.7061 H   0  0  0  0  0  0  0  0  0  0  0  0
    2.1963   -0.7872   -5.0810 H   0  0  0  0  0  0  0  0  0  0  0  0
    3.8889   -0.6581   -5.5612 H   0  0  0  0  0  0  0  0  0  0  0  0
    2.0937    1.5115   -4.7048 H   0  0  0  0  0  0  0  0  0  0  0  0
    3.0956    3.7146   -5.5681 H   0  0  0  0  0  0  0  0  0  0  0  0
    4.7715    3.9441   -5.0456 H   0  0  0  0  0  0  0  0  0  0  0  0
    2.4282    3.2451   -3.1835 H   0  0  0  0  0  0  0  0  0  0  0  0
    3.1916    4.8421   -3.3577 H   0  0  0  0  0  0  0  0  0  0  0  0
    4.7600    3.3694   -0.4598 H   0  0  0  0  0  0  0  0  0  0  0  0
    3.0538    3.1230   -0.8828 H   0  0  0  0  0  0  0  0  0  0  0  0
    3.7899    4.7560   -1.0062 H   0  0  0  0  0  0  0  0  0  0  0  0
  1  2  2  0  0  0  0
  1 35  1  0  0  0  0
  1 36  1  0  0  0  0
  2  3  1  0  0  0  0
  2 37  1  0  0  0  0
  3  4  2  0  0  0  0
  3  5  1  0  0  0  0
  5  6  1  0  0  0  0
  5 38  1  0  0  0  0
  6  7  1  0  0  0  0
  6 24  2  0  0  0  0
  7  8  2  0  0  0  0
  7 39  1  0  0  0  0
  8  9  1  0  0  0  0
  8 22  1  0  0  0  0
  9 10  1  0  0  0  0
  9 19  2  0  0  0  0
 10 11  1  0  0  0  0
 10 40  1  0  0  0  0
 11 12  1  0  0  0  0
 11 17  2  0  0  0  0
 12 13  2  0  0  0  0
 12 41  1  0  0  0  0
 13 14  1  0  0  0  0
 13 42  1  0  0  0  0
 14 15  1  0  0  0  0
 14 16  2  0  0  0  0
 16 17  1  0  0  0  0
 16 43  1  0  0  0  0
 17 18  1  0  0  0  0
 19 20  1  0  0  0  0
 20 21  2  0  0  0  0
 20 44  1  0  0  0  0
 21 22  1  0  0  0  0
 22 23  2  0  0  0  0
 23 24  1  0  0  0  0
 23 45  1  0  0  0  0
 24 25  1  0  0  0  0
 25 26  1  0  0  0  0
 26 27  1  0  0  0  0
 26 46  1  0  0  0  0
 26 47  1  0  0  0  0
 27 28  1  0  0  0  0
 27 48  1  0  0  0  0
 27 49  1  0  0  0  0
 28 29  1  0  0  0  0
 28 50  1  0  0  0  0
 29 30  2  0  0  0  0
 29 31  1  0  0  0  0
 31 32  1  0  0  0  0
 31 51  1  0  0  0  0
 31 52  1  0  0  0  0
 32 33  1  0  0  0  0
 32 53  1  0  0  0  0
 32 54  1  0  0  0  0
 33 34  1  0  0  0  0
 34 55  1  0  0  0  0
 34 56  1  0  0  0  0
 34 57  1  0  0  0  0
M  END
$$$$
