CHEMBL3897034
 OpenBabel04072215373D

 56 59  0  0  0  0  0  0  0  0999 V2000
   10.6989    1.6925   -6.4549 C   0  0  0  0  0  0  0  0  0  0  0  0
    9.4477    1.0080   -6.4092 O   0  0  0  0  0  0  0  0  0  0  0  0
    8.5385    1.5103   -5.5125 C   0  0  0  0  0  0  0  0  0  0  0  0
    8.4516    2.8438   -5.1485 C   0  0  0  0  0  0  0  0  0  0  0  0
    7.4805    3.2254   -4.2324 C   0  0  0  0  0  0  0  0  0  0  0  0
    7.3969    4.5130   -3.8697 F   0  0  0  0  0  0  0  0  0  0  0  0
    6.5999    2.3029   -3.6633 C   0  0  0  0  0  0  0  0  0  0  0  0
    6.6565    0.9489   -4.0115 C   0  0  0  0  0  0  0  0  0  0  0  0
    5.8288   -0.0340   -3.4103 N   0  0  0  0  0  0  0  0  0  0  0  0
    4.4487    0.3332   -3.0007 C   0  0  0  0  0  0  0  0  0  0  0  0
    4.0777   -0.0755   -1.5623 C   0  0  0  0  0  0  0  0  0  0  0  0
    4.8666    0.6332   -0.4729 C   0  0  0  0  0  0  0  0  0  0  0  0
    4.4593    0.1419    0.8036 O   0  0  0  0  0  0  0  0  0  0  0  0
    6.2032   -1.3818   -3.1703 C   0  0  0  0  0  0  0  0  0  0  0  0
    5.3026   -2.4438   -3.3038 C   0  0  0  0  0  0  0  0  0  0  0  0
    5.6387   -3.7254   -2.8680 C   0  0  0  0  0  0  0  0  0  0  0  0
    6.8882   -3.9932   -2.3414 C   0  0  0  0  0  0  0  0  0  0  0  0
    7.1600   -5.2330   -1.8995 N   0  0  0  0  0  0  0  0  0  0  0  0
    8.4045   -5.4315   -1.4143 C   0  0  0  0  0  0  0  0  0  0  0  0
    9.3703   -4.4371   -1.3867 C   0  0  0  0  0  0  0  0  0  0  0  0
   10.7232   -4.6956   -0.9375 C   0  0  0  0  0  0  0  0  0  0  0  0
   11.3534   -5.8818   -0.4999 C   0  0  0  0  0  0  0  0  0  0  0  0
   12.6458   -5.7064   -0.2107 N   0  0  0  0  0  0  0  0  0  0  0  0
   12.8496   -4.3985   -0.4603 N   0  0  0  0  0  0  0  0  0  0  0  0
   14.1698   -3.8235   -0.2870 C   0  0  0  0  0  0  0  0  0  0  0  0
   15.2202   -4.4877   -1.1692 C   0  0  0  0  0  0  0  0  0  0  0  0
   14.9458   -4.2870   -2.5549 O   0  0  0  0  0  0  0  0  0  0  0  0
   11.7298   -3.7521   -0.8921 C   0  0  0  0  0  0  0  0  0  0  0  0
    9.0929   -3.1821   -1.8147 N   0  0  0  0  0  0  0  0  0  0  0  0
    7.8502   -2.9586   -2.2843 C   0  0  0  0  0  0  0  0  0  0  0  0
    7.4910   -1.6820   -2.6956 C   0  0  0  0  0  0  0  0  0  0  0  0
    7.6297    0.5845   -4.9725 C   0  0  0  0  0  0  0  0  0  0  0  0
   11.3614    1.1391   -7.1282 H   0  0  0  0  0  0  0  0  0  0  0  0
   11.1687    1.7164   -5.4658 H   0  0  0  0  0  0  0  0  0  0  0  0
   10.5950    2.7025   -6.8628 H   0  0  0  0  0  0  0  0  0  0  0  0
    9.0990    3.6090   -5.5556 H   0  0  0  0  0  0  0  0  0  0  0  0
    5.9091    2.6777   -2.9174 H   0  0  0  0  0  0  0  0  0  0  0  0
    3.7430   -0.1481   -3.6905 H   0  0  0  0  0  0  0  0  0  0  0  0
    4.2432    1.4022   -3.1168 H   0  0  0  0  0  0  0  0  0  0  0  0
    4.1657   -1.1551   -1.4009 H   0  0  0  0  0  0  0  0  0  0  0  0
    3.0099    0.1276   -1.4106 H   0  0  0  0  0  0  0  0  0  0  0  0
    4.6909    1.7124   -0.4933 H   0  0  0  0  0  0  0  0  0  0  0  0
    5.9407    0.4509   -0.5641 H   0  0  0  0  0  0  0  0  0  0  0  0
    3.4882    0.1608    0.8459 H   0  0  0  0  0  0  0  0  0  0  0  0
    4.3069   -2.2892   -3.7092 H   0  0  0  0  0  0  0  0  0  0  0  0
    4.9019   -4.5227   -2.9202 H   0  0  0  0  0  0  0  0  0  0  0  0
    8.5938   -6.4361   -1.0553 H   0  0  0  0  0  0  0  0  0  0  0  0
   10.9333   -6.8731   -0.3892 H   0  0  0  0  0  0  0  0  0  0  0  0
   14.4258   -3.9323    0.7721 H   0  0  0  0  0  0  0  0  0  0  0  0
   14.0951   -2.7563   -0.5227 H   0  0  0  0  0  0  0  0  0  0  0  0
   15.3057   -5.5628   -0.9805 H   0  0  0  0  0  0  0  0  0  0  0  0
   16.1967   -4.0365   -0.9669 H   0  0  0  0  0  0  0  0  0  0  0  0
   14.2028   -4.8736   -2.7803 H   0  0  0  0  0  0  0  0  0  0  0  0
   11.7351   -2.6987   -1.1421 H   0  0  0  0  0  0  0  0  0  0  0  0
    8.2265   -0.8884   -2.5847 H   0  0  0  0  0  0  0  0  0  0  0  0
    7.6975   -0.4483   -5.3091 H   0  0  0  0  0  0  0  0  0  0  0  0
  1  2  1  0  0  0  0
  1 33  1  0  0  0  0
  1 34  1  0  0  0  0
  1 35  1  0  0  0  0
  2  3  1  0  0  0  0
  3  4  1  0  0  0  0
  3 32  2  0  0  0  0
  4  5  2  0  0  0  0
  4 36  1  0  0  0  0
  5  6  1  0  0  0  0
  5  7  1  0  0  0  0
  7  8  2  0  0  0  0
  7 37  1  0  0  0  0
  8  9  1  0  0  0  0
  8 32  1  0  0  0  0
  9 10  1  0  0  0  0
  9 14  1  0  0  0  0
 10 11  1  0  0  0  0
 10 38  1  0  0  0  0
 10 39  1  0  0  0  0
 11 12  1  0  0  0  0
 11 40  1  0  0  0  0
 11 41  1  0  0  0  0
 12 13  1  0  0  0  0
 12 42  1  0  0  0  0
 12 43  1  0  0  0  0
 13 44  1  0  0  0  0
 14 15  1  0  0  0  0
 14 31  2  0  0  0  0
 15 16  2  0  0  0  0
 15 45  1  0  0  0  0
 16 17  1  0  0  0  0
 16 46  1  0  0  0  0
 17 18  1  0  0  0  0
 17 30  2  0  0  0  0
 18 19  2  0  0  0  0
 19 20  1  0  0  0  0
 19 47  1  0  0  0  0
 20 21  1  0  0  0  0
 20 29  2  0  0  0  0
 21 22  1  0  0  0  0
 21 28  2  0  0  0  0
 22 23  2  0  0  0  0
 22 48  1  0  0  0  0
 23 24  1  0  0  0  0
 24 25  1  0  0  0  0
 24 28  1  0  0  0  0
 25 26  1  0  0  0  0
 25 49  1  0  0  0  0
 25 50  1  0  0  0  0
 26 27  1  0  0  0  0
 26 51  1  0  0  0  0
 26 52  1  0  0  0  0
 27 53  1  0  0  0  0
 28 54  1  0  0  0  0
 29 30  1  0  0  0  0
 30 31  1  0  0  0  0
 31 55  1  0  0  0  0
 32 56  1  0  0  0  0
M  END
$$$$
