CHEMBL24137
 OpenBabel04072215363D

 55 58  0  0  0  0  0  0  0  0999 V2000
    2.3512   -0.1875    1.1959 C   0  0  0  0  0  0  0  0  0  0  0  0
    2.4426    0.1101   -0.1948 O   0  0  0  0  0  0  0  0  0  0  0  0
    3.1120   -0.7487   -1.0159 C   0  0  0  0  0  0  0  0  0  0  0  0
    4.1525   -1.5523   -0.5656 C   0  0  0  0  0  0  0  0  0  0  0  0
    4.7760   -2.4952   -1.4115 C   0  0  0  0  0  0  0  0  0  0  0  0
    5.7234   -3.4281   -0.9718 C   0  0  0  0  0  0  0  0  0  0  0  0
    6.0295   -3.5046    0.4124 N   0  0  0  0  0  0  0  0  0  0  0  0
    6.6260   -4.6141    1.0396 C   0  0  0  0  0  0  0  0  0  0  0  0
    6.2281   -5.9219    0.7332 C   0  0  0  0  0  0  0  0  0  0  0  0
    6.8774   -7.0161    1.3030 C   0  0  0  0  0  0  0  0  0  0  0  0
    7.9219   -6.8051    2.2007 C   0  0  0  0  0  0  0  0  0  0  0  0
    8.7635   -8.1553    2.8534 Cl  0  0  0  0  0  0  0  0  0  0  0  0
    8.2956   -5.5140    2.5638 C   0  0  0  0  0  0  0  0  0  0  0  0
    7.6409   -4.4323    1.9891 C   0  0  0  0  0  0  0  0  0  0  0  0
    8.0054   -3.1863    2.3283 F   0  0  0  0  0  0  0  0  0  0  0  0
    6.3037   -4.3008   -1.8171 N   0  0  0  0  0  0  0  0  0  0  0  0
    5.9235   -4.2453   -3.0930 C   0  0  0  0  0  0  0  0  0  0  0  0
    4.9973   -3.4304   -3.6061 N   0  0  0  0  0  0  0  0  0  0  0  0
    4.4189   -2.5705   -2.7601 C   0  0  0  0  0  0  0  0  0  0  0  0
    3.4268   -1.7191   -3.2184 C   0  0  0  0  0  0  0  0  0  0  0  0
    2.7811   -0.8006   -2.3761 C   0  0  0  0  0  0  0  0  0  0  0  0
    1.8484   -0.0323   -3.0228 O   0  0  0  0  0  0  0  0  0  0  0  0
    1.7174    1.3304   -2.6147 C   0  0  0  0  0  0  0  0  0  0  0  0
    3.0180    2.1380   -2.6801 C   0  0  0  0  0  0  0  0  0  0  0  0
    3.5542    2.2214   -4.1145 C   0  0  0  0  0  0  0  0  0  0  0  0
    4.8308    2.9497   -4.2334 N   0  0  0  0  0  0  0  0  0  0  0  0
    4.7732    4.3500   -3.7607 C   0  0  0  0  0  0  0  0  0  0  0  0
    3.9158    5.2576   -4.6550 C   0  0  0  0  0  0  0  0  0  0  0  0
    4.4108    5.2651   -5.9996 O   0  0  0  0  0  0  0  0  0  0  0  0
    4.4603    3.9372   -6.5396 C   0  0  0  0  0  0  0  0  0  0  0  0
    5.2778    2.9806   -5.6485 C   0  0  0  0  0  0  0  0  0  0  0  0
    2.6798    0.6947    1.7525 H   0  0  0  0  0  0  0  0  0  0  0  0
    2.9249   -1.0487    1.5460 H   0  0  0  0  0  0  0  0  0  0  0  0
    1.3030   -0.3805    1.4388 H   0  0  0  0  0  0  0  0  0  0  0  0
    4.5116   -1.4599    0.4523 H   0  0  0  0  0  0  0  0  0  0  0  0
    6.4044   -2.6221    0.7512 H   0  0  0  0  0  0  0  0  0  0  0  0
    5.4155   -6.0929    0.0285 H   0  0  0  0  0  0  0  0  0  0  0  0
    6.5725   -8.0220    1.0270 H   0  0  0  0  0  0  0  0  0  0  0  0
    9.0999   -5.3384    3.2694 H   0  0  0  0  0  0  0  0  0  0  0  0
    6.4092   -4.9343   -3.7755 H   0  0  0  0  0  0  0  0  0  0  0  0
    3.1441   -1.7651   -4.2687 H   0  0  0  0  0  0  0  0  0  0  0  0
    1.2333    1.4010   -1.6383 H   0  0  0  0  0  0  0  0  0  0  0  0
    0.9994    1.7824   -3.3129 H   0  0  0  0  0  0  0  0  0  0  0  0
    3.7911    1.7038   -2.0374 H   0  0  0  0  0  0  0  0  0  0  0  0
    2.7975    3.1359   -2.2890 H   0  0  0  0  0  0  0  0  0  0  0  0
    2.7784    2.6585   -4.7515 H   0  0  0  0  0  0  0  0  0  0  0  0
    3.7177    1.2009   -4.4815 H   0  0  0  0  0  0  0  0  0  0  0  0
    5.8010    4.7375   -3.7590 H   0  0  0  0  0  0  0  0  0  0  0  0
    4.4437    4.4098   -2.7191 H   0  0  0  0  0  0  0  0  0  0  0  0
    3.9575    6.2858   -4.2821 H   0  0  0  0  0  0  0  0  0  0  0  0
    2.8626    4.9542   -4.6546 H   0  0  0  0  0  0  0  0  0  0  0  0
    4.9274    4.0038   -7.5272 H   0  0  0  0  0  0  0  0  0  0  0  0
    3.4368    3.5756   -6.6892 H   0  0  0  0  0  0  0  0  0  0  0  0
    6.3248    3.3108   -5.6542 H   0  0  0  0  0  0  0  0  0  0  0  0
    5.2757    1.9714   -6.0777 H   0  0  0  0  0  0  0  0  0  0  0  0
  1  2  1  0  0  0  0
  1 32  1  0  0  0  0
  1 33  1  0  0  0  0
  1 34  1  0  0  0  0
  2  3  1  0  0  0  0
  3  4  1  0  0  0  0
  3 21  2  0  0  0  0
  4  5  2  0  0  0  0
  4 35  1  0  0  0  0
  5  6  1  0  0  0  0
  5 19  1  0  0  0  0
  6  7  1  0  0  0  0
  6 16  2  0  0  0  0
  7  8  1  0  0  0  0
  7 36  1  0  0  0  0
  8  9  1  0  0  0  0
  8 14  2  0  0  0  0
  9 10  2  0  0  0  0
  9 37  1  0  0  0  0
 10 11  1  0  0  0  0
 10 38  1  0  0  0  0
 11 12  1  0  0  0  0
 11 13  2  0  0  0  0
 13 14  1  0  0  0  0
 13 39  1  0  0  0  0
 14 15  1  0  0  0  0
 16 17  1  0  0  0  0
 17 18  2  0  0  0  0
 17 40  1  0  0  0  0
 18 19  1  0  0  0  0
 19 20  2  0  0  0  0
 20 21  1  0  0  0  0
 20 41  1  0  0  0  0
 21 22  1  0  0  0  0
 22 23  1  0  0  0  0
 23 24  1  0  0  0  0
 23 42  1  0  0  0  0
 23 43  1  0  0  0  0
 24 25  1  0  0  0  0
 24 44  1  0  0  0  0
 24 45  1  0  0  0  0
 25 26  1  0  0  0  0
 25 46  1  0  0  0  0
 25 47  1  0  0  0  0
 26 27  1  0  0  0  0
 26 31  1  0  0  0  0
 27 28  1  0  0  0  0
 27 48  1  0  0  0  0
 27 49  1  0  0  0  0
 28 29  1  0  0  0  0
 28 50  1  0  0  0  0
 28 51  1  0  0  0  0
 29 30  1  0  0  0  0
 30 31  1  0  0  0  0
 30 52  1  0  0  0  0
 30 53  1  0  0  0  0
 31 54  1  0  0  0  0
 31 55  1  0  0  0  0
M  END
$$$$
