CHEMBL203642
 OpenBabel04072215363D

 52 57  0  0  0  0  0  0  0  0999 V2000
    0.6990    1.2173    0.0270 C   0  0  0  0  0  0  0  0  0  0  0  0
   -0.6637    1.0545    0.1081 C   0  0  0  0  0  0  0  0  0  0  0  0
   -1.2692   -0.1499    0.1937 N   0  0  0  0  0  0  0  0  0  0  0  0
   -0.5169   -1.2804    0.1549 C   0  0  0  0  0  0  0  0  0  0  0  0
   -1.2121   -2.5051    0.1765 N   0  0  0  0  0  0  0  0  0  0  0  0
   -2.4644   -2.4395    0.9441 C   0  0  0  0  0  0  0  0  0  0  0  0
   -3.1605   -3.7791    0.9488 C   0  0  0  0  0  0  0  0  0  0  0  0
   -3.4701   -4.4465    2.1551 C   0  0  0  0  0  0  0  0  0  0  0  0
   -4.2037   -5.6415    2.1554 C   0  0  0  0  0  0  0  0  0  0  0  0
   -4.6128   -6.1451    0.9402 C   0  0  0  0  0  0  0  0  0  0  0  0
   -4.3105   -5.5085   -0.2399 C   0  0  0  0  0  0  0  0  0  0  0  0
   -3.5928   -4.3340   -0.2732 C   0  0  0  0  0  0  0  0  0  0  0  0
   -4.8134   -6.1603   -1.3284 O   0  0  0  0  0  0  0  0  0  0  0  0
   -5.4358   -7.2955   -0.6938 C   0  0  0  0  0  0  0  0  0  0  0  0
   -5.3432   -7.2720    0.7476 O   0  0  0  0  0  0  0  0  0  0  0  0
    0.8785   -1.2103    0.0042 C   0  0  0  0  0  0  0  0  0  0  0  0
    1.7760   -2.3480   -0.1382 C   0  0  0  0  0  0  0  0  0  0  0  0
    3.0949   -2.3415   -0.1659 N   0  0  0  0  0  0  0  0  0  0  0  0
    3.4808   -3.6171   -0.4808 N   0  0  0  0  0  0  0  0  0  0  0  0
    2.3839   -4.3300   -0.6231 C   0  0  0  0  0  0  0  0  0  0  0  0
    2.1762   -5.5977   -1.0305 N   0  0  0  0  0  0  0  0  0  0  0  0
    3.0612   -6.3455   -1.8377 C   0  0  0  0  0  0  0  0  0  0  0  0
    2.5539   -7.4218   -2.5859 C   0  0  0  0  0  0  0  0  0  0  0  0
    3.3783   -8.1617   -3.4429 C   0  0  0  0  0  0  0  0  0  0  0  0
    4.7297   -7.8495   -3.5479 C   0  0  0  0  0  0  0  0  0  0  0  0
    5.2527   -6.7896   -2.8092 C   0  0  0  0  0  0  0  0  0  0  0  0
    4.4297   -6.0596   -1.9511 C   0  0  0  0  0  0  0  0  0  0  0  0
    6.5680   -6.4050   -2.8665 O   0  0  0  0  0  0  0  0  0  0  0  0
    7.2298   -6.9671   -4.0028 C   0  0  0  0  0  0  0  0  0  0  0  0
    6.8848   -8.4398   -4.1500 C   0  0  0  0  0  0  0  0  0  0  0  0
    5.4842   -8.6166   -4.3968 O   0  0  0  0  0  0  0  0  0  0  0  0
    1.2551   -3.5948   -0.3629 O   0  0  0  0  0  0  0  0  0  0  0  0
    1.4738    0.0692   -0.0155 C   0  0  0  0  0  0  0  0  0  0  0  0
    1.1492    2.2022   -0.0199 H   0  0  0  0  0  0  0  0  0  0  0  0
   -1.3315    1.9116    0.1028 H   0  0  0  0  0  0  0  0  0  0  0  0
   -0.6230   -3.2629    0.5082 H   0  0  0  0  0  0  0  0  0  0  0  0
   -3.1629   -1.7071    0.5107 H   0  0  0  0  0  0  0  0  0  0  0  0
   -2.2458   -2.1285    1.9743 H   0  0  0  0  0  0  0  0  0  0  0  0
   -3.1569   -4.0265    3.1119 H   0  0  0  0  0  0  0  0  0  0  0  0
   -4.4563   -6.1482    3.0793 H   0  0  0  0  0  0  0  0  0  0  0  0
   -3.3834   -3.8384   -1.2128 H   0  0  0  0  0  0  0  0  0  0  0  0
   -4.9476   -8.2059   -1.0601 H   0  0  0  0  0  0  0  0  0  0  0  0
   -6.4920   -7.3234   -0.9824 H   0  0  0  0  0  0  0  0  0  0  0  0
    1.2109   -5.8958   -1.0822 H   0  0  0  0  0  0  0  0  0  0  0  0
    1.5006   -7.6860   -2.5283 H   0  0  0  0  0  0  0  0  0  0  0  0
    2.9644   -8.9804   -4.0247 H   0  0  0  0  0  0  0  0  0  0  0  0
    4.8895   -5.2531   -1.3882 H   0  0  0  0  0  0  0  0  0  0  0  0
    8.3067   -6.8446   -3.8503 H   0  0  0  0  0  0  0  0  0  0  0  0
    6.9435   -6.3936   -4.8929 H   0  0  0  0  0  0  0  0  0  0  0  0
    7.1515   -9.0045   -3.2480 H   0  0  0  0  0  0  0  0  0  0  0  0
    7.4286   -8.8710   -4.9962 H   0  0  0  0  0  0  0  0  0  0  0  0
    2.5568    0.1702   -0.0908 H   0  0  0  0  0  0  0  0  0  0  0  0
  1  2  1  0  0  0  0
  1 33  2  0  0  0  0
  1 34  1  0  0  0  0
  2  3  2  0  0  0  0
  2 35  1  0  0  0  0
  3  4  1  0  0  0  0
  4  5  1  0  0  0  0
  4 16  2  0  0  0  0
  5  6  1  0  0  0  0
  5 36  1  0  0  0  0
  6  7  1  0  0  0  0
  6 37  1  0  0  0  0
  6 38  1  0  0  0  0
  7  8  1  0  0  0  0
  7 12  2  0  0  0  0
  8  9  2  0  0  0  0
  8 39  1  0  0  0  0
  9 10  1  0  0  0  0
  9 40  1  0  0  0  0
 10 11  2  0  0  0  0
 10 15  1  0  0  0  0
 11 12  1  0  0  0  0
 11 13  1  0  0  0  0
 12 41  1  0  0  0  0
 13 14  1  0  0  0  0
 14 15  1  0  0  0  0
 14 42  1  0  0  0  0
 14 43  1  0  0  0  0
 16 17  1  0  0  0  0
 16 33  1  0  0  0  0
 17 18  2  0  0  0  0
 17 32  1  0  0  0  0
 18 19  1  0  0  0  0
 19 20  2  0  0  0  0
 20 21  1  0  0  0  0
 20 32  1  0  0  0  0
 21 22  1  0  0  0  0
 21 44  1  0  0  0  0
 22 23  1  0  0  0  0
 22 27  2  0  0  0  0
 23 24  2  0  0  0  0
 23 45  1  0  0  0  0
 24 25  1  0  0  0  0
 24 46  1  0  0  0  0
 25 26  2  0  0  0  0
 25 31  1  0  0  0  0
 26 27  1  0  0  0  0
 26 28  1  0  0  0  0
 27 47  1  0  0  0  0
 28 29  1  0  0  0  0
 29 30  1  0  0  0  0
 29 48  1  0  0  0  0
 29 49  1  0  0  0  0
 30 31  1  0  0  0  0
 30 50  1  0  0  0  0
 30 51  1  0  0  0  0
 33 52  1  0  0  0  0
M  END
$$$$
