CHEMBL234067
 OpenBabel04072215363D

 40 42  0  0  0  0  0  0  0  0999 V2000
   -3.1790    0.1948    0.3634 N   0  0  0  0  0  0  0  0  0  0  0  0
   -2.0280    0.1002    0.2544 C   0  0  0  0  0  0  0  0  0  0  0  0
   -0.6181    0.0246    0.0955 C   0  0  0  0  0  0  0  0  0  0  0  0
    0.1023    1.1955    0.1155 C   0  0  0  0  0  0  0  0  0  0  0  0
    1.4393    1.2416    0.0584 N   0  0  0  0  0  0  0  0  0  0  0  0
    2.1024    0.0814   -0.0503 C   0  0  0  0  0  0  0  0  0  0  0  0
    3.4921    0.1059   -0.1065 N   0  0  0  0  0  0  0  0  0  0  0  0
    4.3541    1.1181    0.3371 C   0  0  0  0  0  0  0  0  0  0  0  0
    4.0346    1.9190    1.4433 C   0  0  0  0  0  0  0  0  0  0  0  0
    4.8296    3.0049    1.8146 C   0  0  0  0  0  0  0  0  0  0  0  0
    5.9551    3.3386    1.0602 C   0  0  0  0  0  0  0  0  0  0  0  0
    6.7715    4.5621    1.4042 C   0  0  0  0  0  0  0  0  0  0  0  0
    7.8748    4.2912    2.4242 C   0  0  0  0  0  0  0  0  0  0  0  0
    8.8523    3.3936    1.9091 O   0  0  0  0  0  0  0  0  0  0  0  0
    6.2974    2.5317   -0.0340 C   0  0  0  0  0  0  0  0  0  0  0  0
    5.5083    1.4290   -0.3869 C   0  0  0  0  0  0  0  0  0  0  0  0
    1.4832   -1.1075   -0.1322 N   0  0  0  0  0  0  0  0  0  0  0  0
    0.1206   -1.1409   -0.0455 C   0  0  0  0  0  0  0  0  0  0  0  0
   -0.4613   -2.5106   -0.0901 C   0  0  0  0  0  0  0  0  0  0  0  0
    0.2244   -3.5989    0.4876 C   0  0  0  0  0  0  0  0  0  0  0  0
   -0.2999   -4.8990    0.4634 C   0  0  0  0  0  0  0  0  0  0  0  0
   -1.5326   -5.1356   -0.1337 C   0  0  0  0  0  0  0  0  0  0  0  0
   -2.2496   -6.8829   -0.1750 Br  0  0  0  0  0  0  0  0  0  0  0  0
   -2.2350   -4.0889   -0.7168 C   0  0  0  0  0  0  0  0  0  0  0  0
   -1.6938   -2.7976   -0.7098 C   0  0  0  0  0  0  0  0  0  0  0  0
   -0.3799    2.1674    0.1920 H   0  0  0  0  0  0  0  0  0  0  0  0
    3.8940   -0.7582   -0.4314 H   0  0  0  0  0  0  0  0  0  0  0  0
    3.1464    1.7024    2.0324 H   0  0  0  0  0  0  0  0  0  0  0  0
    4.5374    3.6010    2.6757 H   0  0  0  0  0  0  0  0  0  0  0  0
    6.1006    5.3377    1.7957 H   0  0  0  0  0  0  0  0  0  0  0  0
    7.2054    4.9676    0.4821 H   0  0  0  0  0  0  0  0  0  0  0  0
    7.4790    3.8812    3.3590 H   0  0  0  0  0  0  0  0  0  0  0  0
    8.3883    5.2294    2.6588 H   0  0  0  0  0  0  0  0  0  0  0  0
    8.4130    2.5293    1.8129 H   0  0  0  0  0  0  0  0  0  0  0  0
    7.1676    2.7769   -0.6405 H   0  0  0  0  0  0  0  0  0  0  0  0
    5.7739    0.8529   -1.2696 H   0  0  0  0  0  0  0  0  0  0  0  0
    1.1900   -3.4427    0.9679 H   0  0  0  0  0  0  0  0  0  0  0  0
    0.2625   -5.7146    0.9113 H   0  0  0  0  0  0  0  0  0  0  0  0
   -3.2001   -4.2593   -1.1883 H   0  0  0  0  0  0  0  0  0  0  0  0
   -2.2658   -2.0258   -1.2195 H   0  0  0  0  0  0  0  0  0  0  0  0
  1  2  3  0  0  0  0
  2  3  1  0  0  0  0
  3  4  1  0  0  0  0
  3 18  2  0  0  0  0
  4  5  2  0  0  0  0
  4 26  1  0  0  0  0
  5  6  1  0  0  0  0
  6  7  1  0  0  0  0
  6 17  2  0  0  0  0
  7  8  1  0  0  0  0
  7 27  1  0  0  0  0
  8  9  1  0  0  0  0
  8 16  2  0  0  0  0
  9 10  2  0  0  0  0
  9 28  1  0  0  0  0
 10 11  1  0  0  0  0
 10 29  1  0  0  0  0
 11 12  1  0  0  0  0
 11 15  2  0  0  0  0
 12 13  1  0  0  0  0
 12 30  1  0  0  0  0
 12 31  1  0  0  0  0
 13 14  1  0  0  0  0
 13 32  1  0  0  0  0
 13 33  1  0  0  0  0
 14 34  1  0  0  0  0
 15 16  1  0  0  0  0
 15 35  1  0  0  0  0
 16 36  1  0  0  0  0
 17 18  1  0  0  0  0
 18 19  1  0  0  0  0
 19 20  1  0  0  0  0
 19 25  2  0  0  0  0
 20 21  2  0  0  0  0
 20 37  1  0  0  0  0
 21 22  1  0  0  0  0
 21 38  1  0  0  0  0
 22 23  1  0  0  0  0
 22 24  2  0  0  0  0
 24 25  1  0  0  0  0
 24 39  1  0  0  0  0
 25 40  1  0  0  0  0
M  END
$$$$
