CHEMBL4162743
 OpenBabel04072215383D

 68 72  0  0  1  0  0  0  0  0999 V2000
    1.3520    1.6163    2.6094 C   0  0  0  0  0  0  0  0  0  0  0  0
    2.7033    1.3410    2.2303 O   0  0  0  0  0  0  0  0  0  0  0  0
    3.4040    0.6772    3.1840 C   0  0  0  0  0  0  0  0  0  0  0  0
    2.9718    0.3318    4.2719 O   0  0  0  0  0  0  0  0  0  0  0  0
    4.8110    0.4407    2.7582 C   0  0  0  0  0  0  0  0  0  0  0  0
    5.3341    0.8704    1.5187 C   0  0  0  0  0  0  0  0  0  0  0  0
    6.6995    0.7029    1.2047 C   0  0  0  0  0  0  0  0  0  0  0  0
    7.5349    0.1243    2.1436 C   0  0  0  0  0  0  0  0  0  0  0  0
    6.9833   -0.3190    3.3546 C   0  0  0  0  0  0  0  0  0  0  0  0
    5.6477   -0.1930    3.6802 C   0  0  0  0  0  0  0  0  0  0  0  0
    7.9636   -0.8163    4.1984 N   0  0  0  0  0  0  0  0  0  0  0  0
    9.2219   -0.6575    3.6502 C   0  0  0  0  0  0  0  0  0  0  0  0
   10.2712   -0.7279    4.2654 O   0  0  0  0  0  0  0  0  0  0  0  0
    8.9816   -0.1844    2.2328 C   0  0  0  0  0  0  0  0  0  0  0  0
   10.0008   -0.0851    1.3437 C   0  0  0  0  0  0  0  0  0  0  0  0
   11.2852   -0.6259    1.4490 N   0  0  0  0  0  0  0  0  0  0  0  0
   11.5433   -1.9814    1.7452 C   0  0  0  0  0  0  0  0  0  0  0  0
   10.7632   -3.0035    1.2029 C   0  0  0  0  0  0  0  0  0  0  0  0
   10.9517   -4.3410    1.5741 C   0  0  0  0  0  0  0  0  0  0  0  0
   11.9150   -4.7100    2.5190 C   0  0  0  0  0  0  0  0  0  0  0  0
   12.0111   -6.0515    3.0043 N   0  0  0  0  0  0  0  0  0  0  0  0
   11.2130   -7.1317    2.5882 C   0  0  0  0  0  0  0  0  0  0  0  0
   10.3424   -7.1788    1.7345 O   0  0  0  0  0  0  0  0  0  0  0  0
   11.5718   -8.3319    3.4291 C   0  0  0  0  0  0  0  0  0  0  0  0
   12.9124   -7.9605    4.0276 C   0  0  0  0  0  0  0  0  0  0  0  0
   12.8747   -6.4357    4.1152 C   0  0  2  0  0  0  0  0  0  0  0  0
   12.3522   -5.9440    5.4971 C   0  0  0  0  0  0  0  0  0  0  0  0
   13.1634   -6.3722    6.6603 N   0  0  0  0  0  0  0  0  0  0  0  0
   14.5481   -5.9043    6.5733 C   0  0  0  0  0  0  0  0  0  0  0  0
   12.5609   -5.8769    7.9035 C   0  0  0  0  0  0  0  0  0  0  0  0
   12.7554   -3.6926    2.9951 C   0  0  0  0  0  0  0  0  0  0  0  0
   12.5767   -2.3489    2.6092 C   0  0  0  0  0  0  0  0  0  0  0  0
    9.8401    0.6934    0.0992 C   0  0  0  0  0  0  0  0  0  0  0  0
   10.1535    2.0647    0.1131 C   0  0  0  0  0  0  0  0  0  0  0  0
   10.0585    2.8151   -1.0567 C   0  0  0  0  0  0  0  0  0  0  0  0
    9.6537    2.2083   -2.2434 C   0  0  0  0  0  0  0  0  0  0  0  0
    9.3502    0.8479   -2.2626 C   0  0  0  0  0  0  0  0  0  0  0  0
    9.4471    0.0876   -1.0962 C   0  0  0  0  0  0  0  0  0  0  0  0
    0.8220    1.9945    1.7319 H   0  0  0  0  0  0  0  0  0  0  0  0
    1.3289    2.3840    3.3900 H   0  0  0  0  0  0  0  0  0  0  0  0
    0.8456    0.7071    2.9504 H   0  0  0  0  0  0  0  0  0  0  0  0
    4.6870    1.3590    0.7913 H   0  0  0  0  0  0  0  0  0  0  0  0
    7.0691    1.0553    0.2465 H   0  0  0  0  0  0  0  0  0  0  0  0
    5.2703   -0.5401    4.6368 H   0  0  0  0  0  0  0  0  0  0  0  0
    7.8261   -1.0762    5.1641 H   0  0  0  0  0  0  0  0  0  0  0  0
   11.9604    0.0242    1.8394 H   0  0  0  0  0  0  0  0  0  0  0  0
    9.9863   -2.7740    0.4798 H   0  0  0  0  0  0  0  0  0  0  0  0
   10.2911   -5.0665    1.1128 H   0  0  0  0  0  0  0  0  0  0  0  0
   11.6465   -9.2282    2.8076 H   0  0  0  0  0  0  0  0  0  0  0  0
   10.8013   -8.4690    4.1939 H   0  0  0  0  0  0  0  0  0  0  0  0
   13.7112   -8.2691    3.3416 H   0  0  0  0  0  0  0  0  0  0  0  0
   13.0899   -8.4677    4.9801 H   0  0  0  0  0  0  0  0  0  0  0  0
   13.8837   -6.0528    3.9227 H   0  0  0  0  0  0  0  0  0  0  0  0
   12.2687   -4.8502    5.4927 H   0  0  0  0  0  0  0  0  0  0  0  0
   11.3288   -6.3212    5.6290 H   0  0  0  0  0  0  0  0  0  0  0  0
   15.0723   -6.3785    5.7383 H   0  0  0  0  0  0  0  0  0  0  0  0
   15.1091   -6.1864    7.4719 H   0  0  0  0  0  0  0  0  0  0  0  0
   14.6100   -4.8166    6.4555 H   0  0  0  0  0  0  0  0  0  0  0  0
   11.5440   -6.2655    8.0241 H   0  0  0  0  0  0  0  0  0  0  0  0
   12.5207   -4.7821    7.9348 H   0  0  0  0  0  0  0  0  0  0  0  0
   13.1323   -6.2235    8.7722 H   0  0  0  0  0  0  0  0  0  0  0  0
   13.5573   -3.8953    3.6967 H   0  0  0  0  0  0  0  0  0  0  0  0
   13.2226   -1.5896    3.0424 H   0  0  0  0  0  0  0  0  0  0  0  0
   10.4916    2.5412    1.0290 H   0  0  0  0  0  0  0  0  0  0  0  0
   10.3124    3.8732   -1.0446 H   0  0  0  0  0  0  0  0  0  0  0  0
    9.5885    2.7926   -3.1586 H   0  0  0  0  0  0  0  0  0  0  0  0
    9.0478    0.3682   -3.1964 H   0  0  0  0  0  0  0  0  0  0  0  0
    9.2294   -0.9755   -1.1287 H   0  0  0  0  0  0  0  0  0  0  0  0
  1  2  1  0  0  0  0
  1 39  1  0  0  0  0
  1 40  1  0  0  0  0
  1 41  1  0  0  0  0
  2  3  1  0  0  0  0
  3  4  2  0  0  0  0
  3  5  1  0  0  0  0
  5  6  1  0  0  0  0
  5 10  2  0  0  0  0
  6  7  2  0  0  0  0
  6 42  1  0  0  0  0
  7  8  1  0  0  0  0
  7 43  1  0  0  0  0
  8  9  2  0  0  0  0
  8 14  1  0  0  0  0
  9 10  1  0  0  0  0
  9 11  1  0  0  0  0
 10 44  1  0  0  0  0
 11 12  1  0  0  0  0
 11 45  1  0  0  0  0
 12 13  2  0  0  0  0
 12 14  1  0  0  0  0
 14 15  2  0  0  0  0
 15 16  1  0  0  0  0
 15 33  1  0  0  0  0
 16 17  1  0  0  0  0
 16 46  1  0  0  0  0
 17 18  1  0  0  0  0
 17 32  2  0  0  0  0
 18 19  2  0  0  0  0
 18 47  1  0  0  0  0
 19 20  1  0  0  0  0
 19 48  1  0  0  0  0
 20 21  1  0  0  0  0
 20 31  2  0  0  0  0
 21 22  1  0  0  0  0
 21 26  1  0  0  0  0
 22 23  2  0  0  0  0
 22 24  1  0  0  0  0
 24 25  1  0  0  0  0
 24 49  1  0  0  0  0
 24 50  1  0  0  0  0
 25 26  1  0  0  0  0
 25 51  1  0  0  0  0
 25 52  1  0  0  0  0
 26 27  1  0  0  0  0
 26 53  1  6  0  0  0
 27 28  1  0  0  0  0
 27 54  1  0  0  0  0
 27 55  1  0  0  0  0
 28 29  1  0  0  0  0
 28 30  1  0  0  0  0
 29 56  1  0  0  0  0
 29 57  1  0  0  0  0
 29 58  1  0  0  0  0
 30 59  1  0  0  0  0
 30 60  1  0  0  0  0
 30 61  1  0  0  0  0
 31 32  1  0  0  0  0
 31 62  1  0  0  0  0
 32 63  1  0  0  0  0
 33 34  1  0  0  0  0
 33 38  2  0  0  0  0
 34 35  2  0  0  0  0
 34 64  1  0  0  0  0
 35 36  1  0  0  0  0
 35 65  1  0  0  0  0
 36 37  2  0  0  0  0
 36 66  1  0  0  0  0
 37 38  1  0  0  0  0
 37 67  1  0  0  0  0
 38 68  1  0  0  0  0
M  END
$$$$
