CHEMBL3764045
 OpenBabel04072215373D

 60 63  0  0  0  0  0  0  0  0999 V2000
    3.7506    8.9673    2.7020 C   0  0  0  0  0  0  0  0  0  0  0  0
    4.8380    8.0220    2.6690 N   0  0  0  0  0  0  0  0  0  0  0  0
    6.1180    8.3700    3.0701 C   0  0  0  0  0  0  0  0  0  0  0  0
    6.4090    9.4825    3.4783 O   0  0  0  0  0  0  0  0  0  0  0  0
    7.1480    7.3083    2.9182 C   0  0  0  0  0  0  0  0  0  0  0  0
    7.0957    6.5838    1.7151 C   0  0  0  0  0  0  0  0  0  0  0  0
    8.0130    5.5616    1.4030 C   0  0  0  0  0  0  0  0  0  0  0  0
    7.9514    4.7666    0.2366 C   0  0  0  0  0  0  0  0  0  0  0  0
    7.0086    4.9161   -0.7595 O   0  0  0  0  0  0  0  0  0  0  0  0
    5.6622    4.8169   -0.4822 C   0  0  0  0  0  0  0  0  0  0  0  0
    4.8224    5.3986   -1.4326 C   0  0  0  0  0  0  0  0  0  0  0  0
    3.4318    5.3781   -1.2599 C   0  0  0  0  0  0  0  0  0  0  0  0
    2.8482    4.8074   -0.1182 C   0  0  0  0  0  0  0  0  0  0  0  0
    1.4398    4.8766   -0.0297 N   0  0  0  0  0  0  0  0  0  0  0  0
    0.5604    4.7996    1.0326 C   0  0  0  0  0  0  0  0  0  0  0  0
    0.8824    4.5646    2.6553 S   0  0  0  0  0  0  0  0  0  0  0  0
   -0.7687    5.0637    0.7067 N   0  0  0  0  0  0  0  0  0  0  0  0
   -1.3243    5.2856   -0.5447 C   0  0  0  0  0  0  0  0  0  0  0  0
   -0.7417    5.0019   -1.5946 O   0  0  0  0  0  0  0  0  0  0  0  0
   -2.6703    5.9806   -0.5376 C   0  0  0  0  0  0  0  0  0  0  0  0
   -3.8784    5.1093   -0.3025 C   0  0  0  0  0  0  0  0  0  0  0  0
   -4.7884    5.4327    0.7162 C   0  0  0  0  0  0  0  0  0  0  0  0
   -5.9967    4.7437    0.8377 C   0  0  0  0  0  0  0  0  0  0  0  0
   -6.3103    3.7228   -0.0554 C   0  0  0  0  0  0  0  0  0  0  0  0
   -5.4038    3.3726   -1.0539 C   0  0  0  0  0  0  0  0  0  0  0  0
   -4.1924    4.0598   -1.1775 C   0  0  0  0  0  0  0  0  0  0  0  0
    3.6912    4.2101    0.8174 C   0  0  0  0  0  0  0  0  0  0  0  0
    5.0787    4.1960    0.6227 C   0  0  0  0  0  0  0  0  0  0  0  0
    5.8278    3.5819    1.5478 F   0  0  0  0  0  0  0  0  0  0  0  0
    8.9542    3.8416   -0.0327 C   0  0  0  0  0  0  0  0  0  0  0  0
    9.9655    3.6981    0.8924 C   0  0  0  0  0  0  0  0  0  0  0  0
   10.0327    4.4054    2.0432 N   0  0  0  0  0  0  0  0  0  0  0  0
    9.0772    5.3199    2.2923 C   0  0  0  0  0  0  0  0  0  0  0  0
    9.1484    6.0752    3.4579 C   0  0  0  0  0  0  0  0  0  0  0  0
    8.1963    7.0553    3.8036 C   0  0  0  0  0  0  0  0  0  0  0  0
    8.4961    7.6801    4.9821 O   0  0  0  0  0  0  0  0  0  0  0  0
    7.4214    8.0455    5.8374 C   0  0  0  0  0  0  0  0  0  0  0  0
    3.0560    8.7264    1.8932 H   0  0  0  0  0  0  0  0  0  0  0  0
    4.1185    9.9890    2.5782 H   0  0  0  0  0  0  0  0  0  0  0  0
    3.2420    8.8716    3.6641 H   0  0  0  0  0  0  0  0  0  0  0  0
    4.6201    7.0581    2.4369 H   0  0  0  0  0  0  0  0  0  0  0  0
    6.3357    6.8470    0.9849 H   0  0  0  0  0  0  0  0  0  0  0  0
    5.2476    5.8889   -2.3076 H   0  0  0  0  0  0  0  0  0  0  0  0
    2.8103    5.8530   -2.0192 H   0  0  0  0  0  0  0  0  0  0  0  0
    0.9758    5.0824   -0.9165 H   0  0  0  0  0  0  0  0  0  0  0  0
   -1.3731    5.1602    1.5139 H   0  0  0  0  0  0  0  0  0  0  0  0
   -2.7922    6.4695   -1.5133 H   0  0  0  0  0  0  0  0  0  0  0  0
   -2.6299    6.7948    0.1958 H   0  0  0  0  0  0  0  0  0  0  0  0
   -4.5851    6.2506    1.4047 H   0  0  0  0  0  0  0  0  0  0  0  0
   -6.7073    5.0226    1.6122 H   0  0  0  0  0  0  0  0  0  0  0  0
   -7.2658    3.2091    0.0183 H   0  0  0  0  0  0  0  0  0  0  0  0
   -5.6536    2.5804   -1.7562 H   0  0  0  0  0  0  0  0  0  0  0  0
   -3.5177    3.7925   -1.9894 H   0  0  0  0  0  0  0  0  0  0  0  0
    3.3180    3.6967    1.6934 H   0  0  0  0  0  0  0  0  0  0  0  0
    8.9494    3.2555   -0.9439 H   0  0  0  0  0  0  0  0  0  0  0  0
   10.7769    2.9951    0.7338 H   0  0  0  0  0  0  0  0  0  0  0  0
    9.9827    5.8952    4.1351 H   0  0  0  0  0  0  0  0  0  0  0  0
    7.7828    7.9680    6.8686 H   0  0  0  0  0  0  0  0  0  0  0  0
    6.5533    7.3866    5.7402 H   0  0  0  0  0  0  0  0  0  0  0  0
    7.1521    9.0920    5.6826 H   0  0  0  0  0  0  0  0  0  0  0  0
  1  2  1  0  0  0  0
  1 38  1  0  0  0  0
  1 39  1  0  0  0  0
  1 40  1  0  0  0  0
  2  3  1  0  0  0  0
  2 41  1  0  0  0  0
  3  4  2  0  0  0  0
  3  5  1  0  0  0  0
  5  6  1  0  0  0  0
  5 35  2  0  0  0  0
  6  7  2  0  0  0  0
  6 42  1  0  0  0  0
  7  8  1  0  0  0  0
  7 33  1  0  0  0  0
  8  9  1  0  0  0  0
  8 30  2  0  0  0  0
  9 10  1  0  0  0  0
 10 11  1  0  0  0  0
 10 28  2  0  0  0  0
 11 12  2  0  0  0  0
 11 43  1  0  0  0  0
 12 13  1  0  0  0  0
 12 44  1  0  0  0  0
 13 14  1  0  0  0  0
 13 27  2  0  0  0  0
 14 15  1  0  0  0  0
 14 45  1  0  0  0  0
 15 16  2  0  0  0  0
 15 17  1  0  0  0  0
 17 18  1  0  0  0  0
 17 46  1  0  0  0  0
 18 19  2  0  0  0  0
 18 20  1  0  0  0  0
 20 21  1  0  0  0  0
 20 47  1  0  0  0  0
 20 48  1  0  0  0  0
 21 22  1  0  0  0  0
 21 26  2  0  0  0  0
 22 23  2  0  0  0  0
 22 49  1  0  0  0  0
 23 24  1  0  0  0  0
 23 50  1  0  0  0  0
 24 25  2  0  0  0  0
 24 51  1  0  0  0  0
 25 26  1  0  0  0  0
 25 52  1  0  0  0  0
 26 53  1  0  0  0  0
 27 28  1  0  0  0  0
 27 54  1  0  0  0  0
 28 29  1  0  0  0  0
 30 31  1  0  0  0  0
 30 55  1  0  0  0  0
 31 32  2  0  0  0  0
 31 56  1  0  0  0  0
 32 33  1  0  0  0  0
 33 34  2  0  0  0  0
 34 35  1  0  0  0  0
 34 57  1  0  0  0  0
 35 36  1  0  0  0  0
 36 37  1  0  0  0  0
 37 58  1  0  0  0  0
 37 59  1  0  0  0  0
 37 60  1  0  0  0  0
M  END
$$$$
