CHEMBL47832
 OpenBabel04072215383D

 42 45  0  0  0  0  0  0  0  0999 V2000
   -0.8300   -7.1901    1.0271 C   0  0  0  0  0  0  0  0  0  0  0  0
   -0.4355   -5.7443    1.0173 C   0  0  0  0  0  0  0  0  0  0  0  0
    0.7928   -5.3107    1.5203 C   0  0  0  0  0  0  0  0  0  0  0  0
    1.1296   -3.9573    1.4790 C   0  0  0  0  0  0  0  0  0  0  0  0
    0.2368   -3.0272    0.9420 C   0  0  0  0  0  0  0  0  0  0  0  0
   -1.0173   -3.4347    0.4783 C   0  0  0  0  0  0  0  0  0  0  0  0
   -1.8958   -2.4831   -0.0649 N   0  0  0  0  0  0  0  0  0  0  0  0
   -3.2914   -2.5635   -0.0340 C   0  0  0  0  0  0  0  0  0  0  0  0
   -3.9147   -3.0969    1.0245 N   0  0  0  0  0  0  0  0  0  0  0  0
   -5.2582   -3.0777    1.0263 C   0  0  0  0  0  0  0  0  0  0  0  0
   -6.0070   -2.5473    0.0075 C   0  0  0  0  0  0  0  0  0  0  0  0
   -5.2900   -2.0108   -1.0409 C   0  0  0  0  0  0  0  0  0  0  0  0
   -5.9795   -1.3611   -2.1097 N   0  0  0  0  0  0  0  0  0  0  0  0
   -7.2815   -1.6301   -2.4923 C   0  0  0  0  0  0  0  0  0  0  0  0
   -7.5146   -0.8738   -3.6099 C   0  0  0  0  0  0  0  0  0  0  0  0
   -6.4214   -0.1143   -3.9111 N   0  0  0  0  0  0  0  0  0  0  0  0
   -5.5021   -0.3852   -2.9930 C   0  0  0  0  0  0  0  0  0  0  0  0
   -4.1841    0.2775   -2.9659 C   0  0  0  0  0  0  0  0  0  0  0  0
   -3.5323    0.6451   -1.7795 C   0  0  0  0  0  0  0  0  0  0  0  0
   -2.2256    1.1390   -1.7993 C   0  0  0  0  0  0  0  0  0  0  0  0
   -1.5843    1.3585   -3.0145 C   0  0  0  0  0  0  0  0  0  0  0  0
   -2.2567    1.1014   -4.2067 C   0  0  0  0  0  0  0  0  0  0  0  0
   -3.5464    0.5637   -4.1816 C   0  0  0  0  0  0  0  0  0  0  0  0
   -3.9422   -2.0399   -1.0761 N   0  0  0  0  0  0  0  0  0  0  0  0
   -1.3254   -4.8007    0.4917 C   0  0  0  0  0  0  0  0  0  0  0  0
   -0.0549   -7.8142    1.4827 H   0  0  0  0  0  0  0  0  0  0  0  0
   -0.9902   -7.5430    0.0045 H   0  0  0  0  0  0  0  0  0  0  0  0
   -1.7511   -7.3242    1.6025 H   0  0  0  0  0  0  0  0  0  0  0  0
    1.4950   -6.0224    1.9482 H   0  0  0  0  0  0  0  0  0  0  0  0
    2.0856   -3.6242    1.8745 H   0  0  0  0  0  0  0  0  0  0  0  0
    0.5072   -1.9747    0.9252 H   0  0  0  0  0  0  0  0  0  0  0  0
   -1.6346   -2.1818   -0.9982 H   0  0  0  0  0  0  0  0  0  0  0  0
   -5.7197   -3.4945    1.9138 H   0  0  0  0  0  0  0  0  0  0  0  0
   -7.0838   -2.5087    0.0915 H   0  0  0  0  0  0  0  0  0  0  0  0
   -7.8949   -2.3742   -2.0066 H   0  0  0  0  0  0  0  0  0  0  0  0
   -8.4070   -0.8494   -4.2225 H   0  0  0  0  0  0  0  0  0  0  0  0
   -4.0114    0.5047   -0.8141 H   0  0  0  0  0  0  0  0  0  0  0  0
   -1.7107    1.3395   -0.8634 H   0  0  0  0  0  0  0  0  0  0  0  0
   -0.5670    1.7385   -3.0321 H   0  0  0  0  0  0  0  0  0  0  0  0
   -1.7748    1.3044   -5.1594 H   0  0  0  0  0  0  0  0  0  0  0  0
   -4.0553    0.3539   -5.1209 H   0  0  0  0  0  0  0  0  0  0  0  0
   -2.2797   -5.1408    0.0947 H   0  0  0  0  0  0  0  0  0  0  0  0
  1  2  1  0  0  0  0
  1 26  1  0  0  0  0
  1 27  1  0  0  0  0
  1 28  1  0  0  0  0
  2  3  1  0  0  0  0
  2 25  2  0  0  0  0
  3  4  2  0  0  0  0
  3 29  1  0  0  0  0
  4  5  1  0  0  0  0
  4 30  1  0  0  0  0
  5  6  2  0  0  0  0
  5 31  1  0  0  0  0
  6  7  1  0  0  0  0
  6 25  1  0  0  0  0
  7  8  1  0  0  0  0
  7 32  1  0  0  0  0
  8  9  1  0  0  0  0
  8 24  2  0  0  0  0
  9 10  2  0  0  0  0
 10 11  1  0  0  0  0
 10 33  1  0  0  0  0
 11 12  2  0  0  0  0
 11 34  1  0  0  0  0
 12 13  1  0  0  0  0
 12 24  1  0  0  0  0
 13 14  1  0  0  0  0
 13 17  1  0  0  0  0
 14 15  2  0  0  0  0
 14 35  1  0  0  0  0
 15 16  1  0  0  0  0
 15 36  1  0  0  0  0
 16 17  2  0  0  0  0
 17 18  1  0  0  0  0
 18 19  1  0  0  0  0
 18 23  2  0  0  0  0
 19 20  2  0  0  0  0
 19 37  1  0  0  0  0
 20 21  1  0  0  0  0
 20 38  1  0  0  0  0
 21 22  2  0  0  0  0
 21 39  1  0  0  0  0
 22 23  1  0  0  0  0
 22 40  1  0  0  0  0
 23 41  1  0  0  0  0
 25 42  1  0  0  0  0
M  END
$$$$
