CHEMBL1908396
 OpenBabel04072215363D

 58 61  0  0  1  0  0  0  0  0999 V2000
    2.2051    1.1537   -0.4996 C   0  0  0  0  0  0  0  0  0  0  0  0
    2.3754   -0.1824   -0.2327 O   0  0  0  0  0  0  0  0  0  0  0  0
    3.0192   -0.5141    0.9248 C   0  0  0  0  0  0  0  0  0  0  0  0
    2.5182   -1.7625    1.3799 C   0  0  0  0  0  0  0  0  0  0  0  0
    3.1691   -2.6510    2.1601 C   0  0  0  0  0  0  0  0  0  0  0  0
    2.3853   -3.7885    2.3482 O   0  0  0  0  0  0  0  0  0  0  0  0
    1.7087   -4.7190    1.2858 C   0  0  0  0  0  0  0  0  0  0  0  0
    0.4698   -5.1323    0.1342 C   0  0  0  0  0  0  0  0  0  0  0  0
   -0.4176   -6.1740    0.0499 C   0  0  0  0  0  0  0  0  0  0  0  0
    0.0345   -6.0979    1.1815 N   0  0  0  0  0  0  0  0  0  0  0  0
    0.2361   -6.2952    2.4258 C   0  0  0  0  0  0  0  0  0  0  0  0
   -0.5248   -7.1894    3.0329 C   0  0  0  0  0  0  0  0  0  0  0  0
   -0.1899   -7.4837    4.2971 C   0  0  0  0  0  0  0  0  0  0  0  0
   -0.8910   -8.4872    4.8951 O   0  0  0  0  0  0  0  0  0  0  0  0
   -1.3365   -9.4968    3.9762 C   0  0  0  0  0  0  0  0  0  0  0  0
    0.8453   -6.7596    4.9000 C   0  0  0  0  0  0  0  0  0  0  0  0
    1.1927   -6.9261    6.2274 O   0  0  0  0  0  0  0  0  0  0  0  0
    0.0963   -7.3089    7.0782 C   0  0  0  0  0  0  0  0  0  0  0  0
    1.5822   -5.8100    4.0988 C   0  0  0  0  0  0  0  0  0  0  0  0
    1.2507   -5.5018    2.7733 C   0  0  0  0  0  0  0  0  0  0  0  0
    4.4154   -2.0705    2.7001 C   0  0  0  0  0  0  0  0  0  0  0  0
    4.9343   -0.7473    2.2387 C   0  0  0  0  0  0  0  0  0  0  0  0
    4.2108    0.0733    1.4039 C   0  0  0  0  0  0  0  0  0  0  0  0
    4.5989    1.4263    1.0586 N   0  0  0  0  0  0  0  0  0  0  0  0
    5.7733    1.8248    0.3698 C   0  0  0  0  0  0  0  0  0  0  0  0
    5.9100    3.0235    0.0350 O   0  0  0  0  0  0  0  0  0  0  0  0
    6.7064    0.9437    0.0345 N   0  0  0  0  0  0  0  0  0  0  0  0
    7.9122    1.3904   -0.6200 C   0  0  3  0  0  0  0  0  0  0  0  0
    8.9894    1.7945    0.4074 C   0  0  0  0  0  0  0  0  0  0  0  0
    8.4418    0.3308   -1.5729 C   0  0  0  0  0  0  0  0  0  0  0  0
    8.2820   -0.9721   -1.4094 N   0  0  0  0  0  0  0  0  0  0  0  0
    8.8707   -1.6530   -2.4581 C   0  0  0  0  0  0  0  0  0  0  0  0
    9.4960   -0.8883   -3.4102 C   0  0  0  0  0  0  0  0  0  0  0  0
    9.3172    0.7763   -3.0064 S   0  0  0  0  0  0  0  0  0  0  0  0
    2.0037    1.3398   -1.5051 H   0  0  0  0  0  0  0  0  0  0  0  0
    3.1406    1.7472   -0.3394 H   0  0  0  0  0  0  0  0  0  0  0  0
    1.4569    1.5972    0.1635 H   0  0  0  0  0  0  0  0  0  0  0  0
    1.5605   -2.1145    0.9992 H   0  0  0  0  0  0  0  0  0  0  0  0
    0.5378   -4.9324   -0.9402 H   0  0  0  0  0  0  0  0  0  0  0  0
   -1.1593   -7.0118    0.3058 H   0  0  0  0  0  0  0  0  0  0  0  0
   -1.2980   -7.6314    2.4431 H   0  0  0  0  0  0  0  0  0  0  0  0
   -1.8760  -10.2533    4.5909 H   0  0  0  0  0  0  0  0  0  0  0  0
   -0.5056   -9.9955    3.4919 H   0  0  0  0  0  0  0  0  0  0  0  0
   -2.0664   -9.1134    3.2736 H   0  0  0  0  0  0  0  0  0  0  0  0
    0.4324   -7.3568    8.1322 H   0  0  0  0  0  0  0  0  0  0  0  0
   -0.2628   -8.3133    6.8678 H   0  0  0  0  0  0  0  0  0  0  0  0
   -0.7166   -6.5721    7.0533 H   0  0  0  0  0  0  0  0  0  0  0  0
    2.4860   -5.3578    4.5439 H   0  0  0  0  0  0  0  0  0  0  0  0
    5.0902   -2.5370    3.4384 H   0  0  0  0  0  0  0  0  0  0  0  0
    5.9424   -0.3837    2.5413 H   0  0  0  0  0  0  0  0  0  0  0  0
    3.9171    2.2109    1.2115 H   0  0  0  0  0  0  0  0  0  0  0  0
    6.5123   -0.0839    0.1617 H   0  0  0  0  0  0  0  0  0  0  0  0
    7.6732    2.2813   -1.2165 H   0  0  0  0  0  0  0  0  0  0  0  0
    9.2563    0.9372    1.0355 H   0  0  0  0  0  0  0  0  0  0  0  0
    8.6728    2.5998    1.0852 H   0  0  0  0  0  0  0  0  0  0  0  0
    9.8998    2.1654   -0.0842 H   0  0  0  0  0  0  0  0  0  0  0  0
    8.8209   -2.7326   -2.4794 H   0  0  0  0  0  0  0  0  0  0  0  0
   10.0270   -1.2058   -4.2984 H   0  0  0  0  0  0  0  0  0  0  0  0
  1  2  1  0  0  0  0
  1 35  1  0  0  0  0
  1 36  1  0  0  0  0
  1 37  1  0  0  0  0
  2  3  1  0  0  0  0
  3  4  1  0  0  0  0
  3 23  2  0  0  0  0
  4  5  2  0  0  0  0
  4 38  1  0  0  0  0
  5  6  1  0  0  0  0
  5 21  1  0  0  0  0
  6  7  1  0  0  0  0
  7  8  1  0  0  0  0
  7 20  2  0  0  0  0
  8  9  2  0  0  0  0
  8 39  1  0  0  0  0
  9 10  1  0  0  0  0
  9 40  1  0  0  0  0
 10 11  2  0  0  0  0
 11 12  1  0  0  0  0
 11 20  1  0  0  0  0
 12 13  2  0  0  0  0
 12 41  1  0  0  0  0
 13 14  1  0  0  0  0
 13 16  1  0  0  0  0
 14 15  1  0  0  0  0
 15 42  1  0  0  0  0
 15 43  1  0  0  0  0
 15 44  1  0  0  0  0
 16 17  1  0  0  0  0
 16 19  2  0  0  0  0
 17 18  1  0  0  0  0
 18 45  1  0  0  0  0
 18 46  1  0  0  0  0
 18 47  1  0  0  0  0
 19 20  1  0  0  0  0
 19 48  1  0  0  0  0
 21 22  2  0  0  0  0
 21 49  1  0  0  0  0
 22 23  1  0  0  0  0
 22 50  1  0  0  0  0
 23 24  1  0  0  0  0
 24 25  1  0  0  0  0
 24 51  1  0  0  0  0
 25 26  2  0  0  0  0
 25 27  1  0  0  0  0
 27 28  1  0  0  0  0
 27 52  1  0  0  0  0
 28 29  1  0  0  0  0
 28 30  1  0  0  0  0
 28 53  1  0  0  0  0
 29 54  1  0  0  0  0
 29 55  1  0  0  0  0
 29 56  1  0  0  0  0
 30 31  2  0  0  0  0
 30 34  1  0  0  0  0
 31 32  1  0  0  0  0
 32 33  2  0  0  0  0
 32 57  1  0  0  0  0
 33 34  1  0  0  0  0
 33 58  1  0  0  0  0
M  END
$$$$
