CHEMBL4066684
 OpenBabel04072215383D

 52 56  0  0  0  0  0  0  0  0999 V2000
    5.6415    1.9423   -0.5132 C   0  0  0  0  0  0  0  0  0  0  0  0
    4.7226    0.9461    0.1160 C   0  0  0  0  0  0  0  0  0  0  0  0
    5.1916   -0.2079    0.5974 C   0  0  0  0  0  0  0  0  0  0  0  0
    4.3240   -1.2320    1.2022 C   0  0  0  0  0  0  0  0  0  0  0  0
    4.8739   -2.2593    1.5944 O   0  0  0  0  0  0  0  0  0  0  0  0
    2.9583   -0.9387    1.2140 N   0  0  0  0  0  0  0  0  0  0  0  0
    1.9879   -1.8411    1.7573 C   0  0  0  0  0  0  0  0  0  0  0  0
    2.3267   -2.7549    2.7781 C   0  0  0  0  0  0  0  0  0  0  0  0
    1.3746   -3.6366    3.2986 C   0  0  0  0  0  0  0  0  0  0  0  0
    0.0790   -3.6110    2.8102 C   0  0  0  0  0  0  0  0  0  0  0  0
   -0.8372   -4.4650    3.2928 F   0  0  0  0  0  0  0  0  0  0  0  0
   -0.2839   -2.7260    1.8059 C   0  0  0  0  0  0  0  0  0  0  0  0
    0.6609   -1.8293    1.2932 C   0  0  0  0  0  0  0  0  0  0  0  0
    2.4263    0.2507    0.7288 N   0  0  0  0  0  0  0  0  0  0  0  0
    3.2478    1.1392    0.2412 C   0  0  0  0  0  0  0  0  0  0  0  0
    2.6249    2.4862   -0.1941 C   0  0  0  0  0  0  0  0  0  0  0  0
    3.3029    3.2956   -0.8084 O   0  0  0  0  0  0  0  0  0  0  0  0
    1.3144    2.6626    0.2324 N   0  0  0  0  0  0  0  0  0  0  0  0
    0.5529    3.8489    0.1090 C   0  0  0  0  0  0  0  0  0  0  0  0
    0.9303    4.9182   -0.7102 C   0  0  0  0  0  0  0  0  0  0  0  0
    0.2276    6.1301   -0.6889 C   0  0  0  0  0  0  0  0  0  0  0  0
   -0.8321    6.3118    0.2016 C   0  0  0  0  0  0  0  0  0  0  0  0
   -1.4654    7.5193    0.4251 O   0  0  0  0  0  0  0  0  0  0  0  0
   -0.7295    8.6834    0.3060 C   0  0  0  0  0  0  0  0  0  0  0  0
    0.6141    8.7938    0.6882 C   0  0  0  0  0  0  0  0  0  0  0  0
    1.3151    9.9520    0.3819 C   0  0  0  0  0  0  0  0  0  0  0  0
    0.8196   11.0132   -0.2900 N   0  0  0  0  0  0  0  0  0  0  0  0
   -0.5048   10.9163   -0.4978 C   0  0  0  0  0  0  0  0  0  0  0  0
   -1.2684   11.8665   -1.1168 N   0  0  0  0  0  0  0  0  0  0  0  0
   -2.5908   11.6160   -0.8529 C   0  0  0  0  0  0  0  0  0  0  0  0
   -2.6730   10.3196   -0.3832 C   0  0  0  0  0  0  0  0  0  0  0  0
   -1.3433    9.8569   -0.1658 C   0  0  0  0  0  0  0  0  0  0  0  0
   -1.2878    5.2053    0.9159 C   0  0  0  0  0  0  0  0  0  0  0  0
   -2.3695    5.3146    1.7018 F   0  0  0  0  0  0  0  0  0  0  0  0
   -0.6132    3.9789    0.8692 C   0  0  0  0  0  0  0  0  0  0  0  0
    6.6817    1.5949   -0.5012 H   0  0  0  0  0  0  0  0  0  0  0  0
    5.6218    2.8930    0.0278 H   0  0  0  0  0  0  0  0  0  0  0  0
    5.3790    2.1064   -1.5630 H   0  0  0  0  0  0  0  0  0  0  0  0
    6.2448   -0.4670    0.5565 H   0  0  0  0  0  0  0  0  0  0  0  0
    3.3253   -2.7846    3.2051 H   0  0  0  0  0  0  0  0  0  0  0  0
    1.6390   -4.3343    4.0905 H   0  0  0  0  0  0  0  0  0  0  0  0
   -1.3030   -2.7274    1.4252 H   0  0  0  0  0  0  0  0  0  0  0  0
    0.3625   -1.1578    0.4952 H   0  0  0  0  0  0  0  0  0  0  0  0
    0.9377    1.9044    0.7962 H   0  0  0  0  0  0  0  0  0  0  0  0
    1.7855    4.8523   -1.3766 H   0  0  0  0  0  0  0  0  0  0  0  0
    0.5610    6.9333   -1.3419 H   0  0  0  0  0  0  0  0  0  0  0  0
    1.1234    7.9848    1.1998 H   0  0  0  0  0  0  0  0  0  0  0  0
    2.3585   10.0490    0.6736 H   0  0  0  0  0  0  0  0  0  0  0  0
   -0.8890   12.6619   -1.6097 H   0  0  0  0  0  0  0  0  0  0  0  0
   -3.3473   12.3632   -1.0526 H   0  0  0  0  0  0  0  0  0  0  0  0
   -3.5859    9.7945   -0.1337 H   0  0  0  0  0  0  0  0  0  0  0  0
   -0.9899    3.1651    1.4803 H   0  0  0  0  0  0  0  0  0  0  0  0
  1  2  1  0  0  0  0
  1 36  1  0  0  0  0
  1 37  1  0  0  0  0
  1 38  1  0  0  0  0
  2  3  2  0  0  0  0
  2 15  1  0  0  0  0
  3  4  1  0  0  0  0
  3 39  1  0  0  0  0
  4  5  2  0  0  0  0
  4  6  1  0  0  0  0
  6  7  1  0  0  0  0
  6 14  1  0  0  0  0
  7  8  1  0  0  0  0
  7 13  2  0  0  0  0
  8  9  2  0  0  0  0
  8 40  1  0  0  0  0
  9 10  1  0  0  0  0
  9 41  1  0  0  0  0
 10 11  1  0  0  0  0
 10 12  2  0  0  0  0
 12 13  1  0  0  0  0
 12 42  1  0  0  0  0
 13 43  1  0  0  0  0
 14 15  2  0  0  0  0
 15 16  1  0  0  0  0
 16 17  2  0  0  0  0
 16 18  1  0  0  0  0
 18 19  1  0  0  0  0
 18 44  1  0  0  0  0
 19 20  1  0  0  0  0
 19 35  2  0  0  0  0
 20 21  2  0  0  0  0
 20 45  1  0  0  0  0
 21 22  1  0  0  0  0
 21 46  1  0  0  0  0
 22 23  1  0  0  0  0
 22 33  2  0  0  0  0
 23 24  1  0  0  0  0
 24 25  1  0  0  0  0
 24 32  2  0  0  0  0
 25 26  2  0  0  0  0
 25 47  1  0  0  0  0
 26 27  1  0  0  0  0
 26 48  1  0  0  0  0
 27 28  2  0  0  0  0
 28 29  1  0  0  0  0
 28 32  1  0  0  0  0
 29 30  1  0  0  0  0
 29 49  1  0  0  0  0
 30 31  2  0  0  0  0
 30 50  1  0  0  0  0
 31 32  1  0  0  0  0
 31 51  1  0  0  0  0
 33 34  1  0  0  0  0
 33 35  1  0  0  0  0
 35 52  1  0  0  0  0
M  END
$$$$
