CHEMBL256205
 OpenBabel04072215363D

 42 45  0  0  0  0  0  0  0  0999 V2000
    1.2694   -0.1908   -1.8852 N   0  0  0  0  0  0  0  0  0  0  0  0
    2.5808   -0.2396   -1.5921 C   0  0  0  0  0  0  0  0  0  0  0  0
    3.3910    0.7462   -1.9700 N   0  0  0  0  0  0  0  0  0  0  0  0
    4.5777    0.3867   -1.4644 N   0  0  0  0  0  0  0  0  0  0  0  0
    4.5554   -0.7898   -0.7785 C   0  0  0  0  0  0  0  0  0  0  0  0
    5.6151   -1.3324   -0.1531 N   0  0  0  0  0  0  0  0  0  0  0  0
    5.3227   -2.4995    0.4458 C   0  0  0  0  0  0  0  0  0  0  0  0
    4.0810   -3.1162    0.4281 C   0  0  0  0  0  0  0  0  0  0  0  0
    2.9816   -2.5160   -0.2309 C   0  0  0  0  0  0  0  0  0  0  0  0
    1.6446   -3.1396   -0.1903 C   0  0  0  0  0  0  0  0  0  0  0  0
    1.2048   -3.7727    0.9826 C   0  0  0  0  0  0  0  0  0  0  0  0
   -0.0672   -4.3408    1.0803 C   0  0  0  0  0  0  0  0  0  0  0  0
   -0.9715   -4.2507    0.0249 C   0  0  0  0  0  0  0  0  0  0  0  0
   -2.2958   -4.7344    0.1278 N   0  0  0  0  0  0  0  0  0  0  0  0
   -2.9546   -4.9300    1.3291 C   0  0  0  0  0  0  0  0  0  0  0  0
   -2.5385   -4.5588    2.4241 O   0  0  0  0  0  0  0  0  0  0  0  0
   -4.1378   -5.6262    1.1608 N   0  0  0  0  0  0  0  0  0  0  0  0
   -5.0046   -5.8788    2.2496 C   0  0  0  0  0  0  0  0  0  0  0  0
   -5.2483   -4.9070    3.2313 C   0  0  0  0  0  0  0  0  0  0  0  0
   -6.0899   -5.1813    4.3087 C   0  0  0  0  0  0  0  0  0  0  0  0
   -6.6801   -6.4351    4.4108 C   0  0  0  0  0  0  0  0  0  0  0  0
   -7.4795   -6.6858    5.4584 F   0  0  0  0  0  0  0  0  0  0  0  0
   -6.4434   -7.4086    3.4427 C   0  0  0  0  0  0  0  0  0  0  0  0
   -7.1370   -8.9780    3.5936 Cl  0  0  0  0  0  0  0  0  0  0  0  0
   -5.6224   -7.1279    2.3468 C   0  0  0  0  0  0  0  0  0  0  0  0
   -0.5411   -3.6814   -1.1719 C   0  0  0  0  0  0  0  0  0  0  0  0
    0.7613   -3.1592   -1.2819 C   0  0  0  0  0  0  0  0  0  0  0  0
    3.2506   -1.2711   -0.8609 C   0  0  0  0  0  0  0  0  0  0  0  0
    0.9511    0.6995   -2.2537 H   0  0  0  0  0  0  0  0  0  0  0  0
    0.6099   -0.5953   -1.2287 H   0  0  0  0  0  0  0  0  0  0  0  0
    5.3794    0.9896   -1.5979 H   0  0  0  0  0  0  0  0  0  0  0  0
    6.1524   -2.9601    0.9765 H   0  0  0  0  0  0  0  0  0  0  0  0
    3.9715   -4.0687    0.9392 H   0  0  0  0  0  0  0  0  0  0  0  0
    1.8412   -3.8253    1.8634 H   0  0  0  0  0  0  0  0  0  0  0  0
   -0.3223   -4.8391    2.0096 H   0  0  0  0  0  0  0  0  0  0  0  0
   -2.8862   -4.6473   -0.6871 H   0  0  0  0  0  0  0  0  0  0  0  0
   -4.1127   -6.3146    0.4220 H   0  0  0  0  0  0  0  0  0  0  0  0
   -4.7847   -3.9237    3.1687 H   0  0  0  0  0  0  0  0  0  0  0  0
   -6.2764   -4.4293    5.0690 H   0  0  0  0  0  0  0  0  0  0  0  0
   -5.4271   -7.9022    1.6107 H   0  0  0  0  0  0  0  0  0  0  0  0
   -1.2052   -3.6060   -2.0288 H   0  0  0  0  0  0  0  0  0  0  0  0
    1.0673   -2.7419   -2.2405 H   0  0  0  0  0  0  0  0  0  0  0  0
  1  2  1  0  0  0  0
  1 29  1  0  0  0  0
  1 30  1  0  0  0  0
  2  3  2  0  0  0  0
  2 28  1  0  0  0  0
  3  4  1  0  0  0  0
  4  5  1  0  0  0  0
  4 31  1  0  0  0  0
  5  6  1  0  0  0  0
  5 28  2  0  0  0  0
  6  7  2  0  0  0  0
  7  8  1  0  0  0  0
  7 32  1  0  0  0  0
  8  9  2  0  0  0  0
  8 33  1  0  0  0  0
  9 10  1  0  0  0  0
  9 28  1  0  0  0  0
 10 11  1  0  0  0  0
 10 27  2  0  0  0  0
 11 12  2  0  0  0  0
 11 34  1  0  0  0  0
 12 13  1  0  0  0  0
 12 35  1  0  0  0  0
 13 14  1  0  0  0  0
 13 26  2  0  0  0  0
 14 15  1  0  0  0  0
 14 36  1  0  0  0  0
 15 16  2  0  0  0  0
 15 17  1  0  0  0  0
 17 18  1  0  0  0  0
 17 37  1  0  0  0  0
 18 19  1  0  0  0  0
 18 25  2  0  0  0  0
 19 20  2  0  0  0  0
 19 38  1  0  0  0  0
 20 21  1  0  0  0  0
 20 39  1  0  0  0  0
 21 22  1  0  0  0  0
 21 23  2  0  0  0  0
 23 24  1  0  0  0  0
 23 25  1  0  0  0  0
 25 40  1  0  0  0  0
 26 27  1  0  0  0  0
 26 41  1  0  0  0  0
 27 42  1  0  0  0  0
M  END
$$$$
