CHEMBL4436576
 OpenBabel04072215383D

 44 46  0  0  0  0  0  0  0  0999 V2000
    2.4447   -0.0421   -0.1770 C   0  0  0  0  0  0  0  0  0  0  0  0
    0.9460   -0.0297   -0.1508 C   0  0  0  0  0  0  0  0  0  0  0  0
    0.2331   -1.0765    0.4334 C   0  0  0  0  0  0  0  0  0  0  0  0
   -1.1643   -1.0588    0.4475 C   0  0  0  0  0  0  0  0  0  0  0  0
   -1.8978    0.0042   -0.1141 C   0  0  0  0  0  0  0  0  0  0  0  0
   -3.3768    0.0234   -0.0859 C   0  0  0  0  0  0  0  0  0  0  0  0
   -4.0983   -0.5806    0.9343 C   0  0  0  0  0  0  0  0  0  0  0  0
   -5.4767   -0.5617    0.9193 C   0  0  0  0  0  0  0  0  0  0  0  0
   -6.1450   -1.1810    1.9122 N   0  0  0  0  0  0  0  0  0  0  0  0
   -7.4949   -1.1441    1.8481 C   0  0  0  0  0  0  0  0  0  0  0  0
   -8.1630   -0.5073    0.8271 C   0  0  0  0  0  0  0  0  0  0  0  0
   -7.5114    0.1162   -0.1752 N   0  0  0  0  0  0  0  0  0  0  0  0
   -6.1494    0.0964   -0.1266 C   0  0  0  0  0  0  0  0  0  0  0  0
   -5.3546    0.6991   -1.1145 C   0  0  0  0  0  0  0  0  0  0  0  0
   -6.0257    1.4673   -2.0935 N   0  0  0  0  0  0  0  0  0  0  0  0
   -5.3965    1.5443   -3.3999 C   0  0  0  0  0  0  0  0  0  0  0  0
   -6.2729    2.4190   -4.3063 C   0  0  0  0  0  0  0  0  0  0  0  0
   -6.4219    3.8626   -3.8011 C   0  0  0  0  0  0  0  0  0  0  0  0
   -5.0996    4.6179   -3.6588 C   0  0  0  0  0  0  0  0  0  0  0  0
   -4.4124    4.7395   -4.9416 N   0  0  0  0  0  0  0  0  0  0  0  0
   -3.9967    0.6646   -1.1066 N   0  0  0  0  0  0  0  0  0  0  0  0
   -1.1633    1.0497   -0.6975 C   0  0  0  0  0  0  0  0  0  0  0  0
    0.2382    1.0362   -0.7146 C   0  0  0  0  0  0  0  0  0  0  0  0
    2.8462   -0.9570    0.2731 H   0  0  0  0  0  0  0  0  0  0  0  0
    2.8396    0.8102    0.3849 H   0  0  0  0  0  0  0  0  0  0  0  0
    2.8045    0.0060   -1.2101 H   0  0  0  0  0  0  0  0  0  0  0  0
    0.7550   -1.9209    0.8789 H   0  0  0  0  0  0  0  0  0  0  0  0
   -1.6733   -1.9077    0.8990 H   0  0  0  0  0  0  0  0  0  0  0  0
   -3.6015   -1.0673    1.7671 H   0  0  0  0  0  0  0  0  0  0  0  0
   -8.0208   -1.6423    2.6539 H   0  0  0  0  0  0  0  0  0  0  0  0
   -9.2451   -0.4836    0.7853 H   0  0  0  0  0  0  0  0  0  0  0  0
   -6.9911    1.1333   -2.1319 H   0  0  0  0  0  0  0  0  0  0  0  0
   -5.3196    0.5439   -3.8414 H   0  0  0  0  0  0  0  0  0  0  0  0
   -4.3834    1.9556   -3.3394 H   0  0  0  0  0  0  0  0  0  0  0  0
   -7.2743    1.9758   -4.3847 H   0  0  0  0  0  0  0  0  0  0  0  0
   -5.8615    2.4161   -5.3220 H   0  0  0  0  0  0  0  0  0  0  0  0
   -6.9294    3.8597   -2.8279 H   0  0  0  0  0  0  0  0  0  0  0  0
   -7.0856    4.4099   -4.4824 H   0  0  0  0  0  0  0  0  0  0  0  0
   -4.4440    4.1251   -2.9337 H   0  0  0  0  0  0  0  0  0  0  0  0
   -5.2993    5.6215   -3.2691 H   0  0  0  0  0  0  0  0  0  0  0  0
   -4.1954    3.8142   -5.3077 H   0  0  0  0  0  0  0  0  0  0  0  0
   -3.5138    5.1955   -4.7952 H   0  0  0  0  0  0  0  0  0  0  0  0
   -1.6850    1.8964   -1.1417 H   0  0  0  0  0  0  0  0  0  0  0  0
    0.7716    1.8659   -1.1739 H   0  0  0  0  0  0  0  0  0  0  0  0
  1  2  1  0  0  0  0
  1 24  1  0  0  0  0
  1 25  1  0  0  0  0
  1 26  1  0  0  0  0
  2  3  1  0  0  0  0
  2 23  2  0  0  0  0
  3  4  2  0  0  0  0
  3 27  1  0  0  0  0
  4  5  1  0  0  0  0
  4 28  1  0  0  0  0
  5  6  1  0  0  0  0
  5 22  2  0  0  0  0
  6  7  1  0  0  0  0
  6 21  2  0  0  0  0
  7  8  2  0  0  0  0
  7 29  1  0  0  0  0
  8  9  1  0  0  0  0
  8 13  1  0  0  0  0
  9 10  2  0  0  0  0
 10 11  1  0  0  0  0
 10 30  1  0  0  0  0
 11 12  2  0  0  0  0
 11 31  1  0  0  0  0
 12 13  1  0  0  0  0
 13 14  2  0  0  0  0
 14 15  1  0  0  0  0
 14 21  1  0  0  0  0
 15 16  1  0  0  0  0
 15 32  1  0  0  0  0
 16 17  1  0  0  0  0
 16 33  1  0  0  0  0
 16 34  1  0  0  0  0
 17 18  1  0  0  0  0
 17 35  1  0  0  0  0
 17 36  1  0  0  0  0
 18 19  1  0  0  0  0
 18 37  1  0  0  0  0
 18 38  1  0  0  0  0
 19 20  1  0  0  0  0
 19 39  1  0  0  0  0
 19 40  1  0  0  0  0
 20 41  1  0  0  0  0
 20 42  1  0  0  0  0
 22 23  1  0  0  0  0
 22 43  1  0  0  0  0
 23 44  1  0  0  0  0
M  END
$$$$
