CHEMBL231469
 OpenBabel04072215363D

 63 67  0  0  0  0  0  0  0  0999 V2000
   11.8412    7.7263    5.0343 C   0  0  0  0  0  0  0  0  0  0  0  0
   11.0060    6.5563    5.0555 N   0  0  0  0  0  0  0  0  0  0  0  0
   10.3967    6.0861    3.9115 C   0  0  0  0  0  0  0  0  0  0  0  0
   10.5341    6.6186    2.8097 O   0  0  0  0  0  0  0  0  0  0  0  0
    9.5438    4.8656    4.0792 C   0  0  0  0  0  0  0  0  0  0  0  0
    8.9436    4.2990    2.9635 C   0  0  0  0  0  0  0  0  0  0  0  0
    8.1512    3.1619    3.1370 C   0  0  0  0  0  0  0  0  0  0  0  0
    7.5192    2.4915    2.1064 O   0  0  0  0  0  0  0  0  0  0  0  0
    6.9824    3.2276    1.0682 C   0  0  0  0  0  0  0  0  0  0  0  0
    6.9088    2.6255   -0.2049 C   0  0  0  0  0  0  0  0  0  0  0  0
    6.4542    3.3462   -1.3264 C   0  0  0  0  0  0  0  0  0  0  0  0
    6.0771    4.6672   -1.0836 C   0  0  0  0  0  0  0  0  0  0  0  0
    5.6577    5.6104   -1.9817 O   0  0  0  0  0  0  0  0  0  0  0  0
    5.4006    6.7116   -1.2027 C   0  0  0  0  0  0  0  0  0  0  0  0
    4.9690    7.8119   -1.8450 N   0  0  0  0  0  0  0  0  0  0  0  0
    4.1316    8.7914   -1.2905 C   0  0  0  0  0  0  0  0  0  0  0  0
    4.2350   10.1188   -1.7151 C   0  0  0  0  0  0  0  0  0  0  0  0
    3.4881   11.1270   -1.0961 C   0  0  0  0  0  0  0  0  0  0  0  0
    2.6144   10.8229   -0.0492 C   0  0  0  0  0  0  0  0  0  0  0  0
    1.7889   12.1426    0.7014 Cl  0  0  0  0  0  0  0  0  0  0  0  0
    2.4473    9.4994    0.3693 C   0  0  0  0  0  0  0  0  0  0  0  0
    1.4740    9.0908    1.4567 C   0  0  0  0  0  0  0  0  0  0  0  0
    2.1251    8.4250    2.5881 N   0  0  0  0  0  0  0  0  0  0  0  0
    3.0953    9.2936    3.2807 C   0  0  0  0  0  0  0  0  0  0  0  0
    3.8063    8.5218    4.4135 C   0  0  0  0  0  0  0  0  0  0  0  0
    2.8986    7.9334    5.4209 N   0  0  0  0  0  0  0  0  0  0  0  0
    2.3287    8.9641    6.2846 C   0  0  0  0  0  0  0  0  0  0  0  0
    1.8467    7.1617    4.7255 C   0  0  0  0  0  0  0  0  0  0  0  0
    1.1463    7.9020    3.5576 C   0  0  0  0  0  0  0  0  0  0  0  0
    3.2342    8.5015   -0.2504 C   0  0  0  0  0  0  0  0  0  0  0  0
    5.6258    6.5377    0.0755 N   0  0  0  0  0  0  0  0  0  0  0  0
    6.0805    5.2594    0.1625 C   0  0  0  0  0  0  0  0  0  0  0  0
    6.5090    4.5292    1.2659 C   0  0  0  0  0  0  0  0  0  0  0  0
    8.0140    2.6217    4.4112 C   0  0  0  0  0  0  0  0  0  0  0  0
    8.6554    3.2558    5.4656 C   0  0  0  0  0  0  0  0  0  0  0  0
    9.4203    4.3641    5.3380 N   0  0  0  0  0  0  0  0  0  0  0  0
   12.2424    7.8976    6.0342 H   0  0  0  0  0  0  0  0  0  0  0  0
   11.2481    8.5896    4.7176 H   0  0  0  0  0  0  0  0  0  0  0  0
   12.6563    7.5713    4.3221 H   0  0  0  0  0  0  0  0  0  0  0  0
   10.9194    5.9875    5.8951 H   0  0  0  0  0  0  0  0  0  0  0  0
    9.0784    4.7638    1.9917 H   0  0  0  0  0  0  0  0  0  0  0  0
    7.2257    1.5904   -0.3396 H   0  0  0  0  0  0  0  0  0  0  0  0
    6.4116    2.9166   -2.3202 H   0  0  0  0  0  0  0  0  0  0  0  0
    5.1524    7.8904   -2.8425 H   0  0  0  0  0  0  0  0  0  0  0  0
    4.9244   10.3921   -2.5088 H   0  0  0  0  0  0  0  0  0  0  0  0
    3.5998   12.1559   -1.4280 H   0  0  0  0  0  0  0  0  0  0  0  0
    0.7651    8.3949    0.9875 H   0  0  0  0  0  0  0  0  0  0  0  0
    0.8686    9.9343    1.8021 H   0  0  0  0  0  0  0  0  0  0  0  0
    2.6052   10.1921    3.6787 H   0  0  0  0  0  0  0  0  0  0  0  0
    3.8726    9.6355    2.5884 H   0  0  0  0  0  0  0  0  0  0  0  0
    4.5421    9.1740    4.8993 H   0  0  0  0  0  0  0  0  0  0  0  0
    4.3896    7.7066    3.9632 H   0  0  0  0  0  0  0  0  0  0  0  0
    3.1260    9.5244    6.7859 H   0  0  0  0  0  0  0  0  0  0  0  0
    1.7269    8.5036    7.0752 H   0  0  0  0  0  0  0  0  0  0  0  0
    1.6966    9.6803    5.7505 H   0  0  0  0  0  0  0  0  0  0  0  0
    1.0970    6.8114    5.4458 H   0  0  0  0  0  0  0  0  0  0  0  0
    2.3123    6.2519    4.3225 H   0  0  0  0  0  0  0  0  0  0  0  0
    0.5161    8.7087    3.9553 H   0  0  0  0  0  0  0  0  0  0  0  0
    0.4779    7.1898    3.0584 H   0  0  0  0  0  0  0  0  0  0  0  0
    3.1273    7.4717    0.0936 H   0  0  0  0  0  0  0  0  0  0  0  0
    6.5125    5.0090    2.2384 H   0  0  0  0  0  0  0  0  0  0  0  0
    7.4151    1.7338    4.5813 H   0  0  0  0  0  0  0  0  0  0  0  0
    8.5722    2.8682    6.4768 H   0  0  0  0  0  0  0  0  0  0  0  0
  1  2  1  0  0  0  0
  1 37  1  0  0  0  0
  1 38  1  0  0  0  0
  1 39  1  0  0  0  0
  2  3  1  0  0  0  0
  2 40  1  0  0  0  0
  3  4  2  0  0  0  0
  3  5  1  0  0  0  0
  5  6  1  0  0  0  0
  5 36  2  0  0  0  0
  6  7  2  0  0  0  0
  6 41  1  0  0  0  0
  7  8  1  0  0  0  0
  7 34  1  0  0  0  0
  8  9  1  0  0  0  0
  9 10  1  0  0  0  0
  9 33  2  0  0  0  0
 10 11  2  0  0  0  0
 10 42  1  0  0  0  0
 11 12  1  0  0  0  0
 11 43  1  0  0  0  0
 12 13  1  0  0  0  0
 12 32  2  0  0  0  0
 13 14  1  0  0  0  0
 14 15  1  0  0  0  0
 14 31  2  0  0  0  0
 15 16  1  0  0  0  0
 15 44  1  0  0  0  0
 16 17  1  0  0  0  0
 16 30  2  0  0  0  0
 17 18  2  0  0  0  0
 17 45  1  0  0  0  0
 18 19  1  0  0  0  0
 18 46  1  0  0  0  0
 19 20  1  0  0  0  0
 19 21  2  0  0  0  0
 21 22  1  0  0  0  0
 21 30  1  0  0  0  0
 22 23  1  0  0  0  0
 22 47  1  0  0  0  0
 22 48  1  0  0  0  0
 23 24  1  0  0  0  0
 23 29  1  0  0  0  0
 24 25  1  0  0  0  0
 24 49  1  0  0  0  0
 24 50  1  0  0  0  0
 25 26  1  0  0  0  0
 25 51  1  0  0  0  0
 25 52  1  0  0  0  0
 26 27  1  0  0  0  0
 26 28  1  0  0  0  0
 27 53  1  0  0  0  0
 27 54  1  0  0  0  0
 27 55  1  0  0  0  0
 28 29  1  0  0  0  0
 28 56  1  0  0  0  0
 28 57  1  0  0  0  0
 29 58  1  0  0  0  0
 29 59  1  0  0  0  0
 30 60  1  0  0  0  0
 31 32  1  0  0  0  0
 32 33  1  0  0  0  0
 33 61  1  0  0  0  0
 34 35  2  0  0  0  0
 34 62  1  0  0  0  0
 35 36  1  0  0  0  0
 35 63  1  0  0  0  0
M  END
$$$$
