CHEMBL3895671
 OpenBabel04072215373D

 91 96  0  0  0  0  0  0  0  0999 V2000
   15.5621   -6.1072   -3.5798 C   0  0  0  0  0  0  0  0  0  0  0  0
   15.7132   -5.1829   -2.3849 C   0  0  0  0  0  0  0  0  0  0  0  0
   14.5003   -5.2477   -1.6221 O   0  0  0  0  0  0  0  0  0  0  0  0
   13.5322   -4.3650   -2.0164 C   0  0  0  0  0  0  0  0  0  0  0  0
   13.7311   -3.4023   -2.7448 O   0  0  0  0  0  0  0  0  0  0  0  0
   12.1886   -4.8202   -1.4413 C   0  0  0  0  0  0  0  0  0  0  0  0
   11.0454   -4.0760   -2.0152 N   0  0  0  0  0  0  0  0  0  0  0  0
   10.9952   -2.6649   -1.5750 C   0  0  0  0  0  0  0  0  0  0  0  0
   10.5786   -2.4530   -0.1071 C   0  0  0  0  0  0  0  0  0  0  0  0
    9.3451   -3.1815    0.2098 N   0  0  0  0  0  0  0  0  0  0  0  0
    8.3764   -2.7614    1.1054 C   0  0  0  0  0  0  0  0  0  0  0  0
    7.4829   -3.5194    1.4886 O   0  0  0  0  0  0  0  0  0  0  0  0
    8.3831   -1.3115    1.5772 C   0  0  0  0  0  0  0  0  0  0  0  0
    9.1271   -1.1411    2.8483 N   0  0  0  0  0  0  0  0  0  0  0  0
    8.4137   -1.7740    3.9983 C   0  0  0  0  0  0  0  0  0  0  0  0
    7.0994   -1.0789    4.4421 C   0  0  0  0  0  0  0  0  0  0  0  0
    7.2854    0.3717    4.5806 N   0  0  0  0  0  0  0  0  0  0  0  0
    6.7359    1.0464    5.6774 C   0  0  0  0  0  0  0  0  0  0  0  0
    6.0104    0.4578    6.4786 O   0  0  0  0  0  0  0  0  0  0  0  0
    7.0693    2.4584    5.8239 C   0  0  0  0  0  0  0  0  0  0  0  0
    8.2709    3.1045    5.6038 C   0  0  0  0  0  0  0  0  0  0  0  0
    8.1291    4.5146    5.5549 C   0  0  0  0  0  0  0  0  0  0  0  0
    9.0910    5.3728    5.1237 N   0  0  0  0  0  0  0  0  0  0  0  0
    8.7471    6.6718    5.1085 C   0  0  0  0  0  0  0  0  0  0  0  0
    7.5437    7.1772    5.5540 C   0  0  0  0  0  0  0  0  0  0  0  0
    6.6002    6.2972    6.0841 C   0  0  0  0  0  0  0  0  0  0  0  0
    5.3929    6.7073    6.5908 O   0  0  0  0  0  0  0  0  0  0  0  0
    5.3417    7.8359    7.3733 C   0  0  0  0  0  0  0  0  0  0  0  0
    4.1151    8.4925    7.3602 C   0  0  0  0  0  0  0  0  0  0  0  0
    3.9336    9.6481    8.1158 C   0  0  0  0  0  0  0  0  0  0  0  0
    4.9686   10.1501    8.9135 C   0  0  0  0  0  0  0  0  0  0  0  0
    4.8103   11.2979    9.7270 N   0  0  0  0  0  0  0  0  0  0  0  0
    3.5874   11.6767   10.2332 C   0  0  0  0  0  0  0  0  0  0  0  0
    2.5649   11.0050   10.1215 O   0  0  0  0  0  0  0  0  0  0  0  0
    3.6234   12.9139   10.8586 N   0  0  0  0  0  0  0  0  0  0  0  0
    2.3871   13.4345   11.3243 C   0  0  0  0  0  0  0  0  0  0  0  0
    1.5378   12.6551   12.1190 C   0  0  0  0  0  0  0  0  0  0  0  0
    0.2227   13.0621   12.3673 C   0  0  0  0  0  0  0  0  0  0  0  0
   -0.7131   12.1700   13.1292 C   0  0  0  0  0  0  0  0  0  0  0  0
   -0.2282   14.2709   11.8215 C   0  0  0  0  0  0  0  0  0  0  0  0
    0.6393   15.0840   11.0855 C   0  0  0  0  0  0  0  0  0  0  0  0
    1.9484   14.6718   10.8599 C   0  0  0  0  0  0  0  0  0  0  0  0
    2.7555   15.4235   10.0952 F   0  0  0  0  0  0  0  0  0  0  0  0
    6.1953    9.4865    8.9103 C   0  0  0  0  0  0  0  0  0  0  0  0
    7.2100    9.9589    9.6514 F   0  0  0  0  0  0  0  0  0  0  0  0
    6.3803    8.3170    8.1760 C   0  0  0  0  0  0  0  0  0  0  0  0
    6.8771    4.9261    5.9999 C   0  0  0  0  0  0  0  0  0  0  0  0
    5.8823    3.5679    6.3658 S   0  0  0  0  0  0  0  0  0  0  0  0
    7.9215    0.9921    3.4130 C   0  0  0  0  0  0  0  0  0  0  0  0
    9.2724    0.3048    3.1425 C   0  0  0  0  0  0  0  0  0  0  0  0
    9.3183   -4.5788   -0.2239 C   0  0  0  0  0  0  0  0  0  0  0  0
    9.7599   -4.7276   -1.6892 C   0  0  0  0  0  0  0  0  0  0  0  0
   16.4498   -6.0824   -4.2154 H   0  0  0  0  0  0  0  0  0  0  0  0
   14.6882   -5.8306   -4.1799 H   0  0  0  0  0  0  0  0  0  0  0  0
   15.3947   -7.1357   -3.2413 H   0  0  0  0  0  0  0  0  0  0  0  0
   15.9519   -4.1599   -2.6977 H   0  0  0  0  0  0  0  0  0  0  0  0
   16.5309   -5.5241   -1.7426 H   0  0  0  0  0  0  0  0  0  0  0  0
   12.2264   -4.7633   -0.3490 H   0  0  0  0  0  0  0  0  0  0  0  0
   12.0894   -5.8741   -1.7334 H   0  0  0  0  0  0  0  0  0  0  0  0
   10.2627   -2.1540   -2.2148 H   0  0  0  0  0  0  0  0  0  0  0  0
   11.9408   -2.1468   -1.7576 H   0  0  0  0  0  0  0  0  0  0  0  0
   10.4763   -1.3820    0.0698 H   0  0  0  0  0  0  0  0  0  0  0  0
   11.3562   -2.8114    0.5770 H   0  0  0  0  0  0  0  0  0  0  0  0
    7.3329   -1.0141    1.6567 H   0  0  0  0  0  0  0  0  0  0  0  0
    8.7956   -0.6649    0.7970 H   0  0  0  0  0  0  0  0  0  0  0  0
    9.1050   -1.7557    4.8526 H   0  0  0  0  0  0  0  0  0  0  0  0
    8.2297   -2.8365    3.8093 H   0  0  0  0  0  0  0  0  0  0  0  0
    6.7522   -1.5199    5.3812 H   0  0  0  0  0  0  0  0  0  0  0  0
    6.3123   -1.2376    3.6957 H   0  0  0  0  0  0  0  0  0  0  0  0
    9.1879    2.5980    5.3363 H   0  0  0  0  0  0  0  0  0  0  0  0
    9.5088    7.3406    4.7151 H   0  0  0  0  0  0  0  0  0  0  0  0
    7.3560    8.2443    5.5035 H   0  0  0  0  0  0  0  0  0  0  0  0
    3.2909    8.1038    6.7666 H   0  0  0  0  0  0  0  0  0  0  0  0
    2.9635   10.1353    8.0642 H   0  0  0  0  0  0  0  0  0  0  0  0
    5.6251   11.6063   10.2431 H   0  0  0  0  0  0  0  0  0  0  0  0
    4.2160   13.5858   10.3845 H   0  0  0  0  0  0  0  0  0  0  0  0
    1.8832   11.6920   12.4915 H   0  0  0  0  0  0  0  0  0  0  0  0
   -0.1779   11.3403   13.6044 H   0  0  0  0  0  0  0  0  0  0  0  0
   -1.4628   11.7454   12.4537 H   0  0  0  0  0  0  0  0  0  0  0  0
   -1.2157   12.7343   13.9205 H   0  0  0  0  0  0  0  0  0  0  0  0
   -1.2650   14.5735   11.9519 H   0  0  0  0  0  0  0  0  0  0  0  0
    0.2862   16.0119   10.6479 H   0  0  0  0  0  0  0  0  0  0  0  0
    7.3332    7.8050    8.2507 H   0  0  0  0  0  0  0  0  0  0  0  0
    8.0566    2.0671    3.4920 H   0  0  0  0  0  0  0  0  0  0  0  0
    7.2326    0.8775    2.5688 H   0  0  0  0  0  0  0  0  0  0  0  0
    9.9175    0.4166    4.0262 H   0  0  0  0  0  0  0  0  0  0  0  0
    9.8013    0.8064    2.3243 H   0  0  0  0  0  0  0  0  0  0  0  0
    8.3109   -4.9950   -0.1157 H   0  0  0  0  0  0  0  0  0  0  0  0
    9.9765   -5.1444    0.4457 H   0  0  0  0  0  0  0  0  0  0  0  0
    8.9892   -4.2750   -2.3277 H   0  0  0  0  0  0  0  0  0  0  0  0
    9.7839   -5.7883   -1.9653 H   0  0  0  0  0  0  0  0  0  0  0  0
  1  2  1  0  0  0  0
  1 53  1  0  0  0  0
  1 54  1  0  0  0  0
  1 55  1  0  0  0  0
  2  3  1  0  0  0  0
  2 56  1  0  0  0  0
  2 57  1  0  0  0  0
  3  4  1  0  0  0  0
  4  5  2  0  0  0  0
  4  6  1  0  0  0  0
  6  7  1  0  0  0  0
  6 58  1  0  0  0  0
  6 59  1  0  0  0  0
  7  8  1  0  0  0  0
  7 52  1  0  0  0  0
  8  9  1  0  0  0  0
  8 60  1  0  0  0  0
  8 61  1  0  0  0  0
  9 10  1  0  0  0  0
  9 62  1  0  0  0  0
  9 63  1  0  0  0  0
 10 11  1  0  0  0  0
 10 51  1  0  0  0  0
 11 12  2  0  0  0  0
 11 13  1  0  0  0  0
 13 14  1  0  0  0  0
 13 64  1  0  0  0  0
 13 65  1  0  0  0  0
 14 15  1  0  0  0  0
 14 50  1  0  0  0  0
 15 16  1  0  0  0  0
 15 66  1  0  0  0  0
 15 67  1  0  0  0  0
 16 17  1  0  0  0  0
 16 68  1  0  0  0  0
 16 69  1  0  0  0  0
 17 18  1  0  0  0  0
 17 49  1  0  0  0  0
 18 19  2  0  0  0  0
 18 20  1  0  0  0  0
 20 21  2  0  0  0  0
 20 48  1  0  0  0  0
 21 22  1  0  0  0  0
 21 70  1  0  0  0  0
 22 23  1  0  0  0  0
 22 47  2  0  0  0  0
 23 24  2  0  0  0  0
 24 25  1  0  0  0  0
 24 71  1  0  0  0  0
 25 26  2  0  0  0  0
 25 72  1  0  0  0  0
 26 27  1  0  0  0  0
 26 47  1  0  0  0  0
 27 28  1  0  0  0  0
 28 29  1  0  0  0  0
 28 46  2  0  0  0  0
 29 30  2  0  0  0  0
 29 73  1  0  0  0  0
 30 31  1  0  0  0  0
 30 74  1  0  0  0  0
 31 32  1  0  0  0  0
 31 44  2  0  0  0  0
 32 33  1  0  0  0  0
 32 75  1  0  0  0  0
 33 34  2  0  0  0  0
 33 35  1  0  0  0  0
 35 36  1  0  0  0  0
 35 76  1  0  0  0  0
 36 37  1  0  0  0  0
 36 42  2  0  0  0  0
 37 38  2  0  0  0  0
 37 77  1  0  0  0  0
 38 39  1  0  0  0  0
 38 40  1  0  0  0  0
 39 78  1  0  0  0  0
 39 79  1  0  0  0  0
 39 80  1  0  0  0  0
 40 41  2  0  0  0  0
 40 81  1  0  0  0  0
 41 42  1  0  0  0  0
 41 82  1  0  0  0  0
 42 43  1  0  0  0  0
 44 45  1  0  0  0  0
 44 46  1  0  0  0  0
 46 83  1  0  0  0  0
 47 48  1  0  0  0  0
 49 50  1  0  0  0  0
 49 84  1  0  0  0  0
 49 85  1  0  0  0  0
 50 86  1  0  0  0  0
 50 87  1  0  0  0  0
 51 52  1  0  0  0  0
 51 88  1  0  0  0  0
 51 89  1  0  0  0  0
 52 90  1  0  0  0  0
 52 91  1  0  0  0  0
M  END
$$$$
