CHEMBL3946938
 OpenBabel04072215373D

 53 56  0  0  0  0  0  0  0  0999 V2000
    8.9981    1.4703    0.4046 H   0  0  0  0  0  0  0  0  0  0  0  0
    8.4402    0.6133    0.8119 C   0  0  0  0  0  0  0  0  0  0  0  0
    8.9301   -0.3135    0.4751 H   0  0  0  0  0  0  0  0  0  0  0  0
    8.5018    0.6636    1.9083 H   0  0  0  0  0  0  0  0  0  0  0  0
    7.1441    0.5853    0.3467 O   0  0  0  0  0  0  0  0  0  0  0  0
    6.2422   -0.3408    0.7555 C   0  0  0  0  0  0  0  0  0  0  0  0
    4.9567   -0.3372    0.2686 C   0  0  0  0  0  0  0  0  0  0  0  0
    4.0219   -1.3079    0.6034 C   0  0  0  0  0  0  0  0  0  0  0  0
    2.7835   -1.2920    0.0548 O   0  0  0  0  0  0  0  0  0  0  0  0
    1.8343   -2.2484    0.3724 C   0  0  0  0  0  0  0  0  0  0  0  0
    2.2158   -3.2475    0.0911 H   0  0  0  0  0  0  0  0  0  0  0  0
    1.6327   -2.2545    1.4639 H   0  0  0  0  0  0  0  0  0  0  0  0
    0.8894   -2.0773   -0.1509 H   0  0  0  0  0  0  0  0  0  0  0  0
    4.4001   -2.3183    1.4641 C   0  0  0  0  0  0  0  0  0  0  0  0
    5.7163   -2.3988    1.9196 C   0  0  0  0  0  0  0  0  0  0  0  0
    6.1907   -3.6132    2.5259 N   0  0  0  0  0  0  0  0  0  0  0  0
    5.3049   -4.7646    2.6689 C   0  0  0  0  0  0  0  0  0  0  0  0
    5.6046   -5.5285    3.7464 C   0  0  0  0  0  0  0  0  0  0  0  0
    4.8512   -6.4964    4.0740 C   0  0  0  0  0  0  0  0  0  0  0  0
    3.8224   -6.8093    3.4259 C   0  0  0  0  0  0  0  0  0  0  0  0
    3.4948   -7.7650    3.9375 N   0  0  0  0  0  0  0  0  0  0  0  0
    3.2191   -8.6763    4.4598 C   0  0  0  0  0  0  0  0  0  0  0  0
    2.1681   -9.0832    4.0853 C   0  0  0  0  0  0  0  0  0  0  0  0
    2.1784  -10.7434    5.4574 C   0  0  0  0  0  0  0  0  0  0  0  0
    2.7190  -11.0904    6.8326 C   0  0  0  0  0  0  0  0  0  0  0  0
    1.9183  -12.0483    7.5372 N   0  0  0  0  0  0  0  0  0  0  0  0
    0.8608  -12.3833    6.8074 N   0  0  0  0  0  0  0  0  0  0  0  0
   -0.2457  -13.3115    7.3147 C   0  0  0  0  0  0  0  0  0  0  0  0
    0.9439  -11.6531    5.5812 C   0  0  0  0  0  0  0  0  0  0  0  0
    1.8626   -7.7728    2.6600 N   0  0  0  0  0  0  0  0  0  0  0  0
    3.0680   -6.5077    2.4253 C   0  0  0  0  0  0  0  0  0  0  0  0
    4.0492   -5.1794    1.8622 C   0  0  0  0  0  0  0  0  0  0  0  0
    7.5617   -3.6741    3.0400 C   0  0  0  0  0  0  0  0  0  0  0  0
    8.0768   -2.7065    2.8631 H   0  0  0  0  0  0  0  0  0  0  0  0
    7.5616   -3.8653    4.1282 H   0  0  0  0  0  0  0  0  0  0  0  0
    8.3699   -4.7548    2.3495 C   0  0  0  0  0  0  0  0  0  0  0  0
    7.9003   -5.7192    2.5097 H   0  0  0  0  0  0  0  0  0  0  0  0
    8.3752   -4.5424    1.2632 H   0  0  0  0  0  0  0  0  0  0  0  0
    9.6761   -4.8283    2.8246 O   0  0  0  0  0  0  0  0  0  0  0  0
    6.5979   -1.3365    1.6434 C   0  0  0  0  0  0  0  0  0  0  0  0
    4.6756    0.4436   -0.3713 H   0  0  0  0  0  0  0  0  0  0  0  0
    3.6902   -3.0530    1.7733 H   0  0  0  0  0  0  0  0  0  0  0  0
    6.4458   -5.4230    4.3644 H   0  0  0  0  0  0  0  0  0  0  0  0
    5.0345   -7.1239    4.9463 H   0  0  0  0  0  0  0  0  0  0  0  0
    3.8700   -9.0916    5.2569 H   0  0  0  0  0  0  0  0  0  0  0  0
    3.4495  -10.6704    7.4388 H   0  0  0  0  0  0  0  0  0  0  0  0
   -0.0056  -13.7891    8.3024 H   0  0  0  0  0  0  0  0  0  0  0  0
   -0.4438  -14.1477    6.6116 H   0  0  0  0  0  0  0  0  0  0  0  0
   -1.2126  -12.7764    7.4664 H   0  0  0  0  0  0  0  0  0  0  0  0
    0.1370  -11.7534    4.9293 H   0  0  0  0  0  0  0  0  0  0  0  0
    4.1084   -4.4746    0.9486 H   0  0  0  0  0  0  0  0  0  0  0  0
    9.6190   -5.0466    3.7915 H   0  0  0  0  0  0  0  0  0  0  0  0
    7.5579   -1.2806    2.1052 H   0  0  0  0  0  0  0  0  0  0  0  0
  1  2  1  0  0  0  0
  2  3  1  0  0  0  0
  2  4  1  0  0  0  0
  2  5  1  0  0  0  0
  5  6  1  0  0  0  0
  6  7  1  0  0  0  0
  6 40  2  0  0  0  0
  7  8  2  0  0  0  0
  7 41  1  0  0  0  0
  8  9  1  0  0  0  0
  8 14  1  0  0  0  0
  9 10  1  0  0  0  0
 10 11  1  0  0  0  0
 10 12  1  0  0  0  0
 10 13  1  0  0  0  0
 14 15  2  0  0  0  0
 14 42  1  0  0  0  0
 15 16  1  0  0  0  0
 15 40  1  0  0  0  0
 16 17  1  0  0  0  0
 16 33  1  0  0  0  0
 17 18  1  0  0  0  0
 17 32  2  0  0  0  0
 18 19  2  0  0  0  0
 18 43  1  0  0  0  0
 19 20  1  0  0  0  0
 19 44  1  0  0  0  0
 20 21  1  0  0  0  0
 20 31  2  0  0  0  0
 21 22  2  0  0  0  0
 22 23  1  0  0  0  0
 22 45  1  0  0  0  0
 23 24  1  0  0  0  0
 23 30  2  0  0  0  0
 24 25  1  0  0  0  0
 24 29  2  0  0  0  0
 25 26  2  0  0  0  0
 25 46  1  0  0  0  0
 26 27  1  0  0  0  0
 27 28  1  0  0  0  0
 27 29  1  0  0  0  0
 28 47  1  0  0  0  0
 28 48  1  0  0  0  0
 28 49  1  0  0  0  0
 29 50  1  0  0  0  0
 30 31  1  0  0  0  0
 31 32  1  0  0  0  0
 32 51  1  0  0  0  0
 33 34  1  0  0  0  0
 33 35  1  0  0  0  0
 33 36  1  0  0  0  0
 36 37  1  0  0  0  0
 36 38  1  0  0  0  0
 36 39  1  0  0  0  0
 39 52  1  0  0  0  0
 40 53  1  0  0  0  0
M  ISO  8   1   2   3   2   4   2  11   2  12   2  13   2  34   2  35   2
M  ISO  2  37   2  38   2
M  END
$$$$
