CHEMBL4092026
 OpenBabel04072215383D

 61 65  0  0  0  0  0  0  0  0999 V2000
   10.8862   -0.7339    3.9669 C   0  0  0  0  0  0  0  0  0  0  0  0
   10.1653   -1.2105    5.1056 O   0  0  0  0  0  0  0  0  0  0  0  0
    8.9081   -1.6937    4.8387 C   0  0  0  0  0  0  0  0  0  0  0  0
    8.1427   -1.1988    3.7766 C   0  0  0  0  0  0  0  0  0  0  0  0
    6.9207   -1.7438    3.4236 C   0  0  0  0  0  0  0  0  0  0  0  0
    6.3096   -1.2166    2.3604 N   0  0  0  0  0  0  0  0  0  0  0  0
    5.1386   -1.7502    2.0099 C   0  0  0  0  0  0  0  0  0  0  0  0
    4.5279   -2.7546    2.6321 N   0  0  0  0  0  0  0  0  0  0  0  0
    5.1873   -3.3094    3.6675 C   0  0  0  0  0  0  0  0  0  0  0  0
    4.6173   -4.4444    4.2705 O   0  0  0  0  0  0  0  0  0  0  0  0
    3.6849   -5.1540    3.5138 C   0  0  0  0  0  0  0  0  0  0  0  0
    3.9702   -5.4813    2.1898 C   0  0  0  0  0  0  0  0  0  0  0  0
    3.0000   -6.0651    1.3796 C   0  0  0  0  0  0  0  0  0  0  0  0
    1.7283   -6.3903    1.8648 C   0  0  0  0  0  0  0  0  0  0  0  0
    0.7119   -6.8668    0.9573 N   0  0  0  0  0  0  0  0  0  0  0  0
    0.7372   -6.7190   -0.4241 C   0  0  0  0  0  0  0  0  0  0  0  0
    1.5981   -6.1195   -1.0590 O   0  0  0  0  0  0  0  0  0  0  0  0
   -0.3159   -7.3379   -1.0772 N   0  0  0  0  0  0  0  0  0  0  0  0
   -0.4480   -7.3390   -2.5633 C   0  0  0  0  0  0  0  0  0  0  0  0
   -1.6704   -8.1227   -3.0127 C   0  0  0  0  0  0  0  0  0  0  0  0
   -2.6844   -8.7728   -3.3854 N   0  0  0  0  0  0  0  0  0  0  0  0
    0.7935   -7.9389   -3.2737 C   0  0  0  0  0  0  0  0  0  0  0  0
    1.0999   -7.0286   -4.4679 C   0  0  0  0  0  0  0  0  0  0  0  0
   -0.0623   -6.0538   -4.5775 C   0  0  0  0  0  0  0  0  0  0  0  0
   -0.5662   -5.9131   -3.1473 C   0  0  0  0  0  0  0  0  0  0  0  0
    1.4838   -6.2399    3.2722 C   0  0  0  0  0  0  0  0  0  0  0  0
    0.3081   -6.6913    3.9249 C   0  0  0  0  0  0  0  0  0  0  0  0
    0.1074   -6.5334    5.3020 C   0  0  0  0  0  0  0  0  0  0  0  0
    1.0652   -5.8967    6.0761 C   0  0  0  0  0  0  0  0  0  0  0  0
    2.2309   -5.4261    5.4758 C   0  0  0  0  0  0  0  0  0  0  0  0
    2.4756   -5.5991    4.0952 C   0  0  0  0  0  0  0  0  0  0  0  0
    6.4100   -2.8195    4.1593 C   0  0  0  0  0  0  0  0  0  0  0  0
    7.1512   -3.2965    5.2731 C   0  0  0  0  0  0  0  0  0  0  0  0
    8.3771   -2.7126    5.6366 C   0  0  0  0  0  0  0  0  0  0  0  0
    8.9587   -3.2705    6.7440 O   0  0  0  0  0  0  0  0  0  0  0  0
    9.7292   -2.3964    7.5661 C   0  0  0  0  0  0  0  0  0  0  0  0
   11.9488   -0.7004    4.2232 H   0  0  0  0  0  0  0  0  0  0  0  0
   10.5725    0.2839    3.7107 H   0  0  0  0  0  0  0  0  0  0  0  0
   10.7751   -1.4027    3.1047 H   0  0  0  0  0  0  0  0  0  0  0  0
    8.4968   -0.3640    3.1788 H   0  0  0  0  0  0  0  0  0  0  0  0
    4.6542   -1.3417    1.1304 H   0  0  0  0  0  0  0  0  0  0  0  0
    4.9293   -5.2261    1.7487 H   0  0  0  0  0  0  0  0  0  0  0  0
    3.2811   -6.2402    0.3470 H   0  0  0  0  0  0  0  0  0  0  0  0
   -0.1719   -7.1207    1.3643 H   0  0  0  0  0  0  0  0  0  0  0  0
   -1.0559   -7.7541   -0.5312 H   0  0  0  0  0  0  0  0  0  0  0  0
    0.6201   -8.9683   -3.6098 H   0  0  0  0  0  0  0  0  0  0  0  0
    1.6778   -7.9862   -2.6290 H   0  0  0  0  0  0  0  0  0  0  0  0
    1.2340   -7.6011   -5.3910 H   0  0  0  0  0  0  0  0  0  0  0  0
    2.0316   -6.4806   -4.2835 H   0  0  0  0  0  0  0  0  0  0  0  0
   -0.8463   -6.4680   -5.2214 H   0  0  0  0  0  0  0  0  0  0  0  0
    0.2460   -5.0935   -5.0018 H   0  0  0  0  0  0  0  0  0  0  0  0
   -1.5871   -5.5184   -3.1141 H   0  0  0  0  0  0  0  0  0  0  0  0
    0.0659   -5.1906   -2.6221 H   0  0  0  0  0  0  0  0  0  0  0  0
   -0.4719   -7.2104    3.3774 H   0  0  0  0  0  0  0  0  0  0  0  0
   -0.7968   -6.9165    5.7688 H   0  0  0  0  0  0  0  0  0  0  0  0
    0.9134   -5.7716    7.1452 H   0  0  0  0  0  0  0  0  0  0  0  0
    2.9698   -4.9352    6.1078 H   0  0  0  0  0  0  0  0  0  0  0  0
    6.7674   -4.1249    5.8658 H   0  0  0  0  0  0  0  0  0  0  0  0
    9.6770   -2.7763    8.5923 H   0  0  0  0  0  0  0  0  0  0  0  0
    9.3428   -1.3709    7.5827 H   0  0  0  0  0  0  0  0  0  0  0  0
   10.7807   -2.4174    7.2630 H   0  0  0  0  0  0  0  0  0  0  0  0
  1  2  1  0  0  0  0
  1 37  1  0  0  0  0
  1 38  1  0  0  0  0
  1 39  1  0  0  0  0
  2  3  1  0  0  0  0
  3  4  1  0  0  0  0
  3 34  2  0  0  0  0
  4  5  2  0  0  0  0
  4 40  1  0  0  0  0
  5  6  1  0  0  0  0
  5 32  1  0  0  0  0
  6  7  2  0  0  0  0
  7  8  1  0  0  0  0
  7 41  1  0  0  0  0
  8  9  2  0  0  0  0
  9 10  1  0  0  0  0
  9 32  1  0  0  0  0
 10 11  1  0  0  0  0
 11 12  1  0  0  0  0
 11 31  2  0  0  0  0
 12 13  2  0  0  0  0
 12 42  1  0  0  0  0
 13 14  1  0  0  0  0
 13 43  1  0  0  0  0
 14 15  1  0  0  0  0
 14 26  2  0  0  0  0
 15 16  1  0  0  0  0
 15 44  1  0  0  0  0
 16 17  2  0  0  0  0
 16 18  1  0  0  0  0
 18 19  1  0  0  0  0
 18 45  1  0  0  0  0
 19 20  1  0  0  0  0
 19 22  1  0  0  0  0
 19 25  1  0  0  0  0
 20 21  3  0  0  0  0
 22 23  1  0  0  0  0
 22 46  1  0  0  0  0
 22 47  1  0  0  0  0
 23 24  1  0  0  0  0
 23 48  1  0  0  0  0
 23 49  1  0  0  0  0
 24 25  1  0  0  0  0
 24 50  1  0  0  0  0
 24 51  1  0  0  0  0
 25 52  1  0  0  0  0
 25 53  1  0  0  0  0
 26 27  1  0  0  0  0
 26 31  1  0  0  0  0
 27 28  2  0  0  0  0
 27 54  1  0  0  0  0
 28 29  1  0  0  0  0
 28 55  1  0  0  0  0
 29 30  2  0  0  0  0
 29 56  1  0  0  0  0
 30 31  1  0  0  0  0
 30 57  1  0  0  0  0
 32 33  2  0  0  0  0
 33 34  1  0  0  0  0
 33 58  1  0  0  0  0
 34 35  1  0  0  0  0
 35 36  1  0  0  0  0
 36 59  1  0  0  0  0
 36 60  1  0  0  0  0
 36 61  1  0  0  0  0
M  END
$$$$
