CHEMBL1085240
 OpenBabel04072215363D

 70 75  0  0  0  0  0  0  0  0999 V2000
   -3.7714   -0.8593    8.2413 C   0  0  0  0  0  0  0  0  0  0  0  0
   -4.1191   -1.3296    6.9042 N   0  0  0  0  0  0  0  0  0  0  0  0
   -5.1716   -0.4761    6.3067 C   0  0  0  0  0  0  0  0  0  0  0  0
   -5.5495   -0.9377    4.8808 C   0  0  0  0  0  0  0  0  0  0  0  0
   -4.3451   -0.9403    4.0242 N   0  0  0  0  0  0  0  0  0  0  0  0
   -4.4367   -0.6321    2.6772 C   0  0  0  0  0  0  0  0  0  0  0  0
   -3.6616   -1.2594    1.6928 C   0  0  0  0  0  0  0  0  0  0  0  0
   -3.7273   -0.8808    0.3460 C   0  0  0  0  0  0  0  0  0  0  0  0
   -4.5943    0.1306   -0.0575 C   0  0  0  0  0  0  0  0  0  0  0  0
   -5.3962    0.7724    0.8860 C   0  0  0  0  0  0  0  0  0  0  0  0
   -6.3634    1.7762    0.4725 C   0  0  0  0  0  0  0  0  0  0  0  0
   -7.1506    1.8365   -0.6956 C   0  0  0  0  0  0  0  0  0  0  0  0
   -7.9719    2.8853   -0.7287 N   0  0  0  0  0  0  0  0  0  0  0  0
   -7.7506    3.5177    0.4615 N   0  0  0  0  0  0  0  0  0  0  0  0
   -8.4077    4.6865    0.9349 C   0  0  0  0  0  0  0  0  0  0  0  0
   -9.4341    5.2034    0.1436 N   0  0  0  0  0  0  0  0  0  0  0  0
   -7.9908    5.2134    2.1062 C   0  0  0  0  0  0  0  0  0  0  0  0
   -8.5515    6.4090    2.7298 C   0  0  0  0  0  0  0  0  0  0  0  0
   -9.7167    6.3056    3.4862 C   0  0  0  0  0  0  0  0  0  0  0  0
  -10.2183    7.4225    4.1522 C   0  0  0  0  0  0  0  0  0  0  0  0
   -9.5746    8.6593    4.0663 C   0  0  0  0  0  0  0  0  0  0  0  0
  -10.0233    9.8126    4.7463 N   0  0  0  0  0  0  0  0  0  0  0  0
  -11.1809    9.9099    5.4993 C   0  0  0  0  0  0  0  0  0  0  0  0
  -12.0516    9.0544    5.6155 O   0  0  0  0  0  0  0  0  0  0  0  0
  -11.3955   11.1922    6.2181 C   0  0  0  0  0  0  0  0  0  0  0  0
  -12.7185   11.5917    6.4519 C   0  0  0  0  0  0  0  0  0  0  0  0
  -12.9902   12.7411    7.1968 C   0  0  0  0  0  0  0  0  0  0  0  0
  -11.9410   13.5013    7.7220 C   0  0  0  0  0  0  0  0  0  0  0  0
  -12.2167   14.7272    8.5610 C   0  0  0  0  0  0  0  0  0  0  0  0
  -13.5395   15.0265    8.6739 F   0  0  0  0  0  0  0  0  0  0  0  0
  -11.7523   14.5964    9.8348 F   0  0  0  0  0  0  0  0  0  0  0  0
  -11.6201   15.8427    8.0591 F   0  0  0  0  0  0  0  0  0  0  0  0
  -10.6145   13.0971    7.4850 C   0  0  0  0  0  0  0  0  0  0  0  0
  -10.3395   11.9473    6.7383 C   0  0  0  0  0  0  0  0  0  0  0  0
   -8.4125    8.7630    3.2917 C   0  0  0  0  0  0  0  0  0  0  0  0
   -7.9029    7.6433    2.6249 C   0  0  0  0  0  0  0  0  0  0  0  0
   -6.9126    4.4617    2.8154 C   0  0  0  0  0  0  0  0  0  0  0  0
   -6.3207    3.3838    2.4078 N   0  0  0  0  0  0  0  0  0  0  0  0
   -6.7398    2.8905    1.2014 C   0  0  0  0  0  0  0  0  0  0  0  0
   -5.2891    0.3929    2.2344 C   0  0  0  0  0  0  0  0  0  0  0  0
   -3.2539   -1.7628    4.5694 C   0  0  0  0  0  0  0  0  0  0  0  0
   -2.9335   -1.3126    6.0171 C   0  0  0  0  0  0  0  0  0  0  0  0
   -4.6461   -0.9017    8.8995 H   0  0  0  0  0  0  0  0  0  0  0  0
   -3.3907    0.1682    8.2385 H   0  0  0  0  0  0  0  0  0  0  0  0
   -3.0103   -1.5089    8.6869 H   0  0  0  0  0  0  0  0  0  0  0  0
   -4.8357    0.5697    6.2625 H   0  0  0  0  0  0  0  0  0  0  0  0
   -6.0715   -0.5057    6.9319 H   0  0  0  0  0  0  0  0  0  0  0  0
   -6.3486   -0.2859    4.5173 H   0  0  0  0  0  0  0  0  0  0  0  0
   -5.9698   -1.9515    4.9173 H   0  0  0  0  0  0  0  0  0  0  0  0
   -2.9925   -2.0747    1.9498 H   0  0  0  0  0  0  0  0  0  0  0  0
   -3.1018   -1.3834   -0.3866 H   0  0  0  0  0  0  0  0  0  0  0  0
   -4.6273    0.4129   -1.1061 H   0  0  0  0  0  0  0  0  0  0  0  0
   -7.1651    1.1440   -1.5269 H   0  0  0  0  0  0  0  0  0  0  0  0
   -9.3715    4.8747   -0.8231 H   0  0  0  0  0  0  0  0  0  0  0  0
   -9.5919    6.2015    0.2430 H   0  0  0  0  0  0  0  0  0  0  0  0
  -10.2397    5.3557    3.5805 H   0  0  0  0  0  0  0  0  0  0  0  0
  -11.1148    7.2781    4.7453 H   0  0  0  0  0  0  0  0  0  0  0  0
   -9.4677   10.6486    4.6235 H   0  0  0  0  0  0  0  0  0  0  0  0
  -13.5443   10.9927    6.0688 H   0  0  0  0  0  0  0  0  0  0  0  0
  -14.0269   13.0198    7.3763 H   0  0  0  0  0  0  0  0  0  0  0  0
   -9.7888   13.6703    7.9074 H   0  0  0  0  0  0  0  0  0  0  0  0
   -9.3064   11.6336    6.6179 H   0  0  0  0  0  0  0  0  0  0  0  0
   -7.8814    9.7070    3.2013 H   0  0  0  0  0  0  0  0  0  0  0  0
   -6.9927    7.7393    2.0361 H   0  0  0  0  0  0  0  0  0  0  0  0
   -6.6143    4.8788    3.7934 H   0  0  0  0  0  0  0  0  0  0  0  0
   -5.8737    0.9439    2.9644 H   0  0  0  0  0  0  0  0  0  0  0  0
   -2.3317   -1.6520    3.9888 H   0  0  0  0  0  0  0  0  0  0  0  0
   -3.5417   -2.8216    4.5558 H   0  0  0  0  0  0  0  0  0  0  0  0
   -2.5089   -0.2994    5.9781 H   0  0  0  0  0  0  0  0  0  0  0  0
   -2.1604   -1.9762    6.4212 H   0  0  0  0  0  0  0  0  0  0  0  0
  1  2  1  0  0  0  0
  1 43  1  0  0  0  0
  1 44  1  0  0  0  0
  1 45  1  0  0  0  0
  2  3  1  0  0  0  0
  2 42  1  0  0  0  0
  3  4  1  0  0  0  0
  3 46  1  0  0  0  0
  3 47  1  0  0  0  0
  4  5  1  0  0  0  0
  4 48  1  0  0  0  0
  4 49  1  0  0  0  0
  5  6  1  0  0  0  0
  5 41  1  0  0  0  0
  6  7  1  0  0  0  0
  6 40  2  0  0  0  0
  7  8  2  0  0  0  0
  7 50  1  0  0  0  0
  8  9  1  0  0  0  0
  8 51  1  0  0  0  0
  9 10  2  0  0  0  0
  9 52  1  0  0  0  0
 10 11  1  0  0  0  0
 10 40  1  0  0  0  0
 11 12  1  0  0  0  0
 11 39  2  0  0  0  0
 12 13  2  0  0  0  0
 12 53  1  0  0  0  0
 13 14  1  0  0  0  0
 14 15  1  0  0  0  0
 14 39  1  0  0  0  0
 15 16  1  0  0  0  0
 15 17  2  0  0  0  0
 16 54  1  0  0  0  0
 16 55  1  0  0  0  0
 17 18  1  0  0  0  0
 17 37  1  0  0  0  0
 18 19  1  0  0  0  0
 18 36  2  0  0  0  0
 19 20  2  0  0  0  0
 19 56  1  0  0  0  0
 20 21  1  0  0  0  0
 20 57  1  0  0  0  0
 21 22  1  0  0  0  0
 21 35  2  0  0  0  0
 22 23  1  0  0  0  0
 22 58  1  0  0  0  0
 23 24  2  0  0  0  0
 23 25  1  0  0  0  0
 25 26  1  0  0  0  0
 25 34  2  0  0  0  0
 26 27  2  0  0  0  0
 26 59  1  0  0  0  0
 27 28  1  0  0  0  0
 27 60  1  0  0  0  0
 28 29  1  0  0  0  0
 28 33  2  0  0  0  0
 29 30  1  0  0  0  0
 29 31  1  0  0  0  0
 29 32  1  0  0  0  0
 33 34  1  0  0  0  0
 33 61  1  0  0  0  0
 34 62  1  0  0  0  0
 35 36  1  0  0  0  0
 35 63  1  0  0  0  0
 36 64  1  0  0  0  0
 37 38  2  0  0  0  0
 37 65  1  0  0  0  0
 38 39  1  0  0  0  0
 40 66  1  0  0  0  0
 41 42  1  0  0  0  0
 41 67  1  0  0  0  0
 41 68  1  0  0  0  0
 42 69  1  0  0  0  0
 42 70  1  0  0  0  0
M  END
$$$$
