CHEMBL2016927
 OpenBabel04072215363D

 48 52  0  0  0  0  0  0  0  0999 V2000
    1.1562   -0.3642    0.5766 O   0  0  0  0  0  0  0  0  0  0  0  0
    2.3020   -0.0866    0.2144 C   0  0  0  0  0  0  0  0  0  0  0  0
    2.9615   -0.9133   -0.8793 C   0  0  0  0  0  0  0  0  0  0  0  0
    2.7540   -0.3848   -2.2778 C   0  0  0  0  0  0  0  0  0  0  0  0
    3.8449   -0.0810   -3.0986 C   0  0  0  0  0  0  0  0  0  0  0  0
    3.6065    0.3649   -4.3906 C   0  0  0  0  0  0  0  0  0  0  0  0
    2.3740    0.5169   -4.9164 N   0  0  0  0  0  0  0  0  0  0  0  0
    1.3314    0.2053   -4.1153 C   0  0  0  0  0  0  0  0  0  0  0  0
    1.4679   -0.2394   -2.8089 C   0  0  0  0  0  0  0  0  0  0  0  0
    3.0361    0.9589    0.8024 N   0  0  0  0  0  0  0  0  0  0  0  0
    2.2967    1.7291    1.8308 C   0  0  0  0  0  0  0  0  0  0  0  0
    3.1288    2.6268    2.7673 C   0  0  0  0  0  0  0  0  0  0  0  0
    4.3540    3.0885    2.0966 C   0  0  0  0  0  0  0  0  0  0  0  0
    5.2414    3.9928    2.6140 N   0  0  0  0  0  0  0  0  0  0  0  0
    6.1734    4.1574    1.6835 C   0  0  0  0  0  0  0  0  0  0  0  0
    7.2667    5.0732    1.6602 C   0  0  0  0  0  0  0  0  0  0  0  0
    7.6608    5.6132    2.8338 C   0  0  0  0  0  0  0  0  0  0  0  0
    8.4406    6.8620    2.8448 C   0  0  0  0  0  0  0  0  0  0  0  0
    8.6666    7.5275    4.0485 C   0  0  0  0  0  0  0  0  0  0  0  0
    8.5676    8.9072    4.0303 C   0  0  0  0  0  0  0  0  0  0  0  0
    8.0251    9.7252    5.4441 Cl  0  0  0  0  0  0  0  0  0  0  0  0
    8.7349    9.6083    2.8347 C   0  0  0  0  0  0  0  0  0  0  0  0
    8.9031    8.9004    1.6411 C   0  0  0  0  0  0  0  0  0  0  0  0
    8.6348    7.5358    1.6369 C   0  0  0  0  0  0  0  0  0  0  0  0
    8.4677    6.8267    0.4390 N   0  0  0  0  0  0  0  0  0  0  0  0
    7.8477    5.6021    0.3851 C   0  0  0  0  0  0  0  0  0  0  0  0
    7.7209    4.9885   -0.6867 O   0  0  0  0  0  0  0  0  0  0  0  0
    5.9077    3.3452    0.5941 N   0  0  0  0  0  0  0  0  0  0  0  0
    4.7668    2.6405    0.8738 C   0  0  0  0  0  0  0  0  0  0  0  0
    4.0994    1.6355    0.0246 C   0  0  0  0  0  0  0  0  0  0  0  0
    2.5325   -1.9232   -0.8304 H   0  0  0  0  0  0  0  0  0  0  0  0
    4.0258   -1.0525   -0.6523 H   0  0  0  0  0  0  0  0  0  0  0  0
    4.8662   -0.1955   -2.7527 H   0  0  0  0  0  0  0  0  0  0  0  0
    4.4266    0.6113   -5.0580 H   0  0  0  0  0  0  0  0  0  0  0  0
    0.3510    0.3189   -4.5685 H   0  0  0  0  0  0  0  0  0  0  0  0
    0.5833   -0.4781   -2.2253 H   0  0  0  0  0  0  0  0  0  0  0  0
    1.7294    1.0290    2.4577 H   0  0  0  0  0  0  0  0  0  0  0  0
    1.5569    2.3342    1.2941 H   0  0  0  0  0  0  0  0  0  0  0  0
    3.4001    2.0785    3.6736 H   0  0  0  0  0  0  0  0  0  0  0  0
    2.5159    3.4835    3.0780 H   0  0  0  0  0  0  0  0  0  0  0  0
    7.1974    5.3208    3.7592 H   0  0  0  0  0  0  0  0  0  0  0  0
    8.7929    6.9907    4.9714 H   0  0  0  0  0  0  0  0  0  0  0  0
    8.7140   10.6959    2.8301 H   0  0  0  0  0  0  0  0  0  0  0  0
    9.0811    9.4414    0.7171 H   0  0  0  0  0  0  0  0  0  0  0  0
    8.7380    7.2469   -0.4403 H   0  0  0  0  0  0  0  0  0  0  0  0
    6.4579    3.3288   -0.2549 H   0  0  0  0  0  0  0  0  0  0  0  0
    4.8214    0.9014   -0.3197 H   0  0  0  0  0  0  0  0  0  0  0  0
    3.6256    2.1164   -0.8373 H   0  0  0  0  0  0  0  0  0  0  0  0
  1  2  2  0  0  0  0
  2  3  1  0  0  0  0
  2 10  1  0  0  0  0
  3  4  1  0  0  0  0
  3 31  1  0  0  0  0
  3 32  1  0  0  0  0
  4  5  1  0  0  0  0
  4  9  2  0  0  0  0
  5  6  2  0  0  0  0
  5 33  1  0  0  0  0
  6  7  1  0  0  0  0
  6 34  1  0  0  0  0
  7  8  2  0  0  0  0
  8  9  1  0  0  0  0
  8 35  1  0  0  0  0
  9 36  1  0  0  0  0
 10 11  1  0  0  0  0
 10 30  1  0  0  0  0
 11 12  1  0  0  0  0
 11 37  1  0  0  0  0
 11 38  1  0  0  0  0
 12 13  1  0  0  0  0
 12 39  1  0  0  0  0
 12 40  1  0  0  0  0
 13 14  1  0  0  0  0
 13 29  2  0  0  0  0
 14 15  2  0  0  0  0
 15 16  1  0  0  0  0
 15 28  1  0  0  0  0
 16 17  2  0  0  0  0
 16 26  1  0  0  0  0
 17 18  1  0  0  0  0
 17 41  1  0  0  0  0
 18 19  1  0  0  0  0
 18 24  2  0  0  0  0
 19 20  2  0  0  0  0
 19 42  1  0  0  0  0
 20 21  1  0  0  0  0
 20 22  1  0  0  0  0
 22 23  2  0  0  0  0
 22 43  1  0  0  0  0
 23 24  1  0  0  0  0
 23 44  1  0  0  0  0
 24 25  1  0  0  0  0
 25 26  1  0  0  0  0
 25 45  1  0  0  0  0
 26 27  2  0  0  0  0
 28 29  1  0  0  0  0
 28 46  1  0  0  0  0
 29 30  1  0  0  0  0
 30 47  1  0  0  0  0
 30 48  1  0  0  0  0
M  END
$$$$
