CHEMBL4218175
 OpenBabel04072215383D

 61 65  0  0  0  0  0  0  0  0999 V2000
    3.3168    1.0741   -0.5295 C   0  0  0  0  0  0  0  0  0  0  0  0
    2.5638   -0.0302    0.0136 N   0  0  0  0  0  0  0  0  0  0  0  0
    3.3340   -1.0203    0.6101 C   0  0  0  0  0  0  0  0  0  0  0  0
    2.8534   -2.2605    0.4070 N   0  0  0  0  0  0  0  0  0  0  0  0
    3.5171   -3.3164    0.9227 C   0  0  0  0  0  0  0  0  0  0  0  0
    4.6957   -3.1082    1.6240 C   0  0  0  0  0  0  0  0  0  0  0  0
    5.6921   -3.8852    2.2811 C   0  0  0  0  0  0  0  0  0  0  0  0
    5.7566   -5.3422    2.3794 C   0  0  0  0  0  0  0  0  0  0  0  0
    5.2574   -6.1465    1.3533 C   0  0  0  0  0  0  0  0  0  0  0  0
    5.2412   -7.5360    1.4771 C   0  0  0  0  0  0  0  0  0  0  0  0
    5.7500   -8.1815    2.6101 C   0  0  0  0  0  0  0  0  0  0  0  0
    5.7556   -9.5609    2.6572 N   0  0  0  0  0  0  0  0  0  0  0  0
    6.7123  -10.3094    3.4812 C   0  0  0  0  0  0  0  0  0  0  0  0
    7.0275  -11.6554    2.7817 C   0  0  0  0  0  0  0  0  0  0  0  0
    5.8104  -12.4586    2.5133 N   0  0  0  0  0  0  0  0  0  0  0  0
    6.1530  -13.6994    1.8247 C   0  0  0  0  0  0  0  0  0  0  0  0
    4.8691  -11.6535    1.6999 C   0  0  0  0  0  0  0  0  0  0  0  0
    4.5155  -10.3064    2.3713 C   0  0  0  0  0  0  0  0  0  0  0  0
    6.2980   -7.3702    3.6116 C   0  0  0  0  0  0  0  0  0  0  0  0
    6.2996   -5.9677    3.5055 C   0  0  0  0  0  0  0  0  0  0  0  0
    6.6182   -3.0942    2.8476 N   0  0  0  0  0  0  0  0  0  0  0  0
    6.2126   -1.8376    2.5489 N   0  0  0  0  0  0  0  0  0  0  0  0
    6.9858   -0.7113    3.0340 C   0  0  0  0  0  0  0  0  0  0  0  0
    6.5593   -0.2304    4.4247 C   0  0  0  0  0  0  0  0  0  0  0  0
    7.4394    0.9166    4.9264 C   0  0  0  0  0  0  0  0  0  0  0  0
    7.3319    0.8843    6.4487 C   0  0  0  0  0  0  0  0  0  0  0  0
    6.7438   -0.4743    6.8156 C   0  0  0  0  0  0  0  0  0  0  0  0
    6.7123   -1.2801    5.5251 C   0  0  0  0  0  0  0  0  0  0  0  0
    5.0795   -1.7922    1.7852 C   0  0  0  0  0  0  0  0  0  0  0  0
    4.4469   -0.7085    1.2994 N   0  0  0  0  0  0  0  0  0  0  0  0
    2.6529    1.6867   -1.1482 H   0  0  0  0  0  0  0  0  0  0  0  0
    4.1423    0.7366   -1.1660 H   0  0  0  0  0  0  0  0  0  0  0  0
    3.7072    1.7142    0.2681 H   0  0  0  0  0  0  0  0  0  0  0  0
    1.9759   -0.5223   -0.6522 H   0  0  0  0  0  0  0  0  0  0  0  0
    3.0759   -4.2899    0.7499 H   0  0  0  0  0  0  0  0  0  0  0  0
    4.8954   -5.7167    0.4231 H   0  0  0  0  0  0  0  0  0  0  0  0
    4.8627   -8.1200    0.6427 H   0  0  0  0  0  0  0  0  0  0  0  0
    6.2964  -10.4868    4.4809 H   0  0  0  0  0  0  0  0  0  0  0  0
    7.6557   -9.7631    3.5951 H   0  0  0  0  0  0  0  0  0  0  0  0
    7.7157  -12.2243    3.4168 H   0  0  0  0  0  0  0  0  0  0  0  0
    7.5501  -11.4421    1.8381 H   0  0  0  0  0  0  0  0  0  0  0  0
    6.8274  -14.3034    2.4414 H   0  0  0  0  0  0  0  0  0  0  0  0
    6.6355  -13.5218    0.8569 H   0  0  0  0  0  0  0  0  0  0  0  0
    5.2541  -14.3026    1.6568 H   0  0  0  0  0  0  0  0  0  0  0  0
    3.9420  -12.2169    1.5417 H   0  0  0  0  0  0  0  0  0  0  0  0
    5.3022  -11.4481    0.7108 H   0  0  0  0  0  0  0  0  0  0  0  0
    3.9738  -10.4880    3.3092 H   0  0  0  0  0  0  0  0  0  0  0  0
    3.8308   -9.7608    1.7129 H   0  0  0  0  0  0  0  0  0  0  0  0
    6.7174   -7.8110    4.5111 H   0  0  0  0  0  0  0  0  0  0  0  0
    6.7227   -5.3743    4.3107 H   0  0  0  0  0  0  0  0  0  0  0  0
    6.8902    0.0990    2.3021 H   0  0  0  0  0  0  0  0  0  0  0  0
    8.0392   -1.0196    3.0312 H   0  0  0  0  0  0  0  0  0  0  0  0
    5.5132    0.1043    4.3958 H   0  0  0  0  0  0  0  0  0  0  0  0
    7.1219    1.8825    4.5199 H   0  0  0  0  0  0  0  0  0  0  0  0
    8.4856    0.7655    4.6338 H   0  0  0  0  0  0  0  0  0  0  0  0
    6.6847    1.6888    6.8150 H   0  0  0  0  0  0  0  0  0  0  0  0
    8.3167    1.0272    6.9070 H   0  0  0  0  0  0  0  0  0  0  0  0
    5.7281   -0.3446    7.2072 H   0  0  0  0  0  0  0  0  0  0  0  0
    7.3310   -0.9788    7.5897 H   0  0  0  0  0  0  0  0  0  0  0  0
    5.8873   -2.0001    5.5270 H   0  0  0  0  0  0  0  0  0  0  0  0
    7.6496   -1.8373    5.4107 H   0  0  0  0  0  0  0  0  0  0  0  0
  1  2  1  0  0  0  0
  1 31  1  0  0  0  0
  1 32  1  0  0  0  0
  1 33  1  0  0  0  0
  2  3  1  0  0  0  0
  2 34  1  0  0  0  0
  3  4  1  0  0  0  0
  3 30  2  0  0  0  0
  4  5  2  0  0  0  0
  5  6  1  0  0  0  0
  5 35  1  0  0  0  0
  6  7  1  0  0  0  0
  6 29  2  0  0  0  0
  7  8  1  0  0  0  0
  7 21  2  0  0  0  0
  8  9  1  0  0  0  0
  8 20  2  0  0  0  0
  9 10  2  0  0  0  0
  9 36  1  0  0  0  0
 10 11  1  0  0  0  0
 10 37  1  0  0  0  0
 11 12  1  0  0  0  0
 11 19  2  0  0  0  0
 12 13  1  0  0  0  0
 12 18  1  0  0  0  0
 13 14  1  0  0  0  0
 13 38  1  0  0  0  0
 13 39  1  0  0  0  0
 14 15  1  0  0  0  0
 14 40  1  0  0  0  0
 14 41  1  0  0  0  0
 15 16  1  0  0  0  0
 15 17  1  0  0  0  0
 16 42  1  0  0  0  0
 16 43  1  0  0  0  0
 16 44  1  0  0  0  0
 17 18  1  0  0  0  0
 17 45  1  0  0  0  0
 17 46  1  0  0  0  0
 18 47  1  0  0  0  0
 18 48  1  0  0  0  0
 19 20  1  0  0  0  0
 19 49  1  0  0  0  0
 20 50  1  0  0  0  0
 21 22  1  0  0  0  0
 22 23  1  0  0  0  0
 22 29  1  0  0  0  0
 23 24  1  0  0  0  0
 23 51  1  0  0  0  0
 23 52  1  0  0  0  0
 24 25  1  0  0  0  0
 24 28  1  0  0  0  0
 24 53  1  0  0  0  0
 25 26  1  0  0  0  0
 25 54  1  0  0  0  0
 25 55  1  0  0  0  0
 26 27  1  0  0  0  0
 26 56  1  0  0  0  0
 26 57  1  0  0  0  0
 27 28  1  0  0  0  0
 27 58  1  0  0  0  0
 27 59  1  0  0  0  0
 28 60  1  0  0  0  0
 28 61  1  0  0  0  0
 29 30  1  0  0  0  0
M  END
$$$$
