CHEMBL398296
 OpenBabel04072215373D

 33 36  0  0  0  0  0  0  0  0999 V2000
    0.8956   -0.1919   -0.1044 C   0  0  0  0  0  0  0  0  0  0  0  0
    2.3379   -0.0897   -0.0981 N   0  0  0  0  0  0  0  0  0  0  0  0
    3.0273    1.0927   -0.1096 C   0  0  0  0  0  0  0  0  0  0  0  0
    4.3669    0.8113   -0.0037 C   0  0  0  0  0  0  0  0  0  0  0  0
    5.4330    1.7632    0.0571 C   0  0  0  0  0  0  0  0  0  0  0  0
    5.4502    3.0040    0.5705 C   0  0  0  0  0  0  0  0  0  0  0  0
    4.3711    3.8060    1.2002 C   0  0  0  0  0  0  0  0  0  0  0  0
    3.2665    3.4769    1.5790 O   0  0  0  0  0  0  0  0  0  0  0  0
    4.9330    5.0680    1.2918 N   0  0  0  0  0  0  0  0  0  0  0  0
    6.2583    5.1445    0.9444 N   0  0  0  0  0  0  0  0  0  0  0  0
    6.6102    3.9420    0.5534 C   0  0  0  0  0  0  0  0  0  0  0  0
    7.9650    3.6187    0.2241 C   0  0  0  0  0  0  0  0  0  0  0  0
    8.6964    2.4507    0.3420 C   0  0  0  0  0  0  0  0  0  0  0  0
   10.0177    2.5264   -0.0653 N   0  0  0  0  0  0  0  0  0  0  0  0
   10.3296    3.7448   -0.4706 N   0  0  0  0  0  0  0  0  0  0  0  0
    9.0485    4.8147   -0.3630 S   0  0  0  0  0  0  0  0  0  0  0  0
    4.5053   -0.6157   -0.0388 C   0  0  0  0  0  0  0  0  0  0  0  0
    5.6026   -1.5066   -0.0274 C   0  0  0  0  0  0  0  0  0  0  0  0
    5.3674   -2.8857   -0.0572 C   0  0  0  0  0  0  0  0  0  0  0  0
    6.7056   -3.9706   -0.0547 Cl  0  0  0  0  0  0  0  0  0  0  0  0
    4.0738   -3.3958   -0.0883 C   0  0  0  0  0  0  0  0  0  0  0  0
    2.9725   -2.5376   -0.0998 C   0  0  0  0  0  0  0  0  0  0  0  0
    3.2129   -1.1541   -0.0820 C   0  0  0  0  0  0  0  0  0  0  0  0
    0.4573    0.8098   -0.1011 H   0  0  0  0  0  0  0  0  0  0  0  0
    0.5849   -0.7317    0.7939 H   0  0  0  0  0  0  0  0  0  0  0  0
    0.5902   -0.7274   -1.0064 H   0  0  0  0  0  0  0  0  0  0  0  0
    2.4919    2.0307   -0.1681 H   0  0  0  0  0  0  0  0  0  0  0  0
    6.3447    1.3971   -0.4052 H   0  0  0  0  0  0  0  0  0  0  0  0
    4.4597    5.8594    1.7134 H   0  0  0  0  0  0  0  0  0  0  0  0
    8.3399    1.5078    0.7349 H   0  0  0  0  0  0  0  0  0  0  0  0
    6.6194   -1.1304   -0.0005 H   0  0  0  0  0  0  0  0  0  0  0  0
    3.9104   -4.4709   -0.1053 H   0  0  0  0  0  0  0  0  0  0  0  0
    1.9637   -2.9379   -0.1255 H   0  0  0  0  0  0  0  0  0  0  0  0
  1  2  1  0  0  0  0
  1 24  1  0  0  0  0
  1 25  1  0  0  0  0
  1 26  1  0  0  0  0
  2  3  1  0  0  0  0
  2 23  1  0  0  0  0
  3  4  2  0  0  0  0
  3 27  1  0  0  0  0
  4  5  1  0  0  0  0
  4 17  1  0  0  0  0
  5  6  2  0  0  0  0
  5 28  1  0  0  0  0
  6  7  1  0  0  0  0
  6 11  1  0  0  0  0
  7  8  2  0  0  0  0
  7  9  1  0  0  0  0
  9 10  1  0  0  0  0
  9 29  1  0  0  0  0
 10 11  2  0  0  0  0
 11 12  1  0  0  0  0
 12 13  2  0  0  0  0
 12 16  1  0  0  0  0
 13 14  1  0  0  0  0
 13 30  1  0  0  0  0
 14 15  2  0  0  0  0
 15 16  1  0  0  0  0
 17 18  1  0  0  0  0
 17 23  2  0  0  0  0
 18 19  2  0  0  0  0
 18 31  1  0  0  0  0
 19 20  1  0  0  0  0
 19 21  1  0  0  0  0
 21 22  2  0  0  0  0
 21 32  1  0  0  0  0
 22 23  1  0  0  0  0
 22 33  1  0  0  0  0
M  END
$$$$
