CHEMBL196747
 OpenBabel04072215363D

 44 47  0  0  0  0  0  0  0  0999 V2000
    5.3032    1.6625   -1.7005 C   0  0  0  0  0  0  0  0  0  0  0  0
    4.3213    0.8470   -0.9145 C   0  0  0  0  0  0  0  0  0  0  0  0
    4.6454   -0.8307   -0.7998 S   0  0  0  0  0  0  0  0  0  0  0  0
    3.3066   -1.1042    0.1949 C   0  0  0  0  0  0  0  0  0  0  0  0
    3.0865   -2.3460    0.6560 N   0  0  0  0  0  0  0  0  0  0  0  0
    2.0053   -2.4211    1.4234 C   0  0  0  0  0  0  0  0  0  0  0  0
    1.1613   -1.4299    1.7241 N   0  0  0  0  0  0  0  0  0  0  0  0
    1.3989   -0.1989    1.2302 C   0  0  0  0  0  0  0  0  0  0  0  0
    0.4356    0.7376    1.5750 N   0  0  0  0  0  0  0  0  0  0  0  0
    2.5466    0.0342    0.4306 C   0  0  0  0  0  0  0  0  0  0  0  0
    3.1631    1.2084   -0.2200 C   0  0  0  0  0  0  0  0  0  0  0  0
    2.7134    2.6158   -0.1393 C   0  0  0  0  0  0  0  0  0  0  0  0
    2.1840    3.1024    1.0553 C   0  0  0  0  0  0  0  0  0  0  0  0
    1.6338    4.3836    1.1423 C   0  0  0  0  0  0  0  0  0  0  0  0
    1.7066    5.2741    0.0714 C   0  0  0  0  0  0  0  0  0  0  0  0
    1.1761    6.5878    0.1066 N   0  0  0  0  0  0  0  0  0  0  0  0
    0.5617    7.1791    1.1904 C   0  0  0  0  0  0  0  0  0  0  0  0
    0.4810    6.6939    2.3151 O   0  0  0  0  0  0  0  0  0  0  0  0
   -0.0156    8.3957    0.8597 N   0  0  0  0  0  0  0  0  0  0  0  0
   -0.6987    9.1576    1.8389 C   0  0  0  0  0  0  0  0  0  0  0  0
   -1.9302    9.7246    1.5079 C   0  0  0  0  0  0  0  0  0  0  0  0
   -2.6673   10.4106    2.4779 C   0  0  0  0  0  0  0  0  0  0  0  0
   -2.1523   10.5667    3.7641 C   0  0  0  0  0  0  0  0  0  0  0  0
   -0.9117   10.0310    4.0744 C   0  0  0  0  0  0  0  0  0  0  0  0
   -0.4143   10.1886    5.3094 F   0  0  0  0  0  0  0  0  0  0  0  0
   -0.1789    9.3248    3.1270 C   0  0  0  0  0  0  0  0  0  0  0  0
    2.3203    4.8345   -1.1042 C   0  0  0  0  0  0  0  0  0  0  0  0
    2.7782    3.5094   -1.2181 C   0  0  0  0  0  0  0  0  0  0  0  0
    6.2221    1.1078   -1.9223 H   0  0  0  0  0  0  0  0  0  0  0  0
    5.5952    2.5616   -1.1492 H   0  0  0  0  0  0  0  0  0  0  0  0
    4.8742    1.9519   -2.6645 H   0  0  0  0  0  0  0  0  0  0  0  0
    1.7763   -3.3936    1.8471 H   0  0  0  0  0  0  0  0  0  0  0  0
   -0.3697    0.2826    1.9906 H   0  0  0  0  0  0  0  0  0  0  0  0
    0.2344    1.4333    0.8692 H   0  0  0  0  0  0  0  0  0  0  0  0
    2.1522    2.4868    1.9514 H   0  0  0  0  0  0  0  0  0  0  0  0
    1.1529    4.6415    2.0791 H   0  0  0  0  0  0  0  0  0  0  0  0
    1.3580    7.1754   -0.6844 H   0  0  0  0  0  0  0  0  0  0  0  0
   -0.3840    8.4378   -0.0811 H   0  0  0  0  0  0  0  0  0  0  0  0
   -2.3609    9.5845    0.5211 H   0  0  0  0  0  0  0  0  0  0  0  0
   -3.6507   10.8044    2.2363 H   0  0  0  0  0  0  0  0  0  0  0  0
   -2.7142   11.0931    4.5290 H   0  0  0  0  0  0  0  0  0  0  0  0
    0.7813    8.9065    3.4135 H   0  0  0  0  0  0  0  0  0  0  0  0
    2.4285    5.4993   -1.9571 H   0  0  0  0  0  0  0  0  0  0  0  0
    3.1767    3.2037   -2.1790 H   0  0  0  0  0  0  0  0  0  0  0  0
  1  2  1  0  0  0  0
  1 29  1  0  0  0  0
  1 30  1  0  0  0  0
  1 31  1  0  0  0  0
  2  3  1  0  0  0  0
  2 11  2  0  0  0  0
  3  4  1  0  0  0  0
  4  5  1  0  0  0  0
  4 10  2  0  0  0  0
  5  6  2  0  0  0  0
  6  7  1  0  0  0  0
  6 32  1  0  0  0  0
  7  8  2  0  0  0  0
  8  9  1  0  0  0  0
  8 10  1  0  0  0  0
  9 33  1  0  0  0  0
  9 34  1  0  0  0  0
 10 11  1  0  0  0  0
 11 12  1  0  0  0  0
 12 13  1  0  0  0  0
 12 28  2  0  0  0  0
 13 14  2  0  0  0  0
 13 35  1  0  0  0  0
 14 15  1  0  0  0  0
 14 36  1  0  0  0  0
 15 16  1  0  0  0  0
 15 27  2  0  0  0  0
 16 17  1  0  0  0  0
 16 37  1  0  0  0  0
 17 18  2  0  0  0  0
 17 19  1  0  0  0  0
 19 20  1  0  0  0  0
 19 38  1  0  0  0  0
 20 21  1  0  0  0  0
 20 26  2  0  0  0  0
 21 22  2  0  0  0  0
 21 39  1  0  0  0  0
 22 23  1  0  0  0  0
 22 40  1  0  0  0  0
 23 24  2  0  0  0  0
 23 41  1  0  0  0  0
 24 25  1  0  0  0  0
 24 26  1  0  0  0  0
 26 42  1  0  0  0  0
 27 28  1  0  0  0  0
 27 43  1  0  0  0  0
 28 44  1  0  0  0  0
M  END
$$$$
