CHEMBL3940672
 OpenBabel04072215373D

 69 73  0  0  1  0  0  0  0  0999 V2000
    1.9047    5.6918   -0.1634 C   0  0  0  0  0  0  0  0  0  0  0  0
    1.6978    4.2877    0.2454 O   0  0  0  0  0  0  0  0  0  0  0  0
    2.7730    3.4107    0.3652 C   0  0  0  0  0  0  0  0  0  0  0  0
    2.4759    2.2215    0.7265 C   0  0  0  0  0  0  0  0  0  0  0  0
    3.3139    1.1586    0.6205 C   0  0  0  0  0  0  0  0  0  0  0  0
    2.8055   -0.0626    0.8177 O   0  0  0  0  0  0  0  0  0  0  0  0
    3.5775   -1.0923    1.3314 C   0  0  0  0  0  0  0  0  0  0  0  0
    4.6075    1.3491    0.1818 C   0  0  0  0  0  0  0  0  0  0  0  0
    5.0522    2.6232   -0.1213 C   0  0  0  0  0  0  0  0  0  0  0  0
    6.3662    2.8035   -0.7652 N   0  0  0  0  0  0  0  0  0  0  0  0
    6.9389    1.7858   -1.6646 C   0  0  0  0  0  0  0  0  0  0  0  0
    5.9148    0.9951   -2.4033 C   0  0  0  0  0  0  0  0  0  0  0  0
    6.3256   -0.0271   -3.3110 N   0  0  0  0  0  0  0  0  0  0  0  0
    5.1178   -0.6575   -3.9080 C   0  0  0  0  0  0  0  0  0  0  0  0
    5.2374   -2.1114   -3.4663 C   0  0  2  0  0  0  0  0  0  0  0  0
    5.7476   -1.9869   -2.0400 C   0  0  0  0  0  0  0  0  0  0  0  0
    6.9204   -1.1426   -2.5119 C   0  0  1  0  0  0  0  0  0  0  0  0
    7.5385   -2.0299   -3.5508 C   0  0  0  0  0  0  0  0  0  0  0  0
    6.3878   -2.6319   -4.2219 N   0  0  0  0  0  0  0  0  0  0  0  0
    7.3061    3.8403   -0.2826 C   0  0  0  0  0  0  0  0  0  0  0  0
    8.1090    4.3276   -1.2811 C   0  0  0  0  0  0  0  0  0  0  0  0
    8.9191    5.2422   -1.0485 C   0  0  0  0  0  0  0  0  0  0  0  0
    9.0392    5.7600    0.1035 C   0  0  0  0  0  0  0  0  0  0  0  0
    9.9039    6.4229   -0.0323 N   0  0  0  0  0  0  0  0  0  0  0  0
   10.7704    7.0643   -0.2096 C   0  0  0  0  0  0  0  0  0  0  0  0
   10.9506    7.8117    0.7854 C   0  0  0  0  0  0  0  0  0  0  0  0
   12.5141    8.8574   -0.0951 C   0  0  0  0  0  0  0  0  0  0  0  0
   13.0009    9.2928   -1.4729 C   0  0  0  0  0  0  0  0  0  0  0  0
   13.9345   10.3679   -1.4217 N   0  0  0  0  0  0  0  0  0  0  0  0
   14.1444   10.7328   -0.1638 N   0  0  0  0  0  0  0  0  0  0  0  0
   15.0437   11.9048    0.2119 C   0  0  0  0  0  0  0  0  0  0  0  0
   13.3426    9.8948    0.6687 C   0  0  0  0  0  0  0  0  0  0  0  0
    9.6892    7.0831    1.9190 N   0  0  0  0  0  0  0  0  0  0  0  0
    8.6431    5.7804    1.3165 C   0  0  0  0  0  0  0  0  0  0  0  0
    7.4991    4.4689    1.1398 C   0  0  0  0  0  0  0  0  0  0  0  0
    4.0932    3.6563    0.1829 C   0  0  0  0  0  0  0  0  0  0  0  0
    1.4349   -0.4325   -1.8911 Cl  0  0  0  0  0  0  0  0  0  0  0  0
    0.9096    6.1904   -0.5857 H   0  0  0  0  0  0  0  0  0  0  0  0
    2.9446    5.8997   -0.9823 H   0  0  0  0  0  0  0  0  0  0  0  0
    2.6520    6.2271    0.2771 H   0  0  0  0  0  0  0  0  0  0  0  0
    1.5047    2.1440    1.0519 H   0  0  0  0  0  0  0  0  0  0  0  0
    2.9899   -2.0006    1.4440 H   0  0  0  0  0  0  0  0  0  0  0  0
    4.0126   -0.8223    2.3245 H   0  0  0  0  0  0  0  0  0  0  0  0
    4.4177   -1.2844    0.6338 H   0  0  0  0  0  0  0  0  0  0  0  0
    5.2578    0.5223    0.0818 H   0  0  0  0  0  0  0  0  0  0  0  0
    7.5451    1.0354   -1.1205 H   0  0  0  0  0  0  0  0  0  0  0  0
    7.5201    2.3255   -2.3946 H   0  0  0  0  0  0  0  0  0  0  0  0
    5.4653    1.8136   -3.0356 H   0  0  0  0  0  0  0  0  0  0  0  0
    5.3005    0.4728   -1.5991 H   0  0  0  0  0  0  0  0  0  0  0  0
    5.1243   -0.5232   -4.9920 H   0  0  0  0  0  0  0  0  0  0  0  0
    4.1246   -0.2155   -3.6227 H   0  0  0  0  0  0  0  0  0  0  0  0
    4.3055   -2.7045   -3.6318 H   0  0  0  0  0  0  0  0  0  0  0  0
    6.0166   -2.9512   -1.5702 H   0  0  0  0  0  0  0  0  0  0  0  0
    5.0790   -1.5026   -1.3075 H   0  0  0  0  0  0  0  0  0  0  0  0
    7.6952   -0.8566   -1.7367 H   0  0  0  0  0  0  0  0  0  0  0  0
    8.1810   -2.8040   -3.1031 H   0  0  0  0  0  0  0  0  0  0  0  0
    8.1285   -1.4225   -4.2603 H   0  0  0  0  0  0  0  0  0  0  0  0
    6.4820   -3.6623   -4.1181 H   0  0  0  0  0  0  0  0  0  0  0  0
    8.1979    4.0461   -2.2902 H   0  0  0  0  0  0  0  0  0  0  0  0
    9.5485    5.6869   -1.8405 H   0  0  0  0  0  0  0  0  0  0  0  0
   11.1855    7.0597   -1.1516 H   0  0  0  0  0  0  0  0  0  0  0  0
   12.7081    9.0878   -2.4610 H   0  0  0  0  0  0  0  0  0  0  0  0
   15.6066   12.3508   -0.6581 H   0  0  0  0  0  0  0  0  0  0  0  0
   15.8156   11.6202    0.9618 H   0  0  0  0  0  0  0  0  0  0  0  0
   14.4527   12.7433    0.6453 H   0  0  0  0  0  0  0  0  0  0  0  0
   13.3609   10.1086    1.6982 H   0  0  0  0  0  0  0  0  0  0  0  0
    6.8217    3.7632    1.7575 H   0  0  0  0  0  0  0  0  0  0  0  0
    4.1499    4.6629    0.2591 H   0  0  0  0  0  0  0  0  0  0  0  0
    1.8590    0.5163   -1.1750 H   0  0  0  0  0  0  0  0  0  0  0  0
  1  2  1  0  0  0  0
  1 38  1  0  0  0  0
  1 39  1  0  0  0  0
  1 40  1  0  0  0  0
  2  3  1  0  0  0  0
  3  4  1  0  0  0  0
  3 36  2  0  0  0  0
  4  5  2  0  0  0  0
  4 41  1  0  0  0  0
  5  6  1  0  0  0  0
  5  8  1  0  0  0  0
  6  7  1  0  0  0  0
  7 42  1  0  0  0  0
  7 43  1  0  0  0  0
  7 44  1  0  0  0  0
  8  9  2  0  0  0  0
  8 45  1  0  0  0  0
  9 10  1  0  0  0  0
  9 36  1  0  0  0  0
 10 11  1  0  0  0  0
 10 20  1  0  0  0  0
 11 12  1  0  0  0  0
 11 46  1  0  0  0  0
 11 47  1  0  0  0  0
 12 13  1  0  0  0  0
 12 48  1  0  0  0  0
 12 49  1  0  0  0  0
 13 14  1  0  0  0  0
 13 17  1  0  0  0  0
 14 15  1  0  0  0  0
 14 50  1  0  0  0  0
 14 51  1  0  0  0  0
 15 16  1  0  0  0  0
 15 19  1  0  0  0  0
 15 52  1  6  0  0  0
 16 17  1  0  0  0  0
 16 53  1  0  0  0  0
 16 54  1  0  0  0  0
 17 18  1  0  0  0  0
 17 55  1  1  0  0  0
 18 19  1  0  0  0  0
 18 56  1  0  0  0  0
 18 57  1  0  0  0  0
 19 58  1  0  0  0  0
 20 21  1  0  0  0  0
 20 35  2  0  0  0  0
 21 22  2  0  0  0  0
 21 59  1  0  0  0  0
 22 23  1  0  0  0  0
 22 60  1  0  0  0  0
 23 24  1  0  0  0  0
 23 34  2  0  0  0  0
 24 25  2  0  0  0  0
 25 26  1  0  0  0  0
 25 61  1  0  0  0  0
 26 27  1  0  0  0  0
 26 33  2  0  0  0  0
 27 28  1  0  0  0  0
 27 32  2  0  0  0  0
 28 29  2  0  0  0  0
 28 62  1  0  0  0  0
 29 30  1  0  0  0  0
 30 31  1  0  0  0  0
 30 32  1  0  0  0  0
 31 63  1  0  0  0  0
 31 64  1  0  0  0  0
 31 65  1  0  0  0  0
 32 66  1  0  0  0  0
 33 34  1  0  0  0  0
 34 35  1  0  0  0  0
 35 67  1  0  0  0  0
 36 68  1  0  0  0  0
 37 69  1  0  0  0  0
M  END
$$$$
