CHEMBL1230609
 OpenBabel04072215363D

 80 85  0  0  0  0  0  0  0  0999 V2000
    2.6633    0.9937    0.8257 C   0  0  0  0  0  0  0  0  0  0  0  0
    2.5216    0.0766   -0.2583 O   0  0  0  0  0  0  0  0  0  0  0  0
    3.2310   -1.0913   -0.2491 C   0  0  0  0  0  0  0  0  0  0  0  0
    4.4395   -1.2257    0.4207 C   0  0  0  0  0  0  0  0  0  0  0  0
    5.0411   -2.4843    0.6253 C   0  0  0  0  0  0  0  0  0  0  0  0
    6.1078   -2.6947    1.5264 C   0  0  0  0  0  0  0  0  0  0  0  0
    6.6327   -1.7025    2.3393 O   0  0  0  0  0  0  0  0  0  0  0  0
    5.7954   -1.0181    3.2035 C   0  0  0  0  0  0  0  0  0  0  0  0
    4.4903   -1.4028    3.5050 C   0  0  0  0  0  0  0  0  0  0  0  0
    3.6761   -0.5954    4.2905 C   0  0  0  0  0  0  0  0  0  0  0  0
    4.1760    0.5466    4.9106 C   0  0  0  0  0  0  0  0  0  0  0  0
    3.4107    1.2543    5.8586 N   0  0  0  0  0  0  0  0  0  0  0  0
    2.3008    0.7372    6.5186 C   0  0  0  0  0  0  0  0  0  0  0  0
    1.7415   -0.3347    6.3329 O   0  0  0  0  0  0  0  0  0  0  0  0
    1.7762    1.6062    7.6073 C   0  0  0  0  0  0  0  0  0  0  0  0
    0.7143    2.5595    7.1755 C   0  0  0  0  0  0  0  0  0  0  0  0
    1.0593    3.6952    6.9128 O   0  0  0  0  0  0  0  0  0  0  0  0
   -0.5725    2.0355    7.1152 N   0  0  0  0  0  0  0  0  0  0  0  0
   -1.7064    2.7424    6.6503 C   0  0  0  0  0  0  0  0  0  0  0  0
   -1.5844    3.8863    5.8547 C   0  0  0  0  0  0  0  0  0  0  0  0
   -2.7029    4.6345    5.4877 C   0  0  0  0  0  0  0  0  0  0  0  0
   -3.9592    4.2265    5.9026 C   0  0  0  0  0  0  0  0  0  0  0  0
   -5.0284    4.9704    5.5944 F   0  0  0  0  0  0  0  0  0  0  0  0
   -4.1199    3.0538    6.6357 C   0  0  0  0  0  0  0  0  0  0  0  0
   -2.9917    2.2961    6.9923 C   0  0  0  0  0  0  0  0  0  0  0  0
    2.8064    2.0257    8.6594 C   0  0  0  0  0  0  0  0  0  0  0  0
    1.7052    1.0905    9.0415 C   0  0  0  0  0  0  0  0  0  0  0  0
    5.4802    0.9537    4.6158 C   0  0  0  0  0  0  0  0  0  0  0  0
    6.2782    0.1678    3.7705 C   0  0  0  0  0  0  0  0  0  0  0  0
    7.5265    0.5795    3.5021 F   0  0  0  0  0  0  0  0  0  0  0  0
    6.6926   -3.9484    1.6379 C   0  0  0  0  0  0  0  0  0  0  0  0
    6.1574   -4.9703    0.8807 C   0  0  0  0  0  0  0  0  0  0  0  0
    5.0862   -4.8262    0.0683 N   0  0  0  0  0  0  0  0  0  0  0  0
    4.5267   -3.6079   -0.0449 C   0  0  0  0  0  0  0  0  0  0  0  0
    3.4000   -3.4381   -0.8399 C   0  0  0  0  0  0  0  0  0  0  0  0
    2.7496   -2.1994   -0.9586 C   0  0  0  0  0  0  0  0  0  0  0  0
    1.6593   -2.2162   -1.7981 O   0  0  0  0  0  0  0  0  0  0  0  0
    1.4208   -0.9876   -2.4840 C   0  0  0  0  0  0  0  0  0  0  0  0
    0.8889   -1.2332   -3.8914 C   0  0  0  0  0  0  0  0  0  0  0  0
   -0.4851   -1.9079   -3.8998 C   0  0  0  0  0  0  0  0  0  0  0  0
   -1.0772   -1.9980   -5.2510 N   0  0  0  0  0  0  0  0  0  0  0  0
   -1.3229   -0.6853   -5.8924 C   0  0  0  0  0  0  0  0  0  0  0  0
   -2.4413    0.1233   -5.2187 C   0  0  0  0  0  0  0  0  0  0  0  0
   -3.6746   -0.6060   -5.2331 O   0  0  0  0  0  0  0  0  0  0  0  0
   -3.5252   -1.8800   -4.5913 C   0  0  0  0  0  0  0  0  0  0  0  0
   -2.3795   -2.7082   -5.2074 C   0  0  0  0  0  0  0  0  0  0  0  0
    2.8626    1.9832    0.4046 H   0  0  0  0  0  0  0  0  0  0  0  0
    3.4493    0.7717    1.5483 H   0  0  0  0  0  0  0  0  0  0  0  0
    1.7187    1.0384    1.3765 H   0  0  0  0  0  0  0  0  0  0  0  0
    4.9246   -0.3513    0.8380 H   0  0  0  0  0  0  0  0  0  0  0  0
    4.0420   -2.3063    3.1005 H   0  0  0  0  0  0  0  0  0  0  0  0
    2.6353   -0.8871    4.3908 H   0  0  0  0  0  0  0  0  0  0  0  0
    3.7838    2.1349    6.1998 H   0  0  0  0  0  0  0  0  0  0  0  0
   -0.7232    1.1087    7.5045 H   0  0  0  0  0  0  0  0  0  0  0  0
   -0.6179    4.2166    5.4862 H   0  0  0  0  0  0  0  0  0  0  0  0
   -2.5891    5.5335    4.8911 H   0  0  0  0  0  0  0  0  0  0  0  0
   -5.1167    2.7521    6.9348 H   0  0  0  0  0  0  0  0  0  0  0  0
   -3.1416    1.3942    7.5786 H   0  0  0  0  0  0  0  0  0  0  0  0
    2.7831    3.0547    8.9974 H   0  0  0  0  0  0  0  0  0  0  0  0
    3.8058    1.6020    8.6161 H   0  0  0  0  0  0  0  0  0  0  0  0
    0.9511    1.4869    9.7126 H   0  0  0  0  0  0  0  0  0  0  0  0
    1.9444    0.0470    9.2154 H   0  0  0  0  0  0  0  0  0  0  0  0
    5.9135    1.8500    5.0486 H   0  0  0  0  0  0  0  0  0  0  0  0
    7.5275   -4.1272    2.3046 H   0  0  0  0  0  0  0  0  0  0  0  0
    6.5776   -5.9719    0.9148 H   0  0  0  0  0  0  0  0  0  0  0  0
    3.0053   -4.2986   -1.3768 H   0  0  0  0  0  0  0  0  0  0  0  0
    2.3441   -0.4091   -2.6109 H   0  0  0  0  0  0  0  0  0  0  0  0
    0.6945   -0.3993   -1.9110 H   0  0  0  0  0  0  0  0  0  0  0  0
    1.5994   -1.8491   -4.4550 H   0  0  0  0  0  0  0  0  0  0  0  0
    0.8451   -0.2508   -4.3696 H   0  0  0  0  0  0  0  0  0  0  0  0
   -1.1498   -1.3888   -3.2012 H   0  0  0  0  0  0  0  0  0  0  0  0
   -0.3587   -2.9271   -3.5115 H   0  0  0  0  0  0  0  0  0  0  0  0
   -1.6165   -0.8801   -6.9328 H   0  0  0  0  0  0  0  0  0  0  0  0
   -0.4094   -0.0893   -5.9656 H   0  0  0  0  0  0  0  0  0  0  0  0
   -2.6026    1.0568   -5.7671 H   0  0  0  0  0  0  0  0  0  0  0  0
   -2.1885    0.3927   -4.1868 H   0  0  0  0  0  0  0  0  0  0  0  0
   -4.4710   -2.4173   -4.7136 H   0  0  0  0  0  0  0  0  0  0  0  0
   -3.3772   -1.7220   -3.5175 H   0  0  0  0  0  0  0  0  0  0  0  0
   -2.6511   -2.9550   -6.2425 H   0  0  0  0  0  0  0  0  0  0  0  0
   -2.2800   -3.6661   -4.6840 H   0  0  0  0  0  0  0  0  0  0  0  0
  1  2  1  0  0  0  0
  1 47  1  0  0  0  0
  1 48  1  0  0  0  0
  1 49  1  0  0  0  0
  2  3  1  0  0  0  0
  3  4  1  0  0  0  0
  3 36  2  0  0  0  0
  4  5  2  0  0  0  0
  4 50  1  0  0  0  0
  5  6  1  0  0  0  0
  5 34  1  0  0  0  0
  6  7  1  0  0  0  0
  6 31  2  0  0  0  0
  7  8  1  0  0  0  0
  8  9  1  0  0  0  0
  8 29  2  0  0  0  0
  9 10  2  0  0  0  0
  9 51  1  0  0  0  0
 10 11  1  0  0  0  0
 10 52  1  0  0  0  0
 11 12  1  0  0  0  0
 11 28  2  0  0  0  0
 12 13  1  0  0  0  0
 12 53  1  0  0  0  0
 13 14  2  0  0  0  0
 13 15  1  0  0  0  0
 15 16  1  0  0  0  0
 15 26  1  0  0  0  0
 15 27  1  0  0  0  0
 16 17  2  0  0  0  0
 16 18  1  0  0  0  0
 18 19  1  0  0  0  0
 18 54  1  0  0  0  0
 19 20  1  0  0  0  0
 19 25  2  0  0  0  0
 20 21  2  0  0  0  0
 20 55  1  0  0  0  0
 21 22  1  0  0  0  0
 21 56  1  0  0  0  0
 22 23  1  0  0  0  0
 22 24  2  0  0  0  0
 24 25  1  0  0  0  0
 24 57  1  0  0  0  0
 25 58  1  0  0  0  0
 26 27  1  0  0  0  0
 26 59  1  0  0  0  0
 26 60  1  0  0  0  0
 27 61  1  0  0  0  0
 27 62  1  0  0  0  0
 28 29  1  0  0  0  0
 28 63  1  0  0  0  0
 29 30  1  0  0  0  0
 31 32  1  0  0  0  0
 31 64  1  0  0  0  0
 32 33  2  0  0  0  0
 32 65  1  0  0  0  0
 33 34  1  0  0  0  0
 34 35  2  0  0  0  0
 35 36  1  0  0  0  0
 35 66  1  0  0  0  0
 36 37  1  0  0  0  0
 37 38  1  0  0  0  0
 38 39  1  0  0  0  0
 38 67  1  0  0  0  0
 38 68  1  0  0  0  0
 39 40  1  0  0  0  0
 39 69  1  0  0  0  0
 39 70  1  0  0  0  0
 40 41  1  0  0  0  0
 40 71  1  0  0  0  0
 40 72  1  0  0  0  0
 41 42  1  0  0  0  0
 41 46  1  0  0  0  0
 42 43  1  0  0  0  0
 42 73  1  0  0  0  0
 42 74  1  0  0  0  0
 43 44  1  0  0  0  0
 43 75  1  0  0  0  0
 43 76  1  0  0  0  0
 44 45  1  0  0  0  0
 45 46  1  0  0  0  0
 45 77  1  0  0  0  0
 45 78  1  0  0  0  0
 46 79  1  0  0  0  0
 46 80  1  0  0  0  0
M  END
$$$$
