CHEMBL3644021
 OpenBabel04072215373D

 45 46  0  0  1  0  0  0  0  0999 V2000
    5.6081    0.9565    0.5772 C   0  0  0  0  0  0  0  0  0  0  0  0
    4.2932    0.2194    0.7907 C   0  0  1  0  0  0  0  0  0  0  0  0
    3.2423    1.0293    0.2557 O   0  0  0  0  0  0  0  0  0  0  0  0
    4.2873   -1.1923    0.1552 C   0  0  1  0  0  0  0  0  0  0  0  0
    2.9353   -1.8689    0.4000 C   0  0  0  0  0  0  0  0  0  0  0  0
    4.4863   -1.0491   -1.2664 O   0  0  0  0  0  0  0  0  0  0  0  0
    5.1842   -2.0573   -1.8991 C   0  0  0  0  0  0  0  0  0  0  0  0
    6.0397   -2.8129   -1.1724 N   0  0  0  0  0  0  0  0  0  0  0  0
    6.6767   -3.8047   -1.8122 C   0  0  0  0  0  0  0  0  0  0  0  0
    7.6229   -4.5563   -1.1146 N   0  0  0  0  0  0  0  0  0  0  0  0
    8.1229   -5.8234   -1.4511 C   0  0  0  0  0  0  0  0  0  0  0  0
    9.4684   -6.1524   -1.2448 C   0  0  0  0  0  0  0  0  0  0  0  0
    9.9883   -7.3763   -1.6964 C   0  0  0  0  0  0  0  0  0  0  0  0
    9.1523   -8.2755   -2.3644 C   0  0  0  0  0  0  0  0  0  0  0  0
    9.7902   -9.7914   -3.0418 S   0  0  0  0  0  0  0  0  0  0  0  0
    9.4408   -9.7842   -4.4541 O   0  0  0  0  0  0  0  0  0  0  0  0
   11.1849   -9.8880   -2.6511 O   0  0  0  0  0  0  0  0  0  0  0  0
    8.8550  -11.0776   -2.2001 C   0  0  0  0  0  0  0  0  0  0  0  0
    9.0406  -11.0652   -0.8490 F   0  0  0  0  0  0  0  0  0  0  0  0
    7.5073  -10.9778   -2.3969 F   0  0  0  0  0  0  0  0  0  0  0  0
    7.8139   -7.9665   -2.5799 C   0  0  0  0  0  0  0  0  0  0  0  0
    7.3130   -6.7516   -2.1232 C   0  0  0  0  0  0  0  0  0  0  0  0
    6.4803   -4.0731   -3.1120 N   0  0  0  0  0  0  0  0  0  0  0  0
    5.6744   -3.2631   -3.8088 C   0  0  0  0  0  0  0  0  0  0  0  0
    5.0137   -2.1966   -3.2559 C   0  0  0  0  0  0  0  0  0  0  0  0
    4.2399   -1.3007   -4.1448 C   0  0  0  0  0  0  0  0  0  0  0  0
    3.6270   -0.2465   -3.5458 F   0  0  0  0  0  0  0  0  0  0  0  0
    5.0350   -0.7570   -5.1136 F   0  0  0  0  0  0  0  0  0  0  0  0
    3.2609   -1.9658   -4.8223 F   0  0  0  0  0  0  0  0  0  0  0  0
    5.5414    1.9725    0.9819 H   0  0  0  0  0  0  0  0  0  0  0  0
    5.8415    1.0610   -0.4874 H   0  0  0  0  0  0  0  0  0  0  0  0
    6.4353    0.4374    1.0698 H   0  0  0  0  0  0  0  0  0  0  0  0
    4.1101    0.1312    1.8679 H   0  0  0  0  0  0  0  0  0  0  0  0
    3.3318    1.0055   -0.7151 H   0  0  0  0  0  0  0  0  0  0  0  0
    5.0793   -1.7753    0.6382 H   0  0  0  0  0  0  0  0  0  0  0  0
    2.1205   -1.3275   -0.0940 H   0  0  0  0  0  0  0  0  0  0  0  0
    2.7130   -1.9245    1.4713 H   0  0  0  0  0  0  0  0  0  0  0  0
    2.9268   -2.8853   -0.0060 H   0  0  0  0  0  0  0  0  0  0  0  0
    7.9236   -4.1251   -0.2564 H   0  0  0  0  0  0  0  0  0  0  0  0
   10.1418   -5.4385   -0.7714 H   0  0  0  0  0  0  0  0  0  0  0  0
   11.0455   -7.5925   -1.5584 H   0  0  0  0  0  0  0  0  0  0  0  0
    9.1868  -12.0423   -2.5920 H   0  0  0  0  0  0  0  0  0  0  0  0
    7.1527   -8.6365   -3.1246 H   0  0  0  0  0  0  0  0  0  0  0  0
    6.2663   -6.5241   -2.3116 H   0  0  0  0  0  0  0  0  0  0  0  0
    5.5952   -3.5045   -4.8673 H   0  0  0  0  0  0  0  0  0  0  0  0
  1  2  1  0  0  0  0
  1 30  1  0  0  0  0
  1 31  1  0  0  0  0
  1 32  1  0  0  0  0
  2  3  1  0  0  0  0
  2  4  1  0  0  0  0
  2 33  1  1  0  0  0
  3 34  1  0  0  0  0
  4  5  1  0  0  0  0
  4  6  1  0  0  0  0
  4 35  1  1  0  0  0
  5 36  1  0  0  0  0
  5 37  1  0  0  0  0
  5 38  1  0  0  0  0
  6  7  1  0  0  0  0
  7  8  1  0  0  0  0
  7 25  2  0  0  0  0
  8  9  2  0  0  0  0
  9 10  1  0  0  0  0
  9 23  1  0  0  0  0
 10 11  1  0  0  0  0
 10 39  1  0  0  0  0
 11 12  1  0  0  0  0
 11 22  2  0  0  0  0
 12 13  2  0  0  0  0
 12 40  1  0  0  0  0
 13 14  1  0  0  0  0
 13 41  1  0  0  0  0
 14 15  1  0  0  0  0
 14 21  2  0  0  0  0
 15 16  2  0  0  0  0
 15 17  2  0  0  0  0
 15 18  1  0  0  0  0
 18 19  1  0  0  0  0
 18 20  1  0  0  0  0
 18 42  1  0  0  0  0
 21 22  1  0  0  0  0
 21 43  1  0  0  0  0
 22 44  1  0  0  0  0
 23 24  2  0  0  0  0
 24 25  1  0  0  0  0
 24 45  1  0  0  0  0
 25 26  1  0  0  0  0
 26 27  1  0  0  0  0
 26 28  1  0  0  0  0
 26 29  1  0  0  0  0
M  END
$$$$
