CHEMBL1085292
 OpenBabel04072215363D

 74 81  0  0  1  0  0  0  0  0999 V2000
    1.8104   -0.5851    1.0446 C   0  0  0  0  0  0  0  0  0  0  0  0
    2.7342   -1.6474    0.7015 N   0  0  0  0  0  0  0  0  0  0  0  0
    3.7702   -2.2371    1.4268 C   0  0  0  0  0  0  0  0  0  0  0  0
    4.4373   -3.1373    0.5706 C   0  0  0  0  0  0  0  0  0  0  0  0
    3.9834   -2.5433   -0.6820 C   0  0  0  0  0  0  0  0  0  0  0  0
    2.8241   -1.9065   -0.6063 N   0  0  0  0  0  0  0  0  0  0  0  0
    4.9109   -2.1905   -1.7985 C   0  0  0  0  0  0  0  0  0  0  0  0
    6.0791   -3.1257   -1.7197 C   0  0  0  0  0  0  0  0  0  0  0  0
    6.6385   -2.9431   -0.2850 C   0  0  0  0  0  0  0  0  0  0  0  0
    5.8679   -3.5881    0.6717 C   0  0  0  0  0  0  0  0  0  0  0  0
    6.5242   -4.8426    0.9286 C   0  0  0  0  0  0  0  0  0  0  0  0
    7.9815   -5.0168    0.7672 C   0  0  0  0  0  0  0  0  0  0  0  0
    8.7146   -3.8630    0.4843 C   0  0  0  0  0  0  0  0  0  0  0  0
   10.0809   -3.5935    0.3647 C   0  0  0  0  0  0  0  0  0  0  0  0
   11.3155   -4.2924    0.3489 C   0  0  0  0  0  0  0  0  0  0  0  0
   12.5267   -3.5767    0.2088 C   0  0  0  0  0  0  0  0  0  0  0  0
   13.8795   -4.2029   -0.1075 C   0  0  3  0  0  0  0  0  0  0  0  0
   13.9534   -5.7057   -0.3869 C   0  0  0  0  0  0  0  0  0  0  0  0
   13.9185   -6.5389    0.8877 C   0  0  0  0  0  0  0  0  0  0  0  0
   14.8942   -5.9998    1.9250 C   0  0  0  0  0  0  0  0  0  0  0  0
   14.7688   -4.4927    2.0940 C   0  0  0  0  0  0  0  0  0  0  0  0
   14.8795   -3.8184    0.8445 O   0  0  0  0  0  0  0  0  0  0  0  0
   12.5000   -2.1743    0.2664 C   0  0  0  0  0  0  0  0  0  0  0  0
   11.3073   -1.4621    0.2938 C   0  0  0  0  0  0  0  0  0  0  0  0
   10.1117   -2.1805    0.2197 C   0  0  0  0  0  0  0  0  0  0  0  0
    8.8067   -1.7633   -0.0005 N   0  0  0  0  0  0  0  0  0  0  0  0
    8.1704   -0.4732   -0.0613 C   0  0  0  0  0  0  0  0  0  0  0  0
    8.9149    0.7915   -0.4011 C   0  0  0  0  0  0  0  0  0  0  0  0
    7.8524    1.9091   -0.3207 C   0  0  0  0  0  0  0  0  0  0  0  0
    8.3557    3.2361   -0.8528 C   0  0  0  0  0  0  0  0  0  0  0  0
    8.9368    3.0846   -2.2516 C   0  0  0  0  0  0  0  0  0  0  0  0
   10.0424    2.0379   -2.2938 C   0  0  0  0  0  0  0  0  0  0  0  0
    9.5489    0.6910   -1.7919 C   0  0  0  0  0  0  0  0  0  0  0  0
    7.9840   -2.8444   -0.0155 C   0  0  0  0  0  0  0  0  0  0  0  0
    8.4030   -6.4188    0.7596 C   0  0  0  0  0  0  0  0  0  0  0  0
    7.1060   -7.0299    0.8965 N   0  0  0  0  0  0  0  0  0  0  0  0
    5.9904   -6.1835    1.0198 C   0  0  0  0  0  0  0  0  0  0  0  0
    4.8538   -6.6116    1.0700 O   0  0  0  0  0  0  0  0  0  0  0  0
    2.3520    0.3650    1.0902 H   0  0  0  0  0  0  0  0  0  0  0  0
    1.2991   -0.8117    1.9778 H   0  0  0  0  0  0  0  0  0  0  0  0
    1.0632   -0.5056    0.2403 H   0  0  0  0  0  0  0  0  0  0  0  0
    3.9998   -1.8633    2.4171 H   0  0  0  0  0  0  0  0  0  0  0  0
    5.2730   -1.1660   -1.6160 H   0  0  0  0  0  0  0  0  0  0  0  0
    4.4205   -2.1980   -2.7721 H   0  0  0  0  0  0  0  0  0  0  0  0
    6.8411   -2.9579   -2.4798 H   0  0  0  0  0  0  0  0  0  0  0  0
    5.7318   -4.1676   -1.8298 H   0  0  0  0  0  0  0  0  0  0  0  0
   11.3003   -5.3705    0.3588 H   0  0  0  0  0  0  0  0  0  0  0  0
   14.1854   -3.7255   -1.0500 H   0  0  0  0  0  0  0  0  0  0  0  0
   14.9160   -5.9057   -0.8790 H   0  0  0  0  0  0  0  0  0  0  0  0
   13.1734   -6.0243   -1.0872 H   0  0  0  0  0  0  0  0  0  0  0  0
   14.1624   -7.5804    0.6509 H   0  0  0  0  0  0  0  0  0  0  0  0
   12.9095   -6.5432    1.3102 H   0  0  0  0  0  0  0  0  0  0  0  0
   15.9134   -6.2375    1.5975 H   0  0  0  0  0  0  0  0  0  0  0  0
   14.7327   -6.4994    2.8858 H   0  0  0  0  0  0  0  0  0  0  0  0
   15.5826   -4.1300    2.7310 H   0  0  0  0  0  0  0  0  0  0  0  0
   13.8287   -4.2175    2.5838 H   0  0  0  0  0  0  0  0  0  0  0  0
   13.4356   -1.6170    0.2248 H   0  0  0  0  0  0  0  0  0  0  0  0
   11.3404   -0.3805    0.2755 H   0  0  0  0  0  0  0  0  0  0  0  0
    7.6441   -0.3684    0.8950 H   0  0  0  0  0  0  0  0  0  0  0  0
    7.3952   -0.5792   -0.8317 H   0  0  0  0  0  0  0  0  0  0  0  0
    9.6800    1.0004    0.3529 H   0  0  0  0  0  0  0  0  0  0  0  0
    7.5271    2.0302    0.7211 H   0  0  0  0  0  0  0  0  0  0  0  0
    6.9552    1.6198   -0.8860 H   0  0  0  0  0  0  0  0  0  0  0  0
    9.1128    3.6330   -0.1690 H   0  0  0  0  0  0  0  0  0  0  0  0
    7.5241    3.9492   -0.8709 H   0  0  0  0  0  0  0  0  0  0  0  0
    9.3320    4.0491   -2.5869 H   0  0  0  0  0  0  0  0  0  0  0  0
    8.1408    2.7993   -2.9507 H   0  0  0  0  0  0  0  0  0  0  0  0
   10.8899    2.3639   -1.6797 H   0  0  0  0  0  0  0  0  0  0  0  0
   10.4093    1.9240   -3.3190 H   0  0  0  0  0  0  0  0  0  0  0  0
   10.3933   -0.0036   -1.7821 H   0  0  0  0  0  0  0  0  0  0  0  0
    8.8304    0.2737   -2.5092 H   0  0  0  0  0  0  0  0  0  0  0  0
    9.0585   -6.6911    1.5852 H   0  0  0  0  0  0  0  0  0  0  0  0
    8.8423   -6.6796   -0.2085 H   0  0  0  0  0  0  0  0  0  0  0  0
    6.9422   -7.9937    0.6576 H   0  0  0  0  0  0  0  0  0  0  0  0
  1  2  1  0  0  0  0
  1 39  1  0  0  0  0
  1 40  1  0  0  0  0
  1 41  1  0  0  0  0
  2  3  1  0  0  0  0
  2  6  1  0  0  0  0
  3  4  2  0  0  0  0
  3 42  1  0  0  0  0
  4  5  1  0  0  0  0
  4 10  1  0  0  0  0
  5  6  2  0  0  0  0
  5  7  1  0  0  0  0
  7  8  1  0  0  0  0
  7 43  1  0  0  0  0
  7 44  1  0  0  0  0
  8  9  1  0  0  0  0
  8 45  1  0  0  0  0
  8 46  1  0  0  0  0
  9 10  1  0  0  0  0
  9 34  2  0  0  0  0
 10 11  2  0  0  0  0
 11 12  1  0  0  0  0
 11 37  1  0  0  0  0
 12 13  2  0  0  0  0
 12 35  1  0  0  0  0
 13 14  1  0  0  0  0
 13 34  1  0  0  0  0
 14 15  1  0  0  0  0
 14 25  2  0  0  0  0
 15 16  2  0  0  0  0
 15 47  1  0  0  0  0
 16 17  1  0  0  0  0
 16 23  1  0  0  0  0
 17 18  1  0  0  0  0
 17 22  1  0  0  0  0
 17 48  1  0  0  0  0
 18 19  1  0  0  0  0
 18 49  1  0  0  0  0
 18 50  1  0  0  0  0
 19 20  1  0  0  0  0
 19 51  1  0  0  0  0
 19 52  1  0  0  0  0
 20 21  1  0  0  0  0
 20 53  1  0  0  0  0
 20 54  1  0  0  0  0
 21 22  1  0  0  0  0
 21 55  1  0  0  0  0
 21 56  1  0  0  0  0
 23 24  2  0  0  0  0
 23 57  1  0  0  0  0
 24 25  1  0  0  0  0
 24 58  1  0  0  0  0
 25 26  1  0  0  0  0
 26 27  1  0  0  0  0
 26 34  1  0  0  0  0
 27 28  1  0  0  0  0
 27 59  1  0  0  0  0
 27 60  1  0  0  0  0
 28 29  1  0  0  0  0
 28 33  1  0  0  0  0
 28 61  1  0  0  0  0
 29 30  1  0  0  0  0
 29 62  1  0  0  0  0
 29 63  1  0  0  0  0
 30 31  1  0  0  0  0
 30 64  1  0  0  0  0
 30 65  1  0  0  0  0
 31 32  1  0  0  0  0
 31 66  1  0  0  0  0
 31 67  1  0  0  0  0
 32 33  1  0  0  0  0
 32 68  1  0  0  0  0
 32 69  1  0  0  0  0
 33 70  1  0  0  0  0
 33 71  1  0  0  0  0
 35 36  1  0  0  0  0
 35 72  1  0  0  0  0
 35 73  1  0  0  0  0
 36 37  1  0  0  0  0
 36 74  1  0  0  0  0
 37 38  2  0  0  0  0
M  END
$$$$
