CHEMBL3758839
 OpenBabel04072215373D

 56 58  0  0  0  0  0  0  0  0999 V2000
    3.4676   -0.6164    1.1407 C   0  0  0  0  0  0  0  0  0  0  0  0
    2.5751   -0.0889    0.1571 O   0  0  0  0  0  0  0  0  0  0  0  0
    3.1539    0.3146   -1.0162 C   0  0  0  0  0  0  0  0  0  0  0  0
    4.2563   -0.3672   -1.5457 C   0  0  0  0  0  0  0  0  0  0  0  0
    4.9224    0.0771   -2.6711 C   0  0  0  0  0  0  0  0  0  0  0  0
    6.0222   -0.5797   -3.0449 N   0  0  0  0  0  0  0  0  0  0  0  0
    6.6757   -0.0917   -4.1000 C   0  0  0  0  0  0  0  0  0  0  0  0
    6.3273    0.9844   -4.8045 N   0  0  0  0  0  0  0  0  0  0  0  0
    5.2096    1.6366   -4.4228 C   0  0  0  0  0  0  0  0  0  0  0  0
    4.8404    2.8206   -5.1206 N   0  0  0  0  0  0  0  0  0  0  0  0
    5.4298    3.2163   -6.3407 C   0  0  0  0  0  0  0  0  0  0  0  0
    5.5573    2.2991   -7.3934 C   0  0  0  0  0  0  0  0  0  0  0  0
    6.2249    2.6431   -8.5668 C   0  0  0  0  0  0  0  0  0  0  0  0
    6.7585    3.9204   -8.7010 C   0  0  0  0  0  0  0  0  0  0  0  0
    7.6377    4.3293  -10.1215 Cl  0  0  0  0  0  0  0  0  0  0  0  0
    6.5998    4.8622   -7.6849 C   0  0  0  0  0  0  0  0  0  0  0  0
    5.9276    4.5136   -6.5092 C   0  0  0  0  0  0  0  0  0  0  0  0
    4.4351    1.2046   -3.3392 C   0  0  0  0  0  0  0  0  0  0  0  0
    3.2397    1.8178   -2.8972 C   0  0  0  0  0  0  0  0  0  0  0  0
    2.6139    1.3980   -1.7245 C   0  0  0  0  0  0  0  0  0  0  0  0
    1.4971    2.1310   -1.4008 O   0  0  0  0  0  0  0  0  0  0  0  0
    1.3754    2.4083   -0.0102 C   0  0  0  0  0  0  0  0  0  0  0  0
    0.3547    3.5186    0.2380 C   0  0  0  0  0  0  0  0  0  0  0  0
    0.2611    3.7368    1.7471 C   0  0  0  0  0  0  0  0  0  0  0  0
   -0.7847    4.7626    2.1636 C   0  0  0  0  0  0  0  0  0  0  0  0
   -0.8023    4.8837    3.6900 C   0  0  0  0  0  0  0  0  0  0  0  0
   -1.8373    5.8975    4.1634 C   0  0  0  0  0  0  0  0  0  0  0  0
   -1.8492    6.0326    5.6753 C   0  0  0  0  0  0  0  0  0  0  0  0
   -1.1536    5.3775    6.4429 O   0  0  0  0  0  0  0  0  0  0  0  0
   -2.7351    6.9841    6.1190 N   0  0  0  0  0  0  0  0  0  0  0  0
   -2.8665    7.1039    7.5209 O   0  0  0  0  0  0  0  0  0  0  0  0
    3.1540   -0.2409    2.1191 H   0  0  0  0  0  0  0  0  0  0  0  0
    4.5117   -0.3102    1.0035 H   0  0  0  0  0  0  0  0  0  0  0  0
    3.3917   -1.7076    1.1461 H   0  0  0  0  0  0  0  0  0  0  0  0
    4.6326   -1.2664   -1.0645 H   0  0  0  0  0  0  0  0  0  0  0  0
    7.5791   -0.6079   -4.4038 H   0  0  0  0  0  0  0  0  0  0  0  0
    4.7695    3.5866   -4.4587 H   0  0  0  0  0  0  0  0  0  0  0  0
    5.1569    1.2934   -7.2846 H   0  0  0  0  0  0  0  0  0  0  0  0
    6.3401    1.9032   -9.3523 H   0  0  0  0  0  0  0  0  0  0  0  0
    7.0147    5.8603   -7.7937 H   0  0  0  0  0  0  0  0  0  0  0  0
    5.8376    5.2506   -5.7161 H   0  0  0  0  0  0  0  0  0  0  0  0
    2.8066    2.6460   -3.4533 H   0  0  0  0  0  0  0  0  0  0  0  0
    2.3457    2.7209    0.3973 H   0  0  0  0  0  0  0  0  0  0  0  0
    1.0117    1.5182    0.5101 H   0  0  0  0  0  0  0  0  0  0  0  0
   -0.6180    3.2312   -0.1797 H   0  0  0  0  0  0  0  0  0  0  0  0
    0.6538    4.4387   -0.2787 H   0  0  0  0  0  0  0  0  0  0  0  0
    1.2438    4.0496    2.1223 H   0  0  0  0  0  0  0  0  0  0  0  0
    0.0281    2.7794    2.2307 H   0  0  0  0  0  0  0  0  0  0  0  0
   -1.7735    4.4553    1.8033 H   0  0  0  0  0  0  0  0  0  0  0  0
   -0.5563    5.7353    1.7132 H   0  0  0  0  0  0  0  0  0  0  0  0
    0.1927    5.1778    4.0482 H   0  0  0  0  0  0  0  0  0  0  0  0
   -1.0149    3.9030    4.1360 H   0  0  0  0  0  0  0  0  0  0  0  0
   -2.8369    5.5849    3.8410 H   0  0  0  0  0  0  0  0  0  0  0  0
   -1.6261    6.8821    3.7298 H   0  0  0  0  0  0  0  0  0  0  0  0
   -3.4795    7.3762    5.5533 H   0  0  0  0  0  0  0  0  0  0  0  0
   -2.2133    6.4467    7.8500 H   0  0  0  0  0  0  0  0  0  0  0  0
  1  2  1  0  0  0  0
  1 32  1  0  0  0  0
  1 33  1  0  0  0  0
  1 34  1  0  0  0  0
  2  3  1  0  0  0  0
  3  4  1  0  0  0  0
  3 20  2  0  0  0  0
  4  5  2  0  0  0  0
  4 35  1  0  0  0  0
  5  6  1  0  0  0  0
  5 18  1  0  0  0  0
  6  7  2  0  0  0  0
  7  8  1  0  0  0  0
  7 36  1  0  0  0  0
  8  9  2  0  0  0  0
  9 10  1  0  0  0  0
  9 18  1  0  0  0  0
 10 11  1  0  0  0  0
 10 37  1  0  0  0  0
 11 12  1  0  0  0  0
 11 17  2  0  0  0  0
 12 13  2  0  0  0  0
 12 38  1  0  0  0  0
 13 14  1  0  0  0  0
 13 39  1  0  0  0  0
 14 15  1  0  0  0  0
 14 16  2  0  0  0  0
 16 17  1  0  0  0  0
 16 40  1  0  0  0  0
 17 41  1  0  0  0  0
 18 19  2  0  0  0  0
 19 20  1  0  0  0  0
 19 42  1  0  0  0  0
 20 21  1  0  0  0  0
 21 22  1  0  0  0  0
 22 23  1  0  0  0  0
 22 43  1  0  0  0  0
 22 44  1  0  0  0  0
 23 24  1  0  0  0  0
 23 45  1  0  0  0  0
 23 46  1  0  0  0  0
 24 25  1  0  0  0  0
 24 47  1  0  0  0  0
 24 48  1  0  0  0  0
 25 26  1  0  0  0  0
 25 49  1  0  0  0  0
 25 50  1  0  0  0  0
 26 27  1  0  0  0  0
 26 51  1  0  0  0  0
 26 52  1  0  0  0  0
 27 28  1  0  0  0  0
 27 53  1  0  0  0  0
 27 54  1  0  0  0  0
 28 29  2  0  0  0  0
 28 30  1  0  0  0  0
 30 31  1  0  0  0  0
 30 55  1  0  0  0  0
 31 56  1  0  0  0  0
M  END
$$$$
