CHEMBL521552
 OpenBabel04072215383D

 36 39  0  0  0  0  0  0  0  0999 V2000
    1.2922    0.5872    0.3024 C   0  0  0  0  0  0  0  0  0  0  0  0
    2.5253   -0.1345    0.0753 N   0  0  0  0  0  0  0  0  0  0  0  0
    3.1437   -0.4527   -1.1381 C   0  0  0  0  0  0  0  0  0  0  0  0
    2.8463    0.0241   -2.3777 C   0  0  0  0  0  0  0  0  0  0  0  0
    1.8535    1.0212   -2.5831 C   0  0  0  0  0  0  0  0  0  0  0  0
    0.5520    0.9374   -2.7829 N   0  0  0  0  0  0  0  0  0  0  0  0
    0.1213    2.2228   -3.0049 C   0  0  0  0  0  0  0  0  0  0  0  0
   -1.1601    2.6952   -3.3144 C   0  0  0  0  0  0  0  0  0  0  0  0
   -1.3355    4.0670   -3.5311 C   0  0  0  0  0  0  0  0  0  0  0  0
   -0.2593    4.9521   -3.4205 C   0  0  0  0  0  0  0  0  0  0  0  0
    1.0233    4.5005   -3.0892 C   0  0  0  0  0  0  0  0  0  0  0  0
    1.1728    3.1259   -2.8978 C   0  0  0  0  0  0  0  0  0  0  0  0
    2.2581    2.3388   -2.6071 N   0  0  0  0  0  0  0  0  0  0  0  0
    3.5975   -0.4061   -3.5969 C   0  0  0  0  0  0  0  0  0  0  0  0
    3.3584    0.0270   -4.7218 O   0  0  0  0  0  0  0  0  0  0  0  0
    4.6273   -1.2838   -3.4221 N   0  0  0  0  0  0  0  0  0  0  0  0
    4.9974   -1.7967   -2.1843 C   0  0  0  0  0  0  0  0  0  0  0  0
    6.0816   -2.6853   -2.1296 C   0  0  0  0  0  0  0  0  0  0  0  0
    6.4783   -3.2227   -0.9094 C   0  0  0  0  0  0  0  0  0  0  0  0
    5.7890   -2.8784    0.2461 C   0  0  0  0  0  0  0  0  0  0  0  0
    4.7036   -1.9987    0.1843 C   0  0  0  0  0  0  0  0  0  0  0  0
    4.2910   -1.4226   -1.0330 C   0  0  0  0  0  0  0  0  0  0  0  0
    1.0306    0.5288    1.3646 H   0  0  0  0  0  0  0  0  0  0  0  0
    0.4599    0.1536   -0.2583 H   0  0  0  0  0  0  0  0  0  0  0  0
    1.4121    1.6459    0.0602 H   0  0  0  0  0  0  0  0  0  0  0  0
    3.1442   -0.1289    0.8761 H   0  0  0  0  0  0  0  0  0  0  0  0
   -1.9872    1.9989   -3.4048 H   0  0  0  0  0  0  0  0  0  0  0  0
   -2.3197    4.4428   -3.7986 H   0  0  0  0  0  0  0  0  0  0  0  0
   -0.4208    6.0119   -3.6063 H   0  0  0  0  0  0  0  0  0  0  0  0
    1.8594    5.1877   -3.0103 H   0  0  0  0  0  0  0  0  0  0  0  0
    3.2000    2.6654   -2.4555 H   0  0  0  0  0  0  0  0  0  0  0  0
    5.1161   -1.5560   -4.2633 H   0  0  0  0  0  0  0  0  0  0  0  0
    6.6184   -2.9662   -3.0321 H   0  0  0  0  0  0  0  0  0  0  0  0
    7.3151   -3.9148   -0.8610 H   0  0  0  0  0  0  0  0  0  0  0  0
    6.0889   -3.3016    1.2040 H   0  0  0  0  0  0  0  0  0  0  0  0
    4.1856   -1.7923    1.1160 H   0  0  0  0  0  0  0  0  0  0  0  0
  1  2  1  0  0  0  0
  1 23  1  0  0  0  0
  1 24  1  0  0  0  0
  1 25  1  0  0  0  0
  2  3  1  0  0  0  0
  2 26  1  0  0  0  0
  3  4  2  0  0  0  0
  3 22  1  0  0  0  0
  4  5  1  0  0  0  0
  4 14  1  0  0  0  0
  5  6  2  0  0  0  0
  5 13  1  0  0  0  0
  6  7  1  0  0  0  0
  7  8  1  0  0  0  0
  7 12  2  0  0  0  0
  8  9  2  0  0  0  0
  8 27  1  0  0  0  0
  9 10  1  0  0  0  0
  9 28  1  0  0  0  0
 10 11  2  0  0  0  0
 10 29  1  0  0  0  0
 11 12  1  0  0  0  0
 11 30  1  0  0  0  0
 12 13  1  0  0  0  0
 13 31  1  0  0  0  0
 14 15  2  0  0  0  0
 14 16  1  0  0  0  0
 16 17  1  0  0  0  0
 16 32  1  0  0  0  0
 17 18  1  0  0  0  0
 17 22  2  0  0  0  0
 18 19  2  0  0  0  0
 18 33  1  0  0  0  0
 19 20  1  0  0  0  0
 19 34  1  0  0  0  0
 20 21  2  0  0  0  0
 20 35  1  0  0  0  0
 21 22  1  0  0  0  0
 21 36  1  0  0  0  0
M  END
$$$$
