CHEMBL3969405
 OpenBabel04072215373D

 61 64  0  0  1  0  0  0  0  0999 V2000
    3.3602   -4.7103   -3.2144 C   0  0  0  0  0  0  0  0  0  0  0  0
    3.9660   -4.6995   -1.9241 O   0  0  0  0  0  0  0  0  0  0  0  0
    4.3953   -3.4809   -1.4577 C   0  0  0  0  0  0  0  0  0  0  0  0
    3.9992   -2.2530   -1.9872 C   0  0  0  0  0  0  0  0  0  0  0  0
    4.4498   -1.0832   -1.3919 C   0  0  0  0  0  0  0  0  0  0  0  0
    4.0940    0.1847   -1.7768 O   0  0  0  0  0  0  0  0  0  0  0  0
    2.9349    0.3034   -2.6006 C   0  0  0  0  0  0  0  0  0  0  0  0
    5.3524   -1.1542   -0.3143 C   0  0  0  0  0  0  0  0  0  0  0  0
    5.8159   -2.3776    0.2237 C   0  0  0  0  0  0  0  0  0  0  0  0
    6.7160   -2.4654    1.3228 N   0  0  0  0  0  0  0  0  0  0  0  0
    6.9894   -1.1689    2.1061 C   0  0  0  0  0  0  0  0  0  0  0  0
    5.8752   -0.6255    3.0458 C   0  0  1  0  0  0  0  0  0  0  0  0
    5.2636   -1.5645    3.9835 O   0  0  0  0  0  0  0  0  0  0  0  0
    5.8975   -1.8833    5.1431 C   0  0  0  0  0  0  0  0  0  0  0  0
    4.9489   -2.5218    6.1189 C   0  0  0  0  0  0  0  0  0  0  0  0
    7.0844   -1.6860    5.3580 O   0  0  0  0  0  0  0  0  0  0  0  0
    6.3556    0.6980    3.7079 C   0  0  0  0  0  0  0  0  0  0  0  0
    7.6002    1.0549    3.3163 F   0  0  0  0  0  0  0  0  0  0  0  0
    5.5318    1.7169    3.3479 F   0  0  0  0  0  0  0  0  0  0  0  0
    6.3454    0.6849    5.0578 F   0  0  0  0  0  0  0  0  0  0  0  0
    7.7995   -3.3951    1.5582 C   0  0  0  0  0  0  0  0  0  0  0  0
    8.1614   -3.5152    2.8915 C   0  0  0  0  0  0  0  0  0  0  0  0
    9.4779   -3.7067    3.2379 C   0  0  0  0  0  0  0  0  0  0  0  0
   10.3871   -4.1284    2.3247 C   0  0  0  0  0  0  0  0  0  0  0  0
   11.6280   -4.1402    2.8085 N   0  0  0  0  0  0  0  0  0  0  0  0
   12.4915   -4.9037    2.1561 C   0  0  0  0  0  0  0  0  0  0  0  0
   12.1075   -5.6786    1.0829 C   0  0  0  0  0  0  0  0  0  0  0  0
   12.9842   -6.8191    0.8321 C   0  0  0  0  0  0  0  0  0  0  0  0
   12.8417   -8.1783    1.2242 C   0  0  0  0  0  0  0  0  0  0  0  0
   13.9737   -8.8836    1.0864 N   0  0  0  0  0  0  0  0  0  0  0  0
   14.8500   -7.9756    0.6263 N   0  0  0  0  0  0  0  0  0  0  0  0
   16.1126   -8.3842    0.0577 C   0  0  0  0  0  0  0  0  0  0  0  0
   14.3527   -6.7034    0.6374 C   0  0  0  0  0  0  0  0  0  0  0  0
   10.8780   -5.4989    0.4634 N   0  0  0  0  0  0  0  0  0  0  0  0
    9.9696   -4.6215    1.0774 C   0  0  0  0  0  0  0  0  0  0  0  0
    8.6454   -4.1035    0.6583 C   0  0  0  0  0  0  0  0  0  0  0  0
    5.2708   -3.5340   -0.3540 C   0  0  0  0  0  0  0  0  0  0  0  0
    3.1874   -5.7523   -3.4977 H   0  0  0  0  0  0  0  0  0  0  0  0
    4.0233   -4.2657   -3.9650 H   0  0  0  0  0  0  0  0  0  0  0  0
    2.3873   -4.2062   -3.2031 H   0  0  0  0  0  0  0  0  0  0  0  0
    3.3374   -2.2086   -2.8424 H   0  0  0  0  0  0  0  0  0  0  0  0
    2.7052    1.3681   -2.7124 H   0  0  0  0  0  0  0  0  0  0  0  0
    2.0664   -0.1761   -2.1352 H   0  0  0  0  0  0  0  0  0  0  0  0
    3.1162   -0.0999   -3.6025 H   0  0  0  0  0  0  0  0  0  0  0  0
    5.6752   -0.1983    0.0815 H   0  0  0  0  0  0  0  0  0  0  0  0
    7.2727   -0.3902    1.3861 H   0  0  0  0  0  0  0  0  0  0  0  0
    7.8969   -1.2453    2.7156 H   0  0  0  0  0  0  0  0  0  0  0  0
    5.0309   -0.3407    2.4099 H   0  0  0  0  0  0  0  0  0  0  0  0
    3.9185   -2.2162    5.9036 H   0  0  0  0  0  0  0  0  0  0  0  0
    5.1787   -2.1726    7.1304 H   0  0  0  0  0  0  0  0  0  0  0  0
    5.0232   -3.6092    6.0711 H   0  0  0  0  0  0  0  0  0  0  0  0
    7.4869   -3.2448    3.6655 H   0  0  0  0  0  0  0  0  0  0  0  0
    9.7950   -3.4923    4.2477 H   0  0  0  0  0  0  0  0  0  0  0  0
   13.4747   -4.9612    2.6103 H   0  0  0  0  0  0  0  0  0  0  0  0
   11.9792   -8.6763    1.6501 H   0  0  0  0  0  0  0  0  0  0  0  0
   16.1704   -9.4749    0.0252 H   0  0  0  0  0  0  0  0  0  0  0  0
   16.9330   -7.9729    0.6503 H   0  0  0  0  0  0  0  0  0  0  0  0
   16.1458   -7.9882   -0.9615 H   0  0  0  0  0  0  0  0  0  0  0  0
   14.9994   -5.8496    0.4891 H   0  0  0  0  0  0  0  0  0  0  0  0
    8.3513   -4.2342   -0.3807 H   0  0  0  0  0  0  0  0  0  0  0  0
    5.5028   -4.5064    0.0738 H   0  0  0  0  0  0  0  0  0  0  0  0
  1  2  1  0  0  0  0
  1 38  1  0  0  0  0
  1 39  1  0  0  0  0
  1 40  1  0  0  0  0
  2  3  1  0  0  0  0
  3  4  1  0  0  0  0
  3 37  2  0  0  0  0
  4  5  2  0  0  0  0
  4 41  1  0  0  0  0
  5  6  1  0  0  0  0
  5  8  1  0  0  0  0
  6  7  1  0  0  0  0
  7 42  1  0  0  0  0
  7 43  1  0  0  0  0
  7 44  1  0  0  0  0
  8  9  2  0  0  0  0
  8 45  1  0  0  0  0
  9 10  1  0  0  0  0
  9 37  1  0  0  0  0
 10 11  1  0  0  0  0
 10 21  1  0  0  0  0
 11 12  1  0  0  0  0
 11 46  1  0  0  0  0
 11 47  1  0  0  0  0
 12 13  1  0  0  0  0
 12 17  1  0  0  0  0
 12 48  1  6  0  0  0
 13 14  1  0  0  0  0
 14 15  1  0  0  0  0
 14 16  2  0  0  0  0
 15 49  1  0  0  0  0
 15 50  1  0  0  0  0
 15 51  1  0  0  0  0
 17 18  1  0  0  0  0
 17 19  1  0  0  0  0
 17 20  1  0  0  0  0
 21 22  1  0  0  0  0
 21 36  2  0  0  0  0
 22 23  2  0  0  0  0
 22 52  1  0  0  0  0
 23 24  1  0  0  0  0
 23 53  1  0  0  0  0
 24 25  1  0  0  0  0
 24 35  2  0  0  0  0
 25 26  2  0  0  0  0
 26 27  1  0  0  0  0
 26 54  1  0  0  0  0
 27 28  1  0  0  0  0
 27 34  2  0  0  0  0
 28 29  1  0  0  0  0
 28 33  2  0  0  0  0
 29 30  2  0  0  0  0
 29 55  1  0  0  0  0
 30 31  1  0  0  0  0
 31 32  1  0  0  0  0
 31 33  1  0  0  0  0
 32 56  1  0  0  0  0
 32 57  1  0  0  0  0
 32 58  1  0  0  0  0
 33 59  1  0  0  0  0
 34 35  1  0  0  0  0
 35 36  1  0  0  0  0
 36 60  1  0  0  0  0
 37 61  1  0  0  0  0
M  END
$$$$
