CHEMBL245934
 OpenBabel04072215363D

 49 53  0  0  0  0  0  0  0  0999 V2000
    6.4978    0.8811   -4.2598 O   0  0  0  0  0  0  0  0  0  0  0  0
    6.4535   -0.5378   -4.1868 C   0  0  0  0  0  0  0  0  0  0  0  0
    7.7281   -1.0664   -3.5135 C   0  0  0  0  0  0  0  0  0  0  0  0
    7.7432   -2.5958   -3.4625 C   0  0  0  0  0  0  0  0  0  0  0  0
    6.7202   -3.1511   -2.4676 C   0  0  0  0  0  0  0  0  0  0  0  0
    6.9186   -2.6109   -1.1130 N   0  0  0  0  0  0  0  0  0  0  0  0
    5.8816   -3.1075   -0.1831 C   0  0  0  0  0  0  0  0  0  0  0  0
    5.8400   -4.6104   -0.0121 C   0  0  0  0  0  0  0  0  0  0  0  0
    4.6529   -5.3206   -0.2981 C   0  0  0  0  0  0  0  0  0  0  0  0
    4.5546   -6.7157   -0.1228 C   0  0  0  0  0  0  0  0  0  0  0  0
    5.6419   -7.4559    0.3345 C   0  0  0  0  0  0  0  0  0  0  0  0
    6.8043   -6.7647    0.5883 C   0  0  0  0  0  0  0  0  0  0  0  0
    6.9301   -5.3560    0.4341 C   0  0  0  0  0  0  0  0  0  0  0  0
    8.3418   -4.8423    0.7697 C   0  0  0  0  0  0  0  0  0  0  0  0
    8.9737   -6.1613    1.0636 C   0  0  0  0  0  0  0  0  0  0  0  0
    8.0859   -7.2415    0.9741 C   0  0  0  0  0  0  0  0  0  0  0  0
    8.6416   -8.4257    1.1804 N   0  0  0  0  0  0  0  0  0  0  0  0
    9.9376   -8.0861    1.3972 N   0  0  0  0  0  0  0  0  0  0  0  0
   10.1900   -6.7308    1.3380 C   0  0  0  0  0  0  0  0  0  0  0  0
   11.5117   -6.0697    1.5090 C   0  0  0  0  0  0  0  0  0  0  0  0
   11.7370   -4.6603    1.5085 C   0  0  0  0  0  0  0  0  0  0  0  0
   13.0651   -4.3430    1.6938 C   0  0  0  0  0  0  0  0  0  0  0  0
   14.0427   -5.7355    1.8542 S   0  0  0  0  0  0  0  0  0  0  0  0
   12.6865   -6.7704    1.6867 C   0  0  0  0  0  0  0  0  0  0  0  0
    6.9097   -1.1359   -1.1050 C   0  0  0  0  0  0  0  0  0  0  0  0
    7.9148   -0.5317   -2.0888 C   0  0  0  0  0  0  0  0  0  0  0  0
    5.6855    1.1701   -4.7100 H   0  0  0  0  0  0  0  0  0  0  0  0
    6.3752   -0.9279   -5.2072 H   0  0  0  0  0  0  0  0  0  0  0  0
    5.5469   -0.8190   -3.6439 H   0  0  0  0  0  0  0  0  0  0  0  0
    8.5825   -0.7218   -4.1109 H   0  0  0  0  0  0  0  0  0  0  0  0
    8.7459   -2.9348   -3.1689 H   0  0  0  0  0  0  0  0  0  0  0  0
    7.5527   -3.0136   -4.4580 H   0  0  0  0  0  0  0  0  0  0  0  0
    6.8430   -4.2403   -2.4596 H   0  0  0  0  0  0  0  0  0  0  0  0
    5.7030   -2.9483   -2.8243 H   0  0  0  0  0  0  0  0  0  0  0  0
    4.8941   -2.7513   -0.5083 H   0  0  0  0  0  0  0  0  0  0  0  0
    6.0452   -2.6799    0.8151 H   0  0  0  0  0  0  0  0  0  0  0  0
    3.7807   -4.7882   -0.6755 H   0  0  0  0  0  0  0  0  0  0  0  0
    3.6204   -7.2228   -0.3562 H   0  0  0  0  0  0  0  0  0  0  0  0
    5.5876   -8.5309    0.4680 H   0  0  0  0  0  0  0  0  0  0  0  0
    8.3225   -4.1906    1.6470 H   0  0  0  0  0  0  0  0  0  0  0  0
    8.8094   -4.3640   -0.0937 H   0  0  0  0  0  0  0  0  0  0  0  0
   10.6017   -8.8322    1.5625 H   0  0  0  0  0  0  0  0  0  0  0  0
   10.9717   -3.9056    1.3879 H   0  0  0  0  0  0  0  0  0  0  0  0
   13.5081   -3.3588    1.7410 H   0  0  0  0  0  0  0  0  0  0  0  0
   12.8431   -7.8386    1.7214 H   0  0  0  0  0  0  0  0  0  0  0  0
    7.1715   -0.7802   -0.1004 H   0  0  0  0  0  0  0  0  0  0  0  0
    5.9066   -0.7501   -1.3265 H   0  0  0  0  0  0  0  0  0  0  0  0
    8.9325   -0.7703   -1.7503 H   0  0  0  0  0  0  0  0  0  0  0  0
    7.8360    0.5619   -2.0709 H   0  0  0  0  0  0  0  0  0  0  0  0
  1  2  1  0  0  0  0
  1 27  1  0  0  0  0
  2  3  1  0  0  0  0
  2 28  1  0  0  0  0
  2 29  1  0  0  0  0
  3  4  1  0  0  0  0
  3 26  1  0  0  0  0
  3 30  1  0  0  0  0
  4  5  1  0  0  0  0
  4 31  1  0  0  0  0
  4 32  1  0  0  0  0
  5  6  1  0  0  0  0
  5 33  1  0  0  0  0
  5 34  1  0  0  0  0
  6  7  1  0  0  0  0
  6 25  1  0  0  0  0
  7  8  1  0  0  0  0
  7 35  1  0  0  0  0
  7 36  1  0  0  0  0
  8  9  1  0  0  0  0
  8 13  2  0  0  0  0
  9 10  2  0  0  0  0
  9 37  1  0  0  0  0
 10 11  1  0  0  0  0
 10 38  1  0  0  0  0
 11 12  2  0  0  0  0
 11 39  1  0  0  0  0
 12 13  1  0  0  0  0
 12 16  1  0  0  0  0
 13 14  1  0  0  0  0
 14 15  1  0  0  0  0
 14 40  1  0  0  0  0
 14 41  1  0  0  0  0
 15 16  1  0  0  0  0
 15 19  2  0  0  0  0
 16 17  2  0  0  0  0
 17 18  1  0  0  0  0
 18 19  1  0  0  0  0
 18 42  1  0  0  0  0
 19 20  1  0  0  0  0
 20 21  1  0  0  0  0
 20 24  2  0  0  0  0
 21 22  2  0  0  0  0
 21 43  1  0  0  0  0
 22 23  1  0  0  0  0
 22 44  1  0  0  0  0
 23 24  1  0  0  0  0
 24 45  1  0  0  0  0
 25 26  1  0  0  0  0
 25 46  1  0  0  0  0
 25 47  1  0  0  0  0
 26 48  1  0  0  0  0
 26 49  1  0  0  0  0
M  END
$$$$
