CHEMBL1969834
 OpenBabel04072215363D

 68 74  0  0  0  0  0  0  0  0999 V2000
   -0.9796    3.0233   -0.0521 O   0  0  0  0  0  0  0  0  0  0  0  0
   -1.1209    3.8155   -0.9748 C   0  0  0  0  0  0  0  0  0  0  0  0
   -0.5362    3.7254   -2.2259 N   0  0  0  0  0  0  0  0  0  0  0  0
    0.3048    2.6908   -2.6834 C   0  0  0  0  0  0  0  0  0  0  0  0
    0.4862    1.4857   -2.0077 C   0  0  0  0  0  0  0  0  0  0  0  0
    1.3878    0.5344   -2.4871 C   0  0  0  0  0  0  0  0  0  0  0  0
    2.1087    0.7780   -3.6545 C   0  0  0  0  0  0  0  0  0  0  0  0
    1.9088    1.9618   -4.3733 C   0  0  0  0  0  0  0  0  0  0  0  0
    2.6313    2.2024   -5.6273 C   0  0  0  0  0  0  0  0  0  0  0  0
    2.8345    1.1919   -6.4868 N   0  0  0  0  0  0  0  0  0  0  0  0
    3.4266    1.7417   -7.5689 N   0  0  0  0  0  0  0  0  0  0  0  0
    3.7893    1.0776   -8.7450 C   0  0  0  0  0  0  0  0  0  0  0  0
    4.3528    1.7520   -9.7607 C   0  0  0  0  0  0  0  0  0  0  0  0
    4.5845    3.1748   -9.6039 C   0  0  0  0  0  0  0  0  0  0  0  0
    4.2625    3.8193   -8.4712 C   0  0  0  0  0  0  0  0  0  0  0  0
    3.6385    3.1123   -7.3960 C   0  0  0  0  0  0  0  0  0  0  0  0
    3.1493    3.4338   -6.1410 C   0  0  0  0  0  0  0  0  0  0  0  0
    3.1719    4.7581   -5.5335 C   0  0  0  0  0  0  0  0  0  0  0  0
    2.9889    5.8965   -6.2846 C   0  0  0  0  0  0  0  0  0  0  0  0
    2.9993    7.0747   -5.5941 C   0  0  0  0  0  0  0  0  0  0  0  0
    3.1340    7.1330   -4.2660 N   0  0  0  0  0  0  0  0  0  0  0  0
    3.2812    5.9796   -3.5937 C   0  0  0  0  0  0  0  0  0  0  0  0
    3.3648    6.0227   -2.2025 N   0  0  0  0  0  0  0  0  0  0  0  0
    4.0067    7.0261   -1.4564 C   0  0  0  0  0  0  0  0  0  0  0  0
    3.6230    7.2772   -0.1373 C   0  0  0  0  0  0  0  0  0  0  0  0
    4.1703    8.3559    0.5686 C   0  0  0  0  0  0  0  0  0  0  0  0
    5.1565    9.1618   -0.0155 C   0  0  0  0  0  0  0  0  0  0  0  0
    5.6283    8.8462   -1.2963 C   0  0  0  0  0  0  0  0  0  0  0  0
    5.0181    7.8181   -2.0170 C   0  0  0  0  0  0  0  0  0  0  0  0
    6.7814    9.6023   -1.9020 C   0  0  0  0  0  0  0  0  0  0  0  0
    7.6758   10.1261   -0.8614 N   0  0  0  0  0  0  0  0  0  0  0  0
    6.9042   11.0310   -0.0022 C   0  0  0  0  0  0  0  0  0  0  0  0
    5.7329   10.3436    0.7271 C   0  0  0  0  0  0  0  0  0  0  0  0
    3.3116    4.7849   -4.1907 N   0  0  0  0  0  0  0  0  0  0  0  0
    0.9860    2.9008   -3.8858 C   0  0  0  0  0  0  0  0  0  0  0  0
   -1.9688    5.0036   -0.7537 C   0  0  0  0  0  0  0  0  0  0  0  0
   -2.0037    5.5989    0.5125 C   0  0  0  0  0  0  0  0  0  0  0  0
   -1.2327    5.1541    1.5123 F   0  0  0  0  0  0  0  0  0  0  0  0
   -2.8190    6.6990    0.7546 C   0  0  0  0  0  0  0  0  0  0  0  0
   -3.6198    7.2199   -0.2590 C   0  0  0  0  0  0  0  0  0  0  0  0
   -3.5910    6.6319   -1.5274 C   0  0  0  0  0  0  0  0  0  0  0  0
   -2.7667    5.5305   -1.7608 C   0  0  0  0  0  0  0  0  0  0  0  0
   -2.7688    4.9957   -2.9916 F   0  0  0  0  0  0  0  0  0  0  0  0
   -0.6590    4.5065   -2.8600 H   0  0  0  0  0  0  0  0  0  0  0  0
   -0.0741    1.2502   -1.1089 H   0  0  0  0  0  0  0  0  0  0  0  0
    1.5211   -0.3967   -1.9440 H   0  0  0  0  0  0  0  0  0  0  0  0
    2.8223    0.0366   -4.0063 H   0  0  0  0  0  0  0  0  0  0  0  0
    3.5890    0.0140   -8.7702 H   0  0  0  0  0  0  0  0  0  0  0  0
    4.6497    1.2644  -10.6828 H   0  0  0  0  0  0  0  0  0  0  0  0
    5.0414    3.7080  -10.4328 H   0  0  0  0  0  0  0  0  0  0  0  0
    4.4781    4.8787   -8.3890 H   0  0  0  0  0  0  0  0  0  0  0  0
    2.8218    5.8917   -7.3511 H   0  0  0  0  0  0  0  0  0  0  0  0
    2.8839    8.0303   -6.0943 H   0  0  0  0  0  0  0  0  0  0  0  0
    3.4002    5.0937   -1.8054 H   0  0  0  0  0  0  0  0  0  0  0  0
    2.8592    6.6643    0.3350 H   0  0  0  0  0  0  0  0  0  0  0  0
    3.8225    8.5607    1.5786 H   0  0  0  0  0  0  0  0  0  0  0  0
    5.3574    7.6243   -3.0324 H   0  0  0  0  0  0  0  0  0  0  0  0
    6.4098   10.4117   -2.5417 H   0  0  0  0  0  0  0  0  0  0  0  0
    7.3681    8.9285   -2.5377 H   0  0  0  0  0  0  0  0  0  0  0  0
    7.9818    9.3284   -0.3004 H   0  0  0  0  0  0  0  0  0  0  0  0
    6.5308   11.8639   -0.6120 H   0  0  0  0  0  0  0  0  0  0  0  0
    7.5747   11.4812    0.7383 H   0  0  0  0  0  0  0  0  0  0  0  0
    4.9383   11.0849    0.8811 H   0  0  0  0  0  0  0  0  0  0  0  0
    6.0744   10.0024    1.7106 H   0  0  0  0  0  0  0  0  0  0  0  0
    0.8180    3.8235   -4.4336 H   0  0  0  0  0  0  0  0  0  0  0  0
   -2.8243    7.1447    1.7478 H   0  0  0  0  0  0  0  0  0  0  0  0
   -4.2584    8.0762   -0.0704 H   0  0  0  0  0  0  0  0  0  0  0  0
   -4.2092    7.0215   -2.3305 H   0  0  0  0  0  0  0  0  0  0  0  0
  1  2  2  0  0  0  0
  2  3  1  0  0  0  0
  2 36  1  0  0  0  0
  3  4  1  0  0  0  0
  3 44  1  0  0  0  0
  4  5  1  0  0  0  0
  4 35  2  0  0  0  0
  5  6  2  0  0  0  0
  5 45  1  0  0  0  0
  6  7  1  0  0  0  0
  6 46  1  0  0  0  0
  7  8  2  0  0  0  0
  7 47  1  0  0  0  0
  8  9  1  0  0  0  0
  8 35  1  0  0  0  0
  9 10  2  0  0  0  0
  9 17  1  0  0  0  0
 10 11  1  0  0  0  0
 11 12  1  0  0  0  0
 11 16  1  0  0  0  0
 12 13  2  0  0  0  0
 12 48  1  0  0  0  0
 13 14  1  0  0  0  0
 13 49  1  0  0  0  0
 14 15  2  0  0  0  0
 14 50  1  0  0  0  0
 15 16  1  0  0  0  0
 15 51  1  0  0  0  0
 16 17  2  0  0  0  0
 17 18  1  0  0  0  0
 18 19  1  0  0  0  0
 18 34  2  0  0  0  0
 19 20  2  0  0  0  0
 19 52  1  0  0  0  0
 20 21  1  0  0  0  0
 20 53  1  0  0  0  0
 21 22  2  0  0  0  0
 22 23  1  0  0  0  0
 22 34  1  0  0  0  0
 23 24  1  0  0  0  0
 23 54  1  0  0  0  0
 24 25  1  0  0  0  0
 24 29  2  0  0  0  0
 25 26  2  0  0  0  0
 25 55  1  0  0  0  0
 26 27  1  0  0  0  0
 26 56  1  0  0  0  0
 27 28  2  0  0  0  0
 27 33  1  0  0  0  0
 28 29  1  0  0  0  0
 28 30  1  0  0  0  0
 29 57  1  0  0  0  0
 30 31  1  0  0  0  0
 30 58  1  0  0  0  0
 30 59  1  0  0  0  0
 31 32  1  0  0  0  0
 31 60  1  0  0  0  0
 32 33  1  0  0  0  0
 32 61  1  0  0  0  0
 32 62  1  0  0  0  0
 33 63  1  0  0  0  0
 33 64  1  0  0  0  0
 35 65  1  0  0  0  0
 36 37  1  0  0  0  0
 36 42  2  0  0  0  0
 37 38  1  0  0  0  0
 37 39  2  0  0  0  0
 39 40  1  0  0  0  0
 39 66  1  0  0  0  0
 40 41  2  0  0  0  0
 40 67  1  0  0  0  0
 41 42  1  0  0  0  0
 41 68  1  0  0  0  0
 42 43  1  0  0  0  0
M  END
$$$$
