CHEMBL2409782
 OpenBabel04072215363D

 55 59  0  0  0  0  0  0  0  0999 V2000
   -2.1937    0.7316    0.1475 C   0  0  0  0  0  0  0  0  0  0  0  0
   -1.9098   -0.6733   -0.2283 C   0  0  0  0  0  0  0  0  0  0  0  0
   -0.7221   -1.4294   -0.0638 C   0  0  0  0  0  0  0  0  0  0  0  0
   -1.0156   -2.7086   -0.5184 C   0  0  0  0  0  0  0  0  0  0  0  0
   -0.2314   -3.9334   -0.5482 C   0  0  0  0  0  0  0  0  0  0  0  0
   -0.7056   -4.9722   -0.9983 O   0  0  0  0  0  0  0  0  0  0  0  0
    1.0463   -3.8720   -0.0007 N   0  0  0  0  0  0  0  0  0  0  0  0
    2.0000   -4.9328   -0.0138 C   0  0  0  0  0  0  0  0  0  0  0  0
    1.8781   -6.0231   -0.8925 C   0  0  0  0  0  0  0  0  0  0  0  0
    2.8026   -7.0711   -0.8999 C   0  0  0  0  0  0  0  0  0  0  0  0
    2.5737   -8.0748   -1.8127 O   0  0  0  0  0  0  0  0  0  0  0  0
    2.9299   -9.3821   -1.4838 C   0  0  0  0  0  0  0  0  0  0  0  0
    3.1655  -10.2115   -2.5756 C   0  0  0  0  0  0  0  0  0  0  0  0
    3.5316  -11.5377   -2.3522 C   0  0  0  0  0  0  0  0  0  0  0  0
    3.6365  -11.9713   -1.0224 C   0  0  0  0  0  0  0  0  0  0  0  0
    3.9773  -13.2274   -0.5730 N   0  0  0  0  0  0  0  0  0  0  0  0
    3.9645  -13.2329    0.7345 C   0  0  0  0  0  0  0  0  0  0  0  0
    4.1955  -14.2816    1.5825 N   0  0  0  0  0  0  0  0  0  0  0  0
    4.2355  -15.5724    1.1153 C   0  0  0  0  0  0  0  0  0  0  0  0
    4.0708  -15.9555   -0.0333 O   0  0  0  0  0  0  0  0  0  0  0  0
    4.4345  -16.5779    2.2041 C   0  0  0  0  0  0  0  0  0  0  0  0
    4.5045  -18.0543    1.8787 C   0  0  0  0  0  0  0  0  0  0  0  0
    3.2936  -17.5008    2.5695 C   0  0  0  0  0  0  0  0  0  0  0  0
    3.6077  -11.7533    1.5124 S   0  0  0  0  0  0  0  0  0  0  0  0
    3.3677  -11.0421   -0.0217 C   0  0  0  0  0  0  0  0  0  0  0  0
    2.9960   -9.7570   -0.1834 N   0  0  0  0  0  0  0  0  0  0  0  0
    3.9212   -7.0026   -0.0807 C   0  0  0  0  0  0  0  0  0  0  0  0
    4.0673   -5.9309    0.7967 C   0  0  0  0  0  0  0  0  0  0  0  0
    3.1109   -4.8973    0.8545 C   0  0  0  0  0  0  0  0  0  0  0  0
    3.3265   -3.8065    1.8661 C   0  0  0  0  0  0  0  0  0  0  0  0
   -2.3117   -2.6089   -0.9937 N   0  0  0  0  0  0  0  0  0  0  0  0
   -3.1448   -3.5978   -1.6399 C   0  0  0  0  0  0  0  0  0  0  0  0
   -2.8695   -1.4000   -0.7960 N   0  0  0  0  0  0  0  0  0  0  0  0
   -1.3121    1.2223    0.5683 H   0  0  0  0  0  0  0  0  0  0  0  0
   -2.9931    0.7667    0.8966 H   0  0  0  0  0  0  0  0  0  0  0  0
   -2.5231    1.3066   -0.7251 H   0  0  0  0  0  0  0  0  0  0  0  0
    0.2058   -1.0721    0.3571 H   0  0  0  0  0  0  0  0  0  0  0  0
    1.2783   -3.0521    0.5384 H   0  0  0  0  0  0  0  0  0  0  0  0
    1.0682   -6.0868   -1.6121 H   0  0  0  0  0  0  0  0  0  0  0  0
    3.0750   -9.8291   -3.5869 H   0  0  0  0  0  0  0  0  0  0  0  0
    3.7365  -12.2201   -3.1693 H   0  0  0  0  0  0  0  0  0  0  0  0
    4.2171  -14.0867    2.5709 H   0  0  0  0  0  0  0  0  0  0  0  0
    5.0781  -16.2496    3.0147 H   0  0  0  0  0  0  0  0  0  0  0  0
    5.1842  -18.6724    2.4528 H   0  0  0  0  0  0  0  0  0  0  0  0
    4.4034  -18.3590    0.8411 H   0  0  0  0  0  0  0  0  0  0  0  0
    3.1480  -17.7492    3.6138 H   0  0  0  0  0  0  0  0  0  0  0  0
    2.3770  -17.4413    1.9915 H   0  0  0  0  0  0  0  0  0  0  0  0
    4.6781   -7.7808   -0.1018 H   0  0  0  0  0  0  0  0  0  0  0  0
    4.9351   -5.9203    1.4530 H   0  0  0  0  0  0  0  0  0  0  0  0
    4.1250   -4.0710    2.5697 H   0  0  0  0  0  0  0  0  0  0  0  0
    2.4224   -3.6502    2.4623 H   0  0  0  0  0  0  0  0  0  0  0  0
    3.6118   -2.8759    1.3680 H   0  0  0  0  0  0  0  0  0  0  0  0
   -2.5831   -4.4636   -1.9774 H   0  0  0  0  0  0  0  0  0  0  0  0
   -3.6012   -3.1355   -2.5208 H   0  0  0  0  0  0  0  0  0  0  0  0
   -3.9193   -3.9016   -0.9305 H   0  0  0  0  0  0  0  0  0  0  0  0
  1  2  1  0  0  0  0
  1 34  1  0  0  0  0
  1 35  1  0  0  0  0
  1 36  1  0  0  0  0
  2  3  1  0  0  0  0
  2 33  2  0  0  0  0
  3  4  2  0  0  0  0
  3 37  1  0  0  0  0
  4  5  1  0  0  0  0
  4 31  1  0  0  0  0
  5  6  2  0  0  0  0
  5  7  1  0  0  0  0
  7  8  1  0  0  0  0
  7 38  1  0  0  0  0
  8  9  1  0  0  0  0
  8 29  2  0  0  0  0
  9 10  2  0  0  0  0
  9 39  1  0  0  0  0
 10 11  1  0  0  0  0
 10 27  1  0  0  0  0
 11 12  1  0  0  0  0
 12 13  1  0  0  0  0
 12 26  2  0  0  0  0
 13 14  2  0  0  0  0
 13 40  1  0  0  0  0
 14 15  1  0  0  0  0
 14 41  1  0  0  0  0
 15 16  1  0  0  0  0
 15 25  2  0  0  0  0
 16 17  2  0  0  0  0
 17 18  1  0  0  0  0
 17 24  1  0  0  0  0
 18 19  1  0  0  0  0
 18 42  1  0  0  0  0
 19 20  2  0  0  0  0
 19 21  1  0  0  0  0
 21 22  1  0  0  0  0
 21 23  1  0  0  0  0
 21 43  1  0  0  0  0
 22 23  1  0  0  0  0
 22 44  1  0  0  0  0
 22 45  1  0  0  0  0
 23 46  1  0  0  0  0
 23 47  1  0  0  0  0
 24 25  1  0  0  0  0
 25 26  1  0  0  0  0
 27 28  2  0  0  0  0
 27 48  1  0  0  0  0
 28 29  1  0  0  0  0
 28 49  1  0  0  0  0
 29 30  1  0  0  0  0
 30 50  1  0  0  0  0
 30 51  1  0  0  0  0
 30 52  1  0  0  0  0
 31 32  1  0  0  0  0
 31 33  1  0  0  0  0
 32 53  1  0  0  0  0
 32 54  1  0  0  0  0
 32 55  1  0  0  0  0
M  END
$$$$
