CHEMBL244286
 OpenBabel04072215363D

 53 56  0  0  0  0  0  0  0  0999 V2000
    7.2649    7.3160   -7.8592 C   0  0  0  0  0  0  0  0  0  0  0  0
    6.5146    6.0962   -7.8502 O   0  0  0  0  0  0  0  0  0  0  0  0
    7.2844    4.9922   -7.6140 C   0  0  0  0  0  0  0  0  0  0  0  0
    8.4896    5.0501   -7.4330 O   0  0  0  0  0  0  0  0  0  0  0  0
    6.4699    3.8965   -7.6368 N   0  0  0  0  0  0  0  0  0  0  0  0
    6.9546    2.6334   -7.4129 C   0  0  0  0  0  0  0  0  0  0  0  0
    8.1822    2.3005   -7.1004 N   0  0  0  0  0  0  0  0  0  0  0  0
    8.1949    0.9370   -7.0226 C   0  0  0  0  0  0  0  0  0  0  0  0
    9.2602    0.0830   -6.7178 C   0  0  0  0  0  0  0  0  0  0  0  0
    9.0322   -1.2950   -6.7312 C   0  0  0  0  0  0  0  0  0  0  0  0
    7.7830   -1.8092   -7.1036 C   0  0  0  0  0  0  0  0  0  0  0  0
    7.5342   -3.1617   -7.2292 O   0  0  0  0  0  0  0  0  0  0  0  0
    8.5243   -3.9755   -7.7353 C   0  0  0  0  0  0  0  0  0  0  0  0
    8.5629   -5.2740   -7.2400 C   0  0  0  0  0  0  0  0  0  0  0  0
    9.5701   -6.1517   -7.6516 C   0  0  0  0  0  0  0  0  0  0  0  0
   10.5517   -5.7475   -8.5630 C   0  0  0  0  0  0  0  0  0  0  0  0
   11.6452   -6.5575   -8.9463 N   0  0  0  0  0  0  0  0  0  0  0  0
   11.8575   -7.8707   -8.5724 C   0  0  0  0  0  0  0  0  0  0  0  0
   11.0736   -8.5583   -7.9272 O   0  0  0  0  0  0  0  0  0  0  0  0
   13.0974   -8.3342   -8.9848 N   0  0  0  0  0  0  0  0  0  0  0  0
   13.4688   -9.6766   -8.6995 C   0  0  0  0  0  0  0  0  0  0  0  0
   12.5842  -10.7274   -8.9858 C   0  0  0  0  0  0  0  0  0  0  0  0
   12.9000  -12.0517   -8.6491 C   0  0  0  0  0  0  0  0  0  0  0  0
   11.9460  -13.1800   -8.9606 C   0  0  0  0  0  0  0  0  0  0  0  0
   10.8138  -12.7847   -9.6035 F   0  0  0  0  0  0  0  0  0  0  0  0
   12.5154  -14.1231   -9.7629 F   0  0  0  0  0  0  0  0  0  0  0  0
   11.5342  -13.8412   -7.8443 F   0  0  0  0  0  0  0  0  0  0  0  0
   14.1211  -12.3115   -8.0087 C   0  0  0  0  0  0  0  0  0  0  0  0
   15.0180  -11.2730   -7.7388 C   0  0  0  0  0  0  0  0  0  0  0  0
   14.7026   -9.9621   -8.1023 C   0  0  0  0  0  0  0  0  0  0  0  0
   15.8211   -8.7017   -7.7208 Cl  0  0  0  0  0  0  0  0  0  0  0  0
   10.4688   -4.4613   -9.1045 C   0  0  0  0  0  0  0  0  0  0  0  0
    9.4438   -3.5902   -8.7143 C   0  0  0  0  0  0  0  0  0  0  0  0
    6.6889   -0.9631   -7.3421 C   0  0  0  0  0  0  0  0  0  0  0  0
    6.9395    0.4110   -7.3001 C   0  0  0  0  0  0  0  0  0  0  0  0
    6.1531    1.5205   -7.5047 N   0  0  0  0  0  0  0  0  0  0  0  0
    6.5596    8.1504   -7.8681 H   0  0  0  0  0  0  0  0  0  0  0  0
    7.8796    7.3681   -8.7634 H   0  0  0  0  0  0  0  0  0  0  0  0
    7.8881    7.4075   -6.9634 H   0  0  0  0  0  0  0  0  0  0  0  0
    5.4994    4.0599   -7.8407 H   0  0  0  0  0  0  0  0  0  0  0  0
   10.2383    0.4926   -6.4914 H   0  0  0  0  0  0  0  0  0  0  0  0
    9.8561   -1.9581   -6.4797 H   0  0  0  0  0  0  0  0  0  0  0  0
    7.8243   -5.6098   -6.5169 H   0  0  0  0  0  0  0  0  0  0  0  0
    9.5594   -7.1464   -7.2184 H   0  0  0  0  0  0  0  0  0  0  0  0
   12.2953   -6.1700   -9.6142 H   0  0  0  0  0  0  0  0  0  0  0  0
   13.8443   -7.6564   -8.8893 H   0  0  0  0  0  0  0  0  0  0  0  0
   11.6293  -10.5119   -9.4664 H   0  0  0  0  0  0  0  0  0  0  0  0
   14.3752  -13.3293   -7.7138 H   0  0  0  0  0  0  0  0  0  0  0  0
   15.9526  -11.4920   -7.2281 H   0  0  0  0  0  0  0  0  0  0  0  0
   11.1992   -4.1079   -9.8273 H   0  0  0  0  0  0  0  0  0  0  0  0
    9.3949   -2.6011   -9.1621 H   0  0  0  0  0  0  0  0  0  0  0  0
    5.7089   -1.3660   -7.5754 H   0  0  0  0  0  0  0  0  0  0  0  0
    5.1696    1.5121   -7.7243 H   0  0  0  0  0  0  0  0  0  0  0  0
  1  2  1  0  0  0  0
  1 37  1  0  0  0  0
  1 38  1  0  0  0  0
  1 39  1  0  0  0  0
  2  3  1  0  0  0  0
  3  4  2  0  0  0  0
  3  5  1  0  0  0  0
  5  6  1  0  0  0  0
  5 40  1  0  0  0  0
  6  7  2  0  0  0  0
  6 36  1  0  0  0  0
  7  8  1  0  0  0  0
  8  9  1  0  0  0  0
  8 35  2  0  0  0  0
  9 10  2  0  0  0  0
  9 41  1  0  0  0  0
 10 11  1  0  0  0  0
 10 42  1  0  0  0  0
 11 12  1  0  0  0  0
 11 34  2  0  0  0  0
 12 13  1  0  0  0  0
 13 14  1  0  0  0  0
 13 33  2  0  0  0  0
 14 15  2  0  0  0  0
 14 43  1  0  0  0  0
 15 16  1  0  0  0  0
 15 44  1  0  0  0  0
 16 17  1  0  0  0  0
 16 32  2  0  0  0  0
 17 18  1  0  0  0  0
 17 45  1  0  0  0  0
 18 19  2  0  0  0  0
 18 20  1  0  0  0  0
 20 21  1  0  0  0  0
 20 46  1  0  0  0  0
 21 22  1  0  0  0  0
 21 30  2  0  0  0  0
 22 23  2  0  0  0  0
 22 47  1  0  0  0  0
 23 24  1  0  0  0  0
 23 28  1  0  0  0  0
 24 25  1  0  0  0  0
 24 26  1  0  0  0  0
 24 27  1  0  0  0  0
 28 29  2  0  0  0  0
 28 48  1  0  0  0  0
 29 30  1  0  0  0  0
 29 49  1  0  0  0  0
 30 31  1  0  0  0  0
 32 33  1  0  0  0  0
 32 50  1  0  0  0  0
 33 51  1  0  0  0  0
 34 35  1  0  0  0  0
 34 52  1  0  0  0  0
 35 36  1  0  0  0  0
 36 53  1  0  0  0  0
M  END
$$$$
