CHEMBL462175
 OpenBabel04072215383D

 55 59  0  0  0  0  0  0  0  0999 V2000
   10.6447   -0.7351    1.1331 C   0  0  0  0  0  0  0  0  0  0  0  0
    9.8979   -1.0302    2.3192 O   0  0  0  0  0  0  0  0  0  0  0  0
    9.0930   -2.1383    2.2526 C   0  0  0  0  0  0  0  0  0  0  0  0
    9.4539   -3.2461    1.4711 C   0  0  0  0  0  0  0  0  0  0  0  0
    8.6124   -4.3275    1.2694 C   0  0  0  0  0  0  0  0  0  0  0  0
    9.0239   -5.2855    0.4233 N   0  0  0  0  0  0  0  0  0  0  0  0
    8.1997   -6.3234    0.1854 C   0  0  0  0  0  0  0  0  0  0  0  0
    6.9496   -6.4581    0.7600 C   0  0  0  0  0  0  0  0  0  0  0  0
    6.5074   -5.4406    1.5997 C   0  0  0  0  0  0  0  0  0  0  0  0
    5.2397   -5.4879    2.1604 O   0  0  0  0  0  0  0  0  0  0  0  0
    4.1755   -5.9028    1.3722 C   0  0  0  0  0  0  0  0  0  0  0  0
    3.1626   -6.6280    2.0057 C   0  0  0  0  0  0  0  0  0  0  0  0
    2.0250   -7.0720    1.2986 C   0  0  0  0  0  0  0  0  0  0  0  0
    1.8975   -6.7627   -0.0733 C   0  0  0  0  0  0  0  0  0  0  0  0
    0.9337   -6.9760   -1.1173 C   0  0  0  0  0  0  0  0  0  0  0  0
   -0.2764   -7.6413   -1.0006 N   0  0  0  0  0  0  0  0  0  0  0  0
   -1.2082   -7.7396   -2.0229 C   0  0  0  0  0  0  0  0  0  0  0  0
   -1.1497   -7.2516   -3.1446 O   0  0  0  0  0  0  0  0  0  0  0  0
   -2.4298   -8.5303   -1.6679 C   0  0  0  0  0  0  0  0  0  0  0  0
   -3.4372   -8.6793   -2.6141 C   0  0  0  0  0  0  0  0  0  0  0  0
   -4.5422   -9.4413   -2.2668 C   0  0  0  0  0  0  0  0  0  0  0  0
   -5.8167   -9.6683   -3.4001 Cl  0  0  0  0  0  0  0  0  0  0  0  0
   -4.6232  -10.0267   -1.0109 C   0  0  0  0  0  0  0  0  0  0  0  0
   -3.5751   -9.8165   -0.1312 C   0  0  0  0  0  0  0  0  0  0  0  0
   -2.4757   -9.0810   -0.4215 N   0  0  0  0  0  0  0  0  0  0  0  0
    1.3514   -6.4354   -2.2595 N   0  0  0  0  0  0  0  0  0  0  0  0
    2.5123   -5.8479   -1.9679 N   0  0  0  0  0  0  0  0  0  0  0  0
    3.1809   -5.0701   -2.9853 C   0  0  0  0  0  0  0  0  0  0  0  0
    2.9163   -6.0189   -0.6710 C   0  0  0  0  0  0  0  0  0  0  0  0
    4.0544   -5.5657    0.0191 C   0  0  0  0  0  0  0  0  0  0  0  0
    7.3637   -4.3560    1.9146 C   0  0  0  0  0  0  0  0  0  0  0  0
    7.0536   -3.3044    2.8106 C   0  0  0  0  0  0  0  0  0  0  0  0
    7.8983   -2.1915    2.9793 C   0  0  0  0  0  0  0  0  0  0  0  0
    7.3807   -1.2797    3.8584 O   0  0  0  0  0  0  0  0  0  0  0  0
    7.9809   -0.0003    3.9874 C   0  0  0  0  0  0  0  0  0  0  0  0
   10.6847    0.3517    1.0151 H   0  0  0  0  0  0  0  0  0  0  0  0
   10.1930   -1.1347    0.2167 H   0  0  0  0  0  0  0  0  0  0  0  0
   11.6680   -1.1077    1.2428 H   0  0  0  0  0  0  0  0  0  0  0  0
   10.4187   -3.2760    0.9690 H   0  0  0  0  0  0  0  0  0  0  0  0
    8.5801   -7.0636   -0.5127 H   0  0  0  0  0  0  0  0  0  0  0  0
    6.3398   -7.3186    0.5205 H   0  0  0  0  0  0  0  0  0  0  0  0
    3.2489   -6.8517    3.0670 H   0  0  0  0  0  0  0  0  0  0  0  0
    1.2511   -7.6311    1.8159 H   0  0  0  0  0  0  0  0  0  0  0  0
   -0.5118   -8.0697   -0.1138 H   0  0  0  0  0  0  0  0  0  0  0  0
   -3.3567   -8.2170   -3.5936 H   0  0  0  0  0  0  0  0  0  0  0  0
   -5.4779  -10.6300   -0.7260 H   0  0  0  0  0  0  0  0  0  0  0  0
   -3.5955  -10.2525    0.8643 H   0  0  0  0  0  0  0  0  0  0  0  0
    2.6181   -5.1328   -3.9223 H   0  0  0  0  0  0  0  0  0  0  0  0
    4.1845   -5.4747   -3.1244 H   0  0  0  0  0  0  0  0  0  0  0  0
    3.2212   -4.0346   -2.6435 H   0  0  0  0  0  0  0  0  0  0  0  0
    4.8060   -4.9710   -0.4884 H   0  0  0  0  0  0  0  0  0  0  0  0
    6.1212   -3.3346    3.3726 H   0  0  0  0  0  0  0  0  0  0  0  0
    7.2709    0.6346    4.5293 H   0  0  0  0  0  0  0  0  0  0  0  0
    8.1508    0.4793    3.0195 H   0  0  0  0  0  0  0  0  0  0  0  0
    8.8961   -0.0531    4.5852 H   0  0  0  0  0  0  0  0  0  0  0  0
  1  2  1  0  0  0  0
  1 36  1  0  0  0  0
  1 37  1  0  0  0  0
  1 38  1  0  0  0  0
  2  3  1  0  0  0  0
  3  4  1  0  0  0  0
  3 33  2  0  0  0  0
  4  5  2  0  0  0  0
  4 39  1  0  0  0  0
  5  6  1  0  0  0  0
  5 31  1  0  0  0  0
  6  7  2  0  0  0  0
  7  8  1  0  0  0  0
  7 40  1  0  0  0  0
  8  9  2  0  0  0  0
  8 41  1  0  0  0  0
  9 10  1  0  0  0  0
  9 31  1  0  0  0  0
 10 11  1  0  0  0  0
 11 12  1  0  0  0  0
 11 30  2  0  0  0  0
 12 13  2  0  0  0  0
 12 42  1  0  0  0  0
 13 14  1  0  0  0  0
 13 43  1  0  0  0  0
 14 15  1  0  0  0  0
 14 29  2  0  0  0  0
 15 16  1  0  0  0  0
 15 26  2  0  0  0  0
 16 17  1  0  0  0  0
 16 44  1  0  0  0  0
 17 18  2  0  0  0  0
 17 19  1  0  0  0  0
 19 20  1  0  0  0  0
 19 25  2  0  0  0  0
 20 21  2  0  0  0  0
 20 45  1  0  0  0  0
 21 22  1  0  0  0  0
 21 23  1  0  0  0  0
 23 24  2  0  0  0  0
 23 46  1  0  0  0  0
 24 25  1  0  0  0  0
 24 47  1  0  0  0  0
 26 27  1  0  0  0  0
 27 28  1  0  0  0  0
 27 29  1  0  0  0  0
 28 48  1  0  0  0  0
 28 49  1  0  0  0  0
 28 50  1  0  0  0  0
 29 30  1  0  0  0  0
 30 51  1  0  0  0  0
 31 32  2  0  0  0  0
 32 33  1  0  0  0  0
 32 52  1  0  0  0  0
 33 34  1  0  0  0  0
 34 35  1  0  0  0  0
 35 53  1  0  0  0  0
 35 54  1  0  0  0  0
 35 55  1  0  0  0  0
M  END
$$$$
