CHEMBL3981076
 OpenBabel04072215373D

 71 75  0  0  0  0  0  0  0  0999 V2000
    0.3066    1.6937   -3.1970 C   0  0  0  0  0  0  0  0  0  0  0  0
    1.5804    1.4222   -3.7898 O   0  0  0  0  0  0  0  0  0  0  0  0
    2.6491    1.2931   -2.9357 C   0  0  0  0  0  0  0  0  0  0  0  0
    2.5702    1.4588   -1.5519 C   0  0  0  0  0  0  0  0  0  0  0  0
    3.7000    1.2682   -0.7632 C   0  0  0  0  0  0  0  0  0  0  0  0
    3.7511    1.3722    0.6016 O   0  0  0  0  0  0  0  0  0  0  0  0
    2.5553    1.7600    1.2648 C   0  0  0  0  0  0  0  0  0  0  0  0
    4.9138    0.9037   -1.3589 C   0  0  0  0  0  0  0  0  0  0  0  0
    5.0312    0.7062   -2.7408 C   0  0  0  0  0  0  0  0  0  0  0  0
    6.1923    0.1260   -3.3159 N   0  0  0  0  0  0  0  0  0  0  0  0
    6.8961   -0.9194   -2.4651 C   0  0  0  0  0  0  0  0  0  0  0  0
    6.0645   -2.1724   -2.0406 C   0  0  0  0  0  0  0  0  0  0  0  0
    6.8310   -3.1365   -1.1940 N   0  0  0  0  0  0  0  0  0  0  0  0
    8.0482   -3.6896   -1.8344 C   0  0  0  0  0  0  0  0  0  0  0  0
    7.7484   -4.6624   -2.9844 C   0  0  0  0  0  0  0  0  0  0  0  0
    6.9625   -5.7980   -2.4921 N   0  0  0  0  0  0  0  0  0  0  0  0
    7.4166   -7.0738   -2.7720 C   0  0  0  0  0  0  0  0  0  0  0  0
    6.6371   -8.2778   -2.3067 C   0  0  0  0  0  0  0  0  0  0  0  0
    8.4693   -7.2685   -3.3866 O   0  0  0  0  0  0  0  0  0  0  0  0
    5.7417   -5.4073   -1.7679 C   0  0  0  0  0  0  0  0  0  0  0  0
    6.0071   -4.2817   -0.7302 C   0  0  0  0  0  0  0  0  0  0  0  0
    7.2037    0.7603   -4.1335 C   0  0  0  0  0  0  0  0  0  0  0  0
    7.7726   -0.0841   -5.0862 C   0  0  0  0  0  0  0  0  0  0  0  0
    9.0730    0.1245   -5.4986 C   0  0  0  0  0  0  0  0  0  0  0  0
    9.7834    1.2428   -5.1102 C   0  0  0  0  0  0  0  0  0  0  0  0
   11.0798    1.1757   -5.4389 N   0  0  0  0  0  0  0  0  0  0  0  0
   11.7820    2.3058   -5.2705 C   0  0  0  0  0  0  0  0  0  0  0  0
   11.1821    3.4806   -4.8647 C   0  0  0  0  0  0  0  0  0  0  0  0
   11.9543    4.6933   -5.1458 C   0  0  0  0  0  0  0  0  0  0  0  0
   11.9166    5.5244   -6.2991 C   0  0  0  0  0  0  0  0  0  0  0  0
   12.9483    6.3752   -6.3654 N   0  0  0  0  0  0  0  0  0  0  0  0
   13.6636    6.0814   -5.2669 N   0  0  0  0  0  0  0  0  0  0  0  0
   14.7418    6.9455   -4.8445 C   0  0  0  0  0  0  0  0  0  0  0  0
   13.1975    4.9797   -4.6031 C   0  0  0  0  0  0  0  0  0  0  0  0
    9.8843    3.5073   -4.4117 N   0  0  0  0  0  0  0  0  0  0  0  0
    9.1500    2.3182   -4.4662 C   0  0  0  0  0  0  0  0  0  0  0  0
    7.8523    2.0083   -3.9180 C   0  0  0  0  0  0  0  0  0  0  0  0
    3.8860    0.9400   -3.5253 C   0  0  0  0  0  0  0  0  0  0  0  0
   -0.4438    1.7482   -3.9921 H   0  0  0  0  0  0  0  0  0  0  0  0
    0.3062    2.6603   -2.6810 H   0  0  0  0  0  0  0  0  0  0  0  0
    0.0031    0.8894   -2.5169 H   0  0  0  0  0  0  0  0  0  0  0  0
    1.6298    1.7201   -1.0873 H   0  0  0  0  0  0  0  0  0  0  0  0
    2.7800    1.8525    2.3312 H   0  0  0  0  0  0  0  0  0  0  0  0
    1.7779    0.9991    1.1510 H   0  0  0  0  0  0  0  0  0  0  0  0
    2.2078    2.7376    0.9121 H   0  0  0  0  0  0  0  0  0  0  0  0
    5.7597    0.7347   -0.7018 H   0  0  0  0  0  0  0  0  0  0  0  0
    7.3550   -0.4429   -1.5893 H   0  0  0  0  0  0  0  0  0  0  0  0
    7.7323   -1.3288   -3.0390 H   0  0  0  0  0  0  0  0  0  0  0  0
    5.6610   -2.6667   -2.9322 H   0  0  0  0  0  0  0  0  0  0  0  0
    5.2020   -1.8411   -1.4533 H   0  0  0  0  0  0  0  0  0  0  0  0
    8.6140   -4.2334   -1.0643 H   0  0  0  0  0  0  0  0  0  0  0  0
    8.7261   -2.8985   -2.1651 H   0  0  0  0  0  0  0  0  0  0  0  0
    8.6887   -4.9876   -3.4386 H   0  0  0  0  0  0  0  0  0  0  0  0
    7.1650   -4.1755   -3.7743 H   0  0  0  0  0  0  0  0  0  0  0  0
    5.6696   -8.0621   -1.8643 H   0  0  0  0  0  0  0  0  0  0  0  0
    7.2443   -8.8199   -1.5743 H   0  0  0  0  0  0  0  0  0  0  0  0
    6.4643   -8.9267   -3.1713 H   0  0  0  0  0  0  0  0  0  0  0  0
    5.2948   -6.2540   -1.2488 H   0  0  0  0  0  0  0  0  0  0  0  0
    5.0235   -5.0595   -2.5189 H   0  0  0  0  0  0  0  0  0  0  0  0
    6.5467   -4.7414    0.1111 H   0  0  0  0  0  0  0  0  0  0  0  0
    5.0590   -3.9319   -0.3062 H   0  0  0  0  0  0  0  0  0  0  0  0
    7.2680   -0.9966   -5.3813 H   0  0  0  0  0  0  0  0  0  0  0  0
    9.5663   -0.6306   -6.0856 H   0  0  0  0  0  0  0  0  0  0  0  0
   12.8283    2.2406   -5.5346 H   0  0  0  0  0  0  0  0  0  0  0  0
   11.2051    5.5182   -7.1154 H   0  0  0  0  0  0  0  0  0  0  0  0
   14.8380    7.7883   -5.5349 H   0  0  0  0  0  0  0  0  0  0  0  0
   15.6740    6.3770   -4.8095 H   0  0  0  0  0  0  0  0  0  0  0  0
   14.4845    7.3184   -3.8492 H   0  0  0  0  0  0  0  0  0  0  0  0
   13.7709    4.5217   -3.8110 H   0  0  0  0  0  0  0  0  0  0  0  0
    7.3858    2.7461   -3.2513 H   0  0  0  0  0  0  0  0  0  0  0  0
    3.9187    0.7668   -4.5982 H   0  0  0  0  0  0  0  0  0  0  0  0
  1  2  1  0  0  0  0
  1 39  1  0  0  0  0
  1 40  1  0  0  0  0
  1 41  1  0  0  0  0
  2  3  1  0  0  0  0
  3  4  1  0  0  0  0
  3 38  2  0  0  0  0
  4  5  2  0  0  0  0
  4 42  1  0  0  0  0
  5  6  1  0  0  0  0
  5  8  1  0  0  0  0
  6  7  1  0  0  0  0
  7 43  1  0  0  0  0
  7 44  1  0  0  0  0
  7 45  1  0  0  0  0
  8  9  2  0  0  0  0
  8 46  1  0  0  0  0
  9 10  1  0  0  0  0
  9 38  1  0  0  0  0
 10 11  1  0  0  0  0
 10 22  1  0  0  0  0
 11 12  1  0  0  0  0
 11 47  1  0  0  0  0
 11 48  1  0  0  0  0
 12 13  1  0  0  0  0
 12 49  1  0  0  0  0
 12 50  1  0  0  0  0
 13 14  1  0  0  0  0
 13 21  1  0  0  0  0
 14 15  1  0  0  0  0
 14 51  1  0  0  0  0
 14 52  1  0  0  0  0
 15 16  1  0  0  0  0
 15 53  1  0  0  0  0
 15 54  1  0  0  0  0
 16 17  1  0  0  0  0
 16 20  1  0  0  0  0
 17 18  1  0  0  0  0
 17 19  2  0  0  0  0
 18 55  1  0  0  0  0
 18 56  1  0  0  0  0
 18 57  1  0  0  0  0
 20 21  1  0  0  0  0
 20 58  1  0  0  0  0
 20 59  1  0  0  0  0
 21 60  1  0  0  0  0
 21 61  1  0  0  0  0
 22 23  1  0  0  0  0
 22 37  2  0  0  0  0
 23 24  2  0  0  0  0
 23 62  1  0  0  0  0
 24 25  1  0  0  0  0
 24 63  1  0  0  0  0
 25 26  1  0  0  0  0
 25 36  2  0  0  0  0
 26 27  2  0  0  0  0
 27 28  1  0  0  0  0
 27 64  1  0  0  0  0
 28 29  1  0  0  0  0
 28 35  2  0  0  0  0
 29 30  1  0  0  0  0
 29 34  2  0  0  0  0
 30 31  2  0  0  0  0
 30 65  1  0  0  0  0
 31 32  1  0  0  0  0
 32 33  1  0  0  0  0
 32 34  1  0  0  0  0
 33 66  1  0  0  0  0
 33 67  1  0  0  0  0
 33 68  1  0  0  0  0
 34 69  1  0  0  0  0
 35 36  1  0  0  0  0
 36 37  1  0  0  0  0
 37 70  1  0  0  0  0
 38 71  1  0  0  0  0
M  END
$$$$
