CHEMBL3746897
 OpenBabel04072215373D

 54 58  0  0  1  0  0  0  0  0999 V2000
    2.4352   -0.7210    0.3565 C   0  0  0  0  0  0  0  0  0  0  0  0
    3.9688   -0.6444    0.3798 C   0  0  2  0  0  0  0  0  0  0  0  0
    4.4632    0.7837    0.6779 C   0  0  0  0  0  0  0  0  0  0  0  0
    4.3287    1.6813   -0.5161 C   0  0  0  0  0  0  0  0  0  0  0  0
    4.2371    1.1675   -1.8020 C   0  0  0  0  0  0  0  0  0  0  0  0
    4.1173    1.9539   -2.8943 N   0  0  0  0  0  0  0  0  0  0  0  0
    4.0809    3.2744   -2.6758 C   0  0  0  0  0  0  0  0  0  0  0  0
    4.1743    3.8784   -1.4861 N   0  0  0  0  0  0  0  0  0  0  0  0
    4.3394    3.0567   -0.4297 C   0  0  0  0  0  0  0  0  0  0  0  0
    4.5144    3.6161    0.8302 O   0  0  0  0  0  0  0  0  0  0  0  0
    5.1948    4.8120    0.9096 C   0  0  0  0  0  0  0  0  0  0  0  0
    6.2548    5.1492    0.0678 C   0  0  0  0  0  0  0  0  0  0  0  0
    6.8974    6.3841    0.1686 C   0  0  0  0  0  0  0  0  0  0  0  0
    6.4871    7.2624    1.1824 C   0  0  0  0  0  0  0  0  0  0  0  0
    5.4875    6.9025    2.0981 C   0  0  0  0  0  0  0  0  0  0  0  0
    5.4051    7.9367    3.0623 C   0  0  0  0  0  0  0  0  0  0  0  0
    6.3669    8.8655    2.7507 C   0  0  0  0  0  0  0  0  0  0  0  0
    6.9989    8.5002    1.5726 N   0  0  0  0  0  0  0  0  0  0  0  0
    8.1051    9.1842    1.0212 C   0  0  0  0  0  0  0  0  0  0  0  0
    8.9272    9.6583    1.7916 O   0  0  0  0  0  0  0  0  0  0  0  0
    8.0424    9.3029   -0.3610 N   0  0  0  0  0  0  0  0  0  0  0  0
    9.1072    9.8223   -1.1458 C   0  0  0  0  0  0  0  0  0  0  0  0
   10.4341    9.7417   -0.7091 C   0  0  0  0  0  0  0  0  0  0  0  0
   11.4826   10.2338   -1.4869 C   0  0  0  0  0  0  0  0  0  0  0  0
   11.2197   10.8301   -2.7147 C   0  0  0  0  0  0  0  0  0  0  0  0
    9.9019   10.9290   -3.1840 C   0  0  0  0  0  0  0  0  0  0  0  0
    9.6309   11.6170   -4.5031 C   0  0  0  0  0  0  0  0  0  0  0  0
   10.7603   12.0650   -5.1269 F   0  0  0  0  0  0  0  0  0  0  0  0
    9.0125   10.8038   -5.4019 F   0  0  0  0  0  0  0  0  0  0  0  0
    8.8290   12.7084   -4.3683 F   0  0  0  0  0  0  0  0  0  0  0  0
    8.8487   10.3990   -2.3996 C   0  0  0  0  0  0  0  0  0  0  0  0
    4.8261    5.6652    1.9529 C   0  0  0  0  0  0  0  0  0  0  0  0
    4.1870   -0.3309   -2.0272 C   0  0  0  0  0  0  0  0  0  0  0  0
    4.5804   -1.1476   -0.8632 N   0  0  0  0  0  0  0  0  0  0  0  0
    2.0255   -0.4300    1.3294 H   0  0  0  0  0  0  0  0  0  0  0  0
    2.0993   -1.7404    0.1412 H   0  0  0  0  0  0  0  0  0  0  0  0
    1.9889   -0.0555   -0.3901 H   0  0  0  0  0  0  0  0  0  0  0  0
    4.3058   -1.2941    1.1972 H   0  0  0  0  0  0  0  0  0  0  0  0
    5.5233    0.7509    0.9626 H   0  0  0  0  0  0  0  0  0  0  0  0
    3.9055    1.1893    1.5306 H   0  0  0  0  0  0  0  0  0  0  0  0
    3.9737    3.9161   -3.5430 H   0  0  0  0  0  0  0  0  0  0  0  0
    6.5975    4.4533   -0.6931 H   0  0  0  0  0  0  0  0  0  0  0  0
    7.7220    6.6161   -0.4980 H   0  0  0  0  0  0  0  0  0  0  0  0
    4.7533    7.9674    3.9268 H   0  0  0  0  0  0  0  0  0  0  0  0
    6.6647    9.7749    3.2553 H   0  0  0  0  0  0  0  0  0  0  0  0
    7.1323    9.2103   -0.7984 H   0  0  0  0  0  0  0  0  0  0  0  0
   10.6873    9.2714    0.2376 H   0  0  0  0  0  0  0  0  0  0  0  0
   12.5050   10.1514   -1.1277 H   0  0  0  0  0  0  0  0  0  0  0  0
   12.0495   11.2225   -3.3017 H   0  0  0  0  0  0  0  0  0  0  0  0
    7.8272   10.4844   -2.7677 H   0  0  0  0  0  0  0  0  0  0  0  0
    4.0563    5.3661    2.6589 H   0  0  0  0  0  0  0  0  0  0  0  0
    4.8467   -0.5858   -2.8647 H   0  0  0  0  0  0  0  0  0  0  0  0
    3.1710   -0.6027   -2.3357 H   0  0  0  0  0  0  0  0  0  0  0  0
    5.5957   -1.0883   -0.7741 H   0  0  0  0  0  0  0  0  0  0  0  0
  1 35  1  0  0  0  0
  1 36  1  0  0  0  0
  1 37  1  0  0  0  0
  2  3  1  0  0  0  0
  2 34  1  0  0  0  0
  2  1  1  0  0  0  0
  2 38  1  1  0  0  0
  3  4  1  0  0  0  0
  3 39  1  0  0  0  0
  3 40  1  0  0  0  0
  4  5  1  0  0  0  0
  4  9  2  0  0  0  0
  5  6  2  0  0  0  0
  5 33  1  0  0  0  0
  6  7  1  0  0  0  0
  7  8  2  0  0  0  0
  7 41  1  0  0  0  0
  8  9  1  0  0  0  0
  9 10  1  0  0  0  0
 10 11  1  0  0  0  0
 11 12  1  0  0  0  0
 11 32  2  0  0  0  0
 12 13  2  0  0  0  0
 12 42  1  0  0  0  0
 13 14  1  0  0  0  0
 13 43  1  0  0  0  0
 14 15  2  0  0  0  0
 14 18  1  0  0  0  0
 15 16  1  0  0  0  0
 15 32  1  0  0  0  0
 16 17  2  0  0  0  0
 16 44  1  0  0  0  0
 17 18  1  0  0  0  0
 17 45  1  0  0  0  0
 18 19  1  0  0  0  0
 19 20  2  0  0  0  0
 19 21  1  0  0  0  0
 21 22  1  0  0  0  0
 21 46  1  0  0  0  0
 22 23  1  0  0  0  0
 22 31  2  0  0  0  0
 23 24  2  0  0  0  0
 23 47  1  0  0  0  0
 24 25  1  0  0  0  0
 24 48  1  0  0  0  0
 25 26  2  0  0  0  0
 25 49  1  0  0  0  0
 26 27  1  0  0  0  0
 26 31  1  0  0  0  0
 27 28  1  0  0  0  0
 27 29  1  0  0  0  0
 27 30  1  0  0  0  0
 31 50  1  0  0  0  0
 32 51  1  0  0  0  0
 33 34  1  0  0  0  0
 33 52  1  0  0  0  0
 33 53  1  0  0  0  0
 34 54  1  0  0  0  0
M  END
$$$$
