CHEMBL3964574
 OpenBabel04072215373D

 66 69  0  0  0  0  0  0  0  0999 V2000
    0.7640   -4.3718    1.3490 C   0  0  0  0  0  0  0  0  0  0  0  0
    2.1600   -4.3913    1.6517 O   0  0  0  0  0  0  0  0  0  0  0  0
    2.9086   -3.3491    1.1652 C   0  0  0  0  0  0  0  0  0  0  0  0
    2.3988   -2.3323    0.3580 C   0  0  0  0  0  0  0  0  0  0  0  0
    3.2136   -1.2825   -0.0419 C   0  0  0  0  0  0  0  0  0  0  0  0
    2.8105   -0.1996   -0.7768 O   0  0  0  0  0  0  0  0  0  0  0  0
    1.4492   -0.2009   -1.1962 C   0  0  0  0  0  0  0  0  0  0  0  0
    4.5573   -1.2849    0.3346 C   0  0  0  0  0  0  0  0  0  0  0  0
    5.1099   -2.2808    1.1588 C   0  0  0  0  0  0  0  0  0  0  0  0
    6.4334   -2.1643    1.6257 N   0  0  0  0  0  0  0  0  0  0  0  0
    6.8535   -0.7313    2.1207 C   0  0  0  0  0  0  0  0  0  0  0  0
    5.8189    0.3785    2.5371 C   0  0  0  0  0  0  0  0  0  0  0  0
    4.9544    0.0754    3.7209 N   0  0  0  0  0  0  0  0  0  0  0  0
    5.6973    0.1678    5.2358 S   0  0  0  0  0  0  0  0  0  0  0  0
    6.6122   -0.9346    5.3160 O   0  0  0  0  0  0  0  0  0  0  0  0
    6.1515    1.5299    5.4035 O   0  0  0  0  0  0  0  0  0  0  0  0
    4.3530   -0.1507    6.4026 C   0  0  0  0  0  0  0  0  0  0  0  0
    3.6456   -1.4565    6.0744 C   0  0  0  0  0  0  0  0  0  0  0  0
    4.9616   -0.2148    7.8040 C   0  0  0  0  0  0  0  0  0  0  0  0
    7.3903   -3.2060    1.9381 C   0  0  0  0  0  0  0  0  0  0  0  0
    7.8805   -3.1316    3.2115 C   0  0  0  0  0  0  0  0  0  0  0  0
    9.1085   -3.6786    3.4255 C   0  0  0  0  0  0  0  0  0  0  0  0
    9.7846   -4.4418    2.5059 C   0  0  0  0  0  0  0  0  0  0  0  0
   10.9515   -4.3651    2.9202 N   0  0  0  0  0  0  0  0  0  0  0  0
   11.3039   -5.5496    3.3837 C   0  0  0  0  0  0  0  0  0  0  0  0
   11.4920   -6.4976    2.4781 C   0  0  0  0  0  0  0  0  0  0  0  0
   12.9914   -6.9733    2.8578 C   0  0  0  0  0  0  0  0  0  0  0  0
   13.8669   -5.9931    3.5603 C   0  0  0  0  0  0  0  0  0  0  0  0
   14.7287   -6.4770    4.4434 N   0  0  0  0  0  0  0  0  0  0  0  0
   14.5692   -7.7957    4.3532 N   0  0  0  0  0  0  0  0  0  0  0  0
   15.4021   -8.5846    5.2562 C   0  0  0  0  0  0  0  0  0  0  0  0
   13.5312   -8.1449    3.4557 C   0  0  0  0  0  0  0  0  0  0  0  0
   10.5755   -6.3371    1.3722 N   0  0  0  0  0  0  0  0  0  0  0  0
    9.3652   -5.1940    1.4771 C   0  0  0  0  0  0  0  0  0  0  0  0
    8.0056   -4.3203    1.1105 C   0  0  0  0  0  0  0  0  0  0  0  0
    4.2621   -3.3267    1.5490 C   0  0  0  0  0  0  0  0  0  0  0  0
    0.2846   -5.1923    1.8897 H   0  0  0  0  0  0  0  0  0  0  0  0
    0.5949   -4.5315    0.2779 H   0  0  0  0  0  0  0  0  0  0  0  0
    0.2894   -3.4412    1.6835 H   0  0  0  0  0  0  0  0  0  0  0  0
    1.3671   -2.3602    0.0370 H   0  0  0  0  0  0  0  0  0  0  0  0
    1.2600    0.7166   -1.7595 H   0  0  0  0  0  0  0  0  0  0  0  0
    0.7689   -0.2085   -0.3367 H   0  0  0  0  0  0  0  0  0  0  0  0
    1.2545   -1.0499   -1.8601 H   0  0  0  0  0  0  0  0  0  0  0  0
    5.1804   -0.4690   -0.0242 H   0  0  0  0  0  0  0  0  0  0  0  0
    7.4644   -0.3110    1.3154 H   0  0  0  0  0  0  0  0  0  0  0  0
    7.5351   -0.7734    2.9735 H   0  0  0  0  0  0  0  0  0  0  0  0
    5.1561    0.6788    1.7227 H   0  0  0  0  0  0  0  0  0  0  0  0
    6.3706    1.3077    2.7543 H   0  0  0  0  0  0  0  0  0  0  0  0
    4.4025   -0.7627    3.5546 H   0  0  0  0  0  0  0  0  0  0  0  0
    3.6607    0.6924    6.3344 H   0  0  0  0  0  0  0  0  0  0  0  0
    4.3476   -2.2986    6.0520 H   0  0  0  0  0  0  0  0  0  0  0  0
    3.1526   -1.4143    5.0978 H   0  0  0  0  0  0  0  0  0  0  0  0
    2.8757   -1.6758    6.8180 H   0  0  0  0  0  0  0  0  0  0  0  0
    5.7145   -1.0103    7.8724 H   0  0  0  0  0  0  0  0  0  0  0  0
    4.1946   -0.4112    8.5551 H   0  0  0  0  0  0  0  0  0  0  0  0
    5.4622    0.7250    8.0593 H   0  0  0  0  0  0  0  0  0  0  0  0
    7.5843   -2.4365    3.9811 H   0  0  0  0  0  0  0  0  0  0  0  0
    9.6339   -3.4585    4.3556 H   0  0  0  0  0  0  0  0  0  0  0  0
   11.7118   -5.4817    4.3538 H   0  0  0  0  0  0  0  0  0  0  0  0
   13.7374   -4.9152    3.5988 H   0  0  0  0  0  0  0  0  0  0  0  0
   16.0440   -7.9127    5.8556 H   0  0  0  0  0  0  0  0  0  0  0  0
   16.0629   -9.2346    4.6806 H   0  0  0  0  0  0  0  0  0  0  0  0
   14.7839   -9.1470    5.9594 H   0  0  0  0  0  0  0  0  0  0  0  0
   13.2975   -9.1979    3.3807 H   0  0  0  0  0  0  0  0  0  0  0  0
    7.5149   -4.5160    0.1419 H   0  0  0  0  0  0  0  0  0  0  0  0
    4.6334   -4.1159    2.1981 H   0  0  0  0  0  0  0  0  0  0  0  0
  1  2  1  0  0  0  0
  1 37  1  0  0  0  0
  1 38  1  0  0  0  0
  1 39  1  0  0  0  0
  2  3  1  0  0  0  0
  3  4  1  0  0  0  0
  3 36  2  0  0  0  0
  4  5  2  0  0  0  0
  4 40  1  0  0  0  0
  5  6  1  0  0  0  0
  5  8  1  0  0  0  0
  6  7  1  0  0  0  0
  7 41  1  0  0  0  0
  7 42  1  0  0  0  0
  7 43  1  0  0  0  0
  8  9  2  0  0  0  0
  8 44  1  0  0  0  0
  9 10  1  0  0  0  0
  9 36  1  0  0  0  0
 10 11  1  0  0  0  0
 10 20  1  0  0  0  0
 11 12  1  0  0  0  0
 11 45  1  0  0  0  0
 11 46  1  0  0  0  0
 12 13  1  0  0  0  0
 12 47  1  0  0  0  0
 12 48  1  0  0  0  0
 13 14  1  0  0  0  0
 13 49  1  0  0  0  0
 14 15  2  0  0  0  0
 14 16  2  0  0  0  0
 14 17  1  0  0  0  0
 17 18  1  0  0  0  0
 17 19  1  0  0  0  0
 17 50  1  0  0  0  0
 18 51  1  0  0  0  0
 18 52  1  0  0  0  0
 18 53  1  0  0  0  0
 19 54  1  0  0  0  0
 19 55  1  0  0  0  0
 19 56  1  0  0  0  0
 20 21  1  0  0  0  0
 20 35  2  0  0  0  0
 21 22  2  0  0  0  0
 21 57  1  0  0  0  0
 22 23  1  0  0  0  0
 22 58  1  0  0  0  0
 23 24  1  0  0  0  0
 23 34  2  0  0  0  0
 24 25  2  0  0  0  0
 25 26  1  0  0  0  0
 25 59  1  0  0  0  0
 26 27  1  0  0  0  0
 26 33  2  0  0  0  0
 27 28  1  0  0  0  0
 27 32  2  0  0  0  0
 28 29  2  0  0  0  0
 28 60  1  0  0  0  0
 29 30  1  0  0  0  0
 30 31  1  0  0  0  0
 30 32  1  0  0  0  0
 31 61  1  0  0  0  0
 31 62  1  0  0  0  0
 31 63  1  0  0  0  0
 32 64  1  0  0  0  0
 33 34  1  0  0  0  0
 34 35  1  0  0  0  0
 35 65  1  0  0  0  0
 36 66  1  0  0  0  0
M  END
$$$$
