CHEMBL3671532
 OpenBabel04072215373D

 55 57  0  0  0  0  0  0  0  0999 V2000
    3.7468    3.8822   -0.9858 C   0  0  0  0  0  0  0  0  0  0  0  0
    3.6989    3.0803    0.0855 C   0  0  0  0  0  0  0  0  0  0  0  0
    3.8364    1.6131   -0.1032 C   0  0  0  0  0  0  0  0  0  0  0  0
    3.4313    1.0416   -1.1117 O   0  0  0  0  0  0  0  0  0  0  0  0
    4.4750    0.9081    0.8887 N   0  0  0  0  0  0  0  0  0  0  0  0
    5.2856    1.5092    1.8683 C   0  0  0  0  0  0  0  0  0  0  0  0
    6.4678    2.1290    1.4572 C   0  0  0  0  0  0  0  0  0  0  0  0
    7.1920    2.9468    2.3536 C   0  0  0  0  0  0  0  0  0  0  0  0
    8.3090    3.7217    2.0030 C   0  0  0  0  0  0  0  0  0  0  0  0
    8.7636    3.7474    0.6578 N   0  0  0  0  0  0  0  0  0  0  0  0
    9.6006    4.7580    0.1237 C   0  0  0  0  0  0  0  0  0  0  0  0
    9.3808    6.1103    0.4181 C   0  0  0  0  0  0  0  0  0  0  0  0
   10.2519    7.0958   -0.0477 C   0  0  0  0  0  0  0  0  0  0  0  0
   11.3433    6.7336   -0.8360 C   0  0  0  0  0  0  0  0  0  0  0  0
   12.5624    8.0618   -1.4030 Br  0  0  0  0  0  0  0  0  0  0  0  0
   11.5504    5.4027   -1.1894 C   0  0  0  0  0  0  0  0  0  0  0  0
   10.6717    4.4312   -0.7167 C   0  0  0  0  0  0  0  0  0  0  0  0
   10.8805    3.1474   -1.0491 F   0  0  0  0  0  0  0  0  0  0  0  0
    8.9399    4.4986    2.9041 N   0  0  0  0  0  0  0  0  0  0  0  0
    8.4546    4.5126    4.1446 C   0  0  0  0  0  0  0  0  0  0  0  0
    7.3733    3.8545    4.5711 N   0  0  0  0  0  0  0  0  0  0  0  0
    6.7482    3.0872    3.6769 C   0  0  0  0  0  0  0  0  0  0  0  0
    5.5936    2.4247    4.0721 C   0  0  0  0  0  0  0  0  0  0  0  0
    4.8568    1.6149    3.1982 C   0  0  0  0  0  0  0  0  0  0  0  0
    3.7390    1.0467    3.7465 O   0  0  0  0  0  0  0  0  0  0  0  0
    3.4109   -0.2480    3.2366 C   0  0  0  0  0  0  0  0  0  0  0  0
    2.7831   -1.1109    4.3310 C   0  0  0  0  0  0  0  0  0  0  0  0
    2.5049   -2.4556    3.8536 N   0  0  0  0  0  0  0  0  0  0  0  0
    3.5143   -3.3912    3.7267 C   0  0  0  0  0  0  0  0  0  0  0  0
    4.6677   -3.1846    4.0982 O   0  0  0  0  0  0  0  0  0  0  0  0
    3.0721   -4.7309    3.1311 C   0  0  0  0  0  0  0  0  0  0  0  0
    3.2307   -5.8270    4.1000 N   0  0  0  0  0  0  0  0  0  0  0  0
    2.3330   -5.6849    5.2396 C   0  0  0  0  0  0  0  0  0  0  0  0
    3.7132    4.9600   -0.8757 H   0  0  0  0  0  0  0  0  0  0  0  0
    3.8462    3.4781   -1.9892 H   0  0  0  0  0  0  0  0  0  0  0  0
    3.6227    3.4803    1.0880 H   0  0  0  0  0  0  0  0  0  0  0  0
    4.8040    0.0238    0.5126 H   0  0  0  0  0  0  0  0  0  0  0  0
    6.7869    2.0371    0.4208 H   0  0  0  0  0  0  0  0  0  0  0  0
    9.0522    2.8205    0.3557 H   0  0  0  0  0  0  0  0  0  0  0  0
    8.5348    6.4028    1.0367 H   0  0  0  0  0  0  0  0  0  0  0  0
   10.0773    8.1335    0.2257 H   0  0  0  0  0  0  0  0  0  0  0  0
   12.3910    5.1069   -1.8087 H   0  0  0  0  0  0  0  0  0  0  0  0
    8.9703    5.1359    4.8661 H   0  0  0  0  0  0  0  0  0  0  0  0
    5.2402    2.5569    5.0930 H   0  0  0  0  0  0  0  0  0  0  0  0
    4.2986   -0.7706    2.8598 H   0  0  0  0  0  0  0  0  0  0  0  0
    2.6855   -0.1329    2.4231 H   0  0  0  0  0  0  0  0  0  0  0  0
    1.8407   -0.6728    4.6754 H   0  0  0  0  0  0  0  0  0  0  0  0
    3.4524   -1.1661    5.1971 H   0  0  0  0  0  0  0  0  0  0  0  0
    1.6035   -2.6428    3.4315 H   0  0  0  0  0  0  0  0  0  0  0  0
    3.7130   -4.9245    2.2639 H   0  0  0  0  0  0  0  0  0  0  0  0
    2.0429   -4.6846    2.7602 H   0  0  0  0  0  0  0  0  0  0  0  0
    4.1971   -5.8099    4.4366 H   0  0  0  0  0  0  0  0  0  0  0  0
    1.2863   -5.6759    4.9194 H   0  0  0  0  0  0  0  0  0  0  0  0
    2.5394   -4.7773    5.8148 H   0  0  0  0  0  0  0  0  0  0  0  0
    2.4649   -6.5373    5.9131 H   0  0  0  0  0  0  0  0  0  0  0  0
  1  2  2  0  0  0  0
  1 34  1  0  0  0  0
  1 35  1  0  0  0  0
  2  3  1  0  0  0  0
  2 36  1  0  0  0  0
  3  4  2  0  0  0  0
  3  5  1  0  0  0  0
  5  6  1  0  0  0  0
  5 37  1  0  0  0  0
  6  7  1  0  0  0  0
  6 24  2  0  0  0  0
  7  8  2  0  0  0  0
  7 38  1  0  0  0  0
  8  9  1  0  0  0  0
  8 22  1  0  0  0  0
  9 10  1  0  0  0  0
  9 19  2  0  0  0  0
 10 11  1  0  0  0  0
 10 39  1  0  0  0  0
 11 12  1  0  0  0  0
 11 17  2  0  0  0  0
 12 13  2  0  0  0  0
 12 40  1  0  0  0  0
 13 14  1  0  0  0  0
 13 41  1  0  0  0  0
 14 15  1  0  0  0  0
 14 16  2  0  0  0  0
 16 17  1  0  0  0  0
 16 42  1  0  0  0  0
 17 18  1  0  0  0  0
 19 20  1  0  0  0  0
 20 21  2  0  0  0  0
 20 43  1  0  0  0  0
 21 22  1  0  0  0  0
 22 23  2  0  0  0  0
 23 24  1  0  0  0  0
 23 44  1  0  0  0  0
 24 25  1  0  0  0  0
 25 26  1  0  0  0  0
 26 27  1  0  0  0  0
 26 45  1  0  0  0  0
 26 46  1  0  0  0  0
 27 28  1  0  0  0  0
 27 47  1  0  0  0  0
 27 48  1  0  0  0  0
 28 29  1  0  0  0  0
 28 49  1  0  0  0  0
 29 30  2  0  0  0  0
 29 31  1  0  0  0  0
 31 32  1  0  0  0  0
 31 50  1  0  0  0  0
 31 51  1  0  0  0  0
 32 33  1  0  0  0  0
 32 52  1  0  0  0  0
 33 53  1  0  0  0  0
 33 54  1  0  0  0  0
 33 55  1  0  0  0  0
M  END
$$$$
