CHEMBL512839
 OpenBabel04072215383D

 56 60  0  0  0  0  0  0  0  0999 V2000
    3.1703    1.1440    4.1334 C   0  0  0  0  0  0  0  0  0  0  0  0
    3.4323    0.2004    3.0792 N   0  0  0  0  0  0  0  0  0  0  0  0
    2.5071   -0.4675    2.3248 C   0  0  0  0  0  0  0  0  0  0  0  0
    3.2247   -1.2170    1.4227 C   0  0  0  0  0  0  0  0  0  0  0  0
    2.7268   -2.0946    0.3716 C   0  0  0  0  0  0  0  0  0  0  0  0
    1.3540   -2.3176    0.1081 C   0  0  0  0  0  0  0  0  0  0  0  0
    1.2718   -3.1668   -0.9717 C   0  0  0  0  0  0  0  0  0  0  0  0
    2.5515   -3.5092   -1.3698 N   0  0  0  0  0  0  0  0  0  0  0  0
    2.9601   -4.3818   -2.4097 C   0  0  0  0  0  0  0  0  0  0  0  0
    1.9815   -4.9860   -3.1980 N   0  0  0  0  0  0  0  0  0  0  0  0
    4.2891   -4.5838   -2.5715 C   0  0  0  0  0  0  0  0  0  0  0  0
    4.8873   -5.4693   -3.5807 C   0  0  0  0  0  0  0  0  0  0  0  0
    5.1471   -4.9861   -4.8599 C   0  0  0  0  0  0  0  0  0  0  0  0
    5.7679   -5.8039   -5.8087 C   0  0  0  0  0  0  0  0  0  0  0  0
    6.1611   -7.1151   -5.5006 C   0  0  0  0  0  0  0  0  0  0  0  0
    6.8829   -7.9308   -6.4126 N   0  0  0  0  0  0  0  0  0  0  0  0
    7.6532   -7.4163   -7.4432 C   0  0  0  0  0  0  0  0  0  0  0  0
    7.8063   -6.2180   -7.6581 O   0  0  0  0  0  0  0  0  0  0  0  0
    8.2563   -8.3956   -8.2273 N   0  0  0  0  0  0  0  0  0  0  0  0
    9.0399   -7.9170   -9.3183 C   0  0  0  0  0  0  0  0  0  0  0  0
   10.0904   -7.0191   -9.0868 C   0  0  0  0  0  0  0  0  0  0  0  0
   10.6796   -6.3122  -10.1461 C   0  0  0  0  0  0  0  0  0  0  0  0
   11.7481   -5.2795   -9.8781 C   0  0  0  0  0  0  0  0  0  0  0  0
   12.0867   -5.1682   -8.5629 F   0  0  0  0  0  0  0  0  0  0  0  0
   12.9086   -5.5581  -10.5348 F   0  0  0  0  0  0  0  0  0  0  0  0
   11.3839   -4.0304  -10.2788 F   0  0  0  0  0  0  0  0  0  0  0  0
   10.2186   -6.5468  -11.4526 C   0  0  0  0  0  0  0  0  0  0  0  0
    9.2270   -7.5043  -11.6948 C   0  0  0  0  0  0  0  0  0  0  0  0
    8.6579   -8.1990  -10.6291 C   0  0  0  0  0  0  0  0  0  0  0  0
    7.6596   -9.0637  -10.8648 F   0  0  0  0  0  0  0  0  0  0  0  0
    5.8433   -7.6177   -4.2360 C   0  0  0  0  0  0  0  0  0  0  0  0
    5.2197   -6.7953   -3.2775 C   0  0  0  0  0  0  0  0  0  0  0  0
    5.1770   -3.8073   -1.6499 C   0  0  0  0  0  0  0  0  0  0  0  0
    4.8074   -3.0033   -0.7039 N   0  0  0  0  0  0  0  0  0  0  0  0
    3.4601   -2.8470   -0.5383 C   0  0  0  0  0  0  0  0  0  0  0  0
    4.5695   -0.9397    1.7303 C   0  0  0  0  0  0  0  0  0  0  0  0
    4.7029   -0.0747    2.7435 N   0  0  0  0  0  0  0  0  0  0  0  0
    2.0953    1.1729    4.3451 H   0  0  0  0  0  0  0  0  0  0  0  0
    3.5119    2.1277    3.8042 H   0  0  0  0  0  0  0  0  0  0  0  0
    3.7103    0.8263    5.0287 H   0  0  0  0  0  0  0  0  0  0  0  0
    1.4465   -0.3431    2.4872 H   0  0  0  0  0  0  0  0  0  0  0  0
    0.5088   -1.8953    0.6373 H   0  0  0  0  0  0  0  0  0  0  0  0
    0.4053   -3.5548   -1.4862 H   0  0  0  0  0  0  0  0  0  0  0  0
    1.1105   -5.1697   -2.7095 H   0  0  0  0  0  0  0  0  0  0  0  0
    2.3153   -5.7993   -3.7109 H   0  0  0  0  0  0  0  0  0  0  0  0
    4.8894   -3.9648   -5.1363 H   0  0  0  0  0  0  0  0  0  0  0  0
    5.9424   -5.3759   -6.7914 H   0  0  0  0  0  0  0  0  0  0  0  0
    7.0931   -8.8780   -6.1302 H   0  0  0  0  0  0  0  0  0  0  0  0
    7.6290   -9.1579   -8.4619 H   0  0  0  0  0  0  0  0  0  0  0  0
   10.4035   -6.8145   -8.0632 H   0  0  0  0  0  0  0  0  0  0  0  0
   10.6199   -5.9671  -12.2834 H   0  0  0  0  0  0  0  0  0  0  0  0
    8.8619   -7.6749  -12.7032 H   0  0  0  0  0  0  0  0  0  0  0  0
    6.1139   -8.6319   -3.9543 H   0  0  0  0  0  0  0  0  0  0  0  0
    5.0202   -7.1960   -2.2863 H   0  0  0  0  0  0  0  0  0  0  0  0
    6.2593   -3.9476   -1.8126 H   0  0  0  0  0  0  0  0  0  0  0  0
    5.4658   -1.3274    1.2520 H   0  0  0  0  0  0  0  0  0  0  0  0
  1  2  1  0  0  0  0
  1 38  1  0  0  0  0
  1 39  1  0  0  0  0
  1 40  1  0  0  0  0
  2  3  1  0  0  0  0
  2 37  1  0  0  0  0
  3  4  2  0  0  0  0
  3 41  1  0  0  0  0
  4  5  1  0  0  0  0
  4 36  1  0  0  0  0
  5  6  1  0  0  0  0
  5 35  2  0  0  0  0
  6  7  2  0  0  0  0
  6 42  1  0  0  0  0
  7  8  1  0  0  0  0
  7 43  1  0  0  0  0
  8  9  1  0  0  0  0
  8 35  1  0  0  0  0
  9 10  1  0  0  0  0
  9 11  2  0  0  0  0
 10 44  1  0  0  0  0
 10 45  1  0  0  0  0
 11 12  1  0  0  0  0
 11 33  1  0  0  0  0
 12 13  1  0  0  0  0
 12 32  2  0  0  0  0
 13 14  2  0  0  0  0
 13 46  1  0  0  0  0
 14 15  1  0  0  0  0
 14 47  1  0  0  0  0
 15 16  1  0  0  0  0
 15 31  2  0  0  0  0
 16 17  1  0  0  0  0
 16 48  1  0  0  0  0
 17 18  2  0  0  0  0
 17 19  1  0  0  0  0
 19 20  1  0  0  0  0
 19 49  1  0  0  0  0
 20 21  1  0  0  0  0
 20 29  2  0  0  0  0
 21 22  2  0  0  0  0
 21 50  1  0  0  0  0
 22 23  1  0  0  0  0
 22 27  1  0  0  0  0
 23 24  1  0  0  0  0
 23 25  1  0  0  0  0
 23 26  1  0  0  0  0
 27 28  2  0  0  0  0
 27 51  1  0  0  0  0
 28 29  1  0  0  0  0
 28 52  1  0  0  0  0
 29 30  1  0  0  0  0
 31 32  1  0  0  0  0
 31 53  1  0  0  0  0
 32 54  1  0  0  0  0
 33 34  2  0  0  0  0
 33 55  1  0  0  0  0
 34 35  1  0  0  0  0
 36 37  2  0  0  0  0
 36 56  1  0  0  0  0
M  END
$$$$
