CHEMBL3929803
 OpenBabel04072215373D

 71 76  0  0  1  0  0  0  0  0999 V2000
    2.9381   -4.8922   -3.4158 C   0  0  0  0  0  0  0  0  0  0  0  0
    3.2953   -3.5630   -3.0223 O   0  0  0  0  0  0  0  0  0  0  0  0
    4.1582   -2.8846   -3.8505 C   0  0  0  0  0  0  0  0  0  0  0  0
    4.5923   -3.3608   -5.0831 C   0  0  0  0  0  0  0  0  0  0  0  0
    5.4659   -2.5823   -5.8403 C   0  0  0  0  0  0  0  0  0  0  0  0
    5.9043   -2.9279   -7.0982 O   0  0  0  0  0  0  0  0  0  0  0  0
    5.2540   -4.0349   -7.6991 C   0  0  0  0  0  0  0  0  0  0  0  0
    5.9485   -1.3412   -5.3762 C   0  0  0  0  0  0  0  0  0  0  0  0
    5.5281   -0.7869   -4.1654 C   0  0  0  0  0  0  0  0  0  0  0  0
    6.0109    0.4914   -3.6960 N   0  0  0  0  0  0  0  0  0  0  0  0
    5.0091    1.1335   -2.6951 C   0  0  0  0  0  0  0  0  0  0  0  0
    5.1977    0.7673   -1.2103 C   0  0  0  0  0  0  0  0  0  0  0  0
    4.2474    1.3665   -0.1750 C   0  0  0  0  0  0  0  0  0  0  0  0
    5.6927    1.7408   -0.1483 C   0  0  0  0  0  0  0  0  0  0  0  0
    7.0190    1.4634   -4.1343 C   0  0  0  0  0  0  0  0  0  0  0  0
    7.4300    2.2938   -3.1184 C   0  0  0  0  0  0  0  0  0  0  0  0
    7.7673    3.6023   -3.3838 C   0  0  0  0  0  0  0  0  0  0  0  0
    8.0445    4.0385   -4.6334 C   0  0  0  0  0  0  0  0  0  0  0  0
    7.9782    5.3553   -4.6017 N   0  0  0  0  0  0  0  0  0  0  0  0
    8.7758    6.0105   -5.4310 C   0  0  0  0  0  0  0  0  0  0  0  0
    9.7002    5.4038   -6.2377 C   0  0  0  0  0  0  0  0  0  0  0  0
   10.8373    6.4046   -6.5459 C   0  0  0  0  0  0  0  0  0  0  0  0
   11.4262    6.9487   -7.7187 C   0  0  0  0  0  0  0  0  0  0  0  0
   12.1043    8.1078   -7.5278 N   0  0  0  0  0  0  0  0  0  0  0  0
   11.9906    8.3790   -6.1977 N   0  0  0  0  0  0  0  0  0  0  0  0
   12.4817    9.7052   -5.6692 C   0  0  0  0  0  0  0  0  0  0  0  0
   12.8382    9.8203   -4.1696 C   0  0  0  0  0  0  0  0  0  0  0  0
   12.8286    8.8277   -3.4383 O   0  0  0  0  0  0  0  0  0  0  0  0
   13.2133   11.0584   -3.6093 N   0  0  0  0  0  0  0  0  0  0  0  0
   13.5191   11.1692   -2.1765 C   0  0  0  0  0  0  0  0  0  0  0  0
   14.2729   12.4913   -1.9718 C   0  0  0  0  0  0  0  0  0  0  0  0
   14.4638   13.0490   -3.3793 C   0  0  3  0  0  0  0  0  0  0  0  0
   15.7503   12.6682   -3.8671 O   0  0  0  0  0  0  0  0  0  0  0  0
   13.3546   12.3838   -4.2168 C   0  0  0  0  0  0  0  0  0  0  0  0
   11.2283    7.3908   -5.5978 C   0  0  0  0  0  0  0  0  0  0  0  0
    9.5067    4.0094   -6.4722 N   0  0  0  0  0  0  0  0  0  0  0  0
    8.5019    3.2065   -5.6238 C   0  0  0  0  0  0  0  0  0  0  0  0
    7.7239    1.8235   -5.3699 C   0  0  0  0  0  0  0  0  0  0  0  0
    4.6075   -1.6089   -3.4250 C   0  0  0  0  0  0  0  0  0  0  0  0
    2.2761   -5.3232   -2.6528 H   0  0  0  0  0  0  0  0  0  0  0  0
    3.8242   -5.5411   -3.4733 H   0  0  0  0  0  0  0  0  0  0  0  0
    2.3895   -4.9022   -4.3599 H   0  0  0  0  0  0  0  0  0  0  0  0
    4.2503   -4.3214   -5.4409 H   0  0  0  0  0  0  0  0  0  0  0  0
    5.5784   -4.0835   -8.7408 H   0  0  0  0  0  0  0  0  0  0  0  0
    4.1628   -3.9220   -7.6970 H   0  0  0  0  0  0  0  0  0  0  0  0
    5.5529   -4.9651   -7.2043 H   0  0  0  0  0  0  0  0  0  0  0  0
    6.6406   -0.7973   -5.9996 H   0  0  0  0  0  0  0  0  0  0  0  0
    3.9800    0.8756   -2.9828 H   0  0  0  0  0  0  0  0  0  0  0  0
    5.0049    2.2288   -2.7871 H   0  0  0  0  0  0  0  0  0  0  0  0
    5.4556   -0.2749   -1.0625 H   0  0  0  0  0  0  0  0  0  0  0  0
    3.8896    0.7531    0.6474 H   0  0  0  0  0  0  0  0  0  0  0  0
    3.5516    2.1510   -0.4556 H   0  0  0  0  0  0  0  0  0  0  0  0
    6.2871    1.3499    0.6736 H   0  0  0  0  0  0  0  0  0  0  0  0
    5.9372    2.7639   -0.4078 H   0  0  0  0  0  0  0  0  0  0  0  0
    7.2735    2.0386   -2.0814 H   0  0  0  0  0  0  0  0  0  0  0  0
    7.7822    4.2942   -2.5736 H   0  0  0  0  0  0  0  0  0  0  0  0
    8.7513    7.0807   -5.2693 H   0  0  0  0  0  0  0  0  0  0  0  0
   11.3374    6.5980   -8.7396 H   0  0  0  0  0  0  0  0  0  0  0  0
   11.7066   10.4407   -5.9179 H   0  0  0  0  0  0  0  0  0  0  0  0
   13.3895    9.9320   -6.2426 H   0  0  0  0  0  0  0  0  0  0  0  0
   14.1027   10.3116   -1.8319 H   0  0  0  0  0  0  0  0  0  0  0  0
   12.5745   11.1967   -1.6201 H   0  0  0  0  0  0  0  0  0  0  0  0
   15.2248   12.3274   -1.4503 H   0  0  0  0  0  0  0  0  0  0  0  0
   13.6792   13.1772   -1.3544 H   0  0  0  0  0  0  0  0  0  0  0  0
   14.4230   14.1438   -3.3948 H   0  0  0  0  0  0  0  0  0  0  0  0
   15.8026   11.6962   -3.8273 H   0  0  0  0  0  0  0  0  0  0  0  0
   13.5885   12.3190   -5.2791 H   0  0  0  0  0  0  0  0  0  0  0  0
   12.4119   12.9233   -4.0610 H   0  0  0  0  0  0  0  0  0  0  0  0
   10.9643    7.5108   -4.5550 H   0  0  0  0  0  0  0  0  0  0  0  0
    7.7297    1.1133   -6.2095 H   0  0  0  0  0  0  0  0  0  0  0  0
    4.1991   -1.2935   -2.4695 H   0  0  0  0  0  0  0  0  0  0  0  0
  1  2  1  0  0  0  0
  1 40  1  0  0  0  0
  1 41  1  0  0  0  0
  1 42  1  0  0  0  0
  2  3  1  0  0  0  0
  3  4  1  0  0  0  0
  3 39  2  0  0  0  0
  4  5  2  0  0  0  0
  4 43  1  0  0  0  0
  5  6  1  0  0  0  0
  5  8  1  0  0  0  0
  6  7  1  0  0  0  0
  7 44  1  0  0  0  0
  7 45  1  0  0  0  0
  7 46  1  0  0  0  0
  8  9  2  0  0  0  0
  8 47  1  0  0  0  0
  9 10  1  0  0  0  0
  9 39  1  0  0  0  0
 10 11  1  0  0  0  0
 10 15  1  0  0  0  0
 11 12  1  0  0  0  0
 11 48  1  0  0  0  0
 11 49  1  0  0  0  0
 12 13  1  0  0  0  0
 12 14  1  0  0  0  0
 12 50  1  0  0  0  0
 13 14  1  0  0  0  0
 13 51  1  0  0  0  0
 13 52  1  0  0  0  0
 14 53  1  0  0  0  0
 14 54  1  0  0  0  0
 15 16  1  0  0  0  0
 15 38  2  0  0  0  0
 16 17  2  0  0  0  0
 16 55  1  0  0  0  0
 17 18  1  0  0  0  0
 17 56  1  0  0  0  0
 18 19  1  0  0  0  0
 18 37  2  0  0  0  0
 19 20  2  0  0  0  0
 20 21  1  0  0  0  0
 20 57  1  0  0  0  0
 21 22  1  0  0  0  0
 21 36  2  0  0  0  0
 22 23  1  0  0  0  0
 22 35  2  0  0  0  0
 23 24  2  0  0  0  0
 23 58  1  0  0  0  0
 24 25  1  0  0  0  0
 25 26  1  0  0  0  0
 25 35  1  0  0  0  0
 26 27  1  0  0  0  0
 26 59  1  0  0  0  0
 26 60  1  0  0  0  0
 27 28  2  0  0  0  0
 27 29  1  0  0  0  0
 29 30  1  0  0  0  0
 29 34  1  0  0  0  0
 30 31  1  0  0  0  0
 30 61  1  0  0  0  0
 30 62  1  0  0  0  0
 31 32  1  0  0  0  0
 31 63  1  0  0  0  0
 31 64  1  0  0  0  0
 32 33  1  0  0  0  0
 32 34  1  0  0  0  0
 32 65  1  0  0  0  0
 33 66  1  0  0  0  0
 34 67  1  0  0  0  0
 34 68  1  0  0  0  0
 35 69  1  0  0  0  0
 36 37  1  0  0  0  0
 37 38  1  0  0  0  0
 38 70  1  0  0  0  0
 39 71  1  0  0  0  0
M  END
$$$$
