CHEMBL3969381
 OpenBabel04072215373D

 70 73  0  0  1  0  0  0  0  0999 V2000
    2.4635   -4.2367    4.0324 C   0  0  0  0  0  0  0  0  0  0  0  0
    2.2623   -3.6581    2.7941 O   0  0  0  0  0  0  0  0  0  0  0  0
    3.1537   -2.8874    2.1103 C   0  0  0  0  0  0  0  0  0  0  0  0
    2.7049   -2.2610    0.9438 C   0  0  0  0  0  0  0  0  0  0  0  0
    3.5181   -1.3696    0.2361 C   0  0  0  0  0  0  0  0  0  0  0  0
    3.0770   -0.7260   -0.8863 O   0  0  0  0  0  0  0  0  0  0  0  0
    1.8010   -0.8136   -1.4216 C   0  0  0  0  0  0  0  0  0  0  0  0
    4.8240   -1.1328    0.6982 C   0  0  0  0  0  0  0  0  0  0  0  0
    5.3496   -1.8126    1.8318 C   0  0  0  0  0  0  0  0  0  0  0  0
    6.6940   -1.5480    2.3129 N   0  0  0  0  0  0  0  0  0  0  0  0
    7.2102   -0.1199    2.3033 C   0  0  0  0  0  0  0  0  0  0  0  0
    6.8102    0.9329    3.4264 C   0  0  0  0  0  0  0  0  0  0  0  0
    7.2210    0.8428    4.9449 C   0  0  0  0  0  0  0  0  0  0  0  0
    8.6808    0.7472    5.2297 N   0  0  0  0  0  0  0  0  0  0  0  0
    9.5656    1.8844    4.8715 C   0  0  0  0  0  0  0  0  0  0  0  0
   10.4359    2.1696    6.1109 C   0  0  0  0  0  0  0  0  0  0  0  0
   10.4522    0.8441    6.8332 C   0  0  2  0  0  0  0  0  0  0  0  0
   11.3485   -0.0860    6.1235 C   0  0  0  0  0  0  0  0  0  0  0  0
   12.0405   -0.8074    5.5310 N   0  0  0  0  0  0  0  0  0  0  0  0
    8.9831    0.4539    6.6437 C   0  0  0  0  0  0  0  0  0  0  0  0
    7.7417   -2.5501    2.5990 C   0  0  0  0  0  0  0  0  0  0  0  0
    8.4841   -2.1443    3.6787 C   0  0  0  0  0  0  0  0  0  0  0  0
    9.7160   -2.5614    3.9055 C   0  0  0  0  0  0  0  0  0  0  0  0
   10.2943   -3.4772    3.1316 C   0  0  0  0  0  0  0  0  0  0  0  0
   11.6114   -3.5060    3.2352 N   0  0  0  0  0  0  0  0  0  0  0  0
   12.3600   -4.3879    2.6196 C   0  0  0  0  0  0  0  0  0  0  0  0
   11.7434   -5.5301    2.1595 C   0  0  0  0  0  0  0  0  0  0  0  0
   12.5898   -6.7372    2.6890 C   0  0  0  0  0  0  0  0  0  0  0  0
   13.6643   -6.5614    3.6276 C   0  0  0  0  0  0  0  0  0  0  0  0
   14.0106   -7.7149    4.1761 N   0  0  0  0  0  0  0  0  0  0  0  0
   13.2564   -8.6466    3.6415 N   0  0  0  0  0  0  0  0  0  0  0  0
   13.2281   -9.9875    4.2081 C   0  0  0  0  0  0  0  0  0  0  0  0
   12.4274   -8.1219    2.6886 C   0  0  0  0  0  0  0  0  0  0  0  0
   10.3573   -5.4304    1.8147 N   0  0  0  0  0  0  0  0  0  0  0  0
    9.6099   -4.2831    2.2190 C   0  0  0  0  0  0  0  0  0  0  0  0
    8.2343   -3.7677    1.8750 C   0  0  0  0  0  0  0  0  0  0  0  0
    4.4898   -2.6821    2.5367 C   0  0  0  0  0  0  0  0  0  0  0  0
   -0.6921   -1.6521    1.3296 Cl  0  0  0  0  0  0  0  0  0  0  0  0
    1.5519   -4.7961    4.3360 H   0  0  0  0  0  0  0  0  0  0  0  0
    2.6581   -3.4591    4.8039 H   0  0  0  0  0  0  0  0  0  0  0  0
    3.3113   -4.9463    3.9818 H   0  0  0  0  0  0  0  0  0  0  0  0
    1.7058   -2.4605    0.5983 H   0  0  0  0  0  0  0  0  0  0  0  0
    1.7366   -0.2170   -2.3562 H   0  0  0  0  0  0  0  0  0  0  0  0
    1.0543   -0.4108   -0.7050 H   0  0  0  0  0  0  0  0  0  0  0  0
    1.5520   -1.8677   -1.6709 H   0  0  0  0  0  0  0  0  0  0  0  0
    5.4192   -0.4321    0.1333 H   0  0  0  0  0  0  0  0  0  0  0  0
    6.9547    0.3624    1.3446 H   0  0  0  0  0  0  0  0  0  0  0  0
    8.3211   -0.1085    2.2802 H   0  0  0  0  0  0  0  0  0  0  0  0
    5.7113    1.0769    3.3940 H   0  0  0  0  0  0  0  0  0  0  0  0
    7.2688    1.8924    3.0974 H   0  0  0  0  0  0  0  0  0  0  0  0
    6.7020   -0.0350    5.3858 H   0  0  0  0  0  0  0  0  0  0  0  0
    6.8128    1.7417    5.4666 H   0  0  0  0  0  0  0  0  0  0  0  0
    9.0517    2.7989    4.5075 H   0  0  0  0  0  0  0  0  0  0  0  0
   10.2339    1.5064    4.0687 H   0  0  0  0  0  0  0  0  0  0  0  0
    9.8880    2.8865    6.7695 H   0  0  0  0  0  0  0  0  0  0  0  0
   11.4333    2.6276    5.8977 H   0  0  0  0  0  0  0  0  0  0  0  0
   10.7757    0.8966    7.8932 H   0  0  0  0  0  0  0  0  0  0  0  0
    8.3768    1.1282    7.3043 H   0  0  0  0  0  0  0  0  0  0  0  0
    8.7587   -0.5932    6.9227 H   0  0  0  0  0  0  0  0  0  0  0  0
    8.1581   -1.3642    4.3028 H   0  0  0  0  0  0  0  0  0  0  0  0
   10.2814   -2.1009    4.6740 H   0  0  0  0  0  0  0  0  0  0  0  0
   13.4004   -4.2767    2.8217 H   0  0  0  0  0  0  0  0  0  0  0  0
   14.1161   -5.6648    4.0314 H   0  0  0  0  0  0  0  0  0  0  0  0
   13.8460  -10.0279    5.1421 H   0  0  0  0  0  0  0  0  0  0  0  0
   13.5834  -10.7479    3.4938 H   0  0  0  0  0  0  0  0  0  0  0  0
   12.1865  -10.1909    4.5272 H   0  0  0  0  0  0  0  0  0  0  0  0
   11.6969   -8.6995    2.1544 H   0  0  0  0  0  0  0  0  0  0  0  0
    7.6456   -4.1859    1.0556 H   0  0  0  0  0  0  0  0  0  0  0  0
    4.8418   -3.1616    3.4364 H   0  0  0  0  0  0  0  0  0  0  0  0
    0.4445   -1.0798    1.8636 H   0  0  0  0  0  0  0  0  0  0  0  0
  1  2  1  0  0  0  0
  1 39  1  0  0  0  0
  1 40  1  0  0  0  0
  1 41  1  0  0  0  0
  2  3  1  0  0  0  0
  3  4  1  0  0  0  0
  3 37  2  0  0  0  0
  4  5  2  0  0  0  0
  4 42  1  0  0  0  0
  5  6  1  0  0  0  0
  5  8  1  0  0  0  0
  6  7  1  0  0  0  0
  7 43  1  0  0  0  0
  7 44  1  0  0  0  0
  7 45  1  0  0  0  0
  8  9  2  0  0  0  0
  8 46  1  0  0  0  0
  9 10  1  0  0  0  0
  9 37  1  0  0  0  0
 10 11  1  0  0  0  0
 10 21  1  0  0  0  0
 11 12  1  0  0  0  0
 11 47  1  0  0  0  0
 11 48  1  0  0  0  0
 12 13  1  0  0  0  0
 12 49  1  0  0  0  0
 12 50  1  0  0  0  0
 13 14  1  0  0  0  0
 13 51  1  0  0  0  0
 13 52  1  0  0  0  0
 14 15  1  0  0  0  0
 14 20  1  0  0  0  0
 15 16  1  0  0  0  0
 15 53  1  0  0  0  0
 15 54  1  0  0  0  0
 16 17  1  0  0  0  0
 16 55  1  0  0  0  0
 16 56  1  0  0  0  0
 17 18  1  0  0  0  0
 17 20  1  0  0  0  0
 17 57  1  1  0  0  0
 18 19  3  0  0  0  0
 20 58  1  0  0  0  0
 20 59  1  0  0  0  0
 21 22  1  0  0  0  0
 21 36  2  0  0  0  0
 22 23  2  0  0  0  0
 22 60  1  0  0  0  0
 23 24  1  0  0  0  0
 23 61  1  0  0  0  0
 24 25  1  0  0  0  0
 24 35  2  0  0  0  0
 25 26  2  0  0  0  0
 26 27  1  0  0  0  0
 26 62  1  0  0  0  0
 27 28  1  0  0  0  0
 27 34  2  0  0  0  0
 28 29  1  0  0  0  0
 28 33  2  0  0  0  0
 29 30  2  0  0  0  0
 29 63  1  0  0  0  0
 30 31  1  0  0  0  0
 31 32  1  0  0  0  0
 31 33  1  0  0  0  0
 32 64  1  0  0  0  0
 32 65  1  0  0  0  0
 32 66  1  0  0  0  0
 33 67  1  0  0  0  0
 34 35  1  0  0  0  0
 35 36  1  0  0  0  0
 36 68  1  0  0  0  0
 37 69  1  0  0  0  0
 38 70  1  0  0  0  0
M  END
$$$$
