CHEMBL3893950
 OpenBabel04072215373D

 71 73  0  0  0  0  0  0  0  0999 V2000
    1.6054    2.2105    4.9599 C   0  0  0  0  0  0  0  0  0  0  0  0
    2.8626    2.3972    4.4429 O   0  0  0  0  0  0  0  0  0  0  0  0
    3.2766    2.0204    3.2094 C   0  0  0  0  0  0  0  0  0  0  0  0
    2.4311    1.5223    2.2162 C   0  0  0  0  0  0  0  0  0  0  0  0
    2.9270    1.2168    0.9484 C   0  0  0  0  0  0  0  0  0  0  0  0
    2.0627    0.7923   -0.0175 O   0  0  0  0  0  0  0  0  0  0  0  0
    2.2796    0.7545   -1.3888 C   0  0  0  0  0  0  0  0  0  0  0  0
    4.2967    1.3690    0.7185 C   0  0  0  0  0  0  0  0  0  0  0  0
    5.2064    1.8607    1.7186 C   0  0  0  0  0  0  0  0  0  0  0  0
    6.6168    2.1080    1.4566 N   0  0  0  0  0  0  0  0  0  0  0  0
    7.0171    2.0288   -0.0149 C   0  0  0  0  0  0  0  0  0  0  0  0
    8.3622    1.3626   -0.2149 C   0  0  0  0  0  0  0  0  0  0  0  0
    8.2828   -0.0062    0.2662 N   0  0  0  0  0  0  0  0  0  0  0  0
    9.6003   -0.6145    0.1558 C   0  0  0  0  0  0  0  0  0  0  0  0
    9.5386   -2.3170    0.8678 Si  0  0  0  0  0  0  0  0  0  0  0  0
   11.2287   -3.0765    0.7091 C   0  0  0  0  0  0  0  0  0  0  0  0
    9.0447   -2.1850    2.6603 C   0  0  0  0  0  0  0  0  0  0  0  0
    8.2817   -3.3169   -0.0783 C   0  0  0  0  0  0  0  0  0  0  0  0
    7.5301    2.8588    2.3913 C   0  0  0  0  0  0  0  0  0  0  0  0
    8.1454    3.8358    1.6672 C   0  0  0  0  0  0  0  0  0  0  0  0
    9.0069    4.6281    2.1345 C   0  0  0  0  0  0  0  0  0  0  0  0
    9.4149    4.5644    3.3750 C   0  0  0  0  0  0  0  0  0  0  0  0
   10.3831    5.3370    3.4131 N   0  0  0  0  0  0  0  0  0  0  0  0
   11.1492    5.5426    4.3483 C   0  0  0  0  0  0  0  0  0  0  0  0
   10.9831    5.1309    5.6104 C   0  0  0  0  0  0  0  0  0  0  0  0
   12.2021    6.0499    6.3734 C   0  0  0  0  0  0  0  0  0  0  0  0
   12.8848    7.1071    5.5848 C   0  0  0  0  0  0  0  0  0  0  0  0
   13.8154    7.7371    6.2506 N   0  0  0  0  0  0  0  0  0  0  0  0
   13.8552    7.2724    7.4689 N   0  0  0  0  0  0  0  0  0  0  0  0
   14.8295    7.9494    8.3500 C   0  0  0  0  0  0  0  0  0  0  0  0
   12.9025    6.2527    7.6326 C   0  0  0  0  0  0  0  0  0  0  0  0
    9.9185    4.1353    5.6314 N   0  0  0  0  0  0  0  0  0  0  0  0
    9.0646    3.7663    4.4306 C   0  0  0  0  0  0  0  0  0  0  0  0
    7.9494    2.8008    3.8979 C   0  0  0  0  0  0  0  0  0  0  0  0
    4.6515    2.2026    2.9494 C   0  0  0  0  0  0  0  0  0  0  0  0
    1.4831   -2.5136    0.4170 Cl  0  0  0  0  0  0  0  0  0  0  0  0
    1.5631    2.7270    5.9399 H   0  0  0  0  0  0  0  0  0  0  0  0
    1.4122    1.1275    5.1102 H   0  0  0  0  0  0  0  0  0  0  0  0
    0.8402    2.6541    4.2913 H   0  0  0  0  0  0  0  0  0  0  0  0
    1.3720    1.3915    2.3935 H   0  0  0  0  0  0  0  0  0  0  0  0
    1.4355    0.2278   -1.8817 H   0  0  0  0  0  0  0  0  0  0  0  0
    3.1993    0.1936   -1.6545 H   0  0  0  0  0  0  0  0  0  0  0  0
    2.3295    1.7894   -1.7919 H   0  0  0  0  0  0  0  0  0  0  0  0
    4.5709    1.0943   -0.2674 H   0  0  0  0  0  0  0  0  0  0  0  0
    6.9907    3.0049   -0.5440 H   0  0  0  0  0  0  0  0  0  0  0  0
    6.3744    1.5122   -0.7173 H   0  0  0  0  0  0  0  0  0  0  0  0
    9.1510    1.9128    0.3321 H   0  0  0  0  0  0  0  0  0  0  0  0
    8.6286    1.3733   -1.2995 H   0  0  0  0  0  0  0  0  0  0  0  0
    7.5999   -0.5275   -0.3355 H   0  0  0  0  0  0  0  0  0  0  0  0
   10.3389   -0.0313    0.7477 H   0  0  0  0  0  0  0  0  0  0  0  0
    9.9200   -0.6617   -0.9075 H   0  0  0  0  0  0  0  0  0  0  0  0
   11.9641   -2.4540    1.2595 H   0  0  0  0  0  0  0  0  0  0  0  0
   11.5101   -3.1184   -0.3635 H   0  0  0  0  0  0  0  0  0  0  0  0
   11.2063   -4.0991    1.1336 H   0  0  0  0  0  0  0  0  0  0  0  0
    9.7902   -1.5665    3.2020 H   0  0  0  0  0  0  0  0  0  0  0  0
    9.0048   -3.1998    3.1025 H   0  0  0  0  0  0  0  0  0  0  0  0
    8.0474   -1.7031    2.7332 H   0  0  0  0  0  0  0  0  0  0  0  0
    8.5738   -3.3516   -1.1482 H   0  0  0  0  0  0  0  0  0  0  0  0
    7.2824   -2.8435    0.0142 H   0  0  0  0  0  0  0  0  0  0  0  0
    8.2429   -4.3416    0.3386 H   0  0  0  0  0  0  0  0  0  0  0  0
    8.0313    4.0723    0.6486 H   0  0  0  0  0  0  0  0  0  0  0  0
    9.4483    5.3395    1.4297 H   0  0  0  0  0  0  0  0  0  0  0  0
   11.8382    6.1017    3.9219 H   0  0  0  0  0  0  0  0  0  0  0  0
   12.8172    7.5080    4.5957 H   0  0  0  0  0  0  0  0  0  0  0  0
   15.4151    8.7304    7.7810 H   0  0  0  0  0  0  0  0  0  0  0  0
   15.5861    7.2542    8.7458 H   0  0  0  0  0  0  0  0  0  0  0  0
   14.3224    8.5220    9.1521 H   0  0  0  0  0  0  0  0  0  0  0  0
   12.7882    5.7579    8.5793 H   0  0  0  0  0  0  0  0  0  0  0  0
    7.4759    2.0206    4.4983 H   0  0  0  0  0  0  0  0  0  0  0  0
    5.2682    2.6275    3.7185 H   0  0  0  0  0  0  0  0  0  0  0  0
    1.2600   -1.2322    0.8424 H   0  0  0  0  0  0  0  0  0  0  0  0
  1  2  1  0  0  0  0
  1 37  1  0  0  0  0
  1 38  1  0  0  0  0
  1 39  1  0  0  0  0
  2  3  1  0  0  0  0
  3  4  1  0  0  0  0
  3 35  2  0  0  0  0
  4  5  2  0  0  0  0
  4 40  1  0  0  0  0
  5  6  1  0  0  0  0
  5  8  1  0  0  0  0
  6  7  1  0  0  0  0
  7 41  1  0  0  0  0
  7 42  1  0  0  0  0
  7 43  1  0  0  0  0
  8  9  2  0  0  0  0
  8 44  1  0  0  0  0
  9 10  1  0  0  0  0
  9 35  1  0  0  0  0
 10 11  1  0  0  0  0
 10 19  1  0  0  0  0
 11 12  1  0  0  0  0
 11 45  1  0  0  0  0
 11 46  1  0  0  0  0
 12 13  1  0  0  0  0
 12 47  1  0  0  0  0
 12 48  1  0  0  0  0
 13 14  1  0  0  0  0
 13 49  1  0  0  0  0
 14 15  1  0  0  0  0
 14 50  1  0  0  0  0
 14 51  1  0  0  0  0
 15 16  1  0  0  0  0
 15 17  1  0  0  0  0
 15 18  1  0  0  0  0
 16 52  1  0  0  0  0
 16 53  1  0  0  0  0
 16 54  1  0  0  0  0
 17 55  1  0  0  0  0
 17 56  1  0  0  0  0
 17 57  1  0  0  0  0
 18 58  1  0  0  0  0
 18 59  1  0  0  0  0
 18 60  1  0  0  0  0
 19 20  1  0  0  0  0
 19 34  2  0  0  0  0
 20 21  2  0  0  0  0
 20 61  1  0  0  0  0
 21 22  1  0  0  0  0
 21 62  1  0  0  0  0
 22 23  1  0  0  0  0
 22 33  2  0  0  0  0
 23 24  2  0  0  0  0
 24 25  1  0  0  0  0
 24 63  1  0  0  0  0
 25 26  1  0  0  0  0
 25 32  2  0  0  0  0
 26 27  1  0  0  0  0
 26 31  2  0  0  0  0
 27 28  2  0  0  0  0
 27 64  1  0  0  0  0
 28 29  1  0  0  0  0
 29 30  1  0  0  0  0
 29 31  1  0  0  0  0
 30 65  1  0  0  0  0
 30 66  1  0  0  0  0
 30 67  1  0  0  0  0
 31 68  1  0  0  0  0
 32 33  1  0  0  0  0
 33 34  1  0  0  0  0
 34 69  1  0  0  0  0
 35 70  1  0  0  0  0
 36 71  1  0  0  0  0
M  END
$$$$
