CHEMBL4647945
 OpenBabel04072215383D

103108  0  0  0  0  0  0  0  0999 V2000
    9.8319   -0.3627   -6.8131 C   0  0  0  0  0  0  0  0  0  0  0  0
   10.2059    0.6438   -5.7392 C   0  0  0  0  0  0  0  0  0  0  0  0
    8.9882    1.3437   -5.2963 N   0  0  0  0  0  0  0  0  0  0  0  0
    9.2014    2.5531   -4.1367 S   0  0  0  0  0  0  0  0  0  0  0  0
   10.5032    3.1552   -4.3502 O   0  0  0  0  0  0  0  0  0  0  0  0
    7.9979    3.3645   -4.1267 O   0  0  0  0  0  0  0  0  0  0  0  0
    9.2268    1.6654   -2.5995 C   0  0  0  0  0  0  0  0  0  0  0  0
   10.4073    1.7379   -1.8351 C   0  0  0  0  0  0  0  0  0  0  0  0
   10.4602    1.1703   -0.5556 C   0  0  0  0  0  0  0  0  0  0  0  0
    9.3210    0.5957   -0.0165 C   0  0  0  0  0  0  0  0  0  0  0  0
    8.1520    0.5351   -0.7725 C   0  0  0  0  0  0  0  0  0  0  0  0
    8.1031    0.9879   -2.1113 C   0  0  0  0  0  0  0  0  0  0  0  0
    6.8955    0.7684   -2.8665 N   0  0  0  0  0  0  0  0  0  0  0  0
    6.1833   -0.4741   -2.7213 C   0  0  0  0  0  0  0  0  0  0  0  0
    6.8984   -1.5371   -2.2938 N   0  0  0  0  0  0  0  0  0  0  0  0
    6.2535   -2.6492   -1.9376 C   0  0  0  0  0  0  0  0  0  0  0  0
    7.0448   -3.6346   -1.3612 N   0  0  0  0  0  0  0  0  0  0  0  0
    6.7335   -4.5102   -0.3113 C   0  0  0  0  0  0  0  0  0  0  0  0
    5.6907   -4.3028    0.5855 C   0  0  0  0  0  0  0  0  0  0  0  0
    5.4178   -5.2373    1.5920 C   0  0  0  0  0  0  0  0  0  0  0  0
    6.1800   -6.4098    1.7509 C   0  0  0  0  0  0  0  0  0  0  0  0
    5.9524   -7.2867    2.8344 N   0  0  0  0  0  0  0  0  0  0  0  0
    5.4881   -6.6634    4.0767 C   0  0  0  0  0  0  0  0  0  0  0  0
    5.8158   -7.6064    5.2217 C   0  0  0  0  0  0  0  0  0  0  0  0
    5.1124   -8.9782    5.0977 C   0  0  0  0  0  0  0  0  0  0  0  0
    3.6691   -9.0324    5.4841 N   0  0  0  0  0  0  0  0  0  0  0  0
    3.2944   -8.1806    6.6388 C   0  0  0  0  0  0  0  0  0  0  0  0
    3.9441   -8.5910    7.9811 C   0  0  0  0  0  0  0  0  0  0  0  0
    3.6516   -9.9778    8.3774 N   0  0  0  0  0  0  0  0  0  0  0  0
    4.5136  -10.3739    9.4958 C   0  0  0  0  0  0  0  0  0  0  0  0
    3.7975  -10.9200    7.2509 C   0  0  0  0  0  0  0  0  0  0  0  0
    3.2587  -10.4145    5.8782 C   0  0  0  0  0  0  0  0  0  0  0  0
    5.3566   -9.5252    3.6576 C   0  0  0  0  0  0  0  0  0  0  0  0
    5.1841   -8.5017    2.5178 C   0  0  0  0  0  0  0  0  0  0  0  0
    7.2419   -6.6176    0.8343 C   0  0  0  0  0  0  0  0  0  0  0  0
    7.9986   -7.7628    0.9690 O   0  0  0  0  0  0  0  0  0  0  0  0
    9.2968   -7.7223    0.3787 C   0  0  0  0  0  0  0  0  0  0  0  0
    7.5018   -5.6679   -0.1709 C   0  0  0  0  0  0  0  0  0  0  0  0
    4.9418   -2.8309   -2.1207 N   0  0  0  0  0  0  0  0  0  0  0  0
    4.2698   -1.8241   -2.7066 C   0  0  0  0  0  0  0  0  0  0  0  0
    4.8300   -0.6066   -3.0358 C   0  0  0  0  0  0  0  0  0  0  0  0
    3.9935    0.4142   -3.5601 N   0  0  0  0  0  0  0  0  0  0  0  0
    3.7932    1.5648   -2.8101 C   0  0  0  0  0  0  0  0  0  0  0  0
    4.3879    1.7329   -1.7504 O   0  0  0  0  0  0  0  0  0  0  0  0
    2.8072    2.5756   -3.2993 C   0  0  0  0  0  0  0  0  0  0  0  0
    1.6400    2.1547   -3.9957 C   0  0  0  0  0  0  0  0  0  0  0  0
    0.6452    3.0747   -4.3456 C   0  0  0  0  0  0  0  0  0  0  0  0
   -0.5366    2.8106   -4.9803 O   0  0  0  0  0  0  0  0  0  0  0  0
   -0.8347    1.4712   -5.3403 C   0  0  0  0  0  0  0  0  0  0  0  0
    0.8092    4.4143   -4.0111 C   0  0  0  0  0  0  0  0  0  0  0  0
    1.9472    4.8392   -3.3307 C   0  0  0  0  0  0  0  0  0  0  0  0
    2.9560    3.9374   -2.9735 C   0  0  0  0  0  0  0  0  0  0  0  0
    3.9373    4.5299   -2.2236 O   0  0  0  0  0  0  0  0  0  0  0  0
    5.2943    4.2321   -2.5372 C   0  0  0  0  0  0  0  0  0  0  0  0
   10.7179   -0.9085   -7.1508 H   0  0  0  0  0  0  0  0  0  0  0  0
    9.3874    0.1370   -7.6809 H   0  0  0  0  0  0  0  0  0  0  0  0
    9.1030   -1.0872   -6.4351 H   0  0  0  0  0  0  0  0  0  0  0  0
   10.9150    1.3618   -6.1678 H   0  0  0  0  0  0  0  0  0  0  0  0
   10.6788    0.1291   -4.8971 H   0  0  0  0  0  0  0  0  0  0  0  0
    8.2466    0.7114   -4.9710 H   0  0  0  0  0  0  0  0  0  0  0  0
   11.2897    2.2423   -2.2161 H   0  0  0  0  0  0  0  0  0  0  0  0
   11.3751    1.2110    0.0222 H   0  0  0  0  0  0  0  0  0  0  0  0
    9.3321    0.1839    0.9908 H   0  0  0  0  0  0  0  0  0  0  0  0
    7.2727    0.0856   -0.3126 H   0  0  0  0  0  0  0  0  0  0  0  0
    6.2235    1.4713   -2.5261 H   0  0  0  0  0  0  0  0  0  0  0  0
    8.0067   -3.3176   -1.3632 H   0  0  0  0  0  0  0  0  0  0  0  0
    5.0840   -3.4025    0.5349 H   0  0  0  0  0  0  0  0  0  0  0  0
    4.5894   -5.0235    2.2606 H   0  0  0  0  0  0  0  0  0  0  0  0
    4.4113   -6.4537    4.0416 H   0  0  0  0  0  0  0  0  0  0  0  0
    6.0155   -5.7185    4.2551 H   0  0  0  0  0  0  0  0  0  0  0  0
    5.6087   -7.1107    6.1731 H   0  0  0  0  0  0  0  0  0  0  0  0
    6.8999   -7.7849    5.2260 H   0  0  0  0  0  0  0  0  0  0  0  0
    5.6606   -9.6369    5.7822 H   0  0  0  0  0  0  0  0  0  0  0  0
    2.2014   -8.2235    6.7566 H   0  0  0  0  0  0  0  0  0  0  0  0
    3.4943   -7.1252    6.4273 H   0  0  0  0  0  0  0  0  0  0  0  0
    3.5610   -7.9208    8.7613 H   0  0  0  0  0  0  0  0  0  0  0  0
    5.0268   -8.4297    7.9274 H   0  0  0  0  0  0  0  0  0  0  0  0
    4.4279   -9.6651   10.3276 H   0  0  0  0  0  0  0  0  0  0  0  0
    5.5703  -10.4167    9.2023 H   0  0  0  0  0  0  0  0  0  0  0  0
    4.2260  -11.3573    9.8822 H   0  0  0  0  0  0  0  0  0  0  0  0
    3.2553  -11.8393    7.5086 H   0  0  0  0  0  0  0  0  0  0  0  0
    4.8492  -11.2038    7.1239 H   0  0  0  0  0  0  0  0  0  0  0  0
    2.1604  -10.4380    5.9152 H   0  0  0  0  0  0  0  0  0  0  0  0
    3.5312  -11.1397    5.1044 H   0  0  0  0  0  0  0  0  0  0  0  0
    4.7296  -10.3991    3.4485 H   0  0  0  0  0  0  0  0  0  0  0  0
    6.3918   -9.8913    3.6211 H   0  0  0  0  0  0  0  0  0  0  0  0
    4.1213   -8.2597    2.3862 H   0  0  0  0  0  0  0  0  0  0  0  0
    5.5324   -8.9606    1.5840 H   0  0  0  0  0  0  0  0  0  0  0  0
    9.8279   -8.6381    0.6514 H   0  0  0  0  0  0  0  0  0  0  0  0
    9.8756   -6.8720    0.7585 H   0  0  0  0  0  0  0  0  0  0  0  0
    9.2441   -7.6991   -0.7161 H   0  0  0  0  0  0  0  0  0  0  0  0
    8.2970   -5.8173   -0.8929 H   0  0  0  0  0  0  0  0  0  0  0  0
    3.2066   -2.0140   -2.8212 H   0  0  0  0  0  0  0  0  0  0  0  0
    3.2273    0.1094   -4.1417 H   0  0  0  0  0  0  0  0  0  0  0  0
    1.4775    1.1072   -4.2043 H   0  0  0  0  0  0  0  0  0  0  0  0
   -1.8063    1.4742   -5.8462 H   0  0  0  0  0  0  0  0  0  0  0  0
   -0.9232    0.8334   -4.4554 H   0  0  0  0  0  0  0  0  0  0  0  0
   -0.0949    1.0775   -6.0432 H   0  0  0  0  0  0  0  0  0  0  0  0
    0.0326    5.1352   -4.2595 H   0  0  0  0  0  0  0  0  0  0  0  0
    2.0437    5.8883   -3.0559 H   0  0  0  0  0  0  0  0  0  0  0  0
    5.8652    5.1640   -2.4891 H   0  0  0  0  0  0  0  0  0  0  0  0
    5.4242    3.7946   -3.5306 H   0  0  0  0  0  0  0  0  0  0  0  0
    5.7159    3.5858   -1.7626 H   0  0  0  0  0  0  0  0  0  0  0  0
  1  2  1  0  0  0  0
  1 55  1  0  0  0  0
  1 56  1  0  0  0  0
  1 57  1  0  0  0  0
  2  3  1  0  0  0  0
  2 58  1  0  0  0  0
  2 59  1  0  0  0  0
  3  4  1  0  0  0  0
  3 60  1  0  0  0  0
  4  5  2  0  0  0  0
  4  6  2  0  0  0  0
  4  7  1  0  0  0  0
  7  8  1  0  0  0  0
  7 12  2  0  0  0  0
  8  9  2  0  0  0  0
  8 61  1  0  0  0  0
  9 10  1  0  0  0  0
  9 62  1  0  0  0  0
 10 11  2  0  0  0  0
 10 63  1  0  0  0  0
 11 12  1  0  0  0  0
 11 64  1  0  0  0  0
 12 13  1  0  0  0  0
 13 14  1  0  0  0  0
 13 65  1  0  0  0  0
 14 15  1  0  0  0  0
 14 41  2  0  0  0  0
 15 16  2  0  0  0  0
 16 17  1  0  0  0  0
 16 39  1  0  0  0  0
 17 18  1  0  0  0  0
 17 66  1  0  0  0  0
 18 19  1  0  0  0  0
 18 38  2  0  0  0  0
 19 20  2  0  0  0  0
 19 67  1  0  0  0  0
 20 21  1  0  0  0  0
 20 68  1  0  0  0  0
 21 22  1  0  0  0  0
 21 35  2  0  0  0  0
 22 23  1  0  0  0  0
 22 34  1  0  0  0  0
 23 24  1  0  0  0  0
 23 69  1  0  0  0  0
 23 70  1  0  0  0  0
 24 25  1  0  0  0  0
 24 71  1  0  0  0  0
 24 72  1  0  0  0  0
 25 26  1  0  0  0  0
 25 33  1  0  0  0  0
 25 73  1  0  0  0  0
 26 27  1  0  0  0  0
 26 32  1  0  0  0  0
 27 28  1  0  0  0  0
 27 74  1  0  0  0  0
 27 75  1  0  0  0  0
 28 29  1  0  0  0  0
 28 76  1  0  0  0  0
 28 77  1  0  0  0  0
 29 30  1  0  0  0  0
 29 31  1  0  0  0  0
 30 78  1  0  0  0  0
 30 79  1  0  0  0  0
 30 80  1  0  0  0  0
 31 32  1  0  0  0  0
 31 81  1  0  0  0  0
 31 82  1  0  0  0  0
 32 83  1  0  0  0  0
 32 84  1  0  0  0  0
 33 34  1  0  0  0  0
 33 85  1  0  0  0  0
 33 86  1  0  0  0  0
 34 87  1  0  0  0  0
 34 88  1  0  0  0  0
 35 36  1  0  0  0  0
 35 38  1  0  0  0  0
 36 37  1  0  0  0  0
 37 89  1  0  0  0  0
 37 90  1  0  0  0  0
 37 91  1  0  0  0  0
 38 92  1  0  0  0  0
 39 40  2  0  0  0  0
 40 41  1  0  0  0  0
 40 93  1  0  0  0  0
 41 42  1  0  0  0  0
 42 43  1  0  0  0  0
 42 94  1  0  0  0  0
 43 44  2  0  0  0  0
 43 45  1  0  0  0  0
 45 46  1  0  0  0  0
 45 52  2  0  0  0  0
 46 47  2  0  0  0  0
 46 95  1  0  0  0  0
 47 48  1  0  0  0  0
 47 50  1  0  0  0  0
 48 49  1  0  0  0  0
 49 96  1  0  0  0  0
 49 97  1  0  0  0  0
 49 98  1  0  0  0  0
 50 51  2  0  0  0  0
 50 99  1  0  0  0  0
 51 52  1  0  0  0  0
 51100  1  0  0  0  0
 52 53  1  0  0  0  0
 53 54  1  0  0  0  0
 54101  1  0  0  0  0
 54102  1  0  0  0  0
 54103  1  0  0  0  0
M  END
$$$$
