CHEMBL495735
 OpenBabel04072215383D

 65 70  0  0  0  0  0  0  0  0999 V2000
    1.9348   -2.5887    0.0644 C   0  0  0  0  0  0  0  0  0  0  0  0
    0.7388   -1.8195   -0.2734 N   0  0  0  0  0  0  0  0  0  0  0  0
   -0.4708   -2.6687   -0.1444 C   0  0  0  0  0  0  0  0  0  0  0  0
   -1.7889   -1.8926   -0.3862 C   0  0  0  0  0  0  0  0  0  0  0  0
   -1.8362   -0.7546    0.5405 N   0  0  0  0  0  0  0  0  0  0  0  0
   -3.0380   -0.2345    0.9894 C   0  0  0  0  0  0  0  0  0  0  0  0
   -3.0634    0.4581    2.2174 C   0  0  0  0  0  0  0  0  0  0  0  0
   -4.2342    0.9664    2.7877 C   0  0  0  0  0  0  0  0  0  0  0  0
   -5.4037    0.7421    2.0741 C   0  0  0  0  0  0  0  0  0  0  0  0
   -6.7030    1.0724    2.3258 N   0  0  0  0  0  0  0  0  0  0  0  0
   -7.4915    0.6082    1.2975 C   0  0  0  0  0  0  0  0  0  0  0  0
   -8.8999    0.8717    1.3180 C   0  0  0  0  0  0  0  0  0  0  0  0
   -9.6880    0.4209    0.3088 C   0  0  0  0  0  0  0  0  0  0  0  0
   -9.2504   -0.3948   -0.7394 N   0  0  0  0  0  0  0  0  0  0  0  0
  -11.1191    0.8326    0.2739 C   0  0  0  0  0  0  0  0  0  0  0  0
  -11.9905    0.4679   -0.7659 C   0  0  0  0  0  0  0  0  0  0  0  0
  -13.3210    0.9146   -0.8246 C   0  0  0  0  0  0  0  0  0  0  0  0
  -14.0801    0.5831   -1.9384 N   0  0  0  0  0  0  0  0  0  0  0  0
  -15.5342    0.5600   -1.9165 C   0  0  0  0  0  0  0  0  0  0  0  0
  -16.0809    1.6567   -2.7962 C   0  0  0  0  0  0  0  0  0  0  0  0
  -15.7782    1.6876   -4.1669 C   0  0  0  0  0  0  0  0  0  0  0  0
  -16.2682    2.7091   -4.9809 C   0  0  0  0  0  0  0  0  0  0  0  0
  -17.0716    3.7080   -4.4361 C   0  0  0  0  0  0  0  0  0  0  0  0
  -17.3904    3.6828   -3.0796 C   0  0  0  0  0  0  0  0  0  0  0  0
  -16.8992    2.6622   -2.2630 C   0  0  0  0  0  0  0  0  0  0  0  0
  -13.7693    1.7653    0.1883 C   0  0  0  0  0  0  0  0  0  0  0  0
  -12.9404    2.1115    1.2559 C   0  0  0  0  0  0  0  0  0  0  0  0
  -11.6277    1.6478    1.2882 C   0  0  0  0  0  0  0  0  0  0  0  0
  -10.8071    2.0315    2.3443 N   0  0  0  0  0  0  0  0  0  0  0  0
   -9.4902    1.6963    2.4303 C   0  0  0  0  0  0  0  0  0  0  0  0
   -8.8228    2.0809    3.3924 O   0  0  0  0  0  0  0  0  0  0  0  0
   -6.7366   -0.0017    0.3928 N   0  0  0  0  0  0  0  0  0  0  0  0
   -5.4464    0.0685    0.8650 C   0  0  0  0  0  0  0  0  0  0  0  0
   -4.2547   -0.4248    0.3116 C   0  0  0  0  0  0  0  0  0  0  0  0
   -0.6878    0.1554    0.3919 C   0  0  0  0  0  0  0  0  0  0  0  0
    0.6170   -0.6416    0.6188 C   0  0  0  0  0  0  0  0  0  0  0  0
    2.0443   -3.4419   -0.6120 H   0  0  0  0  0  0  0  0  0  0  0  0
    1.9143   -2.9611    1.0950 H   0  0  0  0  0  0  0  0  0  0  0  0
    2.8313   -1.9713   -0.0615 H   0  0  0  0  0  0  0  0  0  0  0  0
   -0.5112   -3.1080    0.8624 H   0  0  0  0  0  0  0  0  0  0  0  0
   -0.4178   -3.4956   -0.8618 H   0  0  0  0  0  0  0  0  0  0  0  0
   -2.6227   -2.5840   -0.2145 H   0  0  0  0  0  0  0  0  0  0  0  0
   -1.8420   -1.5434   -1.4254 H   0  0  0  0  0  0  0  0  0  0  0  0
   -2.1401    0.5674    2.7827 H   0  0  0  0  0  0  0  0  0  0  0  0
   -4.2235    1.4774    3.7430 H   0  0  0  0  0  0  0  0  0  0  0  0
   -7.0457    1.5893    3.1281 H   0  0  0  0  0  0  0  0  0  0  0  0
   -8.2261   -0.5075   -0.7004 H   0  0  0  0  0  0  0  0  0  0  0  0
   -9.5037   -0.0202   -1.6488 H   0  0  0  0  0  0  0  0  0  0  0  0
  -11.6341   -0.1837   -1.5592 H   0  0  0  0  0  0  0  0  0  0  0  0
  -13.6751   -0.1316   -2.5323 H   0  0  0  0  0  0  0  0  0  0  0  0
  -15.9442    0.6188   -0.9017 H   0  0  0  0  0  0  0  0  0  0  0  0
  -15.8765   -0.4044   -2.3119 H   0  0  0  0  0  0  0  0  0  0  0  0
  -15.1419    0.9202   -4.6015 H   0  0  0  0  0  0  0  0  0  0  0  0
  -16.0147    2.7290   -6.0374 H   0  0  0  0  0  0  0  0  0  0  0  0
  -17.4444    4.5094   -5.0680 H   0  0  0  0  0  0  0  0  0  0  0  0
  -18.0165    4.4635   -2.6555 H   0  0  0  0  0  0  0  0  0  0  0  0
  -17.1529    2.6627   -1.2058 H   0  0  0  0  0  0  0  0  0  0  0  0
  -14.7642    2.1979    0.1541 H   0  0  0  0  0  0  0  0  0  0  0  0
  -13.3217    2.7677    2.0321 H   0  0  0  0  0  0  0  0  0  0  0  0
  -11.1696    2.6031    3.0953 H   0  0  0  0  0  0  0  0  0  0  0  0
   -4.3027   -0.9416   -0.6395 H   0  0  0  0  0  0  0  0  0  0  0  0
   -0.7127    0.9905    1.1004 H   0  0  0  0  0  0  0  0  0  0  0  0
   -0.6924    0.5916   -0.6159 H   0  0  0  0  0  0  0  0  0  0  0  0
    0.6471   -0.9606    1.6702 H   0  0  0  0  0  0  0  0  0  0  0  0
    1.4663    0.0319    0.4545 H   0  0  0  0  0  0  0  0  0  0  0  0
  1  2  1  0  0  0  0
  1 37  1  0  0  0  0
  1 38  1  0  0  0  0
  1 39  1  0  0  0  0
  2  3  1  0  0  0  0
  2 36  1  0  0  0  0
  3  4  1  0  0  0  0
  3 40  1  0  0  0  0
  3 41  1  0  0  0  0
  4  5  1  0  0  0  0
  4 42  1  0  0  0  0
  4 43  1  0  0  0  0
  5  6  1  0  0  0  0
  5 35  1  0  0  0  0
  6  7  1  0  0  0  0
  6 34  2  0  0  0  0
  7  8  2  0  0  0  0
  7 44  1  0  0  0  0
  8  9  1  0  0  0  0
  8 45  1  0  0  0  0
  9 10  1  0  0  0  0
  9 33  2  0  0  0  0
 10 11  1  0  0  0  0
 10 46  1  0  0  0  0
 11 12  1  0  0  0  0
 11 32  2  0  0  0  0
 12 13  2  0  0  0  0
 12 30  1  0  0  0  0
 13 14  1  0  0  0  0
 13 15  1  0  0  0  0
 14 47  1  0  0  0  0
 14 48  1  0  0  0  0
 15 16  1  0  0  0  0
 15 28  2  0  0  0  0
 16 17  2  0  0  0  0
 16 49  1  0  0  0  0
 17 18  1  0  0  0  0
 17 26  1  0  0  0  0
 18 19  1  0  0  0  0
 18 50  1  0  0  0  0
 19 20  1  0  0  0  0
 19 51  1  0  0  0  0
 19 52  1  0  0  0  0
 20 21  1  0  0  0  0
 20 25  2  0  0  0  0
 21 22  2  0  0  0  0
 21 53  1  0  0  0  0
 22 23  1  0  0  0  0
 22 54  1  0  0  0  0
 23 24  2  0  0  0  0
 23 55  1  0  0  0  0
 24 25  1  0  0  0  0
 24 56  1  0  0  0  0
 25 57  1  0  0  0  0
 26 27  2  0  0  0  0
 26 58  1  0  0  0  0
 27 28  1  0  0  0  0
 27 59  1  0  0  0  0
 28 29  1  0  0  0  0
 29 30  1  0  0  0  0
 29 60  1  0  0  0  0
 30 31  2  0  0  0  0
 32 33  1  0  0  0  0
 33 34  1  0  0  0  0
 34 61  1  0  0  0  0
 35 36  1  0  0  0  0
 35 62  1  0  0  0  0
 35 63  1  0  0  0  0
 36 64  1  0  0  0  0
 36 65  1  0  0  0  0
M  END
$$$$
