CHEMBL3929648
 OpenBabel04072215373D

 74 78  0  0  0  0  0  0  0  0999 V2000
    2.3397   -4.3075   -1.0407 C   0  0  0  0  0  0  0  0  0  0  0  0
    3.5073   -3.4796   -1.1476 N   0  0  0  0  0  0  0  0  0  0  0  0
    3.6950   -2.3716   -0.3421 C   0  0  0  0  0  0  0  0  0  0  0  0
    2.8946   -2.0092    0.5207 O   0  0  0  0  0  0  0  0  0  0  0  0
    4.9804   -1.6395   -0.5496 C   0  0  0  0  0  0  0  0  0  0  0  0
    5.5083   -0.8726    0.4780 C   0  0  0  0  0  0  0  0  0  0  0  0
    6.7434   -0.2385    0.3033 C   0  0  0  0  0  0  0  0  0  0  0  0
    7.3614    0.5168    1.2701 O   0  0  0  0  0  0  0  0  0  0  0  0
    6.7332    0.4953    2.5520 C   0  0  0  0  0  0  0  0  0  0  0  0
    7.4588   -0.3933   -0.9046 C   0  0  0  0  0  0  0  0  0  0  0  0
    6.9859   -1.2233   -1.9278 C   0  0  0  0  0  0  0  0  0  0  0  0
    7.7289   -1.5037   -3.0965 N   0  0  0  0  0  0  0  0  0  0  0  0
    6.9247   -1.4665   -4.4488 C   0  0  0  0  0  0  0  0  0  0  0  0
    5.6014   -0.6383   -4.5290 C   0  0  0  0  0  0  0  0  0  0  0  0
    4.7785   -0.7882   -5.8355 C   0  0  0  0  0  0  0  0  0  0  0  0
    3.4361   -0.1677   -5.6971 N   0  0  0  0  0  0  0  0  0  0  0  0
    2.6148   -0.3378   -6.9079 C   0  0  0  0  0  0  0  0  0  0  0  0
    2.9659    0.8650   -7.7608 C   0  0  0  0  0  0  0  0  0  0  0  0
    3.0306    1.9804   -6.7382 C   0  0  0  0  0  0  0  0  0  0  0  0
    3.4548    1.2878   -5.4475 C   0  0  0  0  0  0  0  0  0  0  0  0
    9.1523   -1.7555   -3.2253 C   0  0  0  0  0  0  0  0  0  0  0  0
    9.7323   -1.0327   -4.2022 C   0  0  0  0  0  0  0  0  0  0  0  0
   10.9637   -1.4177   -4.6547 C   0  0  0  0  0  0  0  0  0  0  0  0
   11.6233   -2.5383   -4.2645 C   0  0  0  0  0  0  0  0  0  0  0  0
   12.2039   -2.9795   -5.2981 N   0  0  0  0  0  0  0  0  0  0  0  0
   13.5063   -3.0017   -5.2242 C   0  0  0  0  0  0  0  0  0  0  0  0
   14.2114   -3.2931   -4.1185 C   0  0  0  0  0  0  0  0  0  0  0  0
   15.7594   -3.4307   -4.5981 C   0  0  0  0  0  0  0  0  0  0  0  0
   16.8934   -4.3205   -4.4002 C   0  0  0  0  0  0  0  0  0  0  0  0
   17.9245   -4.1621   -5.2616 N   0  0  0  0  0  0  0  0  0  0  0  0
   17.5378   -3.1874   -6.1036 N   0  0  0  0  0  0  0  0  0  0  0  0
   18.4724   -2.7263   -7.1656 C   0  0  0  0  0  0  0  0  0  0  0  0
   18.5026   -3.5103   -8.4960 C   0  0  0  0  0  0  0  0  0  0  0  0
   17.2585   -3.4224   -9.1804 O   0  0  0  0  0  0  0  0  0  0  0  0
   16.2823   -2.7193   -5.7375 C   0  0  0  0  0  0  0  0  0  0  0  0
   13.3220   -3.5153   -2.9695 N   0  0  0  0  0  0  0  0  0  0  0  0
   11.7395   -2.9980   -2.9610 C   0  0  0  0  0  0  0  0  0  0  0  0
   10.1431   -2.6635   -2.5172 C   0  0  0  0  0  0  0  0  0  0  0  0
    5.7099   -1.7776   -1.7360 C   0  0  0  0  0  0  0  0  0  0  0  0
    2.4197   -5.1038   -1.7854 H   0  0  0  0  0  0  0  0  0  0  0  0
    1.4531   -3.7013   -1.2334 H   0  0  0  0  0  0  0  0  0  0  0  0
    2.2912   -4.7365   -0.0379 H   0  0  0  0  0  0  0  0  0  0  0  0
    4.2566   -3.8128   -1.7337 H   0  0  0  0  0  0  0  0  0  0  0  0
    4.9499   -0.8116    1.4080 H   0  0  0  0  0  0  0  0  0  0  0  0
    7.3601    1.0452    3.2583 H   0  0  0  0  0  0  0  0  0  0  0  0
    6.6345   -0.5304    2.9287 H   0  0  0  0  0  0  0  0  0  0  0  0
    5.7581    0.9930    2.5092 H   0  0  0  0  0  0  0  0  0  0  0  0
    8.3857    0.1608   -1.0398 H   0  0  0  0  0  0  0  0  0  0  0  0
    6.7383   -2.5053   -4.7386 H   0  0  0  0  0  0  0  0  0  0  0  0
    7.5302   -1.0377   -5.2565 H   0  0  0  0  0  0  0  0  0  0  0  0
    5.8459    0.4130   -4.3559 H   0  0  0  0  0  0  0  0  0  0  0  0
    4.8834   -0.9153   -3.7652 H   0  0  0  0  0  0  0  0  0  0  0  0
    4.6165   -1.8610   -6.0133 H   0  0  0  0  0  0  0  0  0  0  0  0
    5.3240   -0.3938   -6.6995 H   0  0  0  0  0  0  0  0  0  0  0  0
    1.5525   -0.2954   -6.6277 H   0  0  0  0  0  0  0  0  0  0  0  0
    2.7746   -1.2912   -7.4202 H   0  0  0  0  0  0  0  0  0  0  0  0
    2.2326    1.0625   -8.5469 H   0  0  0  0  0  0  0  0  0  0  0  0
    3.9463    0.7306   -8.2325 H   0  0  0  0  0  0  0  0  0  0  0  0
    2.0404    2.4348   -6.6121 H   0  0  0  0  0  0  0  0  0  0  0  0
    3.7313    2.7666   -7.0349 H   0  0  0  0  0  0  0  0  0  0  0  0
    2.7382    1.5257   -4.6511 H   0  0  0  0  0  0  0  0  0  0  0  0
    4.4208    1.6758   -5.1181 H   0  0  0  0  0  0  0  0  0  0  0  0
    9.2784   -0.2629   -4.8217 H   0  0  0  0  0  0  0  0  0  0  0  0
   11.3740   -0.9587   -5.5530 H   0  0  0  0  0  0  0  0  0  0  0  0
   13.9138   -2.6083   -6.1332 H   0  0  0  0  0  0  0  0  0  0  0  0
   16.9906   -5.1201   -3.6891 H   0  0  0  0  0  0  0  0  0  0  0  0
   19.4904   -2.7619   -6.7509 H   0  0  0  0  0  0  0  0  0  0  0  0
   18.2499   -1.6735   -7.3808 H   0  0  0  0  0  0  0  0  0  0  0  0
   18.7734   -4.5635   -8.3672 H   0  0  0  0  0  0  0  0  0  0  0  0
   19.2566   -3.0856   -9.1812 H   0  0  0  0  0  0  0  0  0  0  0  0
   16.6185   -3.9310   -8.6533 H   0  0  0  0  0  0  0  0  0  0  0  0
   15.8615   -1.9428   -6.3637 H   0  0  0  0  0  0  0  0  0  0  0  0
    9.7336   -3.2040   -1.6400 H   0  0  0  0  0  0  0  0  0  0  0  0
    5.2526   -2.3433   -2.5377 H   0  0  0  0  0  0  0  0  0  0  0  0
  1  2  1  0  0  0  0
  1 40  1  0  0  0  0
  1 41  1  0  0  0  0
  1 42  1  0  0  0  0
  2  3  1  0  0  0  0
  2 43  1  0  0  0  0
  3  4  2  0  0  0  0
  3  5  1  0  0  0  0
  5  6  1  0  0  0  0
  5 39  2  0  0  0  0
  6  7  2  0  0  0  0
  6 44  1  0  0  0  0
  7  8  1  0  0  0  0
  7 10  1  0  0  0  0
  8  9  1  0  0  0  0
  9 45  1  0  0  0  0
  9 46  1  0  0  0  0
  9 47  1  0  0  0  0
 10 11  2  0  0  0  0
 10 48  1  0  0  0  0
 11 12  1  0  0  0  0
 11 39  1  0  0  0  0
 12 13  1  0  0  0  0
 12 21  1  0  0  0  0
 13 14  1  0  0  0  0
 13 49  1  0  0  0  0
 13 50  1  0  0  0  0
 14 15  1  0  0  0  0
 14 51  1  0  0  0  0
 14 52  1  0  0  0  0
 15 16  1  0  0  0  0
 15 53  1  0  0  0  0
 15 54  1  0  0  0  0
 16 17  1  0  0  0  0
 16 20  1  0  0  0  0
 17 18  1  0  0  0  0
 17 55  1  0  0  0  0
 17 56  1  0  0  0  0
 18 19  1  0  0  0  0
 18 57  1  0  0  0  0
 18 58  1  0  0  0  0
 19 20  1  0  0  0  0
 19 59  1  0  0  0  0
 19 60  1  0  0  0  0
 20 61  1  0  0  0  0
 20 62  1  0  0  0  0
 21 22  1  0  0  0  0
 21 38  2  0  0  0  0
 22 23  2  0  0  0  0
 22 63  1  0  0  0  0
 23 24  1  0  0  0  0
 23 64  1  0  0  0  0
 24 25  1  0  0  0  0
 24 37  2  0  0  0  0
 25 26  2  0  0  0  0
 26 27  1  0  0  0  0
 26 65  1  0  0  0  0
 27 28  1  0  0  0  0
 27 36  2  0  0  0  0
 28 29  1  0  0  0  0
 28 35  2  0  0  0  0
 29 30  2  0  0  0  0
 29 66  1  0  0  0  0
 30 31  1  0  0  0  0
 31 32  1  0  0  0  0
 31 35  1  0  0  0  0
 32 33  1  0  0  0  0
 32 67  1  0  0  0  0
 32 68  1  0  0  0  0
 33 34  1  0  0  0  0
 33 69  1  0  0  0  0
 33 70  1  0  0  0  0
 34 71  1  0  0  0  0
 35 72  1  0  0  0  0
 36 37  1  0  0  0  0
 37 38  1  0  0  0  0
 38 73  1  0  0  0  0
 39 74  1  0  0  0  0
M  END
$$$$
