CHEMBL190980
 OpenBabel04072215363D

 55 59  0  0  0  0  0  0  0  0999 V2000
   -1.9891   -5.3917    7.2257 C   0  0  0  0  0  0  0  0  0  0  0  0
   -2.3259   -4.7654    5.9893 O   0  0  0  0  0  0  0  0  0  0  0  0
   -1.1281   -4.3162    5.3869 N   0  0  0  0  0  0  0  0  0  0  0  0
   -0.5730   -5.1726    4.4627 C   0  0  0  0  0  0  0  0  0  0  0  0
   -0.9337   -6.3299    4.2699 O   0  0  0  0  0  0  0  0  0  0  0  0
    0.5871   -4.6452    3.7049 C   0  0  0  0  0  0  0  0  0  0  0  0
    1.5541   -5.5598    3.2590 C   0  0  0  0  0  0  0  0  0  0  0  0
    2.6823   -5.1329    2.5464 C   0  0  0  0  0  0  0  0  0  0  0  0
    3.7060   -6.0183    2.1491 N   0  0  0  0  0  0  0  0  0  0  0  0
    3.9883   -7.2490    2.6975 C   0  0  0  0  0  0  0  0  0  0  0  0
    3.8017   -7.4030    3.9807 N   0  0  0  0  0  0  0  0  0  0  0  0
    4.0801   -8.5939    4.5846 C   0  0  0  0  0  0  0  0  0  0  0  0
    4.5004   -9.6680    4.0048 N   0  0  0  0  0  0  0  0  0  0  0  0
    4.6828   -9.5361    2.6848 N   0  0  0  0  0  0  0  0  0  0  0  0
    5.0890  -10.5529    1.8769 C   0  0  0  0  0  0  0  0  0  0  0  0
    5.2300  -10.0610    0.6034 C   0  0  0  0  0  0  0  0  0  0  0  0
    5.7059  -10.9150   -0.5369 C   0  0  0  0  0  0  0  0  0  0  0  0
    5.9018  -10.4735   -1.7630 N   0  0  0  0  0  0  0  0  0  0  0  0
    6.3121  -11.5433   -2.5225 N   0  0  0  0  0  0  0  0  0  0  0  0
    6.3494  -12.5816   -1.7164 C   0  0  0  0  0  0  0  0  0  0  0  0
    6.7276  -13.9683   -2.2082 C   0  0  0  0  0  0  0  0  0  0  0  0
    6.0751  -15.1729   -1.5621 C   0  0  0  0  0  0  0  0  0  0  0  0
    7.5167  -14.8935   -1.3082 C   0  0  0  0  0  0  0  0  0  0  0  0
    5.9927  -12.2597   -0.4315 O   0  0  0  0  0  0  0  0  0  0  0  0
    4.8303   -8.6665    0.6208 C   0  0  0  0  0  0  0  0  0  0  0  0
    4.7921   -7.7797   -0.6102 C   0  0  0  0  0  0  0  0  0  0  0  0
    3.3954   -7.2659   -0.9552 C   0  0  0  0  0  0  0  0  0  0  0  0
    5.8610   -6.6877   -0.6058 C   0  0  0  0  0  0  0  0  0  0  0  0
    4.4959   -8.3869    1.9559 C   0  0  0  0  0  0  0  0  0  0  0  0
    2.8116   -3.7584    2.2936 C   0  0  0  0  0  0  0  0  0  0  0  0
    3.8831   -3.3111    1.6209 F   0  0  0  0  0  0  0  0  0  0  0  0
    1.8638   -2.8357    2.7300 C   0  0  0  0  0  0  0  0  0  0  0  0
    0.7570   -3.2878    3.4396 C   0  0  0  0  0  0  0  0  0  0  0  0
   -0.1442   -2.3883    3.8619 F   0  0  0  0  0  0  0  0  0  0  0  0
   -2.9127   -5.7108    7.7148 H   0  0  0  0  0  0  0  0  0  0  0  0
   -1.4687   -4.6855    7.8810 H   0  0  0  0  0  0  0  0  0  0  0  0
   -1.3632   -6.2733    7.0536 H   0  0  0  0  0  0  0  0  0  0  0  0
   -1.0435   -3.3095    5.2855 H   0  0  0  0  0  0  0  0  0  0  0  0
    1.4101   -6.6184    3.4720 H   0  0  0  0  0  0  0  0  0  0  0  0
    4.2071   -5.7229    1.3270 H   0  0  0  0  0  0  0  0  0  0  0  0
    3.9227   -8.6228    5.6770 H   0  0  0  0  0  0  0  0  0  0  0  0
    5.2541  -11.5389    2.2884 H   0  0  0  0  0  0  0  0  0  0  0  0
    6.9381  -14.0186   -3.2710 H   0  0  0  0  0  0  0  0  0  0  0  0
    5.8192  -16.0070   -2.2063 H   0  0  0  0  0  0  0  0  0  0  0  0
    5.3777  -15.0190   -0.7463 H   0  0  0  0  0  0  0  0  0  0  0  0
    8.2507  -15.5391   -1.7792 H   0  0  0  0  0  0  0  0  0  0  0  0
    7.8061  -14.5449   -0.3238 H   0  0  0  0  0  0  0  0  0  0  0  0
    5.0523   -8.3939   -1.4749 H   0  0  0  0  0  0  0  0  0  0  0  0
    2.9436   -6.6702   -0.1636 H   0  0  0  0  0  0  0  0  0  0  0  0
    2.7193   -8.1063   -1.1509 H   0  0  0  0  0  0  0  0  0  0  0  0
    3.4245   -6.6481   -1.8594 H   0  0  0  0  0  0  0  0  0  0  0  0
    5.6701   -5.8949    0.1166 H   0  0  0  0  0  0  0  0  0  0  0  0
    5.9244   -6.2176   -1.5937 H   0  0  0  0  0  0  0  0  0  0  0  0
    6.8469   -7.1082   -0.3772 H   0  0  0  0  0  0  0  0  0  0  0  0
    1.9919   -1.7788    2.5279 H   0  0  0  0  0  0  0  0  0  0  0  0
  1  2  1  0  0  0  0
  1 35  1  0  0  0  0
  1 36  1  0  0  0  0
  1 37  1  0  0  0  0
  2  3  1  0  0  0  0
  3  4  1  0  0  0  0
  3 38  1  0  0  0  0
  4  5  2  0  0  0  0
  4  6  1  0  0  0  0
  6  7  1  0  0  0  0
  6 33  2  0  0  0  0
  7  8  2  0  0  0  0
  7 39  1  0  0  0  0
  8  9  1  0  0  0  0
  8 30  1  0  0  0  0
  9 10  1  0  0  0  0
  9 40  1  0  0  0  0
 10 11  2  0  0  0  0
 10 29  1  0  0  0  0
 11 12  1  0  0  0  0
 12 13  2  0  0  0  0
 12 41  1  0  0  0  0
 13 14  1  0  0  0  0
 14 15  1  0  0  0  0
 14 29  1  0  0  0  0
 15 16  2  0  0  0  0
 15 42  1  0  0  0  0
 16 17  1  0  0  0  0
 16 25  1  0  0  0  0
 17 18  2  0  0  0  0
 17 24  1  0  0  0  0
 18 19  1  0  0  0  0
 19 20  2  0  0  0  0
 20 21  1  0  0  0  0
 20 24  1  0  0  0  0
 21 22  1  0  0  0  0
 21 23  1  0  0  0  0
 21 43  1  0  0  0  0
 22 23  1  0  0  0  0
 22 44  1  0  0  0  0
 22 45  1  0  0  0  0
 23 46  1  0  0  0  0
 23 47  1  0  0  0  0
 25 26  1  0  0  0  0
 25 29  2  0  0  0  0
 26 27  1  0  0  0  0
 26 28  1  0  0  0  0
 26 48  1  0  0  0  0
 27 49  1  0  0  0  0
 27 50  1  0  0  0  0
 27 51  1  0  0  0  0
 28 52  1  0  0  0  0
 28 53  1  0  0  0  0
 28 54  1  0  0  0  0
 30 31  1  0  0  0  0
 30 32  2  0  0  0  0
 32 33  1  0  0  0  0
 32 55  1  0  0  0  0
 33 34  1  0  0  0  0
M  END
$$$$
