CHEMBL243916
 OpenBabel04072215363D

 52 55  0  0  0  0  0  0  0  0999 V2000
    5.2324    1.0042    8.9832 C   0  0  0  0  0  0  0  0  0  0  0  0
    5.8398    0.8074    7.6188 C   0  0  0  0  0  0  0  0  0  0  0  0
    5.2279    1.0829    6.5906 O   0  0  0  0  0  0  0  0  0  0  0  0
    7.1295    0.3258    7.6752 N   0  0  0  0  0  0  0  0  0  0  0  0
    7.7902    0.0037    6.5219 C   0  0  0  0  0  0  0  0  0  0  0  0
    8.5323   -1.0676    6.3858 N   0  0  0  0  0  0  0  0  0  0  0  0
    8.9524   -1.0457    5.0819 C   0  0  0  0  0  0  0  0  0  0  0  0
    9.6425   -2.0188    4.3579 C   0  0  0  0  0  0  0  0  0  0  0  0
   10.0386   -1.7249    3.0474 C   0  0  0  0  0  0  0  0  0  0  0  0
    9.8222   -0.4517    2.5045 C   0  0  0  0  0  0  0  0  0  0  0  0
   10.3206   -0.0630    1.2750 O   0  0  0  0  0  0  0  0  0  0  0  0
   11.5438   -0.5457    0.8644 C   0  0  0  0  0  0  0  0  0  0  0  0
   11.6948   -0.7512   -0.5051 C   0  0  0  0  0  0  0  0  0  0  0  0
   12.8766   -1.2896   -1.0073 C   0  0  0  0  0  0  0  0  0  0  0  0
   13.9330   -1.6353   -0.1526 C   0  0  0  0  0  0  0  0  0  0  0  0
   15.1206   -2.2694   -0.5899 N   0  0  0  0  0  0  0  0  0  0  0  0
   15.4732   -2.5103   -1.8986 C   0  0  0  0  0  0  0  0  0  0  0  0
   14.8567   -2.1039   -2.8792 O   0  0  0  0  0  0  0  0  0  0  0  0
   16.6094   -3.3012   -2.0062 N   0  0  0  0  0  0  0  0  0  0  0  0
   17.0825   -3.6425   -3.3008 C   0  0  0  0  0  0  0  0  0  0  0  0
   17.2204   -2.6722   -4.3013 C   0  0  0  0  0  0  0  0  0  0  0  0
   17.5469   -3.0372   -5.6159 C   0  0  0  0  0  0  0  0  0  0  0  0
   17.6668   -1.9915   -6.7043 C   0  0  0  0  0  0  0  0  0  0  0  0
   17.4896   -0.7210   -6.2587 F   0  0  0  0  0  0  0  0  0  0  0  0
   18.8905   -2.0137   -7.3032 F   0  0  0  0  0  0  0  0  0  0  0  0
   16.7556   -2.1725   -7.6989 F   0  0  0  0  0  0  0  0  0  0  0  0
   17.7365   -4.3969   -5.9135 C   0  0  0  0  0  0  0  0  0  0  0  0
   17.6418   -5.3633   -4.9085 C   0  0  0  0  0  0  0  0  0  0  0  0
   17.3389   -4.9784   -3.6059 C   0  0  0  0  0  0  0  0  0  0  0  0
   17.2122   -5.9167   -2.6553 F   0  0  0  0  0  0  0  0  0  0  0  0
   13.8000   -1.3713    1.2114 C   0  0  0  0  0  0  0  0  0  0  0  0
   12.6211   -0.7973    1.7132 C   0  0  0  0  0  0  0  0  0  0  0  0
    9.0378    0.4957    3.1769 C   0  0  0  0  0  0  0  0  0  0  0  0
    8.6007    0.1489    4.4610 C   0  0  0  0  0  0  0  0  0  0  0  0
    7.7869    0.7655    5.3792 N   0  0  0  0  0  0  0  0  0  0  0  0
    4.1441    0.9191    8.9177 H   0  0  0  0  0  0  0  0  0  0  0  0
    5.5003    2.0004    9.3440 H   0  0  0  0  0  0  0  0  0  0  0  0
    5.5907    0.2511    9.6913 H   0  0  0  0  0  0  0  0  0  0  0  0
    7.4071   -0.2221    8.4788 H   0  0  0  0  0  0  0  0  0  0  0  0
    9.8612   -2.9824    4.8054 H   0  0  0  0  0  0  0  0  0  0  0  0
   10.5505   -2.4947    2.4755 H   0  0  0  0  0  0  0  0  0  0  0  0
   10.8839   -0.4975   -1.1889 H   0  0  0  0  0  0  0  0  0  0  0  0
   12.9279   -1.4421   -2.0813 H   0  0  0  0  0  0  0  0  0  0  0  0
   15.8216   -2.4694    0.1086 H   0  0  0  0  0  0  0  0  0  0  0  0
   16.6574   -4.0485   -1.3245 H   0  0  0  0  0  0  0  0  0  0  0  0
   17.0431   -1.6228   -4.0624 H   0  0  0  0  0  0  0  0  0  0  0  0
   17.9498   -4.7033   -6.9367 H   0  0  0  0  0  0  0  0  0  0  0  0
   17.7729   -6.4154   -5.1414 H   0  0  0  0  0  0  0  0  0  0  0  0
   14.5962   -1.6087    1.9062 H   0  0  0  0  0  0  0  0  0  0  0  0
   12.5568   -0.5904    2.7781 H   0  0  0  0  0  0  0  0  0  0  0  0
    8.7975    1.4529    2.7259 H   0  0  0  0  0  0  0  0  0  0  0  0
    7.2755    1.6281    5.2599 H   0  0  0  0  0  0  0  0  0  0  0  0
  1  2  1  0  0  0  0
  1 36  1  0  0  0  0
  1 37  1  0  0  0  0
  1 38  1  0  0  0  0
  2  3  2  0  0  0  0
  2  4  1  0  0  0  0
  4  5  1  0  0  0  0
  4 39  1  0  0  0  0
  5  6  2  0  0  0  0
  5 35  1  0  0  0  0
  6  7  1  0  0  0  0
  7  8  1  0  0  0  0
  7 34  2  0  0  0  0
  8  9  2  0  0  0  0
  8 40  1  0  0  0  0
  9 10  1  0  0  0  0
  9 41  1  0  0  0  0
 10 11  1  0  0  0  0
 10 33  2  0  0  0  0
 11 12  1  0  0  0  0
 12 13  1  0  0  0  0
 12 32  2  0  0  0  0
 13 14  2  0  0  0  0
 13 42  1  0  0  0  0
 14 15  1  0  0  0  0
 14 43  1  0  0  0  0
 15 16  1  0  0  0  0
 15 31  2  0  0  0  0
 16 17  1  0  0  0  0
 16 44  1  0  0  0  0
 17 18  2  0  0  0  0
 17 19  1  0  0  0  0
 19 20  1  0  0  0  0
 19 45  1  0  0  0  0
 20 21  1  0  0  0  0
 20 29  2  0  0  0  0
 21 22  2  0  0  0  0
 21 46  1  0  0  0  0
 22 23  1  0  0  0  0
 22 27  1  0  0  0  0
 23 24  1  0  0  0  0
 23 25  1  0  0  0  0
 23 26  1  0  0  0  0
 27 28  2  0  0  0  0
 27 47  1  0  0  0  0
 28 29  1  0  0  0  0
 28 48  1  0  0  0  0
 29 30  1  0  0  0  0
 31 32  1  0  0  0  0
 31 49  1  0  0  0  0
 32 50  1  0  0  0  0
 33 34  1  0  0  0  0
 33 51  1  0  0  0  0
 34 35  1  0  0  0  0
 35 52  1  0  0  0  0
M  END
$$$$
