CHEMBL4242710
 OpenBabel04072215383D

 54 58  0  0  0  0  0  0  0  0999 V2000
    1.3502   -0.0712   -1.7417 N   0  0  0  0  0  0  0  0  0  0  0  0
    2.6461   -0.2468   -1.4102 C   0  0  0  0  0  0  0  0  0  0  0  0
    3.4835    0.7693   -1.7699 O   0  0  0  0  0  0  0  0  0  0  0  0
    4.7658    0.5214   -1.3177 N   0  0  0  0  0  0  0  0  0  0  0  0
    4.7022   -0.6639   -0.7037 C   0  0  0  0  0  0  0  0  0  0  0  0
    5.7301   -1.2919   -0.0804 N   0  0  0  0  0  0  0  0  0  0  0  0
    5.3856   -2.4902    0.4617 C   0  0  0  0  0  0  0  0  0  0  0  0
    6.4885   -3.2177    1.1432 C   0  0  0  0  0  0  0  0  0  0  0  0
    7.5027   -2.5251    1.8292 C   0  0  0  0  0  0  0  0  0  0  0  0
    8.5541   -3.2049    2.4540 C   0  0  0  0  0  0  0  0  0  0  0  0
    8.6129   -4.5951    2.4087 C   0  0  0  0  0  0  0  0  0  0  0  0
    7.6193   -5.3060    1.7454 C   0  0  0  0  0  0  0  0  0  0  0  0
    6.5721   -4.6242    1.1189 C   0  0  0  0  0  0  0  0  0  0  0  0
    4.0791   -3.0497    0.4162 C   0  0  0  0  0  0  0  0  0  0  0  0
    2.9657   -2.4370   -0.2089 C   0  0  0  0  0  0  0  0  0  0  0  0
    1.6307   -3.0382   -0.1772 C   0  0  0  0  0  0  0  0  0  0  0  0
    1.2056   -3.6842    0.9934 C   0  0  0  0  0  0  0  0  0  0  0  0
   -0.0484   -4.2844    1.0875 C   0  0  0  0  0  0  0  0  0  0  0  0
   -0.9535   -4.2126    0.0327 C   0  0  0  0  0  0  0  0  0  0  0  0
   -2.2622   -4.7364    0.1399 N   0  0  0  0  0  0  0  0  0  0  0  0
   -2.9059   -4.9373    1.3497 C   0  0  0  0  0  0  0  0  0  0  0  0
   -2.4976   -4.5337    2.4338 O   0  0  0  0  0  0  0  0  0  0  0  0
   -4.0650   -5.6835    1.2016 N   0  0  0  0  0  0  0  0  0  0  0  0
   -4.9068   -5.9480    2.3054 C   0  0  0  0  0  0  0  0  0  0  0  0
   -5.1720   -4.9756    3.2700 C   0  0  0  0  0  0  0  0  0  0  0  0
   -5.9821   -5.2708    4.3655 C   0  0  0  0  0  0  0  0  0  0  0  0
   -6.5227   -6.5501    4.5235 C   0  0  0  0  0  0  0  0  0  0  0  0
   -7.5093   -6.7958    5.9161 Cl  0  0  0  0  0  0  0  0  0  0  0  0
   -6.2573   -7.5477    3.5778 C   0  0  0  0  0  0  0  0  0  0  0  0
   -6.7040   -8.9803    3.7051 C   0  0  0  0  0  0  0  0  0  0  0  0
   -7.5060   -9.2820    4.7566 F   0  0  0  0  0  0  0  0  0  0  0  0
   -7.3865   -9.3937    2.5952 F   0  0  0  0  0  0  0  0  0  0  0  0
   -5.6386   -9.8274    3.8043 F   0  0  0  0  0  0  0  0  0  0  0  0
   -5.4696   -7.2167    2.4473 C   0  0  0  0  0  0  0  0  0  0  0  0
   -0.5375   -3.6234   -1.1618 C   0  0  0  0  0  0  0  0  0  0  0  0
    0.7511   -3.0655   -1.2692 C   0  0  0  0  0  0  0  0  0  0  0  0
    3.3737   -1.2120   -0.7588 C   0  0  0  0  0  0  0  0  0  0  0  0
    1.0788    0.8540   -2.0663 H   0  0  0  0  0  0  0  0  0  0  0  0
    0.6353   -0.5018   -1.1613 H   0  0  0  0  0  0  0  0  0  0  0  0
    7.4809   -1.4370    1.8778 H   0  0  0  0  0  0  0  0  0  0  0  0
    9.3306   -2.6448    2.9689 H   0  0  0  0  0  0  0  0  0  0  0  0
    9.4362   -5.1230    2.8826 H   0  0  0  0  0  0  0  0  0  0  0  0
    7.6612   -6.3914    1.7023 H   0  0  0  0  0  0  0  0  0  0  0  0
    5.8298   -5.2157    0.5878 H   0  0  0  0  0  0  0  0  0  0  0  0
    3.9239   -4.0093    0.9074 H   0  0  0  0  0  0  0  0  0  0  0  0
    1.8439   -3.7322    1.8747 H   0  0  0  0  0  0  0  0  0  0  0  0
   -0.2887   -4.7986    2.0140 H   0  0  0  0  0  0  0  0  0  0  0  0
   -2.8582   -4.6730   -0.6727 H   0  0  0  0  0  0  0  0  0  0  0  0
   -4.0189   -6.3830    0.4737 H   0  0  0  0  0  0  0  0  0  0  0  0
   -4.7524   -3.9751    3.1867 H   0  0  0  0  0  0  0  0  0  0  0  0
   -6.1721   -4.4934    5.1028 H   0  0  0  0  0  0  0  0  0  0  0  0
   -5.2486   -7.9928    1.7149 H   0  0  0  0  0  0  0  0  0  0  0  0
   -1.2028   -3.5665   -2.0196 H   0  0  0  0  0  0  0  0  0  0  0  0
    1.0504   -2.6392   -2.2256 H   0  0  0  0  0  0  0  0  0  0  0  0
  1  2  1  0  0  0  0
  1 38  1  0  0  0  0
  1 39  1  0  0  0  0
  2  3  1  0  0  0  0
  2 37  2  0  0  0  0
  3  4  1  0  0  0  0
  4  5  2  0  0  0  0
  5  6  1  0  0  0  0
  5 37  1  0  0  0  0
  6  7  2  0  0  0  0
  7  8  1  0  0  0  0
  7 14  1  0  0  0  0
  8  9  1  0  0  0  0
  8 13  2  0  0  0  0
  9 10  2  0  0  0  0
  9 40  1  0  0  0  0
 10 11  1  0  0  0  0
 10 41  1  0  0  0  0
 11 12  2  0  0  0  0
 11 42  1  0  0  0  0
 12 13  1  0  0  0  0
 12 43  1  0  0  0  0
 13 44  1  0  0  0  0
 14 15  2  0  0  0  0
 14 45  1  0  0  0  0
 15 16  1  0  0  0  0
 15 37  1  0  0  0  0
 16 17  1  0  0  0  0
 16 36  2  0  0  0  0
 17 18  2  0  0  0  0
 17 46  1  0  0  0  0
 18 19  1  0  0  0  0
 18 47  1  0  0  0  0
 19 20  1  0  0  0  0
 19 35  2  0  0  0  0
 20 21  1  0  0  0  0
 20 48  1  0  0  0  0
 21 22  2  0  0  0  0
 21 23  1  0  0  0  0
 23 24  1  0  0  0  0
 23 49  1  0  0  0  0
 24 25  1  0  0  0  0
 24 34  2  0  0  0  0
 25 26  2  0  0  0  0
 25 50  1  0  0  0  0
 26 27  1  0  0  0  0
 26 51  1  0  0  0  0
 27 28  1  0  0  0  0
 27 29  2  0  0  0  0
 29 30  1  0  0  0  0
 29 34  1  0  0  0  0
 30 31  1  0  0  0  0
 30 32  1  0  0  0  0
 30 33  1  0  0  0  0
 34 52  1  0  0  0  0
 35 36  1  0  0  0  0
 35 53  1  0  0  0  0
 36 54  1  0  0  0  0
M  END
$$$$
