CHEMBL3914264
 OpenBabel04072215373D

 51 54  0  0  0  0  0  0  0  0999 V2000
    3.2183    0.7648    1.0187 C   0  0  0  0  0  0  0  0  0  0  0  0
    2.4582    0.5787   -0.1812 O   0  0  0  0  0  0  0  0  0  0  0  0
    3.0719   -0.1451   -1.1706 C   0  0  0  0  0  0  0  0  0  0  0  0
    4.0378   -1.1211   -0.9016 C   0  0  0  0  0  0  0  0  0  0  0  0
    4.7174   -1.7871   -1.9501 C   0  0  0  0  0  0  0  0  0  0  0  0
    5.7433   -2.7325   -1.7876 C   0  0  0  0  0  0  0  0  0  0  0  0
    6.1689   -3.0855   -0.4819 N   0  0  0  0  0  0  0  0  0  0  0  0
    7.3935   -3.7246   -0.1953 C   0  0  0  0  0  0  0  0  0  0  0  0
    8.5855   -3.2772   -0.7829 C   0  0  0  0  0  0  0  0  0  0  0  0
    9.7920   -3.9383   -0.5594 C   0  0  0  0  0  0  0  0  0  0  0  0
    9.8243   -5.0592    0.2692 C   0  0  0  0  0  0  0  0  0  0  0  0
   11.3387   -5.8647    0.4707 Cl  0  0  0  0  0  0  0  0  0  0  0  0
    8.6493   -5.4967    0.8904 C   0  0  0  0  0  0  0  0  0  0  0  0
    8.6137   -6.8755    1.9329 Cl  0  0  0  0  0  0  0  0  0  0  0  0
    7.4410   -4.8245    0.6664 C   0  0  0  0  0  0  0  0  0  0  0  0
    6.3657   -3.2972   -2.8404 N   0  0  0  0  0  0  0  0  0  0  0  0
    5.9639   -2.9259   -4.0585 C   0  0  0  0  0  0  0  0  0  0  0  0
    5.0048   -2.0373   -4.3246 N   0  0  0  0  0  0  0  0  0  0  0  0
    4.4026   -1.4750   -3.2731 C   0  0  0  0  0  0  0  0  0  0  0  0
    3.4156   -0.5460   -3.5275 C   0  0  0  0  0  0  0  0  0  0  0  0
    2.7032    0.0924   -2.5046 C   0  0  0  0  0  0  0  0  0  0  0  0
    1.6412    0.9397   -2.7558 O   0  0  0  0  0  0  0  0  0  0  0  0
    1.1102    0.8575   -4.0779 C   0  0  0  0  0  0  0  0  0  0  0  0
   -0.3171    1.3738   -4.2795 C   0  0  0  0  0  0  0  0  0  0  0  0
   -0.5420    2.2573   -5.1109 O   0  0  0  0  0  0  0  0  0  0  0  0
   -1.3392    0.7117   -3.6147 N   0  0  0  0  0  0  0  0  0  0  0  0
   -1.1402   -0.2005   -2.4844 C   0  0  0  0  0  0  0  0  0  0  0  0
   -2.2111   -1.2940   -2.4550 C   0  0  0  0  0  0  0  0  0  0  0  0
   -3.5327   -0.7421   -2.5118 O   0  0  0  0  0  0  0  0  0  0  0  0
   -3.7056    0.0221   -3.7154 C   0  0  0  0  0  0  0  0  0  0  0  0
   -2.7145    1.1870   -3.7738 C   0  0  0  0  0  0  0  0  0  0  0  0
    2.9954    1.7587    1.4173 H   0  0  0  0  0  0  0  0  0  0  0  0
    4.3038    0.7251    0.8648 H   0  0  0  0  0  0  0  0  0  0  0  0
    2.9178    0.0194    1.7624 H   0  0  0  0  0  0  0  0  0  0  0  0
    4.2898   -1.3707    0.1239 H   0  0  0  0  0  0  0  0  0  0  0  0
    5.3854   -3.4622    0.0434 H   0  0  0  0  0  0  0  0  0  0  0  0
    8.5741   -2.4087   -1.4391 H   0  0  0  0  0  0  0  0  0  0  0  0
   10.6958   -3.5779   -1.0447 H   0  0  0  0  0  0  0  0  0  0  0  0
    6.5330   -5.1858    1.1410 H   0  0  0  0  0  0  0  0  0  0  0  0
    6.4679   -3.3894   -4.8925 H   0  0  0  0  0  0  0  0  0  0  0  0
    3.2241   -0.3280   -4.5724 H   0  0  0  0  0  0  0  0  0  0  0  0
    1.0724   -0.1812   -4.4364 H   0  0  0  0  0  0  0  0  0  0  0  0
    1.7582    1.4373   -4.7474 H   0  0  0  0  0  0  0  0  0  0  0  0
   -1.1960    0.4133   -1.5783 H   0  0  0  0  0  0  0  0  0  0  0  0
   -0.1603   -0.6764   -2.5186 H   0  0  0  0  0  0  0  0  0  0  0  0
   -2.1250   -1.8720   -1.5296 H   0  0  0  0  0  0  0  0  0  0  0  0
   -2.0789   -1.9875   -3.2945 H   0  0  0  0  0  0  0  0  0  0  0  0
   -4.7323    0.4001   -3.7273 H   0  0  0  0  0  0  0  0  0  0  0  0
   -3.5821   -0.6422   -4.5795 H   0  0  0  0  0  0  0  0  0  0  0  0
   -2.9017    1.8819   -2.9467 H   0  0  0  0  0  0  0  0  0  0  0  0
   -2.8366    1.7352   -4.7129 H   0  0  0  0  0  0  0  0  0  0  0  0
  1  2  1  0  0  0  0
  1 32  1  0  0  0  0
  1 33  1  0  0  0  0
  1 34  1  0  0  0  0
  2  3  1  0  0  0  0
  3  4  1  0  0  0  0
  3 21  2  0  0  0  0
  4  5  2  0  0  0  0
  4 35  1  0  0  0  0
  5  6  1  0  0  0  0
  5 19  1  0  0  0  0
  6  7  1  0  0  0  0
  6 16  2  0  0  0  0
  7  8  1  0  0  0  0
  7 36  1  0  0  0  0
  8  9  1  0  0  0  0
  8 15  2  0  0  0  0
  9 10  2  0  0  0  0
  9 37  1  0  0  0  0
 10 11  1  0  0  0  0
 10 38  1  0  0  0  0
 11 12  1  0  0  0  0
 11 13  2  0  0  0  0
 13 14  1  0  0  0  0
 13 15  1  0  0  0  0
 15 39  1  0  0  0  0
 16 17  1  0  0  0  0
 17 18  2  0  0  0  0
 17 40  1  0  0  0  0
 18 19  1  0  0  0  0
 19 20  2  0  0  0  0
 20 21  1  0  0  0  0
 20 41  1  0  0  0  0
 21 22  1  0  0  0  0
 22 23  1  0  0  0  0
 23 24  1  0  0  0  0
 23 42  1  0  0  0  0
 23 43  1  0  0  0  0
 24 25  2  0  0  0  0
 24 26  1  0  0  0  0
 26 27  1  0  0  0  0
 26 31  1  0  0  0  0
 27 28  1  0  0  0  0
 27 44  1  0  0  0  0
 27 45  1  0  0  0  0
 28 29  1  0  0  0  0
 28 46  1  0  0  0  0
 28 47  1  0  0  0  0
 29 30  1  0  0  0  0
 30 31  1  0  0  0  0
 30 48  1  0  0  0  0
 30 49  1  0  0  0  0
 31 50  1  0  0  0  0
 31 51  1  0  0  0  0
M  END
$$$$
