CHEMBL3775511
 OpenBabel04072215373D

 37 39  0  0  0  0  0  0  0  0999 V2000
    3.4084   -0.1187   -1.2337 C   0  0  0  0  0  0  0  0  0  0  0  0
    2.4893   -0.1627   -0.1372 O   0  0  0  0  0  0  0  0  0  0  0  0
    3.0281    0.0969    1.0954 C   0  0  0  0  0  0  0  0  0  0  0  0
    4.0997    0.9978    1.2464 C   0  0  0  0  0  0  0  0  0  0  0  0
    4.7514    1.1909    2.4574 C   0  0  0  0  0  0  0  0  0  0  0  0
    5.8231    1.9869    2.5014 N   0  0  0  0  0  0  0  0  0  0  0  0
    6.4456    2.0877    3.6819 C   0  0  0  0  0  0  0  0  0  0  0  0
    6.1015    1.4680    4.8126 N   0  0  0  0  0  0  0  0  0  0  0  0
    5.0003    0.6938    4.7664 C   0  0  0  0  0  0  0  0  0  0  0  0
    4.5902    0.0014    5.9341 N   0  0  0  0  0  0  0  0  0  0  0  0
    5.0718    0.2576    7.2450 C   0  0  0  0  0  0  0  0  0  0  0  0
    5.0785    1.5321    7.8402 C   0  0  0  0  0  0  0  0  0  0  0  0
    4.3585    2.9193    7.0915 Cl  0  0  0  0  0  0  0  0  0  0  0  0
    5.6090    1.7127    9.1214 C   0  0  0  0  0  0  0  0  0  0  0  0
    6.1057    0.6313    9.8490 C   0  0  0  0  0  0  0  0  0  0  0  0
    6.0633   -0.6415    9.2891 C   0  0  0  0  0  0  0  0  0  0  0  0
    6.5157   -1.7234    9.9852 O   0  0  0  0  0  0  0  0  0  0  0  0
    5.5518   -0.8228    8.0049 C   0  0  0  0  0  0  0  0  0  0  0  0
    5.5135   -2.0573    7.4684 F   0  0  0  0  0  0  0  0  0  0  0  0
    4.2687    0.5183    3.5804 C   0  0  0  0  0  0  0  0  0  0  0  0
    3.1130   -0.2834    3.4645 C   0  0  0  0  0  0  0  0  0  0  0  0
    2.4983   -0.5200    2.2319 C   0  0  0  0  0  0  0  0  0  0  0  0
    1.4483   -1.3811    2.3634 O   0  0  0  0  0  0  0  0  0  0  0  0
    0.7755   -1.8720    1.2187 C   0  0  0  0  0  0  0  0  0  0  0  0
    3.1646   -0.9428   -1.9139 H   0  0  0  0  0  0  0  0  0  0  0  0
    4.4563   -0.2498   -0.9456 H   0  0  0  0  0  0  0  0  0  0  0  0
    3.2800    0.8240   -1.7732 H   0  0  0  0  0  0  0  0  0  0  0  0
    4.4715    1.5608    0.3937 H   0  0  0  0  0  0  0  0  0  0  0  0
    7.3190    2.7312    3.7223 H   0  0  0  0  0  0  0  0  0  0  0  0
    4.6142   -0.9994    5.7390 H   0  0  0  0  0  0  0  0  0  0  0  0
    5.6220    2.7083    9.5656 H   0  0  0  0  0  0  0  0  0  0  0  0
    6.5063    0.7989   10.8429 H   0  0  0  0  0  0  0  0  0  0  0  0
    6.8446   -1.4351   10.8524 H   0  0  0  0  0  0  0  0  0  0  0  0
    2.6911   -0.7586    4.3479 H   0  0  0  0  0  0  0  0  0  0  0  0
    0.2003   -2.7484    1.5420 H   0  0  0  0  0  0  0  0  0  0  0  0
    1.4636   -2.2281    0.4471 H   0  0  0  0  0  0  0  0  0  0  0  0
    0.0697   -1.1329    0.8368 H   0  0  0  0  0  0  0  0  0  0  0  0
  1  2  1  0  0  0  0
  1 25  1  0  0  0  0
  1 26  1  0  0  0  0
  1 27  1  0  0  0  0
  2  3  1  0  0  0  0
  3  4  1  0  0  0  0
  3 22  2  0  0  0  0
  4  5  2  0  0  0  0
  4 28  1  0  0  0  0
  5  6  1  0  0  0  0
  5 20  1  0  0  0  0
  6  7  2  0  0  0  0
  7  8  1  0  0  0  0
  7 29  1  0  0  0  0
  8  9  2  0  0  0  0
  9 10  1  0  0  0  0
  9 20  1  0  0  0  0
 10 11  1  0  0  0  0
 10 30  1  0  0  0  0
 11 12  1  0  0  0  0
 11 18  2  0  0  0  0
 12 13  1  0  0  0  0
 12 14  2  0  0  0  0
 14 15  1  0  0  0  0
 14 31  1  0  0  0  0
 15 16  2  0  0  0  0
 15 32  1  0  0  0  0
 16 17  1  0  0  0  0
 16 18  1  0  0  0  0
 17 33  1  0  0  0  0
 18 19  1  0  0  0  0
 20 21  2  0  0  0  0
 21 22  1  0  0  0  0
 21 34  1  0  0  0  0
 22 23  1  0  0  0  0
 23 24  1  0  0  0  0
 24 35  1  0  0  0  0
 24 36  1  0  0  0  0
 24 37  1  0  0  0  0
M  END
$$$$
