CHEMBL1681953
 OpenBabel04072215363D

 46 48  0  0  0  0  0  0  0  0999 V2000
    8.9547   -7.0097   -3.9321 C   0  0  0  0  0  0  0  0  0  0  0  0
    8.4255   -6.3623   -2.7763 O   0  0  0  0  0  0  0  0  0  0  0  0
    7.3793   -5.5292   -3.1946 N   0  0  0  0  0  0  0  0  0  0  0  0
    6.8319   -4.9412   -2.1758 C   0  0  0  0  0  0  0  0  0  0  0  0
    5.7023   -4.0223   -2.3766 C   0  0  0  0  0  0  0  0  0  0  0  0
    4.8626   -4.1346   -3.4801 C   0  0  0  0  0  0  0  0  0  0  0  0
    4.9302   -5.2006   -4.3770 N   0  0  0  0  0  0  0  0  0  0  0  0
    3.8354   -3.2957   -3.7059 N   0  0  0  0  0  0  0  0  0  0  0  0
    3.6669   -2.3105   -2.8204 C   0  0  0  0  0  0  0  0  0  0  0  0
    4.4247   -2.0947   -1.7439 N   0  0  0  0  0  0  0  0  0  0  0  0
    5.4185   -2.9826   -1.5109 C   0  0  0  0  0  0  0  0  0  0  0  0
    6.1847   -2.8055   -0.3506 O   0  0  0  0  0  0  0  0  0  0  0  0
    5.5827   -2.0822    0.6659 C   0  0  0  0  0  0  0  0  0  0  0  0
    4.2883   -2.3749    1.0859 C   0  0  0  0  0  0  0  0  0  0  0  0
    3.6379   -1.5413    1.9922 C   0  0  0  0  0  0  0  0  0  0  0  0
    4.2645   -0.4080    2.5233 C   0  0  0  0  0  0  0  0  0  0  0  0
    3.5425    0.5376    3.3151 N   0  0  0  0  0  0  0  0  0  0  0  0
    2.1648    0.6419    3.3061 C   0  0  0  0  0  0  0  0  0  0  0  0
    1.4158   -0.0831    2.6590 O   0  0  0  0  0  0  0  0  0  0  0  0
    1.6757    1.7021    4.0615 N   0  0  0  0  0  0  0  0  0  0  0  0
    0.2654    1.9250    4.0225 C   0  0  0  0  0  0  0  0  0  0  0  0
   -0.6380    0.8810    4.2712 C   0  0  0  0  0  0  0  0  0  0  0  0
   -1.9972    1.0569    4.0093 C   0  0  0  0  0  0  0  0  0  0  0  0
   -2.4440    2.2749    3.5066 C   0  0  0  0  0  0  0  0  0  0  0  0
   -3.7382    2.4185    3.1912 F   0  0  0  0  0  0  0  0  0  0  0  0
   -1.5705    3.3366    3.3092 C   0  0  0  0  0  0  0  0  0  0  0  0
   -0.2183    3.1606    3.5922 C   0  0  0  0  0  0  0  0  0  0  0  0
    0.6394    4.1600    3.3444 F   0  0  0  0  0  0  0  0  0  0  0  0
    5.6214   -0.2120    2.2135 C   0  0  0  0  0  0  0  0  0  0  0  0
    6.5054    1.1026    2.9115 Cl  0  0  0  0  0  0  0  0  0  0  0  0
    6.2813   -1.0430    1.2851 C   0  0  0  0  0  0  0  0  0  0  0  0
    9.8792   -7.5213   -3.6585 H   0  0  0  0  0  0  0  0  0  0  0  0
    9.1780   -6.2732   -4.7136 H   0  0  0  0  0  0  0  0  0  0  0  0
    8.2375   -7.7439   -4.3119 H   0  0  0  0  0  0  0  0  0  0  0  0
    7.2029   -5.1028   -1.1516 H   0  0  0  0  0  0  0  0  0  0  0  0
    5.8969   -5.4279   -4.6149 H   0  0  0  0  0  0  0  0  0  0  0  0
    4.3294   -5.0207   -5.1725 H   0  0  0  0  0  0  0  0  0  0  0  0
    2.8314   -1.6381   -2.9825 H   0  0  0  0  0  0  0  0  0  0  0  0
    3.7319   -3.2038    0.6580 H   0  0  0  0  0  0  0  0  0  0  0  0
    2.6142   -1.8036    2.2365 H   0  0  0  0  0  0  0  0  0  0  0  0
    4.0824    1.2842    3.7331 H   0  0  0  0  0  0  0  0  0  0  0  0
    2.2324    2.5445    3.9967 H   0  0  0  0  0  0  0  0  0  0  0  0
   -0.2832   -0.0910    4.6128 H   0  0  0  0  0  0  0  0  0  0  0  0
   -2.6977    0.2388    4.1511 H   0  0  0  0  0  0  0  0  0  0  0  0
   -1.9290    4.2717    2.8968 H   0  0  0  0  0  0  0  0  0  0  0  0
    7.3151   -0.8479    1.0136 H   0  0  0  0  0  0  0  0  0  0  0  0
  1  2  1  0  0  0  0
  1 32  1  0  0  0  0
  1 33  1  0  0  0  0
  1 34  1  0  0  0  0
  2  3  1  0  0  0  0
  3  4  2  0  0  0  0
  4  5  1  0  0  0  0
  4 35  1  0  0  0  0
  5  6  1  0  0  0  0
  5 11  2  0  0  0  0
  6  7  1  0  0  0  0
  6  8  2  0  0  0  0
  7 36  1  0  0  0  0
  7 37  1  0  0  0  0
  8  9  1  0  0  0  0
  9 10  2  0  0  0  0
  9 38  1  0  0  0  0
 10 11  1  0  0  0  0
 11 12  1  0  0  0  0
 12 13  1  0  0  0  0
 13 14  1  0  0  0  0
 13 31  2  0  0  0  0
 14 15  2  0  0  0  0
 14 39  1  0  0  0  0
 15 16  1  0  0  0  0
 15 40  1  0  0  0  0
 16 17  1  0  0  0  0
 16 29  2  0  0  0  0
 17 18  1  0  0  0  0
 17 41  1  0  0  0  0
 18 19  2  0  0  0  0
 18 20  1  0  0  0  0
 20 21  1  0  0  0  0
 20 42  1  0  0  0  0
 21 22  1  0  0  0  0
 21 27  2  0  0  0  0
 22 23  2  0  0  0  0
 22 43  1  0  0  0  0
 23 24  1  0  0  0  0
 23 44  1  0  0  0  0
 24 25  1  0  0  0  0
 24 26  2  0  0  0  0
 26 27  1  0  0  0  0
 26 45  1  0  0  0  0
 27 28  1  0  0  0  0
 29 30  1  0  0  0  0
 29 31  1  0  0  0  0
 31 46  1  0  0  0  0
M  END
$$$$
