CHEMBL3759127
 OpenBabel04072215373D

 73 77  0  0  0  0  0  0  0  0999 V2000
    2.2732   -0.0422    1.1351 C   0  0  0  0  0  0  0  0  0  0  0  0
    2.3975    0.2427   -0.2564 O   0  0  0  0  0  0  0  0  0  0  0  0
    3.0705   -0.6268   -1.0684 C   0  0  0  0  0  0  0  0  0  0  0  0
    4.0970   -1.4360   -0.5926 C   0  0  0  0  0  0  0  0  0  0  0  0
    4.7235   -2.3937   -1.4169 C   0  0  0  0  0  0  0  0  0  0  0  0
    5.6944   -3.2964   -0.9592 C   0  0  0  0  0  0  0  0  0  0  0  0
    6.0728   -3.2643    0.4115 N   0  0  0  0  0  0  0  0  0  0  0  0
    6.7330   -4.2952    1.1084 C   0  0  0  0  0  0  0  0  0  0  0  0
    7.6626   -3.9781    2.0968 C   0  0  0  0  0  0  0  0  0  0  0  0
    8.3804   -4.9866    2.7471 C   0  0  0  0  0  0  0  0  0  0  0  0
    8.1675   -6.3367    2.4483 C   0  0  0  0  0  0  0  0  0  0  0  0
    8.9435   -7.3924    2.9926 N   0  0  0  0  0  0  0  0  0  0  0  0
   10.0041   -7.2389    3.8724 C   0  0  0  0  0  0  0  0  0  0  0  0
   10.3441   -6.1849    4.4045 O   0  0  0  0  0  0  0  0  0  0  0  0
   10.8140   -8.4470    4.2106 C   0  0  0  0  0  0  0  0  0  0  0  0
   10.9248   -9.5809    3.3961 C   0  0  0  0  0  0  0  0  0  0  0  0
   11.8046  -10.6087    3.7577 C   0  0  0  0  0  0  0  0  0  0  0  0
   12.5747  -10.5099    4.9208 C   0  0  0  0  0  0  0  0  0  0  0  0
   12.4616   -9.3917    5.7364 C   0  0  0  0  0  0  0  0  0  0  0  0
   11.5807   -8.3694    5.3832 C   0  0  0  0  0  0  0  0  0  0  0  0
    7.1603   -6.6581    1.5373 C   0  0  0  0  0  0  0  0  0  0  0  0
    6.4463   -5.6459    0.8829 C   0  0  0  0  0  0  0  0  0  0  0  0
    6.2594   -4.2011   -1.7757 N   0  0  0  0  0  0  0  0  0  0  0  0
    5.8531   -4.1994   -3.0465 C   0  0  0  0  0  0  0  0  0  0  0  0
    4.9227   -3.3986   -3.5790 N   0  0  0  0  0  0  0  0  0  0  0  0
    4.3591   -2.5047   -2.7601 C   0  0  0  0  0  0  0  0  0  0  0  0
    3.3876   -1.6404   -3.2502 C   0  0  0  0  0  0  0  0  0  0  0  0
    2.7652   -0.6805   -2.4397 C   0  0  0  0  0  0  0  0  0  0  0  0
    1.9017    0.1460   -3.1292 O   0  0  0  0  0  0  0  0  0  0  0  0
    1.7438    1.4435   -2.5585 C   0  0  0  0  0  0  0  0  0  0  0  0
    1.4339    2.5046   -3.6132 C   0  0  0  0  0  0  0  0  0  0  0  0
    1.3526    3.8555   -2.8856 C   0  0  0  0  0  0  0  0  0  0  0  0
    1.1588    5.0308   -3.7373 N   0  0  0  0  0  0  0  0  0  0  0  0
   -0.1207    5.0129   -4.4673 C   0  0  0  0  0  0  0  0  0  0  0  0
   -0.2993    6.2903   -5.3236 C   0  0  0  0  0  0  0  0  0  0  0  0
   -0.1965    7.5646   -4.5839 N   0  0  0  0  0  0  0  0  0  0  0  0
   -1.3929    7.8257   -3.7893 C   0  0  0  0  0  0  0  0  0  0  0  0
    1.0219    7.5450   -3.7505 C   0  0  0  0  0  0  0  0  0  0  0  0
    1.2230    6.2606   -2.9138 C   0  0  0  0  0  0  0  0  0  0  0  0
    2.4252    0.8949    1.6787 H   0  0  0  0  0  0  0  0  0  0  0  0
    2.9716   -0.7728    1.5455 H   0  0  0  0  0  0  0  0  0  0  0  0
    1.2590   -0.3981    1.3371 H   0  0  0  0  0  0  0  0  0  0  0  0
    4.4459   -1.3360    0.4275 H   0  0  0  0  0  0  0  0  0  0  0  0
    6.4548   -2.3499    0.6312 H   0  0  0  0  0  0  0  0  0  0  0  0
    7.8800   -2.9445    2.3519 H   0  0  0  0  0  0  0  0  0  0  0  0
    9.1210   -4.6653    3.4702 H   0  0  0  0  0  0  0  0  0  0  0  0
    8.6993   -8.3240    2.6856 H   0  0  0  0  0  0  0  0  0  0  0  0
   10.3810   -9.6664    2.4603 H   0  0  0  0  0  0  0  0  0  0  0  0
   11.9109  -11.4815    3.1170 H   0  0  0  0  0  0  0  0  0  0  0  0
   13.2756  -11.3002    5.1801 H   0  0  0  0  0  0  0  0  0  0  0  0
   13.0669   -9.2980    6.6340 H   0  0  0  0  0  0  0  0  0  0  0  0
   11.5231   -7.4854    6.0182 H   0  0  0  0  0  0  0  0  0  0  0  0
    6.9255   -7.6901    1.2948 H   0  0  0  0  0  0  0  0  0  0  0  0
    5.6732   -5.9214    0.1693 H   0  0  0  0  0  0  0  0  0  0  0  0
    6.3240   -4.9181   -3.7075 H   0  0  0  0  0  0  0  0  0  0  0  0
    3.1148   -1.7063   -4.3014 H   0  0  0  0  0  0  0  0  0  0  0  0
    2.6660    1.7627   -2.0591 H   0  0  0  0  0  0  0  0  0  0  0  0
    0.9141    1.4049   -1.8432 H   0  0  0  0  0  0  0  0  0  0  0  0
    0.4999    2.2536   -4.1275 H   0  0  0  0  0  0  0  0  0  0  0  0
    2.2219    2.5153   -4.3764 H   0  0  0  0  0  0  0  0  0  0  0  0
    2.3050    3.9895   -2.3539 H   0  0  0  0  0  0  0  0  0  0  0  0
    0.5693    3.8048   -2.1178 H   0  0  0  0  0  0  0  0  0  0  0  0
   -0.9629    4.9105   -3.7705 H   0  0  0  0  0  0  0  0  0  0  0  0
   -0.1554    4.1555   -5.1474 H   0  0  0  0  0  0  0  0  0  0  0  0
   -1.2544    6.2412   -5.8606 H   0  0  0  0  0  0  0  0  0  0  0  0
    0.4753    6.2927   -6.1023 H   0  0  0  0  0  0  0  0  0  0  0  0
   -2.2781    7.8577   -4.4346 H   0  0  0  0  0  0  0  0  0  0  0  0
   -1.3236    8.8102   -3.3128 H   0  0  0  0  0  0  0  0  0  0  0  0
   -1.5682    7.0803   -3.0074 H   0  0  0  0  0  0  0  0  0  0  0  0
    1.0430    8.4196   -3.0879 H   0  0  0  0  0  0  0  0  0  0  0  0
    1.8874    7.6598   -4.4161 H   0  0  0  0  0  0  0  0  0  0  0  0
    0.4702    6.2253   -2.1145 H   0  0  0  0  0  0  0  0  0  0  0  0
    2.2033    6.3247   -2.4253 H   0  0  0  0  0  0  0  0  0  0  0  0
  1  2  1  0  0  0  0
  1 40  1  0  0  0  0
  1 41  1  0  0  0  0
  1 42  1  0  0  0  0
  2  3  1  0  0  0  0
  3  4  1  0  0  0  0
  3 28  2  0  0  0  0
  4  5  2  0  0  0  0
  4 43  1  0  0  0  0
  5  6  1  0  0  0  0
  5 26  1  0  0  0  0
  6  7  1  0  0  0  0
  6 23  2  0  0  0  0
  7  8  1  0  0  0  0
  7 44  1  0  0  0  0
  8  9  1  0  0  0  0
  8 22  2  0  0  0  0
  9 10  2  0  0  0  0
  9 45  1  0  0  0  0
 10 11  1  0  0  0  0
 10 46  1  0  0  0  0
 11 12  1  0  0  0  0
 11 21  2  0  0  0  0
 12 13  1  0  0  0  0
 12 47  1  0  0  0  0
 13 14  2  0  0  0  0
 13 15  1  0  0  0  0
 15 16  1  0  0  0  0
 15 20  2  0  0  0  0
 16 17  2  0  0  0  0
 16 48  1  0  0  0  0
 17 18  1  0  0  0  0
 17 49  1  0  0  0  0
 18 19  2  0  0  0  0
 18 50  1  0  0  0  0
 19 20  1  0  0  0  0
 19 51  1  0  0  0  0
 20 52  1  0  0  0  0
 21 22  1  0  0  0  0
 21 53  1  0  0  0  0
 22 54  1  0  0  0  0
 23 24  1  0  0  0  0
 24 25  2  0  0  0  0
 24 55  1  0  0  0  0
 25 26  1  0  0  0  0
 26 27  2  0  0  0  0
 27 28  1  0  0  0  0
 27 56  1  0  0  0  0
 28 29  1  0  0  0  0
 29 30  1  0  0  0  0
 30 31  1  0  0  0  0
 30 57  1  0  0  0  0
 30 58  1  0  0  0  0
 31 32  1  0  0  0  0
 31 59  1  0  0  0  0
 31 60  1  0  0  0  0
 32 33  1  0  0  0  0
 32 61  1  0  0  0  0
 32 62  1  0  0  0  0
 33 34  1  0  0  0  0
 33 39  1  0  0  0  0
 34 35  1  0  0  0  0
 34 63  1  0  0  0  0
 34 64  1  0  0  0  0
 35 36  1  0  0  0  0
 35 65  1  0  0  0  0
 35 66  1  0  0  0  0
 36 37  1  0  0  0  0
 36 38  1  0  0  0  0
 37 67  1  0  0  0  0
 37 68  1  0  0  0  0
 37 69  1  0  0  0  0
 38 39  1  0  0  0  0
 38 70  1  0  0  0  0
 38 71  1  0  0  0  0
 39 72  1  0  0  0  0
 39 73  1  0  0  0  0
M  END
$$$$
