CHEMBL4439680
 OpenBabel04072215383D

 62 66  0  0  1  0  0  0  0  0999 V2000
   -0.5743   -0.1649    3.4501 C   0  0  0  0  0  0  0  0  0  0  0  0
   -0.2986   -0.8570    4.6633 O   0  0  0  0  0  0  0  0  0  0  0  0
    0.5361   -1.9384    4.5959 C   0  0  0  0  0  0  0  0  0  0  0  0
    1.1802   -2.4157    3.4566 C   0  0  0  0  0  0  0  0  0  0  0  0
    2.0159   -3.5516    3.5335 C   0  0  0  0  0  0  0  0  0  0  0  0
    2.2212   -4.2382    4.7428 C   0  0  0  0  0  0  0  0  0  0  0  0
    3.0154   -5.4810    4.8268 C   0  0  0  0  0  0  0  0  0  0  0  0
    4.0826   -5.8097    4.0629 C   0  0  0  0  0  0  0  0  0  0  0  0
    4.7735   -7.1294    4.1961 C   0  0  0  0  0  0  0  0  0  0  0  0
    4.2517   -8.0518    4.8104 O   0  0  0  0  0  0  0  0  0  0  0  0
    6.0470   -7.1455    3.6066 N   0  0  0  0  0  0  0  0  0  0  0  0
    6.9332   -8.2190    3.8975 C   0  0  0  0  0  0  0  0  0  0  0  0
    7.8398   -8.0450    4.9432 C   0  0  0  0  0  0  0  0  0  0  0  0
    8.0966   -9.1490    5.7789 C   0  0  0  0  0  0  0  0  0  0  0  0
    8.7932   -9.1436    6.9872 C   0  0  0  0  0  0  0  0  0  0  0  0
   10.0947   -9.7741    6.9607 N   0  0  0  0  0  0  0  0  0  0  0  0
   10.9623  -10.0154    8.0647 C   0  0  0  0  0  0  0  0  0  0  0  0
   11.9667  -11.0003    7.9534 C   0  0  0  0  0  0  0  0  0  0  0  0
   13.0078  -11.0783    8.8866 C   0  0  0  0  0  0  0  0  0  0  0  0
   13.0533  -10.1701    9.9367 C   0  0  0  0  0  0  0  0  0  0  0  0
   14.1059  -10.1956   10.7681 F   0  0  0  0  0  0  0  0  0  0  0  0
   12.0378   -9.2327   10.0990 C   0  0  0  0  0  0  0  0  0  0  0  0
   12.0882   -8.1025   11.3972 Cl  0  0  0  0  0  0  0  0  0  0  0  0
   10.9931   -9.1628    9.1738 C   0  0  0  0  0  0  0  0  0  0  0  0
    8.0792   -9.2550    8.1035 N   0  0  0  0  0  0  0  0  0  0  0  0
    6.9654   -9.9733    7.9472 C   0  0  0  0  0  0  0  0  0  0  0  0
    6.6392  -10.6486    6.8284 N   0  0  0  0  0  0  0  0  0  0  0  0
    7.1859  -10.1776    5.6985 C   0  0  0  0  0  0  0  0  0  0  0  0
    6.7236  -10.5074    4.4326 C   0  0  0  0  0  0  0  0  0  0  0  0
    6.6819   -9.5149    3.4583 C   0  0  0  0  0  0  0  0  0  0  0  0
    6.2346   -9.8778    2.2262 O   0  0  0  0  0  0  0  0  0  0  0  0
    6.8348   -9.3661    1.0176 C   0  0  2  0  0  0  0  0  0  0  0  0
    8.3486   -9.3375    0.8855 C   0  0  0  0  0  0  0  0  0  0  0  0
    8.7181   -7.9188    1.2666 C   0  0  0  0  0  0  0  0  0  0  0  0
    7.5650   -7.0925    1.0412 O   0  0  0  0  0  0  0  0  0  0  0  0
    6.4569   -7.9384    0.6681 C   0  0  0  0  0  0  0  0  0  0  0  0
    1.5582   -3.7431    5.8764 C   0  0  0  0  0  0  0  0  0  0  0  0
    0.7433   -2.6110    5.8023 C   0  0  0  0  0  0  0  0  0  0  0  0
   -1.2509    0.6653    3.6814 H   0  0  0  0  0  0  0  0  0  0  0  0
   -1.0826   -0.8149    2.7299 H   0  0  0  0  0  0  0  0  0  0  0  0
    0.3385    0.2616    3.0216 H   0  0  0  0  0  0  0  0  0  0  0  0
    1.0537   -1.9359    2.4917 H   0  0  0  0  0  0  0  0  0  0  0  0
    2.4673   -3.9078    2.6081 H   0  0  0  0  0  0  0  0  0  0  0  0
    2.6778   -6.1872    5.5907 H   0  0  0  0  0  0  0  0  0  0  0  0
    4.4467   -5.1307    3.3093 H   0  0  0  0  0  0  0  0  0  0  0  0
    6.4763   -6.2325    3.4946 H   0  0  0  0  0  0  0  0  0  0  0  0
    8.1477   -7.0546    5.2653 H   0  0  0  0  0  0  0  0  0  0  0  0
    9.9891  -10.6452    6.4379 H   0  0  0  0  0  0  0  0  0  0  0  0
   11.9684  -11.7042    7.1232 H   0  0  0  0  0  0  0  0  0  0  0  0
   13.8029  -11.8113    8.7803 H   0  0  0  0  0  0  0  0  0  0  0  0
   10.2172   -8.4146    9.3037 H   0  0  0  0  0  0  0  0  0  0  0  0
    6.2705   -9.9897    8.7774 H   0  0  0  0  0  0  0  0  0  0  0  0
    6.2373  -11.4618    4.2611 H   0  0  0  0  0  0  0  0  0  0  0  0
    6.4392  -10.0323    0.2408 H   0  0  0  0  0  0  0  0  0  0  0  0
    8.6114   -9.4586   -0.1766 H   0  0  0  0  0  0  0  0  0  0  0  0
    8.8961  -10.0959    1.4489 H   0  0  0  0  0  0  0  0  0  0  0  0
    9.5595   -7.5282    0.6856 H   0  0  0  0  0  0  0  0  0  0  0  0
    9.0035   -7.8492    2.3185 H   0  0  0  0  0  0  0  0  0  0  0  0
    6.3375   -7.8279   -0.4151 H   0  0  0  0  0  0  0  0  0  0  0  0
    5.5370   -7.5989    1.1473 H   0  0  0  0  0  0  0  0  0  0  0  0
    1.6744   -4.2411    6.8343 H   0  0  0  0  0  0  0  0  0  0  0  0
    0.2350   -2.2475    6.7022 H   0  0  0  0  0  0  0  0  0  0  0  0
  1  2  1  0  0  0  0
  1 39  1  0  0  0  0
  1 40  1  0  0  0  0
  1 41  1  0  0  0  0
  2  3  1  0  0  0  0
  3  4  1  0  0  0  0
  3 38  2  0  0  0  0
  4  5  2  0  0  0  0
  4 42  1  0  0  0  0
  5  6  1  0  0  0  0
  5 43  1  0  0  0  0
  6  7  1  0  0  0  0
  6 37  2  0  0  0  0
  7  8  2  0  0  0  0
  7 44  1  0  0  0  0
  8  9  1  0  0  0  0
  8 45  1  0  0  0  0
  9 10  2  0  0  0  0
  9 11  1  0  0  0  0
 11 12  1  0  0  0  0
 11 46  1  0  0  0  0
 12 13  1  0  0  0  0
 12 30  2  0  0  0  0
 13 14  2  0  0  0  0
 13 47  1  0  0  0  0
 14 15  1  0  0  0  0
 14 28  1  0  0  0  0
 15 16  1  0  0  0  0
 15 25  2  0  0  0  0
 16 17  1  0  0  0  0
 16 48  1  0  0  0  0
 17 18  1  0  0  0  0
 17 24  2  0  0  0  0
 18 19  2  0  0  0  0
 18 49  1  0  0  0  0
 19 20  1  0  0  0  0
 19 50  1  0  0  0  0
 20 21  1  0  0  0  0
 20 22  2  0  0  0  0
 22 23  1  0  0  0  0
 22 24  1  0  0  0  0
 24 51  1  0  0  0  0
 25 26  1  0  0  0  0
 26 27  2  0  0  0  0
 26 52  1  0  0  0  0
 27 28  1  0  0  0  0
 28 29  2  0  0  0  0
 29 30  1  0  0  0  0
 29 53  1  0  0  0  0
 30 31  1  0  0  0  0
 31 32  1  0  0  0  0
 32 33  1  0  0  0  0
 32 36  1  0  0  0  0
 32 54  1  6  0  0  0
 33 34  1  0  0  0  0
 33 55  1  0  0  0  0
 33 56  1  0  0  0  0
 34 35  1  0  0  0  0
 34 57  1  0  0  0  0
 34 58  1  0  0  0  0
 35 36  1  0  0  0  0
 36 59  1  0  0  0  0
 36 60  1  0  0  0  0
 37 38  1  0  0  0  0
 37 61  1  0  0  0  0
 38 62  1  0  0  0  0
M  END
$$$$
