CHEMBL82433
 OpenBabel04072215383D

 59 63  0  0  0  0  0  0  0  0999 V2000
    0.9912    0.1650    0.2458 O   0  0  0  0  0  0  0  0  0  0  0  0
    2.2182    0.0808    0.1579 C   0  0  0  0  0  0  0  0  0  0  0  0
    3.0158    1.3199    0.0593 C   0  0  0  0  0  0  0  0  0  0  0  0
    4.3489    1.2408   -0.0728 C   0  0  0  0  0  0  0  0  0  0  0  0
    5.1161    2.4655   -0.2943 C   0  0  0  0  0  0  0  0  0  0  0  0
    5.2932    2.9188   -1.6091 C   0  0  0  0  0  0  0  0  0  0  0  0
    6.1617    3.9677   -1.8913 C   0  0  0  0  0  0  0  0  0  0  0  0
    6.8733    4.5033   -0.8098 C   0  0  0  0  0  0  0  0  0  0  0  0
    6.7316    4.0339    0.4961 C   0  0  0  0  0  0  0  0  0  0  0  0
    5.7854    3.0507    0.7823 C   0  0  0  0  0  0  0  0  0  0  0  0
    7.6599    4.6002    1.3333 N   0  0  0  0  0  0  0  0  0  0  0  0
    8.3827    5.3775    0.5559 C   0  0  0  0  0  0  0  0  0  0  0  0
    7.8709    5.4506   -0.7213 N   0  0  0  0  0  0  0  0  0  0  0  0
    8.2616    6.3879   -1.6976 C   0  0  0  0  0  0  0  0  0  0  0  0
    9.6183    6.7195   -1.8185 C   0  0  0  0  0  0  0  0  0  0  0  0
    9.9875    7.7766   -2.6422 C   0  0  0  0  0  0  0  0  0  0  0  0
    9.0130    8.5036   -3.3231 C   0  0  0  0  0  0  0  0  0  0  0  0
    7.6679    8.1444   -3.2320 C   0  0  0  0  0  0  0  0  0  0  0  0
    7.2879    7.0647   -2.4374 C   0  0  0  0  0  0  0  0  0  0  0  0
    5.0100   -0.0418   -0.0666 C   0  0  0  0  0  0  0  0  0  0  0  0
    4.2956   -1.1665    0.0145 C   0  0  0  0  0  0  0  0  0  0  0  0
    2.9186   -1.1266    0.1125 N   0  0  0  0  0  0  0  0  0  0  0  0
    2.1774   -2.3834    0.0598 C   0  0  0  0  0  0  0  0  0  0  0  0
    1.7464   -2.7559   -1.3634 C   0  0  0  0  0  0  0  0  0  0  0  0
    2.9053   -3.0136   -2.3420 C   0  0  0  0  0  0  0  0  0  0  0  0
    3.8868   -4.0217   -1.8907 N   0  0  0  0  0  0  0  0  0  0  0  0
    3.2794   -5.3500   -1.7296 C   0  0  0  0  0  0  0  0  0  0  0  0
    4.3004   -6.3692   -1.2218 C   0  0  0  0  0  0  0  0  0  0  0  0
    5.5122   -6.4440   -2.1394 C   0  0  0  0  0  0  0  0  0  0  0  0
    6.0955   -5.0532   -2.3521 C   0  0  0  0  0  0  0  0  0  0  0  0
    5.0241   -4.0698   -2.8261 C   0  0  0  0  0  0  0  0  0  0  0  0
    2.4637    2.2478    0.0539 H   0  0  0  0  0  0  0  0  0  0  0  0
    4.7992    2.4085   -2.4330 H   0  0  0  0  0  0  0  0  0  0  0  0
    6.3396    4.2874   -2.9114 H   0  0  0  0  0  0  0  0  0  0  0  0
    5.6737    2.6877    1.7944 H   0  0  0  0  0  0  0  0  0  0  0  0
    9.2286    5.9650    0.8808 H   0  0  0  0  0  0  0  0  0  0  0  0
   10.3888    6.1595   -1.2979 H   0  0  0  0  0  0  0  0  0  0  0  0
   11.0374    8.0511   -2.7351 H   0  0  0  0  0  0  0  0  0  0  0  0
    9.2998    9.3695   -3.9208 H   0  0  0  0  0  0  0  0  0  0  0  0
    6.9116    8.7210   -3.7587 H   0  0  0  0  0  0  0  0  0  0  0  0
    6.2333    6.8385   -2.3291 H   0  0  0  0  0  0  0  0  0  0  0  0
    6.0914   -0.0806   -0.1628 H   0  0  0  0  0  0  0  0  0  0  0  0
    4.7703   -2.1416   -0.0117 H   0  0  0  0  0  0  0  0  0  0  0  0
    1.2789   -2.2737    0.6787 H   0  0  0  0  0  0  0  0  0  0  0  0
    2.7758   -3.1750    0.5211 H   0  0  0  0  0  0  0  0  0  0  0  0
    1.1258   -1.9518   -1.7789 H   0  0  0  0  0  0  0  0  0  0  0  0
    1.1011   -3.6376   -1.3121 H   0  0  0  0  0  0  0  0  0  0  0  0
    3.4217   -2.0600   -2.5125 H   0  0  0  0  0  0  0  0  0  0  0  0
    2.4857   -3.3029   -3.3146 H   0  0  0  0  0  0  0  0  0  0  0  0
    2.8453   -5.6968   -2.6762 H   0  0  0  0  0  0  0  0  0  0  0  0
    2.4729   -5.3165   -0.9915 H   0  0  0  0  0  0  0  0  0  0  0  0
    3.8293   -7.3560   -1.1462 H   0  0  0  0  0  0  0  0  0  0  0  0
    4.6232   -6.0911   -0.2102 H   0  0  0  0  0  0  0  0  0  0  0  0
    5.2145   -6.8699   -3.1056 H   0  0  0  0  0  0  0  0  0  0  0  0
    6.2687   -7.1102   -1.7111 H   0  0  0  0  0  0  0  0  0  0  0  0
    6.9066   -5.1013   -3.0871 H   0  0  0  0  0  0  0  0  0  0  0  0
    6.5353   -4.6928   -1.4133 H   0  0  0  0  0  0  0  0  0  0  0  0
    4.6876   -4.3496   -3.8331 H   0  0  0  0  0  0  0  0  0  0  0  0
    5.4873   -3.0783   -2.9013 H   0  0  0  0  0  0  0  0  0  0  0  0
  1  2  2  0  0  0  0
  2  3  1  0  0  0  0
  2 22  1  0  0  0  0
  3  4  2  0  0  0  0
  3 32  1  0  0  0  0
  4  5  1  0  0  0  0
  4 20  1  0  0  0  0
  5  6  1  0  0  0  0
  5 10  2  0  0  0  0
  6  7  2  0  0  0  0
  6 33  1  0  0  0  0
  7  8  1  0  0  0  0
  7 34  1  0  0  0  0
  8  9  2  0  0  0  0
  8 13  1  0  0  0  0
  9 10  1  0  0  0  0
  9 11  1  0  0  0  0
 10 35  1  0  0  0  0
 11 12  2  0  0  0  0
 12 13  1  0  0  0  0
 12 36  1  0  0  0  0
 13 14  1  0  0  0  0
 14 15  1  0  0  0  0
 14 19  2  0  0  0  0
 15 16  2  0  0  0  0
 15 37  1  0  0  0  0
 16 17  1  0  0  0  0
 16 38  1  0  0  0  0
 17 18  2  0  0  0  0
 17 39  1  0  0  0  0
 18 19  1  0  0  0  0
 18 40  1  0  0  0  0
 19 41  1  0  0  0  0
 20 21  2  0  0  0  0
 20 42  1  0  0  0  0
 21 22  1  0  0  0  0
 21 43  1  0  0  0  0
 22 23  1  0  0  0  0
 23 24  1  0  0  0  0
 23 44  1  0  0  0  0
 23 45  1  0  0  0  0
 24 25  1  0  0  0  0
 24 46  1  0  0  0  0
 24 47  1  0  0  0  0
 25 26  1  0  0  0  0
 25 48  1  0  0  0  0
 25 49  1  0  0  0  0
 26 27  1  0  0  0  0
 26 31  1  0  0  0  0
 27 28  1  0  0  0  0
 27 50  1  0  0  0  0
 27 51  1  0  0  0  0
 28 29  1  0  0  0  0
 28 52  1  0  0  0  0
 28 53  1  0  0  0  0
 29 30  1  0  0  0  0
 29 54  1  0  0  0  0
 29 55  1  0  0  0  0
 30 31  1  0  0  0  0
 30 56  1  0  0  0  0
 30 57  1  0  0  0  0
 31 58  1  0  0  0  0
 31 59  1  0  0  0  0
M  END
$$$$
