CHEMBL3739936
 OpenBabel04072215373D

 62 66  0  0  0  0  0  0  0  0999 V2000
    4.6106    6.2030    3.5329 C   0  0  0  0  0  0  0  0  0  0  0  0
    3.7855    4.6321    3.6325 S   0  0  0  0  0  0  0  0  0  0  0  0
    4.6652    3.7056    4.3213 O   0  0  0  0  0  0  0  0  0  0  0  0
    2.4580    4.8849    4.1676 O   0  0  0  0  0  0  0  0  0  0  0  0
    3.5796    4.1037    1.9314 C   0  0  0  0  0  0  0  0  0  0  0  0
    4.8780    4.1226    1.1675 C   0  0  0  0  0  0  0  0  0  0  0  0
    4.9968    4.9288    0.0301 C   0  0  0  0  0  0  0  0  0  0  0  0
    6.1869    4.9647   -0.6903 C   0  0  0  0  0  0  0  0  0  0  0  0
    7.2650    4.1784   -0.2829 C   0  0  0  0  0  0  0  0  0  0  0  0
    7.1758    3.3265    0.8079 C   0  0  0  0  0  0  0  0  0  0  0  0
    8.2284    2.5158    1.2532 N   0  0  0  0  0  0  0  0  0  0  0  0
    9.4218    2.1263    0.6474 C   0  0  0  0  0  0  0  0  0  0  0  0
    9.9744    1.0113    1.1474 N   0  0  0  0  0  0  0  0  0  0  0  0
   11.0617    0.5316    0.5189 C   0  0  0  0  0  0  0  0  0  0  0  0
   11.6335    1.1349   -0.5707 C   0  0  0  0  0  0  0  0  0  0  0  0
   11.0529    2.3205   -0.9603 C   0  0  0  0  0  0  0  0  0  0  0  0
   11.5078    3.0982   -2.0080 O   0  0  0  0  0  0  0  0  0  0  0  0
   12.8214    2.9646   -2.3777 C   0  0  0  0  0  0  0  0  0  0  0  0
   13.0907    2.6665   -3.7107 C   0  0  0  0  0  0  0  0  0  0  0  0
   14.3930    2.3231   -4.0795 C   0  0  0  0  0  0  0  0  0  0  0  0
   15.4365    2.3912   -3.1370 C   0  0  0  0  0  0  0  0  0  0  0  0
   16.7755    2.0905   -3.4134 C   0  0  0  0  0  0  0  0  0  0  0  0
   17.4185    1.0988   -2.3643 C   0  0  0  0  0  0  0  0  0  0  0  0
   16.7135    0.3980   -1.6443 O   0  0  0  0  0  0  0  0  0  0  0  0
   18.8160    1.1253   -2.3150 N   0  0  0  0  0  0  0  0  0  0  0  0
   19.6988    0.5537   -1.3548 C   0  0  0  0  0  0  0  0  0  0  0  0
   19.3155   -0.1388   -0.2075 C   0  0  0  0  0  0  0  0  0  0  0  0
   20.2908   -0.6488    0.6725 C   0  0  0  0  0  0  0  0  0  0  0  0
   21.6552   -0.4703    0.4147 C   0  0  0  0  0  0  0  0  0  0  0  0
   22.0494    0.2270   -0.7200 C   0  0  0  0  0  0  0  0  0  0  0  0
   21.0774    0.7333   -1.5782 C   0  0  0  0  0  0  0  0  0  0  0  0
   21.4776    1.4328   -2.6591 F   0  0  0  0  0  0  0  0  0  0  0  0
   17.5123    3.2524   -3.4573 C   0  0  0  0  0  0  0  0  0  0  0  0
   17.3289    4.1327   -2.3941 C   0  0  0  0  0  0  0  0  0  0  0  0
   16.2296    3.9587   -1.5406 C   0  0  0  0  0  0  0  0  0  0  0  0
   15.1834    3.1382   -1.9818 C   0  0  0  0  0  0  0  0  0  0  0  0
   13.8715    3.2516   -1.5048 C   0  0  0  0  0  0  0  0  0  0  0  0
    9.9434    2.8072   -0.3800 N   0  0  0  0  0  0  0  0  0  0  0  0
    5.9651    3.3114    1.5233 C   0  0  0  0  0  0  0  0  0  0  0  0
    4.7366    6.5805    4.5508 H   0  0  0  0  0  0  0  0  0  0  0  0
    3.9890    6.8906    2.9571 H   0  0  0  0  0  0  0  0  0  0  0  0
    5.5893    6.0755    3.0692 H   0  0  0  0  0  0  0  0  0  0  0  0
    2.8393    4.7818    1.4880 H   0  0  0  0  0  0  0  0  0  0  0  0
    3.1526    3.0971    1.9422 H   0  0  0  0  0  0  0  0  0  0  0  0
    4.1754    5.5577   -0.2956 H   0  0  0  0  0  0  0  0  0  0  0  0
    6.2753    5.6015   -1.5706 H   0  0  0  0  0  0  0  0  0  0  0  0
    8.1757    4.2488   -0.8799 H   0  0  0  0  0  0  0  0  0  0  0  0
    8.0085    1.8507    1.9812 H   0  0  0  0  0  0  0  0  0  0  0  0
   11.4683   -0.3884    0.9288 H   0  0  0  0  0  0  0  0  0  0  0  0
   12.4890    0.6957   -1.0640 H   0  0  0  0  0  0  0  0  0  0  0  0
   12.2943    2.6948   -4.4502 H   0  0  0  0  0  0  0  0  0  0  0  0
   14.6046    2.0778   -5.1176 H   0  0  0  0  0  0  0  0  0  0  0  0
   19.2952    1.6638   -3.0269 H   0  0  0  0  0  0  0  0  0  0  0  0
   18.2661   -0.2881    0.0378 H   0  0  0  0  0  0  0  0  0  0  0  0
   19.9852   -1.1887    1.5659 H   0  0  0  0  0  0  0  0  0  0  0  0
   22.3970   -0.8728    1.1024 H   0  0  0  0  0  0  0  0  0  0  0  0
   23.1073    0.3903   -0.9350 H   0  0  0  0  0  0  0  0  0  0  0  0
   18.2433    3.4151   -4.2422 H   0  0  0  0  0  0  0  0  0  0  0  0
   17.9954    4.9864   -2.2735 H   0  0  0  0  0  0  0  0  0  0  0  0
   16.0950    4.6258   -0.6932 H   0  0  0  0  0  0  0  0  0  0  0  0
   13.6674    3.6741   -0.5258 H   0  0  0  0  0  0  0  0  0  0  0  0
    5.8771    2.6496    2.3852 H   0  0  0  0  0  0  0  0  0  0  0  0
  1  2  1  0  0  0  0
  1 40  1  0  0  0  0
  1 41  1  0  0  0  0
  1 42  1  0  0  0  0
  2  3  2  0  0  0  0
  2  4  2  0  0  0  0
  2  5  1  0  0  0  0
  5  6  1  0  0  0  0
  5 43  1  0  0  0  0
  5 44  1  0  0  0  0
  6  7  1  0  0  0  0
  6 39  2  0  0  0  0
  7  8  2  0  0  0  0
  7 45  1  0  0  0  0
  8  9  1  0  0  0  0
  8 46  1  0  0  0  0
  9 10  2  0  0  0  0
  9 47  1  0  0  0  0
 10 11  1  0  0  0  0
 10 39  1  0  0  0  0
 11 12  1  0  0  0  0
 11 48  1  0  0  0  0
 12 13  1  0  0  0  0
 12 38  2  0  0  0  0
 13 14  2  0  0  0  0
 14 15  1  0  0  0  0
 14 49  1  0  0  0  0
 15 16  2  0  0  0  0
 15 50  1  0  0  0  0
 16 17  1  0  0  0  0
 16 38  1  0  0  0  0
 17 18  1  0  0  0  0
 18 19  1  0  0  0  0
 18 37  2  0  0  0  0
 19 20  2  0  0  0  0
 19 51  1  0  0  0  0
 20 21  1  0  0  0  0
 20 52  1  0  0  0  0
 21 22  1  0  0  0  0
 21 36  2  0  0  0  0
 22 23  1  0  0  0  0
 22 33  2  0  0  0  0
 23 24  2  0  0  0  0
 23 25  1  0  0  0  0
 25 26  1  0  0  0  0
 25 53  1  0  0  0  0
 26 27  1  0  0  0  0
 26 31  2  0  0  0  0
 27 28  2  0  0  0  0
 27 54  1  0  0  0  0
 28 29  1  0  0  0  0
 28 55  1  0  0  0  0
 29 30  2  0  0  0  0
 29 56  1  0  0  0  0
 30 31  1  0  0  0  0
 30 57  1  0  0  0  0
 31 32  1  0  0  0  0
 33 34  1  0  0  0  0
 33 58  1  0  0  0  0
 34 35  2  0  0  0  0
 34 59  1  0  0  0  0
 35 36  1  0  0  0  0
 35 60  1  0  0  0  0
 36 37  1  0  0  0  0
 37 61  1  0  0  0  0
 39 62  1  0  0  0  0
M  END
$$$$
