CHEMBL245968
 OpenBabel04072215363D

 61 65  0  0  0  0  0  0  0  0999 V2000
    8.2768   -3.1700   -0.9587 C   0  0  0  0  0  0  0  0  0  0  0  0
    7.4573   -2.0256   -0.7518 O   0  0  0  0  0  0  0  0  0  0  0  0
    7.7969   -1.3608    0.4634 C   0  0  0  0  0  0  0  0  0  0  0  0
    6.9107   -0.1332    0.6420 C   0  0  0  0  0  0  0  0  0  0  0  0
    7.3327    0.5845    1.8034 O   0  0  0  0  0  0  0  0  0  0  0  0
    6.4541    1.6636    2.0963 C   0  0  0  0  0  0  0  0  0  0  0  0
    6.7901    2.2942    3.4480 C   0  0  0  0  0  0  0  0  0  0  0  0
    5.9278    2.3907    4.3199 O   0  0  0  0  0  0  0  0  0  0  0  0
    8.0874    2.7842    3.5218 N   0  0  0  0  0  0  0  0  0  0  0  0
    8.6924    3.3690    4.6566 C   0  0  0  0  0  0  0  0  0  0  0  0
    8.1613    3.2252    5.9509 C   0  0  0  0  0  0  0  0  0  0  0  0
    8.7636    3.8137    7.0823 C   0  0  0  0  0  0  0  0  0  0  0  0
    9.9251    4.5651    6.9597 C   0  0  0  0  0  0  0  0  0  0  0  0
   10.4522    4.6874    5.6943 C   0  0  0  0  0  0  0  0  0  0  0  0
    9.8676    4.1056    4.5313 C   0  0  0  0  0  0  0  0  0  0  0  0
   10.6469    4.4550    3.2499 C   0  0  0  0  0  0  0  0  0  0  0  0
   11.7226    5.2839    3.8688 C   0  0  0  0  0  0  0  0  0  0  0  0
   11.6009    5.3991    5.2584 C   0  0  0  0  0  0  0  0  0  0  0  0
   12.5430    6.1295    5.8344 N   0  0  0  0  0  0  0  0  0  0  0  0
   13.2951    6.4974    4.7686 N   0  0  0  0  0  0  0  0  0  0  0  0
   12.8296    6.0296    3.5549 C   0  0  0  0  0  0  0  0  0  0  0  0
   13.4179    6.3158    2.2217 C   0  0  0  0  0  0  0  0  0  0  0  0
   14.5802    7.0380    2.0495 C   0  0  0  0  0  0  0  0  0  0  0  0
   14.9814    7.2294    0.3960 S   0  0  0  0  0  0  0  0  0  0  0  0
   13.5967    6.3646   -0.0985 C   0  0  0  0  0  0  0  0  0  0  0  0
   13.2521    6.1593   -1.4631 C   0  0  0  0  0  0  0  0  0  0  0  0
   12.9699    6.0084   -2.7271 C   0  0  0  0  0  0  0  0  0  0  0  0
   12.6409    5.8325   -4.2006 C   0  0  0  0  0  0  0  0  0  0  0  0
   13.8367    5.8908   -4.9707 O   0  0  0  0  0  0  0  0  0  0  0  0
   13.6581    5.7482   -6.3218 C   0  0  0  0  0  0  0  0  0  0  0  0
   12.5127    6.1252   -7.0279 C   0  0  0  0  0  0  0  0  0  0  0  0
   12.4464    5.9396   -8.4110 C   0  0  0  0  0  0  0  0  0  0  0  0
   13.5262    5.3851   -9.0949 C   0  0  0  0  0  0  0  0  0  0  0  0
   14.6786    5.0277   -8.3982 C   0  0  0  0  0  0  0  0  0  0  0  0
   14.7462    5.2170   -7.0166 C   0  0  0  0  0  0  0  0  0  0  0  0
   12.8619    5.9103    0.9733 C   0  0  0  0  0  0  0  0  0  0  0  0
    7.9846   -3.6395   -1.9019 H   0  0  0  0  0  0  0  0  0  0  0  0
    8.1365   -3.8926   -0.1493 H   0  0  0  0  0  0  0  0  0  0  0  0
    9.3300   -2.8787   -1.0252 H   0  0  0  0  0  0  0  0  0  0  0  0
    8.8503   -1.0572    0.4436 H   0  0  0  0  0  0  0  0  0  0  0  0
    7.6598   -2.0409    1.3131 H   0  0  0  0  0  0  0  0  0  0  0  0
    5.8636   -0.4485    0.7385 H   0  0  0  0  0  0  0  0  0  0  0  0
    6.9827    0.5178   -0.2369 H   0  0  0  0  0  0  0  0  0  0  0  0
    5.4176    1.3080    2.1407 H   0  0  0  0  0  0  0  0  0  0  0  0
    6.5352    2.4317    1.3197 H   0  0  0  0  0  0  0  0  0  0  0  0
    8.6284    2.7433    2.6673 H   0  0  0  0  0  0  0  0  0  0  0  0
    7.2704    2.6279    6.1269 H   0  0  0  0  0  0  0  0  0  0  0  0
    8.3082    3.6744    8.0599 H   0  0  0  0  0  0  0  0  0  0  0  0
   10.3941    5.0382    7.8150 H   0  0  0  0  0  0  0  0  0  0  0  0
   10.0262    5.0388    2.5650 H   0  0  0  0  0  0  0  0  0  0  0  0
   11.0500    3.5562    2.7770 H   0  0  0  0  0  0  0  0  0  0  0  0
   14.1014    7.0897    4.9364 H   0  0  0  0  0  0  0  0  0  0  0  0
   15.2298    7.4729    2.7955 H   0  0  0  0  0  0  0  0  0  0  0  0
   11.9629    6.6531   -4.4595 H   0  0  0  0  0  0  0  0  0  0  0  0
   12.1387    4.8685   -4.3428 H   0  0  0  0  0  0  0  0  0  0  0  0
   11.6609    6.5873   -6.5415 H   0  0  0  0  0  0  0  0  0  0  0  0
   11.5531    6.2369   -8.9549 H   0  0  0  0  0  0  0  0  0  0  0  0
   13.4716    5.2406  -10.1706 H   0  0  0  0  0  0  0  0  0  0  0  0
   15.5263    4.6039   -8.9299 H   0  0  0  0  0  0  0  0  0  0  0  0
   15.6489    4.9404   -6.4776 H   0  0  0  0  0  0  0  0  0  0  0  0
   11.9513    5.3389    0.8529 H   0  0  0  0  0  0  0  0  0  0  0  0
  1  2  1  0  0  0  0
  1 37  1  0  0  0  0
  1 38  1  0  0  0  0
  1 39  1  0  0  0  0
  2  3  1  0  0  0  0
  3  4  1  0  0  0  0
  3 40  1  0  0  0  0
  3 41  1  0  0  0  0
  4  5  1  0  0  0  0
  4 42  1  0  0  0  0
  4 43  1  0  0  0  0
  5  6  1  0  0  0  0
  6  7  1  0  0  0  0
  6 44  1  0  0  0  0
  6 45  1  0  0  0  0
  7  8  2  0  0  0  0
  7  9  1  0  0  0  0
  9 10  1  0  0  0  0
  9 46  1  0  0  0  0
 10 11  1  0  0  0  0
 10 15  2  0  0  0  0
 11 12  2  0  0  0  0
 11 47  1  0  0  0  0
 12 13  1  0  0  0  0
 12 48  1  0  0  0  0
 13 14  2  0  0  0  0
 13 49  1  0  0  0  0
 14 15  1  0  0  0  0
 14 18  1  0  0  0  0
 15 16  1  0  0  0  0
 16 17  1  0  0  0  0
 16 50  1  0  0  0  0
 16 51  1  0  0  0  0
 17 18  1  0  0  0  0
 17 21  2  0  0  0  0
 18 19  2  0  0  0  0
 19 20  1  0  0  0  0
 20 21  1  0  0  0  0
 20 52  1  0  0  0  0
 21 22  1  0  0  0  0
 22 23  2  0  0  0  0
 22 36  1  0  0  0  0
 23 24  1  0  0  0  0
 23 53  1  0  0  0  0
 24 25  1  0  0  0  0
 25 26  1  0  0  0  0
 25 36  2  0  0  0  0
 26 27  3  0  0  0  0
 27 28  1  0  0  0  0
 28 29  1  0  0  0  0
 28 54  1  0  0  0  0
 28 55  1  0  0  0  0
 29 30  1  0  0  0  0
 30 31  1  0  0  0  0
 30 35  2  0  0  0  0
 31 32  2  0  0  0  0
 31 56  1  0  0  0  0
 32 33  1  0  0  0  0
 32 57  1  0  0  0  0
 33 34  2  0  0  0  0
 33 58  1  0  0  0  0
 34 35  1  0  0  0  0
 34 59  1  0  0  0  0
 35 60  1  0  0  0  0
 36 61  1  0  0  0  0
M  END
$$$$
