CHEMBL333297
 OpenBabel04072215363D

 54 58  0  0  0  0  0  0  0  0999 V2000
    1.6217   -0.2097   -1.2431 O   0  0  0  0  0  0  0  0  0  0  0  0
    2.7070   -0.3354   -0.4286 C   0  0  0  0  0  0  0  0  0  0  0  0
    3.5320    0.7063   -0.6026 N   0  0  0  0  0  0  0  0  0  0  0  0
    4.6643    0.6965    0.0966 C   0  0  0  0  0  0  0  0  0  0  0  0
    5.5354    1.7556   -0.0965 C   0  0  0  0  0  0  0  0  0  0  0  0
    6.7625    1.8134    0.5563 C   0  0  0  0  0  0  0  0  0  0  0  0
    7.1182    0.7942    1.4287 C   0  0  0  0  0  0  0  0  0  0  0  0
    6.2433   -0.2764    1.6560 C   0  0  0  0  0  0  0  0  0  0  0  0
    5.0029   -0.3468    0.9900 C   0  0  0  0  0  0  0  0  0  0  0  0
    4.0780   -1.4180    1.1521 C   0  0  0  0  0  0  0  0  0  0  0  0
    2.8872   -1.4387    0.4233 C   0  0  0  0  0  0  0  0  0  0  0  0
    1.8895   -2.5350    0.4673 C   0  0  0  0  0  0  0  0  0  0  0  0
    1.8026   -3.8122    1.0211 C   0  0  0  0  0  0  0  0  0  0  0  0
    0.6104   -4.4595    0.5122 C   0  0  0  0  0  0  0  0  0  0  0  0
    0.0121   -5.7456    0.6047 C   0  0  0  0  0  0  0  0  0  0  0  0
   -1.1313   -6.0260   -0.1711 C   0  0  0  0  0  0  0  0  0  0  0  0
   -1.7629   -7.2370   -0.2863 O   0  0  0  0  0  0  0  0  0  0  0  0
   -1.8031   -8.0500    0.8837 C   0  0  0  0  0  0  0  0  0  0  0  0
   -2.6421   -9.3057    0.5551 C   0  0  0  0  0  0  0  0  0  0  0  0
   -2.8079  -10.2543    1.6751 N   0  0  0  0  0  0  0  0  0  0  0  0
   -3.6404  -11.3987    1.2574 C   0  0  0  0  0  0  0  0  0  0  0  0
   -3.8983  -12.3537    2.4269 C   0  0  0  0  0  0  0  0  0  0  0  0
   -2.5963  -12.8254    3.0645 C   0  0  0  0  0  0  0  0  0  0  0  0
   -1.7081  -11.6374    3.4011 C   0  0  0  0  0  0  0  0  0  0  0  0
   -1.5157  -10.7267    2.1915 C   0  0  0  0  0  0  0  0  0  0  0  0
   -1.6840   -5.0564   -1.0057 C   0  0  0  0  0  0  0  0  0  0  0  0
   -1.1524   -3.7740   -1.0670 C   0  0  0  0  0  0  0  0  0  0  0  0
   -0.0127   -3.5279   -0.3042 C   0  0  0  0  0  0  0  0  0  0  0  0
    0.7058   -2.3755   -0.2211 N   0  0  0  0  0  0  0  0  0  0  0  0
    1.8900    0.5981   -1.7204 H   0  0  0  0  0  0  0  0  0  0  0  0
    5.2557    2.5515   -0.7836 H   0  0  0  0  0  0  0  0  0  0  0  0
    7.4330    2.6486    0.3720 H   0  0  0  0  0  0  0  0  0  0  0  0
    8.0836    0.8299    1.9321 H   0  0  0  0  0  0  0  0  0  0  0  0
    6.5465   -1.0631    2.3439 H   0  0  0  0  0  0  0  0  0  0  0  0
    4.3143   -2.2287    1.8366 H   0  0  0  0  0  0  0  0  0  0  0  0
    2.5464   -4.2790    1.6533 H   0  0  0  0  0  0  0  0  0  0  0  0
    0.4772   -6.5031    1.2232 H   0  0  0  0  0  0  0  0  0  0  0  0
   -2.2678   -7.4986    1.7102 H   0  0  0  0  0  0  0  0  0  0  0  0
   -0.7836   -8.3390    1.1452 H   0  0  0  0  0  0  0  0  0  0  0  0
   -2.2045   -9.8064   -0.3197 H   0  0  0  0  0  0  0  0  0  0  0  0
   -3.6348   -8.9635    0.2295 H   0  0  0  0  0  0  0  0  0  0  0  0
   -3.1624  -11.9493    0.4356 H   0  0  0  0  0  0  0  0  0  0  0  0
   -4.6109  -11.0451    0.8878 H   0  0  0  0  0  0  0  0  0  0  0  0
   -4.4711  -13.2215    2.0803 H   0  0  0  0  0  0  0  0  0  0  0  0
   -4.5117  -11.8474    3.1828 H   0  0  0  0  0  0  0  0  0  0  0  0
   -2.0676  -13.4916    2.3720 H   0  0  0  0  0  0  0  0  0  0  0  0
   -2.8067  -13.4024    3.9714 H   0  0  0  0  0  0  0  0  0  0  0  0
   -0.7323  -11.9878    3.7550 H   0  0  0  0  0  0  0  0  0  0  0  0
   -2.1579  -11.0623    4.2207 H   0  0  0  0  0  0  0  0  0  0  0  0
   -0.9499  -11.2481    1.4084 H   0  0  0  0  0  0  0  0  0  0  0  0
   -0.9060   -9.8860    2.5347 H   0  0  0  0  0  0  0  0  0  0  0  0
   -2.5467   -5.3013   -1.6207 H   0  0  0  0  0  0  0  0  0  0  0  0
   -1.5800   -3.0191   -1.7150 H   0  0  0  0  0  0  0  0  0  0  0  0
    0.4761   -1.5364   -0.7314 H   0  0  0  0  0  0  0  0  0  0  0  0
  1  2  1  0  0  0  0
  1 30  1  0  0  0  0
  2  3  1  0  0  0  0
  2 11  2  0  0  0  0
  3  4  2  0  0  0  0
  4  5  1  0  0  0  0
  4  9  1  0  0  0  0
  5  6  2  0  0  0  0
  5 31  1  0  0  0  0
  6  7  1  0  0  0  0
  6 32  1  0  0  0  0
  7  8  2  0  0  0  0
  7 33  1  0  0  0  0
  8  9  1  0  0  0  0
  8 34  1  0  0  0  0
  9 10  2  0  0  0  0
 10 11  1  0  0  0  0
 10 35  1  0  0  0  0
 11 12  1  0  0  0  0
 12 13  2  0  0  0  0
 12 29  1  0  0  0  0
 13 14  1  0  0  0  0
 13 36  1  0  0  0  0
 14 15  1  0  0  0  0
 14 28  2  0  0  0  0
 15 16  2  0  0  0  0
 15 37  1  0  0  0  0
 16 17  1  0  0  0  0
 16 26  1  0  0  0  0
 17 18  1  0  0  0  0
 18 19  1  0  0  0  0
 18 38  1  0  0  0  0
 18 39  1  0  0  0  0
 19 20  1  0  0  0  0
 19 40  1  0  0  0  0
 19 41  1  0  0  0  0
 20 21  1  0  0  0  0
 20 25  1  0  0  0  0
 21 22  1  0  0  0  0
 21 42  1  0  0  0  0
 21 43  1  0  0  0  0
 22 23  1  0  0  0  0
 22 44  1  0  0  0  0
 22 45  1  0  0  0  0
 23 24  1  0  0  0  0
 23 46  1  0  0  0  0
 23 47  1  0  0  0  0
 24 25  1  0  0  0  0
 24 48  1  0  0  0  0
 24 49  1  0  0  0  0
 25 50  1  0  0  0  0
 25 51  1  0  0  0  0
 26 27  2  0  0  0  0
 26 52  1  0  0  0  0
 27 28  1  0  0  0  0
 27 53  1  0  0  0  0
 28 29  1  0  0  0  0
 29 54  1  0  0  0  0
M  END
$$$$
