CHEMBL3782044
 OpenBabel04072215373D

 61 65  0  0  0  0  0  0  0  0999 V2000
   10.0890   -2.2255   -2.2330 C   0  0  0  0  0  0  0  0  0  0  0  0
    9.7328   -1.7713   -0.9334 O   0  0  0  0  0  0  0  0  0  0  0  0
    8.7105   -2.4297   -0.3073 C   0  0  0  0  0  0  0  0  0  0  0  0
    7.9580   -3.4786   -0.8355 C   0  0  0  0  0  0  0  0  0  0  0  0
    6.9372   -4.0753   -0.0793 C   0  0  0  0  0  0  0  0  0  0  0  0
    6.6617   -3.6413    1.2229 C   0  0  0  0  0  0  0  0  0  0  0  0
    5.5117   -4.1873    2.0428 C   0  0  0  0  0  0  0  0  0  0  0  0
    5.1507   -5.6521    1.9104 C   0  0  0  0  0  0  0  0  0  0  0  0
    4.0854   -5.8986    1.1217 N   0  0  0  0  0  0  0  0  0  0  0  0
    3.5394   -7.1528    1.0669 N   0  0  0  0  0  0  0  0  0  0  0  0
    4.0447   -8.1822    1.7841 C   0  0  0  0  0  0  0  0  0  0  0  0
    3.3723   -9.4473    1.7454 N   0  0  0  0  0  0  0  0  0  0  0  0
    2.5667   -9.8545    0.6390 C   0  0  0  0  0  0  0  0  0  0  0  0
    2.9426   -9.5386   -0.6653 C   0  0  0  0  0  0  0  0  0  0  0  0
    2.1994   -9.9830   -1.7568 C   0  0  0  0  0  0  0  0  0  0  0  0
    1.0711  -10.7851   -1.5911 C   0  0  0  0  0  0  0  0  0  0  0  0
    0.2576  -11.1892   -2.6797 N   0  0  0  0  0  0  0  0  0  0  0  0
    0.5173  -10.9246   -4.0140 C   0  0  0  0  0  0  0  0  0  0  0  0
    1.5538  -10.4356   -4.4492 O   0  0  0  0  0  0  0  0  0  0  0  0
   -0.5554  -11.2423   -4.8390 N   0  0  0  0  0  0  0  0  0  0  0  0
   -0.4563  -10.9754   -6.2380 C   0  0  0  0  0  0  0  0  0  0  0  0
    0.6858  -11.3550   -6.9574 C   0  0  0  0  0  0  0  0  0  0  0  0
    0.8350  -10.9982   -8.2983 C   0  0  0  0  0  0  0  0  0  0  0  0
   -0.1600  -10.2624   -8.9365 C   0  0  0  0  0  0  0  0  0  0  0  0
   -1.3171   -9.9059   -8.2406 C   0  0  0  0  0  0  0  0  0  0  0  0
   -1.4738  -10.2765   -6.9010 C   0  0  0  0  0  0  0  0  0  0  0  0
   -2.8995   -9.7708   -6.0645 Cl  0  0  0  0  0  0  0  0  0  0  0  0
    0.7334  -11.1749   -0.2925 C   0  0  0  0  0  0  0  0  0  0  0  0
    1.4844  -10.7268    0.8119 C   0  0  0  0  0  0  0  0  0  0  0  0
    5.1731   -7.9774    2.6148 C   0  0  0  0  0  0  0  0  0  0  0  0
    5.7569   -8.9929    3.4172 C   0  0  0  0  0  0  0  0  0  0  0  0
    6.8954   -8.7602    4.1904 C   0  0  0  0  0  0  0  0  0  0  0  0
    7.4822   -7.5054    4.1918 C   0  0  0  0  0  0  0  0  0  0  0  0
    6.9201   -6.4783    3.4351 C   0  0  0  0  0  0  0  0  0  0  0  0
    5.7623   -6.6825    2.6472 C   0  0  0  0  0  0  0  0  0  0  0  0
    7.4055   -2.5638    1.7322 C   0  0  0  0  0  0  0  0  0  0  0  0
    8.4205   -1.9701    0.9765 C   0  0  0  0  0  0  0  0  0  0  0  0
   10.9757   -1.6684   -2.5517 H   0  0  0  0  0  0  0  0  0  0  0  0
    9.2875   -2.0191   -2.9497 H   0  0  0  0  0  0  0  0  0  0  0  0
   10.3529   -3.2882   -2.2284 H   0  0  0  0  0  0  0  0  0  0  0  0
    8.1276   -3.8503   -1.8407 H   0  0  0  0  0  0  0  0  0  0  0  0
    6.3489   -4.8704   -0.5344 H   0  0  0  0  0  0  0  0  0  0  0  0
    4.6264   -3.5906    1.7827 H   0  0  0  0  0  0  0  0  0  0  0  0
    5.6874   -3.9790    3.1065 H   0  0  0  0  0  0  0  0  0  0  0  0
    4.0539  -10.1836    1.8738 H   0  0  0  0  0  0  0  0  0  0  0  0
    3.8122   -8.9172   -0.8637 H   0  0  0  0  0  0  0  0  0  0  0  0
    2.5444   -9.6485   -2.7290 H   0  0  0  0  0  0  0  0  0  0  0  0
   -0.5388  -11.7748   -2.4741 H   0  0  0  0  0  0  0  0  0  0  0  0
   -1.4607  -11.0354   -4.4347 H   0  0  0  0  0  0  0  0  0  0  0  0
    1.4879  -11.9069   -6.4702 H   0  0  0  0  0  0  0  0  0  0  0  0
    1.7412  -11.2749   -8.8324 H   0  0  0  0  0  0  0  0  0  0  0  0
   -0.0281   -9.9572   -9.9717 H   0  0  0  0  0  0  0  0  0  0  0  0
   -2.0798   -9.3160   -8.7417 H   0  0  0  0  0  0  0  0  0  0  0  0
   -0.1238  -11.8223   -0.1106 H   0  0  0  0  0  0  0  0  0  0  0  0
    1.1988  -11.0395    1.8156 H   0  0  0  0  0  0  0  0  0  0  0  0
    5.3289   -9.9912    3.4592 H   0  0  0  0  0  0  0  0  0  0  0  0
    7.3221   -9.5624    4.7875 H   0  0  0  0  0  0  0  0  0  0  0  0
    8.3748   -7.3194    4.7842 H   0  0  0  0  0  0  0  0  0  0  0  0
    7.4147   -5.5091    3.4598 H   0  0  0  0  0  0  0  0  0  0  0  0
    7.1890   -2.1601    2.7194 H   0  0  0  0  0  0  0  0  0  0  0  0
    8.9813   -1.1341    1.3883 H   0  0  0  0  0  0  0  0  0  0  0  0
  1  2  1  0  0  0  0
  1 38  1  0  0  0  0
  1 39  1  0  0  0  0
  1 40  1  0  0  0  0
  2  3  1  0  0  0  0
  3  4  1  0  0  0  0
  3 37  2  0  0  0  0
  4  5  2  0  0  0  0
  4 41  1  0  0  0  0
  5  6  1  0  0  0  0
  5 42  1  0  0  0  0
  6  7  1  0  0  0  0
  6 36  2  0  0  0  0
  7  8  1  0  0  0  0
  7 43  1  0  0  0  0
  7 44  1  0  0  0  0
  8  9  1  0  0  0  0
  8 35  2  0  0  0  0
  9 10  2  0  0  0  0
 10 11  1  0  0  0  0
 11 12  1  0  0  0  0
 11 30  2  0  0  0  0
 12 13  1  0  0  0  0
 12 45  1  0  0  0  0
 13 14  1  0  0  0  0
 13 29  2  0  0  0  0
 14 15  2  0  0  0  0
 14 46  1  0  0  0  0
 15 16  1  0  0  0  0
 15 47  1  0  0  0  0
 16 17  1  0  0  0  0
 16 28  2  0  0  0  0
 17 18  1  0  0  0  0
 17 48  1  0  0  0  0
 18 19  2  0  0  0  0
 18 20  1  0  0  0  0
 20 21  1  0  0  0  0
 20 49  1  0  0  0  0
 21 22  1  0  0  0  0
 21 26  2  0  0  0  0
 22 23  2  0  0  0  0
 22 50  1  0  0  0  0
 23 24  1  0  0  0  0
 23 51  1  0  0  0  0
 24 25  2  0  0  0  0
 24 52  1  0  0  0  0
 25 26  1  0  0  0  0
 25 53  1  0  0  0  0
 26 27  1  0  0  0  0
 28 29  1  0  0  0  0
 28 54  1  0  0  0  0
 29 55  1  0  0  0  0
 30 31  1  0  0  0  0
 30 35  1  0  0  0  0
 31 32  2  0  0  0  0
 31 56  1  0  0  0  0
 32 33  1  0  0  0  0
 32 57  1  0  0  0  0
 33 34  2  0  0  0  0
 33 58  1  0  0  0  0
 34 35  1  0  0  0  0
 34 59  1  0  0  0  0
 36 37  1  0  0  0  0
 36 60  1  0  0  0  0
 37 61  1  0  0  0  0
M  END
$$$$
