CHEMBL4461971
 OpenBabel04072215383D

 72 77  0  0  0  0  0  0  0  0999 V2000
    0.4931   -1.1291   -0.9634 O   0  0  0  0  0  0  0  0  0  0  0  0
    1.6986   -0.9120   -0.9667 C   0  0  0  0  0  0  0  0  0  0  0  0
    2.2898    0.2414   -1.4746 N   0  0  0  0  0  0  0  0  0  0  0  0
    1.6179    1.3005   -2.1469 C   0  0  0  0  0  0  0  0  0  0  0  0
    0.2321    1.4757   -2.1468 C   0  0  0  0  0  0  0  0  0  0  0  0
   -0.3790    2.4249   -2.9903 C   0  0  0  0  0  0  0  0  0  0  0  0
    0.3892    3.2416   -3.8270 C   0  0  0  0  0  0  0  0  0  0  0  0
   -0.1336    4.0393   -4.8442 O   0  0  0  0  0  0  0  0  0  0  0  0
   -1.2172    4.8795   -4.5662 C   0  0  0  0  0  0  0  0  0  0  0  0
   -1.4839    5.0513   -3.2451 N   0  0  0  0  0  0  0  0  0  0  0  0
   -2.4833    5.8748   -2.9500 C   0  0  0  0  0  0  0  0  0  0  0  0
   -3.1989    6.5473   -3.8347 N   0  0  0  0  0  0  0  0  0  0  0  0
   -2.8871    6.3973   -5.1185 C   0  0  0  0  0  0  0  0  0  0  0  0
   -3.7034    7.1256   -5.9428 C   0  0  0  0  0  0  0  0  0  0  0  0
   -3.4906    7.1883   -7.3070 C   0  0  0  0  0  0  0  0  0  0  0  0
   -4.3245    7.7397   -8.2338 O   0  0  0  0  0  0  0  0  0  0  0  0
   -5.4898    8.3744   -7.7375 C   0  0  0  0  0  0  0  0  0  0  0  0
   -5.0660    9.7601   -7.2648 C   0  0  0  0  0  0  0  0  0  0  0  0
   -6.1333   10.5704   -6.6746 N   0  0  0  0  0  0  0  0  0  0  0  0
   -7.2784   10.7433   -7.5908 C   0  0  0  0  0  0  0  0  0  0  0  0
   -6.9155   11.5419   -8.8516 C   0  0  0  0  0  0  0  0  0  0  0  0
   -6.3826   12.8304   -8.5153 O   0  0  0  0  0  0  0  0  0  0  0  0
   -5.2531   12.7279   -7.6368 C   0  0  0  0  0  0  0  0  0  0  0  0
   -5.5900   11.9158   -6.3707 C   0  0  0  0  0  0  0  0  0  0  0  0
   -2.4067    6.5332   -7.8358 C   0  0  0  0  0  0  0  0  0  0  0  0
   -1.7224    5.5816   -7.0836 C   0  0  0  0  0  0  0  0  0  0  0  0
   -1.8837    5.5564   -5.6351 C   0  0  0  0  0  0  0  0  0  0  0  0
   -1.0101    4.6166   -7.7627 O   0  0  0  0  0  0  0  0  0  0  0  0
   -1.2798    4.5454   -9.2035 C   0  0  0  0  0  0  0  0  0  0  0  0
   -2.3374    5.4939   -9.7663 C   0  0  0  0  0  0  0  0  0  0  0  0
   -2.1370    6.7523   -9.1622 O   0  0  0  0  0  0  0  0  0  0  0  0
    1.7797    3.1486   -3.7399 C   0  0  0  0  0  0  0  0  0  0  0  0
    2.3886    2.1929   -2.9033 C   0  0  0  0  0  0  0  0  0  0  0  0
    2.6473   -1.8122   -0.4958 N   0  0  0  0  0  0  0  0  0  0  0  0
    2.4160   -3.1404   -0.0414 C   0  0  0  0  0  0  0  0  0  0  0  0
    1.1727   -3.7797   -0.0736 C   0  0  0  0  0  0  0  0  0  0  0  0
    1.0161   -5.1087    0.3697 C   0  0  0  0  0  0  0  0  0  0  0  0
   -0.3354   -5.7838    0.3223 C   0  0  0  0  0  0  0  0  0  0  0  0
   -1.3272   -5.0102   -0.1930 F   0  0  0  0  0  0  0  0  0  0  0  0
   -0.3213   -6.9203   -0.4245 F   0  0  0  0  0  0  0  0  0  0  0  0
   -0.7624   -6.1661    1.5579 F   0  0  0  0  0  0  0  0  0  0  0  0
    2.1320   -5.8061    0.8587 C   0  0  0  0  0  0  0  0  0  0  0  0
    3.3799   -5.1846    0.8919 C   0  0  0  0  0  0  0  0  0  0  0  0
    3.5104   -3.8686    0.4437 C   0  0  0  0  0  0  0  0  0  0  0  0
    4.7254   -3.2965    0.4719 F   0  0  0  0  0  0  0  0  0  0  0  0
    3.2928    0.2214   -1.5782 H   0  0  0  0  0  0  0  0  0  0  0  0
   -0.4141    0.8665   -1.5205 H   0  0  0  0  0  0  0  0  0  0  0  0
   -1.4634    2.4905   -2.9864 H   0  0  0  0  0  0  0  0  0  0  0  0
   -2.7348    6.0200   -1.9042 H   0  0  0  0  0  0  0  0  0  0  0  0
   -4.5216    7.6581   -5.4739 H   0  0  0  0  0  0  0  0  0  0  0  0
   -6.0084    7.7758   -6.9795 H   0  0  0  0  0  0  0  0  0  0  0  0
   -6.1723    8.4428   -8.5904 H   0  0  0  0  0  0  0  0  0  0  0  0
   -4.5764   10.2382   -8.1208 H   0  0  0  0  0  0  0  0  0  0  0  0
   -4.2635    9.6720   -6.5226 H   0  0  0  0  0  0  0  0  0  0  0  0
   -8.0652   11.2730   -7.0407 H   0  0  0  0  0  0  0  0  0  0  0  0
   -7.7165    9.7751   -7.8584 H   0  0  0  0  0  0  0  0  0  0  0  0
   -7.8160   11.6994   -9.4519 H   0  0  0  0  0  0  0  0  0  0  0  0
   -6.1993   11.0027   -9.4838 H   0  0  0  0  0  0  0  0  0  0  0  0
   -4.9577   13.7419   -7.3506 H   0  0  0  0  0  0  0  0  0  0  0  0
   -4.4064   12.3028   -8.1877 H   0  0  0  0  0  0  0  0  0  0  0  0
   -6.3453   12.4554   -5.7881 H   0  0  0  0  0  0  0  0  0  0  0  0
   -4.7065   11.8305   -5.7252 H   0  0  0  0  0  0  0  0  0  0  0  0
   -0.3321    4.7552   -9.7098 H   0  0  0  0  0  0  0  0  0  0  0  0
   -1.5781    3.5221   -9.4546 H   0  0  0  0  0  0  0  0  0  0  0  0
   -3.3691    5.1593   -9.5796 H   0  0  0  0  0  0  0  0  0  0  0  0
   -2.2508    5.6195  -10.8526 H   0  0  0  0  0  0  0  0  0  0  0  0
    2.4002    3.8002   -4.3484 H   0  0  0  0  0  0  0  0  0  0  0  0
    3.4734    2.1268   -2.9012 H   0  0  0  0  0  0  0  0  0  0  0  0
    3.6016   -1.4911   -0.4080 H   0  0  0  0  0  0  0  0  0  0  0  0
    0.2912   -3.2683   -0.4514 H   0  0  0  0  0  0  0  0  0  0  0  0
    2.0282   -6.8331    1.2077 H   0  0  0  0  0  0  0  0  0  0  0  0
    4.2527   -5.7164    1.2594 H   0  0  0  0  0  0  0  0  0  0  0  0
  1  2  2  0  0  0  0
  2  3  1  0  0  0  0
  2 34  1  0  0  0  0
  3  4  1  0  0  0  0
  3 46  1  0  0  0  0
  4  5  1  0  0  0  0
  4 33  2  0  0  0  0
  5  6  2  0  0  0  0
  5 47  1  0  0  0  0
  6  7  1  0  0  0  0
  6 48  1  0  0  0  0
  7  8  1  0  0  0  0
  7 32  2  0  0  0  0
  8  9  1  0  0  0  0
  9 10  1  0  0  0  0
  9 27  2  0  0  0  0
 10 11  2  0  0  0  0
 11 12  1  0  0  0  0
 11 49  1  0  0  0  0
 12 13  2  0  0  0  0
 13 14  1  0  0  0  0
 13 27  1  0  0  0  0
 14 15  2  0  0  0  0
 14 50  1  0  0  0  0
 15 16  1  0  0  0  0
 15 25  1  0  0  0  0
 16 17  1  0  0  0  0
 17 18  1  0  0  0  0
 17 51  1  0  0  0  0
 17 52  1  0  0  0  0
 18 19  1  0  0  0  0
 18 53  1  0  0  0  0
 18 54  1  0  0  0  0
 19 20  1  0  0  0  0
 19 24  1  0  0  0  0
 20 21  1  0  0  0  0
 20 55  1  0  0  0  0
 20 56  1  0  0  0  0
 21 22  1  0  0  0  0
 21 57  1  0  0  0  0
 21 58  1  0  0  0  0
 22 23  1  0  0  0  0
 23 24  1  0  0  0  0
 23 59  1  0  0  0  0
 23 60  1  0  0  0  0
 24 61  1  0  0  0  0
 24 62  1  0  0  0  0
 25 26  2  0  0  0  0
 25 31  1  0  0  0  0
 26 27  1  0  0  0  0
 26 28  1  0  0  0  0
 28 29  1  0  0  0  0
 29 30  1  0  0  0  0
 29 63  1  0  0  0  0
 29 64  1  0  0  0  0
 30 31  1  0  0  0  0
 30 65  1  0  0  0  0
 30 66  1  0  0  0  0
 32 33  1  0  0  0  0
 32 67  1  0  0  0  0
 33 68  1  0  0  0  0
 34 35  1  0  0  0  0
 34 69  1  0  0  0  0
 35 36  1  0  0  0  0
 35 44  2  0  0  0  0
 36 37  2  0  0  0  0
 36 70  1  0  0  0  0
 37 38  1  0  0  0  0
 37 42  1  0  0  0  0
 38 39  1  0  0  0  0
 38 40  1  0  0  0  0
 38 41  1  0  0  0  0
 42 43  2  0  0  0  0
 42 71  1  0  0  0  0
 43 44  1  0  0  0  0
 43 72  1  0  0  0  0
 44 45  1  0  0  0  0
M  END
$$$$
