CHEMBL281990
 OpenBabel04072215363D

 57 60  0  0  0  0  0  0  0  0999 V2000
    2.7268   -1.2750    0.0626 C   0  0  0  0  0  0  0  0  0  0  0  0
    2.3074    0.0966    0.0576 O   0  0  0  0  0  0  0  0  0  0  0  0
    2.9713    0.9278   -0.8136 C   0  0  0  0  0  0  0  0  0  0  0  0
    4.0810    0.4916   -1.5406 C   0  0  0  0  0  0  0  0  0  0  0  0
    4.6525    1.2837   -2.5520 C   0  0  0  0  0  0  0  0  0  0  0  0
    5.6669    0.8495   -3.4018 C   0  0  0  0  0  0  0  0  0  0  0  0
    6.0883   -0.5082   -3.3310 N   0  0  0  0  0  0  0  0  0  0  0  0
    7.3149   -0.9360   -3.8811 C   0  0  0  0  0  0  0  0  0  0  0  0
    8.4846   -0.2464   -3.5756 C   0  0  0  0  0  0  0  0  0  0  0  0
    9.6647   -0.5200   -4.2610 C   0  0  0  0  0  0  0  0  0  0  0  0
    9.6892   -1.5123   -5.2471 C   0  0  0  0  0  0  0  0  0  0  0  0
   10.9028   -1.6857   -6.1094 C   0  0  0  0  0  0  0  0  0  0  0  0
    8.5458   -2.2933   -5.4681 C   0  0  0  0  0  0  0  0  0  0  0  0
    7.3723   -2.0018   -4.7809 C   0  0  0  0  0  0  0  0  0  0  0  0
    6.2638   -2.7137   -5.0410 F   0  0  0  0  0  0  0  0  0  0  0  0
    6.2194    1.6624   -4.3231 N   0  0  0  0  0  0  0  0  0  0  0  0
    5.7333    2.9027   -4.4022 C   0  0  0  0  0  0  0  0  0  0  0  0
    4.7427    3.4032   -3.6612 N   0  0  0  0  0  0  0  0  0  0  0  0
    4.2146    2.5857   -2.7467 C   0  0  0  0  0  0  0  0  0  0  0  0
    3.1756    3.0458   -1.9625 C   0  0  0  0  0  0  0  0  0  0  0  0
    2.5184    2.2459   -1.0047 C   0  0  0  0  0  0  0  0  0  0  0  0
    1.4483    2.7165   -0.2542 O   0  0  0  0  0  0  0  0  0  0  0  0
    1.1363    4.0988   -0.4969 C   0  0  0  0  0  0  0  0  0  0  0  0
   -0.0752    4.6518    0.2713 C   0  0  0  0  0  0  0  0  0  0  0  0
   -1.3698    3.8914   -0.0196 C   0  0  0  0  0  0  0  0  0  0  0  0
   -1.8321    4.0786   -1.4679 C   0  0  0  0  0  0  0  0  0  0  0  0
   -1.9854    5.4955   -1.8306 N   0  0  0  0  0  0  0  0  0  0  0  0
   -2.3603    5.6120   -3.2428 C   0  0  0  0  0  0  0  0  0  0  0  0
   -0.7846    6.2940   -1.5573 C   0  0  0  0  0  0  0  0  0  0  0  0
   -0.2962    6.1309   -0.1106 C   0  0  0  0  0  0  0  0  0  0  0  0
    1.9570   -1.8836    0.5427 H   0  0  0  0  0  0  0  0  0  0  0  0
    3.6560   -1.3817    0.6351 H   0  0  0  0  0  0  0  0  0  0  0  0
    2.8539   -1.6844   -0.9493 H   0  0  0  0  0  0  0  0  0  0  0  0
    4.5387   -0.4726   -1.3487 H   0  0  0  0  0  0  0  0  0  0  0  0
    5.3218   -1.1048   -3.6420 H   0  0  0  0  0  0  0  0  0  0  0  0
    8.4719    0.5541   -2.8393 H   0  0  0  0  0  0  0  0  0  0  0  0
   10.5503    0.0733   -4.0429 H   0  0  0  0  0  0  0  0  0  0  0  0
   11.6760   -0.9533   -5.8536 H   0  0  0  0  0  0  0  0  0  0  0  0
   10.6286   -1.5180   -7.1564 H   0  0  0  0  0  0  0  0  0  0  0  0
   11.3213   -2.6882   -5.9932 H   0  0  0  0  0  0  0  0  0  0  0  0
    8.5454   -3.0913   -6.2026 H   0  0  0  0  0  0  0  0  0  0  0  0
    6.1764    3.5585   -5.1430 H   0  0  0  0  0  0  0  0  0  0  0  0
    2.8851    4.0732   -2.1594 H   0  0  0  0  0  0  0  0  0  0  0  0
    0.9377    4.2178   -1.5653 H   0  0  0  0  0  0  0  0  0  0  0  0
    2.0059    4.7064   -0.2131 H   0  0  0  0  0  0  0  0  0  0  0  0
    0.1346    4.5811    1.3456 H   0  0  0  0  0  0  0  0  0  0  0  0
   -2.1566    4.2599    0.6533 H   0  0  0  0  0  0  0  0  0  0  0  0
   -1.2465    2.8257    0.1969 H   0  0  0  0  0  0  0  0  0  0  0  0
   -2.8006    3.5757   -1.5793 H   0  0  0  0  0  0  0  0  0  0  0  0
   -1.1357    3.5726   -2.1476 H   0  0  0  0  0  0  0  0  0  0  0  0
   -3.2868    5.0633   -3.4443 H   0  0  0  0  0  0  0  0  0  0  0  0
   -1.5809    5.2222   -3.9100 H   0  0  0  0  0  0  0  0  0  0  0  0
   -2.5470    6.6576   -3.5109 H   0  0  0  0  0  0  0  0  0  0  0  0
   -1.0079    7.3552   -1.7251 H   0  0  0  0  0  0  0  0  0  0  0  0
    0.0226    6.0385   -2.2547 H   0  0  0  0  0  0  0  0  0  0  0  0
   -1.0372    6.5754    0.5659 H   0  0  0  0  0  0  0  0  0  0  0  0
    0.6307    6.7020    0.0245 H   0  0  0  0  0  0  0  0  0  0  0  0
  1  2  1  0  0  0  0
  1 31  1  0  0  0  0
  1 32  1  0  0  0  0
  1 33  1  0  0  0  0
  2  3  1  0  0  0  0
  3  4  1  0  0  0  0
  3 21  2  0  0  0  0
  4  5  2  0  0  0  0
  4 34  1  0  0  0  0
  5  6  1  0  0  0  0
  5 19  1  0  0  0  0
  6  7  1  0  0  0  0
  6 16  2  0  0  0  0
  7  8  1  0  0  0  0
  7 35  1  0  0  0  0
  8  9  1  0  0  0  0
  8 14  2  0  0  0  0
  9 10  2  0  0  0  0
  9 36  1  0  0  0  0
 10 11  1  0  0  0  0
 10 37  1  0  0  0  0
 11 12  1  0  0  0  0
 11 13  2  0  0  0  0
 12 38  1  0  0  0  0
 12 39  1  0  0  0  0
 12 40  1  0  0  0  0
 13 14  1  0  0  0  0
 13 41  1  0  0  0  0
 14 15  1  0  0  0  0
 16 17  1  0  0  0  0
 17 18  2  0  0  0  0
 17 42  1  0  0  0  0
 18 19  1  0  0  0  0
 19 20  2  0  0  0  0
 20 21  1  0  0  0  0
 20 43  1  0  0  0  0
 21 22  1  0  0  0  0
 22 23  1  0  0  0  0
 23 24  1  0  0  0  0
 23 44  1  0  0  0  0
 23 45  1  0  0  0  0
 24 25  1  0  0  0  0
 24 30  1  0  0  0  0
 24 46  1  0  0  0  0
 25 26  1  0  0  0  0
 25 47  1  0  0  0  0
 25 48  1  0  0  0  0
 26 27  1  0  0  0  0
 26 49  1  0  0  0  0
 26 50  1  0  0  0  0
 27 28  1  0  0  0  0
 27 29  1  0  0  0  0
 28 51  1  0  0  0  0
 28 52  1  0  0  0  0
 28 53  1  0  0  0  0
 29 30  1  0  0  0  0
 29 54  1  0  0  0  0
 29 55  1  0  0  0  0
 30 56  1  0  0  0  0
 30 57  1  0  0  0  0
M  END
$$$$
