CHEMBL395665
 OpenBabel04072215373D

 78 83  0  0  1  0  0  0  0  0999 V2000
    3.6241   -2.3870   -0.2618 C   0  0  0  0  0  0  0  0  0  0  0  0
    3.4046   -0.9618   -0.2726 O   0  0  0  0  0  0  0  0  0  0  0  0
    3.6547   -0.3686    0.9425 C   0  0  0  0  0  0  0  0  0  0  0  0
    3.3866   -1.0407    2.1408 C   0  0  0  0  0  0  0  0  0  0  0  0
    3.7713   -0.5294    3.3843 C   0  0  0  0  0  0  0  0  0  0  0  0
    3.3380   -1.2236    4.6050 C   0  0  0  0  0  0  0  0  0  0  0  0
    3.2685   -2.6038    4.5964 C   0  0  0  0  0  0  0  0  0  0  0  0
    2.5871   -3.2529    5.9968 S   0  0  0  0  0  0  0  0  0  0  0  0
    2.3486   -1.6941    6.7009 C   0  0  0  0  0  0  0  0  0  0  0  0
    1.7618   -1.4134    7.9533 C   0  0  0  0  0  0  0  0  0  0  0  0
    1.2118   -2.4892    8.7839 C   0  0  0  0  0  0  0  0  0  0  0  0
    1.1762   -2.4404   10.1194 C   0  0  0  0  0  0  0  0  0  0  0  0
    0.6245   -3.5384   10.9624 C   0  0  0  0  0  0  0  0  0  0  0  0
   -0.4510   -3.0202   11.8042 N   0  0  0  0  0  0  0  0  0  0  0  0
   -1.0615   -4.0670   12.6322 C   0  0  1  0  0  0  0  0  0  0  0  0
   -0.0514   -4.6878   13.6129 C   0  0  0  0  0  0  0  0  0  0  0  0
   -0.7105   -5.7217   14.5192 C   0  0  0  0  0  0  0  0  0  0  0  0
   -1.8811   -5.1113   15.2894 C   0  0  2  0  0  0  0  0  0  0  0  0
   -2.5029   -6.1436   16.1132 N   0  0  0  0  0  0  0  0  0  0  0  0
   -2.9019   -4.4890   14.3315 C   0  0  0  0  0  0  0  0  0  0  0  0
   -2.2470   -3.4629   13.4036 C   0  0  0  0  0  0  0  0  0  0  0  0
    1.6810   -0.0733    8.2860 C   0  0  0  0  0  0  0  0  0  0  0  0
    2.1171    0.9357    7.5187 N   0  0  0  0  0  0  0  0  0  0  0  0
    2.6685    0.6755    6.3182 C   0  0  0  0  0  0  0  0  0  0  0  0
    3.0326    1.8179    5.6308 N   0  0  0  0  0  0  0  0  0  0  0  0
    2.8157   -0.6608    5.8569 C   0  0  0  0  0  0  0  0  0  0  0  0
    4.5059    0.6496    3.3918 C   0  0  0  0  0  0  0  0  0  0  0  0
    4.6178    1.4159    2.2259 C   0  0  0  0  0  0  0  0  0  0  0  0
    4.1127    0.9546    1.0053 C   0  0  0  0  0  0  0  0  0  0  0  0
    4.0461    1.7969   -0.1355 N   0  0  0  0  0  0  0  0  0  0  0  0
    4.0280    3.1953   -0.1069 C   0  0  0  0  0  0  0  0  0  0  0  0
    3.9449    3.8613    0.9223 O   0  0  0  0  0  0  0  0  0  0  0  0
    4.2291    3.8508   -1.4067 C   0  0  0  0  0  0  0  0  0  0  0  0
    4.8362    3.2911   -2.5268 C   0  0  0  0  0  0  0  0  0  0  0  0
    6.1458    3.8935   -2.4299 C   0  0  0  0  0  0  0  0  0  0  0  0
    7.4352    3.4633   -2.7443 C   0  0  0  0  0  0  0  0  0  0  0  0
    8.5072    4.2143   -2.2564 C   0  0  0  0  0  0  0  0  0  0  0  0
    8.3083    5.4279   -1.5833 C   0  0  0  0  0  0  0  0  0  0  0  0
    7.0342    5.9431   -1.3763 C   0  0  0  0  0  0  0  0  0  0  0  0
    5.9766    5.1123   -1.7499 C   0  0  0  0  0  0  0  0  0  0  0  0
    4.6289    5.1699   -1.5483 N   0  0  0  0  0  0  0  0  0  0  0  0
    3.8304    6.3792   -1.5008 C   0  0  0  0  0  0  0  0  0  0  0  0
    3.5466   -2.7629   -1.2827 H   0  0  0  0  0  0  0  0  0  0  0  0
    2.8537   -2.9121    0.3195 H   0  0  0  0  0  0  0  0  0  0  0  0
    4.6206   -2.6392    0.1216 H   0  0  0  0  0  0  0  0  0  0  0  0
    2.8188   -1.9636    2.1152 H   0  0  0  0  0  0  0  0  0  0  0  0
    3.5587   -3.2839    3.8059 H   0  0  0  0  0  0  0  0  0  0  0  0
    0.8210   -3.3593    8.2678 H   0  0  0  0  0  0  0  0  0  0  0  0
    1.5904   -1.5916   10.6692 H   0  0  0  0  0  0  0  0  0  0  0  0
    1.4541   -3.9085   11.5704 H   0  0  0  0  0  0  0  0  0  0  0  0
    0.2613   -4.3612   10.3378 H   0  0  0  0  0  0  0  0  0  0  0  0
   -1.1712   -2.6198   11.1928 H   0  0  0  0  0  0  0  0  0  0  0  0
   -1.4536   -4.8571   11.9774 H   0  0  0  0  0  0  0  0  0  0  0  0
    0.4090   -3.9017   14.2253 H   0  0  0  0  0  0  0  0  0  0  0  0
    0.7580   -5.1942   13.0773 H   0  0  0  0  0  0  0  0  0  0  0  0
    0.0396   -6.1186   15.2135 H   0  0  0  0  0  0  0  0  0  0  0  0
   -1.0537   -6.5648   13.9046 H   0  0  0  0  0  0  0  0  0  0  0  0
   -1.4941   -4.3300   15.9557 H   0  0  0  0  0  0  0  0  0  0  0  0
   -2.8933   -6.8763   15.5222 H   0  0  0  0  0  0  0  0  0  0  0  0
   -3.2943   -5.7429   16.6207 H   0  0  0  0  0  0  0  0  0  0  0  0
   -3.7040   -4.0023   14.9001 H   0  0  0  0  0  0  0  0  0  0  0  0
   -3.3744   -5.2701   13.7211 H   0  0  0  0  0  0  0  0  0  0  0  0
   -1.9123   -2.6039   14.0006 H   0  0  0  0  0  0  0  0  0  0  0  0
   -3.0029   -3.0845   12.7028 H   0  0  0  0  0  0  0  0  0  0  0  0
    1.2224    0.2492    9.2158 H   0  0  0  0  0  0  0  0  0  0  0  0
    2.6603    2.6402    6.0967 H   0  0  0  0  0  0  0  0  0  0  0  0
    2.8396    1.7876    4.6328 H   0  0  0  0  0  0  0  0  0  0  0  0
    4.9220    1.0524    4.3126 H   0  0  0  0  0  0  0  0  0  0  0  0
    5.1046    2.3851    2.3032 H   0  0  0  0  0  0  0  0  0  0  0  0
    3.8288    1.3359   -1.0088 H   0  0  0  0  0  0  0  0  0  0  0  0
    4.6741    2.2925   -2.9099 H   0  0  0  0  0  0  0  0  0  0  0  0
    7.5963    2.5078   -3.2296 H   0  0  0  0  0  0  0  0  0  0  0  0
    9.5204    3.8192   -2.3622 H   0  0  0  0  0  0  0  0  0  0  0  0
    9.1715    5.9643   -1.1849 H   0  0  0  0  0  0  0  0  0  0  0  0
    6.8585    6.8645   -0.8173 H   0  0  0  0  0  0  0  0  0  0  0  0
    4.4012    7.1807   -1.9865 H   0  0  0  0  0  0  0  0  0  0  0  0
    3.6072    6.6485   -0.4734 H   0  0  0  0  0  0  0  0  0  0  0  0
    2.9206    6.2179   -2.0850 H   0  0  0  0  0  0  0  0  0  0  0  0
  1  2  1  0  0  0  0
  1 43  1  0  0  0  0
  1 44  1  0  0  0  0
  1 45  1  0  0  0  0
  2  3  1  0  0  0  0
  3  4  1  0  0  0  0
  3 29  2  0  0  0  0
  4  5  2  0  0  0  0
  4 46  1  0  0  0  0
  5  6  1  0  0  0  0
  5 27  1  0  0  0  0
  6  7  2  0  0  0  0
  6 26  1  0  0  0  0
  7  8  1  0  0  0  0
  7 47  1  0  0  0  0
  8  9  1  0  0  0  0
  9 10  1  0  0  0  0
  9 26  2  0  0  0  0
 10 11  1  0  0  0  0
 10 22  2  0  0  0  0
 11 12  2  0  0  0  0
 11 48  1  0  0  0  0
 12 13  1  0  0  0  0
 12 49  1  0  0  0  0
 13 14  1  0  0  0  0
 13 50  1  0  0  0  0
 13 51  1  0  0  0  0
 14 15  1  0  0  0  0
 14 52  1  0  0  0  0
 15 16  1  0  0  0  0
 15 21  1  0  0  0  0
 15 53  1  6  0  0  0
 16 17  1  0  0  0  0
 16 54  1  0  0  0  0
 16 55  1  0  0  0  0
 17 18  1  0  0  0  0
 17 56  1  0  0  0  0
 17 57  1  0  0  0  0
 18 20  1  0  0  0  0
 18 19  1  0  0  0  0
 18 58  1  1  0  0  0
 19 59  1  0  0  0  0
 19 60  1  0  0  0  0
 20 21  1  0  0  0  0
 20 61  1  0  0  0  0
 20 62  1  0  0  0  0
 21 63  1  0  0  0  0
 21 64  1  0  0  0  0
 22 23  1  0  0  0  0
 22 65  1  0  0  0  0
 23 24  2  0  0  0  0
 24 25  1  0  0  0  0
 24 26  1  0  0  0  0
 25 66  1  0  0  0  0
 25 67  1  0  0  0  0
 27 28  2  0  0  0  0
 27 68  1  0  0  0  0
 28 29  1  0  0  0  0
 28 69  1  0  0  0  0
 29 30  1  0  0  0  0
 30 31  1  0  0  0  0
 30 70  1  0  0  0  0
 31 32  2  0  0  0  0
 31 33  1  0  0  0  0
 33 34  2  0  0  0  0
 33 41  1  0  0  0  0
 34 35  1  0  0  0  0
 34 71  1  0  0  0  0
 35 36  1  0  0  0  0
 35 40  2  0  0  0  0
 36 37  2  0  0  0  0
 36 72  1  0  0  0  0
 37 38  1  0  0  0  0
 37 73  1  0  0  0  0
 38 39  2  0  0  0  0
 38 74  1  0  0  0  0
 39 40  1  0  0  0  0
 39 75  1  0  0  0  0
 40 41  1  0  0  0  0
 41 42  1  0  0  0  0
 42 76  1  0  0  0  0
 42 77  1  0  0  0  0
 42 78  1  0  0  0  0
M  END
$$$$
