CHEMBL3948670
 OpenBabel04072215373D

 70 74  0  0  0  0  0  0  0  0999 V2000
    3.0511   -0.0849    1.4638 C   0  0  0  0  0  0  0  0  0  0  0  0
    2.5689    1.2662    1.1554 N   0  0  0  0  0  0  0  0  0  0  0  0
    3.5381    1.9448    0.2814 C   0  0  0  0  0  0  0  0  0  0  0  0
    3.0324    3.2792   -0.2696 C   0  0  0  0  0  0  0  0  0  0  0  0
    1.6818    3.1207   -0.9903 C   0  0  0  0  0  0  0  0  0  0  0  0
    1.7250    2.3557   -2.3169 C   0  0  0  0  0  0  0  0  0  0  0  0
    0.6167    1.6203   -2.7509 C   0  0  0  0  0  0  0  0  0  0  0  0
    0.6111    0.9705   -3.9814 C   0  0  0  0  0  0  0  0  0  0  0  0
    1.6787    1.0828   -4.8689 C   0  0  0  0  0  0  0  0  0  0  0  0
    1.6301    0.5011   -6.1478 N   0  0  0  0  0  0  0  0  0  0  0  0
    0.4489    0.2675   -6.8596 C   0  0  0  0  0  0  0  0  0  0  0  0
    0.4007   -0.8034   -7.6480 N   0  0  0  0  0  0  0  0  0  0  0  0
   -0.7780   -1.0341   -8.2617 C   0  0  0  0  0  0  0  0  0  0  0  0
   -1.9216   -0.2607   -8.1217 C   0  0  0  0  0  0  0  0  0  0  0  0
   -3.1372   -0.6432   -8.8897 C   0  0  0  0  0  0  0  0  0  0  0  0
   -2.8974   -1.6144   -9.8191 F   0  0  0  0  0  0  0  0  0  0  0  0
   -4.1355   -1.1459   -8.1217 F   0  0  0  0  0  0  0  0  0  0  0  0
   -3.6728    0.3950   -9.5874 F   0  0  0  0  0  0  0  0  0  0  0  0
   -1.8004    0.8109   -7.2625 C   0  0  0  0  0  0  0  0  0  0  0  0
   -2.8697    1.8000   -6.8381 C   0  0  0  0  0  0  0  0  0  0  0  0
   -4.3287    1.3584   -6.6097 C   0  0  0  0  0  0  0  0  0  0  0  0
   -4.6117    0.1867   -5.6809 C   0  0  0  0  0  0  0  0  0  0  0  0
   -3.5935   -0.3348   -4.8577 C   0  0  0  0  0  0  0  0  0  0  0  0
   -3.8012   -1.4521   -4.0525 C   0  0  0  0  0  0  0  0  0  0  0  0
   -5.0426   -2.0612   -4.0345 C   0  0  0  0  0  0  0  0  0  0  0  0
   -6.0782   -1.5300   -4.8010 C   0  0  0  0  0  0  0  0  0  0  0  0
   -5.9102   -0.3939   -5.6292 C   0  0  0  0  0  0  0  0  0  0  0  0
   -7.1629    0.1781   -6.3245 C   0  0  0  0  0  0  0  0  0  0  0  0
   -7.8871    1.2469   -5.5473 C   0  0  0  0  0  0  0  0  0  0  0  0
   -8.8963    0.8098   -4.7387 N   0  0  0  0  0  0  0  0  0  0  0  0
   -7.5917    2.4310   -5.6459 O   0  0  0  0  0  0  0  0  0  0  0  0
   -8.0044   -0.8242   -7.1343 C   0  0  0  0  0  0  0  0  0  0  0  0
   -7.2816    0.2737   -7.8468 C   0  0  0  0  0  0  0  0  0  0  0  0
   -0.6078    1.0789   -6.6768 N   0  0  0  0  0  0  0  0  0  0  0  0
    2.8098    1.7694   -4.4382 C   0  0  0  0  0  0  0  0  0  0  0  0
    2.8263    2.4150   -3.1893 C   0  0  0  0  0  0  0  0  0  0  0  0
    0.7197    2.5367    0.0657 C   0  0  0  0  0  0  0  0  0  0  0  0
    1.2194    1.1833    0.5806 C   0  0  0  0  0  0  0  0  0  0  0  0
    4.0285   -0.0453    1.9546 H   0  0  0  0  0  0  0  0  0  0  0  0
    3.1482   -0.6990    0.5582 H   0  0  0  0  0  0  0  0  0  0  0  0
    2.3666   -0.5968    2.1482 H   0  0  0  0  0  0  0  0  0  0  0  0
    3.8348    1.2986   -0.5541 H   0  0  0  0  0  0  0  0  0  0  0  0
    4.4449    2.1484    0.8647 H   0  0  0  0  0  0  0  0  0  0  0  0
    3.7910    3.7309   -0.9157 H   0  0  0  0  0  0  0  0  0  0  0  0
    2.9048    3.9827    0.5659 H   0  0  0  0  0  0  0  0  0  0  0  0
    1.3198    4.1254   -1.2491 H   0  0  0  0  0  0  0  0  0  0  0  0
   -0.2858    1.5327   -2.1551 H   0  0  0  0  0  0  0  0  0  0  0  0
   -0.2769    0.4041   -4.2457 H   0  0  0  0  0  0  0  0  0  0  0  0
    2.2116   -0.3231   -6.2373 H   0  0  0  0  0  0  0  0  0  0  0  0
   -0.7700   -1.9165   -8.9004 H   0  0  0  0  0  0  0  0  0  0  0  0
   -2.8622    2.6214   -7.5674 H   0  0  0  0  0  0  0  0  0  0  0  0
   -2.5338    2.2547   -5.8939 H   0  0  0  0  0  0  0  0  0  0  0  0
   -4.7569    1.1500   -7.5914 H   0  0  0  0  0  0  0  0  0  0  0  0
   -4.8723    2.2265   -6.2151 H   0  0  0  0  0  0  0  0  0  0  0  0
   -2.6086    0.1209   -4.8205 H   0  0  0  0  0  0  0  0  0  0  0  0
   -2.9907   -1.8391   -3.4404 H   0  0  0  0  0  0  0  0  0  0  0  0
   -5.2162   -2.9331   -3.4102 H   0  0  0  0  0  0  0  0  0  0  0  0
   -7.0544   -2.0068   -4.7413 H   0  0  0  0  0  0  0  0  0  0  0  0
   -9.1156   -0.1678   -4.6280 H   0  0  0  0  0  0  0  0  0  0  0  0
   -9.3934    1.4972   -4.1893 H   0  0  0  0  0  0  0  0  0  0  0  0
   -9.0844   -0.7685   -7.0711 H   0  0  0  0  0  0  0  0  0  0  0  0
   -7.6281   -1.8294   -7.2949 H   0  0  0  0  0  0  0  0  0  0  0  0
   -7.8853    1.0783   -8.2520 H   0  0  0  0  0  0  0  0  0  0  0  0
   -6.4528   -0.0094   -8.4754 H   0  0  0  0  0  0  0  0  0  0  0  0
    3.6721    1.8626   -5.0953 H   0  0  0  0  0  0  0  0  0  0  0  0
    3.7128    2.9867   -2.9338 H   0  0  0  0  0  0  0  0  0  0  0  0
   -0.3029    2.4426   -0.3140 H   0  0  0  0  0  0  0  0  0  0  0  0
    0.6428    3.2359    0.9099 H   0  0  0  0  0  0  0  0  0  0  0  0
    1.1824    0.4417   -0.2261 H   0  0  0  0  0  0  0  0  0  0  0  0
    0.5234    0.8412    1.3552 H   0  0  0  0  0  0  0  0  0  0  0  0
  1  2  1  0  0  0  0
  1 39  1  0  0  0  0
  1 40  1  0  0  0  0
  1 41  1  0  0  0  0
  2  3  1  0  0  0  0
  2 38  1  0  0  0  0
  3  4  1  0  0  0  0
  3 42  1  0  0  0  0
  3 43  1  0  0  0  0
  4  5  1  0  0  0  0
  4 44  1  0  0  0  0
  4 45  1  0  0  0  0
  5  6  1  0  0  0  0
  5 37  1  0  0  0  0
  5 46  1  0  0  0  0
  6  7  1  0  0  0  0
  6 36  2  0  0  0  0
  7  8  2  0  0  0  0
  7 47  1  0  0  0  0
  8  9  1  0  0  0  0
  8 48  1  0  0  0  0
  9 10  1  0  0  0  0
  9 35  2  0  0  0  0
 10 11  1  0  0  0  0
 10 49  1  0  0  0  0
 11 12  1  0  0  0  0
 11 34  2  0  0  0  0
 12 13  2  0  0  0  0
 13 14  1  0  0  0  0
 13 50  1  0  0  0  0
 14 15  1  0  0  0  0
 14 19  2  0  0  0  0
 15 16  1  0  0  0  0
 15 17  1  0  0  0  0
 15 18  1  0  0  0  0
 19 20  1  0  0  0  0
 19 34  1  0  0  0  0
 20 21  1  0  0  0  0
 20 51  1  0  0  0  0
 20 52  1  0  0  0  0
 21 22  1  0  0  0  0
 21 53  1  0  0  0  0
 21 54  1  0  0  0  0
 22 23  1  0  0  0  0
 22 27  2  0  0  0  0
 23 24  2  0  0  0  0
 23 55  1  0  0  0  0
 24 25  1  0  0  0  0
 24 56  1  0  0  0  0
 25 26  2  0  0  0  0
 25 57  1  0  0  0  0
 26 27  1  0  0  0  0
 26 58  1  0  0  0  0
 27 28  1  0  0  0  0
 28 29  1  0  0  0  0
 28 32  1  0  0  0  0
 28 33  1  0  0  0  0
 29 30  1  0  0  0  0
 29 31  2  0  0  0  0
 30 59  1  0  0  0  0
 30 60  1  0  0  0  0
 32 33  1  0  0  0  0
 32 61  1  0  0  0  0
 32 62  1  0  0  0  0
 33 63  1  0  0  0  0
 33 64  1  0  0  0  0
 35 36  1  0  0  0  0
 35 65  1  0  0  0  0
 36 66  1  0  0  0  0
 37 38  1  0  0  0  0
 37 67  1  0  0  0  0
 37 68  1  0  0  0  0
 38 69  1  0  0  0  0
 38 70  1  0  0  0  0
M  END
$$$$
