CHEMBL3943043
 OpenBabel04072215373D

 72 75  0  0  1  0  0  0  0  0999 V2000
    1.1582    3.7472    2.8686 C   0  0  0  0  0  0  0  0  0  0  0  0
    2.4214    4.0119    2.3461 O   0  0  0  0  0  0  0  0  0  0  0  0
    3.1270    3.1599    1.5455 C   0  0  0  0  0  0  0  0  0  0  0  0
    2.5721    1.9149    1.1924 C   0  0  0  0  0  0  0  0  0  0  0  0
    3.2571    1.0391    0.3627 C   0  0  0  0  0  0  0  0  0  0  0  0
    2.7570   -0.1759    0.0086 O   0  0  0  0  0  0  0  0  0  0  0  0
    1.7088   -0.8360    0.6207 C   0  0  0  0  0  0  0  0  0  0  0  0
    4.4947    1.4157   -0.1397 C   0  0  0  0  0  0  0  0  0  0  0  0
    5.1253    2.6610    0.1713 C   0  0  0  0  0  0  0  0  0  0  0  0
    6.3956    2.9965   -0.4785 N   0  0  0  0  0  0  0  0  0  0  0  0
    6.8026    2.1405   -1.6640 C   0  0  0  0  0  0  0  0  0  0  0  0
    5.8928    2.2815   -2.9530 C   0  0  0  0  0  0  0  0  0  0  0  0
    6.3276    1.4050   -4.1013 N   0  0  0  0  0  0  0  0  0  0  0  0
    7.5852    1.8334   -4.7785 C   0  0  0  0  0  0  0  0  0  0  0  0
    7.3826    3.0695   -5.6851 C   0  0  0  0  0  0  0  0  0  0  0  0
    6.3096    2.7921   -6.7386 C   0  0  0  0  0  0  0  0  0  0  0  0
    5.0208    2.3507   -6.0529 C   0  0  0  0  0  0  0  0  0  0  0  0
    5.2982    1.1234   -5.1600 C   0  0  3  0  0  0  0  0  0  0  0  0
    3.9858    0.5639   -4.6155 C   0  0  0  0  0  0  0  0  0  0  0  0
    7.4014    4.0265   -0.1023 C   0  0  0  0  0  0  0  0  0  0  0  0
    8.0137    4.5807   -1.2284 C   0  0  0  0  0  0  0  0  0  0  0  0
    9.2108    5.1828   -1.1815 C   0  0  0  0  0  0  0  0  0  0  0  0
    9.8502    5.3868   -0.0036 C   0  0  0  0  0  0  0  0  0  0  0  0
   11.1189    5.7583   -0.1148 N   0  0  0  0  0  0  0  0  0  0  0  0
   11.8385    6.1199    0.9304 C   0  0  0  0  0  0  0  0  0  0  0  0
   11.2047    6.3488    2.1454 C   0  0  0  0  0  0  0  0  0  0  0  0
   11.9050    7.5084    2.8836 C   0  0  0  0  0  0  0  0  0  0  0  0
   12.9287    8.2714    2.2754 C   0  0  0  0  0  0  0  0  0  0  0  0
   13.2086    9.3627    2.9795 N   0  0  0  0  0  0  0  0  0  0  0  0
   12.4263    9.3548    4.0379 N   0  0  0  0  0  0  0  0  0  0  0  0
   12.4089   10.5050    4.9384 C   0  0  0  0  0  0  0  0  0  0  0  0
   11.6449    8.2324    4.0565 C   0  0  0  0  0  0  0  0  0  0  0  0
    9.9225    5.7835    2.3483 N   0  0  0  0  0  0  0  0  0  0  0  0
    9.2481    5.1891    1.2474 C   0  0  0  0  0  0  0  0  0  0  0  0
    7.9659    4.4375    1.2173 C   0  0  0  0  0  0  0  0  0  0  0  0
    4.4122    3.5266    1.0434 C   0  0  0  0  0  0  0  0  0  0  0  0
    1.4390   -0.3937   -2.7904 Cl  0  0  0  0  0  0  0  0  0  0  0  0
    0.8088    4.5971    3.4865 H   0  0  0  0  0  0  0  0  0  0  0  0
    1.1852    2.8388    3.5122 H   0  0  0  0  0  0  0  0  0  0  0  0
    0.4146    3.5864    2.0533 H   0  0  0  0  0  0  0  0  0  0  0  0
    1.5983    1.6262    1.5545 H   0  0  0  0  0  0  0  0  0  0  0  0
    1.4920   -1.7717    0.0657 H   0  0  0  0  0  0  0  0  0  0  0  0
    0.7830   -0.2234    0.6225 H   0  0  0  0  0  0  0  0  0  0  0  0
    1.9999   -1.0988    1.6591 H   0  0  0  0  0  0  0  0  0  0  0  0
    4.9421    0.6842   -0.7874 H   0  0  0  0  0  0  0  0  0  0  0  0
    6.8956    1.0830   -1.3577 H   0  0  0  0  0  0  0  0  0  0  0  0
    7.8433    2.3369   -1.9766 H   0  0  0  0  0  0  0  0  0  0  0  0
    5.8176    3.3359   -3.2785 H   0  0  0  0  0  0  0  0  0  0  0  0
    4.8864    1.9842   -2.6372 H   0  0  0  0  0  0  0  0  0  0  0  0
    7.9462    0.9983   -5.4285 H   0  0  0  0  0  0  0  0  0  0  0  0
    8.3990    2.0225   -4.0575 H   0  0  0  0  0  0  0  0  0  0  0  0
    8.3326    3.3263   -6.2031 H   0  0  0  0  0  0  0  0  0  0  0  0
    7.0812    3.9404   -5.0693 H   0  0  0  0  0  0  0  0  0  0  0  0
    6.6547    1.9841   -7.4241 H   0  0  0  0  0  0  0  0  0  0  0  0
    6.1219    3.6998   -7.3543 H   0  0  0  0  0  0  0  0  0  0  0  0
    4.2728    2.1000   -6.8388 H   0  0  0  0  0  0  0  0  0  0  0  0
    4.6134    3.1799   -5.4366 H   0  0  0  0  0  0  0  0  0  0  0  0
    5.7019    0.3116   -5.8168 H   0  0  0  0  0  0  0  0  0  0  0  0
    3.4254    1.3326   -4.0493 H   0  0  0  0  0  0  0  0  0  0  0  0
    4.1838   -0.3255   -3.9826 H   0  0  0  0  0  0  0  0  0  0  0  0
    3.3334    0.2531   -5.4612 H   0  0  0  0  0  0  0  0  0  0  0  0
    7.6134    4.4408   -2.2181 H   0  0  0  0  0  0  0  0  0  0  0  0
    9.6960    5.4626   -2.1066 H   0  0  0  0  0  0  0  0  0  0  0  0
   12.8406    6.3902    0.6862 H   0  0  0  0  0  0  0  0  0  0  0  0
   13.4248    8.1632    1.3241 H   0  0  0  0  0  0  0  0  0  0  0  0
   13.0550   11.3134    4.5016 H   0  0  0  0  0  0  0  0  0  0  0  0
   12.7983   10.2504    5.9363 H   0  0  0  0  0  0  0  0  0  0  0  0
   11.3840   10.9139    4.9786 H   0  0  0  0  0  0  0  0  0  0  0  0
   10.8942    8.0312    4.8106 H   0  0  0  0  0  0  0  0  0  0  0  0
    7.4978    4.1065    2.1486 H   0  0  0  0  0  0  0  0  0  0  0  0
    4.8224    4.4929    1.3034 H   0  0  0  0  0  0  0  0  0  0  0  0
    1.6807    0.8284   -2.2006 H   0  0  0  0  0  0  0  0  0  0  0  0
  1  2  1  0  0  0  0
  1 38  1  0  0  0  0
  1 39  1  0  0  0  0
  1 40  1  0  0  0  0
  2  3  1  0  0  0  0
  3  4  1  0  0  0  0
  3 36  2  0  0  0  0
  4  5  2  0  0  0  0
  4 41  1  0  0  0  0
  5  6  1  0  0  0  0
  5  8  1  0  0  0  0
  6  7  1  0  0  0  0
  7 42  1  0  0  0  0
  7 43  1  0  0  0  0
  7 44  1  0  0  0  0
  8  9  2  0  0  0  0
  8 45  1  0  0  0  0
  9 10  1  0  0  0  0
  9 36  1  0  0  0  0
 10 11  1  0  0  0  0
 10 20  1  0  0  0  0
 11 12  1  0  0  0  0
 11 46  1  0  0  0  0
 11 47  1  0  0  0  0
 12 13  1  0  0  0  0
 12 48  1  0  0  0  0
 12 49  1  0  0  0  0
 13 14  1  0  0  0  0
 13 18  1  0  0  0  0
 14 15  1  0  0  0  0
 14 50  1  0  0  0  0
 14 51  1  0  0  0  0
 15 16  1  0  0  0  0
 15 52  1  0  0  0  0
 15 53  1  0  0  0  0
 16 17  1  0  0  0  0
 16 54  1  0  0  0  0
 16 55  1  0  0  0  0
 17 18  1  0  0  0  0
 17 56  1  0  0  0  0
 17 57  1  0  0  0  0
 18 19  1  0  0  0  0
 18 58  1  0  0  0  0
 19 59  1  0  0  0  0
 19 60  1  0  0  0  0
 19 61  1  0  0  0  0
 20 21  1  0  0  0  0
 20 35  2  0  0  0  0
 21 22  2  0  0  0  0
 21 62  1  0  0  0  0
 22 23  1  0  0  0  0
 22 63  1  0  0  0  0
 23 24  1  0  0  0  0
 23 34  2  0  0  0  0
 24 25  2  0  0  0  0
 25 26  1  0  0  0  0
 25 64  1  0  0  0  0
 26 27  1  0  0  0  0
 26 33  2  0  0  0  0
 27 28  1  0  0  0  0
 27 32  2  0  0  0  0
 28 29  2  0  0  0  0
 28 65  1  0  0  0  0
 29 30  1  0  0  0  0
 30 31  1  0  0  0  0
 30 32  1  0  0  0  0
 31 66  1  0  0  0  0
 31 67  1  0  0  0  0
 31 68  1  0  0  0  0
 32 69  1  0  0  0  0
 33 34  1  0  0  0  0
 34 35  1  0  0  0  0
 35 70  1  0  0  0  0
 36 71  1  0  0  0  0
 37 72  1  0  0  0  0
M  END
$$$$
