CHEMBL1083023
 OpenBabel04072215353D

 54 58  0  0  0  0  0  0  0  0999 V2000
    1.7193   -1.7245   -1.4145 C   0  0  0  0  0  0  0  0  0  0  0  0
    0.7152   -0.7710   -0.9620 N   0  0  0  0  0  0  0  0  0  0  0  0
   -0.5633   -0.9627   -1.6845 C   0  0  0  0  0  0  0  0  0  0  0  0
   -1.6434    0.0539   -1.2385 C   0  0  0  0  0  0  0  0  0  0  0  0
   -1.8163   -0.0316    0.2152 N   0  0  0  0  0  0  0  0  0  0  0  0
   -3.0465    0.0190    0.8223 C   0  0  0  0  0  0  0  0  0  0  0  0
   -3.2526   -0.6218    2.0540 C   0  0  0  0  0  0  0  0  0  0  0  0
   -4.4817   -0.5886    2.7043 C   0  0  0  0  0  0  0  0  0  0  0  0
   -5.5636    0.0717    2.1258 C   0  0  0  0  0  0  0  0  0  0  0  0
   -6.8585    0.0970    2.7816 C   0  0  0  0  0  0  0  0  0  0  0  0
   -7.8593    1.0841    2.7524 C   0  0  0  0  0  0  0  0  0  0  0  0
   -8.9414    0.7660    3.4624 N   0  0  0  0  0  0  0  0  0  0  0  0
   -8.6448   -0.4585    3.9901 N   0  0  0  0  0  0  0  0  0  0  0  0
   -9.4714   -1.2341    4.8483 C   0  0  0  0  0  0  0  0  0  0  0  0
  -10.6597   -0.6289    5.2670 N   0  0  0  0  0  0  0  0  0  0  0  0
   -9.0514   -2.4626    5.2033 C   0  0  0  0  0  0  0  0  0  0  0  0
   -9.8419   -3.3536    6.0658 C   0  0  0  0  0  0  0  0  0  0  0  0
   -9.6714   -3.3138    7.4560 C   0  0  0  0  0  0  0  0  0  0  0  0
  -10.5446   -4.0140    8.2919 C   0  0  0  0  0  0  0  0  0  0  0  0
  -11.6079   -4.7359    7.7498 C   0  0  0  0  0  0  0  0  0  0  0  0
  -11.7645   -4.7853    6.3689 C   0  0  0  0  0  0  0  0  0  0  0  0
  -12.8231   -5.4245    5.7981 O   0  0  0  0  0  0  0  0  0  0  0  0
  -10.8722   -4.1298    5.5218 C   0  0  0  0  0  0  0  0  0  0  0  0
   -7.7021   -2.8497    4.7057 C   0  0  0  0  0  0  0  0  0  0  0  0
   -6.9193   -2.1460    3.9485 N   0  0  0  0  0  0  0  0  0  0  0  0
   -7.3904   -0.9161    3.5699 C   0  0  0  0  0  0  0  0  0  0  0  0
   -5.3796    0.7261    0.9046 C   0  0  0  0  0  0  0  0  0  0  0  0
   -4.1423    0.6793    0.2570 C   0  0  0  0  0  0  0  0  0  0  0  0
   -0.5834    0.0903    1.0063 C   0  0  0  0  0  0  0  0  0  0  0  0
    0.4663   -0.9160    0.4916 C   0  0  0  0  0  0  0  0  0  0  0  0
    1.9237   -1.5802   -2.4809 H   0  0  0  0  0  0  0  0  0  0  0  0
    1.4137   -2.7648   -1.2577 H   0  0  0  0  0  0  0  0  0  0  0  0
    2.6660   -1.5586   -0.8890 H   0  0  0  0  0  0  0  0  0  0  0  0
   -0.9450   -1.9823   -1.5177 H   0  0  0  0  0  0  0  0  0  0  0  0
   -0.4053   -0.8461   -2.7617 H   0  0  0  0  0  0  0  0  0  0  0  0
   -2.5707   -0.1788   -1.7725 H   0  0  0  0  0  0  0  0  0  0  0  0
   -1.3391    1.0708   -1.5199 H   0  0  0  0  0  0  0  0  0  0  0  0
   -2.4529   -1.1907    2.5153 H   0  0  0  0  0  0  0  0  0  0  0  0
   -4.5765   -1.0884    3.6626 H   0  0  0  0  0  0  0  0  0  0  0  0
   -7.8381    2.0392    2.2399 H   0  0  0  0  0  0  0  0  0  0  0  0
  -10.9639    0.1164    4.6394 H   0  0  0  0  0  0  0  0  0  0  0  0
  -11.3881   -1.2559    5.5975 H   0  0  0  0  0  0  0  0  0  0  0  0
   -8.8848   -2.7056    7.8975 H   0  0  0  0  0  0  0  0  0  0  0  0
  -10.4150   -3.9649    9.3706 H   0  0  0  0  0  0  0  0  0  0  0  0
  -12.3031   -5.2413    8.4130 H   0  0  0  0  0  0  0  0  0  0  0  0
  -13.4903   -5.5938    6.4859 H   0  0  0  0  0  0  0  0  0  0  0  0
  -11.0190   -4.1946    4.4478 H   0  0  0  0  0  0  0  0  0  0  0  0
   -7.3303   -3.8330    5.0535 H   0  0  0  0  0  0  0  0  0  0  0  0
   -6.1949    1.2672    0.4318 H   0  0  0  0  0  0  0  0  0  0  0  0
   -4.0390    1.1953   -0.6947 H   0  0  0  0  0  0  0  0  0  0  0  0
   -0.7440   -0.0983    2.0730 H   0  0  0  0  0  0  0  0  0  0  0  0
   -0.1986    1.1153    0.9382 H   0  0  0  0  0  0  0  0  0  0  0  0
    0.1142   -1.9327    0.7167 H   0  0  0  0  0  0  0  0  0  0  0  0
    1.3960   -0.7596    1.0506 H   0  0  0  0  0  0  0  0  0  0  0  0
  1  2  1  0  0  0  0
  1 31  1  0  0  0  0
  1 32  1  0  0  0  0
  1 33  1  0  0  0  0
  2  3  1  0  0  0  0
  2 30  1  0  0  0  0
  3  4  1  0  0  0  0
  3 34  1  0  0  0  0
  3 35  1  0  0  0  0
  4  5  1  0  0  0  0
  4 36  1  0  0  0  0
  4 37  1  0  0  0  0
  5  6  1  0  0  0  0
  5 29  1  0  0  0  0
  6  7  1  0  0  0  0
  6 28  2  0  0  0  0
  7  8  2  0  0  0  0
  7 38  1  0  0  0  0
  8  9  1  0  0  0  0
  8 39  1  0  0  0  0
  9 10  1  0  0  0  0
  9 27  2  0  0  0  0
 10 11  1  0  0  0  0
 10 26  2  0  0  0  0
 11 12  2  0  0  0  0
 11 40  1  0  0  0  0
 12 13  1  0  0  0  0
 13 14  1  0  0  0  0
 13 26  1  0  0  0  0
 14 15  1  0  0  0  0
 14 16  2  0  0  0  0
 15 41  1  0  0  0  0
 15 42  1  0  0  0  0
 16 17  1  0  0  0  0
 16 24  1  0  0  0  0
 17 18  1  0  0  0  0
 17 23  2  0  0  0  0
 18 19  2  0  0  0  0
 18 43  1  0  0  0  0
 19 20  1  0  0  0  0
 19 44  1  0  0  0  0
 20 21  2  0  0  0  0
 20 45  1  0  0  0  0
 21 22  1  0  0  0  0
 21 23  1  0  0  0  0
 22 46  1  0  0  0  0
 23 47  1  0  0  0  0
 24 25  2  0  0  0  0
 24 48  1  0  0  0  0
 25 26  1  0  0  0  0
 27 28  1  0  0  0  0
 27 49  1  0  0  0  0
 28 50  1  0  0  0  0
 29 30  1  0  0  0  0
 29 51  1  0  0  0  0
 29 52  1  0  0  0  0
 30 53  1  0  0  0  0
 30 54  1  0  0  0  0
M  END
$$$$
