CHEMBL383434
 OpenBabel04072215373D

 47 50  0  0  0  0  0  0  0  0999 V2000
    7.4731   -0.8045    9.2905 F   0  0  0  0  0  0  0  0  0  0  0  0
    8.2902   -1.6153    9.9952 C   0  0  0  0  0  0  0  0  0  0  0  0
    9.0329   -0.8673   10.8385 F   0  0  0  0  0  0  0  0  0  0  0  0
    7.5087   -2.4351   10.7345 F   0  0  0  0  0  0  0  0  0  0  0  0
    9.1428   -2.4176    9.1910 O   0  0  0  0  0  0  0  0  0  0  0  0
    9.3844   -2.0662    7.8999 C   0  0  0  0  0  0  0  0  0  0  0  0
    9.2651   -0.7969    7.3473 C   0  0  0  0  0  0  0  0  0  0  0  0
    9.4789   -0.5987    5.9746 C   0  0  0  0  0  0  0  0  0  0  0  0
    9.8403   -1.6520    5.1273 C   0  0  0  0  0  0  0  0  0  0  0  0
   10.0767   -1.5166    3.7469 N   0  0  0  0  0  0  0  0  0  0  0  0
   10.0695   -0.4097    2.9776 C   0  0  0  0  0  0  0  0  0  0  0  0
    9.9005   -0.3266    1.6767 N   0  0  0  0  0  0  0  0  0  0  0  0
   10.0091    1.0099    1.3459 N   0  0  0  0  0  0  0  0  0  0  0  0
   10.2587    1.6602    2.4612 C   0  0  0  0  0  0  0  0  0  0  0  0
   10.4646    3.0864    2.7379 C   0  0  0  0  0  0  0  0  0  0  0  0
   10.8376    3.4631    4.0440 C   0  0  0  0  0  0  0  0  0  0  0  0
   11.0344    4.7975    4.3499 C   0  0  0  0  0  0  0  0  0  0  0  0
   10.8820    5.7867    3.4579 N   0  0  0  0  0  0  0  0  0  0  0  0
   10.5196    5.4236    2.2103 C   0  0  0  0  0  0  0  0  0  0  0  0
   10.3077    4.1073    1.7771 C   0  0  0  0  0  0  0  0  0  0  0  0
    9.9056    3.9157    0.3262 C   0  0  0  0  0  0  0  0  0  0  0  0
   10.9968    4.3841   -0.6558 C   0  0  0  0  0  0  0  0  0  0  0  0
   10.7065    4.2735   -2.1366 C   0  0  0  0  0  0  0  0  0  0  0  0
    9.5281    3.7547   -2.6767 C   0  0  0  0  0  0  0  0  0  0  0  0
    9.3806    3.7163   -4.0572 C   0  0  0  0  0  0  0  0  0  0  0  0
   10.3146    4.1525   -4.9299 N   0  0  0  0  0  0  0  0  0  0  0  0
   11.4493    4.6464   -4.3941 C   0  0  0  0  0  0  0  0  0  0  0  0
   11.6879    4.7253   -3.0312 C   0  0  0  0  0  0  0  0  0  0  0  0
   10.3238    0.8100    3.5393 O   0  0  0  0  0  0  0  0  0  0  0  0
   10.0433   -2.9082    5.7179 C   0  0  0  0  0  0  0  0  0  0  0  0
    9.8144   -3.1126    7.0833 C   0  0  0  0  0  0  0  0  0  0  0  0
    8.9973    0.0703    7.9434 H   0  0  0  0  0  0  0  0  0  0  0  0
    9.3178    0.4028    5.5894 H   0  0  0  0  0  0  0  0  0  0  0  0
    9.9599   -2.3827    3.2324 H   0  0  0  0  0  0  0  0  0  0  0  0
   10.9795    2.7297    4.8329 H   0  0  0  0  0  0  0  0  0  0  0  0
   11.3265    5.1103    5.3485 H   0  0  0  0  0  0  0  0  0  0  0  0
   10.3953    6.2656    1.5318 H   0  0  0  0  0  0  0  0  0  0  0  0
    8.9804    4.4839    0.1596 H   0  0  0  0  0  0  0  0  0  0  0  0
    9.6478    2.8805    0.1043 H   0  0  0  0  0  0  0  0  0  0  0  0
   11.9172    3.8224   -0.4483 H   0  0  0  0  0  0  0  0  0  0  0  0
   11.2198    5.4420   -0.4625 H   0  0  0  0  0  0  0  0  0  0  0  0
    8.7200    3.3842   -2.0549 H   0  0  0  0  0  0  0  0  0  0  0  0
    8.4787    3.3167   -4.5136 H   0  0  0  0  0  0  0  0  0  0  0  0
   12.1890    4.9857   -5.1142 H   0  0  0  0  0  0  0  0  0  0  0  0
   12.6264    5.1362   -2.6747 H   0  0  0  0  0  0  0  0  0  0  0  0
   10.3755   -3.7527    5.1177 H   0  0  0  0  0  0  0  0  0  0  0  0
    9.9616   -4.1044    7.5061 H   0  0  0  0  0  0  0  0  0  0  0  0
  1  2  1  0  0  0  0
  2  3  1  0  0  0  0
  2  4  1  0  0  0  0
  2  5  1  0  0  0  0
  5  6  1  0  0  0  0
  6  7  1  0  0  0  0
  6 31  2  0  0  0  0
  7  8  2  0  0  0  0
  7 32  1  0  0  0  0
  8  9  1  0  0  0  0
  8 33  1  0  0  0  0
  9 10  1  0  0  0  0
  9 30  2  0  0  0  0
 10 11  1  0  0  0  0
 10 34  1  0  0  0  0
 11 12  2  0  0  0  0
 11 29  1  0  0  0  0
 12 13  1  0  0  0  0
 13 14  2  0  0  0  0
 14 15  1  0  0  0  0
 14 29  1  0  0  0  0
 15 16  1  0  0  0  0
 15 20  2  0  0  0  0
 16 17  2  0  0  0  0
 16 35  1  0  0  0  0
 17 18  1  0  0  0  0
 17 36  1  0  0  0  0
 18 19  2  0  0  0  0
 19 20  1  0  0  0  0
 19 37  1  0  0  0  0
 20 21  1  0  0  0  0
 21 22  1  0  0  0  0
 21 38  1  0  0  0  0
 21 39  1  0  0  0  0
 22 23  1  0  0  0  0
 22 40  1  0  0  0  0
 22 41  1  0  0  0  0
 23 24  1  0  0  0  0
 23 28  2  0  0  0  0
 24 25  2  0  0  0  0
 24 42  1  0  0  0  0
 25 26  1  0  0  0  0
 25 43  1  0  0  0  0
 26 27  2  0  0  0  0
 27 28  1  0  0  0  0
 27 44  1  0  0  0  0
 28 45  1  0  0  0  0
 30 31  1  0  0  0  0
 30 46  1  0  0  0  0
 31 47  1  0  0  0  0
M  END
$$$$
