CHEMBL3739633
 OpenBabel04072215373D

 61 65  0  0  0  0  0  0  0  0999 V2000
    0.9143   -0.7787   -4.8160 C   0  0  0  0  0  0  0  0  0  0  0  0
    0.1113   -1.3426   -3.7161 C   0  0  0  0  0  0  0  0  0  0  0  0
   -1.2011   -1.6989   -3.5526 C   0  0  0  0  0  0  0  0  0  0  0  0
   -1.2846   -2.1773   -2.2206 C   0  0  0  0  0  0  0  0  0  0  0  0
   -2.4384   -2.6735   -1.6322 N   0  0  0  0  0  0  0  0  0  0  0  0
   -2.4875   -3.1063   -0.3193 C   0  0  0  0  0  0  0  0  0  0  0  0
   -1.5846   -3.0180    0.5040 O   0  0  0  0  0  0  0  0  0  0  0  0
   -3.7828   -3.7263    0.1074 C   0  0  0  0  0  0  0  0  0  0  0  0
   -4.9831   -3.1281   -0.3112 C   0  0  0  0  0  0  0  0  0  0  0  0
   -6.2056   -3.6672    0.0768 C   0  0  0  0  0  0  0  0  0  0  0  0
   -6.2403   -4.7942    0.8974 C   0  0  0  0  0  0  0  0  0  0  0  0
   -5.0589   -5.4096    1.3409 C   0  0  0  0  0  0  0  0  0  0  0  0
   -5.1207   -6.5518    2.1650 C   0  0  0  0  0  0  0  0  0  0  0  0
   -3.9583   -7.1900    2.6053 C   0  0  0  0  0  0  0  0  0  0  0  0
   -4.1193   -8.3319    3.3580 O   0  0  0  0  0  0  0  0  0  0  0  0
   -3.1793   -8.6022    4.3507 C   0  0  0  0  0  0  0  0  0  0  0  0
   -2.9800   -9.9270    4.6545 C   0  0  0  0  0  0  0  0  0  0  0  0
   -2.0600  -10.1584    5.6409 C   0  0  0  0  0  0  0  0  0  0  0  0
   -1.3883   -9.1764    6.2612 N   0  0  0  0  0  0  0  0  0  0  0  0
   -1.6528   -7.9085    5.8995 C   0  0  0  0  0  0  0  0  0  0  0  0
   -0.9758   -6.8536    6.5086 N   0  0  0  0  0  0  0  0  0  0  0  0
    0.3057   -6.8733    7.0788 C   0  0  0  0  0  0  0  0  0  0  0  0
    1.3041   -7.7549    6.6528 C   0  0  0  0  0  0  0  0  0  0  0  0
    2.5456   -7.7862    7.2860 C   0  0  0  0  0  0  0  0  0  0  0  0
    2.8074   -6.9312    8.3548 C   0  0  0  0  0  0  0  0  0  0  0  0
    1.8438   -6.0057    8.7779 C   0  0  0  0  0  0  0  0  0  0  0  0
    2.0656   -5.1250    9.9793 C   0  0  0  0  0  0  0  0  0  0  0  0
    3.4105   -3.9670    9.7591 S   0  0  0  0  0  0  0  0  0  0  0  0
    2.9832   -3.0327    8.3101 C   0  0  0  0  0  0  0  0  0  0  0  0
    3.3578   -3.0447   10.8818 O   0  0  0  0  0  0  0  0  0  0  0  0
    4.6408   -4.6871    9.4842 O   0  0  0  0  0  0  0  0  0  0  0  0
    0.5979   -5.9865    8.1245 C   0  0  0  0  0  0  0  0  0  0  0  0
   -2.5618   -7.5845    4.9756 N   0  0  0  0  0  0  0  0  0  0  0  0
   -2.7220   -6.7085    2.1938 C   0  0  0  0  0  0  0  0  0  0  0  0
   -2.6472   -5.5645    1.3982 C   0  0  0  0  0  0  0  0  0  0  0  0
   -3.8028   -4.8828    0.9457 C   0  0  0  0  0  0  0  0  0  0  0  0
   -0.0880   -2.1050   -1.6284 N   0  0  0  0  0  0  0  0  0  0  0  0
    0.7847   -1.5865   -2.5654 O   0  0  0  0  0  0  0  0  0  0  0  0
    0.3065   -0.6245   -5.7115 H   0  0  0  0  0  0  0  0  0  0  0  0
    1.7391   -1.4503   -5.0703 H   0  0  0  0  0  0  0  0  0  0  0  0
    1.3385    0.1870   -4.5185 H   0  0  0  0  0  0  0  0  0  0  0  0
   -1.9868   -1.6226   -4.2880 H   0  0  0  0  0  0  0  0  0  0  0  0
   -3.2451   -2.7495   -2.2273 H   0  0  0  0  0  0  0  0  0  0  0  0
   -4.9820   -2.2244   -0.9129 H   0  0  0  0  0  0  0  0  0  0  0  0
   -7.1353   -3.2044   -0.2482 H   0  0  0  0  0  0  0  0  0  0  0  0
   -7.2109   -5.1908    1.1951 H   0  0  0  0  0  0  0  0  0  0  0  0
   -6.0831   -6.9554    2.4717 H   0  0  0  0  0  0  0  0  0  0  0  0
   -3.5006  -10.7297    4.1502 H   0  0  0  0  0  0  0  0  0  0  0  0
   -1.8189  -11.1649    5.9726 H   0  0  0  0  0  0  0  0  0  0  0  0
   -1.2309   -5.9878    6.0528 H   0  0  0  0  0  0  0  0  0  0  0  0
    1.1212   -8.4381    5.8284 H   0  0  0  0  0  0  0  0  0  0  0  0
    3.3002   -8.4970    6.9566 H   0  0  0  0  0  0  0  0  0  0  0  0
    3.7697   -7.0097    8.8568 H   0  0  0  0  0  0  0  0  0  0  0  0
    2.2855   -5.7311   10.8629 H   0  0  0  0  0  0  0  0  0  0  0  0
    1.1764   -4.5228   10.1974 H   0  0  0  0  0  0  0  0  0  0  0  0
    1.9880   -2.6012    8.4491 H   0  0  0  0  0  0  0  0  0  0  0  0
    3.0110   -3.6788    7.4322 H   0  0  0  0  0  0  0  0  0  0  0  0
    3.7169   -2.2303    8.2017 H   0  0  0  0  0  0  0  0  0  0  0  0
   -0.1889   -5.3204    8.4733 H   0  0  0  0  0  0  0  0  0  0  0  0
   -1.7977   -7.1964    2.4887 H   0  0  0  0  0  0  0  0  0  0  0  0
   -1.6498   -5.2173    1.1368 H   0  0  0  0  0  0  0  0  0  0  0  0
  1  2  1  0  0  0  0
  1 39  1  0  0  0  0
  1 40  1  0  0  0  0
  1 41  1  0  0  0  0
  2  3  2  0  0  0  0
  2 38  1  0  0  0  0
  3  4  1  0  0  0  0
  3 42  1  0  0  0  0
  4  5  1  0  0  0  0
  4 37  2  0  0  0  0
  5  6  1  0  0  0  0
  5 43  1  0  0  0  0
  6  7  2  0  0  0  0
  6  8  1  0  0  0  0
  8  9  1  0  0  0  0
  8 36  2  0  0  0  0
  9 10  2  0  0  0  0
  9 44  1  0  0  0  0
 10 11  1  0  0  0  0
 10 45  1  0  0  0  0
 11 12  2  0  0  0  0
 11 46  1  0  0  0  0
 12 13  1  0  0  0  0
 12 36  1  0  0  0  0
 13 14  2  0  0  0  0
 13 47  1  0  0  0  0
 14 15  1  0  0  0  0
 14 34  1  0  0  0  0
 15 16  1  0  0  0  0
 16 17  1  0  0  0  0
 16 33  2  0  0  0  0
 17 18  2  0  0  0  0
 17 48  1  0  0  0  0
 18 19  1  0  0  0  0
 18 49  1  0  0  0  0
 19 20  2  0  0  0  0
 20 21  1  0  0  0  0
 20 33  1  0  0  0  0
 21 22  1  0  0  0  0
 21 50  1  0  0  0  0
 22 23  1  0  0  0  0
 22 32  2  0  0  0  0
 23 24  2  0  0  0  0
 23 51  1  0  0  0  0
 24 25  1  0  0  0  0
 24 52  1  0  0  0  0
 25 26  2  0  0  0  0
 25 53  1  0  0  0  0
 26 27  1  0  0  0  0
 26 32  1  0  0  0  0
 27 28  1  0  0  0  0
 27 54  1  0  0  0  0
 27 55  1  0  0  0  0
 28 29  1  0  0  0  0
 28 30  2  0  0  0  0
 28 31  2  0  0  0  0
 29 56  1  0  0  0  0
 29 57  1  0  0  0  0
 29 58  1  0  0  0  0
 32 59  1  0  0  0  0
 34 35  2  0  0  0  0
 34 60  1  0  0  0  0
 35 36  1  0  0  0  0
 35 61  1  0  0  0  0
 37 38  1  0  0  0  0
M  END
$$$$
