CHEMBL3911516
 OpenBabel04072215373D

 56 60  0  0  0  0  0  0  0  0999 V2000
    0.8573    3.6737    2.5149 C   0  0  0  0  0  0  0  0  0  0  0  0
    2.1463    4.0582    2.0302 O   0  0  0  0  0  0  0  0  0  0  0  0
    2.9953    3.0468    1.6458 C   0  0  0  0  0  0  0  0  0  0  0  0
    2.6425    1.6967    1.6338 C   0  0  0  0  0  0  0  0  0  0  0  0
    3.5376    0.7512    1.1485 C   0  0  0  0  0  0  0  0  0  0  0  0
    3.2946   -0.5914    1.0302 O   0  0  0  0  0  0  0  0  0  0  0  0
    2.0056   -1.0522    1.4202 C   0  0  0  0  0  0  0  0  0  0  0  0
    4.8037    1.1610    0.7094 C   0  0  0  0  0  0  0  0  0  0  0  0
    5.2200    2.5045    0.7366 C   0  0  0  0  0  0  0  0  0  0  0  0
    6.4527    2.9224    0.1729 N   0  0  0  0  0  0  0  0  0  0  0  0
    6.9796    2.0850   -0.9733 C   0  0  0  0  0  0  0  0  0  0  0  0
    6.2884    2.0371   -2.3334 C   0  0  0  0  0  0  0  0  0  0  0  0
    5.0761    2.5150   -2.8029 C   0  0  0  0  0  0  0  0  0  0  0  0
    4.8892    2.2634   -4.2048 C   0  0  0  0  0  0  0  0  0  0  0  0
    5.9528    1.5974   -4.7665 C   0  0  0  0  0  0  0  0  0  0  0  0
    7.1586    1.2524   -3.6129 S   0  0  0  0  0  0  0  0  0  0  0  0
    7.5597    3.6451    0.7645 C   0  0  0  0  0  0  0  0  0  0  0  0
    8.2065    4.5169   -0.1133 C   0  0  0  0  0  0  0  0  0  0  0  0
    9.5504    4.7905    0.0381 C   0  0  0  0  0  0  0  0  0  0  0  0
   10.2546    4.3743    1.1382 C   0  0  0  0  0  0  0  0  0  0  0  0
   11.5740    4.5571    1.0354 N   0  0  0  0  0  0  0  0  0  0  0  0
   12.2975    4.3676    2.1425 C   0  0  0  0  0  0  0  0  0  0  0  0
   11.7109    4.0738    3.3546 C   0  0  0  0  0  0  0  0  0  0  0  0
   12.5437    4.3455    4.5283 C   0  0  0  0  0  0  0  0  0  0  0  0
   12.5633    5.5014    5.3565 C   0  0  0  0  0  0  0  0  0  0  0  0
   13.6404    5.5646    6.1508 N   0  0  0  0  0  0  0  0  0  0  0  0
   14.3304    4.4579    5.8307 N   0  0  0  0  0  0  0  0  0  0  0  0
   15.4606    4.0444    6.6313 C   0  0  0  0  0  0  0  0  0  0  0  0
   13.7939    3.7863    4.7640 C   0  0  0  0  0  0  0  0  0  0  0  0
   10.3720    3.7382    3.4288 N   0  0  0  0  0  0  0  0  0  0  0  0
    9.5988    3.8209    2.2606 C   0  0  0  0  0  0  0  0  0  0  0  0
    8.2242    3.4057    2.0015 C   0  0  0  0  0  0  0  0  0  0  0  0
    4.2792    3.4406    1.2076 C   0  0  0  0  0  0  0  0  0  0  0  0
    0.3068    4.5790    2.7874 H   0  0  0  0  0  0  0  0  0  0  0  0
    0.9436    3.0563    3.4166 H   0  0  0  0  0  0  0  0  0  0  0  0
    0.2724    3.1571    1.7439 H   0  0  0  0  0  0  0  0  0  0  0  0
    1.6645    1.3849    1.9710 H   0  0  0  0  0  0  0  0  0  0  0  0
    1.9499   -2.1222    1.1980 H   0  0  0  0  0  0  0  0  0  0  0  0
    1.2111   -0.5566    0.8518 H   0  0  0  0  0  0  0  0  0  0  0  0
    1.8587   -0.9243    2.4977 H   0  0  0  0  0  0  0  0  0  0  0  0
    5.4566    0.3812    0.3333 H   0  0  0  0  0  0  0  0  0  0  0  0
    7.1593    1.0624   -0.6249 H   0  0  0  0  0  0  0  0  0  0  0  0
    7.9914    2.4272   -1.2366 H   0  0  0  0  0  0  0  0  0  0  0  0
    4.3472    3.0275   -2.1912 H   0  0  0  0  0  0  0  0  0  0  0  0
    4.0186    2.5615   -4.7791 H   0  0  0  0  0  0  0  0  0  0  0  0
    6.0779    1.2917   -5.7980 H   0  0  0  0  0  0  0  0  0  0  0  0
    7.7104    4.8398   -1.0267 H   0  0  0  0  0  0  0  0  0  0  0  0
   10.0812    5.3072   -0.7567 H   0  0  0  0  0  0  0  0  0  0  0  0
   13.3624    4.5436    2.0364 H   0  0  0  0  0  0  0  0  0  0  0  0
   11.8656    6.3293    5.3775 H   0  0  0  0  0  0  0  0  0  0  0  0
   15.6076    4.7425    7.4603 H   0  0  0  0  0  0  0  0  0  0  0  0
   16.3583    4.0061    6.0091 H   0  0  0  0  0  0  0  0  0  0  0  0
   15.2311    3.0523    7.0295 H   0  0  0  0  0  0  0  0  0  0  0  0
   14.3383    2.9857    4.2842 H   0  0  0  0  0  0  0  0  0  0  0  0
    7.7259    2.7910    2.7674 H   0  0  0  0  0  0  0  0  0  0  0  0
    4.5112    4.5042    1.1709 H   0  0  0  0  0  0  0  0  0  0  0  0
  1  2  1  0  0  0  0
  1 34  1  0  0  0  0
  1 35  1  0  0  0  0
  1 36  1  0  0  0  0
  2  3  1  0  0  0  0
  3  4  1  0  0  0  0
  3 33  2  0  0  0  0
  4  5  2  0  0  0  0
  4 37  1  0  0  0  0
  5  6  1  0  0  0  0
  5  8  1  0  0  0  0
  6  7  1  0  0  0  0
  7 38  1  0  0  0  0
  7 39  1  0  0  0  0
  7 40  1  0  0  0  0
  8  9  2  0  0  0  0
  8 41  1  0  0  0  0
  9 10  1  0  0  0  0
  9 33  1  0  0  0  0
 10 11  1  0  0  0  0
 10 17  1  0  0  0  0
 11 12  1  0  0  0  0
 11 42  1  0  0  0  0
 11 43  1  0  0  0  0
 12 13  2  0  0  0  0
 12 16  1  0  0  0  0
 13 14  1  0  0  0  0
 13 44  1  0  0  0  0
 14 15  2  0  0  0  0
 14 45  1  0  0  0  0
 15 16  1  0  0  0  0
 15 46  1  0  0  0  0
 17 18  1  0  0  0  0
 17 32  2  0  0  0  0
 18 19  2  0  0  0  0
 18 47  1  0  0  0  0
 19 20  1  0  0  0  0
 19 48  1  0  0  0  0
 20 21  1  0  0  0  0
 20 31  2  0  0  0  0
 21 22  2  0  0  0  0
 22 23  1  0  0  0  0
 22 49  1  0  0  0  0
 23 24  1  0  0  0  0
 23 30  2  0  0  0  0
 24 25  1  0  0  0  0
 24 29  2  0  0  0  0
 25 26  2  0  0  0  0
 25 50  1  0  0  0  0
 26 27  1  0  0  0  0
 27 28  1  0  0  0  0
 27 29  1  0  0  0  0
 28 51  1  0  0  0  0
 28 52  1  0  0  0  0
 28 53  1  0  0  0  0
 29 54  1  0  0  0  0
 30 31  1  0  0  0  0
 31 32  1  0  0  0  0
 32 55  1  0  0  0  0
 33 56  1  0  0  0  0
M  END
$$$$
