CHEMBL3690403
 OpenBabel04072215373D

 74 78  0  0  1  0  0  0  0  0999 V2000
    9.9803    3.6837    1.1111 C   0  0  0  0  0  0  0  0  0  0  0  0
   10.3360    2.7655    2.2902 C   0  0  0  0  0  0  0  0  0  0  0  0
   11.1431    1.5319    1.8487 C   0  0  0  0  0  0  0  0  0  0  0  0
   11.2291    3.5736    3.2484 C   0  0  0  0  0  0  0  0  0  0  0  0
    9.1385    2.3876    3.0485 O   0  0  0  0  0  0  0  0  0  0  0  0
    8.2056    1.6068    2.3992 C   0  0  0  0  0  0  0  0  0  0  0  0
    8.3201    1.2490    1.2349 O   0  0  0  0  0  0  0  0  0  0  0  0
    7.1279    1.2363    3.1777 N   0  0  0  0  0  0  0  0  0  0  0  0
    6.1629    0.3127    2.6099 C   0  0  0  0  0  0  0  0  0  0  0  0
    4.7989    0.9827    2.5033 C   0  0  0  0  0  0  0  0  0  0  0  0
    4.3356    1.4615    3.8784 C   0  0  0  0  0  0  0  0  0  0  0  0
    5.3886    2.3590    4.5661 C   0  0  3  0  0  0  0  0  0  0  0  0
    4.9865    2.7027    5.9304 N   0  0  0  0  0  0  0  0  0  0  0  0
    4.6621    3.9471    6.4035 C   0  0  0  0  0  0  0  0  0  0  0  0
    4.2710    3.7891    7.7214 C   0  0  0  0  0  0  0  0  0  0  0  0
    3.7735    4.8111    8.6158 C   0  0  0  0  0  0  0  0  0  0  0  0
    3.5010    6.1564    8.0863 C   0  0  0  0  0  0  0  0  0  0  0  0
    2.8311    7.0586    8.8175 C   0  0  0  0  0  0  0  0  0  0  0  0
    2.5802    6.8048   10.1638 N   0  0  0  0  0  0  0  0  0  0  0  0
    2.1556    7.6602   11.1799 C   0  0  0  0  0  0  0  0  0  0  0  0
    1.9795    9.1187   11.0692 C   0  0  0  0  0  0  0  0  0  0  0  0
    2.8644    9.8652   10.2771 C   0  0  0  0  0  0  0  0  0  0  0  0
    2.7457   11.2431   10.1653 C   0  0  0  0  0  0  0  0  0  0  0  0
    1.7520   11.9096   10.8698 C   0  0  0  0  0  0  0  0  0  0  0  0
    0.8605   11.2127   11.6884 C   0  0  0  0  0  0  0  0  0  0  0  0
   -0.1663   11.8659   12.4185 N   0  0  0  0  0  0  0  0  0  0  0  0
   -0.4904   13.2053   12.3438 C   0  0  0  0  0  0  0  0  0  0  0  0
    0.0410   14.0579   11.6447 O   0  0  0  0  0  0  0  0  0  0  0  0
   -1.4899   13.5597   13.2180 N   0  0  0  0  0  0  0  0  0  0  0  0
   -1.9397   14.9623   13.2149 C   0  0  0  0  0  0  0  0  0  0  0  0
   -2.8679   15.3717   12.0603 C   0  0  0  0  0  0  0  0  0  0  0  0
   -3.2645   14.3091   11.3229 F   0  0  0  0  0  0  0  0  0  0  0  0
   -3.9951   15.9411   12.5596 F   0  0  0  0  0  0  0  0  0  0  0  0
   -2.3008   16.2739   11.2331 F   0  0  0  0  0  0  0  0  0  0  0  0
    0.9909    9.8126   11.7958 C   0  0  0  0  0  0  0  0  0  0  0  0
    2.1435    6.8487   12.3038 C   0  0  0  0  0  0  0  0  0  0  0  0
    2.5677    5.5719   12.0275 N   0  0  0  0  0  0  0  0  0  0  0  0
    2.8786    5.5784   10.7489 C   0  0  0  0  0  0  0  0  0  0  0  0
    3.4568    4.5673    9.9149 C   0  0  0  0  0  0  0  0  0  0  0  0
    4.4036    2.3974    7.9384 C   0  0  0  0  0  0  0  0  0  0  0  0
    4.8422    1.7395    6.8600 N   0  0  0  0  0  0  0  0  0  0  0  0
    6.8064    1.7361    4.5242 C   0  0  0  0  0  0  0  0  0  0  0  0
   10.8792    4.0187    0.5850 H   0  0  0  0  0  0  0  0  0  0  0  0
    9.4383    4.5692    1.4648 H   0  0  0  0  0  0  0  0  0  0  0  0
    9.3324    3.1991    0.3762 H   0  0  0  0  0  0  0  0  0  0  0  0
   12.0732    1.8214    1.3502 H   0  0  0  0  0  0  0  0  0  0  0  0
   10.5971    0.8901    1.1518 H   0  0  0  0  0  0  0  0  0  0  0  0
   11.3923    0.9035    2.7128 H   0  0  0  0  0  0  0  0  0  0  0  0
   12.1439    3.9104    2.7436 H   0  0  0  0  0  0  0  0  0  0  0  0
   11.5230    2.9764    4.1184 H   0  0  0  0  0  0  0  0  0  0  0  0
   10.7063    4.4563    3.6303 H   0  0  0  0  0  0  0  0  0  0  0  0
    6.1128   -0.5664    3.2679 H   0  0  0  0  0  0  0  0  0  0  0  0
    6.4723   -0.0463    1.6230 H   0  0  0  0  0  0  0  0  0  0  0  0
    4.0708    0.2800    2.0817 H   0  0  0  0  0  0  0  0  0  0  0  0
    4.8621    1.8366    1.8169 H   0  0  0  0  0  0  0  0  0  0  0  0
    4.1170    0.5820    4.4972 H   0  0  0  0  0  0  0  0  0  0  0  0
    3.3902    2.0072    3.7700 H   0  0  0  0  0  0  0  0  0  0  0  0
    5.4263    3.3037    4.0082 H   0  0  0  0  0  0  0  0  0  0  0  0
    4.7149    4.8112    5.7571 H   0  0  0  0  0  0  0  0  0  0  0  0
    3.8473    6.4277    7.0960 H   0  0  0  0  0  0  0  0  0  0  0  0
    2.5392    8.0176    8.4136 H   0  0  0  0  0  0  0  0  0  0  0  0
    3.6857    9.3917    9.7465 H   0  0  0  0  0  0  0  0  0  0  0  0
    3.4362   11.8047    9.5422 H   0  0  0  0  0  0  0  0  0  0  0  0
    1.7233   12.9883   10.7680 H   0  0  0  0  0  0  0  0  0  0  0  0
   -0.7097   11.2999   13.0462 H   0  0  0  0  0  0  0  0  0  0  0  0
   -2.1870   12.8575   13.4153 H   0  0  0  0  0  0  0  0  0  0  0  0
   -1.0551   15.6110   13.2056 H   0  0  0  0  0  0  0  0  0  0  0  0
   -2.4459   15.1264   14.1710 H   0  0  0  0  0  0  0  0  0  0  0  0
    0.3178    9.2545   12.4430 H   0  0  0  0  0  0  0  0  0  0  0  0
    1.9189    7.1447   13.3213 H   0  0  0  0  0  0  0  0  0  0  0  0
    3.6088    3.5980   10.3775 H   0  0  0  0  0  0  0  0  0  0  0  0
    4.1804    1.8266    8.8305 H   0  0  0  0  0  0  0  0  0  0  0  0
    6.8723    0.8746    5.2004 H   0  0  0  0  0  0  0  0  0  0  0  0
    7.5504    2.4675    4.8568 H   0  0  0  0  0  0  0  0  0  0  0  0
  1  2  1  0  0  0  0
  1 43  1  0  0  0  0
  1 44  1  0  0  0  0
  1 45  1  0  0  0  0
  2  3  1  0  0  0  0
  2  4  1  0  0  0  0
  2  5  1  0  0  0  0
  3 46  1  0  0  0  0
  3 47  1  0  0  0  0
  3 48  1  0  0  0  0
  4 49  1  0  0  0  0
  4 50  1  0  0  0  0
  4 51  1  0  0  0  0
  5  6  1  0  0  0  0
  6  7  2  0  0  0  0
  6  8  1  0  0  0  0
  8  9  1  0  0  0  0
  8 42  1  0  0  0  0
  9 10  1  0  0  0  0
  9 52  1  0  0  0  0
  9 53  1  0  0  0  0
 10 11  1  0  0  0  0
 10 54  1  0  0  0  0
 10 55  1  0  0  0  0
 11 12  1  0  0  0  0
 11 56  1  0  0  0  0
 11 57  1  0  0  0  0
 12 13  1  0  0  0  0
 12 42  1  0  0  0  0
 12 58  1  0  0  0  0
 13 14  1  0  0  0  0
 13 41  1  0  0  0  0
 14 15  2  0  0  0  0
 14 59  1  0  0  0  0
 15 16  1  0  0  0  0
 15 40  1  0  0  0  0
 16 17  1  0  0  0  0
 16 39  2  0  0  0  0
 17 18  2  0  0  0  0
 17 60  1  0  0  0  0
 18 19  1  0  0  0  0
 18 61  1  0  0  0  0
 19 20  1  0  0  0  0
 19 38  1  0  0  0  0
 20 21  1  0  0  0  0
 20 36  2  0  0  0  0
 21 22  1  0  0  0  0
 21 35  2  0  0  0  0
 22 23  2  0  0  0  0
 22 62  1  0  0  0  0
 23 24  1  0  0  0  0
 23 63  1  0  0  0  0
 24 25  2  0  0  0  0
 24 64  1  0  0  0  0
 25 26  1  0  0  0  0
 25 35  1  0  0  0  0
 26 27  1  0  0  0  0
 26 65  1  0  0  0  0
 27 28  2  0  0  0  0
 27 29  1  0  0  0  0
 29 30  1  0  0  0  0
 29 66  1  0  0  0  0
 30 31  1  0  0  0  0
 30 67  1  0  0  0  0
 30 68  1  0  0  0  0
 31 32  1  0  0  0  0
 31 33  1  0  0  0  0
 31 34  1  0  0  0  0
 35 69  1  0  0  0  0
 36 37  1  0  0  0  0
 36 70  1  0  0  0  0
 37 38  2  0  0  0  0
 38 39  1  0  0  0  0
 39 71  1  0  0  0  0
 40 41  2  0  0  0  0
 40 72  1  0  0  0  0
 42 73  1  0  0  0  0
 42 74  1  0  0  0  0
M  END
$$$$
