CHEMBL194929
 OpenBabel04072215363D

 51 54  0  0  0  0  0  0  0  0999 V2000
   -1.9910   -3.4010    8.1426 C   0  0  0  0  0  0  0  0  0  0  0  0
   -2.3035   -3.1817    6.7685 O   0  0  0  0  0  0  0  0  0  0  0  0
   -1.0989   -2.8911    6.0881 N   0  0  0  0  0  0  0  0  0  0  0  0
   -0.4805   -3.9665    5.4916 C   0  0  0  0  0  0  0  0  0  0  0  0
   -0.7984   -5.1406    5.6554 O   0  0  0  0  0  0  0  0  0  0  0  0
    0.6938   -3.6509    4.6433 C   0  0  0  0  0  0  0  0  0  0  0  0
    1.6964   -4.6242    4.5198 C   0  0  0  0  0  0  0  0  0  0  0  0
    2.8361   -4.3970    3.7370 C   0  0  0  0  0  0  0  0  0  0  0  0
    3.8874   -5.3322    3.6403 N   0  0  0  0  0  0  0  0  0  0  0  0
    4.1467   -6.3585    4.5193 C   0  0  0  0  0  0  0  0  0  0  0  0
    3.9445   -6.1373    5.7921 N   0  0  0  0  0  0  0  0  0  0  0  0
    4.1957   -7.1107    6.7129 C   0  0  0  0  0  0  0  0  0  0  0  0
    4.6086   -8.3075    6.4691 N   0  0  0  0  0  0  0  0  0  0  0  0
    4.8078   -8.5571    5.1684 N   0  0  0  0  0  0  0  0  0  0  0  0
    5.2019   -9.7649    4.6935 C   0  0  0  0  0  0  0  0  0  0  0  0
    5.3533   -9.6630    3.3323 C   0  0  0  0  0  0  0  0  0  0  0  0
    5.8030  -10.7647    2.4777 C   0  0  0  0  0  0  0  0  0  0  0  0
    5.5683  -12.0564    2.7493 N   0  0  0  0  0  0  0  0  0  0  0  0
    6.2295  -12.7253    1.7199 O   0  0  0  0  0  0  0  0  0  0  0  0
    6.8109  -11.7632    0.9487 C   0  0  0  0  0  0  0  0  0  0  0  0
    7.6024  -12.2217   -0.2052 C   0  0  0  0  0  0  0  0  0  0  0  0
    6.5806  -10.5407    1.3703 N   0  0  0  0  0  0  0  0  0  0  0  0
    4.9770   -8.3215    2.9403 C   0  0  0  0  0  0  0  0  0  0  0  0
    4.9466   -7.8403    1.4997 C   0  0  0  0  0  0  0  0  0  0  0  0
    3.5538   -7.4442    1.0103 C   0  0  0  0  0  0  0  0  0  0  0  0
    6.0163   -6.7957    1.1824 C   0  0  0  0  0  0  0  0  0  0  0  0
    4.6415   -7.6650    4.1369 C   0  0  0  0  0  0  0  0  0  0  0  0
    2.9455   -3.1568    3.0896 C   0  0  0  0  0  0  0  0  0  0  0  0
    4.0289   -2.8981    2.3414 F   0  0  0  0  0  0  0  0  0  0  0  0
    1.9633   -2.1768    3.2053 C   0  0  0  0  0  0  0  0  0  0  0  0
    0.8412   -2.4317    3.9848 C   0  0  0  0  0  0  0  0  0  0  0  0
   -0.0970   -1.4783    4.0877 F   0  0  0  0  0  0  0  0  0  0  0  0
   -2.9227   -3.5775    8.6851 H   0  0  0  0  0  0  0  0  0  0  0  0
   -1.4975   -2.5199    8.5657 H   0  0  0  0  0  0  0  0  0  0  0  0
   -1.3488   -4.2811    8.2562 H   0  0  0  0  0  0  0  0  0  0  0  0
   -1.0410   -1.9614    5.6836 H   0  0  0  0  0  0  0  0  0  0  0  0
    1.5696   -5.5730    5.0400 H   0  0  0  0  0  0  0  0  0  0  0  0
    4.3494   -5.3290    2.7457 H   0  0  0  0  0  0  0  0  0  0  0  0
    4.0191   -6.8282    7.7659 H   0  0  0  0  0  0  0  0  0  0  0  0
    5.3570  -10.5958    5.3681 H   0  0  0  0  0  0  0  0  0  0  0  0
    7.5576  -13.3094   -0.3159 H   0  0  0  0  0  0  0  0  0  0  0  0
    8.6501  -11.9337   -0.0810 H   0  0  0  0  0  0  0  0  0  0  0  0
    7.2268  -11.7681   -1.1268 H   0  0  0  0  0  0  0  0  0  0  0  0
    5.2030   -8.6906    0.8599 H   0  0  0  0  0  0  0  0  0  0  0  0
    3.0951   -6.6515    1.6002 H   0  0  0  0  0  0  0  0  0  0  0  0
    2.8782   -8.3065    1.0498 H   0  0  0  0  0  0  0  0  0  0  0  0
    3.5931   -7.1041   -0.0303 H   0  0  0  0  0  0  0  0  0  0  0  0
    5.8142   -5.8197    1.6235 H   0  0  0  0  0  0  0  0  0  0  0  0
    6.0909   -6.6492    0.0986 H   0  0  0  0  0  0  0  0  0  0  0  0
    6.9998   -7.1202    1.5400 H   0  0  0  0  0  0  0  0  0  0  0  0
    2.0754   -1.2253    2.6979 H   0  0  0  0  0  0  0  0  0  0  0  0
  1  2  1  0  0  0  0
  1 33  1  0  0  0  0
  1 34  1  0  0  0  0
  1 35  1  0  0  0  0
  2  3  1  0  0  0  0
  3  4  1  0  0  0  0
  3 36  1  0  0  0  0
  4  5  2  0  0  0  0
  4  6  1  0  0  0  0
  6  7  1  0  0  0  0
  6 31  2  0  0  0  0
  7  8  2  0  0  0  0
  7 37  1  0  0  0  0
  8  9  1  0  0  0  0
  8 28  1  0  0  0  0
  9 10  1  0  0  0  0
  9 38  1  0  0  0  0
 10 11  2  0  0  0  0
 10 27  1  0  0  0  0
 11 12  1  0  0  0  0
 12 13  2  0  0  0  0
 12 39  1  0  0  0  0
 13 14  1  0  0  0  0
 14 15  1  0  0  0  0
 14 27  1  0  0  0  0
 15 16  2  0  0  0  0
 15 40  1  0  0  0  0
 16 17  1  0  0  0  0
 16 23  1  0  0  0  0
 17 18  2  0  0  0  0
 17 22  1  0  0  0  0
 18 19  1  0  0  0  0
 19 20  1  0  0  0  0
 20 21  1  0  0  0  0
 20 22  2  0  0  0  0
 21 41  1  0  0  0  0
 21 42  1  0  0  0  0
 21 43  1  0  0  0  0
 23 24  1  0  0  0  0
 23 27  2  0  0  0  0
 24 25  1  0  0  0  0
 24 26  1  0  0  0  0
 24 44  1  0  0  0  0
 25 45  1  0  0  0  0
 25 46  1  0  0  0  0
 25 47  1  0  0  0  0
 26 48  1  0  0  0  0
 26 49  1  0  0  0  0
 26 50  1  0  0  0  0
 28 29  1  0  0  0  0
 28 30  2  0  0  0  0
 30 31  1  0  0  0  0
 30 51  1  0  0  0  0
 31 32  1  0  0  0  0
M  END
$$$$
