CHEMBL3093586
 OpenBabel04072215363D

 60 65  0  0  0  0  0  0  0  0999 V2000
    2.2054   -1.6563   -0.2068 C   0  0  0  0  0  0  0  0  0  0  0  0
    3.0952   -0.5018    0.0309 C   0  0  0  0  0  0  0  0  0  0  0  0
    4.4047   -0.3489   -0.3899 C   0  0  0  0  0  0  0  0  0  0  0  0
    4.7660    0.9959   -0.1268 C   0  0  0  0  0  0  0  0  0  0  0  0
    6.0880    1.5670   -0.3953 C   0  0  0  0  0  0  0  0  0  0  0  0
    6.9534    0.9221   -0.9869 O   0  0  0  0  0  0  0  0  0  0  0  0
    6.2743    2.8575    0.0588 N   0  0  0  0  0  0  0  0  0  0  0  0
    7.4843    3.6092    0.0236 C   0  0  0  0  0  0  0  0  0  0  0  0
    8.5823    3.2301   -0.7580 C   0  0  0  0  0  0  0  0  0  0  0  0
    9.8063    3.9054   -0.6914 C   0  0  0  0  0  0  0  0  0  0  0  0
    9.9526    4.9959    0.1508 C   0  0  0  0  0  0  0  0  0  0  0  0
   11.1979    5.6512    0.3711 O   0  0  0  0  0  0  0  0  0  0  0  0
   12.3799    5.4456   -0.3378 C   0  0  0  0  0  0  0  0  0  0  0  0
   13.4770    6.1390    0.3652 C   0  0  0  0  0  0  0  0  0  0  0  0
   14.5844    6.3583   -0.3619 C   0  0  0  0  0  0  0  0  0  0  0  0
   14.8549    5.4242   -1.3898 C   0  0  0  0  0  0  0  0  0  0  0  0
   15.9763    4.9154   -1.8634 N   0  0  0  0  0  0  0  0  0  0  0  0
   15.5853    3.9418   -2.7422 C   0  0  0  0  0  0  0  0  0  0  0  0
   16.4119    3.0266   -3.3501 N   0  0  0  0  0  0  0  0  0  0  0  0
   17.7314    2.8413   -3.0235 C   0  0  0  0  0  0  0  0  0  0  0  0
   18.4148    3.5004   -2.2534 O   0  0  0  0  0  0  0  0  0  0  0  0
   18.3236    1.6327   -3.6915 C   0  0  0  0  0  0  0  0  0  0  0  0
   18.9407    0.5440   -2.8383 C   0  0  0  0  0  0  0  0  0  0  0  0
   19.8217    1.4251   -3.6751 C   0  0  0  0  0  0  0  0  0  0  0  0
   14.2198    3.9300   -2.8820 C   0  0  0  0  0  0  0  0  0  0  0  0
   13.7715    4.7485   -1.8961 N   0  0  0  0  0  0  0  0  0  0  0  0
   12.4825    4.7994   -1.4530 N   0  0  0  0  0  0  0  0  0  0  0  0
    8.8601    5.4448    0.8912 C   0  0  0  0  0  0  0  0  0  0  0  0
    7.6268    4.7597    0.8189 C   0  0  0  0  0  0  0  0  0  0  0  0
    3.7312    1.6612    0.4315 N   0  0  0  0  0  0  0  0  0  0  0  0
    2.7516    0.7123    0.6002 N   0  0  0  0  0  0  0  0  0  0  0  0
    1.5638    1.0222    1.3160 C   0  0  0  0  0  0  0  0  0  0  0  0
    1.0620    2.3267    1.2841 C   0  0  0  0  0  0  0  0  0  0  0  0
   -0.1115    2.6430    1.9765 C   0  0  0  0  0  0  0  0  0  0  0  0
   -0.7707    1.6694    2.7266 C   0  0  0  0  0  0  0  0  0  0  0  0
   -0.2622    0.3749    2.7834 C   0  0  0  0  0  0  0  0  0  0  0  0
    0.9005    0.0482    2.0789 C   0  0  0  0  0  0  0  0  0  0  0  0
    2.6304   -2.3507   -0.9471 H   0  0  0  0  0  0  0  0  0  0  0  0
    1.2312   -1.3401   -0.5936 H   0  0  0  0  0  0  0  0  0  0  0  0
    2.0562   -2.2351    0.7063 H   0  0  0  0  0  0  0  0  0  0  0  0
    5.0021   -1.0741   -0.8889 H   0  0  0  0  0  0  0  0  0  0  0  0
    5.4955    3.2437    0.6028 H   0  0  0  0  0  0  0  0  0  0  0  0
    8.5309    2.3906   -1.4428 H   0  0  0  0  0  0  0  0  0  0  0  0
   10.6182    3.5248   -1.2967 H   0  0  0  0  0  0  0  0  0  0  0  0
   13.5537    5.9751    1.4340 H   0  0  0  0  0  0  0  0  0  0  0  0
   15.3179    7.1175   -0.1213 H   0  0  0  0  0  0  0  0  0  0  0  0
   15.9581    2.3560   -3.9475 H   0  0  0  0  0  0  0  0  0  0  0  0
   17.8127    1.3030   -4.5902 H   0  0  0  0  0  0  0  0  0  0  0  0
   18.8380   -0.4905   -3.1468 H   0  0  0  0  0  0  0  0  0  0  0  0
   18.9840    0.6785   -1.7610 H   0  0  0  0  0  0  0  0  0  0  0  0
   20.2880    1.0033   -4.5591 H   0  0  0  0  0  0  0  0  0  0  0  0
   20.4366    2.1595   -3.1634 H   0  0  0  0  0  0  0  0  0  0  0  0
   13.5336    3.3407   -3.4688 H   0  0  0  0  0  0  0  0  0  0  0  0
    8.9618    6.3052    1.5516 H   0  0  0  0  0  0  0  0  0  0  0  0
    6.8018    5.1170    1.4277 H   0  0  0  0  0  0  0  0  0  0  0  0
    1.5533    3.0971    0.6937 H   0  0  0  0  0  0  0  0  0  0  0  0
   -0.5127    3.6519    1.9298 H   0  0  0  0  0  0  0  0  0  0  0  0
   -1.6757    1.9216    3.2742 H   0  0  0  0  0  0  0  0  0  0  0  0
   -0.7616   -0.3791    3.3883 H   0  0  0  0  0  0  0  0  0  0  0  0
    1.2938   -0.9550    2.1998 H   0  0  0  0  0  0  0  0  0  0  0  0
  1  2  1  0  0  0  0
  1 38  1  0  0  0  0
  1 39  1  0  0  0  0
  1 40  1  0  0  0  0
  2  3  2  0  0  0  0
  2 31  1  0  0  0  0
  3  4  1  0  0  0  0
  3 41  1  0  0  0  0
  4  5  1  0  0  0  0
  4 30  2  0  0  0  0
  5  6  2  0  0  0  0
  5  7  1  0  0  0  0
  7  8  1  0  0  0  0
  7 42  1  0  0  0  0
  8  9  1  0  0  0  0
  8 29  2  0  0  0  0
  9 10  2  0  0  0  0
  9 43  1  0  0  0  0
 10 11  1  0  0  0  0
 10 44  1  0  0  0  0
 11 12  1  0  0  0  0
 11 28  2  0  0  0  0
 12 13  1  0  0  0  0
 13 14  1  0  0  0  0
 13 27  2  0  0  0  0
 14 15  2  0  0  0  0
 14 45  1  0  0  0  0
 15 16  1  0  0  0  0
 15 46  1  0  0  0  0
 16 17  2  0  0  0  0
 16 26  1  0  0  0  0
 17 18  1  0  0  0  0
 18 19  1  0  0  0  0
 18 25  2  0  0  0  0
 19 20  1  0  0  0  0
 19 47  1  0  0  0  0
 20 21  2  0  0  0  0
 20 22  1  0  0  0  0
 22 23  1  0  0  0  0
 22 24  1  0  0  0  0
 22 48  1  0  0  0  0
 23 24  1  0  0  0  0
 23 49  1  0  0  0  0
 23 50  1  0  0  0  0
 24 51  1  0  0  0  0
 24 52  1  0  0  0  0
 25 26  1  0  0  0  0
 25 53  1  0  0  0  0
 26 27  1  0  0  0  0
 28 29  1  0  0  0  0
 28 54  1  0  0  0  0
 29 55  1  0  0  0  0
 30 31  1  0  0  0  0
 31 32  1  0  0  0  0
 32 33  1  0  0  0  0
 32 37  2  0  0  0  0
 33 34  2  0  0  0  0
 33 56  1  0  0  0  0
 34 35  1  0  0  0  0
 34 57  1  0  0  0  0
 35 36  2  0  0  0  0
 35 58  1  0  0  0  0
 36 37  1  0  0  0  0
 36 59  1  0  0  0  0
 37 60  1  0  0  0  0
M  END
$$$$
