CHEMBL4160854
 OpenBabel04072215383D

 47 50  0  0  0  0  0  0  0  0999 V2000
   -1.4566    2.0667   -3.0893 N   0  0  0  0  0  0  0  0  0  0  0  0
   -1.7087    0.9769   -2.3559 C   0  0  0  0  0  0  0  0  0  0  0  0
   -2.2360   -0.1028   -2.9364 N   0  0  0  0  0  0  0  0  0  0  0  0
   -2.3605   -0.9765   -1.9311 N   0  0  0  0  0  0  0  0  0  0  0  0
   -1.9227   -0.5177   -0.7245 C   0  0  0  0  0  0  0  0  0  0  0  0
   -1.9030   -1.1455    0.5267 C   0  0  0  0  0  0  0  0  0  0  0  0
   -1.3763   -0.4308    1.5968 C   0  0  0  0  0  0  0  0  0  0  0  0
   -0.9030    0.8664    1.4160 C   0  0  0  0  0  0  0  0  0  0  0  0
   -0.9440    1.5243    0.1583 C   0  0  0  0  0  0  0  0  0  0  0  0
   -0.5024    2.9240    0.0335 C   0  0  0  0  0  0  0  0  0  0  0  0
    0.2863    3.3654   -1.0342 C   0  0  0  0  0  0  0  0  0  0  0  0
    0.5663    4.7205   -1.2206 C   0  0  0  0  0  0  0  0  0  0  0  0
    0.1380    5.6627   -0.2869 C   0  0  0  0  0  0  0  0  0  0  0  0
    0.5441    6.9896   -0.4848 N   0  0  0  0  0  0  0  0  0  0  0  0
    0.1379    8.1411    0.1479 C   0  0  0  0  0  0  0  0  0  0  0  0
   -1.4217    8.5687    0.5577 S   0  0  0  0  0  0  0  0  0  0  0  0
    1.1546    9.0584    0.3269 N   0  0  0  0  0  0  0  0  0  0  0  0
    2.4881    8.7436    0.7004 C   0  0  0  0  0  0  0  0  0  0  0  0
    2.7351    7.5387    1.3872 C   0  0  0  0  0  0  0  0  0  0  0  0
    4.0263    7.1587    1.7417 C   0  0  0  0  0  0  0  0  0  0  0  0
    4.3027    5.5298    2.6551 Br  0  0  0  0  0  0  0  0  0  0  0  0
    5.0971    7.9733    1.4158 C   0  0  0  0  0  0  0  0  0  0  0  0
    4.8633    9.1835    0.7593 C   0  0  0  0  0  0  0  0  0  0  0  0
    3.5601    9.6015    0.4245 C   0  0  0  0  0  0  0  0  0  0  0  0
    3.5486   10.7490   -0.3105 O   0  0  0  0  0  0  0  0  0  0  0  0
    2.5466   11.7329   -0.1227 C   0  0  0  0  0  0  0  0  0  0  0  0
    1.6215   11.4134    0.8056 F   0  0  0  0  0  0  0  0  0  0  0  0
    3.1356   12.8866    0.2612 F   0  0  0  0  0  0  0  0  0  0  0  0
    1.9223   11.9483   -1.2993 F   0  0  0  0  0  0  0  0  0  0  0  0
   -0.5440    5.2322    0.8462 C   0  0  0  0  0  0  0  0  0  0  0  0
   -0.8720    3.8814    0.9956 C   0  0  0  0  0  0  0  0  0  0  0  0
   -1.4681    0.7875   -0.9500 C   0  0  0  0  0  0  0  0  0  0  0  0
   -1.8319    2.0559   -4.0322 H   0  0  0  0  0  0  0  0  0  0  0  0
   -1.4926    2.9812   -2.6613 H   0  0  0  0  0  0  0  0  0  0  0  0
   -2.7631   -1.8839   -2.1358 H   0  0  0  0  0  0  0  0  0  0  0  0
   -2.2720   -2.1575    0.6609 H   0  0  0  0  0  0  0  0  0  0  0  0
   -1.3343   -0.8875    2.5827 H   0  0  0  0  0  0  0  0  0  0  0  0
   -0.4894    1.3817    2.2832 H   0  0  0  0  0  0  0  0  0  0  0  0
    0.6636    2.6540   -1.7674 H   0  0  0  0  0  0  0  0  0  0  0  0
    1.1085    5.0231   -2.1127 H   0  0  0  0  0  0  0  0  0  0  0  0
    1.2884    7.1305   -1.1571 H   0  0  0  0  0  0  0  0  0  0  0  0
    0.8348    9.9865    0.5900 H   0  0  0  0  0  0  0  0  0  0  0  0
    1.9136    6.8919    1.6837 H   0  0  0  0  0  0  0  0  0  0  0  0
    6.1140    7.6773    1.6610 H   0  0  0  0  0  0  0  0  0  0  0  0
    5.7142    9.8043    0.4870 H   0  0  0  0  0  0  0  0  0  0  0  0
   -0.8058    5.9152    1.6484 H   0  0  0  0  0  0  0  0  0  0  0  0
   -1.4306    3.5885    1.8833 H   0  0  0  0  0  0  0  0  0  0  0  0
  1  2  1  0  0  0  0
  1 33  1  0  0  0  0
  1 34  1  0  0  0  0
  2  3  2  0  0  0  0
  2 32  1  0  0  0  0
  3  4  1  0  0  0  0
  4  5  1  0  0  0  0
  4 35  1  0  0  0  0
  5  6  1  0  0  0  0
  5 32  2  0  0  0  0
  6  7  2  0  0  0  0
  6 36  1  0  0  0  0
  7  8  1  0  0  0  0
  7 37  1  0  0  0  0
  8  9  2  0  0  0  0
  8 38  1  0  0  0  0
  9 10  1  0  0  0  0
  9 32  1  0  0  0  0
 10 11  1  0  0  0  0
 10 31  2  0  0  0  0
 11 12  2  0  0  0  0
 11 39  1  0  0  0  0
 12 13  1  0  0  0  0
 12 40  1  0  0  0  0
 13 14  1  0  0  0  0
 13 30  2  0  0  0  0
 14 15  1  0  0  0  0
 14 41  1  0  0  0  0
 15 16  2  0  0  0  0
 15 17  1  0  0  0  0
 17 18  1  0  0  0  0
 17 42  1  0  0  0  0
 18 19  1  0  0  0  0
 18 24  2  0  0  0  0
 19 20  2  0  0  0  0
 19 43  1  0  0  0  0
 20 21  1  0  0  0  0
 20 22  1  0  0  0  0
 22 23  2  0  0  0  0
 22 44  1  0  0  0  0
 23 24  1  0  0  0  0
 23 45  1  0  0  0  0
 24 25  1  0  0  0  0
 25 26  1  0  0  0  0
 26 27  1  0  0  0  0
 26 28  1  0  0  0  0
 26 29  1  0  0  0  0
 30 31  1  0  0  0  0
 30 46  1  0  0  0  0
 31 47  1  0  0  0  0
M  END
$$$$
