CHEMBL2103868
 OpenBabel04072215363D

 76 79  0  0  1  0  0  0  0  0999 V2000
    3.2932   -2.8558    0.4423 C   0  0  0  0  0  0  0  0  0  0  0  0
    2.7264   -2.4032   -0.7876 O   0  0  0  0  0  0  0  0  0  0  0  0
    3.3534   -2.7811   -1.9465 C   0  0  0  0  0  0  0  0  0  0  0  0
    4.3368   -3.7736   -1.9589 C   0  0  0  0  0  0  0  0  0  0  0  0
    5.1046   -4.0374   -3.0737 C   0  0  0  0  0  0  0  0  0  0  0  0
    6.1618   -4.8351   -2.8815 N   0  0  0  0  0  0  0  0  0  0  0  0
    7.0303   -4.9739   -3.8933 C   0  0  0  0  0  0  0  0  0  0  0  0
    6.8317   -4.4264   -5.1387 C   0  0  0  0  0  0  0  0  0  0  0  0
    5.6398   -3.7410   -5.3865 C   0  0  0  0  0  0  0  0  0  0  0  0
    5.2998   -3.3314   -6.6720 O   0  0  0  0  0  0  0  0  0  0  0  0
    5.8073   -4.0700   -7.7295 C   0  0  0  0  0  0  0  0  0  0  0  0
    5.8333   -5.4685   -7.7278 C   0  0  0  0  0  0  0  0  0  0  0  0
    6.5410   -6.1628   -8.7128 C   0  0  0  0  0  0  0  0  0  0  0  0
    7.1630   -5.4809   -9.7590 C   0  0  0  0  0  0  0  0  0  0  0  0
    7.9290   -6.1314  -10.7505 N   0  0  0  0  0  0  0  0  0  0  0  0
    8.0816   -7.4968  -10.9144 C   0  0  0  0  0  0  0  0  0  0  0  0
    7.5325   -8.3968  -10.2948 O   0  0  0  0  0  0  0  0  0  0  0  0
    9.0738   -7.8744  -11.9658 C   0  0  0  0  0  0  0  0  0  0  0  0
   10.5017   -7.8504  -11.5200 C   0  0  0  0  0  0  0  0  0  0  0  0
   11.2006   -6.9154  -11.8821 O   0  0  0  0  0  0  0  0  0  0  0  0
   10.8675   -8.9274  -10.7304 N   0  0  0  0  0  0  0  0  0  0  0  0
   12.1517   -9.1659  -10.1948 C   0  0  0  0  0  0  0  0  0  0  0  0
   13.1751   -8.2121  -10.2134 C   0  0  0  0  0  0  0  0  0  0  0  0
   14.4535   -8.5259   -9.7473 C   0  0  0  0  0  0  0  0  0  0  0  0
   14.7066   -9.7949   -9.2498 C   0  0  0  0  0  0  0  0  0  0  0  0
   15.9418  -10.1078   -8.8380 F   0  0  0  0  0  0  0  0  0  0  0  0
   13.6946  -10.7442   -9.1773 C   0  0  0  0  0  0  0  0  0  0  0  0
   12.4112  -10.4264   -9.6366 C   0  0  0  0  0  0  0  0  0  0  0  0
    8.7460   -7.4880  -13.4102 C   0  0  0  0  0  0  0  0  0  0  0  0
    8.6901   -8.9257  -13.0087 C   0  0  0  0  0  0  0  0  0  0  0  0
    7.0461   -4.0847   -9.8103 C   0  0  0  0  0  0  0  0  0  0  0  0
    6.3615   -3.3799   -8.8046 C   0  0  0  0  0  0  0  0  0  0  0  0
    4.7881   -3.4329   -4.3033 C   0  0  0  0  0  0  0  0  0  0  0  0
    3.6967   -2.5364   -4.3345 C   0  0  0  0  0  0  0  0  0  0  0  0
    3.0207   -2.1532   -3.1564 C   0  0  0  0  0  0  0  0  0  0  0  0
    2.1063   -1.1527   -3.3640 O   0  0  0  0  0  0  0  0  0  0  0  0
    1.6457   -0.4107   -2.2410 C   0  0  0  0  0  0  0  0  0  0  0  0
    7.5027    0.1800    0.6106 O   0  0  0  0  0  0  0  0  0  0  0  0
    6.8121    1.1616    0.8548 C   0  0  0  0  0  0  0  0  0  0  0  0
    7.2186    2.4187    0.6024 O   0  0  0  0  0  0  0  0  0  0  0  0
    5.4679    1.0756    1.5091 C   0  0  0  0  0  0  0  0  0  0  0  0
    5.3007   -0.2551    2.2301 C   0  0  2  0  0  0  0  0  0  0  0  0
    3.9598   -0.2750    2.7480 O   0  0  0  0  0  0  0  0  0  0  0  0
    6.2921   -0.4567    3.3823 C   0  0  0  0  0  0  0  0  0  0  0  0
    5.9244   -0.4499    4.5523 O   0  0  0  0  0  0  0  0  0  0  0  0
    7.5722   -0.6815    3.0300 O   0  0  0  0  0  0  0  0  0  0  0  0
    2.9748   -2.1747    1.2342 H   0  0  0  0  0  0  0  0  0  0  0  0
    4.3895   -2.8448    0.4395 H   0  0  0  0  0  0  0  0  0  0  0  0
    2.9191   -3.8560    0.6797 H   0  0  0  0  0  0  0  0  0  0  0  0
    4.5833   -4.3400   -1.0663 H   0  0  0  0  0  0  0  0  0  0  0  0
    7.9171   -5.5614   -3.6707 H   0  0  0  0  0  0  0  0  0  0  0  0
    7.5900   -4.5713   -5.9000 H   0  0  0  0  0  0  0  0  0  0  0  0
    5.3752   -6.0347   -6.9205 H   0  0  0  0  0  0  0  0  0  0  0  0
    6.6254   -7.2382   -8.5988 H   0  0  0  0  0  0  0  0  0  0  0  0
    8.4621   -5.5342  -11.3771 H   0  0  0  0  0  0  0  0  0  0  0  0
   10.1606   -9.6378  -10.5673 H   0  0  0  0  0  0  0  0  0  0  0  0
   13.0108   -7.2044  -10.5826 H   0  0  0  0  0  0  0  0  0  0  0  0
   15.2476   -7.7871   -9.7834 H   0  0  0  0  0  0  0  0  0  0  0  0
   13.9162  -11.7292   -8.7782 H   0  0  0  0  0  0  0  0  0  0  0  0
   11.6366  -11.1865   -9.5822 H   0  0  0  0  0  0  0  0  0  0  0  0
    9.5602   -7.1638  -14.0498 H   0  0  0  0  0  0  0  0  0  0  0  0
    7.8043   -6.9920  -13.6173 H   0  0  0  0  0  0  0  0  0  0  0  0
    9.4630   -9.5788  -13.4025 H   0  0  0  0  0  0  0  0  0  0  0  0
    7.7184   -9.3991  -12.9237 H   0  0  0  0  0  0  0  0  0  0  0  0
    7.4926   -3.5185  -10.6254 H   0  0  0  0  0  0  0  0  0  0  0  0
    6.2965   -2.2963   -8.8475 H   0  0  0  0  0  0  0  0  0  0  0  0
    3.4095   -2.0597   -5.2742 H   0  0  0  0  0  0  0  0  0  0  0  0
    1.1665    0.4990   -2.6188 H   0  0  0  0  0  0  0  0  0  0  0  0
    2.4648   -0.0866   -1.5894 H   0  0  0  0  0  0  0  0  0  0  0  0
    0.8859   -0.9741   -1.6913 H   0  0  0  0  0  0  0  0  0  0  0  0
    6.5967    3.1181    0.8850 H   0  0  0  0  0  0  0  0  0  0  0  0
    4.7004    1.1799    0.7323 H   0  0  0  0  0  0  0  0  0  0  0  0
    5.3417    1.9005    2.2178 H   0  0  0  0  0  0  0  0  0  0  0  0
    5.3941   -1.1074    1.5521 H   0  0  0  0  0  0  0  0  0  0  0  0
    4.0381   -0.3511    3.7243 H   0  0  0  0  0  0  0  0  0  0  0  0
    7.7604   -0.6776    2.0578 H   0  0  0  0  0  0  0  0  0  0  0  0
  1  2  1  0  0  0  0
  1 47  1  0  0  0  0
  1 48  1  0  0  0  0
  1 49  1  0  0  0  0
  2  3  1  0  0  0  0
  3  4  1  0  0  0  0
  3 35  2  0  0  0  0
  4  5  2  0  0  0  0
  4 50  1  0  0  0  0
  5  6  1  0  0  0  0
  5 33  1  0  0  0  0
  6  7  2  0  0  0  0
  7  8  1  0  0  0  0
  7 51  1  0  0  0  0
  8  9  2  0  0  0  0
  8 52  1  0  0  0  0
  9 10  1  0  0  0  0
  9 33  1  0  0  0  0
 10 11  1  0  0  0  0
 11 12  1  0  0  0  0
 11 32  2  0  0  0  0
 12 13  2  0  0  0  0
 12 53  1  0  0  0  0
 13 14  1  0  0  0  0
 13 54  1  0  0  0  0
 14 15  1  0  0  0  0
 14 31  2  0  0  0  0
 15 16  1  0  0  0  0
 15 55  1  0  0  0  0
 16 17  2  0  0  0  0
 16 18  1  0  0  0  0
 18 19  1  0  0  0  0
 18 29  1  0  0  0  0
 18 30  1  0  0  0  0
 19 20  2  0  0  0  0
 19 21  1  0  0  0  0
 21 22  1  0  0  0  0
 21 56  1  0  0  0  0
 22 23  1  0  0  0  0
 22 28  2  0  0  0  0
 23 24  2  0  0  0  0
 23 57  1  0  0  0  0
 24 25  1  0  0  0  0
 24 58  1  0  0  0  0
 25 26  1  0  0  0  0
 25 27  2  0  0  0  0
 27 28  1  0  0  0  0
 27 59  1  0  0  0  0
 28 60  1  0  0  0  0
 29 30  1  0  0  0  0
 29 61  1  0  0  0  0
 29 62  1  0  0  0  0
 30 63  1  0  0  0  0
 30 64  1  0  0  0  0
 31 32  1  0  0  0  0
 31 65  1  0  0  0  0
 32 66  1  0  0  0  0
 33 34  2  0  0  0  0
 34 35  1  0  0  0  0
 34 67  1  0  0  0  0
 35 36  1  0  0  0  0
 36 37  1  0  0  0  0
 37 68  1  0  0  0  0
 37 69  1  0  0  0  0
 37 70  1  0  0  0  0
 38 39  2  0  0  0  0
 39 40  1  0  0  0  0
 39 41  1  0  0  0  0
 40 71  1  0  0  0  0
 41 72  1  0  0  0  0
 41 73  1  0  0  0  0
 42 44  1  0  0  0  0
 42 43  1  0  0  0  0
 42 41  1  0  0  0  0
 42 74  1  6  0  0  0
 43 75  1  0  0  0  0
 44 45  2  0  0  0  0
 44 46  1  0  0  0  0
 46 76  1  0  0  0  0
M  END
$$$$
