CHEMBL3945318
 OpenBabel04072215373D

 54 58  0  0  0  0  0  0  0  0999 V2000
    2.7161    0.1479   -1.1203 O   0  0  0  0  0  0  0  0  0  0  0  0
    2.1148   -0.0137   -0.0564 C   0  0  0  0  0  0  0  0  0  0  0  0
    0.6749   -0.3406   -0.1334 C   0  0  0  0  0  0  0  0  0  0  0  0
    0.2669   -1.1436   -1.2038 C   0  0  0  0  0  0  0  0  0  0  0  0
   -1.0669   -1.5031   -1.3283 C   0  0  0  0  0  0  0  0  0  0  0  0
   -1.9912   -1.0721   -0.3783 C   0  0  0  0  0  0  0  0  0  0  0  0
   -1.6029   -0.2640    0.6960 C   0  0  0  0  0  0  0  0  0  0  0  0
   -2.4896    0.1430    1.7218 N   0  0  0  0  0  0  0  0  0  0  0  0
   -3.8377   -0.1605    1.8009 C   0  0  0  0  0  0  0  0  0  0  0  0
   -4.5206   -0.7183    0.9527 O   0  0  0  0  0  0  0  0  0  0  0  0
   -4.4927    0.2419    3.0868 C   0  0  0  0  0  0  0  0  0  0  0  0
   -5.8436   -0.0261    3.2553 C   0  0  0  0  0  0  0  0  0  0  0  0
   -6.4153    0.3070    4.4718 C   0  0  0  0  0  0  0  0  0  0  0  0
   -8.0846   -0.0137    4.7387 Cl  0  0  0  0  0  0  0  0  0  0  0  0
   -5.6518    0.8898    5.4742 C   0  0  0  0  0  0  0  0  0  0  0  0
   -4.3134    1.1233    5.2105 C   0  0  0  0  0  0  0  0  0  0  0  0
   -3.7054    0.8165    4.0391 N   0  0  0  0  0  0  0  0  0  0  0  0
   -0.2642    0.1302    0.7946 C   0  0  0  0  0  0  0  0  0  0  0  0
    2.8745    0.0714    1.2258 C   0  0  0  0  0  0  0  0  0  0  0  0
    2.3959   -0.3869    2.4668 C   0  0  0  0  0  0  0  0  0  0  0  0
    3.1712   -0.2756    3.6445 C   0  0  0  0  0  0  0  0  0  0  0  0
    4.5165    0.1125    3.5111 C   0  0  0  0  0  0  0  0  0  0  0  0
    5.6948    0.3160    4.3094 C   0  0  0  0  0  0  0  0  0  0  0  0
    6.1297    1.5583    4.9476 C   0  0  0  0  0  0  0  0  0  0  0  0
    5.6215    2.7640    4.6271 C   0  0  0  0  0  0  0  0  0  0  0  0
    6.4751    3.9405    4.3240 C   0  0  0  0  0  0  0  0  0  0  0  0
    7.6694    3.8023    3.5884 C   0  0  0  0  0  0  0  0  0  0  0  0
    8.3268    4.9202    3.0621 C   0  0  0  0  0  0  0  0  0  0  0  0
    7.8038    6.1932    3.2667 C   0  0  0  0  0  0  0  0  0  0  0  0
    6.6322    6.3478    4.0057 C   0  0  0  0  0  0  0  0  0  0  0  0
    5.9698    5.2289    4.5261 C   0  0  0  0  0  0  0  0  0  0  0  0
    6.6989   -0.2581    3.6083 N   0  0  0  0  0  0  0  0  0  0  0  0
    6.3519    0.0838    2.3484 N   0  0  0  0  0  0  0  0  0  0  0  0
    5.0049    0.2919    2.2228 C   0  0  0  0  0  0  0  0  0  0  0  0
    4.2076    0.4818    1.1030 C   0  0  0  0  0  0  0  0  0  0  0  0
    0.9884   -1.4936   -1.9400 H   0  0  0  0  0  0  0  0  0  0  0  0
   -1.3917   -2.1278   -2.1562 H   0  0  0  0  0  0  0  0  0  0  0  0
   -3.0171   -1.3995   -0.5080 H   0  0  0  0  0  0  0  0  0  0  0  0
   -2.1118    0.6527    2.5114 H   0  0  0  0  0  0  0  0  0  0  0  0
   -6.4226   -0.4921    2.4648 H   0  0  0  0  0  0  0  0  0  0  0  0
   -6.0836    1.1484    6.4369 H   0  0  0  0  0  0  0  0  0  0  0  0
   -3.6724    1.5769    5.9623 H   0  0  0  0  0  0  0  0  0  0  0  0
    0.0466    0.7995    1.5910 H   0  0  0  0  0  0  0  0  0  0  0  0
    1.4329   -0.8854    2.5436 H   0  0  0  0  0  0  0  0  0  0  0  0
    2.7799   -0.6331    4.5941 H   0  0  0  0  0  0  0  0  0  0  0  0
    7.1662    1.5114    5.2880 H   0  0  0  0  0  0  0  0  0  0  0  0
    4.6129    2.8529    4.2313 H   0  0  0  0  0  0  0  0  0  0  0  0
    8.0717    2.8174    3.3591 H   0  0  0  0  0  0  0  0  0  0  0  0
    9.2258    4.7929    2.4645 H   0  0  0  0  0  0  0  0  0  0  0  0
    8.2948    7.0610    2.8331 H   0  0  0  0  0  0  0  0  0  0  0  0
    6.2126    7.3404    4.1507 H   0  0  0  0  0  0  0  0  0  0  0  0
    5.0330    5.3730    5.0577 H   0  0  0  0  0  0  0  0  0  0  0  0
    7.0457    0.0114    1.6162 H   0  0  0  0  0  0  0  0  0  0  0  0
    4.6335    0.7646    0.1452 H   0  0  0  0  0  0  0  0  0  0  0  0
  1  2  2  0  0  0  0
  2  3  1  0  0  0  0
  2 19  1  0  0  0  0
  3  4  1  0  0  0  0
  3 18  2  0  0  0  0
  4  5  2  0  0  0  0
  4 36  1  0  0  0  0
  5  6  1  0  0  0  0
  5 37  1  0  0  0  0
  6  7  2  0  0  0  0
  6 38  1  0  0  0  0
  7  8  1  0  0  0  0
  7 18  1  0  0  0  0
  8  9  1  0  0  0  0
  8 39  1  0  0  0  0
  9 10  2  0  0  0  0
  9 11  1  0  0  0  0
 11 12  1  0  0  0  0
 11 17  2  0  0  0  0
 12 13  2  0  0  0  0
 12 40  1  0  0  0  0
 13 14  1  0  0  0  0
 13 15  1  0  0  0  0
 15 16  2  0  0  0  0
 15 41  1  0  0  0  0
 16 17  1  0  0  0  0
 16 42  1  0  0  0  0
 18 43  1  0  0  0  0
 19 20  1  0  0  0  0
 19 35  2  0  0  0  0
 20 21  2  0  0  0  0
 20 44  1  0  0  0  0
 21 22  1  0  0  0  0
 21 45  1  0  0  0  0
 22 23  1  0  0  0  0
 22 34  2  0  0  0  0
 23 24  1  0  0  0  0
 23 32  2  0  0  0  0
 24 25  2  0  0  0  0
 24 46  1  0  0  0  0
 25 26  1  0  0  0  0
 25 47  1  0  0  0  0
 26 27  1  0  0  0  0
 26 31  2  0  0  0  0
 27 28  2  0  0  0  0
 27 48  1  0  0  0  0
 28 29  1  0  0  0  0
 28 49  1  0  0  0  0
 29 30  2  0  0  0  0
 29 50  1  0  0  0  0
 30 31  1  0  0  0  0
 30 51  1  0  0  0  0
 31 52  1  0  0  0  0
 32 33  1  0  0  0  0
 33 34  1  0  0  0  0
 33 53  1  0  0  0  0
 34 35  1  0  0  0  0
 35 54  1  0  0  0  0
M  END
$$$$
