CHEMBL4779315
 OpenBabel04072215383D

 68 71  0  0  1  0  0  0  0  0999 V2000
   10.8262    1.8102    1.2324 C   0  0  0  0  0  0  0  0  0  0  0  0
    9.9768    2.9592    1.3343 O   0  0  0  0  0  0  0  0  0  0  0  0
    9.0731    2.9295    2.3655 C   0  0  0  0  0  0  0  0  0  0  0  0
    9.3787    2.2772    3.5708 C   0  0  0  0  0  0  0  0  0  0  0  0
    8.4510    2.1039    4.5851 C   0  0  0  0  0  0  0  0  0  0  0  0
    8.8254    1.3845    5.6549 N   0  0  0  0  0  0  0  0  0  0  0  0
    7.9173    1.1670    6.6253 C   0  0  0  0  0  0  0  0  0  0  0  0
    6.6241    1.6401    6.5865 C   0  0  0  0  0  0  0  0  0  0  0  0
    6.2268    2.3491    5.4560 C   0  0  0  0  0  0  0  0  0  0  0  0
    4.9287    2.8021    5.3099 O   0  0  0  0  0  0  0  0  0  0  0  0
    3.8798    2.0134    5.7390 C   0  0  0  0  0  0  0  0  0  0  0  0
    2.7915    2.6892    6.2871 C   0  0  0  0  0  0  0  0  0  0  0  0
    1.6486    1.9861    6.6979 C   0  0  0  0  0  0  0  0  0  0  0  0
    1.5605    0.5983    6.5626 C   0  0  0  0  0  0  0  0  0  0  0  0
    0.4028   -0.1482    6.9050 N   0  0  0  0  0  0  0  0  0  0  0  0
   -0.6853    0.3224    7.6310 C   0  0  0  0  0  0  0  0  0  0  0  0
   -0.6966    1.3827    8.2607 O   0  0  0  0  0  0  0  0  0  0  0  0
   -1.9328   -0.5982    7.6263 C   0  0  3  0  0  0  0  0  0  0  0  0
   -2.6187   -0.4054    8.8841 O   0  0  0  0  0  0  0  0  0  0  0  0
   -2.0703   -1.0322    9.9522 C   0  0  0  0  0  0  0  0  0  0  0  0
   -1.1430   -1.8238    9.9170 O   0  0  0  0  0  0  0  0  0  0  0  0
   -2.8230   -0.6769   11.1824 C   0  0  0  0  0  0  0  0  0  0  0  0
   -3.4928    0.5501   11.3088 C   0  0  0  0  0  0  0  0  0  0  0  0
   -4.1913    0.8459   12.4825 C   0  0  0  0  0  0  0  0  0  0  0  0
   -4.2159   -0.0806   13.5200 C   0  0  0  0  0  0  0  0  0  0  0  0
   -4.8871    0.2032   14.6418 F   0  0  0  0  0  0  0  0  0  0  0  0
   -3.5484   -1.2966   13.4114 C   0  0  0  0  0  0  0  0  0  0  0  0
   -2.8447   -1.5950   12.2417 C   0  0  0  0  0  0  0  0  0  0  0  0
   -2.9360   -0.2556    6.4760 C   0  0  0  0  0  0  0  0  0  0  0  0
   -2.3398   -0.5856    5.0971 C   0  0  0  0  0  0  0  0  0  0  0  0
   -4.2273   -1.0902    6.6495 C   0  0  0  0  0  0  0  0  0  0  0  0
   -3.3445    1.2313    6.5006 C   0  0  0  0  0  0  0  0  0  0  0  0
    2.6542   -0.0807    6.0106 C   0  0  0  0  0  0  0  0  0  0  0  0
    3.7914    0.6259    5.5936 C   0  0  0  0  0  0  0  0  0  0  0  0
    4.7938   -0.0737    5.0420 F   0  0  0  0  0  0  0  0  0  0  0  0
    7.1649    2.6470    4.4357 C   0  0  0  0  0  0  0  0  0  0  0  0
    6.8976    3.4238    3.2829 C   0  0  0  0  0  0  0  0  0  0  0  0
    7.8323    3.5624    2.2405 C   0  0  0  0  0  0  0  0  0  0  0  0
    7.3412    4.3119    1.2069 O   0  0  0  0  0  0  0  0  0  0  0  0
    8.0612    4.4027   -0.0127 C   0  0  0  0  0  0  0  0  0  0  0  0
   11.0332    1.6288    0.1737 H   0  0  0  0  0  0  0  0  0  0  0  0
   10.3691    0.8939    1.6269 H   0  0  0  0  0  0  0  0  0  0  0  0
   11.7759    2.0084    1.7396 H   0  0  0  0  0  0  0  0  0  0  0  0
   10.3650    1.8498    3.7334 H   0  0  0  0  0  0  0  0  0  0  0  0
    8.2653    0.5639    7.4578 H   0  0  0  0  0  0  0  0  0  0  0  0
    5.9463    1.4301    7.4038 H   0  0  0  0  0  0  0  0  0  0  0  0
    2.8166    3.7716    6.3924 H   0  0  0  0  0  0  0  0  0  0  0  0
    0.8241    2.5701    7.0959 H   0  0  0  0  0  0  0  0  0  0  0  0
    0.4095   -1.1365    6.6763 H   0  0  0  0  0  0  0  0  0  0  0  0
   -1.6260   -1.6486    7.5315 H   0  0  0  0  0  0  0  0  0  0  0  0
   -3.4661    1.2836   10.5057 H   0  0  0  0  0  0  0  0  0  0  0  0
   -4.7100    1.7930   12.5963 H   0  0  0  0  0  0  0  0  0  0  0  0
   -3.5769   -2.0020   14.2370 H   0  0  0  0  0  0  0  0  0  0  0  0
   -2.3168   -2.5428   12.1579 H   0  0  0  0  0  0  0  0  0  0  0  0
   -2.0611   -1.6429    5.0294 H   0  0  0  0  0  0  0  0  0  0  0  0
   -1.4521    0.0165    4.8822 H   0  0  0  0  0  0  0  0  0  0  0  0
   -3.0646   -0.3849    4.2986 H   0  0  0  0  0  0  0  0  0  0  0  0
   -4.0084   -2.1634    6.6494 H   0  0  0  0  0  0  0  0  0  0  0  0
   -4.9364   -0.8954    5.8362 H   0  0  0  0  0  0  0  0  0  0  0  0
   -4.7426   -0.8523    7.5869 H   0  0  0  0  0  0  0  0  0  0  0  0
   -2.4879    1.8889    6.3209 H   0  0  0  0  0  0  0  0  0  0  0  0
   -3.7905    1.5096    7.4617 H   0  0  0  0  0  0  0  0  0  0  0  0
   -4.0837    1.4487    5.7206 H   0  0  0  0  0  0  0  0  0  0  0  0
    2.6518   -1.1599    5.8882 H   0  0  0  0  0  0  0  0  0  0  0  0
    5.9306    3.9127    3.1769 H   0  0  0  0  0  0  0  0  0  0  0  0
    7.3674    4.7941   -0.7653 H   0  0  0  0  0  0  0  0  0  0  0  0
    8.3950    3.4286   -0.3794 H   0  0  0  0  0  0  0  0  0  0  0  0
    8.8876    5.1148    0.0734 H   0  0  0  0  0  0  0  0  0  0  0  0
  1  2  1  0  0  0  0
  1 41  1  0  0  0  0
  1 42  1  0  0  0  0
  1 43  1  0  0  0  0
  2  3  1  0  0  0  0
  3  4  1  0  0  0  0
  3 38  2  0  0  0  0
  4  5  2  0  0  0  0
  4 44  1  0  0  0  0
  5  6  1  0  0  0  0
  5 36  1  0  0  0  0
  6  7  2  0  0  0  0
  7  8  1  0  0  0  0
  7 45  1  0  0  0  0
  8  9  2  0  0  0  0
  8 46  1  0  0  0  0
  9 10  1  0  0  0  0
  9 36  1  0  0  0  0
 10 11  1  0  0  0  0
 11 12  1  0  0  0  0
 11 34  2  0  0  0  0
 12 13  2  0  0  0  0
 12 47  1  0  0  0  0
 13 14  1  0  0  0  0
 13 48  1  0  0  0  0
 14 15  1  0  0  0  0
 14 33  2  0  0  0  0
 15 16  1  0  0  0  0
 15 49  1  0  0  0  0
 16 17  2  0  0  0  0
 16 18  1  0  0  0  0
 18 19  1  0  0  0  0
 18 29  1  0  0  0  0
 18 50  1  0  0  0  0
 19 20  1  0  0  0  0
 20 21  2  0  0  0  0
 20 22  1  0  0  0  0
 22 23  1  0  0  0  0
 22 28  2  0  0  0  0
 23 24  2  0  0  0  0
 23 51  1  0  0  0  0
 24 25  1  0  0  0  0
 24 52  1  0  0  0  0
 25 26  1  0  0  0  0
 25 27  2  0  0  0  0
 27 28  1  0  0  0  0
 27 53  1  0  0  0  0
 28 54  1  0  0  0  0
 29 30  1  0  0  0  0
 29 31  1  0  0  0  0
 29 32  1  0  0  0  0
 30 55  1  0  0  0  0
 30 56  1  0  0  0  0
 30 57  1  0  0  0  0
 31 58  1  0  0  0  0
 31 59  1  0  0  0  0
 31 60  1  0  0  0  0
 32 61  1  0  0  0  0
 32 62  1  0  0  0  0
 32 63  1  0  0  0  0
 33 34  1  0  0  0  0
 33 64  1  0  0  0  0
 34 35  1  0  0  0  0
 36 37  2  0  0  0  0
 37 38  1  0  0  0  0
 37 65  1  0  0  0  0
 38 39  1  0  0  0  0
 39 40  1  0  0  0  0
 40 66  1  0  0  0  0
 40 67  1  0  0  0  0
 40 68  1  0  0  0  0
M  END
$$$$
