CHEMBL246150
 OpenBabel04072215363D

 59 62  0  0  0  0  0  0  0  0999 V2000
    4.1138    6.2313    8.3010 C   0  0  0  0  0  0  0  0  0  0  0  0
    3.3296    5.6560    9.3702 N   0  0  0  0  0  0  0  0  0  0  0  0
    2.4241    4.6525    9.0675 C   0  0  0  0  0  0  0  0  0  0  0  0
    2.6565    3.6898    8.0876 C   0  0  0  0  0  0  0  0  0  0  0  0
    1.7014    2.7069    7.8042 C   0  0  0  0  0  0  0  0  0  0  0  0
    1.8978    1.7057    6.7269 C   0  0  0  0  0  0  0  0  0  0  0  0
    1.4106    0.3917    6.9047 C   0  0  0  0  0  0  0  0  0  0  0  0
    1.5270   -0.5731    5.9077 C   0  0  0  0  0  0  0  0  0  0  0  0
    2.1907   -0.2298    4.7532 C   0  0  0  0  0  0  0  0  0  0  0  0
    2.7176    0.9880    4.5420 N   0  0  0  0  0  0  0  0  0  0  0  0
    2.5275    1.9492    5.4880 C   0  0  0  0  0  0  0  0  0  0  0  0
    2.9718    3.2423    5.1737 O   0  0  0  0  0  0  0  0  0  0  0  0
    3.0762    3.5711    3.8283 C   0  0  0  0  0  0  0  0  0  0  0  0
    2.0948    3.1903    2.9070 C   0  0  0  0  0  0  0  0  0  0  0  0
    2.2753    3.4383    1.5535 C   0  0  0  0  0  0  0  0  0  0  0  0
    3.3891    4.1504    1.1238 C   0  0  0  0  0  0  0  0  0  0  0  0
    4.3159    4.6726    2.0358 C   0  0  0  0  0  0  0  0  0  0  0  0
    5.3857    5.5133    1.6174 N   0  0  0  0  0  0  0  0  0  0  0  0
    5.4623    6.1372    0.3727 C   0  0  0  0  0  0  0  0  0  0  0  0
    4.6113    6.0793   -0.5120 O   0  0  0  0  0  0  0  0  0  0  0  0
    6.6516    6.9918    0.0894 C   0  0  0  0  0  0  0  0  0  0  0  0
    7.9107    6.7694    0.6478 C   0  0  0  0  0  0  0  0  0  0  0  0
    8.9914    7.5704    0.2562 C   0  0  0  0  0  0  0  0  0  0  0  0
    8.8227    8.5803   -0.7006 C   0  0  0  0  0  0  0  0  0  0  0  0
    7.5721    8.8116   -1.2842 C   0  0  0  0  0  0  0  0  0  0  0  0
    7.3463    9.8401   -2.3816 C   0  0  0  0  0  0  0  0  0  0  0  0
    7.7539   11.2562   -1.9703 C   0  0  0  0  0  0  0  0  0  0  0  0
    8.0425    9.4330   -3.6831 C   0  0  0  0  0  0  0  0  0  0  0  0
    6.4948    8.0098   -0.8703 C   0  0  0  0  0  0  0  0  0  0  0  0
    4.1687    4.3486    3.3992 C   0  0  0  0  0  0  0  0  0  0  0  0
    0.5601    2.6967    8.6204 C   0  0  0  0  0  0  0  0  0  0  0  0
    0.4225    3.6559    9.6099 C   0  0  0  0  0  0  0  0  0  0  0  0
    1.3173    4.6362    9.8307 N   0  0  0  0  0  0  0  0  0  0  0  0
    4.6891    7.0777    8.6882 H   0  0  0  0  0  0  0  0  0  0  0  0
    3.4833    6.5933    7.4822 H   0  0  0  0  0  0  0  0  0  0  0  0
    4.8378    5.5091    7.9092 H   0  0  0  0  0  0  0  0  0  0  0  0
    2.8402    6.3198    9.9670 H   0  0  0  0  0  0  0  0  0  0  0  0
    3.5986    3.7007    7.5418 H   0  0  0  0  0  0  0  0  0  0  0  0
    0.9246    0.0992    7.8332 H   0  0  0  0  0  0  0  0  0  0  0  0
    1.1141   -1.5670    6.0369 H   0  0  0  0  0  0  0  0  0  0  0  0
    2.3126   -0.9353    3.9370 H   0  0  0  0  0  0  0  0  0  0  0  0
    1.2117    2.6415    3.2244 H   0  0  0  0  0  0  0  0  0  0  0  0
    1.5565    3.0669    0.8281 H   0  0  0  0  0  0  0  0  0  0  0  0
    3.5048    4.2804    0.0529 H   0  0  0  0  0  0  0  0  0  0  0  0
    6.0484    5.7916    2.3275 H   0  0  0  0  0  0  0  0  0  0  0  0
    8.0865    5.9568    1.3445 H   0  0  0  0  0  0  0  0  0  0  0  0
    9.9790    7.3889    0.6743 H   0  0  0  0  0  0  0  0  0  0  0  0
    9.6882    9.1649   -1.0073 H   0  0  0  0  0  0  0  0  0  0  0  0
    6.2702    9.8808   -2.5989 H   0  0  0  0  0  0  0  0  0  0  0  0
    8.8213   11.3291   -1.7391 H   0  0  0  0  0  0  0  0  0  0  0  0
    7.1931   11.5822   -1.0877 H   0  0  0  0  0  0  0  0  0  0  0  0
    7.5403   11.9653   -2.7790 H   0  0  0  0  0  0  0  0  0  0  0  0
    9.1326    9.4256   -3.5786 H   0  0  0  0  0  0  0  0  0  0  0  0
    7.7889   10.1312   -4.4892 H   0  0  0  0  0  0  0  0  0  0  0  0
    7.7279    8.4326   -4.0006 H   0  0  0  0  0  0  0  0  0  0  0  0
    5.5166    8.1601   -1.3243 H   0  0  0  0  0  0  0  0  0  0  0  0
    4.8876    4.6990    4.1338 H   0  0  0  0  0  0  0  0  0  0  0  0
   -0.2259    1.9584    8.5036 H   0  0  0  0  0  0  0  0  0  0  0  0
   -0.4411    3.6579   10.2701 H   0  0  0  0  0  0  0  0  0  0  0  0
  1  2  1  0  0  0  0
  1 34  1  0  0  0  0
  1 35  1  0  0  0  0
  1 36  1  0  0  0  0
  2  3  1  0  0  0  0
  2 37  1  0  0  0  0
  3  4  1  0  0  0  0
  3 33  2  0  0  0  0
  4  5  2  0  0  0  0
  4 38  1  0  0  0  0
  5  6  1  0  0  0  0
  5 31  1  0  0  0  0
  6  7  1  0  0  0  0
  6 11  2  0  0  0  0
  7  8  2  0  0  0  0
  7 39  1  0  0  0  0
  8  9  1  0  0  0  0
  8 40  1  0  0  0  0
  9 10  2  0  0  0  0
  9 41  1  0  0  0  0
 10 11  1  0  0  0  0
 11 12  1  0  0  0  0
 12 13  1  0  0  0  0
 13 14  1  0  0  0  0
 13 30  2  0  0  0  0
 14 15  2  0  0  0  0
 14 42  1  0  0  0  0
 15 16  1  0  0  0  0
 15 43  1  0  0  0  0
 16 17  2  0  0  0  0
 16 44  1  0  0  0  0
 17 18  1  0  0  0  0
 17 30  1  0  0  0  0
 18 19  1  0  0  0  0
 18 45  1  0  0  0  0
 19 20  2  0  0  0  0
 19 21  1  0  0  0  0
 21 22  1  0  0  0  0
 21 29  2  0  0  0  0
 22 23  2  0  0  0  0
 22 46  1  0  0  0  0
 23 24  1  0  0  0  0
 23 47  1  0  0  0  0
 24 25  2  0  0  0  0
 24 48  1  0  0  0  0
 25 26  1  0  0  0  0
 25 29  1  0  0  0  0
 26 27  1  0  0  0  0
 26 28  1  0  0  0  0
 26 49  1  0  0  0  0
 27 50  1  0  0  0  0
 27 51  1  0  0  0  0
 27 52  1  0  0  0  0
 28 53  1  0  0  0  0
 28 54  1  0  0  0  0
 28 55  1  0  0  0  0
 29 56  1  0  0  0  0
 30 57  1  0  0  0  0
 31 32  2  0  0  0  0
 31 58  1  0  0  0  0
 32 33  1  0  0  0  0
 32 59  1  0  0  0  0
M  END
$$$$
