CHEMBL188387
 OpenBabel04072215363D

 50 53  0  0  0  0  0  0  0  0999 V2000
    5.4319    4.7313   -2.4068 Cl  0  0  0  0  0  0  0  0  0  0  0  0
    4.8924    3.0969   -2.3752 C   0  0  0  0  0  0  0  0  0  0  0  0
    4.2912    2.5504   -3.5078 C   0  0  0  0  0  0  0  0  0  0  0  0
    3.8435    1.2324   -3.4815 C   0  0  0  0  0  0  0  0  0  0  0  0
    4.0150    0.4659   -2.3288 C   0  0  0  0  0  0  0  0  0  0  0  0
    4.6561    0.9950   -1.1985 C   0  0  0  0  0  0  0  0  0  0  0  0
    4.7771    0.2543    0.0046 N   0  0  0  0  0  0  0  0  0  0  0  0
    4.9905   -1.1456    0.0494 C   0  0  0  0  0  0  0  0  0  0  0  0
    4.6315   -1.8684    1.1879 C   0  0  0  0  0  0  0  0  0  0  0  0
    4.8579   -3.1930    1.3392 N   0  0  0  0  0  0  0  0  0  0  0  0
    5.5101   -3.7771    0.3066 C   0  0  0  0  0  0  0  0  0  0  0  0
    5.9211   -3.0876   -0.8392 C   0  0  0  0  0  0  0  0  0  0  0  0
    6.6966   -3.7095   -1.9246 C   0  0  0  0  0  0  0  0  0  0  0  0
    7.5304   -4.8024   -1.6893 C   0  0  0  0  0  0  0  0  0  0  0  0
    8.2557   -5.4471   -2.6267 N   0  0  0  0  0  0  0  0  0  0  0  0
    8.1755   -4.9559   -3.8818 C   0  0  0  0  0  0  0  0  0  0  0  0
    7.4407   -3.8321   -4.2652 C   0  0  0  0  0  0  0  0  0  0  0  0
    7.3454   -3.3710   -5.5874 N   0  0  0  0  0  0  0  0  0  0  0  0
    8.2698   -3.9283   -6.5774 C   0  0  0  0  0  0  0  0  0  0  0  0
    8.1337   -3.2354   -7.9384 C   0  0  0  0  0  0  0  0  0  0  0  0
    6.7103   -3.3653   -8.4946 C   0  0  0  0  0  0  0  0  0  0  0  0
    6.6307   -2.8342   -9.9174 C   0  0  0  0  0  0  0  0  0  0  0  0
    7.5696   -3.5016  -10.7576 O   0  0  0  0  0  0  0  0  0  0  0  0
    8.9148   -3.2800  -10.3406 C   0  0  0  0  0  0  0  0  0  0  0  0
    9.1397   -3.8324   -8.9391 C   0  0  0  0  0  0  0  0  0  0  0  0
    6.6675   -3.2365   -3.2541 C   0  0  0  0  0  0  0  0  0  0  0  0
    5.6438   -1.7652   -0.9629 N   0  0  0  0  0  0  0  0  0  0  0  0
    5.0592    2.3340   -1.2186 C   0  0  0  0  0  0  0  0  0  0  0  0
    4.1648    3.1447   -4.4082 H   0  0  0  0  0  0  0  0  0  0  0  0
    3.3620    0.7973   -4.3531 H   0  0  0  0  0  0  0  0  0  0  0  0
    3.6483   -0.5582   -2.3226 H   0  0  0  0  0  0  0  0  0  0  0  0
    4.0134    0.5183    0.6212 H   0  0  0  0  0  0  0  0  0  0  0  0
    4.1242   -1.3980    2.0222 H   0  0  0  0  0  0  0  0  0  0  0  0
    5.6973   -4.8358    0.4375 H   0  0  0  0  0  0  0  0  0  0  0  0
    7.6631   -5.2190   -0.6943 H   0  0  0  0  0  0  0  0  0  0  0  0
    8.7684   -5.5178   -4.5955 H   0  0  0  0  0  0  0  0  0  0  0  0
    7.2332   -2.3595   -5.6308 H   0  0  0  0  0  0  0  0  0  0  0  0
    8.0625   -4.9990   -6.7039 H   0  0  0  0  0  0  0  0  0  0  0  0
    9.3041   -3.8185   -6.2275 H   0  0  0  0  0  0  0  0  0  0  0  0
    8.3638   -2.1680   -7.8165 H   0  0  0  0  0  0  0  0  0  0  0  0
    5.9971   -2.8260   -7.8620 H   0  0  0  0  0  0  0  0  0  0  0  0
    6.4208   -4.4239   -8.4926 H   0  0  0  0  0  0  0  0  0  0  0  0
    6.8125   -1.7536   -9.9501 H   0  0  0  0  0  0  0  0  0  0  0  0
    5.6303   -3.0150  -10.3225 H   0  0  0  0  0  0  0  0  0  0  0  0
    9.1427   -2.2091  -10.3896 H   0  0  0  0  0  0  0  0  0  0  0  0
    9.5718   -3.7904  -11.0526 H   0  0  0  0  0  0  0  0  0  0  0  0
   10.1687   -3.6319   -8.6192 H   0  0  0  0  0  0  0  0  0  0  0  0
    9.0141   -4.9228   -8.9685 H   0  0  0  0  0  0  0  0  0  0  0  0
    6.0245   -2.3922   -3.5014 H   0  0  0  0  0  0  0  0  0  0  0  0
    5.5313    2.7715   -0.3430 H   0  0  0  0  0  0  0  0  0  0  0  0
  1  2  1  0  0  0  0
  2  3  1  0  0  0  0
  2 28  2  0  0  0  0
  3  4  2  0  0  0  0
  3 29  1  0  0  0  0
  4  5  1  0  0  0  0
  4 30  1  0  0  0  0
  5  6  2  0  0  0  0
  5 31  1  0  0  0  0
  6  7  1  0  0  0  0
  6 28  1  0  0  0  0
  7  8  1  0  0  0  0
  7 32  1  0  0  0  0
  8  9  1  0  0  0  0
  8 27  2  0  0  0  0
  9 10  2  0  0  0  0
  9 33  1  0  0  0  0
 10 11  1  0  0  0  0
 11 12  2  0  0  0  0
 11 34  1  0  0  0  0
 12 13  1  0  0  0  0
 12 27  1  0  0  0  0
 13 14  1  0  0  0  0
 13 26  2  0  0  0  0
 14 15  2  0  0  0  0
 14 35  1  0  0  0  0
 15 16  1  0  0  0  0
 16 17  2  0  0  0  0
 16 36  1  0  0  0  0
 17 18  1  0  0  0  0
 17 26  1  0  0  0  0
 18 19  1  0  0  0  0
 18 37  1  0  0  0  0
 19 20  1  0  0  0  0
 19 38  1  0  0  0  0
 19 39  1  0  0  0  0
 20 21  1  0  0  0  0
 20 25  1  0  0  0  0
 20 40  1  0  0  0  0
 21 22  1  0  0  0  0
 21 41  1  0  0  0  0
 21 42  1  0  0  0  0
 22 23  1  0  0  0  0
 22 43  1  0  0  0  0
 22 44  1  0  0  0  0
 23 24  1  0  0  0  0
 24 25  1  0  0  0  0
 24 45  1  0  0  0  0
 24 46  1  0  0  0  0
 25 47  1  0  0  0  0
 25 48  1  0  0  0  0
 26 49  1  0  0  0  0
 28 50  1  0  0  0  0
M  END
$$$$
