CHEMBL2023231
 OpenBabel04072215363D

 56 60  0  0  0  0  0  0  0  0999 V2000
    0.1459    0.1129   -1.8206 C   0  0  0  0  0  0  0  0  0  0  0  0
    1.5208    0.0611   -2.1891 O   0  0  0  0  0  0  0  0  0  0  0  0
    2.1954    1.2560   -2.1540 C   0  0  0  0  0  0  0  0  0  0  0  0
    1.6525    2.4657   -1.7487 C   0  0  0  0  0  0  0  0  0  0  0  0
    2.4260    3.6231   -1.7659 C   0  0  0  0  0  0  0  0  0  0  0  0
    3.7600    3.6043   -2.1788 C   0  0  0  0  0  0  0  0  0  0  0  0
    4.5657    4.7662   -2.2388 N   0  0  0  0  0  0  0  0  0  0  0  0
    4.1923    6.0171   -1.7893 C   0  0  0  0  0  0  0  0  0  0  0  0
    3.1557    6.2590   -1.1765 O   0  0  0  0  0  0  0  0  0  0  0  0
    5.0961    7.0068   -2.1541 N   0  0  0  0  0  0  0  0  0  0  0  0
    4.8442    8.3525   -1.7880 C   0  0  0  0  0  0  0  0  0  0  0  0
    4.3476    8.6701   -0.5236 C   0  0  0  0  0  0  0  0  0  0  0  0
    3.9209    9.9649   -0.2382 C   0  0  0  0  0  0  0  0  0  0  0  0
    4.0264   10.9862   -1.1933 C   0  0  0  0  0  0  0  0  0  0  0  0
    3.5077   12.3286   -0.8820 C   0  0  0  0  0  0  0  0  0  0  0  0
    3.7103   12.8179    0.3922 C   0  0  0  0  0  0  0  0  0  0  0  0
    2.9750   14.3078    0.6620 S   0  0  0  0  0  0  0  0  0  0  0  0
    2.4323   14.4469   -0.9736 C   0  0  0  0  0  0  0  0  0  0  0  0
    1.7324   15.5301   -1.5545 C   0  0  0  0  0  0  0  0  0  0  0  0
    1.4115   16.7531   -0.8359 C   0  0  0  0  0  0  0  0  0  0  0  0
    2.0827   17.4504    0.1986 C   0  0  0  0  0  0  0  0  0  0  0  0
    1.4630   18.5771    0.5587 N   0  0  0  0  0  0  0  0  0  0  0  0
    0.3974   18.6220   -0.2537 N   0  0  0  0  0  0  0  0  0  0  0  0
   -0.4961   19.7536   -0.2094 C   0  0  0  0  0  0  0  0  0  0  0  0
    0.3135   17.5518   -1.0988 C   0  0  0  0  0  0  0  0  0  0  0  0
    1.3811   15.3561   -2.8823 C   0  0  0  0  0  0  0  0  0  0  0  0
    1.6388   14.2583   -3.6125 N   0  0  0  0  0  0  0  0  0  0  0  0
    2.2979   13.2218   -3.0597 C   0  0  0  0  0  0  0  0  0  0  0  0
    2.4490   12.1402   -3.9190 N   0  0  0  0  0  0  0  0  0  0  0  0
    2.7502   13.2803   -1.7091 C   0  0  0  0  0  0  0  0  0  0  0  0
    4.6364   10.6837   -2.4151 C   0  0  0  0  0  0  0  0  0  0  0  0
    5.0319    9.3674   -2.7218 C   0  0  0  0  0  0  0  0  0  0  0  0
    4.3106    2.3859   -2.5787 C   0  0  0  0  0  0  0  0  0  0  0  0
    3.5277    1.2191   -2.5664 C   0  0  0  0  0  0  0  0  0  0  0  0
   -0.2633   -0.8980   -1.8809 H   0  0  0  0  0  0  0  0  0  0  0  0
   -0.4239    0.7463   -2.5120 H   0  0  0  0  0  0  0  0  0  0  0  0
    0.0246    0.4576   -0.7865 H   0  0  0  0  0  0  0  0  0  0  0  0
    0.6246    2.5601   -1.4119 H   0  0  0  0  0  0  0  0  0  0  0  0
    1.9287    4.5328   -1.4424 H   0  0  0  0  0  0  0  0  0  0  0  0
    5.5278    4.6486   -2.5267 H   0  0  0  0  0  0  0  0  0  0  0  0
    5.5501    6.8583   -3.0439 H   0  0  0  0  0  0  0  0  0  0  0  0
    4.2409    7.9053    0.2428 H   0  0  0  0  0  0  0  0  0  0  0  0
    3.4791   10.1452    0.7396 H   0  0  0  0  0  0  0  0  0  0  0  0
    4.2425   12.3494    1.2095 H   0  0  0  0  0  0  0  0  0  0  0  0
    3.0065   17.1992    0.7021 H   0  0  0  0  0  0  0  0  0  0  0  0
   -0.1736   20.4444    0.5743 H   0  0  0  0  0  0  0  0  0  0  0  0
   -1.5041   19.3909    0.0026 H   0  0  0  0  0  0  0  0  0  0  0  0
   -0.4616   20.2525   -1.1812 H   0  0  0  0  0  0  0  0  0  0  0  0
   -0.5018   17.4633   -1.8035 H   0  0  0  0  0  0  0  0  0  0  0  0
    0.8579   16.1336   -3.4332 H   0  0  0  0  0  0  0  0  0  0  0  0
    1.8611   12.2929   -4.7326 H   0  0  0  0  0  0  0  0  0  0  0  0
    2.3152   11.2464   -3.4624 H   0  0  0  0  0  0  0  0  0  0  0  0
    4.7758   11.4531   -3.1724 H   0  0  0  0  0  0  0  0  0  0  0  0
    5.4126    9.1552   -3.7140 H   0  0  0  0  0  0  0  0  0  0  0  0
    5.3430    2.3159   -2.9095 H   0  0  0  0  0  0  0  0  0  0  0  0
    3.9659    0.2762   -2.8838 H   0  0  0  0  0  0  0  0  0  0  0  0
  1  2  1  0  0  0  0
  1 35  1  0  0  0  0
  1 36  1  0  0  0  0
  1 37  1  0  0  0  0
  2  3  1  0  0  0  0
  3  4  1  0  0  0  0
  3 34  2  0  0  0  0
  4  5  2  0  0  0  0
  4 38  1  0  0  0  0
  5  6  1  0  0  0  0
  5 39  1  0  0  0  0
  6  7  1  0  0  0  0
  6 33  2  0  0  0  0
  7  8  1  0  0  0  0
  7 40  1  0  0  0  0
  8  9  2  0  0  0  0
  8 10  1  0  0  0  0
 10 11  1  0  0  0  0
 10 41  1  0  0  0  0
 11 12  1  0  0  0  0
 11 32  2  0  0  0  0
 12 13  2  0  0  0  0
 12 42  1  0  0  0  0
 13 14  1  0  0  0  0
 13 43  1  0  0  0  0
 14 15  1  0  0  0  0
 14 31  2  0  0  0  0
 15 16  2  0  0  0  0
 15 30  1  0  0  0  0
 16 17  1  0  0  0  0
 16 44  1  0  0  0  0
 17 18  1  0  0  0  0
 18 19  1  0  0  0  0
 18 30  2  0  0  0  0
 19 20  1  0  0  0  0
 19 26  2  0  0  0  0
 20 21  1  0  0  0  0
 20 25  2  0  0  0  0
 21 22  2  0  0  0  0
 21 45  1  0  0  0  0
 22 23  1  0  0  0  0
 23 24  1  0  0  0  0
 23 25  1  0  0  0  0
 24 46  1  0  0  0  0
 24 47  1  0  0  0  0
 24 48  1  0  0  0  0
 25 49  1  0  0  0  0
 26 27  1  0  0  0  0
 26 50  1  0  0  0  0
 27 28  2  0  0  0  0
 28 29  1  0  0  0  0
 28 30  1  0  0  0  0
 29 51  1  0  0  0  0
 29 52  1  0  0  0  0
 31 32  1  0  0  0  0
 31 53  1  0  0  0  0
 32 54  1  0  0  0  0
 33 34  1  0  0  0  0
 33 55  1  0  0  0  0
 34 56  1  0  0  0  0
M  END
$$$$
