CHEMBL3917294
 OpenBabel04072215373D

 54 58  0  0  1  0  0  0  0  0999 V2000
    2.3722    0.4623    1.2049 C   0  0  0  0  0  0  0  0  0  0  0  0
    2.2918    0.1423   -0.1818 O   0  0  0  0  0  0  0  0  0  0  0  0
    3.0394   -0.8986   -0.6574 C   0  0  0  0  0  0  0  0  0  0  0  0
    4.1209   -1.4117    0.0551 C   0  0  0  0  0  0  0  0  0  0  0  0
    4.7760   -2.5923   -0.3533 C   0  0  0  0  0  0  0  0  0  0  0  0
    5.8043   -3.2023    0.3832 C   0  0  0  0  0  0  0  0  0  0  0  0
    6.1533   -2.6729    1.6655 N   0  0  0  0  0  0  0  0  0  0  0  0
    7.3538   -2.9571    2.3430 C   0  0  0  0  0  0  0  0  0  0  0  0
    8.5761   -2.9017    1.6666 C   0  0  0  0  0  0  0  0  0  0  0  0
    9.7646   -3.2389    2.3095 C   0  0  0  0  0  0  0  0  0  0  0  0
    9.7570   -3.6209    3.6470 C   0  0  0  0  0  0  0  0  0  0  0  0
   11.2609   -4.0798    4.3633 Cl  0  0  0  0  0  0  0  0  0  0  0  0
    8.5487   -3.6356    4.3516 C   0  0  0  0  0  0  0  0  0  0  0  0
    8.4602   -4.0885    6.0178 Cl  0  0  0  0  0  0  0  0  0  0  0  0
    7.3528   -3.2890    3.7052 C   0  0  0  0  0  0  0  0  0  0  0  0
    6.4515   -4.2869   -0.0719 N   0  0  0  0  0  0  0  0  0  0  0  0
    6.0344   -4.7858   -1.2377 C   0  0  0  0  0  0  0  0  0  0  0  0
    5.0303   -4.3135   -1.9945 N   0  0  0  0  0  0  0  0  0  0  0  0
    4.4041   -3.2156   -1.5478 C   0  0  0  0  0  0  0  0  0  0  0  0
    3.3821   -2.6472   -2.2932 C   0  0  0  0  0  0  0  0  0  0  0  0
    2.7067   -1.4823   -1.8853 C   0  0  0  0  0  0  0  0  0  0  0  0
    1.7538   -1.0561   -2.7841 O   0  0  0  0  0  0  0  0  0  0  0  0
    1.4843    0.3525   -2.7924 C   0  0  0  0  0  0  0  0  0  0  0  0
    1.1249    0.8493   -4.2044 C   0  0  3  0  0  0  0  0  0  0  0  0
   -0.2266    0.3174   -4.7637 C   0  0  0  0  0  0  0  0  0  0  0  0
   -1.3929    1.0652   -4.2663 N   0  0  3  0  0  0  0  0  0  0  0  0
   -2.6360    0.7392   -4.9535 C   0  0  0  0  0  0  0  0  0  0  0  0
   -3.7857    2.0936   -4.5603 S   0  0  0  0  0  0  0  0  0  0  0  0
   -2.4618    3.2196   -4.0278 C   0  0  0  0  0  0  0  0  0  0  0  0
   -1.1813    2.5151   -4.4640 C   0  0  1  0  0  0  0  0  0  0  0  0
    0.0540    2.9264   -3.6624 C   0  0  0  0  0  0  0  0  0  0  0  0
    1.2061    2.2980   -4.2443 O   0  0  0  0  0  0  0  0  0  0  0  0
    2.9714    1.3682    1.3343 H   0  0  0  0  0  0  0  0  0  0  0  0
    2.7687   -0.3384    1.8381 H   0  0  0  0  0  0  0  0  0  0  0  0
    1.3589    0.6564    1.5629 H   0  0  0  0  0  0  0  0  0  0  0  0
    4.5033   -0.8973    0.9265 H   0  0  0  0  0  0  0  0  0  0  0  0
    5.3352   -2.7062    2.2662 H   0  0  0  0  0  0  0  0  0  0  0  0
    8.6032   -2.6125    0.6181 H   0  0  0  0  0  0  0  0  0  0  0  0
   10.6992   -3.2065    1.7454 H   0  0  0  0  0  0  0  0  0  0  0  0
    6.4207   -3.3185    4.2625 H   0  0  0  0  0  0  0  0  0  0  0  0
    6.5586   -5.6604   -1.6094 H   0  0  0  0  0  0  0  0  0  0  0  0
    3.1010   -3.1162   -3.2373 H   0  0  0  0  0  0  0  0  0  0  0  0
    2.3697    0.9255   -2.4837 H   0  0  0  0  0  0  0  0  0  0  0  0
    0.6673    0.5564   -2.0928 H   0  0  0  0  0  0  0  0  0  0  0  0
    1.9078    0.4917   -4.8845 H   0  0  0  0  0  0  0  0  0  0  0  0
   -0.3376   -0.7470   -4.5266 H   0  0  0  0  0  0  0  0  0  0  0  0
   -0.1862    0.4008   -5.8585 H   0  0  0  0  0  0  0  0  0  0  0  0
   -3.0469   -0.2161   -4.6173 H   0  0  0  0  0  0  0  0  0  0  0  0
   -2.5198    0.7128   -6.0433 H   0  0  0  0  0  0  0  0  0  0  0  0
   -2.5188    3.3624   -2.9453 H   0  0  0  0  0  0  0  0  0  0  0  0
   -2.5737    4.1891   -4.5239 H   0  0  0  0  0  0  0  0  0  0  0  0
   -0.9949    2.7237   -5.5291 H   0  0  0  0  0  0  0  0  0  0  0  0
   -0.0352    2.6588   -2.6045 H   0  0  0  0  0  0  0  0  0  0  0  0
    0.2013    4.0119   -3.7112 H   0  0  0  0  0  0  0  0  0  0  0  0
  1  2  1  0  0  0  0
  1 33  1  0  0  0  0
  1 34  1  0  0  0  0
  1 35  1  0  0  0  0
  2  3  1  0  0  0  0
  3  4  1  0  0  0  0
  3 21  2  0  0  0  0
  4  5  2  0  0  0  0
  4 36  1  0  0  0  0
  5  6  1  0  0  0  0
  5 19  1  0  0  0  0
  6  7  1  0  0  0  0
  6 16  2  0  0  0  0
  7  8  1  0  0  0  0
  7 37  1  0  0  0  0
  8  9  1  0  0  0  0
  8 15  2  0  0  0  0
  9 10  2  0  0  0  0
  9 38  1  0  0  0  0
 10 11  1  0  0  0  0
 10 39  1  0  0  0  0
 11 12  1  0  0  0  0
 11 13  2  0  0  0  0
 13 14  1  0  0  0  0
 13 15  1  0  0  0  0
 15 40  1  0  0  0  0
 16 17  1  0  0  0  0
 17 18  2  0  0  0  0
 17 41  1  0  0  0  0
 18 19  1  0  0  0  0
 19 20  2  0  0  0  0
 20 21  1  0  0  0  0
 20 42  1  0  0  0  0
 21 22  1  0  0  0  0
 22 23  1  0  0  0  0
 23 24  1  0  0  0  0
 23 43  1  0  0  0  0
 23 44  1  0  0  0  0
 24 25  1  0  0  0  0
 24 32  1  0  0  0  0
 24 45  1  0  0  0  0
 25 26  1  0  0  0  0
 25 46  1  0  0  0  0
 25 47  1  0  0  0  0
 26 27  1  0  0  0  0
 26 30  1  0  0  0  0
 27 28  1  0  0  0  0
 27 48  1  0  0  0  0
 27 49  1  0  0  0  0
 28 29  1  0  0  0  0
 29 30  1  0  0  0  0
 29 50  1  0  0  0  0
 29 51  1  0  0  0  0
 30 31  1  0  0  0  0
 30 52  1  6  0  0  0
 31 32  1  0  0  0  0
 31 53  1  0  0  0  0
 31 54  1  0  0  0  0
M  END
$$$$
