CHEMBL1975787
 OpenBabel04072215363D

 28 30  0  0  0  0  0  0  0  0999 V2000
    1.3205   -0.6755    0.0857 N   0  0  0  0  0  0  0  0  0  0  0  0
    2.4262    0.0981   -0.1244 C   0  0  0  0  0  0  0  0  0  0  0  0
    2.7790    0.3414   -1.2759 O   0  0  0  0  0  0  0  0  0  0  0  0
    3.1035    0.6147    1.0541 C   0  0  0  0  0  0  0  0  0  0  0  0
    4.2074    1.4422    1.0653 C   0  0  0  0  0  0  0  0  0  0  0  0
    4.6023    1.8972    2.3784 C   0  0  0  0  0  0  0  0  0  0  0  0
    5.6119    2.8043    2.8192 C   0  0  0  0  0  0  0  0  0  0  0  0
    6.4895    3.5361    1.8781 C   0  0  0  0  0  0  0  0  0  0  0  0
    6.0061    4.0668    0.6654 C   0  0  0  0  0  0  0  0  0  0  0  0
    6.8585    4.6909   -0.2522 C   0  0  0  0  0  0  0  0  0  0  0  0
    8.2020    4.8472    0.0548 C   0  0  0  0  0  0  0  0  0  0  0  0
    9.0163    5.4432   -0.8249 F   0  0  0  0  0  0  0  0  0  0  0  0
    8.7070    4.4001    1.2630 C   0  0  0  0  0  0  0  0  0  0  0  0
    7.8563    3.7475    2.1534 C   0  0  0  0  0  0  0  0  0  0  0  0
    8.3908    3.3097    3.3041 F   0  0  0  0  0  0  0  0  0  0  0  0
    5.7201    2.9458    4.2084 C   0  0  0  0  0  0  0  0  0  0  0  0
    4.9700    2.3080    5.1323 N   0  0  0  0  0  0  0  0  0  0  0  0
    4.0138    1.4607    4.7098 C   0  0  0  0  0  0  0  0  0  0  0  0
    3.8097    1.2587    3.3446 C   0  0  0  0  0  0  0  0  0  0  0  0
    2.6050    0.2512    2.6396 S   0  0  0  0  0  0  0  0  0  0  0  0
    0.8124   -1.0062   -0.7224 H   0  0  0  0  0  0  0  0  0  0  0  0
    0.9673   -0.8674    1.0124 H   0  0  0  0  0  0  0  0  0  0  0  0
    4.6859    1.7406    0.1403 H   0  0  0  0  0  0  0  0  0  0  0  0
    4.9501    4.0017    0.4107 H   0  0  0  0  0  0  0  0  0  0  0  0
    6.4776    5.0543   -1.2022 H   0  0  0  0  0  0  0  0  0  0  0  0
    9.7523    4.5452    1.5095 H   0  0  0  0  0  0  0  0  0  0  0  0
    6.4555    3.6191    4.6451 H   0  0  0  0  0  0  0  0  0  0  0  0
    3.4277    0.9628    5.4743 H   0  0  0  0  0  0  0  0  0  0  0  0
  1  2  1  0  0  0  0
  1 21  1  0  0  0  0
  1 22  1  0  0  0  0
  2  3  2  0  0  0  0
  2  4  1  0  0  0  0
  4  5  2  0  0  0  0
  4 20  1  0  0  0  0
  5  6  1  0  0  0  0
  5 23  1  0  0  0  0
  6  7  1  0  0  0  0
  6 19  2  0  0  0  0
  7  8  1  0  0  0  0
  7 16  2  0  0  0  0
  8  9  1  0  0  0  0
  8 14  2  0  0  0  0
  9 10  2  0  0  0  0
  9 24  1  0  0  0  0
 10 11  1  0  0  0  0
 10 25  1  0  0  0  0
 11 12  1  0  0  0  0
 11 13  2  0  0  0  0
 13 14  1  0  0  0  0
 13 26  1  0  0  0  0
 14 15  1  0  0  0  0
 16 17  1  0  0  0  0
 16 27  1  0  0  0  0
 17 18  2  0  0  0  0
 18 19  1  0  0  0  0
 18 28  1  0  0  0  0
 19 20  1  0  0  0  0
M  END
$$$$
