CHEMBL2113190
 OpenBabel04072215363D

 57 60  0  0  0  0  0  0  0  0999 V2000
    1.1082    0.9215    0.0093 C   0  0  0  0  0  0  0  0  0  0  0  0
    2.3551    0.2999   -0.2326 O   0  0  0  0  0  0  0  0  0  0  0  0
    2.8349    0.4866   -1.5684 C   0  0  0  0  0  0  0  0  0  0  0  0
    4.1495   -0.2792   -1.6293 C   0  0  0  0  0  0  0  0  0  0  0  0
    4.8162   -0.1836   -2.8696 O   0  0  0  0  0  0  0  0  0  0  0  0
    6.1722   -0.4061   -2.8895 C   0  0  0  0  0  0  0  0  0  0  0  0
    6.7520    0.2086   -4.0257 C   0  0  0  0  0  0  0  0  0  0  0  0
    8.1198    0.2253   -4.2876 C   0  0  0  0  0  0  0  0  0  0  0  0
    8.5865    0.8955   -5.3492 N   0  0  0  0  0  0  0  0  0  0  0  0
    9.9114    0.8930   -5.5329 C   0  0  0  0  0  0  0  0  0  0  0  0
   10.8088    0.2568   -4.7745 N   0  0  0  0  0  0  0  0  0  0  0  0
   10.3287   -0.4321   -3.7214 C   0  0  0  0  0  0  0  0  0  0  0  0
   11.2415   -1.1686   -2.9144 N   0  0  0  0  0  0  0  0  0  0  0  0
   12.6198   -0.9983   -3.0245 C   0  0  0  0  0  0  0  0  0  0  0  0
   13.2581    0.1717   -3.0173 C   0  0  0  0  0  0  0  0  0  0  0  0
   14.7127    0.3034   -3.1757 C   0  0  0  0  0  0  0  0  0  0  0  0
   15.2310    1.4120   -3.0745 O   0  0  0  0  0  0  0  0  0  0  0  0
   15.4902   -0.9376   -3.4730 C   0  0  0  0  0  0  0  0  0  0  0  0
   16.8386   -0.9028   -3.7917 O   0  0  0  0  0  0  0  0  0  0  0  0
   17.2630    0.2427   -4.5468 C   0  0  0  0  0  0  0  0  0  0  0  0
   18.4167   -0.1625   -5.4268 C   0  0  0  0  0  0  0  0  0  0  0  0
   19.5917   -0.6916   -4.8786 C   0  0  0  0  0  0  0  0  0  0  0  0
   20.6530   -1.0642   -5.7075 C   0  0  0  0  0  0  0  0  0  0  0  0
   20.5528   -0.9080   -7.0913 C   0  0  0  0  0  0  0  0  0  0  0  0
   19.3956   -0.3681   -7.6450 C   0  0  0  0  0  0  0  0  0  0  0  0
   18.3398   -0.0008   -6.8146 C   0  0  0  0  0  0  0  0  0  0  0  0
   17.2354    0.5188   -7.3695 F   0  0  0  0  0  0  0  0  0  0  0  0
   14.8758   -2.1229   -3.3971 C   0  0  0  0  0  0  0  0  0  0  0  0
   13.4329   -2.2569   -3.1200 C   0  0  0  0  0  0  0  0  0  0  0  0
   12.9058   -3.3590   -3.0120 O   0  0  0  0  0  0  0  0  0  0  0  0
    8.9586   -0.4520   -3.4060 C   0  0  0  0  0  0  0  0  0  0  0  0
    8.4004   -1.0685   -2.2626 C   0  0  0  0  0  0  0  0  0  0  0  0
    7.0204   -1.0605   -1.9874 C   0  0  0  0  0  0  0  0  0  0  0  0
    6.7911   -1.6032   -0.7566 O   0  0  0  0  0  0  0  0  0  0  0  0
    5.7177   -2.4956   -0.5187 C   0  0  0  0  0  0  0  0  0  0  0  0
    0.8421    0.7366    1.0543 H   0  0  0  0  0  0  0  0  0  0  0  0
    0.3346    0.4873   -0.6290 H   0  0  0  0  0  0  0  0  0  0  0  0
    1.1811    2.0004   -0.1475 H   0  0  0  0  0  0  0  0  0  0  0  0
    2.9827    1.5487   -1.7873 H   0  0  0  0  0  0  0  0  0  0  0  0
    2.1188    0.0754   -2.2906 H   0  0  0  0  0  0  0  0  0  0  0  0
    3.8590   -1.3195   -1.4850 H   0  0  0  0  0  0  0  0  0  0  0  0
    4.7831    0.0709   -0.8076 H   0  0  0  0  0  0  0  0  0  0  0  0
    6.1015    0.7407   -4.7204 H   0  0  0  0  0  0  0  0  0  0  0  0
   10.2961    1.4582   -6.3751 H   0  0  0  0  0  0  0  0  0  0  0  0
   10.9913   -2.1617   -2.9392 H   0  0  0  0  0  0  0  0  0  0  0  0
   12.7135    1.1050   -2.9078 H   0  0  0  0  0  0  0  0  0  0  0  0
   17.5982    1.0278   -3.8592 H   0  0  0  0  0  0  0  0  0  0  0  0
   16.4485    0.6342   -5.1684 H   0  0  0  0  0  0  0  0  0  0  0  0
   19.6832   -0.8221   -3.8007 H   0  0  0  0  0  0  0  0  0  0  0  0
   21.5564   -1.4772   -5.2687 H   0  0  0  0  0  0  0  0  0  0  0  0
   21.3798   -1.1958   -7.7349 H   0  0  0  0  0  0  0  0  0  0  0  0
   19.3084   -0.2314   -8.7192 H   0  0  0  0  0  0  0  0  0  0  0  0
   15.4171   -3.0468   -3.5629 H   0  0  0  0  0  0  0  0  0  0  0  0
    9.0647   -1.5331   -1.5342 H   0  0  0  0  0  0  0  0  0  0  0  0
    6.0878   -3.3597    0.0411 H   0  0  0  0  0  0  0  0  0  0  0  0
    5.2322   -2.8644   -1.4259 H   0  0  0  0  0  0  0  0  0  0  0  0
    5.0114   -1.9953    0.1527 H   0  0  0  0  0  0  0  0  0  0  0  0
  1  2  1  0  0  0  0
  1 36  1  0  0  0  0
  1 37  1  0  0  0  0
  1 38  1  0  0  0  0
  2  3  1  0  0  0  0
  3  4  1  0  0  0  0
  3 39  1  0  0  0  0
  3 40  1  0  0  0  0
  4  5  1  0  0  0  0
  4 41  1  0  0  0  0
  4 42  1  0  0  0  0
  5  6  1  0  0  0  0
  6  7  1  0  0  0  0
  6 33  2  0  0  0  0
  7  8  2  0  0  0  0
  7 43  1  0  0  0  0
  8  9  1  0  0  0  0
  8 31  1  0  0  0  0
  9 10  2  0  0  0  0
 10 11  1  0  0  0  0
 10 44  1  0  0  0  0
 11 12  2  0  0  0  0
 12 13  1  0  0  0  0
 12 31  1  0  0  0  0
 13 14  1  0  0  0  0
 13 45  1  0  0  0  0
 14 15  2  0  0  0  0
 14 29  1  0  0  0  0
 15 16  1  0  0  0  0
 15 46  1  0  0  0  0
 16 17  2  0  0  0  0
 16 18  1  0  0  0  0
 18 19  1  0  0  0  0
 18 28  2  0  0  0  0
 19 20  1  0  0  0  0
 20 21  1  0  0  0  0
 20 47  1  0  0  0  0
 20 48  1  0  0  0  0
 21 22  1  0  0  0  0
 21 26  2  0  0  0  0
 22 23  2  0  0  0  0
 22 49  1  0  0  0  0
 23 24  1  0  0  0  0
 23 50  1  0  0  0  0
 24 25  2  0  0  0  0
 24 51  1  0  0  0  0
 25 26  1  0  0  0  0
 25 52  1  0  0  0  0
 26 27  1  0  0  0  0
 28 29  1  0  0  0  0
 28 53  1  0  0  0  0
 29 30  2  0  0  0  0
 31 32  2  0  0  0  0
 32 33  1  0  0  0  0
 32 54  1  0  0  0  0
 33 34  1  0  0  0  0
 34 35  1  0  0  0  0
 35 55  1  0  0  0  0
 35 56  1  0  0  0  0
 35 57  1  0  0  0  0
M  END
$$$$
