CHEMBL220049
 OpenBabel04072215363D

 43 46  0  0  0  0  0  0  0  0999 V2000
   -1.0843    2.1043   -3.1899 N   0  0  0  0  0  0  0  0  0  0  0  0
   -1.3671    0.9974   -2.4907 C   0  0  0  0  0  0  0  0  0  0  0  0
   -1.7619   -0.1016   -3.1263 N   0  0  0  0  0  0  0  0  0  0  0  0
   -1.9539   -0.9848   -2.1463 N   0  0  0  0  0  0  0  0  0  0  0  0
   -1.6965   -0.5049   -0.8926 C   0  0  0  0  0  0  0  0  0  0  0  0
   -1.7865   -1.1465    0.3453 C   0  0  0  0  0  0  0  0  0  0  0  0
   -1.4344   -0.4107    1.4698 C   0  0  0  0  0  0  0  0  0  0  0  0
   -1.0087    0.9116    1.3490 C   0  0  0  0  0  0  0  0  0  0  0  0
   -0.9210    1.5740    0.0983 C   0  0  0  0  0  0  0  0  0  0  0  0
   -0.4564    2.9692    0.0345 C   0  0  0  0  0  0  0  0  0  0  0  0
    0.4675    3.3795   -0.9246 C   0  0  0  0  0  0  0  0  0  0  0  0
    0.8446    4.7184   -1.0651 C   0  0  0  0  0  0  0  0  0  0  0  0
    0.3787    5.6948   -0.1826 C   0  0  0  0  0  0  0  0  0  0  0  0
    0.7554    7.0548   -0.2807 N   0  0  0  0  0  0  0  0  0  0  0  0
    1.3665    7.6219   -1.3854 C   0  0  0  0  0  0  0  0  0  0  0  0
    1.5033    7.0654   -2.4695 O   0  0  0  0  0  0  0  0  0  0  0  0
    1.8593    8.8944   -1.1165 N   0  0  0  0  0  0  0  0  0  0  0  0
    2.5915    9.5793   -2.1171 C   0  0  0  0  0  0  0  0  0  0  0  0
    2.1473    9.6109   -3.4476 C   0  0  0  0  0  0  0  0  0  0  0  0
    2.9533   10.1504   -4.4486 C   0  0  0  0  0  0  0  0  0  0  0  0
    4.1992   10.6599   -4.1145 C   0  0  0  0  0  0  0  0  0  0  0  0
    5.0021   11.1235   -5.0791 F   0  0  0  0  0  0  0  0  0  0  0  0
    4.6342   10.6759   -2.7914 C   0  0  0  0  0  0  0  0  0  0  0  0
    3.8184   10.1576   -1.7818 C   0  0  0  0  0  0  0  0  0  0  0  0
   -0.4601    5.2925    0.8554 C   0  0  0  0  0  0  0  0  0  0  0  0
   -0.8872    3.9551    0.9508 C   0  0  0  0  0  0  0  0  0  0  0  0
   -1.2854    0.8213   -1.0647 C   0  0  0  0  0  0  0  0  0  0  0  0
   -1.3063    2.0840   -4.1787 H   0  0  0  0  0  0  0  0  0  0  0  0
   -1.1570    3.0243   -2.7738 H   0  0  0  0  0  0  0  0  0  0  0  0
   -2.2657   -1.9150   -2.3984 H   0  0  0  0  0  0  0  0  0  0  0  0
   -2.1119   -2.1791    0.4303 H   0  0  0  0  0  0  0  0  0  0  0  0
   -1.4797   -0.8760    2.4519 H   0  0  0  0  0  0  0  0  0  0  0  0
   -0.7174    1.4358    2.2581 H   0  0  0  0  0  0  0  0  0  0  0  0
    0.8943    2.6612   -1.6268 H   0  0  0  0  0  0  0  0  0  0  0  0
    1.5162    4.9506   -1.8849 H   0  0  0  0  0  0  0  0  0  0  0  0
    0.3847    7.6945    0.4067 H   0  0  0  0  0  0  0  0  0  0  0  0
    2.1733    9.0200   -0.1646 H   0  0  0  0  0  0  0  0  0  0  0  0
    1.1851    9.1807   -3.7202 H   0  0  0  0  0  0  0  0  0  0  0  0
    2.6281   10.1403   -5.4841 H   0  0  0  0  0  0  0  0  0  0  0  0
    5.6229   11.0597   -2.5624 H   0  0  0  0  0  0  0  0  0  0  0  0
    4.1892   10.1361   -0.7618 H   0  0  0  0  0  0  0  0  0  0  0  0
   -0.8141    6.0038    1.5967 H   0  0  0  0  0  0  0  0  0  0  0  0
   -1.5630    3.6844    1.7578 H   0  0  0  0  0  0  0  0  0  0  0  0
  1  2  1  0  0  0  0
  1 28  1  0  0  0  0
  1 29  1  0  0  0  0
  2  3  2  0  0  0  0
  2 27  1  0  0  0  0
  3  4  1  0  0  0  0
  4  5  1  0  0  0  0
  4 30  1  0  0  0  0
  5  6  1  0  0  0  0
  5 27  2  0  0  0  0
  6  7  2  0  0  0  0
  6 31  1  0  0  0  0
  7  8  1  0  0  0  0
  7 32  1  0  0  0  0
  8  9  2  0  0  0  0
  8 33  1  0  0  0  0
  9 10  1  0  0  0  0
  9 27  1  0  0  0  0
 10 11  1  0  0  0  0
 10 26  2  0  0  0  0
 11 12  2  0  0  0  0
 11 34  1  0  0  0  0
 12 13  1  0  0  0  0
 12 35  1  0  0  0  0
 13 14  1  0  0  0  0
 13 25  2  0  0  0  0
 14 15  1  0  0  0  0
 14 36  1  0  0  0  0
 15 16  2  0  0  0  0
 15 17  1  0  0  0  0
 17 18  1  0  0  0  0
 17 37  1  0  0  0  0
 18 19  1  0  0  0  0
 18 24  2  0  0  0  0
 19 20  2  0  0  0  0
 19 38  1  0  0  0  0
 20 21  1  0  0  0  0
 20 39  1  0  0  0  0
 21 22  1  0  0  0  0
 21 23  2  0  0  0  0
 23 24  1  0  0  0  0
 23 40  1  0  0  0  0
 24 41  1  0  0  0  0
 25 26  1  0  0  0  0
 25 42  1  0  0  0  0
 26 43  1  0  0  0  0
M  END
$$$$
