CHEMBL3960088
 OpenBabel04072215373D

 54 57  0  0  0  0  0  0  0  0999 V2000
    2.5518    0.0743   -0.2493 C   0  0  0  0  0  0  0  0  0  0  0  0
    1.0556    0.0437   -0.1449 C   0  0  0  0  0  0  0  0  0  0  0  0
    0.4032    1.2935   -0.0798 C   0  0  0  0  0  0  0  0  0  0  0  0
   -0.9898    1.4087   -0.0119 C   0  0  0  0  0  0  0  0  0  0  0  0
   -1.6326    2.6681   -0.0205 N   0  0  0  0  0  0  0  0  0  0  0  0
   -1.0793    3.8236   -0.5398 C   0  0  0  0  0  0  0  0  0  0  0  0
   -0.0301    3.8766   -1.1763 O   0  0  0  0  0  0  0  0  0  0  0  0
   -1.8247    4.9532   -0.2285 N   0  0  0  0  0  0  0  0  0  0  0  0
   -1.3933    6.2289   -0.6642 C   0  0  0  0  0  0  0  0  0  0  0  0
   -1.3147    7.2648    0.2593 C   0  0  0  0  0  0  0  0  0  0  0  0
   -0.8236    8.5096   -0.1395 C   0  0  0  0  0  0  0  0  0  0  0  0
   -0.4617    8.7507   -1.4731 C   0  0  0  0  0  0  0  0  0  0  0  0
    0.1145   10.3359   -1.8323 Cl  0  0  0  0  0  0  0  0  0  0  0  0
   -0.5759    7.7367   -2.4279 C   0  0  0  0  0  0  0  0  0  0  0  0
   -0.2533    7.8998   -3.8929 C   0  0  0  0  0  0  0  0  0  0  0  0
    0.0731    9.1532   -4.3038 F   0  0  0  0  0  0  0  0  0  0  0  0
    0.7817    7.1054   -4.2877 F   0  0  0  0  0  0  0  0  0  0  0  0
   -1.3096    7.5360   -4.6796 F   0  0  0  0  0  0  0  0  0  0  0  0
   -1.0261    6.4666   -1.9974 C   0  0  0  0  0  0  0  0  0  0  0  0
   -1.7430    0.2433    0.0886 C   0  0  0  0  0  0  0  0  0  0  0  0
   -1.1133   -1.0096    0.0671 C   0  0  0  0  0  0  0  0  0  0  0  0
    0.2811   -1.1259   -0.0894 C   0  0  0  0  0  0  0  0  0  0  0  0
    0.9076   -2.3647   -0.0970 O   0  0  0  0  0  0  0  0  0  0  0  0
    0.2868   -3.4106   -0.7911 C   0  0  0  0  0  0  0  0  0  0  0  0
    0.5440   -4.7096   -0.3841 C   0  0  0  0  0  0  0  0  0  0  0  0
   -0.0596   -5.7138   -1.1215 C   0  0  0  0  0  0  0  0  0  0  0  0
    0.2333   -7.0679   -0.8280 N   0  0  0  0  0  0  0  0  0  0  0  0
   -0.3520   -8.1378   -1.4892 C   0  0  0  0  0  0  0  0  0  0  0  0
   -1.3193   -8.0969   -2.2365 O   0  0  0  0  0  0  0  0  0  0  0  0
    0.2476   -9.4898   -1.2525 C   0  0  0  0  0  0  0  0  0  0  0  0
    0.2647  -10.0903    0.1315 C   0  0  0  0  0  0  0  0  0  0  0  0
    1.5571   -9.7853   -0.5708 C   0  0  0  0  0  0  0  0  0  0  0  0
   -0.8703   -5.4364   -2.1480 N   0  0  0  0  0  0  0  0  0  0  0  0
   -1.0461   -4.1553   -2.4677 C   0  0  0  0  0  0  0  0  0  0  0  0
   -0.4864   -3.1141   -1.8493 N   0  0  0  0  0  0  0  0  0  0  0  0
    2.8934    1.0565   -0.6058 H   0  0  0  0  0  0  0  0  0  0  0  0
    2.9227   -0.6596   -0.9686 H   0  0  0  0  0  0  0  0  0  0  0  0
    3.0052   -0.0909    0.7321 H   0  0  0  0  0  0  0  0  0  0  0  0
    1.0184    2.1891   -0.0798 H   0  0  0  0  0  0  0  0  0  0  0  0
   -2.6419    2.6711    0.0899 H   0  0  0  0  0  0  0  0  0  0  0  0
   -2.2548    4.9103    0.6850 H   0  0  0  0  0  0  0  0  0  0  0  0
   -1.5612    7.1042    1.3046 H   0  0  0  0  0  0  0  0  0  0  0  0
   -0.7123    9.2962    0.6051 H   0  0  0  0  0  0  0  0  0  0  0  0
   -1.0937    5.6557   -2.7239 H   0  0  0  0  0  0  0  0  0  0  0  0
   -2.8281    0.2761    0.1529 H   0  0  0  0  0  0  0  0  0  0  0  0
   -1.7290   -1.9001    0.1425 H   0  0  0  0  0  0  0  0  0  0  0  0
    1.1774   -4.9115    0.4710 H   0  0  0  0  0  0  0  0  0  0  0  0
    0.9309   -7.2578   -0.1359 H   0  0  0  0  0  0  0  0  0  0  0  0
   -0.0030  -10.1737   -2.0633 H   0  0  0  0  0  0  0  0  0  0  0  0
   -0.0403  -11.1298    0.2221 H   0  0  0  0  0  0  0  0  0  0  0  0
   -0.0262   -9.4736    0.9720 H   0  0  0  0  0  0  0  0  0  0  0  0
    2.1343  -10.6269   -0.9475 H   0  0  0  0  0  0  0  0  0  0  0  0
    2.1772   -8.9846   -0.1924 H   0  0  0  0  0  0  0  0  0  0  0  0
   -1.7051   -3.9428   -3.3014 H   0  0  0  0  0  0  0  0  0  0  0  0
  1  2  1  0  0  0  0
  1 36  1  0  0  0  0
  1 37  1  0  0  0  0
  1 38  1  0  0  0  0
  2  3  1  0  0  0  0
  2 22  2  0  0  0  0
  3  4  2  0  0  0  0
  3 39  1  0  0  0  0
  4  5  1  0  0  0  0
  4 20  1  0  0  0  0
  5  6  1  0  0  0  0
  5 40  1  0  0  0  0
  6  7  2  0  0  0  0
  6  8  1  0  0  0  0
  8  9  1  0  0  0  0
  8 41  1  0  0  0  0
  9 10  1  0  0  0  0
  9 19  2  0  0  0  0
 10 11  2  0  0  0  0
 10 42  1  0  0  0  0
 11 12  1  0  0  0  0
 11 43  1  0  0  0  0
 12 13  1  0  0  0  0
 12 14  2  0  0  0  0
 14 15  1  0  0  0  0
 14 19  1  0  0  0  0
 15 16  1  0  0  0  0
 15 17  1  0  0  0  0
 15 18  1  0  0  0  0
 19 44  1  0  0  0  0
 20 21  2  0  0  0  0
 20 45  1  0  0  0  0
 21 22  1  0  0  0  0
 21 46  1  0  0  0  0
 22 23  1  0  0  0  0
 23 24  1  0  0  0  0
 24 25  1  0  0  0  0
 24 35  2  0  0  0  0
 25 26  2  0  0  0  0
 25 47  1  0  0  0  0
 26 27  1  0  0  0  0
 26 33  1  0  0  0  0
 27 28  1  0  0  0  0
 27 48  1  0  0  0  0
 28 29  2  0  0  0  0
 28 30  1  0  0  0  0
 30 31  1  0  0  0  0
 30 32  1  0  0  0  0
 30 49  1  0  0  0  0
 31 32  1  0  0  0  0
 31 50  1  0  0  0  0
 31 51  1  0  0  0  0
 32 52  1  0  0  0  0
 32 53  1  0  0  0  0
 33 34  2  0  0  0  0
 34 35  1  0  0  0  0
 34 54  1  0  0  0  0
M  END
$$$$
