CHEMBL3907195
 OpenBabel04072215373D

 68 72  0  0  1  0  0  0  0  0999 V2000
    0.2473    1.9969   -3.1726 C   0  0  0  0  0  0  0  0  0  0  0  0
    1.5082    1.7674   -3.8056 O   0  0  0  0  0  0  0  0  0  0  0  0
    2.5852    1.5222   -2.9849 C   0  0  0  0  0  0  0  0  0  0  0  0
    2.5265    1.5416   -1.5919 C   0  0  0  0  0  0  0  0  0  0  0  0
    3.6606    1.2376   -0.8430 C   0  0  0  0  0  0  0  0  0  0  0  0
    3.7291    1.1991    0.5255 O   0  0  0  0  0  0  0  0  0  0  0  0
    2.5634    1.5936    1.2403 C   0  0  0  0  0  0  0  0  0  0  0  0
    4.8582    0.8991   -1.4898 C   0  0  0  0  0  0  0  0  0  0  0  0
    4.9602    0.8467   -2.8842 C   0  0  0  0  0  0  0  0  0  0  0  0
    6.0904    0.3027   -3.5430 N   0  0  0  0  0  0  0  0  0  0  0  0
    6.8094   -0.8505   -2.8530 C   0  0  0  0  0  0  0  0  0  0  0  0
    6.0196   -2.1076   -2.3665 C   0  0  0  0  0  0  0  0  0  0  0  0
    5.5315   -3.1398   -3.3426 N   0  0  0  0  0  0  0  0  0  0  0  0
    4.4340   -2.5993   -4.1665 C   0  0  0  0  0  0  0  0  0  0  0  0
    3.2181   -2.6537   -3.2609 C   0  0  0  0  0  0  0  0  0  0  0  0
    3.3668   -4.0113   -2.6036 C   0  0  0  0  0  0  0  0  0  0  0  0
    4.8809   -4.2785   -2.5911 C   0  0  1  0  0  0  0  0  0  0  0  0
    5.1621   -5.6687   -3.2076 C   0  0  0  0  0  0  0  0  0  0  0  0
    6.5486   -5.9791   -3.1666 O   0  0  0  0  0  0  0  0  0  0  0  0
    7.1097    1.0052   -4.3065 C   0  0  0  0  0  0  0  0  0  0  0  0
    7.6600    0.2627   -5.3397 C   0  0  0  0  0  0  0  0  0  0  0  0
    8.9654    0.4477   -5.7205 C   0  0  0  0  0  0  0  0  0  0  0  0
    9.7094    1.5021   -5.2319 C   0  0  0  0  0  0  0  0  0  0  0  0
   11.0059    1.4215   -5.5397 N   0  0  0  0  0  0  0  0  0  0  0  0
   11.7478    2.4983   -5.2740 C   0  0  0  0  0  0  0  0  0  0  0  0
   11.1926    3.6696   -4.8076 C   0  0  0  0  0  0  0  0  0  0  0  0
   12.0069    4.8648   -5.0049 C   0  0  0  0  0  0  0  0  0  0  0  0
   11.9764    5.8100   -6.0703 C   0  0  0  0  0  0  0  0  0  0  0  0
   13.0402    6.6237   -6.0867 N   0  0  0  0  0  0  0  0  0  0  0  0
   13.7725    6.1967   -5.0443 N   0  0  0  0  0  0  0  0  0  0  0  0
   14.8686    6.9930   -4.5461 C   0  0  0  0  0  0  0  0  0  0  0  0
   13.2813    5.0486   -4.4824 C   0  0  0  0  0  0  0  0  0  0  0  0
    9.8861    3.7077   -4.3567 N   0  0  0  0  0  0  0  0  0  0  0  0
    9.1116    2.5467   -4.5078 C   0  0  0  0  0  0  0  0  0  0  0  0
    7.7886    2.2223   -3.9775 C   0  0  0  0  0  0  0  0  0  0  0  0
    3.8033    1.1947   -3.6190 C   0  0  0  0  0  0  0  0  0  0  0  0
   -0.5156    2.1160   -3.9502 H   0  0  0  0  0  0  0  0  0  0  0  0
    0.2657    2.9216   -2.5856 H   0  0  0  0  0  0  0  0  0  0  0  0
   -0.0533    1.1464   -2.5513 H   0  0  0  0  0  0  0  0  0  0  0  0
    1.6013    1.7906   -1.0864 H   0  0  0  0  0  0  0  0  0  0  0  0
    2.8037    1.5766    2.3061 H   0  0  0  0  0  0  0  0  0  0  0  0
    1.7419    0.8890    1.0706 H   0  0  0  0  0  0  0  0  0  0  0  0
    2.2674    2.6157    0.9811 H   0  0  0  0  0  0  0  0  0  0  0  0
    5.7126    0.6459   -0.8698 H   0  0  0  0  0  0  0  0  0  0  0  0
    7.3529   -0.4350   -1.9919 H   0  0  0  0  0  0  0  0  0  0  0  0
    7.5931   -1.2664   -3.4999 H   0  0  0  0  0  0  0  0  0  0  0  0
    5.2390   -1.8179   -1.6596 H   0  0  0  0  0  0  0  0  0  0  0  0
    6.7657   -2.6469   -1.7643 H   0  0  0  0  0  0  0  0  0  0  0  0
    4.2823   -3.2661   -5.0263 H   0  0  0  0  0  0  0  0  0  0  0  0
    4.6325   -1.6100   -4.5785 H   0  0  0  0  0  0  0  0  0  0  0  0
    2.2765   -2.5553   -3.8066 H   0  0  0  0  0  0  0  0  0  0  0  0
    3.2451   -1.8658   -2.5008 H   0  0  0  0  0  0  0  0  0  0  0  0
    2.8317   -4.7590   -3.2030 H   0  0  0  0  0  0  0  0  0  0  0  0
    2.9399   -4.0240   -1.5960 H   0  0  0  0  0  0  0  0  0  0  0  0
    5.2566   -4.3109   -1.5602 H   0  0  0  0  0  0  0  0  0  0  0  0
    4.8237   -5.7359   -4.2482 H   0  0  0  0  0  0  0  0  0  0  0  0
    4.6312   -6.4454   -2.6385 H   0  0  0  0  0  0  0  0  0  0  0  0
    6.9848   -5.2610   -3.6511 H   0  0  0  0  0  0  0  0  0  0  0  0
    7.1236   -0.6228   -5.7187 H   0  0  0  0  0  0  0  0  0  0  0  0
    9.4454   -0.2755   -6.3736 H   0  0  0  0  0  0  0  0  0  0  0  0
   12.8011    2.4113   -5.5250 H   0  0  0  0  0  0  0  0  0  0  0  0
   11.2441    5.9106   -6.8627 H   0  0  0  0  0  0  0  0  0  0  0  0
   14.9850    7.8938   -5.1530 H   0  0  0  0  0  0  0  0  0  0  0  0
   15.7903    6.4014   -4.5670 H   0  0  0  0  0  0  0  0  0  0  0  0
   14.6220    7.2725   -3.5196 H   0  0  0  0  0  0  0  0  0  0  0  0
   13.8610    4.4919   -3.7592 H   0  0  0  0  0  0  0  0  0  0  0  0
    7.3426    2.9069   -3.2551 H   0  0  0  0  0  0  0  0  0  0  0  0
    3.8209    1.1381   -4.7065 H   0  0  0  0  0  0  0  0  0  0  0  0
  1  2  1  0  0  0  0
  1 37  1  0  0  0  0
  1 38  1  0  0  0  0
  1 39  1  0  0  0  0
  2  3  1  0  0  0  0
  3  4  1  0  0  0  0
  3 36  2  0  0  0  0
  4  5  2  0  0  0  0
  4 40  1  0  0  0  0
  5  6  1  0  0  0  0
  5  8  1  0  0  0  0
  6  7  1  0  0  0  0
  7 41  1  0  0  0  0
  7 42  1  0  0  0  0
  7 43  1  0  0  0  0
  8  9  2  0  0  0  0
  8 44  1  0  0  0  0
  9 10  1  0  0  0  0
  9 36  1  0  0  0  0
 10 11  1  0  0  0  0
 10 20  1  0  0  0  0
 11 12  1  0  0  0  0
 11 45  1  0  0  0  0
 11 46  1  0  0  0  0
 12 13  1  0  0  0  0
 12 47  1  0  0  0  0
 12 48  1  0  0  0  0
 13 14  1  0  0  0  0
 13 17  1  0  0  0  0
 14 15  1  0  0  0  0
 14 49  1  0  0  0  0
 14 50  1  0  0  0  0
 15 16  1  0  0  0  0
 15 51  1  0  0  0  0
 15 52  1  0  0  0  0
 16 17  1  0  0  0  0
 16 53  1  0  0  0  0
 16 54  1  0  0  0  0
 17 18  1  0  0  0  0
 17 55  1  1  0  0  0
 18 19  1  0  0  0  0
 18 56  1  0  0  0  0
 18 57  1  0  0  0  0
 19 58  1  0  0  0  0
 20 21  1  0  0  0  0
 20 35  2  0  0  0  0
 21 22  2  0  0  0  0
 21 59  1  0  0  0  0
 22 23  1  0  0  0  0
 22 60  1  0  0  0  0
 23 24  1  0  0  0  0
 23 34  2  0  0  0  0
 24 25  2  0  0  0  0
 25 26  1  0  0  0  0
 25 61  1  0  0  0  0
 26 27  1  0  0  0  0
 26 33  2  0  0  0  0
 27 28  1  0  0  0  0
 27 32  2  0  0  0  0
 28 29  2  0  0  0  0
 28 62  1  0  0  0  0
 29 30  1  0  0  0  0
 30 31  1  0  0  0  0
 30 32  1  0  0  0  0
 31 63  1  0  0  0  0
 31 64  1  0  0  0  0
 31 65  1  0  0  0  0
 32 66  1  0  0  0  0
 33 34  1  0  0  0  0
 34 35  1  0  0  0  0
 35 67  1  0  0  0  0
 36 68  1  0  0  0  0
M  END
$$$$
