CHEMBL514986
 OpenBabel04072215383D

 39 41  0  0  0  0  0  0  0  0999 V2000
    1.2198   -0.7236   -0.2264 O   0  0  0  0  0  0  0  0  0  0  0  0
    2.2410   -0.0925    0.0582 C   0  0  0  0  0  0  0  0  0  0  0  0
    2.7470    0.9723   -0.6704 N   0  0  0  0  0  0  0  0  0  0  0  0
    2.1271    1.5174   -1.8166 C   0  0  0  0  0  0  0  0  0  0  0  0
    0.7891    1.2569   -2.1328 C   0  0  0  0  0  0  0  0  0  0  0  0
    0.2102    1.7346   -3.3046 C   0  0  0  0  0  0  0  0  0  0  0  0
    0.9611    2.5129   -4.1726 C   0  0  0  0  0  0  0  0  0  0  0  0
    2.2905    2.8377   -3.8634 C   0  0  0  0  0  0  0  0  0  0  0  0
    3.0899    3.7050   -4.8038 C   0  0  0  0  0  0  0  0  0  0  0  0
    2.3912    4.0969   -5.9067 F   0  0  0  0  0  0  0  0  0  0  0  0
    3.5223    4.8519   -4.2118 F   0  0  0  0  0  0  0  0  0  0  0  0
    4.2042    3.0800   -5.2735 F   0  0  0  0  0  0  0  0  0  0  0  0
    2.8665    2.3386   -2.6740 C   0  0  0  0  0  0  0  0  0  0  0  0
    3.0301   -0.4969    1.2327 C   0  0  0  0  0  0  0  0  0  0  0  0
    4.1117    0.2017    1.6014 N   0  0  0  0  0  0  0  0  0  0  0  0
    4.7304   -0.4677    2.9895 S   0  0  0  0  0  0  0  0  0  0  0  0
    3.6072   -1.7472    3.0973 C   0  0  0  0  0  0  0  0  0  0  0  0
    2.7237   -1.6626    2.0466 C   0  0  0  0  0  0  0  0  0  0  0  0
    1.6711   -2.5074    1.8388 N   0  0  0  0  0  0  0  0  0  0  0  0
    1.7267   -3.9476    2.0672 C   0  0  0  0  0  0  0  0  0  0  0  0
    1.6512   -4.7701    0.8027 C   0  0  0  0  0  0  0  0  0  0  0  0
    2.1951   -4.3644   -0.4210 C   0  0  0  0  0  0  0  0  0  0  0  0
    2.1494   -5.2140   -1.5269 C   0  0  0  0  0  0  0  0  0  0  0  0
    1.5700   -6.4615   -1.3777 C   0  0  0  0  0  0  0  0  0  0  0  0
    1.0503   -6.9051   -0.2148 N   0  0  0  0  0  0  0  0  0  0  0  0
    1.1083   -6.0558    0.8394 C   0  0  0  0  0  0  0  0  0  0  0  0
    3.6710    1.2939   -0.3954 H   0  0  0  0  0  0  0  0  0  0  0  0
    0.1440    0.6821   -1.4756 H   0  0  0  0  0  0  0  0  0  0  0  0
   -0.8244    1.4895   -3.5277 H   0  0  0  0  0  0  0  0  0  0  0  0
    0.4984    2.8703   -5.0909 H   0  0  0  0  0  0  0  0  0  0  0  0
    3.9055    2.5803   -2.4489 H   0  0  0  0  0  0  0  0  0  0  0  0
    3.6213   -2.4516    3.9170 H   0  0  0  0  0  0  0  0  0  0  0  0
    0.9588   -2.2340    1.1499 H   0  0  0  0  0  0  0  0  0  0  0  0
    0.8717   -4.2000    2.7047 H   0  0  0  0  0  0  0  0  0  0  0  0
    2.6348   -4.2421    2.6050 H   0  0  0  0  0  0  0  0  0  0  0  0
    2.6609   -3.3888   -0.5242 H   0  0  0  0  0  0  0  0  0  0  0  0
    2.5610   -4.9078   -2.4819 H   0  0  0  0  0  0  0  0  0  0  0  0
    1.5105   -7.1568   -2.2098 H   0  0  0  0  0  0  0  0  0  0  0  0
    0.6913   -6.4669    1.7564 H   0  0  0  0  0  0  0  0  0  0  0  0
  1  2  2  0  0  0  0
  2  3  1  0  0  0  0
  2 14  1  0  0  0  0
  3  4  1  0  0  0  0
  3 27  1  0  0  0  0
  4  5  1  0  0  0  0
  4 13  2  0  0  0  0
  5  6  2  0  0  0  0
  5 28  1  0  0  0  0
  6  7  1  0  0  0  0
  6 29  1  0  0  0  0
  7  8  2  0  0  0  0
  7 30  1  0  0  0  0
  8  9  1  0  0  0  0
  8 13  1  0  0  0  0
  9 10  1  0  0  0  0
  9 11  1  0  0  0  0
  9 12  1  0  0  0  0
 13 31  1  0  0  0  0
 14 15  2  0  0  0  0
 14 18  1  0  0  0  0
 15 16  1  0  0  0  0
 16 17  1  0  0  0  0
 17 18  2  0  0  0  0
 17 32  1  0  0  0  0
 18 19  1  0  0  0  0
 19 20  1  0  0  0  0
 19 33  1  0  0  0  0
 20 21  1  0  0  0  0
 20 34  1  0  0  0  0
 20 35  1  0  0  0  0
 21 22  1  0  0  0  0
 21 26  2  0  0  0  0
 22 23  2  0  0  0  0
 22 36  1  0  0  0  0
 23 24  1  0  0  0  0
 23 37  1  0  0  0  0
 24 25  2  0  0  0  0
 24 38  1  0  0  0  0
 25 26  1  0  0  0  0
 26 39  1  0  0  0  0
M  END
$$$$
