CHEMBL4780196
 OpenBabel04072215383D

 85 90  0  0  0  0  0  0  0  0999 V2000
    1.0270   -0.5377    0.0696 C   0  0  0  0  0  0  0  0  0  0  0  0
    2.2859   -0.1291    0.6290 O   0  0  0  0  0  0  0  0  0  0  0  0
    2.5110    1.1260    1.1595 C   0  0  0  0  0  0  0  0  0  0  0  0
    3.3679    1.9277    0.3930 C   0  0  0  0  0  0  0  0  0  0  0  0
    4.1170    2.9984    0.8519 C   0  0  0  0  0  0  0  0  0  0  0  0
    4.9913    3.5439   -0.0071 N   0  0  0  0  0  0  0  0  0  0  0  0
    5.7288    4.5702    0.4267 C   0  0  0  0  0  0  0  0  0  0  0  0
    5.6711    5.0934    1.6377 N   0  0  0  0  0  0  0  0  0  0  0  0
    4.8327    4.4703    2.5177 C   0  0  0  0  0  0  0  0  0  0  0  0
    4.8607    4.9512    3.8170 O   0  0  0  0  0  0  0  0  0  0  0  0
    6.0910    5.3478    4.3246 C   0  0  0  0  0  0  0  0  0  0  0  0
    6.1222    6.4546    5.1802 C   0  0  0  0  0  0  0  0  0  0  0  0
    7.3017    6.7850    5.8848 C   0  0  0  0  0  0  0  0  0  0  0  0
    8.4688    6.0133    5.7543 C   0  0  0  0  0  0  0  0  0  0  0  0
    9.5721    6.2241    6.6180 N   0  0  0  0  0  0  0  0  0  0  0  0
   10.3862    5.2278    7.2181 C   0  0  0  0  0  0  0  0  0  0  0  0
   10.2628    3.9535    6.7700 N   0  0  0  0  0  0  0  0  0  0  0  0
   11.0545    2.9847    7.2872 C   0  0  0  0  0  0  0  0  0  0  0  0
   11.9742    3.1933    8.2663 C   0  0  0  0  0  0  0  0  0  0  0  0
   12.1078    4.4791    8.7596 C   0  0  0  0  0  0  0  0  0  0  0  0
   13.0675    4.7478    9.7466 N   0  0  0  0  0  0  0  0  0  0  0  0
   13.1586    6.0002   10.3026 C   0  0  0  0  0  0  0  0  0  0  0  0
   12.4613    7.0718    9.9046 C   0  0  0  0  0  0  0  0  0  0  0  0
   12.6165    8.3374   10.6150 C   0  0  0  0  0  0  0  0  0  0  0  0
   13.6601    9.2205   10.3014 C   0  0  0  0  0  0  0  0  0  0  0  0
   13.8087   10.4109   11.0174 C   0  0  0  0  0  0  0  0  0  0  0  0
   12.9198   10.7119   12.0450 C   0  0  0  0  0  0  0  0  0  0  0  0
   13.0664   11.8511   12.7326 F   0  0  0  0  0  0  0  0  0  0  0  0
   11.8816    9.8481   12.3703 C   0  0  0  0  0  0  0  0  0  0  0  0
   11.7284    8.6612   11.6524 C   0  0  0  0  0  0  0  0  0  0  0  0
   11.4790    6.8856    8.7993 C   0  0  0  0  0  0  0  0  0  0  0  0
   10.7628    7.8045    8.4057 O   0  0  0  0  0  0  0  0  0  0  0  0
   11.3272    5.5214    8.2157 C   0  0  0  0  0  0  0  0  0  0  0  0
    8.4466    4.9806    4.8092 C   0  0  0  0  0  0  0  0  0  0  0  0
    7.2744    4.6320    4.1336 C   0  0  0  0  0  0  0  0  0  0  0  0
    7.3088    3.5473    3.3426 F   0  0  0  0  0  0  0  0  0  0  0  0
    3.9697    3.3932    2.1733 C   0  0  0  0  0  0  0  0  0  0  0  0
    3.0399    2.6389    2.9840 C   0  0  0  0  0  0  0  0  0  0  0  0
    2.3502    1.4825    2.5042 C   0  0  0  0  0  0  0  0  0  0  0  0
    1.6621    0.7715    3.4778 O   0  0  0  0  0  0  0  0  0  0  0  0
    1.0725   -0.4409    3.0035 C   0  0  0  0  0  0  0  0  0  0  0  0
    0.4549   -1.3601    4.0432 C   0  0  0  0  0  0  0  0  0  0  0  0
   -0.7253   -0.8057    4.6024 O   0  0  0  0  0  0  0  0  0  0  0  0
    1.9467    0.8388   -2.6404 C   0  0  0  0  0  0  0  0  0  0  0  0
    3.3547    0.2911   -2.5549 C   0  0  0  0  0  0  0  0  0  0  0  0
    4.3693    1.1572   -2.9705 C   0  0  0  0  0  0  0  0  0  0  0  0
    5.6748    0.9886   -2.5195 C   0  0  0  0  0  0  0  0  0  0  0  0
    5.9829   -0.0724   -1.6689 C   0  0  0  0  0  0  0  0  0  0  0  0
    7.5504   -0.0445   -0.8428 S   0  0  0  0  0  0  0  0  0  0  0  0
    7.4004   -0.7319    0.4223 O   0  0  0  0  0  0  0  0  0  0  0  0
    8.5508   -0.4210   -1.8142 O   0  0  0  0  0  0  0  0  0  0  0  0
    7.7570    1.5147   -0.4701 O   0  0  0  0  0  0  0  0  0  0  0  0
    5.0259   -1.0348   -1.3591 C   0  0  0  0  0  0  0  0  0  0  0  0
    3.7188   -0.8706   -1.8415 C   0  0  0  0  0  0  0  0  0  0  0  0
    0.6794   -1.4392    0.5878 H   0  0  0  0  0  0  0  0  0  0  0  0
    1.1674   -0.9057   -0.9493 H   0  0  0  0  0  0  0  0  0  0  0  0
    0.2541    0.2324    0.0544 H   0  0  0  0  0  0  0  0  0  0  0  0
    3.5608    1.6509   -0.6232 H   0  0  0  0  0  0  0  0  0  0  0  0
    6.4580    4.9827   -0.2671 H   0  0  0  0  0  0  0  0  0  0  0  0
    5.2253    7.0504    5.3322 H   0  0  0  0  0  0  0  0  0  0  0  0
    7.2779    7.6243    6.5784 H   0  0  0  0  0  0  0  0  0  0  0  0
    9.5093    7.0592    7.2029 H   0  0  0  0  0  0  0  0  0  0  0  0
   10.8800    1.9874    6.8387 H   0  0  0  0  0  0  0  0  0  0  0  0
   12.5667    2.3630    8.6311 H   0  0  0  0  0  0  0  0  0  0  0  0
   13.4511    3.9676   10.2763 H   0  0  0  0  0  0  0  0  0  0  0  0
   13.8606    6.0511   11.1277 H   0  0  0  0  0  0  0  0  0  0  0  0
   14.3574    8.9901    9.4990 H   0  0  0  0  0  0  0  0  0  0  0  0
   14.6128   11.1054   10.7852 H   0  0  0  0  0  0  0  0  0  0  0  0
   11.1983   10.1017   13.1744 H   0  0  0  0  0  0  0  0  0  0  0  0
   10.9123    7.9886   11.9092 H   0  0  0  0  0  0  0  0  0  0  0  0
    9.3346    4.3874    4.6180 H   0  0  0  0  0  0  0  0  0  0  0  0
    2.9213    2.9225    4.0289 H   0  0  0  0  0  0  0  0  0  0  0  0
    1.8566   -1.0593    2.5588 H   0  0  0  0  0  0  0  0  0  0  0  0
    0.2701   -0.1611    2.3154 H   0  0  0  0  0  0  0  0  0  0  0  0
    1.1602   -1.6058    4.8368 H   0  0  0  0  0  0  0  0  0  0  0  0
    0.1612   -2.2864    3.5317 H   0  0  0  0  0  0  0  0  0  0  0  0
   -0.4375   -0.0907    5.1955 H   0  0  0  0  0  0  0  0  0  0  0  0
    1.9301    1.8163   -3.1362 H   0  0  0  0  0  0  0  0  0  0  0  0
    1.5701    1.0863   -1.6438 H   0  0  0  0  0  0  0  0  0  0  0  0
    1.2436    0.1722   -3.1359 H   0  0  0  0  0  0  0  0  0  0  0  0
    4.1217    2.0645   -3.5157 H   0  0  0  0  0  0  0  0  0  0  0  0
    6.4189    1.7479   -2.7502 H   0  0  0  0  0  0  0  0  0  0  0  0
    7.2179    1.7268    0.3229 H   0  0  0  0  0  0  0  0  0  0  0  0
    5.2585   -1.8561   -0.6808 H   0  0  0  0  0  0  0  0  0  0  0  0
    2.9880   -1.6023   -1.5105 H   0  0  0  0  0  0  0  0  0  0  0  0
  1  2  1  0  0  0  0
  1 55  1  0  0  0  0
  1 56  1  0  0  0  0
  1 57  1  0  0  0  0
  2  3  1  0  0  0  0
  3  4  1  0  0  0  0
  3 39  2  0  0  0  0
  4  5  2  0  0  0  0
  4 58  1  0  0  0  0
  5  6  1  0  0  0  0
  5 37  1  0  0  0  0
  6  7  2  0  0  0  0
  7  8  1  0  0  0  0
  7 59  1  0  0  0  0
  8  9  2  0  0  0  0
  9 10  1  0  0  0  0
  9 37  1  0  0  0  0
 10 11  1  0  0  0  0
 11 12  1  0  0  0  0
 11 35  2  0  0  0  0
 12 13  2  0  0  0  0
 12 60  1  0  0  0  0
 13 14  1  0  0  0  0
 13 61  1  0  0  0  0
 14 15  1  0  0  0  0
 14 34  2  0  0  0  0
 15 16  1  0  0  0  0
 15 62  1  0  0  0  0
 16 17  1  0  0  0  0
 16 33  2  0  0  0  0
 17 18  2  0  0  0  0
 18 19  1  0  0  0  0
 18 63  1  0  0  0  0
 19 20  2  0  0  0  0
 19 64  1  0  0  0  0
 20 21  1  0  0  0  0
 20 33  1  0  0  0  0
 21 22  1  0  0  0  0
 21 65  1  0  0  0  0
 22 23  2  0  0  0  0
 22 66  1  0  0  0  0
 23 24  1  0  0  0  0
 23 31  1  0  0  0  0
 24 25  1  0  0  0  0
 24 30  2  0  0  0  0
 25 26  2  0  0  0  0
 25 67  1  0  0  0  0
 26 27  1  0  0  0  0
 26 68  1  0  0  0  0
 27 28  1  0  0  0  0
 27 29  2  0  0  0  0
 29 30  1  0  0  0  0
 29 69  1  0  0  0  0
 30 70  1  0  0  0  0
 31 32  2  0  0  0  0
 31 33  1  0  0  0  0
 34 35  1  0  0  0  0
 34 71  1  0  0  0  0
 35 36  1  0  0  0  0
 37 38  2  0  0  0  0
 38 39  1  0  0  0  0
 38 72  1  0  0  0  0
 39 40  1  0  0  0  0
 40 41  1  0  0  0  0
 41 42  1  0  0  0  0
 41 73  1  0  0  0  0
 41 74  1  0  0  0  0
 42 43  1  0  0  0  0
 42 75  1  0  0  0  0
 42 76  1  0  0  0  0
 43 77  1  0  0  0  0
 44 45  1  0  0  0  0
 44 78  1  0  0  0  0
 44 79  1  0  0  0  0
 44 80  1  0  0  0  0
 45 46  1  0  0  0  0
 45 54  2  0  0  0  0
 46 47  2  0  0  0  0
 46 81  1  0  0  0  0
 47 48  1  0  0  0  0
 47 82  1  0  0  0  0
 48 49  1  0  0  0  0
 48 53  2  0  0  0  0
 49 50  2  0  0  0  0
 49 51  2  0  0  0  0
 49 52  1  0  0  0  0
 52 83  1  0  0  0  0
 53 54  1  0  0  0  0
 53 84  1  0  0  0  0
 54 85  1  0  0  0  0
M  END
$$$$
