CHEMBL3920551
 OpenBabel04072215373D

 77 81  0  0  0  0  0  0  0  0999 V2000
    2.4300    0.0760    1.3588 C   0  0  0  0  0  0  0  0  0  0  0  0
    2.4036    0.0005   -0.0603 O   0  0  0  0  0  0  0  0  0  0  0  0
    3.0984   -0.9618   -0.7294 C   0  0  0  0  0  0  0  0  0  0  0  0
    4.1241   -1.6867   -0.1282 C   0  0  0  0  0  0  0  0  0  0  0  0
    4.7546   -2.7673   -0.7809 C   0  0  0  0  0  0  0  0  0  0  0  0
    5.7273   -3.5775   -0.1750 C   0  0  0  0  0  0  0  0  0  0  0  0
    5.9803   -3.4032    1.2038 N   0  0  0  0  0  0  0  0  0  0  0  0
    7.1823   -3.4885    1.9145 C   0  0  0  0  0  0  0  0  0  0  0  0
    7.1348   -3.4125    3.3077 C   0  0  0  0  0  0  0  0  0  0  0  0
    8.2992   -3.2704    4.0619 C   0  0  0  0  0  0  0  0  0  0  0  0
    9.5475   -3.1529    3.4470 C   0  0  0  0  0  0  0  0  0  0  0  0
   10.7210   -2.8305    4.1794 N   0  0  0  0  0  0  0  0  0  0  0  0
   10.7435   -2.3405    5.4753 C   0  0  0  0  0  0  0  0  0  0  0  0
    9.7584   -2.2122    6.1946 O   0  0  0  0  0  0  0  0  0  0  0  0
   12.0124   -1.9367    5.8625 N   0  0  0  0  0  0  0  0  0  0  0  0
   12.2155   -1.3369    7.1300 C   0  0  0  0  0  0  0  0  0  0  0  0
   12.9426   -0.1530    7.1941 C   0  0  0  0  0  0  0  0  0  0  0  0
   13.1043    0.4997    8.4181 C   0  0  0  0  0  0  0  0  0  0  0  0
   12.5953   -0.0464    9.6083 C   0  0  0  0  0  0  0  0  0  0  0  0
   12.8374    0.6823   10.9018 C   0  0  0  0  0  0  0  0  0  0  0  0
   11.8858   -1.2611    9.5554 C   0  0  0  0  0  0  0  0  0  0  0  0
   11.3312   -1.9395   10.7804 C   0  0  0  0  0  0  0  0  0  0  0  0
   11.6915   -1.8859    8.3069 C   0  0  0  0  0  0  0  0  0  0  0  0
    9.6056   -3.3011    2.0520 C   0  0  0  0  0  0  0  0  0  0  0  0
   11.1112   -3.1967    1.2036 Cl  0  0  0  0  0  0  0  0  0  0  0  0
    8.4354   -3.4606    1.2967 C   0  0  0  0  0  0  0  0  0  0  0  0
    6.3679   -4.5500   -0.8404 N   0  0  0  0  0  0  0  0  0  0  0  0
    5.9983   -4.7328   -2.1110 C   0  0  0  0  0  0  0  0  0  0  0  0
    5.0506   -4.0424   -2.7738 N   0  0  0  0  0  0  0  0  0  0  0  0
    4.4399   -3.0592   -2.1096 C   0  0  0  0  0  0  0  0  0  0  0  0
    3.4660   -2.2765   -2.7288 C   0  0  0  0  0  0  0  0  0  0  0  0
    2.7996   -1.2275   -2.0761 C   0  0  0  0  0  0  0  0  0  0  0  0
    1.9195   -0.5679   -2.9039 O   0  0  0  0  0  0  0  0  0  0  0  0
    1.2256    0.5628   -2.3919 C   0  0  0  0  0  0  0  0  0  0  0  0
    0.8168    1.5246   -3.5004 C   0  0  0  0  0  0  0  0  0  0  0  0
   -0.1594    0.9302   -4.5113 C   0  0  0  0  0  0  0  0  0  0  0  0
   -0.6138    1.9266   -5.5050 N   0  0  0  0  0  0  0  0  0  0  0  0
   -1.3318    3.0829   -4.9201 C   0  0  0  0  0  0  0  0  0  0  0  0
   -2.6922    2.7069   -4.3180 C   0  0  0  0  0  0  0  0  0  0  0  0
   -3.5439    2.1297   -5.3169 O   0  0  0  0  0  0  0  0  0  0  0  0
   -2.9282    0.9846   -5.9237 C   0  0  0  0  0  0  0  0  0  0  0  0
   -1.5298    1.3039   -6.4893 C   0  0  0  0  0  0  0  0  0  0  0  0
    2.9031    1.0183    1.6500 H   0  0  0  0  0  0  0  0  0  0  0  0
    2.9221   -0.7529    1.8705 H   0  0  0  0  0  0  0  0  0  0  0  0
    1.3937    0.0901    1.7079 H   0  0  0  0  0  0  0  0  0  0  0  0
    4.4961   -1.4022    0.8508 H   0  0  0  0  0  0  0  0  0  0  0  0
    5.1495   -3.5880    1.7541 H   0  0  0  0  0  0  0  0  0  0  0  0
    6.1854   -3.4239    3.8374 H   0  0  0  0  0  0  0  0  0  0  0  0
    8.1799   -3.2274    5.1391 H   0  0  0  0  0  0  0  0  0  0  0  0
   11.5833   -2.8278    3.6511 H   0  0  0  0  0  0  0  0  0  0  0  0
   12.5920   -1.5895    5.1132 H   0  0  0  0  0  0  0  0  0  0  0  0
   13.3340    0.3112    6.2944 H   0  0  0  0  0  0  0  0  0  0  0  0
   13.6287    1.4526    8.4353 H   0  0  0  0  0  0  0  0  0  0  0  0
   13.3978    1.6097   10.7421 H   0  0  0  0  0  0  0  0  0  0  0  0
   13.4264    0.0572   11.5807 H   0  0  0  0  0  0  0  0  0  0  0  0
   11.8884    0.9512   11.3768 H   0  0  0  0  0  0  0  0  0  0  0  0
   11.4957   -1.3673   11.6972 H   0  0  0  0  0  0  0  0  0  0  0  0
   11.8132   -2.9138   10.9143 H   0  0  0  0  0  0  0  0  0  0  0  0
   10.2507   -2.0857   10.6792 H   0  0  0  0  0  0  0  0  0  0  0  0
   11.1299   -2.8181    8.2631 H   0  0  0  0  0  0  0  0  0  0  0  0
    8.5026   -3.5172    0.2136 H   0  0  0  0  0  0  0  0  0  0  0  0
    6.5072   -5.5178   -2.6556 H   0  0  0  0  0  0  0  0  0  0  0  0
    3.2254   -2.4940   -3.7703 H   0  0  0  0  0  0  0  0  0  0  0  0
    1.8632    1.1771   -1.7549 H   0  0  0  0  0  0  0  0  0  0  0  0
    0.3445    0.2184   -1.8366 H   0  0  0  0  0  0  0  0  0  0  0  0
    1.7129    1.8729   -4.0276 H   0  0  0  0  0  0  0  0  0  0  0  0
    0.3732    2.3865   -2.9930 H   0  0  0  0  0  0  0  0  0  0  0  0
   -0.9995    0.4711   -3.9792 H   0  0  0  0  0  0  0  0  0  0  0  0
    0.3548    0.1205   -5.0443 H   0  0  0  0  0  0  0  0  0  0  0  0
   -1.4980    3.8098   -5.7270 H   0  0  0  0  0  0  0  0  0  0  0  0
   -0.7194    3.6167   -4.1873 H   0  0  0  0  0  0  0  0  0  0  0  0
   -3.1885    3.6051   -3.9374 H   0  0  0  0  0  0  0  0  0  0  0  0
   -2.5912    2.0123   -3.4764 H   0  0  0  0  0  0  0  0  0  0  0  0
   -3.5836    0.6580   -6.7370 H   0  0  0  0  0  0  0  0  0  0  0  0
   -2.8896    0.1714   -5.1903 H   0  0  0  0  0  0  0  0  0  0  0  0
   -1.6447    2.0094   -7.3225 H   0  0  0  0  0  0  0  0  0  0  0  0
   -1.0781    0.4009   -6.9179 H   0  0  0  0  0  0  0  0  0  0  0  0
  1  2  1  0  0  0  0
  1 43  1  0  0  0  0
  1 44  1  0  0  0  0
  1 45  1  0  0  0  0
  2  3  1  0  0  0  0
  3  4  1  0  0  0  0
  3 32  2  0  0  0  0
  4  5  2  0  0  0  0
  4 46  1  0  0  0  0
  5  6  1  0  0  0  0
  5 30  1  0  0  0  0
  6  7  1  0  0  0  0
  6 27  2  0  0  0  0
  7  8  1  0  0  0  0
  7 47  1  0  0  0  0
  8  9  1  0  0  0  0
  8 26  2  0  0  0  0
  9 10  2  0  0  0  0
  9 48  1  0  0  0  0
 10 11  1  0  0  0  0
 10 49  1  0  0  0  0
 11 12  1  0  0  0  0
 11 24  2  0  0  0  0
 12 13  1  0  0  0  0
 12 50  1  0  0  0  0
 13 14  2  0  0  0  0
 13 15  1  0  0  0  0
 15 16  1  0  0  0  0
 15 51  1  0  0  0  0
 16 17  1  0  0  0  0
 16 23  2  0  0  0  0
 17 18  2  0  0  0  0
 17 52  1  0  0  0  0
 18 19  1  0  0  0  0
 18 53  1  0  0  0  0
 19 20  1  0  0  0  0
 19 21  2  0  0  0  0
 20 54  1  0  0  0  0
 20 55  1  0  0  0  0
 20 56  1  0  0  0  0
 21 22  1  0  0  0  0
 21 23  1  0  0  0  0
 22 57  1  0  0  0  0
 22 58  1  0  0  0  0
 22 59  1  0  0  0  0
 23 60  1  0  0  0  0
 24 25  1  0  0  0  0
 24 26  1  0  0  0  0
 26 61  1  0  0  0  0
 27 28  1  0  0  0  0
 28 29  2  0  0  0  0
 28 62  1  0  0  0  0
 29 30  1  0  0  0  0
 30 31  2  0  0  0  0
 31 32  1  0  0  0  0
 31 63  1  0  0  0  0
 32 33  1  0  0  0  0
 33 34  1  0  0  0  0
 34 35  1  0  0  0  0
 34 64  1  0  0  0  0
 34 65  1  0  0  0  0
 35 36  1  0  0  0  0
 35 66  1  0  0  0  0
 35 67  1  0  0  0  0
 36 37  1  0  0  0  0
 36 68  1  0  0  0  0
 36 69  1  0  0  0  0
 37 38  1  0  0  0  0
 37 42  1  0  0  0  0
 38 39  1  0  0  0  0
 38 70  1  0  0  0  0
 38 71  1  0  0  0  0
 39 40  1  0  0  0  0
 39 72  1  0  0  0  0
 39 73  1  0  0  0  0
 40 41  1  0  0  0  0
 41 42  1  0  0  0  0
 41 74  1  0  0  0  0
 41 75  1  0  0  0  0
 42 76  1  0  0  0  0
 42 77  1  0  0  0  0
M  END
$$$$
