CHEMBL306707
 OpenBabel04072215363D

 40 42  0  0  0  0  0  0  0  0999 V2000
    0.9632    0.3380    0.3391 C   0  0  0  0  0  0  0  0  0  0  0  0
    2.4534    0.2532    0.1372 C   0  0  0  0  0  0  0  0  0  0  0  0
    3.1097   -0.9756   -0.0022 C   0  0  0  0  0  0  0  0  0  0  0  0
    2.4197   -2.3167   -0.1055 C   0  0  0  0  0  0  0  0  0  0  0  0
    1.9980   -2.6546   -1.5204 C   0  0  0  0  0  0  0  0  0  0  0  0
    2.9571   -2.8270   -2.5272 C   0  0  0  0  0  0  0  0  0  0  0  0
    2.5327   -3.0874   -3.8205 C   0  0  0  0  0  0  0  0  0  0  0  0
    1.2357   -3.2042   -4.1734 N   0  0  0  0  0  0  0  0  0  0  0  0
    0.3264   -3.0583   -3.1866 C   0  0  0  0  0  0  0  0  0  0  0  0
    0.6514   -2.7898   -1.8641 C   0  0  0  0  0  0  0  0  0  0  0  0
    4.4492   -1.0333   -0.1660 N   0  0  0  0  0  0  0  0  0  0  0  0
    5.1884    0.1090   -0.2415 N   0  0  0  0  0  0  0  0  0  0  0  0
    4.6072    1.3243   -0.1770 C   0  0  0  0  0  0  0  0  0  0  0  0
    5.4120    2.4848   -0.2774 N   0  0  0  0  0  0  0  0  0  0  0  0
    6.6749    2.5422   -0.9037 C   0  0  0  0  0  0  0  0  0  0  0  0
    6.9420    1.8100   -2.0702 C   0  0  0  0  0  0  0  0  0  0  0  0
    8.1805    1.8908   -2.7075 C   0  0  0  0  0  0  0  0  0  0  0  0
    9.1645    2.7256   -2.1904 C   0  0  0  0  0  0  0  0  0  0  0  0
   10.7012    2.8131   -2.9579 Cl  0  0  0  0  0  0  0  0  0  0  0  0
    8.9085    3.4937   -1.0568 C   0  0  0  0  0  0  0  0  0  0  0  0
    7.6632    3.4137   -0.4244 C   0  0  0  0  0  0  0  0  0  0  0  0
    3.2237    1.4376    0.0095 C   0  0  0  0  0  0  0  0  0  0  0  0
    2.5471    2.7861   -0.0162 C   0  0  0  0  0  0  0  0  0  0  0  0
    0.5516   -0.5622    0.7970 H   0  0  0  0  0  0  0  0  0  0  0  0
    0.4603    0.5100   -0.6169 H   0  0  0  0  0  0  0  0  0  0  0  0
    0.7085    1.1494    1.0276 H   0  0  0  0  0  0  0  0  0  0  0  0
    1.5716   -2.3783    0.5833 H   0  0  0  0  0  0  0  0  0  0  0  0
    3.1095   -3.0992    0.2377 H   0  0  0  0  0  0  0  0  0  0  0  0
    4.0197   -2.7442   -2.3164 H   0  0  0  0  0  0  0  0  0  0  0  0
    3.2482   -3.2067   -4.6290 H   0  0  0  0  0  0  0  0  0  0  0  0
   -0.7090   -3.1631   -3.4983 H   0  0  0  0  0  0  0  0  0  0  0  0
   -0.1378   -2.6866   -1.1275 H   0  0  0  0  0  0  0  0  0  0  0  0
    5.3831    2.9816    0.6041 H   0  0  0  0  0  0  0  0  0  0  0  0
    6.1777    1.1629   -2.4961 H   0  0  0  0  0  0  0  0  0  0  0  0
    8.3636    1.3002   -3.6008 H   0  0  0  0  0  0  0  0  0  0  0  0
    9.6737    4.1540   -0.6581 H   0  0  0  0  0  0  0  0  0  0  0  0
    7.4830    4.0233    0.4567 H   0  0  0  0  0  0  0  0  0  0  0  0
    3.2387    3.6133   -0.1992 H   0  0  0  0  0  0  0  0  0  0  0  0
    2.0519    2.9869    0.9382 H   0  0  0  0  0  0  0  0  0  0  0  0
    1.8089    2.8147   -0.8257 H   0  0  0  0  0  0  0  0  0  0  0  0
  1  2  1  0  0  0  0
  1 24  1  0  0  0  0
  1 25  1  0  0  0  0
  1 26  1  0  0  0  0
  2  3  1  0  0  0  0
  2 22  2  0  0  0  0
  3  4  1  0  0  0  0
  3 11  2  0  0  0  0
  4  5  1  0  0  0  0
  4 27  1  0  0  0  0
  4 28  1  0  0  0  0
  5  6  1  0  0  0  0
  5 10  2  0  0  0  0
  6  7  2  0  0  0  0
  6 29  1  0  0  0  0
  7  8  1  0  0  0  0
  7 30  1  0  0  0  0
  8  9  2  0  0  0  0
  9 10  1  0  0  0  0
  9 31  1  0  0  0  0
 10 32  1  0  0  0  0
 11 12  1  0  0  0  0
 12 13  2  0  0  0  0
 13 14  1  0  0  0  0
 13 22  1  0  0  0  0
 14 15  1  0  0  0  0
 14 33  1  0  0  0  0
 15 16  1  0  0  0  0
 15 21  2  0  0  0  0
 16 17  2  0  0  0  0
 16 34  1  0  0  0  0
 17 18  1  0  0  0  0
 17 35  1  0  0  0  0
 18 19  1  0  0  0  0
 18 20  2  0  0  0  0
 20 21  1  0  0  0  0
 20 36  1  0  0  0  0
 21 37  1  0  0  0  0
 22 23  1  0  0  0  0
 23 38  1  0  0  0  0
 23 39  1  0  0  0  0
 23 40  1  0  0  0  0
M  END
$$$$
