CHEMBL4092765
 OpenBabel04072215383D

 45 48  0  0  0  0  0  0  0  0999 V2000
   -0.9976    2.1919   -3.4012 C   0  0  0  0  0  0  0  0  0  0  0  0
   -1.2562    1.0114   -2.5275 C   0  0  0  0  0  0  0  0  0  0  0  0
   -1.6558   -0.1158   -3.1350 N   0  0  0  0  0  0  0  0  0  0  0  0
   -1.8395   -0.9745   -2.1253 N   0  0  0  0  0  0  0  0  0  0  0  0
   -1.5711   -0.4601   -0.8972 C   0  0  0  0  0  0  0  0  0  0  0  0
   -1.6982   -1.1378    0.2600 N   0  0  0  0  0  0  0  0  0  0  0  0
   -1.3669   -0.4031    1.3341 C   0  0  0  0  0  0  0  0  0  0  0  0
   -0.9306    0.9119    1.3013 C   0  0  0  0  0  0  0  0  0  0  0  0
   -0.8083    1.5883    0.0705 C   0  0  0  0  0  0  0  0  0  0  0  0
   -0.3380    2.9779    0.0146 C   0  0  0  0  0  0  0  0  0  0  0  0
    0.5838    3.3844   -0.9527 C   0  0  0  0  0  0  0  0  0  0  0  0
    0.9493    4.7189   -1.1084 C   0  0  0  0  0  0  0  0  0  0  0  0
    0.4946    5.6663   -0.2059 C   0  0  0  0  0  0  0  0  0  0  0  0
    0.8434    7.0194   -0.2703 N   0  0  0  0  0  0  0  0  0  0  0  0
    1.5142    7.6779   -1.2692 C   0  0  0  0  0  0  0  0  0  0  0  0
    1.9172    7.2036   -2.3271 O   0  0  0  0  0  0  0  0  0  0  0  0
    1.7264    9.0053   -1.0282 N   0  0  0  0  0  0  0  0  0  0  0  0
    1.2798    9.7357    0.1346 C   0  0  0  0  0  0  0  0  0  0  0  0
    1.6409   11.1871    0.1467 C   0  0  0  0  0  0  0  0  0  0  0  0
    2.9742   11.5940    0.1855 C   0  0  0  0  0  0  0  0  0  0  0  0
    3.2437   12.9545    0.2885 C   0  0  0  0  0  0  0  0  0  0  0  0
    2.1905   13.8596    0.3493 C   0  0  0  0  0  0  0  0  0  0  0  0
    0.8980   13.3693    0.2931 C   0  0  0  0  0  0  0  0  0  0  0  0
    0.6070   12.0612    0.1951 N   0  0  0  0  0  0  0  0  0  0  0  0
   -0.3363    5.2663    0.8453 C   0  0  0  0  0  0  0  0  0  0  0  0
   -0.7659    3.9423    0.9428 C   0  0  0  0  0  0  0  0  0  0  0  0
   -1.1597    0.8535   -1.0966 C   0  0  0  0  0  0  0  0  0  0  0  0
   -1.3078    1.9930   -4.4340 H   0  0  0  0  0  0  0  0  0  0  0  0
    0.0692    2.4219   -3.4562 H   0  0  0  0  0  0  0  0  0  0  0  0
   -1.5473    3.0717   -3.0561 H   0  0  0  0  0  0  0  0  0  0  0  0
   -2.1557   -1.9174   -2.3278 H   0  0  0  0  0  0  0  0  0  0  0  0
   -1.4600   -0.9233    2.2851 H   0  0  0  0  0  0  0  0  0  0  0  0
   -0.6729    1.4011    2.2359 H   0  0  0  0  0  0  0  0  0  0  0  0
    1.0337    2.6557   -1.6188 H   0  0  0  0  0  0  0  0  0  0  0  0
    1.6006    4.9777   -1.9368 H   0  0  0  0  0  0  0  0  0  0  0  0
    0.4685    7.5810    0.4738 H   0  0  0  0  0  0  0  0  0  0  0  0
    2.1039    9.5084   -1.8225 H   0  0  0  0  0  0  0  0  0  0  0  0
    1.6943    9.2530    1.0264 H   0  0  0  0  0  0  0  0  0  0  0  0
    0.1866    9.6336    0.1818 H   0  0  0  0  0  0  0  0  0  0  0  0
    3.7795   10.8683    0.1564 H   0  0  0  0  0  0  0  0  0  0  0  0
    4.2718   13.3029    0.3344 H   0  0  0  0  0  0  0  0  0  0  0  0
    2.3720   14.9243    0.4418 H   0  0  0  0  0  0  0  0  0  0  0  0
    0.0391   14.0325    0.3389 H   0  0  0  0  0  0  0  0  0  0  0  0
   -0.6790    5.9830    1.5902 H   0  0  0  0  0  0  0  0  0  0  0  0
   -1.4472    3.6788    1.7508 H   0  0  0  0  0  0  0  0  0  0  0  0
  1  2  1  0  0  0  0
  1 28  1  0  0  0  0
  1 29  1  0  0  0  0
  1 30  1  0  0  0  0
  2  3  2  0  0  0  0
  2 27  1  0  0  0  0
  3  4  1  0  0  0  0
  4  5  1  0  0  0  0
  4 31  1  0  0  0  0
  5  6  1  0  0  0  0
  5 27  2  0  0  0  0
  6  7  2  0  0  0  0
  7  8  1  0  0  0  0
  7 32  1  0  0  0  0
  8  9  2  0  0  0  0
  8 33  1  0  0  0  0
  9 10  1  0  0  0  0
  9 27  1  0  0  0  0
 10 11  1  0  0  0  0
 10 26  2  0  0  0  0
 11 12  2  0  0  0  0
 11 34  1  0  0  0  0
 12 13  1  0  0  0  0
 12 35  1  0  0  0  0
 13 14  1  0  0  0  0
 13 25  2  0  0  0  0
 14 15  1  0  0  0  0
 14 36  1  0  0  0  0
 15 16  2  0  0  0  0
 15 17  1  0  0  0  0
 17 18  1  0  0  0  0
 17 37  1  0  0  0  0
 18 19  1  0  0  0  0
 18 38  1  0  0  0  0
 18 39  1  0  0  0  0
 19 20  1  0  0  0  0
 19 24  2  0  0  0  0
 20 21  2  0  0  0  0
 20 40  1  0  0  0  0
 21 22  1  0  0  0  0
 21 41  1  0  0  0  0
 22 23  2  0  0  0  0
 22 42  1  0  0  0  0
 23 24  1  0  0  0  0
 23 43  1  0  0  0  0
 25 26  1  0  0  0  0
 25 44  1  0  0  0  0
 26 45  1  0  0  0  0
M  END
$$$$
