CHEMBL460772
 OpenBabel04072215383D

 57 61  0  0  0  0  0  0  0  0999 V2000
   10.3076   -0.6337    9.6804 C   0  0  0  0  0  0  0  0  0  0  0  0
    8.9714   -1.1213    9.5212 O   0  0  0  0  0  0  0  0  0  0  0  0
    8.2419   -0.4890    8.5491 C   0  0  0  0  0  0  0  0  0  0  0  0
    8.8457   -0.0350    7.3621 C   0  0  0  0  0  0  0  0  0  0  0  0
    8.1626    0.7085    6.4088 C   0  0  0  0  0  0  0  0  0  0  0  0
    8.8557    1.1691    5.3527 N   0  0  0  0  0  0  0  0  0  0  0  0
    8.2192    1.9596    4.4653 C   0  0  0  0  0  0  0  0  0  0  0  0
    6.8919    2.3097    4.5685 C   0  0  0  0  0  0  0  0  0  0  0  0
    6.1633    1.8021    5.6409 C   0  0  0  0  0  0  0  0  0  0  0  0
    4.8816    2.3026    5.7351 O   0  0  0  0  0  0  0  0  0  0  0  0
    3.8074    1.4784    5.9565 C   0  0  0  0  0  0  0  0  0  0  0  0
    2.7068    2.0952    6.5578 C   0  0  0  0  0  0  0  0  0  0  0  0
    1.5524    1.3578    6.8527 C   0  0  0  0  0  0  0  0  0  0  0  0
    1.4689   -0.0141    6.5635 C   0  0  0  0  0  0  0  0  0  0  0  0
    0.2506   -0.7880    6.8560 C   0  0  0  0  0  0  0  0  0  0  0  0
    0.2592   -2.1328    7.2067 C   0  0  0  0  0  0  0  0  0  0  0  0
   -0.9528   -2.8034    7.3822 C   0  0  0  0  0  0  0  0  0  0  0  0
   -2.1287   -2.1019    7.2004 C   0  0  0  0  0  0  0  0  0  0  0  0
   -3.4705   -2.7607    7.3917 C   0  0  0  0  0  0  0  0  0  0  0  0
   -3.9440   -2.7508    8.8265 C   0  0  0  0  0  0  0  0  0  0  0  0
   -4.1949   -1.5352    9.4803 C   0  0  0  0  0  0  0  0  0  0  0  0
   -4.6293   -1.5146   10.8060 C   0  0  0  0  0  0  0  0  0  0  0  0
   -4.8259   -2.7107   11.4914 C   0  0  0  0  0  0  0  0  0  0  0  0
   -4.5873   -3.9268   10.8502 C   0  0  0  0  0  0  0  0  0  0  0  0
   -4.1471   -3.9490    9.5264 C   0  0  0  0  0  0  0  0  0  0  0  0
   -2.1170   -0.7908    6.8849 N   0  0  0  0  0  0  0  0  0  0  0  0
   -0.9232   -0.1295    6.7177 N   0  0  0  0  0  0  0  0  0  0  0  0
    2.5828   -0.6132    5.9471 C   0  0  0  0  0  0  0  0  0  0  0  0
    3.7197    0.1280    5.6272 C   0  0  0  0  0  0  0  0  0  0  0  0
    4.7263   -0.5072    5.0107 F   0  0  0  0  0  0  0  0  0  0  0  0
    6.7982    0.9889    6.6114 C   0  0  0  0  0  0  0  0  0  0  0  0
    6.1816    0.4565    7.7653 C   0  0  0  0  0  0  0  0  0  0  0  0
    6.8732   -0.2952    8.7197 C   0  0  0  0  0  0  0  0  0  0  0  0
    6.0373   -0.7256    9.7087 O   0  0  0  0  0  0  0  0  0  0  0  0
    6.5756   -1.2260   10.9182 C   0  0  0  0  0  0  0  0  0  0  0  0
   10.5591   -0.6679   10.7444 H   0  0  0  0  0  0  0  0  0  0  0  0
   10.4357    0.4071    9.3569 H   0  0  0  0  0  0  0  0  0  0  0  0
   11.0009   -1.2854    9.1396 H   0  0  0  0  0  0  0  0  0  0  0  0
    9.8955   -0.2381    7.1672 H   0  0  0  0  0  0  0  0  0  0  0  0
    8.8369    2.3356    3.6538 H   0  0  0  0  0  0  0  0  0  0  0  0
    6.4357    2.9757    3.8457 H   0  0  0  0  0  0  0  0  0  0  0  0
    2.7460    3.1534    6.8077 H   0  0  0  0  0  0  0  0  0  0  0  0
    0.7106    1.8706    7.3220 H   0  0  0  0  0  0  0  0  0  0  0  0
    1.1908   -2.6722    7.3486 H   0  0  0  0  0  0  0  0  0  0  0  0
   -0.9585   -3.8532    7.6508 H   0  0  0  0  0  0  0  0  0  0  0  0
   -3.4212   -3.7884    7.0096 H   0  0  0  0  0  0  0  0  0  0  0  0
   -4.2210   -2.2546    6.7696 H   0  0  0  0  0  0  0  0  0  0  0  0
   -4.0481   -0.5909    8.9580 H   0  0  0  0  0  0  0  0  0  0  0  0
   -4.8096   -0.5640   11.3006 H   0  0  0  0  0  0  0  0  0  0  0  0
   -5.1615   -2.6947   12.5250 H   0  0  0  0  0  0  0  0  0  0  0  0
   -4.7424   -4.8597   11.3858 H   0  0  0  0  0  0  0  0  0  0  0  0
   -3.9644   -4.9060    9.0467 H   0  0  0  0  0  0  0  0  0  0  0  0
    2.5795   -1.6663    5.6846 H   0  0  0  0  0  0  0  0  0  0  0  0
    5.1289    0.6326    7.9595 H   0  0  0  0  0  0  0  0  0  0  0  0
    5.7614   -1.2180   11.6511 H   0  0  0  0  0  0  0  0  0  0  0  0
    7.3650   -0.5842   11.3149 H   0  0  0  0  0  0  0  0  0  0  0  0
    6.9042   -2.2630   10.8009 H   0  0  0  0  0  0  0  0  0  0  0  0
  1  2  1  0  0  0  0
  1 36  1  0  0  0  0
  1 37  1  0  0  0  0
  1 38  1  0  0  0  0
  2  3  1  0  0  0  0
  3  4  1  0  0  0  0
  3 33  2  0  0  0  0
  4  5  2  0  0  0  0
  4 39  1  0  0  0  0
  5  6  1  0  0  0  0
  5 31  1  0  0  0  0
  6  7  2  0  0  0  0
  7  8  1  0  0  0  0
  7 40  1  0  0  0  0
  8  9  2  0  0  0  0
  8 41  1  0  0  0  0
  9 10  1  0  0  0  0
  9 31  1  0  0  0  0
 10 11  1  0  0  0  0
 11 12  1  0  0  0  0
 11 29  2  0  0  0  0
 12 13  2  0  0  0  0
 12 42  1  0  0  0  0
 13 14  1  0  0  0  0
 13 43  1  0  0  0  0
 14 15  1  0  0  0  0
 14 28  2  0  0  0  0
 15 16  1  0  0  0  0
 15 27  2  0  0  0  0
 16 17  2  0  0  0  0
 16 44  1  0  0  0  0
 17 18  1  0  0  0  0
 17 45  1  0  0  0  0
 18 19  1  0  0  0  0
 18 26  2  0  0  0  0
 19 20  1  0  0  0  0
 19 46  1  0  0  0  0
 19 47  1  0  0  0  0
 20 21  1  0  0  0  0
 20 25  2  0  0  0  0
 21 22  2  0  0  0  0
 21 48  1  0  0  0  0
 22 23  1  0  0  0  0
 22 49  1  0  0  0  0
 23 24  2  0  0  0  0
 23 50  1  0  0  0  0
 24 25  1  0  0  0  0
 24 51  1  0  0  0  0
 25 52  1  0  0  0  0
 26 27  1  0  0  0  0
 28 29  1  0  0  0  0
 28 53  1  0  0  0  0
 29 30  1  0  0  0  0
 31 32  2  0  0  0  0
 32 33  1  0  0  0  0
 32 54  1  0  0  0  0
 33 34  1  0  0  0  0
 34 35  1  0  0  0  0
 35 55  1  0  0  0  0
 35 56  1  0  0  0  0
 35 57  1  0  0  0  0
M  END
$$$$
