CHEMBL3354188
 OpenBabel04072215363D

 53 56  0  0  0  0  0  0  0  0999 V2000
    0.9538   -0.5013   -1.9469 C   0  0  0  0  0  0  0  0  0  0  0  0
    1.4048    0.5478   -1.1047 O   0  0  0  0  0  0  0  0  0  0  0  0
    1.2550    1.8665   -1.6509 C   0  0  0  0  0  0  0  0  0  0  0  0
    2.0796    2.0905   -2.9232 C   0  0  0  0  0  0  0  0  0  0  0  0
    3.5711    1.9350   -2.6351 C   0  0  0  0  0  0  0  0  0  0  0  0
    3.9619    2.8167   -1.5427 N   0  0  0  0  0  0  0  0  0  0  0  0
    4.6806    3.9572   -1.8197 C   0  0  0  0  0  0  0  0  0  0  0  0
    4.6776    4.9729   -0.9473 N   0  0  0  0  0  0  0  0  0  0  0  0
    5.4397    6.0404   -1.2379 C   0  0  0  0  0  0  0  0  0  0  0  0
    6.2200    6.1337   -2.3621 C   0  0  0  0  0  0  0  0  0  0  0  0
    6.1952    5.0481   -3.2055 C   0  0  0  0  0  0  0  0  0  0  0  0
    7.0801    5.0235   -4.2950 N   0  0  0  0  0  0  0  0  0  0  0  0
    7.5103    3.9378   -5.0658 C   0  0  0  0  0  0  0  0  0  0  0  0
    7.4977    2.6323   -4.5721 C   0  0  0  0  0  0  0  0  0  0  0  0
    7.9724    1.6157   -5.4041 C   0  0  0  0  0  0  0  0  0  0  0  0
    8.4744    1.9208   -6.6701 C   0  0  0  0  0  0  0  0  0  0  0  0
    8.8837    0.6974   -7.2623 C   0  0  0  0  0  0  0  0  0  0  0  0
    8.6135   -0.3124   -6.3679 C   0  0  0  0  0  0  0  0  0  0  0  0
    8.0688    0.2469   -5.2343 N   0  0  0  0  0  0  0  0  0  0  0  0
    7.6603   -0.5437   -4.0705 C   0  0  0  0  0  0  0  0  0  0  0  0
    8.4540   -0.2033   -2.8091 C   0  0  0  0  0  0  0  0  0  0  0  0
    6.1542   -0.4940   -3.8225 C   0  0  0  0  0  0  0  0  0  0  0  0
    8.4869    3.2576   -7.0844 C   0  0  0  0  0  0  0  0  0  0  0  0
    8.0050    4.2433   -6.2835 N   0  0  0  0  0  0  0  0  0  0  0  0
    5.4161    3.9855   -2.9402 N   0  0  0  0  0  0  0  0  0  0  0  0
    3.2102    2.6987   -0.3002 C   0  0  0  0  0  0  0  0  0  0  0  0
    1.7144    2.8577   -0.5740 C   0  0  0  0  0  0  0  0  0  0  0  0
    0.9373   -1.4231   -1.3606 H   0  0  0  0  0  0  0  0  0  0  0  0
    1.6460   -0.6497   -2.7801 H   0  0  0  0  0  0  0  0  0  0  0  0
   -0.0561   -0.3026   -2.3191 H   0  0  0  0  0  0  0  0  0  0  0  0
    0.1918    2.0357   -1.8593 H   0  0  0  0  0  0  0  0  0  0  0  0
    1.8832    3.0993   -3.3086 H   0  0  0  0  0  0  0  0  0  0  0  0
    1.7887    1.3885   -3.7113 H   0  0  0  0  0  0  0  0  0  0  0  0
    4.1260    2.1102   -3.5634 H   0  0  0  0  0  0  0  0  0  0  0  0
    3.7835    0.8991   -2.3454 H   0  0  0  0  0  0  0  0  0  0  0  0
    5.4197    6.8360   -0.4999 H   0  0  0  0  0  0  0  0  0  0  0  0
    6.8498    6.9937   -2.5428 H   0  0  0  0  0  0  0  0  0  0  0  0
    7.1092    5.8650   -4.8534 H   0  0  0  0  0  0  0  0  0  0  0  0
    7.1313    2.4213   -3.5777 H   0  0  0  0  0  0  0  0  0  0  0  0
    9.3241    0.5676   -8.2419 H   0  0  0  0  0  0  0  0  0  0  0  0
    8.7663   -1.3811   -6.4465 H   0  0  0  0  0  0  0  0  0  0  0  0
    7.8997   -1.5860   -4.3208 H   0  0  0  0  0  0  0  0  0  0  0  0
    8.3012    0.8289   -2.4829 H   0  0  0  0  0  0  0  0  0  0  0  0
    9.5271   -0.3434   -2.9763 H   0  0  0  0  0  0  0  0  0  0  0  0
    8.1548   -0.8554   -1.9807 H   0  0  0  0  0  0  0  0  0  0  0  0
    5.8345    0.5005   -3.5094 H   0  0  0  0  0  0  0  0  0  0  0  0
    5.8699   -1.1958   -3.0305 H   0  0  0  0  0  0  0  0  0  0  0  0
    5.5928   -0.7597   -4.7245 H   0  0  0  0  0  0  0  0  0  0  0  0
    8.8743    3.5684   -8.0479 H   0  0  0  0  0  0  0  0  0  0  0  0
    3.5271    3.4125    0.4685 H   0  0  0  0  0  0  0  0  0  0  0  0
    3.4035    1.7070    0.1285 H   0  0  0  0  0  0  0  0  0  0  0  0
    1.5043    3.8833   -0.9016 H   0  0  0  0  0  0  0  0  0  0  0  0
    1.1638    2.6834    0.3572 H   0  0  0  0  0  0  0  0  0  0  0  0
  1  2  1  0  0  0  0
  1 28  1  0  0  0  0
  1 29  1  0  0  0  0
  1 30  1  0  0  0  0
  2  3  1  0  0  0  0
  3  4  1  0  0  0  0
  3 27  1  0  0  0  0
  3 31  1  0  0  0  0
  4  5  1  0  0  0  0
  4 32  1  0  0  0  0
  4 33  1  0  0  0  0
  5  6  1  0  0  0  0
  5 34  1  0  0  0  0
  5 35  1  0  0  0  0
  6  7  1  0  0  0  0
  6 26  1  0  0  0  0
  7  8  1  0  0  0  0
  7 25  2  0  0  0  0
  8  9  2  0  0  0  0
  9 10  1  0  0  0  0
  9 36  1  0  0  0  0
 10 11  2  0  0  0  0
 10 37  1  0  0  0  0
 11 12  1  0  0  0  0
 11 25  1  0  0  0  0
 12 13  1  0  0  0  0
 12 38  1  0  0  0  0
 13 14  1  0  0  0  0
 13 24  2  0  0  0  0
 14 15  2  0  0  0  0
 14 39  1  0  0  0  0
 15 16  1  0  0  0  0
 15 19  1  0  0  0  0
 16 17  1  0  0  0  0
 16 23  2  0  0  0  0
 17 18  2  0  0  0  0
 17 40  1  0  0  0  0
 18 19  1  0  0  0  0
 18 41  1  0  0  0  0
 19 20  1  0  0  0  0
 20 21  1  0  0  0  0
 20 22  1  0  0  0  0
 20 42  1  0  0  0  0
 21 43  1  0  0  0  0
 21 44  1  0  0  0  0
 21 45  1  0  0  0  0
 22 46  1  0  0  0  0
 22 47  1  0  0  0  0
 22 48  1  0  0  0  0
 23 24  1  0  0  0  0
 23 49  1  0  0  0  0
 26 27  1  0  0  0  0
 26 50  1  0  0  0  0
 26 51  1  0  0  0  0
 27 52  1  0  0  0  0
 27 53  1  0  0  0  0
M  END
$$$$
