CHEMBL1173411
 OpenBabel04072215363D

 52 55  0  0  0  0  0  0  0  0999 V2000
   13.2454   -2.0419    4.4274 C   0  0  0  0  0  0  0  0  0  0  0  0
   11.9951   -1.4071    4.1686 O   0  0  0  0  0  0  0  0  0  0  0  0
   10.9174   -2.2348    4.0131 C   0  0  0  0  0  0  0  0  0  0  0  0
   10.9554   -3.6206    4.0840 C   0  0  0  0  0  0  0  0  0  0  0  0
    9.7869   -4.3687    3.9189 C   0  0  0  0  0  0  0  0  0  0  0  0
    8.5551   -3.7588    3.6841 C   0  0  0  0  0  0  0  0  0  0  0  0
    7.3588   -4.4888    3.5086 N   0  0  0  0  0  0  0  0  0  0  0  0
    7.2192   -5.8618    3.6416 C   0  0  0  0  0  0  0  0  0  0  0  0
    8.0903   -6.6340    4.0240 O   0  0  0  0  0  0  0  0  0  0  0  0
    5.9649   -6.2964    3.2340 N   0  0  0  0  0  0  0  0  0  0  0  0
    5.6530   -7.6787    3.2346 C   0  0  0  0  0  0  0  0  0  0  0  0
    5.0794   -8.2133    2.0680 C   0  0  0  0  0  0  0  0  0  0  0  0
    4.7979   -9.5782    1.9716 C   0  0  0  0  0  0  0  0  0  0  0  0
    5.0498  -10.3843    3.0700 C   0  0  0  0  0  0  0  0  0  0  0  0
    5.6050   -9.8499    4.2317 C   0  0  0  0  0  0  0  0  0  0  0  0
    5.9235   -8.5062    4.3388 C   0  0  0  0  0  0  0  0  0  0  0  0
    5.7627  -10.8513    5.1905 N   0  0  0  0  0  0  0  0  0  0  0  0
    5.3192  -12.0839    4.7244 C   0  0  0  0  0  0  0  0  0  0  0  0
    5.3376  -13.1482    5.3112 O   0  0  0  0  0  0  0  0  0  0  0  0
    4.8205  -11.8164    3.3282 C   0  0  0  0  0  0  0  0  0  0  0  0
    4.2175  -12.5971    2.4219 C   0  0  0  0  0  0  0  0  0  0  0  0
    3.8085  -13.9541    2.4882 C   0  0  0  0  0  0  0  0  0  0  0  0
    4.1558  -14.7950    3.5098 N   0  0  0  0  0  0  0  0  0  0  0  0
    3.6058  -16.0385    3.2931 C   0  0  0  0  0  0  0  0  0  0  0  0
    2.8827  -16.0185    2.1080 C   0  0  0  0  0  0  0  0  0  0  0  0
    2.1328  -17.1271    1.4978 C   0  0  0  0  0  0  0  0  0  0  0  0
    1.5650  -17.0581    0.4176 O   0  0  0  0  0  0  0  0  0  0  0  0
    2.0951  -18.2790    2.2192 O   0  0  0  0  0  0  0  0  0  0  0  0
    3.0185  -14.6777    1.5980 C   0  0  0  0  0  0  0  0  0  0  0  0
    2.4128  -14.1114    0.3528 C   0  0  0  0  0  0  0  0  0  0  0  0
    8.5179   -2.3591    3.6017 C   0  0  0  0  0  0  0  0  0  0  0  0
    9.6912   -1.6091    3.7675 C   0  0  0  0  0  0  0  0  0  0  0  0
   13.9936   -1.2632    4.6016 H   0  0  0  0  0  0  0  0  0  0  0  0
   13.5708   -2.6315    3.5628 H   0  0  0  0  0  0  0  0  0  0  0  0
   13.2022   -2.6614    5.3303 H   0  0  0  0  0  0  0  0  0  0  0  0
   11.8733   -4.1678    4.2667 H   0  0  0  0  0  0  0  0  0  0  0  0
    9.8940   -5.4452    3.9854 H   0  0  0  0  0  0  0  0  0  0  0  0
    6.5092   -3.9532    3.3777 H   0  0  0  0  0  0  0  0  0  0  0  0
    5.5723   -5.7537    2.4783 H   0  0  0  0  0  0  0  0  0  0  0  0
    4.9018   -7.5843    1.1997 H   0  0  0  0  0  0  0  0  0  0  0  0
    4.3982   -9.9799    1.0475 H   0  0  0  0  0  0  0  0  0  0  0  0
    6.3600   -8.1058    5.2472 H   0  0  0  0  0  0  0  0  0  0  0  0
    6.1600  -10.7183    6.1118 H   0  0  0  0  0  0  0  0  0  0  0  0
    3.9493  -12.1240    1.4813 H   0  0  0  0  0  0  0  0  0  0  0  0
    4.7197  -14.5387    4.3173 H   0  0  0  0  0  0  0  0  0  0  0  0
    3.7946  -16.8140    4.0215 H   0  0  0  0  0  0  0  0  0  0  0  0
    2.5624  -18.1995    3.0678 H   0  0  0  0  0  0  0  0  0  0  0  0
    1.9124  -14.8545   -0.2672 H   0  0  0  0  0  0  0  0  0  0  0  0
    3.1861  -13.6437   -0.2663 H   0  0  0  0  0  0  0  0  0  0  0  0
    1.6753  -13.3454    0.6163 H   0  0  0  0  0  0  0  0  0  0  0  0
    7.5865   -1.8309    3.4125 H   0  0  0  0  0  0  0  0  0  0  0  0
    9.6524   -0.5223    3.7037 H   0  0  0  0  0  0  0  0  0  0  0  0
  1  2  1  0  0  0  0
  1 33  1  0  0  0  0
  1 34  1  0  0  0  0
  1 35  1  0  0  0  0
  2  3  1  0  0  0  0
  3  4  1  0  0  0  0
  3 32  2  0  0  0  0
  4  5  2  0  0  0  0
  4 36  1  0  0  0  0
  5  6  1  0  0  0  0
  5 37  1  0  0  0  0
  6  7  1  0  0  0  0
  6 31  2  0  0  0  0
  7  8  1  0  0  0  0
  7 38  1  0  0  0  0
  8  9  2  0  0  0  0
  8 10  1  0  0  0  0
 10 11  1  0  0  0  0
 10 39  1  0  0  0  0
 11 12  1  0  0  0  0
 11 16  2  0  0  0  0
 12 13  2  0  0  0  0
 12 40  1  0  0  0  0
 13 14  1  0  0  0  0
 13 41  1  0  0  0  0
 14 15  2  0  0  0  0
 14 20  1  0  0  0  0
 15 16  1  0  0  0  0
 15 17  1  0  0  0  0
 16 42  1  0  0  0  0
 17 18  1  0  0  0  0
 17 43  1  0  0  0  0
 18 19  2  0  0  0  0
 18 20  1  0  0  0  0
 20 21  2  0  0  0  0
 21 22  1  0  0  0  0
 21 44  1  0  0  0  0
 22 23  1  0  0  0  0
 22 29  2  0  0  0  0
 23 24  1  0  0  0  0
 23 45  1  0  0  0  0
 24 25  2  0  0  0  0
 24 46  1  0  0  0  0
 25 26  1  0  0  0  0
 25 29  1  0  0  0  0
 26 27  2  0  0  0  0
 26 28  1  0  0  0  0
 28 47  1  0  0  0  0
 29 30  1  0  0  0  0
 30 48  1  0  0  0  0
 30 49  1  0  0  0  0
 30 50  1  0  0  0  0
 31 32  1  0  0  0  0
 31 51  1  0  0  0  0
 32 52  1  0  0  0  0
M  END
$$$$
