CHEMBL3671569
 OpenBabel04072215373D

 55 58  0  0  0  0  0  0  0  0999 V2000
    3.4702    2.8271    2.8019 C   0  0  0  0  0  0  0  0  0  0  0  0
    3.4906    1.4899    2.7381 C   0  0  0  0  0  0  0  0  0  0  0  0
    3.6382    0.8274    1.4180 C   0  0  0  0  0  0  0  0  0  0  0  0
    3.2029    1.3270    0.3826 O   0  0  0  0  0  0  0  0  0  0  0  0
    4.3317   -0.3585    1.3765 N   0  0  0  0  0  0  0  0  0  0  0  0
    5.1787   -0.7827    2.4183 C   0  0  0  0  0  0  0  0  0  0  0  0
    6.3180   -0.0207    2.6854 C   0  0  0  0  0  0  0  0  0  0  0  0
    7.0454   -0.2210    3.8798 C   0  0  0  0  0  0  0  0  0  0  0  0
    8.1069    0.5889    4.3128 C   0  0  0  0  0  0  0  0  0  0  0  0
    8.4815    1.7363    3.5641 N   0  0  0  0  0  0  0  0  0  0  0  0
    9.2407    2.8061    4.0955 C   0  0  0  0  0  0  0  0  0  0  0  0
    8.9614    3.3281    5.3670 C   0  0  0  0  0  0  0  0  0  0  0  0
    9.7749    4.3103    5.9339 C   0  0  0  0  0  0  0  0  0  0  0  0
   10.8655    4.7970    5.2169 C   0  0  0  0  0  0  0  0  0  0  0  0
   12.0172    6.0619    6.0215 Br  0  0  0  0  0  0  0  0  0  0  0  0
   11.1238    4.3443    3.9259 C   0  0  0  0  0  0  0  0  0  0  0  0
   10.3038    3.3628    3.3741 C   0  0  0  0  0  0  0  0  0  0  0  0
   10.5666    2.9136    2.1367 F   0  0  0  0  0  0  0  0  0  0  0  0
    8.7459    0.3507    5.4743 N   0  0  0  0  0  0  0  0  0  0  0  0
    8.3128   -0.6684    6.2123 C   0  0  0  0  0  0  0  0  0  0  0  0
    7.2850   -1.4684    5.9180 N   0  0  0  0  0  0  0  0  0  0  0  0
    6.6537   -1.2362    4.7640 C   0  0  0  0  0  0  0  0  0  0  0  0
    5.5469   -2.0181    4.4460 C   0  0  0  0  0  0  0  0  0  0  0  0
    4.8103   -1.8254    3.2734 C   0  0  0  0  0  0  0  0  0  0  0  0
    3.7397   -2.6728    3.1225 O   0  0  0  0  0  0  0  0  0  0  0  0
    3.4161   -3.0174    1.7681 C   0  0  0  0  0  0  0  0  0  0  0  0
    2.8634   -4.4447    1.6946 C   0  0  0  0  0  0  0  0  0  0  0  0
    2.6176   -4.8580    0.3215 N   0  0  0  0  0  0  0  0  0  0  0  0
    3.6484   -5.2640   -0.4956 C   0  0  0  0  0  0  0  0  0  0  0  0
    4.8005   -5.3857   -0.0820 O   0  0  0  0  0  0  0  0  0  0  0  0
    3.3074   -5.5115   -1.8812 C   0  0  0  0  0  0  0  0  0  0  0  0
    2.1400   -5.3474   -2.6097 C   0  0  0  0  0  0  0  0  0  0  0  0
    2.4008   -5.7259   -3.9531 C   0  0  0  0  0  0  0  0  0  0  0  0
    3.7155   -6.1214   -4.0191 C   0  0  0  0  0  0  0  0  0  0  0  0
    4.2530   -5.9907   -2.7680 N   0  0  0  0  0  0  0  0  0  0  0  0
    3.4323    3.3389    3.7566 H   0  0  0  0  0  0  0  0  0  0  0  0
    3.5194    3.4367    1.9028 H   0  0  0  0  0  0  0  0  0  0  0  0
    3.4643    0.8843    3.6347 H   0  0  0  0  0  0  0  0  0  0  0  0
    4.6645   -0.5182    0.4317 H   0  0  0  0  0  0  0  0  0  0  0  0
    6.5937    0.7861    2.0087 H   0  0  0  0  0  0  0  0  0  0  0  0
    8.7965    1.4734    2.6333 H   0  0  0  0  0  0  0  0  0  0  0  0
    8.1198    2.9436    5.9398 H   0  0  0  0  0  0  0  0  0  0  0  0
    9.5588    4.6656    6.9377 H   0  0  0  0  0  0  0  0  0  0  0  0
   11.9623    4.7229    3.3517 H   0  0  0  0  0  0  0  0  0  0  0  0
    8.8377   -0.8571    7.1423 H   0  0  0  0  0  0  0  0  0  0  0  0
    5.2334   -2.7856    5.1508 H   0  0  0  0  0  0  0  0  0  0  0  0
    4.2969   -2.9576    1.1196 H   0  0  0  0  0  0  0  0  0  0  0  0
    2.6490   -2.3243    1.4041 H   0  0  0  0  0  0  0  0  0  0  0  0
    1.9162   -4.5182    2.2446 H   0  0  0  0  0  0  0  0  0  0  0  0
    3.5637   -5.1413    2.1638 H   0  0  0  0  0  0  0  0  0  0  0  0
    1.7011   -4.7173   -0.0757 H   0  0  0  0  0  0  0  0  0  0  0  0
    1.1942   -4.9806   -2.2376 H   0  0  0  0  0  0  0  0  0  0  0  0
    1.7046   -5.7071   -4.7824 H   0  0  0  0  0  0  0  0  0  0  0  0
    4.3143   -6.4817   -4.8449 H   0  0  0  0  0  0  0  0  0  0  0  0
    5.2058   -6.2005   -2.5033 H   0  0  0  0  0  0  0  0  0  0  0  0
  1  2  2  0  0  0  0
  1 36  1  0  0  0  0
  1 37  1  0  0  0  0
  2  3  1  0  0  0  0
  2 38  1  0  0  0  0
  3  4  2  0  0  0  0
  3  5  1  0  0  0  0
  5  6  1  0  0  0  0
  5 39  1  0  0  0  0
  6  7  1  0  0  0  0
  6 24  2  0  0  0  0
  7  8  2  0  0  0  0
  7 40  1  0  0  0  0
  8  9  1  0  0  0  0
  8 22  1  0  0  0  0
  9 10  1  0  0  0  0
  9 19  2  0  0  0  0
 10 11  1  0  0  0  0
 10 41  1  0  0  0  0
 11 12  1  0  0  0  0
 11 17  2  0  0  0  0
 12 13  2  0  0  0  0
 12 42  1  0  0  0  0
 13 14  1  0  0  0  0
 13 43  1  0  0  0  0
 14 15  1  0  0  0  0
 14 16  2  0  0  0  0
 16 17  1  0  0  0  0
 16 44  1  0  0  0  0
 17 18  1  0  0  0  0
 19 20  1  0  0  0  0
 20 21  2  0  0  0  0
 20 45  1  0  0  0  0
 21 22  1  0  0  0  0
 22 23  2  0  0  0  0
 23 24  1  0  0  0  0
 23 46  1  0  0  0  0
 24 25  1  0  0  0  0
 25 26  1  0  0  0  0
 26 27  1  0  0  0  0
 26 47  1  0  0  0  0
 26 48  1  0  0  0  0
 27 28  1  0  0  0  0
 27 49  1  0  0  0  0
 27 50  1  0  0  0  0
 28 29  1  0  0  0  0
 28 51  1  0  0  0  0
 29 30  2  0  0  0  0
 29 31  1  0  0  0  0
 31 32  2  0  0  0  0
 31 35  1  0  0  0  0
 32 33  1  0  0  0  0
 32 52  1  0  0  0  0
 33 34  2  0  0  0  0
 33 53  1  0  0  0  0
 34 35  1  0  0  0  0
 34 54  1  0  0  0  0
 35 55  1  0  0  0  0
M  END
$$$$
