CHEMBL375311
 OpenBabel04072215373D

 74 80  0  0  0  0  0  0  0  0999 V2000
    3.3309   -0.9488   -0.6009 C   0  0  0  0  0  0  0  0  0  0  0  0
    3.0531    0.3687    0.1053 C   0  0  0  0  0  0  0  0  0  0  0  0
    3.6362    0.4603    1.5273 C   0  0  0  0  0  0  0  0  0  0  0  0
    5.0881    0.5919    1.6160 N   0  0  0  0  0  0  0  0  0  0  0  0
    5.7713    1.8236    1.4897 C   0  0  0  0  0  0  0  0  0  0  0  0
    5.3100    3.1376    1.3109 C   0  0  0  0  0  0  0  0  0  0  0  0
    6.2571    4.1723    1.1504 C   0  0  0  0  0  0  0  0  0  0  0  0
    7.6354    3.9440    1.1808 C   0  0  0  0  0  0  0  0  0  0  0  0
    8.6306    4.9519    1.0359 N   0  0  0  0  0  0  0  0  0  0  0  0
    8.4084    6.2899    0.7726 C   0  0  0  0  0  0  0  0  0  0  0  0
    7.2945    6.7711    0.5966 O   0  0  0  0  0  0  0  0  0  0  0  0
    9.5943    7.0316    0.7215 N   0  0  0  0  0  0  0  0  0  0  0  0
    9.6011    8.4497    0.5897 C   0  0  0  0  0  0  0  0  0  0  0  0
    8.5101    9.2257    0.9711 C   0  0  0  0  0  0  0  0  0  0  0  0
    8.4548   10.5943    0.6872 C   0  0  0  0  0  0  0  0  0  0  0  0
    9.4875   11.2676    0.0279 C   0  0  0  0  0  0  0  0  0  0  0  0
    9.3479   12.5833   -0.3915 N   0  0  0  0  0  0  0  0  0  0  0  0
   10.4826   13.4937   -0.4879 C   0  0  0  0  0  0  0  0  0  0  0  0
    8.0410   13.2433   -0.4221 C   0  0  0  0  0  0  0  0  0  0  0  0
   10.6363   10.4958   -0.2364 C   0  0  0  0  0  0  0  0  0  0  0  0
   10.7016    9.1120    0.0473 C   0  0  0  0  0  0  0  0  0  0  0  0
    8.0770    2.6306    1.3513 C   0  0  0  0  0  0  0  0  0  0  0  0
    7.1498    1.5702    1.4718 C   0  0  0  0  0  0  0  0  0  0  0  0
    7.1805    0.1905    1.4727 C   0  0  0  0  0  0  0  0  0  0  0  0
    8.2868   -0.5326    1.0069 C   0  0  0  0  0  0  0  0  0  0  0  0
    8.0101   -1.8381    0.5631 C   0  0  0  0  0  0  0  0  0  0  0  0
    6.7633   -2.4690    0.6891 C   0  0  0  0  0  0  0  0  0  0  0  0
    5.9625   -1.8789    1.7321 C   0  0  0  0  0  0  0  0  0  0  0  0
    6.0043   -0.4607    1.7250 C   0  0  0  0  0  0  0  0  0  0  0  0
    6.0336   -2.7597    3.0660 C   0  0  0  0  0  0  0  0  0  0  0  0
    7.1106   -3.9313    3.0277 C   0  0  0  0  0  0  0  0  0  0  0  0
    6.8782   -4.6703    1.7565 C   0  0  0  0  0  0  0  0  0  0  0  0
    6.4864   -5.9355    1.6110 N   0  0  0  0  0  0  0  0  0  0  0  0
    5.9594   -5.9361    0.3600 N   0  0  0  0  0  0  0  0  0  0  0  0
    5.2676   -7.1062   -0.1245 C   0  0  0  0  0  0  0  0  0  0  0  0
    5.9389   -4.6936   -0.2277 C   0  0  0  0  0  0  0  0  0  0  0  0
    6.6967   -3.9019    0.5955 C   0  0  0  0  0  0  0  0  0  0  0  0
    9.2674   -2.4063    0.1282 C   0  0  0  0  0  0  0  0  0  0  0  0
    9.5852   -3.5103   -0.2852 O   0  0  0  0  0  0  0  0  0  0  0  0
   10.1990   -1.4016    0.3319 N   0  0  0  0  0  0  0  0  0  0  0  0
    9.6822   -0.1542    0.8333 C   0  0  0  0  0  0  0  0  0  0  0  0
    2.8646   -0.9507   -1.5945 H   0  0  0  0  0  0  0  0  0  0  0  0
    2.9133   -1.7914   -0.0398 H   0  0  0  0  0  0  0  0  0  0  0  0
    4.3999   -1.1108   -0.7426 H   0  0  0  0  0  0  0  0  0  0  0  0
    1.9623    0.4845    0.1708 H   0  0  0  0  0  0  0  0  0  0  0  0
    3.4136    1.1944   -0.5194 H   0  0  0  0  0  0  0  0  0  0  0  0
    3.3270   -0.3943    2.1368 H   0  0  0  0  0  0  0  0  0  0  0  0
    3.2151    1.3537    2.0048 H   0  0  0  0  0  0  0  0  0  0  0  0
    4.2508    3.3713    1.2574 H   0  0  0  0  0  0  0  0  0  0  0  0
    5.8563    5.1695    0.9969 H   0  0  0  0  0  0  0  0  0  0  0  0
    9.5930    4.6623    1.1379 H   0  0  0  0  0  0  0  0  0  0  0  0
   10.4360    6.5452    0.4444 H   0  0  0  0  0  0  0  0  0  0  0  0
    7.6523    8.7925    1.4761 H   0  0  0  0  0  0  0  0  0  0  0  0
    7.5484   11.1085    0.9890 H   0  0  0  0  0  0  0  0  0  0  0  0
   11.4611   13.0146   -0.4214 H   0  0  0  0  0  0  0  0  0  0  0  0
   10.4293   14.2364    0.3167 H   0  0  0  0  0  0  0  0  0  0  0  0
   10.4413   14.0324   -1.4415 H   0  0  0  0  0  0  0  0  0  0  0  0
    7.1921   12.5545   -0.4735 H   0  0  0  0  0  0  0  0  0  0  0  0
    7.9652   13.8691   -1.3189 H   0  0  0  0  0  0  0  0  0  0  0  0
    7.9176   13.8893    0.4541 H   0  0  0  0  0  0  0  0  0  0  0  0
   11.4911   10.9412   -0.7338 H   0  0  0  0  0  0  0  0  0  0  0  0
   11.6058    8.5730   -0.2229 H   0  0  0  0  0  0  0  0  0  0  0  0
    9.1378    2.4172    1.3630 H   0  0  0  0  0  0  0  0  0  0  0  0
    5.0479   -3.2154    3.2158 H   0  0  0  0  0  0  0  0  0  0  0  0
    6.2595   -2.1148    3.9220 H   0  0  0  0  0  0  0  0  0  0  0  0
    7.0541   -4.5854    3.9013 H   0  0  0  0  0  0  0  0  0  0  0  0
    8.1256   -3.5035    3.0078 H   0  0  0  0  0  0  0  0  0  0  0  0
    5.4839   -7.9550    0.5288 H   0  0  0  0  0  0  0  0  0  0  0  0
    5.6109   -7.3170   -1.1398 H   0  0  0  0  0  0  0  0  0  0  0  0
    4.1954   -6.8926   -0.1187 H   0  0  0  0  0  0  0  0  0  0  0  0
    5.3507   -4.4881   -1.1111 H   0  0  0  0  0  0  0  0  0  0  0  0
   11.1735   -1.6028    0.1824 H   0  0  0  0  0  0  0  0  0  0  0  0
    9.8200    0.6141    0.0722 H   0  0  0  0  0  0  0  0  0  0  0  0
   10.1654    0.0974    1.7802 H   0  0  0  0  0  0  0  0  0  0  0  0
  1  2  1  0  0  0  0
  1 42  1  0  0  0  0
  1 43  1  0  0  0  0
  1 44  1  0  0  0  0
  2  3  1  0  0  0  0
  2 45  1  0  0  0  0
  2 46  1  0  0  0  0
  3  4  1  0  0  0  0
  3 47  1  0  0  0  0
  3 48  1  0  0  0  0
  4  5  1  0  0  0  0
  4 29  1  0  0  0  0
  5  6  1  0  0  0  0
  5 23  2  0  0  0  0
  6  7  2  0  0  0  0
  6 49  1  0  0  0  0
  7  8  1  0  0  0  0
  7 50  1  0  0  0  0
  8  9  1  0  0  0  0
  8 22  2  0  0  0  0
  9 10  1  0  0  0  0
  9 51  1  0  0  0  0
 10 11  2  0  0  0  0
 10 12  1  0  0  0  0
 12 13  1  0  0  0  0
 12 52  1  0  0  0  0
 13 14  1  0  0  0  0
 13 21  2  0  0  0  0
 14 15  2  0  0  0  0
 14 53  1  0  0  0  0
 15 16  1  0  0  0  0
 15 54  1  0  0  0  0
 16 17  1  0  0  0  0
 16 20  2  0  0  0  0
 17 18  1  0  0  0  0
 17 19  1  0  0  0  0
 18 55  1  0  0  0  0
 18 56  1  0  0  0  0
 18 57  1  0  0  0  0
 19 58  1  0  0  0  0
 19 59  1  0  0  0  0
 19 60  1  0  0  0  0
 20 21  1  0  0  0  0
 20 61  1  0  0  0  0
 21 62  1  0  0  0  0
 22 23  1  0  0  0  0
 22 63  1  0  0  0  0
 23 24  1  0  0  0  0
 24 25  1  0  0  0  0
 24 29  2  0  0  0  0
 25 26  2  0  0  0  0
 25 41  1  0  0  0  0
 26 27  1  0  0  0  0
 26 38  1  0  0  0  0
 27 28  2  0  0  0  0
 27 37  1  0  0  0  0
 28 29  1  0  0  0  0
 28 30  1  0  0  0  0
 30 31  1  0  0  0  0
 30 64  1  0  0  0  0
 30 65  1  0  0  0  0
 31 32  1  0  0  0  0
 31 66  1  0  0  0  0
 31 67  1  0  0  0  0
 32 33  2  0  0  0  0
 32 37  1  0  0  0  0
 33 34  1  0  0  0  0
 34 35  1  0  0  0  0
 34 36  1  0  0  0  0
 35 68  1  0  0  0  0
 35 69  1  0  0  0  0
 35 70  1  0  0  0  0
 36 37  2  0  0  0  0
 36 71  1  0  0  0  0
 38 39  2  0  0  0  0
 38 40  1  0  0  0  0
 40 41  1  0  0  0  0
 40 72  1  0  0  0  0
 41 73  1  0  0  0  0
 41 74  1  0  0  0  0
M  END
$$$$
