CHEMBL181654
 OpenBabel04072215363D

 46 49  0  0  0  0  0  0  0  0999 V2000
    2.0646   -0.3662    2.3792 C   0  0  0  0  0  0  0  0  0  0  0  0
    0.6533   -0.2140    1.8994 C   0  0  0  0  0  0  0  0  0  0  0  0
    0.0537    1.0408    1.9047 C   0  0  0  0  0  0  0  0  0  0  0  0
   -1.2581    1.1975    1.4580 C   0  0  0  0  0  0  0  0  0  0  0  0
   -1.9984    0.1114    0.9832 C   0  0  0  0  0  0  0  0  0  0  0  0
   -3.3277    0.2327    0.5111 N   0  0  0  0  0  0  0  0  0  0  0  0
   -4.0074    1.4225    0.3495 C   0  0  0  0  0  0  0  0  0  0  0  0
   -3.5312    2.5400    0.5416 O   0  0  0  0  0  0  0  0  0  0  0  0
   -5.3325    1.2337   -0.0156 N   0  0  0  0  0  0  0  0  0  0  0  0
   -6.1509    2.3739   -0.2003 C   0  0  0  0  0  0  0  0  0  0  0  0
   -5.7066    3.4683   -0.9447 C   0  0  0  0  0  0  0  0  0  0  0  0
   -6.4443    4.6549   -0.9723 C   0  0  0  0  0  0  0  0  0  0  0  0
   -7.6649    4.7740   -0.2867 C   0  0  0  0  0  0  0  0  0  0  0  0
   -8.4275    6.0460   -0.2989 C   0  0  0  0  0  0  0  0  0  0  0  0
   -8.4621    6.8521   -1.4645 C   0  0  0  0  0  0  0  0  0  0  0  0
   -9.1833    8.0615   -1.5383 C   0  0  0  0  0  0  0  0  0  0  0  0
   -9.9097    8.5135   -0.4452 C   0  0  0  0  0  0  0  0  0  0  0  0
   -9.8653    7.7396    0.6960 C   0  0  0  0  0  0  0  0  0  0  0  0
   -9.1439    6.5394    0.7954 C   0  0  0  0  0  0  0  0  0  0  0  0
   -9.2936    6.0103    2.1887 C   0  0  0  0  0  0  0  0  0  0  0  0
  -10.1388    6.9881    2.8277 N   0  0  0  0  0  0  0  0  0  0  0  0
  -10.5265    7.9959    1.9785 C   0  0  0  0  0  0  0  0  0  0  0  0
  -11.2842    8.9106    2.2273 O   0  0  0  0  0  0  0  0  0  0  0  0
   -8.1256    3.6263    0.3864 C   0  0  0  0  0  0  0  0  0  0  0  0
   -7.3823    2.4394    0.4361 C   0  0  0  0  0  0  0  0  0  0  0  0
   -1.4006   -1.1518    0.9827 C   0  0  0  0  0  0  0  0  0  0  0  0
   -0.0839   -1.3145    1.4393 C   0  0  0  0  0  0  0  0  0  0  0  0
    2.4782    0.5966    2.7039 H   0  0  0  0  0  0  0  0  0  0  0  0
    2.7006   -0.7440    1.5735 H   0  0  0  0  0  0  0  0  0  0  0  0
    2.1027   -1.0476    3.2330 H   0  0  0  0  0  0  0  0  0  0  0  0
    0.5925    1.9197    2.2499 H   0  0  0  0  0  0  0  0  0  0  0  0
   -1.6586    2.2044    1.4993 H   0  0  0  0  0  0  0  0  0  0  0  0
   -3.7626   -0.5977    0.1343 H   0  0  0  0  0  0  0  0  0  0  0  0
   -5.7708    0.4315    0.4140 H   0  0  0  0  0  0  0  0  0  0  0  0
   -4.7581    3.4260   -1.4766 H   0  0  0  0  0  0  0  0  0  0  0  0
   -6.0227    5.4957   -1.5198 H   0  0  0  0  0  0  0  0  0  0  0  0
   -7.9241    6.5403   -2.3595 H   0  0  0  0  0  0  0  0  0  0  0  0
   -9.1724    8.6395   -2.4595 H   0  0  0  0  0  0  0  0  0  0  0  0
  -10.4809    9.4350   -0.4761 H   0  0  0  0  0  0  0  0  0  0  0  0
   -8.3429    5.9598    2.7252 H   0  0  0  0  0  0  0  0  0  0  0  0
   -9.8282    5.0601    2.2303 H   0  0  0  0  0  0  0  0  0  0  0  0
  -10.5260    6.9114    3.7578 H   0  0  0  0  0  0  0  0  0  0  0  0
   -9.0821    3.6289    0.8967 H   0  0  0  0  0  0  0  0  0  0  0  0
   -7.7501    1.6109    1.0337 H   0  0  0  0  0  0  0  0  0  0  0  0
   -1.9389   -2.0264    0.6322 H   0  0  0  0  0  0  0  0  0  0  0  0
    0.3667   -2.3018    1.4301 H   0  0  0  0  0  0  0  0  0  0  0  0
  1  2  1  0  0  0  0
  1 28  1  0  0  0  0
  1 29  1  0  0  0  0
  1 30  1  0  0  0  0
  2  3  1  0  0  0  0
  2 27  2  0  0  0  0
  3  4  2  0  0  0  0
  3 31  1  0  0  0  0
  4  5  1  0  0  0  0
  4 32  1  0  0  0  0
  5  6  1  0  0  0  0
  5 26  2  0  0  0  0
  6  7  1  0  0  0  0
  6 33  1  0  0  0  0
  7  8  2  0  0  0  0
  7  9  1  0  0  0  0
  9 10  1  0  0  0  0
  9 34  1  0  0  0  0
 10 11  1  0  0  0  0
 10 25  2  0  0  0  0
 11 12  2  0  0  0  0
 11 35  1  0  0  0  0
 12 13  1  0  0  0  0
 12 36  1  0  0  0  0
 13 14  1  0  0  0  0
 13 24  2  0  0  0  0
 14 15  1  0  0  0  0
 14 19  2  0  0  0  0
 15 16  2  0  0  0  0
 15 37  1  0  0  0  0
 16 17  1  0  0  0  0
 16 38  1  0  0  0  0
 17 18  2  0  0  0  0
 17 39  1  0  0  0  0
 18 19  1  0  0  0  0
 18 22  1  0  0  0  0
 19 20  1  0  0  0  0
 20 21  1  0  0  0  0
 20 40  1  0  0  0  0
 20 41  1  0  0  0  0
 21 22  1  0  0  0  0
 21 42  1  0  0  0  0
 22 23  2  0  0  0  0
 24 25  1  0  0  0  0
 24 43  1  0  0  0  0
 25 44  1  0  0  0  0
 26 27  1  0  0  0  0
 26 45  1  0  0  0  0
 27 46  1  0  0  0  0
M  END
$$$$
