CHEMBL3780570
 OpenBabel04072215373D

 48 51  0  0  0  0  0  0  0  0999 V2000
   10.7135   -1.7983   -2.0123 C   0  0  0  0  0  0  0  0  0  0  0  0
   10.1577   -1.9178   -0.7076 O   0  0  0  0  0  0  0  0  0  0  0  0
    8.9742   -2.6053   -0.6157 C   0  0  0  0  0  0  0  0  0  0  0  0
    8.2778   -3.1615   -1.6845 C   0  0  0  0  0  0  0  0  0  0  0  0
    7.0786   -3.8530   -1.4726 C   0  0  0  0  0  0  0  0  0  0  0  0
    6.5746   -4.0303   -0.1807 C   0  0  0  0  0  0  0  0  0  0  0  0
    5.2677   -4.7428    0.0891 C   0  0  0  0  0  0  0  0  0  0  0  0
    4.8555   -5.8712   -0.8349 C   0  0  0  0  0  0  0  0  0  0  0  0
    3.9782   -5.5184   -1.7964 N   0  0  0  0  0  0  0  0  0  0  0  0
    3.3487   -6.4771   -2.5406 N   0  0  0  0  0  0  0  0  0  0  0  0
    3.5697   -7.7950   -2.3361 C   0  0  0  0  0  0  0  0  0  0  0  0
    2.7141   -8.7223   -2.9912 N   0  0  0  0  0  0  0  0  0  0  0  0
    2.0513   -8.4993   -4.2242 C   0  0  0  0  0  0  0  0  0  0  0  0
    2.6175   -7.7269   -5.2447 C   0  0  0  0  0  0  0  0  0  0  0  0
    1.9602   -7.5552   -6.4643 C   0  0  0  0  0  0  0  0  0  0  0  0
    0.7379   -8.1833   -6.6922 C   0  0  0  0  0  0  0  0  0  0  0  0
    0.1697   -9.0035   -5.7089 C   0  0  0  0  0  0  0  0  0  0  0  0
   -1.1318   -9.7220   -5.9608 C   0  0  0  0  0  0  0  0  0  0  0  0
   -1.6506   -9.4970   -7.2020 F   0  0  0  0  0  0  0  0  0  0  0  0
   -1.0015  -11.0750   -5.8576 F   0  0  0  0  0  0  0  0  0  0  0  0
   -2.1103   -9.3736   -5.0809 F   0  0  0  0  0  0  0  0  0  0  0  0
    0.8410   -9.1569   -4.4814 C   0  0  0  0  0  0  0  0  0  0  0  0
    4.5447   -8.2135   -1.3951 C   0  0  0  0  0  0  0  0  0  0  0  0
    4.8887   -9.5721   -1.1500 C   0  0  0  0  0  0  0  0  0  0  0  0
    5.8955   -9.9323   -0.2525 C   0  0  0  0  0  0  0  0  0  0  0  0
    6.5793   -8.9482    0.4447 C   0  0  0  0  0  0  0  0  0  0  0  0
    6.2397   -7.6087    0.2596 C   0  0  0  0  0  0  0  0  0  0  0  0
    5.2289   -7.2133   -0.6502 C   0  0  0  0  0  0  0  0  0  0  0  0
    7.2636   -3.4317    0.8892 C   0  0  0  0  0  0  0  0  0  0  0  0
    8.4569   -2.7303    0.6750 C   0  0  0  0  0  0  0  0  0  0  0  0
   11.6721   -1.2779   -1.9294 H   0  0  0  0  0  0  0  0  0  0  0  0
   10.0623   -1.1999   -2.6584 H   0  0  0  0  0  0  0  0  0  0  0  0
   10.9094   -2.7824   -2.4522 H   0  0  0  0  0  0  0  0  0  0  0  0
    8.6310   -3.0726   -2.7068 H   0  0  0  0  0  0  0  0  0  0  0  0
    6.5435   -4.2396   -2.3380 H   0  0  0  0  0  0  0  0  0  0  0  0
    4.4750   -3.9827    0.0736 H   0  0  0  0  0  0  0  0  0  0  0  0
    5.2695   -5.1303    1.1163 H   0  0  0  0  0  0  0  0  0  0  0  0
    3.0664   -9.6685   -2.9685 H   0  0  0  0  0  0  0  0  0  0  0  0
    3.5813   -7.2440   -5.1010 H   0  0  0  0  0  0  0  0  0  0  0  0
    2.4074   -6.9315   -7.2342 H   0  0  0  0  0  0  0  0  0  0  0  0
    0.2326   -8.0295   -7.6454 H   0  0  0  0  0  0  0  0  0  0  0  0
    0.3926   -9.7756   -3.7021 H   0  0  0  0  0  0  0  0  0  0  0  0
    4.3902  -10.3856   -1.6710 H   0  0  0  0  0  0  0  0  0  0  0  0
    6.1529  -10.9803   -0.1087 H   0  0  0  0  0  0  0  0  0  0  0  0
    7.3782   -9.2194    1.1308 H   0  0  0  0  0  0  0  0  0  0  0  0
    6.8021   -6.8664    0.8236 H   0  0  0  0  0  0  0  0  0  0  0  0
    6.8725   -3.4959    1.9024 H   0  0  0  0  0  0  0  0  0  0  0  0
    8.9728   -2.2726    1.5131 H   0  0  0  0  0  0  0  0  0  0  0  0
  1  2  1  0  0  0  0
  1 31  1  0  0  0  0
  1 32  1  0  0  0  0
  1 33  1  0  0  0  0
  2  3  1  0  0  0  0
  3  4  1  0  0  0  0
  3 30  2  0  0  0  0
  4  5  2  0  0  0  0
  4 34  1  0  0  0  0
  5  6  1  0  0  0  0
  5 35  1  0  0  0  0
  6  7  1  0  0  0  0
  6 29  2  0  0  0  0
  7  8  1  0  0  0  0
  7 36  1  0  0  0  0
  7 37  1  0  0  0  0
  8  9  1  0  0  0  0
  8 28  2  0  0  0  0
  9 10  2  0  0  0  0
 10 11  1  0  0  0  0
 11 12  1  0  0  0  0
 11 23  2  0  0  0  0
 12 13  1  0  0  0  0
 12 38  1  0  0  0  0
 13 14  1  0  0  0  0
 13 22  2  0  0  0  0
 14 15  2  0  0  0  0
 14 39  1  0  0  0  0
 15 16  1  0  0  0  0
 15 40  1  0  0  0  0
 16 17  2  0  0  0  0
 16 41  1  0  0  0  0
 17 18  1  0  0  0  0
 17 22  1  0  0  0  0
 18 19  1  0  0  0  0
 18 20  1  0  0  0  0
 18 21  1  0  0  0  0
 22 42  1  0  0  0  0
 23 24  1  0  0  0  0
 23 28  1  0  0  0  0
 24 25  2  0  0  0  0
 24 43  1  0  0  0  0
 25 26  1  0  0  0  0
 25 44  1  0  0  0  0
 26 27  2  0  0  0  0
 26 45  1  0  0  0  0
 27 28  1  0  0  0  0
 27 46  1  0  0  0  0
 29 30  1  0  0  0  0
 29 47  1  0  0  0  0
 30 48  1  0  0  0  0
M  END
$$$$
