CHEMBL2071275
 OpenBabel04072215363D

 55 59  0  0  1  0  0  0  0  0999 V2000
    3.3249   -2.6736   -3.7389 N   0  0  0  0  0  0  0  0  0  0  0  0
    4.1104   -2.3167   -2.6743 C   0  0  0  0  0  0  0  0  0  0  0  0
    4.9601   -1.4463   -2.7959 O   0  0  0  0  0  0  0  0  0  0  0  0
    3.8678   -3.1205   -1.4111 C   0  0  1  0  0  0  0  0  0  0  0  0
    4.8319   -2.7070   -0.2670 C   0  0  2  0  0  0  0  0  0  0  0  0
    4.7800   -3.8079    0.7701 C   0  0  0  0  0  0  0  0  0  0  0  0
    3.5729   -3.7417    1.3510 C   0  0  0  0  0  0  0  0  0  0  0  0
    2.8294   -2.5784    0.7141 C   0  0  1  0  0  0  0  0  0  0  0  0
    4.0207   -1.6488    0.4824 C   0  0  0  0  0  0  0  0  0  0  0  0
    2.4438   -2.9977   -0.7385 C   0  0  1  0  0  0  0  0  0  0  0  0
    1.5658   -2.0479   -1.4399 N   0  0  0  0  0  0  0  0  0  0  0  0
    0.2215   -1.9523   -1.0248 C   0  0  0  0  0  0  0  0  0  0  0  0
   -0.0602   -2.1082    0.2805 N   0  0  0  0  0  0  0  0  0  0  0  0
   -1.2878   -1.7821    0.7196 C   0  0  0  0  0  0  0  0  0  0  0  0
   -1.4185   -1.7062    2.1102 N   0  0  0  0  0  0  0  0  0  0  0  0
   -2.2761   -0.9146    2.7894 C   0  0  0  0  0  0  0  0  0  0  0  0
   -3.5619   -0.4544    2.4522 C   0  0  0  0  0  0  0  0  0  0  0  0
   -4.0491    0.3937    3.3626 N   0  0  0  0  0  0  0  0  0  0  0  0
   -3.0579    0.4948    4.2726 N   0  0  0  0  0  0  0  0  0  0  0  0
   -3.2153    1.4540    5.3642 C   0  0  0  0  0  0  0  0  0  0  0  0
   -2.1438    2.5515    5.3843 C   0  0  0  0  0  0  0  0  0  0  0  0
   -0.8408    2.0988    6.0353 C   0  0  0  0  0  0  0  0  0  0  0  0
   -1.0494    1.4864    7.3457 N   0  0  0  0  0  0  0  0  0  0  0  0
   -2.0048    0.3802    7.3195 C   0  0  0  0  0  0  0  0  0  0  0  0
   -3.3519    0.7872    6.7343 C   0  0  0  0  0  0  0  0  0  0  0  0
   -2.0009   -0.3299    3.9979 C   0  0  0  0  0  0  0  0  0  0  0  0
   -2.2925   -1.4153   -0.0889 N   0  0  0  0  0  0  0  0  0  0  0  0
   -2.0107   -1.3062   -1.3974 C   0  0  0  0  0  0  0  0  0  0  0  0
   -0.7604   -1.5359   -1.9193 C   0  0  0  0  0  0  0  0  0  0  0  0
   -0.4764   -1.3544   -3.6063 Cl  0  0  0  0  0  0  0  0  0  0  0  0
    3.5754   -2.2369   -4.6194 H   0  0  0  0  0  0  0  0  0  0  0  0
    2.9056   -3.5931   -3.7920 H   0  0  0  0  0  0  0  0  0  0  0  0
    4.0526   -4.1700   -1.6813 H   0  0  0  0  0  0  0  0  0  0  0  0
    5.8396   -2.3932   -0.5435 H   0  0  0  0  0  0  0  0  0  0  0  0
    5.5584   -4.5319    0.9619 H   0  0  0  0  0  0  0  0  0  0  0  0
    3.1789   -4.4062    2.1055 H   0  0  0  0  0  0  0  0  0  0  0  0
    2.0651   -2.1518    1.3602 H   0  0  0  0  0  0  0  0  0  0  0  0
    4.4960   -1.3227    1.4176 H   0  0  0  0  0  0  0  0  0  0  0  0
    3.7785   -0.7652   -0.1163 H   0  0  0  0  0  0  0  0  0  0  0  0
    1.9663   -3.9871   -0.7453 H   0  0  0  0  0  0  0  0  0  0  0  0
    1.5893   -2.1809   -2.4530 H   0  0  0  0  0  0  0  0  0  0  0  0
   -0.4924   -1.8795    2.4866 H   0  0  0  0  0  0  0  0  0  0  0  0
   -4.1592   -0.6891    1.5817 H   0  0  0  0  0  0  0  0  0  0  0  0
   -4.1718    1.9548    5.1544 H   0  0  0  0  0  0  0  0  0  0  0  0
   -2.5343    3.4021    5.9598 H   0  0  0  0  0  0  0  0  0  0  0  0
   -1.9468    2.9251    4.3723 H   0  0  0  0  0  0  0  0  0  0  0  0
   -0.1862    2.9690    6.1604 H   0  0  0  0  0  0  0  0  0  0  0  0
   -0.2876    1.4170    5.3830 H   0  0  0  0  0  0  0  0  0  0  0  0
   -1.3761    2.1963    7.9998 H   0  0  0  0  0  0  0  0  0  0  0  0
   -2.1565    0.0294    8.3466 H   0  0  0  0  0  0  0  0  0  0  0  0
   -1.5816   -0.4728    6.7804 H   0  0  0  0  0  0  0  0  0  0  0  0
   -3.8273    1.5008    7.4210 H   0  0  0  0  0  0  0  0  0  0  0  0
   -4.0158   -0.0836    6.6790 H   0  0  0  0  0  0  0  0  0  0  0  0
   -1.1288   -0.3979    4.6283 H   0  0  0  0  0  0  0  0  0  0  0  0
   -2.8417   -0.9903   -2.0196 H   0  0  0  0  0  0  0  0  0  0  0  0
  1  2  1  0  0  0  0
  1 31  1  0  0  0  0
  1 32  1  0  0  0  0
  2  3  2  0  0  0  0
  2  4  1  0  0  0  0
  4  5  1  0  0  0  0
  4 10  1  0  0  0  0
  4 33  1  6  0  0  0
  5  6  1  0  0  0  0
  5  9  1  0  0  0  0
  5 34  1  6  0  0  0
  6  7  2  0  0  0  0
  6 35  1  0  0  0  0
  7  8  1  0  0  0  0
  7 36  1  0  0  0  0
  8  9  1  0  0  0  0
  8 10  1  0  0  0  0
  8 37  1  1  0  0  0
  9 38  1  0  0  0  0
  9 39  1  0  0  0  0
 10 11  1  0  0  0  0
 10 40  1  1  0  0  0
 11 12  1  0  0  0  0
 11 41  1  0  0  0  0
 12 13  1  0  0  0  0
 12 29  2  0  0  0  0
 13 14  2  0  0  0  0
 14 15  1  0  0  0  0
 14 27  1  0  0  0  0
 15 16  1  0  0  0  0
 15 42  1  0  0  0  0
 16 17  1  0  0  0  0
 16 26  2  0  0  0  0
 17 18  2  0  0  0  0
 17 43  1  0  0  0  0
 18 19  1  0  0  0  0
 19 20  1  0  0  0  0
 19 26  1  0  0  0  0
 20 21  1  0  0  0  0
 20 25  1  0  0  0  0
 20 44  1  0  0  0  0
 21 22  1  0  0  0  0
 21 45  1  0  0  0  0
 21 46  1  0  0  0  0
 22 23  1  0  0  0  0
 22 47  1  0  0  0  0
 22 48  1  0  0  0  0
 23 24  1  0  0  0  0
 23 49  1  0  0  0  0
 24 25  1  0  0  0  0
 24 50  1  0  0  0  0
 24 51  1  0  0  0  0
 25 52  1  0  0  0  0
 25 53  1  0  0  0  0
 26 54  1  0  0  0  0
 27 28  2  0  0  0  0
 28 29  1  0  0  0  0
 28 55  1  0  0  0  0
 29 30  1  0  0  0  0
M  END
$$$$
