CHEMBL206123
 OpenBabel04072215363D

 47 50  0  0  0  0  0  0  0  0999 V2000
    1.2066   -4.1697    7.9135 F   0  0  0  0  0  0  0  0  0  0  0  0
    1.3694   -5.4761    7.6203 C   0  0  0  0  0  0  0  0  0  0  0  0
    1.2002   -6.1964    8.7497 F   0  0  0  0  0  0  0  0  0  0  0  0
    0.3898   -5.8176    6.7518 F   0  0  0  0  0  0  0  0  0  0  0  0
    2.6249   -5.8043    7.0322 O   0  0  0  0  0  0  0  0  0  0  0  0
    3.6068   -4.8658    6.9503 C   0  0  0  0  0  0  0  0  0  0  0  0
    3.7469   -3.7667    7.7896 C   0  0  0  0  0  0  0  0  0  0  0  0
    4.7774   -2.8546    7.5834 C   0  0  0  0  0  0  0  0  0  0  0  0
    5.7130   -3.0638    6.5767 C   0  0  0  0  0  0  0  0  0  0  0  0
    5.6408   -4.1875    5.7439 C   0  0  0  0  0  0  0  0  0  0  0  0
    6.6158   -4.4939    4.7722 N   0  0  0  0  0  0  0  0  0  0  0  0
    7.7625   -3.8531    4.4806 C   0  0  0  0  0  0  0  0  0  0  0  0
    8.4045   -3.8314    3.3313 N   0  0  0  0  0  0  0  0  0  0  0  0
    9.5344   -3.0626    3.5085 N   0  0  0  0  0  0  0  0  0  0  0  0
    9.5495   -2.6921    4.7757 C   0  0  0  0  0  0  0  0  0  0  0  0
   10.5387   -1.9383    5.5426 C   0  0  0  0  0  0  0  0  0  0  0  0
   10.3051   -1.7149    6.9182 C   0  0  0  0  0  0  0  0  0  0  0  0
   11.2453   -1.0687    7.7157 C   0  0  0  0  0  0  0  0  0  0  0  0
   12.4060   -0.6376    7.1206 C   0  0  0  0  0  0  0  0  0  0  0  0
   12.6600   -0.7885    5.8056 N   0  0  0  0  0  0  0  0  0  0  0  0
   11.7512   -1.4417    5.0197 C   0  0  0  0  0  0  0  0  0  0  0  0
   12.1552   -1.5081    3.5525 C   0  0  0  0  0  0  0  0  0  0  0  0
   13.6874   -1.5565    3.3574 C   0  0  0  0  0  0  0  0  0  0  0  0
   14.2167   -1.6500    1.9412 C   0  0  0  0  0  0  0  0  0  0  0  0
   15.4728   -1.0977    1.6524 C   0  0  0  0  0  0  0  0  0  0  0  0
   16.0192   -1.2754    0.3903 C   0  0  0  0  0  0  0  0  0  0  0  0
   15.4090   -1.9602   -0.5977 N   0  0  0  0  0  0  0  0  0  0  0  0
   14.2029   -2.4907   -0.3032 C   0  0  0  0  0  0  0  0  0  0  0  0
   13.5746   -2.3672    0.9303 C   0  0  0  0  0  0  0  0  0  0  0  0
    8.4408   -3.1658    5.4532 O   0  0  0  0  0  0  0  0  0  0  0  0
    4.5709   -5.0819    5.9502 C   0  0  0  0  0  0  0  0  0  0  0  0
    3.0843   -3.5804    8.6288 H   0  0  0  0  0  0  0  0  0  0  0  0
    4.8500   -1.9739    8.2163 H   0  0  0  0  0  0  0  0  0  0  0  0
    6.4907   -2.3229    6.4539 H   0  0  0  0  0  0  0  0  0  0  0  0
    6.2548   -5.0698    4.0200 H   0  0  0  0  0  0  0  0  0  0  0  0
    9.3875   -2.0588    7.3890 H   0  0  0  0  0  0  0  0  0  0  0  0
   11.0738   -0.9184    8.7758 H   0  0  0  0  0  0  0  0  0  0  0  0
   13.1915   -0.1529    7.6928 H   0  0  0  0  0  0  0  0  0  0  0  0
   11.7497   -0.6255    3.0417 H   0  0  0  0  0  0  0  0  0  0  0  0
   11.7287   -2.3945    3.0837 H   0  0  0  0  0  0  0  0  0  0  0  0
   14.0919   -2.4189    3.9038 H   0  0  0  0  0  0  0  0  0  0  0  0
   14.1289   -0.6589    3.8111 H   0  0  0  0  0  0  0  0  0  0  0  0
   16.0324   -0.5494    2.4046 H   0  0  0  0  0  0  0  0  0  0  0  0
   16.9963   -0.8722    0.1420 H   0  0  0  0  0  0  0  0  0  0  0  0
   13.7390   -3.0541   -1.1082 H   0  0  0  0  0  0  0  0  0  0  0  0
   12.6165   -2.8495    1.0841 H   0  0  0  0  0  0  0  0  0  0  0  0
    4.4814   -5.9698    5.3260 H   0  0  0  0  0  0  0  0  0  0  0  0
  1  2  1  0  0  0  0
  2  3  1  0  0  0  0
  2  4  1  0  0  0  0
  2  5  1  0  0  0  0
  5  6  1  0  0  0  0
  6  7  1  0  0  0  0
  6 31  2  0  0  0  0
  7  8  2  0  0  0  0
  7 32  1  0  0  0  0
  8  9  1  0  0  0  0
  8 33  1  0  0  0  0
  9 10  2  0  0  0  0
  9 34  1  0  0  0  0
 10 11  1  0  0  0  0
 10 31  1  0  0  0  0
 11 12  1  0  0  0  0
 11 35  1  0  0  0  0
 12 13  2  0  0  0  0
 12 30  1  0  0  0  0
 13 14  1  0  0  0  0
 14 15  2  0  0  0  0
 15 16  1  0  0  0  0
 15 30  1  0  0  0  0
 16 17  1  0  0  0  0
 16 21  2  0  0  0  0
 17 18  2  0  0  0  0
 17 36  1  0  0  0  0
 18 19  1  0  0  0  0
 18 37  1  0  0  0  0
 19 20  2  0  0  0  0
 19 38  1  0  0  0  0
 20 21  1  0  0  0  0
 21 22  1  0  0  0  0
 22 23  1  0  0  0  0
 22 39  1  0  0  0  0
 22 40  1  0  0  0  0
 23 24  1  0  0  0  0
 23 41  1  0  0  0  0
 23 42  1  0  0  0  0
 24 25  1  0  0  0  0
 24 29  2  0  0  0  0
 25 26  2  0  0  0  0
 25 43  1  0  0  0  0
 26 27  1  0  0  0  0
 26 44  1  0  0  0  0
 27 28  2  0  0  0  0
 28 29  1  0  0  0  0
 28 45  1  0  0  0  0
 29 46  1  0  0  0  0
 31 47  1  0  0  0  0
M  END
$$$$
