CHEMBL4062884
 OpenBabel04072215383D

 65 69  0  0  0  0  0  0  0  0999 V2000
    2.0534   -0.1492   -0.8802 C   0  0  0  0  0  0  0  0  0  0  0  0
    0.6142    0.0787   -0.9902 N   0  0  0  0  0  0  0  0  0  0  0  0
   -0.1344   -1.1367   -0.6339 C   0  0  0  0  0  0  0  0  0  0  0  0
   -1.6628   -0.8999   -0.6793 C   0  0  0  0  0  0  0  0  0  0  0  0
   -2.1462    0.1716    0.2241 N   0  0  0  0  0  0  0  0  0  0  0  0
   -2.0041   -0.1365    1.6609 C   0  0  0  0  0  0  0  0  0  0  0  0
   -2.7342   -1.3880    2.1375 C   0  0  0  0  0  0  0  0  0  0  0  0
   -2.0057   -2.5896    2.0936 C   0  0  0  0  0  0  0  0  0  0  0  0
   -2.5625   -3.8135    2.4500 C   0  0  0  0  0  0  0  0  0  0  0  0
   -3.8674   -3.8941    2.9162 C   0  0  0  0  0  0  0  0  0  0  0  0
   -4.4501   -5.1376    3.2797 N   0  0  0  0  0  0  0  0  0  0  0  0
   -3.9747   -6.3754    2.8465 C   0  0  0  0  0  0  0  0  0  0  0  0
   -3.1155   -6.5483    1.9842 O   0  0  0  0  0  0  0  0  0  0  0  0
   -4.5829   -7.6013    3.4093 C   0  0  0  0  0  0  0  0  0  0  0  0
   -4.6180   -8.7434    2.6058 C   0  0  0  0  0  0  0  0  0  0  0  0
   -5.0481   -9.9582    3.0278 N   0  0  0  0  0  0  0  0  0  0  0  0
   -5.4215  -10.0434    4.3242 C   0  0  0  0  0  0  0  0  0  0  0  0
   -5.3983   -8.9681    5.2123 C   0  0  0  0  0  0  0  0  0  0  0  0
   -5.7425   -9.1787    6.5890 C   0  0  0  0  0  0  0  0  0  0  0  0
   -6.0350   -9.5189    7.6955 C   0  0  0  0  0  0  0  0  0  0  0  0
   -6.3906  -10.1162    8.9552 C   0  0  0  0  0  0  0  0  0  0  0  0
   -7.3289   -9.4981    9.7723 C   0  0  0  0  0  0  0  0  0  0  0  0
   -7.8754  -10.0738   10.8661 N   0  0  0  0  0  0  0  0  0  0  0  0
   -7.3876  -11.2858   11.2128 C   0  0  0  0  0  0  0  0  0  0  0  0
   -6.3199  -11.9191   10.5740 C   0  0  0  0  0  0  0  0  0  0  0  0
   -5.7119  -13.0713   11.1043 C   0  0  0  0  0  0  0  0  0  0  0  0
   -4.6439  -13.6767   10.4441 C   0  0  0  0  0  0  0  0  0  0  0  0
   -4.2273  -13.1878    9.2116 C   0  0  0  0  0  0  0  0  0  0  0  0
   -4.8260  -12.0460    8.6762 C   0  0  0  0  0  0  0  0  0  0  0  0
   -5.8416  -11.3508    9.3744 C   0  0  0  0  0  0  0  0  0  0  0  0
   -4.9814   -7.7211    4.7423 C   0  0  0  0  0  0  0  0  0  0  0  0
   -4.5942   -2.7014    3.0391 C   0  0  0  0  0  0  0  0  0  0  0  0
   -4.0593   -1.4407    2.6212 C   0  0  0  0  0  0  0  0  0  0  0  0
   -4.9724   -0.2332    2.7354 C   0  0  0  0  0  0  0  0  0  0  0  0
   -4.4464    0.9595    2.3531 F   0  0  0  0  0  0  0  0  0  0  0  0
   -6.1182   -0.3797    2.0106 F   0  0  0  0  0  0  0  0  0  0  0  0
   -5.3856   -0.0428    4.0241 F   0  0  0  0  0  0  0  0  0  0  0  0
   -1.3669    1.3930   -0.1243 C   0  0  0  0  0  0  0  0  0  0  0  0
    0.1797    1.2118   -0.1507 C   0  0  0  0  0  0  0  0  0  0  0  0
    2.3584   -0.9958   -1.5066 H   0  0  0  0  0  0  0  0  0  0  0  0
    2.3650   -0.3601    0.1495 H   0  0  0  0  0  0  0  0  0  0  0  0
    2.6091    0.7236   -1.2385 H   0  0  0  0  0  0  0  0  0  0  0  0
    0.1718   -1.4785    0.3601 H   0  0  0  0  0  0  0  0  0  0  0  0
    0.1106   -1.9432   -1.3348 H   0  0  0  0  0  0  0  0  0  0  0  0
   -2.2007   -1.8364   -0.5036 H   0  0  0  0  0  0  0  0  0  0  0  0
   -1.9340   -0.6222   -1.7083 H   0  0  0  0  0  0  0  0  0  0  0  0
   -2.3383    0.7190    2.2562 H   0  0  0  0  0  0  0  0  0  0  0  0
   -0.9493   -0.2433    1.9418 H   0  0  0  0  0  0  0  0  0  0  0  0
   -0.9755   -2.5986    1.7519 H   0  0  0  0  0  0  0  0  0  0  0  0
   -1.9285   -4.6902    2.3586 H   0  0  0  0  0  0  0  0  0  0  0  0
   -5.3397   -5.1080    3.7610 H   0  0  0  0  0  0  0  0  0  0  0  0
   -4.2737   -8.7194    1.5725 H   0  0  0  0  0  0  0  0  0  0  0  0
   -5.7280  -11.0390    4.6400 H   0  0  0  0  0  0  0  0  0  0  0  0
   -7.6888   -8.4944    9.5633 H   0  0  0  0  0  0  0  0  0  0  0  0
   -7.8967  -11.7536   12.0523 H   0  0  0  0  0  0  0  0  0  0  0  0
   -6.0359  -13.4738   12.0618 H   0  0  0  0  0  0  0  0  0  0  0  0
   -4.1373  -14.5282   10.8911 H   0  0  0  0  0  0  0  0  0  0  0  0
   -3.4208  -13.6790    8.6731 H   0  0  0  0  0  0  0  0  0  0  0  0
   -4.4647  -11.6836    7.7162 H   0  0  0  0  0  0  0  0  0  0  0  0
   -4.9085   -6.8796    5.4228 H   0  0  0  0  0  0  0  0  0  0  0  0
   -5.6130   -2.7293    3.4265 H   0  0  0  0  0  0  0  0  0  0  0  0
   -1.6288    2.2161    0.5517 H   0  0  0  0  0  0  0  0  0  0  0  0
   -1.6872    1.7229   -1.1226 H   0  0  0  0  0  0  0  0  0  0  0  0
    0.5435    1.0892    0.8775 H   0  0  0  0  0  0  0  0  0  0  0  0
    0.6276    2.1344   -0.5397 H   0  0  0  0  0  0  0  0  0  0  0  0
  1  2  1  0  0  0  0
  1 40  1  0  0  0  0
  1 41  1  0  0  0  0
  1 42  1  0  0  0  0
  2  3  1  0  0  0  0
  2 39  1  0  0  0  0
  3  4  1  0  0  0  0
  3 43  1  0  0  0  0
  3 44  1  0  0  0  0
  4  5  1  0  0  0  0
  4 45  1  0  0  0  0
  4 46  1  0  0  0  0
  5  6  1  0  0  0  0
  5 38  1  0  0  0  0
  6  7  1  0  0  0  0
  6 47  1  0  0  0  0
  6 48  1  0  0  0  0
  7  8  1  0  0  0  0
  7 33  2  0  0  0  0
  8  9  2  0  0  0  0
  8 49  1  0  0  0  0
  9 10  1  0  0  0  0
  9 50  1  0  0  0  0
 10 11  1  0  0  0  0
 10 32  2  0  0  0  0
 11 12  1  0  0  0  0
 11 51  1  0  0  0  0
 12 13  2  0  0  0  0
 12 14  1  0  0  0  0
 14 15  1  0  0  0  0
 14 31  2  0  0  0  0
 15 16  2  0  0  0  0
 15 52  1  0  0  0  0
 16 17  1  0  0  0  0
 17 18  2  0  0  0  0
 17 53  1  0  0  0  0
 18 19  1  0  0  0  0
 18 31  1  0  0  0  0
 19 20  3  0  0  0  0
 20 21  1  0  0  0  0
 21 22  1  0  0  0  0
 21 30  2  0  0  0  0
 22 23  2  0  0  0  0
 22 54  1  0  0  0  0
 23 24  1  0  0  0  0
 24 25  2  0  0  0  0
 24 55  1  0  0  0  0
 25 26  1  0  0  0  0
 25 30  1  0  0  0  0
 26 27  2  0  0  0  0
 26 56  1  0  0  0  0
 27 28  1  0  0  0  0
 27 57  1  0  0  0  0
 28 29  2  0  0  0  0
 28 58  1  0  0  0  0
 29 30  1  0  0  0  0
 29 59  1  0  0  0  0
 31 60  1  0  0  0  0
 32 33  1  0  0  0  0
 32 61  1  0  0  0  0
 33 34  1  0  0  0  0
 34 35  1  0  0  0  0
 34 36  1  0  0  0  0
 34 37  1  0  0  0  0
 38 39  1  0  0  0  0
 38 62  1  0  0  0  0
 38 63  1  0  0  0  0
 39 64  1  0  0  0  0
 39 65  1  0  0  0  0
M  END
$$$$
