CHEMBL3961613
 OpenBabel04072215373D

 52 55  0  0  0  0  0  0  0  0999 V2000
    1.2692    0.2413    0.8346 O   0  0  0  0  0  0  0  0  0  0  0  0
    2.3671    0.1289    0.3041 C   0  0  0  0  0  0  0  0  0  0  0  0
    2.9414    1.0705   -0.5316 N   0  0  0  0  0  0  0  0  0  0  0  0
    2.3346    2.2744   -0.9566 C   0  0  0  0  0  0  0  0  0  0  0  0
    1.1813    2.8139   -0.3750 C   0  0  0  0  0  0  0  0  0  0  0  0
    0.5719    3.9579   -0.9035 C   0  0  0  0  0  0  0  0  0  0  0  0
    1.1084    4.5885   -2.0238 C   0  0  0  0  0  0  0  0  0  0  0  0
    0.4300    5.6978   -2.4717 O   0  0  0  0  0  0  0  0  0  0  0  0
    0.3031    5.9488   -3.8209 C   0  0  0  0  0  0  0  0  0  0  0  0
    0.3638    4.9888   -4.8228 C   0  0  0  0  0  0  0  0  0  0  0  0
    0.2613    5.4184   -6.1297 C   0  0  0  0  0  0  0  0  0  0  0  0
    0.0528    6.7020   -6.4809 N   0  0  0  0  0  0  0  0  0  0  0  0
   -0.0720    7.6195   -5.5092 C   0  0  0  0  0  0  0  0  0  0  0  0
   -0.3340    8.9587   -5.8333 N   0  0  0  0  0  0  0  0  0  0  0  0
   -0.4042    9.4562   -7.1148 C   0  0  0  0  0  0  0  0  0  0  0  0
   -0.2189    8.8639   -8.1681 O   0  0  0  0  0  0  0  0  0  0  0  0
   -0.7746   10.9082   -7.1574 C   0  0  0  0  0  0  0  0  0  0  0  0
   -2.0554   11.3112   -7.8548 C   0  0  0  0  0  0  0  0  0  0  0  0
   -0.7320   11.6818   -8.4571 C   0  0  0  0  0  0  0  0  0  0  0  0
    0.0400    7.2783   -4.1651 C   0  0  0  0  0  0  0  0  0  0  0  0
    2.3120    4.1085   -2.5429 C   0  0  0  0  0  0  0  0  0  0  0  0
    2.9199    4.7306   -3.5630 F   0  0  0  0  0  0  0  0  0  0  0  0
    2.9128    2.9564   -2.0323 C   0  0  0  0  0  0  0  0  0  0  0  0
    3.1707   -0.9929    0.4396 N   0  0  0  0  0  0  0  0  0  0  0  0
    2.7577   -2.2413    0.9811 C   0  0  0  0  0  0  0  0  0  0  0  0
    1.4049   -2.5896    1.0894 C   0  0  0  0  0  0  0  0  0  0  0  0
    1.0016   -3.8360    1.5977 C   0  0  0  0  0  0  0  0  0  0  0  0
   -0.4660   -4.1737    1.7291 C   0  0  0  0  0  0  0  0  0  0  0  0
   -1.2995   -3.1613    1.3604 F   0  0  0  0  0  0  0  0  0  0  0  0
   -0.8198   -5.2430    0.9645 F   0  0  0  0  0  0  0  0  0  0  0  0
   -0.8113   -4.4951    3.0057 F   0  0  0  0  0  0  0  0  0  0  0  0
    1.9827   -4.7607    1.9775 C   0  0  0  0  0  0  0  0  0  0  0  0
    3.3370   -4.4351    1.8698 C   0  0  0  0  0  0  0  0  0  0  0  0
    3.7223   -3.1832    1.3772 C   0  0  0  0  0  0  0  0  0  0  0  0
    5.4119   -2.8223    1.2905 Cl  0  0  0  0  0  0  0  0  0  0  0  0
    3.7564    0.7668   -1.0447 H   0  0  0  0  0  0  0  0  0  0  0  0
    0.7237    2.3679    0.5053 H   0  0  0  0  0  0  0  0  0  0  0  0
   -0.3323    4.3434   -0.4372 H   0  0  0  0  0  0  0  0  0  0  0  0
    0.5094    3.9360   -4.6197 H   0  0  0  0  0  0  0  0  0  0  0  0
    0.3513    4.7261   -6.9615 H   0  0  0  0  0  0  0  0  0  0  0  0
   -0.4932    9.5938   -5.0679 H   0  0  0  0  0  0  0  0  0  0  0  0
   -0.4988   11.4784   -6.2759 H   0  0  0  0  0  0  0  0  0  0  0  0
   -2.6529   12.0988   -7.4119 H   0  0  0  0  0  0  0  0  0  0  0  0
   -2.6317   10.5418   -8.3577 H   0  0  0  0  0  0  0  0  0  0  0  0
   -0.4291   12.7216   -8.4249 H   0  0  0  0  0  0  0  0  0  0  0  0
   -0.4212   11.1613   -9.3582 H   0  0  0  0  0  0  0  0  0  0  0  0
   -0.0618    8.0227   -3.3841 H   0  0  0  0  0  0  0  0  0  0  0  0
    3.8200    2.5967   -2.5081 H   0  0  0  0  0  0  0  0  0  0  0  0
    4.1712   -0.8617    0.3529 H   0  0  0  0  0  0  0  0  0  0  0  0
    0.6267   -1.9015    0.7660 H   0  0  0  0  0  0  0  0  0  0  0  0
    1.6923   -5.7389    2.3599 H   0  0  0  0  0  0  0  0  0  0  0  0
    4.0863   -5.1621    2.1752 H   0  0  0  0  0  0  0  0  0  0  0  0
  1  2  2  0  0  0  0
  2  3  1  0  0  0  0
  2 24  1  0  0  0  0
  3  4  1  0  0  0  0
  3 36  1  0  0  0  0
  4  5  1  0  0  0  0
  4 23  2  0  0  0  0
  5  6  2  0  0  0  0
  5 37  1  0  0  0  0
  6  7  1  0  0  0  0
  6 38  1  0  0  0  0
  7  8  1  0  0  0  0
  7 21  2  0  0  0  0
  8  9  1  0  0  0  0
  9 10  1  0  0  0  0
  9 20  2  0  0  0  0
 10 11  2  0  0  0  0
 10 39  1  0  0  0  0
 11 12  1  0  0  0  0
 11 40  1  0  0  0  0
 12 13  2  0  0  0  0
 13 14  1  0  0  0  0
 13 20  1  0  0  0  0
 14 15  1  0  0  0  0
 14 41  1  0  0  0  0
 15 16  2  0  0  0  0
 15 17  1  0  0  0  0
 17 18  1  0  0  0  0
 17 19  1  0  0  0  0
 17 42  1  0  0  0  0
 18 19  1  0  0  0  0
 18 43  1  0  0  0  0
 18 44  1  0  0  0  0
 19 45  1  0  0  0  0
 19 46  1  0  0  0  0
 20 47  1  0  0  0  0
 21 22  1  0  0  0  0
 21 23  1  0  0  0  0
 23 48  1  0  0  0  0
 24 25  1  0  0  0  0
 24 49  1  0  0  0  0
 25 26  1  0  0  0  0
 25 34  2  0  0  0  0
 26 27  2  0  0  0  0
 26 50  1  0  0  0  0
 27 28  1  0  0  0  0
 27 32  1  0  0  0  0
 28 29  1  0  0  0  0
 28 30  1  0  0  0  0
 28 31  1  0  0  0  0
 32 33  2  0  0  0  0
 32 51  1  0  0  0  0
 33 34  1  0  0  0  0
 33 52  1  0  0  0  0
 34 35  1  0  0  0  0
M  END
$$$$
