CHEMBL596761
 OpenBabel04072215383D

 59 61  0  0  0  0  0  0  0  0999 V2000
    3.5737    0.6786   -0.9501 C   0  0  0  0  0  0  0  0  0  0  0  0
    2.6688    0.0189   -0.0639 O   0  0  0  0  0  0  0  0  0  0  0  0
    3.1681   -0.3321    1.1627 C   0  0  0  0  0  0  0  0  0  0  0  0
    4.1266    0.4663    1.8040 C   0  0  0  0  0  0  0  0  0  0  0  0
    4.7106    0.0991    3.0033 C   0  0  0  0  0  0  0  0  0  0  0  0
    5.6966    0.8616    3.4796 N   0  0  0  0  0  0  0  0  0  0  0  0
    6.3043    0.4250    4.5868 C   0  0  0  0  0  0  0  0  0  0  0  0
    6.0009   -0.6819    5.2733 N   0  0  0  0  0  0  0  0  0  0  0  0
    4.9824   -1.4199    4.7986 C   0  0  0  0  0  0  0  0  0  0  0  0
    4.6559   -2.6161    5.4594 N   0  0  0  0  0  0  0  0  0  0  0  0
    5.6290   -3.1040    6.4211 C   0  0  0  0  0  0  0  0  0  0  0  0
    5.3549   -4.5676    6.6920 C   0  0  0  0  0  0  0  0  0  0  0  0
    5.3013   -5.4806    5.6247 C   0  0  0  0  0  0  0  0  0  0  0  0
    5.0906   -6.8393    5.8580 C   0  0  0  0  0  0  0  0  0  0  0  0
    4.9369   -7.3029    7.1618 C   0  0  0  0  0  0  0  0  0  0  0  0
    4.9887   -6.4077    8.2302 C   0  0  0  0  0  0  0  0  0  0  0  0
    5.1975   -5.0462    7.9977 C   0  0  0  0  0  0  0  0  0  0  0  0
    4.2761   -1.0682    3.6362 C   0  0  0  0  0  0  0  0  0  0  0  0
    3.2295   -1.8266    3.0499 C   0  0  0  0  0  0  0  0  0  0  0  0
    2.6890   -1.4810    1.8081 C   0  0  0  0  0  0  0  0  0  0  0  0
    1.7143   -2.3461    1.3654 O   0  0  0  0  0  0  0  0  0  0  0  0
    1.6896   -2.5532   -0.0449 C   0  0  0  0  0  0  0  0  0  0  0  0
    0.7868   -3.7351   -0.4105 C   0  0  0  0  0  0  0  0  0  0  0  0
    0.8044   -3.8976   -1.9317 C   0  0  0  0  0  0  0  0  0  0  0  0
   -0.1142   -4.9996   -2.4513 C   0  0  0  0  0  0  0  0  0  0  0  0
   -0.0305   -5.0604   -3.9806 C   0  0  0  0  0  0  0  0  0  0  0  0
   -0.9381   -6.1416   -4.5563 C   0  0  0  0  0  0  0  0  0  0  0  0
   -0.8768   -6.1916   -6.0717 C   0  0  0  0  0  0  0  0  0  0  0  0
   -0.1627   -5.4801   -6.7702 O   0  0  0  0  0  0  0  0  0  0  0  0
   -1.7229   -7.1316   -6.6113 N   0  0  0  0  0  0  0  0  0  0  0  0
   -1.6447   -7.3015   -8.0122 O   0  0  0  0  0  0  0  0  0  0  0  0
    3.3916    0.3019   -1.9611 H   0  0  0  0  0  0  0  0  0  0  0  0
    4.6300    0.4896   -0.7256 H   0  0  0  0  0  0  0  0  0  0  0  0
    3.3691    1.7532   -0.9396 H   0  0  0  0  0  0  0  0  0  0  0  0
    4.4567    1.3985    1.3551 H   0  0  0  0  0  0  0  0  0  0  0  0
    7.1302    1.0227    4.9583 H   0  0  0  0  0  0  0  0  0  0  0  0
    3.7150   -2.5586    5.8443 H   0  0  0  0  0  0  0  0  0  0  0  0
    5.5785   -2.5177    7.3476 H   0  0  0  0  0  0  0  0  0  0  0  0
    6.6519   -3.0389    6.0300 H   0  0  0  0  0  0  0  0  0  0  0  0
    5.4249   -5.1264    4.6028 H   0  0  0  0  0  0  0  0  0  0  0  0
    5.0523   -7.5332    5.0220 H   0  0  0  0  0  0  0  0  0  0  0  0
    4.7800   -8.3624    7.3456 H   0  0  0  0  0  0  0  0  0  0  0  0
    4.8711   -6.7728    9.2470 H   0  0  0  0  0  0  0  0  0  0  0  0
    5.2446   -4.3659    8.8448 H   0  0  0  0  0  0  0  0  0  0  0  0
    2.8767   -2.7328    3.5391 H   0  0  0  0  0  0  0  0  0  0  0  0
    2.7051   -2.7536   -0.4096 H   0  0  0  0  0  0  0  0  0  0  0  0
    1.2697   -1.6751   -0.5409 H   0  0  0  0  0  0  0  0  0  0  0  0
   -0.2318   -3.5479   -0.0499 H   0  0  0  0  0  0  0  0  0  0  0  0
    1.1292   -4.6489    0.0889 H   0  0  0  0  0  0  0  0  0  0  0  0
    1.8317   -4.1047   -2.2551 H   0  0  0  0  0  0  0  0  0  0  0  0
    0.5111   -2.9473   -2.3950 H   0  0  0  0  0  0  0  0  0  0  0  0
   -1.1476   -4.8005   -2.1438 H   0  0  0  0  0  0  0  0  0  0  0  0
    0.1774   -5.9649   -2.0222 H   0  0  0  0  0  0  0  0  0  0  0  0
    1.0066   -5.2473   -4.2863 H   0  0  0  0  0  0  0  0  0  0  0  0
   -0.3082   -4.0853   -4.4030 H   0  0  0  0  0  0  0  0  0  0  0  0
   -1.9755   -5.9531   -4.2628 H   0  0  0  0  0  0  0  0  0  0  0  0
   -0.6398   -7.1216   -4.1701 H   0  0  0  0  0  0  0  0  0  0  0  0
   -2.1275   -7.8936   -6.0805 H   0  0  0  0  0  0  0  0  0  0  0  0
   -0.9882   -6.6168   -8.2706 H   0  0  0  0  0  0  0  0  0  0  0  0
  1  2  1  0  0  0  0
  1 32  1  0  0  0  0
  1 33  1  0  0  0  0
  1 34  1  0  0  0  0
  2  3  1  0  0  0  0
  3  4  1  0  0  0  0
  3 20  2  0  0  0  0
  4  5  2  0  0  0  0
  4 35  1  0  0  0  0
  5  6  1  0  0  0  0
  5 18  1  0  0  0  0
  6  7  2  0  0  0  0
  7  8  1  0  0  0  0
  7 36  1  0  0  0  0
  8  9  2  0  0  0  0
  9 10  1  0  0  0  0
  9 18  1  0  0  0  0
 10 11  1  0  0  0  0
 10 37  1  0  0  0  0
 11 12  1  0  0  0  0
 11 38  1  0  0  0  0
 11 39  1  0  0  0  0
 12 13  1  0  0  0  0
 12 17  2  0  0  0  0
 13 14  2  0  0  0  0
 13 40  1  0  0  0  0
 14 15  1  0  0  0  0
 14 41  1  0  0  0  0
 15 16  2  0  0  0  0
 15 42  1  0  0  0  0
 16 17  1  0  0  0  0
 16 43  1  0  0  0  0
 17 44  1  0  0  0  0
 18 19  2  0  0  0  0
 19 20  1  0  0  0  0
 19 45  1  0  0  0  0
 20 21  1  0  0  0  0
 21 22  1  0  0  0  0
 22 23  1  0  0  0  0
 22 46  1  0  0  0  0
 22 47  1  0  0  0  0
 23 24  1  0  0  0  0
 23 48  1  0  0  0  0
 23 49  1  0  0  0  0
 24 25  1  0  0  0  0
 24 50  1  0  0  0  0
 24 51  1  0  0  0  0
 25 26  1  0  0  0  0
 25 52  1  0  0  0  0
 25 53  1  0  0  0  0
 26 27  1  0  0  0  0
 26 54  1  0  0  0  0
 26 55  1  0  0  0  0
 27 28  1  0  0  0  0
 27 56  1  0  0  0  0
 27 57  1  0  0  0  0
 28 29  2  0  0  0  0
 28 30  1  0  0  0  0
 30 31  1  0  0  0  0
 30 58  1  0  0  0  0
 31 59  1  0  0  0  0
M  END
$$$$
