CHEMBL3928646
 OpenBabel04072215373D

 70 75  0  0  0  0  0  0  0  0999 V2000
    7.7265   -1.6000   -5.7585 C   0  0  0  0  0  0  0  0  0  0  0  0
    7.9204   -0.7306   -4.6350 O   0  0  0  0  0  0  0  0  0  0  0  0
    7.1286    0.3980   -4.5697 C   0  0  0  0  0  0  0  0  0  0  0  0
    6.2054    0.7420   -5.5634 C   0  0  0  0  0  0  0  0  0  0  0  0
    5.4043    1.8617   -5.3975 C   0  0  0  0  0  0  0  0  0  0  0  0
    4.4534    2.3005   -6.2757 O   0  0  0  0  0  0  0  0  0  0  0  0
    4.3639    1.6206   -7.5182 C   0  0  0  0  0  0  0  0  0  0  0  0
    5.5306    2.6341   -4.2349 C   0  0  0  0  0  0  0  0  0  0  0  0
    6.4563    2.3479   -3.2080 C   0  0  0  0  0  0  0  0  0  0  0  0
    6.4466    3.1090   -1.9999 N   0  0  0  0  0  0  0  0  0  0  0  0
    5.0475    3.3645   -1.4286 C   0  0  0  0  0  0  0  0  0  0  0  0
    4.4688    2.2522   -0.5480 C   0  0  0  0  0  0  0  0  0  0  0  0
    2.9955    2.2200   -0.1272 C   0  0  0  0  0  0  0  0  0  0  0  0
    4.0394    2.5924    0.8731 C   0  0  0  0  0  0  0  0  0  0  0  0
    7.4882    3.7356   -1.2179 C   0  0  0  0  0  0  0  0  0  0  0  0
    7.3868    3.5467    0.1509 C   0  0  0  0  0  0  0  0  0  0  0  0
    7.8717    4.4830    1.0225 C   0  0  0  0  0  0  0  0  0  0  0  0
    8.6633    5.5270    0.6129 C   0  0  0  0  0  0  0  0  0  0  0  0
    8.8490    6.4278    1.5954 N   0  0  0  0  0  0  0  0  0  0  0  0
    9.8173    7.3287    1.4225 C   0  0  0  0  0  0  0  0  0  0  0  0
   10.6731    7.2902    0.3450 C   0  0  0  0  0  0  0  0  0  0  0  0
   11.9889    7.9271    0.6503 C   0  0  0  0  0  0  0  0  0  0  0  0
   12.4887    9.2376    0.4123 C   0  0  0  0  0  0  0  0  0  0  0  0
   13.5310    9.5799    1.1931 N   0  0  0  0  0  0  0  0  0  0  0  0
   13.7062    8.5167    2.0044 N   0  0  0  0  0  0  0  0  0  0  0  0
   14.9077    8.3996    2.8387 C   0  0  0  0  0  0  0  0  0  0  0  0
   15.0091    9.1305    4.2219 C   0  0  0  0  0  0  0  0  0  0  0  0
   16.4131    8.8728    4.8489 C   0  0  0  0  0  0  0  0  0  0  0  0
   16.5014    9.1284    6.3526 C   0  0  0  0  0  0  0  0  0  0  0  0
   15.4421    8.4644    7.0307 O   0  0  0  0  0  0  0  0  0  0  0  0
   14.1814    9.0041    6.6501 C   0  0  0  0  0  0  0  0  0  0  0  0
   13.8898    8.6997    5.1824 C   0  0  0  0  0  0  0  0  0  0  0  0
   12.7667    7.5374    1.7504 C   0  0  0  0  0  0  0  0  0  0  0  0
   10.3510    6.4916   -0.7579 N   0  0  0  0  0  0  0  0  0  0  0  0
    9.2258    5.5928   -0.6671 C   0  0  0  0  0  0  0  0  0  0  0  0
    8.4939    4.6866   -1.6182 C   0  0  0  0  0  0  0  0  0  0  0  0
    7.2635    1.2094   -3.4098 C   0  0  0  0  0  0  0  0  0  0  0  0
    8.3524   -2.4891   -5.6290 H   0  0  0  0  0  0  0  0  0  0  0  0
    8.0365   -1.1151   -6.6923 H   0  0  0  0  0  0  0  0  0  0  0  0
    6.6883   -1.9486   -5.8316 H   0  0  0  0  0  0  0  0  0  0  0  0
    6.1071    0.1339   -6.4550 H   0  0  0  0  0  0  0  0  0  0  0  0
    3.6032    2.1301   -8.1192 H   0  0  0  0  0  0  0  0  0  0  0  0
    4.0352    0.5840   -7.3870 H   0  0  0  0  0  0  0  0  0  0  0  0
    5.3075    1.6682   -8.0699 H   0  0  0  0  0  0  0  0  0  0  0  0
    4.8750    3.4959   -4.1548 H   0  0  0  0  0  0  0  0  0  0  0  0
    4.3156    3.5675   -2.2147 H   0  0  0  0  0  0  0  0  0  0  0  0
    5.0631    4.2958   -0.8464 H   0  0  0  0  0  0  0  0  0  0  0  0
    4.8841    1.2755   -0.7694 H   0  0  0  0  0  0  0  0  0  0  0  0
    2.4995    1.2673    0.0490 H   0  0  0  0  0  0  0  0  0  0  0  0
    2.3099    2.9965   -0.4486 H   0  0  0  0  0  0  0  0  0  0  0  0
    4.2579    1.8867    1.6669 H   0  0  0  0  0  0  0  0  0  0  0  0
    4.0329    3.6263    1.2047 H   0  0  0  0  0  0  0  0  0  0  0  0
    6.7927    2.7427    0.5580 H   0  0  0  0  0  0  0  0  0  0  0  0
    7.6311    4.4174    2.0770 H   0  0  0  0  0  0  0  0  0  0  0  0
    9.9682    8.0039    2.2574 H   0  0  0  0  0  0  0  0  0  0  0  0
   12.1040    9.9912   -0.2636 H   0  0  0  0  0  0  0  0  0  0  0  0
   15.7402    8.7363    2.2071 H   0  0  0  0  0  0  0  0  0  0  0  0
   15.0577    7.3243    3.0001 H   0  0  0  0  0  0  0  0  0  0  0  0
   14.9210   10.2141    4.0645 H   0  0  0  0  0  0  0  0  0  0  0  0
   17.1717    9.4834    4.3433 H   0  0  0  0  0  0  0  0  0  0  0  0
   16.6903    7.8244    4.6815 H   0  0  0  0  0  0  0  0  0  0  0  0
   16.4822   10.1975    6.5951 H   0  0  0  0  0  0  0  0  0  0  0  0
   17.4448    8.7305    6.7476 H   0  0  0  0  0  0  0  0  0  0  0  0
   14.1632   10.0795    6.8626 H   0  0  0  0  0  0  0  0  0  0  0  0
   13.4198    8.5349    7.2819 H   0  0  0  0  0  0  0  0  0  0  0  0
   12.9521    9.1877    4.8960 H   0  0  0  0  0  0  0  0  0  0  0  0
   13.7423    7.6182    5.0874 H   0  0  0  0  0  0  0  0  0  0  0  0
   12.7040    6.6699    2.3935 H   0  0  0  0  0  0  0  0  0  0  0  0
    8.6974    4.8100   -2.6897 H   0  0  0  0  0  0  0  0  0  0  0  0
    7.9585    0.8921   -2.6354 H   0  0  0  0  0  0  0  0  0  0  0  0
  1  2  1  0  0  0  0
  1 38  1  0  0  0  0
  1 39  1  0  0  0  0
  1 40  1  0  0  0  0
  2  3  1  0  0  0  0
  3  4  1  0  0  0  0
  3 37  2  0  0  0  0
  4  5  2  0  0  0  0
  4 41  1  0  0  0  0
  5  6  1  0  0  0  0
  5  8  1  0  0  0  0
  6  7  1  0  0  0  0
  7 42  1  0  0  0  0
  7 43  1  0  0  0  0
  7 44  1  0  0  0  0
  8  9  2  0  0  0  0
  8 45  1  0  0  0  0
  9 10  1  0  0  0  0
  9 37  1  0  0  0  0
 10 11  1  0  0  0  0
 10 15  1  0  0  0  0
 11 12  1  0  0  0  0
 11 46  1  0  0  0  0
 11 47  1  0  0  0  0
 12 13  1  0  0  0  0
 12 14  1  0  0  0  0
 12 48  1  0  0  0  0
 13 14  1  0  0  0  0
 13 49  1  0  0  0  0
 13 50  1  0  0  0  0
 14 51  1  0  0  0  0
 14 52  1  0  0  0  0
 15 16  1  0  0  0  0
 15 36  2  0  0  0  0
 16 17  2  0  0  0  0
 16 53  1  0  0  0  0
 17 18  1  0  0  0  0
 17 54  1  0  0  0  0
 18 19  1  0  0  0  0
 18 35  2  0  0  0  0
 19 20  2  0  0  0  0
 20 21  1  0  0  0  0
 20 55  1  0  0  0  0
 21 22  1  0  0  0  0
 21 34  2  0  0  0  0
 22 23  1  0  0  0  0
 22 33  2  0  0  0  0
 23 24  2  0  0  0  0
 23 56  1  0  0  0  0
 24 25  1  0  0  0  0
 25 26  1  0  0  0  0
 25 33  1  0  0  0  0
 26 27  1  0  0  0  0
 26 57  1  0  0  0  0
 26 58  1  0  0  0  0
 27 28  1  0  0  0  0
 27 32  1  0  0  0  0
 27 59  1  0  0  0  0
 28 29  1  0  0  0  0
 28 60  1  0  0  0  0
 28 61  1  0  0  0  0
 29 30  1  0  0  0  0
 29 62  1  0  0  0  0
 29 63  1  0  0  0  0
 30 31  1  0  0  0  0
 31 32  1  0  0  0  0
 31 64  1  0  0  0  0
 31 65  1  0  0  0  0
 32 66  1  0  0  0  0
 32 67  1  0  0  0  0
 33 68  1  0  0  0  0
 34 35  1  0  0  0  0
 35 36  1  0  0  0  0
 36 69  1  0  0  0  0
 37 70  1  0  0  0  0
M  END
$$$$
