CHEMBL1253834
 OpenBabel04072215363D

 45 48  0  0  0  0  0  0  0  0999 V2000
    0.4935   -0.1679    0.2663 C   0  0  0  0  0  0  0  0  0  0  0  0
    1.8554   -0.0433    0.7349 N   0  0  0  0  0  0  0  0  0  0  0  0
    2.4018    1.1057    1.2513 C   0  0  0  0  0  0  0  0  0  0  0  0
    3.7037    0.8302    1.6131 C   0  0  0  0  0  0  0  0  0  0  0  0
    3.9530   -0.5235    1.2938 C   0  0  0  0  0  0  0  0  0  0  0  0
    5.0810   -1.2436    1.4670 N   0  0  0  0  0  0  0  0  0  0  0  0
    4.9793   -2.5051    1.0297 C   0  0  0  0  0  0  0  0  0  0  0  0
    3.9134   -3.1012    0.4702 N   0  0  0  0  0  0  0  0  0  0  0  0
    2.7769   -2.3809    0.3461 C   0  0  0  0  0  0  0  0  0  0  0  0
    1.6386   -2.9396   -0.2201 O   0  0  0  0  0  0  0  0  0  0  0  0
    1.4264   -4.2931   -0.0828 C   0  0  0  0  0  0  0  0  0  0  0  0
    1.7917   -5.0250    1.0473 C   0  0  0  0  0  0  0  0  0  0  0  0
    1.5480   -6.3963    1.1027 C   0  0  0  0  0  0  0  0  0  0  0  0
    0.9049   -7.0464    0.0450 C   0  0  0  0  0  0  0  0  0  0  0  0
    0.7725   -8.5552    0.0861 C   0  0  0  0  0  0  0  0  0  0  0  0
   -0.6250   -9.1199   -0.0511 C   0  0  0  0  0  0  0  0  0  0  0  0
   -0.8432  -10.0311   -0.8493 O   0  0  0  0  0  0  0  0  0  0  0  0
   -1.5726   -8.5703    0.8041 N   0  0  0  0  0  0  0  0  0  0  0  0
   -2.9091   -9.0180    0.7604 C   0  0  0  0  0  0  0  0  0  0  0  0
   -3.2161  -10.3830    0.7830 C   0  0  0  0  0  0  0  0  0  0  0  0
   -4.5293  -10.8121    0.5926 C   0  0  0  0  0  0  0  0  0  0  0  0
   -5.5351   -9.8741    0.3686 C   0  0  0  0  0  0  0  0  0  0  0  0
   -5.2381   -8.5099    0.3945 C   0  0  0  0  0  0  0  0  0  0  0  0
   -3.9302   -8.0778    0.6263 C   0  0  0  0  0  0  0  0  0  0  0  0
    0.4798   -6.3014   -1.0643 C   0  0  0  0  0  0  0  0  0  0  0  0
    0.7390   -4.9283   -1.1212 C   0  0  0  0  0  0  0  0  0  0  0  0
    2.7924   -1.0504    0.7424 C   0  0  0  0  0  0  0  0  0  0  0  0
   -0.0157    0.7943    0.3644 H   0  0  0  0  0  0  0  0  0  0  0  0
   -0.0144   -0.9168    0.8794 H   0  0  0  0  0  0  0  0  0  0  0  0
    0.5120   -0.4683   -0.7842 H   0  0  0  0  0  0  0  0  0  0  0  0
    1.8281    2.0206    1.3251 H   0  0  0  0  0  0  0  0  0  0  0  0
    4.4044    1.5238    2.0567 H   0  0  0  0  0  0  0  0  0  0  0  0
    5.8633   -3.1241    1.1488 H   0  0  0  0  0  0  0  0  0  0  0  0
    2.3008   -4.5509    1.8809 H   0  0  0  0  0  0  0  0  0  0  0  0
    1.9038   -6.9543    1.9690 H   0  0  0  0  0  0  0  0  0  0  0  0
    1.1861   -8.9579    1.0160 H   0  0  0  0  0  0  0  0  0  0  0  0
    1.3813   -8.9635   -0.7310 H   0  0  0  0  0  0  0  0  0  0  0  0
   -1.4183   -7.6028    1.0638 H   0  0  0  0  0  0  0  0  0  0  0  0
   -2.4334  -11.1224    0.9337 H   0  0  0  0  0  0  0  0  0  0  0  0
   -4.7573  -11.8741    0.5851 H   0  0  0  0  0  0  0  0  0  0  0  0
   -6.5478  -10.2075    0.1578 H   0  0  0  0  0  0  0  0  0  0  0  0
   -6.0223   -7.7830    0.1997 H   0  0  0  0  0  0  0  0  0  0  0  0
   -3.7109   -7.0148    0.6076 H   0  0  0  0  0  0  0  0  0  0  0  0
   -0.0188   -6.7853   -1.8983 H   0  0  0  0  0  0  0  0  0  0  0  0
    0.4284   -4.3577   -1.9939 H   0  0  0  0  0  0  0  0  0  0  0  0
  1  2  1  0  0  0  0
  1 28  1  0  0  0  0
  1 29  1  0  0  0  0
  1 30  1  0  0  0  0
  2  3  1  0  0  0  0
  2 27  1  0  0  0  0
  3  4  2  0  0  0  0
  3 31  1  0  0  0  0
  4  5  1  0  0  0  0
  4 32  1  0  0  0  0
  5  6  1  0  0  0  0
  5 27  2  0  0  0  0
  6  7  2  0  0  0  0
  7  8  1  0  0  0  0
  7 33  1  0  0  0  0
  8  9  2  0  0  0  0
  9 10  1  0  0  0  0
  9 27  1  0  0  0  0
 10 11  1  0  0  0  0
 11 12  1  0  0  0  0
 11 26  2  0  0  0  0
 12 13  2  0  0  0  0
 12 34  1  0  0  0  0
 13 14  1  0  0  0  0
 13 35  1  0  0  0  0
 14 15  1  0  0  0  0
 14 25  2  0  0  0  0
 15 16  1  0  0  0  0
 15 36  1  0  0  0  0
 15 37  1  0  0  0  0
 16 17  2  0  0  0  0
 16 18  1  0  0  0  0
 18 19  1  0  0  0  0
 18 38  1  0  0  0  0
 19 20  1  0  0  0  0
 19 24  2  0  0  0  0
 20 21  2  0  0  0  0
 20 39  1  0  0  0  0
 21 22  1  0  0  0  0
 21 40  1  0  0  0  0
 22 23  2  0  0  0  0
 22 41  1  0  0  0  0
 23 24  1  0  0  0  0
 23 42  1  0  0  0  0
 24 43  1  0  0  0  0
 25 26  1  0  0  0  0
 25 44  1  0  0  0  0
 26 45  1  0  0  0  0
M  END
$$$$
