CHEMBL4529670
 OpenBabel04072215383D

 59 63  0  0  0  0  0  0  0  0999 V2000
    1.2826   10.3058   10.1073 C   0  0  0  0  0  0  0  0  0  0  0  0
    1.8041    8.8994    9.8611 C   0  0  0  0  0  0  0  0  0  0  0  0
    2.3496    8.7458    8.4497 C   0  0  0  0  0  0  0  0  0  0  0  0
    2.3630    9.6885    7.6672 O   0  0  0  0  0  0  0  0  0  0  0  0
    2.7761    7.4600    8.1977 N   0  0  0  0  0  0  0  0  0  0  0  0
    3.3486    7.0361    6.9930 C   0  0  0  0  0  0  0  0  0  0  0  0
    3.4440    5.6726    6.7595 C   0  0  0  0  0  0  0  0  0  0  0  0
    3.8749    5.2437    5.5035 C   0  0  0  0  0  0  0  0  0  0  0  0
    3.9070    3.9212    5.1213 O   0  0  0  0  0  0  0  0  0  0  0  0
    2.9031    3.0759    5.5378 C   0  0  0  0  0  0  0  0  0  0  0  0
    1.5832    3.4739    5.7357 C   0  0  0  0  0  0  0  0  0  0  0  0
    0.6422    2.5416    6.1624 C   0  0  0  0  0  0  0  0  0  0  0  0
    0.9764    1.1825    6.3180 C   0  0  0  0  0  0  0  0  0  0  0  0
   -0.1027    0.2962    6.5458 N   0  0  0  0  0  0  0  0  0  0  0  0
   -0.1132   -1.0465    6.9452 C   0  0  0  0  0  0  0  0  0  0  0  0
   -0.4370   -1.1548    8.2750 N   0  0  0  0  0  0  0  0  0  0  0  0
   -1.0954   -2.2355    8.7163 C   0  0  0  0  0  0  0  0  0  0  0  0
   -1.5788   -3.1893    7.8649 C   0  0  0  0  0  0  0  0  0  0  0  0
   -1.1705   -3.0983    6.5476 C   0  0  0  0  0  0  0  0  0  0  0  0
   -1.6529   -4.0989    5.6846 N   0  0  0  0  0  0  0  0  0  0  0  0
   -0.6337   -4.6124    4.9170 C   0  0  0  0  0  0  0  0  0  0  0  0
    0.2193   -3.8499    4.2236 C   0  0  0  0  0  0  0  0  0  0  0  0
    0.4134   -4.5475    2.9225 C   0  0  0  0  0  0  0  0  0  0  0  0
   -0.5815   -4.2653    1.9639 C   0  0  0  0  0  0  0  0  0  0  0  0
   -1.1374   -5.2973    1.1977 C   0  0  0  0  0  0  0  0  0  0  0  0
   -0.6602   -6.5958    1.3327 C   0  0  0  0  0  0  0  0  0  0  0  0
   -1.2877   -7.5977    0.7015 F   0  0  0  0  0  0  0  0  0  0  0  0
    0.4147   -6.8768    2.1670 C   0  0  0  0  0  0  0  0  0  0  0  0
    0.9798   -5.8499    2.9390 C   0  0  0  0  0  0  0  0  0  0  0  0
    0.2280   -2.3594    4.6433 C   0  0  0  0  0  0  0  0  0  0  0  0
    0.6671   -1.4779    3.9215 O   0  0  0  0  0  0  0  0  0  0  0  0
   -0.2992   -2.0898    6.0503 C   0  0  0  0  0  0  0  0  0  0  0  0
    2.2905    0.7836    6.0997 C   0  0  0  0  0  0  0  0  0  0  0  0
    3.2412    1.7300    5.7154 C   0  0  0  0  0  0  0  0  0  0  0  0
    4.4999    1.3277    5.4890 F   0  0  0  0  0  0  0  0  0  0  0  0
    4.3258    6.1668    4.5722 C   0  0  0  0  0  0  0  0  0  0  0  0
    4.2633    7.4986    4.9173 C   0  0  0  0  0  0  0  0  0  0  0  0
    3.7698    7.9375    6.0923 N   0  0  0  0  0  0  0  0  0  0  0  0
    0.9185   10.4107   11.1330 H   0  0  0  0  0  0  0  0  0  0  0  0
    0.4586   10.5407    9.4243 H   0  0  0  0  0  0  0  0  0  0  0  0
    2.0706   11.0493    9.9445 H   0  0  0  0  0  0  0  0  0  0  0  0
    0.9946    8.1762   10.0137 H   0  0  0  0  0  0  0  0  0  0  0  0
    2.6092    8.6758   10.5694 H   0  0  0  0  0  0  0  0  0  0  0  0
    2.5459    6.7402    8.8762 H   0  0  0  0  0  0  0  0  0  0  0  0
    3.1329    4.9559    7.5100 H   0  0  0  0  0  0  0  0  0  0  0  0
    1.2559    4.4929    5.5447 H   0  0  0  0  0  0  0  0  0  0  0  0
   -0.3817    2.8708    6.3331 H   0  0  0  0  0  0  0  0  0  0  0  0
   -0.6534    0.7406    7.2910 H   0  0  0  0  0  0  0  0  0  0  0  0
   -1.2747   -2.3170    9.7838 H   0  0  0  0  0  0  0  0  0  0  0  0
   -2.2008   -4.0140    8.1902 H   0  0  0  0  0  0  0  0  0  0  0  0
   -2.2436   -3.5828    5.0071 H   0  0  0  0  0  0  0  0  0  0  0  0
   -0.8254   -5.6677    4.7387 H   0  0  0  0  0  0  0  0  0  0  0  0
   -1.0667   -3.2905    1.9543 H   0  0  0  0  0  0  0  0  0  0  0  0
   -2.0034   -5.1114    0.5697 H   0  0  0  0  0  0  0  0  0  0  0  0
    0.7344   -7.9089    2.2889 H   0  0  0  0  0  0  0  0  0  0  0  0
    1.7023   -6.1291    3.7063 H   0  0  0  0  0  0  0  0  0  0  0  0
    2.5963   -0.2506    6.2043 H   0  0  0  0  0  0  0  0  0  0  0  0
    4.7005    5.8588    3.6019 H   0  0  0  0  0  0  0  0  0  0  0  0
    4.6025    8.2786    4.2416 H   0  0  0  0  0  0  0  0  0  0  0  0
  1  2  1  0  0  0  0
  1 39  1  0  0  0  0
  1 40  1  0  0  0  0
  1 41  1  0  0  0  0
  2  3  1  0  0  0  0
  2 42  1  0  0  0  0
  2 43  1  0  0  0  0
  3  4  2  0  0  0  0
  3  5  1  0  0  0  0
  5  6  1  0  0  0  0
  5 44  1  0  0  0  0
  6  7  1  0  0  0  0
  6 38  2  0  0  0  0
  7  8  2  0  0  0  0
  7 45  1  0  0  0  0
  8  9  1  0  0  0  0
  8 36  1  0  0  0  0
  9 10  1  0  0  0  0
 10 11  1  0  0  0  0
 10 34  2  0  0  0  0
 11 12  2  0  0  0  0
 11 46  1  0  0  0  0
 12 13  1  0  0  0  0
 12 47  1  0  0  0  0
 13 14  1  0  0  0  0
 13 33  2  0  0  0  0
 14 15  1  0  0  0  0
 14 48  1  0  0  0  0
 15 16  1  0  0  0  0
 15 32  2  0  0  0  0
 16 17  2  0  0  0  0
 17 18  1  0  0  0  0
 17 49  1  0  0  0  0
 18 19  2  0  0  0  0
 18 50  1  0  0  0  0
 19 20  1  0  0  0  0
 19 32  1  0  0  0  0
 20 21  1  0  0  0  0
 20 51  1  0  0  0  0
 21 22  2  0  0  0  0
 21 52  1  0  0  0  0
 22 23  1  0  0  0  0
 22 30  1  0  0  0  0
 23 24  1  0  0  0  0
 23 29  2  0  0  0  0
 24 25  2  0  0  0  0
 24 53  1  0  0  0  0
 25 26  1  0  0  0  0
 25 54  1  0  0  0  0
 26 27  1  0  0  0  0
 26 28  2  0  0  0  0
 28 29  1  0  0  0  0
 28 55  1  0  0  0  0
 29 56  1  0  0  0  0
 30 31  2  0  0  0  0
 30 32  1  0  0  0  0
 33 34  1  0  0  0  0
 33 57  1  0  0  0  0
 34 35  1  0  0  0  0
 36 37  2  0  0  0  0
 36 58  1  0  0  0  0
 37 38  1  0  0  0  0
 37 59  1  0  0  0  0
M  END
$$$$
