CHEMBL3986456
 OpenBabel04072215373D

 57 60  0  0  0  0  0  0  0  0999 V2000
    2.6057    0.2144    0.0969 C   0  0  0  0  0  0  0  0  0  0  0  0
    1.1085    0.0772    0.1536 C   0  0  0  0  0  0  0  0  0  0  0  0
    0.3648    1.2769    0.2136 C   0  0  0  0  0  0  0  0  0  0  0  0
   -1.0302    1.2809    0.1617 C   0  0  0  0  0  0  0  0  0  0  0  0
   -1.7937    2.4250    0.2382 O   0  0  0  0  0  0  0  0  0  0  0  0
   -1.3560    3.5480   -0.4573 C   0  0  0  0  0  0  0  0  0  0  0  0
   -1.8038    4.7736   -0.0106 C   0  0  0  0  0  0  0  0  0  0  0  0
   -1.3597    5.8666   -0.7187 C   0  0  0  0  0  0  0  0  0  0  0  0
   -1.7947    7.1485   -0.3321 N   0  0  0  0  0  0  0  0  0  0  0  0
   -1.4788    8.3003   -1.0193 C   0  0  0  0  0  0  0  0  0  0  0  0
   -0.8093    8.4078   -2.0381 O   0  0  0  0  0  0  0  0  0  0  0  0
   -2.0323    9.5443   -0.3934 C   0  0  0  0  0  0  0  0  0  0  0  0
   -1.8935   10.8803   -1.0910 C   0  0  0  0  0  0  0  0  0  0  0  0
   -1.0659   10.5841    0.1243 C   0  0  0  0  0  0  0  0  0  0  0  0
   -0.5249    5.7436   -1.7579 N   0  0  0  0  0  0  0  0  0  0  0  0
   -0.1642    4.5130   -2.1203 C   0  0  0  0  0  0  0  0  0  0  0  0
   -0.5587    3.3894   -1.5275 N   0  0  0  0  0  0  0  0  0  0  0  0
   -1.7023    0.0719    0.0963 C   0  0  0  0  0  0  0  0  0  0  0  0
   -0.9806   -1.1262    0.0727 C   0  0  0  0  0  0  0  0  0  0  0  0
    0.4236   -1.1562    0.1232 C   0  0  0  0  0  0  0  0  0  0  0  0
    1.1405   -2.3887    0.1740 N   0  0  0  0  0  0  0  0  0  0  0  0
    0.5808   -3.6386    0.4161 C   0  0  0  0  0  0  0  0  0  0  0  0
   -0.6173   -3.8653    0.5540 O   0  0  0  0  0  0  0  0  0  0  0  0
    1.5368   -4.6383    0.5714 N   0  0  0  0  0  0  0  0  0  0  0  0
    1.1339   -5.9661    0.8819 C   0  0  0  0  0  0  0  0  0  0  0  0
    1.7735   -6.6358    1.9271 C   0  0  0  0  0  0  0  0  0  0  0  0
    1.3196   -7.8952    2.3281 C   0  0  0  0  0  0  0  0  0  0  0  0
    0.2674   -8.5070    1.6505 C   0  0  0  0  0  0  0  0  0  0  0  0
   -0.1569   -9.7051    2.0753 F   0  0  0  0  0  0  0  0  0  0  0  0
   -0.3450   -7.8927    0.5600 C   0  0  0  0  0  0  0  0  0  0  0  0
   -1.4423   -8.6003   -0.1934 C   0  0  0  0  0  0  0  0  0  0  0  0
   -2.8152   -8.3725    0.4204 C   0  0  0  0  0  0  0  0  0  0  0  0
   -1.5097   -8.1945   -1.4987 F   0  0  0  0  0  0  0  0  0  0  0  0
   -1.2423   -9.9506   -0.2659 F   0  0  0  0  0  0  0  0  0  0  0  0
    0.0891   -6.6050    0.1921 C   0  0  0  0  0  0  0  0  0  0  0  0
    2.9146    1.2559    0.2555 H   0  0  0  0  0  0  0  0  0  0  0  0
    2.9725   -0.0805   -0.8913 H   0  0  0  0  0  0  0  0  0  0  0  0
    3.0906   -0.3819    0.8730 H   0  0  0  0  0  0  0  0  0  0  0  0
    0.8919    2.2256    0.2811 H   0  0  0  0  0  0  0  0  0  0  0  0
   -2.4736    4.8534    0.8340 H   0  0  0  0  0  0  0  0  0  0  0  0
   -2.3790    7.2215    0.4843 H   0  0  0  0  0  0  0  0  0  0  0  0
   -2.9545    9.4073    0.1622 H   0  0  0  0  0  0  0  0  0  0  0  0
   -2.7006   11.5969   -0.9963 H   0  0  0  0  0  0  0  0  0  0  0  0
   -1.3901   10.9125   -2.0534 H   0  0  0  0  0  0  0  0  0  0  0  0
   -1.3101   11.0996    1.0436 H   0  0  0  0  0  0  0  0  0  0  0  0
   -0.0032   10.4189   -0.0274 H   0  0  0  0  0  0  0  0  0  0  0  0
    0.5118    4.4255   -2.9626 H   0  0  0  0  0  0  0  0  0  0  0  0
   -2.7872    0.0391    0.0565 H   0  0  0  0  0  0  0  0  0  0  0  0
   -1.5690   -2.0338   -0.0087 H   0  0  0  0  0  0  0  0  0  0  0  0
    2.1432   -2.3413    0.0819 H   0  0  0  0  0  0  0  0  0  0  0  0
    2.4015   -4.3293    0.9902 H   0  0  0  0  0  0  0  0  0  0  0  0
    2.5768   -6.1650    2.4862 H   0  0  0  0  0  0  0  0  0  0  0  0
    1.7683   -8.4012    3.1777 H   0  0  0  0  0  0  0  0  0  0  0  0
   -3.1002   -7.3164    0.3783 H   0  0  0  0  0  0  0  0  0  0  0  0
   -2.8561   -8.7103    1.4608 H   0  0  0  0  0  0  0  0  0  0  0  0
   -3.5694   -8.9391   -0.1376 H   0  0  0  0  0  0  0  0  0  0  0  0
   -0.3954   -6.1023   -0.6449 H   0  0  0  0  0  0  0  0  0  0  0  0
  1  2  1  0  0  0  0
  1 36  1  0  0  0  0
  1 37  1  0  0  0  0
  1 38  1  0  0  0  0
  2  3  1  0  0  0  0
  2 20  2  0  0  0  0
  3  4  2  0  0  0  0
  3 39  1  0  0  0  0
  4  5  1  0  0  0  0
  4 18  1  0  0  0  0
  5  6  1  0  0  0  0
  6  7  1  0  0  0  0
  6 17  2  0  0  0  0
  7  8  2  0  0  0  0
  7 40  1  0  0  0  0
  8  9  1  0  0  0  0
  8 15  1  0  0  0  0
  9 10  1  0  0  0  0
  9 41  1  0  0  0  0
 10 11  2  0  0  0  0
 10 12  1  0  0  0  0
 12 13  1  0  0  0  0
 12 14  1  0  0  0  0
 12 42  1  0  0  0  0
 13 14  1  0  0  0  0
 13 43  1  0  0  0  0
 13 44  1  0  0  0  0
 14 45  1  0  0  0  0
 14 46  1  0  0  0  0
 15 16  2  0  0  0  0
 16 17  1  0  0  0  0
 16 47  1  0  0  0  0
 18 19  2  0  0  0  0
 18 48  1  0  0  0  0
 19 20  1  0  0  0  0
 19 49  1  0  0  0  0
 20 21  1  0  0  0  0
 21 22  1  0  0  0  0
 21 50  1  0  0  0  0
 22 23  2  0  0  0  0
 22 24  1  0  0  0  0
 24 25  1  0  0  0  0
 24 51  1  0  0  0  0
 25 26  1  0  0  0  0
 25 35  2  0  0  0  0
 26 27  2  0  0  0  0
 26 52  1  0  0  0  0
 27 28  1  0  0  0  0
 27 53  1  0  0  0  0
 28 29  1  0  0  0  0
 28 30  2  0  0  0  0
 30 31  1  0  0  0  0
 30 35  1  0  0  0  0
 31 32  1  0  0  0  0
 31 33  1  0  0  0  0
 31 34  1  0  0  0  0
 32 54  1  0  0  0  0
 32 55  1  0  0  0  0
 32 56  1  0  0  0  0
 35 57  1  0  0  0  0
M  END
$$$$
