CHEMBL3694711
 OpenBabel04072215373D

 50 53  0  0  0  0  0  0  0  0999 V2000
    1.1557    0.8277    2.0670 N   0  0  0  0  0  0  0  0  0  0  0  0
    0.3891    0.4223    0.9794 C   0  0  0  0  0  0  0  0  0  0  0  0
    0.1525    1.2883   -0.0623 C   0  0  0  0  0  0  0  0  0  0  0  0
   -0.6613    0.8322   -1.0814 C   0  0  0  0  0  0  0  0  0  0  0  0
   -0.9639    1.7303   -2.2677 C   0  0  0  0  0  0  0  0  0  0  0  0
   -0.3584    2.9524   -2.1869 F   0  0  0  0  0  0  0  0  0  0  0  0
   -0.5505    1.1993   -3.4533 F   0  0  0  0  0  0  0  0  0  0  0  0
   -2.2935    1.9920   -2.4137 F   0  0  0  0  0  0  0  0  0  0  0  0
   -1.2155   -0.4055   -1.0417 N   0  0  0  0  0  0  0  0  0  0  0  0
   -0.9515   -1.1697    0.0340 C   0  0  0  0  0  0  0  0  0  0  0  0
   -1.6592   -2.4780    0.1189 C   0  0  0  0  0  0  0  0  0  0  0  0
   -2.6344   -2.8908   -0.9008 C   0  0  0  0  0  0  0  0  0  0  0  0
   -3.3113   -4.0412   -0.7685 C   0  0  0  0  0  0  0  0  0  0  0  0
   -3.0526   -4.8841    0.3156 N   0  0  0  0  0  0  0  0  0  0  0  0
   -3.5406   -6.1550    0.6335 C   0  0  0  0  0  0  0  0  0  0  0  0
   -4.3997   -7.0045   -0.2103 C   0  0  0  0  0  0  0  0  0  0  0  0
   -4.2530   -6.9620   -1.6047 C   0  0  0  0  0  0  0  0  0  0  0  0
   -5.0660   -7.7201   -2.4331 C   0  0  0  0  0  0  0  0  0  0  0  0
   -5.9820   -8.6022   -1.8829 C   0  0  0  0  0  0  0  0  0  0  0  0
   -6.0964   -8.7603   -0.4990 C   0  0  0  0  0  0  0  0  0  0  0  0
   -6.9507   -9.7416    0.0762 N   0  0  0  0  0  0  0  0  0  0  0  0
   -7.6854  -10.6796   -0.6313 C   0  0  0  0  0  0  0  0  0  0  0  0
   -7.7268  -10.8189   -1.8450 O   0  0  0  0  0  0  0  0  0  0  0  0
   -8.4676  -11.4766    0.1721 N   0  0  0  0  0  0  0  0  0  0  0  0
   -9.2850  -12.5103   -0.4853 C   0  0  0  0  0  0  0  0  0  0  0  0
   -8.5665  -13.8114   -0.8797 C   0  0  0  0  0  0  0  0  0  0  0  0
   -7.2923  -13.8527   -0.4287 F   0  0  0  0  0  0  0  0  0  0  0  0
   -9.2095  -14.8739   -0.3299 F   0  0  0  0  0  0  0  0  0  0  0  0
   -8.5484  -14.0076   -2.2149 F   0  0  0  0  0  0  0  0  0  0  0  0
   -5.3234   -7.9278    0.3343 C   0  0  0  0  0  0  0  0  0  0  0  0
   -2.9629   -6.4261    1.8647 C   0  0  0  0  0  0  0  0  0  0  0  0
   -2.1139   -5.4313    2.2740 N   0  0  0  0  0  0  0  0  0  0  0  0
   -2.1519   -4.5296    1.3180 C   0  0  0  0  0  0  0  0  0  0  0  0
   -1.4493   -3.2941    1.1817 C   0  0  0  0  0  0  0  0  0  0  0  0
   -0.1523   -0.7969    1.0470 N   0  0  0  0  0  0  0  0  0  0  0  0
    2.0500    1.2242    1.8028 H   0  0  0  0  0  0  0  0  0  0  0  0
    1.2594    0.0350    2.6967 H   0  0  0  0  0  0  0  0  0  0  0  0
    0.5759    2.2854   -0.0697 H   0  0  0  0  0  0  0  0  0  0  0  0
   -2.8058   -2.2418   -1.7555 H   0  0  0  0  0  0  0  0  0  0  0  0
   -4.0588   -4.3360   -1.4907 H   0  0  0  0  0  0  0  0  0  0  0  0
   -3.4930   -6.3507   -2.0765 H   0  0  0  0  0  0  0  0  0  0  0  0
   -4.9727   -7.6397   -3.5128 H   0  0  0  0  0  0  0  0  0  0  0  0
   -6.5799   -9.1714   -2.5891 H   0  0  0  0  0  0  0  0  0  0  0  0
   -6.9883   -9.7829    1.0812 H   0  0  0  0  0  0  0  0  0  0  0  0
   -8.1455  -11.6600    1.1107 H   0  0  0  0  0  0  0  0  0  0  0  0
   -9.7341  -12.0757   -1.3872 H   0  0  0  0  0  0  0  0  0  0  0  0
  -10.1083  -12.7349    0.1991 H   0  0  0  0  0  0  0  0  0  0  0  0
   -5.4254   -8.0019    1.4144 H   0  0  0  0  0  0  0  0  0  0  0  0
   -3.0840   -7.3200    2.4621 H   0  0  0  0  0  0  0  0  0  0  0  0
   -0.7535   -3.0395    1.9748 H   0  0  0  0  0  0  0  0  0  0  0  0
  1  2  1  0  0  0  0
  1 36  1  0  0  0  0
  1 37  1  0  0  0  0
  2  3  1  0  0  0  0
  2 35  2  0  0  0  0
  3  4  2  0  0  0  0
  3 38  1  0  0  0  0
  4  5  1  0  0  0  0
  4  9  1  0  0  0  0
  5  6  1  0  0  0  0
  5  7  1  0  0  0  0
  5  8  1  0  0  0  0
  9 10  2  0  0  0  0
 10 11  1  0  0  0  0
 10 35  1  0  0  0  0
 11 12  1  0  0  0  0
 11 34  2  0  0  0  0
 12 13  2  0  0  0  0
 12 39  1  0  0  0  0
 13 14  1  0  0  0  0
 13 40  1  0  0  0  0
 14 15  1  0  0  0  0
 14 33  1  0  0  0  0
 15 16  1  0  0  0  0
 15 31  2  0  0  0  0
 16 17  1  0  0  0  0
 16 30  2  0  0  0  0
 17 18  2  0  0  0  0
 17 41  1  0  0  0  0
 18 19  1  0  0  0  0
 18 42  1  0  0  0  0
 19 20  2  0  0  0  0
 19 43  1  0  0  0  0
 20 21  1  0  0  0  0
 20 30  1  0  0  0  0
 21 22  1  0  0  0  0
 21 44  1  0  0  0  0
 22 23  2  0  0  0  0
 22 24  1  0  0  0  0
 24 25  1  0  0  0  0
 24 45  1  0  0  0  0
 25 26  1  0  0  0  0
 25 46  1  0  0  0  0
 25 47  1  0  0  0  0
 26 27  1  0  0  0  0
 26 28  1  0  0  0  0
 26 29  1  0  0  0  0
 30 48  1  0  0  0  0
 31 32  1  0  0  0  0
 31 49  1  0  0  0  0
 32 33  2  0  0  0  0
 33 34  1  0  0  0  0
 34 50  1  0  0  0  0
M  END
$$$$
