CHEMBL3906155
 OpenBabel04072215373D

 59 62  0  0  0  0  0  0  0  0999 V2000
    4.5760    4.1791    4.0101 C   0  0  0  0  0  0  0  0  0  0  0  0
    4.1273    3.1462    3.0131 C   0  0  0  0  0  0  0  0  0  0  0  0
    4.6512    3.5212    1.7480 O   0  0  0  0  0  0  0  0  0  0  0  0
    4.3553    2.5293    0.7885 C   0  0  0  0  0  0  0  0  0  0  0  0
    5.1428    2.8005   -0.4954 C   0  0  0  0  0  0  0  0  0  0  0  0
    6.6837    2.9192   -0.3713 N   0  0  0  0  0  0  0  0  0  0  0  0
    7.2668    1.5826   -0.3551 C   0  0  0  0  0  0  0  0  0  0  0  0
    6.4787    0.4296   -0.0403 C   0  0  0  0  0  0  0  0  0  0  0  0
    6.9713   -0.8545    0.1850 C   0  0  0  0  0  0  0  0  0  0  0  0
    6.2372   -1.9389    0.5873 O   0  0  0  0  0  0  0  0  0  0  0  0
    4.8554   -1.7345    0.8827 C   0  0  0  0  0  0  0  0  0  0  0  0
    8.3112   -1.0708   -0.0462 C   0  0  0  0  0  0  0  0  0  0  0  0
    9.1076   -0.0268   -0.5353 C   0  0  0  0  0  0  0  0  0  0  0  0
   10.4072   -0.2089   -0.9476 O   0  0  0  0  0  0  0  0  0  0  0  0
   10.8350   -1.5674   -1.0727 C   0  0  0  0  0  0  0  0  0  0  0  0
    8.6004    1.2981   -0.6461 C   0  0  0  0  0  0  0  0  0  0  0  0
    7.1817    4.1829   -0.9474 C   0  0  0  0  0  0  0  0  0  0  0  0
    6.3656    4.7084   -1.9282 C   0  0  0  0  0  0  0  0  0  0  0  0
    6.5698    5.9377   -2.4865 C   0  0  0  0  0  0  0  0  0  0  0  0
    7.6186    6.7153   -2.2223 C   0  0  0  0  0  0  0  0  0  0  0  0
    7.4387    7.6634   -3.1054 N   0  0  0  0  0  0  0  0  0  0  0  0
    8.1843    8.7259   -3.0034 C   0  0  0  0  0  0  0  0  0  0  0  0
    9.2040    8.8630   -2.1105 C   0  0  0  0  0  0  0  0  0  0  0  0
    9.7919   10.2453   -2.3246 C   0  0  0  0  0  0  0  0  0  0  0  0
    9.6836   11.4703   -1.5694 C   0  0  0  0  0  0  0  0  0  0  0  0
    9.7194   12.5922   -2.3379 N   0  0  0  0  0  0  0  0  0  0  0  0
    9.7575   12.1369   -3.5914 N   0  0  0  0  0  0  0  0  0  0  0  0
    9.5467   13.0182   -4.7362 C   0  0  0  0  0  0  0  0  0  0  0  0
    9.8694   10.7706   -3.6354 C   0  0  0  0  0  0  0  0  0  0  0  0
    9.4740    7.7831   -1.2154 N   0  0  0  0  0  0  0  0  0  0  0  0
    8.5934    6.5361   -1.2549 C   0  0  0  0  0  0  0  0  0  0  0  0
    8.3153    5.0686   -0.6141 C   0  0  0  0  0  0  0  0  0  0  0  0
    4.1816    3.9465    5.0002 H   0  0  0  0  0  0  0  0  0  0  0  0
    4.2396    5.1745    3.7045 H   0  0  0  0  0  0  0  0  0  0  0  0
    5.6701    4.2099    4.0544 H   0  0  0  0  0  0  0  0  0  0  0  0
    3.0348    3.1037    2.9488 H   0  0  0  0  0  0  0  0  0  0  0  0
    4.5111    2.1592    3.2984 H   0  0  0  0  0  0  0  0  0  0  0  0
    3.2840    2.5866    0.5411 H   0  0  0  0  0  0  0  0  0  0  0  0
    4.5121    1.5407    1.2171 H   0  0  0  0  0  0  0  0  0  0  0  0
    4.6596    3.7333   -0.7936 H   0  0  0  0  0  0  0  0  0  0  0  0
    4.8810    2.0841   -1.2961 H   0  0  0  0  0  0  0  0  0  0  0  0
    5.4078    0.4823   -0.0129 H   0  0  0  0  0  0  0  0  0  0  0  0
    4.4376   -2.6747    1.2582 H   0  0  0  0  0  0  0  0  0  0  0  0
    4.2989   -1.4688   -0.0229 H   0  0  0  0  0  0  0  0  0  0  0  0
    4.7154   -0.9788    1.6641 H   0  0  0  0  0  0  0  0  0  0  0  0
    8.6943   -2.0714    0.1265 H   0  0  0  0  0  0  0  0  0  0  0  0
   11.7890   -1.5786   -1.6065 H   0  0  0  0  0  0  0  0  0  0  0  0
   10.1305   -2.1728   -1.6576 H   0  0  0  0  0  0  0  0  0  0  0  0
   10.9964   -2.0091   -0.0831 H   0  0  0  0  0  0  0  0  0  0  0  0
    9.2618    2.0801   -1.0025 H   0  0  0  0  0  0  0  0  0  0  0  0
    5.4860    4.2218   -2.3345 H   0  0  0  0  0  0  0  0  0  0  0  0
    5.7939    6.2892   -3.1627 H   0  0  0  0  0  0  0  0  0  0  0  0
    7.8635    9.4819   -3.7012 H   0  0  0  0  0  0  0  0  0  0  0  0
    9.4717   11.6204   -0.5345 H   0  0  0  0  0  0  0  0  0  0  0  0
    9.3735   14.0498   -4.4203 H   0  0  0  0  0  0  0  0  0  0  0  0
    8.6736   12.6769   -5.3163 H   0  0  0  0  0  0  0  0  0  0  0  0
   10.4353   12.9697   -5.3740 H   0  0  0  0  0  0  0  0  0  0  0  0
    9.7797   10.2852   -4.5932 H   0  0  0  0  0  0  0  0  0  0  0  0
    9.0085    4.7406    0.1698 H   0  0  0  0  0  0  0  0  0  0  0  0
  1  2  1  0  0  0  0
  1 33  1  0  0  0  0
  1 34  1  0  0  0  0
  1 35  1  0  0  0  0
  2  3  1  0  0  0  0
  2 36  1  0  0  0  0
  2 37  1  0  0  0  0
  3  4  1  0  0  0  0
  4  5  1  0  0  0  0
  4 38  1  0  0  0  0
  4 39  1  0  0  0  0
  5  6  1  0  0  0  0
  5 40  1  0  0  0  0
  5 41  1  0  0  0  0
  6  7  1  0  0  0  0
  6 17  1  0  0  0  0
  7  8  1  0  0  0  0
  7 16  2  0  0  0  0
  8  9  2  0  0  0  0
  8 42  1  0  0  0  0
  9 10  1  0  0  0  0
  9 12  1  0  0  0  0
 10 11  1  0  0  0  0
 11 43  1  0  0  0  0
 11 44  1  0  0  0  0
 11 45  1  0  0  0  0
 12 13  2  0  0  0  0
 12 46  1  0  0  0  0
 13 14  1  0  0  0  0
 13 16  1  0  0  0  0
 14 15  1  0  0  0  0
 15 47  1  0  0  0  0
 15 48  1  0  0  0  0
 15 49  1  0  0  0  0
 16 50  1  0  0  0  0
 17 18  1  0  0  0  0
 17 32  2  0  0  0  0
 18 19  2  0  0  0  0
 18 51  1  0  0  0  0
 19 20  1  0  0  0  0
 19 52  1  0  0  0  0
 20 21  1  0  0  0  0
 20 31  2  0  0  0  0
 21 22  2  0  0  0  0
 22 23  1  0  0  0  0
 22 53  1  0  0  0  0
 23 24  1  0  0  0  0
 23 30  2  0  0  0  0
 24 25  1  0  0  0  0
 24 29  2  0  0  0  0
 25 26  2  0  0  0  0
 25 54  1  0  0  0  0
 26 27  1  0  0  0  0
 27 28  1  0  0  0  0
 27 29  1  0  0  0  0
 28 55  1  0  0  0  0
 28 56  1  0  0  0  0
 28 57  1  0  0  0  0
 29 58  1  0  0  0  0
 30 31  1  0  0  0  0
 31 32  1  0  0  0  0
 32 59  1  0  0  0  0
M  END
$$$$
