CHEMBL88462
 OpenBabel04072215383D

 50 54  0  0  0  0  0  0  0  0999 V2000
    5.6622   -1.6036   -1.5825 C   0  0  0  0  0  0  0  0  0  0  0  0
    5.2391   -0.6042   -0.6628 O   0  0  0  0  0  0  0  0  0  0  0  0
    4.5026   -1.0082    0.4237 C   0  0  0  0  0  0  0  0  0  0  0  0
    3.9980   -2.3124    0.5664 C   0  0  0  0  0  0  0  0  0  0  0  0
    3.2351   -2.6743    1.6785 C   0  0  0  0  0  0  0  0  0  0  0  0
    2.9979   -1.7509    2.6830 C   0  0  0  0  0  0  0  0  0  0  0  0
    3.4983   -0.4576    2.5549 C   0  0  0  0  0  0  0  0  0  0  0  0
    4.2176   -0.0354    1.4100 C   0  0  0  0  0  0  0  0  0  0  0  0
    4.5353    1.4135    1.2757 C   0  0  0  0  0  0  0  0  0  0  0  0
    3.5472    2.3548    1.6783 C   0  0  0  0  0  0  0  0  0  0  0  0
    3.7414    3.7303    1.5980 C   0  0  0  0  0  0  0  0  0  0  0  0
    4.9343    4.1813    1.0758 C   0  0  0  0  0  0  0  0  0  0  0  0
    5.9188    3.2841    0.6675 C   0  0  0  0  0  0  0  0  0  0  0  0
    5.7512    1.9101    0.7610 C   0  0  0  0  0  0  0  0  0  0  0  0
    7.0211    3.9830    0.1738 N   0  0  0  0  0  0  0  0  0  0  0  0
    6.8154    5.3602    0.2171 C   0  0  0  0  0  0  0  0  0  0  0  0
    7.5857    6.2270   -0.1484 O   0  0  0  0  0  0  0  0  0  0  0  0
    5.4375    5.5327    0.8016 C   0  0  0  0  0  0  0  0  0  0  0  0
    4.6792    6.6092    1.0501 C   0  0  0  0  0  0  0  0  0  0  0  0
    4.9387    7.9788    0.8252 C   0  0  0  0  0  0  0  0  0  0  0  0
    4.1554    9.0770    1.1437 C   0  0  0  0  0  0  0  0  0  0  0  0
    4.8284   10.2330    0.7043 C   0  0  0  0  0  0  0  0  0  0  0  0
    5.9999    9.8084    0.1151 C   0  0  0  0  0  0  0  0  0  0  0  0
    6.0716    8.4444    0.2022 N   0  0  0  0  0  0  0  0  0  0  0  0
    7.0228   10.6841   -0.5110 C   0  0  0  0  0  0  0  0  0  0  0  0
    6.8578   12.1106    0.0449 C   0  0  0  0  0  0  0  0  0  0  0  0
    5.3869   12.5735    0.0135 C   0  0  0  0  0  0  0  0  0  0  0  0
    4.4560   11.6672    0.8416 C   0  0  0  0  0  0  0  0  0  0  0  0
    6.3701   -1.1419   -2.2774 H   0  0  0  0  0  0  0  0  0  0  0  0
    4.8123   -1.9728   -2.1651 H   0  0  0  0  0  0  0  0  0  0  0  0
    6.1862   -2.4247   -1.0807 H   0  0  0  0  0  0  0  0  0  0  0  0
    4.1596   -3.0723   -0.1909 H   0  0  0  0  0  0  0  0  0  0  0  0
    2.8267   -3.6782    1.7572 H   0  0  0  0  0  0  0  0  0  0  0  0
    2.4099   -2.0215    3.5559 H   0  0  0  0  0  0  0  0  0  0  0  0
    3.2935    0.2449    3.3619 H   0  0  0  0  0  0  0  0  0  0  0  0
    2.5851    2.0104    2.0556 H   0  0  0  0  0  0  0  0  0  0  0  0
    2.9585    4.4032    1.9264 H   0  0  0  0  0  0  0  0  0  0  0  0
    6.5364    1.2383    0.4320 H   0  0  0  0  0  0  0  0  0  0  0  0
    7.8636    3.5632   -0.1884 H   0  0  0  0  0  0  0  0  0  0  0  0
    3.6951    6.4398    1.4818 H   0  0  0  0  0  0  0  0  0  0  0  0
    3.1995    9.0404    1.6500 H   0  0  0  0  0  0  0  0  0  0  0  0
    6.8421    7.8701   -0.1320 H   0  0  0  0  0  0  0  0  0  0  0  0
    6.8689   10.6924   -1.5970 H   0  0  0  0  0  0  0  0  0  0  0  0
    8.0350   10.3155   -0.3166 H   0  0  0  0  0  0  0  0  0  0  0  0
    7.4790   12.8024   -0.5334 H   0  0  0  0  0  0  0  0  0  0  0  0
    7.2173   12.1413    1.0821 H   0  0  0  0  0  0  0  0  0  0  0  0
    5.0441   12.5844   -1.0290 H   0  0  0  0  0  0  0  0  0  0  0  0
    5.3107   13.6019    0.3840 H   0  0  0  0  0  0  0  0  0  0  0  0
    3.4168   11.8235    0.5304 H   0  0  0  0  0  0  0  0  0  0  0  0
    4.5250   11.9449    1.9001 H   0  0  0  0  0  0  0  0  0  0  0  0
  1  2  1  0  0  0  0
  1 29  1  0  0  0  0
  1 30  1  0  0  0  0
  1 31  1  0  0  0  0
  2  3  1  0  0  0  0
  3  4  1  0  0  0  0
  3  8  2  0  0  0  0
  4  5  2  0  0  0  0
  4 32  1  0  0  0  0
  5  6  1  0  0  0  0
  5 33  1  0  0  0  0
  6  7  2  0  0  0  0
  6 34  1  0  0  0  0
  7  8  1  0  0  0  0
  7 35  1  0  0  0  0
  8  9  1  0  0  0  0
  9 10  1  0  0  0  0
  9 14  2  0  0  0  0
 10 11  2  0  0  0  0
 10 36  1  0  0  0  0
 11 12  1  0  0  0  0
 11 37  1  0  0  0  0
 12 13  2  0  0  0  0
 12 18  1  0  0  0  0
 13 14  1  0  0  0  0
 13 15  1  0  0  0  0
 14 38  1  0  0  0  0
 15 16  1  0  0  0  0
 15 39  1  0  0  0  0
 16 17  2  0  0  0  0
 16 18  1  0  0  0  0
 18 19  2  0  0  0  0
 19 20  1  0  0  0  0
 19 40  1  0  0  0  0
 20 21  2  0  0  0  0
 20 24  1  0  0  0  0
 21 22  1  0  0  0  0
 21 41  1  0  0  0  0
 22 23  2  0  0  0  0
 22 28  1  0  0  0  0
 23 24  1  0  0  0  0
 23 25  1  0  0  0  0
 24 42  1  0  0  0  0
 25 26  1  0  0  0  0
 25 43  1  0  0  0  0
 25 44  1  0  0  0  0
 26 27  1  0  0  0  0
 26 45  1  0  0  0  0
 26 46  1  0  0  0  0
 27 28  1  0  0  0  0
 27 47  1  0  0  0  0
 27 48  1  0  0  0  0
 28 49  1  0  0  0  0
 28 50  1  0  0  0  0
M  END
$$$$
