CHEMBL250394
 OpenBabel04072215363D

 39 42  0  0  0  0  0  0  0  0999 V2000
   -0.1775    1.0093   -0.8368 C   0  0  0  0  0  0  0  0  0  0  0  0
   -1.0463   -0.0978   -0.3640 C   0  0  0  0  0  0  0  0  0  0  0  0
   -2.2202   -0.3457   -1.0687 N   0  0  0  0  0  0  0  0  0  0  0  0
   -2.9231   -1.3235   -0.5292 N   0  0  0  0  0  0  0  0  0  0  0  0
   -2.2120   -1.9451    0.8404 S   0  0  0  0  0  0  0  0  0  0  0  0
   -0.8267   -0.9420    0.7195 C   0  0  0  0  0  0  0  0  0  0  0  0
    0.2443   -0.9566    1.6750 C   0  0  0  0  0  0  0  0  0  0  0  0
    0.9257    0.1349    1.9436 N   0  0  0  0  0  0  0  0  0  0  0  0
    1.8107   -0.1899    2.9458 N   0  0  0  0  0  0  0  0  0  0  0  0
    1.7412   -1.4976    3.3962 C   0  0  0  0  0  0  0  0  0  0  0  0
    2.3806   -2.0034    4.2949 O   0  0  0  0  0  0  0  0  0  0  0  0
    0.7292   -2.0957    2.4975 C   0  0  0  0  0  0  0  0  0  0  0  0
    0.4109   -3.3908    2.3906 C   0  0  0  0  0  0  0  0  0  0  0  0
    0.8771   -4.4531    3.2086 C   0  0  0  0  0  0  0  0  0  0  0  0
    0.2083   -4.8620    4.3378 C   0  0  0  0  0  0  0  0  0  0  0  0
    0.8513   -5.9701    4.8152 N   0  0  0  0  0  0  0  0  0  0  0  0
    0.4349   -6.7149    5.9823 C   0  0  0  0  0  0  0  0  0  0  0  0
    1.9205   -6.2947    4.0033 C   0  0  0  0  0  0  0  0  0  0  0  0
    2.8280   -7.3611    4.0802 C   0  0  0  0  0  0  0  0  0  0  0  0
    3.8210   -7.4470    3.1061 C   0  0  0  0  0  0  0  0  0  0  0  0
    3.9179   -6.4912    2.0994 C   0  0  0  0  0  0  0  0  0  0  0  0
    3.0182   -5.4092    2.0171 C   0  0  0  0  0  0  0  0  0  0  0  0
    3.1978   -4.4002    0.9158 C   0  0  0  0  0  0  0  0  0  0  0  0
    1.9829   -5.3289    2.9884 C   0  0  0  0  0  0  0  0  0  0  0  0
   -0.5871    1.4663   -1.7433 H   0  0  0  0  0  0  0  0  0  0  0  0
    0.8265    0.6408   -1.0674 H   0  0  0  0  0  0  0  0  0  0  0  0
   -0.1028    1.7905   -0.0742 H   0  0  0  0  0  0  0  0  0  0  0  0
    2.4241    0.5088    3.3497 H   0  0  0  0  0  0  0  0  0  0  0  0
   -0.2631   -3.7208    1.6091 H   0  0  0  0  0  0  0  0  0  0  0  0
   -0.6726   -4.4676    4.8276 H   0  0  0  0  0  0  0  0  0  0  0  0
   -0.4239   -6.2205    6.4444 H   0  0  0  0  0  0  0  0  0  0  0  0
    1.2664   -6.7468    6.6903 H   0  0  0  0  0  0  0  0  0  0  0  0
    0.1526   -7.7219    5.6651 H   0  0  0  0  0  0  0  0  0  0  0  0
    2.7636   -8.1056    4.8665 H   0  0  0  0  0  0  0  0  0  0  0  0
    4.5327   -8.2681    3.1375 H   0  0  0  0  0  0  0  0  0  0  0  0
    4.7155   -6.5885    1.3650 H   0  0  0  0  0  0  0  0  0  0  0  0
    4.1228   -4.5716    0.3554 H   0  0  0  0  0  0  0  0  0  0  0  0
    3.2576   -3.3908    1.3341 H   0  0  0  0  0  0  0  0  0  0  0  0
    2.3601   -4.4543    0.2141 H   0  0  0  0  0  0  0  0  0  0  0  0
  1  2  1  0  0  0  0
  1 25  1  0  0  0  0
  1 26  1  0  0  0  0
  1 27  1  0  0  0  0
  2  3  1  0  0  0  0
  2  6  2  0  0  0  0
  3  4  2  0  0  0  0
  4  5  1  0  0  0  0
  5  6  1  0  0  0  0
  6  7  1  0  0  0  0
  7  8  2  0  0  0  0
  7 12  1  0  0  0  0
  8  9  1  0  0  0  0
  9 10  1  0  0  0  0
  9 28  1  0  0  0  0
 10 11  2  0  0  0  0
 10 12  1  0  0  0  0
 12 13  2  0  0  0  0
 13 14  1  0  0  0  0
 13 29  1  0  0  0  0
 14 15  2  0  0  0  0
 14 24  1  0  0  0  0
 15 16  1  0  0  0  0
 15 30  1  0  0  0  0
 16 17  1  0  0  0  0
 16 18  1  0  0  0  0
 17 31  1  0  0  0  0
 17 32  1  0  0  0  0
 17 33  1  0  0  0  0
 18 19  1  0  0  0  0
 18 24  2  0  0  0  0
 19 20  2  0  0  0  0
 19 34  1  0  0  0  0
 20 21  1  0  0  0  0
 20 35  1  0  0  0  0
 21 22  2  0  0  0  0
 21 36  1  0  0  0  0
 22 23  1  0  0  0  0
 22 24  1  0  0  0  0
 23 37  1  0  0  0  0
 23 38  1  0  0  0  0
 23 39  1  0  0  0  0
M  END
$$$$
