CHEMBL3960598
 OpenBabel04072215373D

 69 71  0  0  0  0  0  0  0  0999 V2000
   18.7323    3.2956    4.2049 C   0  0  0  0  0  0  0  0  0  0  0  0
   17.9952    2.0738    4.1276 O   0  0  0  0  0  0  0  0  0  0  0  0
   16.6719    2.2442    3.8532 C   0  0  0  0  0  0  0  0  0  0  0  0
   16.1241    3.3250    3.6837 O   0  0  0  0  0  0  0  0  0  0  0  0
   15.9824    0.8989    3.7923 C   0  0  0  0  0  0  0  0  0  0  0  0
   14.4906    1.0487    3.4839 C   0  0  0  0  0  0  0  0  0  0  0  0
   13.7782   -0.3031    3.4232 C   0  0  0  0  0  0  0  0  0  0  0  0
   12.2891   -0.1318    3.1285 C   0  0  0  0  0  0  0  0  0  0  0  0
   11.4448   -1.7068    3.0057 S   0  0  3  0  0  0  0  0  0  0  0  0
    9.7756   -1.1982    2.6346 C   0  0  0  0  0  0  0  0  0  0  0  0
   11.9666   -2.3659    1.8238 O   0  0  0  0  0  0  0  0  0  0  0  0
   11.4512   -2.3313    4.4165 N   0  0  0  0  0  0  0  0  0  0  0  0
   10.9303   -3.6205    4.6339 C   0  0  0  0  0  0  0  0  0  0  0  0
   10.0296   -4.0902    3.9445 O   0  0  0  0  0  0  0  0  0  0  0  0
   11.3752   -4.4289    5.8023 C   0  0  0  0  0  0  0  0  0  0  0  0
   10.8351   -5.6897    6.0147 C   0  0  0  0  0  0  0  0  0  0  0  0
   11.1429   -6.4790    7.0760 N   0  0  0  0  0  0  0  0  0  0  0  0
   12.0313   -6.0011    7.9699 C   0  0  0  0  0  0  0  0  0  0  0  0
   12.2309   -6.8012    9.0930 N   0  0  0  0  0  0  0  0  0  0  0  0
   12.6470   -4.7501    7.8267 C   0  0  0  0  0  0  0  0  0  0  0  0
   13.6174   -4.2832    8.7790 C   0  0  0  0  0  0  0  0  0  0  0  0
   14.4357   -3.9305    9.5804 C   0  0  0  0  0  0  0  0  0  0  0  0
   15.4169   -3.4982   10.5336 C   0  0  0  0  0  0  0  0  0  0  0  0
   15.4994   -2.1448   10.8621 C   0  0  0  0  0  0  0  0  0  0  0  0
   16.4634   -1.7098   11.7671 C   0  0  0  0  0  0  0  0  0  0  0  0
   17.3396   -2.6256   12.3528 C   0  0  0  0  0  0  0  0  0  0  0  0
   17.2601   -3.9879   12.0531 C   0  0  0  0  0  0  0  0  0  0  0  0
   18.1183   -4.9564   12.6275 N   0  0  0  0  0  0  0  0  0  0  0  0
   19.0140   -4.7541   13.6679 C   0  0  0  0  0  0  0  0  0  0  0  0
   19.1770   -3.7087   14.2897 O   0  0  0  0  0  0  0  0  0  0  0  0
   19.8578   -5.9137   14.0651 C   0  0  0  0  0  0  0  0  0  0  0  0
   21.0897   -5.6626   14.6965 C   0  0  0  0  0  0  0  0  0  0  0  0
   21.9116   -6.7196   15.1149 C   0  0  0  0  0  0  0  0  0  0  0  0
   23.2465   -6.4614   15.7522 C   0  0  0  0  0  0  0  0  0  0  0  0
   21.4792   -8.0365   14.9159 C   0  0  0  0  0  0  0  0  0  0  0  0
   20.2558   -8.2919   14.2946 C   0  0  0  0  0  0  0  0  0  0  0  0
   19.4588   -7.2331   13.8659 C   0  0  0  0  0  0  0  0  0  0  0  0
   18.2958   -7.5170   13.2597 F   0  0  0  0  0  0  0  0  0  0  0  0
   16.2943   -4.4178   11.1288 C   0  0  0  0  0  0  0  0  0  0  0  0
   12.3133   -3.9580    6.7245 C   0  0  0  0  0  0  0  0  0  0  0  0
   19.7759    3.0527    4.4234 H   0  0  0  0  0  0  0  0  0  0  0  0
   18.3478    3.9252    5.0135 H   0  0  0  0  0  0  0  0  0  0  0  0
   18.6946    3.8275    3.2490 H   0  0  0  0  0  0  0  0  0  0  0  0
   16.1140    0.4024    4.7598 H   0  0  0  0  0  0  0  0  0  0  0  0
   16.4655    0.3004    3.0124 H   0  0  0  0  0  0  0  0  0  0  0  0
   14.3665    1.5725    2.5277 H   0  0  0  0  0  0  0  0  0  0  0  0
   14.0204    1.6777    4.2502 H   0  0  0  0  0  0  0  0  0  0  0  0
   13.9108   -0.8314    4.3747 H   0  0  0  0  0  0  0  0  0  0  0  0
   14.2400   -0.9272    2.6488 H   0  0  0  0  0  0  0  0  0  0  0  0
   12.1437    0.3815    2.1718 H   0  0  0  0  0  0  0  0  0  0  0  0
   11.7966    0.4490    3.9153 H   0  0  0  0  0  0  0  0  0  0  0  0
    9.7786   -0.6603    1.6840 H   0  0  0  0  0  0  0  0  0  0  0  0
    9.4104   -0.5512    3.4346 H   0  0  0  0  0  0  0  0  0  0  0  0
    9.1429   -2.0829    2.5454 H   0  0  0  0  0  0  0  0  0  0  0  0
   10.1077   -6.1218    5.3302 H   0  0  0  0  0  0  0  0  0  0  0  0
   11.7569   -7.6859    8.9386 H   0  0  0  0  0  0  0  0  0  0  0  0
   13.2081   -6.9027    9.3355 H   0  0  0  0  0  0  0  0  0  0  0  0
   14.8205   -1.4221   10.4169 H   0  0  0  0  0  0  0  0  0  0  0  0
   16.5420   -0.6559   12.0220 H   0  0  0  0  0  0  0  0  0  0  0  0
   18.0865   -2.2350   13.0362 H   0  0  0  0  0  0  0  0  0  0  0  0
   18.0278   -5.9018   12.2708 H   0  0  0  0  0  0  0  0  0  0  0  0
   21.4070   -4.6323   14.8581 H   0  0  0  0  0  0  0  0  0  0  0  0
   23.4239   -5.3917   15.9038 H   0  0  0  0  0  0  0  0  0  0  0  0
   24.0460   -6.8482   15.1116 H   0  0  0  0  0  0  0  0  0  0  0  0
   23.3022   -6.9522   16.7292 H   0  0  0  0  0  0  0  0  0  0  0  0
   22.0968   -8.8699   15.2457 H   0  0  0  0  0  0  0  0  0  0  0  0
   19.9188   -9.3130   14.1446 H   0  0  0  0  0  0  0  0  0  0  0  0
   16.2075   -5.4717   10.8763 H   0  0  0  0  0  0  0  0  0  0  0  0
   12.7685   -2.9795    6.5933 H   0  0  0  0  0  0  0  0  0  0  0  0
  1  2  1  0  0  0  0
  1 41  1  0  0  0  0
  1 42  1  0  0  0  0
  1 43  1  0  0  0  0
  2  3  1  0  0  0  0
  3  4  2  0  0  0  0
  3  5  1  0  0  0  0
  5  6  1  0  0  0  0
  5 44  1  0  0  0  0
  5 45  1  0  0  0  0
  6  7  1  0  0  0  0
  6 46  1  0  0  0  0
  6 47  1  0  0  0  0
  7  8  1  0  0  0  0
  7 48  1  0  0  0  0
  7 49  1  0  0  0  0
  8  9  1  0  0  0  0
  8 50  1  0  0  0  0
  8 51  1  0  0  0  0
  9 10  1  0  0  0  0
  9 11  2  0  0  0  0
  9 12  2  0  0  0  0
 10 52  1  0  0  0  0
 10 53  1  0  0  0  0
 10 54  1  0  0  0  0
 12 13  1  0  0  0  0
 13 14  2  0  0  0  0
 13 15  1  0  0  0  0
 15 16  1  0  0  0  0
 15 40  2  0  0  0  0
 16 17  2  0  0  0  0
 16 55  1  0  0  0  0
 17 18  1  0  0  0  0
 18 19  1  0  0  0  0
 18 20  2  0  0  0  0
 19 56  1  0  0  0  0
 19 57  1  0  0  0  0
 20 21  1  0  0  0  0
 20 40  1  0  0  0  0
 21 22  3  0  0  0  0
 22 23  1  0  0  0  0
 23 24  1  0  0  0  0
 23 39  2  0  0  0  0
 24 25  2  0  0  0  0
 24 58  1  0  0  0  0
 25 26  1  0  0  0  0
 25 59  1  0  0  0  0
 26 27  2  0  0  0  0
 26 60  1  0  0  0  0
 27 28  1  0  0  0  0
 27 39  1  0  0  0  0
 28 29  1  0  0  0  0
 28 61  1  0  0  0  0
 29 30  2  0  0  0  0
 29 31  1  0  0  0  0
 31 32  1  0  0  0  0
 31 37  2  0  0  0  0
 32 33  2  0  0  0  0
 32 62  1  0  0  0  0
 33 34  1  0  0  0  0
 33 35  1  0  0  0  0
 34 63  1  0  0  0  0
 34 64  1  0  0  0  0
 34 65  1  0  0  0  0
 35 36  2  0  0  0  0
 35 66  1  0  0  0  0
 36 37  1  0  0  0  0
 36 67  1  0  0  0  0
 37 38  1  0  0  0  0
 39 68  1  0  0  0  0
 40 69  1  0  0  0  0
M  END
$$$$
