CHEMBL1095036
 OpenBabel04072215363D

 76 81  0  0  0  0  0  0  0  0999 V2000
    7.0175   -3.1926    3.4141 C   0  0  0  0  0  0  0  0  0  0  0  0
    6.6928   -1.8884    2.2576 S   0  0  0  0  0  0  0  0  0  0  0  0
    5.2607   -1.6621    2.2424 O   0  0  0  0  0  0  0  0  0  0  0  0
    7.6157   -0.8067    2.5445 O   0  0  0  0  0  0  0  0  0  0  0  0
    7.1519   -2.6117    0.6950 C   0  0  0  0  0  0  0  0  0  0  0  0
    6.9261   -1.6004   -0.4163 C   0  0  0  0  0  0  0  0  0  0  0  0
    7.2946   -2.1762   -1.7108 N   0  0  0  0  0  0  0  0  0  0  0  0
    7.0539   -1.2063   -2.7805 C   0  0  0  0  0  0  0  0  0  0  0  0
    7.4372   -1.7810   -4.1185 C   0  0  0  0  0  0  0  0  0  0  0  0
    6.7863   -2.9121   -4.6320 C   0  0  0  0  0  0  0  0  0  0  0  0
    7.1797   -3.4644   -5.8507 C   0  0  0  0  0  0  0  0  0  0  0  0
    8.2177   -2.8887   -6.5930 C   0  0  0  0  0  0  0  0  0  0  0  0
    8.6553   -3.5047   -7.8498 C   0  0  0  0  0  0  0  0  0  0  0  0
    7.9169   -4.2057   -8.7840 C   0  0  0  0  0  0  0  0  0  0  0  0
    8.7079   -4.6967   -9.8635 C   0  0  0  0  0  0  0  0  0  0  0  0
    8.2383   -5.4267  -10.9097 N   0  0  0  0  0  0  0  0  0  0  0  0
    9.1543   -5.7782  -11.8309 C   0  0  0  0  0  0  0  0  0  0  0  0
   10.4968   -5.4544  -11.7857 C   0  0  0  0  0  0  0  0  0  0  0  0
   10.9775   -4.7397  -10.6904 C   0  0  0  0  0  0  0  0  0  0  0  0
   12.2905   -4.3515  -10.5510 O   0  0  0  0  0  0  0  0  0  0  0  0
   13.2858   -5.2581  -10.8146 C   0  0  0  0  0  0  0  0  0  0  0  0
   13.1274   -6.6372  -10.7305 C   0  0  0  0  0  0  0  0  0  0  0  0
   14.1802   -7.4813  -11.0673 C   0  0  0  0  0  0  0  0  0  0  0  0
   15.4303   -6.9721  -11.4288 C   0  0  0  0  0  0  0  0  0  0  0  0
   16.5357   -7.7993  -11.7213 N   0  0  0  0  0  0  0  0  0  0  0  0
   16.5188   -9.1839  -11.7288 C   0  0  0  0  0  0  0  0  0  0  0  0
   15.5379   -9.9114  -11.6518 O   0  0  0  0  0  0  0  0  0  0  0  0
   17.8390   -9.7768  -11.8134 C   0  0  0  0  0  0  0  0  0  0  0  0
   18.9366   -9.3962  -12.5916 C   0  0  0  0  0  0  0  0  0  0  0  0
   20.0130  -10.1264  -12.3224 N   0  0  0  0  0  0  0  0  0  0  0  0
   19.5866  -11.0972  -11.4621 N   0  0  0  0  0  0  0  0  0  0  0  0
   20.5002  -12.1169  -11.0839 C   0  0  0  0  0  0  0  0  0  0  0  0
   21.8749  -11.8322  -11.0983 C   0  0  0  0  0  0  0  0  0  0  0  0
   22.7988  -12.8100  -10.7092 C   0  0  0  0  0  0  0  0  0  0  0  0
   22.3646  -14.0778  -10.3387 C   0  0  0  0  0  0  0  0  0  0  0  0
   21.0009  -14.3755  -10.3534 C   0  0  0  0  0  0  0  0  0  0  0  0
   20.0774  -13.4016  -10.7395 C   0  0  0  0  0  0  0  0  0  0  0  0
   18.2797  -10.8674  -11.0783 C   0  0  0  0  0  0  0  0  0  0  0  0
   17.6155  -11.5931   -9.9736 C   0  0  0  0  0  0  0  0  0  0  0  0
   16.5009  -10.9677   -9.5178 F   0  0  0  0  0  0  0  0  0  0  0  0
   17.2293  -12.8424  -10.3260 F   0  0  0  0  0  0  0  0  0  0  0  0
   18.4280  -11.7058   -8.8916 F   0  0  0  0  0  0  0  0  0  0  0  0
   15.6060   -5.5854  -11.4547 C   0  0  0  0  0  0  0  0  0  0  0  0
   14.5348   -4.7446  -11.1506 C   0  0  0  0  0  0  0  0  0  0  0  0
   14.7310   -3.4153  -11.1830 F   0  0  0  0  0  0  0  0  0  0  0  0
   10.0460   -4.3456   -9.7261 C   0  0  0  0  0  0  0  0  0  0  0  0
   10.3099   -3.4530   -8.2914 S   0  0  0  0  0  0  0  0  0  0  0  0
    8.8364   -1.7313   -6.0936 C   0  0  0  0  0  0  0  0  0  0  0  0
    8.4582   -1.1896   -4.8671 C   0  0  0  0  0  0  0  0  0  0  0  0
    6.7610   -2.8289    4.4113 H   0  0  0  0  0  0  0  0  0  0  0  0
    8.0772   -3.4496    3.3698 H   0  0  0  0  0  0  0  0  0  0  0  0
    6.3970   -4.0534    3.1585 H   0  0  0  0  0  0  0  0  0  0  0  0
    6.5352   -3.5055    0.5510 H   0  0  0  0  0  0  0  0  0  0  0  0
    8.2040   -2.9062    0.7598 H   0  0  0  0  0  0  0  0  0  0  0  0
    7.5323   -0.7064   -0.2265 H   0  0  0  0  0  0  0  0  0  0  0  0
    5.8744   -1.2909   -0.4304 H   0  0  0  0  0  0  0  0  0  0  0  0
    6.7372   -3.0087   -1.8949 H   0  0  0  0  0  0  0  0  0  0  0  0
    7.6426   -0.2996   -2.5911 H   0  0  0  0  0  0  0  0  0  0  0  0
    5.9994   -0.9081   -2.8193 H   0  0  0  0  0  0  0  0  0  0  0  0
    5.9825   -3.3857   -4.0739 H   0  0  0  0  0  0  0  0  0  0  0  0
    6.6830   -4.3680   -6.1983 H   0  0  0  0  0  0  0  0  0  0  0  0
    6.8542   -4.3719   -8.7115 H   0  0  0  0  0  0  0  0  0  0  0  0
    8.7642   -6.3658  -12.6578 H   0  0  0  0  0  0  0  0  0  0  0  0
   11.1569   -5.7788  -12.5817 H   0  0  0  0  0  0  0  0  0  0  0  0
   12.1906   -7.0903  -10.4173 H   0  0  0  0  0  0  0  0  0  0  0  0
   13.9766   -8.5460  -11.0187 H   0  0  0  0  0  0  0  0  0  0  0  0
   17.4223   -7.3306  -11.8328 H   0  0  0  0  0  0  0  0  0  0  0  0
   19.0083   -8.6067  -13.3252 H   0  0  0  0  0  0  0  0  0  0  0  0
   22.2424  -10.8465  -11.3719 H   0  0  0  0  0  0  0  0  0  0  0  0
   23.8605  -12.5769  -10.7010 H   0  0  0  0  0  0  0  0  0  0  0  0
   23.0775  -14.8368  -10.0377 H   0  0  0  0  0  0  0  0  0  0  0  0
   20.6578  -15.3715  -10.0922 H   0  0  0  0  0  0  0  0  0  0  0  0
   19.0481  -13.7197  -10.8205 H   0  0  0  0  0  0  0  0  0  0  0  0
   16.5597   -5.1295  -11.7094 H   0  0  0  0  0  0  0  0  0  0  0  0
    9.6338   -1.2394   -6.6453 H   0  0  0  0  0  0  0  0  0  0  0  0
    8.9794   -0.3090   -4.4971 H   0  0  0  0  0  0  0  0  0  0  0  0
  1  2  1  0  0  0  0
  1 50  1  0  0  0  0
  1 51  1  0  0  0  0
  1 52  1  0  0  0  0
  2  3  2  0  0  0  0
  2  4  2  0  0  0  0
  2  5  1  0  0  0  0
  5  6  1  0  0  0  0
  5 53  1  0  0  0  0
  5 54  1  0  0  0  0
  6  7  1  0  0  0  0
  6 55  1  0  0  0  0
  6 56  1  0  0  0  0
  7  8  1  0  0  0  0
  7 57  1  0  0  0  0
  8  9  1  0  0  0  0
  8 58  1  0  0  0  0
  8 59  1  0  0  0  0
  9 10  1  0  0  0  0
  9 49  2  0  0  0  0
 10 11  2  0  0  0  0
 10 60  1  0  0  0  0
 11 12  1  0  0  0  0
 11 61  1  0  0  0  0
 12 13  1  0  0  0  0
 12 48  2  0  0  0  0
 13 14  2  0  0  0  0
 13 47  1  0  0  0  0
 14 15  1  0  0  0  0
 14 62  1  0  0  0  0
 15 16  1  0  0  0  0
 15 46  2  0  0  0  0
 16 17  2  0  0  0  0
 17 18  1  0  0  0  0
 17 63  1  0  0  0  0
 18 19  2  0  0  0  0
 18 64  1  0  0  0  0
 19 20  1  0  0  0  0
 19 46  1  0  0  0  0
 20 21  1  0  0  0  0
 21 22  1  0  0  0  0
 21 44  2  0  0  0  0
 22 23  2  0  0  0  0
 22 65  1  0  0  0  0
 23 24  1  0  0  0  0
 23 66  1  0  0  0  0
 24 25  1  0  0  0  0
 24 43  2  0  0  0  0
 25 26  1  0  0  0  0
 25 67  1  0  0  0  0
 26 27  2  0  0  0  0
 26 28  1  0  0  0  0
 28 29  1  0  0  0  0
 28 38  2  0  0  0  0
 29 30  2  0  0  0  0
 29 68  1  0  0  0  0
 30 31  1  0  0  0  0
 31 32  1  0  0  0  0
 31 38  1  0  0  0  0
 32 33  1  0  0  0  0
 32 37  2  0  0  0  0
 33 34  2  0  0  0  0
 33 69  1  0  0  0  0
 34 35  1  0  0  0  0
 34 70  1  0  0  0  0
 35 36  2  0  0  0  0
 35 71  1  0  0  0  0
 36 37  1  0  0  0  0
 36 72  1  0  0  0  0
 37 73  1  0  0  0  0
 38 39  1  0  0  0  0
 39 40  1  0  0  0  0
 39 41  1  0  0  0  0
 39 42  1  0  0  0  0
 43 44  1  0  0  0  0
 43 74  1  0  0  0  0
 44 45  1  0  0  0  0
 46 47  1  0  0  0  0
 48 49  1  0  0  0  0
 48 75  1  0  0  0  0
 49 76  1  0  0  0  0
M  END
$$$$
