CHEMBL204867
 OpenBabel04072215363D

 36 38  0  0  0  0  0  0  0  0999 V2000
    2.4795   -0.0211    0.0714 C   0  0  0  0  0  0  0  0  0  0  0  0
    1.0725   -0.0259   -0.3185 N   0  0  0  0  0  0  0  0  0  0  0  0
    0.3791   -1.2184    0.2292 C   0  0  0  0  0  0  0  0  0  0  0  0
   -1.1290   -1.2460   -0.1166 C   0  0  0  0  0  0  0  0  0  0  0  0
   -1.7562    0.0090    0.3118 N   0  0  0  0  0  0  0  0  0  0  0  0
   -3.0706   -0.0050    0.7320 C   0  0  0  0  0  0  0  0  0  0  0  0
   -3.9121    1.0587    0.4885 C   0  0  0  0  0  0  0  0  0  0  0  0
   -5.1725    1.0773    1.0518 C   0  0  0  0  0  0  0  0  0  0  0  0
   -6.0418    2.1649    0.8897 N   0  0  0  0  0  0  0  0  0  0  0  0
   -5.6766    3.4478    0.6659 C   0  0  0  0  0  0  0  0  0  0  0  0
   -4.4419    3.8994    0.5621 N   0  0  0  0  0  0  0  0  0  0  0  0
   -4.4246    5.2608    0.3581 C   0  0  0  0  0  0  0  0  0  0  0  0
   -5.6619    5.8536    0.2854 C   0  0  0  0  0  0  0  0  0  0  0  0
   -5.8930    7.2393    0.0726 C   0  0  0  0  0  0  0  0  0  0  0  0
   -6.0597    8.3740   -0.1025 N   0  0  0  0  0  0  0  0  0  0  0  0
   -6.8819    4.6758    0.5004 S   0  0  0  0  0  0  0  0  0  0  0  0
   -5.6204    0.0460    1.7798 N   0  0  0  0  0  0  0  0  0  0  0  0
   -4.7545   -0.9661    1.9456 C   0  0  0  0  0  0  0  0  0  0  0  0
   -3.5091   -1.0469    1.4503 N   0  0  0  0  0  0  0  0  0  0  0  0
   -1.0998    1.2261   -0.1754 C   0  0  0  0  0  0  0  0  0  0  0  0
    0.3998    1.1911    0.1833 C   0  0  0  0  0  0  0  0  0  0  0  0
    2.9902   -0.9015   -0.3319 H   0  0  0  0  0  0  0  0  0  0  0  0
    2.6111   -0.0101    1.1594 H   0  0  0  0  0  0  0  0  0  0  0  0
    2.9863    0.8569   -0.3446 H   0  0  0  0  0  0  0  0  0  0  0  0
    0.4856   -1.2475    1.3223 H   0  0  0  0  0  0  0  0  0  0  0  0
    0.8426   -2.1270   -0.1722 H   0  0  0  0  0  0  0  0  0  0  0  0
   -1.5779   -2.1285    0.3524 H   0  0  0  0  0  0  0  0  0  0  0  0
   -1.2539   -1.3582   -1.2022 H   0  0  0  0  0  0  0  0  0  0  0  0
   -3.5958    1.8654   -0.1558 H   0  0  0  0  0  0  0  0  0  0  0  0
   -6.9400    1.9718    1.3129 H   0  0  0  0  0  0  0  0  0  0  0  0
   -3.4695    5.7672    0.2738 H   0  0  0  0  0  0  0  0  0  0  0  0
   -5.0886   -1.8002    2.5536 H   0  0  0  0  0  0  0  0  0  0  0  0
   -1.5113    2.1274    0.2941 H   0  0  0  0  0  0  0  0  0  0  0  0
   -1.2328    1.3175   -1.2609 H   0  0  0  0  0  0  0  0  0  0  0  0
    0.4986    1.2557    1.2763 H   0  0  0  0  0  0  0  0  0  0  0  0
    0.8755    2.0836   -0.2403 H   0  0  0  0  0  0  0  0  0  0  0  0
  1  2  1  0  0  0  0
  1 22  1  0  0  0  0
  1 23  1  0  0  0  0
  1 24  1  0  0  0  0
  2  3  1  0  0  0  0
  2 21  1  0  0  0  0
  3  4  1  0  0  0  0
  3 25  1  0  0  0  0
  3 26  1  0  0  0  0
  4  5  1  0  0  0  0
  4 27  1  0  0  0  0
  4 28  1  0  0  0  0
  5  6  1  0  0  0  0
  5 20  1  0  0  0  0
  6  7  1  0  0  0  0
  6 19  2  0  0  0  0
  7  8  2  0  0  0  0
  7 29  1  0  0  0  0
  8  9  1  0  0  0  0
  8 17  1  0  0  0  0
  9 10  1  0  0  0  0
  9 30  1  0  0  0  0
 10 11  2  0  0  0  0
 10 16  1  0  0  0  0
 11 12  1  0  0  0  0
 12 13  2  0  0  0  0
 12 31  1  0  0  0  0
 13 14  1  0  0  0  0
 13 16  1  0  0  0  0
 14 15  3  0  0  0  0
 17 18  2  0  0  0  0
 18 19  1  0  0  0  0
 18 32  1  0  0  0  0
 20 21  1  0  0  0  0
 20 33  1  0  0  0  0
 20 34  1  0  0  0  0
 21 35  1  0  0  0  0
 21 36  1  0  0  0  0
M  END
$$$$
