CHEMBL2003638
 OpenBabel04072215363D

 48 52  0  0  0  0  0  0  0  0999 V2000
    1.1148   -0.6175    0.5489 O   0  0  0  0  0  0  0  0  0  0  0  0
    2.2594   -0.3411    0.2395 C   0  0  0  0  0  0  0  0  0  0  0  0
    2.9079   -0.6830   -0.9388 N   0  0  0  0  0  0  0  0  0  0  0  0
    2.2954   -1.5023   -1.8659 C   0  0  0  0  0  0  0  0  0  0  0  0
    2.8654   -2.6600   -2.2187 N   0  0  0  0  0  0  0  0  0  0  0  0
    1.9868   -3.1868   -3.0962 N   0  0  0  0  0  0  0  0  0  0  0  0
    0.9777   -2.3391   -3.4584 C   0  0  0  0  0  0  0  0  0  0  0  0
   -0.0510   -2.4649   -4.3952 C   0  0  0  0  0  0  0  0  0  0  0  0
   -0.8983   -1.3686   -4.5578 C   0  0  0  0  0  0  0  0  0  0  0  0
   -0.7222   -0.1926   -3.8143 C   0  0  0  0  0  0  0  0  0  0  0  0
   -1.6275    0.9240   -3.9794 C   0  0  0  0  0  0  0  0  0  0  0  0
   -2.9557    0.8295   -4.3177 C   0  0  0  0  0  0  0  0  0  0  0  0
   -3.4001    2.1168   -4.2511 N   0  0  0  0  0  0  0  0  0  0  0  0
   -4.7618    2.6074   -4.3774 C   0  0  0  0  0  0  0  0  0  0  0  0
   -5.1038    2.9718   -5.8008 C   0  0  0  0  0  0  0  0  0  0  0  0
   -6.1664    2.3372   -6.4626 C   0  0  0  0  0  0  0  0  0  0  0  0
   -6.4520    2.6359   -7.7964 C   0  0  0  0  0  0  0  0  0  0  0  0
   -5.6992    3.5927   -8.4738 C   0  0  0  0  0  0  0  0  0  0  0  0
   -4.6657    4.2564   -7.8170 C   0  0  0  0  0  0  0  0  0  0  0  0
   -4.3690    3.9494   -6.4888 C   0  0  0  0  0  0  0  0  0  0  0  0
   -2.4033    2.9597   -3.9178 N   0  0  0  0  0  0  0  0  0  0  0  0
   -1.3060    2.2335   -3.7469 N   0  0  0  0  0  0  0  0  0  0  0  0
    0.3128   -0.1022   -2.8683 C   0  0  0  0  0  0  0  0  0  0  0  0
    1.1616   -1.2073   -2.6712 C   0  0  0  0  0  0  0  0  0  0  0  0
    3.1272    0.3678    1.2294 C   0  0  0  0  0  0  0  0  0  0  0  0
    2.9058    0.1520    2.5987 C   0  0  0  0  0  0  0  0  0  0  0  0
    3.6998    0.7974    3.5505 C   0  0  0  0  0  0  0  0  0  0  0  0
    4.7068    1.6666    3.1351 C   0  0  0  0  0  0  0  0  0  0  0  0
    4.9034    1.8921    1.7753 C   0  0  0  0  0  0  0  0  0  0  0  0
    5.8591    2.7452    1.3831 F   0  0  0  0  0  0  0  0  0  0  0  0
    4.1253    1.2544    0.8161 C   0  0  0  0  0  0  0  0  0  0  0  0
    3.9060   -0.8106   -0.8992 H   0  0  0  0  0  0  0  0  0  0  0  0
    2.1584   -4.1232   -3.4464 H   0  0  0  0  0  0  0  0  0  0  0  0
   -0.1916   -3.3718   -4.9797 H   0  0  0  0  0  0  0  0  0  0  0  0
   -1.7013   -1.4400   -5.2890 H   0  0  0  0  0  0  0  0  0  0  0  0
   -3.5943   -0.0118   -4.5430 H   0  0  0  0  0  0  0  0  0  0  0  0
   -4.8684    3.4712   -3.7125 H   0  0  0  0  0  0  0  0  0  0  0  0
   -5.4281    1.8186   -4.0052 H   0  0  0  0  0  0  0  0  0  0  0  0
   -6.7739    1.5925   -5.9530 H   0  0  0  0  0  0  0  0  0  0  0  0
   -7.2541    2.1138   -8.3119 H   0  0  0  0  0  0  0  0  0  0  0  0
   -5.9145    3.8188   -9.5149 H   0  0  0  0  0  0  0  0  0  0  0  0
   -4.0781    5.0051   -8.3431 H   0  0  0  0  0  0  0  0  0  0  0  0
   -3.5429    4.4662   -6.0008 H   0  0  0  0  0  0  0  0  0  0  0  0
    0.4556    0.8085   -2.2904 H   0  0  0  0  0  0  0  0  0  0  0  0
    2.1136   -0.5190    2.9237 H   0  0  0  0  0  0  0  0  0  0  0  0
    3.5275    0.6243    4.6111 H   0  0  0  0  0  0  0  0  0  0  0  0
    5.3329    2.1759    3.8601 H   0  0  0  0  0  0  0  0  0  0  0  0
    4.2917    1.4816   -0.2322 H   0  0  0  0  0  0  0  0  0  0  0  0
  1  2  2  0  0  0  0
  2  3  1  0  0  0  0
  2 25  1  0  0  0  0
  3  4  1  0  0  0  0
  3 32  1  0  0  0  0
  4  5  2  0  0  0  0
  4 24  1  0  0  0  0
  5  6  1  0  0  0  0
  6  7  1  0  0  0  0
  6 33  1  0  0  0  0
  7  8  1  0  0  0  0
  7 24  2  0  0  0  0
  8  9  2  0  0  0  0
  8 34  1  0  0  0  0
  9 10  1  0  0  0  0
  9 35  1  0  0  0  0
 10 11  1  0  0  0  0
 10 23  2  0  0  0  0
 11 12  2  0  0  0  0
 11 22  1  0  0  0  0
 12 13  1  0  0  0  0
 12 36  1  0  0  0  0
 13 14  1  0  0  0  0
 13 21  1  0  0  0  0
 14 15  1  0  0  0  0
 14 37  1  0  0  0  0
 14 38  1  0  0  0  0
 15 16  1  0  0  0  0
 15 20  2  0  0  0  0
 16 17  2  0  0  0  0
 16 39  1  0  0  0  0
 17 18  1  0  0  0  0
 17 40  1  0  0  0  0
 18 19  2  0  0  0  0
 18 41  1  0  0  0  0
 19 20  1  0  0  0  0
 19 42  1  0  0  0  0
 20 43  1  0  0  0  0
 21 22  2  0  0  0  0
 23 24  1  0  0  0  0
 23 44  1  0  0  0  0
 25 26  1  0  0  0  0
 25 31  2  0  0  0  0
 26 27  2  0  0  0  0
 26 45  1  0  0  0  0
 27 28  1  0  0  0  0
 27 46  1  0  0  0  0
 28 29  2  0  0  0  0
 28 47  1  0  0  0  0
 29 30  1  0  0  0  0
 29 31  1  0  0  0  0
 31 48  1  0  0  0  0
M  END
$$$$
