CHEMBL3894099
 OpenBabel04072215373D

 52 55  0  0  0  0  0  0  0  0999 V2000
   -2.5164   -0.3542   -2.0675 C   0  0  0  0  0  0  0  0  0  0  0  0
   -2.3494   -1.5382   -3.0126 C   0  0  0  0  0  0  0  0  0  0  0  0
   -2.4383   -2.8739   -2.3115 C   0  0  0  0  0  0  0  0  0  0  0  0
   -3.6977   -3.4279   -2.0673 C   0  0  0  0  0  0  0  0  0  0  0  0
   -3.8008   -4.6583   -1.4283 C   0  0  0  0  0  0  0  0  0  0  0  0
   -2.6548   -5.3482   -1.0430 C   0  0  0  0  0  0  0  0  0  0  0  0
   -1.3790   -4.8425   -1.2959 C   0  0  0  0  0  0  0  0  0  0  0  0
   -0.1831   -5.5472   -0.9591 N   0  0  0  0  0  0  0  0  0  0  0  0
   -0.1101   -6.8795   -0.5681 C   0  0  0  0  0  0  0  0  0  0  0  0
   -1.0606   -7.6587   -0.5343 O   0  0  0  0  0  0  0  0  0  0  0  0
    1.1802   -7.2330   -0.1906 N   0  0  0  0  0  0  0  0  0  0  0  0
    1.5453   -8.5448    0.2351 C   0  0  0  0  0  0  0  0  0  0  0  0
    2.4749   -8.6631    1.2693 C   0  0  0  0  0  0  0  0  0  0  0  0
    2.8670   -9.9244    1.7279 C   0  0  0  0  0  0  0  0  0  0  0  0
    2.2864  -11.0854    1.2097 C   0  0  0  0  0  0  0  0  0  0  0  0
    1.2368  -10.9840    0.2902 C   0  0  0  0  0  0  0  0  0  0  0  0
    0.1322  -12.0421    0.2967 C   0  0  0  0  0  0  0  0  0  0  0  0
   -1.1894  -11.6721   -0.0262 C   0  0  0  0  0  0  0  0  0  0  0  0
   -1.6459  -11.1162    1.2229 C   0  0  0  0  0  0  0  0  0  0  0  0
   -2.4856  -10.0589    1.5832 C   0  0  0  0  0  0  0  0  0  0  0  0
   -2.5899   -9.7129    2.9350 C   0  0  0  0  0  0  0  0  0  0  0  0
   -1.9311  -10.4467    3.9238 C   0  0  0  0  0  0  0  0  0  0  0  0
   -1.1123  -11.5308    3.5938 C   0  0  0  0  0  0  0  0  0  0  0  0
   -0.9399  -11.7895    2.2319 C   0  0  0  0  0  0  0  0  0  0  0  0
   -0.1550  -12.6979    1.5353 N   0  0  0  0  0  0  0  0  0  0  0  0
    0.2872  -13.9376    2.0081 C   0  0  0  0  0  0  0  0  0  0  0  0
    0.2701  -14.9009    1.0415 N   0  0  0  0  0  0  0  0  0  0  0  0
    0.4954  -14.1417    3.1996 O   0  0  0  0  0  0  0  0  0  0  0  0
    0.9675   -9.7136   -0.2815 C   0  0  0  0  0  0  0  0  0  0  0  0
   -1.2764   -3.5728   -1.9091 C   0  0  0  0  0  0  0  0  0  0  0  0
   -2.4282    0.5844   -2.6221 H   0  0  0  0  0  0  0  0  0  0  0  0
   -1.7534   -0.3614   -1.2851 H   0  0  0  0  0  0  0  0  0  0  0  0
   -3.4999   -0.3635   -1.5822 H   0  0  0  0  0  0  0  0  0  0  0  0
   -1.4002   -1.4559   -3.5478 H   0  0  0  0  0  0  0  0  0  0  0  0
   -3.1339   -1.4888   -3.7833 H   0  0  0  0  0  0  0  0  0  0  0  0
   -4.6015   -2.9110   -2.3763 H   0  0  0  0  0  0  0  0  0  0  0  0
   -4.7812   -5.0957   -1.2451 H   0  0  0  0  0  0  0  0  0  0  0  0
   -2.8004   -6.3002   -0.5422 H   0  0  0  0  0  0  0  0  0  0  0  0
    0.6850   -5.1041   -1.2086 H   0  0  0  0  0  0  0  0  0  0  0  0
    1.7324   -6.4810    0.1888 H   0  0  0  0  0  0  0  0  0  0  0  0
    2.8466   -7.7804    1.7830 H   0  0  0  0  0  0  0  0  0  0  0  0
    3.5600  -10.0026    2.5622 H   0  0  0  0  0  0  0  0  0  0  0  0
    2.5595  -12.0434    1.6434 H   0  0  0  0  0  0  0  0  0  0  0  0
   -1.4874  -11.2489   -0.9819 H   0  0  0  0  0  0  0  0  0  0  0  0
   -2.9579   -9.4495    0.8177 H   0  0  0  0  0  0  0  0  0  0  0  0
   -3.1709   -8.8384    3.2160 H   0  0  0  0  0  0  0  0  0  0  0  0
   -2.0339  -10.1647    4.9637 H   0  0  0  0  0  0  0  0  0  0  0  0
   -0.5734  -12.0855    4.3529 H   0  0  0  0  0  0  0  0  0  0  0  0
   -0.2826  -14.7493    0.2054 H   0  0  0  0  0  0  0  0  0  0  0  0
    0.2654  -15.8454    1.4055 H   0  0  0  0  0  0  0  0  0  0  0  0
    0.1989   -9.6228   -1.0438 H   0  0  0  0  0  0  0  0  0  0  0  0
   -0.3058   -3.1389   -2.0979 H   0  0  0  0  0  0  0  0  0  0  0  0
  1  2  1  0  0  0  0
  1 31  1  0  0  0  0
  1 32  1  0  0  0  0
  1 33  1  0  0  0  0
  2  3  1  0  0  0  0
  2 34  1  0  0  0  0
  2 35  1  0  0  0  0
  3  4  1  0  0  0  0
  3 30  2  0  0  0  0
  4  5  2  0  0  0  0
  4 36  1  0  0  0  0
  5  6  1  0  0  0  0
  5 37  1  0  0  0  0
  6  7  2  0  0  0  0
  6 38  1  0  0  0  0
  7  8  1  0  0  0  0
  7 30  1  0  0  0  0
  8  9  1  0  0  0  0
  8 39  1  0  0  0  0
  9 10  2  0  0  0  0
  9 11  1  0  0  0  0
 11 12  1  0  0  0  0
 11 40  1  0  0  0  0
 12 13  1  0  0  0  0
 12 29  2  0  0  0  0
 13 14  2  0  0  0  0
 13 41  1  0  0  0  0
 14 15  1  0  0  0  0
 14 42  1  0  0  0  0
 15 16  2  0  0  0  0
 15 43  1  0  0  0  0
 16 17  1  0  0  0  0
 16 29  1  0  0  0  0
 17 18  2  0  0  0  0
 17 25  1  0  0  0  0
 18 19  1  0  0  0  0
 18 44  1  0  0  0  0
 19 20  1  0  0  0  0
 19 24  2  0  0  0  0
 20 21  2  0  0  0  0
 20 45  1  0  0  0  0
 21 22  1  0  0  0  0
 21 46  1  0  0  0  0
 22 23  2  0  0  0  0
 22 47  1  0  0  0  0
 23 24  1  0  0  0  0
 23 48  1  0  0  0  0
 24 25  1  0  0  0  0
 25 26  1  0  0  0  0
 26 27  1  0  0  0  0
 26 28  2  0  0  0  0
 27 49  1  0  0  0  0
 27 50  1  0  0  0  0
 29 51  1  0  0  0  0
 30 52  1  0  0  0  0
M  END
$$$$
