CHEMBL369360
 OpenBabel04072215373D

 58 62  0  0  0  0  0  0  0  0999 V2000
    2.7176    1.4753   -0.1672 C   0  0  0  0  0  0  0  0  0  0  0  0
    2.4308    0.0838   -0.2027 O   0  0  0  0  0  0  0  0  0  0  0  0
    3.2183   -0.7983    0.4757 C   0  0  0  0  0  0  0  0  0  0  0  0
    4.4152   -0.4128    1.0621 C   0  0  0  0  0  0  0  0  0  0  0  0
    5.1475   -1.2832    1.8901 C   0  0  0  0  0  0  0  0  0  0  0  0
    6.2956   -0.8971    2.5857 C   0  0  0  0  0  0  0  0  0  0  0  0
    6.6954    0.4684    2.5207 N   0  0  0  0  0  0  0  0  0  0  0  0
    7.9864    0.9290    2.8477 C   0  0  0  0  0  0  0  0  0  0  0  0
    9.1696    0.3905    2.3054 C   0  0  0  0  0  0  0  0  0  0  0  0
    9.1448   -0.7560    1.0030 Cl  0  0  0  0  0  0  0  0  0  0  0  0
   10.4323    0.8328    2.7377 C   0  0  0  0  0  0  0  0  0  0  0  0
   10.5419    1.8461    3.6912 C   0  0  0  0  0  0  0  0  0  0  0  0
    9.3793    2.4178    4.1545 C   0  0  0  0  0  0  0  0  0  0  0  0
    8.1382    1.9804    3.7428 C   0  0  0  0  0  0  0  0  0  0  0  0
    7.1272    2.6955    4.3209 O   0  0  0  0  0  0  0  0  0  0  0  0
    7.8790    3.6660    5.0834 C   0  0  0  0  0  0  0  0  0  0  0  0
    9.3025    3.4449    5.0420 O   0  0  0  0  0  0  0  0  0  0  0  0
    7.0044   -1.7585    3.3383 N   0  0  0  0  0  0  0  0  0  0  0  0
    6.5515   -3.0148    3.3835 C   0  0  0  0  0  0  0  0  0  0  0  0
    5.4427   -3.4816    2.7902 N   0  0  0  0  0  0  0  0  0  0  0  0
    4.7450   -2.6145    2.0445 C   0  0  0  0  0  0  0  0  0  0  0  0
    3.5864   -3.0182    1.3877 C   0  0  0  0  0  0  0  0  0  0  0  0
    2.8131   -2.1373    0.6028 C   0  0  0  0  0  0  0  0  0  0  0  0
    1.7295   -2.7537    0.0270 O   0  0  0  0  0  0  0  0  0  0  0  0
    0.8929   -2.0032   -0.8501 C   0  0  0  0  0  0  0  0  0  0  0  0
    0.2323   -2.9264   -1.8645 C   0  0  0  0  0  0  0  0  0  0  0  0
   -0.6487   -4.0066   -1.2436 C   0  0  0  0  0  0  0  0  0  0  0  0
   -1.3595   -4.7829   -2.2782 N   0  0  0  0  0  0  0  0  0  0  0  0
   -2.2551   -5.7904   -1.6661 C   0  0  0  0  0  0  0  0  0  0  0  0
   -1.5271   -7.0222   -1.0930 C   0  0  0  0  0  0  0  0  0  0  0  0
   -0.6463   -7.6283   -2.0485 O   0  0  0  0  0  0  0  0  0  0  0  0
    0.2847   -6.6698   -2.5660 C   0  0  0  0  0  0  0  0  0  0  0  0
   -0.4610   -5.4963   -3.2153 C   0  0  0  0  0  0  0  0  0  0  0  0
    3.2997    1.7529   -1.0512 H   0  0  0  0  0  0  0  0  0  0  0  0
    3.2184    1.8082    0.7458 H   0  0  0  0  0  0  0  0  0  0  0  0
    1.7611    2.0034   -0.2041 H   0  0  0  0  0  0  0  0  0  0  0  0
    4.8337    0.5679    0.8753 H   0  0  0  0  0  0  0  0  0  0  0  0
    5.9801    1.0347    2.9743 H   0  0  0  0  0  0  0  0  0  0  0  0
   11.3312    0.3897    2.3169 H   0  0  0  0  0  0  0  0  0  0  0  0
   11.5096    2.1878    4.0364 H   0  0  0  0  0  0  0  0  0  0  0  0
    7.5456    3.6319    6.1266 H   0  0  0  0  0  0  0  0  0  0  0  0
    7.6724    4.6665    4.6832 H   0  0  0  0  0  0  0  0  0  0  0  0
    7.1397   -3.7241    3.9567 H   0  0  0  0  0  0  0  0  0  0  0  0
    3.2628   -4.0531    1.4945 H   0  0  0  0  0  0  0  0  0  0  0  0
    1.4598   -1.3145   -1.4753 H   0  0  0  0  0  0  0  0  0  0  0  0
    0.1437   -1.4656   -0.2586 H   0  0  0  0  0  0  0  0  0  0  0  0
    1.0429   -3.3915   -2.4357 H   0  0  0  0  0  0  0  0  0  0  0  0
   -0.3589   -2.3158   -2.5586 H   0  0  0  0  0  0  0  0  0  0  0  0
   -1.3946   -3.5100   -0.6094 H   0  0  0  0  0  0  0  0  0  0  0  0
   -0.0507   -4.6468   -0.5864 H   0  0  0  0  0  0  0  0  0  0  0  0
   -2.9429   -6.1299   -2.4514 H   0  0  0  0  0  0  0  0  0  0  0  0
   -2.8828   -5.3304   -0.8938 H   0  0  0  0  0  0  0  0  0  0  0  0
   -2.2659   -7.7791   -0.8108 H   0  0  0  0  0  0  0  0  0  0  0  0
   -0.9562   -6.7689   -0.1930 H   0  0  0  0  0  0  0  0  0  0  0  0
    0.8996   -7.1760   -3.3167 H   0  0  0  0  0  0  0  0  0  0  0  0
    0.9559   -6.3397   -1.7645 H   0  0  0  0  0  0  0  0  0  0  0  0
   -1.0847   -5.8889   -4.0293 H   0  0  0  0  0  0  0  0  0  0  0  0
    0.2433   -4.8164   -3.7034 H   0  0  0  0  0  0  0  0  0  0  0  0
  1  2  1  0  0  0  0
  1 34  1  0  0  0  0
  1 35  1  0  0  0  0
  1 36  1  0  0  0  0
  2  3  1  0  0  0  0
  3  4  1  0  0  0  0
  3 23  2  0  0  0  0
  4  5  2  0  0  0  0
  4 37  1  0  0  0  0
  5  6  1  0  0  0  0
  5 21  1  0  0  0  0
  6  7  1  0  0  0  0
  6 18  2  0  0  0  0
  7  8  1  0  0  0  0
  7 38  1  0  0  0  0
  8  9  1  0  0  0  0
  8 14  2  0  0  0  0
  9 10  1  0  0  0  0
  9 11  2  0  0  0  0
 11 12  1  0  0  0  0
 11 39  1  0  0  0  0
 12 13  2  0  0  0  0
 12 40  1  0  0  0  0
 13 14  1  0  0  0  0
 13 17  1  0  0  0  0
 14 15  1  0  0  0  0
 15 16  1  0  0  0  0
 16 17  1  0  0  0  0
 16 41  1  0  0  0  0
 16 42  1  0  0  0  0
 18 19  1  0  0  0  0
 19 20  2  0  0  0  0
 19 43  1  0  0  0  0
 20 21  1  0  0  0  0
 21 22  2  0  0  0  0
 22 23  1  0  0  0  0
 22 44  1  0  0  0  0
 23 24  1  0  0  0  0
 24 25  1  0  0  0  0
 25 26  1  0  0  0  0
 25 45  1  0  0  0  0
 25 46  1  0  0  0  0
 26 27  1  0  0  0  0
 26 47  1  0  0  0  0
 26 48  1  0  0  0  0
 27 28  1  0  0  0  0
 27 49  1  0  0  0  0
 27 50  1  0  0  0  0
 28 29  1  0  0  0  0
 28 33  1  0  0  0  0
 29 30  1  0  0  0  0
 29 51  1  0  0  0  0
 29 52  1  0  0  0  0
 30 31  1  0  0  0  0
 30 53  1  0  0  0  0
 30 54  1  0  0  0  0
 31 32  1  0  0  0  0
 32 33  1  0  0  0  0
 32 55  1  0  0  0  0
 32 56  1  0  0  0  0
 33 57  1  0  0  0  0
 33 58  1  0  0  0  0
M  END
$$$$
