CHEMBL1971021
 OpenBabel04072215363D

 52 55  0  0  0  0  0  0  0  0999 V2000
   -5.9837   -4.3396   -0.4576 C   0  0  0  0  0  0  0  0  0  0  0  0
   -4.8805   -5.0739    0.2264 C   0  0  0  0  0  0  0  0  0  0  0  0
   -5.1605   -6.1306    1.1037 C   0  0  0  0  0  0  0  0  0  0  0  0
   -4.1283   -6.8265    1.7321 C   0  0  0  0  0  0  0  0  0  0  0  0
   -4.3868   -7.9696    2.6665 C   0  0  0  0  0  0  0  0  0  0  0  0
   -2.8079   -6.4701    1.4606 C   0  0  0  0  0  0  0  0  0  0  0  0
   -2.5086   -5.4476    0.5582 C   0  0  0  0  0  0  0  0  0  0  0  0
   -1.1764   -5.1229    0.2226 N   0  0  0  0  0  0  0  0  0  0  0  0
   -0.1352   -6.0207    0.3126 C   0  0  0  0  0  0  0  0  0  0  0  0
   -0.2410   -7.2152    0.5556 O   0  0  0  0  0  0  0  0  0  0  0  0
    1.0765   -5.3891    0.1264 N   0  0  0  0  0  0  0  0  0  0  0  0
    2.2906   -6.0920    0.1519 C   0  0  0  0  0  0  0  0  0  0  0  0
    3.3833   -5.4867    0.7310 C   0  0  0  0  0  0  0  0  0  0  0  0
    4.5984   -6.1663    0.7585 C   0  0  0  0  0  0  0  0  0  0  0  0
    4.7815   -7.4955    0.2835 C   0  0  0  0  0  0  0  0  0  0  0  0
    6.1779   -8.0302    0.2918 C   0  0  0  0  0  0  0  0  0  0  0  0
    6.7184   -8.6947   -0.8348 C   0  0  0  0  0  0  0  0  0  0  0  0
    8.1001   -8.8952   -1.0270 C   0  0  0  0  0  0  0  0  0  0  0  0
    9.0068   -8.2809   -0.1800 C   0  0  0  0  0  0  0  0  0  0  0  0
    8.4777   -7.6320    0.9134 C   0  0  0  0  0  0  0  0  0  0  0  0
    7.1179   -7.6437    1.2515 C   0  0  0  0  0  0  0  0  0  0  0  0
    7.0134   -6.9583    2.5760 C   0  0  0  0  0  0  0  0  0  0  0  0
    8.0989   -6.0099    2.5032 N   0  0  0  0  0  0  0  0  0  0  0  0
    9.0509   -6.4585    1.5980 C   0  0  0  0  0  0  0  0  0  0  0  0
   10.0448   -5.8573    1.2421 O   0  0  0  0  0  0  0  0  0  0  0  0
    3.6459   -8.1135   -0.2841 C   0  0  0  0  0  0  0  0  0  0  0  0
    3.5858   -9.5060   -0.8759 C   0  0  0  0  0  0  0  0  0  0  0  0
    4.5853  -10.3492   -0.5065 F   0  0  0  0  0  0  0  0  0  0  0  0
    2.4369  -10.1674   -0.5519 F   0  0  0  0  0  0  0  0  0  0  0  0
    3.6097   -9.4731   -2.2412 F   0  0  0  0  0  0  0  0  0  0  0  0
    2.4342   -7.3776   -0.3781 C   0  0  0  0  0  0  0  0  0  0  0  0
   -3.5462   -4.7286   -0.0339 C   0  0  0  0  0  0  0  0  0  0  0  0
   -6.9748   -4.7206   -0.1659 H   0  0  0  0  0  0  0  0  0  0  0  0
   -5.8961   -4.4428   -1.5442 H   0  0  0  0  0  0  0  0  0  0  0  0
   -5.9547   -3.2759   -0.2006 H   0  0  0  0  0  0  0  0  0  0  0  0
   -6.1923   -6.4160    1.2937 H   0  0  0  0  0  0  0  0  0  0  0  0
   -5.4516   -8.1331    2.8093 H   0  0  0  0  0  0  0  0  0  0  0  0
   -3.9476   -7.7601    3.6491 H   0  0  0  0  0  0  0  0  0  0  0  0
   -3.9551   -8.8939    2.2704 H   0  0  0  0  0  0  0  0  0  0  0  0
   -2.0154   -7.0142    1.9683 H   0  0  0  0  0  0  0  0  0  0  0  0
   -1.0439   -4.3394   -0.4117 H   0  0  0  0  0  0  0  0  0  0  0  0
    1.1030   -4.4189    0.4186 H   0  0  0  0  0  0  0  0  0  0  0  0
    3.3186   -4.5006    1.1831 H   0  0  0  0  0  0  0  0  0  0  0  0
    5.4340   -5.5876    1.1405 H   0  0  0  0  0  0  0  0  0  0  0  0
    6.0781   -9.0099   -1.6539 H   0  0  0  0  0  0  0  0  0  0  0  0
    8.4513   -9.4109   -1.9177 H   0  0  0  0  0  0  0  0  0  0  0  0
   10.0651   -8.2314   -0.4084 H   0  0  0  0  0  0  0  0  0  0  0  0
    7.2756   -7.6618    3.3753 H   0  0  0  0  0  0  0  0  0  0  0  0
    6.0778   -6.4788    2.8551 H   0  0  0  0  0  0  0  0  0  0  0  0
    7.9159   -5.0144    2.4264 H   0  0  0  0  0  0  0  0  0  0  0  0
    1.5877   -7.8324   -0.8956 H   0  0  0  0  0  0  0  0  0  0  0  0
   -3.3281   -3.9225   -0.7337 H   0  0  0  0  0  0  0  0  0  0  0  0
  1  2  1  0  0  0  0
  1 33  1  0  0  0  0
  1 34  1  0  0  0  0
  1 35  1  0  0  0  0
  2  3  1  0  0  0  0
  2 32  2  0  0  0  0
  3  4  2  0  0  0  0
  3 36  1  0  0  0  0
  4  5  1  0  0  0  0
  4  6  1  0  0  0  0
  5 37  1  0  0  0  0
  5 38  1  0  0  0  0
  5 39  1  0  0  0  0
  6  7  2  0  0  0  0
  6 40  1  0  0  0  0
  7  8  1  0  0  0  0
  7 32  1  0  0  0  0
  8  9  1  0  0  0  0
  8 41  1  0  0  0  0
  9 10  2  0  0  0  0
  9 11  1  0  0  0  0
 11 12  1  0  0  0  0
 11 42  1  0  0  0  0
 12 13  1  0  0  0  0
 12 31  2  0  0  0  0
 13 14  2  0  0  0  0
 13 43  1  0  0  0  0
 14 15  1  0  0  0  0
 14 44  1  0  0  0  0
 15 16  1  0  0  0  0
 15 26  2  0  0  0  0
 16 17  1  0  0  0  0
 16 21  2  0  0  0  0
 17 18  2  0  0  0  0
 17 45  1  0  0  0  0
 18 19  1  0  0  0  0
 18 46  1  0  0  0  0
 19 20  2  0  0  0  0
 19 47  1  0  0  0  0
 20 21  1  0  0  0  0
 20 24  1  0  0  0  0
 21 22  1  0  0  0  0
 22 23  1  0  0  0  0
 22 48  1  0  0  0  0
 22 49  1  0  0  0  0
 23 24  1  0  0  0  0
 23 50  1  0  0  0  0
 24 25  2  0  0  0  0
 26 27  1  0  0  0  0
 26 31  1  0  0  0  0
 27 28  1  0  0  0  0
 27 29  1  0  0  0  0
 27 30  1  0  0  0  0
 31 51  1  0  0  0  0
 32 52  1  0  0  0  0
M  END
$$$$
