CHEMBL3752786
 OpenBabel04072215373D

 55 59  0  0  0  0  0  0  0  0999 V2000
    4.5556   -0.0595    2.4722 O   0  0  0  0  0  0  0  0  0  0  0  0
    3.5442    0.0639    1.7809 C   0  0  0  0  0  0  0  0  0  0  0  0
    3.0927   -1.0423    0.8294 C   0  0  0  0  0  0  0  0  0  0  0  0
    2.0949   -1.9203    1.4634 N   0  0  0  0  0  0  0  0  0  0  0  0
    2.6465   -2.6397    2.6437 C   0  0  0  0  0  0  0  0  0  0  0  0
    3.6180   -3.8030    2.3101 C   0  0  0  0  0  0  0  0  0  0  0  0
    2.9172   -4.7298    1.4223 N   0  0  0  0  0  0  0  0  0  0  0  0
    2.7455   -6.0846    1.6076 C   0  0  0  0  0  0  0  0  0  0  0  0
    2.7766   -6.8531    0.4972 N   0  0  0  0  0  0  0  0  0  0  0  0
    2.5950   -8.2145    0.5401 N   0  0  0  0  0  0  0  0  0  0  0  0
    2.4230   -8.8518    1.7157 C   0  0  0  0  0  0  0  0  0  0  0  0
    2.1589  -10.3104    1.5694 C   0  0  0  0  0  0  0  0  0  0  0  0
    2.7905  -11.0598    0.5582 C   0  0  0  0  0  0  0  0  0  0  0  0
    2.5717  -12.4358    0.4173 C   0  0  0  0  0  0  0  0  0  0  0  0
    1.7230  -13.1021    1.2961 C   0  0  0  0  0  0  0  0  0  0  0  0
    1.0531  -12.3843    2.2783 C   0  0  0  0  0  0  0  0  0  0  0  0
    1.2408  -11.0023    2.3844 C   0  0  0  0  0  0  0  0  0  0  0  0
    2.4392   -8.1264    2.9282 C   0  0  0  0  0  0  0  0  0  0  0  0
    2.3689   -8.7349    4.2130 C   0  0  0  0  0  0  0  0  0  0  0  0
    2.2225   -8.0014    5.3892 C   0  0  0  0  0  0  0  0  0  0  0  0
    2.1606   -6.6289    5.3185 C   0  0  0  0  0  0  0  0  0  0  0  0
    2.3044   -6.0052    4.0826 C   0  0  0  0  0  0  0  0  0  0  0  0
    2.5193   -6.7086    2.8646 C   0  0  0  0  0  0  0  0  0  0  0  0
    2.5015   -4.1145    0.1571 C   0  0  0  0  0  0  0  0  0  0  0  0
    1.5697   -2.9147    0.4844 C   0  0  0  0  0  0  0  0  0  0  0  0
    2.7609    1.3300    1.8456 C   0  0  0  0  0  0  0  0  0  0  0  0
    3.4378    2.4969    2.2100 C   0  0  0  0  0  0  0  0  0  0  0  0
    2.7574    3.7177    2.2659 C   0  0  0  0  0  0  0  0  0  0  0  0
    1.3957    3.7678    1.9743 C   0  0  0  0  0  0  0  0  0  0  0  0
    0.7101    2.5994    1.6274 C   0  0  0  0  0  0  0  0  0  0  0  0
    1.3903    1.3803    1.5631 C   0  0  0  0  0  0  0  0  0  0  0  0
    3.9848   -1.5843    0.4953 H   0  0  0  0  0  0  0  0  0  0  0  0
    2.6749   -0.5649   -0.0652 H   0  0  0  0  0  0  0  0  0  0  0  0
    1.7795   -3.0416    3.1824 H   0  0  0  0  0  0  0  0  0  0  0  0
    3.1182   -1.9528    3.3527 H   0  0  0  0  0  0  0  0  0  0  0  0
    4.0072   -4.2695    3.2185 H   0  0  0  0  0  0  0  0  0  0  0  0
    4.5057   -3.4104    1.7978 H   0  0  0  0  0  0  0  0  0  0  0  0
    3.4633  -10.5677   -0.1441 H   0  0  0  0  0  0  0  0  0  0  0  0
    3.0667  -12.9842   -0.3799 H   0  0  0  0  0  0  0  0  0  0  0  0
    1.5701  -14.1739    1.2034 H   0  0  0  0  0  0  0  0  0  0  0  0
    0.3753  -12.8922    2.9600 H   0  0  0  0  0  0  0  0  0  0  0  0
    0.6462  -10.4710    3.1242 H   0  0  0  0  0  0  0  0  0  0  0  0
    2.4240   -9.8150    4.3221 H   0  0  0  0  0  0  0  0  0  0  0  0
    2.1360   -8.5091    6.3476 H   0  0  0  0  0  0  0  0  0  0  0  0
    2.0123   -6.0325    6.2154 H   0  0  0  0  0  0  0  0  0  0  0  0
    2.2117   -4.9286    4.0879 H   0  0  0  0  0  0  0  0  0  0  0  0
    1.9556   -4.8008   -0.5003 H   0  0  0  0  0  0  0  0  0  0  0  0
    3.3847   -3.7708   -0.3959 H   0  0  0  0  0  0  0  0  0  0  0  0
    0.6411   -3.3208    0.9078 H   0  0  0  0  0  0  0  0  0  0  0  0
    1.2751   -2.4123   -0.4450 H   0  0  0  0  0  0  0  0  0  0  0  0
    4.4992    2.4683    2.4474 H   0  0  0  0  0  0  0  0  0  0  0  0
    3.2908    4.6214    2.5444 H   0  0  0  0  0  0  0  0  0  0  0  0
    0.8645    4.7134    2.0218 H   0  0  0  0  0  0  0  0  0  0  0  0
   -0.3551    2.6408    1.4150 H   0  0  0  0  0  0  0  0  0  0  0  0
    0.8312    0.4827    1.3145 H   0  0  0  0  0  0  0  0  0  0  0  0
  1  2  2  0  0  0  0
  2  3  1  0  0  0  0
  2 26  1  0  0  0  0
  3  4  1  0  0  0  0
  3 32  1  0  0  0  0
  3 33  1  0  0  0  0
  4  5  1  0  0  0  0
  4 25  1  0  0  0  0
  5  6  1  0  0  0  0
  5 34  1  0  0  0  0
  5 35  1  0  0  0  0
  6  7  1  0  0  0  0
  6 36  1  0  0  0  0
  6 37  1  0  0  0  0
  7  8  1  0  0  0  0
  7 24  1  0  0  0  0
  8  9  1  0  0  0  0
  8 23  2  0  0  0  0
  9 10  2  0  0  0  0
 10 11  1  0  0  0  0
 11 12  1  0  0  0  0
 11 18  2  0  0  0  0
 12 13  1  0  0  0  0
 12 17  2  0  0  0  0
 13 14  2  0  0  0  0
 13 38  1  0  0  0  0
 14 15  1  0  0  0  0
 14 39  1  0  0  0  0
 15 16  2  0  0  0  0
 15 40  1  0  0  0  0
 16 17  1  0  0  0  0
 16 41  1  0  0  0  0
 17 42  1  0  0  0  0
 18 19  1  0  0  0  0
 18 23  1  0  0  0  0
 19 20  2  0  0  0  0
 19 43  1  0  0  0  0
 20 21  1  0  0  0  0
 20 44  1  0  0  0  0
 21 22  2  0  0  0  0
 21 45  1  0  0  0  0
 22 23  1  0  0  0  0
 22 46  1  0  0  0  0
 24 25  1  0  0  0  0
 24 47  1  0  0  0  0
 24 48  1  0  0  0  0
 25 49  1  0  0  0  0
 25 50  1  0  0  0  0
 26 27  1  0  0  0  0
 26 31  2  0  0  0  0
 27 28  2  0  0  0  0
 27 51  1  0  0  0  0
 28 29  1  0  0  0  0
 28 52  1  0  0  0  0
 29 30  2  0  0  0  0
 29 53  1  0  0  0  0
 30 31  1  0  0  0  0
 30 54  1  0  0  0  0
 31 55  1  0  0  0  0
M  END
$$$$
