CHEMBL212961
 OpenBabel04072215363D

 50 54  0  0  0  0  0  0  0  0999 V2000
    1.5383    0.1828   -1.4815 C   0  0  0  0  0  0  0  0  0  0  0  0
    0.1011    0.3472   -1.2815 N   0  0  0  0  0  0  0  0  0  0  0  0
   -0.5242   -0.9315   -0.9067 C   0  0  0  0  0  0  0  0  0  0  0  0
   -2.0241   -0.7657   -0.5689 C   0  0  0  0  0  0  0  0  0  0  0  0
   -2.3093    0.2076    0.5111 N   0  0  0  0  0  0  0  0  0  0  0  0
   -1.8480   -0.2255    1.8446 C   0  0  0  0  0  0  0  0  0  0  0  0
   -2.5367   -1.4816    2.3505 C   0  0  0  0  0  0  0  0  0  0  0  0
   -1.9269   -2.7217    2.0823 C   0  0  0  0  0  0  0  0  0  0  0  0
   -2.5476   -3.9018    2.4431 C   0  0  0  0  0  0  0  0  0  0  0  0
   -3.7785   -3.8453    3.0874 C   0  0  0  0  0  0  0  0  0  0  0  0
   -4.4197   -2.6243    3.4164 C   0  0  0  0  0  0  0  0  0  0  0  0
   -5.6902   -2.6849    4.2355 C   0  0  0  0  0  0  0  0  0  0  0  0
   -6.4813   -3.8478    4.1301 N   0  0  0  0  0  0  0  0  0  0  0  0
   -6.1030   -4.7506    5.0938 N   0  0  0  0  0  0  0  0  0  0  0  0
   -5.5490   -3.9208    5.9825 C   0  0  0  0  0  0  0  0  0  0  0  0
   -5.7968   -2.5466    5.6433 C   0  0  0  0  0  0  0  0  0  0  0  0
   -5.1438   -1.6621    6.6610 C   0  0  0  0  0  0  0  0  0  0  0  0
   -3.9520   -2.5662    6.9136 C   0  0  0  0  0  0  0  0  0  0  0  0
   -2.6479   -2.1040    7.0020 C   0  0  0  0  0  0  0  0  0  0  0  0
   -1.6253   -3.0071    6.7294 C   0  0  0  0  0  0  0  0  0  0  0  0
   -1.9061   -4.3591    6.4585 C   0  0  0  0  0  0  0  0  0  0  0  0
   -3.2236   -4.8438    6.4345 C   0  0  0  0  0  0  0  0  0  0  0  0
   -4.2480   -3.9336    6.6440 C   0  0  0  0  0  0  0  0  0  0  0  0
   -3.7746   -1.4386    3.0428 C   0  0  0  0  0  0  0  0  0  0  0  0
   -1.6739    1.4863    0.1188 C   0  0  0  0  0  0  0  0  0  0  0  0
   -0.1759    1.3868   -0.2736 C   0  0  0  0  0  0  0  0  0  0  0  0
    1.7358   -0.5821   -2.2400 H   0  0  0  0  0  0  0  0  0  0  0  0
    2.0544   -0.1070   -0.5584 H   0  0  0  0  0  0  0  0  0  0  0  0
    1.9857    1.1121   -1.8478 H   0  0  0  0  0  0  0  0  0  0  0  0
    0.0018   -1.3830   -0.0574 H   0  0  0  0  0  0  0  0  0  0  0  0
   -0.4404   -1.6347   -1.7445 H   0  0  0  0  0  0  0  0  0  0  0  0
   -2.4710   -1.7405   -0.3538 H   0  0  0  0  0  0  0  0  0  0  0  0
   -2.5455   -0.4240   -1.4742 H   0  0  0  0  0  0  0  0  0  0  0  0
   -2.0443    0.5709    2.5742 H   0  0  0  0  0  0  0  0  0  0  0  0
   -0.7611   -0.3784    1.8737 H   0  0  0  0  0  0  0  0  0  0  0  0
   -0.9668   -2.7714    1.5778 H   0  0  0  0  0  0  0  0  0  0  0  0
   -2.0814   -4.8601    2.2389 H   0  0  0  0  0  0  0  0  0  0  0  0
   -4.2062   -4.7992    3.3870 H   0  0  0  0  0  0  0  0  0  0  0  0
   -6.8608   -4.2161    3.2664 H   0  0  0  0  0  0  0  0  0  0  0  0
   -5.7602   -1.6082    7.5685 H   0  0  0  0  0  0  0  0  0  0  0  0
   -4.8937   -0.6628    6.3007 H   0  0  0  0  0  0  0  0  0  0  0  0
   -2.4431   -1.0429    7.1022 H   0  0  0  0  0  0  0  0  0  0  0  0
   -0.6072   -2.6366    6.6308 H   0  0  0  0  0  0  0  0  0  0  0  0
   -1.0908   -5.0151    6.1613 H   0  0  0  0  0  0  0  0  0  0  0  0
   -3.4343   -5.8456    6.0803 H   0  0  0  0  0  0  0  0  0  0  0  0
   -4.2159   -0.4761    3.2867 H   0  0  0  0  0  0  0  0  0  0  0  0
   -1.7959    2.2291    0.9156 H   0  0  0  0  0  0  0  0  0  0  0  0
   -2.2307    1.8853   -0.7407 H   0  0  0  0  0  0  0  0  0  0  0  0
    0.4177    1.2101    0.6322 H   0  0  0  0  0  0  0  0  0  0  0  0
    0.1335    2.3584   -0.6772 H   0  0  0  0  0  0  0  0  0  0  0  0
  1  2  1  0  0  0  0
  1 27  1  0  0  0  0
  1 28  1  0  0  0  0
  1 29  1  0  0  0  0
  2  3  1  0  0  0  0
  2 26  1  0  0  0  0
  3  4  1  0  0  0  0
  3 30  1  0  0  0  0
  3 31  1  0  0  0  0
  4  5  1  0  0  0  0
  4 32  1  0  0  0  0
  4 33  1  0  0  0  0
  5  6  1  0  0  0  0
  5 25  1  0  0  0  0
  6  7  1  0  0  0  0
  6 34  1  0  0  0  0
  6 35  1  0  0  0  0
  7  8  1  0  0  0  0
  7 24  2  0  0  0  0
  8  9  2  0  0  0  0
  8 36  1  0  0  0  0
  9 10  1  0  0  0  0
  9 37  1  0  0  0  0
 10 11  2  0  0  0  0
 10 38  1  0  0  0  0
 11 12  1  0  0  0  0
 11 24  1  0  0  0  0
 12 13  1  0  0  0  0
 12 16  2  0  0  0  0
 13 14  1  0  0  0  0
 13 39  1  0  0  0  0
 14 15  2  0  0  0  0
 15 16  1  0  0  0  0
 15 23  1  0  0  0  0
 16 17  1  0  0  0  0
 17 18  1  0  0  0  0
 17 40  1  0  0  0  0
 17 41  1  0  0  0  0
 18 19  1  0  0  0  0
 18 23  2  0  0  0  0
 19 20  2  0  0  0  0
 19 42  1  0  0  0  0
 20 21  1  0  0  0  0
 20 43  1  0  0  0  0
 21 22  2  0  0  0  0
 21 44  1  0  0  0  0
 22 23  1  0  0  0  0
 22 45  1  0  0  0  0
 24 46  1  0  0  0  0
 25 26  1  0  0  0  0
 25 47  1  0  0  0  0
 25 48  1  0  0  0  0
 26 49  1  0  0  0  0
 26 50  1  0  0  0  0
M  END
$$$$
