CHEMBL3216254
 OpenBabel04072215363D

 83 85  0  0  1  0  0  0  0  0999 V2000
   -1.9223   -4.1592   -0.1649 C   0  0  0  0  0  0  0  0  0  0  0  0
   -0.6462   -4.8054    0.1344 N   0  0  0  0  0  0  0  0  0  0  0  0
   -0.2892   -5.0544    1.5176 C   0  0  0  0  0  0  0  0  0  0  0  0
    0.2162   -5.2172   -0.9406 C   0  0  0  0  0  0  0  0  0  0  0  0
   -0.1202   -4.9578   -2.2781 C   0  0  0  0  0  0  0  0  0  0  0  0
    0.7140   -5.3688   -3.3112 C   0  0  0  0  0  0  0  0  0  0  0  0
    1.9048   -6.0403   -3.0277 C   0  0  0  0  0  0  0  0  0  0  0  0
    2.7767   -6.5095   -4.1361 C   0  0  0  0  0  0  0  0  0  0  0  0
    3.2631   -5.3562   -5.0075 C   0  0  0  0  0  0  0  0  0  0  0  0
    4.1086   -5.9725   -6.1018 C   0  0  0  0  0  0  0  0  0  0  0  0
    4.5918   -4.9607   -7.0968 C   0  0  0  0  0  0  0  0  0  0  0  0
    5.7387   -5.5272   -7.9225 C   0  0  0  0  0  0  0  0  0  0  0  0
    5.6023   -6.6695   -8.8759 N   0  0  0  0  0  0  0  0  0  0  0  0
    5.3762   -8.0343   -8.7055 C   0  0  0  0  0  0  0  0  0  0  0  0
    5.8009   -8.7010   -9.8478 C   0  0  0  0  0  0  0  0  0  0  0  0
    6.2151   -7.7675  -10.7209 C   0  0  0  0  0  0  0  0  0  0  0  0
    6.8063   -7.9597  -11.9509 C   0  0  0  0  0  0  0  0  0  0  0  0
    7.2002   -6.8419  -12.6683 C   0  0  0  0  0  0  0  0  0  0  0  0
    7.9164   -7.0925  -13.7878 O   0  0  0  0  0  0  0  0  0  0  0  0
    8.8094   -6.2389  -14.3905 C   0  0  0  0  0  0  0  0  0  0  0  0
    9.9351   -5.7842  -13.4292 C   0  0  0  0  0  0  0  0  0  0  0  0
   10.7927   -6.8882  -12.8340 C   0  0  0  0  0  0  0  0  0  0  0  0
   11.5226   -7.7601  -13.6634 C   0  0  0  0  0  0  0  0  0  0  0  0
   12.3630   -8.7344  -13.1097 C   0  0  0  0  0  0  0  0  0  0  0  0
   12.4954   -8.8493  -11.7181 C   0  0  0  0  0  0  0  0  0  0  0  0
   13.3173   -9.7674  -11.1716 O   0  0  0  0  0  0  0  0  0  0  0  0
   11.7692   -7.9901  -10.8860 C   0  0  0  0  0  0  0  0  0  0  0  0
   10.9228   -7.0193  -11.4375 C   0  0  0  0  0  0  0  0  0  0  0  0
    6.9000   -5.5398  -12.1838 C   0  0  0  0  0  0  0  0  0  0  0  0
    6.3142   -5.3812  -10.9109 C   0  0  0  0  0  0  0  0  0  0  0  0
    6.0199   -6.5419  -10.1678 C   0  0  0  0  0  0  0  0  0  0  0  0
    5.8878  -10.1674  -10.0586 C   0  0  0  0  0  0  0  0  0  0  0  0
    4.8274  -10.8788   -9.2386 C   0  0  3  0  0  0  0  0  0  0  0  0
    3.5207  -10.6653   -9.8594 N   0  0  0  0  0  0  0  0  0  0  0  0
    4.8804  -10.4023   -7.7598 C   0  0  0  0  0  0  0  0  0  0  0  0
    4.7910   -8.8465   -7.5476 C   0  0  0  0  0  0  0  0  0  0  0  0
    2.2622   -6.2996   -1.7035 C   0  0  0  0  0  0  0  0  0  0  0  0
    1.4287   -5.8961   -0.6667 C   0  0  0  0  0  0  0  0  0  0  0  0
   -1.3370   -0.1534    1.7838 Cl  0  0  0  0  0  0  0  0  0  0  0  0
    1.7019    2.6371   -1.3109 Cl  0  0  0  0  0  0  0  0  0  0  0  0
   -2.4828   -3.8897    0.7577 H   0  0  0  0  0  0  0  0  0  0  0  0
   -2.5608   -4.8456   -0.7590 H   0  0  0  0  0  0  0  0  0  0  0  0
   -1.7445   -3.2243   -0.7317 H   0  0  0  0  0  0  0  0  0  0  0  0
   -1.0645   -4.6869    2.2288 H   0  0  0  0  0  0  0  0  0  0  0  0
    0.6591   -4.5319    1.7577 H   0  0  0  0  0  0  0  0  0  0  0  0
   -0.1727   -6.1452    1.6917 H   0  0  0  0  0  0  0  0  0  0  0  0
   -1.0295   -4.4493   -2.5584 H   0  0  0  0  0  0  0  0  0  0  0  0
    0.4237   -5.1678   -4.3376 H   0  0  0  0  0  0  0  0  0  0  0  0
    2.1889   -7.2185   -4.7586 H   0  0  0  0  0  0  0  0  0  0  0  0
    3.6607   -7.0528   -3.7310 H   0  0  0  0  0  0  0  0  0  0  0  0
    3.8717   -4.6424   -4.4031 H   0  0  0  0  0  0  0  0  0  0  0  0
    2.4128   -4.8030   -5.4604 H   0  0  0  0  0  0  0  0  0  0  0  0
    3.5020   -6.6988   -6.6583 H   0  0  0  0  0  0  0  0  0  0  0  0
    4.9804   -6.4604   -5.6085 H   0  0  0  0  0  0  0  0  0  0  0  0
    5.0461   -4.1184   -6.5177 H   0  0  0  0  0  0  0  0  0  0  0  0
    3.7674   -4.5378   -7.7080 H   0  0  0  0  0  0  0  0  0  0  0  0
    6.5473   -5.8087   -7.2155 H   0  0  0  0  0  0  0  0  0  0  0  0
    6.1392   -4.6431   -8.4483 H   0  0  0  0  0  0  0  0  0  0  0  0
    7.0218   -8.9490  -12.3164 H   0  0  0  0  0  0  0  0  0  0  0  0
    8.2663   -5.3508  -14.7776 H   0  0  0  0  0  0  0  0  0  0  0  0
    9.2531   -6.7724  -15.2553 H   0  0  0  0  0  0  0  0  0  0  0  0
    9.4922   -5.1838  -12.6076 H   0  0  0  0  0  0  0  0  0  0  0  0
   10.6035   -5.1060  -13.9977 H   0  0  0  0  0  0  0  0  0  0  0  0
   11.4495   -7.6796  -14.7402 H   0  0  0  0  0  0  0  0  0  0  0  0
   12.9223   -9.3925  -13.7630 H   0  0  0  0  0  0  0  0  0  0  0  0
   13.8515  -10.3692  -11.7100 H   0  0  0  0  0  0  0  0  0  0  0  0
   11.8723   -8.0684   -9.8098 H   0  0  0  0  0  0  0  0  0  0  0  0
   10.3876   -6.3573  -10.7682 H   0  0  0  0  0  0  0  0  0  0  0  0
    7.1497   -4.6572  -12.7566 H   0  0  0  0  0  0  0  0  0  0  0  0
    6.1174   -4.3817  -10.5456 H   0  0  0  0  0  0  0  0  0  0  0  0
    6.9263  -10.4711   -9.7938 H   0  0  0  0  0  0  0  0  0  0  0  0
    5.7311  -10.4168  -11.1295 H   0  0  0  0  0  0  0  0  0  0  0  0
    5.0544  -11.9692   -9.2999 H   0  0  0  0  0  0  0  0  0  0  0  0
    2.8273  -11.3420   -9.4719 H   0  0  0  0  0  0  0  0  0  0  0  0
    3.1928   -9.6807   -9.7442 H   0  0  0  0  0  0  0  0  0  0  0  0
    5.8546  -10.7468   -7.3556 H   0  0  0  0  0  0  0  0  0  0  0  0
    4.0846  -10.9199   -7.1771 H   0  0  0  0  0  0  0  0  0  0  0  0
    3.7078   -8.6082   -7.5217 H   0  0  0  0  0  0  0  0  0  0  0  0
    5.2394   -8.6092   -6.5620 H   0  0  0  0  0  0  0  0  0  0  0  0
    3.1799   -6.8222   -1.4651 H   0  0  0  0  0  0  0  0  0  0  0  0
    1.7458   -6.1184    0.3398 H   0  0  0  0  0  0  0  0  0  0  0  0
   -0.0770   -0.3351    2.3051 H   0  0  0  0  0  0  0  0  0  0  0  0
    2.6129    1.6217   -1.4881 H   0  0  0  0  0  0  0  0  0  0  0  0
  1  2  1  0  0  0  0
  1 41  1  0  0  0  0
  1 42  1  0  0  0  0
  1 43  1  0  0  0  0
  2  3  1  0  0  0  0
  2  4  1  0  0  0  0
  3 44  1  0  0  0  0
  3 45  1  0  0  0  0
  3 46  1  0  0  0  0
  4  5  1  0  0  0  0
  4 38  2  0  0  0  0
  5  6  2  0  0  0  0
  5 47  1  0  0  0  0
  6  7  1  0  0  0  0
  6 48  1  0  0  0  0
  7  8  1  0  0  0  0
  7 37  2  0  0  0  0
  8  9  1  0  0  0  0
  8 49  1  0  0  0  0
  8 50  1  0  0  0  0
  9 10  1  0  0  0  0
  9 51  1  0  0  0  0
  9 52  1  0  0  0  0
 10 11  1  0  0  0  0
 10 53  1  0  0  0  0
 10 54  1  0  0  0  0
 11 12  1  0  0  0  0
 11 55  1  0  0  0  0
 11 56  1  0  0  0  0
 12 13  1  0  0  0  0
 12 57  1  0  0  0  0
 12 58  1  0  0  0  0
 13 14  1  0  0  0  0
 13 31  1  0  0  0  0
 14 15  2  0  0  0  0
 14 36  1  0  0  0  0
 15 16  1  0  0  0  0
 15 32  1  0  0  0  0
 16 17  1  0  0  0  0
 16 31  2  0  0  0  0
 17 18  2  0  0  0  0
 17 59  1  0  0  0  0
 18 19  1  0  0  0  0
 18 29  1  0  0  0  0
 19 20  1  0  0  0  0
 20 21  1  0  0  0  0
 20 60  1  0  0  0  0
 20 61  1  0  0  0  0
 21 22  1  0  0  0  0
 21 62  1  0  0  0  0
 21 63  1  0  0  0  0
 22 23  1  0  0  0  0
 22 28  2  0  0  0  0
 23 24  2  0  0  0  0
 23 64  1  0  0  0  0
 24 25  1  0  0  0  0
 24 65  1  0  0  0  0
 25 26  1  0  0  0  0
 25 27  2  0  0  0  0
 26 66  1  0  0  0  0
 27 28  1  0  0  0  0
 27 67  1  0  0  0  0
 28 68  1  0  0  0  0
 29 30  2  0  0  0  0
 29 69  1  0  0  0  0
 30 31  1  0  0  0  0
 30 70  1  0  0  0  0
 32 33  1  0  0  0  0
 32 71  1  0  0  0  0
 32 72  1  0  0  0  0
 33 34  1  0  0  0  0
 33 35  1  0  0  0  0
 33 73  1  0  0  0  0
 34 74  1  0  0  0  0
 34 75  1  0  0  0  0
 35 36  1  0  0  0  0
 35 76  1  0  0  0  0
 35 77  1  0  0  0  0
 36 78  1  0  0  0  0
 36 79  1  0  0  0  0
 37 38  1  0  0  0  0
 37 80  1  0  0  0  0
 38 81  1  0  0  0  0
 39 82  1  0  0  0  0
 40 83  1  0  0  0  0
M  END
$$$$
