CHEMBL3947822
 OpenBabel04072215373D

 61 65  0  0  0  0  0  0  0  0999 V2000
    0.8601   -0.1218    0.0830 C   0  0  0  0  0  0  0  0  0  0  0  0
    2.2029   -0.1132   -0.0041 C   0  0  0  0  0  0  0  0  0  0  0  0
    2.8958   -0.4473    1.2765 C   0  0  0  0  0  0  0  0  0  0  0  0
    3.3280    0.6037    2.0948 C   0  0  0  0  0  0  0  0  0  0  0  0
    3.9885    0.3321    3.2875 C   0  0  0  0  0  0  0  0  0  0  0  0
    4.2065   -0.9893    3.6822 C   0  0  0  0  0  0  0  0  0  0  0  0
    3.7682   -2.0631    2.9002 C   0  0  0  0  0  0  0  0  0  0  0  0
    3.9359   -3.4146    3.2942 N   0  0  0  0  0  0  0  0  0  0  0  0
    4.5211   -3.8720    4.4523 C   0  0  0  0  0  0  0  0  0  0  0  0
    4.9777   -3.1931    5.3618 O   0  0  0  0  0  0  0  0  0  0  0  0
    4.5867   -5.2390    4.4435 O   0  0  0  0  0  0  0  0  0  0  0  0
    5.5734   -5.7780    5.3345 C   0  0  0  0  0  0  0  0  0  0  0  0
    5.0144   -6.5059    6.5356 C   0  0  0  0  0  0  0  0  0  0  0  0
    5.3499   -7.8524    6.7528 C   0  0  0  0  0  0  0  0  0  0  0  0
    4.9666   -8.5078    7.9256 C   0  0  0  0  0  0  0  0  0  0  0  0
    4.2409   -7.8265    8.8989 C   0  0  0  0  0  0  0  0  0  0  0  0
    3.8927   -6.4922    8.6946 C   0  0  0  0  0  0  0  0  0  0  0  0
    4.2765   -5.8339    7.5206 C   0  0  0  0  0  0  0  0  0  0  0  0
    3.1298   -1.7804    1.6783 C   0  0  0  0  0  0  0  0  0  0  0  0
    2.9176    0.2892   -1.2605 C   0  0  0  0  0  0  0  0  0  0  0  0
    2.3139    0.9500   -2.3540 C   0  0  0  0  0  0  0  0  0  0  0  0
    3.0373    1.3134   -3.5211 C   0  0  0  0  0  0  0  0  0  0  0  0
    4.4353    1.1664   -3.5021 C   0  0  0  0  0  0  0  0  0  0  0  0
    5.5926    1.3461   -4.3410 C   0  0  0  0  0  0  0  0  0  0  0  0
    6.1432    0.4037   -5.3156 C   0  0  0  0  0  0  0  0  0  0  0  0
    5.7968   -0.8981   -5.3498 C   0  0  0  0  0  0  0  0  0  0  0  0
    6.7960   -1.9923   -5.4193 C   0  0  0  0  0  0  0  0  0  0  0  0
    8.0004   -1.9179   -4.6913 C   0  0  0  0  0  0  0  0  0  0  0  0
    8.8118   -3.0452   -4.5137 C   0  0  0  0  0  0  0  0  0  0  0  0
    8.4330   -4.2627   -5.0701 C   0  0  0  0  0  0  0  0  0  0  0  0
    7.2538   -4.3477   -5.8097 C   0  0  0  0  0  0  0  0  0  0  0  0
    6.4368   -3.2199   -5.9772 C   0  0  0  0  0  0  0  0  0  0  0  0
    6.5535    1.8382   -3.5272 N   0  0  0  0  0  0  0  0  0  0  0  0
    6.2982    1.1440   -2.4035 N   0  0  0  0  0  0  0  0  0  0  0  0
    5.0062    0.7223   -2.3183 C   0  0  0  0  0  0  0  0  0  0  0  0
    4.3077    0.1121   -1.2822 C   0  0  0  0  0  0  0  0  0  0  0  0
    0.3570   -0.3564    1.0187 H   0  0  0  0  0  0  0  0  0  0  0  0
    0.2080    0.1185   -0.7473 H   0  0  0  0  0  0  0  0  0  0  0  0
    3.1528    1.6376    1.8056 H   0  0  0  0  0  0  0  0  0  0  0  0
    4.3289    1.1447    3.9246 H   0  0  0  0  0  0  0  0  0  0  0  0
    4.7259   -1.1374    4.6229 H   0  0  0  0  0  0  0  0  0  0  0  0
    3.6176   -4.1404    2.6690 H   0  0  0  0  0  0  0  0  0  0  0  0
    6.2994   -5.0300    5.6780 H   0  0  0  0  0  0  0  0  0  0  0  0
    6.1531   -6.4784    4.7243 H   0  0  0  0  0  0  0  0  0  0  0  0
    5.9417   -8.3968    6.0202 H   0  0  0  0  0  0  0  0  0  0  0  0
    5.2521   -9.5443    8.0866 H   0  0  0  0  0  0  0  0  0  0  0  0
    3.9575   -8.3309    9.8194 H   0  0  0  0  0  0  0  0  0  0  0  0
    3.3385   -5.9560    9.4615 H   0  0  0  0  0  0  0  0  0  0  0  0
    4.0258   -4.7820    7.3996 H   0  0  0  0  0  0  0  0  0  0  0  0
    2.8071   -2.5874    1.0245 H   0  0  0  0  0  0  0  0  0  0  0  0
    1.2648    1.2363   -2.3113 H   0  0  0  0  0  0  0  0  0  0  0  0
    2.5366    1.8188   -4.3423 H   0  0  0  0  0  0  0  0  0  0  0  0
    7.1459    0.6802   -5.6466 H   0  0  0  0  0  0  0  0  0  0  0  0
    4.8285   -1.2218   -4.9791 H   0  0  0  0  0  0  0  0  0  0  0  0
    8.2881   -0.9983   -4.1861 H   0  0  0  0  0  0  0  0  0  0  0  0
    9.7190   -2.9805   -3.9162 H   0  0  0  0  0  0  0  0  0  0  0  0
    9.0429   -5.1491   -4.9124 H   0  0  0  0  0  0  0  0  0  0  0  0
    6.9467   -5.3019   -6.2278 H   0  0  0  0  0  0  0  0  0  0  0  0
    5.4992   -3.3207   -6.5158 H   0  0  0  0  0  0  0  0  0  0  0  0
    7.0067    1.1088   -1.6737 H   0  0  0  0  0  0  0  0  0  0  0  0
    4.8453   -0.3545   -0.4645 H   0  0  0  0  0  0  0  0  0  0  0  0
  1  2  2  0  0  0  0
  1 37  1  0  0  0  0
  1 38  1  0  0  0  0
  2  3  1  0  0  0  0
  2 20  1  0  0  0  0
  3  4  1  0  0  0  0
  3 19  2  0  0  0  0
  4  5  2  0  0  0  0
  4 39  1  0  0  0  0
  5  6  1  0  0  0  0
  5 40  1  0  0  0  0
  6  7  2  0  0  0  0
  6 41  1  0  0  0  0
  7  8  1  0  0  0  0
  7 19  1  0  0  0  0
  8  9  1  0  0  0  0
  8 42  1  0  0  0  0
  9 10  2  0  0  0  0
  9 11  1  0  0  0  0
 11 12  1  0  0  0  0
 12 13  1  0  0  0  0
 12 43  1  0  0  0  0
 12 44  1  0  0  0  0
 13 14  1  0  0  0  0
 13 18  2  0  0  0  0
 14 15  2  0  0  0  0
 14 45  1  0  0  0  0
 15 16  1  0  0  0  0
 15 46  1  0  0  0  0
 16 17  2  0  0  0  0
 16 47  1  0  0  0  0
 17 18  1  0  0  0  0
 17 48  1  0  0  0  0
 18 49  1  0  0  0  0
 19 50  1  0  0  0  0
 20 21  1  0  0  0  0
 20 36  2  0  0  0  0
 21 22  2  0  0  0  0
 21 51  1  0  0  0  0
 22 23  1  0  0  0  0
 22 52  1  0  0  0  0
 23 24  1  0  0  0  0
 23 35  2  0  0  0  0
 24 25  1  0  0  0  0
 24 33  2  0  0  0  0
 25 26  2  0  0  0  0
 25 53  1  0  0  0  0
 26 27  1  0  0  0  0
 26 54  1  0  0  0  0
 27 28  1  0  0  0  0
 27 32  2  0  0  0  0
 28 29  2  0  0  0  0
 28 55  1  0  0  0  0
 29 30  1  0  0  0  0
 29 56  1  0  0  0  0
 30 31  2  0  0  0  0
 30 57  1  0  0  0  0
 31 32  1  0  0  0  0
 31 58  1  0  0  0  0
 32 59  1  0  0  0  0
 33 34  1  0  0  0  0
 34 35  1  0  0  0  0
 34 60  1  0  0  0  0
 35 36  1  0  0  0  0
 36 61  1  0  0  0  0
M  END
$$$$
