CHEMBL3671523
 OpenBabel04072215373D

 54 56  0  0  0  0  0  0  0  0999 V2000
    3.5949    3.8397   -1.3062 C   0  0  0  0  0  0  0  0  0  0  0  0
    3.5465    3.1157   -0.1822 C   0  0  0  0  0  0  0  0  0  0  0  0
    3.6864    1.6388   -0.2632 C   0  0  0  0  0  0  0  0  0  0  0  0
    3.2827    0.9949   -1.2268 O   0  0  0  0  0  0  0  0  0  0  0  0
    4.3260    1.0103    0.7790 N   0  0  0  0  0  0  0  0  0  0  0  0
    5.1308    1.6872    1.7138 C   0  0  0  0  0  0  0  0  0  0  0  0
    6.3070    2.2881    1.2565 C   0  0  0  0  0  0  0  0  0  0  0  0
    7.0250    3.1803    2.0833 C   0  0  0  0  0  0  0  0  0  0  0  0
    8.1378    3.9330    1.6800 C   0  0  0  0  0  0  0  0  0  0  0  0
    8.5925    3.8631    0.3368 N   0  0  0  0  0  0  0  0  0  0  0  0
    9.4294    4.8341   -0.2650 C   0  0  0  0  0  0  0  0  0  0  0  0
    9.2001    6.2052   -0.0779 C   0  0  0  0  0  0  0  0  0  0  0  0
   10.0697    7.1578   -0.6125 C   0  0  0  0  0  0  0  0  0  0  0  0
   11.1697    6.7418   -1.3598 C   0  0  0  0  0  0  0  0  0  0  0  0
   12.3839    8.0308   -2.0228 Br  0  0  0  0  0  0  0  0  0  0  0  0
   11.3879    5.3894   -1.6069 C   0  0  0  0  0  0  0  0  0  0  0  0
   10.5114    4.4512   -1.0677 C   0  0  0  0  0  0  0  0  0  0  0  0
   10.7316    3.1476   -1.2979 F   0  0  0  0  0  0  0  0  0  0  0  0
    8.7649    4.7772    2.5208 N   0  0  0  0  0  0  0  0  0  0  0  0
    8.2685    4.8887    3.7533 C   0  0  0  0  0  0  0  0  0  0  0  0
    7.1887    4.2600    4.2252 N   0  0  0  0  0  0  0  0  0  0  0  0
    6.5717    3.4184    3.3926 C   0  0  0  0  0  0  0  0  0  0  0  0
    5.4218    2.7759    3.8376 C   0  0  0  0  0  0  0  0  0  0  0  0
    4.7032    1.8883    3.0317 C   0  0  0  0  0  0  0  0  0  0  0  0
    3.5916    1.3424    3.6271 O   0  0  0  0  0  0  0  0  0  0  0  0
    3.2650    0.0153    3.2021 C   0  0  0  0  0  0  0  0  0  0  0  0
    2.6253   -0.7839    4.3393 C   0  0  0  0  0  0  0  0  0  0  0  0
    2.3801   -2.1660    3.9433 N   0  0  0  0  0  0  0  0  0  0  0  0
    3.4031   -3.0840    3.9476 C   0  0  0  0  0  0  0  0  0  0  0  0
    4.5333   -2.8338    4.3521 O   0  0  0  0  0  0  0  0  0  0  0  0
    3.0410   -4.3915    3.3470 C   0  0  0  0  0  0  0  0  0  0  0  0
    3.9471   -5.3819    3.3301 C   0  0  0  0  0  0  0  0  0  0  0  0
    3.7174   -6.7324    2.7363 C   0  0  0  0  0  0  0  0  0  0  0  0
    3.5633    4.9232   -1.2736 H   0  0  0  0  0  0  0  0  0  0  0  0
    3.6965    3.3661   -2.2795 H   0  0  0  0  0  0  0  0  0  0  0  0
    3.4700    3.5880    0.7893 H   0  0  0  0  0  0  0  0  0  0  0  0
    4.6568    0.0998    0.4751 H   0  0  0  0  0  0  0  0  0  0  0  0
    6.6285    2.1190    0.2316 H   0  0  0  0  0  0  0  0  0  0  0  0
    8.8872    2.9173    0.1053 H   0  0  0  0  0  0  0  0  0  0  0  0
    8.3475    6.5386    0.5098 H   0  0  0  0  0  0  0  0  0  0  0  0
    9.8856    8.2125   -0.4230 H   0  0  0  0  0  0  0  0  0  0  0  0
   12.2356    5.0526   -2.1955 H   0  0  0  0  0  0  0  0  0  0  0  0
    8.7864    5.5598    4.4296 H   0  0  0  0  0  0  0  0  0  0  0  0
    5.0655    2.9853    4.8443 H   0  0  0  0  0  0  0  0  0  0  0  0
    4.1567   -0.5272    2.8666 H   0  0  0  0  0  0  0  0  0  0  0  0
    2.5454    0.0783    2.3772 H   0  0  0  0  0  0  0  0  0  0  0  0
    1.6688   -0.3392    4.6384 H   0  0  0  0  0  0  0  0  0  0  0  0
    3.2771   -0.7699    5.2206 H   0  0  0  0  0  0  0  0  0  0  0  0
    1.5025   -2.3871    3.4940 H   0  0  0  0  0  0  0  0  0  0  0  0
    2.0567   -4.5136    2.9176 H   0  0  0  0  0  0  0  0  0  0  0  0
    4.9303   -5.2200    3.7702 H   0  0  0  0  0  0  0  0  0  0  0  0
    2.7196   -6.8304    2.2983 H   0  0  0  0  0  0  0  0  0  0  0  0
    3.8319   -7.5020    3.5064 H   0  0  0  0  0  0  0  0  0  0  0  0
    4.4558   -6.9247    1.9509 H   0  0  0  0  0  0  0  0  0  0  0  0
  1  2  2  0  0  0  0
  1 34  1  0  0  0  0
  1 35  1  0  0  0  0
  2  3  1  0  0  0  0
  2 36  1  0  0  0  0
  3  4  2  0  0  0  0
  3  5  1  0  0  0  0
  5  6  1  0  0  0  0
  5 37  1  0  0  0  0
  6  7  1  0  0  0  0
  6 24  2  0  0  0  0
  7  8  2  0  0  0  0
  7 38  1  0  0  0  0
  8  9  1  0  0  0  0
  8 22  1  0  0  0  0
  9 10  1  0  0  0  0
  9 19  2  0  0  0  0
 10 11  1  0  0  0  0
 10 39  1  0  0  0  0
 11 12  1  0  0  0  0
 11 17  2  0  0  0  0
 12 13  2  0  0  0  0
 12 40  1  0  0  0  0
 13 14  1  0  0  0  0
 13 41  1  0  0  0  0
 14 15  1  0  0  0  0
 14 16  2  0  0  0  0
 16 17  1  0  0  0  0
 16 42  1  0  0  0  0
 17 18  1  0  0  0  0
 19 20  1  0  0  0  0
 20 21  2  0  0  0  0
 20 43  1  0  0  0  0
 21 22  1  0  0  0  0
 22 23  2  0  0  0  0
 23 24  1  0  0  0  0
 23 44  1  0  0  0  0
 24 25  1  0  0  0  0
 25 26  1  0  0  0  0
 26 27  1  0  0  0  0
 26 45  1  0  0  0  0
 26 46  1  0  0  0  0
 27 28  1  0  0  0  0
 27 47  1  0  0  0  0
 27 48  1  0  0  0  0
 28 29  1  0  0  0  0
 28 49  1  0  0  0  0
 29 30  2  0  0  0  0
 29 31  1  0  0  0  0
 31 32  2  0  0  0  0
 31 50  1  0  0  0  0
 32 33  1  0  0  0  0
 32 51  1  0  0  0  0
 33 52  1  0  0  0  0
 33 53  1  0  0  0  0
 33 54  1  0  0  0  0
M  END
$$$$
