CHEMBL3752129
 OpenBabel04072215373D

 42 44  0  0  0  0  0  0  0  0999 V2000
    0.9156   -0.1529   -0.0291 C   0  0  0  0  0  0  0  0  0  0  0  0
    2.2947    0.1884   -0.1480 O   0  0  0  0  0  0  0  0  0  0  0  0
    2.9786    0.4116    1.0217 C   0  0  0  0  0  0  0  0  0  0  0  0
    2.5253   -0.1086    2.2345 C   0  0  0  0  0  0  0  0  0  0  0  0
    3.2464    0.0568    3.4059 C   0  0  0  0  0  0  0  0  0  0  0  0
    2.8077   -0.4592    4.6321 N   0  0  0  0  0  0  0  0  0  0  0  0
    1.7205   -1.2585    4.9091 C   0  0  0  0  0  0  0  0  0  0  0  0
    0.8660   -1.6363    4.1040 O   0  0  0  0  0  0  0  0  0  0  0  0
    1.6239   -1.7166    6.2000 N   0  0  0  0  0  0  0  0  0  0  0  0
    2.4940   -1.3858    7.1908 C   0  0  0  0  0  0  0  0  0  0  0  0
    3.4280   -0.4662    7.1297 N   0  0  0  0  0  0  0  0  0  0  0  0
    4.1780   -0.5033    8.2806 C   0  0  0  0  0  0  0  0  0  0  0  0
    3.7984   -1.4642    9.1932 C   0  0  0  0  0  0  0  0  0  0  0  0
    2.4063   -2.2977    8.6208 S   0  0  0  0  0  0  0  0  0  0  0  0
    4.4745    0.7266    3.3608 C   0  0  0  0  0  0  0  0  0  0  0  0
    4.9934    1.2215    2.1476 C   0  0  0  0  0  0  0  0  0  0  0  0
    6.3474    1.7839    2.1635 C   0  0  0  0  0  0  0  0  0  0  0  0
    7.2290    1.8329    1.1053 C   0  0  0  0  0  0  0  0  0  0  0  0
    8.3812    2.3637    1.6052 N   0  0  0  0  0  0  0  0  0  0  0  0
    9.5989    2.5906    0.8656 C   0  0  0  0  0  0  0  0  0  0  0  0
    8.1852    2.6077    2.9322 C   0  0  0  0  0  0  0  0  0  0  0  0
    6.9727    2.2585    3.3049 N   0  0  0  0  0  0  0  0  0  0  0  0
    4.2068    1.1071    0.9738 C   0  0  0  0  0  0  0  0  0  0  0  0
    4.7216    1.6601   -0.1758 O   0  0  0  0  0  0  0  0  0  0  0  0
    3.7951    2.2084   -1.1048 C   0  0  0  0  0  0  0  0  0  0  0  0
    0.5022   -0.2283   -1.0382 H   0  0  0  0  0  0  0  0  0  0  0  0
    0.3671    0.6297    0.5066 H   0  0  0  0  0  0  0  0  0  0  0  0
    0.7770   -1.1306    0.4438 H   0  0  0  0  0  0  0  0  0  0  0  0
    1.6058   -0.6722    2.2706 H   0  0  0  0  0  0  0  0  0  0  0  0
    3.3943   -0.2364    5.4353 H   0  0  0  0  0  0  0  0  0  0  0  0
    0.9052   -2.4023    6.3756 H   0  0  0  0  0  0  0  0  0  0  0  0
    5.0095    0.1834    8.3897 H   0  0  0  0  0  0  0  0  0  0  0  0
    4.2600   -1.7090   10.1378 H   0  0  0  0  0  0  0  0  0  0  0  0
    5.0664    0.8279    4.2704 H   0  0  0  0  0  0  0  0  0  0  0  0
    7.1400    1.5293    0.0723 H   0  0  0  0  0  0  0  0  0  0  0  0
    9.4451    2.3228   -0.1842 H   0  0  0  0  0  0  0  0  0  0  0  0
   10.3859    1.9653    1.2955 H   0  0  0  0  0  0  0  0  0  0  0  0
    9.8638    3.6479    0.9451 H   0  0  0  0  0  0  0  0  0  0  0  0
    8.9499    3.0216    3.5786 H   0  0  0  0  0  0  0  0  0  0  0  0
    4.3338    2.9346   -1.7215 H   0  0  0  0  0  0  0  0  0  0  0  0
    2.9715    2.7378   -0.6132 H   0  0  0  0  0  0  0  0  0  0  0  0
    3.4300    1.4315   -1.7822 H   0  0  0  0  0  0  0  0  0  0  0  0
  1  2  1  0  0  0  0
  1 26  1  0  0  0  0
  1 27  1  0  0  0  0
  1 28  1  0  0  0  0
  2  3  1  0  0  0  0
  3  4  1  0  0  0  0
  3 23  2  0  0  0  0
  4  5  2  0  0  0  0
  4 29  1  0  0  0  0
  5  6  1  0  0  0  0
  5 15  1  0  0  0  0
  6  7  1  0  0  0  0
  6 30  1  0  0  0  0
  7  8  2  0  0  0  0
  7  9  1  0  0  0  0
  9 10  1  0  0  0  0
  9 31  1  0  0  0  0
 10 11  2  0  0  0  0
 10 14  1  0  0  0  0
 11 12  1  0  0  0  0
 12 13  2  0  0  0  0
 12 32  1  0  0  0  0
 13 14  1  0  0  0  0
 13 33  1  0  0  0  0
 15 16  2  0  0  0  0
 15 34  1  0  0  0  0
 16 17  1  0  0  0  0
 16 23  1  0  0  0  0
 17 18  2  0  0  0  0
 17 22  1  0  0  0  0
 18 19  1  0  0  0  0
 18 35  1  0  0  0  0
 19 20  1  0  0  0  0
 19 21  1  0  0  0  0
 20 36  1  0  0  0  0
 20 37  1  0  0  0  0
 20 38  1  0  0  0  0
 21 22  2  0  0  0  0
 21 39  1  0  0  0  0
 23 24  1  0  0  0  0
 24 25  1  0  0  0  0
 25 40  1  0  0  0  0
 25 41  1  0  0  0  0
 25 42  1  0  0  0  0
M  END
$$$$
