CHEMBL4073523
 OpenBabel04072215383D

 42 45  0  0  0  0  0  0  0  0999 V2000
    1.1086   -0.3275    0.1706 C   0  0  0  0  0  0  0  0  0  0  0  0
    2.4901   -0.0793   -0.0507 O   0  0  0  0  0  0  0  0  0  0  0  0
    3.1571    0.5878    0.9467 C   0  0  0  0  0  0  0  0  0  0  0  0
    2.7790    0.5455    2.2953 C   0  0  0  0  0  0  0  0  0  0  0  0
    3.5866    1.2186    3.2258 C   0  0  0  0  0  0  0  0  0  0  0  0
    3.4596    1.3209    4.5929 N   0  0  0  0  0  0  0  0  0  0  0  0
    4.4897    2.0496    5.1117 C   0  0  0  0  0  0  0  0  0  0  0  0
    4.6481    2.3205    6.4136 N   0  0  0  0  0  0  0  0  0  0  0  0
    5.7436    3.0504    6.6490 C   0  0  0  0  0  0  0  0  0  0  0  0
    5.9445    3.4635    7.9513 N   0  0  0  0  0  0  0  0  0  0  0  0
    6.6667    3.4223    5.7491 N   0  0  0  0  0  0  0  0  0  0  0  0
    6.4726    3.1479    4.4359 C   0  0  0  0  0  0  0  0  0  0  0  0
    7.4008    3.5304    3.4944 N   0  0  0  0  0  0  0  0  0  0  0  0
    8.8058    3.6273    3.8167 C   0  0  0  0  0  0  0  0  0  0  0  0
    9.5621    2.6820    2.9031 C   0  0  0  0  0  0  0  0  0  0  0  0
   10.5399    3.1487    2.0127 C   0  0  0  0  0  0  0  0  0  0  0  0
   11.1857    2.2699    1.1434 C   0  0  0  0  0  0  0  0  0  0  0  0
   10.8719    0.9083    1.1579 C   0  0  0  0  0  0  0  0  0  0  0  0
    9.9200    0.4262    2.0551 C   0  0  0  0  0  0  0  0  0  0  0  0
    9.2766    1.3056    2.9232 C   0  0  0  0  0  0  0  0  0  0  0  0
    5.3144    2.4393    4.0739 C   0  0  0  0  0  0  0  0  0  0  0  0
    4.7414    1.9186    2.8684 C   0  0  0  0  0  0  0  0  0  0  0  0
    5.1084    1.9524    1.5055 C   0  0  0  0  0  0  0  0  0  0  0  0
    4.3093    1.2876    0.5671 C   0  0  0  0  0  0  0  0  0  0  0  0
    4.6564    1.3308   -0.7588 O   0  0  0  0  0  0  0  0  0  0  0  0
    0.7043   -0.8016   -0.7295 H   0  0  0  0  0  0  0  0  0  0  0  0
    0.5676    0.6105    0.3315 H   0  0  0  0  0  0  0  0  0  0  0  0
    0.9477   -1.0234    0.9992 H   0  0  0  0  0  0  0  0  0  0  0  0
    1.9158   -0.0100    2.6376 H   0  0  0  0  0  0  0  0  0  0  0  0
    2.7261    0.9092    5.1487 H   0  0  0  0  0  0  0  0  0  0  0  0
    5.4748    2.8501    8.6003 H   0  0  0  0  0  0  0  0  0  0  0  0
    6.9167    3.6807    8.1110 H   0  0  0  0  0  0  0  0  0  0  0  0
    7.0554    4.0487    2.7004 H   0  0  0  0  0  0  0  0  0  0  0  0
    9.0374    3.3675    4.8564 H   0  0  0  0  0  0  0  0  0  0  0  0
    9.1381    4.6594    3.6591 H   0  0  0  0  0  0  0  0  0  0  0  0
   10.7978    4.2050    1.9828 H   0  0  0  0  0  0  0  0  0  0  0  0
   11.9352    2.6393    0.4488 H   0  0  0  0  0  0  0  0  0  0  0  0
   11.3706    0.2256    0.4718 H   0  0  0  0  0  0  0  0  0  0  0  0
    9.6721   -0.6316    2.0667 H   0  0  0  0  0  0  0  0  0  0  0  0
    8.5268    0.9168    3.6103 H   0  0  0  0  0  0  0  0  0  0  0  0
    6.0067    2.4788    1.2011 H   0  0  0  0  0  0  0  0  0  0  0  0
    5.4825    1.8295   -0.8547 H   0  0  0  0  0  0  0  0  0  0  0  0
  1  2  1  0  0  0  0
  1 26  1  0  0  0  0
  1 27  1  0  0  0  0
  1 28  1  0  0  0  0
  2  3  1  0  0  0  0
  3  4  1  0  0  0  0
  3 24  2  0  0  0  0
  4  5  2  0  0  0  0
  4 29  1  0  0  0  0
  5  6  1  0  0  0  0
  5 22  1  0  0  0  0
  6  7  1  0  0  0  0
  6 30  1  0  0  0  0
  7  8  1  0  0  0  0
  7 21  2  0  0  0  0
  8  9  2  0  0  0  0
  9 10  1  0  0  0  0
  9 11  1  0  0  0  0
 10 31  1  0  0  0  0
 10 32  1  0  0  0  0
 11 12  2  0  0  0  0
 12 13  1  0  0  0  0
 12 21  1  0  0  0  0
 13 14  1  0  0  0  0
 13 33  1  0  0  0  0
 14 15  1  0  0  0  0
 14 34  1  0  0  0  0
 14 35  1  0  0  0  0
 15 16  1  0  0  0  0
 15 20  2  0  0  0  0
 16 17  2  0  0  0  0
 16 36  1  0  0  0  0
 17 18  1  0  0  0  0
 17 37  1  0  0  0  0
 18 19  2  0  0  0  0
 18 38  1  0  0  0  0
 19 20  1  0  0  0  0
 19 39  1  0  0  0  0
 20 40  1  0  0  0  0
 21 22  1  0  0  0  0
 22 23  2  0  0  0  0
 23 24  1  0  0  0  0
 23 41  1  0  0  0  0
 24 25  1  0  0  0  0
 25 42  1  0  0  0  0
M  END
$$$$
