CHEMBL3694712
 OpenBabel04072215373D

 56 59  0  0  0  0  0  0  0  0999 V2000
    6.2955   -1.1701    0.1838 C   0  0  0  0  0  0  0  0  0  0  0  0
    4.9074   -0.5324    0.1105 C   0  0  0  0  0  0  0  0  0  0  0  0
    4.2306   -0.8664   -1.2207 C   0  0  0  0  0  0  0  0  0  0  0  0
    4.0479   -0.9793    1.2763 C   0  0  0  0  0  0  0  0  0  0  0  0
    3.5503   -0.0634    2.1791 C   0  0  0  0  0  0  0  0  0  0  0  0
    2.7689   -0.5587    3.1984 C   0  0  0  0  0  0  0  0  0  0  0  0
    2.1862    0.3032    4.1253 N   0  0  0  0  0  0  0  0  0  0  0  0
    2.4727   -1.8549    3.3211 N   0  0  0  0  0  0  0  0  0  0  0  0
    2.9861   -2.6841    2.3945 C   0  0  0  0  0  0  0  0  0  0  0  0
    2.6262   -4.1277    2.4462 C   0  0  0  0  0  0  0  0  0  0  0  0
    3.1644   -5.1028    1.4831 C   0  0  0  0  0  0  0  0  0  0  0  0
    2.7750   -6.3875    1.5230 C   0  0  0  0  0  0  0  0  0  0  0  0
    1.8389   -6.7961    2.4755 N   0  0  0  0  0  0  0  0  0  0  0  0
    1.2384   -8.0302    2.6978 C   0  0  0  0  0  0  0  0  0  0  0  0
    1.4248   -9.2832    1.9512 C   0  0  0  0  0  0  0  0  0  0  0  0
    1.3889  -10.4937    2.6593 C   0  0  0  0  0  0  0  0  0  0  0  0
    1.5386  -11.7097    2.0053 C   0  0  0  0  0  0  0  0  0  0  0  0
    1.7258  -11.7411    0.6269 C   0  0  0  0  0  0  0  0  0  0  0  0
    1.7390  -10.5616   -0.1195 C   0  0  0  0  0  0  0  0  0  0  0  0
    1.9066  -10.5440   -1.5265 N   0  0  0  0  0  0  0  0  0  0  0  0
    1.9868  -11.6438   -2.3525 C   0  0  0  0  0  0  0  0  0  0  0  0
    1.8975  -12.8210   -2.0284 O   0  0  0  0  0  0  0  0  0  0  0  0
    2.2338  -11.3018   -3.6647 N   0  0  0  0  0  0  0  0  0  0  0  0
    2.2894  -12.3836   -4.6591 C   0  0  0  0  0  0  0  0  0  0  0  0
    0.9356  -12.9527   -5.1135 C   0  0  0  0  0  0  0  0  0  0  0  0
   -0.1044  -12.2173   -4.6572 F   0  0  0  0  0  0  0  0  0  0  0  0
    0.8615  -12.9318   -6.4690 F   0  0  0  0  0  0  0  0  0  0  0  0
    0.7540  -14.2308   -4.7237 F   0  0  0  0  0  0  0  0  0  0  0  0
    1.5818   -9.3351    0.5540 C   0  0  0  0  0  0  0  0  0  0  0  0
    0.4502   -7.8116    3.8207 C   0  0  0  0  0  0  0  0  0  0  0  0
    0.5187   -6.5217    4.2672 N   0  0  0  0  0  0  0  0  0  0  0  0
    1.3406   -5.9223    3.4376 C   0  0  0  0  0  0  0  0  0  0  0  0
    1.7636   -4.5632    3.3952 C   0  0  0  0  0  0  0  0  0  0  0  0
    3.7764   -2.2950    1.3766 N   0  0  0  0  0  0  0  0  0  0  0  0
    6.9199   -0.8346   -0.6513 H   0  0  0  0  0  0  0  0  0  0  0  0
    6.2437   -2.2642    0.1440 H   0  0  0  0  0  0  0  0  0  0  0  0
    6.8025   -0.8955    1.1151 H   0  0  0  0  0  0  0  0  0  0  0  0
    5.0361    0.5565    0.1552 H   0  0  0  0  0  0  0  0  0  0  0  0
    4.1120   -1.9476   -1.3565 H   0  0  0  0  0  0  0  0  0  0  0  0
    4.8225   -0.4872   -2.0603 H   0  0  0  0  0  0  0  0  0  0  0  0
    3.2345   -0.4129   -1.2798 H   0  0  0  0  0  0  0  0  0  0  0  0
    3.7468    0.9953    2.0865 H   0  0  0  0  0  0  0  0  0  0  0  0
    2.8577    0.9256    4.5578 H   0  0  0  0  0  0  0  0  0  0  0  0
    1.6966   -0.2660    4.8128 H   0  0  0  0  0  0  0  0  0  0  0  0
    3.8830   -4.7569    0.7451 H   0  0  0  0  0  0  0  0  0  0  0  0
    3.1726   -7.1223    0.8389 H   0  0  0  0  0  0  0  0  0  0  0  0
    1.2416  -10.5047    3.7382 H   0  0  0  0  0  0  0  0  0  0  0  0
    1.5073  -12.6405    2.5652 H   0  0  0  0  0  0  0  0  0  0  0  0
    1.8582  -12.7153    0.1690 H   0  0  0  0  0  0  0  0  0  0  0  0
    1.9699   -9.6384   -1.9651 H   0  0  0  0  0  0  0  0  0  0  0  0
    1.8862  -10.4082   -3.9803 H   0  0  0  0  0  0  0  0  0  0  0  0
    2.8984  -13.1993   -4.2511 H   0  0  0  0  0  0  0  0  0  0  0  0
    2.8291  -11.9805   -5.5215 H   0  0  0  0  0  0  0  0  0  0  0  0
    1.5538   -8.4173   -0.0261 H   0  0  0  0  0  0  0  0  0  0  0  0
   -0.1738   -8.5323    4.3354 H   0  0  0  0  0  0  0  0  0  0  0  0
    1.3409   -3.8994    4.1432 H   0  0  0  0  0  0  0  0  0  0  0  0
  1  2  1  0  0  0  0
  1 35  1  0  0  0  0
  1 36  1  0  0  0  0
  1 37  1  0  0  0  0
  2  3  1  0  0  0  0
  2  4  1  0  0  0  0
  2 38  1  0  0  0  0
  3 39  1  0  0  0  0
  3 40  1  0  0  0  0
  3 41  1  0  0  0  0
  4  5  1  0  0  0  0
  4 34  2  0  0  0  0
  5  6  2  0  0  0  0
  5 42  1  0  0  0  0
  6  7  1  0  0  0  0
  6  8  1  0  0  0  0
  7 43  1  0  0  0  0
  7 44  1  0  0  0  0
  8  9  2  0  0  0  0
  9 10  1  0  0  0  0
  9 34  1  0  0  0  0
 10 11  1  0  0  0  0
 10 33  2  0  0  0  0
 11 12  2  0  0  0  0
 11 45  1  0  0  0  0
 12 13  1  0  0  0  0
 12 46  1  0  0  0  0
 13 14  1  0  0  0  0
 13 32  1  0  0  0  0
 14 15  1  0  0  0  0
 14 30  2  0  0  0  0
 15 16  1  0  0  0  0
 15 29  2  0  0  0  0
 16 17  2  0  0  0  0
 16 47  1  0  0  0  0
 17 18  1  0  0  0  0
 17 48  1  0  0  0  0
 18 19  2  0  0  0  0
 18 49  1  0  0  0  0
 19 20  1  0  0  0  0
 19 29  1  0  0  0  0
 20 21  1  0  0  0  0
 20 50  1  0  0  0  0
 21 22  2  0  0  0  0
 21 23  1  0  0  0  0
 23 24  1  0  0  0  0
 23 51  1  0  0  0  0
 24 25  1  0  0  0  0
 24 52  1  0  0  0  0
 24 53  1  0  0  0  0
 25 26  1  0  0  0  0
 25 27  1  0  0  0  0
 25 28  1  0  0  0  0
 29 54  1  0  0  0  0
 30 31  1  0  0  0  0
 30 55  1  0  0  0  0
 31 32  2  0  0  0  0
 32 33  1  0  0  0  0
 33 56  1  0  0  0  0
M  END
$$$$
