CHEMBL3982351
 OpenBabel04072215373D

 62 65  0  0  0  0  0  0  0  0999 V2000
    2.5221    6.2753    1.5060 C   0  0  0  0  0  0  0  0  0  0  0  0
    2.0203    5.1224    0.8098 O   0  0  0  0  0  0  0  0  0  0  0  0
    2.6261    3.8965    1.2064 C   0  0  0  0  0  0  0  0  0  0  0  0
    2.1521    2.7478    0.5345 C   0  0  0  0  0  0  0  0  0  0  0  0
    2.9635    1.5819    0.4578 C   0  0  0  0  0  0  0  0  0  0  0  0
    2.5231    0.4438   -0.2164 O   0  0  0  0  0  0  0  0  0  0  0  0
    1.0962    0.2252   -0.2349 C   0  0  0  0  0  0  0  0  0  0  0  0
    4.3194    1.5757    0.9411 C   0  0  0  0  0  0  0  0  0  0  0  0
    4.8896    2.7195    1.5597 C   0  0  0  0  0  0  0  0  0  0  0  0
    6.4414    2.8771    1.3836 N   0  0  0  0  0  0  0  0  0  0  0  0
    7.0177    2.2911    0.0836 C   0  0  0  0  0  0  0  0  0  0  0  0
    7.0897    3.2599   -1.1076 C   0  0  0  0  0  0  0  0  0  0  0  0
    6.2667    4.2459   -1.3529 N   0  0  0  0  0  0  0  0  0  0  0  0
    5.2730    4.4640   -0.3956 O   0  0  0  0  0  0  0  0  0  0  0  0
    8.0589    2.8607   -2.2665 C   0  0  0  0  0  0  0  0  0  0  0  0
    7.1504    2.0227   -3.1567 C   0  0  0  0  0  0  0  0  0  0  0  0
    8.6071    4.0499   -3.0601 C   0  0  0  0  0  0  0  0  0  0  0  0
    7.4918    2.9112    2.4336 C   0  0  0  0  0  0  0  0  0  0  0  0
    7.1025    2.8142    3.7401 C   0  0  0  0  0  0  0  0  0  0  0  0
    8.0437    3.0485    4.7014 C   0  0  0  0  0  0  0  0  0  0  0  0
    9.3377    3.4547    4.4600 C   0  0  0  0  0  0  0  0  0  0  0  0
    9.5593    4.3519    5.3108 N   0  0  0  0  0  0  0  0  0  0  0  0
   10.1488    3.8392    6.3457 C   0  0  0  0  0  0  0  0  0  0  0  0
   11.3783    3.4722    6.3061 C   0  0  0  0  0  0  0  0  0  0  0  0
   11.7046    3.9228    8.0134 C   0  0  0  0  0  0  0  0  0  0  0  0
   10.8545    4.0773    9.2949 C   0  0  0  0  0  0  0  0  0  0  0  0
   11.5430    4.3041   10.4448 N   0  0  0  0  0  0  0  0  0  0  0  0
   12.8410    4.2429   10.1093 N   0  0  0  0  0  0  0  0  0  0  0  0
   13.8907    4.4264   11.1550 C   0  0  0  0  0  0  0  0  0  0  0  0
   12.9319    3.9835    8.7018 C   0  0  0  0  0  0  0  0  0  0  0  0
   11.5725    3.4643    4.7527 N   0  0  0  0  0  0  0  0  0  0  0  0
   10.2878    3.3001    3.4800 C   0  0  0  0  0  0  0  0  0  0  0  0
    9.0333    3.1478    2.3071 C   0  0  0  0  0  0  0  0  0  0  0  0
    3.9258    3.8336    1.8786 C   0  0  0  0  0  0  0  0  0  0  0  0
    2.1185    7.2353    1.1423 H   0  0  0  0  0  0  0  0  0  0  0  0
    3.5944    6.2856    1.3369 H   0  0  0  0  0  0  0  0  0  0  0  0
    2.3017    6.2533    2.5838 H   0  0  0  0  0  0  0  0  0  0  0  0
    1.2042    2.7815   -0.0059 H   0  0  0  0  0  0  0  0  0  0  0  0
    0.8718   -0.7840   -0.6123 H   0  0  0  0  0  0  0  0  0  0  0  0
    0.5900    0.9283   -0.9060 H   0  0  0  0  0  0  0  0  0  0  0  0
    0.6688    0.2840    0.7727 H   0  0  0  0  0  0  0  0  0  0  0  0
    4.9872    0.7415    0.6974 H   0  0  0  0  0  0  0  0  0  0  0  0
    6.5175    1.4191   -0.3675 H   0  0  0  0  0  0  0  0  0  0  0  0
    8.0089    1.9006    0.3539 H   0  0  0  0  0  0  0  0  0  0  0  0
    5.6233    5.1561    0.2009 H   0  0  0  0  0  0  0  0  0  0  0  0
    8.9102    2.2480   -1.9333 H   0  0  0  0  0  0  0  0  0  0  0  0
    6.2690    2.6180   -3.4225 H   0  0  0  0  0  0  0  0  0  0  0  0
    6.7975    1.1441   -2.6068 H   0  0  0  0  0  0  0  0  0  0  0  0
    7.6410    1.6937   -4.0724 H   0  0  0  0  0  0  0  0  0  0  0  0
    7.7992    4.7271   -3.3500 H   0  0  0  0  0  0  0  0  0  0  0  0
    9.1064    3.7240   -3.9825 H   0  0  0  0  0  0  0  0  0  0  0  0
    9.3361    4.6266   -2.4806 H   0  0  0  0  0  0  0  0  0  0  0  0
    6.0944    2.8247    4.1290 H   0  0  0  0  0  0  0  0  0  0  0  0
    7.6871    3.1693    5.7569 H   0  0  0  0  0  0  0  0  0  0  0  0
    9.5300    3.7302    7.1783 H   0  0  0  0  0  0  0  0  0  0  0  0
    9.7846    4.0532    9.4859 H   0  0  0  0  0  0  0  0  0  0  0  0
   13.4825    4.7555   12.1331 H   0  0  0  0  0  0  0  0  0  0  0  0
   14.6225    5.1918   10.8616 H   0  0  0  0  0  0  0  0  0  0  0  0
   14.4241    3.4864   11.3551 H   0  0  0  0  0  0  0  0  0  0  0  0
   13.9416    3.8576    8.3566 H   0  0  0  0  0  0  0  0  0  0  0  0
    9.2214    3.2551    1.1979 H   0  0  0  0  0  0  0  0  0  0  0  0
    4.2305    4.7576    2.3948 H   0  0  0  0  0  0  0  0  0  0  0  0
  1  2  1  0  0  0  0
  1 35  1  0  0  0  0
  1 36  1  0  0  0  0
  1 37  1  0  0  0  0
  2  3  1  0  0  0  0
  3  4  1  0  0  0  0
  3 34  2  0  0  0  0
  4  5  2  0  0  0  0
  4 38  1  0  0  0  0
  5  6  1  0  0  0  0
  5  8  1  0  0  0  0
  6  7  1  0  0  0  0
  7 39  1  0  0  0  0
  7 40  1  0  0  0  0
  7 41  1  0  0  0  0
  8  9  2  0  0  0  0
  8 42  1  0  0  0  0
  9 10  1  0  0  0  0
  9 34  1  0  0  0  0
 10 11  1  0  0  0  0
 10 18  1  0  0  0  0
 11 12  1  0  0  0  0
 11 43  1  0  0  0  0
 11 44  1  0  0  0  0
 12 13  2  0  0  0  0
 12 15  1  0  0  0  0
 13 14  1  0  0  0  0
 14 45  1  0  0  0  0
 15 16  1  0  0  0  0
 15 17  1  0  0  0  0
 15 46  1  0  0  0  0
 16 47  1  0  0  0  0
 16 48  1  0  0  0  0
 16 49  1  0  0  0  0
 17 50  1  0  0  0  0
 17 51  1  0  0  0  0
 17 52  1  0  0  0  0
 18 19  1  0  0  0  0
 18 33  2  0  0  0  0
 19 20  2  0  0  0  0
 19 53  1  0  0  0  0
 20 21  1  0  0  0  0
 20 54  1  0  0  0  0
 21 22  1  0  0  0  0
 21 32  2  0  0  0  0
 22 23  2  0  0  0  0
 23 24  1  0  0  0  0
 23 55  1  0  0  0  0
 24 25  1  0  0  0  0
 24 31  2  0  0  0  0
 25 26  1  0  0  0  0
 25 30  2  0  0  0  0
 26 27  2  0  0  0  0
 26 56  1  0  0  0  0
 27 28  1  0  0  0  0
 28 29  1  0  0  0  0
 28 30  1  0  0  0  0
 29 57  1  0  0  0  0
 29 58  1  0  0  0  0
 29 59  1  0  0  0  0
 30 60  1  0  0  0  0
 31 32  1  0  0  0  0
 32 33  1  0  0  0  0
 33 61  1  0  0  0  0
 34 62  1  0  0  0  0
M  END
$$$$
