CHEMBL3702666
 OpenBabel04072215373D

 49 52  0  0  0  0  0  0  0  0999 V2000
    2.4823    0.0189   -0.0374 C   0  0  0  0  0  0  0  0  0  0  0  0
    0.9758   -0.0386    0.0276 C   0  0  0  0  0  0  0  0  0  0  0  0
    0.2680    1.1832    0.0643 C   0  0  0  0  0  0  0  0  0  0  0  0
   -1.1289    1.2168    0.0616 C   0  0  0  0  0  0  0  0  0  0  0  0
   -1.8317    0.0172    0.0426 C   0  0  0  0  0  0  0  0  0  0  0  0
   -3.3145   -0.0615    0.1023 C   0  0  0  0  0  0  0  0  0  0  0  0
   -3.7895   -1.0195    0.7108 O   0  0  0  0  0  0  0  0  0  0  0  0
   -4.0328    0.9014   -0.5930 N   0  0  0  0  0  0  0  0  0  0  0  0
   -5.4483    0.9335   -0.6932 C   0  0  0  0  0  0  0  0  0  0  0  0
   -6.2847    0.2068    0.1614 C   0  0  0  0  0  0  0  0  0  0  0  0
   -7.6691    0.2074   -0.0069 C   0  0  0  0  0  0  0  0  0  0  0  0
   -8.2436    0.9426   -1.0377 C   0  0  0  0  0  0  0  0  0  0  0  0
   -7.4355    1.6983   -1.8975 C   0  0  0  0  0  0  0  0  0  0  0  0
   -8.0540    2.4736   -3.0350 C   0  0  0  0  0  0  0  0  0  0  0  0
   -9.4033    2.3116   -3.1374 F   0  0  0  0  0  0  0  0  0  0  0  0
   -7.8473    3.8149   -2.9273 F   0  0  0  0  0  0  0  0  0  0  0  0
   -7.5452    2.1132   -4.2462 F   0  0  0  0  0  0  0  0  0  0  0  0
   -6.0365    1.7070   -1.7039 C   0  0  0  0  0  0  0  0  0  0  0  0
   -1.1317   -1.2010    0.0280 C   0  0  0  0  0  0  0  0  0  0  0  0
    0.2696   -1.2634    0.0051 C   0  0  0  0  0  0  0  0  0  0  0  0
    0.9405   -2.4876   -0.1049 N   0  0  0  0  0  0  0  0  0  0  0  0
    0.2561   -3.5949   -0.7996 C   0  0  0  0  0  0  0  0  0  0  0  0
    1.3181   -4.5130   -1.4007 C   0  0  0  0  0  0  0  0  0  0  0  0
    2.4231   -4.8204   -0.4238 C   0  0  0  0  0  0  0  0  0  0  0  0
    3.2745   -5.8119   -0.7715 N   0  0  0  0  0  0  0  0  0  0  0  0
    4.2969   -6.0357    0.0667 C   0  0  0  0  0  0  0  0  0  0  0  0
    4.5355   -5.3836    1.2139 N   0  0  0  0  0  0  0  0  0  0  0  0
    3.6617   -4.4053    1.5194 C   0  0  0  0  0  0  0  0  0  0  0  0
    2.5862   -4.0596    0.7268 C   0  0  0  0  0  0  0  0  0  0  0  0
    1.6334   -2.9617    1.1060 C   0  0  0  0  0  0  0  0  0  0  0  0
    2.8407    1.0501   -0.1322 H   0  0  0  0  0  0  0  0  0  0  0  0
    2.8522   -0.5357   -0.9054 H   0  0  0  0  0  0  0  0  0  0  0  0
    2.9341   -0.3787    0.8741 H   0  0  0  0  0  0  0  0  0  0  0  0
    0.8160    2.1240    0.0859 H   0  0  0  0  0  0  0  0  0  0  0  0
   -1.6389    2.1737    0.1083 H   0  0  0  0  0  0  0  0  0  0  0  0
   -3.5170    1.5170   -1.2093 H   0  0  0  0  0  0  0  0  0  0  0  0
   -5.8872   -0.3776    0.9850 H   0  0  0  0  0  0  0  0  0  0  0  0
   -8.2920   -0.3808    0.6625 H   0  0  0  0  0  0  0  0  0  0  0  0
   -9.3231    0.9140   -1.1703 H   0  0  0  0  0  0  0  0  0  0  0  0
   -5.4172    2.2947   -2.3775 H   0  0  0  0  0  0  0  0  0  0  0  0
   -1.7144   -2.1197    0.0380 H   0  0  0  0  0  0  0  0  0  0  0  0
   -0.3903   -3.2397   -1.6103 H   0  0  0  0  0  0  0  0  0  0  0  0
   -0.3744   -4.1544   -0.0914 H   0  0  0  0  0  0  0  0  0  0  0  0
    1.7683   -4.0190   -2.2708 H   0  0  0  0  0  0  0  0  0  0  0  0
    0.8536   -5.4433   -1.7464 H   0  0  0  0  0  0  0  0  0  0  0  0
    4.9984   -6.8138   -0.2136 H   0  0  0  0  0  0  0  0  0  0  0  0
    3.8701   -3.8851    2.4505 H   0  0  0  0  0  0  0  0  0  0  0  0
    2.1874   -2.1626    1.6032 H   0  0  0  0  0  0  0  0  0  0  0  0
    0.9058   -3.3511    1.8308 H   0  0  0  0  0  0  0  0  0  0  0  0
  1  2  1  0  0  0  0
  1 31  1  0  0  0  0
  1 32  1  0  0  0  0
  1 33  1  0  0  0  0
  2  3  1  0  0  0  0
  2 20  2  0  0  0  0
  3  4  2  0  0  0  0
  3 34  1  0  0  0  0
  4  5  1  0  0  0  0
  4 35  1  0  0  0  0
  5  6  1  0  0  0  0
  5 19  2  0  0  0  0
  6  7  2  0  0  0  0
  6  8  1  0  0  0  0
  8  9  1  0  0  0  0
  8 36  1  0  0  0  0
  9 10  1  0  0  0  0
  9 18  2  0  0  0  0
 10 11  2  0  0  0  0
 10 37  1  0  0  0  0
 11 12  1  0  0  0  0
 11 38  1  0  0  0  0
 12 13  2  0  0  0  0
 12 39  1  0  0  0  0
 13 14  1  0  0  0  0
 13 18  1  0  0  0  0
 14 15  1  0  0  0  0
 14 16  1  0  0  0  0
 14 17  1  0  0  0  0
 18 40  1  0  0  0  0
 19 20  1  0  0  0  0
 19 41  1  0  0  0  0
 20 21  1  0  0  0  0
 21 22  1  0  0  0  0
 21 30  1  0  0  0  0
 22 23  1  0  0  0  0
 22 42  1  0  0  0  0
 22 43  1  0  0  0  0
 23 24  1  0  0  0  0
 23 44  1  0  0  0  0
 23 45  1  0  0  0  0
 24 25  1  0  0  0  0
 24 29  2  0  0  0  0
 25 26  2  0  0  0  0
 26 27  1  0  0  0  0
 26 46  1  0  0  0  0
 27 28  2  0  0  0  0
 28 29  1  0  0  0  0
 28 47  1  0  0  0  0
 29 30  1  0  0  0  0
 30 48  1  0  0  0  0
 30 49  1  0  0  0  0
M  END
$$$$
