CHEMBL208229
 OpenBabel04072215363D

 53 57  0  0  0  0  0  0  0  0999 V2000
    1.4478    1.6063    1.3565 C   0  0  0  0  0  0  0  0  0  0  0  0
    0.6914    0.5247    1.7927 C   0  0  0  0  0  0  0  0  0  0  0  0
   -0.6782    0.4674    1.5128 C   0  0  0  0  0  0  0  0  0  0  0  0
   -1.3306    1.4960    0.8057 C   0  0  0  0  0  0  0  0  0  0  0  0
   -2.7858    1.4446    0.5217 C   0  0  0  0  0  0  0  0  0  0  0  0
   -3.6875    0.8336    1.4061 C   0  0  0  0  0  0  0  0  0  0  0  0
   -5.0642    0.7793    1.1395 C   0  0  0  0  0  0  0  0  0  0  0  0
   -5.6020    1.3311   -0.0244 C   0  0  0  0  0  0  0  0  0  0  0  0
   -6.9718    1.3451   -0.3399 N   0  0  0  0  0  0  0  0  0  0  0  0
   -8.0368    0.9761    0.3945 C   0  0  0  0  0  0  0  0  0  0  0  0
   -9.2636    0.7434   -0.0200 N   0  0  0  0  0  0  0  0  0  0  0  0
  -10.0139    0.4564    1.1001 N   0  0  0  0  0  0  0  0  0  0  0  0
   -9.1950    0.5136    2.1296 C   0  0  0  0  0  0  0  0  0  0  0  0
   -9.4166    0.2870    3.5540 C   0  0  0  0  0  0  0  0  0  0  0  0
   -8.4220    0.6750    4.4754 C   0  0  0  0  0  0  0  0  0  0  0  0
   -8.6210    0.5469    5.8456 C   0  0  0  0  0  0  0  0  0  0  0  0
   -9.8173    0.0185    6.2750 C   0  0  0  0  0  0  0  0  0  0  0  0
  -10.7885   -0.3957    5.4350 N   0  0  0  0  0  0  0  0  0  0  0  0
  -10.5927   -0.2667    4.0866 C   0  0  0  0  0  0  0  0  0  0  0  0
  -11.7917   -0.6973    3.2711 C   0  0  0  0  0  0  0  0  0  0  0  0
  -11.6361   -1.8966    2.3216 C   0  0  0  0  0  0  0  0  0  0  0  0
  -11.2020   -3.2349    2.8670 C   0  0  0  0  0  0  0  0  0  0  0  0
  -11.4586   -3.6637    4.1665 C   0  0  0  0  0  0  0  0  0  0  0  0
  -11.0945   -4.9563    4.5291 C   0  0  0  0  0  0  0  0  0  0  0  0
  -10.5004   -5.8391    3.6972 N   0  0  0  0  0  0  0  0  0  0  0  0
  -10.2638   -5.4093    2.4408 C   0  0  0  0  0  0  0  0  0  0  0  0
  -10.5935   -4.1416    1.9883 C   0  0  0  0  0  0  0  0  0  0  0  0
   -7.9249    0.8659    1.7510 O   0  0  0  0  0  0  0  0  0  0  0  0
   -4.7117    1.9696   -0.8979 C   0  0  0  0  0  0  0  0  0  0  0  0
   -3.3339    2.0112   -0.6395 C   0  0  0  0  0  0  0  0  0  0  0  0
   -0.5379    2.5804    0.3835 C   0  0  0  0  0  0  0  0  0  0  0  0
    0.8345    2.6332    0.6477 C   0  0  0  0  0  0  0  0  0  0  0  0
    2.5127    1.6499    1.5688 H   0  0  0  0  0  0  0  0  0  0  0  0
    1.1638   -0.2806    2.3492 H   0  0  0  0  0  0  0  0  0  0  0  0
   -1.2298   -0.4066    1.8524 H   0  0  0  0  0  0  0  0  0  0  0  0
   -3.3366    0.3898    2.3354 H   0  0  0  0  0  0  0  0  0  0  0  0
   -5.6885    0.2669    1.8638 H   0  0  0  0  0  0  0  0  0  0  0  0
   -7.1612    1.4745   -1.3273 H   0  0  0  0  0  0  0  0  0  0  0  0
   -7.4835    1.1075    4.1324 H   0  0  0  0  0  0  0  0  0  0  0  0
   -7.8661    0.8673    6.5557 H   0  0  0  0  0  0  0  0  0  0  0  0
  -10.0403   -0.0849    7.3329 H   0  0  0  0  0  0  0  0  0  0  0  0
  -12.1414    0.1710    2.6980 H   0  0  0  0  0  0  0  0  0  0  0  0
  -12.6149   -0.9183    3.9647 H   0  0  0  0  0  0  0  0  0  0  0  0
  -10.9510   -1.6391    1.5141 H   0  0  0  0  0  0  0  0  0  0  0  0
  -12.6128   -2.0568    1.8428 H   0  0  0  0  0  0  0  0  0  0  0  0
  -11.9446   -3.0264    4.8996 H   0  0  0  0  0  0  0  0  0  0  0  0
  -11.2849   -5.3278    5.5305 H   0  0  0  0  0  0  0  0  0  0  0  0
   -9.7981   -6.1330    1.7798 H   0  0  0  0  0  0  0  0  0  0  0  0
  -10.3890   -3.8761    0.9566 H   0  0  0  0  0  0  0  0  0  0  0  0
   -5.0787    2.4491   -1.8032 H   0  0  0  0  0  0  0  0  0  0  0  0
   -2.6936    2.4933   -1.3751 H   0  0  0  0  0  0  0  0  0  0  0  0
   -0.9841    3.4153   -0.1518 H   0  0  0  0  0  0  0  0  0  0  0  0
    1.4190    3.4817    0.3020 H   0  0  0  0  0  0  0  0  0  0  0  0
  1  2  1  0  0  0  0
  1 32  2  0  0  0  0
  1 33  1  0  0  0  0
  2  3  2  0  0  0  0
  2 34  1  0  0  0  0
  3  4  1  0  0  0  0
  3 35  1  0  0  0  0
  4  5  1  0  0  0  0
  4 31  2  0  0  0  0
  5  6  1  0  0  0  0
  5 30  2  0  0  0  0
  6  7  2  0  0  0  0
  6 36  1  0  0  0  0
  7  8  1  0  0  0  0
  7 37  1  0  0  0  0
  8  9  1  0  0  0  0
  8 29  2  0  0  0  0
  9 10  1  0  0  0  0
  9 38  1  0  0  0  0
 10 11  2  0  0  0  0
 10 28  1  0  0  0  0
 11 12  1  0  0  0  0
 12 13  2  0  0  0  0
 13 14  1  0  0  0  0
 13 28  1  0  0  0  0
 14 15  1  0  0  0  0
 14 19  2  0  0  0  0
 15 16  2  0  0  0  0
 15 39  1  0  0  0  0
 16 17  1  0  0  0  0
 16 40  1  0  0  0  0
 17 18  2  0  0  0  0
 17 41  1  0  0  0  0
 18 19  1  0  0  0  0
 19 20  1  0  0  0  0
 20 21  1  0  0  0  0
 20 42  1  0  0  0  0
 20 43  1  0  0  0  0
 21 22  1  0  0  0  0
 21 44  1  0  0  0  0
 21 45  1  0  0  0  0
 22 23  1  0  0  0  0
 22 27  2  0  0  0  0
 23 24  2  0  0  0  0
 23 46  1  0  0  0  0
 24 25  1  0  0  0  0
 24 47  1  0  0  0  0
 25 26  2  0  0  0  0
 26 27  1  0  0  0  0
 26 48  1  0  0  0  0
 27 49  1  0  0  0  0
 29 30  1  0  0  0  0
 29 50  1  0  0  0  0
 30 51  1  0  0  0  0
 31 32  1  0  0  0  0
 31 52  1  0  0  0  0
 32 53  1  0  0  0  0
M  END
$$$$
