CHEMBL3904228
 OpenBabel04072215373D

 69 74  0  0  0  0  0  0  0  0999 V2000
    2.0025    0.1265   -1.2299 C   0  0  0  0  0  0  0  0  0  0  0  0
    1.6078    0.7427   -2.4946 N   0  0  0  0  0  0  0  0  0  0  0  0
    0.1891    1.0167   -2.6869 C   0  0  0  0  0  0  0  0  0  0  0  0
    2.4702    0.7165   -3.5884 C   0  0  0  0  0  0  0  0  0  0  0  0
    2.1250    1.2676   -4.8352 C   0  0  0  0  0  0  0  0  0  0  0  0
    2.9949    1.2398   -5.9376 C   0  0  0  0  0  0  0  0  0  0  0  0
    4.2535    0.6584   -5.8255 C   0  0  0  0  0  0  0  0  0  0  0  0
    4.6301    0.1143   -4.6008 C   0  0  0  0  0  0  0  0  0  0  0  0
    5.9249   -0.5830   -4.4011 C   0  0  0  0  0  0  0  0  0  0  0  0
    5.9268   -1.5640   -3.6725 O   0  0  0  0  0  0  0  0  0  0  0  0
    7.0250    0.0219   -4.9945 N   0  0  0  0  0  0  0  0  0  0  0  0
    8.3623   -0.4089   -4.8436 C   0  0  0  0  0  0  0  0  0  0  0  0
    8.7215   -1.6179   -4.2523 C   0  0  0  0  0  0  0  0  0  0  0  0
   10.0633   -1.9422   -4.0595 C   0  0  0  0  0  0  0  0  0  0  0  0
   11.0468   -1.0646   -4.4848 C   0  0  0  0  0  0  0  0  0  0  0  0
   10.7331    0.1358   -5.1396 C   0  0  0  0  0  0  0  0  0  0  0  0
   11.7639    0.9762   -5.6040 N   0  0  0  0  0  0  0  0  0  0  0  0
   11.5274    2.4268   -5.5984 C   0  0  0  0  0  0  0  0  0  0  0  0
   12.9613    0.5561   -6.2477 C   0  0  0  0  0  0  0  0  0  0  0  0
   13.0876   -0.6968   -6.8891 C   0  0  0  0  0  0  0  0  0  0  0  0
   14.2940   -1.1341   -7.4837 C   0  0  0  0  0  0  0  0  0  0  0  0
   15.3451   -0.1937   -7.6044 C   0  0  0  0  0  0  0  0  0  0  0  0
   16.7185   -0.1028   -7.9880 C   0  0  0  0  0  0  0  0  0  0  0  0
   17.7643   -1.0805   -7.9147 C   0  0  0  0  0  0  0  0  0  0  0  0
   18.9389   -0.8532   -8.5303 C   0  0  0  0  0  0  0  0  0  0  0  0
   20.1932   -1.5961   -8.4333 C   0  0  0  0  0  0  0  0  0  0  0  0
   20.2321   -2.9341   -8.0020 C   0  0  0  0  0  0  0  0  0  0  0  0
   21.3852   -3.6998   -8.1582 C   0  0  0  0  0  0  0  0  0  0  0  0
   22.4833   -3.1003   -8.7471 C   0  0  0  0  0  0  0  0  0  0  0  0
   22.4713   -1.7743   -9.1088 C   0  0  0  0  0  0  0  0  0  0  0  0
   21.3551   -0.9918   -8.9481 C   0  0  0  0  0  0  0  0  0  0  0  0
   23.6414   -1.3894   -9.6878 O   0  0  0  0  0  0  0  0  0  0  0  0
   24.3585   -2.6412   -9.7078 C   0  0  0  0  0  0  0  0  0  0  0  0
   23.6499   -3.7208   -9.0645 O   0  0  0  0  0  0  0  0  0  0  0  0
   17.0451    1.1649   -8.2607 N   0  0  0  0  0  0  0  0  0  0  0  0
   16.1209    1.8533   -7.6031 N   0  0  0  0  0  0  0  0  0  0  0  0
   15.1157    1.0803   -7.1190 C   0  0  0  0  0  0  0  0  0  0  0  0
   14.0472    1.4293   -6.3131 C   0  0  0  0  0  0  0  0  0  0  0  0
    9.3718    0.4515   -5.3137 C   0  0  0  0  0  0  0  0  0  0  0  0
    3.7492    0.1499   -3.5068 C   0  0  0  0  0  0  0  0  0  0  0  0
    1.2184    0.2174   -0.4706 H   0  0  0  0  0  0  0  0  0  0  0  0
    2.8882    0.6254   -0.8197 H   0  0  0  0  0  0  0  0  0  0  0  0
    2.2108   -0.9421   -1.3542 H   0  0  0  0  0  0  0  0  0  0  0  0
   -0.3825    0.8681   -1.7642 H   0  0  0  0  0  0  0  0  0  0  0  0
   -0.2445    0.3533   -3.4435 H   0  0  0  0  0  0  0  0  0  0  0  0
    0.0369    2.0593   -2.9850 H   0  0  0  0  0  0  0  0  0  0  0  0
    1.1560    1.7373   -4.9809 H   0  0  0  0  0  0  0  0  0  0  0  0
    2.6712    1.6631   -6.8856 H   0  0  0  0  0  0  0  0  0  0  0  0
    4.9015    0.6026   -6.6945 H   0  0  0  0  0  0  0  0  0  0  0  0
    6.8852    0.9113   -5.4383 H   0  0  0  0  0  0  0  0  0  0  0  0
    7.9812   -2.3413   -3.9258 H   0  0  0  0  0  0  0  0  0  0  0  0
   10.3294   -2.8794   -3.5816 H   0  0  0  0  0  0  0  0  0  0  0  0
   12.0937   -1.3179   -4.2943 H   0  0  0  0  0  0  0  0  0  0  0  0
   10.5910    2.7246   -5.1176 H   0  0  0  0  0  0  0  0  0  0  0  0
   11.5182    2.8104   -6.6252 H   0  0  0  0  0  0  0  0  0  0  0  0
   12.2978    2.9570   -5.0288 H   0  0  0  0  0  0  0  0  0  0  0  0
   12.2184   -1.3518   -6.9497 H   0  0  0  0  0  0  0  0  0  0  0  0
   14.3472   -2.1154   -7.9398 H   0  0  0  0  0  0  0  0  0  0  0  0
   17.6515   -1.8659   -7.1777 H   0  0  0  0  0  0  0  0  0  0  0  0
   18.9948    0.0002   -9.2091 H   0  0  0  0  0  0  0  0  0  0  0  0
   19.3466   -3.4041   -7.5830 H   0  0  0  0  0  0  0  0  0  0  0  0
   21.4049   -4.7444   -7.8818 H   0  0  0  0  0  0  0  0  0  0  0  0
   21.3695    0.0469   -9.2667 H   0  0  0  0  0  0  0  0  0  0  0  0
   25.3156   -2.5036   -9.1958 H   0  0  0  0  0  0  0  0  0  0  0  0
   24.5509   -2.9178  -10.7516 H   0  0  0  0  0  0  0  0  0  0  0  0
   16.2206    2.8612   -7.5376 H   0  0  0  0  0  0  0  0  0  0  0  0
   14.0780    2.3754   -5.7949 H   0  0  0  0  0  0  0  0  0  0  0  0
    9.0904    1.3567   -5.8284 H   0  0  0  0  0  0  0  0  0  0  0  0
    4.0936   -0.3024   -2.5796 H   0  0  0  0  0  0  0  0  0  0  0  0
  1  2  1  0  0  0  0
  1 41  1  0  0  0  0
  1 42  1  0  0  0  0
  1 43  1  0  0  0  0
  2  3  1  0  0  0  0
  2  4  1  0  0  0  0
  3 44  1  0  0  0  0
  3 45  1  0  0  0  0
  3 46  1  0  0  0  0
  4  5  1  0  0  0  0
  4 40  2  0  0  0  0
  5  6  2  0  0  0  0
  5 47  1  0  0  0  0
  6  7  1  0  0  0  0
  6 48  1  0  0  0  0
  7  8  2  0  0  0  0
  7 49  1  0  0  0  0
  8  9  1  0  0  0  0
  8 40  1  0  0  0  0
  9 10  2  0  0  0  0
  9 11  1  0  0  0  0
 11 12  1  0  0  0  0
 11 50  1  0  0  0  0
 12 13  1  0  0  0  0
 12 39  2  0  0  0  0
 13 14  2  0  0  0  0
 13 51  1  0  0  0  0
 14 15  1  0  0  0  0
 14 52  1  0  0  0  0
 15 16  2  0  0  0  0
 15 53  1  0  0  0  0
 16 17  1  0  0  0  0
 16 39  1  0  0  0  0
 17 18  1  0  0  0  0
 17 19  1  0  0  0  0
 18 54  1  0  0  0  0
 18 55  1  0  0  0  0
 18 56  1  0  0  0  0
 19 20  1  0  0  0  0
 19 38  2  0  0  0  0
 20 21  2  0  0  0  0
 20 57  1  0  0  0  0
 21 22  1  0  0  0  0
 21 58  1  0  0  0  0
 22 23  1  0  0  0  0
 22 37  2  0  0  0  0
 23 24  1  0  0  0  0
 23 35  2  0  0  0  0
 24 25  2  0  0  0  0
 24 59  1  0  0  0  0
 25 26  1  0  0  0  0
 25 60  1  0  0  0  0
 26 27  1  0  0  0  0
 26 31  2  0  0  0  0
 27 28  2  0  0  0  0
 27 61  1  0  0  0  0
 28 29  1  0  0  0  0
 28 62  1  0  0  0  0
 29 30  2  0  0  0  0
 29 34  1  0  0  0  0
 30 31  1  0  0  0  0
 30 32  1  0  0  0  0
 31 63  1  0  0  0  0
 32 33  1  0  0  0  0
 33 34  1  0  0  0  0
 33 64  1  0  0  0  0
 33 65  1  0  0  0  0
 35 36  1  0  0  0  0
 36 37  1  0  0  0  0
 36 66  1  0  0  0  0
 37 38  1  0  0  0  0
 38 67  1  0  0  0  0
 39 68  1  0  0  0  0
 40 69  1  0  0  0  0
M  END
$$$$
