CHEMBL3753656
 OpenBabel04072215373D

 60 64  0  0  0  0  0  0  0  0999 V2000
   -8.6522    1.0959   -7.8262 C   0  0  0  0  0  0  0  0  0  0  0  0
   -8.1918    1.1135   -6.3980 C   0  0  0  0  0  0  0  0  0  0  0  0
   -6.8809    0.7672   -6.0734 C   0  0  0  0  0  0  0  0  0  0  0  0
   -6.4370    0.8032   -4.7469 C   0  0  0  0  0  0  0  0  0  0  0  0
   -7.2914    1.1900   -3.7159 C   0  0  0  0  0  0  0  0  0  0  0  0
   -6.8876    1.2843   -2.3652 N   0  0  0  0  0  0  0  0  0  0  0  0
   -5.6192    1.0782   -1.8428 C   0  0  0  0  0  0  0  0  0  0  0  0
   -4.6287    0.6916   -2.4596 O   0  0  0  0  0  0  0  0  0  0  0  0
   -5.5252    1.3248   -0.3229 C   0  0  0  0  0  0  0  0  0  0  0  0
   -6.5288    2.3005    0.1415 N   0  0  0  0  0  0  0  0  0  0  0  0
   -6.2658    3.6834   -0.3390 C   0  0  0  0  0  0  0  0  0  0  0  0
   -5.8493    4.7948    0.6708 C   0  0  0  0  0  0  0  0  0  0  0  0
   -6.4665    4.5662    1.9700 N   0  0  0  0  0  0  0  0  0  0  0  0
   -7.3118    5.3945    2.6804 C   0  0  0  0  0  0  0  0  0  0  0  0
   -7.1996    5.3462    4.0266 N   0  0  0  0  0  0  0  0  0  0  0  0
   -7.9801    6.1175    4.8642 N   0  0  0  0  0  0  0  0  0  0  0  0
   -8.8684    7.0008    4.3659 C   0  0  0  0  0  0  0  0  0  0  0  0
   -9.6820    7.6926    5.4085 C   0  0  0  0  0  0  0  0  0  0  0  0
   -9.1280    8.0190    6.6622 C   0  0  0  0  0  0  0  0  0  0  0  0
   -9.8665    8.6996    7.6402 C   0  0  0  0  0  0  0  0  0  0  0  0
  -11.1779    9.0863    7.3843 C   0  0  0  0  0  0  0  0  0  0  0  0
  -11.7691    8.7395    6.1767 C   0  0  0  0  0  0  0  0  0  0  0  0
  -11.0416    8.0167    5.2247 C   0  0  0  0  0  0  0  0  0  0  0  0
   -9.0027    7.1529    2.9664 C   0  0  0  0  0  0  0  0  0  0  0  0
   -9.8373    8.1280    2.3541 C   0  0  0  0  0  0  0  0  0  0  0  0
  -10.0952    8.1512    0.9863 C   0  0  0  0  0  0  0  0  0  0  0  0
   -9.5014    7.2087    0.1774 C   0  0  0  0  0  0  0  0  0  0  0  0
   -8.6085    6.2987    0.7368 C   0  0  0  0  0  0  0  0  0  0  0  0
   -8.2726    6.2728    2.1140 C   0  0  0  0  0  0  0  0  0  0  0  0
   -6.1358    3.2515    2.5161 C   0  0  0  0  0  0  0  0  0  0  0  0
   -6.7884    2.1956    1.5977 C   0  0  0  0  0  0  0  0  0  0  0  0
   -8.6149    1.5193   -4.0382 C   0  0  0  0  0  0  0  0  0  0  0  0
   -9.0619    1.4823   -5.3679 C   0  0  0  0  0  0  0  0  0  0  0  0
   -7.8455    0.7864   -8.5010 H   0  0  0  0  0  0  0  0  0  0  0  0
   -8.9727    2.0967   -8.1323 H   0  0  0  0  0  0  0  0  0  0  0  0
   -9.4809    0.3929   -7.9544 H   0  0  0  0  0  0  0  0  0  0  0  0
   -6.1756    0.4659   -6.8494 H   0  0  0  0  0  0  0  0  0  0  0  0
   -5.4059    0.5251   -4.5576 H   0  0  0  0  0  0  0  0  0  0  0  0
   -7.5698    1.6067   -1.6854 H   0  0  0  0  0  0  0  0  0  0  0  0
   -4.5099    1.6498   -0.0701 H   0  0  0  0  0  0  0  0  0  0  0  0
   -5.7013    0.3435    0.1352 H   0  0  0  0  0  0  0  0  0  0  0  0
   -7.1999    3.9931   -0.8178 H   0  0  0  0  0  0  0  0  0  0  0  0
   -5.5309    3.6892   -1.1548 H   0  0  0  0  0  0  0  0  0  0  0  0
   -6.0473    5.7911    0.2628 H   0  0  0  0  0  0  0  0  0  0  0  0
   -4.7592    4.7520    0.7977 H   0  0  0  0  0  0  0  0  0  0  0  0
   -8.1015    7.7362    6.8943 H   0  0  0  0  0  0  0  0  0  0  0  0
   -9.4119    8.9294    8.6007 H   0  0  0  0  0  0  0  0  0  0  0  0
  -11.7435    9.6385    8.1301 H   0  0  0  0  0  0  0  0  0  0  0  0
  -12.7993    9.0205    5.9722 H   0  0  0  0  0  0  0  0  0  0  0  0
  -11.5690    7.7075    4.3250 H   0  0  0  0  0  0  0  0  0  0  0  0
  -10.3141    8.9031    2.9491 H   0  0  0  0  0  0  0  0  0  0  0  0
  -10.7752    8.8878    0.5683 H   0  0  0  0  0  0  0  0  0  0  0  0
   -9.7167    7.1776   -0.8873 H   0  0  0  0  0  0  0  0  0  0  0  0
   -8.1987    5.5627    0.0618 H   0  0  0  0  0  0  0  0  0  0  0  0
   -6.4818    3.0987    3.5443 H   0  0  0  0  0  0  0  0  0  0  0  0
   -5.0458    3.1177    2.5276 H   0  0  0  0  0  0  0  0  0  0  0  0
   -7.8752    2.2863    1.7188 H   0  0  0  0  0  0  0  0  0  0  0  0
   -6.5363    1.1975    1.9764 H   0  0  0  0  0  0  0  0  0  0  0  0
   -9.3186    1.8129   -3.2643 H   0  0  0  0  0  0  0  0  0  0  0  0
  -10.0941    1.7474   -5.5939 H   0  0  0  0  0  0  0  0  0  0  0  0
  1  2  1  0  0  0  0
  1 34  1  0  0  0  0
  1 35  1  0  0  0  0
  1 36  1  0  0  0  0
  2  3  1  0  0  0  0
  2 33  2  0  0  0  0
  3  4  2  0  0  0  0
  3 37  1  0  0  0  0
  4  5  1  0  0  0  0
  4 38  1  0  0  0  0
  5  6  1  0  0  0  0
  5 32  2  0  0  0  0
  6  7  1  0  0  0  0
  6 39  1  0  0  0  0
  7  8  2  0  0  0  0
  7  9  1  0  0  0  0
  9 10  1  0  0  0  0
  9 40  1  0  0  0  0
  9 41  1  0  0  0  0
 10 11  1  0  0  0  0
 10 31  1  0  0  0  0
 11 12  1  0  0  0  0
 11 42  1  0  0  0  0
 11 43  1  0  0  0  0
 12 13  1  0  0  0  0
 12 44  1  0  0  0  0
 12 45  1  0  0  0  0
 13 14  1  0  0  0  0
 13 30  1  0  0  0  0
 14 15  1  0  0  0  0
 14 29  2  0  0  0  0
 15 16  2  0  0  0  0
 16 17  1  0  0  0  0
 17 18  1  0  0  0  0
 17 24  2  0  0  0  0
 18 19  1  0  0  0  0
 18 23  2  0  0  0  0
 19 20  2  0  0  0  0
 19 46  1  0  0  0  0
 20 21  1  0  0  0  0
 20 47  1  0  0  0  0
 21 22  2  0  0  0  0
 21 48  1  0  0  0  0
 22 23  1  0  0  0  0
 22 49  1  0  0  0  0
 23 50  1  0  0  0  0
 24 25  1  0  0  0  0
 24 29  1  0  0  0  0
 25 26  2  0  0  0  0
 25 51  1  0  0  0  0
 26 27  1  0  0  0  0
 26 52  1  0  0  0  0
 27 28  2  0  0  0  0
 27 53  1  0  0  0  0
 28 29  1  0  0  0  0
 28 54  1  0  0  0  0
 30 31  1  0  0  0  0
 30 55  1  0  0  0  0
 30 56  1  0  0  0  0
 31 57  1  0  0  0  0
 31 58  1  0  0  0  0
 32 33  1  0  0  0  0
 32 59  1  0  0  0  0
 33 60  1  0  0  0  0
M  END
$$$$
