CHEMBL4238771
 OpenBabel04072215383D

 32 34  0  0  0  0  0  0  0  0999 V2000
   -2.1356    0.6317    0.9806 Cl  0  0  0  0  0  0  0  0  0  0  0  0
   -0.4185    0.6516    1.0801 C   0  0  0  0  0  0  0  0  0  0  0  0
    0.3264    1.3405    0.1261 C   0  0  0  0  0  0  0  0  0  0  0  0
    1.7264    1.3667    0.2103 C   0  0  0  0  0  0  0  0  0  0  0  0
    2.3883    0.7064    1.2503 C   0  0  0  0  0  0  0  0  0  0  0  0
    4.1574    0.6794    1.5077 S   0  0  0  0  0  0  0  0  0  0  0  0
    4.8384    1.6253    0.0962 C   0  0  0  0  0  0  0  0  0  0  0  0
    6.3327    1.6765    0.1417 C   0  0  0  0  0  0  0  0  0  0  0  0
    7.1057    0.5890    0.0112 N   0  0  0  0  0  0  0  0  0  0  0  0
    8.3329    1.1188    0.1047 N   0  0  0  0  0  0  0  0  0  0  0  0
    8.3002    2.4857    0.1869 C   0  0  0  0  0  0  0  0  0  0  0  0
    9.4918    3.3328    0.2140 C   0  0  0  0  0  0  0  0  0  0  0  0
   10.6881    2.9318   -0.4034 C   0  0  0  0  0  0  0  0  0  0  0  0
   11.8213    3.7510   -0.3688 C   0  0  0  0  0  0  0  0  0  0  0  0
   11.7665    4.9796    0.2848 C   0  0  0  0  0  0  0  0  0  0  0  0
   13.1641    5.9826    0.3286 Cl  0  0  0  0  0  0  0  0  0  0  0  0
   10.5890    5.3988    0.8947 C   0  0  0  0  0  0  0  0  0  0  0  0
    9.4530    4.5804    0.8539 C   0  0  0  0  0  0  0  0  0  0  0  0
    7.0346    2.8581    0.2481 N   0  0  0  0  0  0  0  0  0  0  0  0
    1.6184    0.0098    2.1960 C   0  0  0  0  0  0  0  0  0  0  0  0
    0.2227   -0.0185    2.1153 C   0  0  0  0  0  0  0  0  0  0  0  0
   -0.1746    1.8635   -0.6847 H   0  0  0  0  0  0  0  0  0  0  0  0
    2.2653    1.9175   -0.5527 H   0  0  0  0  0  0  0  0  0  0  0  0
    4.4405    2.6448    0.1259 H   0  0  0  0  0  0  0  0  0  0  0  0
    4.5281    1.1568   -0.8439 H   0  0  0  0  0  0  0  0  0  0  0  0
    9.1383    0.5052    0.1009 H   0  0  0  0  0  0  0  0  0  0  0  0
   10.7549    1.9901   -0.9433 H   0  0  0  0  0  0  0  0  0  0  0  0
   12.7366    3.4280   -0.8583 H   0  0  0  0  0  0  0  0  0  0  0  0
   10.5424    6.3600    1.4012 H   0  0  0  0  0  0  0  0  0  0  0  0
    8.5347    4.9199    1.3304 H   0  0  0  0  0  0  0  0  0  0  0  0
    2.1033   -0.5191    3.0153 H   0  0  0  0  0  0  0  0  0  0  0  0
   -0.3491   -0.5605    2.8636 H   0  0  0  0  0  0  0  0  0  0  0  0
  1  2  1  0  0  0  0
  2  3  1  0  0  0  0
  2 21  2  0  0  0  0
  3  4  2  0  0  0  0
  3 22  1  0  0  0  0
  4  5  1  0  0  0  0
  4 23  1  0  0  0  0
  5  6  1  0  0  0  0
  5 20  2  0  0  0  0
  6  7  1  0  0  0  0
  7  8  1  0  0  0  0
  7 24  1  0  0  0  0
  7 25  1  0  0  0  0
  8  9  2  0  0  0  0
  8 19  1  0  0  0  0
  9 10  1  0  0  0  0
 10 11  1  0  0  0  0
 10 26  1  0  0  0  0
 11 12  1  0  0  0  0
 11 19  2  0  0  0  0
 12 13  1  0  0  0  0
 12 18  2  0  0  0  0
 13 14  2  0  0  0  0
 13 27  1  0  0  0  0
 14 15  1  0  0  0  0
 14 28  1  0  0  0  0
 15 16  1  0  0  0  0
 15 17  2  0  0  0  0
 17 18  1  0  0  0  0
 17 29  1  0  0  0  0
 18 30  1  0  0  0  0
 20 21  1  0  0  0  0
 20 31  1  0  0  0  0
 21 32  1  0  0  0  0
M  END
$$$$
