CHEMBL3656092
 OpenBabel04072215373D

 59 62  0  0  0  0  0  0  0  0999 V2000
    2.7828   -6.3218   -0.5242 C   0  0  0  0  0  0  0  0  0  0  0  0
    1.3129   -6.5989   -0.6419 C   0  0  0  0  0  0  0  0  0  0  0  0
    0.8807   -7.8799   -1.0022 C   0  0  0  0  0  0  0  0  0  0  0  0
   -0.4756   -8.1508   -1.1176 C   0  0  0  0  0  0  0  0  0  0  0  0
   -1.4125   -7.1474   -0.8703 C   0  0  0  0  0  0  0  0  0  0  0  0
   -1.0175   -5.8592   -0.4993 C   0  0  0  0  0  0  0  0  0  0  0  0
   -1.9400   -4.8137   -0.2535 N   0  0  0  0  0  0  0  0  0  0  0  0
   -3.3234   -4.9525   -0.2026 C   0  0  0  0  0  0  0  0  0  0  0  0
   -3.9292   -6.0162   -0.2558 O   0  0  0  0  0  0  0  0  0  0  0  0
   -3.9761   -3.7315   -0.1184 N   0  0  0  0  0  0  0  0  0  0  0  0
   -5.3970   -3.6690   -0.0555 C   0  0  0  0  0  0  0  0  0  0  0  0
   -6.1502   -4.5427    0.7339 C   0  0  0  0  0  0  0  0  0  0  0  0
   -7.5498   -4.4827    0.7186 C   0  0  0  0  0  0  0  0  0  0  0  0
   -8.2102   -3.5540   -0.0910 C   0  0  0  0  0  0  0  0  0  0  0  0
   -9.5870   -3.5681   -0.0188 O   0  0  0  0  0  0  0  0  0  0  0  0
  -10.3465   -3.2232   -1.1143 C   0  0  0  0  0  0  0  0  0  0  0  0
   -9.9959   -3.5185   -2.4283 C   0  0  0  0  0  0  0  0  0  0  0  0
  -10.8481   -3.1051   -3.4348 C   0  0  0  0  0  0  0  0  0  0  0  0
  -12.0203   -2.4737   -3.2147 N   0  0  0  0  0  0  0  0  0  0  0  0
  -12.3750   -2.2529   -1.9230 C   0  0  0  0  0  0  0  0  0  0  0  0
  -13.6758   -1.6027   -1.7816 C   0  0  0  0  0  0  0  0  0  0  0  0
  -14.4365   -1.2120   -0.6913 C   0  0  0  0  0  0  0  0  0  0  0  0
  -15.6527   -0.6127   -1.1595 C   0  0  0  0  0  0  0  0  0  0  0  0
  -16.7304   -0.0613   -0.3368 C   0  0  0  0  0  0  0  0  0  0  0  0
  -16.6891   -0.0511    0.8901 O   0  0  0  0  0  0  0  0  0  0  0  0
  -17.7961    0.4471   -1.0357 N   0  0  0  0  0  0  0  0  0  0  0  0
  -18.9400    1.0420   -0.3802 C   0  0  0  0  0  0  0  0  0  0  0  0
  -19.9356    1.5182   -1.4304 C   0  0  0  0  0  0  0  0  0  0  0  0
  -19.7667    1.4014   -2.6368 O   0  0  0  0  0  0  0  0  0  0  0  0
  -21.0430    2.0917   -0.9069 O   0  0  0  0  0  0  0  0  0  0  0  0
  -15.5858   -0.6654   -2.5424 C   0  0  0  0  0  0  0  0  0  0  0  0
  -14.4047   -1.2558   -2.8973 N   0  0  0  0  0  0  0  0  0  0  0  0
  -11.5739   -2.6125   -0.8494 C   0  0  0  0  0  0  0  0  0  0  0  0
   -7.4627   -2.6435   -0.8407 C   0  0  0  0  0  0  0  0  0  0  0  0
   -6.0690   -2.7118   -0.8196 C   0  0  0  0  0  0  0  0  0  0  0  0
   -5.3654   -1.8784   -1.6019 F   0  0  0  0  0  0  0  0  0  0  0  0
    0.3573   -5.5927   -0.3884 C   0  0  0  0  0  0  0  0  0  0  0  0
    3.3747   -7.2121   -0.7798 H   0  0  0  0  0  0  0  0  0  0  0  0
    3.0388   -6.0414    0.5011 H   0  0  0  0  0  0  0  0  0  0  0  0
    3.0786   -5.5254   -1.2119 H   0  0  0  0  0  0  0  0  0  0  0  0
    1.5959   -8.6731   -1.2035 H   0  0  0  0  0  0  0  0  0  0  0  0
   -0.8161   -9.1428   -1.4006 H   0  0  0  0  0  0  0  0  0  0  0  0
   -2.4549   -7.4203   -0.9879 H   0  0  0  0  0  0  0  0  0  0  0  0
   -1.5667   -3.9196    0.0316 H   0  0  0  0  0  0  0  0  0  0  0  0
   -3.5372   -2.9739   -0.6260 H   0  0  0  0  0  0  0  0  0  0  0  0
   -5.6627   -5.2821    1.3666 H   0  0  0  0  0  0  0  0  0  0  0  0
   -8.1215   -5.1730    1.3353 H   0  0  0  0  0  0  0  0  0  0  0  0
   -9.0847   -4.0490   -2.6774 H   0  0  0  0  0  0  0  0  0  0  0  0
  -10.6030   -3.2773   -4.4791 H   0  0  0  0  0  0  0  0  0  0  0  0
  -14.1665   -1.3357    0.3504 H   0  0  0  0  0  0  0  0  0  0  0  0
  -17.8043    0.4220   -2.0494 H   0  0  0  0  0  0  0  0  0  0  0  0
  -18.5967    1.8936    0.2151 H   0  0  0  0  0  0  0  0  0  0  0  0
  -19.4072    0.2896    0.2595 H   0  0  0  0  0  0  0  0  0  0  0  0
  -21.0567    2.1234    0.0698 H   0  0  0  0  0  0  0  0  0  0  0  0
  -16.2685   -0.3379   -3.3144 H   0  0  0  0  0  0  0  0  0  0  0  0
  -14.0781   -1.4333   -3.8400 H   0  0  0  0  0  0  0  0  0  0  0  0
  -11.8852   -2.4270    0.1718 H   0  0  0  0  0  0  0  0  0  0  0  0
   -7.9364   -1.8872   -1.4573 H   0  0  0  0  0  0  0  0  0  0  0  0
    0.7044   -4.6019   -0.1074 H   0  0  0  0  0  0  0  0  0  0  0  0
  1  2  1  0  0  0  0
  1 38  1  0  0  0  0
  1 39  1  0  0  0  0
  1 40  1  0  0  0  0
  2  3  1  0  0  0  0
  2 37  2  0  0  0  0
  3  4  2  0  0  0  0
  3 41  1  0  0  0  0
  4  5  1  0  0  0  0
  4 42  1  0  0  0  0
  5  6  2  0  0  0  0
  5 43  1  0  0  0  0
  6  7  1  0  0  0  0
  6 37  1  0  0  0  0
  7  8  1  0  0  0  0
  7 44  1  0  0  0  0
  8  9  2  0  0  0  0
  8 10  1  0  0  0  0
 10 11  1  0  0  0  0
 10 45  1  0  0  0  0
 11 12  1  0  0  0  0
 11 35  2  0  0  0  0
 12 13  2  0  0  0  0
 12 46  1  0  0  0  0
 13 14  1  0  0  0  0
 13 47  1  0  0  0  0
 14 15  1  0  0  0  0
 14 34  2  0  0  0  0
 15 16  1  0  0  0  0
 16 17  1  0  0  0  0
 16 33  2  0  0  0  0
 17 18  2  0  0  0  0
 17 48  1  0  0  0  0
 18 19  1  0  0  0  0
 18 49  1  0  0  0  0
 19 20  2  0  0  0  0
 20 21  1  0  0  0  0
 20 33  1  0  0  0  0
 21 22  2  0  0  0  0
 21 32  1  0  0  0  0
 22 23  1  0  0  0  0
 22 50  1  0  0  0  0
 23 24  1  0  0  0  0
 23 31  2  0  0  0  0
 24 25  2  0  0  0  0
 24 26  1  0  0  0  0
 26 27  1  0  0  0  0
 26 51  1  0  0  0  0
 27 28  1  0  0  0  0
 27 52  1  0  0  0  0
 27 53  1  0  0  0  0
 28 29  2  0  0  0  0
 28 30  1  0  0  0  0
 30 54  1  0  0  0  0
 31 32  1  0  0  0  0
 31 55  1  0  0  0  0
 32 56  1  0  0  0  0
 33 57  1  0  0  0  0
 34 35  1  0  0  0  0
 34 58  1  0  0  0  0
 35 36  1  0  0  0  0
 37 59  1  0  0  0  0
M  END
$$$$
