CHEMBL475796
 OpenBabel04072215383D

 65 69  0  0  0  0  0  0  0  0999 V2000
    2.5466   -0.0388   -0.0375 C   0  0  0  0  0  0  0  0  0  0  0  0
    1.0701   -0.1316    0.2196 C   0  0  0  0  0  0  0  0  0  0  0  0
    0.4038    1.0412    0.6116 C   0  0  0  0  0  0  0  0  0  0  0  0
   -0.9879    1.0771    0.7018 C   0  0  0  0  0  0  0  0  0  0  0  0
   -1.7505   -0.0343    0.3545 C   0  0  0  0  0  0  0  0  0  0  0  0
   -3.1494   -0.0038    0.2911 N   0  0  0  0  0  0  0  0  0  0  0  0
   -3.7610    1.1610   -0.3611 C   0  0  0  0  0  0  0  0  0  0  0  0
   -4.2515    2.1615    0.6624 C   0  0  0  0  0  0  0  0  0  0  0  0
   -4.2307    3.5344    0.3742 C   0  0  0  0  0  0  0  0  0  0  0  0
   -4.5058    4.4649    1.3778 C   0  0  0  0  0  0  0  0  0  0  0  0
   -4.8152    4.0307    2.6733 C   0  0  0  0  0  0  0  0  0  0  0  0
   -4.9033    5.0425    3.7634 C   0  0  0  0  0  0  0  0  0  0  0  0
   -5.3073    6.1629    3.4740 O   0  0  0  0  0  0  0  0  0  0  0  0
   -4.4040    4.6287    4.9844 N   0  0  0  0  0  0  0  0  0  0  0  0
   -4.3142    5.4009    6.1694 C   0  0  0  0  0  0  0  0  0  0  0  0
   -5.0119    6.6003    6.3378 C   0  0  0  0  0  0  0  0  0  0  0  0
   -4.9331    7.3079    7.5382 C   0  0  0  0  0  0  0  0  0  0  0  0
   -4.1750    6.8099    8.5925 C   0  0  0  0  0  0  0  0  0  0  0  0
   -3.4835    5.6079    8.4433 C   0  0  0  0  0  0  0  0  0  0  0  0
   -3.5040    4.9170    7.2225 C   0  0  0  0  0  0  0  0  0  0  0  0
   -2.8271    3.6786    7.1265 N   0  0  0  0  0  0  0  0  0  0  0  0
   -4.9792    2.6683    2.9277 C   0  0  0  0  0  0  0  0  0  0  0  0
   -4.7067    1.7416    1.9221 C   0  0  0  0  0  0  0  0  0  0  0  0
   -1.0689   -1.2430    0.1417 C   0  0  0  0  0  0  0  0  0  0  0  0
    0.3343   -1.3234    0.1054 C   0  0  0  0  0  0  0  0  0  0  0  0
    0.9652   -2.5824   -0.0000 N   0  0  0  0  0  0  0  0  0  0  0  0
    0.6335   -3.7499    0.6999 C   0  0  0  0  0  0  0  0  0  0  0  0
    1.4637   -4.7928    0.5679 N   0  0  0  0  0  0  0  0  0  0  0  0
    1.1814   -5.8871    1.3002 C   0  0  0  0  0  0  0  0  0  0  0  0
    0.1346   -5.9725    2.1877 C   0  0  0  0  0  0  0  0  0  0  0  0
   -0.6579   -4.8499    2.2908 C   0  0  0  0  0  0  0  0  0  0  0  0
   -1.7588   -4.7014    3.2618 C   0  0  0  0  0  0  0  0  0  0  0  0
   -2.4430   -5.7797    3.8384 C   0  0  0  0  0  0  0  0  0  0  0  0
   -3.4436   -5.5621    4.7883 C   0  0  0  0  0  0  0  0  0  0  0  0
   -3.7453   -4.2616    5.1448 C   0  0  0  0  0  0  0  0  0  0  0  0
   -3.1332   -3.1861    4.6111 N   0  0  0  0  0  0  0  0  0  0  0  0
   -2.1688   -3.4310    3.6863 C   0  0  0  0  0  0  0  0  0  0  0  0
   -0.4202   -3.7633    1.5290 N   0  0  0  0  0  0  0  0  0  0  0  0
    2.7957    0.9589   -0.4215 H   0  0  0  0  0  0  0  0  0  0  0  0
    2.8565   -0.7405   -0.8181 H   0  0  0  0  0  0  0  0  0  0  0  0
    3.1196   -0.2187    0.8742 H   0  0  0  0  0  0  0  0  0  0  0  0
    0.9646    1.9466    0.8314 H   0  0  0  0  0  0  0  0  0  0  0  0
   -1.4653    1.9964    1.0264 H   0  0  0  0  0  0  0  0  0  0  0  0
   -3.5327   -0.8783   -0.0632 H   0  0  0  0  0  0  0  0  0  0  0  0
   -4.6127    0.8293   -0.9652 H   0  0  0  0  0  0  0  0  0  0  0  0
   -3.0538    1.6383   -1.0551 H   0  0  0  0  0  0  0  0  0  0  0  0
   -3.9488    3.8898   -0.6147 H   0  0  0  0  0  0  0  0  0  0  0  0
   -4.4318    5.5294    1.1620 H   0  0  0  0  0  0  0  0  0  0  0  0
   -3.9834    3.7092    5.0535 H   0  0  0  0  0  0  0  0  0  0  0  0
   -5.6536    6.9980    5.5566 H   0  0  0  0  0  0  0  0  0  0  0  0
   -5.4855    8.2376    7.6515 H   0  0  0  0  0  0  0  0  0  0  0  0
   -4.1280    7.3539    9.5324 H   0  0  0  0  0  0  0  0  0  0  0  0
   -2.9091    5.2264    9.2832 H   0  0  0  0  0  0  0  0  0  0  0  0
   -2.1493    3.5429    7.8721 H   0  0  0  0  0  0  0  0  0  0  0  0
   -2.3812    3.5610    6.2226 H   0  0  0  0  0  0  0  0  0  0  0  0
   -5.2963    2.3063    3.9013 H   0  0  0  0  0  0  0  0  0  0  0  0
   -4.7901    0.6782    2.1431 H   0  0  0  0  0  0  0  0  0  0  0  0
   -1.6502   -2.1418   -0.0488 H   0  0  0  0  0  0  0  0  0  0  0  0
    1.9633   -2.5890   -0.1497 H   0  0  0  0  0  0  0  0  0  0  0  0
    1.8652   -6.7222    1.1611 H   0  0  0  0  0  0  0  0  0  0  0  0
   -0.0125   -6.8602    2.7865 H   0  0  0  0  0  0  0  0  0  0  0  0
   -2.2177   -6.8045    3.5550 H   0  0  0  0  0  0  0  0  0  0  0  0
   -3.9734   -6.3928    5.2424 H   0  0  0  0  0  0  0  0  0  0  0  0
   -4.5080   -4.0394    5.8850 H   0  0  0  0  0  0  0  0  0  0  0  0
   -1.7020   -2.5294    3.2910 H   0  0  0  0  0  0  0  0  0  0  0  0
  1  2  1  0  0  0  0
  1 39  1  0  0  0  0
  1 40  1  0  0  0  0
  1 41  1  0  0  0  0
  2  3  1  0  0  0  0
  2 25  2  0  0  0  0
  3  4  2  0  0  0  0
  3 42  1  0  0  0  0
  4  5  1  0  0  0  0
  4 43  1  0  0  0  0
  5  6  1  0  0  0  0
  5 24  2  0  0  0  0
  6  7  1  0  0  0  0
  6 44  1  0  0  0  0
  7  8  1  0  0  0  0
  7 45  1  0  0  0  0
  7 46  1  0  0  0  0
  8  9  1  0  0  0  0
  8 23  2  0  0  0  0
  9 10  2  0  0  0  0
  9 47  1  0  0  0  0
 10 11  1  0  0  0  0
 10 48  1  0  0  0  0
 11 12  1  0  0  0  0
 11 22  2  0  0  0  0
 12 13  2  0  0  0  0
 12 14  1  0  0  0  0
 14 15  1  0  0  0  0
 14 49  1  0  0  0  0
 15 16  1  0  0  0  0
 15 20  2  0  0  0  0
 16 17  2  0  0  0  0
 16 50  1  0  0  0  0
 17 18  1  0  0  0  0
 17 51  1  0  0  0  0
 18 19  2  0  0  0  0
 18 52  1  0  0  0  0
 19 20  1  0  0  0  0
 19 53  1  0  0  0  0
 20 21  1  0  0  0  0
 21 54  1  0  0  0  0
 21 55  1  0  0  0  0
 22 23  1  0  0  0  0
 22 56  1  0  0  0  0
 23 57  1  0  0  0  0
 24 25  1  0  0  0  0
 24 58  1  0  0  0  0
 25 26  1  0  0  0  0
 26 27  1  0  0  0  0
 26 59  1  0  0  0  0
 27 28  1  0  0  0  0
 27 38  2  0  0  0  0
 28 29  2  0  0  0  0
 29 30  1  0  0  0  0
 29 60  1  0  0  0  0
 30 31  2  0  0  0  0
 30 61  1  0  0  0  0
 31 32  1  0  0  0  0
 31 38  1  0  0  0  0
 32 33  1  0  0  0  0
 32 37  2  0  0  0  0
 33 34  2  0  0  0  0
 33 62  1  0  0  0  0
 34 35  1  0  0  0  0
 34 63  1  0  0  0  0
 35 36  2  0  0  0  0
 35 64  1  0  0  0  0
 36 37  1  0  0  0  0
 37 65  1  0  0  0  0
M  END
$$$$
