CHEMBL2006439
 OpenBabel04072215363D

 41 44  0  0  0  0  0  0  0  0999 V2000
    2.0870   -0.0945   -0.0345 Cl  0  0  0  0  0  0  0  0  0  0  0  0
    0.3737    0.0293   -0.0218 C   0  0  0  0  0  0  0  0  0  0  0  0
   -0.2240    1.2581    0.0095 C   0  0  0  0  0  0  0  0  0  0  0  0
   -1.5907    1.2174    0.0476 C   0  0  0  0  0  0  0  0  0  0  0  0
   -2.3900    2.4344   -0.0134 C   0  0  0  0  0  0  0  0  0  0  0  0
   -3.6331    2.5531    0.5838 C   0  0  0  0  0  0  0  0  0  0  0  0
   -4.0975    3.8232    0.3583 N   0  0  0  0  0  0  0  0  0  0  0  0
   -3.1947    4.5214   -0.3881 C   0  0  0  0  0  0  0  0  0  0  0  0
   -3.3602    5.8001   -0.7815 N   0  0  0  0  0  0  0  0  0  0  0  0
   -2.3404    6.2552   -1.5414 C   0  0  0  0  0  0  0  0  0  0  0  0
   -1.2239    5.5234   -1.9198 C   0  0  0  0  0  0  0  0  0  0  0  0
   -1.1009    4.2054   -1.4863 C   0  0  0  0  0  0  0  0  0  0  0  0
   -2.1164    3.6803   -0.6729 C   0  0  0  0  0  0  0  0  0  0  0  0
   -2.2798    0.0662    0.1306 N   0  0  0  0  0  0  0  0  0  0  0  0
   -1.5988   -1.0813    0.0620 C   0  0  0  0  0  0  0  0  0  0  0  0
   -2.2817   -2.2649    0.0666 N   0  0  0  0  0  0  0  0  0  0  0  0
   -3.5757   -2.3950    0.7088 C   0  0  0  0  0  0  0  0  0  0  0  0
   -3.7560   -3.8451    1.1970 C   0  0  0  0  0  0  0  0  0  0  0  0
   -5.1649   -4.1111    1.7250 C   0  0  0  0  0  0  0  0  0  0  0  0
   -6.2221   -3.7238    0.6982 C   0  0  0  0  0  0  0  0  0  0  0  0
   -6.0828   -2.2596    0.3038 C   0  0  0  0  0  0  0  0  0  0  0  0
   -4.6929   -1.9611   -0.2492 C   0  0  0  0  0  0  0  0  0  0  0  0
   -0.2717   -1.1460   -0.0433 N   0  0  0  0  0  0  0  0  0  0  0  0
    0.3449    2.1742    0.0090 H   0  0  0  0  0  0  0  0  0  0  0  0
   -4.2233    1.8397    1.1479 H   0  0  0  0  0  0  0  0  0  0  0  0
   -4.9773    4.2102    0.6722 H   0  0  0  0  0  0  0  0  0  0  0  0
   -2.4470    7.2876   -1.8647 H   0  0  0  0  0  0  0  0  0  0  0  0
   -0.4590    5.9725   -2.5435 H   0  0  0  0  0  0  0  0  0  0  0  0
   -0.2455    3.6100   -1.7868 H   0  0  0  0  0  0  0  0  0  0  0  0
   -1.7994   -3.0508   -0.3400 H   0  0  0  0  0  0  0  0  0  0  0  0
   -3.6135   -1.7570    1.6029 H   0  0  0  0  0  0  0  0  0  0  0  0
   -3.0304   -4.0582    1.9931 H   0  0  0  0  0  0  0  0  0  0  0  0
   -3.5375   -4.5532    0.3873 H   0  0  0  0  0  0  0  0  0  0  0  0
   -5.3253   -3.5425    2.6495 H   0  0  0  0  0  0  0  0  0  0  0  0
   -5.2715   -5.1712    1.9819 H   0  0  0  0  0  0  0  0  0  0  0  0
   -7.2222   -3.9039    1.1067 H   0  0  0  0  0  0  0  0  0  0  0  0
   -6.1186   -4.3556   -0.1927 H   0  0  0  0  0  0  0  0  0  0  0  0
   -6.2741   -1.6241    1.1779 H   0  0  0  0  0  0  0  0  0  0  0  0
   -6.8378   -2.0039   -0.4473 H   0  0  0  0  0  0  0  0  0  0  0  0
   -4.6242   -0.8834   -0.4404 H   0  0  0  0  0  0  0  0  0  0  0  0
   -4.5713   -2.4534   -1.2214 H   0  0  0  0  0  0  0  0  0  0  0  0
  1  2  1  0  0  0  0
  2  3  1  0  0  0  0
  2 23  2  0  0  0  0
  3  4  2  0  0  0  0
  3 24  1  0  0  0  0
  4  5  1  0  0  0  0
  4 14  1  0  0  0  0
  5  6  2  0  0  0  0
  5 13  1  0  0  0  0
  6  7  1  0  0  0  0
  6 25  1  0  0  0  0
  7  8  1  0  0  0  0
  7 26  1  0  0  0  0
  8  9  1  0  0  0  0
  8 13  2  0  0  0  0
  9 10  2  0  0  0  0
 10 11  1  0  0  0  0
 10 27  1  0  0  0  0
 11 12  2  0  0  0  0
 11 28  1  0  0  0  0
 12 13  1  0  0  0  0
 12 29  1  0  0  0  0
 14 15  2  0  0  0  0
 15 16  1  0  0  0  0
 15 23  1  0  0  0  0
 16 17  1  0  0  0  0
 16 30  1  0  0  0  0
 17 18  1  0  0  0  0
 17 22  1  0  0  0  0
 17 31  1  0  0  0  0
 18 19  1  0  0  0  0
 18 32  1  0  0  0  0
 18 33  1  0  0  0  0
 19 20  1  0  0  0  0
 19 34  1  0  0  0  0
 19 35  1  0  0  0  0
 20 21  1  0  0  0  0
 20 36  1  0  0  0  0
 20 37  1  0  0  0  0
 21 22  1  0  0  0  0
 21 38  1  0  0  0  0
 21 39  1  0  0  0  0
 22 40  1  0  0  0  0
 22 41  1  0  0  0  0
M  END
$$$$
