CHEMBL3671585
 OpenBabel04072215373D

 58 60  0  0  0  0  0  0  0  0999 V2000
    2.3742   -0.8404    2.1157 C   0  0  0  0  0  0  0  0  0  0  0  0
    3.0599   -0.4336    1.0403 C   0  0  0  0  0  0  0  0  0  0  0  0
    3.9123   -1.3975    0.3050 C   0  0  0  0  0  0  0  0  0  0  0  0
    4.0373   -2.5607    0.6828 O   0  0  0  0  0  0  0  0  0  0  0  0
    4.4708   -0.8652   -0.8404 N   0  0  0  0  0  0  0  0  0  0  0  0
    5.1911   -1.6907   -1.7339 C   0  0  0  0  0  0  0  0  0  0  0  0
    6.2278   -2.4302   -1.1638 C   0  0  0  0  0  0  0  0  0  0  0  0
    6.8895   -3.4445   -1.8733 C   0  0  0  0  0  0  0  0  0  0  0  0
    7.9074   -4.2350   -1.3167 C   0  0  0  0  0  0  0  0  0  0  0  0
    8.2804   -4.0238    0.0297 N   0  0  0  0  0  0  0  0  0  0  0  0
    9.5256   -4.2457    0.6451 C   0  0  0  0  0  0  0  0  0  0  0  0
   10.7268   -4.1381   -0.0630 C   0  0  0  0  0  0  0  0  0  0  0  0
   11.9554   -4.1937    0.6010 C   0  0  0  0  0  0  0  0  0  0  0  0
   11.9909   -4.3731    1.9827 C   0  0  0  0  0  0  0  0  0  0  0  0
   13.5022   -4.3564    2.8039 Cl  0  0  0  0  0  0  0  0  0  0  0  0
   10.8133   -4.5342    2.7035 C   0  0  0  0  0  0  0  0  0  0  0  0
    9.5967   -4.4618    2.0307 C   0  0  0  0  0  0  0  0  0  0  0  0
    8.4612   -4.5848    2.7375 F   0  0  0  0  0  0  0  0  0  0  0  0
    8.5273   -5.1882   -2.0328 N   0  0  0  0  0  0  0  0  0  0  0  0
    8.0924   -5.3679   -3.2828 C   0  0  0  0  0  0  0  0  0  0  0  0
    7.1296   -4.6706   -3.9045 N   0  0  0  0  0  0  0  0  0  0  0  0
    6.5367   -3.7004   -3.1953 C   0  0  0  0  0  0  0  0  0  0  0  0
    5.5396   -2.9101   -3.7802 C   0  0  0  0  0  0  0  0  0  0  0  0
    4.8816   -1.8800   -3.0853 C   0  0  0  0  0  0  0  0  0  0  0  0
    3.9022   -1.2563   -3.8200 O   0  0  0  0  0  0  0  0  0  0  0  0
    3.6831    0.1250   -3.5470 C   0  0  0  0  0  0  0  0  0  0  0  0
    3.2425    0.8724   -4.8084 C   0  0  0  0  0  0  0  0  0  0  0  0
    3.1303    2.3032   -4.5716 N   0  0  0  0  0  0  0  0  0  0  0  0
    4.2549    3.1044   -4.4857 C   0  0  0  0  0  0  0  0  0  0  0  0
    5.3810    2.6910   -4.7281 O   0  0  0  0  0  0  0  0  0  0  0  0
    3.9874    4.5370   -4.0095 C   0  0  0  0  0  0  0  0  0  0  0  0
    3.5174    4.5542   -2.6009 N   0  0  0  0  0  0  0  0  0  0  0  0
    4.5544    4.0323   -1.6993 C   0  0  0  0  0  0  0  0  0  0  0  0
    3.2149    5.9397   -2.2143 C   0  0  0  0  0  0  0  0  0  0  0  0
    1.7460   -0.1567    2.6746 H   0  0  0  0  0  0  0  0  0  0  0  0
    2.4202   -1.8713    2.4640 H   0  0  0  0  0  0  0  0  0  0  0  0
    3.0080    0.5919    0.7023 H   0  0  0  0  0  0  0  0  0  0  0  0
    4.1391    0.0337   -1.1691 H   0  0  0  0  0  0  0  0  0  0  0  0
    6.5178   -2.2125   -0.1376 H   0  0  0  0  0  0  0  0  0  0  0  0
    7.4901   -4.1207    0.6630 H   0  0  0  0  0  0  0  0  0  0  0  0
   10.7150   -3.9681   -1.1371 H   0  0  0  0  0  0  0  0  0  0  0  0
   12.8740   -4.0714    0.0333 H   0  0  0  0  0  0  0  0  0  0  0  0
   10.8250   -4.6910    3.7765 H   0  0  0  0  0  0  0  0  0  0  0  0
    8.5644   -6.1625   -3.8507 H   0  0  0  0  0  0  0  0  0  0  0  0
    5.2572   -3.1199   -4.8085 H   0  0  0  0  0  0  0  0  0  0  0  0
    4.5916    0.5995   -3.1597 H   0  0  0  0  0  0  0  0  0  0  0  0
    2.8823    0.2085   -2.8024 H   0  0  0  0  0  0  0  0  0  0  0  0
    2.2708    0.5081   -5.1584 H   0  0  0  0  0  0  0  0  0  0  0  0
    3.9640    0.7004   -5.6174 H   0  0  0  0  0  0  0  0  0  0  0  0
    2.2730    2.6750   -4.1653 H   0  0  0  0  0  0  0  0  0  0  0  0
    3.2208    4.9610   -4.6692 H   0  0  0  0  0  0  0  0  0  0  0  0
    4.9033    5.1229   -4.1413 H   0  0  0  0  0  0  0  0  0  0  0  0
    4.7870    2.9863   -1.9218 H   0  0  0  0  0  0  0  0  0  0  0  0
    4.1969    4.0479   -0.6632 H   0  0  0  0  0  0  0  0  0  0  0  0
    5.4827    4.6130   -1.7514 H   0  0  0  0  0  0  0  0  0  0  0  0
    2.4446    6.3677   -2.8647 H   0  0  0  0  0  0  0  0  0  0  0  0
    4.1007    6.5859   -2.2595 H   0  0  0  0  0  0  0  0  0  0  0  0
    2.8199    5.9747   -1.1924 H   0  0  0  0  0  0  0  0  0  0  0  0
  1  2  2  0  0  0  0
  1 35  1  0  0  0  0
  1 36  1  0  0  0  0
  2  3  1  0  0  0  0
  2 37  1  0  0  0  0
  3  4  2  0  0  0  0
  3  5  1  0  0  0  0
  5  6  1  0  0  0  0
  5 38  1  0  0  0  0
  6  7  1  0  0  0  0
  6 24  2  0  0  0  0
  7  8  2  0  0  0  0
  7 39  1  0  0  0  0
  8  9  1  0  0  0  0
  8 22  1  0  0  0  0
  9 10  1  0  0  0  0
  9 19  2  0  0  0  0
 10 11  1  0  0  0  0
 10 40  1  0  0  0  0
 11 12  1  0  0  0  0
 11 17  2  0  0  0  0
 12 13  2  0  0  0  0
 12 41  1  0  0  0  0
 13 14  1  0  0  0  0
 13 42  1  0  0  0  0
 14 15  1  0  0  0  0
 14 16  2  0  0  0  0
 16 17  1  0  0  0  0
 16 43  1  0  0  0  0
 17 18  1  0  0  0  0
 19 20  1  0  0  0  0
 20 21  2  0  0  0  0
 20 44  1  0  0  0  0
 21 22  1  0  0  0  0
 22 23  2  0  0  0  0
 23 24  1  0  0  0  0
 23 45  1  0  0  0  0
 24 25  1  0  0  0  0
 25 26  1  0  0  0  0
 26 27  1  0  0  0  0
 26 46  1  0  0  0  0
 26 47  1  0  0  0  0
 27 28  1  0  0  0  0
 27 48  1  0  0  0  0
 27 49  1  0  0  0  0
 28 29  1  0  0  0  0
 28 50  1  0  0  0  0
 29 30  2  0  0  0  0
 29 31  1  0  0  0  0
 31 32  1  0  0  0  0
 31 51  1  0  0  0  0
 31 52  1  0  0  0  0
 32 33  1  0  0  0  0
 32 34  1  0  0  0  0
 33 53  1  0  0  0  0
 33 54  1  0  0  0  0
 33 55  1  0  0  0  0
 34 56  1  0  0  0  0
 34 57  1  0  0  0  0
 34 58  1  0  0  0  0
M  END
$$$$
