CHEMBL399042
 OpenBabel04072215373D

 48 53  0  0  0  0  0  0  0  0999 V2000
    8.7898    3.4590    3.1545 C   0  0  0  0  0  0  0  0  0  0  0  0
    7.8078    2.6894    2.4568 O   0  0  0  0  0  0  0  0  0  0  0  0
    7.8970    1.3566    2.6992 C   0  0  0  0  0  0  0  0  0  0  0  0
    8.7170    0.8255    3.4323 O   0  0  0  0  0  0  0  0  0  0  0  0
    6.8808    0.6366    1.9068 C   0  0  0  0  0  0  0  0  0  0  0  0
    6.4009    1.1397    0.6818 C   0  0  0  0  0  0  0  0  0  0  0  0
    5.5132    0.3964   -0.0997 C   0  0  0  0  0  0  0  0  0  0  0  0
    5.0900   -0.8770    0.2973 C   0  0  0  0  0  0  0  0  0  0  0  0
    5.5750   -1.3526    1.5182 C   0  0  0  0  0  0  0  0  0  0  0  0
    5.3850   -2.5357    2.1870 N   0  0  0  0  0  0  0  0  0  0  0  0
    6.0690   -2.4755    3.3738 C   0  0  0  0  0  0  0  0  0  0  0  0
    6.0839   -3.5818    4.3768 C   0  0  0  0  0  0  0  0  0  0  0  0
    5.4635   -4.7503    4.1425 N   0  0  0  0  0  0  0  0  0  0  0  0
    5.7320   -5.4544    5.2752 N   0  0  0  0  0  0  0  0  0  0  0  0
    6.4568   -4.7872    6.1940 C   0  0  0  0  0  0  0  0  0  0  0  0
    6.8206   -5.2403    7.4077 N   0  0  0  0  0  0  0  0  0  0  0  0
    7.5043   -4.3094    8.1285 C   0  0  0  0  0  0  0  0  0  0  0  0
    7.8229   -3.0067    7.7226 C   0  0  0  0  0  0  0  0  0  0  0  0
    8.5366   -2.0823    8.6365 C   0  0  0  0  0  0  0  0  0  0  0  0
    8.3204   -2.1798   10.0183 C   0  0  0  0  0  0  0  0  0  0  0  0
    8.9412   -1.4466   10.9680 N   0  0  0  0  0  0  0  0  0  0  0  0
    9.8377   -0.5494   10.5196 C   0  0  0  0  0  0  0  0  0  0  0  0
   10.1442   -0.3300    9.1765 C   0  0  0  0  0  0  0  0  0  0  0  0
   11.1048    0.6268    8.7875 C   0  0  0  0  0  0  0  0  0  0  0  0
   11.4019    0.8486    7.4480 C   0  0  0  0  0  0  0  0  0  0  0  0
   10.7442    0.1213    6.4704 C   0  0  0  0  0  0  0  0  0  0  0  0
    9.8199   -0.8414    6.8509 C   0  0  0  0  0  0  0  0  0  0  0  0
    9.4767   -1.1005    8.2049 C   0  0  0  0  0  0  0  0  0  0  0  0
    7.3929   -2.6255    6.4480 C   0  0  0  0  0  0  0  0  0  0  0  0
    6.7100   -3.5410    5.6418 C   0  0  0  0  0  0  0  0  0  0  0  0
    6.6880   -1.3229    3.5003 N   0  0  0  0  0  0  0  0  0  0  0  0
    6.4340   -0.6238    2.3406 C   0  0  0  0  0  0  0  0  0  0  0  0
    8.6055    4.5133    2.9480 H   0  0  0  0  0  0  0  0  0  0  0  0
    9.7936    3.2025    2.7843 H   0  0  0  0  0  0  0  0  0  0  0  0
    8.7189    3.2887    4.2287 H   0  0  0  0  0  0  0  0  0  0  0  0
    6.7370    2.1101    0.3212 H   0  0  0  0  0  0  0  0  0  0  0  0
    5.1589    0.8066   -1.0440 H   0  0  0  0  0  0  0  0  0  0  0  0
    4.4139   -1.4608   -0.3184 H   0  0  0  0  0  0  0  0  0  0  0  0
    4.8239   -3.3211    1.8906 H   0  0  0  0  0  0  0  0  0  0  0  0
    5.3577   -6.3955    5.3674 H   0  0  0  0  0  0  0  0  0  0  0  0
    7.7835   -4.6717    9.1057 H   0  0  0  0  0  0  0  0  0  0  0  0
    7.6103   -2.8932   10.4306 H   0  0  0  0  0  0  0  0  0  0  0  0
   10.3307    0.0140   11.3060 H   0  0  0  0  0  0  0  0  0  0  0  0
   11.6365    1.2044    9.5348 H   0  0  0  0  0  0  0  0  0  0  0  0
   12.1385    1.5782    7.1494 H   0  0  0  0  0  0  0  0  0  0  0  0
   10.9341    0.2742    5.4105 H   0  0  0  0  0  0  0  0  0  0  0  0
    9.3935   -1.3829    6.0218 H   0  0  0  0  0  0  0  0  0  0  0  0
    7.5212   -1.6258    6.0507 H   0  0  0  0  0  0  0  0  0  0  0  0
  1  2  1  0  0  0  0
  1 33  1  0  0  0  0
  1 34  1  0  0  0  0
  1 35  1  0  0  0  0
  2  3  1  0  0  0  0
  3  4  2  0  0  0  0
  3  5  1  0  0  0  0
  5  6  1  0  0  0  0
  5 32  2  0  0  0  0
  6  7  2  0  0  0  0
  6 36  1  0  0  0  0
  7  8  1  0  0  0  0
  7 37  1  0  0  0  0
  8  9  2  0  0  0  0
  8 38  1  0  0  0  0
  9 10  1  0  0  0  0
  9 32  1  0  0  0  0
 10 11  1  0  0  0  0
 10 39  1  0  0  0  0
 11 12  1  0  0  0  0
 11 31  2  0  0  0  0
 12 13  2  0  0  0  0
 12 30  1  0  0  0  0
 13 14  1  0  0  0  0
 14 15  1  0  0  0  0
 14 40  1  0  0  0  0
 15 16  1  0  0  0  0
 15 30  2  0  0  0  0
 16 17  2  0  0  0  0
 17 18  1  0  0  0  0
 17 41  1  0  0  0  0
 18 19  1  0  0  0  0
 18 29  2  0  0  0  0
 19 20  1  0  0  0  0
 19 28  2  0  0  0  0
 20 21  2  0  0  0  0
 20 42  1  0  0  0  0
 21 22  1  0  0  0  0
 22 23  2  0  0  0  0
 22 43  1  0  0  0  0
 23 24  1  0  0  0  0
 23 28  1  0  0  0  0
 24 25  2  0  0  0  0
 24 44  1  0  0  0  0
 25 26  1  0  0  0  0
 25 45  1  0  0  0  0
 26 27  2  0  0  0  0
 26 46  1  0  0  0  0
 27 28  1  0  0  0  0
 27 47  1  0  0  0  0
 29 30  1  0  0  0  0
 29 48  1  0  0  0  0
 31 32  1  0  0  0  0
M  END
$$$$
