CHEMBL2113169
 OpenBabel04072215363D

 53 55  0  0  0  0  0  0  0  0999 V2000
    1.1045   -0.4557   -0.9814 C   0  0  0  0  0  0  0  0  0  0  0  0
    2.3561   -0.3222   -0.3358 O   0  0  0  0  0  0  0  0  0  0  0  0
    2.8421   -1.5460    0.2243 C   0  0  0  0  0  0  0  0  0  0  0  0
    4.1486   -1.1727    0.9072 C   0  0  0  0  0  0  0  0  0  0  0  0
    4.8157   -2.2648    1.5030 O   0  0  0  0  0  0  0  0  0  0  0  0
    6.1746   -2.1659    1.6757 C   0  0  0  0  0  0  0  0  0  0  0  0
    6.7489   -3.4557    1.7668 C   0  0  0  0  0  0  0  0  0  0  0  0
    8.1168   -3.6876    1.8740 C   0  0  0  0  0  0  0  0  0  0  0  0
    8.5716   -4.9467    1.8916 N   0  0  0  0  0  0  0  0  0  0  0  0
    9.8949   -5.1074    1.9831 C   0  0  0  0  0  0  0  0  0  0  0  0
   10.7983   -4.1295    2.0830 N   0  0  0  0  0  0  0  0  0  0  0  0
   10.3385   -2.8644    2.0646 C   0  0  0  0  0  0  0  0  0  0  0  0
   11.2689   -1.7933    2.1248 N   0  0  0  0  0  0  0  0  0  0  0  0
   12.6547   -1.9205    2.1331 C   0  0  0  0  0  0  0  0  0  0  0  0
   13.3823   -2.8957    1.5705 C   0  0  0  0  0  0  0  0  0  0  0  0
   14.8366   -3.0064    1.6813 C   0  0  0  0  0  0  0  0  0  0  0  0
   15.3761   -4.0288    1.2629 O   0  0  0  0  0  0  0  0  0  0  0  0
   15.5763   -1.8683    2.3111 C   0  0  0  0  0  0  0  0  0  0  0  0
   16.9612   -1.8066    2.3902 O   0  0  0  0  0  0  0  0  0  0  0  0
   17.7518   -2.5442    1.4448 C   0  0  0  0  0  0  0  0  0  0  0  0
   17.5623   -2.0112    0.0283 C   0  0  0  0  0  0  0  0  0  0  0  0
   19.2137   -2.3830    1.8596 C   0  0  0  0  0  0  0  0  0  0  0  0
   14.8714   -0.8629    2.8419 C   0  0  0  0  0  0  0  0  0  0  0  0
   13.3960   -0.8197    2.8259 C   0  0  0  0  0  0  0  0  0  0  0  0
   12.7902    0.1045    3.3622 O   0  0  0  0  0  0  0  0  0  0  0  0
    8.9653   -2.5841    1.9364 C   0  0  0  0  0  0  0  0  0  0  0  0
    8.4066   -1.2886    1.8475 C   0  0  0  0  0  0  0  0  0  0  0  0
    7.0246   -1.0557    1.7221 C   0  0  0  0  0  0  0  0  0  0  0  0
    6.8057    0.2760    1.5350 O   0  0  0  0  0  0  0  0  0  0  0  0
    5.7321    0.9605    2.1517 C   0  0  0  0  0  0  0  0  0  0  0  0
    0.8336    0.5228   -1.3825 H   0  0  0  0  0  0  0  0  0  0  0  0
    0.3366   -0.7643   -0.2674 H   0  0  0  0  0  0  0  0  0  0  0  0
    1.1740   -1.1676   -1.8094 H   0  0  0  0  0  0  0  0  0  0  0  0
    3.0015   -2.2974   -0.5559 H   0  0  0  0  0  0  0  0  0  0  0  0
    2.1266   -1.9447    0.9539 H   0  0  0  0  0  0  0  0  0  0  0  0
    3.8528   -0.4879    1.7022 H   0  0  0  0  0  0  0  0  0  0  0  0
    4.7827   -0.6693    0.1705 H   0  0  0  0  0  0  0  0  0  0  0  0
    6.0937   -4.3255    1.7062 H   0  0  0  0  0  0  0  0  0  0  0  0
   10.2753   -6.1235    1.9708 H   0  0  0  0  0  0  0  0  0  0  0  0
   10.9704   -1.0589    2.7683 H   0  0  0  0  0  0  0  0  0  0  0  0
   12.9143   -3.7053    1.0209 H   0  0  0  0  0  0  0  0  0  0  0  0
   17.5381   -3.6145    1.5077 H   0  0  0  0  0  0  0  0  0  0  0  0
   17.8244   -0.9485   -0.0278 H   0  0  0  0  0  0  0  0  0  0  0  0
   16.5213   -2.0915   -0.3019 H   0  0  0  0  0  0  0  0  0  0  0  0
   18.1780   -2.5650   -0.6856 H   0  0  0  0  0  0  0  0  0  0  0  0
   19.5064   -1.3285    1.8684 H   0  0  0  0  0  0  0  0  0  0  0  0
   19.8773   -2.9279    1.1810 H   0  0  0  0  0  0  0  0  0  0  0  0
   19.3662   -2.7647    2.8750 H   0  0  0  0  0  0  0  0  0  0  0  0
   15.3661   -0.0209    3.3107 H   0  0  0  0  0  0  0  0  0  0  0  0
    9.0673   -0.4211    1.8387 H   0  0  0  0  0  0  0  0  0  0  0  0
    6.1063    1.8932    2.5840 H   0  0  0  0  0  0  0  0  0  0  0  0
    5.2389    0.3964    2.9469 H   0  0  0  0  0  0  0  0  0  0  0  0
    5.0337    1.2620    1.3633 H   0  0  0  0  0  0  0  0  0  0  0  0
  1  2  1  0  0  0  0
  1 31  1  0  0  0  0
  1 32  1  0  0  0  0
  1 33  1  0  0  0  0
  2  3  1  0  0  0  0
  3  4  1  0  0  0  0
  3 34  1  0  0  0  0
  3 35  1  0  0  0  0
  4  5  1  0  0  0  0
  4 36  1  0  0  0  0
  4 37  1  0  0  0  0
  5  6  1  0  0  0  0
  6  7  1  0  0  0  0
  6 28  2  0  0  0  0
  7  8  2  0  0  0  0
  7 38  1  0  0  0  0
  8  9  1  0  0  0  0
  8 26  1  0  0  0  0
  9 10  2  0  0  0  0
 10 11  1  0  0  0  0
 10 39  1  0  0  0  0
 11 12  2  0  0  0  0
 12 13  1  0  0  0  0
 12 26  1  0  0  0  0
 13 14  1  0  0  0  0
 13 40  1  0  0  0  0
 14 15  2  0  0  0  0
 14 24  1  0  0  0  0
 15 16  1  0  0  0  0
 15 41  1  0  0  0  0
 16 17  2  0  0  0  0
 16 18  1  0  0  0  0
 18 19  1  0  0  0  0
 18 23  2  0  0  0  0
 19 20  1  0  0  0  0
 20 21  1  0  0  0  0
 20 22  1  0  0  0  0
 20 42  1  0  0  0  0
 21 43  1  0  0  0  0
 21 44  1  0  0  0  0
 21 45  1  0  0  0  0
 22 46  1  0  0  0  0
 22 47  1  0  0  0  0
 22 48  1  0  0  0  0
 23 24  1  0  0  0  0
 23 49  1  0  0  0  0
 24 25  2  0  0  0  0
 26 27  2  0  0  0  0
 27 28  1  0  0  0  0
 27 50  1  0  0  0  0
 28 29  1  0  0  0  0
 29 30  1  0  0  0  0
 30 51  1  0  0  0  0
 30 52  1  0  0  0  0
 30 53  1  0  0  0  0
M  END
$$$$
