CHEMBL3895384
 OpenBabel04072215373D

 52 55  0  0  0  0  0  0  0  0999 V2000
    9.6399    7.0611    2.2667 C   0  0  0  0  0  0  0  0  0  0  0  0
    8.2771    7.5455    1.7925 C   0  0  0  0  0  0  0  0  0  0  0  0
    7.2588    6.4370    1.8725 C   0  0  0  0  0  0  0  0  0  0  0  0
    7.0391    5.5937    0.7743 C   0  0  0  0  0  0  0  0  0  0  0  0
    6.1738    4.5061    0.8812 C   0  0  0  0  0  0  0  0  0  0  0  0
    5.5344    4.2323    2.0878 C   0  0  0  0  0  0  0  0  0  0  0  0
    5.7518    5.0571    3.1860 C   0  0  0  0  0  0  0  0  0  0  0  0
    5.1935    4.8143    4.4451 N   0  0  0  0  0  0  0  0  0  0  0  0
    4.6813    3.6338    4.9311 C   0  0  0  0  0  0  0  0  0  0  0  0
    4.6454    2.5540    4.3486 O   0  0  0  0  0  0  0  0  0  0  0  0
    4.3245    3.6983    6.2602 N   0  0  0  0  0  0  0  0  0  0  0  0
    4.1009    4.8639    7.0059 C   0  0  0  0  0  0  0  0  0  0  0  0
    3.3625    5.9294    6.4763 C   0  0  0  0  0  0  0  0  0  0  0  0
    3.0907    7.0625    7.2471 C   0  0  0  0  0  0  0  0  0  0  0  0
    3.5213    7.1201    8.5769 C   0  0  0  0  0  0  0  0  0  0  0  0
    2.7531    7.9549    9.5888 C   0  0  0  0  0  0  0  0  0  0  0  0
    2.6830    7.5411   10.9371 C   0  0  0  0  0  0  0  0  0  0  0  0
    1.6382    6.5498   10.8583 C   0  0  0  0  0  0  0  0  0  0  0  0
    1.4045    5.3169   11.4841 C   0  0  0  0  0  0  0  0  0  0  0  0
    0.3427    4.5294   11.0225 C   0  0  0  0  0  0  0  0  0  0  0  0
   -0.5200    4.9894   10.0248 C   0  0  0  0  0  0  0  0  0  0  0  0
   -0.3336    6.2322    9.4227 C   0  0  0  0  0  0  0  0  0  0  0  0
    0.7934    6.9477    9.8220 C   0  0  0  0  0  0  0  0  0  0  0  0
    1.3590    8.1397    9.3810 N   0  0  0  0  0  0  0  0  0  0  0  0
    0.6949    9.2059    8.7610 C   0  0  0  0  0  0  0  0  0  0  0  0
    1.1756   10.4166    9.1635 N   0  0  0  0  0  0  0  0  0  0  0  0
   -0.2968    9.0322    8.0660 O   0  0  0  0  0  0  0  0  0  0  0  0
    4.3753    6.0949    9.0473 C   0  0  0  0  0  0  0  0  0  0  0  0
    4.6205    4.9491    8.2878 C   0  0  0  0  0  0  0  0  0  0  0  0
    6.5857    6.1769    3.0702 C   0  0  0  0  0  0  0  0  0  0  0  0
   10.3870    7.8521    2.1528 H   0  0  0  0  0  0  0  0  0  0  0  0
    9.9748    6.1907    1.6921 H   0  0  0  0  0  0  0  0  0  0  0  0
    9.6120    6.7705    3.3230 H   0  0  0  0  0  0  0  0  0  0  0  0
    8.3489    7.9085    0.7608 H   0  0  0  0  0  0  0  0  0  0  0  0
    7.9489    8.3994    2.3971 H   0  0  0  0  0  0  0  0  0  0  0  0
    7.5595    5.7700   -0.1621 H   0  0  0  0  0  0  0  0  0  0  0  0
    6.0123    3.8546    0.0287 H   0  0  0  0  0  0  0  0  0  0  0  0
    4.8743    3.3731    2.1450 H   0  0  0  0  0  0  0  0  0  0  0  0
    5.4143    5.4964    5.1550 H   0  0  0  0  0  0  0  0  0  0  0  0
    4.3672    2.8044    6.7341 H   0  0  0  0  0  0  0  0  0  0  0  0
    2.9036    5.8448    5.4923 H   0  0  0  0  0  0  0  0  0  0  0  0
    2.4303    7.8194    6.8316 H   0  0  0  0  0  0  0  0  0  0  0  0
    3.5447    7.4258   11.5830 H   0  0  0  0  0  0  0  0  0  0  0  0
    2.0905    4.9369   12.2332 H   0  0  0  0  0  0  0  0  0  0  0  0
    0.2003    3.5342   11.4345 H   0  0  0  0  0  0  0  0  0  0  0  0
   -1.3394    4.3585    9.6881 H   0  0  0  0  0  0  0  0  0  0  0  0
   -0.9839    6.5829    8.6260 H   0  0  0  0  0  0  0  0  0  0  0  0
    1.7230   10.4777   10.0139 H   0  0  0  0  0  0  0  0  0  0  0  0
    0.5412   11.1888    8.9934 H   0  0  0  0  0  0  0  0  0  0  0  0
    4.7537    6.1082   10.0658 H   0  0  0  0  0  0  0  0  0  0  0  0
    5.2099    4.1398    8.7101 H   0  0  0  0  0  0  0  0  0  0  0  0
    6.7562    6.8251    3.9281 H   0  0  0  0  0  0  0  0  0  0  0  0
  1  2  1  0  0  0  0
  1 31  1  0  0  0  0
  1 32  1  0  0  0  0
  1 33  1  0  0  0  0
  2  3  1  0  0  0  0
  2 34  1  0  0  0  0
  2 35  1  0  0  0  0
  3  4  1  0  0  0  0
  3 30  2  0  0  0  0
  4  5  2  0  0  0  0
  4 36  1  0  0  0  0
  5  6  1  0  0  0  0
  5 37  1  0  0  0  0
  6  7  2  0  0  0  0
  6 38  1  0  0  0  0
  7  8  1  0  0  0  0
  7 30  1  0  0  0  0
  8  9  1  0  0  0  0
  8 39  1  0  0  0  0
  9 10  2  0  0  0  0
  9 11  1  0  0  0  0
 11 12  1  0  0  0  0
 11 40  1  0  0  0  0
 12 13  1  0  0  0  0
 12 29  2  0  0  0  0
 13 14  2  0  0  0  0
 13 41  1  0  0  0  0
 14 15  1  0  0  0  0
 14 42  1  0  0  0  0
 15 16  1  0  0  0  0
 15 28  2  0  0  0  0
 16 17  2  0  0  0  0
 16 24  1  0  0  0  0
 17 18  1  0  0  0  0
 17 43  1  0  0  0  0
 18 19  1  0  0  0  0
 18 23  2  0  0  0  0
 19 20  2  0  0  0  0
 19 44  1  0  0  0  0
 20 21  1  0  0  0  0
 20 45  1  0  0  0  0
 21 22  2  0  0  0  0
 21 46  1  0  0  0  0
 22 23  1  0  0  0  0
 22 47  1  0  0  0  0
 23 24  1  0  0  0  0
 24 25  1  0  0  0  0
 25 26  1  0  0  0  0
 25 27  2  0  0  0  0
 26 48  1  0  0  0  0
 26 49  1  0  0  0  0
 28 29  1  0  0  0  0
 28 50  1  0  0  0  0
 29 51  1  0  0  0  0
 30 52  1  0  0  0  0
M  END
$$$$
