CHEMBL356626
 OpenBabel04072215363D

 61 66  0  0  0  0  0  0  0  0999 V2000
    0.7411   -5.2456   -0.6044 C   0  0  0  0  0  0  0  0  0  0  0  0
    2.2561   -5.1735   -0.5636 C   0  0  0  0  0  0  0  0  0  0  0  0
    2.7172   -3.7444   -0.8003 C   0  0  0  0  0  0  0  0  0  0  0  0
    4.1336   -3.7087   -0.7495 O   0  0  0  0  0  0  0  0  0  0  0  0
    4.6180   -2.3871   -0.9663 C   0  0  0  0  0  0  0  0  0  0  0  0
    6.1117   -2.4535   -0.8952 C   0  0  0  0  0  0  0  0  0  0  0  0
    6.8037   -1.7596    0.1002 C   0  0  0  0  0  0  0  0  0  0  0  0
    8.1818   -1.8948    0.2442 C   0  0  0  0  0  0  0  0  0  0  0  0
    8.8292   -2.7689   -0.6315 C   0  0  0  0  0  0  0  0  0  0  0  0
    8.1682   -3.3900   -1.7030 C   0  0  0  0  0  0  0  0  0  0  0  0
    6.7984   -3.2309   -1.8429 C   0  0  0  0  0  0  0  0  0  0  0  0
    9.2158   -3.9781   -2.3892 C   0  0  0  0  0  0  0  0  0  0  0  0
    9.3170   -4.3114   -3.7323 C   0  0  0  0  0  0  0  0  0  0  0  0
   10.7035   -4.3941   -4.2435 C   0  0  0  0  0  0  0  0  0  0  0  0
   11.7678   -4.2873   -3.3107 C   0  0  0  0  0  0  0  0  0  0  0  0
   11.3204   -4.8984   -2.1438 C   0  0  0  0  0  0  0  0  0  0  0  0
   10.3081   -4.1755   -1.5968 C   0  0  0  0  0  0  0  0  0  0  0  0
   10.1930   -3.0301   -0.7831 N   0  0  0  0  0  0  0  0  0  0  0  0
   11.1623   -1.9716   -0.5324 C   0  0  0  0  0  0  0  0  0  0  0  0
   11.2987   -0.8162   -1.5687 C   0  0  0  0  0  0  0  0  0  0  0  0
   10.1134    0.1386   -1.7128 C   0  0  0  0  0  0  0  0  0  0  0  0
   10.4658    1.2230   -2.5760 O   0  0  0  0  0  0  0  0  0  0  0  0
   12.3634   -5.7867   -1.6338 C   0  0  0  0  0  0  0  0  0  0  0  0
   13.4689   -4.7902   -1.7624 C   0  0  0  0  0  0  0  0  0  0  0  0
   14.1910   -4.4669   -0.6099 C   0  0  0  0  0  0  0  0  0  0  0  0
   14.6502   -3.1752   -0.4948 C   0  0  0  0  0  0  0  0  0  0  0  0
   14.4634   -2.2889   -1.5725 C   0  0  0  0  0  0  0  0  0  0  0  0
   13.7424   -2.6497   -2.7668 C   0  0  0  0  0  0  0  0  0  0  0  0
   13.1620   -3.9251   -2.8856 C   0  0  0  0  0  0  0  0  0  0  0  0
   10.5837   -5.3233   -5.3633 C   0  0  0  0  0  0  0  0  0  0  0  0
   11.4178   -5.9239   -6.0307 O   0  0  0  0  0  0  0  0  0  0  0  0
    9.2067   -5.6368   -5.4724 N   0  0  0  0  0  0  0  0  0  0  0  0
    8.3222   -5.0427   -4.4958 C   0  0  0  0  0  0  0  0  0  0  0  0
    0.3988   -6.2688   -0.4312 H   0  0  0  0  0  0  0  0  0  0  0  0
    0.3653   -4.9158   -1.5781 H   0  0  0  0  0  0  0  0  0  0  0  0
    0.3047   -4.6008    0.1652 H   0  0  0  0  0  0  0  0  0  0  0  0
    2.6890   -5.8362   -1.3232 H   0  0  0  0  0  0  0  0  0  0  0  0
    2.6292   -5.5328    0.4022 H   0  0  0  0  0  0  0  0  0  0  0  0
    2.3104   -3.0833   -0.0268 H   0  0  0  0  0  0  0  0  0  0  0  0
    2.3824   -3.3970   -1.7838 H   0  0  0  0  0  0  0  0  0  0  0  0
    4.2177   -1.7157   -0.1991 H   0  0  0  0  0  0  0  0  0  0  0  0
    4.3123   -2.0227   -1.9543 H   0  0  0  0  0  0  0  0  0  0  0  0
    6.2724   -1.1098    0.7921 H   0  0  0  0  0  0  0  0  0  0  0  0
    8.7159   -1.3291    1.0020 H   0  0  0  0  0  0  0  0  0  0  0  0
    6.2547   -3.7700   -2.6066 H   0  0  0  0  0  0  0  0  0  0  0  0
   12.1195   -2.4547   -0.3748 H   0  0  0  0  0  0  0  0  0  0  0  0
   10.9116   -1.5278    0.4392 H   0  0  0  0  0  0  0  0  0  0  0  0
   11.5128   -1.2023   -2.5682 H   0  0  0  0  0  0  0  0  0  0  0  0
   12.1735   -0.2039   -1.2947 H   0  0  0  0  0  0  0  0  0  0  0  0
    9.8050    0.5621   -0.7532 H   0  0  0  0  0  0  0  0  0  0  0  0
    9.2621   -0.3621   -2.1768 H   0  0  0  0  0  0  0  0  0  0  0  0
   11.0991    1.7945   -2.1096 H   0  0  0  0  0  0  0  0  0  0  0  0
   12.5605   -6.5842   -2.3727 H   0  0  0  0  0  0  0  0  0  0  0  0
   12.1719   -6.2326   -0.6688 H   0  0  0  0  0  0  0  0  0  0  0  0
   14.1583   -5.1343    0.2512 H   0  0  0  0  0  0  0  0  0  0  0  0
   15.0344   -2.8388    0.4683 H   0  0  0  0  0  0  0  0  0  0  0  0
   14.7713   -1.2548   -1.4101 H   0  0  0  0  0  0  0  0  0  0  0  0
   13.4953   -1.8396   -3.4506 H   0  0  0  0  0  0  0  0  0  0  0  0
    8.9721   -6.5221   -5.9045 H   0  0  0  0  0  0  0  0  0  0  0  0
    7.8653   -5.8338   -3.8894 H   0  0  0  0  0  0  0  0  0  0  0  0
    7.5612   -4.4316   -4.9833 H   0  0  0  0  0  0  0  0  0  0  0  0
  1  2  1  0  0  0  0
  1 34  1  0  0  0  0
  1 35  1  0  0  0  0
  1 36  1  0  0  0  0
  2  3  1  0  0  0  0
  2 37  1  0  0  0  0
  2 38  1  0  0  0  0
  3  4  1  0  0  0  0
  3 39  1  0  0  0  0
  3 40  1  0  0  0  0
  4  5  1  0  0  0  0
  5  6  1  0  0  0  0
  5 41  1  0  0  0  0
  5 42  1  0  0  0  0
  6  7  1  0  0  0  0
  6 11  2  0  0  0  0
  7  8  2  0  0  0  0
  7 43  1  0  0  0  0
  8  9  1  0  0  0  0
  8 44  1  0  0  0  0
  9 10  2  0  0  0  0
  9 18  1  0  0  0  0
 10 11  1  0  0  0  0
 10 12  1  0  0  0  0
 11 45  1  0  0  0  0
 12 13  1  0  0  0  0
 12 17  2  0  0  0  0
 13 14  2  0  0  0  0
 13 33  1  0  0  0  0
 14 15  1  0  0  0  0
 14 30  1  0  0  0  0
 15 16  2  0  0  0  0
 15 29  1  0  0  0  0
 16 17  1  0  0  0  0
 16 23  1  0  0  0  0
 17 18  1  0  0  0  0
 18 19  1  0  0  0  0
 19 20  1  0  0  0  0
 19 46  1  0  0  0  0
 19 47  1  0  0  0  0
 20 21  1  0  0  0  0
 20 48  1  0  0  0  0
 20 49  1  0  0  0  0
 21 22  1  0  0  0  0
 21 50  1  0  0  0  0
 21 51  1  0  0  0  0
 22 52  1  0  0  0  0
 23 24  1  0  0  0  0
 23 53  1  0  0  0  0
 23 54  1  0  0  0  0
 24 25  1  0  0  0  0
 24 29  2  0  0  0  0
 25 26  2  0  0  0  0
 25 55  1  0  0  0  0
 26 27  1  0  0  0  0
 26 56  1  0  0  0  0
 27 28  2  0  0  0  0
 27 57  1  0  0  0  0
 28 29  1  0  0  0  0
 28 58  1  0  0  0  0
 30 31  2  0  0  0  0
 30 32  1  0  0  0  0
 32 33  1  0  0  0  0
 32 59  1  0  0  0  0
 33 60  1  0  0  0  0
 33 61  1  0  0  0  0
M  END
$$$$
