CHEMBL3819389
 OpenBabel04072215373D

 71 75  0  0  0  0  0  0  0  0999 V2000
    4.5792   -1.4658   -0.1630 C   0  0  0  0  0  0  0  0  0  0  0  0
    3.6023   -0.4434   -0.0219 O   0  0  0  0  0  0  0  0  0  0  0  0
    4.0603    0.8260    0.2073 C   0  0  0  0  0  0  0  0  0  0  0  0
    3.3045    1.5200    1.1584 C   0  0  0  0  0  0  0  0  0  0  0  0
    3.5367    2.8748    1.4477 C   0  0  0  0  0  0  0  0  0  0  0  0
    2.6592    3.5648    2.2470 O   0  0  0  0  0  0  0  0  0  0  0  0
    2.1765    2.8527    3.3881 C   0  0  0  0  0  0  0  0  0  0  0  0
    4.5720    3.5580    0.7719 C   0  0  0  0  0  0  0  0  0  0  0  0
    4.9218    4.9309    0.9412 N   0  0  0  0  0  0  0  0  0  0  0  0
    4.7702    5.6565    2.1093 C   0  0  0  0  0  0  0  0  0  0  0  0
    4.4395    5.1564    3.1760 O   0  0  0  0  0  0  0  0  0  0  0  0
    5.0917    7.0044    1.9251 N   0  0  0  0  0  0  0  0  0  0  0  0
    4.9805    8.0084    2.9240 C   0  0  0  0  0  0  0  0  0  0  0  0
    4.7579    7.6920    4.2624 C   0  0  0  0  0  0  0  0  0  0  0  0
    4.5107    8.6647    5.2250 C   0  0  0  0  0  0  0  0  0  0  0  0
    4.5222   10.0026    4.8289 C   0  0  0  0  0  0  0  0  0  0  0  0
    4.7890   10.3666    3.5120 C   0  0  0  0  0  0  0  0  0  0  0  0
    4.6776   11.7727    3.5171 C   0  0  0  0  0  0  0  0  0  0  0  0
    4.3343   12.2723    4.7072 N   0  0  0  0  0  0  0  0  0  0  0  0
    4.2685   11.1790    5.5236 N   0  0  0  0  0  0  0  0  0  0  0  0
    3.9274   11.2950    6.9107 C   0  0  0  0  0  0  0  0  0  0  0  0
    3.4716   12.5056    7.3848 C   0  0  0  0  0  0  0  0  0  0  0  0
    3.0566   12.5003    8.6904 C   0  0  0  0  0  0  0  0  0  0  0  0
    3.0857   11.4085    9.4736 N   0  0  0  0  0  0  0  0  0  0  0  0
    3.5946   10.2807    8.9586 C   0  0  0  0  0  0  0  0  0  0  0  0
    3.7135    9.1453    9.7546 N   0  0  0  0  0  0  0  0  0  0  0  0
    2.9957    8.8210   10.9112 C   0  0  0  0  0  0  0  0  0  0  0  0
    1.6581    9.1958   11.0623 C   0  0  0  0  0  0  0  0  0  0  0  0
    0.9489    8.9854   12.2529 C   0  0  0  0  0  0  0  0  0  0  0  0
   -0.3717    9.3377   12.3789 O   0  0  0  0  0  0  0  0  0  0  0  0
   -1.0369    9.9132   11.2610 C   0  0  0  0  0  0  0  0  0  0  0  0
    1.6082    8.3983   13.3568 C   0  0  0  0  0  0  0  0  0  0  0  0
    1.0471    8.1628   14.5850 O   0  0  0  0  0  0  0  0  0  0  0  0
   -0.2687    8.6005   14.8789 C   0  0  0  0  0  0  0  0  0  0  0  0
    2.9595    8.0025   13.2079 C   0  0  0  0  0  0  0  0  0  0  0  0
    3.7945    7.4234   14.1343 O   0  0  0  0  0  0  0  0  0  0  0  0
    3.3434    7.2451   15.4673 C   0  0  0  0  0  0  0  0  0  0  0  0
    3.6257    8.2040   11.9863 C   0  0  0  0  0  0  0  0  0  0  0  0
    4.0306   10.1943    7.6986 N   0  0  0  0  0  0  0  0  0  0  0  0
    5.0524    9.3622    2.5473 C   0  0  0  0  0  0  0  0  0  0  0  0
    5.3084    2.8623   -0.1989 C   0  0  0  0  0  0  0  0  0  0  0  0
    5.0598    1.5129   -0.4825 C   0  0  0  0  0  0  0  0  0  0  0  0
    5.9841    0.8327   -1.7722 Cl  0  0  0  0  0  0  0  0  0  0  0  0
    4.0963   -2.4164    0.0864 H   0  0  0  0  0  0  0  0  0  0  0  0
    5.4273   -1.3313    0.5159 H   0  0  0  0  0  0  0  0  0  0  0  0
    4.9027   -1.5467   -1.2027 H   0  0  0  0  0  0  0  0  0  0  0  0
    2.4854    0.9850    1.6304 H   0  0  0  0  0  0  0  0  0  0  0  0
    1.6869    3.5684    4.0558 H   0  0  0  0  0  0  0  0  0  0  0  0
    2.9903    2.3734    3.9446 H   0  0  0  0  0  0  0  0  0  0  0  0
    1.4183    2.1158    3.1019 H   0  0  0  0  0  0  0  0  0  0  0  0
    5.6296    5.2914    0.3203 H   0  0  0  0  0  0  0  0  0  0  0  0
    5.2164    7.3220    0.9757 H   0  0  0  0  0  0  0  0  0  0  0  0
    4.7439    6.6693    4.6212 H   0  0  0  0  0  0  0  0  0  0  0  0
    4.2796    8.3544    6.2383 H   0  0  0  0  0  0  0  0  0  0  0  0
    4.8058   12.4578    2.6881 H   0  0  0  0  0  0  0  0  0  0  0  0
    3.4045   13.3962    6.7755 H   0  0  0  0  0  0  0  0  0  0  0  0
    2.6659   13.3958    9.1648 H   0  0  0  0  0  0  0  0  0  0  0  0
    4.3499    8.4598    9.3793 H   0  0  0  0  0  0  0  0  0  0  0  0
    1.1766    9.6532   10.2045 H   0  0  0  0  0  0  0  0  0  0  0  0
   -2.0647   10.1386   11.5629 H   0  0  0  0  0  0  0  0  0  0  0  0
   -1.0856    9.2065   10.4263 H   0  0  0  0  0  0  0  0  0  0  0  0
   -0.5658   10.8546   10.9598 H   0  0  0  0  0  0  0  0  0  0  0  0
   -0.4562    8.3887   15.9361 H   0  0  0  0  0  0  0  0  0  0  0  0
   -1.0061    8.0328   14.3033 H   0  0  0  0  0  0  0  0  0  0  0  0
   -0.3772    9.6821   14.7486 H   0  0  0  0  0  0  0  0  0  0  0  0
    4.1778    6.8366   16.0462 H   0  0  0  0  0  0  0  0  0  0  0  0
    2.5336    6.5107   15.5117 H   0  0  0  0  0  0  0  0  0  0  0  0
    3.0690    8.1978   15.9317 H   0  0  0  0  0  0  0  0  0  0  0  0
    4.6724    7.9177   11.9081 H   0  0  0  0  0  0  0  0  0  0  0  0
    5.2569    9.6537    1.5215 H   0  0  0  0  0  0  0  0  0  0  0  0
    6.0894    3.3775   -0.7495 H   0  0  0  0  0  0  0  0  0  0  0  0
  1  2  1  0  0  0  0
  1 44  1  0  0  0  0
  1 45  1  0  0  0  0
  1 46  1  0  0  0  0
  2  3  1  0  0  0  0
  3  4  1  0  0  0  0
  3 42  2  0  0  0  0
  4  5  2  0  0  0  0
  4 47  1  0  0  0  0
  5  6  1  0  0  0  0
  5  8  1  0  0  0  0
  6  7  1  0  0  0  0
  7 48  1  0  0  0  0
  7 49  1  0  0  0  0
  7 50  1  0  0  0  0
  8  9  1  0  0  0  0
  8 41  2  0  0  0  0
  9 10  1  0  0  0  0
  9 51  1  0  0  0  0
 10 11  2  0  0  0  0
 10 12  1  0  0  0  0
 12 13  1  0  0  0  0
 12 52  1  0  0  0  0
 13 14  1  0  0  0  0
 13 40  2  0  0  0  0
 14 15  2  0  0  0  0
 14 53  1  0  0  0  0
 15 16  1  0  0  0  0
 15 54  1  0  0  0  0
 16 17  2  0  0  0  0
 16 20  1  0  0  0  0
 17 18  1  0  0  0  0
 17 40  1  0  0  0  0
 18 19  2  0  0  0  0
 18 55  1  0  0  0  0
 19 20  1  0  0  0  0
 20 21  1  0  0  0  0
 21 22  1  0  0  0  0
 21 39  2  0  0  0  0
 22 23  2  0  0  0  0
 22 56  1  0  0  0  0
 23 24  1  0  0  0  0
 23 57  1  0  0  0  0
 24 25  2  0  0  0  0
 25 26  1  0  0  0  0
 25 39  1  0  0  0  0
 26 27  1  0  0  0  0
 26 58  1  0  0  0  0
 27 28  1  0  0  0  0
 27 38  2  0  0  0  0
 28 29  2  0  0  0  0
 28 59  1  0  0  0  0
 29 30  1  0  0  0  0
 29 32  1  0  0  0  0
 30 31  1  0  0  0  0
 31 60  1  0  0  0  0
 31 61  1  0  0  0  0
 31 62  1  0  0  0  0
 32 33  1  0  0  0  0
 32 35  2  0  0  0  0
 33 34  1  0  0  0  0
 34 63  1  0  0  0  0
 34 64  1  0  0  0  0
 34 65  1  0  0  0  0
 35 36  1  0  0  0  0
 35 38  1  0  0  0  0
 36 37  1  0  0  0  0
 37 66  1  0  0  0  0
 37 67  1  0  0  0  0
 37 68  1  0  0  0  0
 38 69  1  0  0  0  0
 40 70  1  0  0  0  0
 41 42  1  0  0  0  0
 41 71  1  0  0  0  0
 42 43  1  0  0  0  0
M  END
$$$$
