CHEMBL3906253
 OpenBabel04072215373D

 65 69  0  0  0  0  0  0  0  0999 V2000
    5.4048    2.0043   -6.1342 C   0  0  0  0  0  0  0  0  0  0  0  0
    6.4359    2.5794   -5.3309 O   0  0  0  0  0  0  0  0  0  0  0  0
    7.5480    2.9215   -6.0316 C   0  0  0  0  0  0  0  0  0  0  0  0
    7.7141    2.7353   -7.2267 O   0  0  0  0  0  0  0  0  0  0  0  0
    8.5558    3.6070   -5.1722 C   0  0  0  0  0  0  0  0  0  0  0  0
    9.6493    4.1718   -5.8045 C   0  0  0  0  0  0  0  0  0  0  0  0
   10.5454    4.8119   -4.9877 C   0  0  0  0  0  0  0  0  0  0  0  0
   10.4031    4.8921   -3.6560 N   0  0  0  0  0  0  0  0  0  0  0  0
    9.3099    4.3064   -3.1453 C   0  0  0  0  0  0  0  0  0  0  0  0
    9.1885    4.3276   -1.7249 C   0  0  0  0  0  0  0  0  0  0  0  0
    9.0713    4.2612   -0.4280 C   0  0  0  0  0  0  0  0  0  0  0  0
    8.9348    4.1838    1.0839 C   0  0  0  0  0  0  0  0  0  0  0  0
   10.2824    4.1216    1.7105 N   0  0  0  0  0  0  0  0  0  0  0  0
   10.6609    2.7815    2.0698 C   0  0  0  0  0  0  0  0  0  0  0  0
   10.3851    1.6792    1.2369 C   0  0  0  0  0  0  0  0  0  0  0  0
   10.7141    0.3760    1.6200 C   0  0  0  0  0  0  0  0  0  0  0  0
   10.4479   -0.7647    0.9121 O   0  0  0  0  0  0  0  0  0  0  0  0
    9.7240   -0.6284   -0.3038 C   0  0  0  0  0  0  0  0  0  0  0  0
   11.3783    0.1584    2.8261 C   0  0  0  0  0  0  0  0  0  0  0  0
   11.7110    1.2271    3.6528 C   0  0  0  0  0  0  0  0  0  0  0  0
   12.3928    1.1299    4.8369 O   0  0  0  0  0  0  0  0  0  0  0  0
   12.7471   -0.1823    5.2648 C   0  0  0  0  0  0  0  0  0  0  0  0
   11.3381    2.5246    3.2781 C   0  0  0  0  0  0  0  0  0  0  0  0
   11.1303    5.2671    1.8108 C   0  0  0  0  0  0  0  0  0  0  0  0
   12.5165    5.0571    1.8652 C   0  0  0  0  0  0  0  0  0  0  0  0
   13.4191    6.0854    2.0943 C   0  0  0  0  0  0  0  0  0  0  0  0
   13.0022    7.3831    2.2608 C   0  0  0  0  0  0  0  0  0  0  0  0
   13.9671    8.2603    2.5504 N   0  0  0  0  0  0  0  0  0  0  0  0
   13.5778    9.5298    2.7526 C   0  0  0  0  0  0  0  0  0  0  0  0
   12.2620    9.9489    2.6364 C   0  0  0  0  0  0  0  0  0  0  0  0
   11.9836   11.3626    2.9120 C   0  0  0  0  0  0  0  0  0  0  0  0
   12.7555   12.2810    3.6806 C   0  0  0  0  0  0  0  0  0  0  0  0
   12.2668   13.5195    3.6760 N   0  0  0  0  0  0  0  0  0  0  0  0
   11.1647   13.4152    2.9163 N   0  0  0  0  0  0  0  0  0  0  0  0
   10.3551   14.5939    2.7042 C   0  0  0  0  0  0  0  0  0  0  0  0
   10.9614   12.1517    2.4193 C   0  0  0  0  0  0  0  0  0  0  0  0
   11.2709    9.0562    2.3130 N   0  0  0  0  0  0  0  0  0  0  0  0
   11.6303    7.7232    2.1443 C   0  0  0  0  0  0  0  0  0  0  0  0
   10.7246    6.6309    1.9007 C   0  0  0  0  0  0  0  0  0  0  0  0
    8.3602    3.6547   -3.8305 N   0  0  0  0  0  0  0  0  0  0  0  0
    4.5200    1.8617   -5.5077 H   0  0  0  0  0  0  0  0  0  0  0  0
    5.7191    1.0298   -6.5212 H   0  0  0  0  0  0  0  0  0  0  0  0
    5.1358    2.6753   -6.9571 H   0  0  0  0  0  0  0  0  0  0  0  0
    9.7888    4.1193   -6.8761 H   0  0  0  0  0  0  0  0  0  0  0  0
   11.4333    5.2944   -5.3936 H   0  0  0  0  0  0  0  0  0  0  0  0
    8.3036    3.3292    1.3591 H   0  0  0  0  0  0  0  0  0  0  0  0
    8.3951    5.0693    1.4378 H   0  0  0  0  0  0  0  0  0  0  0  0
    9.9317    1.8495    0.2683 H   0  0  0  0  0  0  0  0  0  0  0  0
    9.4310   -1.6318   -0.6282 H   0  0  0  0  0  0  0  0  0  0  0  0
   10.3610   -0.1933   -1.0800 H   0  0  0  0  0  0  0  0  0  0  0  0
    8.8049   -0.0482   -0.1724 H   0  0  0  0  0  0  0  0  0  0  0  0
   11.6263   -0.8653    3.0857 H   0  0  0  0  0  0  0  0  0  0  0  0
   13.3200   -0.0930    6.1920 H   0  0  0  0  0  0  0  0  0  0  0  0
   13.3868   -0.6869    4.5316 H   0  0  0  0  0  0  0  0  0  0  0  0
   11.8518   -0.7755    5.4800 H   0  0  0  0  0  0  0  0  0  0  0  0
   11.5798    3.3457    3.9499 H   0  0  0  0  0  0  0  0  0  0  0  0
   12.9256    4.0558    1.7376 H   0  0  0  0  0  0  0  0  0  0  0  0
   14.4834    5.8551    2.1669 H   0  0  0  0  0  0  0  0  0  0  0  0
   14.3864   10.2009    3.0192 H   0  0  0  0  0  0  0  0  0  0  0  0
   13.6663   12.1038    4.2401 H   0  0  0  0  0  0  0  0  0  0  0  0
   10.7572   15.4241    3.2916 H   0  0  0  0  0  0  0  0  0  0  0  0
    9.3369   14.3757    3.0317 H   0  0  0  0  0  0  0  0  0  0  0  0
   10.3807   14.8509    1.6426 H   0  0  0  0  0  0  0  0  0  0  0  0
   10.1319   11.9347    1.7612 H   0  0  0  0  0  0  0  0  0  0  0  0
    9.6716    6.8903    1.8325 H   0  0  0  0  0  0  0  0  0  0  0  0
  1  2  1  0  0  0  0
  1 41  1  0  0  0  0
  1 42  1  0  0  0  0
  1 43  1  0  0  0  0
  2  3  1  0  0  0  0
  3  4  2  0  0  0  0
  3  5  1  0  0  0  0
  5  6  1  0  0  0  0
  5 40  2  0  0  0  0
  6  7  2  0  0  0  0
  6 44  1  0  0  0  0
  7  8  1  0  0  0  0
  7 45  1  0  0  0  0
  8  9  2  0  0  0  0
  9 10  1  0  0  0  0
  9 40  1  0  0  0  0
 10 11  3  0  0  0  0
 11 12  1  0  0  0  0
 12 13  1  0  0  0  0
 12 46  1  0  0  0  0
 12 47  1  0  0  0  0
 13 14  1  0  0  0  0
 13 24  1  0  0  0  0
 14 15  1  0  0  0  0
 14 23  2  0  0  0  0
 15 16  2  0  0  0  0
 15 48  1  0  0  0  0
 16 17  1  0  0  0  0
 16 19  1  0  0  0  0
 17 18  1  0  0  0  0
 18 49  1  0  0  0  0
 18 50  1  0  0  0  0
 18 51  1  0  0  0  0
 19 20  2  0  0  0  0
 19 52  1  0  0  0  0
 20 21  1  0  0  0  0
 20 23  1  0  0  0  0
 21 22  1  0  0  0  0
 22 53  1  0  0  0  0
 22 54  1  0  0  0  0
 22 55  1  0  0  0  0
 23 56  1  0  0  0  0
 24 25  1  0  0  0  0
 24 39  2  0  0  0  0
 25 26  2  0  0  0  0
 25 57  1  0  0  0  0
 26 27  1  0  0  0  0
 26 58  1  0  0  0  0
 27 28  1  0  0  0  0
 27 38  2  0  0  0  0
 28 29  2  0  0  0  0
 29 30  1  0  0  0  0
 29 59  1  0  0  0  0
 30 31  1  0  0  0  0
 30 37  2  0  0  0  0
 31 32  1  0  0  0  0
 31 36  2  0  0  0  0
 32 33  2  0  0  0  0
 32 60  1  0  0  0  0
 33 34  1  0  0  0  0
 34 35  1  0  0  0  0
 34 36  1  0  0  0  0
 35 61  1  0  0  0  0
 35 62  1  0  0  0  0
 35 63  1  0  0  0  0
 36 64  1  0  0  0  0
 37 38  1  0  0  0  0
 38 39  1  0  0  0  0
 39 65  1  0  0  0  0
M  END
$$$$
