CHEMBL3740788
 OpenBabel04072215373D

 62 66  0  0  0  0  0  0  0  0999 V2000
   -0.8861   -2.3644   -4.7128 C   0  0  0  0  0  0  0  0  0  0  0  0
   -1.8209   -1.6761   -3.7595 C   0  0  0  0  0  0  0  0  0  0  0  0
   -3.1420   -2.1504   -3.6792 C   0  0  0  0  0  0  0  0  0  0  0  0
   -4.0642   -1.5845   -2.7934 C   0  0  0  0  0  0  0  0  0  0  0  0
   -3.7083   -0.5055   -1.9833 C   0  0  0  0  0  0  0  0  0  0  0  0
   -4.6545   -0.0038   -1.0710 N   0  0  0  0  0  0  0  0  0  0  0  0
   -4.7139    1.3059   -0.5791 C   0  0  0  0  0  0  0  0  0  0  0  0
   -5.1689    1.4567    0.6757 N   0  0  0  0  0  0  0  0  0  0  0  0
   -5.1972    2.7122    1.1639 C   0  0  0  0  0  0  0  0  0  0  0  0
   -4.8084    3.8146    0.4438 C   0  0  0  0  0  0  0  0  0  0  0  0
   -4.4155    3.5566   -0.8484 C   0  0  0  0  0  0  0  0  0  0  0  0
   -3.9549    4.5376   -1.7004 O   0  0  0  0  0  0  0  0  0  0  0  0
   -4.6788    5.6883   -1.8859 C   0  0  0  0  0  0  0  0  0  0  0  0
   -3.9701    6.7490   -2.4403 C   0  0  0  0  0  0  0  0  0  0  0  0
   -4.5891    7.9832   -2.6265 C   0  0  0  0  0  0  0  0  0  0  0  0
   -5.8917    8.2323   -2.1416 C   0  0  0  0  0  0  0  0  0  0  0  0
   -6.4930    9.5200   -2.0475 C   0  0  0  0  0  0  0  0  0  0  0  0
   -5.7676   10.8183   -2.2502 C   0  0  0  0  0  0  0  0  0  0  0  0
   -6.3928   11.7508   -2.7276 O   0  0  0  0  0  0  0  0  0  0  0  0
   -4.4496   10.8611   -1.8078 N   0  0  0  0  0  0  0  0  0  0  0  0
   -3.5631   11.9596   -1.8442 C   0  0  0  0  0  0  0  0  0  0  0  0
   -3.9041   13.2308   -2.3119 C   0  0  0  0  0  0  0  0  0  0  0  0
   -2.9654   14.2716   -2.2972 C   0  0  0  0  0  0  0  0  0  0  0  0
   -1.6758   14.0500   -1.8242 C   0  0  0  0  0  0  0  0  0  0  0  0
   -1.3214   12.7865   -1.3601 C   0  0  0  0  0  0  0  0  0  0  0  0
   -2.2590   11.7492   -1.3673 C   0  0  0  0  0  0  0  0  0  0  0  0
   -7.8386    9.6404   -1.6537 C   0  0  0  0  0  0  0  0  0  0  0  0
   -8.5924    8.5157   -1.3378 C   0  0  0  0  0  0  0  0  0  0  0  0
   -7.9954    7.2599   -1.3601 C   0  0  0  0  0  0  0  0  0  0  0  0
   -6.6470    7.1072   -1.7172 C   0  0  0  0  0  0  0  0  0  0  0  0
   -6.0401    5.8430   -1.6287 C   0  0  0  0  0  0  0  0  0  0  0  0
   -4.3385    2.3247   -1.3592 N   0  0  0  0  0  0  0  0  0  0  0  0
   -2.3927   -0.0351   -2.0445 C   0  0  0  0  0  0  0  0  0  0  0  0
   -1.4536   -0.6012   -2.9289 C   0  0  0  0  0  0  0  0  0  0  0  0
    0.2084    0.0624   -2.8666 S   0  0  0  0  0  0  0  0  0  0  0  0
    0.2204    1.3255   -4.1093 C   0  0  0  0  0  0  0  0  0  0  0  0
    0.3741    0.7142   -1.5794 O   0  0  0  0  0  0  0  0  0  0  0  0
    1.1412   -0.9709   -3.2713 O   0  0  0  0  0  0  0  0  0  0  0  0
   -1.4036   -3.1420   -5.2866 H   0  0  0  0  0  0  0  0  0  0  0  0
   -0.0820   -2.8683   -4.1702 H   0  0  0  0  0  0  0  0  0  0  0  0
   -0.4759   -1.6528   -5.4351 H   0  0  0  0  0  0  0  0  0  0  0  0
   -3.4687   -2.9787   -4.3052 H   0  0  0  0  0  0  0  0  0  0  0  0
   -5.0761   -1.9811   -2.7558 H   0  0  0  0  0  0  0  0  0  0  0  0
   -4.8176   -0.6228   -0.2864 H   0  0  0  0  0  0  0  0  0  0  0  0
   -5.5477    2.8025    2.1869 H   0  0  0  0  0  0  0  0  0  0  0  0
   -4.8227    4.8092    0.8741 H   0  0  0  0  0  0  0  0  0  0  0  0
   -2.9309    6.6189   -2.7317 H   0  0  0  0  0  0  0  0  0  0  0  0
   -4.0318    8.7571   -3.1522 H   0  0  0  0  0  0  0  0  0  0  0  0
   -4.0850   10.0295   -1.3639 H   0  0  0  0  0  0  0  0  0  0  0  0
   -4.8971   13.4529   -2.6852 H   0  0  0  0  0  0  0  0  0  0  0  0
   -3.2522   15.2572   -2.6554 H   0  0  0  0  0  0  0  0  0  0  0  0
   -0.9516   14.8599   -1.8156 H   0  0  0  0  0  0  0  0  0  0  0  0
   -0.3150   12.6087   -0.9891 H   0  0  0  0  0  0  0  0  0  0  0  0
   -1.9531   10.7753   -0.9988 H   0  0  0  0  0  0  0  0  0  0  0  0
   -8.2984   10.6249   -1.5780 H   0  0  0  0  0  0  0  0  0  0  0  0
   -9.6346    8.6214   -1.0447 H   0  0  0  0  0  0  0  0  0  0  0  0
   -8.5935    6.3942   -1.0795 H   0  0  0  0  0  0  0  0  0  0  0  0
   -6.6381    4.9888   -1.3253 H   0  0  0  0  0  0  0  0  0  0  0  0
   -2.0864    0.7747   -1.3842 H   0  0  0  0  0  0  0  0  0  0  0  0
   -0.4696    2.1207   -3.8216 H   0  0  0  0  0  0  0  0  0  0  0  0
   -0.0585    0.8932   -5.0711 H   0  0  0  0  0  0  0  0  0  0  0  0
    1.2366    1.7245   -4.1680 H   0  0  0  0  0  0  0  0  0  0  0  0
  1  2  1  0  0  0  0
  1 39  1  0  0  0  0
  1 40  1  0  0  0  0
  1 41  1  0  0  0  0
  2  3  1  0  0  0  0
  2 34  2  0  0  0  0
  3  4  2  0  0  0  0
  3 42  1  0  0  0  0
  4  5  1  0  0  0  0
  4 43  1  0  0  0  0
  5  6  1  0  0  0  0
  5 33  2  0  0  0  0
  6  7  1  0  0  0  0
  6 44  1  0  0  0  0
  7  8  1  0  0  0  0
  7 32  2  0  0  0  0
  8  9  2  0  0  0  0
  9 10  1  0  0  0  0
  9 45  1  0  0  0  0
 10 11  2  0  0  0  0
 10 46  1  0  0  0  0
 11 12  1  0  0  0  0
 11 32  1  0  0  0  0
 12 13  1  0  0  0  0
 13 14  1  0  0  0  0
 13 31  2  0  0  0  0
 14 15  2  0  0  0  0
 14 47  1  0  0  0  0
 15 16  1  0  0  0  0
 15 48  1  0  0  0  0
 16 17  1  0  0  0  0
 16 30  2  0  0  0  0
 17 18  1  0  0  0  0
 17 27  2  0  0  0  0
 18 19  2  0  0  0  0
 18 20  1  0  0  0  0
 20 21  1  0  0  0  0
 20 49  1  0  0  0  0
 21 22  1  0  0  0  0
 21 26  2  0  0  0  0
 22 23  2  0  0  0  0
 22 50  1  0  0  0  0
 23 24  1  0  0  0  0
 23 51  1  0  0  0  0
 24 25  2  0  0  0  0
 24 52  1  0  0  0  0
 25 26  1  0  0  0  0
 25 53  1  0  0  0  0
 26 54  1  0  0  0  0
 27 28  1  0  0  0  0
 27 55  1  0  0  0  0
 28 29  2  0  0  0  0
 28 56  1  0  0  0  0
 29 30  1  0  0  0  0
 29 57  1  0  0  0  0
 30 31  1  0  0  0  0
 31 58  1  0  0  0  0
 33 34  1  0  0  0  0
 33 59  1  0  0  0  0
 34 35  1  0  0  0  0
 35 36  1  0  0  0  0
 35 37  2  0  0  0  0
 35 38  2  0  0  0  0
 36 60  1  0  0  0  0
 36 61  1  0  0  0  0
 36 62  1  0  0  0  0
M  END
$$$$
