CHEMBL3899721
 OpenBabel04072215373D

 60 64  0  0  0  0  0  0  0  0999 V2000
    0.3978   -4.5218    0.2116 C   0  0  0  0  0  0  0  0  0  0  0  0
    1.8064   -4.7851    0.3095 O   0  0  0  0  0  0  0  0  0  0  0  0
    2.6774   -3.7471    0.0415 C   0  0  0  0  0  0  0  0  0  0  0  0
    2.2667   -2.5427   -0.5179 C   0  0  0  0  0  0  0  0  0  0  0  0
    3.2057   -1.5263   -0.7174 C   0  0  0  0  0  0  0  0  0  0  0  0
    2.9390   -0.3529   -1.3739 O   0  0  0  0  0  0  0  0  0  0  0  0
    1.6362   -0.2231   -1.9397 C   0  0  0  0  0  0  0  0  0  0  0  0
    4.5149   -1.6669   -0.2336 C   0  0  0  0  0  0  0  0  0  0  0  0
    4.9717   -2.8464    0.3653 C   0  0  0  0  0  0  0  0  0  0  0  0
    6.2490   -2.9276    0.9954 N   0  0  0  0  0  0  0  0  0  0  0  0
    6.7612   -1.6583    1.8636 C   0  0  0  0  0  0  0  0  0  0  0  0
    5.8076   -1.0094    2.8536 C   0  0  0  0  0  0  0  0  0  0  0  0
    4.9896   -0.4529    3.7027 C   0  0  0  0  0  0  0  0  0  0  0  0
    4.1613    0.1852    4.6834 C   0  0  0  0  0  0  0  0  0  0  0  0
    3.4227   -0.6076    5.5651 C   0  0  0  0  0  0  0  0  0  0  0  0
    2.6428   -0.0061    6.5506 C   0  0  0  0  0  0  0  0  0  0  0  0
    2.6196    1.3753    6.6164 C   0  0  0  0  0  0  0  0  0  0  0  0
    3.3181    2.1757    5.7840 N   0  0  0  0  0  0  0  0  0  0  0  0
    4.0809    1.5715    4.8357 C   0  0  0  0  0  0  0  0  0  0  0  0
    5.0855    2.7435    3.7158 Br  0  0  0  0  0  0  0  0  0  0  0  0
    7.4145   -3.6671    0.5183 C   0  0  0  0  0  0  0  0  0  0  0  0
    8.1655   -4.2277    1.5257 C   0  0  0  0  0  0  0  0  0  0  0  0
    9.5224   -4.3916    1.3016 C   0  0  0  0  0  0  0  0  0  0  0  0
   10.1294   -4.1789    0.1291 C   0  0  0  0  0  0  0  0  0  0  0  0
   11.4433   -4.0991    0.3023 N   0  0  0  0  0  0  0  0  0  0  0  0
   12.2057   -4.3648   -0.7569 C   0  0  0  0  0  0  0  0  0  0  0  0
   11.6601   -4.7430   -1.9453 C   0  0  0  0  0  0  0  0  0  0  0  0
   12.5698   -5.3652   -2.9151 C   0  0  0  0  0  0  0  0  0  0  0  0
   12.7026   -6.7008   -3.3843 C   0  0  0  0  0  0  0  0  0  0  0  0
   13.7076   -6.8462   -4.2596 N   0  0  0  0  0  0  0  0  0  0  0  0
   14.2352   -5.6125   -4.3304 N   0  0  0  0  0  0  0  0  0  0  0  0
   15.0122   -5.2000   -5.4783 C   0  0  0  0  0  0  0  0  0  0  0  0
   13.7468   -4.7766   -3.3614 C   0  0  0  0  0  0  0  0  0  0  0  0
   10.2665   -4.5793   -2.1716 N   0  0  0  0  0  0  0  0  0  0  0  0
    9.4175   -4.2003   -1.0593 C   0  0  0  0  0  0  0  0  0  0  0  0
    7.9677   -3.7969   -0.8065 C   0  0  0  0  0  0  0  0  0  0  0  0
    4.0417   -3.9280    0.3801 C   0  0  0  0  0  0  0  0  0  0  0  0
   -0.1462   -5.3438    0.6921 H   0  0  0  0  0  0  0  0  0  0  0  0
    0.0818   -4.4887   -0.8375 H   0  0  0  0  0  0  0  0  0  0  0  0
    0.0957   -3.6026    0.7314 H   0  0  0  0  0  0  0  0  0  0  0  0
    1.2356   -2.3972   -0.8039 H   0  0  0  0  0  0  0  0  0  0  0  0
    1.6092    0.6974   -2.5280 H   0  0  0  0  0  0  0  0  0  0  0  0
    0.8865   -0.1391   -1.1459 H   0  0  0  0  0  0  0  0  0  0  0  0
    1.3962   -1.0519   -2.6179 H   0  0  0  0  0  0  0  0  0  0  0  0
    5.1962   -0.8323   -0.3454 H   0  0  0  0  0  0  0  0  0  0  0  0
    7.0418   -0.9082    1.1134 H   0  0  0  0  0  0  0  0  0  0  0  0
    7.6735   -1.9281    2.4057 H   0  0  0  0  0  0  0  0  0  0  0  0
    3.4584   -1.6922    5.4951 H   0  0  0  0  0  0  0  0  0  0  0  0
    2.0703   -0.6022    7.2531 H   0  0  0  0  0  0  0  0  0  0  0  0
    2.0250    1.8928    7.3651 H   0  0  0  0  0  0  0  0  0  0  0  0
    7.7547   -4.4432    2.5113 H   0  0  0  0  0  0  0  0  0  0  0  0
   10.1495   -4.7029    2.1537 H   0  0  0  0  0  0  0  0  0  0  0  0
   13.2680   -4.3526   -0.5380 H   0  0  0  0  0  0  0  0  0  0  0  0
   12.1131   -7.5775   -3.1448 H   0  0  0  0  0  0  0  0  0  0  0  0
   15.1249   -6.0341   -6.1764 H   0  0  0  0  0  0  0  0  0  0  0  0
   15.9883   -4.8354   -5.1520 H   0  0  0  0  0  0  0  0  0  0  0  0
   14.4578   -4.3915   -5.9665 H   0  0  0  0  0  0  0  0  0  0  0  0
   14.2055   -3.8144   -3.1847 H   0  0  0  0  0  0  0  0  0  0  0  0
    7.3411   -3.5842   -1.6725 H   0  0  0  0  0  0  0  0  0  0  0  0
    4.3519   -4.9198    0.7018 H   0  0  0  0  0  0  0  0  0  0  0  0
  1  2  1  0  0  0  0
  1 38  1  0  0  0  0
  1 39  1  0  0  0  0
  1 40  1  0  0  0  0
  2  3  1  0  0  0  0
  3  4  1  0  0  0  0
  3 37  2  0  0  0  0
  4  5  2  0  0  0  0
  4 41  1  0  0  0  0
  5  6  1  0  0  0  0
  5  8  1  0  0  0  0
  6  7  1  0  0  0  0
  7 42  1  0  0  0  0
  7 43  1  0  0  0  0
  7 44  1  0  0  0  0
  8  9  2  0  0  0  0
  8 45  1  0  0  0  0
  9 10  1  0  0  0  0
  9 37  1  0  0  0  0
 10 11  1  0  0  0  0
 10 21  1  0  0  0  0
 11 12  1  0  0  0  0
 11 46  1  0  0  0  0
 11 47  1  0  0  0  0
 12 13  3  0  0  0  0
 13 14  1  0  0  0  0
 14 15  1  0  0  0  0
 14 19  2  0  0  0  0
 15 16  2  0  0  0  0
 15 48  1  0  0  0  0
 16 17  1  0  0  0  0
 16 49  1  0  0  0  0
 17 18  2  0  0  0  0
 17 50  1  0  0  0  0
 18 19  1  0  0  0  0
 19 20  1  0  0  0  0
 21 22  1  0  0  0  0
 21 36  2  0  0  0  0
 22 23  2  0  0  0  0
 22 51  1  0  0  0  0
 23 24  1  0  0  0  0
 23 52  1  0  0  0  0
 24 25  1  0  0  0  0
 24 35  2  0  0  0  0
 25 26  2  0  0  0  0
 26 27  1  0  0  0  0
 26 53  1  0  0  0  0
 27 28  1  0  0  0  0
 27 34  2  0  0  0  0
 28 29  1  0  0  0  0
 28 33  2  0  0  0  0
 29 30  2  0  0  0  0
 29 54  1  0  0  0  0
 30 31  1  0  0  0  0
 31 32  1  0  0  0  0
 31 33  1  0  0  0  0
 32 55  1  0  0  0  0
 32 56  1  0  0  0  0
 32 57  1  0  0  0  0
 33 58  1  0  0  0  0
 34 35  1  0  0  0  0
 35 36  1  0  0  0  0
 36 59  1  0  0  0  0
 37 60  1  0  0  0  0
M  END
$$$$
