CHEMBL306295
 OpenBabel04072215363D

 41 44  0  0  0  0  0  0  0  0999 V2000
    2.6397    4.2335   -0.5725 O   0  0  0  0  0  0  0  0  0  0  0  0
    1.3392    4.2884   -0.9769 C   0  0  0  0  0  0  0  0  0  0  0  0
    0.9397    5.1204   -2.0128 C   0  0  0  0  0  0  0  0  0  0  0  0
   -0.3997    5.1350   -2.3822 C   0  0  0  0  0  0  0  0  0  0  0  0
   -1.3276    4.3421   -1.6986 C   0  0  0  0  0  0  0  0  0  0  0  0
   -0.9405    3.5112   -0.6399 C   0  0  0  0  0  0  0  0  0  0  0  0
   -1.8372    2.8006    0.1852 N   0  0  0  0  0  0  0  0  0  0  0  0
   -3.2436    2.6631    0.1394 C   0  0  0  0  0  0  0  0  0  0  0  0
   -3.9371    3.2966   -0.8281 N   0  0  0  0  0  0  0  0  0  0  0  0
   -5.2957    3.2801   -0.8622 N   0  0  0  0  0  0  0  0  0  0  0  0
   -5.9881    2.5888    0.0655 C   0  0  0  0  0  0  0  0  0  0  0  0
   -7.4789    2.8207    0.0106 C   0  0  0  0  0  0  0  0  0  0  0  0
   -7.9360    3.9071    0.9635 C   0  0  0  0  0  0  0  0  0  0  0  0
   -7.4956    5.2287    0.8115 C   0  0  0  0  0  0  0  0  0  0  0  0
   -7.8796    6.1749    1.7496 C   0  0  0  0  0  0  0  0  0  0  0  0
   -8.6759    5.9036    2.8048 N   0  0  0  0  0  0  0  0  0  0  0  0
   -9.1098    4.6312    2.9217 C   0  0  0  0  0  0  0  0  0  0  0  0
   -8.7788    3.6140    2.0381 C   0  0  0  0  0  0  0  0  0  0  0  0
   -5.3397    1.8425    1.0648 C   0  0  0  0  0  0  0  0  0  0  0  0
   -6.0202    1.0262    2.0025 C   0  0  0  0  0  0  0  0  0  0  0  0
   -5.3472    0.3527    3.0235 C   0  0  0  0  0  0  0  0  0  0  0  0
   -3.9782    0.5076    3.1574 C   0  0  0  0  0  0  0  0  0  0  0  0
   -3.2787    1.2838    2.2344 C   0  0  0  0  0  0  0  0  0  0  0  0
   -3.9257    1.9345    1.1454 C   0  0  0  0  0  0  0  0  0  0  0  0
    0.4204    3.4909   -0.2991 C   0  0  0  0  0  0  0  0  0  0  0  0
    3.1513    4.8747   -1.0944 H   0  0  0  0  0  0  0  0  0  0  0  0
    1.6432    5.7597   -2.5343 H   0  0  0  0  0  0  0  0  0  0  0  0
   -0.7395    5.7757   -3.1924 H   0  0  0  0  0  0  0  0  0  0  0  0
   -2.3595    4.3999   -2.0268 H   0  0  0  0  0  0  0  0  0  0  0  0
   -1.3794    2.0564    0.6906 H   0  0  0  0  0  0  0  0  0  0  0  0
   -8.0213    1.8857    0.1845 H   0  0  0  0  0  0  0  0  0  0  0  0
   -7.7607    3.1250   -1.0072 H   0  0  0  0  0  0  0  0  0  0  0  0
   -6.8451    5.5191   -0.0090 H   0  0  0  0  0  0  0  0  0  0  0  0
   -7.5382    7.2039    1.6778 H   0  0  0  0  0  0  0  0  0  0  0  0
   -9.7482    4.4398    3.7793 H   0  0  0  0  0  0  0  0  0  0  0  0
   -9.1658    2.6145    2.2006 H   0  0  0  0  0  0  0  0  0  0  0  0
   -7.0953    0.8778    1.9366 H   0  0  0  0  0  0  0  0  0  0  0  0
   -5.8927   -0.2800    3.7179 H   0  0  0  0  0  0  0  0  0  0  0  0
   -3.4469    0.0235    3.9740 H   0  0  0  0  0  0  0  0  0  0  0  0
   -2.2086    1.3832    2.3904 H   0  0  0  0  0  0  0  0  0  0  0  0
    0.7776    2.8675    0.5161 H   0  0  0  0  0  0  0  0  0  0  0  0
  1  2  1  0  0  0  0
  1 26  1  0  0  0  0
  2  3  1  0  0  0  0
  2 25  2  0  0  0  0
  3  4  2  0  0  0  0
  3 27  1  0  0  0  0
  4  5  1  0  0  0  0
  4 28  1  0  0  0  0
  5  6  2  0  0  0  0
  5 29  1  0  0  0  0
  6  7  1  0  0  0  0
  6 25  1  0  0  0  0
  7  8  1  0  0  0  0
  7 30  1  0  0  0  0
  8  9  1  0  0  0  0
  8 24  2  0  0  0  0
  9 10  2  0  0  0  0
 10 11  1  0  0  0  0
 11 12  1  0  0  0  0
 11 19  2  0  0  0  0
 12 13  1  0  0  0  0
 12 31  1  0  0  0  0
 12 32  1  0  0  0  0
 13 14  1  0  0  0  0
 13 18  2  0  0  0  0
 14 15  2  0  0  0  0
 14 33  1  0  0  0  0
 15 16  1  0  0  0  0
 15 34  1  0  0  0  0
 16 17  2  0  0  0  0
 17 18  1  0  0  0  0
 17 35  1  0  0  0  0
 18 36  1  0  0  0  0
 19 20  1  0  0  0  0
 19 24  1  0  0  0  0
 20 21  2  0  0  0  0
 20 37  1  0  0  0  0
 21 22  1  0  0  0  0
 21 38  1  0  0  0  0
 22 23  2  0  0  0  0
 22 39  1  0  0  0  0
 23 24  1  0  0  0  0
 23 40  1  0  0  0  0
 25 41  1  0  0  0  0
M  END
$$$$
