CHEMBL3907230
 OpenBabel04072215373D

 56 60  0  0  1  0  0  0  0  0999 V2000
    1.0137    1.6708    7.6512 C   0  0  0  0  0  0  0  0  0  0  0  0
    1.5348    3.0474    7.2886 C   0  0  0  0  0  0  0  0  0  0  0  0
    2.3404    2.9569    6.1091 O   0  0  0  0  0  0  0  0  0  0  0  0
    2.7700    4.2450    5.6329 C   0  0  1  0  0  0  0  0  0  0  0  0
    3.8417    4.8568    6.5322 C   0  0  0  0  0  0  0  0  0  0  0  0
    5.1267    4.7046    5.9187 O   0  0  0  0  0  0  0  0  0  0  0  0
    4.9634    4.1131    4.6202 C   0  0  2  0  0  0  0  0  0  0  0  0
    5.5970    5.0346    3.5749 C   0  0  1  0  0  0  0  0  0  0  0  0
    6.6721    4.4427    2.8369 O   0  0  0  0  0  0  0  0  0  0  0  0
    7.8041    4.0833    3.5199 C   0  0  0  0  0  0  0  0  0  0  0  0
    8.1942    4.6922    4.7235 C   0  0  0  0  0  0  0  0  0  0  0  0
    9.2894    4.2656    5.4651 C   0  0  0  0  0  0  0  0  0  0  0  0
    9.5587    4.8937    6.6138 N   0  0  0  0  0  0  0  0  0  0  0  0
   10.5759    4.4198    7.3378 C   0  0  0  0  0  0  0  0  0  0  0  0
   11.3503    3.3817    7.0164 N   0  0  0  0  0  0  0  0  0  0  0  0
   11.0854    2.7622    5.8522 C   0  0  0  0  0  0  0  0  0  0  0  0
   11.8598    1.6350    5.4935 N   0  0  0  0  0  0  0  0  0  0  0  0
   12.4797    0.6765    6.3201 C   0  0  0  0  0  0  0  0  0  0  0  0
   13.3002   -0.2962    5.7309 C   0  0  0  0  0  0  0  0  0  0  0  0
   13.7568   -1.3982    6.4631 C   0  0  0  0  0  0  0  0  0  0  0  0
   13.3954   -1.5491    7.8032 C   0  0  0  0  0  0  0  0  0  0  0  0
   13.9437   -3.1359    8.6896 Br  0  0  0  0  0  0  0  0  0  0  0  0
   12.6173   -0.5687    8.4203 C   0  0  0  0  0  0  0  0  0  0  0  0
   12.1377   -0.6640   10.0790 Cl  0  0  0  0  0  0  0  0  0  0  0  0
   12.1631    0.5283    7.6778 C   0  0  0  0  0  0  0  0  0  0  0  0
   10.0406    3.1834    5.0025 C   0  0  0  0  0  0  0  0  0  0  0  0
    9.6795    2.5820    3.7666 C   0  0  0  0  0  0  0  0  0  0  0  0
    8.5962    3.0498    3.0086 C   0  0  0  0  0  0  0  0  0  0  0  0
    8.4133    2.3491    1.8447 O   0  0  0  0  0  0  0  0  0  0  0  0
    7.7164    2.9976    0.7863 C   0  0  0  0  0  0  0  0  0  0  0  0
    4.4341    5.3115    2.6294 C   0  0  0  0  0  0  0  0  0  0  0  0
    3.2462    5.2069    3.4263 O   0  0  0  0  0  0  0  0  0  0  0  0
    3.4790    4.0868    4.3008 C   0  0  2  0  0  0  0  0  0  0  0  0
    0.4985    1.6979    8.6166 H   0  0  0  0  0  0  0  0  0  0  0  0
    1.8314    0.9453    7.7072 H   0  0  0  0  0  0  0  0  0  0  0  0
    0.3118    1.3114    6.8924 H   0  0  0  0  0  0  0  0  0  0  0  0
    2.1345    3.4226    8.1224 H   0  0  0  0  0  0  0  0  0  0  0  0
    0.6942    3.7302    7.1228 H   0  0  0  0  0  0  0  0  0  0  0  0
    1.8944    4.8992    5.5496 H   0  0  0  0  0  0  0  0  0  0  0  0
    3.9064    4.3908    7.5178 H   0  0  0  0  0  0  0  0  0  0  0  0
    3.6666    5.9281    6.6696 H   0  0  0  0  0  0  0  0  0  0  0  0
    5.3930    3.1075    4.6569 H   0  0  0  0  0  0  0  0  0  0  0  0
    5.9120    5.9952    4.0012 H   0  0  0  0  0  0  0  0  0  0  0  0
    7.6329    5.5295    5.1346 H   0  0  0  0  0  0  0  0  0  0  0  0
   10.7872    4.9189    8.2762 H   0  0  0  0  0  0  0  0  0  0  0  0
   12.2952    1.7588    4.5878 H   0  0  0  0  0  0  0  0  0  0  0  0
   13.5654   -0.2273    4.6783 H   0  0  0  0  0  0  0  0  0  0  0  0
   14.3654   -2.1504    5.9668 H   0  0  0  0  0  0  0  0  0  0  0  0
   11.5228    1.2540    8.1714 H   0  0  0  0  0  0  0  0  0  0  0  0
   10.2389    1.7279    3.3936 H   0  0  0  0  0  0  0  0  0  0  0  0
    7.9083    2.4324   -0.1318 H   0  0  0  0  0  0  0  0  0  0  0  0
    8.0741    4.0201    0.6220 H   0  0  0  0  0  0  0  0  0  0  0  0
    6.6364    2.9682    0.9559 H   0  0  0  0  0  0  0  0  0  0  0  0
    4.3834    4.5859    1.8086 H   0  0  0  0  0  0  0  0  0  0  0  0
    4.4910    6.3119    2.1893 H   0  0  0  0  0  0  0  0  0  0  0  0
    3.1953    3.1769    3.7591 H   0  0  0  0  0  0  0  0  0  0  0  0
  1  2  1  0  0  0  0
  1 34  1  0  0  0  0
  1 35  1  0  0  0  0
  1 36  1  0  0  0  0
  2  3  1  0  0  0  0
  2 37  1  0  0  0  0
  2 38  1  0  0  0  0
  4  5  1  0  0  0  0
  4 33  1  0  0  0  0
  4  3  1  0  0  0  0
  4 39  1  6  0  0  0
  5  6  1  0  0  0  0
  5 40  1  0  0  0  0
  5 41  1  0  0  0  0
  6  7  1  0  0  0  0
  7  8  1  0  0  0  0
  7 33  1  0  0  0  0
  7 42  1  6  0  0  0
  8  9  1  0  0  0  0
  8 31  1  0  0  0  0
  8 43  1  1  0  0  0
  9 10  1  0  0  0  0
 10 11  1  0  0  0  0
 10 28  2  0  0  0  0
 11 12  2  0  0  0  0
 11 44  1  0  0  0  0
 12 13  1  0  0  0  0
 12 26  1  0  0  0  0
 13 14  2  0  0  0  0
 14 15  1  0  0  0  0
 14 45  1  0  0  0  0
 15 16  2  0  0  0  0
 16 17  1  0  0  0  0
 16 26  1  0  0  0  0
 17 18  1  0  0  0  0
 17 46  1  0  0  0  0
 18 19  1  0  0  0  0
 18 25  2  0  0  0  0
 19 20  2  0  0  0  0
 19 47  1  0  0  0  0
 20 21  1  0  0  0  0
 20 48  1  0  0  0  0
 21 22  1  0  0  0  0
 21 23  2  0  0  0  0
 23 24  1  0  0  0  0
 23 25  1  0  0  0  0
 25 49  1  0  0  0  0
 26 27  2  0  0  0  0
 27 28  1  0  0  0  0
 27 50  1  0  0  0  0
 28 29  1  0  0  0  0
 29 30  1  0  0  0  0
 30 51  1  0  0  0  0
 30 52  1  0  0  0  0
 30 53  1  0  0  0  0
 31 32  1  0  0  0  0
 31 54  1  0  0  0  0
 31 55  1  0  0  0  0
 32 33  1  0  0  0  0
 33 56  1  6  0  0  0
M  END
$$$$
