CHEMBL521201
 OpenBabel04072215383D

 47 50  0  0  0  0  0  0  0  0999 V2000
    7.4172   -1.4037   -1.3585 C   0  0  0  0  0  0  0  0  0  0  0  0
    6.4627   -1.7085   -0.3534 O   0  0  0  0  0  0  0  0  0  0  0  0
    5.2084   -2.0845   -0.7541 C   0  0  0  0  0  0  0  0  0  0  0  0
    4.9184   -2.4822   -2.0685 C   0  0  0  0  0  0  0  0  0  0  0  0
    3.6325   -2.9223   -2.4191 C   0  0  0  0  0  0  0  0  0  0  0  0
    3.3473   -3.3235   -3.7963 C   0  0  0  0  0  0  0  0  0  0  0  0
    3.4792   -4.5526   -4.3340 C   0  0  0  0  0  0  0  0  0  0  0  0
    4.0563   -5.7141   -3.7732 C   0  0  0  0  0  0  0  0  0  0  0  0
    3.8384   -6.1909   -2.4991 C   0  0  0  0  0  0  0  0  0  0  0  0
    4.6667   -7.2711   -2.3600 N   0  0  0  0  0  0  0  0  0  0  0  0
    5.7315   -7.1011   -3.2097 C   0  0  0  0  0  0  0  0  0  0  0  0
    7.0711   -7.4872   -3.1376 C   0  0  0  0  0  0  0  0  0  0  0  0
    7.8510   -7.2472   -4.2730 C   0  0  0  0  0  0  0  0  0  0  0  0
    7.2738   -6.7896   -5.4581 C   0  0  0  0  0  0  0  0  0  0  0  0
    5.9368   -6.3843   -5.4931 C   0  0  0  0  0  0  0  0  0  0  0  0
    5.1980   -6.4130   -4.2967 C   0  0  0  0  0  0  0  0  0  0  0  0
    3.1165   -4.3925   -5.7791 C   0  0  0  0  0  0  0  0  0  0  0  0
    3.0355   -5.2810   -6.6169 O   0  0  0  0  0  0  0  0  0  0  0  0
    2.8550   -3.0691   -5.9891 N   0  0  0  0  0  0  0  0  0  0  0  0
    3.0135   -2.2960   -4.8049 C   0  0  0  0  0  0  0  0  0  0  0  0
    2.6347   -2.9679   -1.4477 C   0  0  0  0  0  0  0  0  0  0  0  0
    2.9152   -2.6038   -0.1242 C   0  0  0  0  0  0  0  0  0  0  0  0
    1.9610   -2.6220    0.8673 O   0  0  0  0  0  0  0  0  0  0  0  0
    1.0579   -3.7215    0.8174 C   0  0  0  0  0  0  0  0  0  0  0  0
    4.1959   -2.1290    0.2269 C   0  0  0  0  0  0  0  0  0  0  0  0
    4.3505   -1.8035    1.5567 O   0  0  0  0  0  0  0  0  0  0  0  0
    5.2543   -0.7491    1.8729 C   0  0  0  0  0  0  0  0  0  0  0  0
    8.3160   -1.0114   -0.8669 H   0  0  0  0  0  0  0  0  0  0  0  0
    7.0459   -0.6260   -2.0361 H   0  0  0  0  0  0  0  0  0  0  0  0
    7.7077   -2.3004   -1.9166 H   0  0  0  0  0  0  0  0  0  0  0  0
    5.6908   -2.5089   -2.8317 H   0  0  0  0  0  0  0  0  0  0  0  0
    3.1694   -5.8911   -1.7044 H   0  0  0  0  0  0  0  0  0  0  0  0
    4.4963   -8.0833   -1.7815 H   0  0  0  0  0  0  0  0  0  0  0  0
    7.5093   -7.8635   -2.2192 H   0  0  0  0  0  0  0  0  0  0  0  0
    8.9224   -7.4296   -4.2369 H   0  0  0  0  0  0  0  0  0  0  0  0
    7.8795   -6.6885   -6.3540 H   0  0  0  0  0  0  0  0  0  0  0  0
    5.5081   -5.9810   -6.4047 H   0  0  0  0  0  0  0  0  0  0  0  0
    2.5961   -2.7323   -6.9053 H   0  0  0  0  0  0  0  0  0  0  0  0
    2.0871   -1.7526   -4.5982 H   0  0  0  0  0  0  0  0  0  0  0  0
    3.8389   -1.5844   -4.9608 H   0  0  0  0  0  0  0  0  0  0  0  0
    1.6357   -3.2884   -1.7285 H   0  0  0  0  0  0  0  0  0  0  0  0
    0.5843   -3.8124    1.8006 H   0  0  0  0  0  0  0  0  0  0  0  0
    1.5735   -4.6652    0.6064 H   0  0  0  0  0  0  0  0  0  0  0  0
    0.2680   -3.5347    0.0840 H   0  0  0  0  0  0  0  0  0  0  0  0
    4.9697   -0.3522    2.8522 H   0  0  0  0  0  0  0  0  0  0  0  0
    5.2023    0.0769    1.1559 H   0  0  0  0  0  0  0  0  0  0  0  0
    6.2739   -1.1338    1.9708 H   0  0  0  0  0  0  0  0  0  0  0  0
  1  2  1  0  0  0  0
  1 28  1  0  0  0  0
  1 29  1  0  0  0  0
  1 30  1  0  0  0  0
  2  3  1  0  0  0  0
  3  4  1  0  0  0  0
  3 25  2  0  0  0  0
  4  5  2  0  0  0  0
  4 31  1  0  0  0  0
  5  6  1  0  0  0  0
  5 21  1  0  0  0  0
  6  7  2  0  0  0  0
  6 20  1  0  0  0  0
  7  8  1  0  0  0  0
  7 17  1  0  0  0  0
  8  9  2  0  0  0  0
  8 16  1  0  0  0  0
  9 10  1  0  0  0  0
  9 32  1  0  0  0  0
 10 11  1  0  0  0  0
 10 33  1  0  0  0  0
 11 12  1  0  0  0  0
 11 16  2  0  0  0  0
 12 13  2  0  0  0  0
 12 34  1  0  0  0  0
 13 14  1  0  0  0  0
 13 35  1  0  0  0  0
 14 15  2  0  0  0  0
 14 36  1  0  0  0  0
 15 16  1  0  0  0  0
 15 37  1  0  0  0  0
 17 18  2  0  0  0  0
 17 19  1  0  0  0  0
 19 20  1  0  0  0  0
 19 38  1  0  0  0  0
 20 39  1  0  0  0  0
 20 40  1  0  0  0  0
 21 22  2  0  0  0  0
 21 41  1  0  0  0  0
 22 23  1  0  0  0  0
 22 25  1  0  0  0  0
 23 24  1  0  0  0  0
 24 42  1  0  0  0  0
 24 43  1  0  0  0  0
 24 44  1  0  0  0  0
 25 26  1  0  0  0  0
 26 27  1  0  0  0  0
 27 45  1  0  0  0  0
 27 46  1  0  0  0  0
 27 47  1  0  0  0  0
M  END
$$$$
