CHEMBL3945264
 OpenBabel04072215373D

 72 75  0  0  0  0  0  0  0  0999 V2000
    0.3756    1.5522    0.0979 C   0  0  0  0  0  0  0  0  0  0  0  0
    1.6537    1.8824   -0.2951 O   0  0  0  0  0  0  0  0  0  0  0  0
    2.6686    2.2797    0.5192 C   0  0  0  0  0  0  0  0  0  0  0  0
    2.5466    2.3496    1.8895 C   0  0  0  0  0  0  0  0  0  0  0  0
    3.6156    2.7882    2.6834 C   0  0  0  0  0  0  0  0  0  0  0  0
    3.4537    2.8614    4.0367 O   0  0  0  0  0  0  0  0  0  0  0  0
    2.3182    2.4745    4.7319 C   0  0  0  0  0  0  0  0  0  0  0  0
    4.8670    3.1514    2.0739 C   0  0  0  0  0  0  0  0  0  0  0  0
    5.9864    3.5806    3.0108 C   0  0  0  0  0  0  0  0  0  0  0  0
    5.0192    3.0534    0.6282 C   0  0  0  0  0  0  0  0  0  0  0  0
    6.2555    3.3829   -0.1215 N   0  0  0  0  0  0  0  0  0  0  0  0
    6.7807    2.6097   -1.3045 C   0  0  0  0  0  0  0  0  0  0  0  0
    5.7469    2.1283   -2.3224 C   0  0  0  0  0  0  0  0  0  0  0  0
    6.2118    1.5252   -3.6552 C   0  0  0  0  0  0  0  0  0  0  0  0
    5.0887    0.9990   -4.4865 N   0  0  0  0  0  0  0  0  0  0  0  0
    4.0454    1.9469   -4.9235 C   0  0  0  0  0  0  0  0  0  0  0  0
    2.9379    1.8851   -3.8845 C   0  0  0  0  0  0  0  0  0  0  0  0
    2.9842    0.4533   -3.3728 C   0  0  0  0  0  0  0  0  0  0  0  0
    4.3258   -0.1051   -3.8791 C   0  0  0  0  0  0  0  0  0  0  0  0
    7.0205    4.5626    0.2097 C   0  0  0  0  0  0  0  0  0  0  0  0
    6.3954    5.7192    0.7211 C   0  0  0  0  0  0  0  0  0  0  0  0
    7.1393    6.8698    1.0130 C   0  0  0  0  0  0  0  0  0  0  0  0
    8.5152    6.8915    0.7814 C   0  0  0  0  0  0  0  0  0  0  0  0
    9.2544    8.0019    1.0445 N   0  0  0  0  0  0  0  0  0  0  0  0
   10.5920    8.0341    0.8096 C   0  0  0  0  0  0  0  0  0  0  0  0
   11.2346    6.9011    0.2744 C   0  0  0  0  0  0  0  0  0  0  0  0
   12.6823    6.8853   -0.0107 C   0  0  0  0  0  0  0  0  0  0  0  0
   13.4044    5.8402   -0.5648 C   0  0  0  0  0  0  0  0  0  0  0  0
   14.7021    6.2059   -0.6542 N   0  0  0  0  0  0  0  0  0  0  0  0
   14.8088    7.4325   -0.1827 N   0  0  0  0  0  0  0  0  0  0  0  0
   16.0619    8.1698   -0.1021 C   0  0  0  0  0  0  0  0  0  0  0  0
   13.6069    7.8874    0.2192 C   0  0  0  0  0  0  0  0  0  0  0  0
   10.4909    5.7922    0.0160 N   0  0  0  0  0  0  0  0  0  0  0  0
    9.1552    5.7584    0.2543 C   0  0  0  0  0  0  0  0  0  0  0  0
    8.4191    4.6083   -0.0207 C   0  0  0  0  0  0  0  0  0  0  0  0
    3.8656    2.6338   -0.0658 C   0  0  0  0  0  0  0  0  0  0  0  0
    1.9120   -2.1002    1.6669 Cl  0  0  0  0  0  0  0  0  0  0  0  0
   -0.2135    1.2664   -0.7973 H   0  0  0  0  0  0  0  0  0  0  0  0
   -0.1066    2.4301    0.5768 H   0  0  0  0  0  0  0  0  0  0  0  0
    0.3947    0.6915    0.7996 H   0  0  0  0  0  0  0  0  0  0  0  0
    1.6045    2.0706    2.3343 H   0  0  0  0  0  0  0  0  0  0  0  0
    2.4571    2.6573    5.8147 H   0  0  0  0  0  0  0  0  0  0  0  0
    2.1290    1.3888    4.5767 H   0  0  0  0  0  0  0  0  0  0  0  0
    1.4314    3.0562    4.3930 H   0  0  0  0  0  0  0  0  0  0  0  0
    5.6778    3.5703    4.0768 H   0  0  0  0  0  0  0  0  0  0  0  0
    6.3073    4.6195    2.8611 H   0  0  0  0  0  0  0  0  0  0  0  0
    6.8550    2.9022    2.9132 H   0  0  0  0  0  0  0  0  0  0  0  0
    7.4031    1.7552   -0.9606 H   0  0  0  0  0  0  0  0  0  0  0  0
    7.4358    3.2683   -1.9158 H   0  0  0  0  0  0  0  0  0  0  0  0
    5.1854    3.0378   -2.6012 H   0  0  0  0  0  0  0  0  0  0  0  0
    5.2002    1.3083   -1.8216 H   0  0  0  0  0  0  0  0  0  0  0  0
    6.9174    0.6893   -3.4565 H   0  0  0  0  0  0  0  0  0  0  0  0
    6.7697    2.2890   -4.2400 H   0  0  0  0  0  0  0  0  0  0  0  0
    3.6149    1.5539   -5.8706 H   0  0  0  0  0  0  0  0  0  0  0  0
    4.4185    2.9767   -5.1124 H   0  0  0  0  0  0  0  0  0  0  0  0
    1.9354    2.2631   -4.1736 H   0  0  0  0  0  0  0  0  0  0  0  0
    3.2293    2.5484   -3.0731 H   0  0  0  0  0  0  0  0  0  0  0  0
    2.1568   -0.1555   -3.7958 H   0  0  0  0  0  0  0  0  0  0  0  0
    2.9028    0.4467   -2.2627 H   0  0  0  0  0  0  0  0  0  0  0  0
    4.0833   -0.8040   -4.7106 H   0  0  0  0  0  0  0  0  0  0  0  0
    4.8854   -0.6999   -3.1248 H   0  0  0  0  0  0  0  0  0  0  0  0
    5.3271    5.7313    0.8948 H   0  0  0  0  0  0  0  0  0  0  0  0
    6.6397    7.7425    1.4137 H   0  0  0  0  0  0  0  0  0  0  0  0
   11.1422    8.9364    1.0299 H   0  0  0  0  0  0  0  0  0  0  0  0
   13.0152    4.8821   -0.8781 H   0  0  0  0  0  0  0  0  0  0  0  0
   16.8973    7.5528   -0.4984 H   0  0  0  0  0  0  0  0  0  0  0  0
   16.2722    8.4268    0.9580 H   0  0  0  0  0  0  0  0  0  0  0  0
   15.9840    9.1022   -0.6983 H   0  0  0  0  0  0  0  0  0  0  0  0
   13.4275    8.8622    0.6445 H   0  0  0  0  0  0  0  0  0  0  0  0
    8.9532    3.7513   -0.4127 H   0  0  0  0  0  0  0  0  0  0  0  0
    3.8061    2.5987   -1.0977 H   0  0  0  0  0  0  0  0  0  0  0  0
    2.1170   -1.9059    0.3207 H   0  0  0  0  0  0  0  0  0  0  0  0
  1  2  1  0  0  0  0
  1 38  1  0  0  0  0
  1 39  1  0  0  0  0
  1 40  1  0  0  0  0
  2  3  1  0  0  0  0
  3  4  1  0  0  0  0
  3 36  2  0  0  0  0
  4  5  2  0  0  0  0
  4 41  1  0  0  0  0
  5  6  1  0  0  0  0
  5  8  1  0  0  0  0
  6  7  1  0  0  0  0
  7 42  1  0  0  0  0
  7 43  1  0  0  0  0
  7 44  1  0  0  0  0
  8  9  1  0  0  0  0
  8 10  2  0  0  0  0
  9 45  1  0  0  0  0
  9 46  1  0  0  0  0
  9 47  1  0  0  0  0
 10 11  1  0  0  0  0
 10 36  1  0  0  0  0
 11 12  1  0  0  0  0
 11 20  1  0  0  0  0
 12 13  1  0  0  0  0
 12 48  1  0  0  0  0
 12 49  1  0  0  0  0
 13 14  1  0  0  0  0
 13 50  1  0  0  0  0
 13 51  1  0  0  0  0
 14 15  1  0  0  0  0
 14 52  1  0  0  0  0
 14 53  1  0  0  0  0
 15 16  1  0  0  0  0
 15 19  1  0  0  0  0
 16 17  1  0  0  0  0
 16 54  1  0  0  0  0
 16 55  1  0  0  0  0
 17 18  1  0  0  0  0
 17 56  1  0  0  0  0
 17 57  1  0  0  0  0
 18 19  1  0  0  0  0
 18 58  1  0  0  0  0
 18 59  1  0  0  0  0
 19 60  1  0  0  0  0
 19 61  1  0  0  0  0
 20 21  1  0  0  0  0
 20 35  2  0  0  0  0
 21 22  2  0  0  0  0
 21 62  1  0  0  0  0
 22 23  1  0  0  0  0
 22 63  1  0  0  0  0
 23 24  1  0  0  0  0
 23 34  2  0  0  0  0
 24 25  2  0  0  0  0
 25 26  1  0  0  0  0
 25 64  1  0  0  0  0
 26 27  1  0  0  0  0
 26 33  2  0  0  0  0
 27 28  1  0  0  0  0
 27 32  2  0  0  0  0
 28 29  2  0  0  0  0
 28 65  1  0  0  0  0
 29 30  1  0  0  0  0
 30 31  1  0  0  0  0
 30 32  1  0  0  0  0
 31 66  1  0  0  0  0
 31 67  1  0  0  0  0
 31 68  1  0  0  0  0
 32 69  1  0  0  0  0
 33 34  1  0  0  0  0
 34 35  1  0  0  0  0
 35 70  1  0  0  0  0
 36 71  1  0  0  0  0
 37 72  1  0  0  0  0
M  END
$$$$
