CHEMBL175506
 OpenBabel04072215363D

 48 51  0  0  0  0  0  0  0  0999 V2000
    1.2587   -0.3902    0.2806 C   0  0  0  0  0  0  0  0  0  0  0  0
    2.5837    0.0181   -0.0575 O   0  0  0  0  0  0  0  0  0  0  0  0
    3.2338    0.6067    1.0086 C   0  0  0  0  0  0  0  0  0  0  0  0
    2.7955    0.3701    2.2301 N   0  0  0  0  0  0  0  0  0  0  0  0
    3.4526    0.9862    3.2026 C   0  0  0  0  0  0  0  0  0  0  0  0
    3.0621    0.7707    4.5229 N   0  0  0  0  0  0  0  0  0  0  0  0
    1.7988    0.3815    4.9983 C   0  0  0  0  0  0  0  0  0  0  0  0
    1.7018   -0.3627    6.1754 C   0  0  0  0  0  0  0  0  0  0  0  0
    0.4680   -0.8655    6.6229 C   0  0  0  0  0  0  0  0  0  0  0  0
   -0.6987   -0.6152    5.8772 C   0  0  0  0  0  0  0  0  0  0  0  0
   -1.9770   -1.0667    6.1786 N   0  0  0  0  0  0  0  0  0  0  0  0
   -2.8123   -0.6477    5.2547 C   0  0  0  0  0  0  0  0  0  0  0  0
   -2.1566    0.3080    3.9978 S   0  0  0  0  0  0  0  0  0  0  0  0
   -0.6006    0.1421    4.7116 C   0  0  0  0  0  0  0  0  0  0  0  0
    0.6312    0.6513    4.2652 C   0  0  0  0  0  0  0  0  0  0  0  0
    4.4734    1.8051    2.9900 N   0  0  0  0  0  0  0  0  0  0  0  0
    4.8141    2.0117    1.7242 C   0  0  0  0  0  0  0  0  0  0  0  0
    5.8053    2.9084    1.4185 N   0  0  0  0  0  0  0  0  0  0  0  0
    6.0837    4.1338    2.1754 C   0  0  0  0  0  0  0  0  0  0  0  0
    4.8284    4.7715    2.8194 C   0  0  0  0  0  0  0  0  0  0  0  0
    7.0660    3.7515    3.3016 C   0  0  0  0  0  0  0  0  0  0  0  0
    6.6697    5.1693    1.1822 C   0  0  0  0  0  0  0  0  0  0  0  0
    5.8902    5.6346    0.1007 C   0  0  0  0  0  0  0  0  0  0  0  0
    6.3788    6.5913   -0.7958 C   0  0  0  0  0  0  0  0  0  0  0  0
    7.6626    7.1031   -0.6375 C   0  0  0  0  0  0  0  0  0  0  0  0
    8.4547    6.6568    0.4145 C   0  0  0  0  0  0  0  0  0  0  0  0
    7.9651    5.7007    1.3123 C   0  0  0  0  0  0  0  0  0  0  0  0
    4.2478    1.4005    0.6931 N   0  0  0  0  0  0  0  0  0  0  0  0
    0.7898   -0.7958   -0.6209 H   0  0  0  0  0  0  0  0  0  0  0  0
    0.6590    0.4658    0.6111 H   0  0  0  0  0  0  0  0  0  0  0  0
    1.2553   -1.1824    1.0382 H   0  0  0  0  0  0  0  0  0  0  0  0
    3.7014    1.1844    5.1826 H   0  0  0  0  0  0  0  0  0  0  0  0
    2.5963   -0.6026    6.7448 H   0  0  0  0  0  0  0  0  0  0  0  0
    0.4082   -1.4638    7.5234 H   0  0  0  0  0  0  0  0  0  0  0  0
   -3.8667   -0.8888    5.2780 H   0  0  0  0  0  0  0  0  0  0  0  0
    0.6674    1.2482    3.3597 H   0  0  0  0  0  0  0  0  0  0  0  0
    6.0319    2.9081    0.4335 H   0  0  0  0  0  0  0  0  0  0  0  0
    4.4466    4.1843    3.6612 H   0  0  0  0  0  0  0  0  0  0  0  0
    4.0035    4.8832    2.1062 H   0  0  0  0  0  0  0  0  0  0  0  0
    5.0547    5.7675    3.2213 H   0  0  0  0  0  0  0  0  0  0  0  0
    6.6169    3.0416    4.0046 H   0  0  0  0  0  0  0  0  0  0  0  0
    7.3778    4.6257    3.8835 H   0  0  0  0  0  0  0  0  0  0  0  0
    7.9634    3.2677    2.8963 H   0  0  0  0  0  0  0  0  0  0  0  0
    4.8801    5.2565   -0.0509 H   0  0  0  0  0  0  0  0  0  0  0  0
    5.7552    6.9391   -1.6159 H   0  0  0  0  0  0  0  0  0  0  0  0
    8.0454    7.8464   -1.3318 H   0  0  0  0  0  0  0  0  0  0  0  0
    9.4591    7.0526    0.5429 H   0  0  0  0  0  0  0  0  0  0  0  0
    8.6269    5.3918    2.1167 H   0  0  0  0  0  0  0  0  0  0  0  0
  1  2  1  0  0  0  0
  1 29  1  0  0  0  0
  1 30  1  0  0  0  0
  1 31  1  0  0  0  0
  2  3  1  0  0  0  0
  3  4  1  0  0  0  0
  3 28  2  0  0  0  0
  4  5  2  0  0  0  0
  5  6  1  0  0  0  0
  5 16  1  0  0  0  0
  6  7  1  0  0  0  0
  6 32  1  0  0  0  0
  7  8  1  0  0  0  0
  7 15  2  0  0  0  0
  8  9  2  0  0  0  0
  8 33  1  0  0  0  0
  9 10  1  0  0  0  0
  9 34  1  0  0  0  0
 10 11  1  0  0  0  0
 10 14  2  0  0  0  0
 11 12  2  0  0  0  0
 12 13  1  0  0  0  0
 12 35  1  0  0  0  0
 13 14  1  0  0  0  0
 14 15  1  0  0  0  0
 15 36  1  0  0  0  0
 16 17  2  0  0  0  0
 17 18  1  0  0  0  0
 17 28  1  0  0  0  0
 18 19  1  0  0  0  0
 18 37  1  0  0  0  0
 19 20  1  0  0  0  0
 19 21  1  0  0  0  0
 19 22  1  0  0  0  0
 20 38  1  0  0  0  0
 20 39  1  0  0  0  0
 20 40  1  0  0  0  0
 21 41  1  0  0  0  0
 21 42  1  0  0  0  0
 21 43  1  0  0  0  0
 22 23  1  0  0  0  0
 22 27  2  0  0  0  0
 23 24  2  0  0  0  0
 23 44  1  0  0  0  0
 24 25  1  0  0  0  0
 24 45  1  0  0  0  0
 25 26  2  0  0  0  0
 25 46  1  0  0  0  0
 26 27  1  0  0  0  0
 26 47  1  0  0  0  0
 27 48  1  0  0  0  0
M  END
$$$$
