CHEMBL2031893
 OpenBabel04072215363D

 64 68  0  0  0  0  0  0  0  0999 V2000
   10.5894    1.7656    1.7465 C   0  0  0  0  0  0  0  0  0  0  0  0
    9.6567    2.7342    2.2391 O   0  0  0  0  0  0  0  0  0  0  0  0
    8.7825    2.2788    3.1938 C   0  0  0  0  0  0  0  0  0  0  0  0
    9.1535    1.2578    4.0843 C   0  0  0  0  0  0  0  0  0  0  0  0
    8.2638    0.6855    4.9792 C   0  0  0  0  0  0  0  0  0  0  0  0
    8.7072   -0.3387    5.7248 N   0  0  0  0  0  0  0  0  0  0  0  0
    7.8398   -0.9375    6.5652 C   0  0  0  0  0  0  0  0  0  0  0  0
    6.5187   -0.5728    6.6913 C   0  0  0  0  0  0  0  0  0  0  0  0
    6.0470    0.4557    5.8786 C   0  0  0  0  0  0  0  0  0  0  0  0
    4.7189    0.8444    5.8950 O   0  0  0  0  0  0  0  0  0  0  0  0
    3.7240   -0.0948    6.0800 C   0  0  0  0  0  0  0  0  0  0  0  0
    2.6222    0.3247    6.8209 C   0  0  0  0  0  0  0  0  0  0  0  0
    1.5223   -0.5273    7.0157 C   0  0  0  0  0  0  0  0  0  0  0  0
    1.4865   -1.8160    6.4683 C   0  0  0  0  0  0  0  0  0  0  0  0
    0.3704   -2.6944    6.5811 N   0  0  0  0  0  0  0  0  0  0  0  0
   -0.8302   -2.4244    7.2199 C   0  0  0  0  0  0  0  0  0  0  0  0
   -1.0514   -1.4188    7.8889 O   0  0  0  0  0  0  0  0  0  0  0  0
   -1.9161   -3.4186    7.0226 C   0  0  0  0  0  0  0  0  0  0  0  0
   -3.2414   -3.2649    7.2504 C   0  0  0  0  0  0  0  0  0  0  0  0
   -3.9410   -2.0810    7.8479 C   0  0  0  0  0  0  0  0  0  0  0  0
   -3.9842   -4.3842    6.8503 N   0  0  0  0  0  0  0  0  0  0  0  0
   -5.2690   -4.7803    7.4291 C   0  0  0  0  0  0  0  0  0  0  0  0
   -3.0469   -5.4013    6.5985 N   0  0  0  0  0  0  0  0  0  0  0  0
   -3.3961   -6.6164    5.9794 C   0  0  0  0  0  0  0  0  0  0  0  0
   -2.8602   -7.8055    6.4834 C   0  0  0  0  0  0  0  0  0  0  0  0
   -3.2428   -9.0367    5.9450 C   0  0  0  0  0  0  0  0  0  0  0  0
   -4.1288   -9.0820    4.8695 C   0  0  0  0  0  0  0  0  0  0  0  0
   -4.6513   -7.8995    4.3481 C   0  0  0  0  0  0  0  0  0  0  0  0
   -4.3024   -6.6716    4.9128 C   0  0  0  0  0  0  0  0  0  0  0  0
   -1.7695   -4.8266    6.5595 C   0  0  0  0  0  0  0  0  0  0  0  0
   -0.7041   -5.3095    6.2040 O   0  0  0  0  0  0  0  0  0  0  0  0
    2.5992   -2.2368    5.7291 C   0  0  0  0  0  0  0  0  0  0  0  0
    3.6911   -1.3760    5.5235 C   0  0  0  0  0  0  0  0  0  0  0  0
    4.7043   -1.8200    4.7645 F   0  0  0  0  0  0  0  0  0  0  0  0
    6.9417    1.1527    5.0230 C   0  0  0  0  0  0  0  0  0  0  0  0
    6.6019    2.2706    4.2240 C   0  0  0  0  0  0  0  0  0  0  0  0
    7.5041    2.8359    3.3037 C   0  0  0  0  0  0  0  0  0  0  0  0
    6.9429    3.8739    2.6127 O   0  0  0  0  0  0  0  0  0  0  0  0
    7.6117    4.4343    1.4942 C   0  0  0  0  0  0  0  0  0  0  0  0
   10.7872    1.9807    0.6924 H   0  0  0  0  0  0  0  0  0  0  0  0
   10.2133    0.7355    1.7928 H   0  0  0  0  0  0  0  0  0  0  0  0
   11.5325    1.8491    2.2965 H   0  0  0  0  0  0  0  0  0  0  0  0
   10.1631    0.8583    4.0899 H   0  0  0  0  0  0  0  0  0  0  0  0
    8.2480   -1.7649    7.1373 H   0  0  0  0  0  0  0  0  0  0  0  0
    5.8790   -1.0944    7.3888 H   0  0  0  0  0  0  0  0  0  0  0  0
    2.6022    1.3238    7.2501 H   0  0  0  0  0  0  0  0  0  0  0  0
    0.6971   -0.1299    7.5972 H   0  0  0  0  0  0  0  0  0  0  0  0
    0.4507   -3.6022    6.1186 H   0  0  0  0  0  0  0  0  0  0  0  0
   -3.3177   -1.1921    7.9402 H   0  0  0  0  0  0  0  0  0  0  0  0
   -4.2953   -2.3325    8.8545 H   0  0  0  0  0  0  0  0  0  0  0  0
   -4.8057   -1.7966    7.2401 H   0  0  0  0  0  0  0  0  0  0  0  0
   -5.7605   -3.9572    7.9571 H   0  0  0  0  0  0  0  0  0  0  0  0
   -5.1569   -5.6085    8.1369 H   0  0  0  0  0  0  0  0  0  0  0  0
   -5.9559   -5.0880    6.6335 H   0  0  0  0  0  0  0  0  0  0  0  0
   -2.1838   -7.7846    7.3346 H   0  0  0  0  0  0  0  0  0  0  0  0
   -2.8522   -9.9592    6.3670 H   0  0  0  0  0  0  0  0  0  0  0  0
   -4.4107  -10.0391    4.4375 H   0  0  0  0  0  0  0  0  0  0  0  0
   -5.3284   -7.9339    3.4987 H   0  0  0  0  0  0  0  0  0  0  0  0
   -4.7151   -5.7542    4.5010 H   0  0  0  0  0  0  0  0  0  0  0  0
    2.6377   -3.2248    5.2791 H   0  0  0  0  0  0  0  0  0  0  0  0
    5.6079    2.7069    4.3061 H   0  0  0  0  0  0  0  0  0  0  0  0
    6.8653    5.0041    0.9287 H   0  0  0  0  0  0  0  0  0  0  0  0
    8.0030    3.6770    0.8103 H   0  0  0  0  0  0  0  0  0  0  0  0
    8.3863    5.1374    1.8153 H   0  0  0  0  0  0  0  0  0  0  0  0
  1  2  1  0  0  0  0
  1 40  1  0  0  0  0
  1 41  1  0  0  0  0
  1 42  1  0  0  0  0
  2  3  1  0  0  0  0
  3  4  1  0  0  0  0
  3 37  2  0  0  0  0
  4  5  2  0  0  0  0
  4 43  1  0  0  0  0
  5  6  1  0  0  0  0
  5 35  1  0  0  0  0
  6  7  2  0  0  0  0
  7  8  1  0  0  0  0
  7 44  1  0  0  0  0
  8  9  2  0  0  0  0
  8 45  1  0  0  0  0
  9 10  1  0  0  0  0
  9 35  1  0  0  0  0
 10 11  1  0  0  0  0
 11 12  1  0  0  0  0
 11 33  2  0  0  0  0
 12 13  2  0  0  0  0
 12 46  1  0  0  0  0
 13 14  1  0  0  0  0
 13 47  1  0  0  0  0
 14 15  1  0  0  0  0
 14 32  2  0  0  0  0
 15 16  1  0  0  0  0
 15 48  1  0  0  0  0
 16 17  2  0  0  0  0
 16 18  1  0  0  0  0
 18 19  2  0  0  0  0
 18 30  1  0  0  0  0
 19 20  1  0  0  0  0
 19 21  1  0  0  0  0
 20 49  1  0  0  0  0
 20 50  1  0  0  0  0
 20 51  1  0  0  0  0
 21 22  1  0  0  0  0
 21 23  1  0  0  0  0
 22 52  1  0  0  0  0
 22 53  1  0  0  0  0
 22 54  1  0  0  0  0
 23 24  1  0  0  0  0
 23 30  1  0  0  0  0
 24 25  1  0  0  0  0
 24 29  2  0  0  0  0
 25 26  2  0  0  0  0
 25 55  1  0  0  0  0
 26 27  1  0  0  0  0
 26 56  1  0  0  0  0
 27 28  2  0  0  0  0
 27 57  1  0  0  0  0
 28 29  1  0  0  0  0
 28 58  1  0  0  0  0
 29 59  1  0  0  0  0
 30 31  2  0  0  0  0
 32 33  1  0  0  0  0
 32 60  1  0  0  0  0
 33 34  1  0  0  0  0
 35 36  2  0  0  0  0
 36 37  1  0  0  0  0
 36 61  1  0  0  0  0
 37 38  1  0  0  0  0
 38 39  1  0  0  0  0
 39 62  1  0  0  0  0
 39 63  1  0  0  0  0
 39 64  1  0  0  0  0
M  END
$$$$
