CHEMBL3288521
 OpenBabel04072215363D

 46 50  0  0  0  0  0  0  0  0999 V2000
   -3.5025    3.0114    1.4980 N   0  0  0  0  0  0  0  0  0  0  0  0
   -3.2620    1.6991    1.3467 C   0  0  0  0  0  0  0  0  0  0  0  0
   -4.1569    0.8153    1.7764 N   0  0  0  0  0  0  0  0  0  0  0  0
   -3.6325   -0.3609    1.4314 N   0  0  0  0  0  0  0  0  0  0  0  0
   -2.4255   -0.2780    0.7942 C   0  0  0  0  0  0  0  0  0  0  0  0
   -1.6179   -1.2967    0.2830 C   0  0  0  0  0  0  0  0  0  0  0  0
   -0.4188   -0.9197   -0.3057 C   0  0  0  0  0  0  0  0  0  0  0  0
   -0.0445    0.4208   -0.3532 C   0  0  0  0  0  0  0  0  0  0  0  0
   -0.8542    1.4682    0.1630 C   0  0  0  0  0  0  0  0  0  0  0  0
   -0.3827    2.8717    0.0936 C   0  0  0  0  0  0  0  0  0  0  0  0
    0.4055    3.3328   -0.9727 C   0  0  0  0  0  0  0  0  0  0  0  0
    0.8683    4.6541   -1.0311 C   0  0  0  0  0  0  0  0  0  0  0  0
    0.4651    5.6245   -0.0884 C   0  0  0  0  0  0  0  0  0  0  0  0
    0.7947    7.0092   -0.1150 C   0  0  0  0  0  0  0  0  0  0  0  0
    1.6873    7.6503   -1.1232 C   0  0  0  0  0  0  0  0  0  0  0  0
    2.4903    8.4810   -0.7100 O   0  0  0  0  0  0  0  0  0  0  0  0
    1.4898    7.3061   -2.4490 N   0  0  0  0  0  0  0  0  0  0  0  0
    2.2192    7.8057   -3.5544 C   0  0  0  0  0  0  0  0  0  0  0  0
    3.3390    8.6277   -3.4475 C   0  0  0  0  0  0  0  0  0  0  0  0
    3.9403    9.1432   -4.5956 C   0  0  0  0  0  0  0  0  0  0  0  0
    3.4146    8.7974   -5.8273 C   0  0  0  0  0  0  0  0  0  0  0  0
    2.3665    7.9619   -5.9828 N   0  0  0  0  0  0  0  0  0  0  0  0
    1.8003    7.4862   -4.8458 C   0  0  0  0  0  0  0  0  0  0  0  0
    0.3198    7.8802    0.8872 C   0  0  0  0  0  0  0  0  0  0  0  0
   -0.4714    7.4040    1.9238 C   0  0  0  0  0  0  0  0  0  0  0  0
   -0.7751    6.0505    1.9821 C   0  0  0  0  0  0  0  0  0  0  0  0
   -0.3161    5.1609    0.9984 C   0  0  0  0  0  0  0  0  0  0  0  0
   -0.6463    3.8013    1.1054 C   0  0  0  0  0  0  0  0  0  0  0  0
   -2.1080    1.0848    0.7426 C   0  0  0  0  0  0  0  0  0  0  0  0
   -4.4335    3.2426    1.8277 H   0  0  0  0  0  0  0  0  0  0  0  0
   -3.1550    3.6638    0.8054 H   0  0  0  0  0  0  0  0  0  0  0  0
   -4.1533   -1.2004    1.6550 H   0  0  0  0  0  0  0  0  0  0  0  0
   -1.9076   -2.3402    0.3394 H   0  0  0  0  0  0  0  0  0  0  0  0
    0.2419   -1.6776   -0.7212 H   0  0  0  0  0  0  0  0  0  0  0  0
    0.9241    0.6497   -0.7950 H   0  0  0  0  0  0  0  0  0  0  0  0
    0.6927    2.6618   -1.7803 H   0  0  0  0  0  0  0  0  0  0  0  0
    1.5489    4.8977   -1.8434 H   0  0  0  0  0  0  0  0  0  0  0  0
    0.6903    6.7223   -2.6631 H   0  0  0  0  0  0  0  0  0  0  0  0
    3.7672    8.8975   -2.4881 H   0  0  0  0  0  0  0  0  0  0  0  0
    4.7928    9.8089   -4.5197 H   0  0  0  0  0  0  0  0  0  0  0  0
    3.8344    9.1988   -6.7454 H   0  0  0  0  0  0  0  0  0  0  0  0
    0.9570    6.8245   -5.0196 H   0  0  0  0  0  0  0  0  0  0  0  0
    0.5777    8.9380    0.8617 H   0  0  0  0  0  0  0  0  0  0  0  0
   -0.8384    8.0806    2.6918 H   0  0  0  0  0  0  0  0  0  0  0  0
   -1.3920    5.6883    2.8044 H   0  0  0  0  0  0  0  0  0  0  0  0
   -1.1469    3.4621    2.0124 H   0  0  0  0  0  0  0  0  0  0  0  0
  1  2  1  0  0  0  0
  1 30  1  0  0  0  0
  1 31  1  0  0  0  0
  2  3  2  0  0  0  0
  2 29  1  0  0  0  0
  3  4  1  0  0  0  0
  4  5  1  0  0  0  0
  4 32  1  0  0  0  0
  5  6  1  0  0  0  0
  5 29  2  0  0  0  0
  6  7  2  0  0  0  0
  6 33  1  0  0  0  0
  7  8  1  0  0  0  0
  7 34  1  0  0  0  0
  8  9  2  0  0  0  0
  8 35  1  0  0  0  0
  9 10  1  0  0  0  0
  9 29  1  0  0  0  0
 10 11  1  0  0  0  0
 10 28  2  0  0  0  0
 11 12  2  0  0  0  0
 11 36  1  0  0  0  0
 12 13  1  0  0  0  0
 12 37  1  0  0  0  0
 13 14  1  0  0  0  0
 13 27  2  0  0  0  0
 14 15  1  0  0  0  0
 14 24  2  0  0  0  0
 15 16  2  0  0  0  0
 15 17  1  0  0  0  0
 17 18  1  0  0  0  0
 17 38  1  0  0  0  0
 18 19  1  0  0  0  0
 18 23  2  0  0  0  0
 19 20  2  0  0  0  0
 19 39  1  0  0  0  0
 20 21  1  0  0  0  0
 20 40  1  0  0  0  0
 21 22  2  0  0  0  0
 21 41  1  0  0  0  0
 22 23  1  0  0  0  0
 23 42  1  0  0  0  0
 24 25  1  0  0  0  0
 24 43  1  0  0  0  0
 25 26  2  0  0  0  0
 25 44  1  0  0  0  0
 26 27  1  0  0  0  0
 26 45  1  0  0  0  0
 27 28  1  0  0  0  0
 28 46  1  0  0  0  0
M  END
$$$$
