CHEMBL203429
 OpenBabel04072215363D

 54 58  0  0  0  0  0  0  0  0999 V2000
    0.9575    0.2960    0.2401 O   0  0  0  0  0  0  0  0  0  0  0  0
    2.1477    0.0320    0.3563 C   0  0  0  0  0  0  0  0  0  0  0  0
    2.6565   -1.2445    0.5962 N   0  0  0  0  0  0  0  0  0  0  0  0
    1.9150   -2.4389    0.7918 C   0  0  0  0  0  0  0  0  0  0  0  0
    0.5246   -2.5037    0.7406 C   0  0  0  0  0  0  0  0  0  0  0  0
   -0.1447   -3.7270    0.8648 C   0  0  0  0  0  0  0  0  0  0  0  0
    0.5620   -4.9171    1.0651 C   0  0  0  0  0  0  0  0  0  0  0  0
   -0.1736   -6.2370    1.1268 C   0  0  0  0  0  0  0  0  0  0  0  0
   -0.3527   -6.9019   -0.2216 C   0  0  0  0  0  0  0  0  0  0  0  0
    0.6035   -7.8082   -0.7026 C   0  0  0  0  0  0  0  0  0  0  0  0
    0.4453   -8.4132   -1.9511 C   0  0  0  0  0  0  0  0  0  0  0  0
   -0.6673   -8.1190   -2.7355 C   0  0  0  0  0  0  0  0  0  0  0  0
   -1.6249   -7.2192   -2.2711 C   0  0  0  0  0  0  0  0  0  0  0  0
   -1.4678   -6.6117   -1.0224 C   0  0  0  0  0  0  0  0  0  0  0  0
    1.9565   -4.8501    1.1705 C   0  0  0  0  0  0  0  0  0  0  0  0
    2.6258   -3.6234    1.0346 C   0  0  0  0  0  0  0  0  0  0  0  0
    3.1521    1.1498    0.2492 C   0  0  0  0  0  0  0  0  0  0  0  0
    4.3749    1.0149    0.9445 C   0  0  0  0  0  0  0  0  0  0  0  0
    5.3560    2.0072    0.8982 C   0  0  0  0  0  0  0  0  0  0  0  0
    5.1415    3.1531    0.1490 C   0  0  0  0  0  0  0  0  0  0  0  0
    3.9269    3.3270   -0.5116 C   0  0  0  0  0  0  0  0  0  0  0  0
    2.8948    2.3599   -0.4462 C   0  0  0  0  0  0  0  0  0  0  0  0
    1.5602    2.7585   -1.0618 C   0  0  0  0  0  0  0  0  0  0  0  0
    1.4887    2.5425   -2.5200 N   0  0  0  0  0  0  0  0  0  0  0  0
    0.8804    1.3946   -3.0459 C   0  0  0  0  0  0  0  0  0  0  0  0
    0.7009    1.1432   -4.3529 C   0  0  0  0  0  0  0  0  0  0  0  0
    1.1939    2.1679   -5.2788 C   0  0  0  0  0  0  0  0  0  0  0  0
    1.2020    2.2226   -6.5709 N   0  0  0  0  0  0  0  0  0  0  0  0
    1.7943    3.4565   -6.8270 C   0  0  0  0  0  0  0  0  0  0  0  0
    2.1444    4.1811   -5.8005 N   0  0  0  0  0  0  0  0  0  0  0  0
    1.7938    3.3968   -4.7462 C   0  0  0  0  0  0  0  0  0  0  0  0
    1.9021    3.5309   -3.4244 C   0  0  0  0  0  0  0  0  0  0  0  0
    3.6590   -1.3656    0.5729 H   0  0  0  0  0  0  0  0  0  0  0  0
   -0.0844   -1.6211    0.5833 H   0  0  0  0  0  0  0  0  0  0  0  0
   -1.2294   -3.7374    0.7880 H   0  0  0  0  0  0  0  0  0  0  0  0
   -1.1591   -6.0859    1.5885 H   0  0  0  0  0  0  0  0  0  0  0  0
    0.3481   -6.9211    1.8088 H   0  0  0  0  0  0  0  0  0  0  0  0
    1.4796   -8.0495   -0.1048 H   0  0  0  0  0  0  0  0  0  0  0  0
    1.1937   -9.1138   -2.3133 H   0  0  0  0  0  0  0  0  0  0  0  0
   -0.7881   -8.5872   -3.7082 H   0  0  0  0  0  0  0  0  0  0  0  0
   -2.4929   -6.9870   -2.8826 H   0  0  0  0  0  0  0  0  0  0  0  0
   -2.2241   -5.9094   -0.6791 H   0  0  0  0  0  0  0  0  0  0  0  0
    2.5342   -5.7553    1.3463 H   0  0  0  0  0  0  0  0  0  0  0  0
    3.7096   -3.6182    1.1178 H   0  0  0  0  0  0  0  0  0  0  0  0
    4.5728    0.1568    1.5819 H   0  0  0  0  0  0  0  0  0  0  0  0
    6.2804    1.8896    1.4590 H   0  0  0  0  0  0  0  0  0  0  0  0
    5.9016    3.9293    0.1039 H   0  0  0  0  0  0  0  0  0  0  0  0
    3.7715    4.2549   -1.0603 H   0  0  0  0  0  0  0  0  0  0  0  0
    1.4114    3.8301   -0.8589 H   0  0  0  0  0  0  0  0  0  0  0  0
    0.7031    2.3117   -0.5559 H   0  0  0  0  0  0  0  0  0  0  0  0
    0.5292    0.6907   -2.2949 H   0  0  0  0  0  0  0  0  0  0  0  0
    0.2204    0.2567   -4.7424 H   0  0  0  0  0  0  0  0  0  0  0  0
    1.9517    3.7897   -7.8668 H   0  0  0  0  0  0  0  0  0  0  0  0
    2.3218    4.4326   -2.9913 H   0  0  0  0  0  0  0  0  0  0  0  0
  1  2  2  0  0  0  0
  2  3  1  0  0  0  0
  2 17  1  0  0  0  0
  3  4  1  0  0  0  0
  3 33  1  0  0  0  0
  4  5  1  0  0  0  0
  4 16  2  0  0  0  0
  5  6  2  0  0  0  0
  5 34  1  0  0  0  0
  6  7  1  0  0  0  0
  6 35  1  0  0  0  0
  7  8  1  0  0  0  0
  7 15  2  0  0  0  0
  8  9  1  0  0  0  0
  8 36  1  0  0  0  0
  8 37  1  0  0  0  0
  9 10  1  0  0  0  0
  9 14  2  0  0  0  0
 10 11  2  0  0  0  0
 10 38  1  0  0  0  0
 11 12  1  0  0  0  0
 11 39  1  0  0  0  0
 12 13  2  0  0  0  0
 12 40  1  0  0  0  0
 13 14  1  0  0  0  0
 13 41  1  0  0  0  0
 14 42  1  0  0  0  0
 15 16  1  0  0  0  0
 15 43  1  0  0  0  0
 16 44  1  0  0  0  0
 17 18  1  0  0  0  0
 17 22  2  0  0  0  0
 18 19  2  0  0  0  0
 18 45  1  0  0  0  0
 19 20  1  0  0  0  0
 19 46  1  0  0  0  0
 20 21  2  0  0  0  0
 20 47  1  0  0  0  0
 21 22  1  0  0  0  0
 21 48  1  0  0  0  0
 22 23  1  0  0  0  0
 23 24  1  0  0  0  0
 23 49  1  0  0  0  0
 23 50  1  0  0  0  0
 24 25  1  0  0  0  0
 24 32  1  0  0  0  0
 25 26  2  0  0  0  0
 25 51  1  0  0  0  0
 26 27  1  0  0  0  0
 26 52  1  0  0  0  0
 27 28  2  0  0  0  0
 27 31  1  0  0  0  0
 28 29  1  0  0  0  0
 29 30  2  0  0  0  0
 29 53  1  0  0  0  0
 30 31  1  0  0  0  0
 31 32  2  0  0  0  0
 32 54  1  0  0  0  0
M  END
$$$$
