CHEMBL3969667
 OpenBabel04072215373D

 64 68  0  0  0  0  0  0  0  0999 V2000
    2.1934    0.9618   -0.7823 C   0  0  0  0  0  0  0  0  0  0  0  0
    3.4373    1.2197   -1.4113 O   0  0  0  0  0  0  0  0  0  0  0  0
    3.5336    2.2632   -2.2884 C   0  0  0  0  0  0  0  0  0  0  0  0
    4.6565    2.1679   -3.1131 C   0  0  0  0  0  0  0  0  0  0  0  0
    4.9372    3.1637   -4.0423 C   0  0  0  0  0  0  0  0  0  0  0  0
    4.1070    4.2664   -4.0880 C   0  0  0  0  0  0  0  0  0  0  0  0
    3.0006    4.3974   -3.3292 N   0  0  0  0  0  0  0  0  0  0  0  0
    2.7189    3.3846   -2.4690 C   0  0  0  0  0  0  0  0  0  0  0  0
    1.4410    3.5653   -1.8461 C   0  0  0  0  0  0  0  0  0  0  0  0
    0.3811    3.6039   -1.2979 C   0  0  0  0  0  0  0  0  0  0  0  0
   -0.7900    3.5171   -0.4222 C   0  0  0  0  0  0  0  0  0  0  0  0
   -2.0165    3.0149   -1.0626 N   0  0  0  0  0  0  0  0  0  0  0  0
   -1.9615    1.7890   -1.7895 C   0  0  0  0  0  0  0  0  0  0  0  0
   -2.3566    1.8514   -3.1132 C   0  0  0  0  0  0  0  0  0  0  0  0
   -2.9322    0.7546   -3.7135 C   0  0  0  0  0  0  0  0  0  0  0  0
   -2.9685   -0.4508   -3.0811 C   0  0  0  0  0  0  0  0  0  0  0  0
   -3.8406   -1.2914   -3.6259 N   0  0  0  0  0  0  0  0  0  0  0  0
   -3.7949   -2.5427   -3.1862 C   0  0  0  0  0  0  0  0  0  0  0  0
   -2.8034   -2.9794   -2.3369 C   0  0  0  0  0  0  0  0  0  0  0  0
   -2.6402   -4.4335   -2.3366 C   0  0  0  0  0  0  0  0  0  0  0  0
   -1.8997   -5.2544   -3.2401 C   0  0  0  0  0  0  0  0  0  0  0  0
   -2.2861   -6.5384   -3.2232 N   0  0  0  0  0  0  0  0  0  0  0  0
   -3.3014   -6.5459   -2.3449 N   0  0  0  0  0  0  0  0  0  0  0  0
   -3.8897   -7.7874   -1.8993 C   0  0  0  0  0  0  0  0  0  0  0  0
   -3.6418   -5.2946   -1.9130 C   0  0  0  0  0  0  0  0  0  0  0  0
   -1.9943   -2.0832   -1.6635 N   0  0  0  0  0  0  0  0  0  0  0  0
   -2.1566   -0.7246   -1.9661 C   0  0  0  0  0  0  0  0  0  0  0  0
   -1.6883    0.4806   -1.2924 C   0  0  0  0  0  0  0  0  0  0  0  0
   -3.2661    3.5133   -0.4807 C   0  0  0  0  0  0  0  0  0  0  0  0
   -4.3517    4.0051   -1.3070 C   0  0  0  0  0  0  0  0  0  0  0  0
   -4.0286    4.5005   -2.9410 Cl  0  0  0  0  0  0  0  0  0  0  0  0
   -5.6233    4.3160   -0.7625 C   0  0  0  0  0  0  0  0  0  0  0  0
   -6.7834    4.7623   -1.3411 O   0  0  0  0  0  0  0  0  0  0  0  0
   -7.0128    4.7734   -2.7387 C   0  0  0  0  0  0  0  0  0  0  0  0
   -5.8011    4.2464    0.6221 C   0  0  0  0  0  0  0  0  0  0  0  0
   -4.7590    3.8994    1.4693 C   0  0  0  0  0  0  0  0  0  0  0  0
   -4.8655    3.8931    2.8383 O   0  0  0  0  0  0  0  0  0  0  0  0
   -6.1355    4.1282    3.4278 C   0  0  0  0  0  0  0  0  0  0  0  0
   -3.5063    3.5260    0.9276 C   0  0  0  0  0  0  0  0  0  0  0  0
   -2.3011    3.0803    2.1114 Cl  0  0  0  0  0  0  0  0  0  0  0  0
    2.2646   -0.0086   -0.2817 H   0  0  0  0  0  0  0  0  0  0  0  0
    1.3900    0.8846   -1.5199 H   0  0  0  0  0  0  0  0  0  0  0  0
    1.9810    1.7034   -0.0063 H   0  0  0  0  0  0  0  0  0  0  0  0
    5.2972    1.2927   -3.0467 H   0  0  0  0  0  0  0  0  0  0  0  0
    5.7839    3.0764   -4.7132 H   0  0  0  0  0  0  0  0  0  0  0  0
    4.3008    5.0892   -4.7682 H   0  0  0  0  0  0  0  0  0  0  0  0
   -0.9598    4.5262   -0.0228 H   0  0  0  0  0  0  0  0  0  0  0  0
   -0.4901    2.8616    0.4011 H   0  0  0  0  0  0  0  0  0  0  0  0
   -2.3509    2.7868   -3.6540 H   0  0  0  0  0  0  0  0  0  0  0  0
   -3.4123    0.8703   -4.6851 H   0  0  0  0  0  0  0  0  0  0  0  0
   -4.5583   -3.2002   -3.5819 H   0  0  0  0  0  0  0  0  0  0  0  0
   -1.1379   -4.9668   -3.9559 H   0  0  0  0  0  0  0  0  0  0  0  0
   -3.4023   -8.6348   -2.3886 H   0  0  0  0  0  0  0  0  0  0  0  0
   -4.9597   -7.7851   -2.1232 H   0  0  0  0  0  0  0  0  0  0  0  0
   -3.7300   -7.8450   -0.8193 H   0  0  0  0  0  0  0  0  0  0  0  0
   -4.5607   -5.1242   -1.3712 H   0  0  0  0  0  0  0  0  0  0  0  0
   -1.1544    0.3648   -0.3526 H   0  0  0  0  0  0  0  0  0  0  0  0
   -8.0763    4.9951   -2.8906 H   0  0  0  0  0  0  0  0  0  0  0  0
   -6.8162    3.8024   -3.2017 H   0  0  0  0  0  0  0  0  0  0  0  0
   -6.4638    5.5886   -3.2154 H   0  0  0  0  0  0  0  0  0  0  0  0
   -6.7782    4.5193    1.0145 H   0  0  0  0  0  0  0  0  0  0  0  0
   -6.0398    3.9265    4.4988 H   0  0  0  0  0  0  0  0  0  0  0  0
   -6.8954    3.4476    3.0315 H   0  0  0  0  0  0  0  0  0  0  0  0
   -6.4339    5.1744    3.3073 H   0  0  0  0  0  0  0  0  0  0  0  0
  1  2  1  0  0  0  0
  1 41  1  0  0  0  0
  1 42  1  0  0  0  0
  1 43  1  0  0  0  0
  2  3  1  0  0  0  0
  3  4  1  0  0  0  0
  3  8  2  0  0  0  0
  4  5  2  0  0  0  0
  4 44  1  0  0  0  0
  5  6  1  0  0  0  0
  5 45  1  0  0  0  0
  6  7  2  0  0  0  0
  6 46  1  0  0  0  0
  7  8  1  0  0  0  0
  8  9  1  0  0  0  0
  9 10  3  0  0  0  0
 10 11  1  0  0  0  0
 11 12  1  0  0  0  0
 11 47  1  0  0  0  0
 11 48  1  0  0  0  0
 12 13  1  0  0  0  0
 12 29  1  0  0  0  0
 13 14  1  0  0  0  0
 13 28  2  0  0  0  0
 14 15  2  0  0  0  0
 14 49  1  0  0  0  0
 15 16  1  0  0  0  0
 15 50  1  0  0  0  0
 16 17  1  0  0  0  0
 16 27  2  0  0  0  0
 17 18  2  0  0  0  0
 18 19  1  0  0  0  0
 18 51  1  0  0  0  0
 19 20  1  0  0  0  0
 19 26  2  0  0  0  0
 20 21  1  0  0  0  0
 20 25  2  0  0  0  0
 21 22  2  0  0  0  0
 21 52  1  0  0  0  0
 22 23  1  0  0  0  0
 23 24  1  0  0  0  0
 23 25  1  0  0  0  0
 24 53  1  0  0  0  0
 24 54  1  0  0  0  0
 24 55  1  0  0  0  0
 25 56  1  0  0  0  0
 26 27  1  0  0  0  0
 27 28  1  0  0  0  0
 28 57  1  0  0  0  0
 29 30  1  0  0  0  0
 29 39  2  0  0  0  0
 30 31  1  0  0  0  0
 30 32  2  0  0  0  0
 32 33  1  0  0  0  0
 32 35  1  0  0  0  0
 33 34  1  0  0  0  0
 34 58  1  0  0  0  0
 34 59  1  0  0  0  0
 34 60  1  0  0  0  0
 35 36  2  0  0  0  0
 35 61  1  0  0  0  0
 36 37  1  0  0  0  0
 36 39  1  0  0  0  0
 37 38  1  0  0  0  0
 38 62  1  0  0  0  0
 38 63  1  0  0  0  0
 38 64  1  0  0  0  0
 39 40  1  0  0  0  0
M  END
$$$$
