CHEMBL410686
 OpenBabel04072215383D

 49 53  0  0  0  0  0  0  0  0999 V2000
    2.6926    0.2612    2.6014 C   0  0  0  0  0  0  0  0  0  0  0  0
    3.9830    0.0466    1.9018 C   0  0  0  0  0  0  0  0  0  0  0  0
    4.5200   -1.0848    1.3133 C   0  0  0  0  0  0  0  0  0  0  0  0
    5.7023   -0.6943    0.6292 C   0  0  0  0  0  0  0  0  0  0  0  0
    6.6234   -1.2977   -0.2363 C   0  0  0  0  0  0  0  0  0  0  0  0
    6.4939   -2.5941   -0.5665 F   0  0  0  0  0  0  0  0  0  0  0  0
    7.6371   -0.5375   -0.8407 C   0  0  0  0  0  0  0  0  0  0  0  0
    8.4614   -1.1580   -1.8012 N   0  0  0  0  0  0  0  0  0  0  0  0
    9.5373   -0.6412   -2.4827 C   0  0  0  0  0  0  0  0  0  0  0  0
   10.2798    0.2509   -1.8885 N   0  0  0  0  0  0  0  0  0  0  0  0
   11.3872    0.7630   -2.5048 C   0  0  0  0  0  0  0  0  0  0  0  0
   11.8078    0.4598   -3.6848 N   0  0  0  0  0  0  0  0  0  0  0  0
   11.0462   -0.4340   -4.3283 N   0  0  0  0  0  0  0  0  0  0  0  0
   11.2769   -0.8311   -5.6053 C   0  0  0  0  0  0  0  0  0  0  0  0
   10.2469   -1.6522   -5.9921 C   0  0  0  0  0  0  0  0  0  0  0  0
   10.1194   -2.1295   -7.4079 C   0  0  0  0  0  0  0  0  0  0  0  0
   11.0269   -1.8920   -8.3406 N   0  0  0  0  0  0  0  0  0  0  0  0
   10.5395   -2.3973   -9.5274 N   0  0  0  0  0  0  0  0  0  0  0  0
    9.3616   -2.9048   -9.2480 C   0  0  0  0  0  0  0  0  0  0  0  0
    8.3701   -3.5193  -10.1466 C   0  0  0  0  0  0  0  0  0  0  0  0
    9.0295   -2.7920   -7.9274 O   0  0  0  0  0  0  0  0  0  0  0  0
    9.4004   -1.8726   -4.8404 C   0  0  0  0  0  0  0  0  0  0  0  0
    8.2101   -2.8112   -4.8480 C   0  0  0  0  0  0  0  0  0  0  0  0
    8.3635   -4.0017   -3.9002 C   0  0  0  0  0  0  0  0  0  0  0  0
    6.8662   -2.0999   -4.7209 C   0  0  0  0  0  0  0  0  0  0  0  0
    9.9168   -1.0375   -3.8309 C   0  0  0  0  0  0  0  0  0  0  0  0
    7.7183    0.7956   -0.4333 C   0  0  0  0  0  0  0  0  0  0  0  0
    6.8837    1.4378    0.4309 N   0  0  0  0  0  0  0  0  0  0  0  0
    5.8985    0.6519    0.8954 C   0  0  0  0  0  0  0  0  0  0  0  0
    4.8778    1.0743    1.7026 N   0  0  0  0  0  0  0  0  0  0  0  0
    2.0865   -0.6504    2.5932 H   0  0  0  0  0  0  0  0  0  0  0  0
    2.1174    1.0465    2.0977 H   0  0  0  0  0  0  0  0  0  0  0  0
    2.8529    0.5609    3.6406 H   0  0  0  0  0  0  0  0  0  0  0  0
    4.0669   -2.0682    1.3014 H   0  0  0  0  0  0  0  0  0  0  0  0
    8.0913   -2.0439   -2.1036 H   0  0  0  0  0  0  0  0  0  0  0  0
   11.9620    1.4978   -1.9214 H   0  0  0  0  0  0  0  0  0  0  0  0
   12.1221   -0.4401   -6.1553 H   0  0  0  0  0  0  0  0  0  0  0  0
    8.8287   -3.7847  -11.1039 H   0  0  0  0  0  0  0  0  0  0  0  0
    7.5529   -2.8184  -10.3440 H   0  0  0  0  0  0  0  0  0  0  0  0
    7.9496   -4.4271   -9.7050 H   0  0  0  0  0  0  0  0  0  0  0  0
    8.1711   -3.2834   -5.8341 H   0  0  0  0  0  0  0  0  0  0  0  0
    8.4918   -3.7216   -2.8553 H   0  0  0  0  0  0  0  0  0  0  0  0
    9.2438   -4.5949   -4.1749 H   0  0  0  0  0  0  0  0  0  0  0  0
    7.4897   -4.6590   -3.9626 H   0  0  0  0  0  0  0  0  0  0  0  0
    6.7097   -1.6563   -3.7379 H   0  0  0  0  0  0  0  0  0  0  0  0
    6.0457   -2.8053   -4.9008 H   0  0  0  0  0  0  0  0  0  0  0  0
    6.7788   -1.3011   -5.4668 H   0  0  0  0  0  0  0  0  0  0  0  0
    8.4785    1.4564   -0.8396 H   0  0  0  0  0  0  0  0  0  0  0  0
    4.7778    2.0272    2.0213 H   0  0  0  0  0  0  0  0  0  0  0  0
  1  2  1  0  0  0  0
  1 31  1  0  0  0  0
  1 32  1  0  0  0  0
  1 33  1  0  0  0  0
  2  3  2  0  0  0  0
  2 30  1  0  0  0  0
  3  4  1  0  0  0  0
  3 34  1  0  0  0  0
  4  5  1  0  0  0  0
  4 29  2  0  0  0  0
  5  6  1  0  0  0  0
  5  7  2  0  0  0  0
  7  8  1  0  0  0  0
  7 27  1  0  0  0  0
  8  9  1  0  0  0  0
  8 35  1  0  0  0  0
  9 10  2  0  0  0  0
  9 26  1  0  0  0  0
 10 11  1  0  0  0  0
 11 12  2  0  0  0  0
 11 36  1  0  0  0  0
 12 13  1  0  0  0  0
 13 14  1  0  0  0  0
 13 26  1  0  0  0  0
 14 15  2  0  0  0  0
 14 37  1  0  0  0  0
 15 16  1  0  0  0  0
 15 22  1  0  0  0  0
 16 17  2  0  0  0  0
 16 21  1  0  0  0  0
 17 18  1  0  0  0  0
 18 19  2  0  0  0  0
 19 20  1  0  0  0  0
 19 21  1  0  0  0  0
 20 38  1  0  0  0  0
 20 39  1  0  0  0  0
 20 40  1  0  0  0  0
 22 23  1  0  0  0  0
 22 26  2  0  0  0  0
 23 24  1  0  0  0  0
 23 25  1  0  0  0  0
 23 41  1  0  0  0  0
 24 42  1  0  0  0  0
 24 43  1  0  0  0  0
 24 44  1  0  0  0  0
 25 45  1  0  0  0  0
 25 46  1  0  0  0  0
 25 47  1  0  0  0  0
 27 28  2  0  0  0  0
 27 48  1  0  0  0  0
 28 29  1  0  0  0  0
 29 30  1  0  0  0  0
 30 49  1  0  0  0  0
M  END
$$$$
