CHEMBL3909001
 OpenBabel04072215373D

 58 62  0  0  1  0  0  0  0  0999 V2000
   -5.6210   11.2055   11.7774 C   0  0  0  0  0  0  0  0  0  0  0  0
   -5.9786    9.8441   11.2444 C   0  0  0  0  0  0  0  0  0  0  0  0
   -5.0040    8.8401   11.2720 C   0  0  0  0  0  0  0  0  0  0  0  0
   -5.3246    7.5527   10.8698 C   0  0  0  0  0  0  0  0  0  0  0  0
   -6.6046    7.2657   10.4100 C   0  0  0  0  0  0  0  0  0  0  0  0
   -6.8775    5.9678   10.2224 F   0  0  0  0  0  0  0  0  0  0  0  0
   -7.5877    8.2575   10.2525 C   0  0  0  0  0  0  0  0  0  0  0  0
   -8.8667    8.0241    9.6458 N   0  0  0  0  0  0  0  0  0  0  0  0
   -9.1422    6.9414    8.8062 C   0  0  0  0  0  0  0  0  0  0  0  0
   -8.3015    6.1473    8.3874 O   0  0  0  0  0  0  0  0  0  0  0  0
  -10.4594    6.9080    8.3665 N   0  0  0  0  0  0  0  0  0  0  0  0
  -10.8918    5.8189    7.5538 C   0  0  0  0  0  0  0  0  0  0  0  0
  -11.4838    6.0706    6.3256 C   0  0  0  0  0  0  0  0  0  0  0  0
  -11.8309    5.0051    5.4798 C   0  0  0  0  0  0  0  0  0  0  0  0
  -11.6572    3.6534    5.8444 C   0  0  0  0  0  0  0  0  0  0  0  0
  -12.0601    2.5142    4.8802 C   0  0  3  0  0  0  0  0  0  0  0  0
  -13.0365    2.9580    3.7547 C   0  0  0  0  0  0  0  0  0  0  0  0
  -12.2851    3.5879    2.6316 N   0  0  0  0  0  0  0  0  0  0  0  0
  -11.3786    2.7852    2.1797 C   0  0  0  0  0  0  0  0  0  0  0  0
  -10.4621    3.0534    1.0935 C   0  0  0  0  0  0  0  0  0  0  0  0
   -9.4320    3.9676    1.2569 C   0  0  0  0  0  0  0  0  0  0  0  0
   -8.4222    4.0044    0.3018 C   0  0  0  0  0  0  0  0  0  0  0  0
   -8.5161    3.1996   -0.8410 C   0  0  0  0  0  0  0  0  0  0  0  0
   -9.4772    2.1852   -0.9099 C   0  0  0  0  0  0  0  0  0  0  0  0
  -10.3115    2.0174    0.1870 C   0  0  0  0  0  0  0  0  0  0  0  0
  -10.6467    0.7191    0.6536 N   0  0  0  0  0  0  0  0  0  0  0  0
  -10.6797    0.5050    2.0441 C   0  0  0  0  0  0  0  0  0  0  0  0
  -10.3556   -0.5806    2.5183 O   0  0  0  0  0  0  0  0  0  0  0  0
  -11.0869    1.5978    2.7939 N   0  0  0  0  0  0  0  0  0  0  0  0
  -10.8407    1.8225    4.2110 C   0  0  0  0  0  0  0  0  0  0  0  0
  -11.0957    3.3989    7.1163 C   0  0  0  0  0  0  0  0  0  0  0  0
  -10.8745    2.0173    7.6702 C   0  0  0  0  0  0  0  0  0  0  0  0
  -10.7123    4.4862    7.9442 C   0  0  0  0  0  0  0  0  0  0  0  0
   -7.2655    9.5519   10.7263 C   0  0  0  0  0  0  0  0  0  0  0  0
   -4.5840   11.2322   12.1387 H   0  0  0  0  0  0  0  0  0  0  0  0
   -6.2615   11.4639   12.6260 H   0  0  0  0  0  0  0  0  0  0  0  0
   -5.7110   11.9659   10.9975 H   0  0  0  0  0  0  0  0  0  0  0  0
   -3.9995    9.0428   11.6361 H   0  0  0  0  0  0  0  0  0  0  0  0
   -4.5955    6.7503   10.9287 H   0  0  0  0  0  0  0  0  0  0  0  0
   -9.5550    8.7584    9.7163 H   0  0  0  0  0  0  0  0  0  0  0  0
  -10.8278    7.8119    8.1063 H   0  0  0  0  0  0  0  0  0  0  0  0
  -11.6275    7.0855    5.9694 H   0  0  0  0  0  0  0  0  0  0  0  0
  -12.2267    5.2727    4.5012 H   0  0  0  0  0  0  0  0  0  0  0  0
  -12.6101    1.7662    5.4627 H   0  0  0  0  0  0  0  0  0  0  0  0
  -13.5926    2.0863    3.3748 H   0  0  0  0  0  0  0  0  0  0  0  0
  -13.8032    3.6499    4.1212 H   0  0  0  0  0  0  0  0  0  0  0  0
   -9.3516    4.5320    2.1832 H   0  0  0  0  0  0  0  0  0  0  0  0
   -7.5497    4.6317    0.4642 H   0  0  0  0  0  0  0  0  0  0  0  0
   -7.7690    3.2962   -1.6249 H   0  0  0  0  0  0  0  0  0  0  0  0
   -9.4562    1.4761   -1.7308 H   0  0  0  0  0  0  0  0  0  0  0  0
  -10.3186   -0.0747    0.1172 H   0  0  0  0  0  0  0  0  0  0  0  0
   -9.9951    2.5295    4.2390 H   0  0  0  0  0  0  0  0  0  0  0  0
  -10.4932    0.9203    4.7180 H   0  0  0  0  0  0  0  0  0  0  0  0
  -11.0889    1.2193    6.9570 H   0  0  0  0  0  0  0  0  0  0  0  0
  -11.5191    1.8591    8.5411 H   0  0  0  0  0  0  0  0  0  0  0  0
   -9.8285    1.9037    7.9735 H   0  0  0  0  0  0  0  0  0  0  0  0
  -10.2686    4.2765    8.9166 H   0  0  0  0  0  0  0  0  0  0  0  0
   -8.0029   10.3513   10.6853 H   0  0  0  0  0  0  0  0  0  0  0  0
  1  2  1  0  0  0  0
  1 35  1  0  0  0  0
  1 36  1  0  0  0  0
  1 37  1  0  0  0  0
  2  3  1  0  0  0  0
  2 34  2  0  0  0  0
  3  4  2  0  0  0  0
  3 38  1  0  0  0  0
  4  5  1  0  0  0  0
  4 39  1  0  0  0  0
  5  6  1  0  0  0  0
  5  7  2  0  0  0  0
  7  8  1  0  0  0  0
  7 34  1  0  0  0  0
  8  9  1  0  0  0  0
  8 40  1  0  0  0  0
  9 10  2  0  0  0  0
  9 11  1  0  0  0  0
 11 12  1  0  0  0  0
 11 41  1  0  0  0  0
 12 13  1  0  0  0  0
 12 33  2  0  0  0  0
 13 14  2  0  0  0  0
 13 42  1  0  0  0  0
 14 15  1  0  0  0  0
 14 43  1  0  0  0  0
 15 16  1  0  0  0  0
 15 31  2  0  0  0  0
 16 17  1  0  0  0  0
 16 30  1  0  0  0  0
 16 44  1  0  0  0  0
 17 18  1  0  0  0  0
 17 45  1  0  0  0  0
 17 46  1  0  0  0  0
 18 19  2  0  0  0  0
 19 20  1  0  0  0  0
 19 29  1  0  0  0  0
 20 21  1  0  0  0  0
 20 25  2  0  0  0  0
 21 22  2  0  0  0  0
 21 47  1  0  0  0  0
 22 23  1  0  0  0  0
 22 48  1  0  0  0  0
 23 24  2  0  0  0  0
 23 49  1  0  0  0  0
 24 25  1  0  0  0  0
 24 50  1  0  0  0  0
 25 26  1  0  0  0  0
 26 27  1  0  0  0  0
 26 51  1  0  0  0  0
 27 28  2  0  0  0  0
 27 29  1  0  0  0  0
 29 30  1  0  0  0  0
 30 52  1  0  0  0  0
 30 53  1  0  0  0  0
 31 32  1  0  0  0  0
 31 33  1  0  0  0  0
 32 54  1  0  0  0  0
 32 55  1  0  0  0  0
 32 56  1  0  0  0  0
 33 57  1  0  0  0  0
 34 58  1  0  0  0  0
M  END
$$$$
