CHEMBL3656120
 OpenBabel04072215373D

 61 64  0  0  0  0  0  0  0  0999 V2000
    3.9156   -1.4226   -0.6020 C   0  0  0  0  0  0  0  0  0  0  0  0
    3.3089   -0.8425    0.8919 S   0  0  3  0  0  0  0  0  0  0  0  0
    1.6089   -0.5151    0.7759 C   0  0  0  0  0  0  0  0  0  0  0  0
    3.3227   -2.0308    1.7053 O   0  0  0  0  0  0  0  0  0  0  0  0
    4.1887    0.2997    1.6398 N   0  0  0  0  0  0  0  0  0  0  0  0
    4.4977    1.4730    1.0174 C   0  0  0  0  0  0  0  0  0  0  0  0
    4.1342    1.7423   -0.1206 O   0  0  0  0  0  0  0  0  0  0  0  0
    5.3017    2.3961    1.8186 C   0  0  0  0  0  0  0  0  0  0  0  0
    5.8290    2.2332    3.0901 C   0  0  0  0  0  0  0  0  0  0  0  0
    6.5354    3.3726    3.4162 N   0  0  0  0  0  0  0  0  0  0  0  0
    6.4703    4.2831    2.3932 C   0  0  0  0  0  0  0  0  0  0  0  0
    7.0951    5.6012    2.4482 C   0  0  0  0  0  0  0  0  0  0  0  0
    6.9844    6.4811    1.3803 C   0  0  0  0  0  0  0  0  0  0  0  0
    7.4877    7.7712    1.5041 C   0  0  0  0  0  0  0  0  0  0  0  0
    7.3610    8.7421    0.5241 O   0  0  0  0  0  0  0  0  0  0  0  0
    6.2447    8.7281   -0.2925 C   0  0  0  0  0  0  0  0  0  0  0  0
    4.9853    8.3413    0.1518 C   0  0  0  0  0  0  0  0  0  0  0  0
    3.9239    8.2278   -0.7473 C   0  0  0  0  0  0  0  0  0  0  0  0
    4.0579    8.5780   -2.0905 C   0  0  0  0  0  0  0  0  0  0  0  0
    3.0006    8.4272   -3.0284 N   0  0  0  0  0  0  0  0  0  0  0  0
    1.7316    7.9382   -2.7350 C   0  0  0  0  0  0  0  0  0  0  0  0
    1.3296    7.6223   -1.6193 O   0  0  0  0  0  0  0  0  0  0  0  0
    0.9335    7.7872   -3.8644 N   0  0  0  0  0  0  0  0  0  0  0  0
   -0.3806    7.2696   -3.7250 C   0  0  0  0  0  0  0  0  0  0  0  0
   -0.7694    6.1932   -4.5125 C   0  0  0  0  0  0  0  0  0  0  0  0
   -2.0434    5.6411   -4.3553 C   0  0  0  0  0  0  0  0  0  0  0  0
   -2.9537    6.1750   -3.4310 C   0  0  0  0  0  0  0  0  0  0  0  0
   -4.5123    5.4347   -3.3844 Cl  0  0  0  0  0  0  0  0  0  0  0  0
   -2.5855    7.2521   -2.6202 C   0  0  0  0  0  0  0  0  0  0  0  0
   -3.4711    7.8657   -1.5642 C   0  0  0  0  0  0  0  0  0  0  0  0
   -4.7081    7.3205   -1.4201 F   0  0  0  0  0  0  0  0  0  0  0  0
   -2.9083    7.8027   -0.3233 F   0  0  0  0  0  0  0  0  0  0  0  0
   -3.6912    9.1929   -1.7950 F   0  0  0  0  0  0  0  0  0  0  0  0
   -1.2866    7.7934   -2.7863 C   0  0  0  0  0  0  0  0  0  0  0  0
    5.2991    9.0797   -2.5134 C   0  0  0  0  0  0  0  0  0  0  0  0
    6.3862    9.1492   -1.6188 C   0  0  0  0  0  0  0  0  0  0  0  0
    8.1891    8.1043    2.6554 C   0  0  0  0  0  0  0  0  0  0  0  0
    8.2879    7.1491    3.6603 C   0  0  0  0  0  0  0  0  0  0  0  0
    7.7409    5.9100    3.5961 N   0  0  0  0  0  0  0  0  0  0  0  0
    5.7102    3.6888    1.3959 C   0  0  0  0  0  0  0  0  0  0  0  0
    3.4178   -2.2496   -1.1279 H   0  0  0  0  0  0  0  0  0  0  0  0
    4.8122   -0.9823   -1.0608 H   0  0  0  0  0  0  0  0  0  0  0  0
    1.1010   -1.3831    0.3504 H   0  0  0  0  0  0  0  0  0  0  0  0
    1.4600    0.3551    0.1345 H   0  0  0  0  0  0  0  0  0  0  0  0
    1.2217   -0.3086    1.7758 H   0  0  0  0  0  0  0  0  0  0  0  0
    4.4270    0.1211    2.6028 H   0  0  0  0  0  0  0  0  0  0  0  0
    5.7859    1.4150    3.8024 H   0  0  0  0  0  0  0  0  0  0  0  0
    7.0413    3.5355    4.2808 H   0  0  0  0  0  0  0  0  0  0  0  0
    6.4736    6.1704    0.4770 H   0  0  0  0  0  0  0  0  0  0  0  0
    4.8063    8.0651    1.1863 H   0  0  0  0  0  0  0  0  0  0  0  0
    2.9978    7.8444   -0.3321 H   0  0  0  0  0  0  0  0  0  0  0  0
    3.1748    8.7365   -3.9752 H   0  0  0  0  0  0  0  0  0  0  0  0
    1.4388    7.5016   -4.6905 H   0  0  0  0  0  0  0  0  0  0  0  0
   -0.0753    5.7259   -5.2051 H   0  0  0  0  0  0  0  0  0  0  0  0
   -2.3210    4.7736   -4.9507 H   0  0  0  0  0  0  0  0  0  0  0  0
   -0.9840    8.6353   -2.1625 H   0  0  0  0  0  0  0  0  0  0  0  0
    5.4496    9.4081   -3.5367 H   0  0  0  0  0  0  0  0  0  0  0  0
    7.3499    9.5206   -1.9643 H   0  0  0  0  0  0  0  0  0  0  0  0
    8.6403    9.0823    2.7752 H   0  0  0  0  0  0  0  0  0  0  0  0
    8.8238    7.3669    4.5813 H   0  0  0  0  0  0  0  0  0  0  0  0
    5.4581    4.1336    0.4405 H   0  0  0  0  0  0  0  0  0  0  0  0
  1  2  2  0  0  0  0
  1 41  1  0  0  0  0
  1 42  1  0  0  0  0
  2  3  1  0  0  0  0
  2  4  2  0  0  0  0
  2  5  1  0  0  0  0
  3 43  1  0  0  0  0
  3 44  1  0  0  0  0
  3 45  1  0  0  0  0
  5  6  1  0  0  0  0
  5 46  1  0  0  0  0
  6  7  2  0  0  0  0
  6  8  1  0  0  0  0
  8  9  2  0  0  0  0
  8 40  1  0  0  0  0
  9 10  1  0  0  0  0
  9 47  1  0  0  0  0
 10 11  1  0  0  0  0
 10 48  1  0  0  0  0
 11 12  1  0  0  0  0
 11 40  2  0  0  0  0
 12 13  1  0  0  0  0
 12 39  2  0  0  0  0
 13 14  2  0  0  0  0
 13 49  1  0  0  0  0
 14 15  1  0  0  0  0
 14 37  1  0  0  0  0
 15 16  1  0  0  0  0
 16 17  1  0  0  0  0
 16 36  2  0  0  0  0
 17 18  2  0  0  0  0
 17 50  1  0  0  0  0
 18 19  1  0  0  0  0
 18 51  1  0  0  0  0
 19 20  1  0  0  0  0
 19 35  2  0  0  0  0
 20 21  1  0  0  0  0
 20 52  1  0  0  0  0
 21 22  2  0  0  0  0
 21 23  1  0  0  0  0
 23 24  1  0  0  0  0
 23 53  1  0  0  0  0
 24 25  1  0  0  0  0
 24 34  2  0  0  0  0
 25 26  2  0  0  0  0
 25 54  1  0  0  0  0
 26 27  1  0  0  0  0
 26 55  1  0  0  0  0
 27 28  1  0  0  0  0
 27 29  2  0  0  0  0
 29 30  1  0  0  0  0
 29 34  1  0  0  0  0
 30 31  1  0  0  0  0
 30 32  1  0  0  0  0
 30 33  1  0  0  0  0
 34 56  1  0  0  0  0
 35 36  1  0  0  0  0
 35 57  1  0  0  0  0
 36 58  1  0  0  0  0
 37 38  2  0  0  0  0
 37 59  1  0  0  0  0
 38 39  1  0  0  0  0
 38 60  1  0  0  0  0
 40 61  1  0  0  0  0
M  END
$$$$
