CHEMBL3781989
 OpenBabel04072215373D

 52 56  0  0  0  0  0  0  0  0999 V2000
    0.5113    3.9039    1.8841 C   0  0  0  0  0  0  0  0  0  0  0  0
   -0.1078    2.8600    2.5607 C   0  0  0  0  0  0  0  0  0  0  0  0
   -1.3598    2.4017    2.1434 C   0  0  0  0  0  0  0  0  0  0  0  0
   -2.0255    2.9759    1.0410 C   0  0  0  0  0  0  0  0  0  0  0  0
   -3.3449    2.4898    0.5936 C   0  0  0  0  0  0  0  0  0  0  0  0
   -4.2893    1.9712    1.4701 C   0  0  0  0  0  0  0  0  0  0  0  0
   -5.4884    1.4931    1.0734 N   0  0  0  0  0  0  0  0  0  0  0  0
   -5.7447    1.5533   -0.2492 C   0  0  0  0  0  0  0  0  0  0  0  0
   -6.9528    1.0900   -0.7388 C   0  0  0  0  0  0  0  0  0  0  0  0
   -7.3287    1.1009   -2.0357 N   0  0  0  0  0  0  0  0  0  0  0  0
   -6.4398    1.6269   -2.8905 C   0  0  0  0  0  0  0  0  0  0  0  0
   -5.1860    2.1372   -2.5327 C   0  0  0  0  0  0  0  0  0  0  0  0
   -4.3435    2.7391   -3.4993 N   0  0  0  0  0  0  0  0  0  0  0  0
   -4.7122    3.4249   -4.6667 C   0  0  0  0  0  0  0  0  0  0  0  0
   -5.9072    4.1457   -4.7454 C   0  0  0  0  0  0  0  0  0  0  0  0
   -6.3357    4.7144   -5.9489 C   0  0  0  0  0  0  0  0  0  0  0  0
   -5.5881    4.5969   -7.1249 C   0  0  0  0  0  0  0  0  0  0  0  0
   -6.0286    5.1578   -8.3064 N   0  0  0  0  0  0  0  0  0  0  0  0
   -5.1072    5.6080   -9.3458 C   0  0  0  0  0  0  0  0  0  0  0  0
   -5.4880    7.0350   -9.7414 C   0  0  0  0  0  0  0  0  0  0  0  0
   -6.9574    7.1357  -10.1482 C   0  0  0  0  0  0  0  0  0  0  0  0
   -7.8796    6.5435   -9.0814 C   0  0  0  0  0  0  0  0  0  0  0  0
   -7.4425    5.1323   -8.6875 C   0  0  0  0  0  0  0  0  0  0  0  0
   -4.3682    3.9117   -7.0225 C   0  0  0  0  0  0  0  0  0  0  0  0
   -3.9345    3.3340   -5.8185 C   0  0  0  0  0  0  0  0  0  0  0  0
   -4.8198    2.0891   -1.1761 C   0  0  0  0  0  0  0  0  0  0  0  0
   -3.6146    2.5534   -0.7400 N   0  0  0  0  0  0  0  0  0  0  0  0
   -1.3773    4.0302    0.3750 C   0  0  0  0  0  0  0  0  0  0  0  0
   -0.1215    4.4916    0.7914 C   0  0  0  0  0  0  0  0  0  0  0  0
    1.4887    4.2580    2.2035 H   0  0  0  0  0  0  0  0  0  0  0  0
    0.3850    2.3942    3.4119 H   0  0  0  0  0  0  0  0  0  0  0  0
   -1.8005    1.5691    2.6884 H   0  0  0  0  0  0  0  0  0  0  0  0
   -4.1190    1.9264    2.5402 H   0  0  0  0  0  0  0  0  0  0  0  0
   -7.6834    0.6733   -0.0560 H   0  0  0  0  0  0  0  0  0  0  0  0
   -6.7575    1.6185   -3.9310 H   0  0  0  0  0  0  0  0  0  0  0  0
   -3.3674    2.4794   -3.3996 H   0  0  0  0  0  0  0  0  0  0  0  0
   -6.5223    4.2910   -3.8606 H   0  0  0  0  0  0  0  0  0  0  0  0
   -7.2607    5.2848   -5.9384 H   0  0  0  0  0  0  0  0  0  0  0  0
   -5.1688    4.9374  -10.2113 H   0  0  0  0  0  0  0  0  0  0  0  0
   -4.0643    5.6233   -9.0134 H   0  0  0  0  0  0  0  0  0  0  0  0
   -4.8478    7.3761  -10.5617 H   0  0  0  0  0  0  0  0  0  0  0  0
   -5.3065    7.7038   -8.8895 H   0  0  0  0  0  0  0  0  0  0  0  0
   -7.1078    6.6042  -11.0962 H   0  0  0  0  0  0  0  0  0  0  0  0
   -7.2208    8.1851  -10.3219 H   0  0  0  0  0  0  0  0  0  0  0  0
   -8.9073    6.5237   -9.4500 H   0  0  0  0  0  0  0  0  0  0  0  0
   -7.8659    7.1879   -8.1944 H   0  0  0  0  0  0  0  0  0  0  0  0
   -7.5690    4.4545   -9.5417 H   0  0  0  0  0  0  0  0  0  0  0  0
   -8.1035    4.7521   -7.9011 H   0  0  0  0  0  0  0  0  0  0  0  0
   -3.7412    3.7755   -7.8989 H   0  0  0  0  0  0  0  0  0  0  0  0
   -2.9940    2.7904   -5.8089 H   0  0  0  0  0  0  0  0  0  0  0  0
   -1.8546    4.5095   -0.4784 H   0  0  0  0  0  0  0  0  0  0  0  0
    0.3567    5.3094    0.2606 H   0  0  0  0  0  0  0  0  0  0  0  0
  1  2  1  0  0  0  0
  1 29  2  0  0  0  0
  1 30  1  0  0  0  0
  2  3  2  0  0  0  0
  2 31  1  0  0  0  0
  3  4  1  0  0  0  0
  3 32  1  0  0  0  0
  4  5  1  0  0  0  0
  4 28  2  0  0  0  0
  5  6  1  0  0  0  0
  5 27  2  0  0  0  0
  6  7  2  0  0  0  0
  6 33  1  0  0  0  0
  7  8  1  0  0  0  0
  8  9  1  0  0  0  0
  8 26  2  0  0  0  0
  9 10  2  0  0  0  0
  9 34  1  0  0  0  0
 10 11  1  0  0  0  0
 11 12  2  0  0  0  0
 11 35  1  0  0  0  0
 12 13  1  0  0  0  0
 12 26  1  0  0  0  0
 13 14  1  0  0  0  0
 13 36  1  0  0  0  0
 14 15  1  0  0  0  0
 14 25  2  0  0  0  0
 15 16  2  0  0  0  0
 15 37  1  0  0  0  0
 16 17  1  0  0  0  0
 16 38  1  0  0  0  0
 17 18  1  0  0  0  0
 17 24  2  0  0  0  0
 18 19  1  0  0  0  0
 18 23  1  0  0  0  0
 19 20  1  0  0  0  0
 19 39  1  0  0  0  0
 19 40  1  0  0  0  0
 20 21  1  0  0  0  0
 20 41  1  0  0  0  0
 20 42  1  0  0  0  0
 21 22  1  0  0  0  0
 21 43  1  0  0  0  0
 21 44  1  0  0  0  0
 22 23  1  0  0  0  0
 22 45  1  0  0  0  0
 22 46  1  0  0  0  0
 23 47  1  0  0  0  0
 23 48  1  0  0  0  0
 24 25  1  0  0  0  0
 24 49  1  0  0  0  0
 25 50  1  0  0  0  0
 26 27  1  0  0  0  0
 28 29  1  0  0  0  0
 28 51  1  0  0  0  0
 29 52  1  0  0  0  0
M  END
$$$$
