CHEMBL4442932
 OpenBabel04072215383D

 52 55  0  0  0  0  0  0  0  0999 V2000
    2.1266    3.7350    0.0767 C   0  0  0  0  0  0  0  0  0  0  0  0
    3.4203    3.2678   -0.2811 O   0  0  0  0  0  0  0  0  0  0  0  0
    3.4746    2.1098   -1.0074 C   0  0  0  0  0  0  0  0  0  0  0  0
    2.4020    1.2650   -1.2866 C   0  0  0  0  0  0  0  0  0  0  0  0
    2.5958    0.1186   -2.0630 C   0  0  0  0  0  0  0  0  0  0  0  0
    3.8566   -0.1781   -2.5831 C   0  0  0  0  0  0  0  0  0  0  0  0
    4.9368    0.6691   -2.3137 C   0  0  0  0  0  0  0  0  0  0  0  0
    6.2064    0.4066   -2.8955 N   0  0  0  0  0  0  0  0  0  0  0  0
    7.3744    1.0978   -2.6823 C   0  0  0  0  0  0  0  0  0  0  0  0
    8.3408    0.5560   -3.4881 C   0  0  0  0  0  0  0  0  0  0  0  0
    9.6688    0.9407   -3.5901 N   0  0  0  0  0  0  0  0  0  0  0  0
   10.2261    1.9646   -2.8460 C   0  0  0  0  0  0  0  0  0  0  0  0
    9.6417    2.6524   -2.0115 O   0  0  0  0  0  0  0  0  0  0  0  0
   11.6753    2.2328   -3.0541 C   0  0  0  0  0  0  0  0  0  0  0  0
   12.3419    1.9877   -4.2624 C   0  0  0  0  0  0  0  0  0  0  0  0
   13.6979    2.3227   -4.3918 C   0  0  0  0  0  0  0  0  0  0  0  0
   14.3792    2.8932   -3.3165 C   0  0  0  0  0  0  0  0  0  0  0  0
   15.7361    3.2859   -3.4266 N   0  0  0  0  0  0  0  0  0  0  0  0
   16.0912    4.8466   -3.9683 S   0  0  0  0  0  0  0  0  0  0  0  0
   17.5349    4.9412   -4.0104 O   0  0  0  0  0  0  0  0  0  0  0  0
   15.2898    5.1173   -5.1431 O   0  0  0  0  0  0  0  0  0  0  0  0
   15.5304    5.8709   -2.6319 C   0  0  0  0  0  0  0  0  0  0  0  0
   16.1076    5.7234   -1.3656 C   0  0  0  0  0  0  0  0  0  0  0  0
   15.5966    6.4520   -0.2915 C   0  0  0  0  0  0  0  0  0  0  0  0
   14.5324    7.3346   -0.4894 C   0  0  0  0  0  0  0  0  0  0  0  0
   13.9787    7.4979   -1.7605 C   0  0  0  0  0  0  0  0  0  0  0  0
   14.4756    6.7653   -2.8381 C   0  0  0  0  0  0  0  0  0  0  0  0
   13.7176    3.1340   -2.1158 C   0  0  0  0  0  0  0  0  0  0  0  0
   12.3707    2.8129   -1.9867 C   0  0  0  0  0  0  0  0  0  0  0  0
    7.6671   -0.4731   -4.1734 C   0  0  0  0  0  0  0  0  0  0  0  0
    6.3877   -0.5904   -3.8059 N   0  0  0  0  0  0  0  0  0  0  0  0
    4.7428    1.7967   -1.5014 C   0  0  0  0  0  0  0  0  0  0  0  0
    2.2413    4.7223    0.5340 H   0  0  0  0  0  0  0  0  0  0  0  0
    1.6684    3.0720    0.8167 H   0  0  0  0  0  0  0  0  0  0  0  0
    1.4852    3.8508   -0.8037 H   0  0  0  0  0  0  0  0  0  0  0  0
    1.4028    1.4703   -0.9184 H   0  0  0  0  0  0  0  0  0  0  0  0
    1.7566   -0.5395   -2.2749 H   0  0  0  0  0  0  0  0  0  0  0  0
    3.9817   -1.0684   -3.1964 H   0  0  0  0  0  0  0  0  0  0  0  0
    7.4261    1.9102   -1.9754 H   0  0  0  0  0  0  0  0  0  0  0  0
   10.2506    0.3852   -4.2046 H   0  0  0  0  0  0  0  0  0  0  0  0
   11.8207    1.5854   -5.1258 H   0  0  0  0  0  0  0  0  0  0  0  0
   14.2011    2.1638   -5.3424 H   0  0  0  0  0  0  0  0  0  0  0  0
   16.4343    2.6011   -3.7089 H   0  0  0  0  0  0  0  0  0  0  0  0
   16.9260    5.0251   -1.2087 H   0  0  0  0  0  0  0  0  0  0  0  0
   16.0183    6.3264    0.7027 H   0  0  0  0  0  0  0  0  0  0  0  0
   14.1309    7.8971    0.3508 H   0  0  0  0  0  0  0  0  0  0  0  0
   13.1511    8.1878   -1.9086 H   0  0  0  0  0  0  0  0  0  0  0  0
   14.0262    6.8826   -3.8217 H   0  0  0  0  0  0  0  0  0  0  0  0
   14.2350    3.5777   -1.2709 H   0  0  0  0  0  0  0  0  0  0  0  0
   11.8626    3.0293   -1.0478 H   0  0  0  0  0  0  0  0  0  0  0  0
    8.0511   -1.1490   -4.9255 H   0  0  0  0  0  0  0  0  0  0  0  0
    5.5522    2.4795   -1.2582 H   0  0  0  0  0  0  0  0  0  0  0  0
  1  2  1  0  0  0  0
  1 33  1  0  0  0  0
  1 34  1  0  0  0  0
  1 35  1  0  0  0  0
  2  3  1  0  0  0  0
  3  4  1  0  0  0  0
  3 32  2  0  0  0  0
  4  5  2  0  0  0  0
  4 36  1  0  0  0  0
  5  6  1  0  0  0  0
  5 37  1  0  0  0  0
  6  7  2  0  0  0  0
  6 38  1  0  0  0  0
  7  8  1  0  0  0  0
  7 32  1  0  0  0  0
  8  9  1  0  0  0  0
  8 31  1  0  0  0  0
  9 10  2  0  0  0  0
  9 39  1  0  0  0  0
 10 11  1  0  0  0  0
 10 30  1  0  0  0  0
 11 12  1  0  0  0  0
 11 40  1  0  0  0  0
 12 13  2  0  0  0  0
 12 14  1  0  0  0  0
 14 15  1  0  0  0  0
 14 29  2  0  0  0  0
 15 16  2  0  0  0  0
 15 41  1  0  0  0  0
 16 17  1  0  0  0  0
 16 42  1  0  0  0  0
 17 18  1  0  0  0  0
 17 28  2  0  0  0  0
 18 19  1  0  0  0  0
 18 43  1  0  0  0  0
 19 20  2  0  0  0  0
 19 21  2  0  0  0  0
 19 22  1  0  0  0  0
 22 23  1  0  0  0  0
 22 27  2  0  0  0  0
 23 24  2  0  0  0  0
 23 44  1  0  0  0  0
 24 25  1  0  0  0  0
 24 45  1  0  0  0  0
 25 26  2  0  0  0  0
 25 46  1  0  0  0  0
 26 27  1  0  0  0  0
 26 47  1  0  0  0  0
 27 48  1  0  0  0  0
 28 29  1  0  0  0  0
 28 49  1  0  0  0  0
 29 50  1  0  0  0  0
 30 31  2  0  0  0  0
 30 51  1  0  0  0  0
 32 52  1  0  0  0  0
M  END
$$$$
