CHEMBL3221557
 OpenBabel04072215363D

 58 59  0  0  0  0  0  0  0  0999 V2000
    5.5846   -4.6848   -4.8728 C   0  0  0  0  0  0  0  0  0  0  0  0
    5.5543   -5.3536   -3.5034 C   0  0  0  0  0  0  0  0  0  0  0  0
    6.2445   -4.5205   -2.4101 C   0  0  0  0  0  0  0  0  0  0  0  0
    6.1427   -5.2730   -1.0677 C   0  0  0  0  0  0  0  0  0  0  0  0
    6.7628   -4.5924   -0.0333 O   0  0  0  0  0  0  0  0  0  0  0  0
    6.1197   -4.0167    1.0230 C   0  0  0  0  0  0  0  0  0  0  0  0
    4.9220   -3.7824    0.9592 O   0  0  0  0  0  0  0  0  0  0  0  0
    6.8197   -3.6000    2.1139 N   0  0  0  0  0  0  0  0  0  0  0  0
    8.2080   -3.8633    2.3008 C   0  0  0  0  0  0  0  0  0  0  0  0
    8.7516   -5.1271    1.9947 C   0  0  0  0  0  0  0  0  0  0  0  0
   10.1167   -5.3744    2.1511 C   0  0  0  0  0  0  0  0  0  0  0  0
   10.9763   -4.3555    2.5838 C   0  0  0  0  0  0  0  0  0  0  0  0
   12.3846   -4.6056    2.6380 N   0  0  0  0  0  0  0  0  0  0  0  0
   13.3840   -3.5816    2.4989 C   0  0  0  0  0  0  0  0  0  0  0  0
   13.0039   -2.3252    2.1338 N   0  0  0  0  0  0  0  0  0  0  0  0
   13.8807   -1.3118    1.9611 C   0  0  0  0  0  0  0  0  0  0  0  0
   15.2016   -1.5258    2.1435 N   0  0  0  0  0  0  0  0  0  0  0  0
   15.6655   -2.7593    2.4883 C   0  0  0  0  0  0  0  0  0  0  0  0
   17.0291   -2.9441    2.6674 C   0  0  0  0  0  0  0  0  0  0  0  0
   17.5621   -4.2046    3.0203 C   0  0  0  0  0  0  0  0  0  0  0  0
   18.9056   -4.3579    3.1956 O   0  0  0  0  0  0  0  0  0  0  0  0
   19.8344   -3.3310    3.0784 C   0  0  0  0  0  0  0  0  0  0  0  0
   16.6593   -5.2961    3.1873 C   0  0  0  0  0  0  0  0  0  0  0  0
   16.9967   -6.5745    3.5066 O   0  0  0  0  0  0  0  0  0  0  0  0
   18.2207   -7.1530    3.7318 C   0  0  0  0  0  0  0  0  0  0  0  0
   15.2880   -5.0881    3.0181 C   0  0  0  0  0  0  0  0  0  0  0  0
   14.7688   -3.8299    2.6705 C   0  0  0  0  0  0  0  0  0  0  0  0
   10.4217   -3.1086    2.9429 C   0  0  0  0  0  0  0  0  0  0  0  0
    9.0521   -2.8594    2.8129 C   0  0  0  0  0  0  0  0  0  0  0  0
    8.5288   -1.4943    3.1634 C   0  0  0  0  0  0  0  0  0  0  0  0
    1.6700   -1.3636   -2.5325 Cl  0  0  0  0  0  0  0  0  0  0  0  0
    5.0623   -5.3451   -5.6041 H   0  0  0  0  0  0  0  0  0  0  0  0
    6.6278   -4.5413   -5.2146 H   0  0  0  0  0  0  0  0  0  0  0  0
    5.0566   -3.7109   -4.8452 H   0  0  0  0  0  0  0  0  0  0  0  0
    6.0540   -6.3439   -3.5816 H   0  0  0  0  0  0  0  0  0  0  0  0
    4.4889   -5.5215   -3.2228 H   0  0  0  0  0  0  0  0  0  0  0  0
    5.7435   -3.5312   -2.3198 H   0  0  0  0  0  0  0  0  0  0  0  0
    7.3115   -4.3546   -2.6762 H   0  0  0  0  0  0  0  0  0  0  0  0
    6.6387   -6.2603   -1.1625 H   0  0  0  0  0  0  0  0  0  0  0  0
    5.0699   -5.4442   -0.8380 H   0  0  0  0  0  0  0  0  0  0  0  0
    6.3282   -3.0220    2.8128 H   0  0  0  0  0  0  0  0  0  0  0  0
    8.1153   -5.9310    1.6456 H   0  0  0  0  0  0  0  0  0  0  0  0
   10.5092   -6.3541    1.9032 H   0  0  0  0  0  0  0  0  0  0  0  0
   12.6740   -5.5923    2.6310 H   0  0  0  0  0  0  0  0  0  0  0  0
   13.5232   -0.3330    1.6756 H   0  0  0  0  0  0  0  0  0  0  0  0
   17.6677   -2.0798    2.5254 H   0  0  0  0  0  0  0  0  0  0  0  0
   20.8545   -3.7108    3.2818 H   0  0  0  0  0  0  0  0  0  0  0  0
   19.6132   -2.5201    3.8095 H   0  0  0  0  0  0  0  0  0  0  0  0
   19.8182   -2.9052    2.0498 H   0  0  0  0  0  0  0  0  0  0  0  0
   18.0413   -8.2327    3.9363 H   0  0  0  0  0  0  0  0  0  0  0  0
   18.7036   -6.7091    4.6242 H   0  0  0  0  0  0  0  0  0  0  0  0
   18.8613   -7.0782    2.8306 H   0  0  0  0  0  0  0  0  0  0  0  0
   14.6510   -5.9437    3.1682 H   0  0  0  0  0  0  0  0  0  0  0  0
   11.0374   -2.3189    3.3298 H   0  0  0  0  0  0  0  0  0  0  0  0
    9.3400   -0.8176    3.5087 H   0  0  0  0  0  0  0  0  0  0  0  0
    7.7778   -1.5698    3.9742 H   0  0  0  0  0  0  0  0  0  0  0  0
    8.0675   -1.0375    2.2626 H   0  0  0  0  0  0  0  0  0  0  0  0
    1.4499   -1.7895   -1.2431 H   0  0  0  0  0  0  0  0  0  0  0  0
  1  2  1  0  0  0  0
  1 32  1  0  0  0  0
  1 33  1  0  0  0  0
  1 34  1  0  0  0  0
  2  3  1  0  0  0  0
  2 35  1  0  0  0  0
  2 36  1  0  0  0  0
  3  4  1  0  0  0  0
  3 37  1  0  0  0  0
  3 38  1  0  0  0  0
  4  5  1  0  0  0  0
  4 39  1  0  0  0  0
  4 40  1  0  0  0  0
  5  6  1  0  0  0  0
  6  7  2  0  0  0  0
  6  8  1  0  0  0  0
  8  9  1  0  0  0  0
  8 41  1  0  0  0  0
  9 10  1  0  0  0  0
  9 29  2  0  0  0  0
 10 11  2  0  0  0  0
 10 42  1  0  0  0  0
 11 12  1  0  0  0  0
 11 43  1  0  0  0  0
 12 13  1  0  0  0  0
 12 28  2  0  0  0  0
 13 14  1  0  0  0  0
 13 44  1  0  0  0  0
 14 15  1  0  0  0  0
 14 27  2  0  0  0  0
 15 16  2  0  0  0  0
 16 17  1  0  0  0  0
 16 45  1  0  0  0  0
 17 18  2  0  0  0  0
 18 19  1  0  0  0  0
 18 27  1  0  0  0  0
 19 20  2  0  0  0  0
 19 46  1  0  0  0  0
 20 21  1  0  0  0  0
 20 23  1  0  0  0  0
 21 22  1  0  0  0  0
 22 47  1  0  0  0  0
 22 48  1  0  0  0  0
 22 49  1  0  0  0  0
 23 24  1  0  0  0  0
 23 26  2  0  0  0  0
 24 25  1  0  0  0  0
 25 50  1  0  0  0  0
 25 51  1  0  0  0  0
 25 52  1  0  0  0  0
 26 27  1  0  0  0  0
 26 53  1  0  0  0  0
 28 29  1  0  0  0  0
 28 54  1  0  0  0  0
 29 30  1  0  0  0  0
 30 55  1  0  0  0  0
 30 56  1  0  0  0  0
 30 57  1  0  0  0  0
 31 58  1  0  0  0  0
M  END
$$$$
