CHEMBL3128228
 OpenBabel04072215363D

 58 62  0  0  0  0  0  0  0  0999 V2000
   -2.0624    0.8962   -0.9498 O   0  0  0  0  0  0  0  0  0  0  0  0
   -2.2512    0.4764   -2.0872 C   0  0  0  0  0  0  0  0  0  0  0  0
   -1.3696    0.5519   -3.1563 N   0  0  0  0  0  0  0  0  0  0  0  0
   -0.0750    1.1196   -3.1167 C   0  0  0  0  0  0  0  0  0  0  0  0
    0.5882    1.4063   -1.9225 C   0  0  0  0  0  0  0  0  0  0  0  0
    1.8318    2.0338   -1.9312 C   0  0  0  0  0  0  0  0  0  0  0  0
    2.4423    2.3632   -3.1379 C   0  0  0  0  0  0  0  0  0  0  0  0
    1.8247    2.0412   -4.3542 C   0  0  0  0  0  0  0  0  0  0  0  0
    2.5224    2.3423   -5.6635 C   0  0  0  0  0  0  0  0  0  0  0  0
    1.7209    3.2694   -6.4472 N   0  0  0  0  0  0  0  0  0  0  0  0
    2.2435    3.5945   -7.6996 C   0  0  0  0  0  0  0  0  0  0  0  0
    3.0633    2.7317   -8.3468 N   0  0  0  0  0  0  0  0  0  0  0  0
    3.5313    3.0610   -9.5688 C   0  0  0  0  0  0  0  0  0  0  0  0
    3.2972    4.1830  -10.2694 N   0  0  0  0  0  0  0  0  0  0  0  0
    2.4753    5.0155   -9.6084 C   0  0  0  0  0  0  0  0  0  0  0  0
    1.9291    4.7974   -8.3555 C   0  0  0  0  0  0  0  0  0  0  0  0
    1.1618    5.9515   -8.1037 C   0  0  0  0  0  0  0  0  0  0  0  0
    1.2048    6.8369   -9.1040 N   0  0  0  0  0  0  0  0  0  0  0  0
    1.9988    6.2348  -10.0291 N   0  0  0  0  0  0  0  0  0  0  0  0
    2.2791    6.9474  -11.2639 C   0  0  0  0  0  0  0  0  0  0  0  0
    2.5078    6.0717  -12.4969 C   0  0  0  0  0  0  0  0  0  0  0  0
    2.6858    6.8830  -13.7587 C   0  0  0  0  0  0  0  0  0  0  0  0
    3.9647    7.2848  -14.1696 C   0  0  0  0  0  0  0  0  0  0  0  0
    4.1338    8.0094  -15.3510 C   0  0  0  0  0  0  0  0  0  0  0  0
    3.0270    8.3451  -16.1277 C   0  0  0  0  0  0  0  0  0  0  0  0
    1.7500    7.9625  -15.7208 C   0  0  0  0  0  0  0  0  0  0  0  0
    1.5785    7.2374  -14.5400 C   0  0  0  0  0  0  0  0  0  0  0  0
    0.5636    1.4113   -4.3304 C   0  0  0  0  0  0  0  0  0  0  0  0
   -3.5840   -0.1005   -2.3926 C   0  0  0  0  0  0  0  0  0  0  0  0
   -4.7002    0.4502   -1.7505 C   0  0  0  0  0  0  0  0  0  0  0  0
   -5.9759   -0.0516   -2.0061 C   0  0  0  0  0  0  0  0  0  0  0  0
   -6.1378   -1.1145   -2.8953 C   0  0  0  0  0  0  0  0  0  0  0  0
   -5.0241   -1.6821   -3.5176 C   0  0  0  0  0  0  0  0  0  0  0  0
   -3.7448   -1.1811   -3.2671 C   0  0  0  0  0  0  0  0  0  0  0  0
   -1.7347    0.3352   -4.0752 H   0  0  0  0  0  0  0  0  0  0  0  0
    0.1608    1.1483   -0.9586 H   0  0  0  0  0  0  0  0  0  0  0  0
    2.3194    2.2647   -0.9879 H   0  0  0  0  0  0  0  0  0  0  0  0
    3.4087    2.8623   -3.1189 H   0  0  0  0  0  0  0  0  0  0  0  0
    2.6834    1.3921   -6.1871 H   0  0  0  0  0  0  0  0  0  0  0  0
    3.5068    2.7848   -5.4635 H   0  0  0  0  0  0  0  0  0  0  0  0
    1.4133    4.0802   -5.9246 H   0  0  0  0  0  0  0  0  0  0  0  0
    4.1744    2.3274  -10.0463 H   0  0  0  0  0  0  0  0  0  0  0  0
    0.5750    6.1866   -7.2257 H   0  0  0  0  0  0  0  0  0  0  0  0
    3.1467    7.5864  -11.0646 H   0  0  0  0  0  0  0  0  0  0  0  0
    1.4196    7.6084  -11.4441 H   0  0  0  0  0  0  0  0  0  0  0  0
    1.6715    5.3733  -12.6284 H   0  0  0  0  0  0  0  0  0  0  0  0
    3.4018    5.4510  -12.3721 H   0  0  0  0  0  0  0  0  0  0  0  0
    4.8412    7.0234  -13.5804 H   0  0  0  0  0  0  0  0  0  0  0  0
    5.1300    8.3057  -15.6689 H   0  0  0  0  0  0  0  0  0  0  0  0
    3.1595    8.9020  -17.0516 H   0  0  0  0  0  0  0  0  0  0  0  0
    0.8869    8.2233  -16.3279 H   0  0  0  0  0  0  0  0  0  0  0  0
    0.5751    6.9406  -14.2419 H   0  0  0  0  0  0  0  0  0  0  0  0
    0.0809    1.1794   -5.2780 H   0  0  0  0  0  0  0  0  0  0  0  0
   -4.5767    1.2733   -1.0477 H   0  0  0  0  0  0  0  0  0  0  0  0
   -6.8393    0.3817   -1.5084 H   0  0  0  0  0  0  0  0  0  0  0  0
   -7.1315   -1.5063   -3.0927 H   0  0  0  0  0  0  0  0  0  0  0  0
   -5.1555   -2.5255   -4.1923 H   0  0  0  0  0  0  0  0  0  0  0  0
   -2.8865   -1.6598   -3.7298 H   0  0  0  0  0  0  0  0  0  0  0  0
  1  2  2  0  0  0  0
  2  3  1  0  0  0  0
  2 29  1  0  0  0  0
  3  4  1  0  0  0  0
  3 35  1  0  0  0  0
  4  5  1  0  0  0  0
  4 28  2  0  0  0  0
  5  6  2  0  0  0  0
  5 36  1  0  0  0  0
  6  7  1  0  0  0  0
  6 37  1  0  0  0  0
  7  8  2  0  0  0  0
  7 38  1  0  0  0  0
  8  9  1  0  0  0  0
  8 28  1  0  0  0  0
  9 10  1  0  0  0  0
  9 39  1  0  0  0  0
  9 40  1  0  0  0  0
 10 11  1  0  0  0  0
 10 41  1  0  0  0  0
 11 12  1  0  0  0  0
 11 16  2  0  0  0  0
 12 13  2  0  0  0  0
 13 14  1  0  0  0  0
 13 42  1  0  0  0  0
 14 15  2  0  0  0  0
 15 16  1  0  0  0  0
 15 19  1  0  0  0  0
 16 17  1  0  0  0  0
 17 18  2  0  0  0  0
 17 43  1  0  0  0  0
 18 19  1  0  0  0  0
 19 20  1  0  0  0  0
 20 21  1  0  0  0  0
 20 44  1  0  0  0  0
 20 45  1  0  0  0  0
 21 22  1  0  0  0  0
 21 46  1  0  0  0  0
 21 47  1  0  0  0  0
 22 23  1  0  0  0  0
 22 27  2  0  0  0  0
 23 24  2  0  0  0  0
 23 48  1  0  0  0  0
 24 25  1  0  0  0  0
 24 49  1  0  0  0  0
 25 26  2  0  0  0  0
 25 50  1  0  0  0  0
 26 27  1  0  0  0  0
 26 51  1  0  0  0  0
 27 52  1  0  0  0  0
 28 53  1  0  0  0  0
 29 30  1  0  0  0  0
 29 34  2  0  0  0  0
 30 31  2  0  0  0  0
 30 54  1  0  0  0  0
 31 32  1  0  0  0  0
 31 55  1  0  0  0  0
 32 33  2  0  0  0  0
 32 56  1  0  0  0  0
 33 34  1  0  0  0  0
 33 57  1  0  0  0  0
 34 58  1  0  0  0  0
M  END
$$$$
