CHEMBL360401
 OpenBabel04072215363D

 47 49  0  0  0  0  0  0  0  0999 V2000
    4.0095   -4.9287    1.2417 C   0  0  0  0  0  0  0  0  0  0  0  0
    4.2120   -3.6994    0.5566 O   0  0  0  0  0  0  0  0  0  0  0  0
    5.3081   -3.6378   -0.2667 C   0  0  0  0  0  0  0  0  0  0  0  0
    6.2276   -4.6653   -0.4554 C   0  0  0  0  0  0  0  0  0  0  0  0
    7.2989   -4.4883   -1.3306 C   0  0  0  0  0  0  0  0  0  0  0  0
    7.4547   -3.2778   -2.0047 C   0  0  0  0  0  0  0  0  0  0  0  0
    6.5488   -2.2228   -1.8320 C   0  0  0  0  0  0  0  0  0  0  0  0
    6.7081   -0.9846   -2.4915 N   0  0  0  0  0  0  0  0  0  0  0  0
    7.3941   -0.7092   -3.6902 C   0  0  0  0  0  0  0  0  0  0  0  0
    7.7109    0.6083   -4.0195 C   0  0  0  0  0  0  0  0  0  0  0  0
    8.4735    0.9630   -5.0851 N   0  0  0  0  0  0  0  0  0  0  0  0
    8.9385   -0.0767   -5.8157 C   0  0  0  0  0  0  0  0  0  0  0  0
    8.6510   -1.4043   -5.5282 C   0  0  0  0  0  0  0  0  0  0  0  0
    9.1931   -2.5428   -6.2784 C   0  0  0  0  0  0  0  0  0  0  0  0
    8.4583   -3.7206   -6.4393 C   0  0  0  0  0  0  0  0  0  0  0  0
    8.8733   -4.8021   -7.1371 N   0  0  0  0  0  0  0  0  0  0  0  0
   10.1157   -4.7344   -7.6676 C   0  0  0  0  0  0  0  0  0  0  0  0
   10.9804   -3.6490   -7.5353 C   0  0  0  0  0  0  0  0  0  0  0  0
   12.2613   -3.7184   -8.0784 N   0  0  0  0  0  0  0  0  0  0  0  0
   13.3319   -2.8759   -7.5611 C   0  0  0  0  0  0  0  0  0  0  0  0
   14.6693   -3.5825   -7.7621 C   0  0  0  0  0  0  0  0  0  0  0  0
   14.7274   -4.9141   -7.0216 C   0  0  0  0  0  0  0  0  0  0  0  0
   16.0125   -5.4997   -7.1981 O   0  0  0  0  0  0  0  0  0  0  0  0
   10.4816   -2.5404   -6.8431 C   0  0  0  0  0  0  0  0  0  0  0  0
    7.8541   -1.7135   -4.4744 N   0  0  0  0  0  0  0  0  0  0  0  0
    5.4751   -2.4225   -0.9473 C   0  0  0  0  0  0  0  0  0  0  0  0
    3.0815   -4.8408    1.8196 H   0  0  0  0  0  0  0  0  0  0  0  0
    4.8225   -5.1220    1.9466 H   0  0  0  0  0  0  0  0  0  0  0  0
    3.8849   -5.7589    0.5413 H   0  0  0  0  0  0  0  0  0  0  0  0
    6.1418   -5.6189    0.0489 H   0  0  0  0  0  0  0  0  0  0  0  0
    8.0173   -5.2866   -1.4880 H   0  0  0  0  0  0  0  0  0  0  0  0
    8.3127   -3.1725   -2.6601 H   0  0  0  0  0  0  0  0  0  0  0  0
    6.0164   -0.2898   -2.2427 H   0  0  0  0  0  0  0  0  0  0  0  0
    7.3732    1.4358   -3.4058 H   0  0  0  0  0  0  0  0  0  0  0  0
    9.5683    0.2063   -6.6555 H   0  0  0  0  0  0  0  0  0  0  0  0
    7.4690   -3.8264   -5.9973 H   0  0  0  0  0  0  0  0  0  0  0  0
   10.4323   -5.6288   -8.1941 H   0  0  0  0  0  0  0  0  0  0  0  0
   12.2414   -3.8088   -9.0938 H   0  0  0  0  0  0  0  0  0  0  0  0
   13.2068   -2.6786   -6.4901 H   0  0  0  0  0  0  0  0  0  0  0  0
   13.3331   -1.9146   -8.0860 H   0  0  0  0  0  0  0  0  0  0  0  0
   15.4807   -2.9374   -7.4051 H   0  0  0  0  0  0  0  0  0  0  0  0
   14.8610   -3.7475   -8.8295 H   0  0  0  0  0  0  0  0  0  0  0  0
   13.9773   -5.6228   -7.3892 H   0  0  0  0  0  0  0  0  0  0  0  0
   14.5643   -4.7728   -5.9489 H   0  0  0  0  0  0  0  0  0  0  0  0
   16.0827   -5.7600   -8.1327 H   0  0  0  0  0  0  0  0  0  0  0  0
   11.1095   -1.6621   -6.7239 H   0  0  0  0  0  0  0  0  0  0  0  0
    4.7444   -1.6334   -0.7893 H   0  0  0  0  0  0  0  0  0  0  0  0
  1  2  1  0  0  0  0
  1 27  1  0  0  0  0
  1 28  1  0  0  0  0
  1 29  1  0  0  0  0
  2  3  1  0  0  0  0
  3  4  1  0  0  0  0
  3 26  2  0  0  0  0
  4  5  2  0  0  0  0
  4 30  1  0  0  0  0
  5  6  1  0  0  0  0
  5 31  1  0  0  0  0
  6  7  2  0  0  0  0
  6 32  1  0  0  0  0
  7  8  1  0  0  0  0
  7 26  1  0  0  0  0
  8  9  1  0  0  0  0
  8 33  1  0  0  0  0
  9 10  1  0  0  0  0
  9 25  2  0  0  0  0
 10 11  2  0  0  0  0
 10 34  1  0  0  0  0
 11 12  1  0  0  0  0
 12 13  2  0  0  0  0
 12 35  1  0  0  0  0
 13 14  1  0  0  0  0
 13 25  1  0  0  0  0
 14 15  1  0  0  0  0
 14 24  2  0  0  0  0
 15 16  2  0  0  0  0
 15 36  1  0  0  0  0
 16 17  1  0  0  0  0
 17 18  2  0  0  0  0
 17 37  1  0  0  0  0
 18 19  1  0  0  0  0
 18 24  1  0  0  0  0
 19 20  1  0  0  0  0
 19 38  1  0  0  0  0
 20 21  1  0  0  0  0
 20 39  1  0  0  0  0
 20 40  1  0  0  0  0
 21 22  1  0  0  0  0
 21 41  1  0  0  0  0
 21 42  1  0  0  0  0
 22 23  1  0  0  0  0
 22 43  1  0  0  0  0
 22 44  1  0  0  0  0
 23 45  1  0  0  0  0
 24 46  1  0  0  0  0
 26 47  1  0  0  0  0
M  END
$$$$
