CHEMBL4517008
 OpenBabel04072215383D

 47 50  0  0  0  0  0  0  0  0999 V2000
    1.5597    0.7711   -0.3745 O   0  0  0  0  0  0  0  0  0  0  0  0
    2.4616    0.0186   -0.0249 C   0  0  0  0  0  0  0  0  0  0  0  0
    2.8415   -1.1038   -0.7492 N   0  0  0  0  0  0  0  0  0  0  0  0
    2.1660   -1.5777   -1.9195 C   0  0  0  0  0  0  0  0  0  0  0  0
    1.1119   -0.8694   -2.5159 C   0  0  0  0  0  0  0  0  0  0  0  0
    0.4035   -1.3882   -3.5906 C   0  0  0  0  0  0  0  0  0  0  0  0
    0.7609   -2.6153   -4.1220 C   0  0  0  0  0  0  0  0  0  0  0  0
    1.8335   -3.3373   -3.5956 C   0  0  0  0  0  0  0  0  0  0  0  0
    2.2361   -4.5799   -4.1524 N   0  0  0  0  0  0  0  0  0  0  0  0
    1.6204   -5.2592   -5.1907 C   0  0  0  0  0  0  0  0  0  0  0  0
    0.5827   -4.9190   -5.7642 O   0  0  0  0  0  0  0  0  0  0  0  0
    2.2846   -6.5199   -5.6264 C   0  0  0  0  0  0  0  0  0  0  0  0
    1.7206   -7.2544   -6.6666 C   0  0  0  0  0  0  0  0  0  0  0  0
    2.3683   -8.4047   -7.0830 C   0  0  0  0  0  0  0  0  0  0  0  0
    3.5492   -8.7868   -6.4522 C   0  0  0  0  0  0  0  0  0  0  0  0
    4.0363   -7.9925   -5.4198 C   0  0  0  0  0  0  0  0  0  0  0  0
    3.4344   -6.8611   -4.9850 N   0  0  0  0  0  0  0  0  0  0  0  0
    2.5384   -2.8102   -2.4901 C   0  0  0  0  0  0  0  0  0  0  0  0
    3.1806    0.2098    1.1589 N   0  0  0  0  0  0  0  0  0  0  0  0
    2.7917    1.2177    2.0978 C   0  0  0  0  0  0  0  0  0  0  0  0
    1.4850    1.7070    2.1072 C   0  0  0  0  0  0  0  0  0  0  0  0
    1.1511    2.8765    2.7778 C   0  0  0  0  0  0  0  0  0  0  0  0
    2.0652    3.4743    3.6278 C   0  0  0  0  0  0  0  0  0  0  0  0
    1.6981    4.6410    4.2994 C   0  0  0  0  0  0  0  0  0  0  0  0
    2.4071    5.0313    5.4245 C   0  0  0  0  0  0  0  0  0  0  0  0
    3.5536    4.3331    5.7920 C   0  0  0  0  0  0  0  0  0  0  0  0
    4.0488    3.3066    4.9733 C   0  0  0  0  0  0  0  0  0  0  0  0
    3.3042    2.8407    3.8713 C   0  0  0  0  0  0  0  0  0  0  0  0
    3.6950    1.7536    3.0269 C   0  0  0  0  0  0  0  0  0  0  0  0
    3.5528   -1.6979   -0.3538 H   0  0  0  0  0  0  0  0  0  0  0  0
    0.7775    0.1025   -2.1719 H   0  0  0  0  0  0  0  0  0  0  0  0
   -0.4275   -0.8302   -4.0108 H   0  0  0  0  0  0  0  0  0  0  0  0
    0.1718   -2.9671   -4.9616 H   0  0  0  0  0  0  0  0  0  0  0  0
    3.0603   -5.0353   -3.7772 H   0  0  0  0  0  0  0  0  0  0  0  0
    0.7987   -6.9303   -7.1401 H   0  0  0  0  0  0  0  0  0  0  0  0
    1.9591   -9.0111   -7.8908 H   0  0  0  0  0  0  0  0  0  0  0  0
    4.0825   -9.6816   -6.7578 H   0  0  0  0  0  0  0  0  0  0  0  0
    4.9580   -8.2564   -4.9095 H   0  0  0  0  0  0  0  0  0  0  0  0
    3.3669   -3.3714   -2.0708 H   0  0  0  0  0  0  0  0  0  0  0  0
    4.1438   -0.0914    1.1731 H   0  0  0  0  0  0  0  0  0  0  0  0
    0.6839    1.2054    1.5681 H   0  0  0  0  0  0  0  0  0  0  0  0
    0.1418    3.2598    2.6779 H   0  0  0  0  0  0  0  0  0  0  0  0
    0.8352    5.2134    3.9744 H   0  0  0  0  0  0  0  0  0  0  0  0
    2.0365    5.8568    6.0273 H   0  0  0  0  0  0  0  0  0  0  0  0
    4.0626    4.5946    6.7148 H   0  0  0  0  0  0  0  0  0  0  0  0
    4.9825    2.8256    5.2476 H   0  0  0  0  0  0  0  0  0  0  0  0
    4.7005    1.3487    3.1171 H   0  0  0  0  0  0  0  0  0  0  0  0
  1  2  2  0  0  0  0
  2  3  1  0  0  0  0
  2 19  1  0  0  0  0
  3  4  1  0  0  0  0
  3 30  1  0  0  0  0
  4  5  1  0  0  0  0
  4 18  2  0  0  0  0
  5  6  2  0  0  0  0
  5 31  1  0  0  0  0
  6  7  1  0  0  0  0
  6 32  1  0  0  0  0
  7  8  2  0  0  0  0
  7 33  1  0  0  0  0
  8  9  1  0  0  0  0
  8 18  1  0  0  0  0
  9 10  1  0  0  0  0
  9 34  1  0  0  0  0
 10 11  2  0  0  0  0
 10 12  1  0  0  0  0
 12 13  1  0  0  0  0
 12 17  2  0  0  0  0
 13 14  2  0  0  0  0
 13 35  1  0  0  0  0
 14 15  1  0  0  0  0
 14 36  1  0  0  0  0
 15 16  2  0  0  0  0
 15 37  1  0  0  0  0
 16 17  1  0  0  0  0
 16 38  1  0  0  0  0
 18 39  1  0  0  0  0
 19 20  1  0  0  0  0
 19 40  1  0  0  0  0
 20 21  1  0  0  0  0
 20 29  2  0  0  0  0
 21 22  2  0  0  0  0
 21 41  1  0  0  0  0
 22 23  1  0  0  0  0
 22 42  1  0  0  0  0
 23 24  1  0  0  0  0
 23 28  2  0  0  0  0
 24 25  2  0  0  0  0
 24 43  1  0  0  0  0
 25 26  1  0  0  0  0
 25 44  1  0  0  0  0
 26 27  2  0  0  0  0
 26 45  1  0  0  0  0
 27 28  1  0  0  0  0
 27 46  1  0  0  0  0
 28 29  1  0  0  0  0
 29 47  1  0  0  0  0
M  END
$$$$
