CHEMBL3668019
 OpenBabel04072215373D

 57 61  0  0  0  0  0  0  0  0999 V2000
    2.1313    0.7968   -1.5875 C   0  0  0  0  0  0  0  0  0  0  0  0
    2.6659    2.0969   -1.1750 N   0  0  0  0  0  0  0  0  0  0  0  0
    1.5906    2.8817   -0.5621 C   0  0  0  0  0  0  0  0  0  0  0  0
    3.7750    1.8999   -0.2285 C   0  0  0  0  0  0  0  0  0  0  0  0
    4.9122    1.0907   -0.8542 C   0  0  0  0  0  0  0  0  0  0  0  0
    5.4763    1.7896   -2.0773 C   0  0  0  0  0  0  0  0  0  0  0  0
    6.5317    0.9799   -2.6093 O   0  0  0  0  0  0  0  0  0  0  0  0
    7.1375    1.4917   -3.7246 C   0  0  0  0  0  0  0  0  0  0  0  0
    6.7710    2.7007   -4.3094 C   0  0  0  0  0  0  0  0  0  0  0  0
    7.4759    3.2021   -5.4225 C   0  0  0  0  0  0  0  0  0  0  0  0
    8.5642    2.5019   -5.9780 C   0  0  0  0  0  0  0  0  0  0  0  0
    9.2686    2.9272   -7.2378 C   0  0  0  0  0  0  0  0  0  0  0  0
    9.8273    1.9479   -8.1811 C   0  0  0  0  0  0  0  0  0  0  0  0
   10.3380    2.1864   -9.3561 N   0  0  0  0  0  0  0  0  0  0  0  0
   10.6105    3.4610   -9.8913 C   0  0  0  0  0  0  0  0  0  0  0  0
   11.3117    4.1140  -11.1625 C   0  0  0  0  0  0  0  0  0  0  0  0
   12.0798    3.3606  -12.5945 C   0  0  0  0  0  0  0  0  0  0  0  0
   12.4996    3.3863  -14.2154 C   0  0  0  0  0  0  0  0  0  0  0  0
   13.0898    2.3474  -14.9346 C   0  0  0  0  0  0  0  0  0  0  0  0
   13.7416    1.8794  -13.9360 N   0  0  0  0  0  0  0  0  0  0  0  0
   13.0014    1.3398  -13.0511 C   0  0  0  0  0  0  0  0  0  0  0  0
   13.2342    0.0203  -13.0264 C   0  0  0  0  0  0  0  0  0  0  0  0
   13.2370   -0.6207  -11.8229 C   0  0  0  0  0  0  0  0  0  0  0  0
   12.8935    0.0948  -10.7124 C   0  0  0  0  0  0  0  0  0  0  0  0
   12.6045    1.4495  -10.8823 C   0  0  0  0  0  0  0  0  0  0  0  0
   12.4669    2.1093  -12.1041 C   0  0  0  0  0  0  0  0  0  0  0  0
   10.9021    5.4569  -10.8122 C   0  0  0  0  0  0  0  0  0  0  0  0
   10.2559    5.6606   -9.6378 N   0  0  0  0  0  0  0  0  0  0  0  0
   10.0956    4.4701   -9.0333 N   0  0  0  0  0  0  0  0  0  0  0  0
    9.4374    4.1761   -7.7393 C   0  0  0  0  0  0  0  0  0  0  0  0
    8.9919    1.3566   -5.2888 C   0  0  0  0  0  0  0  0  0  0  0  0
    8.2479    0.8134   -4.2242 C   0  0  0  0  0  0  0  0  0  0  0  0
    1.3181    0.9293   -2.3093 H   0  0  0  0  0  0  0  0  0  0  0  0
    1.7444    0.2314   -0.7317 H   0  0  0  0  0  0  0  0  0  0  0  0
    2.9024    0.1949   -2.0801 H   0  0  0  0  0  0  0  0  0  0  0  0
    0.7692    3.0354   -1.2666 H   0  0  0  0  0  0  0  0  0  0  0  0
    1.9260    3.8868   -0.2934 H   0  0  0  0  0  0  0  0  0  0  0  0
    1.2071    2.3925    0.3403 H   0  0  0  0  0  0  0  0  0  0  0  0
    3.4070    1.3628    0.6570 H   0  0  0  0  0  0  0  0  0  0  0  0
    4.1565    2.8691    0.1193 H   0  0  0  0  0  0  0  0  0  0  0  0
    4.5695    0.1063   -1.1842 H   0  0  0  0  0  0  0  0  0  0  0  0
    5.7012    0.9132   -0.1118 H   0  0  0  0  0  0  0  0  0  0  0  0
    5.8135    2.7830   -1.7691 H   0  0  0  0  0  0  0  0  0  0  0  0
    4.6943    1.8815   -2.8392 H   0  0  0  0  0  0  0  0  0  0  0  0
    5.9336    3.2707   -3.9181 H   0  0  0  0  0  0  0  0  0  0  0  0
    7.1457    4.1524   -5.8349 H   0  0  0  0  0  0  0  0  0  0  0  0
    9.7809    0.9002   -7.8150 H   0  0  0  0  0  0  0  0  0  0  0  0
   12.4901    4.0716  -15.1462 H   0  0  0  0  0  0  0  0  0  0  0  0
   13.5573    1.5181  -15.4675 H   0  0  0  0  0  0  0  0  0  0  0  0
   13.6941   -0.3849  -13.9043 H   0  0  0  0  0  0  0  0  0  0  0  0
   13.7200   -1.5732  -11.7419 H   0  0  0  0  0  0  0  0  0  0  0  0
   12.8436   -0.3263   -9.7227 H   0  0  0  0  0  0  0  0  0  0  0  0
   12.8064    2.0221  -10.0136 H   0  0  0  0  0  0  0  0  0  0  0  0
   10.9982    6.3769  -11.3663 H   0  0  0  0  0  0  0  0  0  0  0  0
    9.0537    5.0089   -7.1488 H   0  0  0  0  0  0  0  0  0  0  0  0
    9.9280    0.8818   -5.5718 H   0  0  0  0  0  0  0  0  0  0  0  0
    8.5304   -0.1558   -3.8155 H   0  0  0  0  0  0  0  0  0  0  0  0
  1  2  1  0  0  0  0
  1 33  1  0  0  0  0
  1 34  1  0  0  0  0
  1 35  1  0  0  0  0
  2  3  1  0  0  0  0
  2  4  1  0  0  0  0
  3 36  1  0  0  0  0
  3 37  1  0  0  0  0
  3 38  1  0  0  0  0
  4  5  1  0  0  0  0
  4 39  1  0  0  0  0
  4 40  1  0  0  0  0
  5  6  1  0  0  0  0
  5 41  1  0  0  0  0
  5 42  1  0  0  0  0
  6  7  1  0  0  0  0
  6 43  1  0  0  0  0
  6 44  1  0  0  0  0
  7  8  1  0  0  0  0
  8  9  1  0  0  0  0
  8 32  2  0  0  0  0
  9 10  2  0  0  0  0
  9 45  1  0  0  0  0
 10 11  1  0  0  0  0
 10 46  1  0  0  0  0
 11 12  1  0  0  0  0
 11 31  2  0  0  0  0
 12 13  1  0  0  0  0
 12 30  2  0  0  0  0
 13 14  2  0  0  0  0
 13 47  1  0  0  0  0
 14 15  1  0  0  0  0
 15 16  2  0  0  0  0
 15 29  1  0  0  0  0
 16 17  1  0  0  0  0
 16 27  1  0  0  0  0
 17 18  1  0  0  0  0
 17 26  2  0  0  0  0
 18 19  2  0  0  0  0
 18 48  1  0  0  0  0
 19 20  1  0  0  0  0
 19 49  1  0  0  0  0
 20 21  2  0  0  0  0
 21 22  1  0  0  0  0
 21 26  1  0  0  0  0
 22 23  2  0  0  0  0
 22 50  1  0  0  0  0
 23 24  1  0  0  0  0
 23 51  1  0  0  0  0
 24 25  2  0  0  0  0
 24 52  1  0  0  0  0
 25 26  1  0  0  0  0
 25 53  1  0  0  0  0
 27 28  2  0  0  0  0
 27 54  1  0  0  0  0
 28 29  1  0  0  0  0
 29 30  1  0  0  0  0
 30 55  1  0  0  0  0
 31 32  1  0  0  0  0
 31 56  1  0  0  0  0
 32 57  1  0  0  0  0
M  END
$$$$
