CHEMBL4100979
 OpenBabel04072215383D

 52 56  0  0  0  0  0  0  0  0999 V2000
    2.4129    1.6172   -0.6661 N   0  0  0  0  0  0  0  0  0  0  0  0
    1.5653    0.5763   -0.6634 C   0  0  0  0  0  0  0  0  0  0  0  0
    2.0281   -0.6514   -0.8773 N   0  0  0  0  0  0  0  0  0  0  0  0
    0.9346   -1.4140   -0.8366 N   0  0  0  0  0  0  0  0  0  0  0  0
   -0.2220   -0.7310   -0.5782 C   0  0  0  0  0  0  0  0  0  0  0  0
   -1.5310   -1.2057   -0.4664 C   0  0  0  0  0  0  0  0  0  0  0  0
   -2.5205   -0.2722   -0.1864 C   0  0  0  0  0  0  0  0  0  0  0  0
   -2.2027    1.0778   -0.0469 C   0  0  0  0  0  0  0  0  0  0  0  0
   -0.8800    1.5779   -0.1932 C   0  0  0  0  0  0  0  0  0  0  0  0
   -0.6322    3.0393   -0.1482 C   0  0  0  0  0  0  0  0  0  0  0  0
    0.4482    3.6153    0.5388 C   0  0  0  0  0  0  0  0  0  0  0  0
    0.7084    4.9944    0.4849 C   0  0  0  0  0  0  0  0  0  0  0  0
   -0.1333    5.8348   -0.2362 C   0  0  0  0  0  0  0  0  0  0  0  0
    0.1032    7.2192   -0.2748 N   0  0  0  0  0  0  0  0  0  0  0  0
    0.7344    7.7834   -1.3742 C   0  0  0  0  0  0  0  0  0  0  0  0
    1.0445    7.2062   -2.4090 O   0  0  0  0  0  0  0  0  0  0  0  0
    1.1204    9.2161   -1.1924 C   0  0  0  0  0  0  0  0  0  0  0  0
    2.3068    9.4759   -0.2972 C   0  0  0  0  0  0  0  0  0  0  0  0
    2.0978    9.8505    0.8472 O   0  0  0  0  0  0  0  0  0  0  0  0
    3.5192    9.2274   -0.9089 N   0  0  0  0  0  0  0  0  0  0  0  0
    4.8009    9.4545   -0.3647 C   0  0  0  0  0  0  0  0  0  0  0  0
    5.0211   10.0450    0.8885 C   0  0  0  0  0  0  0  0  0  0  0  0
    6.3207   10.2609    1.3602 C   0  0  0  0  0  0  0  0  0  0  0  0
    7.4051    9.8883    0.5767 C   0  0  0  0  0  0  0  0  0  0  0  0
    8.6476   10.1069    1.0270 F   0  0  0  0  0  0  0  0  0  0  0  0
    7.1993    9.2996   -0.6629 C   0  0  0  0  0  0  0  0  0  0  0  0
    8.2456    8.9375   -1.4184 F   0  0  0  0  0  0  0  0  0  0  0  0
    5.9049    9.0756   -1.1380 C   0  0  0  0  0  0  0  0  0  0  0  0
    0.0035   10.2660   -1.1889 C   0  0  0  0  0  0  0  0  0  0  0  0
    0.8950   10.1552   -2.3832 C   0  0  0  0  0  0  0  0  0  0  0  0
   -1.2543    5.3065   -0.8704 C   0  0  0  0  0  0  0  0  0  0  0  0
   -1.5028    3.9268   -0.8156 C   0  0  0  0  0  0  0  0  0  0  0  0
    0.1453    0.6148   -0.4518 C   0  0  0  0  0  0  0  0  0  0  0  0
    3.3485    1.3983   -0.9909 H   0  0  0  0  0  0  0  0  0  0  0  0
    2.0843    2.5138   -1.0049 H   0  0  0  0  0  0  0  0  0  0  0  0
    1.0381   -2.4084   -1.0006 H   0  0  0  0  0  0  0  0  0  0  0  0
   -1.7704   -2.2574   -0.5887 H   0  0  0  0  0  0  0  0  0  0  0  0
   -3.5542   -0.5982   -0.0879 H   0  0  0  0  0  0  0  0  0  0  0  0
   -3.0178    1.7663    0.1733 H   0  0  0  0  0  0  0  0  0  0  0  0
    1.1268    2.9867    1.1138 H   0  0  0  0  0  0  0  0  0  0  0  0
    1.5989    5.3862    0.9658 H   0  0  0  0  0  0  0  0  0  0  0  0
    0.3607    7.6518    0.6041 H   0  0  0  0  0  0  0  0  0  0  0  0
    3.4796    8.8250   -1.8394 H   0  0  0  0  0  0  0  0  0  0  0  0
    4.1987   10.3577    1.5246 H   0  0  0  0  0  0  0  0  0  0  0  0
    6.4853   10.7275    2.3240 H   0  0  0  0  0  0  0  0  0  0  0  0
    5.7903    8.6105   -2.1114 H   0  0  0  0  0  0  0  0  0  0  0  0
    0.1189   11.1391   -0.5551 H   0  0  0  0  0  0  0  0  0  0  0  0
   -1.0212    9.9260   -1.2797 H   0  0  0  0  0  0  0  0  0  0  0  0
    1.6077   10.9517   -2.5624 H   0  0  0  0  0  0  0  0  0  0  0  0
    0.4686    9.7385   -3.2908 H   0  0  0  0  0  0  0  0  0  0  0  0
   -1.9622    5.9546   -1.3821 H   0  0  0  0  0  0  0  0  0  0  0  0
   -2.3904    3.5490   -1.3198 H   0  0  0  0  0  0  0  0  0  0  0  0
  1  2  1  0  0  0  0
  1 34  1  0  0  0  0
  1 35  1  0  0  0  0
  2  3  2  0  0  0  0
  2 33  1  0  0  0  0
  3  4  1  0  0  0  0
  4  5  1  0  0  0  0
  4 36  1  0  0  0  0
  5  6  1  0  0  0  0
  5 33  2  0  0  0  0
  6  7  2  0  0  0  0
  6 37  1  0  0  0  0
  7  8  1  0  0  0  0
  7 38  1  0  0  0  0
  8  9  2  0  0  0  0
  8 39  1  0  0  0  0
  9 10  1  0  0  0  0
  9 33  1  0  0  0  0
 10 11  1  0  0  0  0
 10 32  2  0  0  0  0
 11 12  2  0  0  0  0
 11 40  1  0  0  0  0
 12 13  1  0  0  0  0
 12 41  1  0  0  0  0
 13 14  1  0  0  0  0
 13 31  2  0  0  0  0
 14 15  1  0  0  0  0
 14 42  1  0  0  0  0
 15 16  2  0  0  0  0
 15 17  1  0  0  0  0
 17 18  1  0  0  0  0
 17 29  1  0  0  0  0
 17 30  1  0  0  0  0
 18 19  2  0  0  0  0
 18 20  1  0  0  0  0
 20 21  1  0  0  0  0
 20 43  1  0  0  0  0
 21 22  1  0  0  0  0
 21 28  2  0  0  0  0
 22 23  2  0  0  0  0
 22 44  1  0  0  0  0
 23 24  1  0  0  0  0
 23 45  1  0  0  0  0
 24 25  1  0  0  0  0
 24 26  2  0  0  0  0
 26 27  1  0  0  0  0
 26 28  1  0  0  0  0
 28 46  1  0  0  0  0
 29 30  1  0  0  0  0
 29 47  1  0  0  0  0
 29 48  1  0  0  0  0
 30 49  1  0  0  0  0
 30 50  1  0  0  0  0
 31 32  1  0  0  0  0
 31 51  1  0  0  0  0
 32 52  1  0  0  0  0
M  END
$$$$
