CHEMBL392789
 OpenBabel04072215373D

 43 45  0  0  0  0  0  0  0  0999 V2000
    2.7362    0.3274   -2.2173 C   0  0  0  0  0  0  0  0  0  0  0  0
    1.5734   -0.5622   -1.8944 C   0  0  0  0  0  0  0  0  0  0  0  0
    1.6264   -1.4283   -0.7965 C   0  0  0  0  0  0  0  0  0  0  0  0
    0.5228   -2.2133   -0.4501 C   0  0  0  0  0  0  0  0  0  0  0  0
   -0.6527   -2.1472   -1.1961 C   0  0  0  0  0  0  0  0  0  0  0  0
   -1.8309   -2.8669   -0.8920 N   0  0  0  0  0  0  0  0  0  0  0  0
   -2.1115   -3.5376    0.2834 C   0  0  0  0  0  0  0  0  0  0  0  0
   -1.3302   -3.5688    1.2323 O   0  0  0  0  0  0  0  0  0  0  0  0
   -3.3765   -4.2488    0.3441 C   0  0  0  0  0  0  0  0  0  0  0  0
   -3.6654   -5.2894    1.2154 C   0  0  0  0  0  0  0  0  0  0  0  0
   -2.8388   -5.7771    2.1560 N   0  0  0  0  0  0  0  0  0  0  0  0
   -2.8871   -7.1746    2.5284 C   0  0  0  0  0  0  0  0  0  0  0  0
   -2.3238   -7.3484    3.9171 C   0  0  0  0  0  0  0  0  0  0  0  0
   -2.9637   -6.7563    5.0098 C   0  0  0  0  0  0  0  0  0  0  0  0
   -2.4407   -6.9472    6.2781 C   0  0  0  0  0  0  0  0  0  0  0  0
   -1.3366   -7.6865    6.5286 N   0  0  0  0  0  0  0  0  0  0  0  0
   -0.7317   -8.2459    5.4605 C   0  0  0  0  0  0  0  0  0  0  0  0
   -1.1768   -8.1102    4.1542 C   0  0  0  0  0  0  0  0  0  0  0  0
   -4.9150   -5.7916    1.0378 N   0  0  0  0  0  0  0  0  0  0  0  0
   -5.4434   -5.0423    0.1036 C   0  0  0  0  0  0  0  0  0  0  0  0
   -4.5561   -4.1085   -0.3633 N   0  0  0  0  0  0  0  0  0  0  0  0
   -4.9033   -3.1438   -1.3775 C   0  0  0  0  0  0  0  0  0  0  0  0
   -0.6793   -1.3180   -2.3233 C   0  0  0  0  0  0  0  0  0  0  0  0
   -1.7948   -1.2590   -3.0705 F   0  0  0  0  0  0  0  0  0  0  0  0
    0.4104   -0.5219   -2.6702 C   0  0  0  0  0  0  0  0  0  0  0  0
    3.5745    0.1510   -1.5346 H   0  0  0  0  0  0  0  0  0  0  0  0
    2.4408    1.3766   -2.1180 H   0  0  0  0  0  0  0  0  0  0  0  0
    3.0878    0.1422   -3.2365 H   0  0  0  0  0  0  0  0  0  0  0  0
    2.5264   -1.4967   -0.1882 H   0  0  0  0  0  0  0  0  0  0  0  0
    0.6250   -2.8755    0.4048 H   0  0  0  0  0  0  0  0  0  0  0  0
   -2.5244   -2.8327   -1.6189 H   0  0  0  0  0  0  0  0  0  0  0  0
   -1.9133   -5.3543    2.2424 H   0  0  0  0  0  0  0  0  0  0  0  0
   -2.3020   -7.7572    1.8062 H   0  0  0  0  0  0  0  0  0  0  0  0
   -3.9067   -7.5783    2.5197 H   0  0  0  0  0  0  0  0  0  0  0  0
   -3.8530   -6.1466    4.8690 H   0  0  0  0  0  0  0  0  0  0  0  0
   -2.9079   -6.4988    7.1493 H   0  0  0  0  0  0  0  0  0  0  0  0
    0.1548   -8.8325    5.6906 H   0  0  0  0  0  0  0  0  0  0  0  0
   -0.6384   -8.5917    3.3461 H   0  0  0  0  0  0  0  0  0  0  0  0
   -6.4579   -5.1289   -0.2649 H   0  0  0  0  0  0  0  0  0  0  0  0
   -5.9666   -3.2286   -1.6188 H   0  0  0  0  0  0  0  0  0  0  0  0
   -4.3276   -3.3648   -2.2792 H   0  0  0  0  0  0  0  0  0  0  0  0
   -4.6951   -2.1397   -1.0013 H   0  0  0  0  0  0  0  0  0  0  0  0
    0.3360    0.1323   -3.5338 H   0  0  0  0  0  0  0  0  0  0  0  0
  1  2  1  0  0  0  0
  1 26  1  0  0  0  0
  1 27  1  0  0  0  0
  1 28  1  0  0  0  0
  2  3  1  0  0  0  0
  2 25  2  0  0  0  0
  3  4  2  0  0  0  0
  3 29  1  0  0  0  0
  4  5  1  0  0  0  0
  4 30  1  0  0  0  0
  5  6  1  0  0  0  0
  5 23  2  0  0  0  0
  6  7  1  0  0  0  0
  6 31  1  0  0  0  0
  7  8  2  0  0  0  0
  7  9  1  0  0  0  0
  9 10  2  0  0  0  0
  9 21  1  0  0  0  0
 10 11  1  0  0  0  0
 10 19  1  0  0  0  0
 11 12  1  0  0  0  0
 11 32  1  0  0  0  0
 12 13  1  0  0  0  0
 12 33  1  0  0  0  0
 12 34  1  0  0  0  0
 13 14  1  0  0  0  0
 13 18  2  0  0  0  0
 14 15  2  0  0  0  0
 14 35  1  0  0  0  0
 15 16  1  0  0  0  0
 15 36  1  0  0  0  0
 16 17  2  0  0  0  0
 17 18  1  0  0  0  0
 17 37  1  0  0  0  0
 18 38  1  0  0  0  0
 19 20  2  0  0  0  0
 20 21  1  0  0  0  0
 20 39  1  0  0  0  0
 21 22  1  0  0  0  0
 22 40  1  0  0  0  0
 22 41  1  0  0  0  0
 22 42  1  0  0  0  0
 23 24  1  0  0  0  0
 23 25  1  0  0  0  0
 25 43  1  0  0  0  0
M  END
$$$$
