CHEMBL1982660
 OpenBabel04072215363D

 39 41  0  0  0  0  0  0  0  0999 V2000
    1.5131   -0.4921   -0.5681 C   0  0  0  0  0  0  0  0  0  0  0  0
    2.6037    0.3309   -0.1709 O   0  0  0  0  0  0  0  0  0  0  0  0
    3.1493    0.0740    1.0566 C   0  0  0  0  0  0  0  0  0  0  0  0
    2.7715   -0.9539    1.9091 C   0  0  0  0  0  0  0  0  0  0  0  0
    3.4098   -1.0996    3.1390 C   0  0  0  0  0  0  0  0  0  0  0  0
    4.4442   -0.2204    3.5398 C   0  0  0  0  0  0  0  0  0  0  0  0
    5.1522   -0.3332    4.7596 C   0  0  0  0  0  0  0  0  0  0  0  0
    4.7581   -1.3030    5.7214 N   0  0  0  0  0  0  0  0  0  0  0  0
    5.6576   -2.0122    6.4916 C   0  0  0  0  0  0  0  0  0  0  0  0
    6.8718   -1.8476    6.4435 O   0  0  0  0  0  0  0  0  0  0  0  0
    5.0383   -2.9700    7.2689 N   0  0  0  0  0  0  0  0  0  0  0  0
    5.7847   -3.8792    8.0282 C   0  0  0  0  0  0  0  0  0  0  0  0
    6.9361   -3.4970    8.7062 C   0  0  0  0  0  0  0  0  0  0  0  0
    7.7020   -4.4672    9.3321 C   0  0  0  0  0  0  0  0  0  0  0  0
    7.3008   -5.7972    9.2534 C   0  0  0  0  0  0  0  0  0  0  0  0
    6.1166   -6.1099    8.5823 C   0  0  0  0  0  0  0  0  0  0  0  0
    5.7113   -7.5704    8.4292 C   0  0  0  0  0  0  0  0  0  0  0  0
    6.6231   -8.4408    8.9583 F   0  0  0  0  0  0  0  0  0  0  0  0
    4.5296   -7.8662    9.0409 F   0  0  0  0  0  0  0  0  0  0  0  0
    5.5671   -7.9495    7.1261 F   0  0  0  0  0  0  0  0  0  0  0  0
    5.3320   -5.1475    8.0064 N   0  0  0  0  0  0  0  0  0  0  0  0
    6.2261    0.5119    5.0121 C   0  0  0  0  0  0  0  0  0  0  0  0
    6.5466    1.4641    4.0684 C   0  0  0  0  0  0  0  0  0  0  0  0
    5.8727    1.6313    2.9128 N   0  0  0  0  0  0  0  0  0  0  0  0
    4.8522    0.7973    2.6487 C   0  0  0  0  0  0  0  0  0  0  0  0
    4.1867    0.9307    1.4372 C   0  0  0  0  0  0  0  0  0  0  0  0
    1.1836   -0.1599   -1.5566 H   0  0  0  0  0  0  0  0  0  0  0  0
    0.6681   -0.3848    0.1207 H   0  0  0  0  0  0  0  0  0  0  0  0
    1.8205   -1.5398   -0.6545 H   0  0  0  0  0  0  0  0  0  0  0  0
    1.9997   -1.6696    1.6462 H   0  0  0  0  0  0  0  0  0  0  0  0
    3.1129   -1.9414    3.7565 H   0  0  0  0  0  0  0  0  0  0  0  0
    3.8265   -1.6781    5.6544 H   0  0  0  0  0  0  0  0  0  0  0  0
    4.1848   -3.3753    6.9195 H   0  0  0  0  0  0  0  0  0  0  0  0
    7.2566   -2.4613    8.7340 H   0  0  0  0  0  0  0  0  0  0  0  0
    8.6203   -4.1932    9.8408 H   0  0  0  0  0  0  0  0  0  0  0  0
    7.9186   -6.5734    9.6956 H   0  0  0  0  0  0  0  0  0  0  0  0
    6.8015    0.4640    5.9296 H   0  0  0  0  0  0  0  0  0  0  0  0
    7.3810    2.1437    4.2226 H   0  0  0  0  0  0  0  0  0  0  0  0
    4.4981    1.7208    0.7572 H   0  0  0  0  0  0  0  0  0  0  0  0
  1  2  1  0  0  0  0
  1 27  1  0  0  0  0
  1 28  1  0  0  0  0
  1 29  1  0  0  0  0
  2  3  1  0  0  0  0
  3  4  1  0  0  0  0
  3 26  2  0  0  0  0
  4  5  2  0  0  0  0
  4 30  1  0  0  0  0
  5  6  1  0  0  0  0
  5 31  1  0  0  0  0
  6  7  1  0  0  0  0
  6 25  2  0  0  0  0
  7  8  1  0  0  0  0
  7 22  2  0  0  0  0
  8  9  1  0  0  0  0
  8 32  1  0  0  0  0
  9 10  2  0  0  0  0
  9 11  1  0  0  0  0
 11 12  1  0  0  0  0
 11 33  1  0  0  0  0
 12 13  1  0  0  0  0
 12 21  2  0  0  0  0
 13 14  2  0  0  0  0
 13 34  1  0  0  0  0
 14 15  1  0  0  0  0
 14 35  1  0  0  0  0
 15 16  2  0  0  0  0
 15 36  1  0  0  0  0
 16 17  1  0  0  0  0
 16 21  1  0  0  0  0
 17 18  1  0  0  0  0
 17 19  1  0  0  0  0
 17 20  1  0  0  0  0
 22 23  1  0  0  0  0
 22 37  1  0  0  0  0
 23 24  2  0  0  0  0
 23 38  1  0  0  0  0
 24 25  1  0  0  0  0
 25 26  1  0  0  0  0
 26 39  1  0  0  0  0
M  END
$$$$
