CHEMBL369899
 OpenBabel04072215373D

 69 73  0  0  0  0  0  0  0  0999 V2000
    2.1102    8.9432   -0.8651 C   0  0  0  0  0  0  0  0  0  0  0  0
    1.8998    8.0966    0.2650 O   0  0  0  0  0  0  0  0  0  0  0  0
    2.3094    6.8007    0.1282 C   0  0  0  0  0  0  0  0  0  0  0  0
    2.2490    5.9954    1.2593 C   0  0  0  0  0  0  0  0  0  0  0  0
    2.6316    4.6962    1.2959 N   0  0  0  0  0  0  0  0  0  0  0  0
    3.0963    4.1828    0.1344 C   0  0  0  0  0  0  0  0  0  0  0  0
    3.5959    2.5380    0.2615 Cl  0  0  0  0  0  0  0  0  0  0  0  0
    3.2090    4.8859   -1.0708 C   0  0  0  0  0  0  0  0  0  0  0  0
    3.6661    4.3054   -2.2793 N   0  0  0  0  0  0  0  0  0  0  0  0
    4.4521    4.9579   -3.2620 C   0  0  0  0  0  0  0  0  0  0  0  0
    5.1122    6.0688   -2.8670 N   0  0  0  0  0  0  0  0  0  0  0  0
    5.8988    6.6632   -3.7591 C   0  0  0  0  0  0  0  0  0  0  0  0
    6.1058    6.2462   -5.0043 N   0  0  0  0  0  0  0  0  0  0  0  0
    5.4449    5.1548   -5.3949 C   0  0  0  0  0  0  0  0  0  0  0  0
    5.6723    4.7377   -6.6935 C   0  0  0  0  0  0  0  0  0  0  0  0
    5.0139    3.6463   -7.2455 C   0  0  0  0  0  0  0  0  0  0  0  0
    5.3230    3.3754   -8.5506 O   0  0  0  0  0  0  0  0  0  0  0  0
    4.3304    2.7140   -9.3433 C   0  0  0  0  0  0  0  0  0  0  0  0
    3.1229    3.6223   -9.5818 C   0  0  0  0  0  0  0  0  0  0  0  0
    2.0099    2.8905  -10.3290 C   0  0  0  0  0  0  0  0  0  0  0  0
    0.8106    3.7204  -10.5323 N   0  0  0  0  0  0  0  0  0  0  0  0
    0.1351    4.1336   -9.2787 C   0  0  0  0  0  0  0  0  0  0  0  0
   -0.5658    2.9777   -8.5460 C   0  0  0  0  0  0  0  0  0  0  0  0
   -1.5223    2.3317   -9.3915 O   0  0  0  0  0  0  0  0  0  0  0  0
   -0.9125    1.8659  -10.6020 C   0  0  0  0  0  0  0  0  0  0  0  0
   -0.1951    3.0027  -11.3528 C   0  0  0  0  0  0  0  0  0  0  0  0
    4.1045    2.9408   -6.4704 C   0  0  0  0  0  0  0  0  0  0  0  0
    3.8546    3.3238   -5.1499 C   0  0  0  0  0  0  0  0  0  0  0  0
    2.8779    2.7185   -4.3985 O   0  0  0  0  0  0  0  0  0  0  0  0
    2.5610    1.3393   -4.6471 C   0  0  0  0  0  0  0  0  0  0  0  0
    1.3268    1.1910   -5.5503 C   0  0  0  0  0  0  0  0  0  0  0  0
    0.8224   -0.2459   -5.5576 C   0  0  0  0  0  0  0  0  0  0  0  0
    0.5653   -0.6953   -4.2314 O   0  0  0  0  0  0  0  0  0  0  0  0
    1.7416   -0.6952   -3.4252 C   0  0  0  0  0  0  0  0  0  0  0  0
    2.2865    0.7127   -3.2787 C   0  0  0  0  0  0  0  0  0  0  0  0
    4.5486    4.4416   -4.5773 C   0  0  0  0  0  0  0  0  0  0  0  0
    2.7723    6.2166   -1.0444 C   0  0  0  0  0  0  0  0  0  0  0  0
    1.8321    9.9621   -0.5816 H   0  0  0  0  0  0  0  0  0  0  0  0
    1.4697    8.6420   -1.7012 H   0  0  0  0  0  0  0  0  0  0  0  0
    3.1651    8.9588   -1.1639 H   0  0  0  0  0  0  0  0  0  0  0  0
    1.8816    6.3945    2.2022 H   0  0  0  0  0  0  0  0  0  0  0  0
    3.9859    3.3467   -2.1614 H   0  0  0  0  0  0  0  0  0  0  0  0
    6.4163    7.5621   -3.4435 H   0  0  0  0  0  0  0  0  0  0  0  0
    6.3706    5.3005   -7.3111 H   0  0  0  0  0  0  0  0  0  0  0  0
    4.0582    1.7460   -8.9073 H   0  0  0  0  0  0  0  0  0  0  0  0
    4.8025    2.4833  -10.3053 H   0  0  0  0  0  0  0  0  0  0  0  0
    3.4427    4.5138  -10.1350 H   0  0  0  0  0  0  0  0  0  0  0  0
    2.7584    3.9853   -8.6189 H   0  0  0  0  0  0  0  0  0  0  0  0
    1.7738    1.9587   -9.8030 H   0  0  0  0  0  0  0  0  0  0  0  0
    2.4066    2.6035  -11.3116 H   0  0  0  0  0  0  0  0  0  0  0  0
   -0.6240    4.8799   -9.5498 H   0  0  0  0  0  0  0  0  0  0  0  0
    0.8163    4.6566   -8.6011 H   0  0  0  0  0  0  0  0  0  0  0  0
   -1.0983    3.3641   -7.6716 H   0  0  0  0  0  0  0  0  0  0  0  0
    0.1534    2.2338   -8.1893 H   0  0  0  0  0  0  0  0  0  0  0  0
   -1.7065    1.4541  -11.2311 H   0  0  0  0  0  0  0  0  0  0  0  0
   -0.2283    1.0424  -10.3621 H   0  0  0  0  0  0  0  0  0  0  0  0
   -0.9471    3.7389  -11.6663 H   0  0  0  0  0  0  0  0  0  0  0  0
    0.2608    2.6213  -12.2737 H   0  0  0  0  0  0  0  0  0  0  0  0
    3.5711    2.1111   -6.9058 H   0  0  0  0  0  0  0  0  0  0  0  0
    3.4145    0.8090   -5.0853 H   0  0  0  0  0  0  0  0  0  0  0  0
    1.5535    1.4951   -6.5759 H   0  0  0  0  0  0  0  0  0  0  0  0
    0.5325    1.8629   -5.2029 H   0  0  0  0  0  0  0  0  0  0  0  0
    1.5417   -0.9208   -6.0371 H   0  0  0  0  0  0  0  0  0  0  0  0
   -0.1135   -0.3136   -6.1224 H   0  0  0  0  0  0  0  0  0  0  0  0
    2.4846   -1.3695   -3.8661 H   0  0  0  0  0  0  0  0  0  0  0  0
    1.4727   -1.0951   -2.4421 H   0  0  0  0  0  0  0  0  0  0  0  0
    3.2062    0.7120   -2.6782 H   0  0  0  0  0  0  0  0  0  0  0  0
    1.5624    1.3345   -2.7380 H   0  0  0  0  0  0  0  0  0  0  0  0
    2.8079    6.7829   -1.9697 H   0  0  0  0  0  0  0  0  0  0  0  0
  1  2  1  0  0  0  0
  1 38  1  0  0  0  0
  1 39  1  0  0  0  0
  1 40  1  0  0  0  0
  2  3  1  0  0  0  0
  3  4  1  0  0  0  0
  3 37  2  0  0  0  0
  4  5  2  0  0  0  0
  4 41  1  0  0  0  0
  5  6  1  0  0  0  0
  6  7  1  0  0  0  0
  6  8  2  0  0  0  0
  8  9  1  0  0  0  0
  8 37  1  0  0  0  0
  9 10  1  0  0  0  0
  9 42  1  0  0  0  0
 10 11  1  0  0  0  0
 10 36  2  0  0  0  0
 11 12  2  0  0  0  0
 12 13  1  0  0  0  0
 12 43  1  0  0  0  0
 13 14  2  0  0  0  0
 14 15  1  0  0  0  0
 14 36  1  0  0  0  0
 15 16  2  0  0  0  0
 15 44  1  0  0  0  0
 16 17  1  0  0  0  0
 16 27  1  0  0  0  0
 17 18  1  0  0  0  0
 18 19  1  0  0  0  0
 18 45  1  0  0  0  0
 18 46  1  0  0  0  0
 19 20  1  0  0  0  0
 19 47  1  0  0  0  0
 19 48  1  0  0  0  0
 20 21  1  0  0  0  0
 20 49  1  0  0  0  0
 20 50  1  0  0  0  0
 21 22  1  0  0  0  0
 21 26  1  0  0  0  0
 22 23  1  0  0  0  0
 22 51  1  0  0  0  0
 22 52  1  0  0  0  0
 23 24  1  0  0  0  0
 23 53  1  0  0  0  0
 23 54  1  0  0  0  0
 24 25  1  0  0  0  0
 25 26  1  0  0  0  0
 25 55  1  0  0  0  0
 25 56  1  0  0  0  0
 26 57  1  0  0  0  0
 26 58  1  0  0  0  0
 27 28  2  0  0  0  0
 27 59  1  0  0  0  0
 28 29  1  0  0  0  0
 28 36  1  0  0  0  0
 29 30  1  0  0  0  0
 30 31  1  0  0  0  0
 30 35  1  0  0  0  0
 30 60  1  0  0  0  0
 31 32  1  0  0  0  0
 31 61  1  0  0  0  0
 31 62  1  0  0  0  0
 32 33  1  0  0  0  0
 32 63  1  0  0  0  0
 32 64  1  0  0  0  0
 33 34  1  0  0  0  0
 34 35  1  0  0  0  0
 34 65  1  0  0  0  0
 34 66  1  0  0  0  0
 35 67  1  0  0  0  0
 35 68  1  0  0  0  0
 37 69  1  0  0  0  0
M  END
$$$$
