CHEMBL1908397
 OpenBabel04072215363D

 45 48  0  0  0  0  0  0  0  0999 V2000
    1.0868   -0.2225   -0.0076 O   0  0  0  0  0  0  0  0  0  0  0  0
    2.3152   -0.3015    0.0066 C   0  0  0  0  0  0  0  0  0  0  0  0
    3.0081   -0.2219   -1.3072 C   0  0  0  0  0  0  0  0  0  0  0  0
    2.5292    0.6725   -2.2804 C   0  0  0  0  0  0  0  0  0  0  0  0
    3.1591    0.7759   -3.5304 C   0  0  0  0  0  0  0  0  0  0  0  0
    4.2630   -0.0219   -3.8116 C   0  0  0  0  0  0  0  0  0  0  0  0
    5.0319    0.0347   -5.0527 C   0  0  0  0  0  0  0  0  0  0  0  0
    6.0738    0.8871   -5.1393 C   0  0  0  0  0  0  0  0  0  0  0  0
    7.2962    0.5316   -5.8182 C   0  0  0  0  0  0  0  0  0  0  0  0
    7.4740   -0.6382   -6.4527 N   0  0  0  0  0  0  0  0  0  0  0  0
    8.8030   -0.8144   -6.4220 N   0  0  0  0  0  0  0  0  0  0  0  0
    9.4845    0.1888   -5.7958 C   0  0  0  0  0  0  0  0  0  0  0  0
   10.8094    0.2913   -5.3678 C   0  0  0  0  0  0  0  0  0  0  0  0
   11.1908    1.4991   -4.7761 C   0  0  0  0  0  0  0  0  0  0  0  0
   10.2988    2.5664   -4.6678 C   0  0  0  0  0  0  0  0  0  0  0  0
    8.9604    2.4206   -5.0497 C   0  0  0  0  0  0  0  0  0  0  0  0
    8.5383    1.1845   -5.5792 C   0  0  0  0  0  0  0  0  0  0  0  0
    4.7123   -0.9459   -2.8518 C   0  0  0  0  0  0  0  0  0  0  0  0
    4.0698   -1.0702   -1.6218 C   0  0  0  0  0  0  0  0  0  0  0  0
    3.0422   -0.4568    1.1889 N   0  0  0  0  0  0  0  0  0  0  0  0
    2.3102   -0.7559    2.4238 C   0  0  0  0  0  0  0  0  0  0  0  0
    2.7996    0.0983    3.6067 C   0  0  0  0  0  0  0  0  0  0  0  0
    4.2589    0.0133    3.8135 N   0  0  0  0  0  0  0  0  0  0  0  0
    4.9375    0.4159    2.5705 C   0  0  0  0  0  0  0  0  0  0  0  0
    4.5032   -0.4015    1.3397 C   0  0  0  0  0  0  0  0  0  0  0  0
    1.6563    1.2874   -2.0663 H   0  0  0  0  0  0  0  0  0  0  0  0
    2.7751    1.4696   -4.2736 H   0  0  0  0  0  0  0  0  0  0  0  0
    4.9883   -0.8517   -5.6762 H   0  0  0  0  0  0  0  0  0  0  0  0
    6.1419    1.7138   -4.4339 H   0  0  0  0  0  0  0  0  0  0  0  0
    9.1726   -1.6842   -6.7881 H   0  0  0  0  0  0  0  0  0  0  0  0
   11.4989   -0.5417   -5.4430 H   0  0  0  0  0  0  0  0  0  0  0  0
   12.2037    1.6085   -4.3946 H   0  0  0  0  0  0  0  0  0  0  0  0
   10.6348    3.5102   -4.2451 H   0  0  0  0  0  0  0  0  0  0  0  0
    8.2592    3.2392   -4.9173 H   0  0  0  0  0  0  0  0  0  0  0  0
    5.5744   -1.5792   -3.0614 H   0  0  0  0  0  0  0  0  0  0  0  0
    4.4095   -1.8286   -0.9233 H   0  0  0  0  0  0  0  0  0  0  0  0
    2.4755   -1.8192    2.6390 H   0  0  0  0  0  0  0  0  0  0  0  0
    1.2328   -0.6159    2.2939 H   0  0  0  0  0  0  0  0  0  0  0  0
    2.2959   -0.2255    4.5237 H   0  0  0  0  0  0  0  0  0  0  0  0
    2.5228    1.1476    3.4454 H   0  0  0  0  0  0  0  0  0  0  0  0
    4.4980   -0.9578    4.0151 H   0  0  0  0  0  0  0  0  0  0  0  0
    6.0198    0.3138    2.7076 H   0  0  0  0  0  0  0  0  0  0  0  0
    4.7427    1.4795    2.3860 H   0  0  0  0  0  0  0  0  0  0  0  0
    4.8530   -1.4372    1.4408 H   0  0  0  0  0  0  0  0  0  0  0  0
    4.9764    0.0414    0.4616 H   0  0  0  0  0  0  0  0  0  0  0  0
  1  2  2  0  0  0  0
  2  3  1  0  0  0  0
  2 20  1  0  0  0  0
  3  4  1  0  0  0  0
  3 19  2  0  0  0  0
  4  5  2  0  0  0  0
  4 26  1  0  0  0  0
  5  6  1  0  0  0  0
  5 27  1  0  0  0  0
  6  7  1  0  0  0  0
  6 18  2  0  0  0  0
  7  8  2  0  0  0  0
  7 28  1  0  0  0  0
  8  9  1  0  0  0  0
  8 29  1  0  0  0  0
  9 10  2  0  0  0  0
  9 17  1  0  0  0  0
 10 11  1  0  0  0  0
 11 12  1  0  0  0  0
 11 30  1  0  0  0  0
 12 13  1  0  0  0  0
 12 17  2  0  0  0  0
 13 14  2  0  0  0  0
 13 31  1  0  0  0  0
 14 15  1  0  0  0  0
 14 32  1  0  0  0  0
 15 16  2  0  0  0  0
 15 33  1  0  0  0  0
 16 17  1  0  0  0  0
 16 34  1  0  0  0  0
 18 19  1  0  0  0  0
 18 35  1  0  0  0  0
 19 36  1  0  0  0  0
 20 21  1  0  0  0  0
 20 25  1  0  0  0  0
 21 22  1  0  0  0  0
 21 37  1  0  0  0  0
 21 38  1  0  0  0  0
 22 23  1  0  0  0  0
 22 39  1  0  0  0  0
 22 40  1  0  0  0  0
 23 24  1  0  0  0  0
 23 41  1  0  0  0  0
 24 25  1  0  0  0  0
 24 42  1  0  0  0  0
 24 43  1  0  0  0  0
 25 44  1  0  0  0  0
 25 45  1  0  0  0  0
M  END
$$$$
