CHEMBL524057
 OpenBabel04072215383D

 37 40  0  0  0  0  0  0  0  0999 V2000
    1.1968   -0.5066   -0.6860 C   0  0  0  0  0  0  0  0  0  0  0  0
    2.4264    0.0251    0.0364 C   0  0  0  0  0  0  0  0  0  0  0  0
    2.9603    1.2786   -0.5778 C   0  0  0  0  0  0  0  0  0  0  0  0
    2.4433    2.4565   -0.2032 N   0  0  0  0  0  0  0  0  0  0  0  0
    3.1595    3.3696   -0.8758 N   0  0  0  0  0  0  0  0  0  0  0  0
    2.8988    4.6882   -0.7035 N   0  0  0  0  0  0  0  0  0  0  0  0
    3.6614    5.4482   -1.4240 C   0  0  0  0  0  0  0  0  0  0  0  0
    4.7165    5.0041   -2.3590 C   0  0  0  0  0  0  0  0  0  0  0  0
    4.9066    3.6851   -2.4735 C   0  0  0  0  0  0  0  0  0  0  0  0
    4.1088    2.8068   -1.6999 C   0  0  0  0  0  0  0  0  0  0  0  0
    4.0137    1.4355   -1.5262 C   0  0  0  0  0  0  0  0  0  0  0  0
    4.8685    0.4688   -2.1990 C   0  0  0  0  0  0  0  0  0  0  0  0
    4.4023   -0.7537   -2.6233 C   0  0  0  0  0  0  0  0  0  0  0  0
    5.3150   -1.5412   -3.2772 C   0  0  0  0  0  0  0  0  0  0  0  0
    6.5848   -1.1673   -3.5193 N   0  0  0  0  0  0  0  0  0  0  0  0
    6.9525    0.0406   -3.0713 C   0  0  0  0  0  0  0  0  0  0  0  0
    8.2549    0.4421   -3.3758 N   0  0  0  0  0  0  0  0  0  0  0  0
    8.9464    1.4015   -2.5224 C   0  0  0  0  0  0  0  0  0  0  0  0
   10.3772    1.7627   -2.8095 C   0  0  0  0  0  0  0  0  0  0  0  0
   10.0366    0.9720   -1.5806 C   0  0  0  0  0  0  0  0  0  0  0  0
    6.1381    0.8664   -2.4055 N   0  0  0  0  0  0  0  0  0  0  0  0
    0.9143   -1.4853   -0.2815 H   0  0  0  0  0  0  0  0  0  0  0  0
    1.3678   -0.6216   -1.7598 H   0  0  0  0  0  0  0  0  0  0  0  0
    0.3451    0.1709   -0.5626 H   0  0  0  0  0  0  0  0  0  0  0  0
    3.2073   -0.7439    0.0455 H   0  0  0  0  0  0  0  0  0  0  0  0
    2.1718    0.2074    1.0878 H   0  0  0  0  0  0  0  0  0  0  0  0
    3.5323    6.5413   -1.3531 H   0  0  0  0  0  0  0  0  0  0  0  0
    5.2864    5.7401   -2.9079 H   0  0  0  0  0  0  0  0  0  0  0  0
    5.6653    3.2889   -3.1422 H   0  0  0  0  0  0  0  0  0  0  0  0
    3.3879   -1.0881   -2.4861 H   0  0  0  0  0  0  0  0  0  0  0  0
    5.0422   -2.5245   -3.6500 H   0  0  0  0  0  0  0  0  0  0  0  0
    8.7438   -0.3659   -3.7399 H   0  0  0  0  0  0  0  0  0  0  0  0
    8.3104    2.2227   -2.1938 H   0  0  0  0  0  0  0  0  0  0  0  0
   10.6676    2.7994   -2.6866 H   0  0  0  0  0  0  0  0  0  0  0  0
   10.8843    1.2514   -3.6189 H   0  0  0  0  0  0  0  0  0  0  0  0
   10.1014    1.4732   -0.6215 H   0  0  0  0  0  0  0  0  0  0  0  0
   10.3199   -0.0729   -1.5542 H   0  0  0  0  0  0  0  0  0  0  0  0
  1  2  1  0  0  0  0
  1 22  1  0  0  0  0
  1 23  1  0  0  0  0
  1 24  1  0  0  0  0
  2  3  1  0  0  0  0
  2 25  1  0  0  0  0
  2 26  1  0  0  0  0
  3  4  2  0  0  0  0
  3 11  1  0  0  0  0
  4  5  1  0  0  0  0
  5  6  1  0  0  0  0
  5 10  1  0  0  0  0
  6  7  2  0  0  0  0
  7  8  1  0  0  0  0
  7 27  1  0  0  0  0
  8  9  2  0  0  0  0
  8 28  1  0  0  0  0
  9 10  1  0  0  0  0
  9 29  1  0  0  0  0
 10 11  2  0  0  0  0
 11 12  1  0  0  0  0
 12 13  1  0  0  0  0
 12 21  2  0  0  0  0
 13 14  2  0  0  0  0
 13 30  1  0  0  0  0
 14 15  1  0  0  0  0
 14 31  1  0  0  0  0
 15 16  2  0  0  0  0
 16 17  1  0  0  0  0
 16 21  1  0  0  0  0
 17 18  1  0  0  0  0
 17 32  1  0  0  0  0
 18 19  1  0  0  0  0
 18 20  1  0  0  0  0
 18 33  1  0  0  0  0
 19 20  1  0  0  0  0
 19 34  1  0  0  0  0
 19 35  1  0  0  0  0
 20 36  1  0  0  0  0
 20 37  1  0  0  0  0
M  END
$$$$
