CHEMBL3909626
 OpenBabel04072215373D

 53 57  0  0  0  0  0  0  0  0999 V2000
    2.6696   -0.2767   -1.3041 C   0  0  0  0  0  0  0  0  0  0  0  0
    2.3400   -0.0527    0.0622 O   0  0  0  0  0  0  0  0  0  0  0  0
    3.0709    0.8382    0.7957 C   0  0  0  0  0  0  0  0  0  0  0  0
    4.2669    1.3866    0.3409 C   0  0  0  0  0  0  0  0  0  0  0  0
    4.9256    2.4115    1.0527 C   0  0  0  0  0  0  0  0  0  0  0  0
    6.0971    3.0356    0.6072 C   0  0  0  0  0  0  0  0  0  0  0  0
    6.6252    2.6967   -0.6738 N   0  0  0  0  0  0  0  0  0  0  0  0
    7.9402    3.0028   -1.0783 C   0  0  0  0  0  0  0  0  0  0  0  0
    9.0180    2.7077   -0.2338 C   0  0  0  0  0  0  0  0  0  0  0  0
   10.3139    3.0954   -0.5627 C   0  0  0  0  0  0  0  0  0  0  0  0
   10.5533    3.7755   -1.7565 C   0  0  0  0  0  0  0  0  0  0  0  0
   12.1696    4.2963   -2.0712 Cl  0  0  0  0  0  0  0  0  0  0  0  0
    9.4932    4.0297   -2.6346 C   0  0  0  0  0  0  0  0  0  0  0  0
    9.7196    4.8563   -4.1367 Cl  0  0  0  0  0  0  0  0  0  0  0  0
    8.1923    3.6318   -2.3018 C   0  0  0  0  0  0  0  0  0  0  0  0
    6.7285    3.9669    1.3425 N   0  0  0  0  0  0  0  0  0  0  0  0
    6.1656    4.2935    2.5089 C   0  0  0  0  0  0  0  0  0  0  0  0
    5.0342    3.7885    3.0090 N   0  0  0  0  0  0  0  0  0  0  0  0
    4.4204    2.8468    2.2819 C   0  0  0  0  0  0  0  0  0  0  0  0
    3.2614    2.2494    2.7612 C   0  0  0  0  0  0  0  0  0  0  0  0
    2.5963    1.2290    2.0593 C   0  0  0  0  0  0  0  0  0  0  0  0
    1.5128    0.7073    2.7361 O   0  0  0  0  0  0  0  0  0  0  0  0
    1.1766   -0.6404    2.3959 C   0  0  0  0  0  0  0  0  0  0  0  0
    0.5071   -1.3785    3.5587 C   0  0  0  0  0  0  0  0  0  0  0  0
    0.2959   -2.7776    3.2021 N   0  0  0  0  0  0  0  0  0  0  0  0
   -0.8145   -3.2399    2.5508 C   0  0  0  0  0  0  0  0  0  0  0  0
   -1.8409   -2.6516    2.2724 O   0  0  0  0  0  0  0  0  0  0  0  0
   -0.5250   -4.6151    2.1483 C   0  0  0  0  0  0  0  0  0  0  0  0
   -1.2902   -5.5388    1.4654 C   0  0  0  0  0  0  0  0  0  0  0  0
   -0.6979   -6.7677    1.1578 C   0  0  0  0  0  0  0  0  0  0  0  0
    0.6348   -7.0382    1.5244 C   0  0  0  0  0  0  0  0  0  0  0  0
    1.3977   -6.0876    2.2118 C   0  0  0  0  0  0  0  0  0  0  0  0
    0.7830   -4.8882    2.5159 C   0  0  0  0  0  0  0  0  0  0  0  0
    1.3135   -3.6959    3.1731 C   0  0  0  0  0  0  0  0  0  0  0  0
    2.4690   -3.5732    3.5290 O   0  0  0  0  0  0  0  0  0  0  0  0
    3.2681   -1.1888   -1.3879 H   0  0  0  0  0  0  0  0  0  0  0  0
    3.1783    0.5588   -1.7931 H   0  0  0  0  0  0  0  0  0  0  0  0
    1.7337   -0.4257   -1.8499 H   0  0  0  0  0  0  0  0  0  0  0  0
    4.7350    1.0139   -0.5640 H   0  0  0  0  0  0  0  0  0  0  0  0
    5.9307    2.9085   -1.3834 H   0  0  0  0  0  0  0  0  0  0  0  0
    8.8409    2.1914    0.7080 H   0  0  0  0  0  0  0  0  0  0  0  0
   11.1244    2.8826    0.1296 H   0  0  0  0  0  0  0  0  0  0  0  0
    7.3758    3.8530   -2.9838 H   0  0  0  0  0  0  0  0  0  0  0  0
    6.6829    5.0380    3.1053 H   0  0  0  0  0  0  0  0  0  0  0  0
    2.8700    2.5728    3.7243 H   0  0  0  0  0  0  0  0  0  0  0  0
    2.0772   -1.2084    2.1347 H   0  0  0  0  0  0  0  0  0  0  0  0
    0.4863   -0.6262    1.5445 H   0  0  0  0  0  0  0  0  0  0  0  0
   -0.4523   -0.9120    3.8074 H   0  0  0  0  0  0  0  0  0  0  0  0
    1.1450   -1.3315    4.4487 H   0  0  0  0  0  0  0  0  0  0  0  0
   -2.3102   -5.3103    1.1704 H   0  0  0  0  0  0  0  0  0  0  0  0
   -1.2672   -7.5216    0.6167 H   0  0  0  0  0  0  0  0  0  0  0  0
    1.0814   -7.9979    1.2605 H   0  0  0  0  0  0  0  0  0  0  0  0
    2.4326   -6.2730    2.4795 H   0  0  0  0  0  0  0  0  0  0  0  0
  1  2  1  0  0  0  0
  1 36  1  0  0  0  0
  1 37  1  0  0  0  0
  1 38  1  0  0  0  0
  2  3  1  0  0  0  0
  3  4  1  0  0  0  0
  3 21  2  0  0  0  0
  4  5  2  0  0  0  0
  4 39  1  0  0  0  0
  5  6  1  0  0  0  0
  5 19  1  0  0  0  0
  6  7  1  0  0  0  0
  6 16  2  0  0  0  0
  7  8  1  0  0  0  0
  7 40  1  0  0  0  0
  8  9  1  0  0  0  0
  8 15  2  0  0  0  0
  9 10  2  0  0  0  0
  9 41  1  0  0  0  0
 10 11  1  0  0  0  0
 10 42  1  0  0  0  0
 11 12  1  0  0  0  0
 11 13  2  0  0  0  0
 13 14  1  0  0  0  0
 13 15  1  0  0  0  0
 15 43  1  0  0  0  0
 16 17  1  0  0  0  0
 17 18  2  0  0  0  0
 17 44  1  0  0  0  0
 18 19  1  0  0  0  0
 19 20  2  0  0  0  0
 20 21  1  0  0  0  0
 20 45  1  0  0  0  0
 21 22  1  0  0  0  0
 22 23  1  0  0  0  0
 23 24  1  0  0  0  0
 23 46  1  0  0  0  0
 23 47  1  0  0  0  0
 24 25  1  0  0  0  0
 24 48  1  0  0  0  0
 24 49  1  0  0  0  0
 25 26  1  0  0  0  0
 25 34  1  0  0  0  0
 26 27  2  0  0  0  0
 26 28  1  0  0  0  0
 28 29  1  0  0  0  0
 28 33  2  0  0  0  0
 29 30  2  0  0  0  0
 29 50  1  0  0  0  0
 30 31  1  0  0  0  0
 30 51  1  0  0  0  0
 31 32  2  0  0  0  0
 31 52  1  0  0  0  0
 32 33  1  0  0  0  0
 32 53  1  0  0  0  0
 33 34  1  0  0  0  0
 34 35  2  0  0  0  0
M  END
$$$$
