CHEMBL3895870
 OpenBabel04072215373D

 42 45  0  0  0  0  0  0  0  0999 V2000
    1.4370    0.1764   -0.0522 N   0  0  0  0  0  0  0  0  0  0  0  0
    2.7651    0.2523   -0.0298 C   0  0  0  0  0  0  0  0  0  0  0  0
    3.5332    1.3858   -0.0092 C   0  0  0  0  0  0  0  0  0  0  0  0
    4.8253    0.9337    0.0075 N   0  0  0  0  0  0  0  0  0  0  0  0
    5.9608    1.7118    0.0281 N   0  0  0  0  0  0  0  0  0  0  0  0
    7.0425    0.9977    0.0316 C   0  0  0  0  0  0  0  0  0  0  0  0
    8.2467    1.8052    0.0488 C   0  0  0  0  0  0  0  0  0  0  0  0
    9.2921    2.4061    0.0417 C   0  0  0  0  0  0  0  0  0  0  0  0
   10.5500    3.1043   -0.0110 C   0  0  0  0  0  0  0  0  0  0  0  0
   10.5824    4.4966    0.0074 C   0  0  0  0  0  0  0  0  0  0  0  0
   11.8026    5.1845   -0.0992 C   0  0  0  0  0  0  0  0  0  0  0  0
   13.0163    4.5015   -0.2238 C   0  0  0  0  0  0  0  0  0  0  0  0
   14.2737    5.1571   -0.3652 N   0  0  0  0  0  0  0  0  0  0  0  0
   14.5115    6.5086   -0.1415 C   0  0  0  0  0  0  0  0  0  0  0  0
   13.6898    7.3151    0.2867 O   0  0  0  0  0  0  0  0  0  0  0  0
   15.8975    7.0190   -0.3790 C   0  0  0  0  0  0  0  0  0  0  0  0
   16.7504    6.5042   -1.3631 C   0  0  0  0  0  0  0  0  0  0  0  0
   18.0130    7.0835   -1.5641 C   0  0  0  0  0  0  0  0  0  0  0  0
   18.4251    8.1721   -0.7938 C   0  0  0  0  0  0  0  0  0  0  0  0
   17.5770    8.6962    0.1776 C   0  0  0  0  0  0  0  0  0  0  0  0
   16.3195    8.1242    0.3793 C   0  0  0  0  0  0  0  0  0  0  0  0
   12.9802    3.1008   -0.2298 C   0  0  0  0  0  0  0  0  0  0  0  0
   11.7578    2.4082   -0.1157 C   0  0  0  0  0  0  0  0  0  0  0  0
    7.1284   -0.4845    0.0123 C   0  0  0  0  0  0  0  0  0  0  0  0
    5.9758   -1.1656   -0.0048 C   0  0  0  0  0  0  0  0  0  0  0  0
    4.7564   -0.4551   -0.0080 C   0  0  0  0  0  0  0  0  0  0  0  0
    3.5094   -0.8804   -0.0274 N   0  0  0  0  0  0  0  0  0  0  0  0
    0.8237    0.9785   -0.0126 H   0  0  0  0  0  0  0  0  0  0  0  0
    0.9867   -0.7312   -0.0240 H   0  0  0  0  0  0  0  0  0  0  0  0
    3.2979    2.4377   -0.0060 H   0  0  0  0  0  0  0  0  0  0  0  0
    9.6621    5.0704    0.0929 H   0  0  0  0  0  0  0  0  0  0  0  0
   11.7600    6.2696   -0.1055 H   0  0  0  0  0  0  0  0  0  0  0  0
   15.0731    4.5641   -0.5453 H   0  0  0  0  0  0  0  0  0  0  0  0
   16.4412    5.6914   -2.0117 H   0  0  0  0  0  0  0  0  0  0  0  0
   18.6740    6.7000   -2.3386 H   0  0  0  0  0  0  0  0  0  0  0  0
   19.4009    8.6250   -0.9592 H   0  0  0  0  0  0  0  0  0  0  0  0
   17.8833    9.5562    0.7685 H   0  0  0  0  0  0  0  0  0  0  0  0
   15.6565    8.5554    1.1279 H   0  0  0  0  0  0  0  0  0  0  0  0
   13.8962    2.5214   -0.3095 H   0  0  0  0  0  0  0  0  0  0  0  0
   11.7614    1.3205   -0.1158 H   0  0  0  0  0  0  0  0  0  0  0  0
    8.0985   -0.9599    0.0085 H   0  0  0  0  0  0  0  0  0  0  0  0
    5.9461   -2.2489   -0.0230 H   0  0  0  0  0  0  0  0  0  0  0  0
  1  2  1  0  0  0  0
  1 28  1  0  0  0  0
  1 29  1  0  0  0  0
  2  3  2  0  0  0  0
  2 27  1  0  0  0  0
  3  4  1  0  0  0  0
  3 30  1  0  0  0  0
  4  5  1  0  0  0  0
  4 26  1  0  0  0  0
  5  6  2  0  0  0  0
  6  7  1  0  0  0  0
  6 24  1  0  0  0  0
  7  8  3  0  0  0  0
  8  9  1  0  0  0  0
  9 10  1  0  0  0  0
  9 23  2  0  0  0  0
 10 11  2  0  0  0  0
 10 31  1  0  0  0  0
 11 12  1  0  0  0  0
 11 32  1  0  0  0  0
 12 13  1  0  0  0  0
 12 22  2  0  0  0  0
 13 14  1  0  0  0  0
 13 33  1  0  0  0  0
 14 15  2  0  0  0  0
 14 16  1  0  0  0  0
 16 17  1  0  0  0  0
 16 21  2  0  0  0  0
 17 18  2  0  0  0  0
 17 34  1  0  0  0  0
 18 19  1  0  0  0  0
 18 35  1  0  0  0  0
 19 20  2  0  0  0  0
 19 36  1  0  0  0  0
 20 21  1  0  0  0  0
 20 37  1  0  0  0  0
 21 38  1  0  0  0  0
 22 23  1  0  0  0  0
 22 39  1  0  0  0  0
 23 40  1  0  0  0  0
 24 25  2  0  0  0  0
 24 41  1  0  0  0  0
 25 26  1  0  0  0  0
 25 42  1  0  0  0  0
 26 27  2  0  0  0  0
M  END
$$$$
