CHEMBL352308
 OpenBabel04072215363D

 72 75  0  0  0  0  0  0  0  0999 V2000
    2.6431    0.6577   -1.1256 C   0  0  0  0  0  0  0  0  0  0  0  0
    2.4354   -0.2993   -0.0836 O   0  0  0  0  0  0  0  0  0  0  0  0
    3.1343   -0.1398    1.0841 C   0  0  0  0  0  0  0  0  0  0  0  0
    4.2867    0.6536    1.1609 C   0  0  0  0  0  0  0  0  0  0  0  0
    4.8875    0.9753    2.3919 C   0  0  0  0  0  0  0  0  0  0  0  0
    5.9685    1.8814    2.5398 C   0  0  0  0  0  0  0  0  0  0  0  0
    6.5273    2.4822    1.4080 O   0  0  0  0  0  0  0  0  0  0  0  0
    7.8391    2.9154    1.5035 C   0  0  0  0  0  0  0  0  0  0  0  0
    8.8195    2.1396    2.1149 C   0  0  0  0  0  0  0  0  0  0  0  0
   10.0553    2.6883    2.4567 C   0  0  0  0  0  0  0  0  0  0  0  0
   10.3863    4.0043    2.0901 C   0  0  0  0  0  0  0  0  0  0  0  0
   11.6253    4.5841    2.4317 N   0  0  0  0  0  0  0  0  0  0  0  0
   12.8089    3.9650    2.8743 C   0  0  0  0  0  0  0  0  0  0  0  0
   13.2046    2.7388    2.3472 C   0  0  0  0  0  0  0  0  0  0  0  0
   14.3065    2.0495    2.8527 C   0  0  0  0  0  0  0  0  0  0  0  0
   15.0618    2.5559    3.9193 C   0  0  0  0  0  0  0  0  0  0  0  0
   16.2446    1.7711    4.5122 C   0  0  0  0  0  0  0  0  0  0  0  0
   16.4490    0.4030    3.8178 C   0  0  0  0  0  0  0  0  0  0  0  0
   17.5479    2.5819    4.3605 C   0  0  0  0  0  0  0  0  0  0  0  0
   16.0200    1.4861    6.0123 C   0  0  0  0  0  0  0  0  0  0  0  0
   14.6834    3.8122    4.4276 C   0  0  0  0  0  0  0  0  0  0  0  0
   13.5695    4.5034    3.9135 C   0  0  0  0  0  0  0  0  0  0  0  0
    9.4612    4.7128    1.3234 C   0  0  0  0  0  0  0  0  0  0  0  0
    8.1860    4.1878    1.0389 C   0  0  0  0  0  0  0  0  0  0  0  0
    6.4313    2.1688    3.8182 C   0  0  0  0  0  0  0  0  0  0  0  0
    5.9226    1.4640    4.8843 C   0  0  0  0  0  0  0  0  0  0  0  0
    4.9083    0.5855    4.7762 N   0  0  0  0  0  0  0  0  0  0  0  0
    4.3795    0.3763    3.5656 C   0  0  0  0  0  0  0  0  0  0  0  0
    3.3038   -0.5011    3.4679 C   0  0  0  0  0  0  0  0  0  0  0  0
    2.6841   -0.7843    2.2491 C   0  0  0  0  0  0  0  0  0  0  0  0
    1.6706   -1.7074    2.3698 O   0  0  0  0  0  0  0  0  0  0  0  0
    1.4319   -2.5235    1.2215 C   0  0  0  0  0  0  0  0  0  0  0  0
    0.9279   -3.9342    1.5938 C   0  0  0  0  0  0  0  0  0  0  0  0
   -0.3925   -3.9176    2.2403 N   0  0  0  0  0  0  0  0  0  0  0  0
   -0.8920   -5.2834    2.4639 C   0  0  0  0  0  0  0  0  0  0  0  0
   -2.2605   -5.2536    3.1564 C   0  0  0  0  0  0  0  0  0  0  0  0
   -3.2169   -4.5812    2.3398 O   0  0  0  0  0  0  0  0  0  0  0  0
    3.1779    0.1739   -1.9475 H   0  0  0  0  0  0  0  0  0  0  0  0
    3.1734    1.5688   -0.8321 H   0  0  0  0  0  0  0  0  0  0  0  0
    1.6654    0.9899   -1.4910 H   0  0  0  0  0  0  0  0  0  0  0  0
    4.7486    1.0481    0.2614 H   0  0  0  0  0  0  0  0  0  0  0  0
    8.5929    1.1221    2.4465 H   0  0  0  0  0  0  0  0  0  0  0  0
   10.7190    2.0967    3.0678 H   0  0  0  0  0  0  0  0  0  0  0  0
   11.6357    5.5969    2.4685 H   0  0  0  0  0  0  0  0  0  0  0  0
   12.6518    2.2989    1.5191 H   0  0  0  0  0  0  0  0  0  0  0  0
   14.5350    1.0992    2.3805 H   0  0  0  0  0  0  0  0  0  0  0  0
   16.6775    0.5250    2.7520 H   0  0  0  0  0  0  0  0  0  0  0  0
   15.5504   -0.2215    3.9021 H   0  0  0  0  0  0  0  0  0  0  0  0
   17.2744   -0.1609    4.2640 H   0  0  0  0  0  0  0  0  0  0  0  0
   17.7776    2.7732    3.3078 H   0  0  0  0  0  0  0  0  0  0  0  0
   18.3966    2.0438    4.7969 H   0  0  0  0  0  0  0  0  0  0  0  0
   17.4884    3.5521    4.8676 H   0  0  0  0  0  0  0  0  0  0  0  0
   15.1113    0.8960    6.1765 H   0  0  0  0  0  0  0  0  0  0  0  0
   15.9318    2.4055    6.6009 H   0  0  0  0  0  0  0  0  0  0  0  0
   16.8617    0.9187    6.4302 H   0  0  0  0  0  0  0  0  0  0  0  0
   15.2412    4.2659    5.2440 H   0  0  0  0  0  0  0  0  0  0  0  0
   13.2920    5.4528    4.3665 H   0  0  0  0  0  0  0  0  0  0  0  0
    9.7139    5.7070    0.9551 H   0  0  0  0  0  0  0  0  0  0  0  0
    7.4675    4.7932    0.4957 H   0  0  0  0  0  0  0  0  0  0  0  0
    7.2192    2.8903    4.0058 H   0  0  0  0  0  0  0  0  0  0  0  0
    6.3439    1.5765    5.8771 H   0  0  0  0  0  0  0  0  0  0  0  0
    2.9399   -0.9688    4.3777 H   0  0  0  0  0  0  0  0  0  0  0  0
    2.3574   -2.6717    0.6548 H   0  0  0  0  0  0  0  0  0  0  0  0
    0.6827   -2.0263    0.5964 H   0  0  0  0  0  0  0  0  0  0  0  0
    1.6555   -4.4305    2.2466 H   0  0  0  0  0  0  0  0  0  0  0  0
    0.8604   -4.5079    0.6602 H   0  0  0  0  0  0  0  0  0  0  0  0
   -1.0329   -3.4161    1.6285 H   0  0  0  0  0  0  0  0  0  0  0  0
   -0.1924   -5.8500    3.0891 H   0  0  0  0  0  0  0  0  0  0  0  0
   -0.9948   -5.7975    1.5004 H   0  0  0  0  0  0  0  0  0  0  0  0
   -2.2077   -4.7478    4.1268 H   0  0  0  0  0  0  0  0  0  0  0  0
   -2.6213   -6.2735    3.3234 H   0  0  0  0  0  0  0  0  0  0  0  0
   -2.9081   -3.6615    2.2759 H   0  0  0  0  0  0  0  0  0  0  0  0
  1  2  1  0  0  0  0
  1 38  1  0  0  0  0
  1 39  1  0  0  0  0
  1 40  1  0  0  0  0
  2  3  1  0  0  0  0
  3  4  1  0  0  0  0
  3 30  2  0  0  0  0
  4  5  2  0  0  0  0
  4 41  1  0  0  0  0
  5  6  1  0  0  0  0
  5 28  1  0  0  0  0
  6  7  1  0  0  0  0
  6 25  2  0  0  0  0
  7  8  1  0  0  0  0
  8  9  1  0  0  0  0
  8 24  2  0  0  0  0
  9 10  2  0  0  0  0
  9 42  1  0  0  0  0
 10 11  1  0  0  0  0
 10 43  1  0  0  0  0
 11 12  1  0  0  0  0
 11 23  2  0  0  0  0
 12 13  1  0  0  0  0
 12 44  1  0  0  0  0
 13 14  1  0  0  0  0
 13 22  2  0  0  0  0
 14 15  2  0  0  0  0
 14 45  1  0  0  0  0
 15 16  1  0  0  0  0
 15 46  1  0  0  0  0
 16 17  1  0  0  0  0
 16 21  2  0  0  0  0
 17 18  1  0  0  0  0
 17 19  1  0  0  0  0
 17 20  1  0  0  0  0
 18 47  1  0  0  0  0
 18 48  1  0  0  0  0
 18 49  1  0  0  0  0
 19 50  1  0  0  0  0
 19 51  1  0  0  0  0
 19 52  1  0  0  0  0
 20 53  1  0  0  0  0
 20 54  1  0  0  0  0
 20 55  1  0  0  0  0
 21 22  1  0  0  0  0
 21 56  1  0  0  0  0
 22 57  1  0  0  0  0
 23 24  1  0  0  0  0
 23 58  1  0  0  0  0
 24 59  1  0  0  0  0
 25 26  1  0  0  0  0
 25 60  1  0  0  0  0
 26 27  2  0  0  0  0
 26 61  1  0  0  0  0
 27 28  1  0  0  0  0
 28 29  2  0  0  0  0
 29 30  1  0  0  0  0
 29 62  1  0  0  0  0
 30 31  1  0  0  0  0
 31 32  1  0  0  0  0
 32 33  1  0  0  0  0
 32 63  1  0  0  0  0
 32 64  1  0  0  0  0
 33 34  1  0  0  0  0
 33 65  1  0  0  0  0
 33 66  1  0  0  0  0
 34 35  1  0  0  0  0
 34 67  1  0  0  0  0
 35 36  1  0  0  0  0
 35 68  1  0  0  0  0
 35 69  1  0  0  0  0
 36 37  1  0  0  0  0
 36 70  1  0  0  0  0
 36 71  1  0  0  0  0
 37 72  1  0  0  0  0
M  END
$$$$
