CHEMBL187609
 OpenBabel04072215363D

 66 69  0  0  0  0  0  0  0  0999 V2000
    1.2023    0.1448    0.0773 C   0  0  0  0  0  0  0  0  0  0  0  0
    2.6612    0.1036    0.2327 N   0  0  0  0  0  0  0  0  0  0  0  0
    3.2834   -1.1480    0.1178 C   0  0  0  0  0  0  0  0  0  0  0  0
    2.8306   -2.1079   -0.7823 C   0  0  0  0  0  0  0  0  0  0  0  0
    3.4613   -3.3459   -0.8846 C   0  0  0  0  0  0  0  0  0  0  0  0
    4.5717   -3.6706   -0.0999 C   0  0  0  0  0  0  0  0  0  0  0  0
    5.2131   -4.9309   -0.1561 N   0  0  0  0  0  0  0  0  0  0  0  0
    4.8782   -5.9404   -1.0343 C   0  0  0  0  0  0  0  0  0  0  0  0
    4.0544   -5.8381   -1.9376 O   0  0  0  0  0  0  0  0  0  0  0  0
    5.5454   -7.1302   -0.7685 N   0  0  0  0  0  0  0  0  0  0  0  0
    5.2545   -8.2362   -1.6040 C   0  0  0  0  0  0  0  0  0  0  0  0
    5.2486   -8.0867   -2.9964 C   0  0  0  0  0  0  0  0  0  0  0  0
    4.7600   -9.0979   -3.8228 C   0  0  0  0  0  0  0  0  0  0  0  0
    4.3273  -10.2950   -3.2649 C   0  0  0  0  0  0  0  0  0  0  0  0
    3.8119  -11.3545   -3.9447 O   0  0  0  0  0  0  0  0  0  0  0  0
    4.1686  -11.5567   -5.3044 C   0  0  0  0  0  0  0  0  0  0  0  0
    5.2530  -10.8598   -5.7039 F   0  0  0  0  0  0  0  0  0  0  0  0
    4.4462  -12.8693   -5.4734 F   0  0  0  0  0  0  0  0  0  0  0  0
    3.1251  -11.2425   -6.1020 F   0  0  0  0  0  0  0  0  0  0  0  0
    4.3589  -10.4520   -1.8721 C   0  0  0  0  0  0  0  0  0  0  0  0
    4.8449   -9.4389   -1.0390 C   0  0  0  0  0  0  0  0  0  0  0  0
    5.0473   -2.7135    0.7949 C   0  0  0  0  0  0  0  0  0  0  0  0
    4.4038   -1.4702    0.9034 C   0  0  0  0  0  0  0  0  0  0  0  0
    3.2747    1.3595    0.0386 C   0  0  0  0  0  0  0  0  0  0  0  0
    4.5711    1.4793   -0.4153 C   0  0  0  0  0  0  0  0  0  0  0  0
    5.0691    2.7514   -0.5588 C   0  0  0  0  0  0  0  0  0  0  0  0
    4.3729    3.8614   -0.2698 N   0  0  0  0  0  0  0  0  0  0  0  0
    3.1233    3.6732    0.1720 C   0  0  0  0  0  0  0  0  0  0  0  0
    2.3929    4.8054    0.5246 N   0  0  0  0  0  0  0  0  0  0  0  0
    1.4420    4.8756    1.5597 C   0  0  0  0  0  0  0  0  0  0  0  0
    0.4639    5.8712    1.5264 C   0  0  0  0  0  0  0  0  0  0  0  0
   -0.4939    5.9534    2.5379 C   0  0  0  0  0  0  0  0  0  0  0  0
   -0.4719    5.0544    3.6078 C   0  0  0  0  0  0  0  0  0  0  0  0
    0.5053    4.0546    3.6740 C   0  0  0  0  0  0  0  0  0  0  0  0
    0.6121    3.1045    4.8379 C   0  0  0  0  0  0  0  0  0  0  0  0
   -0.8047    2.0255    4.9998 S   0  0  0  0  0  0  0  0  0  0  0  0
   -0.9073    1.1534    3.4545 C   0  0  0  0  0  0  0  0  0  0  0  0
   -0.4668    1.0388    6.0127 O   0  0  0  0  0  0  0  0  0  0  0  0
   -2.0106    2.8190    5.1507 O   0  0  0  0  0  0  0  0  0  0  0  0
    1.4615    3.9907    2.6504 C   0  0  0  0  0  0  0  0  0  0  0  0
    2.5591    2.4610    0.3191 N   0  0  0  0  0  0  0  0  0  0  0  0
    0.7334   -0.8362    0.2350 H   0  0  0  0  0  0  0  0  0  0  0  0
    0.9173    0.4898   -0.9252 H   0  0  0  0  0  0  0  0  0  0  0  0
    0.7429    0.8037    0.8224 H   0  0  0  0  0  0  0  0  0  0  0  0
    1.9920   -1.9101   -1.4451 H   0  0  0  0  0  0  0  0  0  0  0  0
    3.0366   -4.0272   -1.6125 H   0  0  0  0  0  0  0  0  0  0  0  0
    6.0327   -5.0691    0.4168 H   0  0  0  0  0  0  0  0  0  0  0  0
    5.6602   -7.3266    0.2155 H   0  0  0  0  0  0  0  0  0  0  0  0
    5.5679   -7.1492   -3.4483 H   0  0  0  0  0  0  0  0  0  0  0  0
    4.6993   -8.8890   -4.8865 H   0  0  0  0  0  0  0  0  0  0  0  0
    3.9704  -11.3656   -1.4273 H   0  0  0  0  0  0  0  0  0  0  0  0
    4.8087   -9.5742    0.0376 H   0  0  0  0  0  0  0  0  0  0  0  0
    5.9123   -2.9115    1.4239 H   0  0  0  0  0  0  0  0  0  0  0  0
    4.7757   -0.7496    1.6296 H   0  0  0  0  0  0  0  0  0  0  0  0
    5.1757    0.6254   -0.6835 H   0  0  0  0  0  0  0  0  0  0  0  0
    6.0807    2.9134   -0.9186 H   0  0  0  0  0  0  0  0  0  0  0  0
    3.0098    5.6064    0.4766 H   0  0  0  0  0  0  0  0  0  0  0  0
    0.4260    6.5710    0.6955 H   0  0  0  0  0  0  0  0  0  0  0  0
   -1.2630    6.7203    2.4921 H   0  0  0  0  0  0  0  0  0  0  0  0
   -1.2255    5.1523    4.3877 H   0  0  0  0  0  0  0  0  0  0  0  0
    0.7235    3.6589    5.7743 H   0  0  0  0  0  0  0  0  0  0  0  0
    1.4830    2.4468    4.7327 H   0  0  0  0  0  0  0  0  0  0  0  0
    0.0456    0.6554    3.2672 H   0  0  0  0  0  0  0  0  0  0  0  0
   -1.1540    1.8504    2.6534 H   0  0  0  0  0  0  0  0  0  0  0  0
   -1.6989    0.4052    3.5482 H   0  0  0  0  0  0  0  0  0  0  0  0
    2.2509    3.2467    2.7146 H   0  0  0  0  0  0  0  0  0  0  0  0
  1  2  1  0  0  0  0
  1 42  1  0  0  0  0
  1 43  1  0  0  0  0
  1 44  1  0  0  0  0
  2  3  1  0  0  0  0
  2 24  1  0  0  0  0
  3  4  1  0  0  0  0
  3 23  2  0  0  0  0
  4  5  2  0  0  0  0
  4 45  1  0  0  0  0
  5  6  1  0  0  0  0
  5 46  1  0  0  0  0
  6  7  1  0  0  0  0
  6 22  2  0  0  0  0
  7  8  1  0  0  0  0
  7 47  1  0  0  0  0
  8  9  2  0  0  0  0
  8 10  1  0  0  0  0
 10 11  1  0  0  0  0
 10 48  1  0  0  0  0
 11 12  1  0  0  0  0
 11 21  2  0  0  0  0
 12 13  2  0  0  0  0
 12 49  1  0  0  0  0
 13 14  1  0  0  0  0
 13 50  1  0  0  0  0
 14 15  1  0  0  0  0
 14 20  2  0  0  0  0
 15 16  1  0  0  0  0
 16 17  1  0  0  0  0
 16 18  1  0  0  0  0
 16 19  1  0  0  0  0
 20 21  1  0  0  0  0
 20 51  1  0  0  0  0
 21 52  1  0  0  0  0
 22 23  1  0  0  0  0
 22 53  1  0  0  0  0
 23 54  1  0  0  0  0
 24 25  1  0  0  0  0
 24 41  2  0  0  0  0
 25 26  2  0  0  0  0
 25 55  1  0  0  0  0
 26 27  1  0  0  0  0
 26 56  1  0  0  0  0
 27 28  2  0  0  0  0
 28 29  1  0  0  0  0
 28 41  1  0  0  0  0
 29 30  1  0  0  0  0
 29 57  1  0  0  0  0
 30 31  1  0  0  0  0
 30 40  2  0  0  0  0
 31 32  2  0  0  0  0
 31 58  1  0  0  0  0
 32 33  1  0  0  0  0
 32 59  1  0  0  0  0
 33 34  2  0  0  0  0
 33 60  1  0  0  0  0
 34 35  1  0  0  0  0
 34 40  1  0  0  0  0
 35 36  1  0  0  0  0
 35 61  1  0  0  0  0
 35 62  1  0  0  0  0
 36 37  1  0  0  0  0
 36 38  2  0  0  0  0
 36 39  2  0  0  0  0
 37 63  1  0  0  0  0
 37 64  1  0  0  0  0
 37 65  1  0  0  0  0
 40 66  1  0  0  0  0
M  END
$$$$
