CHEMBL4101778
 OpenBabel04072215383D

 46 49  0  0  0  0  0  0  0  0999 V2000
   -1.4384    2.1920   -3.2847 C   0  0  0  0  0  0  0  0  0  0  0  0
   -1.6077    1.0039   -2.4066 C   0  0  0  0  0  0  0  0  0  0  0  0
   -2.1079   -0.1095   -2.9685 N   0  0  0  0  0  0  0  0  0  0  0  0
   -2.1941   -0.9729   -1.9458 N   0  0  0  0  0  0  0  0  0  0  0  0
   -1.7657   -0.4690   -0.7609 C   0  0  0  0  0  0  0  0  0  0  0  0
   -1.7804   -1.1438    0.4055 N   0  0  0  0  0  0  0  0  0  0  0  0
   -1.3132   -0.4180    1.4365 C   0  0  0  0  0  0  0  0  0  0  0  0
   -0.8386    0.8807    1.3460 C   0  0  0  0  0  0  0  0  0  0  0  0
   -0.8329    1.5585    0.1070 C   0  0  0  0  0  0  0  0  0  0  0  0
   -0.3886    2.9556    0.0222 C   0  0  0  0  0  0  0  0  0  0  0  0
    0.4508    3.4307   -0.9915 C   0  0  0  0  0  0  0  0  0  0  0  0
    0.7669    4.7939   -1.1016 C   0  0  0  0  0  0  0  0  0  0  0  0
    0.3122    5.7163   -0.1525 C   0  0  0  0  0  0  0  0  0  0  0  0
    0.6002    7.0798   -0.3886 N   0  0  0  0  0  0  0  0  0  0  0  0
    0.2287    8.2510    0.2719 C   0  0  0  0  0  0  0  0  0  0  0  0
   -0.6126    8.4184    1.7132 S   0  0  0  0  0  0  0  0  0  0  0  0
    0.5860    9.3472   -0.5301 N   0  0  0  0  0  0  0  0  0  0  0  0
    0.8112   10.6651   -0.0815 C   0  0  0  0  0  0  0  0  0  0  0  0
    0.4117   11.7319   -0.8867 C   0  0  0  0  0  0  0  0  0  0  0  0
    0.6096   13.0424   -0.4520 C   0  0  0  0  0  0  0  0  0  0  0  0
    1.2222   13.2911    0.7797 C   0  0  0  0  0  0  0  0  0  0  0  0
    1.6495   12.2299    1.5851 C   0  0  0  0  0  0  0  0  0  0  0  0
    2.2820   12.4561    2.9287 C   0  0  0  0  0  0  0  0  0  0  0  0
    2.4571   13.7732    3.2352 F   0  0  0  0  0  0  0  0  0  0  0  0
    1.5490   11.9333    3.9508 F   0  0  0  0  0  0  0  0  0  0  0  0
    3.5186   11.8892    3.0293 F   0  0  0  0  0  0  0  0  0  0  0  0
    1.4589   10.9192    1.1306 C   0  0  0  0  0  0  0  0  0  0  0  0
   -0.4115    5.2261    0.9262 C   0  0  0  0  0  0  0  0  0  0  0  0
   -0.7748    3.8794    1.0004 C   0  0  0  0  0  0  0  0  0  0  0  0
   -1.3376    0.8331   -1.0046 C   0  0  0  0  0  0  0  0  0  0  0  0
   -1.8504    2.0081   -4.2838 H   0  0  0  0  0  0  0  0  0  0  0  0
   -0.3819    2.4256   -3.4322 H   0  0  0  0  0  0  0  0  0  0  0  0
   -1.9528    3.0638   -2.8710 H   0  0  0  0  0  0  0  0  0  0  0  0
   -2.5672   -1.8980   -2.1082 H   0  0  0  0  0  0  0  0  0  0  0  0
   -1.3306   -0.9274    2.3975 H   0  0  0  0  0  0  0  0  0  0  0  0
   -0.4783    1.3665    2.2491 H   0  0  0  0  0  0  0  0  0  0  0  0
    0.8635    2.7416   -1.7237 H   0  0  0  0  0  0  0  0  0  0  0  0
    1.3552    5.1150   -1.9583 H   0  0  0  0  0  0  0  0  0  0  0  0
    1.2120    7.2499   -1.1795 H   0  0  0  0  0  0  0  0  0  0  0  0
    0.2653    9.2578   -1.4882 H   0  0  0  0  0  0  0  0  0  0  0  0
   -0.0943   11.5609   -1.8325 H   0  0  0  0  0  0  0  0  0  0  0  0
    0.2721   13.8751   -1.0672 H   0  0  0  0  0  0  0  0  0  0  0  0
    1.3550   14.3204    1.1075 H   0  0  0  0  0  0  0  0  0  0  0  0
    1.8245   10.0958    1.7427 H   0  0  0  0  0  0  0  0  0  0  0  0
   -0.7329    5.8445    1.7500 H   0  0  0  0  0  0  0  0  0  0  0  0
   -1.3877    3.5733    1.8463 H   0  0  0  0  0  0  0  0  0  0  0  0
  1  2  1  0  0  0  0
  1 31  1  0  0  0  0
  1 32  1  0  0  0  0
  1 33  1  0  0  0  0
  2  3  2  0  0  0  0
  2 30  1  0  0  0  0
  3  4  1  0  0  0  0
  4  5  1  0  0  0  0
  4 34  1  0  0  0  0
  5  6  1  0  0  0  0
  5 30  2  0  0  0  0
  6  7  2  0  0  0  0
  7  8  1  0  0  0  0
  7 35  1  0  0  0  0
  8  9  2  0  0  0  0
  8 36  1  0  0  0  0
  9 10  1  0  0  0  0
  9 30  1  0  0  0  0
 10 11  1  0  0  0  0
 10 29  2  0  0  0  0
 11 12  2  0  0  0  0
 11 37  1  0  0  0  0
 12 13  1  0  0  0  0
 12 38  1  0  0  0  0
 13 14  1  0  0  0  0
 13 28  2  0  0  0  0
 14 15  1  0  0  0  0
 14 39  1  0  0  0  0
 15 16  2  0  0  0  0
 15 17  1  0  0  0  0
 17 18  1  0  0  0  0
 17 40  1  0  0  0  0
 18 19  1  0  0  0  0
 18 27  2  0  0  0  0
 19 20  2  0  0  0  0
 19 41  1  0  0  0  0
 20 21  1  0  0  0  0
 20 42  1  0  0  0  0
 21 22  2  0  0  0  0
 21 43  1  0  0  0  0
 22 23  1  0  0  0  0
 22 27  1  0  0  0  0
 23 24  1  0  0  0  0
 23 25  1  0  0  0  0
 23 26  1  0  0  0  0
 27 44  1  0  0  0  0
 28 29  1  0  0  0  0
 28 45  1  0  0  0  0
 29 46  1  0  0  0  0
M  END
$$$$
