CHEMBL3916459
 OpenBabel04072215373D

 45 48  0  0  0  0  0  0  0  0999 V2000
    0.3444   -2.3383    3.3808 C   0  0  0  0  0  0  0  0  0  0  0  0
    1.7383   -2.5823    3.2004 O   0  0  0  0  0  0  0  0  0  0  0  0
    2.4658   -1.4754    2.8653 C   0  0  0  0  0  0  0  0  0  0  0  0
    1.9823   -0.3601    2.7048 O   0  0  0  0  0  0  0  0  0  0  0  0
    3.8631   -1.8371    2.7471 C   0  0  0  0  0  0  0  0  0  0  0  0
    4.4514   -3.0823    2.8449 C   0  0  0  0  0  0  0  0  0  0  0  0
    5.8628   -3.0417    2.6816 C   0  0  0  0  0  0  0  0  0  0  0  0
    6.6726   -4.1319    2.7373 N   0  0  0  0  0  0  0  0  0  0  0  0
    7.9800   -3.8969    2.5428 C   0  0  0  0  0  0  0  0  0  0  0  0
    8.5367   -2.6534    2.3136 C   0  0  0  0  0  0  0  0  0  0  0  0
    7.7142   -1.5214    2.3347 C   0  0  0  0  0  0  0  0  0  0  0  0
    8.1951   -0.2287    2.1981 O   0  0  0  0  0  0  0  0  0  0  0  0
    9.3791    0.1066    2.8313 C   0  0  0  0  0  0  0  0  0  0  0  0
    9.8214   -0.5287    3.9953 C   0  0  0  0  0  0  0  0  0  0  0  0
   11.0880   -0.2668    4.4875 C   0  0  0  0  0  0  0  0  0  0  0  0
   11.8843    0.6883    3.8640 C   0  0  0  0  0  0  0  0  0  0  0  0
   11.4256    1.4084    2.7539 C   0  0  0  0  0  0  0  0  0  0  0  0
   12.2159    2.4097    2.1295 N   0  0  0  0  0  0  0  0  0  0  0  0
   13.5956    2.5329    2.2770 C   0  0  0  0  0  0  0  0  0  0  0  0
   14.2884    1.7080    2.8696 O   0  0  0  0  0  0  0  0  0  0  0  0
   14.2021    3.6989    1.6690 C   0  0  0  0  0  0  0  0  0  0  0  0
   13.4543    4.5918    0.9580 O   0  0  0  0  0  0  0  0  0  0  0  0
   14.3035    5.5738    0.5500 C   0  0  0  0  0  0  0  0  0  0  0  0
   15.5823    5.3265    0.9849 C   0  0  0  0  0  0  0  0  0  0  0  0
   15.5327    4.0973    1.7001 C   0  0  0  0  0  0  0  0  0  0  0  0
   16.6563    3.3890    2.3668 C   0  0  0  0  0  0  0  0  0  0  0  0
   10.1475    1.1300    2.2520 C   0  0  0  0  0  0  0  0  0  0  0  0
    6.3349   -1.7453    2.4764 C   0  0  0  0  0  0  0  0  0  0  0  0
    5.0330   -0.6216    2.4569 S   0  0  0  0  0  0  0  0  0  0  0  0
   -0.1051   -3.2458    3.7934 H   0  0  0  0  0  0  0  0  0  0  0  0
   -0.1259   -2.1223    2.4171 H   0  0  0  0  0  0  0  0  0  0  0  0
    0.1767   -1.5207    4.0891 H   0  0  0  0  0  0  0  0  0  0  0  0
    3.9016   -3.9966    3.0301 H   0  0  0  0  0  0  0  0  0  0  0  0
    8.6124   -4.7807    2.5912 H   0  0  0  0  0  0  0  0  0  0  0  0
    9.6094   -2.5729    2.1701 H   0  0  0  0  0  0  0  0  0  0  0  0
    9.2091   -1.2633    4.5099 H   0  0  0  0  0  0  0  0  0  0  0  0
   11.4671   -0.8096    5.3482 H   0  0  0  0  0  0  0  0  0  0  0  0
   12.8613    0.8653    4.3017 H   0  0  0  0  0  0  0  0  0  0  0  0
   11.7792    3.0417    1.4739 H   0  0  0  0  0  0  0  0  0  0  0  0
   13.8556    6.3714   -0.0261 H   0  0  0  0  0  0  0  0  0  0  0  0
   16.4502    5.9520    0.8146 H   0  0  0  0  0  0  0  0  0  0  0  0
   17.6046    3.9191    2.2319 H   0  0  0  0  0  0  0  0  0  0  0  0
   16.7723    2.3831    1.9520 H   0  0  0  0  0  0  0  0  0  0  0  0
   16.4682    3.3011    3.4414 H   0  0  0  0  0  0  0  0  0  0  0  0
    9.7604    1.6583    1.3854 H   0  0  0  0  0  0  0  0  0  0  0  0
  1  2  1  0  0  0  0
  1 30  1  0  0  0  0
  1 31  1  0  0  0  0
  1 32  1  0  0  0  0
  2  3  1  0  0  0  0
  3  4  2  0  0  0  0
  3  5  1  0  0  0  0
  5  6  2  0  0  0  0
  5 29  1  0  0  0  0
  6  7  1  0  0  0  0
  6 33  1  0  0  0  0
  7  8  1  0  0  0  0
  7 28  2  0  0  0  0
  8  9  2  0  0  0  0
  9 10  1  0  0  0  0
  9 34  1  0  0  0  0
 10 11  2  0  0  0  0
 10 35  1  0  0  0  0
 11 12  1  0  0  0  0
 11 28  1  0  0  0  0
 12 13  1  0  0  0  0
 13 14  1  0  0  0  0
 13 27  2  0  0  0  0
 14 15  2  0  0  0  0
 14 36  1  0  0  0  0
 15 16  1  0  0  0  0
 15 37  1  0  0  0  0
 16 17  2  0  0  0  0
 16 38  1  0  0  0  0
 17 18  1  0  0  0  0
 17 27  1  0  0  0  0
 18 19  1  0  0  0  0
 18 39  1  0  0  0  0
 19 20  2  0  0  0  0
 19 21  1  0  0  0  0
 21 22  1  0  0  0  0
 21 25  2  0  0  0  0
 22 23  1  0  0  0  0
 23 24  2  0  0  0  0
 23 40  1  0  0  0  0
 24 25  1  0  0  0  0
 24 41  1  0  0  0  0
 25 26  1  0  0  0  0
 26 42  1  0  0  0  0
 26 43  1  0  0  0  0
 26 44  1  0  0  0  0
 27 45  1  0  0  0  0
 28 29  1  0  0  0  0
M  END
$$$$
