CHEMBL391692
 OpenBabel04072215373D

 55 59  0  0  0  0  0  0  0  0999 V2000
    1.2833   -0.1982   -1.9563 N   0  0  0  0  0  0  0  0  0  0  0  0
    2.6214   -0.2359   -1.5855 C   0  0  0  0  0  0  0  0  0  0  0  0
    3.3476    0.8388   -1.9486 N   0  0  0  0  0  0  0  0  0  0  0  0
    4.6483    0.9264   -1.5837 C   0  0  0  0  0  0  0  0  0  0  0  0
    5.3739   -0.0103   -0.8492 C   0  0  0  0  0  0  0  0  0  0  0  0
    6.7845    0.1728   -0.4706 C   0  0  0  0  0  0  0  0  0  0  0  0
    7.6758    0.8506   -1.3279 C   0  0  0  0  0  0  0  0  0  0  0  0
    9.0036    1.0966   -0.9658 C   0  0  0  0  0  0  0  0  0  0  0  0
    9.4802    0.6533    0.2626 C   0  0  0  0  0  0  0  0  0  0  0  0
    8.6272   -0.0369    1.1177 C   0  0  0  0  0  0  0  0  0  0  0  0
    9.2183   -0.5991    2.6336 Cl  0  0  0  0  0  0  0  0  0  0  0  0
    7.2955   -0.2718    0.7616 C   0  0  0  0  0  0  0  0  0  0  0  0
    4.5818   -1.1125   -0.5106 C   0  0  0  0  0  0  0  0  0  0  0  0
    5.0034   -2.1927    0.2099 O   0  0  0  0  0  0  0  0  0  0  0  0
    3.9494   -3.0248    0.3507 C   0  0  0  0  0  0  0  0  0  0  0  0
    2.8255   -2.5230   -0.2796 C   0  0  0  0  0  0  0  0  0  0  0  0
    1.5370   -3.1983   -0.2329 C   0  0  0  0  0  0  0  0  0  0  0  0
    1.1468   -3.8583    0.9324 C   0  0  0  0  0  0  0  0  0  0  0  0
   -0.1135   -4.4474    1.0300 C   0  0  0  0  0  0  0  0  0  0  0  0
   -1.0370   -4.3635   -0.0145 C   0  0  0  0  0  0  0  0  0  0  0  0
   -2.3488   -4.8892    0.0699 N   0  0  0  0  0  0  0  0  0  0  0  0
   -2.9050   -5.4401    1.2062 C   0  0  0  0  0  0  0  0  0  0  0  0
   -2.3585   -5.4914    2.3033 O   0  0  0  0  0  0  0  0  0  0  0  0
   -4.1657   -5.9800    0.9819 N   0  0  0  0  0  0  0  0  0  0  0  0
   -4.7974   -6.6213    2.0808 C   0  0  0  0  0  0  0  0  0  0  0  0
   -4.8789   -5.9911    3.3307 C   0  0  0  0  0  0  0  0  0  0  0  0
   -5.2818   -6.6992    4.4685 C   0  0  0  0  0  0  0  0  0  0  0  0
   -5.2853   -6.0353    5.8247 C   0  0  0  0  0  0  0  0  0  0  0  0
   -4.9485   -4.7155    5.7954 F   0  0  0  0  0  0  0  0  0  0  0  0
   -6.5111   -6.0894    6.4177 F   0  0  0  0  0  0  0  0  0  0  0  0
   -4.4226   -6.6231    6.6998 F   0  0  0  0  0  0  0  0  0  0  0  0
   -5.6321   -8.0527    4.3311 C   0  0  0  0  0  0  0  0  0  0  0  0
   -5.6173   -8.6664    3.0739 C   0  0  0  0  0  0  0  0  0  0  0  0
   -5.2216   -7.9423    1.9538 C   0  0  0  0  0  0  0  0  0  0  0  0
   -5.1502   -8.5539    0.7621 F   0  0  0  0  0  0  0  0  0  0  0  0
   -0.6411   -3.7343   -1.1957 C   0  0  0  0  0  0  0  0  0  0  0  0
    0.6452   -3.1822   -1.3112 C   0  0  0  0  0  0  0  0  0  0  0  0
    3.2342   -1.2682   -0.8502 C   0  0  0  0  0  0  0  0  0  0  0  0
    1.0589    0.7403   -2.2700 H   0  0  0  0  0  0  0  0  0  0  0  0
    0.6635   -0.5687   -1.2462 H   0  0  0  0  0  0  0  0  0  0  0  0
    5.1153    1.8548   -1.9064 H   0  0  0  0  0  0  0  0  0  0  0  0
    7.3462    1.1989   -2.3057 H   0  0  0  0  0  0  0  0  0  0  0  0
    9.6603    1.6361   -1.6440 H   0  0  0  0  0  0  0  0  0  0  0  0
   10.5107    0.8474    0.5464 H   0  0  0  0  0  0  0  0  0  0  0  0
    6.6543   -0.7972    1.4655 H   0  0  0  0  0  0  0  0  0  0  0  0
    4.1444   -3.9133    0.9407 H   0  0  0  0  0  0  0  0  0  0  0  0
    1.7991   -3.9149    1.8010 H   0  0  0  0  0  0  0  0  0  0  0  0
   -0.3305   -4.9516    1.9648 H   0  0  0  0  0  0  0  0  0  0  0  0
   -2.9671   -4.7318   -0.7128 H   0  0  0  0  0  0  0  0  0  0  0  0
   -4.2492   -6.4703    0.0994 H   0  0  0  0  0  0  0  0  0  0  0  0
   -4.5604   -4.9499    3.4290 H   0  0  0  0  0  0  0  0  0  0  0  0
   -5.9004   -8.6358    5.2104 H   0  0  0  0  0  0  0  0  0  0  0  0
   -5.8715   -9.7169    2.9699 H   0  0  0  0  0  0  0  0  0  0  0  0
   -1.3186   -3.6531   -2.0423 H   0  0  0  0  0  0  0  0  0  0  0  0
    0.9316   -2.7267   -2.2577 H   0  0  0  0  0  0  0  0  0  0  0  0
  1  2  1  0  0  0  0
  1 39  1  0  0  0  0
  1 40  1  0  0  0  0
  2  3  1  0  0  0  0
  2 38  2  0  0  0  0
  3  4  2  0  0  0  0
  4  5  1  0  0  0  0
  4 41  1  0  0  0  0
  5  6  1  0  0  0  0
  5 13  2  0  0  0  0
  6  7  1  0  0  0  0
  6 12  2  0  0  0  0
  7  8  2  0  0  0  0
  7 42  1  0  0  0  0
  8  9  1  0  0  0  0
  8 43  1  0  0  0  0
  9 10  2  0  0  0  0
  9 44  1  0  0  0  0
 10 11  1  0  0  0  0
 10 12  1  0  0  0  0
 12 45  1  0  0  0  0
 13 14  1  0  0  0  0
 13 38  1  0  0  0  0
 14 15  1  0  0  0  0
 15 16  2  0  0  0  0
 15 46  1  0  0  0  0
 16 17  1  0  0  0  0
 16 38  1  0  0  0  0
 17 18  1  0  0  0  0
 17 37  2  0  0  0  0
 18 19  2  0  0  0  0
 18 47  1  0  0  0  0
 19 20  1  0  0  0  0
 19 48  1  0  0  0  0
 20 21  1  0  0  0  0
 20 36  2  0  0  0  0
 21 22  1  0  0  0  0
 21 49  1  0  0  0  0
 22 23  2  0  0  0  0
 22 24  1  0  0  0  0
 24 25  1  0  0  0  0
 24 50  1  0  0  0  0
 25 26  1  0  0  0  0
 25 34  2  0  0  0  0
 26 27  2  0  0  0  0
 26 51  1  0  0  0  0
 27 28  1  0  0  0  0
 27 32  1  0  0  0  0
 28 29  1  0  0  0  0
 28 30  1  0  0  0  0
 28 31  1  0  0  0  0
 32 33  2  0  0  0  0
 32 52  1  0  0  0  0
 33 34  1  0  0  0  0
 33 53  1  0  0  0  0
 34 35  1  0  0  0  0
 36 37  1  0  0  0  0
 36 54  1  0  0  0  0
 37 55  1  0  0  0  0
M  END
$$$$
