CHEMBL3912569
 OpenBabel04072215373D

 63 66  0  0  0  0  0  0  0  0999 V2000
    9.5209    3.2357   -2.9415 C   0  0  0  0  0  0  0  0  0  0  0  0
    8.4314    3.8596   -2.0974 C   0  0  0  0  0  0  0  0  0  0  0  0
    8.3774    3.0606   -0.5115 S   0  0  0  0  0  0  0  0  0  0  0  0
    8.0122    1.6741   -0.7072 O   0  0  0  0  0  0  0  0  0  0  0  0
    9.5708    3.4384    0.2139 O   0  0  0  0  0  0  0  0  0  0  0  0
    7.0547    3.8160    0.1993 N   0  0  0  0  0  0  0  0  0  0  0  0
    6.2884    3.0028    1.1717 C   0  0  0  0  0  0  0  0  0  0  0  0
    7.1048    2.4531    2.3678 C   0  0  0  0  0  0  0  0  0  0  0  0
    7.7625    3.4875    3.2613 N   0  0  0  0  0  0  0  0  0  0  0  0
    6.8312    4.0748    4.1961 C   0  0  0  0  0  0  0  0  0  0  0  0
    5.4225    3.9051    4.0534 C   0  0  0  0  0  0  0  0  0  0  0  0
    4.4635    4.5585    4.8234 C   0  0  0  0  0  0  0  0  0  0  0  0
    3.1040    4.4745    4.6237 O   0  0  0  0  0  0  0  0  0  0  0  0
    2.6345    3.7723    3.4891 C   0  0  0  0  0  0  0  0  0  0  0  0
    4.8891    5.3214    5.8896 C   0  0  0  0  0  0  0  0  0  0  0  0
    6.2557    5.3829    6.1906 C   0  0  0  0  0  0  0  0  0  0  0  0
    6.7472    5.9999    7.3132 O   0  0  0  0  0  0  0  0  0  0  0  0
    5.8613    5.9990    8.4282 C   0  0  0  0  0  0  0  0  0  0  0  0
    7.2198    4.8065    5.3227 C   0  0  0  0  0  0  0  0  0  0  0  0
    9.2121    3.4233    3.2935 C   0  0  0  0  0  0  0  0  0  0  0  0
    9.8308    2.1950    3.0349 C   0  0  0  0  0  0  0  0  0  0  0  0
   11.1949    2.0094    3.0471 C   0  0  0  0  0  0  0  0  0  0  0  0
   12.0553    3.0276    3.3249 C   0  0  0  0  0  0  0  0  0  0  0  0
   13.2994    2.5715    3.3689 N   0  0  0  0  0  0  0  0  0  0  0  0
   14.2526    3.4840    3.4279 C   0  0  0  0  0  0  0  0  0  0  0  0
   13.9751    4.8364    3.4263 C   0  0  0  0  0  0  0  0  0  0  0  0
   15.1618    5.6731    3.2163 C   0  0  0  0  0  0  0  0  0  0  0  0
   15.6582    6.2621    2.0217 C   0  0  0  0  0  0  0  0  0  0  0  0
   16.9397    6.6485    2.1156 N   0  0  0  0  0  0  0  0  0  0  0  0
   17.2849    6.2871    3.3623 N   0  0  0  0  0  0  0  0  0  0  0  0
   18.5377    6.7145    3.9413 C   0  0  0  0  0  0  0  0  0  0  0  0
   16.3088    5.5701    3.9956 C   0  0  0  0  0  0  0  0  0  0  0  0
   12.6686    5.3097    3.4718 N   0  0  0  0  0  0  0  0  0  0  0  0
   11.6213    4.3631    3.4372 C   0  0  0  0  0  0  0  0  0  0  0  0
   10.1412    4.5046    3.5044 C   0  0  0  0  0  0  0  0  0  0  0  0
    9.5814    3.7244   -3.9157 H   0  0  0  0  0  0  0  0  0  0  0  0
    9.3244    2.1681   -3.0990 H   0  0  0  0  0  0  0  0  0  0  0  0
   10.4940    3.3203   -2.4450 H   0  0  0  0  0  0  0  0  0  0  0  0
    7.4524    3.7354   -2.5690 H   0  0  0  0  0  0  0  0  0  0  0  0
    8.6258    4.9228   -1.9268 H   0  0  0  0  0  0  0  0  0  0  0  0
    6.4540    4.3119   -0.4577 H   0  0  0  0  0  0  0  0  0  0  0  0
    5.8373    2.1524    0.6395 H   0  0  0  0  0  0  0  0  0  0  0  0
    5.4393    3.6173    1.4744 H   0  0  0  0  0  0  0  0  0  0  0  0
    7.7891    1.7493    1.9025 H   0  0  0  0  0  0  0  0  0  0  0  0
    6.4817    1.7801    2.9820 H   0  0  0  0  0  0  0  0  0  0  0  0
    5.0228    3.2096    3.3354 H   0  0  0  0  0  0  0  0  0  0  0  0
    1.5492    3.9028    3.4271 H   0  0  0  0  0  0  0  0  0  0  0  0
    2.8325    2.7004    3.5951 H   0  0  0  0  0  0  0  0  0  0  0  0
    3.0678    4.1642    2.5607 H   0  0  0  0  0  0  0  0  0  0  0  0
    4.1462    5.8372    6.4860 H   0  0  0  0  0  0  0  0  0  0  0  0
    6.4332    6.2250    9.3275 H   0  0  0  0  0  0  0  0  0  0  0  0
    5.3862    5.0138    8.5808 H   0  0  0  0  0  0  0  0  0  0  0  0
    5.0881    6.7724    8.3188 H   0  0  0  0  0  0  0  0  0  0  0  0
    8.2625    4.8965    5.5920 H   0  0  0  0  0  0  0  0  0  0  0  0
    9.2935    1.2925    2.7809 H   0  0  0  0  0  0  0  0  0  0  0  0
   11.5967    1.0281    2.7985 H   0  0  0  0  0  0  0  0  0  0  0  0
   15.2654    3.0929    3.4453 H   0  0  0  0  0  0  0  0  0  0  0  0
   15.1613    6.3727    1.0660 H   0  0  0  0  0  0  0  0  0  0  0  0
   19.0842    7.3420    3.2326 H   0  0  0  0  0  0  0  0  0  0  0  0
   19.1350    5.8399    4.2125 H   0  0  0  0  0  0  0  0  0  0  0  0
   18.2959    7.2971    4.8346 H   0  0  0  0  0  0  0  0  0  0  0  0
   16.5160    5.0495    4.9212 H   0  0  0  0  0  0  0  0  0  0  0  0
    9.7532    5.5171    3.6509 H   0  0  0  0  0  0  0  0  0  0  0  0
  1  2  1  0  0  0  0
  1 36  1  0  0  0  0
  1 37  1  0  0  0  0
  1 38  1  0  0  0  0
  2  3  1  0  0  0  0
  2 39  1  0  0  0  0
  2 40  1  0  0  0  0
  3  4  2  0  0  0  0
  3  5  2  0  0  0  0
  3  6  1  0  0  0  0
  6  7  1  0  0  0  0
  6 41  1  0  0  0  0
  7  8  1  0  0  0  0
  7 42  1  0  0  0  0
  7 43  1  0  0  0  0
  8  9  1  0  0  0  0
  8 44  1  0  0  0  0
  8 45  1  0  0  0  0
  9 10  1  0  0  0  0
  9 20  1  0  0  0  0
 10 11  1  0  0  0  0
 10 19  2  0  0  0  0
 11 12  2  0  0  0  0
 11 46  1  0  0  0  0
 12 13  1  0  0  0  0
 12 15  1  0  0  0  0
 13 14  1  0  0  0  0
 14 47  1  0  0  0  0
 14 48  1  0  0  0  0
 14 49  1  0  0  0  0
 15 16  2  0  0  0  0
 15 50  1  0  0  0  0
 16 17  1  0  0  0  0
 16 19  1  0  0  0  0
 17 18  1  0  0  0  0
 18 51  1  0  0  0  0
 18 52  1  0  0  0  0
 18 53  1  0  0  0  0
 19 54  1  0  0  0  0
 20 21  1  0  0  0  0
 20 35  2  0  0  0  0
 21 22  2  0  0  0  0
 21 55  1  0  0  0  0
 22 23  1  0  0  0  0
 22 56  1  0  0  0  0
 23 24  1  0  0  0  0
 23 34  2  0  0  0  0
 24 25  2  0  0  0  0
 25 26  1  0  0  0  0
 25 57  1  0  0  0  0
 26 27  1  0  0  0  0
 26 33  2  0  0  0  0
 27 28  1  0  0  0  0
 27 32  2  0  0  0  0
 28 29  2  0  0  0  0
 28 58  1  0  0  0  0
 29 30  1  0  0  0  0
 30 31  1  0  0  0  0
 30 32  1  0  0  0  0
 31 59  1  0  0  0  0
 31 60  1  0  0  0  0
 31 61  1  0  0  0  0
 32 62  1  0  0  0  0
 33 34  1  0  0  0  0
 34 35  1  0  0  0  0
 35 63  1  0  0  0  0
M  END
$$$$
