CHEMBL3918426
 OpenBabel04072215373D

 71 73  0  0  0  0  0  0  0  0999 V2000
    2.1174    1.4761    4.3423 C   0  0  0  0  0  0  0  0  0  0  0  0
    3.3342    2.2652    4.8069 C   0  0  0  0  0  0  0  0  0  0  0  0
    4.1984    2.6428    3.6258 C   0  0  0  0  0  0  0  0  0  0  0  0
    5.0783    1.8334    2.9130 C   0  0  0  0  0  0  0  0  0  0  0  0
    5.3634    0.4040    3.1673 C   0  0  0  0  0  0  0  0  0  0  0  0
    5.8896   -0.4608    2.1895 C   0  0  0  0  0  0  0  0  0  0  0  0
    5.9621   -1.7998    2.4519 N   0  0  0  0  0  0  0  0  0  0  0  0
    5.5587   -2.3092    3.6507 C   0  0  0  0  0  0  0  0  0  0  0  0
    5.5576   -3.6833    3.9039 C   0  0  0  0  0  0  0  0  0  0  0  0
    5.0909   -4.1676    5.1381 C   0  0  0  0  0  0  0  0  0  0  0  0
    4.6482   -3.2837    6.1610 C   0  0  0  0  0  0  0  0  0  0  0  0
    4.1002   -3.7946    7.4092 N   0  0  0  0  0  0  0  0  0  0  0  0
    3.1139   -3.0027    8.1830 C   0  0  0  0  0  0  0  0  0  0  0  0
    1.9780   -2.4448    7.3050 C   0  0  0  0  0  0  0  0  0  0  0  0
    0.9087   -1.7903    8.0807 N   0  0  0  0  0  0  0  0  0  0  0  0
    0.0326   -1.0025    7.1803 C   0  0  0  0  0  0  0  0  0  0  0  0
   -0.6354   -1.8859    6.1103 C   0  0  0  0  0  0  0  0  0  0  0  0
   -1.0448   -0.2612    7.9755 C   0  0  0  0  0  0  0  0  0  0  0  0
    4.6504   -4.9985    8.0012 C   0  0  0  0  0  0  0  0  0  0  0  0
    6.0033   -5.3293    7.7770 C   0  0  0  0  0  0  0  0  0  0  0  0
    6.6058   -6.4362    8.3968 C   0  0  0  0  0  0  0  0  0  0  0  0
    7.9164   -6.7464    8.2106 O   0  0  0  0  0  0  0  0  0  0  0  0
    8.8047   -6.0353    7.4280 C   0  0  0  0  0  0  0  0  0  0  0  0
    5.8491   -7.2331    9.2571 C   0  0  0  0  0  0  0  0  0  0  0  0
    4.4983   -6.9325    9.5072 C   0  0  0  0  0  0  0  0  0  0  0  0
    3.7343   -7.6595   10.3644 O   0  0  0  0  0  0  0  0  0  0  0  0
    4.1643   -8.7274   11.1242 C   0  0  0  0  0  0  0  0  0  0  0  0
    3.9108   -5.8283    8.8781 C   0  0  0  0  0  0  0  0  0  0  0  0
    4.6938   -1.9042    5.8867 C   0  0  0  0  0  0  0  0  0  0  0  0
    5.1060   -1.4330    4.6436 C   0  0  0  0  0  0  0  0  0  0  0  0
    5.0167   -0.1169    4.3672 N   0  0  0  0  0  0  0  0  0  0  0  0
    5.5613    2.6367    1.8909 C   0  0  0  0  0  0  0  0  0  0  0  0
    4.9886    3.8534    1.9727 N   0  0  0  0  0  0  0  0  0  0  0  0
    4.1485    3.8477    3.0002 N   0  0  0  0  0  0  0  0  0  0  0  0
    3.2512    4.9437    3.3318 C   0  0  0  0  0  0  0  0  0  0  0  0
    0.9086    0.0710   -2.7470 Cl  0  0  0  0  0  0  0  0  0  0  0  0
    1.5098    1.2008    5.2203 H   0  0  0  0  0  0  0  0  0  0  0  0
    2.4065    0.5576    3.7921 H   0  0  0  0  0  0  0  0  0  0  0  0
    1.4942    2.1145    3.6798 H   0  0  0  0  0  0  0  0  0  0  0  0
    3.9327    1.7061    5.5604 H   0  0  0  0  0  0  0  0  0  0  0  0
    2.9664    3.1701    5.3259 H   0  0  0  0  0  0  0  0  0  0  0  0
    6.1695   -0.0940    1.2097 H   0  0  0  0  0  0  0  0  0  0  0  0
    5.8804   -4.3783    3.1376 H   0  0  0  0  0  0  0  0  0  0  0  0
    5.0534   -5.2393    5.2791 H   0  0  0  0  0  0  0  0  0  0  0  0
    3.6314   -2.1847    8.7263 H   0  0  0  0  0  0  0  0  0  0  0  0
    2.6229   -3.6065    8.9637 H   0  0  0  0  0  0  0  0  0  0  0  0
    1.5598   -3.2976    6.7409 H   0  0  0  0  0  0  0  0  0  0  0  0
    2.3655   -1.7067    6.5871 H   0  0  0  0  0  0  0  0  0  0  0  0
    1.3472   -1.1230    8.7608 H   0  0  0  0  0  0  0  0  0  0  0  0
    0.6352   -0.2246    6.6687 H   0  0  0  0  0  0  0  0  0  0  0  0
   -1.2214   -2.6971    6.5916 H   0  0  0  0  0  0  0  0  0  0  0  0
    0.1152   -2.3354    5.4278 H   0  0  0  0  0  0  0  0  0  0  0  0
   -1.3019   -1.2756    5.4680 H   0  0  0  0  0  0  0  0  0  0  0  0
   -1.7011   -0.9753    8.5145 H   0  0  0  0  0  0  0  0  0  0  0  0
   -1.6666    0.3441    7.2784 H   0  0  0  0  0  0  0  0  0  0  0  0
   -0.5789    0.4360    8.7032 H   0  0  0  0  0  0  0  0  0  0  0  0
    6.6065   -4.6963    7.1455 H   0  0  0  0  0  0  0  0  0  0  0  0
    9.8058   -6.5068    7.4905 H   0  0  0  0  0  0  0  0  0  0  0  0
    8.8865   -4.9887    7.7946 H   0  0  0  0  0  0  0  0  0  0  0  0
    8.4719   -6.0403    6.3679 H   0  0  0  0  0  0  0  0  0  0  0  0
    6.3279   -8.0756    9.7384 H   0  0  0  0  0  0  0  0  0  0  0  0
    3.3269   -9.0772   11.7623 H   0  0  0  0  0  0  0  0  0  0  0  0
    5.0003   -8.4141   11.7865 H   0  0  0  0  0  0  0  0  0  0  0  0
    4.4878   -9.5617   10.4675 H   0  0  0  0  0  0  0  0  0  0  0  0
    2.8704   -5.6487    9.0976 H   0  0  0  0  0  0  0  0  0  0  0  0
    4.3883   -1.1758    6.6235 H   0  0  0  0  0  0  0  0  0  0  0  0
    6.2751    2.3551    1.1273 H   0  0  0  0  0  0  0  0  0  0  0  0
    3.4024    5.7909    2.6308 H   0  0  0  0  0  0  0  0  0  0  0  0
    3.4114    5.2895    4.3732 H   0  0  0  0  0  0  0  0  0  0  0  0
    2.2010    4.5921    3.2232 H   0  0  0  0  0  0  0  0  0  0  0  0
    1.4857   -0.9642   -2.0487 H   0  0  0  0  0  0  0  0  0  0  0  0
  1  2  1  0  0  0  0
  1 37  1  0  0  0  0
  1 38  1  0  0  0  0
  1 39  1  0  0  0  0
  2  3  1  0  0  0  0
  2 40  1  0  0  0  0
  2 41  1  0  0  0  0
  3  4  2  0  0  0  0
  3 34  1  0  0  0  0
  4  5  1  0  0  0  0
  4 32  1  0  0  0  0
  5  6  1  0  0  0  0
  5 31  2  0  0  0  0
  6  7  2  0  0  0  0
  6 42  1  0  0  0  0
  7  8  1  0  0  0  0
  8  9  1  0  0  0  0
  8 30  2  0  0  0  0
  9 10  2  0  0  0  0
  9 43  1  0  0  0  0
 10 11  1  0  0  0  0
 10 44  1  0  0  0  0
 11 12  1  0  0  0  0
 11 29  2  0  0  0  0
 12 13  1  0  0  0  0
 12 19  1  0  0  0  0
 13 14  1  0  0  0  0
 13 45  1  0  0  0  0
 13 46  1  0  0  0  0
 14 15  1  0  0  0  0
 14 47  1  0  0  0  0
 14 48  1  0  0  0  0
 15 16  1  0  0  0  0
 15 49  1  0  0  0  0
 16 17  1  0  0  0  0
 16 18  1  0  0  0  0
 16 50  1  0  0  0  0
 17 51  1  0  0  0  0
 17 52  1  0  0  0  0
 17 53  1  0  0  0  0
 18 54  1  0  0  0  0
 18 55  1  0  0  0  0
 18 56  1  0  0  0  0
 19 20  1  0  0  0  0
 19 28  2  0  0  0  0
 20 21  2  0  0  0  0
 20 57  1  0  0  0  0
 21 22  1  0  0  0  0
 21 24  1  0  0  0  0
 22 23  1  0  0  0  0
 23 58  1  0  0  0  0
 23 59  1  0  0  0  0
 23 60  1  0  0  0  0
 24 25  2  0  0  0  0
 24 61  1  0  0  0  0
 25 26  1  0  0  0  0
 25 28  1  0  0  0  0
 26 27  1  0  0  0  0
 27 62  1  0  0  0  0
 27 63  1  0  0  0  0
 27 64  1  0  0  0  0
 28 65  1  0  0  0  0
 29 30  1  0  0  0  0
 29 66  1  0  0  0  0
 30 31  1  0  0  0  0
 32 33  2  0  0  0  0
 32 67  1  0  0  0  0
 33 34  1  0  0  0  0
 34 35  1  0  0  0  0
 35 68  1  0  0  0  0
 35 69  1  0  0  0  0
 35 70  1  0  0  0  0
 36 71  1  0  0  0  0
M  END
$$$$
