CHEMBL2430262
 OpenBabel04072215363D

 47 50  0  0  0  0  0  0  0  0999 V2000
    0.9695    0.3547   -0.0347 C   0  0  0  0  0  0  0  0  0  0  0  0
    2.4281    0.0601    0.0106 C   0  0  0  0  0  0  0  0  0  0  0  0
    3.3571    1.0925    0.0227 N   0  0  0  0  0  0  0  0  0  0  0  0
    4.6313    0.5922    0.0135 C   0  0  0  0  0  0  0  0  0  0  0  0
    4.5125   -0.7842   -0.0044 C   0  0  0  0  0  0  0  0  0  0  0  0
    3.1269   -1.1423   -0.0193 C   0  0  0  0  0  0  0  0  0  0  0  0
    2.6427   -2.5278   -0.0955 C   0  0  0  0  0  0  0  0  0  0  0  0
    3.3189   -3.4292   -0.5867 O   0  0  0  0  0  0  0  0  0  0  0  0
    1.4216   -2.7889    0.4804 N   0  0  0  0  0  0  0  0  0  0  0  0
    0.9147   -4.1506    0.5588 C   0  0  0  0  0  0  0  0  0  0  0  0
    1.4427   -4.8970    1.7852 C   0  0  0  0  0  0  0  0  0  0  0  0
    0.9976   -4.2524    2.9782 O   0  0  0  0  0  0  0  0  0  0  0  0
    5.6547   -1.7337   -0.0086 C   0  0  0  0  0  0  0  0  0  0  0  0
    7.0284   -1.0899    0.0329 C   0  0  0  0  0  0  0  0  0  0  0  0
    7.1289    0.4383    0.0139 C   0  0  0  0  0  0  0  0  0  0  0  0
    5.8720    1.3136    0.0135 C   0  0  0  0  0  0  0  0  0  0  0  0
    6.0393    2.6651    0.0047 C   0  0  0  0  0  0  0  0  0  0  0  0
    4.9783    3.7570   -0.0056 C   0  0  0  0  0  0  0  0  0  0  0  0
    3.7667    3.6440   -0.0088 O   0  0  0  0  0  0  0  0  0  0  0  0
    5.6717    4.9585   -0.0119 N   0  0  0  0  0  0  0  0  0  0  0  0
    7.0467    4.7683   -0.0043 C   0  0  0  0  0  0  0  0  0  0  0  0
    8.0123    5.7668   -0.0024 C   0  0  0  0  0  0  0  0  0  0  0  0
    9.3527    5.3769    0.0078 C   0  0  0  0  0  0  0  0  0  0  0  0
    9.6784    4.0221    0.0131 C   0  0  0  0  0  0  0  0  0  0  0  0
   10.9649    3.6515    0.0205 F   0  0  0  0  0  0  0  0  0  0  0  0
    8.6933    3.0357    0.0081 C   0  0  0  0  0  0  0  0  0  0  0  0
    7.3509    3.4040    0.0034 C   0  0  0  0  0  0  0  0  0  0  0  0
    0.7715    1.4292   -0.0986 H   0  0  0  0  0  0  0  0  0  0  0  0
    0.4722   -0.0151    0.8672 H   0  0  0  0  0  0  0  0  0  0  0  0
    0.5101   -0.1247   -0.9057 H   0  0  0  0  0  0  0  0  0  0  0  0
    3.1184    2.0812    0.0139 H   0  0  0  0  0  0  0  0  0  0  0  0
    0.9650   -2.0623    1.0093 H   0  0  0  0  0  0  0  0  0  0  0  0
    1.1970   -4.6952   -0.3492 H   0  0  0  0  0  0  0  0  0  0  0  0
   -0.1757   -4.0757    0.5987 H   0  0  0  0  0  0  0  0  0  0  0  0
    2.5367   -4.9409    1.8037 H   0  0  0  0  0  0  0  0  0  0  0  0
    1.0584   -5.9218    1.7962 H   0  0  0  0  0  0  0  0  0  0  0  0
    1.4440   -3.3881    3.0003 H   0  0  0  0  0  0  0  0  0  0  0  0
    5.5978   -2.3644   -0.9033 H   0  0  0  0  0  0  0  0  0  0  0  0
    5.5575   -2.4033    0.8556 H   0  0  0  0  0  0  0  0  0  0  0  0
    7.6190   -1.4805   -0.8073 H   0  0  0  0  0  0  0  0  0  0  0  0
    7.5606   -1.4577    0.9206 H   0  0  0  0  0  0  0  0  0  0  0  0
    7.7018    0.6839   -0.8890 H   0  0  0  0  0  0  0  0  0  0  0  0
    7.7105    0.6999    0.9064 H   0  0  0  0  0  0  0  0  0  0  0  0
    5.2077    5.8579   -0.0210 H   0  0  0  0  0  0  0  0  0  0  0  0
    7.7508    6.8171   -0.0066 H   0  0  0  0  0  0  0  0  0  0  0  0
   10.1542    6.1092    0.0121 H   0  0  0  0  0  0  0  0  0  0  0  0
    9.0483    2.0167    0.0087 H   0  0  0  0  0  0  0  0  0  0  0  0
  1  2  1  0  0  0  0
  1 28  1  0  0  0  0
  1 29  1  0  0  0  0
  1 30  1  0  0  0  0
  2  3  1  0  0  0  0
  2  6  2  0  0  0  0
  3  4  1  0  0  0  0
  3 31  1  0  0  0  0
  4  5  2  0  0  0  0
  4 16  1  0  0  0  0
  5  6  1  0  0  0  0
  5 13  1  0  0  0  0
  6  7  1  0  0  0  0
  7  8  2  0  0  0  0
  7  9  1  0  0  0  0
  9 10  1  0  0  0  0
  9 32  1  0  0  0  0
 10 11  1  0  0  0  0
 10 33  1  0  0  0  0
 10 34  1  0  0  0  0
 11 12  1  0  0  0  0
 11 35  1  0  0  0  0
 11 36  1  0  0  0  0
 12 37  1  0  0  0  0
 13 14  1  0  0  0  0
 13 38  1  0  0  0  0
 13 39  1  0  0  0  0
 14 15  1  0  0  0  0
 14 40  1  0  0  0  0
 14 41  1  0  0  0  0
 15 16  1  0  0  0  0
 15 42  1  0  0  0  0
 15 43  1  0  0  0  0
 16 17  2  0  0  0  0
 17 18  1  0  0  0  0
 17 27  1  0  0  0  0
 18 19  2  0  0  0  0
 18 20  1  0  0  0  0
 20 21  1  0  0  0  0
 20 44  1  0  0  0  0
 21 22  1  0  0  0  0
 21 27  2  0  0  0  0
 22 23  2  0  0  0  0
 22 45  1  0  0  0  0
 23 24  1  0  0  0  0
 23 46  1  0  0  0  0
 24 25  1  0  0  0  0
 24 26  2  0  0  0  0
 26 27  1  0  0  0  0
 26 47  1  0  0  0  0
M  END
$$$$
