CHEMBL204446
 OpenBabel04072215363D

 52 55  0  0  0  0  0  0  0  0999 V2000
    4.3834    3.3682   -2.7214 N   0  0  0  0  0  0  0  0  0  0  0  0
    4.8870    2.3708   -2.4338 C   0  0  0  0  0  0  0  0  0  0  0  0
    5.4830    1.1234   -2.1050 C   0  0  0  0  0  0  0  0  0  0  0  0
    5.2593   -0.0493   -2.7801 C   0  0  0  0  0  0  0  0  0  0  0  0
    5.9412   -1.1292   -2.2806 N   0  0  0  0  0  0  0  0  0  0  0  0
    6.6270   -0.8203   -1.1994 C   0  0  0  0  0  0  0  0  0  0  0  0
    7.2959   -1.6965   -0.4095 N   0  0  0  0  0  0  0  0  0  0  0  0
    6.9614   -3.0624   -0.3168 C   0  0  0  0  0  0  0  0  0  0  0  0
    6.3763   -3.7376   -1.3668 C   0  0  0  0  0  0  0  0  0  0  0  0
    5.8419   -4.9897   -1.1648 C   0  0  0  0  0  0  0  0  0  0  0  0
    5.1385   -5.6198   -2.1717 N   0  0  0  0  0  0  0  0  0  0  0  0
    5.4243   -5.3938   -3.5920 C   0  0  0  0  0  0  0  0  0  0  0  0
    4.1926   -4.8156   -4.3297 C   0  0  0  0  0  0  0  0  0  0  0  0
    2.9322   -5.5931   -4.1420 N   0  0  0  0  0  0  0  0  0  0  0  0
    3.0661   -6.9181   -4.7903 C   0  0  0  0  0  0  0  0  0  0  0  0
    1.8218   -7.8555   -4.7922 C   0  0  0  0  0  0  0  0  0  0  0  0
    2.1457   -9.1866   -5.3438 N   0  0  0  0  0  0  0  0  0  0  0  0
    2.5262   -9.1929   -6.7696 C   0  0  0  0  0  0  0  0  0  0  0  0
    1.3438   -9.1703   -7.7480 C   0  0  0  0  0  0  0  0  0  0  0  0
    0.4649  -10.2727   -7.5073 O   0  0  0  0  0  0  0  0  0  0  0  0
   -0.0429  -10.2206   -6.1697 C   0  0  0  0  0  0  0  0  0  0  0  0
    1.0871  -10.1949   -5.1230 C   0  0  0  0  0  0  0  0  0  0  0  0
    2.6991   -5.6886   -2.6791 C   0  0  0  0  0  0  0  0  0  0  0  0
    3.8691   -6.2734   -1.8370 C   0  0  0  0  0  0  0  0  0  0  0  0
    5.9828   -5.5862    0.0259 N   0  0  0  0  0  0  0  0  0  0  0  0
    6.6887   -4.9192    0.9552 C   0  0  0  0  0  0  0  0  0  0  0  0
    7.1812   -3.6728    0.8537 N   0  0  0  0  0  0  0  0  0  0  0  0
    6.5691    0.8615   -0.8116 S   0  0  0  0  0  0  0  0  0  0  0  0
    4.6102   -0.1914   -3.6367 H   0  0  0  0  0  0  0  0  0  0  0  0
    7.6523   -1.3743    0.4835 H   0  0  0  0  0  0  0  0  0  0  0  0
    6.2494   -3.2627   -2.3241 H   0  0  0  0  0  0  0  0  0  0  0  0
    5.7186   -6.3504   -4.0367 H   0  0  0  0  0  0  0  0  0  0  0  0
    6.2863   -4.7391   -3.7629 H   0  0  0  0  0  0  0  0  0  0  0  0
    4.4214   -4.7220   -5.3990 H   0  0  0  0  0  0  0  0  0  0  0  0
    4.0196   -3.7882   -3.9792 H   0  0  0  0  0  0  0  0  0  0  0  0
    3.9021   -7.4796   -4.3599 H   0  0  0  0  0  0  0  0  0  0  0  0
    3.3265   -6.7145   -5.8347 H   0  0  0  0  0  0  0  0  0  0  0  0
    0.9846   -7.3851   -5.3198 H   0  0  0  0  0  0  0  0  0  0  0  0
    1.5099   -7.9996   -3.7501 H   0  0  0  0  0  0  0  0  0  0  0  0
    3.0869  -10.1213   -6.9385 H   0  0  0  0  0  0  0  0  0  0  0  0
    3.2227   -8.3881   -7.0168 H   0  0  0  0  0  0  0  0  0  0  0  0
    1.7186   -9.2685   -8.7720 H   0  0  0  0  0  0  0  0  0  0  0  0
    0.7795   -8.2328   -7.6888 H   0  0  0  0  0  0  0  0  0  0  0  0
   -0.6495  -11.1214   -6.0252 H   0  0  0  0  0  0  0  0  0  0  0  0
   -0.7060   -9.3544   -6.0719 H   0  0  0  0  0  0  0  0  0  0  0  0
    1.5847  -11.1734   -5.1549 H   0  0  0  0  0  0  0  0  0  0  0  0
    0.6606  -10.1119   -4.1165 H   0  0  0  0  0  0  0  0  0  0  0  0
    1.7805   -6.2497   -2.4789 H   0  0  0  0  0  0  0  0  0  0  0  0
    2.4876   -4.6715   -2.3173 H   0  0  0  0  0  0  0  0  0  0  0  0
    3.9621   -7.3472   -2.0278 H   0  0  0  0  0  0  0  0  0  0  0  0
    3.6069   -6.1541   -0.7785 H   0  0  0  0  0  0  0  0  0  0  0  0
    6.8681   -5.4402    1.8898 H   0  0  0  0  0  0  0  0  0  0  0  0
  1  2  3  0  0  0  0
  2  3  1  0  0  0  0
  3  4  2  0  0  0  0
  3 28  1  0  0  0  0
  4  5  1  0  0  0  0
  4 29  1  0  0  0  0
  5  6  2  0  0  0  0
  6  7  1  0  0  0  0
  6 28  1  0  0  0  0
  7  8  1  0  0  0  0
  7 30  1  0  0  0  0
  8  9  1  0  0  0  0
  8 27  2  0  0  0  0
  9 10  2  0  0  0  0
  9 31  1  0  0  0  0
 10 11  1  0  0  0  0
 10 25  1  0  0  0  0
 11 12  1  0  0  0  0
 11 24  1  0  0  0  0
 12 13  1  0  0  0  0
 12 32  1  0  0  0  0
 12 33  1  0  0  0  0
 13 14  1  0  0  0  0
 13 34  1  0  0  0  0
 13 35  1  0  0  0  0
 14 15  1  0  0  0  0
 14 23  1  0  0  0  0
 15 16  1  0  0  0  0
 15 36  1  0  0  0  0
 15 37  1  0  0  0  0
 16 17  1  0  0  0  0
 16 38  1  0  0  0  0
 16 39  1  0  0  0  0
 17 18  1  0  0  0  0
 17 22  1  0  0  0  0
 18 19  1  0  0  0  0
 18 40  1  0  0  0  0
 18 41  1  0  0  0  0
 19 20  1  0  0  0  0
 19 42  1  0  0  0  0
 19 43  1  0  0  0  0
 20 21  1  0  0  0  0
 21 22  1  0  0  0  0
 21 44  1  0  0  0  0
 21 45  1  0  0  0  0
 22 46  1  0  0  0  0
 22 47  1  0  0  0  0
 23 24  1  0  0  0  0
 23 48  1  0  0  0  0
 23 49  1  0  0  0  0
 24 50  1  0  0  0  0
 24 51  1  0  0  0  0
 25 26  2  0  0  0  0
 26 27  1  0  0  0  0
 26 52  1  0  0  0  0
M  END
$$$$
