CHEMBL189633
 OpenBabel04072215363D

 38 40  0  0  0  0  0  0  0  0999 V2000
    1.5290    1.0296   -0.6722 C   0  0  0  0  0  0  0  0  0  0  0  0
    2.3798    0.4096    0.4224 C   0  0  0  0  0  0  0  0  0  0  0  0
    3.1983    1.4497    0.9795 O   0  0  0  0  0  0  0  0  0  0  0  0
    4.3851    1.6219    0.3308 C   0  0  0  0  0  0  0  0  0  0  0  0
    4.8932    0.8009   -0.4231 O   0  0  0  0  0  0  0  0  0  0  0  0
    4.9007    2.9456    0.5723 C   0  0  0  0  0  0  0  0  0  0  0  0
    5.9854    3.5244   -0.0586 C   0  0  0  0  0  0  0  0  0  0  0  0
    6.1100    4.8657    0.3828 C   0  0  0  0  0  0  0  0  0  0  0  0
    7.1230    5.8349   -0.1025 C   0  0  0  0  0  0  0  0  0  0  0  0
    5.0882    5.0843    1.2938 C   0  0  0  0  0  0  0  0  0  0  0  0
    4.6993    6.2313    2.0361 C   0  0  0  0  0  0  0  0  0  0  0  0
    3.7986    7.1185    1.5824 C   0  0  0  0  0  0  0  0  0  0  0  0
    2.9761    6.9971    0.3160 C   0  0  0  0  0  0  0  0  0  0  0  0
    2.9064    6.0751   -0.4689 O   0  0  0  0  0  0  0  0  0  0  0  0
    2.2460    8.1737    0.2507 N   0  0  0  0  0  0  0  0  0  0  0  0
    2.4971    8.9963    1.3420 C   0  0  0  0  0  0  0  0  0  0  0  0
    1.9144   10.2252    1.5852 C   0  0  0  0  0  0  0  0  0  0  0  0
    2.3009   10.8977    2.7437 C   0  0  0  0  0  0  0  0  0  0  0  0
    3.2550   10.3348    3.6120 C   0  0  0  0  0  0  0  0  0  0  0  0
    3.8348    9.0843    3.3418 C   0  0  0  0  0  0  0  0  0  0  0  0
    3.4381    8.4106    2.1981 C   0  0  0  0  0  0  0  0  0  0  0  0
    4.3715    3.9122    1.4072 N   0  0  0  0  0  0  0  0  0  0  0  0
    0.8482    0.2980   -1.1131 H   0  0  0  0  0  0  0  0  0  0  0  0
    2.1603    1.4455   -1.4654 H   0  0  0  0  0  0  0  0  0  0  0  0
    0.9461    1.8641   -0.2678 H   0  0  0  0  0  0  0  0  0  0  0  0
    2.9694   -0.4313    0.0370 H   0  0  0  0  0  0  0  0  0  0  0  0
    1.7439    0.0149    1.2208 H   0  0  0  0  0  0  0  0  0  0  0  0
    6.5914    3.0288   -0.8078 H   0  0  0  0  0  0  0  0  0  0  0  0
    7.7295    5.3951   -0.9019 H   0  0  0  0  0  0  0  0  0  0  0  0
    7.7935    6.1248    0.7111 H   0  0  0  0  0  0  0  0  0  0  0  0
    6.6406    6.7312   -0.5040 H   0  0  0  0  0  0  0  0  0  0  0  0
    5.2490    6.4272    2.9534 H   0  0  0  0  0  0  0  0  0  0  0  0
    1.6011    8.3654   -0.4981 H   0  0  0  0  0  0  0  0  0  0  0  0
    1.1840   10.6539    0.9089 H   0  0  0  0  0  0  0  0  0  0  0  0
    1.8597   11.8650    2.9777 H   0  0  0  0  0  0  0  0  0  0  0  0
    3.5435   10.8837    4.5070 H   0  0  0  0  0  0  0  0  0  0  0  0
    4.5747    8.6730    4.0203 H   0  0  0  0  0  0  0  0  0  0  0  0
    3.5401    3.7805    1.9665 H   0  0  0  0  0  0  0  0  0  0  0  0
  1  2  1  0  0  0  0
  1 23  1  0  0  0  0
  1 24  1  0  0  0  0
  1 25  1  0  0  0  0
  2  3  1  0  0  0  0
  2 26  1  0  0  0  0
  2 27  1  0  0  0  0
  3  4  1  0  0  0  0
  4  5  2  0  0  0  0
  4  6  1  0  0  0  0
  6  7  2  0  0  0  0
  6 22  1  0  0  0  0
  7  8  1  0  0  0  0
  7 28  1  0  0  0  0
  8  9  1  0  0  0  0
  8 10  2  0  0  0  0
  9 29  1  0  0  0  0
  9 30  1  0  0  0  0
  9 31  1  0  0  0  0
 10 11  1  0  0  0  0
 10 22  1  0  0  0  0
 11 12  2  0  0  0  0
 11 32  1  0  0  0  0
 12 13  1  0  0  0  0
 12 21  1  0  0  0  0
 13 14  2  0  0  0  0
 13 15  1  0  0  0  0
 15 16  1  0  0  0  0
 15 33  1  0  0  0  0
 16 17  1  0  0  0  0
 16 21  2  0  0  0  0
 17 18  2  0  0  0  0
 17 34  1  0  0  0  0
 18 19  1  0  0  0  0
 18 35  1  0  0  0  0
 19 20  2  0  0  0  0
 19 36  1  0  0  0  0
 20 21  1  0  0  0  0
 20 37  1  0  0  0  0
 22 38  1  0  0  0  0
M  END
$$$$
