CHEMBL2337370
 OpenBabel04072215363D

 48 51  0  0  0  0  0  0  0  0999 V2000
    5.4950    1.9575    0.6384 C   0  0  0  0  0  0  0  0  0  0  0  0
    4.4977    0.8072    0.3821 C   0  0  0  0  0  0  0  0  0  0  0  0
    3.2336    1.0630    1.2132 C   0  0  0  0  0  0  0  0  0  0  0  0
    4.1482    0.7958   -1.1117 C   0  0  0  0  0  0  0  0  0  0  0  0
    5.1673   -0.5137    0.8272 C   0  0  0  0  0  0  0  0  0  0  0  0
    6.2538   -0.4844    1.4020 O   0  0  0  0  0  0  0  0  0  0  0  0
    4.4680   -1.6639    0.5516 N   0  0  0  0  0  0  0  0  0  0  0  0
    4.8830   -2.9387    0.9419 C   0  0  0  0  0  0  0  0  0  0  0  0
    4.2051   -3.9508    0.3794 N   0  0  0  0  0  0  0  0  0  0  0  0
    4.5424   -5.2504    0.6424 C   0  0  0  0  0  0  0  0  0  0  0  0
    3.8524   -6.2555   -0.0371 N   0  0  0  0  0  0  0  0  0  0  0  0
    2.5240   -6.2205   -0.4898 C   0  0  0  0  0  0  0  0  0  0  0  0
    1.5627   -5.4236    0.1460 C   0  0  0  0  0  0  0  0  0  0  0  0
    0.2641   -5.3314   -0.3511 C   0  0  0  0  0  0  0  0  0  0  0  0
   -0.0812   -6.0254   -1.5075 C   0  0  0  0  0  0  0  0  0  0  0  0
   -1.6712   -5.8697   -2.1429 Cl  0  0  0  0  0  0  0  0  0  0  0  0
    0.8508   -6.8320   -2.1535 C   0  0  0  0  0  0  0  0  0  0  0  0
    2.1391   -6.9300   -1.6351 C   0  0  0  0  0  0  0  0  0  0  0  0
    3.0343   -7.7008   -2.2736 F   0  0  0  0  0  0  0  0  0  0  0  0
    5.5736   -5.4961    1.5696 C   0  0  0  0  0  0  0  0  0  0  0  0
    6.1547   -4.3572    2.0970 C   0  0  0  0  0  0  0  0  0  0  0  0
    5.8635   -3.0867    1.8234 N   0  0  0  0  0  0  0  0  0  0  0  0
    7.1143   -4.7146    2.9877 N   0  0  0  0  0  0  0  0  0  0  0  0
    7.1684   -6.0796    3.1033 C   0  0  0  0  0  0  0  0  0  0  0  0
    7.9814   -6.8568    3.9403 C   0  0  0  0  0  0  0  0  0  0  0  0
    7.8477   -8.2435    3.8875 C   0  0  0  0  0  0  0  0  0  0  0  0
    6.9344   -8.8318    3.0234 C   0  0  0  0  0  0  0  0  0  0  0  0
    6.1345   -8.0336    2.1989 C   0  0  0  0  0  0  0  0  0  0  0  0
    5.0082   -8.7798    1.1554 Cl  0  0  0  0  0  0  0  0  0  0  0  0
    6.2226   -6.6200    2.2117 C   0  0  0  0  0  0  0  0  0  0  0  0
    5.0786    2.9279    0.3499 H   0  0  0  0  0  0  0  0  0  0  0  0
    6.4210    1.8060    0.0701 H   0  0  0  0  0  0  0  0  0  0  0  0
    5.7700    2.0151    1.6987 H   0  0  0  0  0  0  0  0  0  0  0  0
    2.8069    2.0477    0.9868 H   0  0  0  0  0  0  0  0  0  0  0  0
    3.4546    1.0351    2.2864 H   0  0  0  0  0  0  0  0  0  0  0  0
    2.4593    0.3135    1.0184 H   0  0  0  0  0  0  0  0  0  0  0  0
    3.7903    1.7802   -1.4374 H   0  0  0  0  0  0  0  0  0  0  0  0
    3.3588    0.0735   -1.3439 H   0  0  0  0  0  0  0  0  0  0  0  0
    5.0218    0.5382   -1.7203 H   0  0  0  0  0  0  0  0  0  0  0  0
    3.6661   -1.6705   -0.0588 H   0  0  0  0  0  0  0  0  0  0  0  0
    4.2650   -7.1819   -0.0080 H   0  0  0  0  0  0  0  0  0  0  0  0
    1.8207   -4.8787    1.0513 H   0  0  0  0  0  0  0  0  0  0  0  0
   -0.4612   -4.7106    0.1668 H   0  0  0  0  0  0  0  0  0  0  0  0
    0.5959   -7.3715   -3.0588 H   0  0  0  0  0  0  0  0  0  0  0  0
    7.6718   -4.0473    3.5005 H   0  0  0  0  0  0  0  0  0  0  0  0
    8.6926   -6.3960    4.6207 H   0  0  0  0  0  0  0  0  0  0  0  0
    8.4631   -8.8674    4.5321 H   0  0  0  0  0  0  0  0  0  0  0  0
    6.8401   -9.9144    2.9965 H   0  0  0  0  0  0  0  0  0  0  0  0
  1  2  1  0  0  0  0
  1 31  1  0  0  0  0
  1 32  1  0  0  0  0
  1 33  1  0  0  0  0
  2  3  1  0  0  0  0
  2  4  1  0  0  0  0
  2  5  1  0  0  0  0
  3 34  1  0  0  0  0
  3 35  1  0  0  0  0
  3 36  1  0  0  0  0
  4 37  1  0  0  0  0
  4 38  1  0  0  0  0
  4 39  1  0  0  0  0
  5  6  2  0  0  0  0
  5  7  1  0  0  0  0
  7  8  1  0  0  0  0
  7 40  1  0  0  0  0
  8  9  1  0  0  0  0
  8 22  2  0  0  0  0
  9 10  2  0  0  0  0
 10 11  1  0  0  0  0
 10 20  1  0  0  0  0
 11 12  1  0  0  0  0
 11 41  1  0  0  0  0
 12 13  1  0  0  0  0
 12 18  2  0  0  0  0
 13 14  2  0  0  0  0
 13 42  1  0  0  0  0
 14 15  1  0  0  0  0
 14 43  1  0  0  0  0
 15 16  1  0  0  0  0
 15 17  2  0  0  0  0
 17 18  1  0  0  0  0
 17 44  1  0  0  0  0
 18 19  1  0  0  0  0
 20 21  2  0  0  0  0
 20 30  1  0  0  0  0
 21 22  1  0  0  0  0
 21 23  1  0  0  0  0
 23 24  1  0  0  0  0
 23 45  1  0  0  0  0
 24 25  1  0  0  0  0
 24 30  2  0  0  0  0
 25 26  2  0  0  0  0
 25 46  1  0  0  0  0
 26 27  1  0  0  0  0
 26 47  1  0  0  0  0
 27 28  2  0  0  0  0
 27 48  1  0  0  0  0
 28 29  1  0  0  0  0
 28 30  1  0  0  0  0
M  END
$$$$
