CHEMBL1683339
 OpenBabel04072215363D

 46 49  0  0  0  0  0  0  0  0999 V2000
    2.0300    0.9869   -0.6896 O   0  0  0  0  0  0  0  0  0  0  0  0
    2.5017    0.0437   -0.0658 C   0  0  0  0  0  0  0  0  0  0  0  0
    1.9847   -1.2292   -0.0517 N   0  0  0  0  0  0  0  0  0  0  0  0
    0.9897   -1.7664   -0.8786 C   0  0  0  0  0  0  0  0  0  0  0  0
    0.4274   -1.0898   -1.9634 C   0  0  0  0  0  0  0  0  0  0  0  0
   -0.4948   -1.7337   -2.7860 C   0  0  0  0  0  0  0  0  0  0  0  0
   -0.8575   -3.0553   -2.5324 C   0  0  0  0  0  0  0  0  0  0  0  0
   -0.3136   -3.7445   -1.4429 C   0  0  0  0  0  0  0  0  0  0  0  0
   -0.6680   -5.1742   -1.1430 C   0  0  0  0  0  0  0  0  0  0  0  0
   -1.5294   -5.7208   -2.0411 F   0  0  0  0  0  0  0  0  0  0  0  0
    0.4286   -5.9840   -1.1341 F   0  0  0  0  0  0  0  0  0  0  0  0
   -1.2504   -5.3197    0.0786 F   0  0  0  0  0  0  0  0  0  0  0  0
    0.6054   -3.0816   -0.6146 C   0  0  0  0  0  0  0  0  0  0  0  0
    3.6759    0.2164    0.7769 C   0  0  0  0  0  0  0  0  0  0  0  0
    3.9384    1.4443    1.3751 C   0  0  0  0  0  0  0  0  0  0  0  0
    5.1323    1.3521    2.0156 N   0  0  0  0  0  0  0  0  0  0  0  0
    5.8231    0.2997    1.4650 C   0  0  0  0  0  0  0  0  0  0  0  0
    7.2003    0.1026    1.3534 C   0  0  0  0  0  0  0  0  0  0  0  0
    7.6184   -1.0822    0.7640 C   0  0  0  0  0  0  0  0  0  0  0  0
    6.7057   -2.0989    0.5023 C   0  0  0  0  0  0  0  0  0  0  0  0
    5.3205   -1.9235    0.6960 C   0  0  0  0  0  0  0  0  0  0  0  0
    4.1933   -3.3132    0.6639 S   0  0  0  0  0  0  0  0  0  0  0  0
    5.2684   -4.6966    1.2259 C   0  0  0  0  0  0  0  0  0  0  0  0
    4.5653   -6.0246    1.3936 C   0  0  0  0  0  0  0  0  0  0  0  0
    3.9857   -6.6794    0.3010 C   0  0  0  0  0  0  0  0  0  0  0  0
    3.4591   -7.9514    0.4803 C   0  0  0  0  0  0  0  0  0  0  0  0
    3.4750   -8.6138    1.6558 N   0  0  0  0  0  0  0  0  0  0  0  0
    4.0361   -7.9724    2.7009 C   0  0  0  0  0  0  0  0  0  0  0  0
    4.5858   -6.6995    2.6223 C   0  0  0  0  0  0  0  0  0  0  0  0
    4.8665   -0.6089    0.9873 C   0  0  0  0  0  0  0  0  0  0  0  0
    2.4330   -1.8754    0.6044 H   0  0  0  0  0  0  0  0  0  0  0  0
    0.7062   -0.0714   -2.2070 H   0  0  0  0  0  0  0  0  0  0  0  0
   -0.9151   -1.2015   -3.6353 H   0  0  0  0  0  0  0  0  0  0  0  0
   -1.5663   -3.5480   -3.1969 H   0  0  0  0  0  0  0  0  0  0  0  0
    1.0254   -3.6144    0.2374 H   0  0  0  0  0  0  0  0  0  0  0  0
    3.3703    2.3636    1.3706 H   0  0  0  0  0  0  0  0  0  0  0  0
    5.5275    2.0510    2.6302 H   0  0  0  0  0  0  0  0  0  0  0  0
    7.9098    0.8794    1.6212 H   0  0  0  0  0  0  0  0  0  0  0  0
    8.6731   -1.2366    0.5474 H   0  0  0  0  0  0  0  0  0  0  0  0
    7.0991   -3.0358    0.1250 H   0  0  0  0  0  0  0  0  0  0  0  0
    5.7483   -4.4094    2.1687 H   0  0  0  0  0  0  0  0  0  0  0  0
    6.0598   -4.8570    0.4867 H   0  0  0  0  0  0  0  0  0  0  0  0
    3.9608   -6.2242   -0.6835 H   0  0  0  0  0  0  0  0  0  0  0  0
    3.0090   -8.4918   -0.3480 H   0  0  0  0  0  0  0  0  0  0  0  0
    4.0452   -8.5329    3.6325 H   0  0  0  0  0  0  0  0  0  0  0  0
    5.0416   -6.2634    3.5052 H   0  0  0  0  0  0  0  0  0  0  0  0
  1  2  2  0  0  0  0
  2  3  1  0  0  0  0
  2 14  1  0  0  0  0
  3  4  1  0  0  0  0
  3 31  1  0  0  0  0
  4  5  1  0  0  0  0
  4 13  2  0  0  0  0
  5  6  2  0  0  0  0
  5 32  1  0  0  0  0
  6  7  1  0  0  0  0
  6 33  1  0  0  0  0
  7  8  2  0  0  0  0
  7 34  1  0  0  0  0
  8  9  1  0  0  0  0
  8 13  1  0  0  0  0
  9 10  1  0  0  0  0
  9 11  1  0  0  0  0
  9 12  1  0  0  0  0
 13 35  1  0  0  0  0
 14 15  2  0  0  0  0
 14 30  1  0  0  0  0
 15 16  1  0  0  0  0
 15 36  1  0  0  0  0
 16 17  1  0  0  0  0
 16 37  1  0  0  0  0
 17 18  1  0  0  0  0
 17 30  2  0  0  0  0
 18 19  2  0  0  0  0
 18 38  1  0  0  0  0
 19 20  1  0  0  0  0
 19 39  1  0  0  0  0
 20 21  2  0  0  0  0
 20 40  1  0  0  0  0
 21 22  1  0  0  0  0
 21 30  1  0  0  0  0
 22 23  1  0  0  0  0
 23 24  1  0  0  0  0
 23 41  1  0  0  0  0
 23 42  1  0  0  0  0
 24 25  1  0  0  0  0
 24 29  2  0  0  0  0
 25 26  2  0  0  0  0
 25 43  1  0  0  0  0
 26 27  1  0  0  0  0
 26 44  1  0  0  0  0
 27 28  2  0  0  0  0
 28 29  1  0  0  0  0
 28 45  1  0  0  0  0
 29 46  1  0  0  0  0
M  END
$$$$
