CHEMBL4205266
 OpenBabel04072215383D

 72 76  0  0  0  0  0  0  0  0999 V2000
   15.2034  -14.7019    5.2874 C   0  0  0  0  0  0  0  0  0  0  0  0
   15.1217  -13.4493    4.4545 C   0  0  0  0  0  0  0  0  0  0  0  0
   15.8649  -13.3054    3.4909 O   0  0  0  0  0  0  0  0  0  0  0  0
   14.1632  -12.5654    4.9219 N   0  0  0  0  0  0  0  0  0  0  0  0
   13.8292  -11.4055    4.2634 C   0  0  0  0  0  0  0  0  0  0  0  0
   13.0700  -10.3758    4.7753 C   0  0  0  0  0  0  0  0  0  0  0  0
   13.0087   -9.4352    3.7701 N   0  0  0  0  0  0  0  0  0  0  0  0
   12.3956   -8.1801    3.7462 C   0  0  0  0  0  0  0  0  0  0  0  0
   12.4297   -7.4511    2.6069 C   0  0  0  0  0  0  0  0  0  0  0  0
   11.7584   -6.1357    2.5448 C   0  0  0  0  0  0  0  0  0  0  0  0
   12.4825   -4.9876    2.9156 C   0  0  0  0  0  0  0  0  0  0  0  0
   11.9350   -3.7081    2.7801 C   0  0  0  0  0  0  0  0  0  0  0  0
   12.5892   -2.5247    3.2070 N   0  0  0  0  0  0  0  0  0  0  0  0
   13.6671   -2.4604    4.0790 C   0  0  0  0  0  0  0  0  0  0  0  0
   14.2337   -3.4239    4.5892 O   0  0  0  0  0  0  0  0  0  0  0  0
   14.1640   -1.0993    4.4533 C   0  0  0  0  0  0  0  0  0  0  0  0
   13.3494    0.0315    4.4543 C   0  0  0  0  0  0  0  0  0  0  0  0
   13.8760    1.2705    4.8370 C   0  0  0  0  0  0  0  0  0  0  0  0
   15.2136    1.4092    5.2631 C   0  0  0  0  0  0  0  0  0  0  0  0
   15.6914    2.7989    5.6490 C   0  0  0  0  0  0  0  0  0  0  0  0
   16.7664    3.3103    4.7960 N   0  0  0  0  0  0  0  0  0  0  0  0
   16.4109    3.4137    3.3708 C   0  0  0  0  0  0  0  0  0  0  0  0
   17.6000    3.9485    2.5361 C   0  0  0  0  0  0  0  0  0  0  0  0
   18.1349    5.2502    2.9816 N   0  0  0  0  0  0  0  0  0  0  0  0
   17.2394    6.3481    2.6301 C   0  0  0  0  0  0  0  0  0  0  0  0
   18.3926    5.1933    4.4351 C   0  0  0  0  0  0  0  0  0  0  0  0
   17.2304    4.6258    5.2840 C   0  0  0  0  0  0  0  0  0  0  0  0
   16.0350    0.2633    5.3191 C   0  0  0  0  0  0  0  0  0  0  0  0
   17.4627    0.2438    5.8409 C   0  0  0  0  0  0  0  0  0  0  0  0
   17.9520    1.4149    6.3236 F   0  0  0  0  0  0  0  0  0  0  0  0
   17.5913   -0.6349    6.8803 F   0  0  0  0  0  0  0  0  0  0  0  0
   18.3519   -0.1796    4.8987 F   0  0  0  0  0  0  0  0  0  0  0  0
   15.4931   -0.9743    4.8931 C   0  0  0  0  0  0  0  0  0  0  0  0
   10.6684   -3.5827    2.1991 C   0  0  0  0  0  0  0  0  0  0  0  0
    9.9247   -4.7195    1.8596 C   0  0  0  0  0  0  0  0  0  0  0  0
   10.4458   -6.0064    2.0548 C   0  0  0  0  0  0  0  0  0  0  0  0
    9.6018   -7.2081    1.7260 C   0  0  0  0  0  0  0  0  0  0  0  0
   13.1277   -8.0182    1.4451 C   0  0  0  0  0  0  0  0  0  0  0  0
   13.7254   -9.2222    1.4874 C   0  0  0  0  0  0  0  0  0  0  0  0
   13.6885   -9.9799    2.6871 C   0  0  0  0  0  0  0  0  0  0  0  0
   14.1910  -11.1545    2.9761 N   0  0  0  0  0  0  0  0  0  0  0  0
   16.1248  -15.2378    5.0350 H   0  0  0  0  0  0  0  0  0  0  0  0
   14.3487  -15.3451    5.0649 H   0  0  0  0  0  0  0  0  0  0  0  0
   15.2288  -14.4603    6.3523 H   0  0  0  0  0  0  0  0  0  0  0  0
   13.7261  -12.7300    5.8152 H   0  0  0  0  0  0  0  0  0  0  0  0
   12.6036  -10.2123    5.7342 H   0  0  0  0  0  0  0  0  0  0  0  0
   11.9094   -7.8494    4.6535 H   0  0  0  0  0  0  0  0  0  0  0  0
   13.4969   -5.1173    3.2828 H   0  0  0  0  0  0  0  0  0  0  0  0
   12.1673   -1.6590    2.9024 H   0  0  0  0  0  0  0  0  0  0  0  0
   12.2961   -0.0214    4.2009 H   0  0  0  0  0  0  0  0  0  0  0  0
   13.2209    2.1412    4.8163 H   0  0  0  0  0  0  0  0  0  0  0  0
   16.0268    2.7456    6.6932 H   0  0  0  0  0  0  0  0  0  0  0  0
   14.8450    3.4989    5.6484 H   0  0  0  0  0  0  0  0  0  0  0  0
   15.5335    4.0583    3.2339 H   0  0  0  0  0  0  0  0  0  0  0  0
   16.1537    2.4275    2.9686 H   0  0  0  0  0  0  0  0  0  0  0  0
   17.3154    3.9984    1.4780 H   0  0  0  0  0  0  0  0  0  0  0  0
   18.4161    3.2142    2.5851 H   0  0  0  0  0  0  0  0  0  0  0  0
   17.0866    6.3806    1.5455 H   0  0  0  0  0  0  0  0  0  0  0  0
   17.6871    7.3083    2.9090 H   0  0  0  0  0  0  0  0  0  0  0  0
   16.2577    6.2790    3.1089 H   0  0  0  0  0  0  0  0  0  0  0  0
   18.6717    6.1867    4.8090 H   0  0  0  0  0  0  0  0  0  0  0  0
   19.2758    4.5606    4.5957 H   0  0  0  0  0  0  0  0  0  0  0  0
   16.3992    5.3462    5.2895 H   0  0  0  0  0  0  0  0  0  0  0  0
   17.5800    4.5340    6.3196 H   0  0  0  0  0  0  0  0  0  0  0  0
   16.1239   -1.8662    4.9270 H   0  0  0  0  0  0  0  0  0  0  0  0
   10.2198   -2.6064    2.0375 H   0  0  0  0  0  0  0  0  0  0  0  0
    8.9247   -4.5935    1.4494 H   0  0  0  0  0  0  0  0  0  0  0  0
    8.5674   -6.9210    1.5070 H   0  0  0  0  0  0  0  0  0  0  0  0
    9.5641   -7.8927    2.5775 H   0  0  0  0  0  0  0  0  0  0  0  0
    9.9991   -7.7335    0.8517 H   0  0  0  0  0  0  0  0  0  0  0  0
   13.1429   -7.4327    0.5296 H   0  0  0  0  0  0  0  0  0  0  0  0
   14.2327   -9.6406    0.6310 H   0  0  0  0  0  0  0  0  0  0  0  0
  1  2  1  0  0  0  0
  1 42  1  0  0  0  0
  1 43  1  0  0  0  0
  1 44  1  0  0  0  0
  2  3  2  0  0  0  0
  2  4  1  0  0  0  0
  4  5  1  0  0  0  0
  4 45  1  0  0  0  0
  5  6  2  0  0  0  0
  5 41  1  0  0  0  0
  6  7  1  0  0  0  0
  6 46  1  0  0  0  0
  7  8  1  0  0  0  0
  7 40  1  0  0  0  0
  8  9  2  0  0  0  0
  8 47  1  0  0  0  0
  9 10  1  0  0  0  0
  9 38  1  0  0  0  0
 10 11  1  0  0  0  0
 10 36  2  0  0  0  0
 11 12  2  0  0  0  0
 11 48  1  0  0  0  0
 12 13  1  0  0  0  0
 12 34  1  0  0  0  0
 13 14  1  0  0  0  0
 13 49  1  0  0  0  0
 14 15  2  0  0  0  0
 14 16  1  0  0  0  0
 16 17  1  0  0  0  0
 16 33  2  0  0  0  0
 17 18  2  0  0  0  0
 17 50  1  0  0  0  0
 18 19  1  0  0  0  0
 18 51  1  0  0  0  0
 19 20  1  0  0  0  0
 19 28  2  0  0  0  0
 20 21  1  0  0  0  0
 20 52  1  0  0  0  0
 20 53  1  0  0  0  0
 21 22  1  0  0  0  0
 21 27  1  0  0  0  0
 22 23  1  0  0  0  0
 22 54  1  0  0  0  0
 22 55  1  0  0  0  0
 23 24  1  0  0  0  0
 23 56  1  0  0  0  0
 23 57  1  0  0  0  0
 24 25  1  0  0  0  0
 24 26  1  0  0  0  0
 25 58  1  0  0  0  0
 25 59  1  0  0  0  0
 25 60  1  0  0  0  0
 26 27  1  0  0  0  0
 26 61  1  0  0  0  0
 26 62  1  0  0  0  0
 27 63  1  0  0  0  0
 27 64  1  0  0  0  0
 28 29  1  0  0  0  0
 28 33  1  0  0  0  0
 29 30  1  0  0  0  0
 29 31  1  0  0  0  0
 29 32  1  0  0  0  0
 33 65  1  0  0  0  0
 34 35  2  0  0  0  0
 34 66  1  0  0  0  0
 35 36  1  0  0  0  0
 35 67  1  0  0  0  0
 36 37  1  0  0  0  0
 37 68  1  0  0  0  0
 37 69  1  0  0  0  0
 37 70  1  0  0  0  0
 38 39  2  0  0  0  0
 38 71  1  0  0  0  0
 39 40  1  0  0  0  0
 39 72  1  0  0  0  0
 40 41  2  0  0  0  0
M  END
$$$$
