CHEMBL510676
 OpenBabel04072215383D

 59 64  0  0  0  0  0  0  0  0999 V2000
    1.9190   -0.0560   -0.8461 C   0  0  0  0  0  0  0  0  0  0  0  0
    0.9771   -0.4750   -1.8555 N   0  0  0  0  0  0  0  0  0  0  0  0
    0.6899   -1.7831   -2.1436 C   0  0  0  0  0  0  0  0  0  0  0  0
   -0.3228   -1.7329   -3.0679 C   0  0  0  0  0  0  0  0  0  0  0  0
   -0.6500   -0.4320   -3.3565 N   0  0  0  0  0  0  0  0  0  0  0  0
    0.1726    0.3183   -2.6500 C   0  0  0  0  0  0  0  0  0  0  0  0
    0.1749    1.7547   -2.7294 C   0  0  0  0  0  0  0  0  0  0  0  0
   -0.8997    2.5715   -3.0287 C   0  0  0  0  0  0  0  0  0  0  0  0
   -0.5685    3.9586   -2.9876 C   0  0  0  0  0  0  0  0  0  0  0  0
   -1.4347    4.9886   -3.1999 N   0  0  0  0  0  0  0  0  0  0  0  0
   -0.9194    6.2249   -3.0500 C   0  0  0  0  0  0  0  0  0  0  0  0
    0.3862    6.5110   -2.6982 C   0  0  0  0  0  0  0  0  0  0  0  0
    1.2849    5.4554   -2.5474 C   0  0  0  0  0  0  0  0  0  0  0  0
    2.6141    5.6253   -2.2178 O   0  0  0  0  0  0  0  0  0  0  0  0
    3.3420    6.5805   -2.8872 C   0  0  0  0  0  0  0  0  0  0  0  0
    3.0197    7.0339   -4.1633 C   0  0  0  0  0  0  0  0  0  0  0  0
    3.7104    8.1067   -4.7125 C   0  0  0  0  0  0  0  0  0  0  0  0
    4.7812    8.6909   -4.0338 C   0  0  0  0  0  0  0  0  0  0  0  0
    5.4456    9.8178   -4.5455 N   0  0  0  0  0  0  0  0  0  0  0  0
    4.9036   10.7271   -5.4333 C   0  0  0  0  0  0  0  0  0  0  0  0
    3.7467   10.7081   -5.8507 O   0  0  0  0  0  0  0  0  0  0  0  0
    5.7708   11.7232   -5.8339 N   0  0  0  0  0  0  0  0  0  0  0  0
    5.3009   12.7946   -6.6785 C   0  0  0  0  0  0  0  0  0  0  0  0
    6.5115   13.6902   -6.8150 C   0  0  0  0  0  0  0  0  0  0  0  0
    7.6135   12.7719   -6.6551 N   0  0  0  0  0  0  0  0  0  0  0  0
    8.9416   13.0613   -7.0320 C   0  0  0  0  0  0  0  0  0  0  0  0
    9.8971   12.0436   -7.1362 C   0  0  0  0  0  0  0  0  0  0  0  0
   11.2112   12.3283   -7.5143 C   0  0  0  0  0  0  0  0  0  0  0  0
   11.5904   13.6391   -7.7857 C   0  0  0  0  0  0  0  0  0  0  0  0
   10.6492   14.6612   -7.7001 C   0  0  0  0  0  0  0  0  0  0  0  0
    9.3297   14.3725   -7.3388 C   0  0  0  0  0  0  0  0  0  0  0  0
    7.1769   11.6324   -5.9369 C   0  0  0  0  0  0  0  0  0  0  0  0
    7.8565   10.7618   -5.4154 O   0  0  0  0  0  0  0  0  0  0  0  0
    5.2057    8.1386   -2.8233 C   0  0  0  0  0  0  0  0  0  0  0  0
    4.4703    7.1000   -2.2499 C   0  0  0  0  0  0  0  0  0  0  0  0
    4.8487    6.6229   -1.0538 F   0  0  0  0  0  0  0  0  0  0  0  0
    0.7748    4.1596   -2.6846 C   0  0  0  0  0  0  0  0  0  0  0  0
    1.6049    2.6731   -2.5507 S   0  0  0  0  0  0  0  0  0  0  0  0
    2.2259   -0.9195   -0.2516 H   0  0  0  0  0  0  0  0  0  0  0  0
    1.4381    0.6755   -0.1909 H   0  0  0  0  0  0  0  0  0  0  0  0
    2.7994    0.3634   -1.3390 H   0  0  0  0  0  0  0  0  0  0  0  0
    1.2048   -2.6093   -1.6741 H   0  0  0  0  0  0  0  0  0  0  0  0
   -0.8326   -2.5629   -3.5396 H   0  0  0  0  0  0  0  0  0  0  0  0
   -1.8949    2.1944   -3.2338 H   0  0  0  0  0  0  0  0  0  0  0  0
   -1.6233    7.0345   -3.2314 H   0  0  0  0  0  0  0  0  0  0  0  0
    0.7006    7.5429   -2.5803 H   0  0  0  0  0  0  0  0  0  0  0  0
    2.2103    6.5949   -4.7407 H   0  0  0  0  0  0  0  0  0  0  0  0
    3.3942    8.4636   -5.6884 H   0  0  0  0  0  0  0  0  0  0  0  0
    6.3445   10.0691   -4.1448 H   0  0  0  0  0  0  0  0  0  0  0  0
    4.4282   13.2945   -6.2485 H   0  0  0  0  0  0  0  0  0  0  0  0
    5.0179   12.3608   -7.6463 H   0  0  0  0  0  0  0  0  0  0  0  0
    6.5498   14.4153   -5.9936 H   0  0  0  0  0  0  0  0  0  0  0  0
    6.5267   14.2074   -7.7785 H   0  0  0  0  0  0  0  0  0  0  0  0
    9.6354   11.0041   -6.9557 H   0  0  0  0  0  0  0  0  0  0  0  0
   11.9344   11.5207   -7.5952 H   0  0  0  0  0  0  0  0  0  0  0  0
   12.6164   13.8619   -8.0643 H   0  0  0  0  0  0  0  0  0  0  0  0
   10.9427   15.6869   -7.9080 H   0  0  0  0  0  0  0  0  0  0  0  0
    8.6304   15.2001   -7.2716 H   0  0  0  0  0  0  0  0  0  0  0  0
    6.0603    8.5346   -2.2831 H   0  0  0  0  0  0  0  0  0  0  0  0
  1  2  1  0  0  0  0
  1 39  1  0  0  0  0
  1 40  1  0  0  0  0
  1 41  1  0  0  0  0
  2  3  1  0  0  0  0
  2  6  1  0  0  0  0
  3  4  2  0  0  0  0
  3 42  1  0  0  0  0
  4  5  1  0  0  0  0
  4 43  1  0  0  0  0
  5  6  2  0  0  0  0
  6  7  1  0  0  0  0
  7  8  2  0  0  0  0
  7 38  1  0  0  0  0
  8  9  1  0  0  0  0
  8 44  1  0  0  0  0
  9 10  1  0  0  0  0
  9 37  2  0  0  0  0
 10 11  2  0  0  0  0
 11 12  1  0  0  0  0
 11 45  1  0  0  0  0
 12 13  2  0  0  0  0
 12 46  1  0  0  0  0
 13 14  1  0  0  0  0
 13 37  1  0  0  0  0
 14 15  1  0  0  0  0
 15 16  1  0  0  0  0
 15 35  2  0  0  0  0
 16 17  2  0  0  0  0
 16 47  1  0  0  0  0
 17 18  1  0  0  0  0
 17 48  1  0  0  0  0
 18 19  1  0  0  0  0
 18 34  2  0  0  0  0
 19 20  1  0  0  0  0
 19 49  1  0  0  0  0
 20 21  2  0  0  0  0
 20 22  1  0  0  0  0
 22 23  1  0  0  0  0
 22 32  1  0  0  0  0
 23 24  1  0  0  0  0
 23 50  1  0  0  0  0
 23 51  1  0  0  0  0
 24 25  1  0  0  0  0
 24 52  1  0  0  0  0
 24 53  1  0  0  0  0
 25 26  1  0  0  0  0
 25 32  1  0  0  0  0
 26 27  1  0  0  0  0
 26 31  2  0  0  0  0
 27 28  2  0  0  0  0
 27 54  1  0  0  0  0
 28 29  1  0  0  0  0
 28 55  1  0  0  0  0
 29 30  2  0  0  0  0
 29 56  1  0  0  0  0
 30 31  1  0  0  0  0
 30 57  1  0  0  0  0
 31 58  1  0  0  0  0
 32 33  2  0  0  0  0
 34 35  1  0  0  0  0
 34 59  1  0  0  0  0
 35 36  1  0  0  0  0
 37 38  1  0  0  0  0
M  END
$$$$
