CHEMBL1970317
 OpenBabel04072215363D

 52 56  0  0  0  0  0  0  0  0999 V2000
   -2.1375    0.9449    0.9748 C   0  0  0  0  0  0  0  0  0  0  0  0
   -0.7061    0.8290    1.1062 N   0  0  0  0  0  0  0  0  0  0  0  0
   -0.0188    0.1503    2.0706 C   0  0  0  0  0  0  0  0  0  0  0  0
    1.3213    0.2829    1.7615 C   0  0  0  0  0  0  0  0  0  0  0  0
    2.4048   -0.2935    2.5352 C   0  0  0  0  0  0  0  0  0  0  0  0
    2.3260   -0.4047    3.9113 C   0  0  0  0  0  0  0  0  0  0  0  0
    3.2926   -0.9005    4.6969 N   0  0  0  0  0  0  0  0  0  0  0  0
    4.4469   -1.3309    4.1537 C   0  0  0  0  0  0  0  0  0  0  0  0
    5.3611   -1.7637    5.1024 N   0  0  0  0  0  0  0  0  0  0  0  0
    4.6464   -1.3026    2.7381 C   0  0  0  0  0  0  0  0  0  0  0  0
    5.7717   -1.7334    1.8859 C   0  0  0  0  0  0  0  0  0  0  0  0
    7.0404   -2.3679    2.2647 C   0  0  0  0  0  0  0  0  0  0  0  0
    7.0622   -3.3203    3.2783 C   0  0  0  0  0  0  0  0  0  0  0  0
    8.2648   -3.8466    3.7389 C   0  0  0  0  0  0  0  0  0  0  0  0
    9.4703   -3.5469    3.1056 C   0  0  0  0  0  0  0  0  0  0  0  0
   10.6928   -4.1184    3.5201 N   0  0  0  0  0  0  0  0  0  0  0  0
   10.7847   -5.2744    4.2799 C   0  0  0  0  0  0  0  0  0  0  0  0
    9.8396   -6.0064    4.5471 O   0  0  0  0  0  0  0  0  0  0  0  0
   12.0724   -5.4965    4.7315 N   0  0  0  0  0  0  0  0  0  0  0  0
   12.3917   -6.6655    5.4588 C   0  0  0  0  0  0  0  0  0  0  0  0
   11.8423   -7.9112    5.1220 C   0  0  0  0  0  0  0  0  0  0  0  0
   12.1333   -9.0478    5.8797 C   0  0  0  0  0  0  0  0  0  0  0  0
   12.9782   -8.9417    6.9774 C   0  0  0  0  0  0  0  0  0  0  0  0
   13.5392   -7.7088    7.2921 C   0  0  0  0  0  0  0  0  0  0  0  0
   14.3254   -7.6034    8.3708 F   0  0  0  0  0  0  0  0  0  0  0  0
   13.2696   -6.5735    6.5346 C   0  0  0  0  0  0  0  0  0  0  0  0
    9.4594   -2.6490    2.0372 C   0  0  0  0  0  0  0  0  0  0  0  0
    8.2542   -2.0541    1.6288 C   0  0  0  0  0  0  0  0  0  0  0  0
    5.5134   -1.5158    0.5493 C   0  0  0  0  0  0  0  0  0  0  0  0
    3.9931   -0.8419    0.2686 S   0  0  0  0  0  0  0  0  0  0  0  0
    3.5983   -0.7746    1.9517 C   0  0  0  0  0  0  0  0  0  0  0  0
    1.3189    1.1022    0.6079 C   0  0  0  0  0  0  0  0  0  0  0  0
    0.0885    1.4313    0.2073 N   0  0  0  0  0  0  0  0  0  0  0  0
   -2.6186    0.5212    1.8594 H   0  0  0  0  0  0  0  0  0  0  0  0
   -2.4422    0.3944    0.0813 H   0  0  0  0  0  0  0  0  0  0  0  0
   -2.3943    2.0032    0.8824 H   0  0  0  0  0  0  0  0  0  0  0  0
   -0.5334   -0.3701    2.8669 H   0  0  0  0  0  0  0  0  0  0  0  0
    1.4488   -0.0673    4.4571 H   0  0  0  0  0  0  0  0  0  0  0  0
    5.0311   -1.5202    6.0299 H   0  0  0  0  0  0  0  0  0  0  0  0
    6.3230   -1.5253    4.9041 H   0  0  0  0  0  0  0  0  0  0  0  0
    6.1460   -3.6582    3.7568 H   0  0  0  0  0  0  0  0  0  0  0  0
    8.2161   -4.4935    4.6097 H   0  0  0  0  0  0  0  0  0  0  0  0
   11.5293   -3.8501    3.0226 H   0  0  0  0  0  0  0  0  0  0  0  0
   12.5901   -4.6585    4.9546 H   0  0  0  0  0  0  0  0  0  0  0  0
   11.1715   -8.0124    4.2717 H   0  0  0  0  0  0  0  0  0  0  0  0
   11.6797  -10.0003    5.6140 H   0  0  0  0  0  0  0  0  0  0  0  0
   13.1970   -9.8082    7.5924 H   0  0  0  0  0  0  0  0  0  0  0  0
   13.7001   -5.6261    6.8388 H   0  0  0  0  0  0  0  0  0  0  0  0
   10.3729   -2.4048    1.5014 H   0  0  0  0  0  0  0  0  0  0  0  0
    8.2828   -1.3477    0.8019 H   0  0  0  0  0  0  0  0  0  0  0  0
    6.1439   -1.7444   -0.2995 H   0  0  0  0  0  0  0  0  0  0  0  0
    2.1597    1.4796    0.0407 H   0  0  0  0  0  0  0  0  0  0  0  0
  1  2  1  0  0  0  0
  1 34  1  0  0  0  0
  1 35  1  0  0  0  0
  1 36  1  0  0  0  0
  2  3  1  0  0  0  0
  2 33  1  0  0  0  0
  3  4  2  0  0  0  0
  3 37  1  0  0  0  0
  4  5  1  0  0  0  0
  4 32  1  0  0  0  0
  5  6  1  0  0  0  0
  5 31  2  0  0  0  0
  6  7  2  0  0  0  0
  6 38  1  0  0  0  0
  7  8  1  0  0  0  0
  8  9  1  0  0  0  0
  8 10  2  0  0  0  0
  9 39  1  0  0  0  0
  9 40  1  0  0  0  0
 10 11  1  0  0  0  0
 10 31  1  0  0  0  0
 11 12  1  0  0  0  0
 11 29  2  0  0  0  0
 12 13  1  0  0  0  0
 12 28  2  0  0  0  0
 13 14  2  0  0  0  0
 13 41  1  0  0  0  0
 14 15  1  0  0  0  0
 14 42  1  0  0  0  0
 15 16  1  0  0  0  0
 15 27  2  0  0  0  0
 16 17  1  0  0  0  0
 16 43  1  0  0  0  0
 17 18  2  0  0  0  0
 17 19  1  0  0  0  0
 19 20  1  0  0  0  0
 19 44  1  0  0  0  0
 20 21  1  0  0  0  0
 20 26  2  0  0  0  0
 21 22  2  0  0  0  0
 21 45  1  0  0  0  0
 22 23  1  0  0  0  0
 22 46  1  0  0  0  0
 23 24  2  0  0  0  0
 23 47  1  0  0  0  0
 24 25  1  0  0  0  0
 24 26  1  0  0  0  0
 26 48  1  0  0  0  0
 27 28  1  0  0  0  0
 27 49  1  0  0  0  0
 28 50  1  0  0  0  0
 29 30  1  0  0  0  0
 29 51  1  0  0  0  0
 30 31  1  0  0  0  0
 32 33  2  0  0  0  0
 32 52  1  0  0  0  0
M  END
$$$$
