CHEMBL1172886
 OpenBabel04072215363D

 42 45  0  0  0  0  0  0  0  0999 V2000
    2.6924   -1.6889    0.1010 O   0  0  0  0  0  0  0  0  0  0  0  0
    2.2687   -0.7060   -0.4894 C   0  0  0  0  0  0  0  0  0  0  0  0
    0.9252   -0.4536   -0.7347 N   0  0  0  0  0  0  0  0  0  0  0  0
   -0.1445   -1.3109   -0.3831 C   0  0  0  0  0  0  0  0  0  0  0  0
   -0.0196   -2.3648    0.5261 C   0  0  0  0  0  0  0  0  0  0  0  0
   -1.0814   -3.2438    0.7557 C   0  0  0  0  0  0  0  0  0  0  0  0
   -2.2858   -3.0581    0.0900 C   0  0  0  0  0  0  0  0  0  0  0  0
   -3.5764   -4.1669    0.3366 Cl  0  0  0  0  0  0  0  0  0  0  0  0
   -2.4468   -1.9818   -0.7795 C   0  0  0  0  0  0  0  0  0  0  0  0
   -1.3813   -1.1028   -1.0088 C   0  0  0  0  0  0  0  0  0  0  0  0
    3.0730    0.2806   -1.0336 N   0  0  0  0  0  0  0  0  0  0  0  0
    4.4842    0.2655   -1.1186 C   0  0  0  0  0  0  0  0  0  0  0  0
    5.2892   -0.8203   -0.7061 C   0  0  0  0  0  0  0  0  0  0  0  0
    6.6892   -0.7916   -0.8159 C   0  0  0  0  0  0  0  0  0  0  0  0
    7.2734    0.3379   -1.3506 C   0  0  0  0  0  0  0  0  0  0  0  0
    6.4735    1.4082   -1.7573 C   0  0  0  0  0  0  0  0  0  0  0  0
    5.0951    1.4011   -1.6617 C   0  0  0  0  0  0  0  0  0  0  0  0
    7.2569    2.4499   -2.2376 N   0  0  0  0  0  0  0  0  0  0  0  0
    8.6064    2.1446   -2.1740 C   0  0  0  0  0  0  0  0  0  0  0  0
    9.5109    2.8601   -2.5542 O   0  0  0  0  0  0  0  0  0  0  0  0
    8.6627    0.7517   -1.5855 C   0  0  0  0  0  0  0  0  0  0  0  0
    9.7607    0.0382   -1.2916 C   0  0  0  0  0  0  0  0  0  0  0  0
   11.0584    0.5826   -1.4117 C   0  0  0  0  0  0  0  0  0  0  0  0
   11.8940    1.2112   -0.5124 C   0  0  0  0  0  0  0  0  0  0  0  0
   13.0440    1.6352   -1.2206 C   0  0  0  0  0  0  0  0  0  0  0  0
   12.8967    1.2220   -2.5255 C   0  0  0  0  0  0  0  0  0  0  0  0
   11.6925    0.5715   -2.6311 N   0  0  0  0  0  0  0  0  0  0  0  0
    0.7149    0.2682   -1.4035 H   0  0  0  0  0  0  0  0  0  0  0  0
    0.9001   -2.5406    1.0755 H   0  0  0  0  0  0  0  0  0  0  0  0
   -0.9449   -4.0729    1.4446 H   0  0  0  0  0  0  0  0  0  0  0  0
   -3.3919   -1.8321   -1.2944 H   0  0  0  0  0  0  0  0  0  0  0  0
   -1.5268   -0.2824   -1.7060 H   0  0  0  0  0  0  0  0  0  0  0  0
    2.6123    1.1261   -1.3265 H   0  0  0  0  0  0  0  0  0  0  0  0
    4.8527   -1.7193   -0.2792 H   0  0  0  0  0  0  0  0  0  0  0  0
    7.2772   -1.6362   -0.4712 H   0  0  0  0  0  0  0  0  0  0  0  0
    4.5200    2.2553   -1.9976 H   0  0  0  0  0  0  0  0  0  0  0  0
    6.9263    3.3343   -2.5898 H   0  0  0  0  0  0  0  0  0  0  0  0
    9.6787   -0.9536   -0.8562 H   0  0  0  0  0  0  0  0  0  0  0  0
   11.6737    1.3944    0.5311 H   0  0  0  0  0  0  0  0  0  0  0  0
   13.8756    2.2032   -0.8256 H   0  0  0  0  0  0  0  0  0  0  0  0
   13.5279    1.3590   -3.3927 H   0  0  0  0  0  0  0  0  0  0  0  0
   11.3083    0.1989   -3.4887 H   0  0  0  0  0  0  0  0  0  0  0  0
  1  2  2  0  0  0  0
  2  3  1  0  0  0  0
  2 11  1  0  0  0  0
  3  4  1  0  0  0  0
  3 28  1  0  0  0  0
  4  5  1  0  0  0  0
  4 10  2  0  0  0  0
  5  6  2  0  0  0  0
  5 29  1  0  0  0  0
  6  7  1  0  0  0  0
  6 30  1  0  0  0  0
  7  8  1  0  0  0  0
  7  9  2  0  0  0  0
  9 10  1  0  0  0  0
  9 31  1  0  0  0  0
 10 32  1  0  0  0  0
 11 12  1  0  0  0  0
 11 33  1  0  0  0  0
 12 13  1  0  0  0  0
 12 17  2  0  0  0  0
 13 14  2  0  0  0  0
 13 34  1  0  0  0  0
 14 15  1  0  0  0  0
 14 35  1  0  0  0  0
 15 16  2  0  0  0  0
 15 21  1  0  0  0  0
 16 17  1  0  0  0  0
 16 18  1  0  0  0  0
 17 36  1  0  0  0  0
 18 19  1  0  0  0  0
 18 37  1  0  0  0  0
 19 20  2  0  0  0  0
 19 21  1  0  0  0  0
 21 22  2  0  0  0  0
 22 23  1  0  0  0  0
 22 38  1  0  0  0  0
 23 24  2  0  0  0  0
 23 27  1  0  0  0  0
 24 25  1  0  0  0  0
 24 39  1  0  0  0  0
 25 26  2  0  0  0  0
 25 40  1  0  0  0  0
 26 27  1  0  0  0  0
 26 41  1  0  0  0  0
 27 42  1  0  0  0  0
M  END
$$$$
