CHEMBL1971245
 OpenBabel04072215363D

 56 60  0  0  0  0  0  0  0  0999 V2000
    0.5451   -0.8291   -3.3711 C   0  0  0  0  0  0  0  0  0  0  0  0
    0.1261   -0.4204   -2.0346 N   0  0  0  0  0  0  0  0  0  0  0  0
   -0.8790    0.6666   -2.1100 C   0  0  0  0  0  0  0  0  0  0  0  0
   -1.3735    1.1043   -0.7122 C   0  0  0  0  0  0  0  0  0  0  0  0
   -1.9096   -0.0646    0.0023 N   0  0  0  0  0  0  0  0  0  0  0  0
   -3.0252    0.0273    0.8109 C   0  0  0  0  0  0  0  0  0  0  0  0
   -3.1303   -0.6826    2.0134 C   0  0  0  0  0  0  0  0  0  0  0  0
   -4.2936   -0.6555    2.7745 C   0  0  0  0  0  0  0  0  0  0  0  0
   -5.3852    0.0861    2.3409 C   0  0  0  0  0  0  0  0  0  0  0  0
   -5.3470    0.8036    1.1441 C   0  0  0  0  0  0  0  0  0  0  0  0
   -6.4556    1.4800    0.6172 N   0  0  0  0  0  0  0  0  0  0  0  0
   -7.7990    1.4534    0.9767 C   0  0  0  0  0  0  0  0  0  0  0  0
   -8.1778    0.9487    2.1552 N   0  0  0  0  0  0  0  0  0  0  0  0
   -9.4801    0.9799    2.4692 C   0  0  0  0  0  0  0  0  0  0  0  0
  -10.4270    1.5098    1.6386 C   0  0  0  0  0  0  0  0  0  0  0  0
   -9.9712    1.9453    0.4177 C   0  0  0  0  0  0  0  0  0  0  0  0
  -10.8550    2.4343   -0.6367 C   0  0  0  0  0  0  0  0  0  0  0  0
  -10.6426    3.4303   -1.5890 C   0  0  0  0  0  0  0  0  0  0  0  0
   -9.4725    4.2980   -1.7388 C   0  0  0  0  0  0  0  0  0  0  0  0
   -9.2924    4.7381   -3.0205 N   0  0  0  0  0  0  0  0  0  0  0  0
   -8.7184    4.6477   -0.8379 O   0  0  0  0  0  0  0  0  0  0  0  0
  -11.7202    3.5239   -2.4618 N   0  0  0  0  0  0  0  0  0  0  0  0
  -12.5884    2.6347   -2.0418 C   0  0  0  0  0  0  0  0  0  0  0  0
  -13.8897    2.3181   -2.5238 C   0  0  0  0  0  0  0  0  0  0  0  0
  -14.5882    1.3104   -1.9683 C   0  0  0  0  0  0  0  0  0  0  0  0
  -14.0289    0.5128   -0.8936 C   0  0  0  0  0  0  0  0  0  0  0  0
  -12.8048    0.8115   -0.4286 C   0  0  0  0  0  0  0  0  0  0  0  0
  -12.0937    1.8935   -0.9690 N   0  0  0  0  0  0  0  0  0  0  0  0
   -8.6697    1.9221    0.0748 N   0  0  0  0  0  0  0  0  0  0  0  0
   -4.1496    0.7749    0.4095 C   0  0  0  0  0  0  0  0  0  0  0  0
   -0.9622   -1.1831    0.1091 C   0  0  0  0  0  0  0  0  0  0  0  0
   -0.4581   -1.5667   -1.3014 C   0  0  0  0  0  0  0  0  0  0  0  0
    1.0074    0.0119   -3.8985 H   0  0  0  0  0  0  0  0  0  0  0  0
   -0.2899   -1.2008   -3.9756 H   0  0  0  0  0  0  0  0  0  0  0  0
    1.3030   -1.6175   -3.3073 H   0  0  0  0  0  0  0  0  0  0  0  0
   -1.7457    0.3415   -2.7028 H   0  0  0  0  0  0  0  0  0  0  0  0
   -0.4438    1.5377   -2.6129 H   0  0  0  0  0  0  0  0  0  0  0  0
   -2.1040    1.9097   -0.8357 H   0  0  0  0  0  0  0  0  0  0  0  0
   -0.5384    1.5269   -0.1381 H   0  0  0  0  0  0  0  0  0  0  0  0
   -2.2991   -1.2698    2.3900 H   0  0  0  0  0  0  0  0  0  0  0  0
   -4.3609   -1.2225    3.6978 H   0  0  0  0  0  0  0  0  0  0  0  0
   -6.2709    0.0706    2.9643 H   0  0  0  0  0  0  0  0  0  0  0  0
   -6.3403    1.9749   -0.2552 H   0  0  0  0  0  0  0  0  0  0  0  0
   -9.7344    0.5508    3.4327 H   0  0  0  0  0  0  0  0  0  0  0  0
  -11.4638    1.5434    1.9425 H   0  0  0  0  0  0  0  0  0  0  0  0
   -9.9732    4.4957   -3.7294 H   0  0  0  0  0  0  0  0  0  0  0  0
   -8.5241    5.3572   -3.2229 H   0  0  0  0  0  0  0  0  0  0  0  0
  -14.2983    2.9085   -3.3362 H   0  0  0  0  0  0  0  0  0  0  0  0
  -15.5830    1.0603   -2.3227 H   0  0  0  0  0  0  0  0  0  0  0  0
  -14.6081   -0.3121   -0.4919 H   0  0  0  0  0  0  0  0  0  0  0  0
  -12.3450    0.2222    0.3514 H   0  0  0  0  0  0  0  0  0  0  0  0
   -4.1245    1.2940   -0.5445 H   0  0  0  0  0  0  0  0  0  0  0  0
   -1.4314   -2.0779    0.5340 H   0  0  0  0  0  0  0  0  0  0  0  0
   -0.1213   -0.9016    0.7549 H   0  0  0  0  0  0  0  0  0  0  0  0
   -1.3022   -1.9848   -1.8684 H   0  0  0  0  0  0  0  0  0  0  0  0
    0.2898   -2.3609   -1.1953 H   0  0  0  0  0  0  0  0  0  0  0  0
  1  2  1  0  0  0  0
  1 33  1  0  0  0  0
  1 34  1  0  0  0  0
  1 35  1  0  0  0  0
  2  3  1  0  0  0  0
  2 32  1  0  0  0  0
  3  4  1  0  0  0  0
  3 36  1  0  0  0  0
  3 37  1  0  0  0  0
  4  5  1  0  0  0  0
  4 38  1  0  0  0  0
  4 39  1  0  0  0  0
  5  6  1  0  0  0  0
  5 31  1  0  0  0  0
  6  7  1  0  0  0  0
  6 30  2  0  0  0  0
  7  8  2  0  0  0  0
  7 40  1  0  0  0  0
  8  9  1  0  0  0  0
  8 41  1  0  0  0  0
  9 10  2  0  0  0  0
  9 42  1  0  0  0  0
 10 11  1  0  0  0  0
 10 30  1  0  0  0  0
 11 12  1  0  0  0  0
 11 43  1  0  0  0  0
 12 13  1  0  0  0  0
 12 29  2  0  0  0  0
 13 14  2  0  0  0  0
 14 15  1  0  0  0  0
 14 44  1  0  0  0  0
 15 16  2  0  0  0  0
 15 45  1  0  0  0  0
 16 17  1  0  0  0  0
 16 29  1  0  0  0  0
 17 18  2  0  0  0  0
 17 28  1  0  0  0  0
 18 19  1  0  0  0  0
 18 22  1  0  0  0  0
 19 20  1  0  0  0  0
 19 21  2  0  0  0  0
 20 46  1  0  0  0  0
 20 47  1  0  0  0  0
 22 23  2  0  0  0  0
 23 24  1  0  0  0  0
 23 28  1  0  0  0  0
 24 25  2  0  0  0  0
 24 48  1  0  0  0  0
 25 26  1  0  0  0  0
 25 49  1  0  0  0  0
 26 27  2  0  0  0  0
 26 50  1  0  0  0  0
 27 28  1  0  0  0  0
 27 51  1  0  0  0  0
 30 52  1  0  0  0  0
 31 32  1  0  0  0  0
 31 53  1  0  0  0  0
 31 54  1  0  0  0  0
 32 55  1  0  0  0  0
 32 56  1  0  0  0  0
M  END
$$$$
