CHEMBL3919493
 OpenBabel04072215373D

 60 63  0  0  1  0  0  0  0  0999 V2000
   -3.6220    6.2673    6.7917 C   0  0  0  0  0  0  0  0  0  0  0  0
   -2.6044    6.1987    5.6647 C   0  0  0  0  0  0  0  0  0  0  0  0
   -3.0745    5.3419    4.5681 C   0  0  0  0  0  0  0  0  0  0  0  0
   -3.4875    4.6459    3.6621 C   0  0  0  0  0  0  0  0  0  0  0  0
   -4.0669    3.8010    2.5960 C   0  0  0  0  0  0  0  0  0  0  0  0
   -3.2797    3.7780    1.3606 N   0  0  0  0  0  0  0  0  0  0  0  0
   -3.9126    3.0244    0.2543 C   0  0  0  0  0  0  0  0  0  0  0  0
   -3.5224    1.5392    0.0731 C   0  0  0  0  0  0  0  0  0  0  0  0
   -2.1237    1.2985    0.2349 O   0  0  0  0  0  0  0  0  0  0  0  0
   -1.6193    1.8476    1.4678 C   0  0  3  0  0  0  0  0  0  0  0  0
   -2.1944    1.1051    2.6876 C   0  0  0  0  0  0  0  0  0  0  0  0
   -1.7171   -0.2218    2.8615 O   0  0  0  0  0  0  0  0  0  0  0  0
   -0.3823   -0.4484    3.0158 C   0  0  0  0  0  0  0  0  0  0  0  0
   -0.0264   -1.7261    2.5364 C   0  0  0  0  0  0  0  0  0  0  0  0
    1.2800   -2.1848    2.5050 C   0  0  0  0  0  0  0  0  0  0  0  0
    1.5545   -3.3833    1.9727 N   0  0  0  0  0  0  0  0  0  0  0  0
    2.8376   -3.7530    1.9490 C   0  0  0  0  0  0  0  0  0  0  0  0
    3.8636   -3.0546    2.4443 N   0  0  0  0  0  0  0  0  0  0  0  0
    3.5805   -1.8559    2.9861 C   0  0  0  0  0  0  0  0  0  0  0  0
    4.6224   -1.0622    3.5409 N   0  0  0  0  0  0  0  0  0  0  0  0
    6.0156   -1.2409    3.4430 C   0  0  0  0  0  0  0  0  0  0  0  0
    6.6141   -1.9175    2.3758 C   0  0  0  0  0  0  0  0  0  0  0  0
    7.9993   -2.0748    2.3043 C   0  0  0  0  0  0  0  0  0  0  0  0
    8.8170   -1.5159    3.2838 C   0  0  0  0  0  0  0  0  0  0  0  0
   10.5192   -1.7765    3.1564 Cl  0  0  0  0  0  0  0  0  0  0  0  0
    8.2434   -0.7709    4.3170 C   0  0  0  0  0  0  0  0  0  0  0  0
    9.1914   -0.0089    5.5457 Cl  0  0  0  0  0  0  0  0  0  0  0  0
    6.8525   -0.6241    4.3850 C   0  0  0  0  0  0  0  0  0  0  0  0
    2.2704   -1.3443    3.0173 C   0  0  0  0  0  0  0  0  0  0  0  0
    1.9177   -0.0494    3.4906 C   0  0  0  0  0  0  0  0  0  0  0  0
    0.6028    0.4017    3.5120 C   0  0  0  0  0  0  0  0  0  0  0  0
    0.4654    1.7347    3.7958 O   0  0  0  0  0  0  0  0  0  0  0  0
   -0.2053    2.0801    5.0051 C   0  0  0  0  0  0  0  0  0  0  0  0
   -1.8742    3.3684    1.4900 C   0  0  0  0  0  0  0  0  0  0  0  0
   -3.2616    6.9257    7.5912 H   0  0  0  0  0  0  0  0  0  0  0  0
   -3.8003    5.2765    7.2237 H   0  0  0  0  0  0  0  0  0  0  0  0
   -4.5821    6.6565    6.4349 H   0  0  0  0  0  0  0  0  0  0  0  0
   -1.6558    5.8264    6.0636 H   0  0  0  0  0  0  0  0  0  0  0  0
   -2.4182    7.2114    5.2879 H   0  0  0  0  0  0  0  0  0  0  0  0
   -5.0541    4.2227    2.3684 H   0  0  0  0  0  0  0  0  0  0  0  0
   -4.2516    2.7990    2.9905 H   0  0  0  0  0  0  0  0  0  0  0  0
   -3.6100    3.5367   -0.6669 H   0  0  0  0  0  0  0  0  0  0  0  0
   -5.0055    3.1042    0.2916 H   0  0  0  0  0  0  0  0  0  0  0  0
   -3.7765    1.2154   -0.9420 H   0  0  0  0  0  0  0  0  0  0  0  0
   -4.0873    0.8857    0.7439 H   0  0  0  0  0  0  0  0  0  0  0  0
   -0.5353    1.7085    1.4108 H   0  0  0  0  0  0  0  0  0  0  0  0
   -3.2699    0.9639    2.5781 H   0  0  0  0  0  0  0  0  0  0  0  0
   -2.1140    1.6564    3.6149 H   0  0  0  0  0  0  0  0  0  0  0  0
   -0.8033   -2.3619    2.1110 H   0  0  0  0  0  0  0  0  0  0  0  0
    3.0733   -4.7040    1.4829 H   0  0  0  0  0  0  0  0  0  0  0  0
    4.3418   -0.7381    4.4610 H   0  0  0  0  0  0  0  0  0  0  0  0
    6.0065   -2.3437    1.5820 H   0  0  0  0  0  0  0  0  0  0  0  0
    8.4246   -2.6387    1.4782 H   0  0  0  0  0  0  0  0  0  0  0  0
    6.4218   -0.0349    5.1917 H   0  0  0  0  0  0  0  0  0  0  0  0
    2.7050    0.6407    3.7939 H   0  0  0  0  0  0  0  0  0  0  0  0
    0.4693    2.6547    5.6455 H   0  0  0  0  0  0  0  0  0  0  0  0
   -0.6120    1.2272    5.5554 H   0  0  0  0  0  0  0  0  0  0  0  0
   -1.0109    2.7764    4.7505 H   0  0  0  0  0  0  0  0  0  0  0  0
   -1.3595    3.7920    0.6157 H   0  0  0  0  0  0  0  0  0  0  0  0
   -1.3847    3.8324    2.3531 H   0  0  0  0  0  0  0  0  0  0  0  0
  1  2  1  0  0  0  0
  1 35  1  0  0  0  0
  1 36  1  0  0  0  0
  1 37  1  0  0  0  0
  2  3  1  0  0  0  0
  2 38  1  0  0  0  0
  2 39  1  0  0  0  0
  3  4  3  0  0  0  0
  4  5  1  0  0  0  0
  5  6  1  0  0  0  0
  5 40  1  0  0  0  0
  5 41  1  0  0  0  0
  6  7  1  0  0  0  0
  6 34  1  0  0  0  0
  7  8  1  0  0  0  0
  7 42  1  0  0  0  0
  7 43  1  0  0  0  0
  8  9  1  0  0  0  0
  8 44  1  0  0  0  0
  8 45  1  0  0  0  0
  9 10  1  0  0  0  0
 10 11  1  0  0  0  0
 10 34  1  0  0  0  0
 10 46  1  0  0  0  0
 11 12  1  0  0  0  0
 11 47  1  0  0  0  0
 11 48  1  0  0  0  0
 12 13  1  0  0  0  0
 13 14  1  0  0  0  0
 13 31  2  0  0  0  0
 14 15  2  0  0  0  0
 14 49  1  0  0  0  0
 15 16  1  0  0  0  0
 15 29  1  0  0  0  0
 16 17  2  0  0  0  0
 17 18  1  0  0  0  0
 17 50  1  0  0  0  0
 18 19  2  0  0  0  0
 19 20  1  0  0  0  0
 19 29  1  0  0  0  0
 20 21  1  0  0  0  0
 20 51  1  0  0  0  0
 21 22  1  0  0  0  0
 21 28  2  0  0  0  0
 22 23  2  0  0  0  0
 22 52  1  0  0  0  0
 23 24  1  0  0  0  0
 23 53  1  0  0  0  0
 24 25  1  0  0  0  0
 24 26  2  0  0  0  0
 26 27  1  0  0  0  0
 26 28  1  0  0  0  0
 28 54  1  0  0  0  0
 29 30  2  0  0  0  0
 30 31  1  0  0  0  0
 30 55  1  0  0  0  0
 31 32  1  0  0  0  0
 32 33  1  0  0  0  0
 33 56  1  0  0  0  0
 33 57  1  0  0  0  0
 33 58  1  0  0  0  0
 34 59  1  0  0  0  0
 34 60  1  0  0  0  0
M  END
$$$$
