CHEMBL2325092
 OpenBabel04072215363D

 51 55  0  0  1  0  0  0  0  0999 V2000
    1.7580   -0.1944    0.9252 C   0  0  0  0  0  0  0  0  0  0  0  0
    2.5073    0.1199   -0.2433 O   0  0  0  0  0  0  0  0  0  0  0  0
    3.2056   -0.9064   -0.8208 C   0  0  0  0  0  0  0  0  0  0  0  0
    3.3115   -2.2035   -0.3259 C   0  0  0  0  0  0  0  0  0  0  0  0
    4.0563   -3.1640   -1.0232 C   0  0  0  0  0  0  0  0  0  0  0  0
    4.7026   -2.8346   -2.2221 C   0  0  0  0  0  0  0  0  0  0  0  0
    5.4644   -3.8803   -2.9452 C   0  0  0  0  0  0  0  0  0  0  0  0
    5.5754   -5.0985   -2.5105 N   0  0  0  0  0  0  0  0  0  0  0  0
    6.3397   -5.7805   -3.4109 N   0  0  0  0  0  0  0  0  0  0  0  0
    6.7691   -7.0735   -3.1309 C   0  0  0  0  0  0  0  0  0  0  0  0
    5.9180   -7.9385   -2.4271 C   0  0  0  0  0  0  0  0  0  0  0  0
    6.2557   -9.2695   -2.1895 C   0  0  0  0  0  0  0  0  0  0  0  0
    7.4835   -9.7610   -2.6187 C   0  0  0  0  0  0  0  0  0  0  0  0
    8.3668   -8.9179   -3.2874 C   0  0  0  0  0  0  0  0  0  0  0  0
    8.0073   -7.5882   -3.5496 C   0  0  0  0  0  0  0  0  0  0  0  0
    6.8072   -4.9544   -4.5165 C   0  0  3  0  0  0  0  0  0  0  0  0
    6.5107   -5.5366   -5.8947 C   0  0  0  0  0  0  0  0  0  0  0  0
    7.4906   -5.2734   -6.8914 C   0  0  0  0  0  0  0  0  0  0  0  0
    7.4122   -5.8331   -8.1592 C   0  0  0  0  0  0  0  0  0  0  0  0
    6.4776   -6.8123   -8.4055 C   0  0  0  0  0  0  0  0  0  0  0  0
    5.5283   -7.1216   -7.4244 C   0  0  0  0  0  0  0  0  0  0  0  0
    4.6695   -8.1690   -7.7006 C   0  0  0  0  0  0  0  0  0  0  0  0
    3.3504   -7.8735   -7.5367 C   0  0  0  0  0  0  0  0  0  0  0  0
    3.0060   -7.0506   -6.4583 C   0  0  0  0  0  0  0  0  0  0  0  0
    4.0542   -6.4049   -5.7347 C   0  0  0  0  0  0  0  0  0  0  0  0
    5.3733   -6.3426   -6.2690 C   0  0  0  0  0  0  0  0  0  0  0  0
    6.1709   -3.5979   -4.2451 C   0  0  0  0  0  0  0  0  0  0  0  0
    4.6085   -1.5300   -2.7095 C   0  0  0  0  0  0  0  0  0  0  0  0
    3.8625   -0.5743   -2.0087 C   0  0  0  0  0  0  0  0  0  0  0  0
    1.2588    0.7206    1.2607 H   0  0  0  0  0  0  0  0  0  0  0  0
    2.4112   -0.5294    1.7371 H   0  0  0  0  0  0  0  0  0  0  0  0
    0.9844   -0.9383    0.7079 H   0  0  0  0  0  0  0  0  0  0  0  0
    2.8314   -2.5063    0.5989 H   0  0  0  0  0  0  0  0  0  0  0  0
    4.1252   -4.1728   -0.6197 H   0  0  0  0  0  0  0  0  0  0  0  0
    4.9500   -7.5660   -2.1013 H   0  0  0  0  0  0  0  0  0  0  0  0
    5.5495   -9.9169   -1.6788 H   0  0  0  0  0  0  0  0  0  0  0  0
    7.7495  -10.7969   -2.4322 H   0  0  0  0  0  0  0  0  0  0  0  0
    9.3335   -9.2935   -3.6113 H   0  0  0  0  0  0  0  0  0  0  0  0
    8.7256   -6.9613   -4.0692 H   0  0  0  0  0  0  0  0  0  0  0  0
    7.8960   -4.8295   -4.4075 H   0  0  0  0  0  0  0  0  0  0  0  0
    8.3246   -4.6081   -6.6792 H   0  0  0  0  0  0  0  0  0  0  0  0
    8.1133   -5.5558   -8.9411 H   0  0  0  0  0  0  0  0  0  0  0  0
    6.4278   -7.3065   -9.3703 H   0  0  0  0  0  0  0  0  0  0  0  0
    4.9242   -9.0186   -7.0109 H   0  0  0  0  0  0  0  0  0  0  0  0
    2.6126   -8.2655   -8.2383 H   0  0  0  0  0  0  0  0  0  0  0  0
    1.9719   -6.8841   -6.2294 H   0  0  0  0  0  0  0  0  0  0  0  0
    3.7633   -5.8053   -4.8633 H   0  0  0  0  0  0  0  0  0  0  0  0
    5.4653   -3.2818   -5.0224 H   0  0  0  0  0  0  0  0  0  0  0  0
    6.9369   -2.8251   -4.0989 H   0  0  0  0  0  0  0  0  0  0  0  0
    5.1020   -1.2273   -3.6285 H   0  0  0  0  0  0  0  0  0  0  0  0
    3.7912    0.4398   -2.3960 H   0  0  0  0  0  0  0  0  0  0  0  0
  1  2  1  0  0  0  0
  1 30  1  0  0  0  0
  1 31  1  0  0  0  0
  1 32  1  0  0  0  0
  2  3  1  0  0  0  0
  3  4  1  0  0  0  0
  3 29  2  0  0  0  0
  4  5  2  0  0  0  0
  4 33  1  0  0  0  0
  5  6  1  0  0  0  0
  5 34  1  0  0  0  0
  6  7  1  0  0  0  0
  6 28  2  0  0  0  0
  7  8  2  0  0  0  0
  7 27  1  0  0  0  0
  8  9  1  0  0  0  0
  9 10  1  0  0  0  0
  9 16  1  0  0  0  0
 10 11  1  0  0  0  0
 10 15  2  0  0  0  0
 11 12  2  0  0  0  0
 11 35  1  0  0  0  0
 12 13  1  0  0  0  0
 12 36  1  0  0  0  0
 13 14  2  0  0  0  0
 13 37  1  0  0  0  0
 14 15  1  0  0  0  0
 14 38  1  0  0  0  0
 15 39  1  0  0  0  0
 16 17  1  0  0  0  0
 16 27  1  0  0  0  0
 16 40  1  0  0  0  0
 17 18  1  0  0  0  0
 17 26  2  0  0  0  0
 18 19  2  0  0  0  0
 18 41  1  0  0  0  0
 19 20  1  0  0  0  0
 19 42  1  0  0  0  0
 20 21  2  0  0  0  0
 20 43  1  0  0  0  0
 21 22  1  0  0  0  0
 21 26  1  0  0  0  0
 22 23  2  0  0  0  0
 22 44  1  0  0  0  0
 23 24  1  0  0  0  0
 23 45  1  0  0  0  0
 24 25  2  0  0  0  0
 24 46  1  0  0  0  0
 25 26  1  0  0  0  0
 25 47  1  0  0  0  0
 27 48  1  0  0  0  0
 27 49  1  0  0  0  0
 28 29  1  0  0  0  0
 28 50  1  0  0  0  0
 29 51  1  0  0  0  0
M  END
$$$$
