CHEMBL2018748
 OpenBabel04072215363D

 50 52  0  0  0  0  0  0  0  0999 V2000
    1.3268   -0.7153    1.7012 C   0  0  0  0  0  0  0  0  0  0  0  0
    2.4849    0.0016    1.0061 C   0  0  0  0  0  0  0  0  0  0  0  0
    3.7413    0.0146    1.8777 C   0  0  0  0  0  0  0  0  0  0  0  0
    4.8788    0.6660    1.2527 O   0  0  0  0  0  0  0  0  0  0  0  0
    5.2227    1.8492    1.8483 C   0  0  0  0  0  0  0  0  0  0  0  0
    4.4214    2.5092    2.5001 O   0  0  0  0  0  0  0  0  0  0  0  0
    6.5680    2.1595    1.6966 N   0  0  0  0  0  0  0  0  0  0  0  0
    7.2931    2.9348    2.6481 C   0  0  0  0  0  0  0  0  0  0  0  0
    6.7953    3.0761    3.9431 C   0  0  0  0  0  0  0  0  0  0  0  0
    7.4960    3.7646    4.9569 C   0  0  0  0  0  0  0  0  0  0  0  0
    8.7036    4.3676    4.7153 C   0  0  0  0  0  0  0  0  0  0  0  0
    9.4549    5.0249    5.7379 N   0  0  0  0  0  0  0  0  0  0  0  0
    9.1638    5.3972    7.1075 C   0  0  0  0  0  0  0  0  0  0  0  0
    8.0485    4.9649    7.7682 N   0  0  0  0  0  0  0  0  0  0  0  0
    7.8526    5.3698    9.0321 C   0  0  0  0  0  0  0  0  0  0  0  0
    8.6536    6.1678    9.7135 N   0  0  0  0  0  0  0  0  0  0  0  0
    9.7144    6.5769    9.0679 C   0  0  0  0  0  0  0  0  0  0  0  0
   10.4038    7.4404    9.8444 C   0  0  0  0  0  0  0  0  0  0  0  0
   11.6121    7.9760    9.4671 C   0  0  0  0  0  0  0  0  0  0  0  0
   12.2911    8.7564   10.3668 O   0  0  0  0  0  0  0  0  0  0  0  0
   12.0542    8.4202   11.7429 C   0  0  0  0  0  0  0  0  0  0  0  0
   12.0791    7.7006    8.1753 C   0  0  0  0  0  0  0  0  0  0  0  0
   13.2288    8.2171    7.6309 O   0  0  0  0  0  0  0  0  0  0  0  0
   13.4817    9.5695    8.0164 C   0  0  0  0  0  0  0  0  0  0  0  0
   11.3552    6.8127    7.3402 C   0  0  0  0  0  0  0  0  0  0  0  0
   10.1150    6.2357    7.7751 C   0  0  0  0  0  0  0  0  0  0  0  0
    9.2393    4.2071    3.4051 C   0  0  0  0  0  0  0  0  0  0  0  0
    8.5461    3.4982    2.3775 C   0  0  0  0  0  0  0  0  0  0  0  0
    0.4351   -0.7201    1.0648 H   0  0  0  0  0  0  0  0  0  0  0  0
    1.0600   -0.2227    2.6429 H   0  0  0  0  0  0  0  0  0  0  0  0
    1.5804   -1.7571    1.9261 H   0  0  0  0  0  0  0  0  0  0  0  0
    2.1829    1.0261    0.7624 H   0  0  0  0  0  0  0  0  0  0  0  0
    2.6992   -0.4948    0.0535 H   0  0  0  0  0  0  0  0  0  0  0  0
    4.0510   -1.0163    2.0801 H   0  0  0  0  0  0  0  0  0  0  0  0
    3.5063    0.4526    2.8569 H   0  0  0  0  0  0  0  0  0  0  0  0
    7.0615    1.7278    0.9211 H   0  0  0  0  0  0  0  0  0  0  0  0
    5.8660    2.6106    4.2390 H   0  0  0  0  0  0  0  0  0  0  0  0
    7.0292    3.8068    5.9329 H   0  0  0  0  0  0  0  0  0  0  0  0
   10.0676    5.7142    5.3234 H   0  0  0  0  0  0  0  0  0  0  0  0
    6.9861    5.0713    9.6196 H   0  0  0  0  0  0  0  0  0  0  0  0
    9.9400    7.6902   10.7893 H   0  0  0  0  0  0  0  0  0  0  0  0
   12.6905    9.0442   12.3707 H   0  0  0  0  0  0  0  0  0  0  0  0
   12.2957    7.3659   11.9244 H   0  0  0  0  0  0  0  0  0  0  0  0
   11.0263    8.6373   12.0593 H   0  0  0  0  0  0  0  0  0  0  0  0
   14.2992    9.9569    7.4045 H   0  0  0  0  0  0  0  0  0  0  0  0
   13.8256    9.6406    9.0509 H   0  0  0  0  0  0  0  0  0  0  0  0
   12.5973   10.1952    7.8462 H   0  0  0  0  0  0  0  0  0  0  0  0
   11.7514    6.5897    6.3517 H   0  0  0  0  0  0  0  0  0  0  0  0
   10.2133    4.6260    3.1537 H   0  0  0  0  0  0  0  0  0  0  0  0
    8.9899    3.4284    1.3843 H   0  0  0  0  0  0  0  0  0  0  0  0
  1  2  1  0  0  0  0
  1 29  1  0  0  0  0
  1 30  1  0  0  0  0
  1 31  1  0  0  0  0
  2  3  1  0  0  0  0
  2 32  1  0  0  0  0
  2 33  1  0  0  0  0
  3  4  1  0  0  0  0
  3 34  1  0  0  0  0
  3 35  1  0  0  0  0
  4  5  1  0  0  0  0
  5  6  2  0  0  0  0
  5  7  1  0  0  0  0
  7  8  1  0  0  0  0
  7 36  1  0  0  0  0
  8  9  1  0  0  0  0
  8 28  2  0  0  0  0
  9 10  2  0  0  0  0
  9 37  1  0  0  0  0
 10 11  1  0  0  0  0
 10 38  1  0  0  0  0
 11 12  1  0  0  0  0
 11 27  2  0  0  0  0
 12 13  1  0  0  0  0
 12 39  1  0  0  0  0
 13 14  1  0  0  0  0
 13 26  2  0  0  0  0
 14 15  2  0  0  0  0
 15 16  1  0  0  0  0
 15 40  1  0  0  0  0
 16 17  2  0  0  0  0
 17 18  1  0  0  0  0
 17 26  1  0  0  0  0
 18 19  2  0  0  0  0
 18 41  1  0  0  0  0
 19 20  1  0  0  0  0
 19 22  1  0  0  0  0
 20 21  1  0  0  0  0
 21 42  1  0  0  0  0
 21 43  1  0  0  0  0
 21 44  1  0  0  0  0
 22 23  1  0  0  0  0
 22 25  2  0  0  0  0
 23 24  1  0  0  0  0
 24 45  1  0  0  0  0
 24 46  1  0  0  0  0
 24 47  1  0  0  0  0
 25 26  1  0  0  0  0
 25 48  1  0  0  0  0
 27 28  1  0  0  0  0
 27 49  1  0  0  0  0
 28 50  1  0  0  0  0
M  END
$$$$
