CHEMBL4449692
 OpenBabel04072215383D

 46 49  0  0  0  0  0  0  0  0999 V2000
    3.9848    4.2423    7.0194 C   0  0  0  0  0  0  0  0  0  0  0  0
    2.7118    4.4809    6.4333 O   0  0  0  0  0  0  0  0  0  0  0  0
    2.0436    3.4055    5.9164 C   0  0  0  0  0  0  0  0  0  0  0  0
    2.4982    2.0869    5.8797 C   0  0  0  0  0  0  0  0  0  0  0  0
    1.6995    1.0560    5.3412 C   0  0  0  0  0  0  0  0  0  0  0  0
    2.2248   -0.2690    5.3634 N   0  0  0  0  0  0  0  0  0  0  0  0
    1.6090   -1.4778    4.9459 C   0  0  0  0  0  0  0  0  0  0  0  0
    2.2992   -2.2285    4.0026 C   0  0  0  0  0  0  0  0  0  0  0  0
    1.6661   -3.2533    3.3499 C   0  0  0  0  0  0  0  0  0  0  0  0
    0.3877   -3.6405    3.6798 C   0  0  0  0  0  0  0  0  0  0  0  0
   -0.1679   -4.5375    2.8618 N   0  0  0  0  0  0  0  0  0  0  0  0
   -1.3488   -5.0350    3.2527 C   0  0  0  0  0  0  0  0  0  0  0  0
   -1.9240   -4.7171    4.4675 C   0  0  0  0  0  0  0  0  0  0  0  0
   -2.9729   -5.5996    4.9416 C   0  0  0  0  0  0  0  0  0  0  0  0
   -2.8726   -6.7266    5.7845 C   0  0  0  0  0  0  0  0  0  0  0  0
   -4.0001   -7.4461    5.8085 N   0  0  0  0  0  0  0  0  0  0  0  0
   -4.8171   -6.7697    4.9823 N   0  0  0  0  0  0  0  0  0  0  0  0
   -6.2306   -7.0558    4.9538 C   0  0  0  0  0  0  0  0  0  0  0  0
   -4.1917   -5.7547    4.3166 C   0  0  0  0  0  0  0  0  0  0  0  0
   -1.4170   -3.7220    5.2579 N   0  0  0  0  0  0  0  0  0  0  0  0
   -0.2587   -3.1109    4.8244 C   0  0  0  0  0  0  0  0  0  0  0  0
    0.3663   -1.9734    5.4108 C   0  0  0  0  0  0  0  0  0  0  0  0
    0.4592    1.3834    4.7833 C   0  0  0  0  0  0  0  0  0  0  0  0
   -0.0047    2.7017    4.8138 C   0  0  0  0  0  0  0  0  0  0  0  0
   -1.2034    3.1457    4.3253 O   0  0  0  0  0  0  0  0  0  0  0  0
   -2.0458    2.1869    3.7000 C   0  0  0  0  0  0  0  0  0  0  0  0
    0.7865    3.6986    5.3917 C   0  0  0  0  0  0  0  0  0  0  0  0
    4.2976    5.1618    7.5237 H   0  0  0  0  0  0  0  0  0  0  0  0
    4.7263    4.0127    6.2477 H   0  0  0  0  0  0  0  0  0  0  0  0
    3.9444    3.4531    7.7775 H   0  0  0  0  0  0  0  0  0  0  0  0
    3.4796    1.8299    6.2652 H   0  0  0  0  0  0  0  0  0  0  0  0
    3.1503   -0.1930    4.9329 H   0  0  0  0  0  0  0  0  0  0  0  0
    3.3160   -1.9781    3.7123 H   0  0  0  0  0  0  0  0  0  0  0  0
    2.1679   -3.7794    2.5372 H   0  0  0  0  0  0  0  0  0  0  0  0
   -1.7993   -5.7500    2.5750 H   0  0  0  0  0  0  0  0  0  0  0  0
   -2.0180   -7.0803    6.3487 H   0  0  0  0  0  0  0  0  0  0  0  0
   -6.4657   -7.8278    5.6907 H   0  0  0  0  0  0  0  0  0  0  0  0
   -6.5129   -7.3828    3.9509 H   0  0  0  0  0  0  0  0  0  0  0  0
   -6.7508   -6.1302    5.2155 H   0  0  0  0  0  0  0  0  0  0  0  0
   -4.6700   -5.2309    3.5015 H   0  0  0  0  0  0  0  0  0  0  0  0
   -0.1309   -1.4699    6.2418 H   0  0  0  0  0  0  0  0  0  0  0  0
   -0.1188    0.6053    4.3017 H   0  0  0  0  0  0  0  0  0  0  0  0
   -3.0138    2.6637    3.5190 H   0  0  0  0  0  0  0  0  0  0  0  0
   -2.2260    1.3191    4.3422 H   0  0  0  0  0  0  0  0  0  0  0  0
   -1.6301    1.8857    2.7330 H   0  0  0  0  0  0  0  0  0  0  0  0
    0.4165    4.7212    5.4269 H   0  0  0  0  0  0  0  0  0  0  0  0
  1  2  1  0  0  0  0
  1 28  1  0  0  0  0
  1 29  1  0  0  0  0
  1 30  1  0  0  0  0
  2  3  1  0  0  0  0
  3  4  1  0  0  0  0
  3 27  2  0  0  0  0
  4  5  2  0  0  0  0
  4 31  1  0  0  0  0
  5  6  1  0  0  0  0
  5 23  1  0  0  0  0
  6  7  1  0  0  0  0
  6 32  1  0  0  0  0
  7  8  1  0  0  0  0
  7 22  2  0  0  0  0
  8  9  2  0  0  0  0
  8 33  1  0  0  0  0
  9 10  1  0  0  0  0
  9 34  1  0  0  0  0
 10 11  1  0  0  0  0
 10 21  2  0  0  0  0
 11 12  2  0  0  0  0
 12 13  1  0  0  0  0
 12 35  1  0  0  0  0
 13 14  1  0  0  0  0
 13 20  2  0  0  0  0
 14 15  1  0  0  0  0
 14 19  2  0  0  0  0
 15 16  2  0  0  0  0
 15 36  1  0  0  0  0
 16 17  1  0  0  0  0
 17 18  1  0  0  0  0
 17 19  1  0  0  0  0
 18 37  1  0  0  0  0
 18 38  1  0  0  0  0
 18 39  1  0  0  0  0
 19 40  1  0  0  0  0
 20 21  1  0  0  0  0
 21 22  1  0  0  0  0
 22 41  1  0  0  0  0
 23 24  2  0  0  0  0
 23 42  1  0  0  0  0
 24 25  1  0  0  0  0
 24 27  1  0  0  0  0
 25 26  1  0  0  0  0
 26 43  1  0  0  0  0
 26 44  1  0  0  0  0
 26 45  1  0  0  0  0
 27 46  1  0  0  0  0
M  END
$$$$
