CHEMBL4291192
 OpenBabel04072215383D

 75 78  0  0  1  0  0  0  0  0999 V2000
    6.1871    0.7756    3.8145 C   0  0  0  0  0  0  0  0  0  0  0  0
    4.7084    1.0616    3.6391 C   0  0  0  0  0  0  0  0  0  0  0  0
    4.5699    2.2443    2.8489 O   0  0  0  0  0  0  0  0  0  0  0  0
    4.7932    2.1342    1.5087 C   0  0  0  0  0  0  0  0  0  0  0  0
    4.9597    1.0826    0.9130 O   0  0  0  0  0  0  0  0  0  0  0  0
    4.9271    3.5173    0.9470 C   0  0  0  0  0  0  0  0  0  0  0  0
    5.6685    3.8064   -0.1578 C   0  0  0  0  0  0  0  0  0  0  0  0
    6.3928    2.7217   -0.9722 C   0  0  0  0  0  0  0  0  0  0  0  0
    5.3715    1.9886   -2.2967 S   0  0  0  0  0  0  0  0  0  0  0  0
    6.5111    0.7949   -2.9592 C   0  0  0  0  0  0  0  0  0  0  0  0
    6.8344   -0.6795   -2.2243 S   0  0  0  0  0  0  0  0  0  0  0  0
    7.0057    1.1721   -4.2232 N   0  0  0  0  0  0  0  0  0  0  0  0
    8.4937    1.3285   -4.4333 C   0  0  0  0  0  0  0  0  0  0  0  0
    9.2678    1.7417   -3.1553 C   0  0  0  0  0  0  0  0  0  0  0  0
   10.7508    2.0194   -3.3916 C   0  0  0  0  0  0  0  0  0  0  0  0
   10.9472    3.0816   -4.4586 C   0  0  0  0  0  0  0  0  0  0  0  0
   10.2789    2.6465   -5.7506 C   0  0  0  0  0  0  0  0  0  0  0  0
    8.7921    2.3679   -5.5418 C   0  0  0  0  0  0  0  0  0  0  0  0
    6.1497    0.7343   -5.3893 C   0  0  0  0  0  0  0  0  0  0  0  0
    6.8323   -0.2759   -6.3478 C   0  0  0  0  0  0  0  0  0  0  0  0
    6.0804   -0.5187   -7.6578 C   0  0  0  0  0  0  0  0  0  0  0  0
    5.6823    0.7867   -8.3298 C   0  0  0  0  0  0  0  0  0  0  0  0
    4.7986    1.6029   -7.3997 C   0  0  0  0  0  0  0  0  0  0  0  0
    5.5240    1.9503   -6.1012 C   0  0  0  0  0  0  0  0  0  0  0  0
    5.8611    5.1733   -0.4608 N   0  0  0  0  0  0  0  0  0  0  0  0
    6.7422    5.6621   -1.5094 C   0  0  0  0  0  0  0  0  0  0  0  0
    5.2891    6.2125    0.2769 C   0  0  0  0  0  0  0  0  0  0  0  0
    5.5147    7.4057    0.0783 O   0  0  0  0  0  0  0  0  0  0  0  0
    4.4441    5.8820    1.2706 N   0  0  0  0  0  0  0  0  0  0  0  0
    4.1804    4.5588    1.7408 C   0  0  3  0  0  0  0  0  0  0  0  0
    2.6775    4.3122    1.7741 C   0  0  0  0  0  0  0  0  0  0  0  0
    1.9833    3.9711    0.6007 C   0  0  0  0  0  0  0  0  0  0  0  0
    0.6473    3.5815    0.6546 C   0  0  0  0  0  0  0  0  0  0  0  0
   -0.0247    3.5689    1.8737 C   0  0  0  0  0  0  0  0  0  0  0  0
    0.6303    3.9730    3.0363 C   0  0  0  0  0  0  0  0  0  0  0  0
    1.9748    4.3459    2.9893 C   0  0  0  0  0  0  0  0  0  0  0  0
    6.3571    0.0446    4.6074 H   0  0  0  0  0  0  0  0  0  0  0  0
    6.7284    1.6987    4.0497 H   0  0  0  0  0  0  0  0  0  0  0  0
    6.6143    0.3880    2.8849 H   0  0  0  0  0  0  0  0  0  0  0  0
    4.2590    1.2857    4.6128 H   0  0  0  0  0  0  0  0  0  0  0  0
    4.1577    0.2196    3.2054 H   0  0  0  0  0  0  0  0  0  0  0  0
    6.7991    1.9457   -0.3185 H   0  0  0  0  0  0  0  0  0  0  0  0
    7.2722    3.1260   -1.4573 H   0  0  0  0  0  0  0  0  0  0  0  0
    8.8801    0.3459   -4.7321 H   0  0  0  0  0  0  0  0  0  0  0  0
    9.2051    0.9630   -2.3912 H   0  0  0  0  0  0  0  0  0  0  0  0
    8.8177    2.6441   -2.7368 H   0  0  0  0  0  0  0  0  0  0  0  0
   11.2586    1.0940   -3.6893 H   0  0  0  0  0  0  0  0  0  0  0  0
   11.2127    2.3508   -2.4549 H   0  0  0  0  0  0  0  0  0  0  0  0
   12.0159    3.2530   -4.6266 H   0  0  0  0  0  0  0  0  0  0  0  0
   10.5170    4.0324   -4.1201 H   0  0  0  0  0  0  0  0  0  0  0  0
   10.7711    1.7460   -6.1381 H   0  0  0  0  0  0  0  0  0  0  0  0
   10.4003    3.4275   -6.5094 H   0  0  0  0  0  0  0  0  0  0  0  0
    8.3865    2.0527   -6.5066 H   0  0  0  0  0  0  0  0  0  0  0  0
    8.2894    3.3105   -5.2900 H   0  0  0  0  0  0  0  0  0  0  0  0
    5.2945    0.1867   -4.9641 H   0  0  0  0  0  0  0  0  0  0  0  0
    6.9683   -1.2336   -5.8295 H   0  0  0  0  0  0  0  0  0  0  0  0
    7.8374    0.0481   -6.6262 H   0  0  0  0  0  0  0  0  0  0  0  0
    5.1865   -1.1237   -7.4682 H   0  0  0  0  0  0  0  0  0  0  0  0
    6.7168   -1.0988   -8.3380 H   0  0  0  0  0  0  0  0  0  0  0  0
    5.1498    0.5780   -9.2663 H   0  0  0  0  0  0  0  0  0  0  0  0
    6.5792    1.3624   -8.5932 H   0  0  0  0  0  0  0  0  0  0  0  0
    3.8855    1.0380   -7.1756 H   0  0  0  0  0  0  0  0  0  0  0  0
    4.4871    2.5268   -7.9012 H   0  0  0  0  0  0  0  0  0  0  0  0
    4.8128    2.4389   -5.4245 H   0  0  0  0  0  0  0  0  0  0  0  0
    6.2817    2.7051   -6.3229 H   0  0  0  0  0  0  0  0  0  0  0  0
    7.3082    4.9037   -2.0398 H   0  0  0  0  0  0  0  0  0  0  0  0
    7.4659    6.3582   -1.0649 H   0  0  0  0  0  0  0  0  0  0  0  0
    6.1413    6.2182   -2.2360 H   0  0  0  0  0  0  0  0  0  0  0  0
    4.0913    6.6652    1.8045 H   0  0  0  0  0  0  0  0  0  0  0  0
    4.5680    4.5663    2.7687 H   0  0  0  0  0  0  0  0  0  0  0  0
    2.4950    3.9641   -0.3603 H   0  0  0  0  0  0  0  0  0  0  0  0
    0.1412    3.2672   -0.2543 H   0  0  0  0  0  0  0  0  0  0  0  0
   -1.0595    3.2398    1.9166 H   0  0  0  0  0  0  0  0  0  0  0  0
    0.0980    3.9721    3.9839 H   0  0  0  0  0  0  0  0  0  0  0  0
    2.4762    4.6248    3.9137 H   0  0  0  0  0  0  0  0  0  0  0  0
  1  2  1  0  0  0  0
  1 37  1  0  0  0  0
  1 38  1  0  0  0  0
  1 39  1  0  0  0  0
  2  3  1  0  0  0  0
  2 40  1  0  0  0  0
  2 41  1  0  0  0  0
  3  4  1  0  0  0  0
  4  5  2  0  0  0  0
  4  6  1  0  0  0  0
  6  7  2  0  0  0  0
  6 30  1  0  0  0  0
  7  8  1  0  0  0  0
  7 25  1  0  0  0  0
  8  9  1  0  0  0  0
  8 42  1  0  0  0  0
  8 43  1  0  0  0  0
  9 10  1  0  0  0  0
 10 11  2  0  0  0  0
 10 12  1  0  0  0  0
 12 13  1  0  0  0  0
 12 19  1  0  0  0  0
 13 14  1  0  0  0  0
 13 18  1  0  0  0  0
 13 44  1  0  0  0  0
 14 15  1  0  0  0  0
 14 45  1  0  0  0  0
 14 46  1  0  0  0  0
 15 16  1  0  0  0  0
 15 47  1  0  0  0  0
 15 48  1  0  0  0  0
 16 17  1  0  0  0  0
 16 49  1  0  0  0  0
 16 50  1  0  0  0  0
 17 18  1  0  0  0  0
 17 51  1  0  0  0  0
 17 52  1  0  0  0  0
 18 53  1  0  0  0  0
 18 54  1  0  0  0  0
 19 20  1  0  0  0  0
 19 24  1  0  0  0  0
 19 55  1  0  0  0  0
 20 21  1  0  0  0  0
 20 56  1  0  0  0  0
 20 57  1  0  0  0  0
 21 22  1  0  0  0  0
 21 58  1  0  0  0  0
 21 59  1  0  0  0  0
 22 23  1  0  0  0  0
 22 60  1  0  0  0  0
 22 61  1  0  0  0  0
 23 24  1  0  0  0  0
 23 62  1  0  0  0  0
 23 63  1  0  0  0  0
 24 64  1  0  0  0  0
 24 65  1  0  0  0  0
 25 26  1  0  0  0  0
 25 27  1  0  0  0  0
 26 66  1  0  0  0  0
 26 67  1  0  0  0  0
 26 68  1  0  0  0  0
 27 28  2  0  0  0  0
 27 29  1  0  0  0  0
 29 30  1  0  0  0  0
 29 69  1  0  0  0  0
 30 31  1  0  0  0  0
 30 70  1  0  0  0  0
 31 32  1  0  0  0  0
 31 36  2  0  0  0  0
 32 33  2  0  0  0  0
 32 71  1  0  0  0  0
 33 34  1  0  0  0  0
 33 72  1  0  0  0  0
 34 35  2  0  0  0  0
 34 73  1  0  0  0  0
 35 36  1  0  0  0  0
 35 74  1  0  0  0  0
 36 75  1  0  0  0  0
M  END
$$$$
