CHEMBL1242201
 OpenBabel04072215363D

 43 46  0  0  0  0  0  0  0  0999 V2000
    2.8511   -1.2567    0.4312 C   0  0  0  0  0  0  0  0  0  0  0  0
    2.3617    0.0142    0.8404 O   0  0  0  0  0  0  0  0  0  0  0  0
    3.1533    1.1012    0.5801 C   0  0  0  0  0  0  0  0  0  0  0  0
    4.3762    1.0509   -0.0872 C   0  0  0  0  0  0  0  0  0  0  0  0
    5.1285    2.2156   -0.2758 C   0  0  0  0  0  0  0  0  0  0  0  0
    4.6480    3.4647    0.1334 C   0  0  0  0  0  0  0  0  0  0  0  0
    5.4189    4.6913   -0.1054 C   0  0  0  0  0  0  0  0  0  0  0  0
    5.3536    5.7015    0.7842 N   0  0  0  0  0  0  0  0  0  0  0  0
    6.2224    6.6233    0.3187 N   0  0  0  0  0  0  0  0  0  0  0  0
    6.4743    7.8367    1.0679 C   0  0  0  0  0  0  0  0  0  0  0  0
    6.9965    7.5969    2.4860 C   0  0  0  0  0  0  0  0  0  0  0  0
    6.6773    8.8788    3.2525 C   0  0  0  0  0  0  0  0  0  0  0  0
    5.6566    9.6470    2.4143 C   0  0  0  0  0  0  0  0  0  0  0  0
    5.2361    8.7026    1.2957 C   0  0  0  0  0  0  0  0  0  0  0  0
    6.8060    6.2675   -0.8674 C   0  0  0  0  0  0  0  0  0  0  0  0
    7.7000    6.9824   -1.5697 N   0  0  0  0  0  0  0  0  0  0  0  0
    8.0745    6.3404   -2.6865 C   0  0  0  0  0  0  0  0  0  0  0  0
    7.6476    5.1481   -3.1354 N   0  0  0  0  0  0  0  0  0  0  0  0
    6.7410    4.4671   -2.4051 C   0  0  0  0  0  0  0  0  0  0  0  0
    6.3182    3.2618   -2.9484 N   0  0  0  0  0  0  0  0  0  0  0  0
    6.2908    5.0202   -1.1931 C   0  0  0  0  0  0  0  0  0  0  0  0
    3.4226    3.5152    0.8119 C   0  0  0  0  0  0  0  0  0  0  0  0
    2.6938    2.3429    1.0395 C   0  0  0  0  0  0  0  0  0  0  0  0
    1.5105    2.4030    1.7288 O   0  0  0  0  0  0  0  0  0  0  0  0
    2.1348   -2.0155    0.7593 H   0  0  0  0  0  0  0  0  0  0  0  0
    3.8132   -1.4846    0.9027 H   0  0  0  0  0  0  0  0  0  0  0  0
    2.9230   -1.3144   -0.6600 H   0  0  0  0  0  0  0  0  0  0  0  0
    4.7873    0.1207   -0.4644 H   0  0  0  0  0  0  0  0  0  0  0  0
    6.1075    2.1174   -0.7382 H   0  0  0  0  0  0  0  0  0  0  0  0
    7.2185    8.4260    0.5161 H   0  0  0  0  0  0  0  0  0  0  0  0
    8.0693    7.3745    2.4931 H   0  0  0  0  0  0  0  0  0  0  0  0
    6.4894    6.7508    2.9674 H   0  0  0  0  0  0  0  0  0  0  0  0
    7.5790    9.4834    3.3984 H   0  0  0  0  0  0  0  0  0  0  0  0
    6.2797    8.6441    4.2457 H   0  0  0  0  0  0  0  0  0  0  0  0
    6.1260   10.5446    1.9948 H   0  0  0  0  0  0  0  0  0  0  0  0
    4.8001    9.9747    3.0124 H   0  0  0  0  0  0  0  0  0  0  0  0
    4.9395    9.2470    0.3927 H   0  0  0  0  0  0  0  0  0  0  0  0
    4.3766    8.1039    1.6191 H   0  0  0  0  0  0  0  0  0  0  0  0
    8.8084    6.8456   -3.3081 H   0  0  0  0  0  0  0  0  0  0  0  0
    6.6221    3.1897   -3.9141 H   0  0  0  0  0  0  0  0  0  0  0  0
    5.3418    3.0463   -2.7884 H   0  0  0  0  0  0  0  0  0  0  0  0
    3.0470    4.4717    1.1670 H   0  0  0  0  0  0  0  0  0  0  0  0
    1.3929    3.3018    2.0743 H   0  0  0  0  0  0  0  0  0  0  0  0
  1  2  1  0  0  0  0
  1 25  1  0  0  0  0
  1 26  1  0  0  0  0
  1 27  1  0  0  0  0
  2  3  1  0  0  0  0
  3  4  1  0  0  0  0
  3 23  2  0  0  0  0
  4  5  2  0  0  0  0
  4 28  1  0  0  0  0
  5  6  1  0  0  0  0
  5 29  1  0  0  0  0
  6  7  1  0  0  0  0
  6 22  2  0  0  0  0
  7  8  2  0  0  0  0
  7 21  1  0  0  0  0
  8  9  1  0  0  0  0
  9 10  1  0  0  0  0
  9 15  1  0  0  0  0
 10 11  1  0  0  0  0
 10 14  1  0  0  0  0
 10 30  1  0  0  0  0
 11 12  1  0  0  0  0
 11 31  1  0  0  0  0
 11 32  1  0  0  0  0
 12 13  1  0  0  0  0
 12 33  1  0  0  0  0
 12 34  1  0  0  0  0
 13 14  1  0  0  0  0
 13 35  1  0  0  0  0
 13 36  1  0  0  0  0
 14 37  1  0  0  0  0
 14 38  1  0  0  0  0
 15 16  1  0  0  0  0
 15 21  2  0  0  0  0
 16 17  2  0  0  0  0
 17 18  1  0  0  0  0
 17 39  1  0  0  0  0
 18 19  2  0  0  0  0
 19 20  1  0  0  0  0
 19 21  1  0  0  0  0
 20 40  1  0  0  0  0
 20 41  1  0  0  0  0
 22 23  1  0  0  0  0
 22 42  1  0  0  0  0
 23 24  1  0  0  0  0
 24 43  1  0  0  0  0
M  END
$$$$
