CHEMBL3323595
 OpenBabel04072215363D

 45 49  0  0  0  0  0  0  0  0999 V2000
    2.5298    0.1082    0.0125 C   0  0  0  0  0  0  0  0  0  0  0  0
    1.0301    0.0922   -0.0192 C   0  0  0  0  0  0  0  0  0  0  0  0
    0.3363    0.1691   -1.2302 C   0  0  0  0  0  0  0  0  0  0  0  0
   -1.0618    0.1397   -1.2487 C   0  0  0  0  0  0  0  0  0  0  0  0
   -1.7878    0.0312   -0.0552 C   0  0  0  0  0  0  0  0  0  0  0  0
   -3.2491   -0.0048   -0.0450 C   0  0  0  0  0  0  0  0  0  0  0  0
   -4.0158   -0.5851    0.8611 N   0  0  0  0  0  0  0  0  0  0  0  0
   -5.3093   -0.3648    0.4622 C   0  0  0  0  0  0  0  0  0  0  0  0
   -6.5155   -0.7722    1.0457 C   0  0  0  0  0  0  0  0  0  0  0  0
   -7.7180   -0.3938    0.4289 C   0  0  0  0  0  0  0  0  0  0  0  0
   -7.7312    0.3623   -0.7532 C   0  0  0  0  0  0  0  0  0  0  0  0
   -8.9823    0.7413   -1.2963 N   0  0  0  0  0  0  0  0  0  0  0  0
   -9.3129    0.9709   -2.6592 C   0  0  0  0  0  0  0  0  0  0  0  0
   -8.6860    0.2094   -3.6524 C   0  0  0  0  0  0  0  0  0  0  0  0
   -9.0649    0.3773   -4.9666 C   0  0  0  0  0  0  0  0  0  0  0  0
  -10.0344    1.2216   -5.3608 N   0  0  0  0  0  0  0  0  0  0  0  0
  -10.6681    1.9377   -4.4201 C   0  0  0  0  0  0  0  0  0  0  0  0
  -11.6944    2.7736   -4.8373 C   0  0  0  0  0  0  0  0  0  0  0  0
  -12.4141    3.5664   -3.9427 C   0  0  0  0  0  0  0  0  0  0  0  0
  -12.0955    3.5374   -2.5950 C   0  0  0  0  0  0  0  0  0  0  0  0
  -11.0733    2.7001   -2.1472 C   0  0  0  0  0  0  0  0  0  0  0  0
  -10.3478    1.8706   -3.0422 C   0  0  0  0  0  0  0  0  0  0  0  0
   -6.5237    0.7894   -1.3265 C   0  0  0  0  0  0  0  0  0  0  0  0
   -5.3435    0.3925   -0.6985 C   0  0  0  0  0  0  0  0  0  0  0  0
   -4.0268    0.6141   -0.9960 N   0  0  0  0  0  0  0  0  0  0  0  0
   -1.0875   -0.0541    1.1536 C   0  0  0  0  0  0  0  0  0  0  0  0
    0.3078   -0.0207    1.1726 C   0  0  0  0  0  0  0  0  0  0  0  0
    2.9504    0.2209   -0.9932 H   0  0  0  0  0  0  0  0  0  0  0  0
    2.9059   -0.8317    0.4298 H   0  0  0  0  0  0  0  0  0  0  0  0
    2.8865    0.9436    0.6211 H   0  0  0  0  0  0  0  0  0  0  0  0
    0.8770    0.2428   -2.1714 H   0  0  0  0  0  0  0  0  0  0  0  0
   -1.5635    0.1739   -2.2094 H   0  0  0  0  0  0  0  0  0  0  0  0
   -6.5103   -1.3688    1.9508 H   0  0  0  0  0  0  0  0  0  0  0  0
   -8.6566   -0.7184    0.8725 H   0  0  0  0  0  0  0  0  0  0  0  0
   -9.4539    1.3631   -0.6495 H   0  0  0  0  0  0  0  0  0  0  0  0
   -7.9284   -0.5268   -3.4077 H   0  0  0  0  0  0  0  0  0  0  0  0
   -8.5941   -0.1940   -5.7612 H   0  0  0  0  0  0  0  0  0  0  0  0
  -11.9458    2.8031   -5.8956 H   0  0  0  0  0  0  0  0  0  0  0  0
  -13.2172    4.2023   -4.3064 H   0  0  0  0  0  0  0  0  0  0  0  0
  -12.6413    4.1598   -1.8904 H   0  0  0  0  0  0  0  0  0  0  0  0
  -10.8525    2.7134   -1.0848 H   0  0  0  0  0  0  0  0  0  0  0  0
   -6.5039    1.4114   -2.2148 H   0  0  0  0  0  0  0  0  0  0  0  0
   -3.6805    1.1518   -1.7750 H   0  0  0  0  0  0  0  0  0  0  0  0
   -1.6343   -0.1468    2.0912 H   0  0  0  0  0  0  0  0  0  0  0  0
    0.8273   -0.0857    2.1273 H   0  0  0  0  0  0  0  0  0  0  0  0
  1  2  1  0  0  0  0
  1 28  1  0  0  0  0
  1 29  1  0  0  0  0
  1 30  1  0  0  0  0
  2  3  1  0  0  0  0
  2 27  2  0  0  0  0
  3  4  2  0  0  0  0
  3 31  1  0  0  0  0
  4  5  1  0  0  0  0
  4 32  1  0  0  0  0
  5  6  1  0  0  0  0
  5 26  2  0  0  0  0
  6  7  2  0  0  0  0
  6 25  1  0  0  0  0
  7  8  1  0  0  0  0
  8  9  1  0  0  0  0
  8 24  2  0  0  0  0
  9 10  2  0  0  0  0
  9 33  1  0  0  0  0
 10 11  1  0  0  0  0
 10 34  1  0  0  0  0
 11 12  1  0  0  0  0
 11 23  2  0  0  0  0
 12 13  1  0  0  0  0
 12 35  1  0  0  0  0
 13 14  1  0  0  0  0
 13 22  2  0  0  0  0
 14 15  2  0  0  0  0
 14 36  1  0  0  0  0
 15 16  1  0  0  0  0
 15 37  1  0  0  0  0
 16 17  2  0  0  0  0
 17 18  1  0  0  0  0
 17 22  1  0  0  0  0
 18 19  2  0  0  0  0
 18 38  1  0  0  0  0
 19 20  1  0  0  0  0
 19 39  1  0  0  0  0
 20 21  2  0  0  0  0
 20 40  1  0  0  0  0
 21 22  1  0  0  0  0
 21 41  1  0  0  0  0
 23 24  1  0  0  0  0
 23 42  1  0  0  0  0
 24 25  1  0  0  0  0
 25 43  1  0  0  0  0
 26 27  1  0  0  0  0
 26 44  1  0  0  0  0
 27 45  1  0  0  0  0
M  END
$$$$
