CHEMBL3895129
 OpenBabel04072215373D

 58 61  0  0  1  0  0  0  0  0999 V2000
    3.5449   -1.1642    0.0848 C   0  0  0  0  0  0  0  0  0  0  0  0
    2.6554   -0.0572    0.2408 O   0  0  0  0  0  0  0  0  0  0  0  0
    3.2321    1.1797    0.3248 C   0  0  0  0  0  0  0  0  0  0  0  0
    4.2414    1.5248   -0.5765 C   0  0  0  0  0  0  0  0  0  0  0  0
    4.8831    2.7786   -0.5114 C   0  0  0  0  0  0  0  0  0  0  0  0
    5.9703    3.1380   -1.3242 C   0  0  0  0  0  0  0  0  0  0  0  0
    6.4024    2.2391   -2.3297 N   0  0  0  0  0  0  0  0  0  0  0  0
    7.7082    1.9930   -2.7863 C   0  0  0  0  0  0  0  0  0  0  0  0
    8.8248    2.1855   -1.9623 C   0  0  0  0  0  0  0  0  0  0  0  0
   10.0916    1.7596   -2.3678 C   0  0  0  0  0  0  0  0  0  0  0  0
   10.2514    1.1482   -3.6075 C   0  0  0  0  0  0  0  0  0  0  0  0
   11.4702    0.7059   -3.9499 F   0  0  0  0  0  0  0  0  0  0  0  0
    9.1675    0.9790   -4.4626 C   0  0  0  0  0  0  0  0  0  0  0  0
    9.3770    0.2324   -6.0001 Cl  0  0  0  0  0  0  0  0  0  0  0  0
    7.9051    1.3961   -4.0433 C   0  0  0  0  0  0  0  0  0  0  0  0
    6.8357    1.2126   -4.8393 F   0  0  0  0  0  0  0  0  0  0  0  0
    6.6181    4.3032   -1.1729 N   0  0  0  0  0  0  0  0  0  0  0  0
    6.1407    5.1284   -0.2353 C   0  0  0  0  0  0  0  0  0  0  0  0
    5.0979    4.8971    0.5733 N   0  0  0  0  0  0  0  0  0  0  0  0
    4.4848    3.7157    0.4430 C   0  0  0  0  0  0  0  0  0  0  0  0
    3.4185    3.3914    1.2824 C   0  0  0  0  0  0  0  0  0  0  0  0
    2.7795    2.1416    1.2448 C   0  0  0  0  0  0  0  0  0  0  0  0
    1.7609    2.0211    2.1696 O   0  0  0  0  0  0  0  0  0  0  0  0
    1.1539    0.7336    2.2584 C   0  0  0  0  0  0  0  0  0  0  0  0
    0.1366    0.6003    3.4011 C   0  0  3  0  0  0  0  0  0  0  0  0
    0.7602    0.7690    4.7981 C   0  0  0  0  0  0  0  0  0  0  0  0
    1.6578   -0.3496    5.1643 N   0  0  0  0  0  0  0  0  0  0  0  0
    2.2550   -0.0996    6.4747 C   0  0  0  0  0  0  0  0  0  0  0  0
    0.9811   -1.6716    5.0106 C   0  0  0  0  0  0  0  0  0  0  0  0
    2.0267   -2.8026    5.1189 C   0  0  0  0  0  0  0  0  0  0  0  0
   -0.1324   -1.9276    6.0493 C   0  0  0  0  0  0  0  0  0  0  0  0
    0.3375   -1.7706    3.5934 C   0  0  0  0  0  0  0  0  0  0  0  0
   -0.5470   -0.6720    3.3157 O   0  0  0  0  0  0  0  0  0  0  0  0
    3.3482   -1.8794    0.8899 H   0  0  0  0  0  0  0  0  0  0  0  0
    4.6093   -0.9089    0.1277 H   0  0  0  0  0  0  0  0  0  0  0  0
    3.3227   -1.6508   -0.8691 H   0  0  0  0  0  0  0  0  0  0  0  0
    4.5550    0.8014   -1.3232 H   0  0  0  0  0  0  0  0  0  0  0  0
    5.6829    2.0945   -3.0342 H   0  0  0  0  0  0  0  0  0  0  0  0
    8.7108    2.6350   -0.9784 H   0  0  0  0  0  0  0  0  0  0  0  0
   10.9480    1.8812   -1.7114 H   0  0  0  0  0  0  0  0  0  0  0  0
    6.6507    6.0791   -0.1171 H   0  0  0  0  0  0  0  0  0  0  0  0
    3.0918    4.1294    2.0145 H   0  0  0  0  0  0  0  0  0  0  0  0
    1.9413   -0.0052    2.4234 H   0  0  0  0  0  0  0  0  0  0  0  0
    0.6188    0.5193    1.3253 H   0  0  0  0  0  0  0  0  0  0  0  0
   -0.6286    1.3767    3.2799 H   0  0  0  0  0  0  0  0  0  0  0  0
   -0.0485    0.8472    5.5361 H   0  0  0  0  0  0  0  0  0  0  0  0
    1.3103    1.7172    4.8300 H   0  0  0  0  0  0  0  0  0  0  0  0
    2.7814    0.8623    6.4719 H   0  0  0  0  0  0  0  0  0  0  0  0
    3.0122   -0.8489    6.7220 H   0  0  0  0  0  0  0  0  0  0  0  0
    1.5139   -0.0680    7.2796 H   0  0  0  0  0  0  0  0  0  0  0  0
    2.4227   -2.9016    6.1352 H   0  0  0  0  0  0  0  0  0  0  0  0
    2.8728   -2.6289    4.4430 H   0  0  0  0  0  0  0  0  0  0  0  0
    1.5887   -3.7714    4.8515 H   0  0  0  0  0  0  0  0  0  0  0  0
    0.2561   -1.9510    7.0717 H   0  0  0  0  0  0  0  0  0  0  0  0
   -0.6087   -2.8991    5.8677 H   0  0  0  0  0  0  0  0  0  0  0  0
   -0.9240   -1.1733    6.0008 H   0  0  0  0  0  0  0  0  0  0  0  0
   -0.2564   -2.6880    3.5060 H   0  0  0  0  0  0  0  0  0  0  0  0
    1.0992   -1.8441    2.8080 H   0  0  0  0  0  0  0  0  0  0  0  0
  1  2  1  0  0  0  0
  1 34  1  0  0  0  0
  1 35  1  0  0  0  0
  1 36  1  0  0  0  0
  2  3  1  0  0  0  0
  3  4  1  0  0  0  0
  3 22  2  0  0  0  0
  4  5  2  0  0  0  0
  4 37  1  0  0  0  0
  5  6  1  0  0  0  0
  5 20  1  0  0  0  0
  6  7  1  0  0  0  0
  6 17  2  0  0  0  0
  7  8  1  0  0  0  0
  7 38  1  0  0  0  0
  8  9  1  0  0  0  0
  8 15  2  0  0  0  0
  9 10  2  0  0  0  0
  9 39  1  0  0  0  0
 10 11  1  0  0  0  0
 10 40  1  0  0  0  0
 11 12  1  0  0  0  0
 11 13  2  0  0  0  0
 13 14  1  0  0  0  0
 13 15  1  0  0  0  0
 15 16  1  0  0  0  0
 17 18  1  0  0  0  0
 18 19  2  0  0  0  0
 18 41  1  0  0  0  0
 19 20  1  0  0  0  0
 20 21  2  0  0  0  0
 21 22  1  0  0  0  0
 21 42  1  0  0  0  0
 22 23  1  0  0  0  0
 23 24  1  0  0  0  0
 24 25  1  0  0  0  0
 24 43  1  0  0  0  0
 24 44  1  0  0  0  0
 25 26  1  0  0  0  0
 25 33  1  0  0  0  0
 25 45  1  0  0  0  0
 26 27  1  0  0  0  0
 26 46  1  0  0  0  0
 26 47  1  0  0  0  0
 27 28  1  0  0  0  0
 27 29  1  0  0  0  0
 28 48  1  0  0  0  0
 28 49  1  0  0  0  0
 28 50  1  0  0  0  0
 29 30  1  0  0  0  0
 29 31  1  0  0  0  0
 29 32  1  0  0  0  0
 30 51  1  0  0  0  0
 30 52  1  0  0  0  0
 30 53  1  0  0  0  0
 31 54  1  0  0  0  0
 31 55  1  0  0  0  0
 31 56  1  0  0  0  0
 32 33  1  0  0  0  0
 32 57  1  0  0  0  0
 32 58  1  0  0  0  0
M  END
$$$$
