CHEMBL3905242
 OpenBabel04072215373D

 75 79  0  0  0  0  0  0  0  0999 V2000
    2.4382    0.0112    1.2227 C   0  0  0  0  0  0  0  0  0  0  0  0
    2.5589    0.2455   -0.1784 O   0  0  0  0  0  0  0  0  0  0  0  0
    3.2418   -0.6471   -0.9543 C   0  0  0  0  0  0  0  0  0  0  0  0
    4.2618   -1.4423   -0.4487 C   0  0  0  0  0  0  0  0  0  0  0  0
    4.8940   -2.4289   -1.2360 C   0  0  0  0  0  0  0  0  0  0  0  0
    5.8582   -3.3187   -0.7420 C   0  0  0  0  0  0  0  0  0  0  0  0
    6.2369   -3.2325    0.6273 N   0  0  0  0  0  0  0  0  0  0  0  0
    6.8972   -4.2330    1.3658 C   0  0  0  0  0  0  0  0  0  0  0  0
    7.8208   -3.8747    2.3460 C   0  0  0  0  0  0  0  0  0  0  0  0
    8.5363   -4.8545    3.0378 C   0  0  0  0  0  0  0  0  0  0  0  0
    8.3224   -6.2148    2.7988 C   0  0  0  0  0  0  0  0  0  0  0  0
    9.0917   -7.2447    3.3884 N   0  0  0  0  0  0  0  0  0  0  0  0
   10.0906   -7.0737    4.3196 C   0  0  0  0  0  0  0  0  0  0  0  0
   10.3532   -6.0161    4.8875 O   0  0  0  0  0  0  0  0  0  0  0  0
   10.8290   -8.2369    4.5220 N   0  0  0  0  0  0  0  0  0  0  0  0
   11.9137   -8.2297    5.4314 C   0  0  0  0  0  0  0  0  0  0  0  0
   11.7885   -7.6461    6.6979 C   0  0  0  0  0  0  0  0  0  0  0  0
   12.8940   -7.5421    7.5425 C   0  0  0  0  0  0  0  0  0  0  0  0
   14.1284   -8.0214    7.1161 C   0  0  0  0  0  0  0  0  0  0  0  0
   15.5080   -7.8419    8.1279 Cl  0  0  0  0  0  0  0  0  0  0  0  0
   14.2553   -8.6349    5.8691 C   0  0  0  0  0  0  0  0  0  0  0  0
   13.1404   -8.7634    5.0335 C   0  0  0  0  0  0  0  0  0  0  0  0
    7.3244   -6.5758    1.8931 C   0  0  0  0  0  0  0  0  0  0  0  0
    6.6135   -5.5918    1.1934 C   0  0  0  0  0  0  0  0  0  0  0  0
    6.4240   -4.2549   -1.5230 N   0  0  0  0  0  0  0  0  0  0  0  0
    6.0224   -4.2960   -2.7963 C   0  0  0  0  0  0  0  0  0  0  0  0
    5.0986   -3.5116   -3.3626 N   0  0  0  0  0  0  0  0  0  0  0  0
    4.5350   -2.5891   -2.5778 C   0  0  0  0  0  0  0  0  0  0  0  0
    3.5672   -1.7368   -3.0999 C   0  0  0  0  0  0  0  0  0  0  0  0
    2.9419   -0.7474   -2.3275 C   0  0  0  0  0  0  0  0  0  0  0  0
    2.0817    0.0546   -3.0477 O   0  0  0  0  0  0  0  0  0  0  0  0
    1.9106    1.3676   -2.5199 C   0  0  0  0  0  0  0  0  0  0  0  0
    1.5933    2.3926   -3.6075 C   0  0  0  0  0  0  0  0  0  0  0  0
    1.5057    3.7663   -2.9247 C   0  0  0  0  0  0  0  0  0  0  0  0
    1.3053    4.9121   -3.8138 N   0  0  0  0  0  0  0  0  0  0  0  0
    0.0256    4.8621   -4.5416 C   0  0  0  0  0  0  0  0  0  0  0  0
   -0.1588    6.1082   -5.4423 C   0  0  0  0  0  0  0  0  0  0  0  0
   -0.0614    7.4071   -4.7475 N   0  0  0  0  0  0  0  0  0  0  0  0
   -1.2589    7.6921   -3.9627 C   0  0  0  0  0  0  0  0  0  0  0  0
    1.1568    7.4238   -3.9150 C   0  0  0  0  0  0  0  0  0  0  0  0
    1.3649    6.1692   -3.0338 C   0  0  0  0  0  0  0  0  0  0  0  0
    2.6593    0.9541    1.7362 H   0  0  0  0  0  0  0  0  0  0  0  0
    3.0865   -0.7557    1.6447 H   0  0  0  0  0  0  0  0  0  0  0  0
    1.4061   -0.2687    1.4453 H   0  0  0  0  0  0  0  0  0  0  0  0
    4.6080   -1.3040    0.5677 H   0  0  0  0  0  0  0  0  0  0  0  0
    6.6223   -2.3107    0.8051 H   0  0  0  0  0  0  0  0  0  0  0  0
    8.0328   -2.8312    2.5631 H   0  0  0  0  0  0  0  0  0  0  0  0
    9.2759   -4.5034    3.7515 H   0  0  0  0  0  0  0  0  0  0  0  0
    8.8497   -8.1959    3.1483 H   0  0  0  0  0  0  0  0  0  0  0  0
   10.9405   -8.8035    3.6932 H   0  0  0  0  0  0  0  0  0  0  0  0
   10.8328   -7.2450    7.0300 H   0  0  0  0  0  0  0  0  0  0  0  0
   12.7854   -7.0644    8.5122 H   0  0  0  0  0  0  0  0  0  0  0  0
   15.2256   -8.9895    5.5320 H   0  0  0  0  0  0  0  0  0  0  0  0
   13.2666   -9.2092    4.0513 H   0  0  0  0  0  0  0  0  0  0  0  0
    7.0919   -7.6170    1.6936 H   0  0  0  0  0  0  0  0  0  0  0  0
    5.8428   -5.8980    0.4899 H   0  0  0  0  0  0  0  0  0  0  0  0
    6.4952   -5.0391   -3.4306 H   0  0  0  0  0  0  0  0  0  0  0  0
    3.2969   -1.8397   -4.1498 H   0  0  0  0  0  0  0  0  0  0  0  0
    2.8304    1.7090   -2.0310 H   0  0  0  0  0  0  0  0  0  0  0  0
    1.0813    1.3463   -1.8045 H   0  0  0  0  0  0  0  0  0  0  0  0
    0.6595    2.1203   -4.1117 H   0  0  0  0  0  0  0  0  0  0  0  0
    2.3793    2.3828   -4.3723 H   0  0  0  0  0  0  0  0  0  0  0  0
    2.4586    3.9228   -2.3993 H   0  0  0  0  0  0  0  0  0  0  0  0
    0.7244    3.7376   -2.1533 H   0  0  0  0  0  0  0  0  0  0  0  0
   -0.8155    4.7811   -3.8407 H   0  0  0  0  0  0  0  0  0  0  0  0
   -0.0061    3.9817   -5.1912 H   0  0  0  0  0  0  0  0  0  0  0  0
   -1.1141    6.0356   -5.9756 H   0  0  0  0  0  0  0  0  0  0  0  0
    0.6148    6.0866   -6.2206 H   0  0  0  0  0  0  0  0  0  0  0  0
   -2.1446    7.6971   -4.6086 H   0  0  0  0  0  0  0  0  0  0  0  0
   -1.1943    8.6934   -3.5223 H   0  0  0  0  0  0  0  0  0  0  0  0
   -1.4314    6.9745   -3.1543 H   0  0  0  0  0  0  0  0  0  0  0  0
    1.1741    8.3199   -3.2843 H   0  0  0  0  0  0  0  0  0  0  0  0
    2.0227    7.5192   -4.5854 H   0  0  0  0  0  0  0  0  0  0  0  0
    0.6120    6.1590   -2.2332 H   0  0  0  0  0  0  0  0  0  0  0  0
    2.3449    6.2557   -2.5482 H   0  0  0  0  0  0  0  0  0  0  0  0
  1  2  1  0  0  0  0
  1 42  1  0  0  0  0
  1 43  1  0  0  0  0
  1 44  1  0  0  0  0
  2  3  1  0  0  0  0
  3  4  1  0  0  0  0
  3 30  2  0  0  0  0
  4  5  2  0  0  0  0
  4 45  1  0  0  0  0
  5  6  1  0  0  0  0
  5 28  1  0  0  0  0
  6  7  1  0  0  0  0
  6 25  2  0  0  0  0
  7  8  1  0  0  0  0
  7 46  1  0  0  0  0
  8  9  1  0  0  0  0
  8 24  2  0  0  0  0
  9 10  2  0  0  0  0
  9 47  1  0  0  0  0
 10 11  1  0  0  0  0
 10 48  1  0  0  0  0
 11 12  1  0  0  0  0
 11 23  2  0  0  0  0
 12 13  1  0  0  0  0
 12 49  1  0  0  0  0
 13 14  2  0  0  0  0
 13 15  1  0  0  0  0
 15 16  1  0  0  0  0
 15 50  1  0  0  0  0
 16 17  1  0  0  0  0
 16 22  2  0  0  0  0
 17 18  2  0  0  0  0
 17 51  1  0  0  0  0
 18 19  1  0  0  0  0
 18 52  1  0  0  0  0
 19 20  1  0  0  0  0
 19 21  2  0  0  0  0
 21 22  1  0  0  0  0
 21 53  1  0  0  0  0
 22 54  1  0  0  0  0
 23 24  1  0  0  0  0
 23 55  1  0  0  0  0
 24 56  1  0  0  0  0
 25 26  1  0  0  0  0
 26 27  2  0  0  0  0
 26 57  1  0  0  0  0
 27 28  1  0  0  0  0
 28 29  2  0  0  0  0
 29 30  1  0  0  0  0
 29 58  1  0  0  0  0
 30 31  1  0  0  0  0
 31 32  1  0  0  0  0
 32 33  1  0  0  0  0
 32 59  1  0  0  0  0
 32 60  1  0  0  0  0
 33 34  1  0  0  0  0
 33 61  1  0  0  0  0
 33 62  1  0  0  0  0
 34 35  1  0  0  0  0
 34 63  1  0  0  0  0
 34 64  1  0  0  0  0
 35 36  1  0  0  0  0
 35 41  1  0  0  0  0
 36 37  1  0  0  0  0
 36 65  1  0  0  0  0
 36 66  1  0  0  0  0
 37 38  1  0  0  0  0
 37 67  1  0  0  0  0
 37 68  1  0  0  0  0
 38 39  1  0  0  0  0
 38 40  1  0  0  0  0
 39 69  1  0  0  0  0
 39 70  1  0  0  0  0
 39 71  1  0  0  0  0
 40 41  1  0  0  0  0
 40 72  1  0  0  0  0
 40 73  1  0  0  0  0
 41 74  1  0  0  0  0
 41 75  1  0  0  0  0
M  END
$$$$
