CHEMBL474709
 OpenBabel04072215383D

 41 44  0  0  0  0  0  0  0  0999 V2000
    1.0132   -0.0340    0.5932 O   0  0  0  0  0  0  0  0  0  0  0  0
    2.0967   -0.0133    0.0121 C   0  0  0  0  0  0  0  0  0  0  0  0
    2.6966   -1.0729   -0.6418 N   0  0  0  0  0  0  0  0  0  0  0  0
    2.1160   -2.3404   -0.7393 C   0  0  0  0  0  0  0  0  0  0  0  0
    2.9159   -3.4145   -1.0959 C   0  0  0  0  0  0  0  0  0  0  0  0
    2.3540   -4.6915   -1.0866 C   0  0  0  0  0  0  0  0  0  0  0  0
    1.0010   -4.8579   -0.7575 C   0  0  0  0  0  0  0  0  0  0  0  0
    0.3773   -6.1180   -0.7068 C   0  0  0  0  0  0  0  0  0  0  0  0
   -0.9782   -6.2214   -0.3914 C   0  0  0  0  0  0  0  0  0  0  0  0
   -1.7161   -5.0722   -0.1295 C   0  0  0  0  0  0  0  0  0  0  0  0
   -1.0899   -3.8257   -0.1676 C   0  0  0  0  0  0  0  0  0  0  0  0
    0.2583   -3.7011   -0.4674 C   0  0  0  0  0  0  0  0  0  0  0  0
    0.8097   -2.4832   -0.4600 N   0  0  0  0  0  0  0  0  0  0  0  0
    2.9135    1.2152    0.0275 C   0  0  0  0  0  0  0  0  0  0  0  0
    4.0143    1.3180   -0.7344 N   0  0  0  0  0  0  0  0  0  0  0  0
    4.6602    2.8335   -0.5343 S   0  0  0  0  0  0  0  0  0  0  0  0
    3.5084    3.3839    0.6019 C   0  0  0  0  0  0  0  0  0  0  0  0
    2.6029    2.3756    0.8377 C   0  0  0  0  0  0  0  0  0  0  0  0
    1.5802    2.4064    1.7386 N   0  0  0  0  0  0  0  0  0  0  0  0
    0.8421    3.5959    2.1123 C   0  0  0  0  0  0  0  0  0  0  0  0
    0.9178    3.7951    3.6043 C   0  0  0  0  0  0  0  0  0  0  0  0
    2.1504    4.0137    4.2284 C   0  0  0  0  0  0  0  0  0  0  0  0
    2.1810    4.2191    5.5977 C   0  0  0  0  0  0  0  0  0  0  0  0
    1.0820    4.2269    6.3798 N   0  0  0  0  0  0  0  0  0  0  0  0
   -0.0982    4.0032    5.7639 C   0  0  0  0  0  0  0  0  0  0  0  0
   -0.2317    3.7853    4.4000 C   0  0  0  0  0  0  0  0  0  0  0  0
    3.6437   -0.9258   -0.9653 H   0  0  0  0  0  0  0  0  0  0  0  0
    3.9660   -3.2864   -1.3322 H   0  0  0  0  0  0  0  0  0  0  0  0
    2.9749   -5.5517   -1.3223 H   0  0  0  0  0  0  0  0  0  0  0  0
    0.9449   -7.0228   -0.9084 H   0  0  0  0  0  0  0  0  0  0  0  0
   -1.4583   -7.1955   -0.3511 H   0  0  0  0  0  0  0  0  0  0  0  0
   -2.7739   -5.1373    0.1109 H   0  0  0  0  0  0  0  0  0  0  0  0
   -1.6621   -2.9255    0.0470 H   0  0  0  0  0  0  0  0  0  0  0  0
    3.5738    4.3680    1.0406 H   0  0  0  0  0  0  0  0  0  0  0  0
    0.9976    1.5603    1.8030 H   0  0  0  0  0  0  0  0  0  0  0  0
   -0.2019    3.4624    1.8021 H   0  0  0  0  0  0  0  0  0  0  0  0
    1.1992    4.5000    1.6065 H   0  0  0  0  0  0  0  0  0  0  0  0
    3.0736    4.0099    3.6598 H   0  0  0  0  0  0  0  0  0  0  0  0
    3.1211    4.3870    6.1148 H   0  0  0  0  0  0  0  0  0  0  0  0
   -0.9656    4.0045    6.4179 H   0  0  0  0  0  0  0  0  0  0  0  0
   -1.2152    3.6092    3.9774 H   0  0  0  0  0  0  0  0  0  0  0  0
  1  2  2  0  0  0  0
  2  3  1  0  0  0  0
  2 14  1  0  0  0  0
  3  4  1  0  0  0  0
  3 27  1  0  0  0  0
  4  5  1  0  0  0  0
  4 13  2  0  0  0  0
  5  6  2  0  0  0  0
  5 28  1  0  0  0  0
  6  7  1  0  0  0  0
  6 29  1  0  0  0  0
  7  8  1  0  0  0  0
  7 12  2  0  0  0  0
  8  9  2  0  0  0  0
  8 30  1  0  0  0  0
  9 10  1  0  0  0  0
  9 31  1  0  0  0  0
 10 11  2  0  0  0  0
 10 32  1  0  0  0  0
 11 12  1  0  0  0  0
 11 33  1  0  0  0  0
 12 13  1  0  0  0  0
 14 15  2  0  0  0  0
 14 18  1  0  0  0  0
 15 16  1  0  0  0  0
 16 17  1  0  0  0  0
 17 18  2  0  0  0  0
 17 34  1  0  0  0  0
 18 19  1  0  0  0  0
 19 20  1  0  0  0  0
 19 35  1  0  0  0  0
 20 21  1  0  0  0  0
 20 36  1  0  0  0  0
 20 37  1  0  0  0  0
 21 22  1  0  0  0  0
 21 26  2  0  0  0  0
 22 23  2  0  0  0  0
 22 38  1  0  0  0  0
 23 24  1  0  0  0  0
 23 39  1  0  0  0  0
 24 25  2  0  0  0  0
 25 26  1  0  0  0  0
 25 40  1  0  0  0  0
 26 41  1  0  0  0  0
M  END
$$$$
