CHEMBL205658
 OpenBabel04072215363D

 32 34  0  0  0  0  0  0  0  0999 V2000
    2.4950    0.6048   -0.3106 C   0  0  0  0  0  0  0  0  0  0  0  0
    1.0707    0.2404   -0.1240 C   0  0  0  0  0  0  0  0  0  0  0  0
   -0.0543    1.0056    0.0744 C   0  0  0  0  0  0  0  0  0  0  0  0
   -1.1666    0.1248    0.1940 C   0  0  0  0  0  0  0  0  0  0  0  0
   -2.5776    0.5481    0.4129 C   0  0  0  0  0  0  0  0  0  0  0  0
   -0.6808   -1.1738    0.0682 C   0  0  0  0  0  0  0  0  0  0  0  0
   -1.3446   -2.4295    0.1169 C   0  0  0  0  0  0  0  0  0  0  0  0
   -0.8251   -3.6666    0.0096 C   0  0  0  0  0  0  0  0  0  0  0  0
    0.5590   -4.1374   -0.2362 C   0  0  0  0  0  0  0  0  0  0  0  0
    1.5918   -3.4913   -0.2714 O   0  0  0  0  0  0  0  0  0  0  0  0
    0.4269   -5.5015   -0.4117 N   0  0  0  0  0  0  0  0  0  0  0  0
   -0.8409   -5.9886   -0.2156 N   0  0  0  0  0  0  0  0  0  0  0  0
   -1.5779   -4.9449    0.0496 C   0  0  0  0  0  0  0  0  0  0  0  0
   -2.9702   -5.0572    0.3718 C   0  0  0  0  0  0  0  0  0  0  0  0
   -3.8089   -4.2462    1.1855 C   0  0  0  0  0  0  0  0  0  0  0  0
   -5.0575   -4.8180    1.1612 C   0  0  0  0  0  0  0  0  0  0  0  0
   -5.0496   -5.9347    0.3949 O   0  0  0  0  0  0  0  0  0  0  0  0
   -3.7857   -6.0798   -0.0761 C   0  0  0  0  0  0  0  0  0  0  0  0
    0.6736   -1.0699   -0.1330 N   0  0  0  0  0  0  0  0  0  0  0  0
    2.6354    1.6877   -0.2548 H   0  0  0  0  0  0  0  0  0  0  0  0
    2.8523    0.2636   -1.2881 H   0  0  0  0  0  0  0  0  0  0  0  0
    3.1145    0.1398    0.4631 H   0  0  0  0  0  0  0  0  0  0  0  0
   -0.0763    2.0869    0.1275 H   0  0  0  0  0  0  0  0  0  0  0  0
   -2.6533    1.6358    0.5122 H   0  0  0  0  0  0  0  0  0  0  0  0
   -2.9779    0.0979    1.3266 H   0  0  0  0  0  0  0  0  0  0  0  0
   -3.2039    0.2420   -0.4314 H   0  0  0  0  0  0  0  0  0  0  0  0
   -2.4143   -2.3331    0.2471 H   0  0  0  0  0  0  0  0  0  0  0  0
    1.2076   -6.1274   -0.5770 H   0  0  0  0  0  0  0  0  0  0  0  0
   -3.5499   -3.3526    1.7356 H   0  0  0  0  0  0  0  0  0  0  0  0
   -6.0059   -4.5630    1.6114 H   0  0  0  0  0  0  0  0  0  0  0  0
   -3.6221   -6.9297   -0.7217 H   0  0  0  0  0  0  0  0  0  0  0  0
    1.3114   -1.8471   -0.2652 H   0  0  0  0  0  0  0  0  0  0  0  0
  1  2  1  0  0  0  0
  1 20  1  0  0  0  0
  1 21  1  0  0  0  0
  1 22  1  0  0  0  0
  2  3  2  0  0  0  0
  2 19  1  0  0  0  0
  3  4  1  0  0  0  0
  3 23  1  0  0  0  0
  4  5  1  0  0  0  0
  4  6  2  0  0  0  0
  5 24  1  0  0  0  0
  5 25  1  0  0  0  0
  5 26  1  0  0  0  0
  6  7  1  0  0  0  0
  6 19  1  0  0  0  0
  7  8  2  0  0  0  0
  7 27  1  0  0  0  0
  8  9  1  0  0  0  0
  8 13  1  0  0  0  0
  9 10  2  0  0  0  0
  9 11  1  0  0  0  0
 11 12  1  0  0  0  0
 11 28  1  0  0  0  0
 12 13  2  0  0  0  0
 13 14  1  0  0  0  0
 14 15  1  0  0  0  0
 14 18  2  0  0  0  0
 15 16  2  0  0  0  0
 15 29  1  0  0  0  0
 16 17  1  0  0  0  0
 16 30  1  0  0  0  0
 17 18  1  0  0  0  0
 18 31  1  0  0  0  0
 19 32  1  0  0  0  0
M  END
$$$$
