CHEMBL231269
 OpenBabel04072215363D

 66 70  0  0  1  0  0  0  0  0999 V2000
    6.1581   -6.0244    9.3000 C   0  0  0  0  0  0  0  0  0  0  0  0
    6.0417   -5.7571    7.8910 N   0  0  0  0  0  0  0  0  0  0  0  0
    6.4439   -4.5539    7.3492 C   0  0  0  0  0  0  0  0  0  0  0  0
    6.9264   -3.6416    8.0117 O   0  0  0  0  0  0  0  0  0  0  0  0
    6.2605   -4.4298    5.8653 C   0  0  0  0  0  0  0  0  0  0  0  0
    6.7096   -3.2856    5.2220 C   0  0  0  0  0  0  0  0  0  0  0  0
    6.4824   -3.1706    3.8509 C   0  0  0  0  0  0  0  0  0  0  0  0
    6.8579   -2.0797    3.0901 O   0  0  0  0  0  0  0  0  0  0  0  0
    6.7611   -0.8187    3.6440 C   0  0  0  0  0  0  0  0  0  0  0  0
    7.6974    0.1360    3.2240 C   0  0  0  0  0  0  0  0  0  0  0  0
    7.7395    1.4196    3.7881 C   0  0  0  0  0  0  0  0  0  0  0  0
    6.8053    1.6802    4.7895 C   0  0  0  0  0  0  0  0  0  0  0  0
    6.5817    2.7553    5.6063 N   0  0  0  0  0  0  0  0  0  0  0  0
    5.5747    2.4360    6.4753 C   0  0  0  0  0  0  0  0  0  0  0  0
    5.2560    3.2920    7.4563 N   0  0  0  0  0  0  0  0  0  0  0  0
    4.5374    2.9749    8.6304 C   0  0  0  0  0  0  0  0  0  0  0  0
    4.1746    1.6956    9.0130 C   0  0  0  0  0  0  0  0  0  0  0  0
    3.3908    1.4908   10.1554 C   0  0  0  0  0  0  0  0  0  0  0  0
    2.9550    2.5695   10.9564 C   0  0  0  0  0  0  0  0  0  0  0  0
    1.9899    2.2550   12.0726 C   0  0  0  0  0  0  0  0  0  0  0  0
    1.6681    0.9238   12.1287 F   0  0  0  0  0  0  0  0  0  0  0  0
    2.4561    2.5553   13.3153 F   0  0  0  0  0  0  0  0  0  0  0  0
    0.7937    2.8924   11.9400 F   0  0  0  0  0  0  0  0  0  0  0  0
    3.3880    3.8644   10.6253 C   0  0  0  0  0  0  0  0  0  0  0  0
    3.0897    4.9368   11.4513 O   0  0  0  0  0  0  0  0  0  0  0  0
    3.7269    6.1755   11.0567 C   0  0  0  0  0  0  0  0  0  0  0  0
    3.5559    7.3870   11.9984 C   0  0  1  0  0  0  0  0  0  0  0  0
    2.0896    7.7077   12.2791 C   0  0  0  0  0  0  0  0  0  0  0  0
    1.8808    7.3804   13.7517 C   0  0  0  0  0  0  0  0  0  0  0  0
    3.1574    6.6833   14.1880 C   0  0  0  0  0  0  0  0  0  0  0  0
    4.1602    7.3170   13.3367 N   0  0  0  0  0  0  0  0  0  0  0  0
    5.4594    6.6719   13.4060 C   0  0  0  0  0  0  0  0  0  0  0  0
    4.1313    4.0347    9.4419 C   0  0  0  0  0  0  0  0  0  0  0  0
    5.0674    1.2606    6.1900 N   0  0  0  0  0  0  0  0  0  0  0  0
    5.8338    0.7681    5.1787 C   0  0  0  0  0  0  0  0  0  0  0  0
    5.7664   -0.4831    4.5671 C   0  0  0  0  0  0  0  0  0  0  0  0
    5.8795   -4.2227    3.1676 C   0  0  0  0  0  0  0  0  0  0  0  0
    5.4797   -5.3337    3.8947 C   0  0  0  0  0  0  0  0  0  0  0  0
    5.6485   -5.4683    5.2298 N   0  0  0  0  0  0  0  0  0  0  0  0
    5.7992   -7.0348    9.5030 H   0  0  0  0  0  0  0  0  0  0  0  0
    5.5613   -5.2954    9.8562 H   0  0  0  0  0  0  0  0  0  0  0  0
    7.2060   -5.9310    9.5989 H   0  0  0  0  0  0  0  0  0  0  0  0
    5.6743   -6.4541    7.2504 H   0  0  0  0  0  0  0  0  0  0  0  0
    7.1969   -2.5019    5.7926 H   0  0  0  0  0  0  0  0  0  0  0  0
    8.4235   -0.1232    2.4566 H   0  0  0  0  0  0  0  0  0  0  0  0
    8.4792    2.1537    3.4858 H   0  0  0  0  0  0  0  0  0  0  0  0
    7.1386    3.5962    5.6481 H   0  0  0  0  0  0  0  0  0  0  0  0
    5.5953    4.2411    7.4341 H   0  0  0  0  0  0  0  0  0  0  0  0
    4.4739    0.8227    8.4397 H   0  0  0  0  0  0  0  0  0  0  0  0
    3.1075    0.4678   10.3987 H   0  0  0  0  0  0  0  0  0  0  0  0
    3.2956    6.4821   10.0938 H   0  0  0  0  0  0  0  0  0  0  0  0
    4.8057    6.0145   10.9306 H   0  0  0  0  0  0  0  0  0  0  0  0
    4.0092    8.2445   11.4786 H   0  0  0  0  0  0  0  0  0  0  0  0
    1.4040    7.1420   11.6387 H   0  0  0  0  0  0  0  0  0  0  0  0
    1.8895    8.7734   12.1087 H   0  0  0  0  0  0  0  0  0  0  0  0
    0.9956    6.7556   13.9067 H   0  0  0  0  0  0  0  0  0  0  0  0
    1.7409    8.3111   14.3152 H   0  0  0  0  0  0  0  0  0  0  0  0
    3.0864    5.6053   14.0044 H   0  0  0  0  0  0  0  0  0  0  0  0
    3.3566    6.8487   15.2525 H   0  0  0  0  0  0  0  0  0  0  0  0
    5.9064    6.8278   14.3932 H   0  0  0  0  0  0  0  0  0  0  0  0
    6.1495    7.1143   12.6783 H   0  0  0  0  0  0  0  0  0  0  0  0
    5.4101    5.5931   13.2221 H   0  0  0  0  0  0  0  0  0  0  0  0
    4.4155    5.0215    9.0985 H   0  0  0  0  0  0  0  0  0  0  0  0
    4.9962   -1.1734    4.8813 H   0  0  0  0  0  0  0  0  0  0  0  0
    5.7117   -4.1691    2.0990 H   0  0  0  0  0  0  0  0  0  0  0  0
    4.9919   -6.1711    3.4020 H   0  0  0  0  0  0  0  0  0  0  0  0
  1  2  1  0  0  0  0
  1 40  1  0  0  0  0
  1 41  1  0  0  0  0
  1 42  1  0  0  0  0
  2  3  1  0  0  0  0
  2 43  1  0  0  0  0
  3  4  2  0  0  0  0
  3  5  1  0  0  0  0
  5  6  1  0  0  0  0
  5 39  2  0  0  0  0
  6  7  2  0  0  0  0
  6 44  1  0  0  0  0
  7  8  1  0  0  0  0
  7 37  1  0  0  0  0
  8  9  1  0  0  0  0
  9 10  1  0  0  0  0
  9 36  2  0  0  0  0
 10 11  2  0  0  0  0
 10 45  1  0  0  0  0
 11 12  1  0  0  0  0
 11 46  1  0  0  0  0
 12 13  1  0  0  0  0
 12 35  2  0  0  0  0
 13 14  1  0  0  0  0
 13 47  1  0  0  0  0
 14 15  1  0  0  0  0
 14 34  2  0  0  0  0
 15 16  1  0  0  0  0
 15 48  1  0  0  0  0
 16 17  1  0  0  0  0
 16 33  2  0  0  0  0
 17 18  2  0  0  0  0
 17 49  1  0  0  0  0
 18 19  1  0  0  0  0
 18 50  1  0  0  0  0
 19 20  1  0  0  0  0
 19 24  2  0  0  0  0
 20 21  1  0  0  0  0
 20 22  1  0  0  0  0
 20 23  1  0  0  0  0
 24 25  1  0  0  0  0
 24 33  1  0  0  0  0
 25 26  1  0  0  0  0
 26 27  1  0  0  0  0
 26 51  1  0  0  0  0
 26 52  1  0  0  0  0
 27 28  1  0  0  0  0
 27 31  1  0  0  0  0
 27 53  1  6  0  0  0
 28 29  1  0  0  0  0
 28 54  1  0  0  0  0
 28 55  1  0  0  0  0
 29 30  1  0  0  0  0
 29 56  1  0  0  0  0
 29 57  1  0  0  0  0
 30 31  1  0  0  0  0
 30 58  1  0  0  0  0
 30 59  1  0  0  0  0
 31 32  1  0  0  0  0
 32 60  1  0  0  0  0
 32 61  1  0  0  0  0
 32 62  1  0  0  0  0
 33 63  1  0  0  0  0
 34 35  1  0  0  0  0
 35 36  1  0  0  0  0
 36 64  1  0  0  0  0
 37 38  2  0  0  0  0
 37 65  1  0  0  0  0
 38 39  1  0  0  0  0
 38 66  1  0  0  0  0
M  END
$$$$
