CHEMBL250196
 OpenBabel04072215363D

 33 36  0  0  0  0  0  0  0  0999 V2000
    0.9605   -0.2555    0.0427 C   0  0  0  0  0  0  0  0  0  0  0  0
    2.4031   -0.1505    0.0522 N   0  0  0  0  0  0  0  0  0  0  0  0
    3.0928    1.0271    0.0955 C   0  0  0  0  0  0  0  0  0  0  0  0
    4.4405    0.7475    0.0819 C   0  0  0  0  0  0  0  0  0  0  0  0
    5.4765    1.7309    0.1800 C   0  0  0  0  0  0  0  0  0  0  0  0
    5.5374    2.9900   -0.2761 C   0  0  0  0  0  0  0  0  0  0  0  0
    4.6014    3.7624   -1.1314 C   0  0  0  0  0  0  0  0  0  0  0  0
    3.4735    3.4999   -1.4951 O   0  0  0  0  0  0  0  0  0  0  0  0
    5.3240    4.9040   -1.4306 N   0  0  0  0  0  0  0  0  0  0  0  0
    6.5497    5.0014   -0.8203 N   0  0  0  0  0  0  0  0  0  0  0  0
    6.6993    3.9090   -0.1107 C   0  0  0  0  0  0  0  0  0  0  0  0
    7.8311    3.7121    0.7468 C   0  0  0  0  0  0  0  0  0  0  0  0
    7.9850    3.0453    1.9482 C   0  0  0  0  0  0  0  0  0  0  0  0
    9.2526    3.0945    2.5039 N   0  0  0  0  0  0  0  0  0  0  0  0
   10.0823    3.8064    1.7591 N   0  0  0  0  0  0  0  0  0  0  0  0
    9.3488    4.4329    0.3912 S   0  0  0  0  0  0  0  0  0  0  0  0
    4.5811   -0.6900    0.0672 C   0  0  0  0  0  0  0  0  0  0  0  0
    5.6365   -1.6379    0.0658 C   0  0  0  0  0  0  0  0  0  0  0  0
    7.2495   -1.0655    0.0351 Cl  0  0  0  0  0  0  0  0  0  0  0  0
    5.3958   -3.0146    0.0761 C   0  0  0  0  0  0  0  0  0  0  0  0
    4.0918   -3.4888    0.0752 C   0  0  0  0  0  0  0  0  0  0  0  0
    3.0148   -2.6011    0.0601 C   0  0  0  0  0  0  0  0  0  0  0  0
    3.2761   -1.2175    0.0572 C   0  0  0  0  0  0  0  0  0  0  0  0
    0.5198    0.7450    0.0388 H   0  0  0  0  0  0  0  0  0  0  0  0
    0.6479   -0.7927    0.9419 H   0  0  0  0  0  0  0  0  0  0  0  0
    0.6576   -0.7959   -0.8580 H   0  0  0  0  0  0  0  0  0  0  0  0
    2.5567    1.9674    0.1347 H   0  0  0  0  0  0  0  0  0  0  0  0
    6.3493    1.3620    0.7060 H   0  0  0  0  0  0  0  0  0  0  0  0
    4.9628    5.6618   -1.9972 H   0  0  0  0  0  0  0  0  0  0  0  0
    7.2141    2.5162    2.4925 H   0  0  0  0  0  0  0  0  0  0  0  0
    6.2252   -3.7165    0.0815 H   0  0  0  0  0  0  0  0  0  0  0  0
    3.9055   -4.5600    0.0824 H   0  0  0  0  0  0  0  0  0  0  0  0
    1.9967   -2.9815    0.0546 H   0  0  0  0  0  0  0  0  0  0  0  0
  1  2  1  0  0  0  0
  1 24  1  0  0  0  0
  1 25  1  0  0  0  0
  1 26  1  0  0  0  0
  2  3  1  0  0  0  0
  2 23  1  0  0  0  0
  3  4  2  0  0  0  0
  3 27  1  0  0  0  0
  4  5  1  0  0  0  0
  4 17  1  0  0  0  0
  5  6  2  0  0  0  0
  5 28  1  0  0  0  0
  6  7  1  0  0  0  0
  6 11  1  0  0  0  0
  7  8  2  0  0  0  0
  7  9  1  0  0  0  0
  9 10  1  0  0  0  0
  9 29  1  0  0  0  0
 10 11  2  0  0  0  0
 11 12  1  0  0  0  0
 12 13  2  0  0  0  0
 12 16  1  0  0  0  0
 13 14  1  0  0  0  0
 13 30  1  0  0  0  0
 14 15  2  0  0  0  0
 15 16  1  0  0  0  0
 17 18  1  0  0  0  0
 17 23  2  0  0  0  0
 18 19  1  0  0  0  0
 18 20  2  0  0  0  0
 20 21  1  0  0  0  0
 20 31  1  0  0  0  0
 21 22  2  0  0  0  0
 21 32  1  0  0  0  0
 22 23  1  0  0  0  0
 22 33  1  0  0  0  0
M  END
$$$$
