CHEMBL3116050
 OpenBabel04072215363D

 42 45  0  0  1  0  0  0  0  0999 V2000
    1.4771    0.2720    2.3055 C   0  0  0  0  0  0  0  0  0  0  0  0
    0.4532    0.5688    1.2078 C   0  0  2  0  0  0  0  0  0  0  0  0
    1.0631    0.1511   -0.0527 N   0  0  0  0  0  0  0  0  0  0  0  0
    0.3051   -0.6617   -0.8775 C   0  0  0  0  0  0  0  0  0  0  0  0
    1.0260   -1.4042   -1.7246 N   0  0  0  0  0  0  0  0  0  0  0  0
    0.4413   -2.2614   -2.6033 C   0  0  0  0  0  0  0  0  0  0  0  0
    1.2269   -3.0406   -3.4642 N   0  0  0  0  0  0  0  0  0  0  0  0
    2.4949   -2.8205   -3.8456 C   0  0  0  0  0  0  0  0  0  0  0  0
    3.2856   -1.7367   -3.5551 C   0  0  0  0  0  0  0  0  0  0  0  0
    4.4453   -1.9515   -4.2312 N   0  0  0  0  0  0  0  0  0  0  0  0
    5.5765   -1.0668   -4.2482 C   0  0  0  0  0  0  0  0  0  0  0  0
    4.3182   -3.1359   -4.8975 C   0  0  0  0  0  0  0  0  0  0  0  0
    3.1363   -3.6827   -4.6906 N   0  0  0  0  0  0  0  0  0  0  0  0
   -0.9586   -2.2788   -2.6321 C   0  0  0  0  0  0  0  0  0  0  0  0
   -1.9753   -2.8977   -3.4127 C   0  0  0  0  0  0  0  0  0  0  0  0
   -3.1907   -2.4141   -2.9732 C   0  0  0  0  0  0  0  0  0  0  0  0
   -2.9473   -1.5581   -1.9293 N   0  0  0  0  0  0  0  0  0  0  0  0
   -1.5990   -1.4479   -1.7282 C   0  0  0  0  0  0  0  0  0  0  0  0
   -1.0305   -0.6419   -0.8216 N   0  0  0  0  0  0  0  0  0  0  0  0
    0.0880    2.0568    1.2262 C   0  0  0  0  0  0  0  0  0  0  0  0
   -0.9128    2.4437    2.0534 N   0  0  0  0  0  0  0  0  0  0  0  0
   -1.1952    3.7639    2.0941 C   0  0  0  0  0  0  0  0  0  0  0  0
   -0.5116    4.6993    1.3519 C   0  0  0  0  0  0  0  0  0  0  0  0
   -0.8130    6.0014    1.4173 F   0  0  0  0  0  0  0  0  0  0  0  0
    0.4919    4.2210    0.5513 C   0  0  0  0  0  0  0  0  0  0  0  0
    0.8170    2.9110    0.4632 N   0  0  0  0  0  0  0  0  0  0  0  0
    1.0833    0.5167    3.2968 H   0  0  0  0  0  0  0  0  0  0  0  0
    2.4043    0.8393    2.1595 H   0  0  0  0  0  0  0  0  0  0  0  0
    1.7427   -0.7926    2.3010 H   0  0  0  0  0  0  0  0  0  0  0  0
   -0.4506   -0.0071    1.4441 H   0  0  0  0  0  0  0  0  0  0  0  0
    1.3595    0.9502   -0.6085 H   0  0  0  0  0  0  0  0  0  0  0  0
    0.7414   -3.8114   -3.8998 H   0  0  0  0  0  0  0  0  0  0  0  0
    3.1117   -0.8561   -2.9544 H   0  0  0  0  0  0  0  0  0  0  0  0
    5.3700   -0.1988   -3.6111 H   0  0  0  0  0  0  0  0  0  0  0  0
    5.7432   -0.7341   -5.2752 H   0  0  0  0  0  0  0  0  0  0  0  0
    6.4454   -1.6046   -3.8653 H   0  0  0  0  0  0  0  0  0  0  0  0
    5.1025   -3.5469   -5.5189 H   0  0  0  0  0  0  0  0  0  0  0  0
   -1.8316   -3.5818   -4.2391 H   0  0  0  0  0  0  0  0  0  0  0  0
   -4.1999   -2.5934   -3.3181 H   0  0  0  0  0  0  0  0  0  0  0  0
   -3.6358   -1.0389   -1.4038 H   0  0  0  0  0  0  0  0  0  0  0  0
   -2.0013    4.0564    2.7526 H   0  0  0  0  0  0  0  0  0  0  0  0
    1.0824    4.8999   -0.0559 H   0  0  0  0  0  0  0  0  0  0  0  0
  1 27  1  0  0  0  0
  1 28  1  0  0  0  0
  1 29  1  0  0  0  0
  2 20  1  0  0  0  0
  2  3  1  0  0  0  0
  2  1  1  0  0  0  0
  2 30  1  1  0  0  0
  3  4  1  0  0  0  0
  3 31  1  0  0  0  0
  4  5  1  0  0  0  0
  4 19  2  0  0  0  0
  5  6  2  0  0  0  0
  6  7  1  0  0  0  0
  6 14  1  0  0  0  0
  7  8  1  0  0  0  0
  7 32  1  0  0  0  0
  8  9  2  0  0  0  0
  8 13  1  0  0  0  0
  9 10  1  0  0  0  0
  9 33  1  0  0  0  0
 10 11  1  0  0  0  0
 10 12  1  0  0  0  0
 11 34  1  0  0  0  0
 11 35  1  0  0  0  0
 11 36  1  0  0  0  0
 12 13  2  0  0  0  0
 12 37  1  0  0  0  0
 14 15  1  0  0  0  0
 14 18  2  0  0  0  0
 15 16  2  0  0  0  0
 15 38  1  0  0  0  0
 16 17  1  0  0  0  0
 16 39  1  0  0  0  0
 17 18  1  0  0  0  0
 17 40  1  0  0  0  0
 18 19  1  0  0  0  0
 20 21  1  0  0  0  0
 20 26  2  0  0  0  0
 21 22  2  0  0  0  0
 22 23  1  0  0  0  0
 22 41  1  0  0  0  0
 23 24  1  0  0  0  0
 23 25  2  0  0  0  0
 25 26  1  0  0  0  0
 25 42  1  0  0  0  0
M  END
$$$$
