CHEMBL4793380
 OpenBabel04072215383D

 56 59  0  0  0  0  0  0  0  0999 V2000
    4.0948   -0.0045    8.6531 C   0  0  0  0  0  0  0  0  0  0  0  0
    5.2714   -0.7549    7.9910 C   0  0  0  0  0  0  0  0  0  0  0  0
    6.1656    0.2831    7.2740 C   0  0  0  0  0  0  0  0  0  0  0  0
    6.1062   -1.4414    9.0787 C   0  0  0  0  0  0  0  0  0  0  0  0
    4.7079   -1.6980    6.9732 C   0  0  0  0  0  0  0  0  0  0  0  0
    3.9628   -1.4516    5.8538 C   0  0  0  0  0  0  0  0  0  0  0  0
    3.6544   -2.6847    5.2994 C   0  0  0  0  0  0  0  0  0  0  0  0
    2.8682   -2.9306    4.1770 N   0  0  0  0  0  0  0  0  0  0  0  0
    2.6382   -4.1797    3.6740 C   0  0  0  0  0  0  0  0  0  0  0  0
    1.9574   -4.3504    2.6642 O   0  0  0  0  0  0  0  0  0  0  0  0
    3.1882   -5.2303    4.3916 N   0  0  0  0  0  0  0  0  0  0  0  0
    3.0096   -6.5429    3.9570 C   0  0  0  0  0  0  0  0  0  0  0  0
    3.4349   -6.9144    2.6762 C   0  0  0  0  0  0  0  0  0  0  0  0
    3.1679   -8.1879    2.1784 C   0  0  0  0  0  0  0  0  0  0  0  0
    2.5165   -9.1424    2.9660 C   0  0  0  0  0  0  0  0  0  0  0  0
    2.2194  -10.4366    2.4469 N   0  0  0  0  0  0  0  0  0  0  0  0
    2.0962  -11.5846    3.2772 C   0  0  0  0  0  0  0  0  0  0  0  0
    2.8496  -11.6162    4.3949 N   0  0  0  0  0  0  0  0  0  0  0  0
    2.6760  -12.6627    5.2008 C   0  0  0  0  0  0  0  0  0  0  0  0
    1.8808  -13.7149    4.9831 N   0  0  0  0  0  0  0  0  0  0  0  0
    1.1835  -13.7103    3.8388 C   0  0  0  0  0  0  0  0  0  0  0  0
    1.2759  -12.6561    2.9264 C   0  0  0  0  0  0  0  0  0  0  0  0
    0.5161  -12.6249    1.7881 O   0  0  0  0  0  0  0  0  0  0  0  0
    0.9653  -13.6144    0.8582 C   0  0  0  0  0  0  0  0  0  0  0  0
    0.3059  -14.9607    1.1230 C   0  0  0  0  0  0  0  0  0  0  0  0
    0.7809  -15.5890    2.4307 C   0  0  0  0  0  0  0  0  0  0  0  0
    0.3547  -14.8261    3.6050 N   0  0  0  0  0  0  0  0  0  0  0  0
    2.0795   -8.7484    4.2416 C   0  0  0  0  0  0  0  0  0  0  0  0
    2.3520   -7.4747    4.7546 C   0  0  0  0  0  0  0  0  0  0  0  0
    4.2155   -3.6469    6.0533 N   0  0  0  0  0  0  0  0  0  0  0  0
    4.8654   -3.0402    7.0924 O   0  0  0  0  0  0  0  0  0  0  0  0
    4.4462    0.7641    9.3490 H   0  0  0  0  0  0  0  0  0  0  0  0
    3.4440   -0.6937    9.2057 H   0  0  0  0  0  0  0  0  0  0  0  0
    3.4687    0.4980    7.9045 H   0  0  0  0  0  0  0  0  0  0  0  0
    6.5677    1.0219    7.9765 H   0  0  0  0  0  0  0  0  0  0  0  0
    5.6100    0.8388    6.5085 H   0  0  0  0  0  0  0  0  0  0  0  0
    7.0105   -0.2029    6.7727 H   0  0  0  0  0  0  0  0  0  0  0  0
    6.5042   -0.7017    9.7855 H   0  0  0  0  0  0  0  0  0  0  0  0
    6.9588   -1.9762    8.6469 H   0  0  0  0  0  0  0  0  0  0  0  0
    5.5123   -2.1603    9.6530 H   0  0  0  0  0  0  0  0  0  0  0  0
    3.6745   -0.4515    5.5303 H   0  0  0  0  0  0  0  0  0  0  0  0
    2.4783   -2.1107    3.7097 H   0  0  0  0  0  0  0  0  0  0  0  0
    3.2917   -5.0510    5.3908 H   0  0  0  0  0  0  0  0  0  0  0  0
    3.9683   -6.2054    2.0488 H   0  0  0  0  0  0  0  0  0  0  0  0
    3.4935   -8.4022    1.1663 H   0  0  0  0  0  0  0  0  0  0  0  0
    2.8941  -10.6675    1.7255 H   0  0  0  0  0  0  0  0  0  0  0  0
    3.2287  -12.6511    6.1315 H   0  0  0  0  0  0  0  0  0  0  0  0
    2.0617  -13.6867    0.8464 H   0  0  0  0  0  0  0  0  0  0  0  0
    0.6654  -13.2616   -0.1347 H   0  0  0  0  0  0  0  0  0  0  0  0
    0.5419  -15.6405    0.2963 H   0  0  0  0  0  0  0  0  0  0  0  0
   -0.7833  -14.8356    1.1522 H   0  0  0  0  0  0  0  0  0  0  0  0
    1.8696  -15.7313    2.4260 H   0  0  0  0  0  0  0  0  0  0  0  0
    0.3412  -16.5898    2.5094 H   0  0  0  0  0  0  0  0  0  0  0  0
   -0.5965  -14.4858    3.4822 H   0  0  0  0  0  0  0  0  0  0  0  0
    1.5337   -9.4607    4.8578 H   0  0  0  0  0  0  0  0  0  0  0  0
    1.9788   -7.2108    5.7378 H   0  0  0  0  0  0  0  0  0  0  0  0
  1  2  1  0  0  0  0
  1 32  1  0  0  0  0
  1 33  1  0  0  0  0
  1 34  1  0  0  0  0
  2  3  1  0  0  0  0
  2  4  1  0  0  0  0
  2  5  1  0  0  0  0
  3 35  1  0  0  0  0
  3 36  1  0  0  0  0
  3 37  1  0  0  0  0
  4 38  1  0  0  0  0
  4 39  1  0  0  0  0
  4 40  1  0  0  0  0
  5  6  2  0  0  0  0
  5 31  1  0  0  0  0
  6  7  1  0  0  0  0
  6 41  1  0  0  0  0
  7  8  1  0  0  0  0
  7 30  2  0  0  0  0
  8  9  1  0  0  0  0
  8 42  1  0  0  0  0
  9 10  2  0  0  0  0
  9 11  1  0  0  0  0
 11 12  1  0  0  0  0
 11 43  1  0  0  0  0
 12 13  1  0  0  0  0
 12 29  2  0  0  0  0
 13 14  2  0  0  0  0
 13 44  1  0  0  0  0
 14 15  1  0  0  0  0
 14 45  1  0  0  0  0
 15 16  1  0  0  0  0
 15 28  2  0  0  0  0
 16 17  1  0  0  0  0
 16 46  1  0  0  0  0
 17 18  1  0  0  0  0
 17 22  2  0  0  0  0
 18 19  2  0  0  0  0
 19 20  1  0  0  0  0
 19 47  1  0  0  0  0
 20 21  2  0  0  0  0
 21 22  1  0  0  0  0
 21 27  1  0  0  0  0
 22 23  1  0  0  0  0
 23 24  1  0  0  0  0
 24 25  1  0  0  0  0
 24 48  1  0  0  0  0
 24 49  1  0  0  0  0
 25 26  1  0  0  0  0
 25 50  1  0  0  0  0
 25 51  1  0  0  0  0
 26 27  1  0  0  0  0
 26 52  1  0  0  0  0
 26 53  1  0  0  0  0
 27 54  1  0  0  0  0
 28 29  1  0  0  0  0
 28 55  1  0  0  0  0
 29 56  1  0  0  0  0
 30 31  1  0  0  0  0
M  END
$$$$
