CHEMBL3660300
 OpenBabel04072215373D

 72 75  0  0  0  0  0  0  0  0999 V2000
    1.7491   -0.6353    3.5624 C   0  0  0  0  0  0  0  0  0  0  0  0
    2.9196   -0.3425    2.7984 O   0  0  0  0  0  0  0  0  0  0  0  0
    3.3759   -1.3885    2.0490 C   0  0  0  0  0  0  0  0  0  0  0  0
    2.8660   -2.5002    2.0329 O   0  0  0  0  0  0  0  0  0  0  0  0
    4.5768   -0.9881    1.3476 C   0  0  0  0  0  0  0  0  0  0  0  0
    5.4886   -0.0060    1.7277 C   0  0  0  0  0  0  0  0  0  0  0  0
    6.6124   -0.0454    0.8610 C   0  0  0  0  0  0  0  0  0  0  0  0
    7.8453    0.7414    0.8279 C   0  0  0  0  0  0  0  0  0  0  0  0
    8.1520    1.6452    1.8329 C   0  0  0  0  0  0  0  0  0  0  0  0
    9.3306    2.3742    1.7219 C   0  0  0  0  0  0  0  0  0  0  0  0
    9.6187    3.2292    2.7610 O   0  0  0  0  0  0  0  0  0  0  0  0
   10.9340    3.4761    3.0816 C   0  0  0  0  0  0  0  0  0  0  0  0
   11.2171    4.7585    3.5337 C   0  0  0  0  0  0  0  0  0  0  0  0
   12.5295    5.1132    3.8513 C   0  0  0  0  0  0  0  0  0  0  0  0
   13.5837    4.1959    3.7300 C   0  0  0  0  0  0  0  0  0  0  0  0
   14.9381    4.5277    3.9811 N   0  0  0  0  0  0  0  0  0  0  0  0
   15.3842    5.7383    4.4738 C   0  0  0  0  0  0  0  0  0  0  0  0
   14.6581    6.6462    4.8666 O   0  0  0  0  0  0  0  0  0  0  0  0
   16.7705    5.8423    4.4670 N   0  0  0  0  0  0  0  0  0  0  0  0
   17.3553    7.0345    4.9724 C   0  0  0  0  0  0  0  0  0  0  0  0
   16.9507    7.5683    6.2028 C   0  0  0  0  0  0  0  0  0  0  0  0
   17.4119    8.8201    6.6278 C   0  0  0  0  0  0  0  0  0  0  0  0
   16.9358    9.4025    7.9263 C   0  0  0  0  0  0  0  0  0  0  0  0
   18.2935    9.5344    5.8069 C   0  0  0  0  0  0  0  0  0  0  0  0
   18.7333    8.9876    4.5977 C   0  0  0  0  0  0  0  0  0  0  0  0
   18.2797    7.7331    4.1991 C   0  0  0  0  0  0  0  0  0  0  0  0
   18.6738    7.2355    3.0165 F   0  0  0  0  0  0  0  0  0  0  0  0
   13.2804    2.8925    3.3282 C   0  0  0  0  0  0  0  0  0  0  0  0
   11.9588    2.5265    3.0319 C   0  0  0  0  0  0  0  0  0  0  0  0
   10.1129    2.2485    0.5794 C   0  0  0  0  0  0  0  0  0  0  0  0
    9.7692    1.2851   -0.3488 C   0  0  0  0  0  0  0  0  0  0  0  0
   10.5582    1.0972   -1.4819 N   0  0  0  0  0  0  0  0  0  0  0  0
    8.6602    0.5363   -0.2407 N   0  0  0  0  0  0  0  0  0  0  0  0
    6.3366   -1.0529   -0.0360 C   0  0  0  0  0  0  0  0  0  0  0  0
    5.0840   -1.6039    0.2055 N   0  0  0  0  0  0  0  0  0  0  0  0
    4.5396   -2.6135   -0.6187 C   0  0  0  0  0  0  0  0  0  0  0  0
    5.2858   -3.2897   -1.3090 O   0  0  0  0  0  0  0  0  0  0  0  0
    3.1820   -2.6040   -0.6120 O   0  0  0  0  0  0  0  0  0  0  0  0
    2.4885   -3.5544   -1.4696 C   0  0  0  0  0  0  0  0  0  0  0  0
    2.7541   -4.9957   -1.0131 C   0  0  0  0  0  0  0  0  0  0  0  0
    0.9843   -3.2714   -1.3154 C   0  0  0  0  0  0  0  0  0  0  0  0
    2.8462   -3.3474   -2.9498 C   0  0  0  0  0  0  0  0  0  0  0  0
    1.4672    0.2686    4.1105 H   0  0  0  0  0  0  0  0  0  0  0  0
    1.9521   -1.4295    4.2877 H   0  0  0  0  0  0  0  0  0  0  0  0
    0.9203   -0.9123    2.9036 H   0  0  0  0  0  0  0  0  0  0  0  0
    5.3663    0.6397    2.5901 H   0  0  0  0  0  0  0  0  0  0  0  0
    7.5056    1.7910    2.6897 H   0  0  0  0  0  0  0  0  0  0  0  0
   10.4262    5.4986    3.6278 H   0  0  0  0  0  0  0  0  0  0  0  0
   12.6844    6.1341    4.1810 H   0  0  0  0  0  0  0  0  0  0  0  0
   15.6275    3.7946    3.8715 H   0  0  0  0  0  0  0  0  0  0  0  0
   17.2145    5.4684    3.6373 H   0  0  0  0  0  0  0  0  0  0  0  0
   16.2396    7.0207    6.8186 H   0  0  0  0  0  0  0  0  0  0  0  0
   16.2614    8.7163    8.4507 H   0  0  0  0  0  0  0  0  0  0  0  0
   16.3901   10.3343    7.7474 H   0  0  0  0  0  0  0  0  0  0  0  0
   17.7869    9.6002    8.5849 H   0  0  0  0  0  0  0  0  0  0  0  0
   18.6308   10.5259    6.1020 H   0  0  0  0  0  0  0  0  0  0  0  0
   19.4014    9.5481    3.9520 H   0  0  0  0  0  0  0  0  0  0  0  0
   14.0602    2.1408    3.2347 H   0  0  0  0  0  0  0  0  0  0  0  0
   11.7487    1.5000    2.7447 H   0  0  0  0  0  0  0  0  0  0  0  0
   10.9873    2.8682    0.4184 H   0  0  0  0  0  0  0  0  0  0  0  0
   11.5432    1.0120   -1.2627 H   0  0  0  0  0  0  0  0  0  0  0  0
   10.1975    0.2865   -1.9786 H   0  0  0  0  0  0  0  0  0  0  0  0
    6.9147   -1.4098   -0.8803 H   0  0  0  0  0  0  0  0  0  0  0  0
    2.4641   -5.1292    0.0356 H   0  0  0  0  0  0  0  0  0  0  0  0
    3.8129   -5.2615   -1.0778 H   0  0  0  0  0  0  0  0  0  0  0  0
    2.1947   -5.7161   -1.6199 H   0  0  0  0  0  0  0  0  0  0  0  0
    0.6611   -3.3893   -0.2755 H   0  0  0  0  0  0  0  0  0  0  0  0
    0.3860   -3.9466   -1.9392 H   0  0  0  0  0  0  0  0  0  0  0  0
    0.7472   -2.2414   -1.6042 H   0  0  0  0  0  0  0  0  0  0  0  0
    3.9000   -3.5448   -3.1620 H   0  0  0  0  0  0  0  0  0  0  0  0
    2.6575   -2.3104   -3.2505 H   0  0  0  0  0  0  0  0  0  0  0  0
    2.2621   -4.0097   -3.5975 H   0  0  0  0  0  0  0  0  0  0  0  0
  1  2  1  0  0  0  0
  1 43  1  0  0  0  0
  1 44  1  0  0  0  0
  1 45  1  0  0  0  0
  2  3  1  0  0  0  0
  3  4  2  0  0  0  0
  3  5  1  0  0  0  0
  5  6  2  0  0  0  0
  5 35  1  0  0  0  0
  6  7  1  0  0  0  0
  6 46  1  0  0  0  0
  7  8  1  0  0  0  0
  7 34  2  0  0  0  0
  8  9  1  0  0  0  0
  8 33  2  0  0  0  0
  9 10  2  0  0  0  0
  9 47  1  0  0  0  0
 10 11  1  0  0  0  0
 10 30  1  0  0  0  0
 11 12  1  0  0  0  0
 12 13  1  0  0  0  0
 12 29  2  0  0  0  0
 13 14  2  0  0  0  0
 13 48  1  0  0  0  0
 14 15  1  0  0  0  0
 14 49  1  0  0  0  0
 15 16  1  0  0  0  0
 15 28  2  0  0  0  0
 16 17  1  0  0  0  0
 16 50  1  0  0  0  0
 17 18  2  0  0  0  0
 17 19  1  0  0  0  0
 19 20  1  0  0  0  0
 19 51  1  0  0  0  0
 20 21  1  0  0  0  0
 20 26  2  0  0  0  0
 21 22  2  0  0  0  0
 21 52  1  0  0  0  0
 22 23  1  0  0  0  0
 22 24  1  0  0  0  0
 23 53  1  0  0  0  0
 23 54  1  0  0  0  0
 23 55  1  0  0  0  0
 24 25  2  0  0  0  0
 24 56  1  0  0  0  0
 25 26  1  0  0  0  0
 25 57  1  0  0  0  0
 26 27  1  0  0  0  0
 28 29  1  0  0  0  0
 28 58  1  0  0  0  0
 29 59  1  0  0  0  0
 30 31  2  0  0  0  0
 30 60  1  0  0  0  0
 31 32  1  0  0  0  0
 31 33  1  0  0  0  0
 32 61  1  0  0  0  0
 32 62  1  0  0  0  0
 34 35  1  0  0  0  0
 34 63  1  0  0  0  0
 35 36  1  0  0  0  0
 36 37  2  0  0  0  0
 36 38  1  0  0  0  0
 38 39  1  0  0  0  0
 39 40  1  0  0  0  0
 39 41  1  0  0  0  0
 39 42  1  0  0  0  0
 40 64  1  0  0  0  0
 40 65  1  0  0  0  0
 40 66  1  0  0  0  0
 41 67  1  0  0  0  0
 41 68  1  0  0  0  0
 41 69  1  0  0  0  0
 42 70  1  0  0  0  0
 42 71  1  0  0  0  0
 42 72  1  0  0  0  0
M  END
$$$$
