CHEMBL4075886
 OpenBabel04072215383D

 58 61  0  0  0  0  0  0  0  0999 V2000
    5.7558   -0.0231   -4.7743 C   0  0  0  0  0  0  0  0  0  0  0  0
    5.2879   -0.5035   -3.4056 C   0  0  0  0  0  0  0  0  0  0  0  0
    6.4524   -1.0945   -2.6099 C   0  0  0  0  0  0  0  0  0  0  0  0
    6.0482   -1.6023   -1.2238 C   0  0  0  0  0  0  0  0  0  0  0  0
    7.4962   -2.2744   -0.3814 S   0  0  0  0  0  0  0  0  0  0  0  0
    7.9446   -3.4088   -1.1517 O   0  0  0  0  0  0  0  0  0  0  0  0
    8.3735   -1.1715   -0.0519 O   0  0  0  0  0  0  0  0  0  0  0  0
    6.8181   -2.8370    1.0822 N   0  0  0  0  0  0  0  0  0  0  0  0
    7.4394   -4.0235    1.6285 C   0  0  0  0  0  0  0  0  0  0  0  0
    6.9060   -5.2525    1.2323 C   0  0  0  0  0  0  0  0  0  0  0  0
    7.4461   -6.4458    1.7101 C   0  0  0  0  0  0  0  0  0  0  0  0
    8.5677   -6.4242    2.5445 C   0  0  0  0  0  0  0  0  0  0  0  0
    9.0924   -7.6007    3.0638 O   0  0  0  0  0  0  0  0  0  0  0  0
    9.1942   -8.7204    2.2344 C   0  0  0  0  0  0  0  0  0  0  0  0
    9.2913   -8.5292    0.9052 N   0  0  0  0  0  0  0  0  0  0  0  0
    9.3982   -9.6375    0.1720 C   0  0  0  0  0  0  0  0  0  0  0  0
    9.4576  -10.8928    0.6398 N   0  0  0  0  0  0  0  0  0  0  0  0
    9.4087  -11.0565    1.9709 C   0  0  0  0  0  0  0  0  0  0  0  0
    9.5581  -12.3283    2.5261 C   0  0  0  0  0  0  0  0  0  0  0  0
    9.5540  -12.5878    3.9190 C   0  0  0  0  0  0  0  0  0  0  0  0
   10.0037  -13.8474    4.2075 O   0  0  0  0  0  0  0  0  0  0  0  0
    9.2146  -14.7112    5.0096 C   0  0  0  0  0  0  0  0  0  0  0  0
    9.3329  -11.5203    4.7913 C   0  0  0  0  0  0  0  0  0  0  0  0
    9.2645  -11.4069    6.1419 O   0  0  0  0  0  0  0  0  0  0  0  0
    9.5158  -12.4640    7.0342 C   0  0  0  0  0  0  0  0  0  0  0  0
    9.1776  -10.2326    4.2309 C   0  0  0  0  0  0  0  0  0  0  0  0
    9.2530   -9.9826    2.8433 C   0  0  0  0  0  0  0  0  0  0  0  0
    9.1289   -5.1856    2.9613 C   0  0  0  0  0  0  0  0  0  0  0  0
   10.2336   -5.1134    3.8427 C   0  0  0  0  0  0  0  0  0  0  0  0
   10.7634   -3.8866    4.2532 C   0  0  0  0  0  0  0  0  0  0  0  0
   10.2032   -2.7045    3.7989 C   0  0  0  0  0  0  0  0  0  0  0  0
    9.1080   -2.7436    2.9306 C   0  0  0  0  0  0  0  0  0  0  0  0
    8.5552   -3.9695    2.4912 C   0  0  0  0  0  0  0  0  0  0  0  0
    4.9202    0.3989   -5.3415 H   0  0  0  0  0  0  0  0  0  0  0  0
    6.1776   -0.8486   -5.3580 H   0  0  0  0  0  0  0  0  0  0  0  0
    6.5242    0.7515   -4.6775 H   0  0  0  0  0  0  0  0  0  0  0  0
    4.5015   -1.2551   -3.5393 H   0  0  0  0  0  0  0  0  0  0  0  0
    4.8473    0.3389   -2.8606 H   0  0  0  0  0  0  0  0  0  0  0  0
    7.2371   -0.3365   -2.5037 H   0  0  0  0  0  0  0  0  0  0  0  0
    6.8917   -1.9195   -3.1836 H   0  0  0  0  0  0  0  0  0  0  0  0
    5.3096   -2.4064   -1.3075 H   0  0  0  0  0  0  0  0  0  0  0  0
    5.6430   -0.7934   -0.6087 H   0  0  0  0  0  0  0  0  0  0  0  0
    5.8042   -2.9189    1.0436 H   0  0  0  0  0  0  0  0  0  0  0  0
    6.0806   -5.3080    0.5291 H   0  0  0  0  0  0  0  0  0  0  0  0
    6.9992   -7.3878    1.3997 H   0  0  0  0  0  0  0  0  0  0  0  0
    9.4341   -9.5076   -0.9050 H   0  0  0  0  0  0  0  0  0  0  0  0
    9.7291  -13.1566    1.8375 H   0  0  0  0  0  0  0  0  0  0  0  0
    9.3029  -15.7295    4.6146 H   0  0  0  0  0  0  0  0  0  0  0  0
    8.1552  -14.4432    5.0489 H   0  0  0  0  0  0  0  0  0  0  0  0
    9.6555  -14.7633    6.0064 H   0  0  0  0  0  0  0  0  0  0  0  0
    9.5256  -12.0372    8.0433 H   0  0  0  0  0  0  0  0  0  0  0  0
   10.4951  -12.9170    6.8651 H   0  0  0  0  0  0  0  0  0  0  0  0
    8.6927  -13.1812    7.0247 H   0  0  0  0  0  0  0  0  0  0  0  0
    9.0441   -9.3913    4.9108 H   0  0  0  0  0  0  0  0  0  0  0  0
   10.6981   -6.0240    4.2155 H   0  0  0  0  0  0  0  0  0  0  0  0
   11.6159   -3.8611    4.9274 H   0  0  0  0  0  0  0  0  0  0  0  0
   10.6064   -1.7452    4.1177 H   0  0  0  0  0  0  0  0  0  0  0  0
    8.6882   -1.8006    2.5904 H   0  0  0  0  0  0  0  0  0  0  0  0
  1  2  1  0  0  0  0
  1 34  1  0  0  0  0
  1 35  1  0  0  0  0
  1 36  1  0  0  0  0
  2  3  1  0  0  0  0
  2 37  1  0  0  0  0
  2 38  1  0  0  0  0
  3  4  1  0  0  0  0
  3 39  1  0  0  0  0
  3 40  1  0  0  0  0
  4  5  1  0  0  0  0
  4 41  1  0  0  0  0
  4 42  1  0  0  0  0
  5  6  2  0  0  0  0
  5  7  2  0  0  0  0
  5  8  1  0  0  0  0
  8  9  1  0  0  0  0
  8 43  1  0  0  0  0
  9 10  1  0  0  0  0
  9 33  2  0  0  0  0
 10 11  2  0  0  0  0
 10 44  1  0  0  0  0
 11 12  1  0  0  0  0
 11 45  1  0  0  0  0
 12 13  1  0  0  0  0
 12 28  2  0  0  0  0
 13 14  1  0  0  0  0
 14 15  1  0  0  0  0
 14 27  2  0  0  0  0
 15 16  2  0  0  0  0
 16 17  1  0  0  0  0
 16 46  1  0  0  0  0
 17 18  2  0  0  0  0
 18 19  1  0  0  0  0
 18 27  1  0  0  0  0
 19 20  2  0  0  0  0
 19 47  1  0  0  0  0
 20 21  1  0  0  0  0
 20 23  1  0  0  0  0
 21 22  1  0  0  0  0
 22 48  1  0  0  0  0
 22 49  1  0  0  0  0
 22 50  1  0  0  0  0
 23 24  1  0  0  0  0
 23 26  2  0  0  0  0
 24 25  1  0  0  0  0
 25 51  1  0  0  0  0
 25 52  1  0  0  0  0
 25 53  1  0  0  0  0
 26 27  1  0  0  0  0
 26 54  1  0  0  0  0
 28 29  1  0  0  0  0
 28 33  1  0  0  0  0
 29 30  2  0  0  0  0
 29 55  1  0  0  0  0
 30 31  1  0  0  0  0
 30 56  1  0  0  0  0
 31 32  2  0  0  0  0
 31 57  1  0  0  0  0
 32 33  1  0  0  0  0
 32 58  1  0  0  0  0
M  END
$$$$
