CHEMBL179593
 OpenBabel04072215363D

 56 59  0  0  0  0  0  0  0  0999 V2000
    2.7820   -1.0202    1.9317 C   0  0  0  0  0  0  0  0  0  0  0  0
    3.4815   -0.5972    0.7594 O   0  0  0  0  0  0  0  0  0  0  0  0
    3.8872    0.7093    0.7541 C   0  0  0  0  0  0  0  0  0  0  0  0
    3.6505    1.5813    1.7957 C   0  0  0  0  0  0  0  0  0  0  0  0
    4.1998    2.8664    1.7769 C   0  0  0  0  0  0  0  0  0  0  0  0
    4.9943    3.3589    0.7345 C   0  0  0  0  0  0  0  0  0  0  0  0
    5.4453    4.7428    0.6993 N   0  0  0  0  0  0  0  0  0  0  0  0
    5.1194    5.6753    1.6952 C   0  0  0  0  0  0  0  0  0  0  0  0
    4.4282    5.3887    2.6701 O   0  0  0  0  0  0  0  0  0  0  0  0
    5.5699    6.9907    1.5555 N   0  0  0  0  0  0  0  0  0  0  0  0
    5.2244    8.0080    2.5535 C   0  0  0  0  0  0  0  0  0  0  0  0
    4.8147    7.6152    3.8392 C   0  0  0  0  0  0  0  0  0  0  0  0
    4.5906    8.4694    4.9575 C   0  0  0  0  0  0  0  0  0  0  0  0
    4.7322    9.8276    4.9188 C   0  0  0  0  0  0  0  0  0  0  0  0
    4.4798   10.5307    6.1905 O   0  0  0  0  0  0  0  0  0  0  0  0
    4.6873   10.0393    7.5784 C   0  0  0  0  0  0  0  0  0  0  0  0
    4.8924    9.5454    9.1193 C   0  0  0  0  0  0  0  0  0  0  0  0
    4.5327   10.0316   10.3576 C   0  0  0  0  0  0  0  0  0  0  0  0
    4.6543   11.1927    9.8775 N   0  0  0  0  0  0  0  0  0  0  0  0
    3.6502   11.5614    9.1908 C   0  0  0  0  0  0  0  0  0  0  0  0
    2.8836   12.3644    9.9502 C   0  0  0  0  0  0  0  0  0  0  0  0
    2.3319   13.4573    9.3917 C   0  0  0  0  0  0  0  0  0  0  0  0
    1.8026   14.3853   10.2474 O   0  0  0  0  0  0  0  0  0  0  0  0
    1.2817   13.8902   11.4871 C   0  0  0  0  0  0  0  0  0  0  0  0
    2.4229   13.5891    7.9943 C   0  0  0  0  0  0  0  0  0  0  0  0
    1.8151   14.6147    7.2992 O   0  0  0  0  0  0  0  0  0  0  0  0
    0.6157   15.0900    7.9148 C   0  0  0  0  0  0  0  0  0  0  0  0
    3.1901   12.6154    7.2420 C   0  0  0  0  0  0  0  0  0  0  0  0
    3.8359   11.3928    7.8702 C   0  0  0  0  0  0  0  0  0  0  0  0
    5.1530   10.3032    3.5705 C   0  0  0  0  0  0  0  0  0  0  0  0
    5.3537    9.3883    2.3932 C   0  0  0  0  0  0  0  0  0  0  0  0
    5.2890    2.4415   -0.2869 C   0  0  0  0  0  0  0  0  0  0  0  0
    4.6910    1.1493   -0.3016 C   0  0  0  0  0  0  0  0  0  0  0  0
    2.5955   -2.0960    1.8463 H   0  0  0  0  0  0  0  0  0  0  0  0
    1.8162   -0.5098    1.9800 H   0  0  0  0  0  0  0  0  0  0  0  0
    3.3386   -0.8759    2.8643 H   0  0  0  0  0  0  0  0  0  0  0  0
    3.0599    1.3102    2.6623 H   0  0  0  0  0  0  0  0  0  0  0  0
    3.9745    3.4472    2.6581 H   0  0  0  0  0  0  0  0  0  0  0  0
    5.9321    5.0324   -0.1382 H   0  0  0  0  0  0  0  0  0  0  0  0
    6.1321    7.2635    0.7613 H   0  0  0  0  0  0  0  0  0  0  0  0
    4.6821    6.5634    4.0574 H   0  0  0  0  0  0  0  0  0  0  0  0
    4.3437    8.0267    5.9041 H   0  0  0  0  0  0  0  0  0  0  0  0
    5.5154    8.6795    9.4997 H   0  0  0  0  0  0  0  0  0  0  0  0
    4.2258   10.4487   11.3199 H   0  0  0  0  0  0  0  0  0  0  0  0
    2.9664   12.1916   11.0161 H   0  0  0  0  0  0  0  0  0  0  0  0
    0.8798   14.7349   12.0383 H   0  0  0  0  0  0  0  0  0  0  0  0
    2.0719   13.4227   12.0949 H   0  0  0  0  0  0  0  0  0  0  0  0
    0.4604   13.1831   11.3039 H   0  0  0  0  0  0  0  0  0  0  0  0
    0.1243   15.8102    7.2668 H   0  0  0  0  0  0  0  0  0  0  0  0
    0.8568   15.6222    8.8447 H   0  0  0  0  0  0  0  0  0  0  0  0
   -0.1126   14.2793    8.0908 H   0  0  0  0  0  0  0  0  0  0  0  0
    3.3427   12.8027    6.1695 H   0  0  0  0  0  0  0  0  0  0  0  0
    5.4003   11.3440    3.3078 H   0  0  0  0  0  0  0  0  0  0  0  0
    5.5429    9.7701    1.3749 H   0  0  0  0  0  0  0  0  0  0  0  0
    5.9947    2.6779   -1.0787 H   0  0  0  0  0  0  0  0  0  0  0  0
    4.8410    0.4843   -1.1514 H   0  0  0  0  0  0  0  0  0  0  0  0
  1  2  1  0  0  0  0
  1 34  1  0  0  0  0
  1 35  1  0  0  0  0
  1 36  1  0  0  0  0
  2  3  1  0  0  0  0
  3  4  1  0  0  0  0
  3 33  2  0  0  0  0
  4  5  2  0  0  0  0
  4 37  1  0  0  0  0
  5  6  1  0  0  0  0
  5 38  1  0  0  0  0
  6  7  1  0  0  0  0
  6 32  2  0  0  0  0
  7  8  1  0  0  0  0
  7 39  1  0  0  0  0
  8  9  2  0  0  0  0
  8 10  1  0  0  0  0
 10 11  1  0  0  0  0
 10 40  1  0  0  0  0
 11 12  1  0  0  0  0
 11 31  2  0  0  0  0
 12 13  2  0  0  0  0
 12 41  1  0  0  0  0
 13 14  1  0  0  0  0
 13 42  1  0  0  0  0
 14 15  1  0  0  0  0
 14 30  2  0  0  0  0
 15 16  1  0  0  0  0
 16 17  1  0  0  0  0
 16 29  2  0  0  0  0
 17 18  2  0  0  0  0
 17 43  1  0  0  0  0
 18 19  1  0  0  0  0
 18 44  1  0  0  0  0
 19 20  2  0  0  0  0
 20 21  1  0  0  0  0
 20 29  1  0  0  0  0
 21 22  2  0  0  0  0
 21 45  1  0  0  0  0
 22 23  1  0  0  0  0
 22 25  1  0  0  0  0
 23 24  1  0  0  0  0
 24 46  1  0  0  0  0
 24 47  1  0  0  0  0
 24 48  1  0  0  0  0
 25 26  1  0  0  0  0
 25 28  2  0  0  0  0
 26 27  1  0  0  0  0
 27 49  1  0  0  0  0
 27 50  1  0  0  0  0
 27 51  1  0  0  0  0
 28 29  1  0  0  0  0
 28 52  1  0  0  0  0
 30 31  1  0  0  0  0
 30 53  1  0  0  0  0
 31 54  1  0  0  0  0
 32 33  1  0  0  0  0
 32 55  1  0  0  0  0
 33 56  1  0  0  0  0
M  END
$$$$
