CHEMBL4081243
 OpenBabel04072215383D

 66 70  0  0  0  0  0  0  0  0999 V2000
    2.0726   -0.1077   -0.8205 C   0  0  0  0  0  0  0  0  0  0  0  0
    0.6318    0.1004   -0.9594 N   0  0  0  0  0  0  0  0  0  0  0  0
   -0.1035   -1.1283   -0.6203 C   0  0  0  0  0  0  0  0  0  0  0  0
   -1.6362   -0.9187   -0.6611 C   0  0  0  0  0  0  0  0  0  0  0  0
   -2.1398    0.1437    0.2424 N   0  0  0  0  0  0  0  0  0  0  0  0
   -2.0026   -0.1639    1.6794 C   0  0  0  0  0  0  0  0  0  0  0  0
   -2.7121   -1.4341    2.1503 C   0  0  0  0  0  0  0  0  0  0  0  0
   -1.9580   -2.6132    2.1225 C   0  0  0  0  0  0  0  0  0  0  0  0
   -2.4859   -3.8528    2.4853 C   0  0  0  0  0  0  0  0  0  0  0  0
   -3.7860   -3.9906    2.9437 C   0  0  0  0  0  0  0  0  0  0  0  0
   -4.3393   -5.2557    3.3191 N   0  0  0  0  0  0  0  0  0  0  0  0
   -3.6553   -6.4803    3.2834 C   0  0  0  0  0  0  0  0  0  0  0  0
   -2.4707   -6.6207    2.9917 O   0  0  0  0  0  0  0  0  0  0  0  0
   -4.3864   -7.7536    3.6092 C   0  0  0  0  0  0  0  0  0  0  0  0
   -5.7713   -7.8929    3.4911 C   0  0  0  0  0  0  0  0  0  0  0  0
   -6.3666   -9.1482    3.6878 C   0  0  0  0  0  0  0  0  0  0  0  0
   -5.5879  -10.2703    3.9936 C   0  0  0  0  0  0  0  0  0  0  0  0
   -4.2016  -10.1561    4.1138 C   0  0  0  0  0  0  0  0  0  0  0  0
   -3.4119  -11.3506    4.3112 C   0  0  0  0  0  0  0  0  0  0  0  0
   -2.8069  -12.3867    4.3159 C   0  0  0  0  0  0  0  0  0  0  0  0
   -2.1210  -13.6379    4.0935 C   0  0  0  0  0  0  0  0  0  0  0  0
   -2.2410  -14.6880    4.9971 C   0  0  0  0  0  0  0  0  0  0  0  0
   -1.7433  -15.9318    4.7913 N   0  0  0  0  0  0  0  0  0  0  0  0
   -1.0375  -16.1165    3.6531 C   0  0  0  0  0  0  0  0  0  0  0  0
   -0.7586  -15.1122    2.7239 C   0  0  0  0  0  0  0  0  0  0  0  0
    0.0905  -15.3261    1.6209 C   0  0  0  0  0  0  0  0  0  0  0  0
    0.3592  -14.2958    0.7229 C   0  0  0  0  0  0  0  0  0  0  0  0
   -0.2622  -13.0626    0.8765 C   0  0  0  0  0  0  0  0  0  0  0  0
   -1.1136  -12.8437    1.9587 C   0  0  0  0  0  0  0  0  0  0  0  0
   -1.3473  -13.8438    2.9318 C   0  0  0  0  0  0  0  0  0  0  0  0
   -3.6101   -8.8998    3.9259 C   0  0  0  0  0  0  0  0  0  0  0  0
   -4.5567   -2.8070    3.0156 C   0  0  0  0  0  0  0  0  0  0  0  0
   -4.0451   -1.5258    2.6089 C   0  0  0  0  0  0  0  0  0  0  0  0
   -4.9783   -0.3319    2.7300 C   0  0  0  0  0  0  0  0  0  0  0  0
   -4.4787    0.8672    2.3303 F   0  0  0  0  0  0  0  0  0  0  0  0
   -6.1308   -0.5028    2.0223 F   0  0  0  0  0  0  0  0  0  0  0  0
   -5.3747   -0.1372    4.0221 F   0  0  0  0  0  0  0  0  0  0  0  0
   -1.3805    1.3779   -0.1034 C   0  0  0  0  0  0  0  0  0  0  0  0
    0.1691    1.2255   -0.1243 C   0  0  0  0  0  0  0  0  0  0  0  0
    2.4034   -0.9458   -1.4450 H   0  0  0  0  0  0  0  0  0  0  0  0
    2.3639   -0.3217    0.2147 H   0  0  0  0  0  0  0  0  0  0  0  0
    2.6245    0.7753   -1.1591 H   0  0  0  0  0  0  0  0  0  0  0  0
    0.2054   -1.4816    0.3687 H   0  0  0  0  0  0  0  0  0  0  0  0
    0.1539   -1.9195   -1.3343 H   0  0  0  0  0  0  0  0  0  0  0  0
   -2.1543   -1.8657   -0.4825 H   0  0  0  0  0  0  0  0  0  0  0  0
   -1.9158   -0.6479   -1.6895 H   0  0  0  0  0  0  0  0  0  0  0  0
   -2.3548    0.6848    2.2750 H   0  0  0  0  0  0  0  0  0  0  0  0
   -0.9460   -0.2519    1.9640 H   0  0  0  0  0  0  0  0  0  0  0  0
   -0.9231   -2.5975    1.7980 H   0  0  0  0  0  0  0  0  0  0  0  0
   -1.8133   -4.6963    2.3834 H   0  0  0  0  0  0  0  0  0  0  0  0
   -5.2933   -5.2461    3.6563 H   0  0  0  0  0  0  0  0  0  0  0  0
   -6.4054   -7.0630    3.1953 H   0  0  0  0  0  0  0  0  0  0  0  0
   -7.4406   -9.2661    3.5662 H   0  0  0  0  0  0  0  0  0  0  0  0
   -6.0663  -11.2423    4.1014 H   0  0  0  0  0  0  0  0  0  0  0  0
   -2.7623  -14.5667    5.9437 H   0  0  0  0  0  0  0  0  0  0  0  0
   -0.6853  -17.1353    3.4999 H   0  0  0  0  0  0  0  0  0  0  0  0
    0.5757  -16.2889    1.4773 H   0  0  0  0  0  0  0  0  0  0  0  0
    1.0556  -14.4516   -0.0981 H   0  0  0  0  0  0  0  0  0  0  0  0
   -0.0772  -12.2607    0.1678 H   0  0  0  0  0  0  0  0  0  0  0  0
   -1.5804  -11.8647    2.0504 H   0  0  0  0  0  0  0  0  0  0  0  0
   -2.5261   -8.8122    3.9806 H   0  0  0  0  0  0  0  0  0  0  0  0
   -5.5790   -2.8551    3.3890 H   0  0  0  0  0  0  0  0  0  0  0  0
   -1.6589    2.1964    0.5716 H   0  0  0  0  0  0  0  0  0  0  0  0
   -1.7027    1.7029   -1.1031 H   0  0  0  0  0  0  0  0  0  0  0  0
    0.5305    1.1131    0.9055 H   0  0  0  0  0  0  0  0  0  0  0  0
    0.6006    2.1557   -0.5141 H   0  0  0  0  0  0  0  0  0  0  0  0
  1  2  1  0  0  0  0
  1 40  1  0  0  0  0
  1 41  1  0  0  0  0
  1 42  1  0  0  0  0
  2  3  1  0  0  0  0
  2 39  1  0  0  0  0
  3  4  1  0  0  0  0
  3 43  1  0  0  0  0
  3 44  1  0  0  0  0
  4  5  1  0  0  0  0
  4 45  1  0  0  0  0
  4 46  1  0  0  0  0
  5  6  1  0  0  0  0
  5 38  1  0  0  0  0
  6  7  1  0  0  0  0
  6 47  1  0  0  0  0
  6 48  1  0  0  0  0
  7  8  1  0  0  0  0
  7 33  2  0  0  0  0
  8  9  2  0  0  0  0
  8 49  1  0  0  0  0
  9 10  1  0  0  0  0
  9 50  1  0  0  0  0
 10 11  1  0  0  0  0
 10 32  2  0  0  0  0
 11 12  1  0  0  0  0
 11 51  1  0  0  0  0
 12 13  2  0  0  0  0
 12 14  1  0  0  0  0
 14 15  1  0  0  0  0
 14 31  2  0  0  0  0
 15 16  2  0  0  0  0
 15 52  1  0  0  0  0
 16 17  1  0  0  0  0
 16 53  1  0  0  0  0
 17 18  2  0  0  0  0
 17 54  1  0  0  0  0
 18 19  1  0  0  0  0
 18 31  1  0  0  0  0
 19 20  3  0  0  0  0
 20 21  1  0  0  0  0
 21 22  1  0  0  0  0
 21 30  2  0  0  0  0
 22 23  2  0  0  0  0
 22 55  1  0  0  0  0
 23 24  1  0  0  0  0
 24 25  2  0  0  0  0
 24 56  1  0  0  0  0
 25 26  1  0  0  0  0
 25 30  1  0  0  0  0
 26 27  2  0  0  0  0
 26 57  1  0  0  0  0
 27 28  1  0  0  0  0
 27 58  1  0  0  0  0
 28 29  2  0  0  0  0
 28 59  1  0  0  0  0
 29 30  1  0  0  0  0
 29 60  1  0  0  0  0
 31 61  1  0  0  0  0
 32 33  1  0  0  0  0
 32 62  1  0  0  0  0
 33 34  1  0  0  0  0
 34 35  1  0  0  0  0
 34 36  1  0  0  0  0
 34 37  1  0  0  0  0
 38 39  1  0  0  0  0
 38 63  1  0  0  0  0
 38 64  1  0  0  0  0
 39 65  1  0  0  0  0
 39 66  1  0  0  0  0
M  END
$$$$
