CHEMBL3964605
 OpenBabel04072215373D

 55 60  0  0  1  0  0  0  0  0999 V2000
   -1.9013    6.1306   -1.5717 C   0  0  0  0  0  0  0  0  0  0  0  0
   -1.3702    4.8095   -1.4733 O   0  0  0  0  0  0  0  0  0  0  0  0
   -1.7262    4.0809   -0.3695 C   0  0  0  0  0  0  0  0  0  0  0  0
   -2.6187    4.5512    0.5995 C   0  0  0  0  0  0  0  0  0  0  0  0
   -2.9269    3.7864    1.7392 C   0  0  0  0  0  0  0  0  0  0  0  0
   -3.8265    4.1988    2.7306 C   0  0  0  0  0  0  0  0  0  0  0  0
   -4.5869    5.3905    2.5257 N   0  0  0  0  0  0  0  0  0  0  0  0
   -5.2851    6.0580    3.5538 C   0  0  0  0  0  0  0  0  0  0  0  0
   -4.6401    6.3676    4.7554 C   0  0  0  0  0  0  0  0  0  0  0  0
   -5.3440    6.9163    5.8252 C   0  0  0  0  0  0  0  0  0  0  0  0
   -6.7091    7.1726    5.6995 C   0  0  0  0  0  0  0  0  0  0  0  0
   -7.6222    7.8084    7.2378 Br  0  0  0  0  0  0  0  0  0  0  0  0
   -7.3515    6.9312    4.4799 C   0  0  0  0  0  0  0  0  0  0  0  0
   -9.0347    7.2448    4.2362 Cl  0  0  0  0  0  0  0  0  0  0  0  0
   -6.6352    6.3895    3.4060 C   0  0  0  0  0  0  0  0  0  0  0  0
   -4.0220    3.4831    3.8520 N   0  0  0  0  0  0  0  0  0  0  0  0
   -3.3505    2.3366    3.9547 C   0  0  0  0  0  0  0  0  0  0  0  0
   -2.5155    1.8233    3.0426 N   0  0  0  0  0  0  0  0  0  0  0  0
   -2.3035    2.5494    1.9400 C   0  0  0  0  0  0  0  0  0  0  0  0
   -1.4457    2.0741    0.9594 C   0  0  0  0  0  0  0  0  0  0  0  0
   -1.1509    2.8123   -0.1944 C   0  0  0  0  0  0  0  0  0  0  0  0
   -0.3586    2.3329   -1.2087 O   0  0  0  0  0  0  0  0  0  0  0  0
    0.6986    1.4314   -0.8628 C   0  0  2  0  0  0  0  0  0  0  0  0
    1.7346    1.4967   -1.9768 C   0  0  0  0  0  0  0  0  0  0  0  0
    2.0804    0.0589   -2.2974 C   0  0  1  0  0  0  0  0  0  0  0  0
    3.4794   -0.1729   -2.1240 O   0  0  0  0  0  0  0  0  0  0  0  0
    3.6662   -0.5405   -0.7504 C   0  0  0  0  0  0  0  0  0  0  0  0
    2.3888   -1.2571   -0.2984 C   0  0  0  0  0  0  0  0  0  0  0  0
    2.1103   -0.9435    1.0770 O   0  0  0  0  0  0  0  0  0  0  0  0
    2.1013   -2.2027    1.7560 C   0  0  0  0  0  0  0  0  0  0  0  0
    2.9487   -3.0956    0.8925 C   0  0  0  0  0  0  0  0  0  0  0  0
    2.5851   -2.6834   -0.4247 O   0  0  0  0  0  0  0  0  0  0  0  0
    1.3122   -0.7782   -1.2920 C   0  0  1  0  0  0  0  0  0  0  0  0
    0.2796    0.0655   -0.7578 O   0  0  0  0  0  0  0  0  0  0  0  0
   -1.4575    6.6243   -2.4409 H   0  0  0  0  0  0  0  0  0  0  0  0
   -1.6471    6.7349   -0.6920 H   0  0  0  0  0  0  0  0  0  0  0  0
   -2.9874    6.1019   -1.7217 H   0  0  0  0  0  0  0  0  0  0  0  0
   -3.0688    5.5342    0.5099 H   0  0  0  0  0  0  0  0  0  0  0  0
   -5.1501    5.2650    1.6903 H   0  0  0  0  0  0  0  0  0  0  0  0
   -3.5791    6.1498    4.8712 H   0  0  0  0  0  0  0  0  0  0  0  0
   -4.8188    7.1095    6.7577 H   0  0  0  0  0  0  0  0  0  0  0  0
   -7.1501    6.1873    2.4688 H   0  0  0  0  0  0  0  0  0  0  0  0
   -3.5011    1.7599    4.8606 H   0  0  0  0  0  0  0  0  0  0  0  0
   -1.0151    1.0875    1.1065 H   0  0  0  0  0  0  0  0  0  0  0  0
    1.1664    1.7272    0.0859 H   0  0  0  0  0  0  0  0  0  0  0  0
    2.6028    2.0835   -1.6558 H   0  0  0  0  0  0  0  0  0  0  0  0
    1.3378    1.9981   -2.8671 H   0  0  0  0  0  0  0  0  0  0  0  0
    1.8104   -0.1857   -3.3300 H   0  0  0  0  0  0  0  0  0  0  0  0
    3.8446    0.3735   -0.1726 H   0  0  0  0  0  0  0  0  0  0  0  0
    4.5589   -1.1685   -0.6832 H   0  0  0  0  0  0  0  0  0  0  0  0
    1.0661   -2.5565    1.7981 H   0  0  0  0  0  0  0  0  0  0  0  0
    2.4883   -2.0929    2.7726 H   0  0  0  0  0  0  0  0  0  0  0  0
    4.0173   -2.9037    1.0340 H   0  0  0  0  0  0  0  0  0  0  0  0
    2.7544   -4.1616    1.0376 H   0  0  0  0  0  0  0  0  0  0  0  0
    0.8332   -1.6330   -1.7802 H   0  0  0  0  0  0  0  0  0  0  0  0
  1  2  1  0  0  0  0
  1 35  1  0  0  0  0
  1 36  1  0  0  0  0
  1 37  1  0  0  0  0
  2  3  1  0  0  0  0
  3  4  1  0  0  0  0
  3 21  2  0  0  0  0
  4  5  2  0  0  0  0
  4 38  1  0  0  0  0
  5  6  1  0  0  0  0
  5 19  1  0  0  0  0
  6  7  1  0  0  0  0
  6 16  2  0  0  0  0
  7  8  1  0  0  0  0
  7 39  1  0  0  0  0
  8  9  1  0  0  0  0
  8 15  2  0  0  0  0
  9 10  2  0  0  0  0
  9 40  1  0  0  0  0
 10 11  1  0  0  0  0
 10 41  1  0  0  0  0
 11 12  1  0  0  0  0
 11 13  2  0  0  0  0
 13 14  1  0  0  0  0
 13 15  1  0  0  0  0
 15 42  1  0  0  0  0
 16 17  1  0  0  0  0
 17 18  2  0  0  0  0
 17 43  1  0  0  0  0
 18 19  1  0  0  0  0
 19 20  2  0  0  0  0
 20 21  1  0  0  0  0
 20 44  1  0  0  0  0
 21 22  1  0  0  0  0
 23 24  1  0  0  0  0
 23 34  1  0  0  0  0
 23 22  1  0  0  0  0
 23 45  1  1  0  0  0
 24 25  1  0  0  0  0
 24 46  1  0  0  0  0
 24 47  1  0  0  0  0
 25 26  1  0  0  0  0
 25 33  1  0  0  0  0
 25 48  1  6  0  0  0
 26 27  1  0  0  0  0
 27 28  1  0  0  0  0
 27 49  1  0  0  0  0
 27 50  1  0  0  0  0
 28 29  1  0  0  0  0
 28 32  1  0  0  0  0
 28 33  1  0  0  0  0
 29 30  1  0  0  0  0
 30 31  1  0  0  0  0
 30 51  1  0  0  0  0
 30 52  1  0  0  0  0
 31 32  1  0  0  0  0
 31 53  1  0  0  0  0
 31 54  1  0  0  0  0
 33 34  1  0  0  0  0
 33 55  1  6  0  0  0
M  END
$$$$
