CHEMBL3969472
 OpenBabel04072215373D

 58 62  0  0  1  0  0  0  0  0999 V2000
    1.1209    0.5644   -0.3290 C   0  0  0  0  0  0  0  0  0  0  0  0
    2.5192    0.3415   -0.2014 O   0  0  0  0  0  0  0  0  0  0  0  0
    3.0837   -0.5276   -1.0929 C   0  0  0  0  0  0  0  0  0  0  0  0
    4.0794   -1.3410   -0.5261 C   0  0  0  0  0  0  0  0  0  0  0  0
    4.7964   -2.2933   -1.3082 C   0  0  0  0  0  0  0  0  0  0  0  0
    5.8147   -3.1579   -0.8768 C   0  0  0  0  0  0  0  0  0  0  0  0
    6.1953   -3.1587    0.4899 N   0  0  0  0  0  0  0  0  0  0  0  0
    7.3826   -3.7514    0.9686 C   0  0  0  0  0  0  0  0  0  0  0  0
    8.6094   -3.5031    0.3334 C   0  0  0  0  0  0  0  0  0  0  0  0
    9.7813   -4.1209    0.7672 C   0  0  0  0  0  0  0  0  0  0  0  0
    9.7437   -4.9957    1.8521 C   0  0  0  0  0  0  0  0  0  0  0  0
   11.2230   -5.7500    2.3247 Cl  0  0  0  0  0  0  0  0  0  0  0  0
    8.5305   -5.2364    2.5075 C   0  0  0  0  0  0  0  0  0  0  0  0
    8.4079   -6.3109    3.8561 Cl  0  0  0  0  0  0  0  0  0  0  0  0
    7.3568   -4.6098    2.0709 C   0  0  0  0  0  0  0  0  0  0  0  0
    6.4563   -4.0007   -1.7209 N   0  0  0  0  0  0  0  0  0  0  0  0
    6.0734   -3.9908   -2.9961 C   0  0  0  0  0  0  0  0  0  0  0  0
    5.1174   -3.2284   -3.5105 N   0  0  0  0  0  0  0  0  0  0  0  0
    4.5124   -2.3964   -2.6628 C   0  0  0  0  0  0  0  0  0  0  0  0
    3.5524   -1.5765   -3.2028 C   0  0  0  0  0  0  0  0  0  0  0  0
    2.8283   -0.6213   -2.4654 C   0  0  0  0  0  0  0  0  0  0  0  0
    1.9235    0.2296   -3.0818 O   0  0  0  0  0  0  0  0  0  0  0  0
    1.8660    0.0279   -4.5026 C   0  0  0  0  0  0  0  0  0  0  0  0
    0.8975    0.9090   -5.2647 C   0  0  3  0  0  0  0  0  0  0  0  0
   -0.5388    0.6975   -4.7908 C   0  0  0  0  0  0  0  0  0  0  0  0
   -1.4006    1.5475   -5.6075 N   0  0  0  0  0  0  0  0  0  0  0  0
   -2.1302    2.6568   -5.1973 C   0  0  0  0  0  0  0  0  0  0  0  0
   -2.8394    3.2752   -5.9891 O   0  0  0  0  0  0  0  0  0  0  0  0
   -2.0824    3.0669   -3.7968 C   0  0  0  0  0  0  0  0  0  0  0  0
   -1.0464    3.0662   -2.8138 C   0  0  0  0  0  0  0  0  0  0  0  0
   -1.6095    3.5079   -1.6397 C   0  0  0  0  0  0  0  0  0  0  0  0
   -2.8958    3.8780   -1.8469 O   0  0  0  0  0  0  0  0  0  0  0  0
   -3.1634    3.6441   -3.1555 C   0  0  0  0  0  0  0  0  0  0  0  0
   -1.3281    1.2064   -7.0313 C   0  0  0  0  0  0  0  0  0  0  0  0
    0.1295    1.2268   -7.5172 C   0  0  0  0  0  0  0  0  0  0  0  0
    1.0042    0.4934   -6.6516 O   0  0  0  0  0  0  0  0  0  0  0  0
    0.6938    0.5825    0.6804 H   0  0  0  0  0  0  0  0  0  0  0  0
    0.5963   -0.2149   -0.8906 H   0  0  0  0  0  0  0  0  0  0  0  0
    0.9528    1.5481   -0.7753 H   0  0  0  0  0  0  0  0  0  0  0  0
    4.3092   -1.2244    0.5307 H   0  0  0  0  0  0  0  0  0  0  0  0
    5.3842   -3.3658    1.0637 H   0  0  0  0  0  0  0  0  0  0  0  0
    8.6495   -2.8324   -0.5223 H   0  0  0  0  0  0  0  0  0  0  0  0
   10.7121   -3.9201    0.2438 H   0  0  0  0  0  0  0  0  0  0  0  0
    6.4179   -4.8218    2.5754 H   0  0  0  0  0  0  0  0  0  0  0  0
    6.5905   -4.6636   -3.6754 H   0  0  0  0  0  0  0  0  0  0  0  0
    3.4163   -1.7166   -4.2700 H   0  0  0  0  0  0  0  0  0  0  0  0
    1.5604   -1.0073   -4.7079 H   0  0  0  0  0  0  0  0  0  0  0  0
    2.8587    0.2112   -4.9377 H   0  0  0  0  0  0  0  0  0  0  0  0
    1.1956    1.9615   -5.1827 H   0  0  0  0  0  0  0  0  0  0  0  0
   -0.6600    0.8576   -3.7235 H   0  0  0  0  0  0  0  0  0  0  0  0
   -0.8518   -0.3374   -4.9793 H   0  0  0  0  0  0  0  0  0  0  0  0
   -0.0160    2.7591   -2.9224 H   0  0  0  0  0  0  0  0  0  0  0  0
   -1.2419    3.6302   -0.6303 H   0  0  0  0  0  0  0  0  0  0  0  0
   -4.1581    3.9114   -3.4858 H   0  0  0  0  0  0  0  0  0  0  0  0
   -1.9379    1.8692   -7.6502 H   0  0  0  0  0  0  0  0  0  0  0  0
   -1.7306    0.1902   -7.1264 H   0  0  0  0  0  0  0  0  0  0  0  0
    0.5081    2.2534   -7.5940 H   0  0  0  0  0  0  0  0  0  0  0  0
    0.1945    0.7698   -8.5085 H   0  0  0  0  0  0  0  0  0  0  0  0
  1  2  1  0  0  0  0
  1 37  1  0  0  0  0
  1 38  1  0  0  0  0
  1 39  1  0  0  0  0
  2  3  1  0  0  0  0
  3  4  1  0  0  0  0
  3 21  2  0  0  0  0
  4  5  2  0  0  0  0
  4 40  1  0  0  0  0
  5  6  1  0  0  0  0
  5 19  1  0  0  0  0
  6  7  1  0  0  0  0
  6 16  2  0  0  0  0
  7  8  1  0  0  0  0
  7 41  1  0  0  0  0
  8  9  1  0  0  0  0
  8 15  2  0  0  0  0
  9 10  2  0  0  0  0
  9 42  1  0  0  0  0
 10 11  1  0  0  0  0
 10 43  1  0  0  0  0
 11 12  1  0  0  0  0
 11 13  2  0  0  0  0
 13 14  1  0  0  0  0
 13 15  1  0  0  0  0
 15 44  1  0  0  0  0
 16 17  1  0  0  0  0
 17 18  2  0  0  0  0
 17 45  1  0  0  0  0
 18 19  1  0  0  0  0
 19 20  2  0  0  0  0
 20 21  1  0  0  0  0
 20 46  1  0  0  0  0
 21 22  1  0  0  0  0
 22 23  1  0  0  0  0
 23 24  1  0  0  0  0
 23 47  1  0  0  0  0
 23 48  1  0  0  0  0
 24 25  1  0  0  0  0
 24 36  1  0  0  0  0
 24 49  1  0  0  0  0
 25 26  1  0  0  0  0
 25 50  1  0  0  0  0
 25 51  1  0  0  0  0
 26 27  1  0  0  0  0
 26 34  1  0  0  0  0
 27 28  2  0  0  0  0
 27 29  1  0  0  0  0
 29 30  1  0  0  0  0
 29 33  2  0  0  0  0
 30 31  2  0  0  0  0
 30 52  1  0  0  0  0
 31 32  1  0  0  0  0
 31 53  1  0  0  0  0
 32 33  1  0  0  0  0
 33 54  1  0  0  0  0
 34 35  1  0  0  0  0
 34 55  1  0  0  0  0
 34 56  1  0  0  0  0
 35 36  1  0  0  0  0
 35 57  1  0  0  0  0
 35 58  1  0  0  0  0
M  END
$$$$
