CHEMBL190405
 OpenBabel04072215363D

 80 83  0  0  0  0  0  0  0  0999 V2000
    1.4604   -4.3674   -3.0315 C   0  0  0  0  0  0  0  0  0  0  0  0
    2.8133   -4.0655   -2.7209 O   0  0  0  0  0  0  0  0  0  0  0  0
    3.0463   -3.4730   -1.5090 C   0  0  0  0  0  0  0  0  0  0  0  0
    2.0738   -3.0269   -0.6188 C   0  0  0  0  0  0  0  0  0  0  0  0
    2.4574   -2.4648    0.5963 C   0  0  0  0  0  0  0  0  0  0  0  0
    1.5944   -2.0576    1.5783 O   0  0  0  0  0  0  0  0  0  0  0  0
    0.3539   -2.7594    1.6302 C   0  0  0  0  0  0  0  0  0  0  0  0
    3.8153   -2.2925    0.8803 C   0  0  0  0  0  0  0  0  0  0  0  0
    4.8267   -2.7660    0.0191 C   0  0  0  0  0  0  0  0  0  0  0  0
    6.2529   -2.7631    0.4387 C   0  0  0  0  0  0  0  0  0  0  0  0
    6.5354   -3.0080    1.7980 C   0  0  0  0  0  0  0  0  0  0  0  0
    7.8482   -3.0886    2.2755 C   0  0  0  0  0  0  0  0  0  0  0  0
    8.1493   -3.3057    3.6199 C   0  0  0  0  0  0  0  0  0  0  0  0
    9.4027   -3.4107    4.1087 N   0  0  0  0  0  0  0  0  0  0  0  0
   10.4173   -3.2746    3.2399 C   0  0  0  0  0  0  0  0  0  0  0  0
   11.7444   -3.4148    3.6707 N   0  0  0  0  0  0  0  0  0  0  0  0
   11.9494   -3.8388    5.0554 C   0  0  0  0  0  0  0  0  0  0  0  0
   13.3994   -3.5741    5.4880 C   0  0  0  0  0  0  0  0  0  0  0  0
   13.6532   -2.0837    5.7294 C   0  0  0  0  0  0  0  0  0  0  0  0
   15.0923   -1.7885    6.1490 C   0  0  0  0  0  0  0  0  0  0  0  0
   15.2820   -0.2843    6.3374 C   0  0  0  0  0  0  0  0  0  0  0  0
   16.6318   -0.0255    6.7157 O   0  0  0  0  0  0  0  0  0  0  0  0
   16.9437    1.2835    6.9745 C   0  0  0  0  0  0  0  0  0  0  0  0
   16.0817    2.3747    6.8363 C   0  0  0  0  0  0  0  0  0  0  0  0
   16.5224    3.6648    7.1456 C   0  0  0  0  0  0  0  0  0  0  0  0
   17.8251    3.8719    7.5923 C   0  0  0  0  0  0  0  0  0  0  0  0
   18.6922    2.7893    7.7248 C   0  0  0  0  0  0  0  0  0  0  0  0
   18.2512    1.5015    7.4145 C   0  0  0  0  0  0  0  0  0  0  0  0
   10.1862   -3.0466    1.8796 C   0  0  0  0  0  0  0  0  0  0  0  0
    8.8940   -2.9701    1.3664 C   0  0  0  0  0  0  0  0  0  0  0  0
    8.6627   -2.8032    0.0406 N   0  0  0  0  0  0  0  0  0  0  0  0
    7.3790   -2.6548   -0.3998 C   0  0  0  0  0  0  0  0  0  0  0  0
    7.2572   -2.4741   -1.8026 N   0  0  0  0  0  0  0  0  0  0  0  0
    7.1301   -1.1814   -2.2837 C   0  0  0  0  0  0  0  0  0  0  0  0
    7.0911   -0.1820   -1.5699 O   0  0  0  0  0  0  0  0  0  0  0  0
    7.1180   -1.1410   -3.6653 N   0  0  0  0  0  0  0  0  0  0  0  0
    7.1455    0.1183   -4.4553 C   0  0  0  0  0  0  0  0  0  0  0  0
    8.5000    0.8214   -4.2560 C   0  0  0  0  0  0  0  0  0  0  0  0
    7.0008   -0.1890   -5.9631 C   0  0  0  0  0  0  0  0  0  0  0  0
    6.0031    1.0734   -4.0726 C   0  0  0  0  0  0  0  0  0  0  0  0
    4.4027   -3.3544   -1.1807 C   0  0  0  0  0  0  0  0  0  0  0  0
    1.4494   -4.9019   -3.9860 H   0  0  0  0  0  0  0  0  0  0  0  0
    0.8736   -3.4517   -3.1522 H   0  0  0  0  0  0  0  0  0  0  0  0
    1.0173   -5.0261   -2.2762 H   0  0  0  0  0  0  0  0  0  0  0  0
    1.0221   -3.1087   -0.8587 H   0  0  0  0  0  0  0  0  0  0  0  0
   -0.0434   -2.6650    2.6452 H   0  0  0  0  0  0  0  0  0  0  0  0
    0.4696   -3.8301    1.4244 H   0  0  0  0  0  0  0  0  0  0  0  0
   -0.3641   -2.3073    0.9391 H   0  0  0  0  0  0  0  0  0  0  0  0
    4.0719   -1.8165    1.8248 H   0  0  0  0  0  0  0  0  0  0  0  0
    5.7249   -3.1730    2.5047 H   0  0  0  0  0  0  0  0  0  0  0  0
    7.3655   -3.4096    4.3659 H   0  0  0  0  0  0  0  0  0  0  0  0
   12.2853   -2.6032    3.3925 H   0  0  0  0  0  0  0  0  0  0  0  0
   11.7623   -4.9181    5.1129 H   0  0  0  0  0  0  0  0  0  0  0  0
   11.2715   -3.3430    5.7614 H   0  0  0  0  0  0  0  0  0  0  0  0
   14.0951   -3.9572    4.7320 H   0  0  0  0  0  0  0  0  0  0  0  0
   13.5973   -4.1222    6.4177 H   0  0  0  0  0  0  0  0  0  0  0  0
   12.9690   -1.7222    6.5072 H   0  0  0  0  0  0  0  0  0  0  0  0
   13.4295   -1.5148    4.8203 H   0  0  0  0  0  0  0  0  0  0  0  0
   15.7984   -2.1561    5.3943 H   0  0  0  0  0  0  0  0  0  0  0  0
   15.3404   -2.3121    7.0804 H   0  0  0  0  0  0  0  0  0  0  0  0
   14.5986    0.0649    7.1216 H   0  0  0  0  0  0  0  0  0  0  0  0
   15.0582    0.2257    5.3922 H   0  0  0  0  0  0  0  0  0  0  0  0
   15.0604    2.2599    6.4894 H   0  0  0  0  0  0  0  0  0  0  0  0
   15.8444    4.5079    7.0380 H   0  0  0  0  0  0  0  0  0  0  0  0
   18.1640    4.8754    7.8355 H   0  0  0  0  0  0  0  0  0  0  0  0
   19.7103    2.9454    8.0705 H   0  0  0  0  0  0  0  0  0  0  0  0
   18.9304    0.6591    7.5195 H   0  0  0  0  0  0  0  0  0  0  0  0
   11.0259   -2.9583    1.2000 H   0  0  0  0  0  0  0  0  0  0  0  0
    8.0457   -2.8984   -2.2754 H   0  0  0  0  0  0  0  0  0  0  0  0
    6.6334   -1.9279   -4.0903 H   0  0  0  0  0  0  0  0  0  0  0  0
    9.3280    0.1735   -4.5682 H   0  0  0  0  0  0  0  0  0  0  0  0
    8.6714    1.0878   -3.2088 H   0  0  0  0  0  0  0  0  0  0  0  0
    8.5593    1.7443   -4.8450 H   0  0  0  0  0  0  0  0  0  0  0  0
    7.8122   -0.8260   -6.3307 H   0  0  0  0  0  0  0  0  0  0  0  0
    7.0181    0.7367   -6.5544 H   0  0  0  0  0  0  0  0  0  0  0  0
    6.0541   -0.6957   -6.1812 H   0  0  0  0  0  0  0  0  0  0  0  0
    6.0934    1.4367   -3.0451 H   0  0  0  0  0  0  0  0  0  0  0  0
    5.0287    0.5827   -4.1698 H   0  0  0  0  0  0  0  0  0  0  0  0
    5.9995    1.9599   -4.7189 H   0  0  0  0  0  0  0  0  0  0  0  0
    5.1235   -3.7741   -1.8782 H   0  0  0  0  0  0  0  0  0  0  0  0
  1  2  1  0  0  0  0
  1 42  1  0  0  0  0
  1 43  1  0  0  0  0
  1 44  1  0  0  0  0
  2  3  1  0  0  0  0
  3  4  1  0  0  0  0
  3 41  2  0  0  0  0
  4  5  2  0  0  0  0
  4 45  1  0  0  0  0
  5  6  1  0  0  0  0
  5  8  1  0  0  0  0
  6  7  1  0  0  0  0
  7 46  1  0  0  0  0
  7 47  1  0  0  0  0
  7 48  1  0  0  0  0
  8  9  2  0  0  0  0
  8 49  1  0  0  0  0
  9 10  1  0  0  0  0
  9 41  1  0  0  0  0
 10 11  1  0  0  0  0
 10 32  2  0  0  0  0
 11 12  2  0  0  0  0
 11 50  1  0  0  0  0
 12 13  1  0  0  0  0
 12 30  1  0  0  0  0
 13 14  2  0  0  0  0
 13 51  1  0  0  0  0
 14 15  1  0  0  0  0
 15 16  1  0  0  0  0
 15 29  2  0  0  0  0
 16 17  1  0  0  0  0
 16 52  1  0  0  0  0
 17 18  1  0  0  0  0
 17 53  1  0  0  0  0
 17 54  1  0  0  0  0
 18 19  1  0  0  0  0
 18 55  1  0  0  0  0
 18 56  1  0  0  0  0
 19 20  1  0  0  0  0
 19 57  1  0  0  0  0
 19 58  1  0  0  0  0
 20 21  1  0  0  0  0
 20 59  1  0  0  0  0
 20 60  1  0  0  0  0
 21 22  1  0  0  0  0
 21 61  1  0  0  0  0
 21 62  1  0  0  0  0
 22 23  1  0  0  0  0
 23 24  1  0  0  0  0
 23 28  2  0  0  0  0
 24 25  2  0  0  0  0
 24 63  1  0  0  0  0
 25 26  1  0  0  0  0
 25 64  1  0  0  0  0
 26 27  2  0  0  0  0
 26 65  1  0  0  0  0
 27 28  1  0  0  0  0
 27 66  1  0  0  0  0
 28 67  1  0  0  0  0
 29 30  1  0  0  0  0
 29 68  1  0  0  0  0
 30 31  2  0  0  0  0
 31 32  1  0  0  0  0
 32 33  1  0  0  0  0
 33 34  1  0  0  0  0
 33 69  1  0  0  0  0
 34 35  2  0  0  0  0
 34 36  1  0  0  0  0
 36 37  1  0  0  0  0
 36 70  1  0  0  0  0
 37 38  1  0  0  0  0
 37 39  1  0  0  0  0
 37 40  1  0  0  0  0
 38 71  1  0  0  0  0
 38 72  1  0  0  0  0
 38 73  1  0  0  0  0
 39 74  1  0  0  0  0
 39 75  1  0  0  0  0
 39 76  1  0  0  0  0
 40 77  1  0  0  0  0
 40 78  1  0  0  0  0
 40 79  1  0  0  0  0
 41 80  1  0  0  0  0
M  END
$$$$
