CHEMBL211460
 OpenBabel04072215363D

 74 78  0  0  0  0  0  0  0  0999 V2000
    1.4442   -0.3612   -1.0569 C   0  0  0  0  0  0  0  0  0  0  0  0
    2.6800   -0.0172   -0.4449 O   0  0  0  0  0  0  0  0  0  0  0  0
    3.1982   -0.8706    0.4988 C   0  0  0  0  0  0  0  0  0  0  0  0
    2.8602   -2.2328    0.5196 C   0  0  0  0  0  0  0  0  0  0  0  0
    3.5122   -3.1121    1.3790 C   0  0  0  0  0  0  0  0  0  0  0  0
    4.5262   -2.6431    2.2037 C   0  0  0  0  0  0  0  0  0  0  0  0
    4.8638   -1.2840    2.2036 C   0  0  0  0  0  0  0  0  0  0  0  0
    4.1918   -0.3583    1.3836 C   0  0  0  0  0  0  0  0  0  0  0  0
    4.5127    1.0511    1.4818 N   0  0  0  0  0  0  0  0  0  0  0  0
    5.7861    1.5433    1.8140 C   0  0  0  0  0  0  0  0  0  0  0  0
    6.8131    0.8890    1.9548 O   0  0  0  0  0  0  0  0  0  0  0  0
    5.7731    2.9327    2.0411 O   0  0  0  0  0  0  0  0  0  0  0  0
    6.6032    3.8673    1.3605 C   0  0  0  0  0  0  0  0  0  0  0  0
    7.0198    3.7082    0.0251 C   0  0  0  0  0  0  0  0  0  0  0  0
    6.8279    2.4900   -0.8335 C   0  0  0  0  0  0  0  0  0  0  0  0
    7.6877    4.7825   -0.5892 C   0  0  0  0  0  0  0  0  0  0  0  0
    7.8997    5.9860    0.0770 C   0  0  0  0  0  0  0  0  0  0  0  0
    7.4648    6.1374    1.3887 C   0  0  0  0  0  0  0  0  0  0  0  0
    6.8140    5.0859    2.0487 C   0  0  0  0  0  0  0  0  0  0  0  0
    6.3393    5.3033    3.4595 C   0  0  0  0  0  0  0  0  0  0  0  0
    3.5188    1.9858    1.0784 C   0  0  0  0  0  0  0  0  0  0  0  0
    2.3270    2.0296    1.7622 C   0  0  0  0  0  0  0  0  0  0  0  0
    1.4730    3.0359    1.3978 C   0  0  0  0  0  0  0  0  0  0  0  0
    1.7571    3.9282    0.4379 N   0  0  0  0  0  0  0  0  0  0  0  0
    2.9332    3.8027   -0.2010 C   0  0  0  0  0  0  0  0  0  0  0  0
    3.2490    4.6664   -1.2469 N   0  0  0  0  0  0  0  0  0  0  0  0
    2.8678    6.0048   -1.3931 C   0  0  0  0  0  0  0  0  0  0  0  0
    2.5450    6.7999   -0.2946 C   0  0  0  0  0  0  0  0  0  0  0  0
    2.0318    8.0843   -0.4667 C   0  0  0  0  0  0  0  0  0  0  0  0
    1.8019    8.6255   -1.7374 C   0  0  0  0  0  0  0  0  0  0  0  0
    1.2548    9.8906   -1.8403 N   0  0  0  0  0  0  0  0  0  0  0  0
    1.4025   10.7183   -3.0426 C   0  0  0  0  0  0  0  0  0  0  0  0
    1.3540   12.2108   -2.6229 C   0  0  0  0  0  0  0  0  0  0  0  0
    0.1251   12.5666   -1.8705 N   0  0  0  0  0  0  0  0  0  0  0  0
    0.1769   13.9590   -1.4319 C   0  0  0  0  0  0  0  0  0  0  0  0
   -0.0112   11.6665   -0.7007 C   0  0  0  0  0  0  0  0  0  0  0  0
    0.0102   10.1745   -1.0977 C   0  0  0  0  0  0  0  0  0  0  0  0
    2.1903    7.8491   -2.8347 C   0  0  0  0  0  0  0  0  0  0  0  0
    2.7242    6.5594   -2.6666 C   0  0  0  0  0  0  0  0  0  0  0  0
    3.8235    2.8557    0.0880 N   0  0  0  0  0  0  0  0  0  0  0  0
    1.1389    0.4815   -1.6850 H   0  0  0  0  0  0  0  0  0  0  0  0
    0.6660   -0.5189   -0.3032 H   0  0  0  0  0  0  0  0  0  0  0  0
    1.5489   -1.2326   -1.7103 H   0  0  0  0  0  0  0  0  0  0  0  0
    2.1126   -2.6471   -0.1492 H   0  0  0  0  0  0  0  0  0  0  0  0
    3.2450   -4.1662    1.3819 H   0  0  0  0  0  0  0  0  0  0  0  0
    5.0566   -3.3337    2.8561 H   0  0  0  0  0  0  0  0  0  0  0  0
    5.6500   -0.9670    2.8847 H   0  0  0  0  0  0  0  0  0  0  0  0
    6.0284    1.8284   -0.5190 H   0  0  0  0  0  0  0  0  0  0  0  0
    7.7539    1.9103   -0.8707 H   0  0  0  0  0  0  0  0  0  0  0  0
    6.5518    2.7908   -1.8507 H   0  0  0  0  0  0  0  0  0  0  0  0
    8.0274    4.6885   -1.6189 H   0  0  0  0  0  0  0  0  0  0  0  0
    8.3940    6.8078   -0.4338 H   0  0  0  0  0  0  0  0  0  0  0  0
    7.6247    7.0916    1.8869 H   0  0  0  0  0  0  0  0  0  0  0  0
    6.6091    6.3032    3.8210 H   0  0  0  0  0  0  0  0  0  0  0  0
    6.8050    4.5792    4.1346 H   0  0  0  0  0  0  0  0  0  0  0  0
    5.2501    5.2195    3.5190 H   0  0  0  0  0  0  0  0  0  0  0  0
    2.0789    1.3406    2.5635 H   0  0  0  0  0  0  0  0  0  0  0  0
    0.5124    3.1744    1.8826 H   0  0  0  0  0  0  0  0  0  0  0  0
    4.0887    4.3796   -1.7257 H   0  0  0  0  0  0  0  0  0  0  0  0
    2.6913    6.4321    0.7172 H   0  0  0  0  0  0  0  0  0  0  0  0
    1.8223    8.6725    0.4224 H   0  0  0  0  0  0  0  0  0  0  0  0
    0.6022   10.4981   -3.7606 H   0  0  0  0  0  0  0  0  0  0  0  0
    2.3644   10.5375   -3.5358 H   0  0  0  0  0  0  0  0  0  0  0  0
    1.4239   12.8282   -3.5256 H   0  0  0  0  0  0  0  0  0  0  0  0
    2.2406   12.4230   -2.0086 H   0  0  0  0  0  0  0  0  0  0  0  0
    0.2460   14.6292   -2.2951 H   0  0  0  0  0  0  0  0  0  0  0  0
    1.0288   14.1569   -0.7711 H   0  0  0  0  0  0  0  0  0  0  0  0
   -0.7415   14.2249   -0.8968 H   0  0  0  0  0  0  0  0  0  0  0  0
   -0.9550   11.8749   -0.1833 H   0  0  0  0  0  0  0  0  0  0  0  0
    0.8036   11.8476    0.0144 H   0  0  0  0  0  0  0  0  0  0  0  0
   -0.8575    9.9407   -1.7290 H   0  0  0  0  0  0  0  0  0  0  0  0
   -0.0936    9.5753   -0.1867 H   0  0  0  0  0  0  0  0  0  0  0  0
    2.0400    8.2105   -3.8478 H   0  0  0  0  0  0  0  0  0  0  0  0
    2.9696    5.9714   -3.5471 H   0  0  0  0  0  0  0  0  0  0  0  0
  1  2  1  0  0  0  0
  1 41  1  0  0  0  0
  1 42  1  0  0  0  0
  1 43  1  0  0  0  0
  2  3  1  0  0  0  0
  3  4  1  0  0  0  0
  3  8  2  0  0  0  0
  4  5  2  0  0  0  0
  4 44  1  0  0  0  0
  5  6  1  0  0  0  0
  5 45  1  0  0  0  0
  6  7  2  0  0  0  0
  6 46  1  0  0  0  0
  7  8  1  0  0  0  0
  7 47  1  0  0  0  0
  8  9  1  0  0  0  0
  9 10  1  0  0  0  0
  9 21  1  0  0  0  0
 10 11  2  0  0  0  0
 10 12  1  0  0  0  0
 12 13  1  0  0  0  0
 13 14  1  0  0  0  0
 13 19  2  0  0  0  0
 14 15  1  0  0  0  0
 14 16  2  0  0  0  0
 15 48  1  0  0  0  0
 15 49  1  0  0  0  0
 15 50  1  0  0  0  0
 16 17  1  0  0  0  0
 16 51  1  0  0  0  0
 17 18  2  0  0  0  0
 17 52  1  0  0  0  0
 18 19  1  0  0  0  0
 18 53  1  0  0  0  0
 19 20  1  0  0  0  0
 20 54  1  0  0  0  0
 20 55  1  0  0  0  0
 20 56  1  0  0  0  0
 21 22  1  0  0  0  0
 21 40  2  0  0  0  0
 22 23  2  0  0  0  0
 22 57  1  0  0  0  0
 23 24  1  0  0  0  0
 23 58  1  0  0  0  0
 24 25  2  0  0  0  0
 25 26  1  0  0  0  0
 25 40  1  0  0  0  0
 26 27  1  0  0  0  0
 26 59  1  0  0  0  0
 27 28  1  0  0  0  0
 27 39  2  0  0  0  0
 28 29  2  0  0  0  0
 28 60  1  0  0  0  0
 29 30  1  0  0  0  0
 29 61  1  0  0  0  0
 30 31  1  0  0  0  0
 30 38  2  0  0  0  0
 31 32  1  0  0  0  0
 31 37  1  0  0  0  0
 32 33  1  0  0  0  0
 32 62  1  0  0  0  0
 32 63  1  0  0  0  0
 33 34  1  0  0  0  0
 33 64  1  0  0  0  0
 33 65  1  0  0  0  0
 34 35  1  0  0  0  0
 34 36  1  0  0  0  0
 35 66  1  0  0  0  0
 35 67  1  0  0  0  0
 35 68  1  0  0  0  0
 36 37  1  0  0  0  0
 36 69  1  0  0  0  0
 36 70  1  0  0  0  0
 37 71  1  0  0  0  0
 37 72  1  0  0  0  0
 38 39  1  0  0  0  0
 38 73  1  0  0  0  0
 39 74  1  0  0  0  0
M  END
$$$$
