CHEMBL1929557
 OpenBabel04072215363D

 49 52  0  0  0  0  0  0  0  0999 V2000
    9.5987    0.5144   -4.9115 C   0  0  0  0  0  0  0  0  0  0  0  0
    8.7208    1.4357   -4.2608 O   0  0  0  0  0  0  0  0  0  0  0  0
    8.4597    1.1902   -2.9394 C   0  0  0  0  0  0  0  0  0  0  0  0
    8.9898    0.1220   -2.2165 C   0  0  0  0  0  0  0  0  0  0  0  0
    8.5817   -0.1091   -0.9120 C   0  0  0  0  0  0  0  0  0  0  0  0
    7.6685    0.7468   -0.2759 C   0  0  0  0  0  0  0  0  0  0  0  0
    7.0626    0.4451    0.9126 O   0  0  0  0  0  0  0  0  0  0  0  0
    7.7710   -0.4263    1.7958 C   0  0  0  0  0  0  0  0  0  0  0  0
    7.2654    1.9318   -0.9295 C   0  0  0  0  0  0  0  0  0  0  0  0
    6.4699    3.0212   -0.2272 C   0  0  0  0  0  0  0  0  0  0  0  0
    7.2682    4.1305    0.4348 C   0  0  0  0  0  0  0  0  0  0  0  0
    7.7142    5.3348   -0.0665 C   0  0  0  0  0  0  0  0  0  0  0  0
    7.9299    6.2185    1.0357 C   0  0  0  0  0  0  0  0  0  0  0  0
    8.1592    7.5910    1.2094 C   0  0  0  0  0  0  0  0  0  0  0  0
    8.2292    8.4730    0.1226 N   0  0  0  0  0  0  0  0  0  0  0  0
    8.9536    9.6634    0.0120 C   0  0  0  0  0  0  0  0  0  0  0  0
   10.1576    9.8483    0.7046 C   0  0  0  0  0  0  0  0  0  0  0  0
   10.8729   11.0411    0.5988 C   0  0  0  0  0  0  0  0  0  0  0  0
   10.3666   12.0807   -0.1749 C   0  0  0  0  0  0  0  0  0  0  0  0
   11.2365   13.5599   -0.2924 Cl  0  0  0  0  0  0  0  0  0  0  0  0
    9.1557   11.9312   -0.8473 C   0  0  0  0  0  0  0  0  0  0  0  0
    8.4536   10.7251   -0.7547 C   0  0  0  0  0  0  0  0  0  0  0  0
    8.1548    8.0764    2.4772 N   0  0  0  0  0  0  0  0  0  0  0  0
    7.9134    7.2524    3.5105 C   0  0  0  0  0  0  0  0  0  0  0  0
    7.6868    7.8635    4.7190 N   0  0  0  0  0  0  0  0  0  0  0  0
    7.7886    5.9188    3.4500 N   0  0  0  0  0  0  0  0  0  0  0  0
    7.7806    5.4637    2.1841 C   0  0  0  0  0  0  0  0  0  0  0  0
    7.4931    4.1669    1.8095 N   0  0  0  0  0  0  0  0  0  0  0  0
    7.6196    2.0984   -2.2790 C   0  0  0  0  0  0  0  0  0  0  0  0
    9.7923    0.8843   -5.9227 H   0  0  0  0  0  0  0  0  0  0  0  0
    9.1378   -0.4774   -4.9960 H   0  0  0  0  0  0  0  0  0  0  0  0
   10.5682    0.4495   -4.4069 H   0  0  0  0  0  0  0  0  0  0  0  0
    9.7059   -0.5625   -2.6553 H   0  0  0  0  0  0  0  0  0  0  0  0
    8.9830   -0.9896   -0.4131 H   0  0  0  0  0  0  0  0  0  0  0  0
    7.2089   -0.4523    2.7340 H   0  0  0  0  0  0  0  0  0  0  0  0
    8.7655   -0.0218    2.0119 H   0  0  0  0  0  0  0  0  0  0  0  0
    7.8318   -1.4575    1.4249 H   0  0  0  0  0  0  0  0  0  0  0  0
    5.7894    2.5839    0.5126 H   0  0  0  0  0  0  0  0  0  0  0  0
    5.8183    3.5090   -0.9686 H   0  0  0  0  0  0  0  0  0  0  0  0
    7.6995    5.6241   -1.1085 H   0  0  0  0  0  0  0  0  0  0  0  0
    7.6237    8.2368   -0.6512 H   0  0  0  0  0  0  0  0  0  0  0  0
   10.5568    9.0430    1.3167 H   0  0  0  0  0  0  0  0  0  0  0  0
   11.8166   11.1484    1.1256 H   0  0  0  0  0  0  0  0  0  0  0  0
    8.7473   12.7501   -1.4339 H   0  0  0  0  0  0  0  0  0  0  0  0
    7.4980   10.6304   -1.2634 H   0  0  0  0  0  0  0  0  0  0  0  0
    7.9793    8.8304    4.7436 H   0  0  0  0  0  0  0  0  0  0  0  0
    7.7582    7.2758    5.5314 H   0  0  0  0  0  0  0  0  0  0  0  0
    7.2613    3.4472    2.4638 H   0  0  0  0  0  0  0  0  0  0  0  0
    7.2344    2.9543   -2.8365 H   0  0  0  0  0  0  0  0  0  0  0  0
  1  2  1  0  0  0  0
  1 30  1  0  0  0  0
  1 31  1  0  0  0  0
  1 32  1  0  0  0  0
  2  3  1  0  0  0  0
  3  4  1  0  0  0  0
  3 29  2  0  0  0  0
  4  5  2  0  0  0  0
  4 33  1  0  0  0  0
  5  6  1  0  0  0  0
  5 34  1  0  0  0  0
  6  7  1  0  0  0  0
  6  9  2  0  0  0  0
  7  8  1  0  0  0  0
  8 35  1  0  0  0  0
  8 36  1  0  0  0  0
  8 37  1  0  0  0  0
  9 10  1  0  0  0  0
  9 29  1  0  0  0  0
 10 11  1  0  0  0  0
 10 38  1  0  0  0  0
 10 39  1  0  0  0  0
 11 12  2  0  0  0  0
 11 28  1  0  0  0  0
 12 13  1  0  0  0  0
 12 40  1  0  0  0  0
 13 14  1  0  0  0  0
 13 27  2  0  0  0  0
 14 15  1  0  0  0  0
 14 23  2  0  0  0  0
 15 16  1  0  0  0  0
 15 41  1  0  0  0  0
 16 17  1  0  0  0  0
 16 22  2  0  0  0  0
 17 18  2  0  0  0  0
 17 42  1  0  0  0  0
 18 19  1  0  0  0  0
 18 43  1  0  0  0  0
 19 20  1  0  0  0  0
 19 21  2  0  0  0  0
 21 22  1  0  0  0  0
 21 44  1  0  0  0  0
 22 45  1  0  0  0  0
 23 24  1  0  0  0  0
 24 25  1  0  0  0  0
 24 26  2  0  0  0  0
 25 46  1  0  0  0  0
 25 47  1  0  0  0  0
 26 27  1  0  0  0  0
 27 28  1  0  0  0  0
 28 48  1  0  0  0  0
 29 49  1  0  0  0  0
M  END
$$$$
