CHEMBL230107
 OpenBabel04072215363D

 70 75  0  0  0  0  0  0  0  0999 V2000
    5.2851   -2.2645    0.5940 C   0  0  0  0  0  0  0  0  0  0  0  0
    4.1087   -1.4579    0.7751 O   0  0  0  0  0  0  0  0  0  0  0  0
    4.3311   -0.2665    1.4159 C   0  0  0  0  0  0  0  0  0  0  0  0
    5.5769    0.3959    1.3142 C   0  0  0  0  0  0  0  0  0  0  0  0
    5.9311    1.4680    2.1068 C   0  0  0  0  0  0  0  0  0  0  0  0
    7.1972    1.9159    2.0611 N   0  0  0  0  0  0  0  0  0  0  0  0
    7.5580    2.8966    2.9090 C   0  0  0  0  0  0  0  0  0  0  0  0
    6.7106    3.4473    3.8478 C   0  0  0  0  0  0  0  0  0  0  0  0
    5.3954    2.9869    3.9027 C   0  0  0  0  0  0  0  0  0  0  0  0
    4.6535    3.5581    4.9201 O   0  0  0  0  0  0  0  0  0  0  0  0
    3.6583    2.8647    5.5794 C   0  0  0  0  0  0  0  0  0  0  0  0
    3.6448    1.4739    5.7671 C   0  0  0  0  0  0  0  0  0  0  0  0
    2.4906    0.8038    6.2140 C   0  0  0  0  0  0  0  0  0  0  0  0
    1.4207    1.6120    6.5605 C   0  0  0  0  0  0  0  0  0  0  0  0
    0.1814    1.2342    6.9993 O   0  0  0  0  0  0  0  0  0  0  0  0
   -0.4875    2.4225    7.1938 C   0  0  0  0  0  0  0  0  0  0  0  0
   -1.7398    2.3157    7.6391 N   0  0  0  0  0  0  0  0  0  0  0  0
   -2.6187    3.4028    7.8925 C   0  0  0  0  0  0  0  0  0  0  0  0
   -2.4822    4.6375    7.2570 C   0  0  0  0  0  0  0  0  0  0  0  0
   -3.2783    5.7293    7.6121 C   0  0  0  0  0  0  0  0  0  0  0  0
   -4.2281    5.6039    8.6227 C   0  0  0  0  0  0  0  0  0  0  0  0
   -5.1154    7.0244    9.0458 Cl  0  0  0  0  0  0  0  0  0  0  0  0
   -4.4175    4.3734    9.2667 C   0  0  0  0  0  0  0  0  0  0  0  0
   -5.4524    4.1669   10.3567 C   0  0  0  0  0  0  0  0  0  0  0  0
   -4.8655    3.7359   11.6309 N   0  0  0  0  0  0  0  0  0  0  0  0
   -3.9552    4.7456   12.2067 C   0  0  0  0  0  0  0  0  0  0  0  0
   -3.3213    4.2268   13.5168 C   0  0  0  0  0  0  0  0  0  0  0  0
   -4.2934    3.8297   14.5551 N   0  0  0  0  0  0  0  0  0  0  0  0
   -4.9277    4.9975   15.1620 C   0  0  0  0  0  0  0  0  0  0  0  0
   -5.2897    2.9162   13.9575 C   0  0  0  0  0  0  0  0  0  0  0  0
   -5.9082    3.3981   12.6204 C   0  0  0  0  0  0  0  0  0  0  0  0
   -3.5957    3.2825    8.8895 C   0  0  0  0  0  0  0  0  0  0  0  0
    0.2441    3.4851    6.9253 N   0  0  0  0  0  0  0  0  0  0  0  0
    1.4401    2.9964    6.5029 C   0  0  0  0  0  0  0  0  0  0  0  0
    2.5812    3.6512    6.0216 C   0  0  0  0  0  0  0  0  0  0  0  0
    4.9614    2.0211    2.9542 C   0  0  0  0  0  0  0  0  0  0  0  0
    3.6506    1.5356    2.8328 C   0  0  0  0  0  0  0  0  0  0  0  0
    3.3370    0.3405    2.1844 C   0  0  0  0  0  0  0  0  0  0  0  0
    2.0746   -0.0326    2.5271 O   0  0  0  0  0  0  0  0  0  0  0  0
    1.5232   -1.2842    2.1817 C   0  0  0  0  0  0  0  0  0  0  0  0
    5.0107   -3.3102    0.7448 H   0  0  0  0  0  0  0  0  0  0  0  0
    6.0789   -2.0502    1.3210 H   0  0  0  0  0  0  0  0  0  0  0  0
    5.6787   -2.1477   -0.4235 H   0  0  0  0  0  0  0  0  0  0  0  0
    6.3471    0.0058    0.6460 H   0  0  0  0  0  0  0  0  0  0  0  0
    8.5865    3.2320    2.8215 H   0  0  0  0  0  0  0  0  0  0  0  0
    7.0631    4.2151    4.5344 H   0  0  0  0  0  0  0  0  0  0  0  0
    4.4945    0.8686    5.4530 H   0  0  0  0  0  0  0  0  0  0  0  0
    2.4265   -0.2773    6.2317 H   0  0  0  0  0  0  0  0  0  0  0  0
   -2.0915    1.4081    7.8865 H   0  0  0  0  0  0  0  0  0  0  0  0
   -1.7510    4.7794    6.4640 H   0  0  0  0  0  0  0  0  0  0  0  0
   -3.1367    6.6756    7.0956 H   0  0  0  0  0  0  0  0  0  0  0  0
   -6.1250    3.3812    9.9868 H   0  0  0  0  0  0  0  0  0  0  0  0
   -6.0839    5.0492   10.5006 H   0  0  0  0  0  0  0  0  0  0  0  0
   -4.4793    5.6932   12.3856 H   0  0  0  0  0  0  0  0  0  0  0  0
   -3.1326    4.9606   11.5155 H   0  0  0  0  0  0  0  0  0  0  0  0
   -2.6246    4.9753   13.9130 H   0  0  0  0  0  0  0  0  0  0  0  0
   -2.7038    3.3500   13.2774 H   0  0  0  0  0  0  0  0  0  0  0  0
   -4.1697    5.6592   15.5968 H   0  0  0  0  0  0  0  0  0  0  0  0
   -5.5809    4.6890   15.9844 H   0  0  0  0  0  0  0  0  0  0  0  0
   -5.5239    5.5849   14.4563 H   0  0  0  0  0  0  0  0  0  0  0  0
   -6.0867    2.7007   14.6799 H   0  0  0  0  0  0  0  0  0  0  0  0
   -4.7921    1.9540   13.7750 H   0  0  0  0  0  0  0  0  0  0  0  0
   -6.5669    4.2567   12.8072 H   0  0  0  0  0  0  0  0  0  0  0  0
   -6.5387    2.5903   12.2289 H   0  0  0  0  0  0  0  0  0  0  0  0
   -3.7055    2.3412    9.4284 H   0  0  0  0  0  0  0  0  0  0  0  0
    2.5943    4.7308    5.9355 H   0  0  0  0  0  0  0  0  0  0  0  0
    2.8350    2.0302    3.3611 H   0  0  0  0  0  0  0  0  0  0  0  0
    0.6606   -1.4363    2.8480 H   0  0  0  0  0  0  0  0  0  0  0  0
    2.2025   -2.1206    2.3461 H   0  0  0  0  0  0  0  0  0  0  0  0
    1.1415   -1.2428    1.1626 H   0  0  0  0  0  0  0  0  0  0  0  0
  1  2  1  0  0  0  0
  1 41  1  0  0  0  0
  1 42  1  0  0  0  0
  1 43  1  0  0  0  0
  2  3  1  0  0  0  0
  3  4  1  0  0  0  0
  3 38  2  0  0  0  0
  4  5  2  0  0  0  0
  4 44  1  0  0  0  0
  5  6  1  0  0  0  0
  5 36  1  0  0  0  0
  6  7  2  0  0  0  0
  7  8  1  0  0  0  0
  7 45  1  0  0  0  0
  8  9  2  0  0  0  0
  8 46  1  0  0  0  0
  9 10  1  0  0  0  0
  9 36  1  0  0  0  0
 10 11  1  0  0  0  0
 11 12  1  0  0  0  0
 11 35  2  0  0  0  0
 12 13  2  0  0  0  0
 12 47  1  0  0  0  0
 13 14  1  0  0  0  0
 13 48  1  0  0  0  0
 14 15  1  0  0  0  0
 14 34  2  0  0  0  0
 15 16  1  0  0  0  0
 16 17  1  0  0  0  0
 16 33  2  0  0  0  0
 17 18  1  0  0  0  0
 17 49  1  0  0  0  0
 18 19  1  0  0  0  0
 18 32  2  0  0  0  0
 19 20  2  0  0  0  0
 19 50  1  0  0  0  0
 20 21  1  0  0  0  0
 20 51  1  0  0  0  0
 21 22  1  0  0  0  0
 21 23  2  0  0  0  0
 23 24  1  0  0  0  0
 23 32  1  0  0  0  0
 24 25  1  0  0  0  0
 24 52  1  0  0  0  0
 24 53  1  0  0  0  0
 25 26  1  0  0  0  0
 25 31  1  0  0  0  0
 26 27  1  0  0  0  0
 26 54  1  0  0  0  0
 26 55  1  0  0  0  0
 27 28  1  0  0  0  0
 27 56  1  0  0  0  0
 27 57  1  0  0  0  0
 28 29  1  0  0  0  0
 28 30  1  0  0  0  0
 29 58  1  0  0  0  0
 29 59  1  0  0  0  0
 29 60  1  0  0  0  0
 30 31  1  0  0  0  0
 30 61  1  0  0  0  0
 30 62  1  0  0  0  0
 31 63  1  0  0  0  0
 31 64  1  0  0  0  0
 32 65  1  0  0  0  0
 33 34  1  0  0  0  0
 34 35  1  0  0  0  0
 35 66  1  0  0  0  0
 36 37  2  0  0  0  0
 37 38  1  0  0  0  0
 37 67  1  0  0  0  0
 38 39  1  0  0  0  0
 39 40  1  0  0  0  0
 40 68  1  0  0  0  0
 40 69  1  0  0  0  0
 40 70  1  0  0  0  0
M  END
$$$$
