CHEMBL3353349
 OpenBabel04072215363D

 63 68  0  0  1  0  0  0  0  0999 V2000
    9.9808    0.5742   -5.3098 C   0  0  0  0  0  0  0  0  0  0  0  0
    8.5485    0.2768   -5.2001 N   0  0  0  0  0  0  0  0  0  0  0  0
    8.0753   -0.3438   -6.4361 C   0  0  0  0  0  0  0  0  0  0  0  0
    8.2520   -0.6088   -4.0613 C   0  0  0  0  0  0  0  0  0  0  0  0
    8.6544   -0.0081   -2.7364 C   0  0  0  0  0  0  0  0  0  0  0  0
    8.0843    1.1939   -2.2784 C   0  0  0  0  0  0  0  0  0  0  0  0
    8.5402    1.7943   -1.1026 C   0  0  0  0  0  0  0  0  0  0  0  0
    9.5707    1.1866   -0.3897 C   0  0  0  0  0  0  0  0  0  0  0  0
   10.0997    1.6902    0.8707 C   0  0  0  0  0  0  0  0  0  0  0  0
    9.6507    1.0850    1.9781 C   0  0  0  0  0  0  0  0  0  0  0  0
   10.2532    1.0203    3.2657 C   0  0  0  0  0  0  0  0  0  0  0  0
    9.7554    0.1714    4.1782 N   0  0  0  0  0  0  0  0  0  0  0  0
   10.5354    0.3482    5.2454 N   0  0  0  0  0  0  0  0  0  0  0  0
   11.4050    1.3908    5.1286 C   0  0  0  0  0  0  0  0  0  0  0  0
   12.1787    2.0587    6.0767 C   0  0  0  0  0  0  0  0  0  0  0  0
   12.9487    3.1419    5.6329 C   0  0  0  0  0  0  0  0  0  0  0  0
   13.5279    4.1546    6.5815 C   0  0  2  0  0  0  0  0  0  0  0  0
   12.8059    4.7119    7.7883 C   0  0  0  0  0  0  0  0  0  0  0  0
   12.9020    5.5556    6.5589 C   0  0  1  0  0  0  0  0  0  0  0  0
   13.8543    6.7076    6.3582 C   0  0  0  0  0  0  0  0  0  0  0  0
   14.9882    6.7701    6.8005 O   0  0  0  0  0  0  0  0  0  0  0  0
   13.2208    7.6134    5.5310 N   0  0  0  0  0  0  0  0  0  0  0  0
   11.9718    7.1503    5.1120 C   0  0  0  0  0  0  0  0  0  0  0  0
   11.1506    7.7244    4.1691 C   0  0  0  0  0  0  0  0  0  0  0  0
    9.9427    7.0830    3.9038 C   0  0  0  0  0  0  0  0  0  0  0  0
    9.5481    5.9471    4.6374 C   0  0  0  0  0  0  0  0  0  0  0  0
    8.3323    5.4283    4.2869 O   0  0  0  0  0  0  0  0  0  0  0  0
    7.5190    5.0134    5.3727 C   0  0  0  0  0  0  0  0  0  0  0  0
    7.2102    6.0917    6.1364 F   0  0  0  0  0  0  0  0  0  0  0  0
    6.3476    4.5671    4.8490 F   0  0  0  0  0  0  0  0  0  0  0  0
   10.4201    5.3729    5.5743 C   0  0  0  0  0  0  0  0  0  0  0  0
   11.6735    5.9464    5.7699 C   0  0  0  0  0  0  0  0  0  0  0  0
   13.1076    3.3398    4.2518 C   0  0  0  0  0  0  0  0  0  0  0  0
   12.3247    2.6598    3.3140 C   0  0  0  0  0  0  0  0  0  0  0  0
   11.3725    1.7372    3.7806 C   0  0  0  0  0  0  0  0  0  0  0  0
   10.1178   -0.0275   -0.8277 C   0  0  0  0  0  0  0  0  0  0  0  0
    9.6589   -0.6267   -1.9871 C   0  0  0  0  0  0  0  0  0  0  0  0
   10.1627    1.2516   -6.1516 H   0  0  0  0  0  0  0  0  0  0  0  0
   10.5835   -0.3293   -5.4561 H   0  0  0  0  0  0  0  0  0  0  0  0
   10.3573    1.0983   -4.4244 H   0  0  0  0  0  0  0  0  0  0  0  0
    8.2266    0.3307   -7.2852 H   0  0  0  0  0  0  0  0  0  0  0  0
    6.9999   -0.5448   -6.3794 H   0  0  0  0  0  0  0  0  0  0  0  0
    8.5917   -1.2878   -6.6465 H   0  0  0  0  0  0  0  0  0  0  0  0
    8.7439   -1.5828   -4.1938 H   0  0  0  0  0  0  0  0  0  0  0  0
    7.1745   -0.8126   -4.0099 H   0  0  0  0  0  0  0  0  0  0  0  0
    7.2991    1.6736   -2.8599 H   0  0  0  0  0  0  0  0  0  0  0  0
    8.0921    2.7227   -0.7589 H   0  0  0  0  0  0  0  0  0  0  0  0
   10.9928    2.2945    0.8100 H   0  0  0  0  0  0  0  0  0  0  0  0
    8.7513    0.4747    1.8876 H   0  0  0  0  0  0  0  0  0  0  0  0
   10.3954   -0.2562    6.0463 H   0  0  0  0  0  0  0  0  0  0  0  0
   12.0983    1.8225    7.1329 H   0  0  0  0  0  0  0  0  0  0  0  0
   14.6101    4.0948    6.6975 H   0  0  0  0  0  0  0  0  0  0  0  0
   13.4008    5.0198    8.6422 H   0  0  0  0  0  0  0  0  0  0  0  0
   11.8411    4.3028    8.0619 H   0  0  0  0  0  0  0  0  0  0  0  0
   13.6398    8.4936    5.2623 H   0  0  0  0  0  0  0  0  0  0  0  0
   11.4442    8.6086    3.6081 H   0  0  0  0  0  0  0  0  0  0  0  0
    9.2908    7.4605    3.1157 H   0  0  0  0  0  0  0  0  0  0  0  0
    7.9532    4.2176    5.9837 H   0  0  0  0  0  0  0  0  0  0  0  0
   10.1628    4.4670    6.1113 H   0  0  0  0  0  0  0  0  0  0  0  0
   13.7877    4.1145    3.8976 H   0  0  0  0  0  0  0  0  0  0  0  0
   12.4294    2.9110    2.2663 H   0  0  0  0  0  0  0  0  0  0  0  0
   10.8993   -0.5146   -0.2486 H   0  0  0  0  0  0  0  0  0  0  0  0
   10.1050   -1.5635   -2.3079 H   0  0  0  0  0  0  0  0  0  0  0  0
  1  2  1  0  0  0  0
  1 38  1  0  0  0  0
  1 39  1  0  0  0  0
  1 40  1  0  0  0  0
  2  3  1  0  0  0  0
  2  4  1  0  0  0  0
  3 41  1  0  0  0  0
  3 42  1  0  0  0  0
  3 43  1  0  0  0  0
  4  5  1  0  0  0  0
  4 44  1  0  0  0  0
  4 45  1  0  0  0  0
  5  6  1  0  0  0  0
  5 37  2  0  0  0  0
  6  7  2  0  0  0  0
  6 46  1  0  0  0  0
  7  8  1  0  0  0  0
  7 47  1  0  0  0  0
  8  9  1  0  0  0  0
  8 36  2  0  0  0  0
  9 10  2  0  0  0  0
  9 48  1  0  0  0  0
 10 11  1  0  0  0  0
 10 49  1  0  0  0  0
 11 12  2  0  0  0  0
 11 35  1  0  0  0  0
 12 13  1  0  0  0  0
 13 14  1  0  0  0  0
 13 50  1  0  0  0  0
 14 15  1  0  0  0  0
 14 35  2  0  0  0  0
 15 16  2  0  0  0  0
 15 51  1  0  0  0  0
 16 33  1  0  0  0  0
 16 17  1  0  0  0  0
 17 18  1  0  0  0  0
 17 19  1  0  0  0  0
 17 52  1  1  0  0  0
 18 19  1  0  0  0  0
 18 53  1  0  0  0  0
 18 54  1  0  0  0  0
 19 20  1  1  0  0  0
 19 32  1  0  0  0  0
 20 22  1  0  0  0  0
 20 21  2  0  0  0  0
 22 23  1  0  0  0  0
 22 55  1  0  0  0  0
 23 24  1  0  0  0  0
 23 32  2  0  0  0  0
 24 25  2  0  0  0  0
 24 56  1  0  0  0  0
 25 26  1  0  0  0  0
 25 57  1  0  0  0  0
 26 31  2  0  0  0  0
 26 27  1  0  0  0  0
 27 28  1  0  0  0  0
 28 29  1  0  0  0  0
 28 30  1  0  0  0  0
 28 58  1  0  0  0  0
 31 32  1  0  0  0  0
 31 59  1  0  0  0  0
 33 34  2  0  0  0  0
 33 60  1  0  0  0  0
 34 35  1  0  0  0  0
 34 61  1  0  0  0  0
 36 37  1  0  0  0  0
 36 62  1  0  0  0  0
 37 63  1  0  0  0  0
M  END
$$$$
