CHEMBL473556
 OpenBabel04072215383D

 48 52  0  0  0  0  0  0  0  0999 V2000
    5.4906   -2.5387   -6.5997 C   0  0  0  0  0  0  0  0  0  0  0  0
    5.9665   -1.3067   -7.1514 O   0  0  0  0  0  0  0  0  0  0  0  0
    5.9177   -0.2238   -6.3132 C   0  0  0  0  0  0  0  0  0  0  0  0
    6.0597   -0.3645   -4.9219 C   0  0  0  0  0  0  0  0  0  0  0  0
    5.8702    0.6938   -4.0404 C   0  0  0  0  0  0  0  0  0  0  0  0
    5.9146    0.4493   -2.7281 N   0  0  0  0  0  0  0  0  0  0  0  0
    5.6180    1.4728   -1.9208 C   0  0  0  0  0  0  0  0  0  0  0  0
    5.2836    2.7074   -2.3044 N   0  0  0  0  0  0  0  0  0  0  0  0
    5.2733    2.9575   -3.6268 C   0  0  0  0  0  0  0  0  0  0  0  0
    4.8675    4.2413   -4.0888 N   0  0  0  0  0  0  0  0  0  0  0  0
    4.1050    5.1861   -3.3731 C   0  0  0  0  0  0  0  0  0  0  0  0
    4.2937    6.5614   -3.5544 C   0  0  0  0  0  0  0  0  0  0  0  0
    3.5723    7.5018   -2.7865 C   0  0  0  0  0  0  0  0  0  0  0  0
    2.6245    7.0902   -1.8374 C   0  0  0  0  0  0  0  0  0  0  0  0
    1.9559    8.0664   -0.9397 C   0  0  0  0  0  0  0  0  0  0  0  0
    2.0975    9.3804   -0.9767 N   0  0  0  0  0  0  0  0  0  0  0  0
    1.4163    9.9817    0.0951 C   0  0  0  0  0  0  0  0  0  0  0  0
    1.3602   11.3561    0.4079 C   0  0  0  0  0  0  0  0  0  0  0  0
    0.6649   11.7882    1.5492 C   0  0  0  0  0  0  0  0  0  0  0  0
    0.0177   10.8748    2.3748 C   0  0  0  0  0  0  0  0  0  0  0  0
    0.0405    9.5138    2.0767 C   0  0  0  0  0  0  0  0  0  0  0  0
    0.7468    9.0951    0.9369 C   0  0  0  0  0  0  0  0  0  0  0  0
    0.9436    7.5062    0.3450 S   0  0  0  0  0  0  0  0  0  0  0  0
    2.3730    5.7113   -1.7471 C   0  0  0  0  0  0  0  0  0  0  0  0
    3.0973    4.7818   -2.4982 C   0  0  0  0  0  0  0  0  0  0  0  0
    5.5936    1.9599   -4.5637 C   0  0  0  0  0  0  0  0  0  0  0  0
    5.5899    2.1350   -5.9630 C   0  0  0  0  0  0  0  0  0  0  0  0
    5.7373    1.0573   -6.8425 C   0  0  0  0  0  0  0  0  0  0  0  0
    5.6648    1.4660   -8.1426 O   0  0  0  0  0  0  0  0  0  0  0  0
    5.4133    0.5167   -9.1624 C   0  0  0  0  0  0  0  0  0  0  0  0
    4.9879   -3.0974   -7.3949 H   0  0  0  0  0  0  0  0  0  0  0  0
    4.7568   -2.4069   -5.7948 H   0  0  0  0  0  0  0  0  0  0  0  0
    6.3388   -3.1324   -6.2446 H   0  0  0  0  0  0  0  0  0  0  0  0
    6.2942   -1.3329   -4.4849 H   0  0  0  0  0  0  0  0  0  0  0  0
    5.6363    1.2794   -0.8537 H   0  0  0  0  0  0  0  0  0  0  0  0
    5.5869    4.6523   -4.6700 H   0  0  0  0  0  0  0  0  0  0  0  0
    5.0255    6.9247   -4.2706 H   0  0  0  0  0  0  0  0  0  0  0  0
    3.7831    8.5623   -2.9222 H   0  0  0  0  0  0  0  0  0  0  0  0
    1.8649   12.0746   -0.2291 H   0  0  0  0  0  0  0  0  0  0  0  0
    0.6345   12.8479    1.7944 H   0  0  0  0  0  0  0  0  0  0  0  0
   -0.5103   11.2189    3.2622 H   0  0  0  0  0  0  0  0  0  0  0  0
   -0.4624    8.7922    2.7137 H   0  0  0  0  0  0  0  0  0  0  0  0
    1.6246    5.3098   -1.0717 H   0  0  0  0  0  0  0  0  0  0  0  0
    2.8669    3.7265   -2.3740 H   0  0  0  0  0  0  0  0  0  0  0  0
    5.4160    3.1203   -6.3898 H   0  0  0  0  0  0  0  0  0  0  0  0
    5.0953    1.0805  -10.0466 H   0  0  0  0  0  0  0  0  0  0  0  0
    4.5952   -0.1615   -8.9055 H   0  0  0  0  0  0  0  0  0  0  0  0
    6.3276   -0.0212   -9.4257 H   0  0  0  0  0  0  0  0  0  0  0  0
  1  2  1  0  0  0  0
  1 31  1  0  0  0  0
  1 32  1  0  0  0  0
  1 33  1  0  0  0  0
  2  3  1  0  0  0  0
  3  4  1  0  0  0  0
  3 28  2  0  0  0  0
  4  5  2  0  0  0  0
  4 34  1  0  0  0  0
  5  6  1  0  0  0  0
  5 26  1  0  0  0  0
  6  7  2  0  0  0  0
  7  8  1  0  0  0  0
  7 35  1  0  0  0  0
  8  9  2  0  0  0  0
  9 10  1  0  0  0  0
  9 26  1  0  0  0  0
 10 11  1  0  0  0  0
 10 36  1  0  0  0  0
 11 12  1  0  0  0  0
 11 25  2  0  0  0  0
 12 13  2  0  0  0  0
 12 37  1  0  0  0  0
 13 14  1  0  0  0  0
 13 38  1  0  0  0  0
 14 15  1  0  0  0  0
 14 24  2  0  0  0  0
 15 16  2  0  0  0  0
 15 23  1  0  0  0  0
 16 17  1  0  0  0  0
 17 18  1  0  0  0  0
 17 22  2  0  0  0  0
 18 19  2  0  0  0  0
 18 39  1  0  0  0  0
 19 20  1  0  0  0  0
 19 40  1  0  0  0  0
 20 21  2  0  0  0  0
 20 41  1  0  0  0  0
 21 22  1  0  0  0  0
 21 42  1  0  0  0  0
 22 23  1  0  0  0  0
 24 25  1  0  0  0  0
 24 43  1  0  0  0  0
 25 44  1  0  0  0  0
 26 27  2  0  0  0  0
 27 28  1  0  0  0  0
 27 45  1  0  0  0  0
 28 29  1  0  0  0  0
 29 30  1  0  0  0  0
 30 46  1  0  0  0  0
 30 47  1  0  0  0  0
 30 48  1  0  0  0  0
M  END
$$$$
