CHEMBL466942
 OpenBabel04072215383D

 45 49  0  0  0  0  0  0  0  0999 V2000
    1.5696   -0.6159    0.3602 O   0  0  0  0  0  0  0  0  0  0  0  0
    2.3026    0.2684   -0.0619 C   0  0  0  0  0  0  0  0  0  0  0  0
    2.9064    0.1533   -1.4193 C   0  0  0  0  0  0  0  0  0  0  0  0
    2.5118    1.1786   -2.2927 C   0  0  0  0  0  0  0  0  0  0  0  0
    3.2672    1.4737   -3.4171 C   0  0  0  0  0  0  0  0  0  0  0  0
    4.3930    0.7151   -3.6951 C   0  0  0  0  0  0  0  0  0  0  0  0
    4.7232   -0.3748   -2.8807 C   0  0  0  0  0  0  0  0  0  0  0  0
    3.9659   -0.7261   -1.7410 C   0  0  0  0  0  0  0  0  0  0  0  0
    4.4456   -1.8197   -0.9987 N   0  0  0  0  0  0  0  0  0  0  0  0
    3.4856   -2.7399   -0.3803 C   0  0  0  0  0  0  0  0  0  0  0  0
    4.0114   -4.1634   -0.4774 C   0  0  0  0  0  0  0  0  0  0  0  0
    3.4802   -5.0636   -1.4245 C   0  0  0  0  0  0  0  0  0  0  0  0
    3.8837   -6.4029   -1.4836 C   0  0  0  0  0  0  0  0  0  0  0  0
    4.9437   -6.7582   -0.6528 C   0  0  0  0  0  0  0  0  0  0  0  0
    5.5585   -7.9438   -0.3515 N   0  0  0  0  0  0  0  0  0  0  0  0
    6.7861   -7.6336    0.1581 C   0  0  0  0  0  0  0  0  0  0  0  0
    6.7674   -6.4192    0.6615 N   0  0  0  0  0  0  0  0  0  0  0  0
    5.6128   -5.8568    0.1684 C   0  0  0  0  0  0  0  0  0  0  0  0
    5.0893   -4.5703    0.3370 C   0  0  0  0  0  0  0  0  0  0  0  0
    2.6481    1.4989    0.6858 C   0  0  0  0  0  0  0  0  0  0  0  0
    3.4910    2.4314    0.1852 N   0  0  0  0  0  0  0  0  0  0  0  0
    3.7362    3.2460    1.2127 N   0  0  0  0  0  0  0  0  0  0  0  0
    3.1522    2.8528    2.3801 C   0  0  0  0  0  0  0  0  0  0  0  0
    3.3408    3.2677    3.6971 C   0  0  0  0  0  0  0  0  0  0  0  0
    2.5050    2.6948    4.6580 C   0  0  0  0  0  0  0  0  0  0  0  0
    1.4754    1.8246    4.2936 C   0  0  0  0  0  0  0  0  0  0  0  0
    1.3393    1.3859    2.9712 C   0  0  0  0  0  0  0  0  0  0  0  0
    2.2574    1.8531    2.0134 C   0  0  0  0  0  0  0  0  0  0  0  0
    1.6846    1.8368   -2.0239 H   0  0  0  0  0  0  0  0  0  0  0  0
    3.0147    2.3359   -4.0275 H   0  0  0  0  0  0  0  0  0  0  0  0
    5.0333    0.9835   -4.5288 H   0  0  0  0  0  0  0  0  0  0  0  0
    5.6170   -0.9406   -3.1365 H   0  0  0  0  0  0  0  0  0  0  0  0
    5.1322   -2.3519   -1.5359 H   0  0  0  0  0  0  0  0  0  0  0  0
    2.5048   -2.6994   -0.8665 H   0  0  0  0  0  0  0  0  0  0  0  0
    3.3569   -2.4860    0.6770 H   0  0  0  0  0  0  0  0  0  0  0  0
    2.7258   -4.7127   -2.1297 H   0  0  0  0  0  0  0  0  0  0  0  0
    3.4480   -7.1005   -2.1981 H   0  0  0  0  0  0  0  0  0  0  0  0
    5.1423   -8.8639   -0.3840 H   0  0  0  0  0  0  0  0  0  0  0  0
    7.6125   -8.3288    0.1766 H   0  0  0  0  0  0  0  0  0  0  0  0
    5.5336   -3.9024    1.0655 H   0  0  0  0  0  0  0  0  0  0  0  0
    4.3434    4.0416    1.0555 H   0  0  0  0  0  0  0  0  0  0  0  0
    4.1332    3.9557    3.9715 H   0  0  0  0  0  0  0  0  0  0  0  0
    2.6574    2.9353    5.7071 H   0  0  0  0  0  0  0  0  0  0  0  0
    0.7956    1.4462    5.0531 H   0  0  0  0  0  0  0  0  0  0  0  0
    0.5645    0.6748    2.6982 H   0  0  0  0  0  0  0  0  0  0  0  0
  1  2  2  0  0  0  0
  2  3  1  0  0  0  0
  2 20  1  0  0  0  0
  3  4  1  0  0  0  0
  3  8  2  0  0  0  0
  4  5  2  0  0  0  0
  4 29  1  0  0  0  0
  5  6  1  0  0  0  0
  5 30  1  0  0  0  0
  6  7  2  0  0  0  0
  6 31  1  0  0  0  0
  7  8  1  0  0  0  0
  7 32  1  0  0  0  0
  8  9  1  0  0  0  0
  9 10  1  0  0  0  0
  9 33  1  0  0  0  0
 10 11  1  0  0  0  0
 10 34  1  0  0  0  0
 10 35  1  0  0  0  0
 11 12  1  0  0  0  0
 11 19  2  0  0  0  0
 12 13  2  0  0  0  0
 12 36  1  0  0  0  0
 13 14  1  0  0  0  0
 13 37  1  0  0  0  0
 14 15  1  0  0  0  0
 14 18  2  0  0  0  0
 15 16  1  0  0  0  0
 15 38  1  0  0  0  0
 16 17  2  0  0  0  0
 16 39  1  0  0  0  0
 17 18  1  0  0  0  0
 18 19  1  0  0  0  0
 19 40  1  0  0  0  0
 20 21  2  0  0  0  0
 20 28  1  0  0  0  0
 21 22  1  0  0  0  0
 22 23  1  0  0  0  0
 22 41  1  0  0  0  0
 23 24  1  0  0  0  0
 23 28  2  0  0  0  0
 24 25  2  0  0  0  0
 24 42  1  0  0  0  0
 25 26  1  0  0  0  0
 25 43  1  0  0  0  0
 26 27  2  0  0  0  0
 26 44  1  0  0  0  0
 27 28  1  0  0  0  0
 27 45  1  0  0  0  0
M  END
$$$$
