CHEMBL3957739
 OpenBabel04072215373D

 54 56  0  0  0  0  0  0  0  0999 V2000
   13.2057   -4.8439   -2.5965 C   0  0  0  0  0  0  0  0  0  0  0  0
   12.4604   -3.7576   -2.0233 N   0  0  0  0  0  0  0  0  0  0  0  0
   11.3518   -3.2357   -2.6516 C   0  0  0  0  0  0  0  0  0  0  0  0
   10.8998   -3.6710   -3.7051 O   0  0  0  0  0  0  0  0  0  0  0  0
   10.7035   -2.0882   -1.9401 C   0  0  0  0  0  0  0  0  0  0  0  0
    9.5590   -1.5288   -2.4829 C   0  0  0  0  0  0  0  0  0  0  0  0
    8.8891   -0.5638   -1.7377 C   0  0  0  0  0  0  0  0  0  0  0  0
    7.6868    0.0011   -2.1042 O   0  0  0  0  0  0  0  0  0  0  0  0
    6.8100   -0.7402   -2.8554 C   0  0  0  0  0  0  0  0  0  0  0  0
    6.5854   -2.1063   -2.7025 C   0  0  0  0  0  0  0  0  0  0  0  0
    5.7440   -2.7711   -3.5971 C   0  0  0  0  0  0  0  0  0  0  0  0
    5.0968   -2.0379   -4.5847 C   0  0  0  0  0  0  0  0  0  0  0  0
    4.2958   -2.7323   -5.5009 N   0  0  0  0  0  0  0  0  0  0  0  0
    3.6585   -2.1527   -6.5696 C   0  0  0  0  0  0  0  0  0  0  0  0
    3.6614   -0.9580   -6.8572 O   0  0  0  0  0  0  0  0  0  0  0  0
    2.9520   -3.0501   -7.3656 N   0  0  0  0  0  0  0  0  0  0  0  0
    2.2957   -2.5365   -8.5458 C   0  0  0  0  0  0  0  0  0  0  0  0
    1.6372   -3.7573   -9.1359 C   0  0  0  0  0  0  0  0  0  0  0  0
    1.3521   -4.5650   -7.9580 N   0  0  0  0  0  0  0  0  0  0  0  0
    0.5075   -5.7802   -8.0066 C   0  0  0  0  0  0  0  0  0  0  0  0
    1.3546   -7.0190   -8.3319 C   0  0  0  0  0  0  0  0  0  0  0  0
   -0.2056   -5.9826   -6.6548 C   0  0  0  0  0  0  0  0  0  0  0  0
   -0.5971   -5.6452   -9.0782 C   0  0  0  0  0  0  0  0  0  0  0  0
    2.3239   -4.2534   -6.9732 C   0  0  0  0  0  0  0  0  0  0  0  0
    2.6148   -4.9171   -5.9921 O   0  0  0  0  0  0  0  0  0  0  0  0
    5.2385   -0.7025   -4.6794 N   0  0  0  0  0  0  0  0  0  0  0  0
    6.0785   -0.0801   -3.8242 C   0  0  0  0  0  0  0  0  0  0  0  0
    9.4512   -0.1025   -0.5524 C   0  0  0  0  0  0  0  0  0  0  0  0
   10.6262   -0.6894   -0.1111 C   0  0  0  0  0  0  0  0  0  0  0  0
   11.2588   -1.6924   -0.7607 N   0  0  0  0  0  0  0  0  0  0  0  0
   14.0427   -5.0869   -1.9388 H   0  0  0  0  0  0  0  0  0  0  0  0
   13.5758   -4.5434   -3.5807 H   0  0  0  0  0  0  0  0  0  0  0  0
   12.5512   -5.7125   -2.7102 H   0  0  0  0  0  0  0  0  0  0  0  0
   12.7370   -3.3307   -1.1432 H   0  0  0  0  0  0  0  0  0  0  0  0
    9.1912   -1.8788   -3.4414 H   0  0  0  0  0  0  0  0  0  0  0  0
    7.0863   -2.6748   -1.9244 H   0  0  0  0  0  0  0  0  0  0  0  0
    5.6287   -3.8475   -3.5243 H   0  0  0  0  0  0  0  0  0  0  0  0
    4.1851   -3.7319   -5.3872 H   0  0  0  0  0  0  0  0  0  0  0  0
    3.0096   -2.0537   -9.2212 H   0  0  0  0  0  0  0  0  0  0  0  0
    1.5497   -1.8029   -8.2274 H   0  0  0  0  0  0  0  0  0  0  0  0
    2.3308   -4.3202   -9.7691 H   0  0  0  0  0  0  0  0  0  0  0  0
    0.7382   -3.4924   -9.6966 H   0  0  0  0  0  0  0  0  0  0  0  0
    2.1060   -7.2097   -7.5585 H   0  0  0  0  0  0  0  0  0  0  0  0
    1.8836   -6.8953   -9.2833 H   0  0  0  0  0  0  0  0  0  0  0  0
    0.7262   -7.9139   -8.4142 H   0  0  0  0  0  0  0  0  0  0  0  0
    0.4967   -6.1991   -5.8439 H   0  0  0  0  0  0  0  0  0  0  0  0
   -0.9108   -6.8208   -6.6997 H   0  0  0  0  0  0  0  0  0  0  0  0
   -0.7689   -5.0854   -6.3723 H   0  0  0  0  0  0  0  0  0  0  0  0
   -0.1760   -5.5400  -10.0841 H   0  0  0  0  0  0  0  0  0  0  0  0
   -1.2247   -4.7670   -8.8853 H   0  0  0  0  0  0  0  0  0  0  0  0
   -1.2499   -6.5248   -9.0937 H   0  0  0  0  0  0  0  0  0  0  0  0
    6.1580    0.9939   -3.9639 H   0  0  0  0  0  0  0  0  0  0  0  0
    8.9765    0.6877    0.0200 H   0  0  0  0  0  0  0  0  0  0  0  0
   11.0951   -0.3643    0.8139 H   0  0  0  0  0  0  0  0  0  0  0  0
  1  2  1  0  0  0  0
  1 31  1  0  0  0  0
  1 32  1  0  0  0  0
  1 33  1  0  0  0  0
  2  3  1  0  0  0  0
  2 34  1  0  0  0  0
  3  4  2  0  0  0  0
  3  5  1  0  0  0  0
  5  6  1  0  0  0  0
  5 30  2  0  0  0  0
  6  7  2  0  0  0  0
  6 35  1  0  0  0  0
  7  8  1  0  0  0  0
  7 28  1  0  0  0  0
  8  9  1  0  0  0  0
  9 10  1  0  0  0  0
  9 27  2  0  0  0  0
 10 11  2  0  0  0  0
 10 36  1  0  0  0  0
 11 12  1  0  0  0  0
 11 37  1  0  0  0  0
 12 13  1  0  0  0  0
 12 26  2  0  0  0  0
 13 14  1  0  0  0  0
 13 38  1  0  0  0  0
 14 15  2  0  0  0  0
 14 16  1  0  0  0  0
 16 17  1  0  0  0  0
 16 24  1  0  0  0  0
 17 18  1  0  0  0  0
 17 39  1  0  0  0  0
 17 40  1  0  0  0  0
 18 19  1  0  0  0  0
 18 41  1  0  0  0  0
 18 42  1  0  0  0  0
 19 20  1  0  0  0  0
 19 24  1  0  0  0  0
 20 21  1  0  0  0  0
 20 22  1  0  0  0  0
 20 23  1  0  0  0  0
 21 43  1  0  0  0  0
 21 44  1  0  0  0  0
 21 45  1  0  0  0  0
 22 46  1  0  0  0  0
 22 47  1  0  0  0  0
 22 48  1  0  0  0  0
 23 49  1  0  0  0  0
 23 50  1  0  0  0  0
 23 51  1  0  0  0  0
 24 25  2  0  0  0  0
 26 27  1  0  0  0  0
 27 52  1  0  0  0  0
 28 29  2  0  0  0  0
 28 53  1  0  0  0  0
 29 30  1  0  0  0  0
 29 54  1  0  0  0  0
M  END
$$$$
