CHEMBL1081198
 OpenBabel04072215353D

 57 61  0  0  0  0  0  0  0  0999 V2000
    1.1320   -0.2249   -0.4170 O   0  0  0  0  0  0  0  0  0  0  0  0
    2.2301    0.0674    0.0368 C   0  0  0  0  0  0  0  0  0  0  0  0
    2.8103   -0.5502    1.1381 N   0  0  0  0  0  0  0  0  0  0  0  0
    2.2357   -1.5987    1.8982 C   0  0  0  0  0  0  0  0  0  0  0  0
    1.1078   -2.3129    1.4859 C   0  0  0  0  0  0  0  0  0  0  0  0
    0.5495   -3.2963    2.2971 C   0  0  0  0  0  0  0  0  0  0  0  0
    1.1345   -3.5987    3.5219 C   0  0  0  0  0  0  0  0  0  0  0  0
    2.3095   -2.9508    3.9399 C   0  0  0  0  0  0  0  0  0  0  0  0
    2.9893   -3.3305    5.2077 C   0  0  0  0  0  0  0  0  0  0  0  0
    2.9528   -4.6220    5.5993 C   0  0  0  0  0  0  0  0  0  0  0  0
    3.5965   -4.9793    6.7580 N   0  0  0  0  0  0  0  0  0  0  0  0
    3.7419   -6.1827    7.3901 C   0  0  0  0  0  0  0  0  0  0  0  0
    4.5172   -5.9148    8.4961 C   0  0  0  0  0  0  0  0  0  0  0  0
    4.8326   -4.5823    8.5628 N   0  0  0  0  0  0  0  0  0  0  0  0
    4.2634   -4.0489    7.5002 C   0  0  0  0  0  0  0  0  0  0  0  0
    4.2959   -2.6682    7.0414 C   0  0  0  0  0  0  0  0  0  0  0  0
    4.9500   -1.6485    7.6964 N   0  0  0  0  0  0  0  0  0  0  0  0
    5.1496   -1.6149    9.1296 C   0  0  0  0  0  0  0  0  0  0  0  0
    6.6185   -1.6059    9.4701 C   0  0  0  0  0  0  0  0  0  0  0  0
    7.1632   -0.5866   10.2554 C   0  0  0  0  0  0  0  0  0  0  0  0
    8.5088   -0.6469   10.5887 C   0  0  0  0  0  0  0  0  0  0  0  0
    9.3374   -1.6402   10.2045 N   0  0  0  0  0  0  0  0  0  0  0  0
    8.7939   -2.6205    9.4537 C   0  0  0  0  0  0  0  0  0  0  0  0
    7.4634   -2.6465    9.0690 C   0  0  0  0  0  0  0  0  0  0  0  0
    3.6794   -2.3475    5.9175 N   0  0  0  0  0  0  0  0  0  0  0  0
    2.8360   -1.9331    3.1223 C   0  0  0  0  0  0  0  0  0  0  0  0
    3.0390    1.0743   -0.4680 N   0  0  0  0  0  0  0  0  0  0  0  0
    2.7088    1.9738   -1.5125 C   0  0  0  0  0  0  0  0  0  0  0  0
    1.4807    1.9763   -2.1778 C   0  0  0  0  0  0  0  0  0  0  0  0
    1.2120    2.8990   -3.1909 C   0  0  0  0  0  0  0  0  0  0  0  0
    2.1677    3.8447   -3.5440 C   0  0  0  0  0  0  0  0  0  0  0  0
    3.4032    3.8743   -2.8846 C   0  0  0  0  0  0  0  0  0  0  0  0
    4.4343    4.9196   -3.2252 C   0  0  0  0  0  0  0  0  0  0  0  0
    4.0428    5.7766   -4.2088 F   0  0  0  0  0  0  0  0  0  0  0  0
    4.7490    5.7005   -2.1542 F   0  0  0  0  0  0  0  0  0  0  0  0
    5.6091    4.3761   -3.6475 F   0  0  0  0  0  0  0  0  0  0  0  0
    3.6685    2.9249   -1.8773 C   0  0  0  0  0  0  0  0  0  0  0  0
    3.6362   -0.1228    1.5270 H   0  0  0  0  0  0  0  0  0  0  0  0
    0.6280   -2.1315    0.5299 H   0  0  0  0  0  0  0  0  0  0  0  0
   -0.3420   -3.8238    1.9681 H   0  0  0  0  0  0  0  0  0  0  0  0
    0.6560   -4.3540    4.1399 H   0  0  0  0  0  0  0  0  0  0  0  0
    2.4589   -5.4180    5.0584 H   0  0  0  0  0  0  0  0  0  0  0  0
    3.3063   -7.0958    7.0118 H   0  0  0  0  0  0  0  0  0  0  0  0
    4.8670   -6.6107    9.2480 H   0  0  0  0  0  0  0  0  0  0  0  0
    4.8419   -0.7447    7.2545 H   0  0  0  0  0  0  0  0  0  0  0  0
    4.6557   -2.4337    9.6605 H   0  0  0  0  0  0  0  0  0  0  0  0
    4.6751   -0.7029    9.5125 H   0  0  0  0  0  0  0  0  0  0  0  0
    6.5573    0.2384   10.6146 H   0  0  0  0  0  0  0  0  0  0  0  0
    8.9673    0.1253   11.1991 H   0  0  0  0  0  0  0  0  0  0  0  0
    9.4733   -3.4172    9.1639 H   0  0  0  0  0  0  0  0  0  0  0  0
    7.0954   -3.4754    8.4740 H   0  0  0  0  0  0  0  0  0  0  0  0
    3.7238   -1.4015    3.4577 H   0  0  0  0  0  0  0  0  0  0  0  0
    3.9666    1.1520   -0.0818 H   0  0  0  0  0  0  0  0  0  0  0  0
    0.6912    1.2723   -1.9359 H   0  0  0  0  0  0  0  0  0  0  0  0
    0.2478    2.8765   -3.6941 H   0  0  0  0  0  0  0  0  0  0  0  0
    1.9390    4.5622   -4.3304 H   0  0  0  0  0  0  0  0  0  0  0  0
    4.6335    2.9538   -1.3741 H   0  0  0  0  0  0  0  0  0  0  0  0
  1  2  2  0  0  0  0
  2  3  1  0  0  0  0
  2 27  1  0  0  0  0
  3  4  1  0  0  0  0
  3 38  1  0  0  0  0
  4  5  1  0  0  0  0
  4 26  2  0  0  0  0
  5  6  2  0  0  0  0
  5 39  1  0  0  0  0
  6  7  1  0  0  0  0
  6 40  1  0  0  0  0
  7  8  2  0  0  0  0
  7 41  1  0  0  0  0
  8  9  1  0  0  0  0
  8 26  1  0  0  0  0
  9 10  2  0  0  0  0
  9 25  1  0  0  0  0
 10 11  1  0  0  0  0
 10 42  1  0  0  0  0
 11 12  1  0  0  0  0
 11 15  1  0  0  0  0
 12 13  2  0  0  0  0
 12 43  1  0  0  0  0
 13 14  1  0  0  0  0
 13 44  1  0  0  0  0
 14 15  2  0  0  0  0
 15 16  1  0  0  0  0
 16 17  1  0  0  0  0
 16 25  2  0  0  0  0
 17 18  1  0  0  0  0
 17 45  1  0  0  0  0
 18 19  1  0  0  0  0
 18 46  1  0  0  0  0
 18 47  1  0  0  0  0
 19 20  1  0  0  0  0
 19 24  2  0  0  0  0
 20 21  2  0  0  0  0
 20 48  1  0  0  0  0
 21 22  1  0  0  0  0
 21 49  1  0  0  0  0
 22 23  2  0  0  0  0
 23 24  1  0  0  0  0
 23 50  1  0  0  0  0
 24 51  1  0  0  0  0
 26 52  1  0  0  0  0
 27 28  1  0  0  0  0
 27 53  1  0  0  0  0
 28 29  1  0  0  0  0
 28 37  2  0  0  0  0
 29 30  2  0  0  0  0
 29 54  1  0  0  0  0
 30 31  1  0  0  0  0
 30 55  1  0  0  0  0
 31 32  2  0  0  0  0
 31 56  1  0  0  0  0
 32 33  1  0  0  0  0
 32 37  1  0  0  0  0
 33 34  1  0  0  0  0
 33 35  1  0  0  0  0
 33 36  1  0  0  0  0
 37 57  1  0  0  0  0
M  END
$$$$
