CHEMBL387590
 OpenBabel04072215373D

 60 65  0  0  0  0  0  0  0  0999 V2000
    2.0369    0.0334   -0.9466 C   0  0  0  0  0  0  0  0  0  0  0  0
    0.5877    0.2251   -1.0304 N   0  0  0  0  0  0  0  0  0  0  0  0
   -0.0960   -1.0417   -0.7235 C   0  0  0  0  0  0  0  0  0  0  0  0
   -1.6317   -0.8955   -0.6587 C   0  0  0  0  0  0  0  0  0  0  0  0
   -2.1093    0.1004    0.3238 N   0  0  0  0  0  0  0  0  0  0  0  0
   -1.9101   -0.3073    1.7319 C   0  0  0  0  0  0  0  0  0  0  0  0
   -2.6674   -1.5616    2.1504 C   0  0  0  0  0  0  0  0  0  0  0  0
   -4.0101   -1.4414    2.5708 C   0  0  0  0  0  0  0  0  0  0  0  0
   -4.7545   -2.5568    2.9961 C   0  0  0  0  0  0  0  0  0  0  0  0
   -6.0241   -2.4662    3.6039 N   0  0  0  0  0  0  0  0  0  0  0  0
   -6.8791   -1.4499    3.4563 C   0  0  0  0  0  0  0  0  0  0  0  0
   -7.0590   -0.6338    2.4397 N   0  0  0  0  0  0  0  0  0  0  0  0
   -8.1271    0.1300    2.8152 C   0  0  0  0  0  0  0  0  0  0  0  0
   -8.8168    1.1366    2.1350 C   0  0  0  0  0  0  0  0  0  0  0  0
   -9.9044    1.7446    2.7792 C   0  0  0  0  0  0  0  0  0  0  0  0
  -10.5663    2.6898    2.0264 O   0  0  0  0  0  0  0  0  0  0  0  0
  -11.1389    3.7869    2.6265 C   0  0  0  0  0  0  0  0  0  0  0  0
  -10.6530    4.3944    3.7886 C   0  0  0  0  0  0  0  0  0  0  0  0
  -11.3257    5.4912    4.3095 C   0  0  0  0  0  0  0  0  0  0  0  0
  -12.4125    6.0822    3.7677 N   0  0  0  0  0  0  0  0  0  0  0  0
  -12.7927    5.5123    2.6105 C   0  0  0  0  0  0  0  0  0  0  0  0
  -13.8295    5.9555    1.8367 N   0  0  0  0  0  0  0  0  0  0  0  0
  -13.9353    5.1801    0.7105 C   0  0  0  0  0  0  0  0  0  0  0  0
  -12.9624    4.2041    0.7803 C   0  0  0  0  0  0  0  0  0  0  0  0
  -12.2295    4.4057    1.9860 C   0  0  0  0  0  0  0  0  0  0  0  0
  -10.3034    1.3331    4.0630 C   0  0  0  0  0  0  0  0  0  0  0  0
   -9.5980    0.3481    4.7693 C   0  0  0  0  0  0  0  0  0  0  0  0
   -8.5371   -0.2307    4.0865 C   0  0  0  0  0  0  0  0  0  0  0  0
   -7.7387   -1.2531    4.5070 O   0  0  0  0  0  0  0  0  0  0  0  0
   -4.1994   -3.8291    2.8421 C   0  0  0  0  0  0  0  0  0  0  0  0
   -2.8818   -3.9751    2.4279 C   0  0  0  0  0  0  0  0  0  0  0  0
   -2.1006   -2.8480    2.1631 C   0  0  0  0  0  0  0  0  0  0  0  0
   -0.4147   -3.1505    1.9656 Cl  0  0  0  0  0  0  0  0  0  0  0  0
   -1.4080    1.3757    0.0225 C   0  0  0  0  0  0  0  0  0  0  0  0
    0.1388    1.2761   -0.0948 C   0  0  0  0  0  0  0  0  0  0  0  0
    2.3591   -0.7714   -1.6181 H   0  0  0  0  0  0  0  0  0  0  0  0
    2.3636   -0.2273    0.0680 H   0  0  0  0  0  0  0  0  0  0  0  0
    2.5647    0.9397   -1.2582 H   0  0  0  0  0  0  0  0  0  0  0  0
    0.2855   -1.4098    0.2282 H   0  0  0  0  0  0  0  0  0  0  0  0
    0.1501   -1.7946   -1.4813 H   0  0  0  0  0  0  0  0  0  0  0  0
   -2.0979   -1.8715   -0.4893 H   0  0  0  0  0  0  0  0  0  0  0  0
   -1.9892   -0.5893   -1.6520 H   0  0  0  0  0  0  0  0  0  0  0  0
   -2.2848    0.5096    2.3666 H   0  0  0  0  0  0  0  0  0  0  0  0
   -0.8522   -0.3964    1.9955 H   0  0  0  0  0  0  0  0  0  0  0  0
   -4.4539   -0.4476    2.6209 H   0  0  0  0  0  0  0  0  0  0  0  0
   -6.0728   -2.9696    4.4768 H   0  0  0  0  0  0  0  0  0  0  0  0
   -8.5291    1.4125    1.1269 H   0  0  0  0  0  0  0  0  0  0  0  0
   -9.7673    4.0286    4.2950 H   0  0  0  0  0  0  0  0  0  0  0  0
  -10.9796    5.9483    5.2338 H   0  0  0  0  0  0  0  0  0  0  0  0
  -14.3986    6.7550    2.0728 H   0  0  0  0  0  0  0  0  0  0  0  0
  -14.6865    5.3912   -0.0389 H   0  0  0  0  0  0  0  0  0  0  0  0
  -12.7816    3.4379    0.0369 H   0  0  0  0  0  0  0  0  0  0  0  0
  -11.1797    1.7739    4.5335 H   0  0  0  0  0  0  0  0  0  0  0  0
   -9.8778    0.0362    5.7677 H   0  0  0  0  0  0  0  0  0  0  0  0
   -4.7862   -4.7173    3.0646 H   0  0  0  0  0  0  0  0  0  0  0  0
   -2.4543   -4.9715    2.3485 H   0  0  0  0  0  0  0  0  0  0  0  0
   -1.6720    2.1386    0.7641 H   0  0  0  0  0  0  0  0  0  0  0  0
   -1.7977    1.7531   -0.9338 H   0  0  0  0  0  0  0  0  0  0  0  0
    0.5575    1.1073    0.9057 H   0  0  0  0  0  0  0  0  0  0  0  0
    0.5205    2.2435   -0.4434 H   0  0  0  0  0  0  0  0  0  0  0  0
  1  2  1  0  0  0  0
  1 36  1  0  0  0  0
  1 37  1  0  0  0  0
  1 38  1  0  0  0  0
  2  3  1  0  0  0  0
  2 35  1  0  0  0  0
  3  4  1  0  0  0  0
  3 39  1  0  0  0  0
  3 40  1  0  0  0  0
  4  5  1  0  0  0  0
  4 41  1  0  0  0  0
  4 42  1  0  0  0  0
  5  6  1  0  0  0  0
  5 34  1  0  0  0  0
  6  7  1  0  0  0  0
  6 43  1  0  0  0  0
  6 44  1  0  0  0  0
  7  8  1  0  0  0  0
  7 32  2  0  0  0  0
  8  9  2  0  0  0  0
  8 45  1  0  0  0  0
  9 10  1  0  0  0  0
  9 30  1  0  0  0  0
 10 11  1  0  0  0  0
 10 46  1  0  0  0  0
 11 12  2  0  0  0  0
 11 29  1  0  0  0  0
 12 13  1  0  0  0  0
 13 14  1  0  0  0  0
 13 28  2  0  0  0  0
 14 15  2  0  0  0  0
 14 47  1  0  0  0  0
 15 16  1  0  0  0  0
 15 26  1  0  0  0  0
 16 17  1  0  0  0  0
 17 18  1  0  0  0  0
 17 25  2  0  0  0  0
 18 19  2  0  0  0  0
 18 48  1  0  0  0  0
 19 20  1  0  0  0  0
 19 49  1  0  0  0  0
 20 21  2  0  0  0  0
 21 22  1  0  0  0  0
 21 25  1  0  0  0  0
 22 23  1  0  0  0  0
 22 50  1  0  0  0  0
 23 24  2  0  0  0  0
 23 51  1  0  0  0  0
 24 25  1  0  0  0  0
 24 52  1  0  0  0  0
 26 27  2  0  0  0  0
 26 53  1  0  0  0  0
 27 28  1  0  0  0  0
 27 54  1  0  0  0  0
 28 29  1  0  0  0  0
 30 31  2  0  0  0  0
 30 55  1  0  0  0  0
 31 32  1  0  0  0  0
 31 56  1  0  0  0  0
 32 33  1  0  0  0  0
 34 35  1  0  0  0  0
 34 57  1  0  0  0  0
 34 58  1  0  0  0  0
 35 59  1  0  0  0  0
 35 60  1  0  0  0  0
M  END
$$$$
