CHEMBL206118
 OpenBabel04072215363D

 47 51  0  0  0  0  0  0  0  0999 V2000
    2.1411    0.0270    0.0036 C   0  0  0  0  0  0  0  0  0  0  0  0
    0.7009   -0.0795    0.0140 N   0  0  0  0  0  0  0  0  0  0  0  0
   -0.1623    0.9807   -0.0115 C   0  0  0  0  0  0  0  0  0  0  0  0
   -1.4152    0.5836   -0.0240 N   0  0  0  0  0  0  0  0  0  0  0  0
   -1.3569   -0.7780    0.0268 C   0  0  0  0  0  0  0  0  0  0  0  0
   -2.4635   -1.5401    0.0896 N   0  0  0  0  0  0  0  0  0  0  0  0
   -3.7182   -1.0828   -0.4768 C   0  0  0  0  0  0  0  0  0  0  0  0
   -4.8720   -1.7316    0.2601 C   0  0  0  0  0  0  0  0  0  0  0  0
   -5.0564   -1.4608    1.6264 C   0  0  0  0  0  0  0  0  0  0  0  0
   -6.1196   -2.0075    2.3527 C   0  0  0  0  0  0  0  0  0  0  0  0
   -6.9994   -2.8366    1.6555 C   0  0  0  0  0  0  0  0  0  0  0  0
   -8.1257   -3.5094    2.0578 N   0  0  0  0  0  0  0  0  0  0  0  0
   -8.7194   -4.2183    1.0807 N   0  0  0  0  0  0  0  0  0  0  0  0
   -7.9462   -3.9835    0.0157 C   0  0  0  0  0  0  0  0  0  0  0  0
   -6.8565   -3.1329    0.3050 C   0  0  0  0  0  0  0  0  0  0  0  0
   -5.7776   -2.5779   -0.4098 C   0  0  0  0  0  0  0  0  0  0  0  0
   -0.0547   -1.2297    0.0359 C   0  0  0  0  0  0  0  0  0  0  0  0
    0.4576   -2.5560    0.0403 C   0  0  0  0  0  0  0  0  0  0  0  0
    1.7416   -2.8511    0.0864 N   0  0  0  0  0  0  0  0  0  0  0  0
    1.8359   -4.2175    0.0486 N   0  0  0  0  0  0  0  0  0  0  0  0
    0.6080   -4.6844   -0.0156 C   0  0  0  0  0  0  0  0  0  0  0  0
    0.1349   -5.9417   -0.1019 N   0  0  0  0  0  0  0  0  0  0  0  0
    0.9189   -7.1079   -0.0733 C   0  0  0  0  0  0  0  0  0  0  0  0
    2.1715   -7.1555    0.5581 C   0  0  0  0  0  0  0  0  0  0  0  0
    2.9837   -8.2885    0.4786 C   0  0  0  0  0  0  0  0  0  0  0  0
    2.5535   -9.3909   -0.2488 C   0  0  0  0  0  0  0  0  0  0  0  0
    3.5657  -10.7747   -0.3796 Cl  0  0  0  0  0  0  0  0  0  0  0  0
    1.3128   -9.3722   -0.8810 C   0  0  0  0  0  0  0  0  0  0  0  0
    0.5000   -8.2364   -0.7914 C   0  0  0  0  0  0  0  0  0  0  0  0
   -0.3251   -3.6865   -0.0328 O   0  0  0  0  0  0  0  0  0  0  0  0
    2.4320    1.0806    0.0103 H   0  0  0  0  0  0  0  0  0  0  0  0
    2.5189   -0.4477   -0.9059 H   0  0  0  0  0  0  0  0  0  0  0  0
    2.5380   -0.4622    0.8968 H   0  0  0  0  0  0  0  0  0  0  0  0
    0.1710    2.0110   -0.0192 H   0  0  0  0  0  0  0  0  0  0  0  0
   -2.3741   -2.5504    0.1043 H   0  0  0  0  0  0  0  0  0  0  0  0
   -3.7443   -1.3597   -1.5379 H   0  0  0  0  0  0  0  0  0  0  0  0
   -3.8426    0.0050   -0.4216 H   0  0  0  0  0  0  0  0  0  0  0  0
   -4.3495   -0.8056    2.1368 H   0  0  0  0  0  0  0  0  0  0  0  0
   -6.2482   -1.7851    3.4070 H   0  0  0  0  0  0  0  0  0  0  0  0
   -8.5400   -3.5234    2.9824 H   0  0  0  0  0  0  0  0  0  0  0  0
   -8.2102   -4.4384   -0.9292 H   0  0  0  0  0  0  0  0  0  0  0  0
   -5.6600   -2.7980   -1.4663 H   0  0  0  0  0  0  0  0  0  0  0  0
   -0.8487   -6.0694   -0.2976 H   0  0  0  0  0  0  0  0  0  0  0  0
    2.5372   -6.3076    1.1342 H   0  0  0  0  0  0  0  0  0  0  0  0
    3.9496   -8.2900    0.9761 H   0  0  0  0  0  0  0  0  0  0  0  0
    0.9799  -10.2293   -1.4598 H   0  0  0  0  0  0  0  0  0  0  0  0
   -0.4514   -8.2328   -1.3179 H   0  0  0  0  0  0  0  0  0  0  0  0
  1  2  1  0  0  0  0
  1 31  1  0  0  0  0
  1 32  1  0  0  0  0
  1 33  1  0  0  0  0
  2  3  1  0  0  0  0
  2 17  1  0  0  0  0
  3  4  2  0  0  0  0
  3 34  1  0  0  0  0
  4  5  1  0  0  0  0
  5  6  1  0  0  0  0
  5 17  2  0  0  0  0
  6  7  1  0  0  0  0
  6 35  1  0  0  0  0
  7  8  1  0  0  0  0
  7 36  1  0  0  0  0
  7 37  1  0  0  0  0
  8  9  1  0  0  0  0
  8 16  2  0  0  0  0
  9 10  2  0  0  0  0
  9 38  1  0  0  0  0
 10 11  1  0  0  0  0
 10 39  1  0  0  0  0
 11 12  1  0  0  0  0
 11 15  2  0  0  0  0
 12 13  1  0  0  0  0
 12 40  1  0  0  0  0
 13 14  2  0  0  0  0
 14 15  1  0  0  0  0
 14 41  1  0  0  0  0
 15 16  1  0  0  0  0
 16 42  1  0  0  0  0
 17 18  1  0  0  0  0
 18 19  2  0  0  0  0
 18 30  1  0  0  0  0
 19 20  1  0  0  0  0
 20 21  2  0  0  0  0
 21 22  1  0  0  0  0
 21 30  1  0  0  0  0
 22 23  1  0  0  0  0
 22 43  1  0  0  0  0
 23 24  1  0  0  0  0
 23 29  2  0  0  0  0
 24 25  2  0  0  0  0
 24 44  1  0  0  0  0
 25 26  1  0  0  0  0
 25 45  1  0  0  0  0
 26 27  1  0  0  0  0
 26 28  2  0  0  0  0
 28 29  1  0  0  0  0
 28 46  1  0  0  0  0
 29 47  1  0  0  0  0
M  END
$$$$
