CHEMBL3780676
 OpenBabel04072215373D

 89 95  0  0  0  0  0  0  0  0999 V2000
    2.4169    0.2818   -1.3069 C   0  0  0  0  0  0  0  0  0  0  0  0
    2.5192   -0.1810    0.0367 O   0  0  0  0  0  0  0  0  0  0  0  0
    3.1471    0.6146    0.9558 C   0  0  0  0  0  0  0  0  0  0  0  0
    4.2027    1.4656    0.6125 C   0  0  0  0  0  0  0  0  0  0  0  0
    4.8028    2.3287    1.5533 C   0  0  0  0  0  0  0  0  0  0  0  0
    5.8251    3.2509    1.2290 C   0  0  0  0  0  0  0  0  0  0  0  0
    6.2294    3.3601   -0.0899 O   0  0  0  0  0  0  0  0  0  0  0  0
    6.6327    4.5867   -0.5799 C   0  0  0  0  0  0  0  0  0  0  0  0
    7.6888    4.5746   -1.4906 C   0  0  0  0  0  0  0  0  0  0  0  0
    8.1446    5.7724   -2.0667 C   0  0  0  0  0  0  0  0  0  0  0  0
    7.5507    7.0001   -1.7529 C   0  0  0  0  0  0  0  0  0  0  0  0
    7.9479    8.2332   -2.3214 N   0  0  0  0  0  0  0  0  0  0  0  0
    9.1330    8.4788   -3.0003 C   0  0  0  0  0  0  0  0  0  0  0  0
   10.0577    7.6759   -3.0302 O   0  0  0  0  0  0  0  0  0  0  0  0
    9.2648    9.8472   -3.6365 C   0  0  0  0  0  0  0  0  0  0  0  0
   10.1281   10.0665   -4.6530 C   0  0  0  0  0  0  0  0  0  0  0  0
   11.0319    8.7759   -5.4080 Cl  0  0  0  0  0  0  0  0  0  0  0  0
   10.3451   11.4254   -5.2100 C   0  0  0  0  0  0  0  0  0  0  0  0
   11.3142   11.6834   -6.2071 C   0  0  0  0  0  0  0  0  0  0  0  0
   11.5448   12.9687   -6.6967 C   0  0  0  0  0  0  0  0  0  0  0  0
   10.8282   14.0325   -6.1807 C   0  0  0  0  0  0  0  0  0  0  0  0
    9.8814   13.8049   -5.1820 C   0  0  0  0  0  0  0  0  0  0  0  0
    9.6024   12.5058   -4.7026 C   0  0  0  0  0  0  0  0  0  0  0  0
    8.6357   12.2527   -3.6796 N   0  0  0  0  0  0  0  0  0  0  0  0
    7.8549   13.3369   -3.1739 C   0  0  0  0  0  0  0  0  0  0  0  0
    7.8868   13.6364   -1.8022 C   0  0  0  0  0  0  0  0  0  0  0  0
    7.1380   14.6994   -1.2936 C   0  0  0  0  0  0  0  0  0  0  0  0
    6.3432   15.4489   -2.1516 C   0  0  0  0  0  0  0  0  0  0  0  0
    5.6296   16.4720   -1.6648 F   0  0  0  0  0  0  0  0  0  0  0  0
    6.2743   15.1510   -3.5077 C   0  0  0  0  0  0  0  0  0  0  0  0
    7.0235   14.0892   -4.0197 C   0  0  0  0  0  0  0  0  0  0  0  0
    8.4362   10.9856   -3.1353 C   0  0  0  0  0  0  0  0  0  0  0  0
    7.5695   10.7495   -2.2858 O   0  0  0  0  0  0  0  0  0  0  0  0
    6.4802    7.0067   -0.8560 C   0  0  0  0  0  0  0  0  0  0  0  0
    6.0251    5.8112   -0.2845 C   0  0  0  0  0  0  0  0  0  0  0  0
    4.9889    5.8792    0.5642 F   0  0  0  0  0  0  0  0  0  0  0  0
    6.4259    4.0013    2.2387 C   0  0  0  0  0  0  0  0  0  0  0  0
    5.9140    3.8882    3.5084 C   0  0  0  0  0  0  0  0  0  0  0  0
    4.9069    3.0574    3.8488 N   0  0  0  0  0  0  0  0  0  0  0  0
    4.3695    2.2839    2.8933 C   0  0  0  0  0  0  0  0  0  0  0  0
    3.3686    1.3877    3.2411 C   0  0  0  0  0  0  0  0  0  0  0  0
    2.7714    0.5302    2.3074 C   0  0  0  0  0  0  0  0  0  0  0  0
    1.8499   -0.3253    2.8657 O   0  0  0  0  0  0  0  0  0  0  0  0
    1.6979   -1.5763    2.1991 C   0  0  0  0  0  0  0  0  0  0  0  0
    1.3841   -2.6934    3.1895 C   0  0  0  0  0  0  0  0  0  0  0  0
    1.3556   -4.0206    2.4225 C   0  0  0  0  0  0  0  0  0  0  0  0
    0.9998   -5.1801    3.2407 N   0  0  0  0  0  0  0  0  0  0  0  0
    0.9072   -6.3952    2.4045 C   0  0  0  0  0  0  0  0  0  0  0  0
    0.4689   -7.6129    3.2469 C   0  0  0  0  0  0  0  0  0  0  0  0
    1.3487   -7.9114    4.3955 N   0  0  0  0  0  0  0  0  0  0  0  0
    2.6177   -8.4915    3.9642 C   0  0  0  0  0  0  0  0  0  0  0  0
    1.5589   -6.6729    5.1736 C   0  0  0  0  0  0  0  0  0  0  0  0
    1.9482   -5.4256    4.3434 C   0  0  0  0  0  0  0  0  0  0  0  0
    2.3499   -0.5997   -1.9519 H   0  0  0  0  0  0  0  0  0  0  0  0
    3.2669    0.8626   -1.6661 H   0  0  0  0  0  0  0  0  0  0  0  0
    1.5017    0.8685   -1.4296 H   0  0  0  0  0  0  0  0  0  0  0  0
    4.6211    1.4478   -0.3880 H   0  0  0  0  0  0  0  0  0  0  0  0
    8.1691    3.6367   -1.7614 H   0  0  0  0  0  0  0  0  0  0  0  0
    8.9599    5.7036   -2.7843 H   0  0  0  0  0  0  0  0  0  0  0  0
    7.3448    9.0400   -2.1381 H   0  0  0  0  0  0  0  0  0  0  0  0
   11.9316   10.8899   -6.6230 H   0  0  0  0  0  0  0  0  0  0  0  0
   12.2965   13.1335   -7.4652 H   0  0  0  0  0  0  0  0  0  0  0  0
   11.0102   15.0421   -6.5416 H   0  0  0  0  0  0  0  0  0  0  0  0
    9.3857   14.6849   -4.7822 H   0  0  0  0  0  0  0  0  0  0  0  0
    8.5099   13.0577   -1.1241 H   0  0  0  0  0  0  0  0  0  0  0  0
    7.1717   14.9450   -0.2368 H   0  0  0  0  0  0  0  0  0  0  0  0
    5.6357   15.7434   -4.1553 H   0  0  0  0  0  0  0  0  0  0  0  0
    6.9443   13.8479   -5.0771 H   0  0  0  0  0  0  0  0  0  0  0  0
    5.9951    7.9323   -0.5615 H   0  0  0  0  0  0  0  0  0  0  0  0
    7.2448    4.6753    2.0361 H   0  0  0  0  0  0  0  0  0  0  0  0
    6.3065    4.4988    4.3164 H   0  0  0  0  0  0  0  0  0  0  0  0
    3.0538    1.3408    4.2816 H   0  0  0  0  0  0  0  0  0  0  0  0
    2.6248   -1.8666    1.6919 H   0  0  0  0  0  0  0  0  0  0  0  0
    0.8780   -1.4887    1.4781 H   0  0  0  0  0  0  0  0  0  0  0  0
    0.4288   -2.5055    3.6965 H   0  0  0  0  0  0  0  0  0  0  0  0
    2.1539   -2.6961    3.9707 H   0  0  0  0  0  0  0  0  0  0  0  0
    2.3245   -4.1819    1.9310 H   0  0  0  0  0  0  0  0  0  0  0  0
    0.6087   -3.9219    1.6230 H   0  0  0  0  0  0  0  0  0  0  0  0
    1.8678   -6.6053    1.9138 H   0  0  0  0  0  0  0  0  0  0  0  0
    0.1700   -6.2468    1.6062 H   0  0  0  0  0  0  0  0  0  0  0  0
    0.3726   -8.4960    2.6037 H   0  0  0  0  0  0  0  0  0  0  0  0
   -0.5412   -7.4193    3.6329 H   0  0  0  0  0  0  0  0  0  0  0  0
    2.4421   -9.4016    3.3801 H   0  0  0  0  0  0  0  0  0  0  0  0
    3.2108   -8.7898    4.8355 H   0  0  0  0  0  0  0  0  0  0  0  0
    3.2250   -7.8116    3.3584 H   0  0  0  0  0  0  0  0  0  0  0  0
    2.3094   -6.8382    5.9565 H   0  0  0  0  0  0  0  0  0  0  0  0
    0.6242   -6.4488    5.7051 H   0  0  0  0  0  0  0  0  0  0  0  0
    2.9694   -5.5383    3.9560 H   0  0  0  0  0  0  0  0  0  0  0  0
    1.9542   -4.5756    5.0331 H   0  0  0  0  0  0  0  0  0  0  0  0
  1  2  1  0  0  0  0
  1 54  1  0  0  0  0
  1 55  1  0  0  0  0
  1 56  1  0  0  0  0
  2  3  1  0  0  0  0
  3  4  1  0  0  0  0
  3 42  2  0  0  0  0
  4  5  2  0  0  0  0
  4 57  1  0  0  0  0
  5  6  1  0  0  0  0
  5 40  1  0  0  0  0
  6  7  1  0  0  0  0
  6 37  2  0  0  0  0
  7  8  1  0  0  0  0
  8  9  1  0  0  0  0
  8 35  2  0  0  0  0
  9 10  2  0  0  0  0
  9 58  1  0  0  0  0
 10 11  1  0  0  0  0
 10 59  1  0  0  0  0
 11 12  1  0  0  0  0
 11 34  2  0  0  0  0
 12 13  1  0  0  0  0
 12 60  1  0  0  0  0
 13 14  2  0  0  0  0
 13 15  1  0  0  0  0
 15 16  2  0  0  0  0
 15 32  1  0  0  0  0
 16 17  1  0  0  0  0
 16 18  1  0  0  0  0
 18 19  1  0  0  0  0
 18 23  2  0  0  0  0
 19 20  2  0  0  0  0
 19 61  1  0  0  0  0
 20 21  1  0  0  0  0
 20 62  1  0  0  0  0
 21 22  2  0  0  0  0
 21 63  1  0  0  0  0
 22 23  1  0  0  0  0
 22 64  1  0  0  0  0
 23 24  1  0  0  0  0
 24 25  1  0  0  0  0
 24 32  1  0  0  0  0
 25 26  1  0  0  0  0
 25 31  2  0  0  0  0
 26 27  2  0  0  0  0
 26 65  1  0  0  0  0
 27 28  1  0  0  0  0
 27 66  1  0  0  0  0
 28 29  1  0  0  0  0
 28 30  2  0  0  0  0
 30 31  1  0  0  0  0
 30 67  1  0  0  0  0
 31 68  1  0  0  0  0
 32 33  2  0  0  0  0
 34 35  1  0  0  0  0
 34 69  1  0  0  0  0
 35 36  1  0  0  0  0
 37 38  1  0  0  0  0
 37 70  1  0  0  0  0
 38 39  2  0  0  0  0
 38 71  1  0  0  0  0
 39 40  1  0  0  0  0
 40 41  2  0  0  0  0
 41 42  1  0  0  0  0
 41 72  1  0  0  0  0
 42 43  1  0  0  0  0
 43 44  1  0  0  0  0
 44 45  1  0  0  0  0
 44 73  1  0  0  0  0
 44 74  1  0  0  0  0
 45 46  1  0  0  0  0
 45 75  1  0  0  0  0
 45 76  1  0  0  0  0
 46 47  1  0  0  0  0
 46 77  1  0  0  0  0
 46 78  1  0  0  0  0
 47 48  1  0  0  0  0
 47 53  1  0  0  0  0
 48 49  1  0  0  0  0
 48 79  1  0  0  0  0
 48 80  1  0  0  0  0
 49 50  1  0  0  0  0
 49 81  1  0  0  0  0
 49 82  1  0  0  0  0
 50 51  1  0  0  0  0
 50 52  1  0  0  0  0
 51 83  1  0  0  0  0
 51 84  1  0  0  0  0
 51 85  1  0  0  0  0
 52 53  1  0  0  0  0
 52 86  1  0  0  0  0
 52 87  1  0  0  0  0
 53 88  1  0  0  0  0
 53 89  1  0  0  0  0
M  END
$$$$
