CHEMBL3919884
 OpenBabel04072215373D

 62 66  0  0  1  0  0  0  0  0999 V2000
    0.6496    4.3456    0.4996 C   0  0  0  0  0  0  0  0  0  0  0  0
    1.9936    4.5198    0.0727 O   0  0  0  0  0  0  0  0  0  0  0  0
    2.7833    3.4404    0.2048 C   0  0  0  0  0  0  0  0  0  0  0  0
    2.4588    2.2237    0.6888 C   0  0  0  0  0  0  0  0  0  0  0  0
    3.3622    1.1698    0.6405 C   0  0  0  0  0  0  0  0  0  0  0  0
    3.0601   -0.0783    1.1004 O   0  0  0  0  0  0  0  0  0  0  0  0
    1.7435   -0.1927    1.6284 C   0  0  0  0  0  0  0  0  0  0  0  0
    4.6300    1.3211    0.0699 C   0  0  0  0  0  0  0  0  0  0  0  0
    5.0007    2.5050   -0.5257 C   0  0  0  0  0  0  0  0  0  0  0  0
    6.2404    2.6284   -1.2326 N   0  0  0  0  0  0  0  0  0  0  0  0
    6.8461    1.4205   -1.9315 C   0  0  0  0  0  0  0  0  0  0  0  0
    6.3959    1.2521   -3.3841 C   0  0  3  0  0  0  0  0  0  0  0  0
    4.9421    1.0694   -3.7115 C   0  0  0  0  0  0  0  0  0  0  0  0
    4.7725    1.0166   -5.1451 O   0  0  0  0  0  0  0  0  0  0  0  0
    5.5182   -0.0833   -5.6911 C   0  0  0  0  0  0  0  0  0  0  0  0
    7.0086    0.0882   -5.4724 C   0  0  0  0  0  0  0  0  0  0  0  0
    7.2522    0.1777   -4.0220 N   0  0  0  0  0  0  0  0  0  0  0  0
    7.2455    3.6087   -0.8606 C   0  0  0  0  0  0  0  0  0  0  0  0
    8.0405    4.0904   -1.8797 C   0  0  0  0  0  0  0  0  0  0  0  0
    9.0325    4.9492   -1.5550 C   0  0  0  0  0  0  0  0  0  0  0  0
    9.3951    5.2724   -0.2589 C   0  0  0  0  0  0  0  0  0  0  0  0
   10.6573    5.2140   -0.3274 N   0  0  0  0  0  0  0  0  0  0  0  0
   11.1861    6.2977   -0.7342 C   0  0  0  0  0  0  0  0  0  0  0  0
   11.4137    6.9796    0.3188 C   0  0  0  0  0  0  0  0  0  0  0  0
   12.8385    7.9297   -0.4219 C   0  0  0  0  0  0  0  0  0  0  0  0
   13.2933    8.4482   -1.8609 C   0  0  0  0  0  0  0  0  0  0  0  0
   14.0777    9.5703   -1.9934 N   0  0  0  0  0  0  0  0  0  0  0  0
   14.1622   10.1066   -0.7724 N   0  0  0  0  0  0  0  0  0  0  0  0
   14.8929   11.4179   -0.5539 C   0  0  0  0  0  0  0  0  0  0  0  0
   13.3930    9.2364    0.1399 C   0  0  0  0  0  0  0  0  0  0  0  0
   10.1029    6.5195    1.3127 N   0  0  0  0  0  0  0  0  0  0  0  0
    8.8562    5.3181    0.8831 C   0  0  0  0  0  0  0  0  0  0  0  0
    7.6204    4.1343    0.5110 C   0  0  0  0  0  0  0  0  0  0  0  0
    4.0666    3.5047   -0.2492 C   0  0  0  0  0  0  0  0  0  0  0  0
    0.0724    5.2444    0.2569 H   0  0  0  0  0  0  0  0  0  0  0  0
    0.6417    4.2130    1.5831 H   0  0  0  0  0  0  0  0  0  0  0  0
    0.1650    3.5051    0.0009 H   0  0  0  0  0  0  0  0  0  0  0  0
    1.4867    2.1414    1.1427 H   0  0  0  0  0  0  0  0  0  0  0  0
    1.6056   -1.2213    1.9502 H   0  0  0  0  0  0  0  0  0  0  0  0
    0.9794    0.0324    0.8707 H   0  0  0  0  0  0  0  0  0  0  0  0
    1.6191    0.4594    2.5022 H   0  0  0  0  0  0  0  0  0  0  0  0
    5.3436    0.5080    0.1069 H   0  0  0  0  0  0  0  0  0  0  0  0
    6.6639    0.4630   -1.4177 H   0  0  0  0  0  0  0  0  0  0  0  0
    7.9217    1.6028   -1.9460 H   0  0  0  0  0  0  0  0  0  0  0  0
    6.4028    2.2817   -3.7700 H   0  0  0  0  0  0  0  0  0  0  0  0
    4.3962    1.9544   -3.3580 H   0  0  0  0  0  0  0  0  0  0  0  0
    4.5957    0.1612   -3.2401 H   0  0  0  0  0  0  0  0  0  0  0  0
    5.3131   -0.1497   -6.7611 H   0  0  0  0  0  0  0  0  0  0  0  0
    5.1922   -1.0014   -5.1987 H   0  0  0  0  0  0  0  0  0  0  0  0
    7.3464    0.9668   -6.0364 H   0  0  0  0  0  0  0  0  0  0  0  0
    7.5791   -0.7492   -5.8842 H   0  0  0  0  0  0  0  0  0  0  0  0
    8.2475    0.3691   -3.8483 H   0  0  0  0  0  0  0  0  0  0  0  0
    8.1030    3.6911   -2.8867 H   0  0  0  0  0  0  0  0  0  0  0  0
    9.7774    5.2339   -2.3005 H   0  0  0  0  0  0  0  0  0  0  0  0
   11.5579    6.3570   -1.7099 H   0  0  0  0  0  0  0  0  0  0  0  0
   13.1206    8.0454   -2.8541 H   0  0  0  0  0  0  0  0  0  0  0  0
   15.4713   11.7857   -1.4366 H   0  0  0  0  0  0  0  0  0  0  0  0
   15.6270   11.3350    0.2621 H   0  0  0  0  0  0  0  0  0  0  0  0
   14.1949   12.2326   -0.3037 H   0  0  0  0  0  0  0  0  0  0  0  0
   13.3541    9.7136    1.1055 H   0  0  0  0  0  0  0  0  0  0  0  0
    6.9209    3.6494    1.2466 H   0  0  0  0  0  0  0  0  0  0  0  0
    4.2528    4.5351   -0.2961 H   0  0  0  0  0  0  0  0  0  0  0  0
  1  2  1  0  0  0  0
  1 35  1  0  0  0  0
  1 36  1  0  0  0  0
  1 37  1  0  0  0  0
  2  3  1  0  0  0  0
  3  4  1  0  0  0  0
  3 34  2  0  0  0  0
  4  5  2  0  0  0  0
  4 38  1  0  0  0  0
  5  6  1  0  0  0  0
  5  8  1  0  0  0  0
  6  7  1  0  0  0  0
  7 39  1  0  0  0  0
  7 40  1  0  0  0  0
  7 41  1  0  0  0  0
  8  9  2  0  0  0  0
  8 42  1  0  0  0  0
  9 10  1  0  0  0  0
  9 34  1  0  0  0  0
 10 11  1  0  0  0  0
 10 18  1  0  0  0  0
 11 12  1  0  0  0  0
 11 43  1  0  0  0  0
 11 44  1  0  0  0  0
 12 13  1  0  0  0  0
 12 17  1  0  0  0  0
 12 45  1  0  0  0  0
 13 14  1  0  0  0  0
 13 46  1  0  0  0  0
 13 47  1  0  0  0  0
 14 15  1  0  0  0  0
 15 16  1  0  0  0  0
 15 48  1  0  0  0  0
 15 49  1  0  0  0  0
 16 17  1  0  0  0  0
 16 50  1  0  0  0  0
 16 51  1  0  0  0  0
 17 52  1  0  0  0  0
 18 19  1  0  0  0  0
 18 33  2  0  0  0  0
 19 20  2  0  0  0  0
 19 53  1  0  0  0  0
 20 21  1  0  0  0  0
 20 54  1  0  0  0  0
 21 22  1  0  0  0  0
 21 32  2  0  0  0  0
 22 23  2  0  0  0  0
 23 24  1  0  0  0  0
 23 55  1  0  0  0  0
 24 25  1  0  0  0  0
 24 31  2  0  0  0  0
 25 26  1  0  0  0  0
 25 30  2  0  0  0  0
 26 27  2  0  0  0  0
 26 56  1  0  0  0  0
 27 28  1  0  0  0  0
 28 29  1  0  0  0  0
 28 30  1  0  0  0  0
 29 57  1  0  0  0  0
 29 58  1  0  0  0  0
 29 59  1  0  0  0  0
 30 60  1  0  0  0  0
 31 32  1  0  0  0  0
 32 33  1  0  0  0  0
 33 61  1  0  0  0  0
 34 62  1  0  0  0  0
M  END
$$$$
