CHEMBL4513911
 OpenBabel04072215383D

 65 68  0  0  0  0  0  0  0  0999 V2000
    0.8075    1.0473   -0.9239 O   0  0  0  0  0  0  0  0  0  0  0  0
    2.0318    1.0234   -0.8347 C   0  0  0  0  0  0  0  0  0  0  0  0
    2.7655    1.6830    0.3295 C   0  0  0  0  0  0  0  0  0  0  0  0
    1.7844    1.6071    1.8646 S   0  0  0  0  0  0  0  0  0  0  0  0
    2.6927    2.6741    2.9359 C   0  0  0  0  0  0  0  0  0  0  0  0
    4.3695    2.7128    3.0047 S   0  0  0  0  0  0  0  0  0  0  0  0
    1.8640    3.5032    3.6845 N   0  0  0  0  0  0  0  0  0  0  0  0
    0.8445    2.9446    4.5895 C   0  0  0  0  0  0  0  0  0  0  0  0
   -0.3668    3.8824    4.7137 C   0  0  0  0  0  0  0  0  0  0  0  0
   -0.0363    5.2738    5.0955 N   0  0  0  0  0  0  0  0  0  0  0  0
    0.3268    5.5128    6.5168 C   0  0  0  0  0  0  0  0  0  0  0  0
   -0.4868    4.6537    7.5192 C   0  0  0  0  0  0  0  0  0  0  0  0
   -0.3692    5.0884    8.9811 C   0  0  0  0  0  0  0  0  0  0  0  0
   -0.6405    6.5751    9.1534 C   0  0  0  0  0  0  0  0  0  0  0  0
    0.3192    7.3746    8.2904 C   0  0  0  0  0  0  0  0  0  0  0  0
    0.1397    7.0226    6.8174 C   0  0  0  0  0  0  0  0  0  0  0  0
    0.9788    5.7812    4.1386 C   0  0  0  0  0  0  0  0  0  0  0  0
    2.2322    4.8921    3.9843 C   0  0  0  0  0  0  0  0  0  0  0  0
    2.8970    0.4409   -1.7686 N   0  0  0  0  0  0  0  0  0  0  0  0
    2.5018   -0.1777   -2.9830 C   0  0  0  0  0  0  0  0  0  0  0  0
    1.2300    0.0183   -3.5279 C   0  0  0  0  0  0  0  0  0  0  0  0
    0.8322   -0.6690   -4.6653 C   0  0  0  0  0  0  0  0  0  0  0  0
    1.7240   -1.5116   -5.3126 C   0  0  0  0  0  0  0  0  0  0  0  0
    3.0411   -1.6412   -4.8679 C   0  0  0  0  0  0  0  0  0  0  0  0
    4.0002   -2.3772   -5.6047 N   0  0  0  0  0  0  0  0  0  0  0  0
    3.8737   -2.7312   -6.9422 C   0  0  0  0  0  0  0  0  0  0  0  0
    2.9120   -2.4997   -7.6758 O   0  0  0  0  0  0  0  0  0  0  0  0
    5.0626   -3.4119   -7.5459 C   0  0  0  0  0  0  0  0  0  0  0  0
    5.0130   -3.7779   -8.8891 C   0  0  0  0  0  0  0  0  0  0  0  0
    6.1415   -4.3601   -9.4567 C   0  0  0  0  0  0  0  0  0  0  0  0
    7.2652   -4.5544   -8.6640 C   0  0  0  0  0  0  0  0  0  0  0  0
    7.2226   -4.1679   -7.3317 C   0  0  0  0  0  0  0  0  0  0  0  0
    6.1452   -3.5922   -6.7395 N   0  0  0  0  0  0  0  0  0  0  0  0
    3.4171   -0.9999   -3.6717 C   0  0  0  0  0  0  0  0  0  0  0  0
    2.9646    2.7221    0.0451 H   0  0  0  0  0  0  0  0  0  0  0  0
    3.7089    1.1598    0.5017 H   0  0  0  0  0  0  0  0  0  0  0  0
    1.3186    2.8005    5.5692 H   0  0  0  0  0  0  0  0  0  0  0  0
    0.5177    1.9551    4.2580 H   0  0  0  0  0  0  0  0  0  0  0  0
   -1.1229    3.4451    5.3728 H   0  0  0  0  0  0  0  0  0  0  0  0
   -0.8565    3.9238    3.7304 H   0  0  0  0  0  0  0  0  0  0  0  0
    1.3831    5.2626    6.6778 H   0  0  0  0  0  0  0  0  0  0  0  0
   -0.1499    3.6108    7.4599 H   0  0  0  0  0  0  0  0  0  0  0  0
   -1.5495    4.6655    7.2476 H   0  0  0  0  0  0  0  0  0  0  0  0
    0.6326    4.8532    9.3585 H   0  0  0  0  0  0  0  0  0  0  0  0
   -1.0794    4.5159    9.5884 H   0  0  0  0  0  0  0  0  0  0  0  0
   -0.5256    6.8579   10.2048 H   0  0  0  0  0  0  0  0  0  0  0  0
   -1.6758    6.8013    8.8700 H   0  0  0  0  0  0  0  0  0  0  0  0
    1.3539    7.1748    8.5956 H   0  0  0  0  0  0  0  0  0  0  0  0
    0.1436    8.4467    8.4371 H   0  0  0  0  0  0  0  0  0  0  0  0
    0.8568    7.6233    6.2490 H   0  0  0  0  0  0  0  0  0  0  0  0
   -0.8611    7.3439    6.4987 H   0  0  0  0  0  0  0  0  0  0  0  0
    1.2841    6.8056    4.3687 H   0  0  0  0  0  0  0  0  0  0  0  0
    0.4904    5.8478    3.1569 H   0  0  0  0  0  0  0  0  0  0  0  0
    2.8469    4.9088    4.8901 H   0  0  0  0  0  0  0  0  0  0  0  0
    2.8363    5.2825    3.1564 H   0  0  0  0  0  0  0  0  0  0  0  0
    3.8711    0.3410   -1.5116 H   0  0  0  0  0  0  0  0  0  0  0  0
    0.5174    0.7107   -3.0928 H   0  0  0  0  0  0  0  0  0  0  0  0
   -0.1750   -0.5415   -5.0535 H   0  0  0  0  0  0  0  0  0  0  0  0
    1.3547   -2.0580   -6.1762 H   0  0  0  0  0  0  0  0  0  0  0  0
    4.9174   -2.5420   -5.2011 H   0  0  0  0  0  0  0  0  0  0  0  0
    4.1260   -3.6048   -9.4792 H   0  0  0  0  0  0  0  0  0  0  0  0
    6.1420   -4.6503  -10.5019 H   0  0  0  0  0  0  0  0  0  0  0  0
    8.1667   -4.9989   -9.0799 H   0  0  0  0  0  0  0  0  0  0  0  0
    8.0841   -4.3135   -6.6874 H   0  0  0  0  0  0  0  0  0  0  0  0
    4.4231   -1.1339   -3.2857 H   0  0  0  0  0  0  0  0  0  0  0  0
  1  2  2  0  0  0  0
  2  3  1  0  0  0  0
  2 19  1  0  0  0  0
  3  4  1  0  0  0  0
  3 35  1  0  0  0  0
  3 36  1  0  0  0  0
  4  5  1  0  0  0  0
  5  6  2  0  0  0  0
  5  7  1  0  0  0  0
  7  8  1  0  0  0  0
  7 18  1  0  0  0  0
  8  9  1  0  0  0  0
  8 37  1  0  0  0  0
  8 38  1  0  0  0  0
  9 10  1  0  0  0  0
  9 39  1  0  0  0  0
  9 40  1  0  0  0  0
 10 11  1  0  0  0  0
 10 17  1  0  0  0  0
 11 12  1  0  0  0  0
 11 16  1  0  0  0  0
 11 41  1  0  0  0  0
 12 13  1  0  0  0  0
 12 42  1  0  0  0  0
 12 43  1  0  0  0  0
 13 14  1  0  0  0  0
 13 44  1  0  0  0  0
 13 45  1  0  0  0  0
 14 15  1  0  0  0  0
 14 46  1  0  0  0  0
 14 47  1  0  0  0  0
 15 16  1  0  0  0  0
 15 48  1  0  0  0  0
 15 49  1  0  0  0  0
 16 50  1  0  0  0  0
 16 51  1  0  0  0  0
 17 18  1  0  0  0  0
 17 52  1  0  0  0  0
 17 53  1  0  0  0  0
 18 54  1  0  0  0  0
 18 55  1  0  0  0  0
 19 20  1  0  0  0  0
 19 56  1  0  0  0  0
 20 21  1  0  0  0  0
 20 34  2  0  0  0  0
 21 22  2  0  0  0  0
 21 57  1  0  0  0  0
 22 23  1  0  0  0  0
 22 58  1  0  0  0  0
 23 24  2  0  0  0  0
 23 59  1  0  0  0  0
 24 25  1  0  0  0  0
 24 34  1  0  0  0  0
 25 26  1  0  0  0  0
 25 60  1  0  0  0  0
 26 27  2  0  0  0  0
 26 28  1  0  0  0  0
 28 29  1  0  0  0  0
 28 33  2  0  0  0  0
 29 30  2  0  0  0  0
 29 61  1  0  0  0  0
 30 31  1  0  0  0  0
 30 62  1  0  0  0  0
 31 32  2  0  0  0  0
 31 63  1  0  0  0  0
 32 33  1  0  0  0  0
 32 64  1  0  0  0  0
 34 65  1  0  0  0  0
M  END
$$$$
