CHEMBL4647154
 OpenBabel04072215383D

 64 68  0  0  0  0  0  0  0  0999 V2000
    0.9536    0.7335   -0.5637 C   0  0  0  0  0  0  0  0  0  0  0  0
    2.3853    0.7073   -0.5583 O   0  0  0  0  0  0  0  0  0  0  0  0
    2.9290    0.8815    0.6695 C   0  0  0  0  0  0  0  0  0  0  0  0
    2.3087    1.0487    1.7080 O   0  0  0  0  0  0  0  0  0  0  0  0
    4.4199    0.8618    0.6144 C   0  0  0  0  0  0  0  0  0  0  0  0
    5.1470    0.7107   -0.5881 C   0  0  0  0  0  0  0  0  0  0  0  0
    6.5575    0.7389   -0.5979 C   0  0  0  0  0  0  0  0  0  0  0  0
    7.2297    0.9280    0.5988 C   0  0  0  0  0  0  0  0  0  0  0  0
    6.4866    1.0626    1.7798 C   0  0  0  0  0  0  0  0  0  0  0  0
    5.1053    1.0260    1.8216 C   0  0  0  0  0  0  0  0  0  0  0  0
    7.3204    1.2614    2.8719 N   0  0  0  0  0  0  0  0  0  0  0  0
    8.6427    1.3018    2.4936 C   0  0  0  0  0  0  0  0  0  0  0  0
    9.5997    1.5841    3.1991 O   0  0  0  0  0  0  0  0  0  0  0  0
    8.6479    1.0225    1.0109 C   0  0  0  0  0  0  0  0  0  0  0  0
    9.8270    0.9299    0.3629 C   0  0  0  0  0  0  0  0  0  0  0  0
   11.0904    1.0375    0.9556 N   0  0  0  0  0  0  0  0  0  0  0  0
   11.9709   -0.0541    1.1924 C   0  0  0  0  0  0  0  0  0  0  0  0
   13.2228    0.2049    1.7441 C   0  0  0  0  0  0  0  0  0  0  0  0
   14.1838   -0.8100    1.8534 C   0  0  0  0  0  0  0  0  0  0  0  0
   13.8969   -2.0964    1.3909 C   0  0  0  0  0  0  0  0  0  0  0  0
   14.9446   -3.1001    1.3494 N   0  0  0  0  0  0  0  0  0  0  0  0
   16.2508   -2.8913    1.7883 C   0  0  0  0  0  0  0  0  0  0  0  0
   17.0076   -4.0206    1.5939 C   0  0  0  0  0  0  0  0  0  0  0  0
   16.1690   -4.9740    1.0046 C   0  0  0  0  0  0  0  0  0  0  0  0
   14.9078   -4.4097    0.8385 C   0  0  0  0  0  0  0  0  0  0  0  0
   13.7470   -5.0742    0.1513 C   0  0  0  0  0  0  0  0  0  0  0  0
   13.4601   -6.4167    0.7064 N   0  0  0  0  0  0  0  0  0  0  0  0
   12.9506   -6.3181    2.0788 C   0  0  0  0  0  0  0  0  0  0  0  0
   12.4757   -7.1056   -0.1302 C   0  0  0  0  0  0  0  0  0  0  0  0
   12.6590   -2.3951    0.9330 N   0  0  0  0  0  0  0  0  0  0  0  0
   11.7426   -1.3831    0.8507 C   0  0  0  0  0  0  0  0  0  0  0  0
    9.8559    0.9875   -1.1187 C   0  0  0  0  0  0  0  0  0  0  0  0
    9.8775    2.2487   -1.7389 C   0  0  0  0  0  0  0  0  0  0  0  0
    9.9204    2.3597   -3.1290 C   0  0  0  0  0  0  0  0  0  0  0  0
    9.9515    1.2101   -3.9128 C   0  0  0  0  0  0  0  0  0  0  0  0
    9.9352   -0.0470   -3.3086 C   0  0  0  0  0  0  0  0  0  0  0  0
    9.8808   -0.1605   -1.9184 C   0  0  0  0  0  0  0  0  0  0  0  0
    0.6116    0.4566   -1.5642 H   0  0  0  0  0  0  0  0  0  0  0  0
    0.5961    1.7440   -0.3406 H   0  0  0  0  0  0  0  0  0  0  0  0
    0.5463    0.0135    0.1518 H   0  0  0  0  0  0  0  0  0  0  0  0
    4.6219    0.5802   -1.5328 H   0  0  0  0  0  0  0  0  0  0  0  0
    7.0840    0.6180   -1.5408 H   0  0  0  0  0  0  0  0  0  0  0  0
    4.5705    1.1342    2.7599 H   0  0  0  0  0  0  0  0  0  0  0  0
    7.0257    1.4309    3.8249 H   0  0  0  0  0  0  0  0  0  0  0  0
   11.0419    1.5822    1.8267 H   0  0  0  0  0  0  0  0  0  0  0  0
   13.4835    1.2119    2.0611 H   0  0  0  0  0  0  0  0  0  0  0  0
   15.1456   -0.5305    2.2631 H   0  0  0  0  0  0  0  0  0  0  0  0
   16.5682   -1.9498    2.2060 H   0  0  0  0  0  0  0  0  0  0  0  0
   18.0583   -4.1281    1.8374 H   0  0  0  0  0  0  0  0  0  0  0  0
   16.4363   -5.9776    0.7033 H   0  0  0  0  0  0  0  0  0  0  0  0
   14.0657   -5.2044   -0.8934 H   0  0  0  0  0  0  0  0  0  0  0  0
   12.8346   -4.4829    0.1115 H   0  0  0  0  0  0  0  0  0  0  0  0
   13.7377   -5.9944    2.7659 H   0  0  0  0  0  0  0  0  0  0  0  0
   12.6136   -7.2968    2.4374 H   0  0  0  0  0  0  0  0  0  0  0  0
   12.1087   -5.6202    2.1547 H   0  0  0  0  0  0  0  0  0  0  0  0
   12.7871   -7.1267   -1.1800 H   0  0  0  0  0  0  0  0  0  0  0  0
   11.4839   -6.6431   -0.0738 H   0  0  0  0  0  0  0  0  0  0  0  0
   12.3822   -8.1542    0.1836 H   0  0  0  0  0  0  0  0  0  0  0  0
   10.7729   -1.7086    0.4923 H   0  0  0  0  0  0  0  0  0  0  0  0
    9.8744    3.1556   -1.1359 H   0  0  0  0  0  0  0  0  0  0  0  0
    9.9444    3.3413   -3.5964 H   0  0  0  0  0  0  0  0  0  0  0  0
   10.0005    1.2921   -4.9955 H   0  0  0  0  0  0  0  0  0  0  0  0
    9.9766   -0.9436   -3.9217 H   0  0  0  0  0  0  0  0  0  0  0  0
    9.8710   -1.1481   -1.4716 H   0  0  0  0  0  0  0  0  0  0  0  0
  1  2  1  0  0  0  0
  1 38  1  0  0  0  0
  1 39  1  0  0  0  0
  1 40  1  0  0  0  0
  2  3  1  0  0  0  0
  3  4  2  0  0  0  0
  3  5  1  0  0  0  0
  5  6  1  0  0  0  0
  5 10  2  0  0  0  0
  6  7  2  0  0  0  0
  6 41  1  0  0  0  0
  7  8  1  0  0  0  0
  7 42  1  0  0  0  0
  8  9  2  0  0  0  0
  8 14  1  0  0  0  0
  9 10  1  0  0  0  0
  9 11  1  0  0  0  0
 10 43  1  0  0  0  0
 11 12  1  0  0  0  0
 11 44  1  0  0  0  0
 12 13  2  0  0  0  0
 12 14  1  0  0  0  0
 14 15  2  0  0  0  0
 15 16  1  0  0  0  0
 15 32  1  0  0  0  0
 16 17  1  0  0  0  0
 16 45  1  0  0  0  0
 17 18  1  0  0  0  0
 17 31  2  0  0  0  0
 18 19  2  0  0  0  0
 18 46  1  0  0  0  0
 19 20  1  0  0  0  0
 19 47  1  0  0  0  0
 20 21  1  0  0  0  0
 20 30  2  0  0  0  0
 21 22  1  0  0  0  0
 21 25  1  0  0  0  0
 22 23  2  0  0  0  0
 22 48  1  0  0  0  0
 23 24  1  0  0  0  0
 23 49  1  0  0  0  0
 24 25  2  0  0  0  0
 24 50  1  0  0  0  0
 25 26  1  0  0  0  0
 26 27  1  0  0  0  0
 26 51  1  0  0  0  0
 26 52  1  0  0  0  0
 27 28  1  0  0  0  0
 27 29  1  0  0  0  0
 28 53  1  0  0  0  0
 28 54  1  0  0  0  0
 28 55  1  0  0  0  0
 29 56  1  0  0  0  0
 29 57  1  0  0  0  0
 29 58  1  0  0  0  0
 30 31  1  0  0  0  0
 31 59  1  0  0  0  0
 32 33  1  0  0  0  0
 32 37  2  0  0  0  0
 33 34  2  0  0  0  0
 33 60  1  0  0  0  0
 34 35  1  0  0  0  0
 34 61  1  0  0  0  0
 35 36  2  0  0  0  0
 35 62  1  0  0  0  0
 36 37  1  0  0  0  0
 36 63  1  0  0  0  0
 37 64  1  0  0  0  0
M  END
$$$$
