CHEMBL409912
 OpenBabel04072215383D

 46 49  0  0  0  0  0  0  0  0999 V2000
    1.2704    2.0344    3.1964 N   0  0  0  0  0  0  0  0  0  0  0  0
    1.5227    0.9342    2.4634 C   0  0  0  0  0  0  0  0  0  0  0  0
    1.9179   -0.2048    3.0381 N   0  0  0  0  0  0  0  0  0  0  0  0
    2.1027   -1.1039    2.0144 O   0  0  0  0  0  0  0  0  0  0  0  0
    1.8007   -0.5141    0.8315 C   0  0  0  0  0  0  0  0  0  0  0  0
    1.8738   -1.1521   -0.4037 C   0  0  0  0  0  0  0  0  0  0  0  0
    1.5073   -0.3977   -1.5139 C   0  0  0  0  0  0  0  0  0  0  0  0
    1.0960    0.9295   -1.3705 C   0  0  0  0  0  0  0  0  0  0  0  0
    1.0325    1.5720   -0.1074 C   0  0  0  0  0  0  0  0  0  0  0  0
    0.5731    2.9703   -0.0061 C   0  0  0  0  0  0  0  0  0  0  0  0
   -0.3226    3.3518    0.9921 C   0  0  0  0  0  0  0  0  0  0  0  0
   -0.6798    4.6846    1.1852 C   0  0  0  0  0  0  0  0  0  0  0  0
   -0.2422    5.6839    0.3195 C   0  0  0  0  0  0  0  0  0  0  0  0
   -0.5907    7.0468    0.4803 N   0  0  0  0  0  0  0  0  0  0  0  0
   -1.2698    7.5665    1.5654 C   0  0  0  0  0  0  0  0  0  0  0  0
   -1.6151    6.9393    2.5597 O   0  0  0  0  0  0  0  0  0  0  0  0
   -1.4954    8.9269    1.4528 N   0  0  0  0  0  0  0  0  0  0  0  0
   -2.2945    9.6013    2.4001 C   0  0  0  0  0  0  0  0  0  0  0  0
   -3.5696    9.0800    2.6926 C   0  0  0  0  0  0  0  0  0  0  0  0
   -4.3476    9.6272    3.7086 C   0  0  0  0  0  0  0  0  0  0  0  0
   -3.8463   10.6810    4.4631 C   0  0  0  0  0  0  0  0  0  0  0  0
   -2.5915   11.2145    4.1634 C   0  0  0  0  0  0  0  0  0  0  0  0
   -1.8245   10.7090    3.1007 C   0  0  0  0  0  0  0  0  0  0  0  0
   -0.5902   11.2848    3.0040 O   0  0  0  0  0  0  0  0  0  0  0  0
   -0.0211   11.4975    1.7249 C   0  0  0  0  0  0  0  0  0  0  0  0
   -0.8404   11.2055    0.6886 F   0  0  0  0  0  0  0  0  0  0  0  0
    0.3194   12.8016    1.6179 F   0  0  0  0  0  0  0  0  0  0  0  0
    1.1048   10.7604    1.6017 F   0  0  0  0  0  0  0  0  0  0  0  0
    0.5648    5.3128   -0.7572 C   0  0  0  0  0  0  0  0  0  0  0  0
    0.9786    3.9734   -0.9078 C   0  0  0  0  0  0  0  0  0  0  0  0
    1.4051    0.8031    1.0351 C   0  0  0  0  0  0  0  0  0  0  0  0
    1.4690    1.9996    4.1881 H   0  0  0  0  0  0  0  0  0  0  0  0
    1.2930    2.9675    2.8025 H   0  0  0  0  0  0  0  0  0  0  0  0
    2.1928   -2.1839   -0.4853 H   0  0  0  0  0  0  0  0  0  0  0  0
    1.5320   -0.8505   -2.5022 H   0  0  0  0  0  0  0  0  0  0  0  0
    0.7918    1.4672   -2.2671 H   0  0  0  0  0  0  0  0  0  0  0  0
   -0.7415    2.6149    1.6755 H   0  0  0  0  0  0  0  0  0  0  0  0
   -1.3105    4.8890    2.0420 H   0  0  0  0  0  0  0  0  0  0  0  0
   -0.2275    7.6963   -0.1976 H   0  0  0  0  0  0  0  0  0  0  0  0
   -1.3539    9.3907    0.5673 H   0  0  0  0  0  0  0  0  0  0  0  0
   -3.9550    8.2252    2.1388 H   0  0  0  0  0  0  0  0  0  0  0  0
   -5.3205    9.1999    3.9366 H   0  0  0  0  0  0  0  0  0  0  0  0
   -4.4218   11.0735    5.2974 H   0  0  0  0  0  0  0  0  0  0  0  0
   -2.1960   12.0148    4.7862 H   0  0  0  0  0  0  0  0  0  0  0  0
    0.9027    6.0464   -1.4855 H   0  0  0  0  0  0  0  0  0  0  0  0
    1.6350    3.7294   -1.7408 H   0  0  0  0  0  0  0  0  0  0  0  0
  1  2  1  0  0  0  0
  1 32  1  0  0  0  0
  1 33  1  0  0  0  0
  2  3  2  0  0  0  0
  2 31  1  0  0  0  0
  3  4  1  0  0  0  0
  4  5  1  0  0  0  0
  5  6  1  0  0  0  0
  5 31  2  0  0  0  0
  6  7  2  0  0  0  0
  6 34  1  0  0  0  0
  7  8  1  0  0  0  0
  7 35  1  0  0  0  0
  8  9  2  0  0  0  0
  8 36  1  0  0  0  0
  9 10  1  0  0  0  0
  9 31  1  0  0  0  0
 10 11  1  0  0  0  0
 10 30  2  0  0  0  0
 11 12  2  0  0  0  0
 11 37  1  0  0  0  0
 12 13  1  0  0  0  0
 12 38  1  0  0  0  0
 13 14  1  0  0  0  0
 13 29  2  0  0  0  0
 14 15  1  0  0  0  0
 14 39  1  0  0  0  0
 15 16  2  0  0  0  0
 15 17  1  0  0  0  0
 17 18  1  0  0  0  0
 17 40  1  0  0  0  0
 18 19  1  0  0  0  0
 18 23  2  0  0  0  0
 19 20  2  0  0  0  0
 19 41  1  0  0  0  0
 20 21  1  0  0  0  0
 20 42  1  0  0  0  0
 21 22  2  0  0  0  0
 21 43  1  0  0  0  0
 22 23  1  0  0  0  0
 22 44  1  0  0  0  0
 23 24  1  0  0  0  0
 24 25  1  0  0  0  0
 25 26  1  0  0  0  0
 25 27  1  0  0  0  0
 25 28  1  0  0  0  0
 29 30  1  0  0  0  0
 29 45  1  0  0  0  0
 30 46  1  0  0  0  0
M  END
$$$$
