CHEMBL204874
 OpenBabel04072215363D

 43 46  0  0  0  0  0  0  0  0999 V2000
    2.1123    0.0418   -0.0197 C   0  0  0  0  0  0  0  0  0  0  0  0
    0.6739   -0.0806    0.0081 N   0  0  0  0  0  0  0  0  0  0  0  0
   -0.2000    0.9674    0.1073 C   0  0  0  0  0  0  0  0  0  0  0  0
   -1.4448    0.5535    0.2015 N   0  0  0  0  0  0  0  0  0  0  0  0
   -1.3688   -0.8022    0.1026 C   0  0  0  0  0  0  0  0  0  0  0  0
   -2.4541   -1.5838    0.1502 N   0  0  0  0  0  0  0  0  0  0  0  0
   -3.6972   -1.1375    0.7385 C   0  0  0  0  0  0  0  0  0  0  0  0
   -4.4188   -2.3409    1.3077 C   0  0  0  0  0  0  0  0  0  0  0  0
   -3.8019   -3.1506    2.2716 C   0  0  0  0  0  0  0  0  0  0  0  0
   -4.4954   -4.2388    2.7770 C   0  0  0  0  0  0  0  0  0  0  0  0
   -5.7450   -4.5731    2.3946 N   0  0  0  0  0  0  0  0  0  0  0  0
   -6.3263   -3.7763    1.4720 C   0  0  0  0  0  0  0  0  0  0  0  0
   -5.7159   -2.6683    0.9061 C   0  0  0  0  0  0  0  0  0  0  0  0
   -0.0666   -1.2387   -0.0106 C   0  0  0  0  0  0  0  0  0  0  0  0
    0.4554   -2.5627   -0.0539 C   0  0  0  0  0  0  0  0  0  0  0  0
    1.7434   -2.8532   -0.0893 N   0  0  0  0  0  0  0  0  0  0  0  0
    1.8412   -4.2228   -0.0880 N   0  0  0  0  0  0  0  0  0  0  0  0
    0.6123   -4.6934   -0.0526 C   0  0  0  0  0  0  0  0  0  0  0  0
    0.1313   -5.9466   -0.0021 N   0  0  0  0  0  0  0  0  0  0  0  0
    0.8790   -7.1345   -0.0545 C   0  0  0  0  0  0  0  0  0  0  0  0
    2.1821   -7.1954   -0.5704 C   0  0  0  0  0  0  0  0  0  0  0  0
    2.9219   -8.3810   -0.5366 C   0  0  0  0  0  0  0  0  0  0  0  0
    2.3763   -9.5307    0.0298 C   0  0  0  0  0  0  0  0  0  0  0  0
    3.3490  -10.9564    0.0553 Cl  0  0  0  0  0  0  0  0  0  0  0  0
    1.0819   -9.4906    0.5555 C   0  0  0  0  0  0  0  0  0  0  0  0
    0.3407  -10.8673    1.2922 Cl  0  0  0  0  0  0  0  0  0  0  0  0
    0.3432   -8.3001    0.5106 C   0  0  0  0  0  0  0  0  0  0  0  0
   -0.3195   -3.6977   -0.0324 O   0  0  0  0  0  0  0  0  0  0  0  0
    2.3900    1.0987   -0.0106 H   0  0  0  0  0  0  0  0  0  0  0  0
    2.4889   -0.4250   -0.9330 H   0  0  0  0  0  0  0  0  0  0  0  0
    2.5194   -0.4465    0.8700 H   0  0  0  0  0  0  0  0  0  0  0  0
    0.1191    2.0013    0.1181 H   0  0  0  0  0  0  0  0  0  0  0  0
   -2.5250   -2.4003   -0.4444 H   0  0  0  0  0  0  0  0  0  0  0  0
   -4.3098   -0.6374   -0.0202 H   0  0  0  0  0  0  0  0  0  0  0  0
   -3.5304   -0.4277    1.5582 H   0  0  0  0  0  0  0  0  0  0  0  0
   -2.7952   -2.9359    2.6181 H   0  0  0  0  0  0  0  0  0  0  0  0
   -4.0500   -4.8884    3.5255 H   0  0  0  0  0  0  0  0  0  0  0  0
   -7.3382   -4.0625    1.1913 H   0  0  0  0  0  0  0  0  0  0  0  0
   -6.2473   -2.0750    0.1694 H   0  0  0  0  0  0  0  0  0  0  0  0
   -0.8651   -6.0550    0.1449 H   0  0  0  0  0  0  0  0  0  0  0  0
    2.6445   -6.3228   -1.0262 H   0  0  0  0  0  0  0  0  0  0  0  0
    3.9279   -8.3903   -0.9509 H   0  0  0  0  0  0  0  0  0  0  0  0
   -0.6560   -8.2839    0.9421 H   0  0  0  0  0  0  0  0  0  0  0  0
  1  2  1  0  0  0  0
  1 29  1  0  0  0  0
  1 30  1  0  0  0  0
  1 31  1  0  0  0  0
  2  3  1  0  0  0  0
  2 14  1  0  0  0  0
  3  4  2  0  0  0  0
  3 32  1  0  0  0  0
  4  5  1  0  0  0  0
  5  6  1  0  0  0  0
  5 14  2  0  0  0  0
  6  7  1  0  0  0  0
  6 33  1  0  0  0  0
  7  8  1  0  0  0  0
  7 34  1  0  0  0  0
  7 35  1  0  0  0  0
  8  9  1  0  0  0  0
  8 13  2  0  0  0  0
  9 10  2  0  0  0  0
  9 36  1  0  0  0  0
 10 11  1  0  0  0  0
 10 37  1  0  0  0  0
 11 12  2  0  0  0  0
 12 13  1  0  0  0  0
 12 38  1  0  0  0  0
 13 39  1  0  0  0  0
 14 15  1  0  0  0  0
 15 16  2  0  0  0  0
 15 28  1  0  0  0  0
 16 17  1  0  0  0  0
 17 18  2  0  0  0  0
 18 19  1  0  0  0  0
 18 28  1  0  0  0  0
 19 20  1  0  0  0  0
 19 40  1  0  0  0  0
 20 21  1  0  0  0  0
 20 27  2  0  0  0  0
 21 22  2  0  0  0  0
 21 41  1  0  0  0  0
 22 23  1  0  0  0  0
 22 42  1  0  0  0  0
 23 24  1  0  0  0  0
 23 25  2  0  0  0  0
 25 26  1  0  0  0  0
 25 27  1  0  0  0  0
 27 43  1  0  0  0  0
M  END
$$$$
