CHEMBL3941664
 OpenBabel04072215373D

 54 57  0  0  0  0  0  0  0  0999 V2000
    2.6026   -4.2953   -0.2360 C   0  0  0  0  0  0  0  0  0  0  0  0
    1.7517   -4.2020   -1.4964 C   0  0  0  0  0  0  0  0  0  0  0  0
    2.1043   -5.2407   -2.3089 F   0  0  0  0  0  0  0  0  0  0  0  0
    0.4573   -4.4474   -1.1391 F   0  0  0  0  0  0  0  0  0  0  0  0
    1.9184   -2.8736   -2.1805 C   0  0  0  0  0  0  0  0  0  0  0  0
    1.0935   -1.8098   -1.8315 C   0  0  0  0  0  0  0  0  0  0  0  0
    1.2201   -0.5744   -2.3478 N   0  0  0  0  0  0  0  0  0  0  0  0
    2.2150   -0.3877   -3.2464 C   0  0  0  0  0  0  0  0  0  0  0  0
    3.0972   -1.3769   -3.6861 C   0  0  0  0  0  0  0  0  0  0  0  0
    4.1403   -1.1365   -4.6334 N   0  0  0  0  0  0  0  0  0  0  0  0
    4.6620    0.1274   -4.8661 C   0  0  0  0  0  0  0  0  0  0  0  0
    4.2953    1.1390   -4.2692 O   0  0  0  0  0  0  0  0  0  0  0  0
    5.6549    0.1522   -5.8423 N   0  0  0  0  0  0  0  0  0  0  0  0
    6.2541    1.4055   -6.1435 C   0  0  0  0  0  0  0  0  0  0  0  0
    6.8186    2.1678   -5.1186 C   0  0  0  0  0  0  0  0  0  0  0  0
    7.3019    3.4518   -5.3693 C   0  0  0  0  0  0  0  0  0  0  0  0
    7.3021    3.9689   -6.6690 C   0  0  0  0  0  0  0  0  0  0  0  0
    7.8187    5.2099   -6.9916 O   0  0  0  0  0  0  0  0  0  0  0  0
    8.9184    5.6849   -6.2905 C   0  0  0  0  0  0  0  0  0  0  0  0
    9.8955    4.8336   -5.7770 C   0  0  0  0  0  0  0  0  0  0  0  0
   10.8798    5.3819   -4.9958 C   0  0  0  0  0  0  0  0  0  0  0  0
   10.9865    6.6993   -4.7782 N   0  0  0  0  0  0  0  0  0  0  0  0
   10.1099    7.5396   -5.3366 C   0  0  0  0  0  0  0  0  0  0  0  0
   10.2640    8.9270   -5.1181 N   0  0  0  0  0  0  0  0  0  0  0  0
   11.2820    9.4428   -4.3222 C   0  0  0  0  0  0  0  0  0  0  0  0
   12.1385    8.8199   -3.6997 O   0  0  0  0  0  0  0  0  0  0  0  0
   11.3356   10.9388   -4.2672 C   0  0  0  0  0  0  0  0  0  0  0  0
   12.6150   11.6155   -4.7122 C   0  0  0  0  0  0  0  0  0  0  0  0
   12.2335   11.6400   -3.2636 C   0  0  0  0  0  0  0  0  0  0  0  0
    9.0499    7.0695   -6.1143 C   0  0  0  0  0  0  0  0  0  0  0  0
    6.7303    3.2127   -7.6968 C   0  0  0  0  0  0  0  0  0  0  0  0
    6.2206    1.9247   -7.4412 C   0  0  0  0  0  0  0  0  0  0  0  0
    2.9158   -2.6538   -3.1497 C   0  0  0  0  0  0  0  0  0  0  0  0
    2.5018   -5.2895    0.2102 H   0  0  0  0  0  0  0  0  0  0  0  0
    2.2901   -3.5634    0.5155 H   0  0  0  0  0  0  0  0  0  0  0  0
    3.6640   -4.1400   -0.4586 H   0  0  0  0  0  0  0  0  0  0  0  0
    0.2888   -1.9154   -1.1069 H   0  0  0  0  0  0  0  0  0  0  0  0
    2.2538    0.6323   -3.6222 H   0  0  0  0  0  0  0  0  0  0  0  0
    4.6605   -1.9285   -4.9724 H   0  0  0  0  0  0  0  0  0  0  0  0
    5.5152   -0.4834   -6.6152 H   0  0  0  0  0  0  0  0  0  0  0  0
    6.8734    1.7772   -4.1048 H   0  0  0  0  0  0  0  0  0  0  0  0
    7.6931    4.0237   -4.5326 H   0  0  0  0  0  0  0  0  0  0  0  0
    9.8634    3.7586   -5.9138 H   0  0  0  0  0  0  0  0  0  0  0  0
   11.6209    4.7609   -4.4977 H   0  0  0  0  0  0  0  0  0  0  0  0
    9.6267    9.5556   -5.5678 H   0  0  0  0  0  0  0  0  0  0  0  0
   10.3997   11.4488   -4.4814 H   0  0  0  0  0  0  0  0  0  0  0  0
   12.5390   12.5325   -5.2793 H   0  0  0  0  0  0  0  0  0  0  0  0
   13.4611   10.9886   -4.9833 H   0  0  0  0  0  0  0  0  0  0  0  0
   11.9294   12.5933   -2.8483 H   0  0  0  0  0  0  0  0  0  0  0  0
   12.8110   11.0305   -2.5754 H   0  0  0  0  0  0  0  0  0  0  0  0
    8.3304    7.7417   -6.5630 H   0  0  0  0  0  0  0  0  0  0  0  0
    6.6609    3.6300   -8.6999 H   0  0  0  0  0  0  0  0  0  0  0  0
    5.7397    1.3783   -8.2477 H   0  0  0  0  0  0  0  0  0  0  0  0
    3.5634   -3.4774   -3.4343 H   0  0  0  0  0  0  0  0  0  0  0  0
  1  2  1  0  0  0  0
  1 34  1  0  0  0  0
  1 35  1  0  0  0  0
  1 36  1  0  0  0  0
  2  3  1  0  0  0  0
  2  4  1  0  0  0  0
  2  5  1  0  0  0  0
  5  6  1  0  0  0  0
  5 33  2  0  0  0  0
  6  7  2  0  0  0  0
  6 37  1  0  0  0  0
  7  8  1  0  0  0  0
  8  9  2  0  0  0  0
  8 38  1  0  0  0  0
  9 10  1  0  0  0  0
  9 33  1  0  0  0  0
 10 11  1  0  0  0  0
 10 39  1  0  0  0  0
 11 12  2  0  0  0  0
 11 13  1  0  0  0  0
 13 14  1  0  0  0  0
 13 40  1  0  0  0  0
 14 15  1  0  0  0  0
 14 32  2  0  0  0  0
 15 16  2  0  0  0  0
 15 41  1  0  0  0  0
 16 17  1  0  0  0  0
 16 42  1  0  0  0  0
 17 18  1  0  0  0  0
 17 31  2  0  0  0  0
 18 19  1  0  0  0  0
 19 20  1  0  0  0  0
 19 30  2  0  0  0  0
 20 21  2  0  0  0  0
 20 43  1  0  0  0  0
 21 22  1  0  0  0  0
 21 44  1  0  0  0  0
 22 23  2  0  0  0  0
 23 24  1  0  0  0  0
 23 30  1  0  0  0  0
 24 25  1  0  0  0  0
 24 45  1  0  0  0  0
 25 26  2  0  0  0  0
 25 27  1  0  0  0  0
 27 28  1  0  0  0  0
 27 29  1  0  0  0  0
 27 46  1  0  0  0  0
 28 29  1  0  0  0  0
 28 47  1  0  0  0  0
 28 48  1  0  0  0  0
 29 49  1  0  0  0  0
 29 50  1  0  0  0  0
 30 51  1  0  0  0  0
 31 32  1  0  0  0  0
 31 52  1  0  0  0  0
 32 53  1  0  0  0  0
 33 54  1  0  0  0  0
M  END
$$$$
