CHEMBL231310
 OpenBabel04072215363D

 45 48  0  0  0  0  0  0  0  0999 V2000
    1.2400   -0.1911   -1.8161 N   0  0  0  0  0  0  0  0  0  0  0  0
    2.5952   -0.2026   -1.5070 C   0  0  0  0  0  0  0  0  0  0  0  0
    3.2691    0.8774   -1.9614 N   0  0  0  0  0  0  0  0  0  0  0  0
    4.5747    1.0243   -1.6909 C   0  0  0  0  0  0  0  0  0  0  0  0
    5.3122    0.1280   -0.9561 C   0  0  0  0  0  0  0  0  0  0  0  0
    4.6266   -1.0023   -0.4989 C   0  0  0  0  0  0  0  0  0  0  0  0
    5.3241   -2.2636    0.4336 S   0  0  0  0  0  0  0  0  0  0  0  0
    3.8610   -3.1138    0.4920 C   0  0  0  0  0  0  0  0  0  0  0  0
    2.8173   -2.4720   -0.1551 C   0  0  0  0  0  0  0  0  0  0  0  0
    1.4811   -3.0848   -0.1069 C   0  0  0  0  0  0  0  0  0  0  0  0
    1.0497   -3.6929    1.0762 C   0  0  0  0  0  0  0  0  0  0  0  0
   -0.2115   -4.2816    1.1688 C   0  0  0  0  0  0  0  0  0  0  0  0
   -1.1066   -4.2573    0.1000 C   0  0  0  0  0  0  0  0  0  0  0  0
   -2.4139   -4.7972    0.1816 N   0  0  0  0  0  0  0  0  0  0  0  0
   -2.9287   -5.4831    1.2626 C   0  0  0  0  0  0  0  0  0  0  0  0
   -2.3154   -5.7929    2.2767 O   0  0  0  0  0  0  0  0  0  0  0  0
   -4.2728   -5.7667    1.1424 N   0  0  0  0  0  0  0  0  0  0  0  0
   -4.8927   -6.4507    2.2597 C   0  0  0  0  0  0  0  0  0  0  0  0
   -4.7103   -7.9663    2.2306 C   0  0  0  0  0  0  0  0  0  0  0  0
   -5.7490   -8.4795    3.2255 C   0  0  0  0  0  0  0  0  0  0  0  0
   -6.7654   -7.3460    3.3993 C   0  0  0  0  0  0  0  0  0  0  0  0
   -6.4016   -6.2996    2.3489 C   0  0  0  0  0  0  0  0  0  0  0  0
   -0.6906   -3.6501   -1.0887 C   0  0  0  0  0  0  0  0  0  0  0  0
    0.6055   -3.1031   -1.1996 C   0  0  0  0  0  0  0  0  0  0  0  0
    3.2627   -1.2127   -0.7589 C   0  0  0  0  0  0  0  0  0  0  0  0
    1.0015    0.7333   -2.1604 H   0  0  0  0  0  0  0  0  0  0  0  0
    0.6598   -0.5243   -1.0568 H   0  0  0  0  0  0  0  0  0  0  0  0
    5.0319    1.9244   -2.0912 H   0  0  0  0  0  0  0  0  0  0  0  0
    6.3624    0.2887   -0.7447 H   0  0  0  0  0  0  0  0  0  0  0  0
    3.8367   -4.0558    1.0243 H   0  0  0  0  0  0  0  0  0  0  0  0
    1.6823   -3.7235    1.9608 H   0  0  0  0  0  0  0  0  0  0  0  0
   -0.4531   -4.7416    2.1213 H   0  0  0  0  0  0  0  0  0  0  0  0
   -3.0264   -4.6496   -0.6052 H   0  0  0  0  0  0  0  0  0  0  0  0
   -4.6233   -5.9555    0.2152 H   0  0  0  0  0  0  0  0  0  0  0  0
   -4.4599   -6.0585    3.1909 H   0  0  0  0  0  0  0  0  0  0  0  0
   -3.6945   -8.2761    2.4967 H   0  0  0  0  0  0  0  0  0  0  0  0
   -4.9231   -8.3650    1.2306 H   0  0  0  0  0  0  0  0  0  0  0  0
   -5.2786   -8.7140    4.1880 H   0  0  0  0  0  0  0  0  0  0  0  0
   -6.2234   -9.3958    2.8605 H   0  0  0  0  0  0  0  0  0  0  0  0
   -6.6577   -6.9163    4.4038 H   0  0  0  0  0  0  0  0  0  0  0  0
   -7.7971   -7.6934    3.2989 H   0  0  0  0  0  0  0  0  0  0  0  0
   -6.7017   -5.2912    2.6503 H   0  0  0  0  0  0  0  0  0  0  0  0
   -6.8842   -6.5283    1.3919 H   0  0  0  0  0  0  0  0  0  0  0  0
   -1.3507   -3.5926   -1.9481 H   0  0  0  0  0  0  0  0  0  0  0  0
    0.9104   -2.6838   -2.1569 H   0  0  0  0  0  0  0  0  0  0  0  0
  1  2  1  0  0  0  0
  1 26  1  0  0  0  0
  1 27  1  0  0  0  0
  2  3  1  0  0  0  0
  2 25  2  0  0  0  0
  3  4  2  0  0  0  0
  4  5  1  0  0  0  0
  4 28  1  0  0  0  0
  5  6  2  0  0  0  0
  5 29  1  0  0  0  0
  6  7  1  0  0  0  0
  6 25  1  0  0  0  0
  7  8  1  0  0  0  0
  8  9  2  0  0  0  0
  8 30  1  0  0  0  0
  9 10  1  0  0  0  0
  9 25  1  0  0  0  0
 10 11  1  0  0  0  0
 10 24  2  0  0  0  0
 11 12  2  0  0  0  0
 11 31  1  0  0  0  0
 12 13  1  0  0  0  0
 12 32  1  0  0  0  0
 13 14  1  0  0  0  0
 13 23  2  0  0  0  0
 14 15  1  0  0  0  0
 14 33  1  0  0  0  0
 15 16  2  0  0  0  0
 15 17  1  0  0  0  0
 17 18  1  0  0  0  0
 17 34  1  0  0  0  0
 18 19  1  0  0  0  0
 18 22  1  0  0  0  0
 18 35  1  0  0  0  0
 19 20  1  0  0  0  0
 19 36  1  0  0  0  0
 19 37  1  0  0  0  0
 20 21  1  0  0  0  0
 20 38  1  0  0  0  0
 20 39  1  0  0  0  0
 21 22  1  0  0  0  0
 21 40  1  0  0  0  0
 21 41  1  0  0  0  0
 22 42  1  0  0  0  0
 22 43  1  0  0  0  0
 23 24  1  0  0  0  0
 23 44  1  0  0  0  0
 24 45  1  0  0  0  0
M  END
$$$$
