CHEMBL60541
 OpenBabel04072215383D

 41 44  0  0  0  0  0  0  0  0999 V2000
    2.4923    3.2662    2.4087 C   0  0  0  0  0  0  0  0  0  0  0  0
    2.5645    1.9280    1.8270 N   0  0  0  0  0  0  0  0  0  0  0  0
    3.0041    1.7940    0.2090 S   0  0  0  0  0  0  0  0  0  0  0  0
    2.5311    0.5016   -0.2308 O   0  0  0  0  0  0  0  0  0  0  0  0
    2.6206    3.0126   -0.4727 O   0  0  0  0  0  0  0  0  0  0  0  0
    4.7848    1.7328    0.2709 C   0  0  0  0  0  0  0  0  0  0  0  0
    5.4188    0.4729    0.2968 C   0  0  0  0  0  0  0  0  0  0  0  0
    6.8100    0.3849    0.2350 C   0  0  0  0  0  0  0  0  0  0  0  0
    7.5191    1.5674    0.1498 C   0  0  0  0  0  0  0  0  0  0  0  0
    6.9083    2.8289    0.1258 C   0  0  0  0  0  0  0  0  0  0  0  0
    5.5262    2.9273    0.1748 C   0  0  0  0  0  0  0  0  0  0  0  0
    8.0102    3.8058    0.0441 C   0  0  0  0  0  0  0  0  0  0  0  0
    7.9053    5.1454    0.0613 C   0  0  0  0  0  0  0  0  0  0  0  0
    9.0400    5.9909    0.0989 C   0  0  0  0  0  0  0  0  0  0  0  0
    9.6122    6.4143   -1.0815 N   0  0  0  0  0  0  0  0  0  0  0  0
   10.7097    7.1981   -0.8152 C   0  0  0  0  0  0  0  0  0  0  0  0
   10.8526    7.2786    0.5533 C   0  0  0  0  0  0  0  0  0  0  0  0
    9.7930    6.5241    1.1243 C   0  0  0  0  0  0  0  0  0  0  0  0
    9.6788    6.4090    2.5968 C   0  0  0  0  0  0  0  0  0  0  0  0
   11.0550    6.6770    3.2214 C   0  0  0  0  0  0  0  0  0  0  0  0
   11.7240    7.8528    2.6987 O   0  0  0  0  0  0  0  0  0  0  0  0
   11.8600    7.9833    1.3341 C   0  0  0  0  0  0  0  0  0  0  0  0
   12.7320    8.6873    0.8394 O   0  0  0  0  0  0  0  0  0  0  0  0
    9.2963    3.0098   -0.0164 C   0  0  0  0  0  0  0  0  0  0  0  0
   10.4401    3.4030   -0.1277 O   0  0  0  0  0  0  0  0  0  0  0  0
    8.8998    1.6861    0.0648 N   0  0  0  0  0  0  0  0  0  0  0  0
    2.2806    3.1810    3.4790 H   0  0  0  0  0  0  0  0  0  0  0  0
    1.6785    3.8377    1.9541 H   0  0  0  0  0  0  0  0  0  0  0  0
    3.4383    3.7996    2.2919 H   0  0  0  0  0  0  0  0  0  0  0  0
    1.7997    1.2890    2.0481 H   0  0  0  0  0  0  0  0  0  0  0  0
    4.8286   -0.4414    0.3448 H   0  0  0  0  0  0  0  0  0  0  0  0
    7.3085   -0.5784    0.2407 H   0  0  0  0  0  0  0  0  0  0  0  0
    5.0257    3.8892    0.1252 H   0  0  0  0  0  0  0  0  0  0  0  0
    6.9317    5.6220    0.1253 H   0  0  0  0  0  0  0  0  0  0  0  0
    9.2975    6.1623   -2.0090 H   0  0  0  0  0  0  0  0  0  0  0  0
   11.3057    7.6171   -1.6162 H   0  0  0  0  0  0  0  0  0  0  0  0
    9.3254    5.4162    2.8940 H   0  0  0  0  0  0  0  0  0  0  0  0
    8.9564    7.1518    2.9530 H   0  0  0  0  0  0  0  0  0  0  0  0
   11.7296    5.8247    3.0768 H   0  0  0  0  0  0  0  0  0  0  0  0
   10.9426    6.8234    4.3010 H   0  0  0  0  0  0  0  0  0  0  0  0
    9.5618    0.9259    0.0401 H   0  0  0  0  0  0  0  0  0  0  0  0
  1  2  1  0  0  0  0
  1 27  1  0  0  0  0
  1 28  1  0  0  0  0
  1 29  1  0  0  0  0
  2  3  1  0  0  0  0
  2 30  1  0  0  0  0
  3  4  2  0  0  0  0
  3  5  2  0  0  0  0
  3  6  1  0  0  0  0
  6  7  1  0  0  0  0
  6 11  2  0  0  0  0
  7  8  2  0  0  0  0
  7 31  1  0  0  0  0
  8  9  1  0  0  0  0
  8 32  1  0  0  0  0
  9 10  2  0  0  0  0
  9 26  1  0  0  0  0
 10 11  1  0  0  0  0
 10 12  1  0  0  0  0
 11 33  1  0  0  0  0
 12 13  2  0  0  0  0
 12 24  1  0  0  0  0
 13 14  1  0  0  0  0
 13 34  1  0  0  0  0
 14 15  1  0  0  0  0
 14 18  2  0  0  0  0
 15 16  1  0  0  0  0
 15 35  1  0  0  0  0
 16 17  2  0  0  0  0
 16 36  1  0  0  0  0
 17 18  1  0  0  0  0
 17 22  1  0  0  0  0
 18 19  1  0  0  0  0
 19 20  1  0  0  0  0
 19 37  1  0  0  0  0
 19 38  1  0  0  0  0
 20 21  1  0  0  0  0
 20 39  1  0  0  0  0
 20 40  1  0  0  0  0
 21 22  1  0  0  0  0
 22 23  2  0  0  0  0
 24 25  2  0  0  0  0
 24 26  1  0  0  0  0
 26 41  1  0  0  0  0
M  END
$$$$
