CHEMBL3907642
 OpenBabel04072215373D

 58 62  0  0  0  0  0  0  0  0999 V2000
    0.8538   -0.1540   -0.3460 C   0  0  0  0  0  0  0  0  0  0  0  0
    2.1444   -0.5542    0.1119 O   0  0  0  0  0  0  0  0  0  0  0  0
    2.9305   -1.2562   -0.7668 C   0  0  0  0  0  0  0  0  0  0  0  0
    2.7046   -1.3587   -2.1358 C   0  0  0  0  0  0  0  0  0  0  0  0
    3.5735   -2.1196   -2.9143 C   0  0  0  0  0  0  0  0  0  0  0  0
    3.4407   -2.3174   -4.2653 O   0  0  0  0  0  0  0  0  0  0  0  0
    2.4106   -1.5891   -4.9279 C   0  0  0  0  0  0  0  0  0  0  0  0
    4.6839   -2.7576   -2.3278 C   0  0  0  0  0  0  0  0  0  0  0  0
    5.0005   -2.6086   -0.9722 C   0  0  0  0  0  0  0  0  0  0  0  0
    6.1530   -3.2178   -0.3903 N   0  0  0  0  0  0  0  0  0  0  0  0
    6.6403   -2.5731    0.8862 C   0  0  0  0  0  0  0  0  0  0  0  0
    6.1604   -3.0757    2.2486 C   0  0  0  0  0  0  0  0  0  0  0  0
    5.6395   -4.3359    2.5635 C   0  0  0  0  0  0  0  0  0  0  0  0
    5.4656   -4.7060    3.9084 C   0  0  0  0  0  0  0  0  0  0  0  0
    5.7990   -3.7988    4.8974 C   0  0  0  0  0  0  0  0  0  0  0  0
    5.7027   -4.2004    6.5634 Cl  0  0  0  0  0  0  0  0  0  0  0  0
    6.2673   -2.5640    4.6480 N   0  0  0  0  0  0  0  0  0  0  0  0
    6.4390   -2.2443    3.3445 C   0  0  0  0  0  0  0  0  0  0  0  0
    7.2940   -3.8687   -1.0170 C   0  0  0  0  0  0  0  0  0  0  0  0
    7.7986   -4.9374   -0.2834 C   0  0  0  0  0  0  0  0  0  0  0  0
    9.1215   -5.2904   -0.3963 C   0  0  0  0  0  0  0  0  0  0  0  0
    9.9339   -4.7302   -1.3482 C   0  0  0  0  0  0  0  0  0  0  0  0
   11.2291   -5.0322   -1.1954 N   0  0  0  0  0  0  0  0  0  0  0  0
   12.0500   -4.6846   -2.1874 C   0  0  0  0  0  0  0  0  0  0  0  0
   11.5867   -4.1265   -3.3658 C   0  0  0  0  0  0  0  0  0  0  0  0
   12.5143   -4.1891   -4.4878 C   0  0  0  0  0  0  0  0  0  0  0  0
   12.6206   -5.1605   -5.5220 C   0  0  0  0  0  0  0  0  0  0  0  0
   13.7525   -5.0500   -6.2311 N   0  0  0  0  0  0  0  0  0  0  0  0
   14.3825   -4.0162   -5.6494 N   0  0  0  0  0  0  0  0  0  0  0  0
   15.4942   -3.3674   -6.3049 C   0  0  0  0  0  0  0  0  0  0  0  0
   13.7709   -3.6012   -4.4979 C   0  0  0  0  0  0  0  0  0  0  0  0
   10.2777   -3.6853   -3.4728 N   0  0  0  0  0  0  0  0  0  0  0  0
    9.4223   -3.9165   -2.3757 C   0  0  0  0  0  0  0  0  0  0  0  0
    8.0658   -3.4379   -2.1398 C   0  0  0  0  0  0  0  0  0  0  0  0
    4.0586   -1.8797   -0.2062 C   0  0  0  0  0  0  0  0  0  0  0  0
    0.3663    0.3988    0.4634 H   0  0  0  0  0  0  0  0  0  0  0  0
    0.2357   -1.0287   -0.5770 H   0  0  0  0  0  0  0  0  0  0  0  0
    0.9139    0.5235   -1.2049 H   0  0  0  0  0  0  0  0  0  0  0  0
    1.8590   -0.8570   -2.5839 H   0  0  0  0  0  0  0  0  0  0  0  0
    2.4822   -1.8049   -5.9973 H   0  0  0  0  0  0  0  0  0  0  0  0
    2.5407   -0.5087   -4.7973 H   0  0  0  0  0  0  0  0  0  0  0  0
    1.4194   -1.9103   -4.5886 H   0  0  0  0  0  0  0  0  0  0  0  0
    5.3036   -3.3776   -2.9666 H   0  0  0  0  0  0  0  0  0  0  0  0
    6.4700   -1.4901    0.8259 H   0  0  0  0  0  0  0  0  0  0  0  0
    7.7365   -2.6539    0.9524 H   0  0  0  0  0  0  0  0  0  0  0  0
    5.3909   -5.0548    1.7902 H   0  0  0  0  0  0  0  0  0  0  0  0
    5.1038   -5.6956    4.1787 H   0  0  0  0  0  0  0  0  0  0  0  0
    6.8521   -1.2466    3.1930 H   0  0  0  0  0  0  0  0  0  0  0  0
    7.2184   -5.4080    0.4930 H   0  0  0  0  0  0  0  0  0  0  0  0
    9.5493   -6.0102    0.2875 H   0  0  0  0  0  0  0  0  0  0  0  0
   13.0963   -4.9316   -2.0343 H   0  0  0  0  0  0  0  0  0  0  0  0
   11.9453   -5.9717   -5.7662 H   0  0  0  0  0  0  0  0  0  0  0  0
   15.6629   -3.8181   -7.2867 H   0  0  0  0  0  0  0  0  0  0  0  0
   16.3894   -3.4554   -5.6853 H   0  0  0  0  0  0  0  0  0  0  0  0
   15.2218   -2.3157   -6.4323 H   0  0  0  0  0  0  0  0  0  0  0  0
   14.2620   -2.9151   -3.8225 H   0  0  0  0  0  0  0  0  0  0  0  0
    7.6872   -2.6598   -2.8038 H   0  0  0  0  0  0  0  0  0  0  0  0
    4.1652   -1.7829    0.8711 H   0  0  0  0  0  0  0  0  0  0  0  0
  1  2  1  0  0  0  0
  1 36  1  0  0  0  0
  1 37  1  0  0  0  0
  1 38  1  0  0  0  0
  2  3  1  0  0  0  0
  3  4  1  0  0  0  0
  3 35  2  0  0  0  0
  4  5  2  0  0  0  0
  4 39  1  0  0  0  0
  5  6  1  0  0  0  0
  5  8  1  0  0  0  0
  6  7  1  0  0  0  0
  7 40  1  0  0  0  0
  7 41  1  0  0  0  0
  7 42  1  0  0  0  0
  8  9  2  0  0  0  0
  8 43  1  0  0  0  0
  9 10  1  0  0  0  0
  9 35  1  0  0  0  0
 10 11  1  0  0  0  0
 10 19  1  0  0  0  0
 11 12  1  0  0  0  0
 11 44  1  0  0  0  0
 11 45  1  0  0  0  0
 12 13  1  0  0  0  0
 12 18  2  0  0  0  0
 13 14  2  0  0  0  0
 13 46  1  0  0  0  0
 14 15  1  0  0  0  0
 14 47  1  0  0  0  0
 15 16  1  0  0  0  0
 15 17  2  0  0  0  0
 17 18  1  0  0  0  0
 18 48  1  0  0  0  0
 19 20  1  0  0  0  0
 19 34  2  0  0  0  0
 20 21  2  0  0  0  0
 20 49  1  0  0  0  0
 21 22  1  0  0  0  0
 21 50  1  0  0  0  0
 22 23  1  0  0  0  0
 22 33  2  0  0  0  0
 23 24  2  0  0  0  0
 24 25  1  0  0  0  0
 24 51  1  0  0  0  0
 25 26  1  0  0  0  0
 25 32  2  0  0  0  0
 26 27  1  0  0  0  0
 26 31  2  0  0  0  0
 27 28  2  0  0  0  0
 27 52  1  0  0  0  0
 28 29  1  0  0  0  0
 29 30  1  0  0  0  0
 29 31  1  0  0  0  0
 30 53  1  0  0  0  0
 30 54  1  0  0  0  0
 30 55  1  0  0  0  0
 31 56  1  0  0  0  0
 32 33  1  0  0  0  0
 33 34  1  0  0  0  0
 34 57  1  0  0  0  0
 35 58  1  0  0  0  0
M  END
$$$$
