CHEMBL153843
 OpenBabel04072215363D

 43 45  0  0  0  0  0  0  0  0999 V2000
    1.8232    0.7776   -0.9527 O   0  0  0  0  0  0  0  0  0  0  0  0
    2.2486    0.0472   -0.0617 C   0  0  0  0  0  0  0  0  0  0  0  0
    1.9676    0.1644    1.2887 N   0  0  0  0  0  0  0  0  0  0  0  0
    1.0995    1.1153    1.8812 C   0  0  0  0  0  0  0  0  0  0  0  0
    0.3877    2.0778    1.1540 C   0  0  0  0  0  0  0  0  0  0  0  0
   -0.4817    2.9670    1.7931 C   0  0  0  0  0  0  0  0  0  0  0  0
   -0.6502    2.9123    3.1701 C   0  0  0  0  0  0  0  0  0  0  0  0
    0.0539    1.9639    3.9255 C   0  0  0  0  0  0  0  0  0  0  0  0
   -0.1225    1.8887    5.4208 C   0  0  0  0  0  0  0  0  0  0  0  0
   -1.0314    2.7775    5.9113 F   0  0  0  0  0  0  0  0  0  0  0  0
   -0.5470    0.6601    5.8292 F   0  0  0  0  0  0  0  0  0  0  0  0
    1.0345    2.1273    6.0968 F   0  0  0  0  0  0  0  0  0  0  0  0
    0.9311    1.0753    3.2699 C   0  0  0  0  0  0  0  0  0  0  0  0
    3.1244   -1.0881   -0.4749 C   0  0  0  0  0  0  0  0  0  0  0  0
    2.8076   -1.6407   -1.7362 C   0  0  0  0  0  0  0  0  0  0  0  0
    3.5575   -2.6768   -2.2801 C   0  0  0  0  0  0  0  0  0  0  0  0
    4.6220   -3.1881   -1.5582 C   0  0  0  0  0  0  0  0  0  0  0  0
    4.9383   -2.6552   -0.3029 C   0  0  0  0  0  0  0  0  0  0  0  0
    4.2396   -1.5618    0.2555 C   0  0  0  0  0  0  0  0  0  0  0  0
    4.5795   -1.0515    1.5371 N   0  0  0  0  0  0  0  0  0  0  0  0
    5.9794   -1.2161    1.9483 C   0  0  0  0  0  0  0  0  0  0  0  0
    6.2161   -0.6259    3.3137 C   0  0  0  0  0  0  0  0  0  0  0  0
    5.7045   -1.2496    4.4565 C   0  0  0  0  0  0  0  0  0  0  0  0
    6.0134   -0.7182    5.6984 C   0  0  0  0  0  0  0  0  0  0  0  0
    6.7815    0.3774    5.8748 N   0  0  0  0  0  0  0  0  0  0  0  0
    7.2601    0.9698    4.7608 C   0  0  0  0  0  0  0  0  0  0  0  0
    7.0088    0.5138    3.4762 C   0  0  0  0  0  0  0  0  0  0  0  0
    2.3709   -0.5424    1.8957 H   0  0  0  0  0  0  0  0  0  0  0  0
    0.4720    2.1631    0.0777 H   0  0  0  0  0  0  0  0  0  0  0  0
   -1.0285    3.6990    1.2006 H   0  0  0  0  0  0  0  0  0  0  0  0
   -1.3373    3.6071    3.6499 H   0  0  0  0  0  0  0  0  0  0  0  0
    1.4782    0.3465    3.8652 H   0  0  0  0  0  0  0  0  0  0  0  0
    1.9644   -1.2502   -2.3057 H   0  0  0  0  0  0  0  0  0  0  0  0
    3.3062   -3.0814   -3.2569 H   0  0  0  0  0  0  0  0  0  0  0  0
    5.2138   -4.0045   -1.9654 H   0  0  0  0  0  0  0  0  0  0  0  0
    5.7704   -3.1235    0.2133 H   0  0  0  0  0  0  0  0  0  0  0  0
    4.3206   -0.0646    1.6036 H   0  0  0  0  0  0  0  0  0  0  0  0
    6.6383   -0.7344    1.2146 H   0  0  0  0  0  0  0  0  0  0  0  0
    6.2660   -2.2718    2.0147 H   0  0  0  0  0  0  0  0  0  0  0  0
    5.0955   -2.1451    4.3826 H   0  0  0  0  0  0  0  0  0  0  0  0
    5.6489   -1.1792    6.6121 H   0  0  0  0  0  0  0  0  0  0  0  0
    7.8807    1.8448    4.9327 H   0  0  0  0  0  0  0  0  0  0  0  0
    7.4444    1.0298    2.6268 H   0  0  0  0  0  0  0  0  0  0  0  0
  1  2  2  0  0  0  0
  2  3  1  0  0  0  0
  2 14  1  0  0  0  0
  3  4  1  0  0  0  0
  3 28  1  0  0  0  0
  4  5  1  0  0  0  0
  4 13  2  0  0  0  0
  5  6  2  0  0  0  0
  5 29  1  0  0  0  0
  6  7  1  0  0  0  0
  6 30  1  0  0  0  0
  7  8  2  0  0  0  0
  7 31  1  0  0  0  0
  8  9  1  0  0  0  0
  8 13  1  0  0  0  0
  9 10  1  0  0  0  0
  9 11  1  0  0  0  0
  9 12  1  0  0  0  0
 13 32  1  0  0  0  0
 14 15  1  0  0  0  0
 14 19  2  0  0  0  0
 15 16  2  0  0  0  0
 15 33  1  0  0  0  0
 16 17  1  0  0  0  0
 16 34  1  0  0  0  0
 17 18  2  0  0  0  0
 17 35  1  0  0  0  0
 18 19  1  0  0  0  0
 18 36  1  0  0  0  0
 19 20  1  0  0  0  0
 20 21  1  0  0  0  0
 20 37  1  0  0  0  0
 21 22  1  0  0  0  0
 21 38  1  0  0  0  0
 21 39  1  0  0  0  0
 22 23  1  0  0  0  0
 22 27  2  0  0  0  0
 23 24  2  0  0  0  0
 23 40  1  0  0  0  0
 24 25  1  0  0  0  0
 24 41  1  0  0  0  0
 25 26  2  0  0  0  0
 26 27  1  0  0  0  0
 26 42  1  0  0  0  0
 27 43  1  0  0  0  0
M  END
$$$$
