CHEMBL3690483
 OpenBabel04072215373D

 53 56  0  0  0  0  0  0  0  0999 V2000
    2.0792   -1.3153    3.2299 C   0  0  0  0  0  0  0  0  0  0  0  0
    1.0204   -2.2917    3.1711 N   0  0  0  0  0  0  0  0  0  0  0  0
    0.4711   -2.8928    4.2710 C   0  0  0  0  0  0  0  0  0  0  0  0
   -0.4925   -3.7204    3.9431 N   0  0  0  0  0  0  0  0  0  0  0  0
   -0.5742   -3.6463    2.5813 C   0  0  0  0  0  0  0  0  0  0  0  0
    0.3597   -2.7679    2.0623 C   0  0  0  0  0  0  0  0  0  0  0  0
    0.5679   -2.3531    0.6428 C   0  0  0  0  0  0  0  0  0  0  0  0
    1.9408   -2.6648    0.0316 C   0  0  0  0  0  0  0  0  0  0  0  0
    2.4573   -4.0868    0.0868 C   0  0  0  0  0  0  0  0  0  0  0  0
    1.5327   -5.2052   -0.0645 C   0  0  0  0  0  0  0  0  0  0  0  0
    2.0019   -6.4641   -0.0332 C   0  0  0  0  0  0  0  0  0  0  0  0
    3.3654   -6.6974    0.1526 N   0  0  0  0  0  0  0  0  0  0  0  0
    4.0922   -7.8798    0.2496 C   0  0  0  0  0  0  0  0  0  0  0  0
    3.5774   -9.2551    0.2119 C   0  0  0  0  0  0  0  0  0  0  0  0
    4.3614  -10.2506   -0.3878 C   0  0  0  0  0  0  0  0  0  0  0  0
    3.9177  -11.5673   -0.4451 C   0  0  0  0  0  0  0  0  0  0  0  0
    2.6858  -11.9115    0.1039 C   0  0  0  0  0  0  0  0  0  0  0  0
    1.8951  -10.9580    0.7477 C   0  0  0  0  0  0  0  0  0  0  0  0
    0.6573  -11.2685    1.3636 N   0  0  0  0  0  0  0  0  0  0  0  0
    0.1129  -12.5227    1.4978 C   0  0  0  0  0  0  0  0  0  0  0  0
    0.6104  -13.5808    1.1470 O   0  0  0  0  0  0  0  0  0  0  0  0
   -1.1409  -12.5038    2.0660 N   0  0  0  0  0  0  0  0  0  0  0  0
   -1.7978  -13.8006    2.2973 C   0  0  0  0  0  0  0  0  0  0  0  0
   -1.3200  -14.5893    3.5263 C   0  0  0  0  0  0  0  0  0  0  0  0
   -0.4695  -13.8711    4.2951 F   0  0  0  0  0  0  0  0  0  0  0  0
   -2.3832  -14.9029    4.3098 F   0  0  0  0  0  0  0  0  0  0  0  0
   -0.7141  -15.7473    3.1932 F   0  0  0  0  0  0  0  0  0  0  0  0
    2.3524   -9.6300    0.7958 C   0  0  0  0  0  0  0  0  0  0  0  0
    5.4105   -7.4499    0.3391 C   0  0  0  0  0  0  0  0  0  0  0  0
    5.5189   -6.0886    0.3449 N   0  0  0  0  0  0  0  0  0  0  0  0
    4.2843   -5.6535    0.2531 C   0  0  0  0  0  0  0  0  0  0  0  0
    3.7809   -4.3219    0.2228 C   0  0  0  0  0  0  0  0  0  0  0  0
    2.3515   -1.1357    4.2742 H   0  0  0  0  0  0  0  0  0  0  0  0
    1.7257   -0.3851    2.7795 H   0  0  0  0  0  0  0  0  0  0  0  0
    2.9493   -1.7059    2.6996 H   0  0  0  0  0  0  0  0  0  0  0  0
    0.8030   -2.6881    5.2808 H   0  0  0  0  0  0  0  0  0  0  0  0
   -1.3144   -4.2180    2.0365 H   0  0  0  0  0  0  0  0  0  0  0  0
    0.3811   -1.2757    0.5564 H   0  0  0  0  0  0  0  0  0  0  0  0
   -0.2042   -2.8297    0.0234 H   0  0  0  0  0  0  0  0  0  0  0  0
    2.6807   -1.9963    0.4898 H   0  0  0  0  0  0  0  0  0  0  0  0
    1.9035   -2.3728   -1.0265 H   0  0  0  0  0  0  0  0  0  0  0  0
    0.4723   -5.0247   -0.1985 H   0  0  0  0  0  0  0  0  0  0  0  0
    1.3462   -7.3131   -0.1585 H   0  0  0  0  0  0  0  0  0  0  0  0
    5.3307  -10.0161   -0.8221 H   0  0  0  0  0  0  0  0  0  0  0  0
    4.5303  -12.3327   -0.9141 H   0  0  0  0  0  0  0  0  0  0  0  0
    2.3785  -12.9476    0.0121 H   0  0  0  0  0  0  0  0  0  0  0  0
    0.1333  -10.4941    1.7493 H   0  0  0  0  0  0  0  0  0  0  0  0
   -1.3335  -11.7668    2.7319 H   0  0  0  0  0  0  0  0  0  0  0  0
   -1.6588  -14.4210    1.4032 H   0  0  0  0  0  0  0  0  0  0  0  0
   -2.8687  -13.5936    2.3787 H   0  0  0  0  0  0  0  0  0  0  0  0
    1.7604   -8.8901    1.3256 H   0  0  0  0  0  0  0  0  0  0  0  0
    6.2968   -8.0686    0.4100 H   0  0  0  0  0  0  0  0  0  0  0  0
    4.5068   -3.5193    0.2866 H   0  0  0  0  0  0  0  0  0  0  0  0
  1  2  1  0  0  0  0
  1 33  1  0  0  0  0
  1 34  1  0  0  0  0
  1 35  1  0  0  0  0
  2  3  1  0  0  0  0
  2  6  1  0  0  0  0
  3  4  2  0  0  0  0
  3 36  1  0  0  0  0
  4  5  1  0  0  0  0
  5  6  2  0  0  0  0
  5 37  1  0  0  0  0
  6  7  1  0  0  0  0
  7  8  1  0  0  0  0
  7 38  1  0  0  0  0
  7 39  1  0  0  0  0
  8  9  1  0  0  0  0
  8 40  1  0  0  0  0
  8 41  1  0  0  0  0
  9 10  1  0  0  0  0
  9 32  2  0  0  0  0
 10 11  2  0  0  0  0
 10 42  1  0  0  0  0
 11 12  1  0  0  0  0
 11 43  1  0  0  0  0
 12 13  1  0  0  0  0
 12 31  1  0  0  0  0
 13 14  1  0  0  0  0
 13 29  2  0  0  0  0
 14 15  1  0  0  0  0
 14 28  2  0  0  0  0
 15 16  2  0  0  0  0
 15 44  1  0  0  0  0
 16 17  1  0  0  0  0
 16 45  1  0  0  0  0
 17 18  2  0  0  0  0
 17 46  1  0  0  0  0
 18 19  1  0  0  0  0
 18 28  1  0  0  0  0
 19 20  1  0  0  0  0
 19 47  1  0  0  0  0
 20 21  2  0  0  0  0
 20 22  1  0  0  0  0
 22 23  1  0  0  0  0
 22 48  1  0  0  0  0
 23 24  1  0  0  0  0
 23 49  1  0  0  0  0
 23 50  1  0  0  0  0
 24 25  1  0  0  0  0
 24 26  1  0  0  0  0
 24 27  1  0  0  0  0
 28 51  1  0  0  0  0
 29 30  1  0  0  0  0
 29 52  1  0  0  0  0
 30 31  2  0  0  0  0
 31 32  1  0  0  0  0
 32 53  1  0  0  0  0
M  END
$$$$
