CHEMBL610181
 OpenBabel04072215383D

 38 40  0  0  0  0  0  0  0  0999 V2000
    2.3225   -1.5231    0.0893 C   0  0  0  0  0  0  0  0  0  0  0  0
    3.3201   -0.5138   -0.0377 O   0  0  0  0  0  0  0  0  0  0  0  0
    3.4400    0.3848    0.9985 C   0  0  0  0  0  0  0  0  0  0  0  0
    2.9921    0.0911    2.2988 C   0  0  0  0  0  0  0  0  0  0  0  0
    3.2466    0.9600    3.3582 C   0  0  0  0  0  0  0  0  0  0  0  0
    3.9559    2.1282    3.1315 C   0  0  0  0  0  0  0  0  0  0  0  0
    4.3672    2.4530    1.8358 C   0  0  0  0  0  0  0  0  0  0  0  0
    4.1123    1.6073    0.7350 C   0  0  0  0  0  0  0  0  0  0  0  0
    4.5606    2.0372   -0.6324 C   0  0  0  0  0  0  0  0  0  0  0  0
    5.8177    2.8779   -0.7574 C   0  0  0  0  0  0  0  0  0  0  0  0
    3.8281    1.7502   -1.7404 C   0  0  0  0  0  0  0  0  0  0  0  0
    4.2421    2.0694   -3.0673 C   0  0  0  0  0  0  0  0  0  0  0  0
    3.9652    3.2423   -3.7295 C   0  0  0  0  0  0  0  0  0  0  0  0
    4.6526    3.2919   -4.9024 O   0  0  0  0  0  0  0  0  0  0  0  0
    5.3656    2.1331   -5.0024 C   0  0  0  0  0  0  0  0  0  0  0  0
    6.2148    1.8835   -6.0062 N   0  0  0  0  0  0  0  0  0  0  0  0
    6.8300    0.7101   -5.8623 C   0  0  0  0  0  0  0  0  0  0  0  0
    7.8073    0.3959   -6.7835 N   0  0  0  0  0  0  0  0  0  0  0  0
    6.5899   -0.2107   -4.9138 N   0  0  0  0  0  0  0  0  0  0  0  0
    5.7011    0.0601   -3.9351 C   0  0  0  0  0  0  0  0  0  0  0  0
    5.4530   -0.9345   -3.0033 N   0  0  0  0  0  0  0  0  0  0  0  0
    5.0860    1.3114   -3.9194 C   0  0  0  0  0  0  0  0  0  0  0  0
    2.3256   -2.1122   -0.8326 H   0  0  0  0  0  0  0  0  0  0  0  0
    1.3289   -1.0763    0.2009 H   0  0  0  0  0  0  0  0  0  0  0  0
    2.5427   -2.2126    0.9101 H   0  0  0  0  0  0  0  0  0  0  0  0
    2.4588   -0.8245    2.5304 H   0  0  0  0  0  0  0  0  0  0  0  0
    2.9036    0.7145    4.3601 H   0  0  0  0  0  0  0  0  0  0  0  0
    4.1844    2.7970    3.9576 H   0  0  0  0  0  0  0  0  0  0  0  0
    4.8855    3.4000    1.7113 H   0  0  0  0  0  0  0  0  0  0  0  0
    6.2781    3.1520    0.1936 H   0  0  0  0  0  0  0  0  0  0  0  0
    5.5949    3.8206   -1.2738 H   0  0  0  0  0  0  0  0  0  0  0  0
    6.5852    2.3416   -1.3246 H   0  0  0  0  0  0  0  0  0  0  0  0
    2.8972    1.2037   -1.6597 H   0  0  0  0  0  0  0  0  0  0  0  0
    3.3848    4.1246   -3.4923 H   0  0  0  0  0  0  0  0  0  0  0  0
    7.6540    0.8942   -7.6495 H   0  0  0  0  0  0  0  0  0  0  0  0
    7.9385   -0.6036   -6.8285 H   0  0  0  0  0  0  0  0  0  0  0  0
    6.1864   -1.6303   -2.9749 H   0  0  0  0  0  0  0  0  0  0  0  0
    5.0591   -0.6376   -2.1167 H   0  0  0  0  0  0  0  0  0  0  0  0
  1  2  1  0  0  0  0
  1 23  1  0  0  0  0
  1 24  1  0  0  0  0
  1 25  1  0  0  0  0
  2  3  1  0  0  0  0
  3  4  1  0  0  0  0
  3  8  2  0  0  0  0
  4  5  2  0  0  0  0
  4 26  1  0  0  0  0
  5  6  1  0  0  0  0
  5 27  1  0  0  0  0
  6  7  2  0  0  0  0
  6 28  1  0  0  0  0
  7  8  1  0  0  0  0
  7 29  1  0  0  0  0
  8  9  1  0  0  0  0
  9 10  1  0  0  0  0
  9 11  2  0  0  0  0
 10 30  1  0  0  0  0
 10 31  1  0  0  0  0
 10 32  1  0  0  0  0
 11 12  1  0  0  0  0
 11 33  1  0  0  0  0
 12 13  2  0  0  0  0
 12 22  1  0  0  0  0
 13 14  1  0  0  0  0
 13 34  1  0  0  0  0
 14 15  1  0  0  0  0
 15 16  1  0  0  0  0
 15 22  2  0  0  0  0
 16 17  2  0  0  0  0
 17 18  1  0  0  0  0
 17 19  1  0  0  0  0
 18 35  1  0  0  0  0
 18 36  1  0  0  0  0
 19 20  2  0  0  0  0
 20 21  1  0  0  0  0
 20 22  1  0  0  0  0
 21 37  1  0  0  0  0
 21 38  1  0  0  0  0
M  END
$$$$
