CHEMBL2332119
 OpenBabel04072215363D

 31 32  0  0  0  0  0  0  0  0999 V2000
    2.8382    1.1815    0.4285 N   0  0  0  0  0  0  0  0  0  0  0  0
    2.3937   -0.0178   -0.0326 C   0  0  0  0  0  0  0  0  0  0  0  0
    1.4689   -0.0492   -0.8416 O   0  0  0  0  0  0  0  0  0  0  0  0
    3.0936   -1.2416    0.4740 C   0  0  0  0  0  0  0  0  0  0  0  0
    2.6174   -2.4520    0.1080 C   0  0  0  0  0  0  0  0  0  0  0  0
    1.5029   -2.7169   -0.6785 N   0  0  0  0  0  0  0  0  0  0  0  0
    3.3428   -3.6855    0.5615 C   0  0  0  0  0  0  0  0  0  0  0  0
    3.1182   -4.7809    0.0574 O   0  0  0  0  0  0  0  0  0  0  0  0
    4.3368   -3.5557    1.6262 C   0  0  0  0  0  0  0  0  0  0  0  0
    4.8285   -2.3722    1.9989 C   0  0  0  0  0  0  0  0  0  0  0  0
    5.8151   -2.2026    2.9586 N   0  0  0  0  0  0  0  0  0  0  0  0
    7.1384   -2.7124    2.8639 C   0  0  0  0  0  0  0  0  0  0  0  0
    7.5845   -3.4750    1.7751 C   0  0  0  0  0  0  0  0  0  0  0  0
    8.8872   -3.9767    1.7361 C   0  0  0  0  0  0  0  0  0  0  0  0
    9.7584   -3.7422    2.7964 C   0  0  0  0  0  0  0  0  0  0  0  0
    9.3320   -3.0010    3.8999 C   0  0  0  0  0  0  0  0  0  0  0  0
    8.0324   -2.4873    3.9256 C   0  0  0  0  0  0  0  0  0  0  0  0
    7.6101   -1.7436    4.9952 O   0  0  0  0  0  0  0  0  0  0  0  0
    4.2883   -1.1293    1.3562 C   0  0  0  0  0  0  0  0  0  0  0  0
    4.8372   -0.0486    1.5833 O   0  0  0  0  0  0  0  0  0  0  0  0
    2.4140    2.0262    0.0703 H   0  0  0  0  0  0  0  0  0  0  0  0
    3.6860    1.2626    0.9884 H   0  0  0  0  0  0  0  0  0  0  0  0
    1.1923   -1.9231   -1.2470 H   0  0  0  0  0  0  0  0  0  0  0  0
    1.5707   -3.6066   -1.1789 H   0  0  0  0  0  0  0  0  0  0  0  0
    4.6880   -4.4828    2.0671 H   0  0  0  0  0  0  0  0  0  0  0  0
    5.8696   -1.2445    3.3221 H   0  0  0  0  0  0  0  0  0  0  0  0
    6.9455   -3.6708    0.9214 H   0  0  0  0  0  0  0  0  0  0  0  0
    9.2176   -4.5475    0.8721 H   0  0  0  0  0  0  0  0  0  0  0  0
   10.7714   -4.1351    2.7594 H   0  0  0  0  0  0  0  0  0  0  0  0
   10.0236   -2.8302    4.7182 H   0  0  0  0  0  0  0  0  0  0  0  0
    8.3064   -1.7495    5.6720 H   0  0  0  0  0  0  0  0  0  0  0  0
  1  2  1  0  0  0  0
  1 21  1  0  0  0  0
  1 22  1  0  0  0  0
  2  3  2  0  0  0  0
  2  4  1  0  0  0  0
  4  5  2  0  0  0  0
  4 19  1  0  0  0  0
  5  6  1  0  0  0  0
  5  7  1  0  0  0  0
  6 23  1  0  0  0  0
  6 24  1  0  0  0  0
  7  8  2  0  0  0  0
  7  9  1  0  0  0  0
  9 10  2  0  0  0  0
  9 25  1  0  0  0  0
 10 11  1  0  0  0  0
 10 19  1  0  0  0  0
 11 12  1  0  0  0  0
 11 26  1  0  0  0  0
 12 13  1  0  0  0  0
 12 17  2  0  0  0  0
 13 14  2  0  0  0  0
 13 27  1  0  0  0  0
 14 15  1  0  0  0  0
 14 28  1  0  0  0  0
 15 16  2  0  0  0  0
 15 29  1  0  0  0  0
 16 17  1  0  0  0  0
 16 30  1  0  0  0  0
 17 18  1  0  0  0  0
 18 31  1  0  0  0  0
 19 20  2  0  0  0  0
M  END
$$$$
