CHEMBL3974626
 OpenBabel04072215373D

 41 44  0  0  0  0  0  0  0  0999 V2000
    1.4000    1.6524   -0.1904 C   0  0  0  0  0  0  0  0  0  0  0  0
    2.4497    0.6992   -0.0365 O   0  0  0  0  0  0  0  0  0  0  0  0
    3.2189    0.5095   -1.1493 C   0  0  0  0  0  0  0  0  0  0  0  0
    3.4029    1.4438   -2.1576 C   0  0  0  0  0  0  0  0  0  0  0  0
    4.1088    1.0974   -3.3175 C   0  0  0  0  0  0  0  0  0  0  0  0
    4.6982   -0.1672   -3.4771 C   0  0  0  0  0  0  0  0  0  0  0  0
    5.3452   -0.5597   -4.7027 N   0  0  0  0  0  0  0  0  0  0  0  0
    5.9725    0.4122   -5.4873 C   0  0  0  0  0  0  0  0  0  0  0  0
    5.9816    1.6307   -5.3130 O   0  0  0  0  0  0  0  0  0  0  0  0
    6.7292   -0.1609   -6.6487 C   0  0  0  0  0  0  0  0  0  0  0  0
    6.6671   -1.9326   -6.4750 S   0  0  0  0  0  0  0  0  0  0  0  0
    5.4994   -1.8634   -5.1545 C   0  0  0  0  0  0  0  0  0  0  0  0
    4.9523   -3.0108   -4.8853 N   0  0  0  0  0  0  0  0  0  0  0  0
    3.8268   -3.1376   -4.1379 N   0  0  0  0  0  0  0  0  0  0  0  0
    3.8443   -4.0688   -3.0425 C   0  0  0  0  0  0  0  0  0  0  0  0
    4.9716   -4.7587   -2.7398 N   0  0  0  0  0  0  0  0  0  0  0  0
    5.0279   -5.5815   -1.6437 N   0  0  0  0  0  0  0  0  0  0  0  0
    3.9333   -5.7349   -0.8821 C   0  0  0  0  0  0  0  0  0  0  0  0
    2.7316   -5.0873   -1.1452 C   0  0  0  0  0  0  0  0  0  0  0  0
    1.5983   -5.2819   -0.3313 C   0  0  0  0  0  0  0  0  0  0  0  0
    0.4184   -4.5905   -0.5834 C   0  0  0  0  0  0  0  0  0  0  0  0
    0.3561   -3.6985   -1.6510 C   0  0  0  0  0  0  0  0  0  0  0  0
    1.4642   -3.5240   -2.4789 C   0  0  0  0  0  0  0  0  0  0  0  0
    2.6745   -4.2170   -2.2505 C   0  0  0  0  0  0  0  0  0  0  0  0
    4.6547   -1.0145   -2.3653 C   0  0  0  0  0  0  0  0  0  0  0  0
    3.8775   -0.7104   -1.2392 C   0  0  0  0  0  0  0  0  0  0  0  0
    0.7168    1.5410    0.6544 H   0  0  0  0  0  0  0  0  0  0  0  0
    0.8247    1.4774   -1.1080 H   0  0  0  0  0  0  0  0  0  0  0  0
    1.7977    2.6715   -0.1654 H   0  0  0  0  0  0  0  0  0  0  0  0
    3.0049    2.4514   -2.0811 H   0  0  0  0  0  0  0  0  0  0  0  0
    4.1552    1.8600   -4.0909 H   0  0  0  0  0  0  0  0  0  0  0  0
    7.7666    0.1797   -6.6014 H   0  0  0  0  0  0  0  0  0  0  0  0
    6.2685    0.1737   -7.5833 H   0  0  0  0  0  0  0  0  0  0  0  0
    3.3193   -2.2998   -3.8870 H   0  0  0  0  0  0  0  0  0  0  0  0
    4.0612   -6.3934   -0.0260 H   0  0  0  0  0  0  0  0  0  0  0  0
    1.6303   -5.9742    0.5070 H   0  0  0  0  0  0  0  0  0  0  0  0
   -0.4526   -4.7415    0.0468 H   0  0  0  0  0  0  0  0  0  0  0  0
   -0.5583   -3.1401   -1.8430 H   0  0  0  0  0  0  0  0  0  0  0  0
    1.3637   -2.8311   -3.3092 H   0  0  0  0  0  0  0  0  0  0  0  0
    5.2211   -1.9433   -2.3518 H   0  0  0  0  0  0  0  0  0  0  0  0
    3.7808   -1.4399   -0.4373 H   0  0  0  0  0  0  0  0  0  0  0  0
  1  2  1  0  0  0  0
  1 27  1  0  0  0  0
  1 28  1  0  0  0  0
  1 29  1  0  0  0  0
  2  3  1  0  0  0  0
  3  4  1  0  0  0  0
  3 26  2  0  0  0  0
  4  5  2  0  0  0  0
  4 30  1  0  0  0  0
  5  6  1  0  0  0  0
  5 31  1  0  0  0  0
  6  7  1  0  0  0  0
  6 25  2  0  0  0  0
  7  8  1  0  0  0  0
  7 12  1  0  0  0  0
  8  9  2  0  0  0  0
  8 10  1  0  0  0  0
 10 11  1  0  0  0  0
 10 32  1  0  0  0  0
 10 33  1  0  0  0  0
 11 12  1  0  0  0  0
 12 13  2  0  0  0  0
 13 14  1  0  0  0  0
 14 15  1  0  0  0  0
 14 34  1  0  0  0  0
 15 16  1  0  0  0  0
 15 24  2  0  0  0  0
 16 17  2  0  0  0  0
 17 18  1  0  0  0  0
 18 19  2  0  0  0  0
 18 35  1  0  0  0  0
 19 20  1  0  0  0  0
 19 24  1  0  0  0  0
 20 21  2  0  0  0  0
 20 36  1  0  0  0  0
 21 22  1  0  0  0  0
 21 37  1  0  0  0  0
 22 23  2  0  0  0  0
 22 38  1  0  0  0  0
 23 24  1  0  0  0  0
 23 39  1  0  0  0  0
 25 26  1  0  0  0  0
 25 40  1  0  0  0  0
 26 41  1  0  0  0  0
M  END
$$$$
