CHEMBL1290246
 OpenBabel04072215363D

 49 52  0  0  0  0  0  0  0  0999 V2000
    1.3117   -2.7306   -3.6840 C   0  0  0  0  0  0  0  0  0  0  0  0
    2.1957   -3.3507   -2.7471 O   0  0  0  0  0  0  0  0  0  0  0  0
    3.0427   -2.4962   -2.1020 C   0  0  0  0  0  0  0  0  0  0  0  0
    2.7247   -1.1789   -1.7705 C   0  0  0  0  0  0  0  0  0  0  0  0
    3.6519   -0.3700   -1.1269 C   0  0  0  0  0  0  0  0  0  0  0  0
    4.8959   -0.8861   -0.7358 C   0  0  0  0  0  0  0  0  0  0  0  0
    5.9133   -0.1427   -0.1915 O   0  0  0  0  0  0  0  0  0  0  0  0
    5.5962    1.1869    0.2036 C   0  0  0  0  0  0  0  0  0  0  0  0
    5.1831   -2.2422   -0.9803 C   0  0  0  0  0  0  0  0  0  0  0  0
    6.3633   -2.8133   -0.4223 N   0  0  0  0  0  0  0  0  0  0  0  0
    7.2722   -3.5232   -1.1811 C   0  0  0  0  0  0  0  0  0  0  0  0
    7.1635   -3.7297   -2.3919 O   0  0  0  0  0  0  0  0  0  0  0  0
    8.5102   -3.9935   -0.4835 C   0  0  0  0  0  0  0  0  0  0  0  0
    8.5197   -4.3977    0.8569 C   0  0  0  0  0  0  0  0  0  0  0  0
    9.7022   -4.8886    1.4425 C   0  0  0  0  0  0  0  0  0  0  0  0
   10.8954   -4.9932    0.6963 C   0  0  0  0  0  0  0  0  0  0  0  0
   12.1892   -5.4936    1.3213 C   0  0  0  0  0  0  0  0  0  0  0  0
   12.0622   -7.1885    1.9730 S   0  0  0  0  0  0  0  0  0  0  0  0
   13.7398   -7.5102    2.4471 C   0  0  0  0  0  0  0  0  0  0  0  0
   14.7717   -6.8273    1.8830 N   0  0  0  0  0  0  0  0  0  0  0  0
   16.0309   -7.2221    2.1803 C   0  0  0  0  0  0  0  0  0  0  0  0
   16.4230   -8.2269    2.9881 N   0  0  0  0  0  0  0  0  0  0  0  0
   15.3644   -8.8511    3.5217 C   0  0  0  0  0  0  0  0  0  0  0  0
   15.3902   -9.9364    4.3449 N   0  0  0  0  0  0  0  0  0  0  0  0
   14.0963  -10.2615    4.6439 C   0  0  0  0  0  0  0  0  0  0  0  0
   13.2430   -9.4512    4.0535 N   0  0  0  0  0  0  0  0  0  0  0  0
   14.0191   -8.5679    3.3244 C   0  0  0  0  0  0  0  0  0  0  0  0
   10.8728   -4.5861   -0.6426 C   0  0  0  0  0  0  0  0  0  0  0  0
    9.6897   -4.1001   -1.2260 C   0  0  0  0  0  0  0  0  0  0  0  0
    4.2708   -3.0347   -1.6837 C   0  0  0  0  0  0  0  0  0  0  0  0
    0.7500   -3.5194   -4.1947 H   0  0  0  0  0  0  0  0  0  0  0  0
    1.8735   -2.1715   -4.4395 H   0  0  0  0  0  0  0  0  0  0  0  0
    0.5803   -2.0899   -3.1861 H   0  0  0  0  0  0  0  0  0  0  0  0
    1.7487   -0.7586   -2.0024 H   0  0  0  0  0  0  0  0  0  0  0  0
    3.3773    0.6665   -0.9376 H   0  0  0  0  0  0  0  0  0  0  0  0
    6.4809    1.6039    0.6916 H   0  0  0  0  0  0  0  0  0  0  0  0
    4.7816    1.1770    0.9341 H   0  0  0  0  0  0  0  0  0  0  0  0
    5.3538    1.8317   -0.6503 H   0  0  0  0  0  0  0  0  0  0  0  0
    6.7260   -2.3308    0.3921 H   0  0  0  0  0  0  0  0  0  0  0  0
    7.6099   -4.3798    1.4487 H   0  0  0  0  0  0  0  0  0  0  0  0
    9.6818   -5.2150    2.4790 H   0  0  0  0  0  0  0  0  0  0  0  0
   12.4739   -4.8117    2.1308 H   0  0  0  0  0  0  0  0  0  0  0  0
   12.9844   -5.4589    0.5674 H   0  0  0  0  0  0  0  0  0  0  0  0
   16.8302   -6.6687    1.6948 H   0  0  0  0  0  0  0  0  0  0  0  0
   16.2235  -10.4249    4.6453 H   0  0  0  0  0  0  0  0  0  0  0  0
   13.8390  -11.0975    5.2811 H   0  0  0  0  0  0  0  0  0  0  0  0
   11.7729   -4.6559   -1.2567 H   0  0  0  0  0  0  0  0  0  0  0  0
    9.7021   -3.8016   -2.2769 H   0  0  0  0  0  0  0  0  0  0  0  0
    4.4891   -4.0804   -1.8847 H   0  0  0  0  0  0  0  0  0  0  0  0
  1  2  1  0  0  0  0
  1 31  1  0  0  0  0
  1 32  1  0  0  0  0
  1 33  1  0  0  0  0
  2  3  1  0  0  0  0
  3  4  1  0  0  0  0
  3 30  2  0  0  0  0
  4  5  2  0  0  0  0
  4 34  1  0  0  0  0
  5  6  1  0  0  0  0
  5 35  1  0  0  0  0
  6  7  1  0  0  0  0
  6  9  2  0  0  0  0
  7  8  1  0  0  0  0
  8 36  1  0  0  0  0
  8 37  1  0  0  0  0
  8 38  1  0  0  0  0
  9 10  1  0  0  0  0
  9 30  1  0  0  0  0
 10 11  1  0  0  0  0
 10 39  1  0  0  0  0
 11 12  2  0  0  0  0
 11 13  1  0  0  0  0
 13 14  1  0  0  0  0
 13 29  2  0  0  0  0
 14 15  2  0  0  0  0
 14 40  1  0  0  0  0
 15 16  1  0  0  0  0
 15 41  1  0  0  0  0
 16 17  1  0  0  0  0
 16 28  2  0  0  0  0
 17 18  1  0  0  0  0
 17 42  1  0  0  0  0
 17 43  1  0  0  0  0
 18 19  1  0  0  0  0
 19 20  1  0  0  0  0
 19 27  2  0  0  0  0
 20 21  2  0  0  0  0
 21 22  1  0  0  0  0
 21 44  1  0  0  0  0
 22 23  2  0  0  0  0
 23 24  1  0  0  0  0
 23 27  1  0  0  0  0
 24 25  1  0  0  0  0
 24 45  1  0  0  0  0
 25 26  2  0  0  0  0
 25 46  1  0  0  0  0
 26 27  1  0  0  0  0
 28 29  1  0  0  0  0
 28 47  1  0  0  0  0
 29 48  1  0  0  0  0
 30 49  1  0  0  0  0
M  END
$$$$
