CHEMBL190210
 OpenBabel04072215363D

 87 90  0  0  1  0  0  0  0  0999 V2000
    0.8121   -0.0484   -0.2141 C   0  0  0  0  0  0  0  0  0  0  0  0
    2.2240    0.0430   -0.0667 O   0  0  0  0  0  0  0  0  0  0  0  0
    2.9345   -1.0479   -0.4881 C   0  0  0  0  0  0  0  0  0  0  0  0
    2.5475   -1.9124   -1.5118 C   0  0  0  0  0  0  0  0  0  0  0  0
    3.3735   -2.9798   -1.8720 C   0  0  0  0  0  0  0  0  0  0  0  0
    3.0970   -3.8678   -2.8776 O   0  0  0  0  0  0  0  0  0  0  0  0
    2.4162   -3.3046   -3.9964 C   0  0  0  0  0  0  0  0  0  0  0  0
    4.5661   -3.2067   -1.1825 C   0  0  0  0  0  0  0  0  0  0  0  0
    4.9931   -2.3164   -0.1878 C   0  0  0  0  0  0  0  0  0  0  0  0
    6.3563   -2.4615    0.4849 C   0  0  3  0  0  0  0  0  0  0  0  0
    7.4744   -2.3698   -0.5571 C   0  0  0  0  0  0  0  0  0  0  0  0
    8.2325   -3.6328   -0.7724 C   0  0  0  0  0  0  0  0  0  0  0  0
    9.2132   -3.6809   -1.7579 C   0  0  0  0  0  0  0  0  0  0  0  0
   10.0159   -4.7377   -1.9838 N   0  0  0  0  0  0  0  0  0  0  0  0
    9.8425   -5.8277   -1.2101 C   0  0  0  0  0  0  0  0  0  0  0  0
   10.7496   -6.9019   -1.3802 N   0  0  0  0  0  0  0  0  0  0  0  0
   12.1869   -6.6509   -1.5286 C   0  0  0  0  0  0  0  0  0  0  0  0
   12.8231   -5.2902   -1.2123 C   0  0  0  0  0  0  0  0  0  0  0  0
   12.6476   -4.7630    0.2094 C   0  0  0  0  0  0  0  0  0  0  0  0
   13.1796   -5.7144    1.2696 C   0  0  0  0  0  0  0  0  0  0  0  0
   13.0215   -5.0982    2.5431 O   0  0  0  0  0  0  0  0  0  0  0  0
   13.4845   -5.9494    3.5869 C   0  0  0  0  0  0  0  0  0  0  0  0
   13.2479   -5.2760    4.9103 C   0  0  0  0  0  0  0  0  0  0  0  0
   11.9547   -4.8874    5.2861 C   0  0  0  0  0  0  0  0  0  0  0  0
   11.7242   -4.2885    6.5222 C   0  0  0  0  0  0  0  0  0  0  0  0
   12.7874   -4.0695    7.3999 C   0  0  0  0  0  0  0  0  0  0  0  0
   14.0783   -4.4464    7.0359 C   0  0  0  0  0  0  0  0  0  0  0  0
   14.3105   -5.0477    5.7987 C   0  0  0  0  0  0  0  0  0  0  0  0
   10.3597   -8.1976   -1.7257 C   0  0  0  0  0  0  0  0  0  0  0  0
    8.9057   -8.5381   -1.9546 C   0  0  0  0  0  0  0  0  0  0  0  0
   11.1933   -9.0944   -1.9110 O   0  0  0  0  0  0  0  0  0  0  0  0
    8.8703   -5.8647   -0.2027 C   0  0  0  0  0  0  0  0  0  0  0  0
    8.0518   -4.7499    0.0313 C   0  0  0  0  0  0  0  0  0  0  0  0
    7.1407   -4.7676    1.1118 N   0  0  0  0  0  0  0  0  0  0  0  0
    6.4131   -3.7141    1.3685 C   0  0  0  0  0  0  0  0  0  0  0  0
    5.6131   -3.7693    2.5027 N   0  0  0  0  0  0  0  0  0  0  0  0
    5.1883   -2.6838    3.2433 C   0  0  0  0  0  0  0  0  0  0  0  0
    5.5967   -1.5399    3.0639 O   0  0  0  0  0  0  0  0  0  0  0  0
    4.3207   -2.9895    4.2710 N   0  0  0  0  0  0  0  0  0  0  0  0
    3.7754   -1.9429    5.1766 C   0  0  0  0  0  0  0  0  0  0  0  0
    2.9198   -0.9104    4.4144 C   0  0  0  0  0  0  0  0  0  0  0  0
    2.8735   -2.6017    6.2382 C   0  0  0  0  0  0  0  0  0  0  0  0
    4.9126   -1.2203    5.9280 C   0  0  0  0  0  0  0  0  0  0  0  0
    4.1621   -1.2363    0.1474 C   0  0  0  0  0  0  0  0  0  0  0  0
    0.3682    0.8135    0.2932 H   0  0  0  0  0  0  0  0  0  0  0  0
    0.4244   -0.9556    0.2619 H   0  0  0  0  0  0  0  0  0  0  0  0
    0.5172    0.0020   -1.2665 H   0  0  0  0  0  0  0  0  0  0  0  0
    1.6146   -1.7528   -2.0354 H   0  0  0  0  0  0  0  0  0  0  0  0
    2.4798   -4.0193   -4.8223 H   0  0  0  0  0  0  0  0  0  0  0  0
    2.8857   -2.3704   -4.3261 H   0  0  0  0  0  0  0  0  0  0  0  0
    1.3567   -3.1510   -3.7703 H   0  0  0  0  0  0  0  0  0  0  0  0
    5.1830   -4.0574   -1.4650 H   0  0  0  0  0  0  0  0  0  0  0  0
    6.5141   -1.5824    1.1120 H   0  0  0  0  0  0  0  0  0  0  0  0
    8.1935   -1.6100   -0.2206 H   0  0  0  0  0  0  0  0  0  0  0  0
    7.0921   -2.0110   -1.5222 H   0  0  0  0  0  0  0  0  0  0  0  0
    9.4027   -2.8230   -2.3998 H   0  0  0  0  0  0  0  0  0  0  0  0
   12.4584   -6.9150   -2.5602 H   0  0  0  0  0  0  0  0  0  0  0  0
   12.6899   -7.4010   -0.9025 H   0  0  0  0  0  0  0  0  0  0  0  0
   12.4904   -4.5346   -1.9302 H   0  0  0  0  0  0  0  0  0  0  0  0
   13.9031   -5.3959   -1.3915 H   0  0  0  0  0  0  0  0  0  0  0  0
   11.6010   -4.5251    0.4225 H   0  0  0  0  0  0  0  0  0  0  0  0
   13.1764   -3.8047    0.2960 H   0  0  0  0  0  0  0  0  0  0  0  0
   14.2419   -5.9206    1.0942 H   0  0  0  0  0  0  0  0  0  0  0  0
   12.6217   -6.6564    1.2590 H   0  0  0  0  0  0  0  0  0  0  0  0
   14.5525   -6.1556    3.4384 H   0  0  0  0  0  0  0  0  0  0  0  0
   12.9411   -6.9026    3.5686 H   0  0  0  0  0  0  0  0  0  0  0  0
   11.1249   -5.0475    4.6013 H   0  0  0  0  0  0  0  0  0  0  0  0
   10.7175   -3.9862    6.8003 H   0  0  0  0  0  0  0  0  0  0  0  0
   12.6089   -3.5974    8.3620 H   0  0  0  0  0  0  0  0  0  0  0  0
   14.9087   -4.2688    7.7146 H   0  0  0  0  0  0  0  0  0  0  0  0
   15.3239   -5.3305    5.5255 H   0  0  0  0  0  0  0  0  0  0  0  0
    8.2072   -7.7256   -1.8090 H   0  0  0  0  0  0  0  0  0  0  0  0
    8.6432   -9.3622   -1.2828 H   0  0  0  0  0  0  0  0  0  0  0  0
    8.7988   -8.8828   -2.9909 H   0  0  0  0  0  0  0  0  0  0  0  0
    8.7861   -6.7293    0.4492 H   0  0  0  0  0  0  0  0  0  0  0  0
    5.6459   -4.6507    2.9887 H   0  0  0  0  0  0  0  0  0  0  0  0
    3.8006   -3.8507    4.1880 H   0  0  0  0  0  0  0  0  0  0  0  0
    2.0276   -1.3761    3.9805 H   0  0  0  0  0  0  0  0  0  0  0  0
    3.4657   -0.4305    3.5970 H   0  0  0  0  0  0  0  0  0  0  0  0
    2.5816   -0.1105    5.0852 H   0  0  0  0  0  0  0  0  0  0  0  0
    2.0333   -3.1322    5.7751 H   0  0  0  0  0  0  0  0  0  0  0  0
    2.4546   -1.8506    6.9197 H   0  0  0  0  0  0  0  0  0  0  0  0
    3.4306   -3.3258    6.8417 H   0  0  0  0  0  0  0  0  0  0  0  0
    5.5869   -0.6826    5.2561 H   0  0  0  0  0  0  0  0  0  0  0  0
    5.5195   -1.9347    6.4954 H   0  0  0  0  0  0  0  0  0  0  0  0
    4.5153   -0.4802    6.6322 H   0  0  0  0  0  0  0  0  0  0  0  0
    4.4656   -0.5285    0.9182 H   0  0  0  0  0  0  0  0  0  0  0  0
  1  2  1  0  0  0  0
  1 45  1  0  0  0  0
  1 46  1  0  0  0  0
  1 47  1  0  0  0  0
  2  3  1  0  0  0  0
  3  4  1  0  0  0  0
  3 44  2  0  0  0  0
  4  5  2  0  0  0  0
  4 48  1  0  0  0  0
  5  6  1  0  0  0  0
  5  8  1  0  0  0  0
  6  7  1  0  0  0  0
  7 49  1  0  0  0  0
  7 50  1  0  0  0  0
  7 51  1  0  0  0  0
  8  9  2  0  0  0  0
  8 52  1  0  0  0  0
  9 10  1  0  0  0  0
  9 44  1  0  0  0  0
 10 11  1  0  0  0  0
 10 35  1  0  0  0  0
 10 53  1  0  0  0  0
 11 12  1  0  0  0  0
 11 54  1  0  0  0  0
 11 55  1  0  0  0  0
 12 13  1  0  0  0  0
 12 33  2  0  0  0  0
 13 14  2  0  0  0  0
 13 56  1  0  0  0  0
 14 15  1  0  0  0  0
 15 16  1  0  0  0  0
 15 32  2  0  0  0  0
 16 17  1  0  0  0  0
 16 29  1  0  0  0  0
 17 18  1  0  0  0  0
 17 57  1  0  0  0  0
 17 58  1  0  0  0  0
 18 19  1  0  0  0  0
 18 59  1  0  0  0  0
 18 60  1  0  0  0  0
 19 20  1  0  0  0  0
 19 61  1  0  0  0  0
 19 62  1  0  0  0  0
 20 21  1  0  0  0  0
 20 63  1  0  0  0  0
 20 64  1  0  0  0  0
 21 22  1  0  0  0  0
 22 23  1  0  0  0  0
 22 65  1  0  0  0  0
 22 66  1  0  0  0  0
 23 24  1  0  0  0  0
 23 28  2  0  0  0  0
 24 25  2  0  0  0  0
 24 67  1  0  0  0  0
 25 26  1  0  0  0  0
 25 68  1  0  0  0  0
 26 27  2  0  0  0  0
 26 69  1  0  0  0  0
 27 28  1  0  0  0  0
 27 70  1  0  0  0  0
 28 71  1  0  0  0  0
 29 30  1  0  0  0  0
 29 31  2  0  0  0  0
 30 72  1  0  0  0  0
 30 73  1  0  0  0  0
 30 74  1  0  0  0  0
 32 33  1  0  0  0  0
 32 75  1  0  0  0  0
 33 34  1  0  0  0  0
 34 35  2  0  0  0  0
 35 36  1  0  0  0  0
 36 37  1  0  0  0  0
 36 76  1  0  0  0  0
 37 38  2  0  0  0  0
 37 39  1  0  0  0  0
 39 40  1  0  0  0  0
 39 77  1  0  0  0  0
 40 41  1  0  0  0  0
 40 42  1  0  0  0  0
 40 43  1  0  0  0  0
 41 78  1  0  0  0  0
 41 79  1  0  0  0  0
 41 80  1  0  0  0  0
 42 81  1  0  0  0  0
 42 82  1  0  0  0  0
 42 83  1  0  0  0  0
 43 84  1  0  0  0  0
 43 85  1  0  0  0  0
 43 86  1  0  0  0  0
 44 87  1  0  0  0  0
M  END
$$$$
