CHEMBL1988387
 OpenBabel04072215363D

 56 60  0  0  0  0  0  0  0  0999 V2000
   -2.1201    0.9852    0.9111 C   0  0  0  0  0  0  0  0  0  0  0  0
   -0.6909    0.8594    1.0571 N   0  0  0  0  0  0  0  0  0  0  0  0
   -0.0149    0.1806    2.0302 C   0  0  0  0  0  0  0  0  0  0  0  0
    1.3293    0.2984    1.7298 C   0  0  0  0  0  0  0  0  0  0  0  0
    2.4041   -0.2852    2.5125 C   0  0  0  0  0  0  0  0  0  0  0  0
    2.3186   -0.3951    3.8870 C   0  0  0  0  0  0  0  0  0  0  0  0
    3.2734   -0.8990    4.6767 N   0  0  0  0  0  0  0  0  0  0  0  0
    4.4281   -1.3406    4.1434 C   0  0  0  0  0  0  0  0  0  0  0  0
    5.3326   -1.7890    5.0927 N   0  0  0  0  0  0  0  0  0  0  0  0
    4.6391   -1.3061    2.7257 C   0  0  0  0  0  0  0  0  0  0  0  0
    5.7696   -1.7362    1.8772 C   0  0  0  0  0  0  0  0  0  0  0  0
    7.0410   -2.3670    2.2574 C   0  0  0  0  0  0  0  0  0  0  0  0
    7.0669   -3.3161    3.2722 C   0  0  0  0  0  0  0  0  0  0  0  0
    8.2730   -3.8342    3.7338 C   0  0  0  0  0  0  0  0  0  0  0  0
    9.4785   -3.5374    3.0968 C   0  0  0  0  0  0  0  0  0  0  0  0
   10.7022   -4.1161    3.5030 N   0  0  0  0  0  0  0  0  0  0  0  0
   10.7804   -5.2679    4.2638 C   0  0  0  0  0  0  0  0  0  0  0  0
    9.8225   -5.9786    4.5516 O   0  0  0  0  0  0  0  0  0  0  0  0
   12.0720   -5.5214    4.7068 N   0  0  0  0  0  0  0  0  0  0  0  0
   12.2711   -6.6333    5.5593 C   0  0  0  0  0  0  0  0  0  0  0  0
   11.7387   -7.8873    5.2315 C   0  0  0  0  0  0  0  0  0  0  0  0
   11.7650   -8.9317    6.1631 C   0  0  0  0  0  0  0  0  0  0  0  0
   12.3314   -8.7238    7.4183 C   0  0  0  0  0  0  0  0  0  0  0  0
   12.3482   -9.6273    8.4426 O   0  0  0  0  0  0  0  0  0  0  0  0
   12.2909  -10.9915    8.0663 C   0  0  0  0  0  0  0  0  0  0  0  0
   13.3807  -11.2903    7.3166 F   0  0  0  0  0  0  0  0  0  0  0  0
   12.3920  -11.7251    9.2045 F   0  0  0  0  0  0  0  0  0  0  0  0
   12.8966   -7.4802    7.7226 C   0  0  0  0  0  0  0  0  0  0  0  0
   12.8994   -6.4434    6.7861 C   0  0  0  0  0  0  0  0  0  0  0  0
    9.4636   -2.6426    2.0275 C   0  0  0  0  0  0  0  0  0  0  0  0
    8.2551   -2.0521    1.6204 C   0  0  0  0  0  0  0  0  0  0  0  0
    5.5196   -1.5136    0.5395 C   0  0  0  0  0  0  0  0  0  0  0  0
    4.0040   -0.8335    0.2529 S   0  0  0  0  0  0  0  0  0  0  0  0
    3.5995   -0.7723    1.9334 C   0  0  0  0  0  0  0  0  0  0  0  0
    1.3400    1.1144    0.5731 C   0  0  0  0  0  0  0  0  0  0  0  0
    0.1152    1.4503    0.1609 N   0  0  0  0  0  0  0  0  0  0  0  0
   -2.6142    0.5570    1.7857 H   0  0  0  0  0  0  0  0  0  0  0  0
   -2.4186    0.4462    0.0084 H   0  0  0  0  0  0  0  0  0  0  0  0
   -2.3679    2.0462    0.8248 H   0  0  0  0  0  0  0  0  0  0  0  0
   -0.5419   -0.3327    2.8236 H   0  0  0  0  0  0  0  0  0  0  0  0
    1.4372   -0.0562    4.4268 H   0  0  0  0  0  0  0  0  0  0  0  0
    4.9940   -1.5513    6.0188 H   0  0  0  0  0  0  0  0  0  0  0  0
    6.2969   -1.5521    4.9063 H   0  0  0  0  0  0  0  0  0  0  0  0
    6.1527   -3.6602    3.7500 H   0  0  0  0  0  0  0  0  0  0  0  0
    8.2232   -4.4772    4.6075 H   0  0  0  0  0  0  0  0  0  0  0  0
   11.5382   -3.8530    3.0022 H   0  0  0  0  0  0  0  0  0  0  0  0
   12.5909   -4.6848    4.9338 H   0  0  0  0  0  0  0  0  0  0  0  0
   11.2506   -8.0469    4.2768 H   0  0  0  0  0  0  0  0  0  0  0  0
   11.2867   -9.8623    5.8779 H   0  0  0  0  0  0  0  0  0  0  0  0
   11.3686  -11.2769    7.5506 H   0  0  0  0  0  0  0  0  0  0  0  0
   13.3158   -7.3099    8.7112 H   0  0  0  0  0  0  0  0  0  0  0  0
   13.3087   -5.4782    7.0665 H   0  0  0  0  0  0  0  0  0  0  0  0
   10.3752   -2.3986    1.4890 H   0  0  0  0  0  0  0  0  0  0  0  0
    8.2817   -1.3484    0.7912 H   0  0  0  0  0  0  0  0  0  0  0  0
    6.1544   -1.7391   -0.3069 H   0  0  0  0  0  0  0  0  0  0  0  0
    2.1872    1.4837    0.0105 H   0  0  0  0  0  0  0  0  0  0  0  0
  1  2  1  0  0  0  0
  1 37  1  0  0  0  0
  1 38  1  0  0  0  0
  1 39  1  0  0  0  0
  2  3  1  0  0  0  0
  2 36  1  0  0  0  0
  3  4  2  0  0  0  0
  3 40  1  0  0  0  0
  4  5  1  0  0  0  0
  4 35  1  0  0  0  0
  5  6  1  0  0  0  0
  5 34  2  0  0  0  0
  6  7  2  0  0  0  0
  6 41  1  0  0  0  0
  7  8  1  0  0  0  0
  8  9  1  0  0  0  0
  8 10  2  0  0  0  0
  9 42  1  0  0  0  0
  9 43  1  0  0  0  0
 10 11  1  0  0  0  0
 10 34  1  0  0  0  0
 11 12  1  0  0  0  0
 11 32  2  0  0  0  0
 12 13  1  0  0  0  0
 12 31  2  0  0  0  0
 13 14  2  0  0  0  0
 13 44  1  0  0  0  0
 14 15  1  0  0  0  0
 14 45  1  0  0  0  0
 15 16  1  0  0  0  0
 15 30  2  0  0  0  0
 16 17  1  0  0  0  0
 16 46  1  0  0  0  0
 17 18  2  0  0  0  0
 17 19  1  0  0  0  0
 19 20  1  0  0  0  0
 19 47  1  0  0  0  0
 20 21  1  0  0  0  0
 20 29  2  0  0  0  0
 21 22  2  0  0  0  0
 21 48  1  0  0  0  0
 22 23  1  0  0  0  0
 22 49  1  0  0  0  0
 23 24  1  0  0  0  0
 23 28  2  0  0  0  0
 24 25  1  0  0  0  0
 25 26  1  0  0  0  0
 25 27  1  0  0  0  0
 25 50  1  0  0  0  0
 28 29  1  0  0  0  0
 28 51  1  0  0  0  0
 29 52  1  0  0  0  0
 30 31  1  0  0  0  0
 30 53  1  0  0  0  0
 31 54  1  0  0  0  0
 32 33  1  0  0  0  0
 32 55  1  0  0  0  0
 33 34  1  0  0  0  0
 35 36  2  0  0  0  0
 35 56  1  0  0  0  0
M  END
$$$$
