CHEMBL4280119
 OpenBabel04072215383D

 37 40  0  0  0  0  0  0  0  0999 V2000
    2.9472    1.9032    0.7151 C   0  0  0  0  0  0  0  0  0  0  0  0
    3.0839    0.2221    0.0484 S   0  0  0  0  0  0  0  0  0  0  0  0
    3.5440    0.6064   -1.6212 C   0  0  0  0  0  0  0  0  0  0  0  0
    3.1562   -0.2448   -2.5827 N   0  0  0  0  0  0  0  0  0  0  0  0
    3.4531    0.1102   -3.8508 C   0  0  0  0  0  0  0  0  0  0  0  0
    4.1205    1.2707   -4.1946 C   0  0  0  0  0  0  0  0  0  0  0  0
    4.4576    2.0881   -3.1246 C   0  0  0  0  0  0  0  0  0  0  0  0
    4.2127    1.7453   -1.8426 N   0  0  0  0  0  0  0  0  0  0  0  0
    4.9812    3.3799   -3.2812 N   0  0  0  0  0  0  0  0  0  0  0  0
    4.3929    4.2280   -4.1515 C   0  0  0  0  0  0  0  0  0  0  0  0
    3.9827    5.4600   -3.8431 N   0  0  0  0  0  0  0  0  0  0  0  0
    3.3218    5.8569   -4.9485 N   0  0  0  0  0  0  0  0  0  0  0  0
    3.2987    4.9254   -5.9513 C   0  0  0  0  0  0  0  0  0  0  0  0
    2.6068    5.1395   -7.2385 C   0  0  0  0  0  0  0  0  0  0  0  0
    4.0229    3.8703   -5.4609 C   0  0  0  0  0  0  0  0  0  0  0  0
    4.3781    2.7455   -6.1953 N   0  0  0  0  0  0  0  0  0  0  0  0
    4.4453    1.5801   -5.6238 C   0  0  0  0  0  0  0  0  0  0  0  0
    4.9460    0.4518   -6.5046 C   0  0  0  0  0  0  0  0  0  0  0  0
    5.8199   -0.5031   -5.9480 C   0  0  0  0  0  0  0  0  0  0  0  0
    6.3702   -1.5191   -6.7361 C   0  0  0  0  0  0  0  0  0  0  0  0
    6.0843   -1.5806   -8.0957 C   0  0  0  0  0  0  0  0  0  0  0  0
    5.2327   -0.6368   -8.6656 C   0  0  0  0  0  0  0  0  0  0  0  0
    4.6536    0.3712   -7.8804 C   0  0  0  0  0  0  0  0  0  0  0  0
    3.5492    1.4208   -8.7027 Cl  0  0  0  0  0  0  0  0  0  0  0  0
    2.5682    1.8553    1.7399 H   0  0  0  0  0  0  0  0  0  0  0  0
    2.2512    2.5036    0.1212 H   0  0  0  0  0  0  0  0  0  0  0  0
    3.9241    2.3949    0.7374 H   0  0  0  0  0  0  0  0  0  0  0  0
    3.1072   -0.5962   -4.6010 H   0  0  0  0  0  0  0  0  0  0  0  0
    5.0923    3.7724   -2.3515 H   0  0  0  0  0  0  0  0  0  0  0  0
    2.9009    6.7796   -4.9468 H   0  0  0  0  0  0  0  0  0  0  0  0
    2.0689    6.0931   -7.2521 H   0  0  0  0  0  0  0  0  0  0  0  0
    1.8753    4.3432   -7.4129 H   0  0  0  0  0  0  0  0  0  0  0  0
    3.3218    5.1381   -8.0664 H   0  0  0  0  0  0  0  0  0  0  0  0
    6.1103   -0.4621   -4.9007 H   0  0  0  0  0  0  0  0  0  0  0  0
    7.0392   -2.2523   -6.2905 H   0  0  0  0  0  0  0  0  0  0  0  0
    6.5268   -2.3580   -8.7148 H   0  0  0  0  0  0  0  0  0  0  0  0
    5.0205   -0.6892   -9.7317 H   0  0  0  0  0  0  0  0  0  0  0  0
  1  2  1  0  0  0  0
  1 25  1  0  0  0  0
  1 26  1  0  0  0  0
  1 27  1  0  0  0  0
  2  3  1  0  0  0  0
  3  4  1  0  0  0  0
  3  8  2  0  0  0  0
  4  5  2  0  0  0  0
  5  6  1  0  0  0  0
  5 28  1  0  0  0  0
  6  7  2  0  0  0  0
  6 17  1  0  0  0  0
  7  8  1  0  0  0  0
  7  9  1  0  0  0  0
  9 10  1  0  0  0  0
  9 29  1  0  0  0  0
 10 11  2  0  0  0  0
 10 15  1  0  0  0  0
 11 12  1  0  0  0  0
 12 13  1  0  0  0  0
 12 30  1  0  0  0  0
 13 14  1  0  0  0  0
 13 15  2  0  0  0  0
 14 31  1  0  0  0  0
 14 32  1  0  0  0  0
 14 33  1  0  0  0  0
 15 16  1  0  0  0  0
 16 17  2  0  0  0  0
 17 18  1  0  0  0  0
 18 19  1  0  0  0  0
 18 23  2  0  0  0  0
 19 20  2  0  0  0  0
 19 34  1  0  0  0  0
 20 21  1  0  0  0  0
 20 35  1  0  0  0  0
 21 22  2  0  0  0  0
 21 36  1  0  0  0  0
 22 23  1  0  0  0  0
 22 37  1  0  0  0  0
 23 24  1  0  0  0  0
M  END
$$$$
