CHEMBL3939588
 OpenBabel04072215373D

 76 80  0  0  0  0  0  0  0  0999 V2000
    2.3292    0.0597    1.2235 C   0  0  0  0  0  0  0  0  0  0  0  0
    2.3801    0.1304   -0.1995 O   0  0  0  0  0  0  0  0  0  0  0  0
    3.0816   -0.8012   -0.9117 C   0  0  0  0  0  0  0  0  0  0  0  0
    4.0690   -1.5929   -0.3304 C   0  0  0  0  0  0  0  0  0  0  0  0
    4.6971   -2.6365   -1.0442 C   0  0  0  0  0  0  0  0  0  0  0  0
    5.6556   -3.5013   -0.4898 C   0  0  0  0  0  0  0  0  0  0  0  0
    5.9219   -3.4211    0.8943 N   0  0  0  0  0  0  0  0  0  0  0  0
    7.1291   -3.6201    1.5827 C   0  0  0  0  0  0  0  0  0  0  0  0
    7.1043   -3.6677    2.9778 C   0  0  0  0  0  0  0  0  0  0  0  0
    8.2861   -3.6275    3.7203 C   0  0  0  0  0  0  0  0  0  0  0  0
    9.5285   -3.4894    3.0972 C   0  0  0  0  0  0  0  0  0  0  0  0
   10.7239   -3.2591    3.8335 N   0  0  0  0  0  0  0  0  0  0  0  0
   10.7774   -2.8601    5.1613 C   0  0  0  0  0  0  0  0  0  0  0  0
    9.8023   -2.7410    5.8921 O   0  0  0  0  0  0  0  0  0  0  0  0
   12.0613   -2.5263    5.5600 N   0  0  0  0  0  0  0  0  0  0  0  0
   12.2934   -2.0359    6.8676 C   0  0  0  0  0  0  0  0  0  0  0  0
   13.0546   -0.8815    7.0197 C   0  0  0  0  0  0  0  0  0  0  0  0
   13.2463   -0.3359    8.2907 C   0  0  0  0  0  0  0  0  0  0  0  0
   12.7350   -0.9649    9.4386 C   0  0  0  0  0  0  0  0  0  0  0  0
   13.0077   -0.3508   10.7839 C   0  0  0  0  0  0  0  0  0  0  0  0
   11.9943   -2.1532    9.2950 C   0  0  0  0  0  0  0  0  0  0  0  0
   11.4357   -2.9182   10.4662 C   0  0  0  0  0  0  0  0  0  0  0  0
   11.7688   -2.6659    8.0028 C   0  0  0  0  0  0  0  0  0  0  0  0
    9.5620   -3.5195    1.6947 C   0  0  0  0  0  0  0  0  0  0  0  0
   11.0554   -3.3747    0.8305 Cl  0  0  0  0  0  0  0  0  0  0  0  0
    8.3756   -3.5795    0.9499 C   0  0  0  0  0  0  0  0  0  0  0  0
    6.2930   -4.4259   -1.2237 N   0  0  0  0  0  0  0  0  0  0  0  0
    5.9374   -4.5106   -2.5064 C   0  0  0  0  0  0  0  0  0  0  0  0
    5.0052   -3.7717   -3.1261 N   0  0  0  0  0  0  0  0  0  0  0  0
    4.3969   -2.8387   -2.3924 C   0  0  0  0  0  0  0  0  0  0  0  0
    3.4657   -1.9999   -2.9895 C   0  0  0  0  0  0  0  0  0  0  0  0
    2.8310   -0.9649   -2.2882 C   0  0  0  0  0  0  0  0  0  0  0  0
    2.0296   -0.1924   -3.1054 O   0  0  0  0  0  0  0  0  0  0  0  0
    1.7658    1.1147   -2.6065 C   0  0  0  0  0  0  0  0  0  0  0  0
    1.4031    2.1359   -3.7004 C   0  0  0  0  0  0  0  0  0  0  0  0
    1.3360    3.5048   -3.1321 N   0  0  0  0  0  0  0  0  0  0  0  0
    1.0581    4.5122   -4.1639 C   0  0  0  0  0  0  0  0  0  0  0  0
    1.0394    5.9271   -3.5702 C   0  0  0  0  0  0  0  0  0  0  0  0
    0.0505    6.0370   -2.4151 C   0  0  0  0  0  0  0  0  0  0  0  0
    0.3470    4.9680   -1.3798 C   0  0  0  0  0  0  0  0  0  0  0  0
    0.3772    3.5860   -2.0189 C   0  0  0  0  0  0  0  0  0  0  0  0
    2.7641    0.9750    1.6364 H   0  0  0  0  0  0  0  0  0  0  0  0
    2.8200   -0.8026    1.6793 H   0  0  0  0  0  0  0  0  0  0  0  0
    1.2783    0.0142    1.5236 H   0  0  0  0  0  0  0  0  0  0  0  0
    4.4191   -1.3835    0.6754 H   0  0  0  0  0  0  0  0  0  0  0  0
    5.0908   -3.6284    1.4367 H   0  0  0  0  0  0  0  0  0  0  0  0
    6.1625   -3.6979    3.5214 H   0  0  0  0  0  0  0  0  0  0  0  0
    8.1880   -3.6770    4.7998 H   0  0  0  0  0  0  0  0  0  0  0  0
   11.5786   -3.2368    3.2930 H   0  0  0  0  0  0  0  0  0  0  0  0
   12.6405   -2.1355    4.8333 H   0  0  0  0  0  0  0  0  0  0  0  0
   13.4476   -0.3546    6.1557 H   0  0  0  0  0  0  0  0  0  0  0  0
   13.7972    0.5980    8.3799 H   0  0  0  0  0  0  0  0  0  0  0  0
   13.5826    0.5770   10.6933 H   0  0  0  0  0  0  0  0  0  0  0  0
   13.5936   -1.0405   11.3998 H   0  0  0  0  0  0  0  0  0  0  0  0
   12.0701   -0.1059   11.2931 H   0  0  0  0  0  0  0  0  0  0  0  0
   11.6435   -2.4406   11.4276 H   0  0  0  0  0  0  0  0  0  0  0  0
   11.8786   -3.9196   10.4996 H   0  0  0  0  0  0  0  0  0  0  0  0
   10.3484   -3.0111   10.3772 H   0  0  0  0  0  0  0  0  0  0  0  0
   11.1787   -3.5744    7.8896 H   0  0  0  0  0  0  0  0  0  0  0  0
    8.4276   -3.5404   -0.1348 H   0  0  0  0  0  0  0  0  0  0  0  0
    6.4514   -5.2528   -3.1095 H   0  0  0  0  0  0  0  0  0  0  0  0
    3.2393   -2.1397   -4.0438 H   0  0  0  0  0  0  0  0  0  0  0  0
    2.6514    1.5167   -2.0997 H   0  0  0  0  0  0  0  0  0  0  0  0
    0.9200    1.0154   -1.9196 H   0  0  0  0  0  0  0  0  0  0  0  0
    0.4601    1.8524   -4.1861 H   0  0  0  0  0  0  0  0  0  0  0  0
    2.1742    2.0964   -4.4817 H   0  0  0  0  0  0  0  0  0  0  0  0
    0.1001    4.3108   -4.6594 H   0  0  0  0  0  0  0  0  0  0  0  0
    1.8382    4.4808   -4.9346 H   0  0  0  0  0  0  0  0  0  0  0  0
    0.7776    6.6548   -4.3460 H   0  0  0  0  0  0  0  0  0  0  0  0
    2.0440    6.1882   -3.2124 H   0  0  0  0  0  0  0  0  0  0  0  0
   -0.9725    5.9102   -2.7893 H   0  0  0  0  0  0  0  0  0  0  0  0
    0.1091    7.0279   -1.9529 H   0  0  0  0  0  0  0  0  0  0  0  0
   -0.4100    4.9858   -0.5878 H   0  0  0  0  0  0  0  0  0  0  0  0
    1.3142    5.1705   -0.9012 H   0  0  0  0  0  0  0  0  0  0  0  0
   -0.6270    3.2986   -2.3545 H   0  0  0  0  0  0  0  0  0  0  0  0
    0.6644    2.9055   -1.2118 H   0  0  0  0  0  0  0  0  0  0  0  0
  1  2  1  0  0  0  0
  1 42  1  0  0  0  0
  1 43  1  0  0  0  0
  1 44  1  0  0  0  0
  2  3  1  0  0  0  0
  3  4  1  0  0  0  0
  3 32  2  0  0  0  0
  4  5  2  0  0  0  0
  4 45  1  0  0  0  0
  5  6  1  0  0  0  0
  5 30  1  0  0  0  0
  6  7  1  0  0  0  0
  6 27  2  0  0  0  0
  7  8  1  0  0  0  0
  7 46  1  0  0  0  0
  8  9  1  0  0  0  0
  8 26  2  0  0  0  0
  9 10  2  0  0  0  0
  9 47  1  0  0  0  0
 10 11  1  0  0  0  0
 10 48  1  0  0  0  0
 11 12  1  0  0  0  0
 11 24  2  0  0  0  0
 12 13  1  0  0  0  0
 12 49  1  0  0  0  0
 13 14  2  0  0  0  0
 13 15  1  0  0  0  0
 15 16  1  0  0  0  0
 15 50  1  0  0  0  0
 16 17  1  0  0  0  0
 16 23  2  0  0  0  0
 17 18  2  0  0  0  0
 17 51  1  0  0  0  0
 18 19  1  0  0  0  0
 18 52  1  0  0  0  0
 19 20  1  0  0  0  0
 19 21  2  0  0  0  0
 20 53  1  0  0  0  0
 20 54  1  0  0  0  0
 20 55  1  0  0  0  0
 21 22  1  0  0  0  0
 21 23  1  0  0  0  0
 22 56  1  0  0  0  0
 22 57  1  0  0  0  0
 22 58  1  0  0  0  0
 23 59  1  0  0  0  0
 24 25  1  0  0  0  0
 24 26  1  0  0  0  0
 26 60  1  0  0  0  0
 27 28  1  0  0  0  0
 28 29  2  0  0  0  0
 28 61  1  0  0  0  0
 29 30  1  0  0  0  0
 30 31  2  0  0  0  0
 31 32  1  0  0  0  0
 31 62  1  0  0  0  0
 32 33  1  0  0  0  0
 33 34  1  0  0  0  0
 34 35  1  0  0  0  0
 34 63  1  0  0  0  0
 34 64  1  0  0  0  0
 35 36  1  0  0  0  0
 35 65  1  0  0  0  0
 35 66  1  0  0  0  0
 36 37  1  0  0  0  0
 36 41  1  0  0  0  0
 37 38  1  0  0  0  0
 37 67  1  0  0  0  0
 37 68  1  0  0  0  0
 38 39  1  0  0  0  0
 38 69  1  0  0  0  0
 38 70  1  0  0  0  0
 39 40  1  0  0  0  0
 39 71  1  0  0  0  0
 39 72  1  0  0  0  0
 40 41  1  0  0  0  0
 40 73  1  0  0  0  0
 40 74  1  0  0  0  0
 41 75  1  0  0  0  0
 41 76  1  0  0  0  0
M  END
$$$$
