CHEMBL1986263
 OpenBabel04072215363D

 42 44  0  0  0  0  0  0  0  0999 V2000
    4.4508    2.4789   -2.8567 C   0  0  0  0  0  0  0  0  0  0  0  0
    5.0068    1.2963   -2.0835 C   0  0  0  0  0  0  0  0  0  0  0  0
    4.1744    0.1129   -2.2068 N   0  0  0  0  0  0  0  0  0  0  0  0
    4.3031   -0.8656   -3.1919 C   0  0  0  0  0  0  0  0  0  0  0  0
    5.2965   -0.7481   -4.3080 C   0  0  0  0  0  0  0  0  0  0  0  0
    3.4420   -1.8920   -3.0273 C   0  0  0  0  0  0  0  0  0  0  0  0
    3.3476   -3.1494   -3.7892 C   0  0  0  0  0  0  0  0  0  0  0  0
    2.1297   -3.7582   -4.0242 C   0  0  0  0  0  0  0  0  0  0  0  0
    2.1755   -4.9505   -4.6922 C   0  0  0  0  0  0  0  0  0  0  0  0
    3.3144   -5.4900   -5.1374 N   0  0  0  0  0  0  0  0  0  0  0  0
    4.4636   -4.8420   -4.8843 C   0  0  0  0  0  0  0  0  0  0  0  0
    5.6628   -5.4080   -5.3134 N   0  0  0  0  0  0  0  0  0  0  0  0
    5.8552   -6.2994   -6.3793 C   0  0  0  0  0  0  0  0  0  0  0  0
    5.0089   -6.2880   -7.4972 C   0  0  0  0  0  0  0  0  0  0  0  0
    5.1337   -7.2359   -8.5092 C   0  0  0  0  0  0  0  0  0  0  0  0
    6.1049   -8.2285   -8.4137 C   0  0  0  0  0  0  0  0  0  0  0  0
    6.9685   -8.2577   -7.3175 C   0  0  0  0  0  0  0  0  0  0  0  0
    7.9625   -9.1789   -7.1178 O   0  0  0  0  0  0  0  0  0  0  0  0
    8.0985  -10.1948   -8.1060 C   0  0  0  0  0  0  0  0  0  0  0  0
    6.8422   -7.2902   -6.3091 C   0  0  0  0  0  0  0  0  0  0  0  0
    4.5201   -3.6880   -4.2052 N   0  0  0  0  0  0  0  0  0  0  0  0
    2.4001   -1.6483   -1.6485 S   0  0  0  0  0  0  0  0  0  0  0  0
    3.1756   -0.1156   -1.2675 C   0  0  0  0  0  0  0  0  0  0  0  0
    2.8504    0.5865   -0.3248 O   0  0  0  0  0  0  0  0  0  0  0  0
    5.0906    3.3566   -2.7125 H   0  0  0  0  0  0  0  0  0  0  0  0
    3.4425    2.7332   -2.5149 H   0  0  0  0  0  0  0  0  0  0  0  0
    4.3964    2.2669   -3.9283 H   0  0  0  0  0  0  0  0  0  0  0  0
    5.0658    1.5686   -1.0228 H   0  0  0  0  0  0  0  0  0  0  0  0
    6.0298    1.0633   -2.3944 H   0  0  0  0  0  0  0  0  0  0  0  0
    5.7615    0.2385   -4.3723 H   0  0  0  0  0  0  0  0  0  0  0  0
    4.8073   -0.9132   -5.2749 H   0  0  0  0  0  0  0  0  0  0  0  0
    6.1006   -1.4801   -4.1888 H   0  0  0  0  0  0  0  0  0  0  0  0
    1.1863   -3.3486   -3.6912 H   0  0  0  0  0  0  0  0  0  0  0  0
    1.2776   -5.5259   -4.8916 H   0  0  0  0  0  0  0  0  0  0  0  0
    6.4727   -4.9754   -4.9089 H   0  0  0  0  0  0  0  0  0  0  0  0
    4.2388   -5.5272   -7.5909 H   0  0  0  0  0  0  0  0  0  0  0  0
    4.4628   -7.2043   -9.3630 H   0  0  0  0  0  0  0  0  0  0  0  0
    6.1528   -8.9643   -9.2077 H   0  0  0  0  0  0  0  0  0  0  0  0
    8.9969  -10.7736   -7.8731 H   0  0  0  0  0  0  0  0  0  0  0  0
    8.2362   -9.7705   -9.1063 H   0  0  0  0  0  0  0  0  0  0  0  0
    7.2413  -10.8766   -8.0818 H   0  0  0  0  0  0  0  0  0  0  0  0
    7.4949   -7.3478   -5.4415 H   0  0  0  0  0  0  0  0  0  0  0  0
  1  2  1  0  0  0  0
  1 25  1  0  0  0  0
  1 26  1  0  0  0  0
  1 27  1  0  0  0  0
  2  3  1  0  0  0  0
  2 28  1  0  0  0  0
  2 29  1  0  0  0  0
  3  4  1  0  0  0  0
  3 23  1  0  0  0  0
  4  5  1  0  0  0  0
  4  6  2  0  0  0  0
  5 30  1  0  0  0  0
  5 31  1  0  0  0  0
  5 32  1  0  0  0  0
  6  7  1  0  0  0  0
  6 22  1  0  0  0  0
  7  8  1  0  0  0  0
  7 21  2  0  0  0  0
  8  9  2  0  0  0  0
  8 33  1  0  0  0  0
  9 10  1  0  0  0  0
  9 34  1  0  0  0  0
 10 11  2  0  0  0  0
 11 12  1  0  0  0  0
 11 21  1  0  0  0  0
 12 13  1  0  0  0  0
 12 35  1  0  0  0  0
 13 14  1  0  0  0  0
 13 20  2  0  0  0  0
 14 15  2  0  0  0  0
 14 36  1  0  0  0  0
 15 16  1  0  0  0  0
 15 37  1  0  0  0  0
 16 17  2  0  0  0  0
 16 38  1  0  0  0  0
 17 18  1  0  0  0  0
 17 20  1  0  0  0  0
 18 19  1  0  0  0  0
 19 39  1  0  0  0  0
 19 40  1  0  0  0  0
 19 41  1  0  0  0  0
 20 42  1  0  0  0  0
 22 23  1  0  0  0  0
 23 24  2  0  0  0  0
M  END
$$$$
