CHEMBL3093583
 OpenBabel04072215363D

 60 65  0  0  0  0  0  0  0  0999 V2000
    1.1834    0.6521   -0.8160 O   0  0  0  0  0  0  0  0  0  0  0  0
    2.2180    0.2099   -0.3212 C   0  0  0  0  0  0  0  0  0  0  0  0
    2.7227   -1.0566   -0.5216 N   0  0  0  0  0  0  0  0  0  0  0  0
    2.1055   -2.0850   -1.2684 C   0  0  0  0  0  0  0  0  0  0  0  0
    0.9887   -1.8709   -2.0882 C   0  0  0  0  0  0  0  0  0  0  0  0
    0.3499   -2.9311   -2.7325 C   0  0  0  0  0  0  0  0  0  0  0  0
    0.8438   -4.2188   -2.5710 C   0  0  0  0  0  0  0  0  0  0  0  0
    0.1993   -5.2349   -3.2924 O   0  0  0  0  0  0  0  0  0  0  0  0
   -0.0841   -6.4394   -2.6667 C   0  0  0  0  0  0  0  0  0  0  0  0
   -0.4078   -7.4126   -3.7345 C   0  0  0  0  0  0  0  0  0  0  0  0
   -0.6578   -8.6661   -3.3384 C   0  0  0  0  0  0  0  0  0  0  0  0
   -0.6148   -8.9718   -1.9619 C   0  0  0  0  0  0  0  0  0  0  0  0
   -0.8029  -10.1040   -1.3249 N   0  0  0  0  0  0  0  0  0  0  0  0
   -0.6286   -9.8151   -0.0042 C   0  0  0  0  0  0  0  0  0  0  0  0
   -0.7429  -10.7440    1.0027 N   0  0  0  0  0  0  0  0  0  0  0  0
   -1.0791  -12.0634    0.7928 C   0  0  0  0  0  0  0  0  0  0  0  0
   -1.3217  -12.6187   -0.2680 O   0  0  0  0  0  0  0  0  0  0  0  0
   -1.1735  -12.8510    2.0642 C   0  0  0  0  0  0  0  0  0  0  0  0
   -1.2813  -14.3601    2.0213 C   0  0  0  0  0  0  0  0  0  0  0  0
   -2.4765  -13.5392    2.4078 C   0  0  0  0  0  0  0  0  0  0  0  0
   -0.3278   -8.4847    0.1762 C   0  0  0  0  0  0  0  0  0  0  0  0
   -0.3267   -7.9411   -1.0815 N   0  0  0  0  0  0  0  0  0  0  0  0
   -0.0644   -6.6381   -1.3885 N   0  0  0  0  0  0  0  0  0  0  0  0
    2.0015   -4.4370   -1.8265 C   0  0  0  0  0  0  0  0  0  0  0  0
    2.5441   -5.6596   -1.7505 F   0  0  0  0  0  0  0  0  0  0  0  0
    2.6269   -3.3792   -1.1706 C   0  0  0  0  0  0  0  0  0  0  0  0
    3.0013    1.0853    0.6046 C   0  0  0  0  0  0  0  0  0  0  0  0
    2.6769    2.3917    0.6025 C   0  0  0  0  0  0  0  0  0  0  0  0
    3.3106    3.3239    1.4912 C   0  0  0  0  0  0  0  0  0  0  0  0
    4.2561    2.8976    2.3289 C   0  0  0  0  0  0  0  0  0  0  0  0
    4.6550    1.5662    2.3716 N   0  0  0  0  0  0  0  0  0  0  0  0
    5.7003    1.1624    3.2560 C   0  0  0  0  0  0  0  0  0  0  0  0
    6.9078    1.8745    3.2800 C   0  0  0  0  0  0  0  0  0  0  0  0
    7.9524    1.4570    4.1046 C   0  0  0  0  0  0  0  0  0  0  0  0
    7.7836    0.3570    4.9452 C   0  0  0  0  0  0  0  0  0  0  0  0
    6.5707   -0.3325    4.9541 C   0  0  0  0  0  0  0  0  0  0  0  0
    5.5374    0.0582    4.1013 C   0  0  0  0  0  0  0  0  0  0  0  0
    4.0767    0.5983    1.5224 C   0  0  0  0  0  0  0  0  0  0  0  0
    4.4220   -0.5842    1.4539 O   0  0  0  0  0  0  0  0  0  0  0  0
    3.5551   -1.3142    0.0161 H   0  0  0  0  0  0  0  0  0  0  0  0
    0.5856   -0.8779   -2.2580 H   0  0  0  0  0  0  0  0  0  0  0  0
   -0.5204   -2.7402   -3.3529 H   0  0  0  0  0  0  0  0  0  0  0  0
   -0.4186   -7.1001   -4.7688 H   0  0  0  0  0  0  0  0  0  0  0  0
   -0.8902   -9.4570   -4.0418 H   0  0  0  0  0  0  0  0  0  0  0  0
   -0.5931  -10.4146    1.9433 H   0  0  0  0  0  0  0  0  0  0  0  0
   -0.6041  -12.4517    2.8983 H   0  0  0  0  0  0  0  0  0  0  0  0
   -0.7798  -14.9305    2.7934 H   0  0  0  0  0  0  0  0  0  0  0  0
   -1.2936  -14.8475    1.0510 H   0  0  0  0  0  0  0  0  0  0  0  0
   -2.7912  -13.5576    3.4440 H   0  0  0  0  0  0  0  0  0  0  0  0
   -3.2926  -13.4783    1.6945 H   0  0  0  0  0  0  0  0  0  0  0  0
   -0.1167   -7.8810    1.0446 H   0  0  0  0  0  0  0  0  0  0  0  0
    3.5118   -3.5906   -0.5768 H   0  0  0  0  0  0  0  0  0  0  0  0
    1.9048    2.7857   -0.0552 H   0  0  0  0  0  0  0  0  0  0  0  0
    2.9763    4.3556    1.4836 H   0  0  0  0  0  0  0  0  0  0  0  0
    4.7129    3.5786    3.0409 H   0  0  0  0  0  0  0  0  0  0  0  0
    7.0666    2.7132    2.6097 H   0  0  0  0  0  0  0  0  0  0  0  0
    8.9049    1.9802    4.0778 H   0  0  0  0  0  0  0  0  0  0  0  0
    8.5973    0.0328    5.5849 H   0  0  0  0  0  0  0  0  0  0  0  0
    6.4328   -1.1811    5.6191 H   0  0  0  0  0  0  0  0  0  0  0  0
    4.5974   -0.4885    4.1237 H   0  0  0  0  0  0  0  0  0  0  0  0
  1  2  2  0  0  0  0
  2  3  1  0  0  0  0
  2 27  1  0  0  0  0
  3  4  1  0  0  0  0
  3 40  1  0  0  0  0
  4  5  1  0  0  0  0
  4 26  2  0  0  0  0
  5  6  2  0  0  0  0
  5 41  1  0  0  0  0
  6  7  1  0  0  0  0
  6 42  1  0  0  0  0
  7  8  1  0  0  0  0
  7 24  2  0  0  0  0
  8  9  1  0  0  0  0
  9 10  1  0  0  0  0
  9 23  2  0  0  0  0
 10 11  2  0  0  0  0
 10 43  1  0  0  0  0
 11 12  1  0  0  0  0
 11 44  1  0  0  0  0
 12 13  2  0  0  0  0
 12 22  1  0  0  0  0
 13 14  1  0  0  0  0
 14 15  1  0  0  0  0
 14 21  2  0  0  0  0
 15 16  1  0  0  0  0
 15 45  1  0  0  0  0
 16 17  2  0  0  0  0
 16 18  1  0  0  0  0
 18 19  1  0  0  0  0
 18 20  1  0  0  0  0
 18 46  1  0  0  0  0
 19 20  1  0  0  0  0
 19 47  1  0  0  0  0
 19 48  1  0  0  0  0
 20 49  1  0  0  0  0
 20 50  1  0  0  0  0
 21 22  1  0  0  0  0
 21 51  1  0  0  0  0
 22 23  1  0  0  0  0
 24 25  1  0  0  0  0
 24 26  1  0  0  0  0
 26 52  1  0  0  0  0
 27 28  2  0  0  0  0
 27 38  1  0  0  0  0
 28 29  1  0  0  0  0
 28 53  1  0  0  0  0
 29 30  2  0  0  0  0
 29 54  1  0  0  0  0
 30 31  1  0  0  0  0
 30 55  1  0  0  0  0
 31 32  1  0  0  0  0
 31 38  1  0  0  0  0
 32 33  1  0  0  0  0
 32 37  2  0  0  0  0
 33 34  2  0  0  0  0
 33 56  1  0  0  0  0
 34 35  1  0  0  0  0
 34 57  1  0  0  0  0
 35 36  2  0  0  0  0
 35 58  1  0  0  0  0
 36 37  1  0  0  0  0
 36 59  1  0  0  0  0
 37 60  1  0  0  0  0
 38 39  2  0  0  0  0
M  END
$$$$
