CHEMBL489326
 OpenBabel04072215383D

 61 65  0  0  0  0  0  0  0  0999 V2000
   10.8606   -0.9072    2.0968 C   0  0  0  0  0  0  0  0  0  0  0  0
    9.9358   -1.2512    3.1359 O   0  0  0  0  0  0  0  0  0  0  0  0
    9.1228   -2.3232    2.8693 C   0  0  0  0  0  0  0  0  0  0  0  0
    9.5657   -3.3774    2.0550 C   0  0  0  0  0  0  0  0  0  0  0  0
    8.7369   -4.4076    1.6448 C   0  0  0  0  0  0  0  0  0  0  0  0
    9.2419   -5.3053    0.7848 N   0  0  0  0  0  0  0  0  0  0  0  0
    8.4353   -6.2893    0.3449 C   0  0  0  0  0  0  0  0  0  0  0  0
    7.1212   -6.4305    0.7293 C   0  0  0  0  0  0  0  0  0  0  0  0
    6.5838   -5.4687    1.5821 C   0  0  0  0  0  0  0  0  0  0  0  0
    5.2503   -5.4921    1.9507 O   0  0  0  0  0  0  0  0  0  0  0  0
    4.3027   -5.9165    1.0404 C   0  0  0  0  0  0  0  0  0  0  0  0
    3.2547   -6.6732    1.5540 C   0  0  0  0  0  0  0  0  0  0  0  0
    2.2114   -7.1131    0.7153 C   0  0  0  0  0  0  0  0  0  0  0  0
    2.2072   -6.8086   -0.6477 C   0  0  0  0  0  0  0  0  0  0  0  0
    1.1626   -7.1886   -1.5241 N   0  0  0  0  0  0  0  0  0  0  0  0
    0.0931   -8.0164   -1.2128 C   0  0  0  0  0  0  0  0  0  0  0  0
   -0.0650   -8.6883   -0.2023 O   0  0  0  0  0  0  0  0  0  0  0  0
   -0.9728   -8.0654   -2.2709 C   0  0  0  0  0  0  0  0  0  0  0  0
   -0.6421   -8.8857   -3.4763 C   0  0  0  0  0  0  0  0  0  0  0  0
    0.0853   -8.3707   -4.3154 O   0  0  0  0  0  0  0  0  0  0  0  0
   -1.2159  -10.1468   -3.5203 N   0  0  0  0  0  0  0  0  0  0  0  0
   -1.0555  -11.0767   -4.5767 C   0  0  0  0  0  0  0  0  0  0  0  0
   -0.0477  -10.9538   -5.5401 C   0  0  0  0  0  0  0  0  0  0  0  0
    0.0143  -11.8243   -6.6287 C   0  0  0  0  0  0  0  0  0  0  0  0
   -0.9256  -12.8351   -6.7473 C   0  0  0  0  0  0  0  0  0  0  0  0
   -0.8929  -13.6435   -7.8143 F   0  0  0  0  0  0  0  0  0  0  0  0
   -1.8994  -13.0165   -5.7723 C   0  0  0  0  0  0  0  0  0  0  0  0
   -1.9567  -12.1463   -4.6753 C   0  0  0  0  0  0  0  0  0  0  0  0
   -1.7544   -6.7678   -2.5147 C   0  0  0  0  0  0  0  0  0  0  0  0
   -2.4278   -7.9111   -1.8275 C   0  0  0  0  0  0  0  0  0  0  0  0
    3.2562   -6.0391   -1.1601 C   0  0  0  0  0  0  0  0  0  0  0  0
    4.2813   -5.5879   -0.3188 C   0  0  0  0  0  0  0  0  0  0  0  0
    5.2467   -4.8298   -0.8588 F   0  0  0  0  0  0  0  0  0  0  0  0
    7.4116   -4.4454    2.1088 C   0  0  0  0  0  0  0  0  0  0  0  0
    7.0022   -3.4610    3.0417 C   0  0  0  0  0  0  0  0  0  0  0  0
    7.8379   -2.3931    3.4176 C   0  0  0  0  0  0  0  0  0  0  0  0
    7.2212   -1.5370    4.2887 O   0  0  0  0  0  0  0  0  0  0  0  0
    7.8170   -0.2848    4.5916 C   0  0  0  0  0  0  0  0  0  0  0  0
   10.9683    0.1813    2.0790 H   0  0  0  0  0  0  0  0  0  0  0  0
   10.5274   -1.2062    1.0949 H   0  0  0  0  0  0  0  0  0  0  0  0
   11.8387   -1.3470    2.3166 H   0  0  0  0  0  0  0  0  0  0  0  0
   10.5885   -3.4005    1.6881 H   0  0  0  0  0  0  0  0  0  0  0  0
    8.8871   -6.9743   -0.3660 H   0  0  0  0  0  0  0  0  0  0  0  0
    6.5327   -7.2507    0.3379 H   0  0  0  0  0  0  0  0  0  0  0  0
    3.2255   -6.9240    2.6120 H   0  0  0  0  0  0  0  0  0  0  0  0
    1.4200   -7.6954    1.1750 H   0  0  0  0  0  0  0  0  0  0  0  0
    1.2073   -6.8388   -2.4778 H   0  0  0  0  0  0  0  0  0  0  0  0
   -1.8748  -10.3870   -2.7920 H   0  0  0  0  0  0  0  0  0  0  0  0
    0.7174  -10.1876   -5.4681 H   0  0  0  0  0  0  0  0  0  0  0  0
    0.7854  -11.7040   -7.3826 H   0  0  0  0  0  0  0  0  0  0  0  0
   -2.6166  -13.8241   -5.8844 H   0  0  0  0  0  0  0  0  0  0  0  0
   -2.7367  -12.2986   -3.9339 H   0  0  0  0  0  0  0  0  0  0  0  0
   -2.0578   -6.5330   -3.5300 H   0  0  0  0  0  0  0  0  0  0  0  0
   -1.5043   -5.8948   -1.9213 H   0  0  0  0  0  0  0  0  0  0  0  0
   -3.2153   -8.4195   -2.3708 H   0  0  0  0  0  0  0  0  0  0  0  0
   -2.6247   -7.8170   -0.7635 H   0  0  0  0  0  0  0  0  0  0  0  0
    3.3041   -5.7731   -2.2118 H   0  0  0  0  0  0  0  0  0  0  0  0
    6.0012   -3.5071    3.4683 H   0  0  0  0  0  0  0  0  0  0  0  0
    7.0447    0.3320    5.0652 H   0  0  0  0  0  0  0  0  0  0  0  0
    8.1382    0.2540    3.6959 H   0  0  0  0  0  0  0  0  0  0  0  0
    8.6306   -0.4023    5.3139 H   0  0  0  0  0  0  0  0  0  0  0  0
  1  2  1  0  0  0  0
  1 39  1  0  0  0  0
  1 40  1  0  0  0  0
  1 41  1  0  0  0  0
  2  3  1  0  0  0  0
  3  4  1  0  0  0  0
  3 36  2  0  0  0  0
  4  5  2  0  0  0  0
  4 42  1  0  0  0  0
  5  6  1  0  0  0  0
  5 34  1  0  0  0  0
  6  7  2  0  0  0  0
  7  8  1  0  0  0  0
  7 43  1  0  0  0  0
  8  9  2  0  0  0  0
  8 44  1  0  0  0  0
  9 10  1  0  0  0  0
  9 34  1  0  0  0  0
 10 11  1  0  0  0  0
 11 12  1  0  0  0  0
 11 32  2  0  0  0  0
 12 13  2  0  0  0  0
 12 45  1  0  0  0  0
 13 14  1  0  0  0  0
 13 46  1  0  0  0  0
 14 15  1  0  0  0  0
 14 31  2  0  0  0  0
 15 16  1  0  0  0  0
 15 47  1  0  0  0  0
 16 17  2  0  0  0  0
 16 18  1  0  0  0  0
 18 19  1  0  0  0  0
 18 29  1  0  0  0  0
 18 30  1  0  0  0  0
 19 20  2  0  0  0  0
 19 21  1  0  0  0  0
 21 22  1  0  0  0  0
 21 48  1  0  0  0  0
 22 23  1  0  0  0  0
 22 28  2  0  0  0  0
 23 24  2  0  0  0  0
 23 49  1  0  0  0  0
 24 25  1  0  0  0  0
 24 50  1  0  0  0  0
 25 26  1  0  0  0  0
 25 27  2  0  0  0  0
 27 28  1  0  0  0  0
 27 51  1  0  0  0  0
 28 52  1  0  0  0  0
 29 30  1  0  0  0  0
 29 53  1  0  0  0  0
 29 54  1  0  0  0  0
 30 55  1  0  0  0  0
 30 56  1  0  0  0  0
 31 32  1  0  0  0  0
 31 57  1  0  0  0  0
 32 33  1  0  0  0  0
 34 35  2  0  0  0  0
 35 36  1  0  0  0  0
 35 58  1  0  0  0  0
 36 37  1  0  0  0  0
 37 38  1  0  0  0  0
 38 59  1  0  0  0  0
 38 60  1  0  0  0  0
 38 61  1  0  0  0  0
M  END
$$$$
