CHEMBL362030
 OpenBabel04072215363D

 38 41  0  0  0  0  0  0  0  0999 V2000
    2.6788   -0.3883    0.9453 C   0  0  0  0  0  0  0  0  0  0  0  0
    3.1733    0.6531    0.1136 O   0  0  0  0  0  0  0  0  0  0  0  0
    3.6139    0.2925   -1.1288 C   0  0  0  0  0  0  0  0  0  0  0  0
    3.6206   -0.9981   -1.6527 C   0  0  0  0  0  0  0  0  0  0  0  0
    4.1394   -1.2370   -2.9322 C   0  0  0  0  0  0  0  0  0  0  0  0
    4.6691   -0.1949   -3.7073 C   0  0  0  0  0  0  0  0  0  0  0  0
    5.3032   -0.4767   -4.9929 C   0  0  0  0  0  0  0  0  0  0  0  0
    5.5510   -1.6328   -5.7095 C   0  0  0  0  0  0  0  0  0  0  0  0
    6.2832   -1.2515   -6.8661 C   0  0  0  0  0  0  0  0  0  0  0  0
    6.8509   -1.8747   -7.9811 C   0  0  0  0  0  0  0  0  0  0  0  0
    6.6986   -3.2562   -8.1481 N   0  0  0  0  0  0  0  0  0  0  0  0
    7.1674   -3.9870   -9.2135 C   0  0  0  0  0  0  0  0  0  0  0  0
    7.7899   -3.5874  -10.1845 O   0  0  0  0  0  0  0  0  0  0  0  0
    6.8059   -5.4390   -9.1066 C   0  0  0  0  0  0  0  0  0  0  0  0
    7.3748   -6.4460  -10.0781 C   0  0  0  0  0  0  0  0  0  0  0  0
    5.9218   -6.0724  -10.1562 C   0  0  0  0  0  0  0  0  0  0  0  0
    7.5211   -1.1154   -8.8686 N   0  0  0  0  0  0  0  0  0  0  0  0
    7.6012    0.2127   -8.6608 C   0  0  0  0  0  0  0  0  0  0  0  0
    7.0813    0.9169   -7.6509 N   0  0  0  0  0  0  0  0  0  0  0  0
    6.4372    0.1241   -6.7852 C   0  0  0  0  0  0  0  0  0  0  0  0
    5.8318    0.5927   -5.6603 O   0  0  0  0  0  0  0  0  0  0  0  0
    4.6172    1.1042   -3.1864 C   0  0  0  0  0  0  0  0  0  0  0  0
    4.0990    1.3426   -1.9086 C   0  0  0  0  0  0  0  0  0  0  0  0
    2.3662    0.0595    1.8926 H   0  0  0  0  0  0  0  0  0  0  0  0
    3.4601   -1.1250    1.1668 H   0  0  0  0  0  0  0  0  0  0  0  0
    1.8012   -0.8651    0.4972 H   0  0  0  0  0  0  0  0  0  0  0  0
    3.2444   -1.8457   -1.0897 H   0  0  0  0  0  0  0  0  0  0  0  0
    4.1365   -2.2593   -3.3008 H   0  0  0  0  0  0  0  0  0  0  0  0
    5.2664   -2.6320   -5.4148 H   0  0  0  0  0  0  0  0  0  0  0  0
    6.1678   -3.7418   -7.4430 H   0  0  0  0  0  0  0  0  0  0  0  0
    6.6674   -5.8002   -8.0916 H   0  0  0  0  0  0  0  0  0  0  0  0
    7.6365   -7.4237   -9.6926 H   0  0  0  0  0  0  0  0  0  0  0  0
    8.0284   -6.0934  -10.8697 H   0  0  0  0  0  0  0  0  0  0  0  0
    5.1958   -6.8124   -9.8401 H   0  0  0  0  0  0  0  0  0  0  0  0
    5.6067   -5.4741  -11.0038 H   0  0  0  0  0  0  0  0  0  0  0  0
    8.1548    0.7753   -9.4080 H   0  0  0  0  0  0  0  0  0  0  0  0
    4.9989    1.9475   -3.7592 H   0  0  0  0  0  0  0  0  0  0  0  0
    4.0903    2.3562   -1.5144 H   0  0  0  0  0  0  0  0  0  0  0  0
  1  2  1  0  0  0  0
  1 24  1  0  0  0  0
  1 25  1  0  0  0  0
  1 26  1  0  0  0  0
  2  3  1  0  0  0  0
  3  4  1  0  0  0  0
  3 23  2  0  0  0  0
  4  5  2  0  0  0  0
  4 27  1  0  0  0  0
  5  6  1  0  0  0  0
  5 28  1  0  0  0  0
  6  7  1  0  0  0  0
  6 22  2  0  0  0  0
  7  8  2  0  0  0  0
  7 21  1  0  0  0  0
  8  9  1  0  0  0  0
  8 29  1  0  0  0  0
  9 10  1  0  0  0  0
  9 20  2  0  0  0  0
 10 11  1  0  0  0  0
 10 17  2  0  0  0  0
 11 12  1  0  0  0  0
 11 30  1  0  0  0  0
 12 13  2  0  0  0  0
 12 14  1  0  0  0  0
 14 15  1  0  0  0  0
 14 16  1  0  0  0  0
 14 31  1  0  0  0  0
 15 16  1  0  0  0  0
 15 32  1  0  0  0  0
 15 33  1  0  0  0  0
 16 34  1  0  0  0  0
 16 35  1  0  0  0  0
 17 18  1  0  0  0  0
 18 19  2  0  0  0  0
 18 36  1  0  0  0  0
 19 20  1  0  0  0  0
 20 21  1  0  0  0  0
 22 23  1  0  0  0  0
 22 37  1  0  0  0  0
 23 38  1  0  0  0  0
M  END
$$$$
