CHEMBL2113173
 OpenBabel04072215363D

 51 53  0  0  0  0  0  0  0  0999 V2000
    1.0801    0.4494    0.7319 C   0  0  0  0  0  0  0  0  0  0  0  0
    2.3446    0.2887    0.1196 O   0  0  0  0  0  0  0  0  0  0  0  0
    2.8043    1.4672   -0.5506 C   0  0  0  0  0  0  0  0  0  0  0  0
    4.1298    1.0743   -1.1844 C   0  0  0  0  0  0  0  0  0  0  0  0
    4.7813    2.1350   -1.8538 O   0  0  0  0  0  0  0  0  0  0  0  0
    6.1432    2.0265   -2.0346 C   0  0  0  0  0  0  0  0  0  0  0  0
    6.7257    3.2930   -2.2497 C   0  0  0  0  0  0  0  0  0  0  0  0
    8.1013    3.4951   -2.3613 C   0  0  0  0  0  0  0  0  0  0  0  0
    8.5991    4.7433   -2.4944 N   0  0  0  0  0  0  0  0  0  0  0  0
    9.9307    4.8648   -2.5326 C   0  0  0  0  0  0  0  0  0  0  0  0
   10.8257    3.8712   -2.4598 N   0  0  0  0  0  0  0  0  0  0  0  0
   10.3119    2.6282   -2.3785 C   0  0  0  0  0  0  0  0  0  0  0  0
   11.1905    1.4967   -2.4009 N   0  0  0  0  0  0  0  0  0  0  0  0
   12.5585    1.6876   -2.2073 C   0  0  0  0  0  0  0  0  0  0  0  0
   13.2326    1.3229   -1.1025 C   0  0  0  0  0  0  0  0  0  0  0  0
   12.4378    0.3869    0.1408 S   0  0  0  0  0  0  0  0  0  0  0  0
   13.1948    0.9621    1.6676 C   0  0  0  0  0  0  0  0  0  0  0  0
   14.6925    1.6120   -0.9900 C   0  0  0  0  0  0  0  0  0  0  0  0
   15.4201    1.0247   -0.1965 O   0  0  0  0  0  0  0  0  0  0  0  0
   15.2462    2.6727   -1.8897 C   0  0  0  0  0  0  0  0  0  0  0  0
   16.4502    3.3081   -1.6010 O   0  0  0  0  0  0  0  0  0  0  0  0
   16.6587    3.6069   -0.2222 C   0  0  0  0  0  0  0  0  0  0  0  0
   14.6027    2.9236   -3.0374 C   0  0  0  0  0  0  0  0  0  0  0  0
   15.2145    4.0297   -4.2163 Cl  0  0  0  0  0  0  0  0  0  0  0  0
   13.3266    2.2510   -3.3626 C   0  0  0  0  0  0  0  0  0  0  0  0
   12.8888    2.1378   -4.5046 O   0  0  0  0  0  0  0  0  0  0  0  0
    8.9310    2.3815   -2.2986 C   0  0  0  0  0  0  0  0  0  0  0  0
    8.3614    1.1100   -2.1051 C   0  0  0  0  0  0  0  0  0  0  0  0
    6.9827    0.9075   -1.9816 C   0  0  0  0  0  0  0  0  0  0  0  0
    6.7063   -0.3884   -1.6471 O   0  0  0  0  0  0  0  0  0  0  0  0
    5.7215   -1.1091   -2.3710 C   0  0  0  0  0  0  0  0  0  0  0  0
    0.8294   -0.4918    1.2300 H   0  0  0  0  0  0  0  0  0  0  0  0
    0.3161    0.6592   -0.0211 H   0  0  0  0  0  0  0  0  0  0  0  0
    1.1155    1.2439    1.4812 H   0  0  0  0  0  0  0  0  0  0  0  0
    2.9291    2.2949    0.1544 H   0  0  0  0  0  0  0  0  0  0  0  0
    2.0873    1.7686   -1.3240 H   0  0  0  0  0  0  0  0  0  0  0  0
    3.8576    0.3275   -1.9291 H   0  0  0  0  0  0  0  0  0  0  0  0
    4.7636    0.6395   -0.4047 H   0  0  0  0  0  0  0  0  0  0  0  0
    6.0817    4.1706   -2.2749 H   0  0  0  0  0  0  0  0  0  0  0  0
   10.3233    5.8714   -2.6375 H   0  0  0  0  0  0  0  0  0  0  0  0
   11.0290    1.0763   -3.3202 H   0  0  0  0  0  0  0  0  0  0  0  0
   12.5226    0.7237    2.4966 H   0  0  0  0  0  0  0  0  0  0  0  0
   13.3535    2.0430    1.6533 H   0  0  0  0  0  0  0  0  0  0  0  0
   14.1400    0.4454    1.8490 H   0  0  0  0  0  0  0  0  0  0  0  0
   17.4149    4.3953   -0.1612 H   0  0  0  0  0  0  0  0  0  0  0  0
   17.0525    2.7352    0.3068 H   0  0  0  0  0  0  0  0  0  0  0  0
   15.7462    3.9775    0.2580 H   0  0  0  0  0  0  0  0  0  0  0  0
    9.0212    0.2441   -1.9830 H   0  0  0  0  0  0  0  0  0  0  0  0
    6.1515   -2.0404   -2.7504 H   0  0  0  0  0  0  0  0  0  0  0  0
    5.2878   -0.5590   -3.2113 H   0  0  0  0  0  0  0  0  0  0  0  0
    4.9506   -1.4121   -1.6532 H   0  0  0  0  0  0  0  0  0  0  0  0
  1  2  1  0  0  0  0
  1 32  1  0  0  0  0
  1 33  1  0  0  0  0
  1 34  1  0  0  0  0
  2  3  1  0  0  0  0
  3  4  1  0  0  0  0
  3 35  1  0  0  0  0
  3 36  1  0  0  0  0
  4  5  1  0  0  0  0
  4 37  1  0  0  0  0
  4 38  1  0  0  0  0
  5  6  1  0  0  0  0
  6  7  1  0  0  0  0
  6 29  2  0  0  0  0
  7  8  2  0  0  0  0
  7 39  1  0  0  0  0
  8  9  1  0  0  0  0
  8 27  1  0  0  0  0
  9 10  2  0  0  0  0
 10 11  1  0  0  0  0
 10 40  1  0  0  0  0
 11 12  2  0  0  0  0
 12 13  1  0  0  0  0
 12 27  1  0  0  0  0
 13 14  1  0  0  0  0
 13 41  1  0  0  0  0
 14 15  2  0  0  0  0
 14 25  1  0  0  0  0
 15 16  1  0  0  0  0
 15 18  1  0  0  0  0
 16 17  1  0  0  0  0
 17 42  1  0  0  0  0
 17 43  1  0  0  0  0
 17 44  1  0  0  0  0
 18 19  2  0  0  0  0
 18 20  1  0  0  0  0
 20 21  1  0  0  0  0
 20 23  2  0  0  0  0
 21 22  1  0  0  0  0
 22 45  1  0  0  0  0
 22 46  1  0  0  0  0
 22 47  1  0  0  0  0
 23 24  1  0  0  0  0
 23 25  1  0  0  0  0
 25 26  2  0  0  0  0
 27 28  2  0  0  0  0
 28 29  1  0  0  0  0
 28 48  1  0  0  0  0
 29 30  1  0  0  0  0
 30 31  1  0  0  0  0
 31 49  1  0  0  0  0
 31 50  1  0  0  0  0
 31 51  1  0  0  0  0
M  END
$$$$
