CHEMBL1172814
 OpenBabel04072215363D

 50 53  0  0  0  0  0  0  0  0999 V2000
    0.8361    0.2305    0.0065 C   0  0  0  0  0  0  0  0  0  0  0  0
    2.1799    0.2426   -0.4698 O   0  0  0  0  0  0  0  0  0  0  0  0
    2.8476    1.4352   -0.3818 C   0  0  0  0  0  0  0  0  0  0  0  0
    2.5085    2.4001    0.5647 C   0  0  0  0  0  0  0  0  0  0  0  0
    3.2297    3.5891    0.6692 C   0  0  0  0  0  0  0  0  0  0  0  0
    4.3301    3.8496   -0.1453 C   0  0  0  0  0  0  0  0  0  0  0  0
    5.0694    5.0617   -0.0743 N   0  0  0  0  0  0  0  0  0  0  0  0
    4.8606    6.0686    0.8546 C   0  0  0  0  0  0  0  0  0  0  0  0
    4.0756    6.0063    1.7946 O   0  0  0  0  0  0  0  0  0  0  0  0
    5.6110    7.2108    0.5924 N   0  0  0  0  0  0  0  0  0  0  0  0
    5.5184    8.3211    1.4754 C   0  0  0  0  0  0  0  0  0  0  0  0
    5.5544    8.1254    2.8752 C   0  0  0  0  0  0  0  0  0  0  0  0
    5.3582    9.1817    3.7698 C   0  0  0  0  0  0  0  0  0  0  0  0
    5.1250   10.4380    3.2463 C   0  0  0  0  0  0  0  0  0  0  0  0
    5.1254   10.6326    1.8610 C   0  0  0  0  0  0  0  0  0  0  0  0
    5.3393    9.6059    0.9542 C   0  0  0  0  0  0  0  0  0  0  0  0
    4.8593   11.9668    1.5670 N   0  0  0  0  0  0  0  0  0  0  0  0
    4.6767   12.7165    2.7199 C   0  0  0  0  0  0  0  0  0  0  0  0
    4.4392   13.9094    2.7689 O   0  0  0  0  0  0  0  0  0  0  0  0
    4.8347   11.7450    3.8646 C   0  0  0  0  0  0  0  0  0  0  0  0
    4.7376   11.9123    5.1932 C   0  0  0  0  0  0  0  0  0  0  0  0
    4.4693   13.0899    5.9406 C   0  0  0  0  0  0  0  0  0  0  0  0
    4.3404   13.2688    7.3084 C   0  0  0  0  0  0  0  0  0  0  0  0
    4.1124   14.6422    7.5600 C   0  0  0  0  0  0  0  0  0  0  0  0
    4.0979   15.2742    6.3399 C   0  0  0  0  0  0  0  0  0  0  0  0
    4.3007   14.3275    5.3665 N   0  0  0  0  0  0  0  0  0  0  0  0
    4.6935    2.8732   -1.0800 C   0  0  0  0  0  0  0  0  0  0  0  0
    3.9529    1.6769   -1.2161 C   0  0  0  0  0  0  0  0  0  0  0  0
    4.4481    0.8351   -2.1837 O   0  0  0  0  0  0  0  0  0  0  0  0
    3.5077   -0.0181   -2.8297 C   0  0  0  0  0  0  0  0  0  0  0  0
    0.3999   -0.7414   -0.2409 H   0  0  0  0  0  0  0  0  0  0  0  0
    0.2380    1.0044   -0.4875 H   0  0  0  0  0  0  0  0  0  0  0  0
    0.7937    0.3343    1.0957 H   0  0  0  0  0  0  0  0  0  0  0  0
    1.6938    2.2623    1.2670 H   0  0  0  0  0  0  0  0  0  0  0  0
    2.8878    4.2836    1.4276 H   0  0  0  0  0  0  0  0  0  0  0  0
    5.8797    5.1432   -0.6712 H   0  0  0  0  0  0  0  0  0  0  0  0
    5.7333    7.4172   -0.3884 H   0  0  0  0  0  0  0  0  0  0  0  0
    5.7131    7.1281    3.2834 H   0  0  0  0  0  0  0  0  0  0  0  0
    5.3680    8.9928    4.8375 H   0  0  0  0  0  0  0  0  0  0  0  0
    5.2922    9.7874   -0.1121 H   0  0  0  0  0  0  0  0  0  0  0  0
    4.7859   12.3668    0.6442 H   0  0  0  0  0  0  0  0  0  0  0  0
    4.8791   11.0332    5.8196 H   0  0  0  0  0  0  0  0  0  0  0  0
    4.4121   12.4893    8.0575 H   0  0  0  0  0  0  0  0  0  0  0  0
    3.9804   15.1176    8.5225 H   0  0  0  0  0  0  0  0  0  0  0  0
    3.9572   16.3111    6.0709 H   0  0  0  0  0  0  0  0  0  0  0  0
    4.3246   14.5251    4.3712 H   0  0  0  0  0  0  0  0  0  0  0  0
    5.5506    3.0222   -1.7321 H   0  0  0  0  0  0  0  0  0  0  0  0
    3.9726   -0.3898   -3.7484 H   0  0  0  0  0  0  0  0  0  0  0  0
    2.5984    0.5218   -3.1170 H   0  0  0  0  0  0  0  0  0  0  0  0
    3.2799   -0.8950   -2.2167 H   0  0  0  0  0  0  0  0  0  0  0  0
  1  2  1  0  0  0  0
  1 31  1  0  0  0  0
  1 32  1  0  0  0  0
  1 33  1  0  0  0  0
  2  3  1  0  0  0  0
  3  4  1  0  0  0  0
  3 28  2  0  0  0  0
  4  5  2  0  0  0  0
  4 34  1  0  0  0  0
  5  6  1  0  0  0  0
  5 35  1  0  0  0  0
  6  7  1  0  0  0  0
  6 27  2  0  0  0  0
  7  8  1  0  0  0  0
  7 36  1  0  0  0  0
  8  9  2  0  0  0  0
  8 10  1  0  0  0  0
 10 11  1  0  0  0  0
 10 37  1  0  0  0  0
 11 12  1  0  0  0  0
 11 16  2  0  0  0  0
 12 13  2  0  0  0  0
 12 38  1  0  0  0  0
 13 14  1  0  0  0  0
 13 39  1  0  0  0  0
 14 15  2  0  0  0  0
 14 20  1  0  0  0  0
 15 16  1  0  0  0  0
 15 17  1  0  0  0  0
 16 40  1  0  0  0  0
 17 18  1  0  0  0  0
 17 41  1  0  0  0  0
 18 19  2  0  0  0  0
 18 20  1  0  0  0  0
 20 21  2  0  0  0  0
 21 22  1  0  0  0  0
 21 42  1  0  0  0  0
 22 23  2  0  0  0  0
 22 26  1  0  0  0  0
 23 24  1  0  0  0  0
 23 43  1  0  0  0  0
 24 25  2  0  0  0  0
 24 44  1  0  0  0  0
 25 26  1  0  0  0  0
 25 45  1  0  0  0  0
 26 46  1  0  0  0  0
 27 28  1  0  0  0  0
 27 47  1  0  0  0  0
 28 29  1  0  0  0  0
 29 30  1  0  0  0  0
 30 48  1  0  0  0  0
 30 49  1  0  0  0  0
 30 50  1  0  0  0  0
M  END
$$$$
