CHEMBL151656
 OpenBabel04072215363D

 55 60  0  0  1  0  0  0  0  0999 V2000
    3.5991   -1.3111   -0.8177 C   0  0  0  0  0  0  0  0  0  0  0  0
    2.4406   -0.5095   -0.2320 C   0  0  3  0  0  0  0  0  0  0  0  0
    1.5321   -1.4064    0.3968 O   0  0  0  0  0  0  0  0  0  0  0  0
    2.9228    0.5343    0.7491 C   0  0  0  0  0  0  0  0  0  0  0  0
    3.7472    0.1840    1.8216 C   0  0  0  0  0  0  0  0  0  0  0  0
    4.3035    1.1448    2.6616 C   0  0  0  0  0  0  0  0  0  0  0  0
    4.0229    2.4912    2.4049 C   0  0  0  0  0  0  0  0  0  0  0  0
    3.1470    2.8758    1.3629 C   0  0  0  0  0  0  0  0  0  0  0  0
    2.5544    1.8751    0.5625 C   0  0  0  0  0  0  0  0  0  0  0  0
    3.0731    4.2323    1.5188 C   0  0  0  0  0  0  0  0  0  0  0  0
    1.9173    5.0161    1.2608 C   0  0  0  0  0  0  0  0  0  0  0  0
    1.6995    6.1432    2.1686 C   0  0  0  0  0  0  0  0  0  0  0  0
    2.6974    6.4342    3.1209 C   0  0  0  0  0  0  0  0  0  0  0  0
    3.9450    6.0995    2.5964 C   0  0  0  0  0  0  0  0  0  0  0  0
    4.0402    4.7700    2.3121 C   0  0  0  0  0  0  0  0  0  0  0  0
    4.3992    3.6604    3.0978 N   0  0  0  0  0  0  0  0  0  0  0  0
    4.4592    3.7303    4.5589 C   0  0  0  0  0  0  0  0  0  0  0  0
    5.3084    2.7649    5.3750 C   0  0  0  0  0  0  0  0  0  0  0  0
    6.7740    2.8616    5.0073 C   0  0  0  0  0  0  0  0  0  0  0  0
    7.5217    1.9224    5.7695 O   0  0  0  0  0  0  0  0  0  0  0  0
    4.9106    7.1522    2.9259 C   0  0  0  0  0  0  0  0  0  0  0  0
    4.4643    7.3693    4.3415 C   0  0  0  0  0  0  0  0  0  0  0  0
    5.4162    7.3056    5.3605 C   0  0  0  0  0  0  0  0  0  0  0  0
    5.0174    6.7609    6.5638 C   0  0  0  0  0  0  0  0  0  0  0  0
    3.6732    6.3840    6.7428 C   0  0  0  0  0  0  0  0  0  0  0  0
    2.6949    6.5143    5.7065 C   0  0  0  0  0  0  0  0  0  0  0  0
    3.0718    6.9931    4.4424 C   0  0  0  0  0  0  0  0  0  0  0  0
    0.8713    7.0793    1.4379 C   0  0  0  0  0  0  0  0  0  0  0  0
    0.5523    8.2394    1.6512 O   0  0  0  0  0  0  0  0  0  0  0  0
    0.6161    6.4457    0.2048 N   0  0  0  0  0  0  0  0  0  0  0  0
    1.1992    5.1327    0.0048 C   0  0  0  0  0  0  0  0  0  0  0  0
    3.2315   -2.0174   -1.5678 H   0  0  0  0  0  0  0  0  0  0  0  0
    4.1010   -1.9119   -0.0511 H   0  0  0  0  0  0  0  0  0  0  0  0
    4.3445   -0.6577   -1.2840 H   0  0  0  0  0  0  0  0  0  0  0  0
    1.9060   -0.0256   -1.0579 H   0  0  0  0  0  0  0  0  0  0  0  0
    1.5082   -1.1915    1.3444 H   0  0  0  0  0  0  0  0  0  0  0  0
    3.9890   -0.8584    2.0117 H   0  0  0  0  0  0  0  0  0  0  0  0
    4.9429    0.8303    3.4752 H   0  0  0  0  0  0  0  0  0  0  0  0
    1.8892    2.1662   -0.2440 H   0  0  0  0  0  0  0  0  0  0  0  0
    3.4195    3.6678    4.9102 H   0  0  0  0  0  0  0  0  0  0  0  0
    4.8376    4.7168    4.7916 H   0  0  0  0  0  0  0  0  0  0  0  0
    4.9448    1.7355    5.3218 H   0  0  0  0  0  0  0  0  0  0  0  0
    5.2013    3.0234    6.4389 H   0  0  0  0  0  0  0  0  0  0  0  0
    7.1652    3.8639    5.2079 H   0  0  0  0  0  0  0  0  0  0  0  0
    6.9301    2.6356    3.9482 H   0  0  0  0  0  0  0  0  0  0  0  0
    7.4560    2.1796    6.7050 H   0  0  0  0  0  0  0  0  0  0  0  0
    4.6629    8.0596    2.3481 H   0  0  0  0  0  0  0  0  0  0  0  0
    5.9480    6.8739    2.7587 H   0  0  0  0  0  0  0  0  0  0  0  0
    6.4702    7.4395    5.1245 H   0  0  0  0  0  0  0  0  0  0  0  0
    5.7763    6.5174    7.3063 H   0  0  0  0  0  0  0  0  0  0  0  0
    3.4191    5.8716    7.6712 H   0  0  0  0  0  0  0  0  0  0  0  0
    1.7331    6.0327    5.8669 H   0  0  0  0  0  0  0  0  0  0  0  0
    0.3942    7.0420   -0.5808 H   0  0  0  0  0  0  0  0  0  0  0  0
    1.8994    5.1556   -0.8361 H   0  0  0  0  0  0  0  0  0  0  0  0
    0.4154    4.3889   -0.1430 H   0  0  0  0  0  0  0  0  0  0  0  0
  1  2  1  0  0  0  0
  1 32  1  0  0  0  0
  1 33  1  0  0  0  0
  1 34  1  0  0  0  0
  2  3  1  0  0  0  0
  2  4  1  0  0  0  0
  2 35  1  0  0  0  0
  3 36  1  0  0  0  0
  4  5  1  0  0  0  0
  4  9  2  0  0  0  0
  5  6  2  0  0  0  0
  5 37  1  0  0  0  0
  6  7  1  0  0  0  0
  6 38  1  0  0  0  0
  7  8  2  0  0  0  0
  7 16  1  0  0  0  0
  8  9  1  0  0  0  0
  8 10  1  0  0  0  0
  9 39  1  0  0  0  0
 10 11  1  0  0  0  0
 10 15  2  0  0  0  0
 11 12  2  0  0  0  0
 11 31  1  0  0  0  0
 12 13  1  0  0  0  0
 12 28  1  0  0  0  0
 13 14  2  0  0  0  0
 13 27  1  0  0  0  0
 14 15  1  0  0  0  0
 14 21  1  0  0  0  0
 15 16  1  0  0  0  0
 16 17  1  0  0  0  0
 17 18  1  0  0  0  0
 17 40  1  0  0  0  0
 17 41  1  0  0  0  0
 18 19  1  0  0  0  0
 18 42  1  0  0  0  0
 18 43  1  0  0  0  0
 19 20  1  0  0  0  0
 19 44  1  0  0  0  0
 19 45  1  0  0  0  0
 20 46  1  0  0  0  0
 21 22  1  0  0  0  0
 21 47  1  0  0  0  0
 21 48  1  0  0  0  0
 22 23  1  0  0  0  0
 22 27  2  0  0  0  0
 23 24  2  0  0  0  0
 23 49  1  0  0  0  0
 24 25  1  0  0  0  0
 24 50  1  0  0  0  0
 25 26  2  0  0  0  0
 25 51  1  0  0  0  0
 26 27  1  0  0  0  0
 26 52  1  0  0  0  0
 28 29  2  0  0  0  0
 28 30  1  0  0  0  0
 30 31  1  0  0  0  0
 30 53  1  0  0  0  0
 31 54  1  0  0  0  0
 31 55  1  0  0  0  0
M  END
$$$$
