CHEMBL2337371
 OpenBabel04072215363D

 48 51  0  0  0  0  0  0  0  0999 V2000
    5.3131   -1.9203   -0.3886 C   0  0  0  0  0  0  0  0  0  0  0  0
    4.3978   -0.6911   -0.2049 C   0  0  0  0  0  0  0  0  0  0  0  0
    3.1685   -0.8604   -1.1069 C   0  0  0  0  0  0  0  0  0  0  0  0
    3.9679   -0.6273    1.2660 C   0  0  0  0  0  0  0  0  0  0  0  0
    5.1882    0.5717   -0.6217 C   0  0  0  0  0  0  0  0  0  0  0  0
    6.3133    0.4557   -1.1073 O   0  0  0  0  0  0  0  0  0  0  0  0
    4.5475    1.7724   -0.4199 N   0  0  0  0  0  0  0  0  0  0  0  0
    5.0820    3.0106   -0.7916 C   0  0  0  0  0  0  0  0  0  0  0  0
    4.4567    4.0797   -0.2725 N   0  0  0  0  0  0  0  0  0  0  0  0
    4.9246    5.3438   -0.5177 C   0  0  0  0  0  0  0  0  0  0  0  0
    4.3159    6.4197    0.1425 N   0  0  0  0  0  0  0  0  0  0  0  0
    2.9454    6.5891    0.4162 C   0  0  0  0  0  0  0  0  0  0  0  0
    2.5623    7.4441    1.4605 C   0  0  0  0  0  0  0  0  0  0  0  0
    1.2124    7.6567    1.7545 C   0  0  0  0  0  0  0  0  0  0  0  0
    0.2317    7.0273    0.9921 C   0  0  0  0  0  0  0  0  0  0  0  0
    0.6104    6.1902   -0.0500 C   0  0  0  0  0  0  0  0  0  0  0  0
   -0.3317    5.5968   -0.7950 F   0  0  0  0  0  0  0  0  0  0  0  0
    1.9503    5.9637   -0.3395 C   0  0  0  0  0  0  0  0  0  0  0  0
    6.0302    5.4908   -1.3839 C   0  0  0  0  0  0  0  0  0  0  0  0
    6.5392    4.3014   -1.8726 C   0  0  0  0  0  0  0  0  0  0  0  0
    6.1197    3.0649   -1.6141 N   0  0  0  0  0  0  0  0  0  0  0  0
    7.5902    4.5636   -2.6913 N   0  0  0  0  0  0  0  0  0  0  0  0
    7.7890    5.9164   -2.7907 C   0  0  0  0  0  0  0  0  0  0  0  0
    8.7428    6.6075   -3.5511 C   0  0  0  0  0  0  0  0  0  0  0  0
    8.7469    8.0001   -3.4972 C   0  0  0  0  0  0  0  0  0  0  0  0
    7.8286    8.6767   -2.7068 C   0  0  0  0  0  0  0  0  0  0  0  0
    6.8868    7.9629   -1.9575 C   0  0  0  0  0  0  0  0  0  0  0  0
    5.7586    8.8221   -1.0073 Cl  0  0  0  0  0  0  0  0  0  0  0  0
    6.8318    6.5469   -1.9724 C   0  0  0  0  0  0  0  0  0  0  0  0
    4.8016   -2.8492   -0.1171 H   0  0  0  0  0  0  0  0  0  0  0  0
    6.2118   -1.8374    0.2349 H   0  0  0  0  0  0  0  0  0  0  0  0
    5.6470   -2.0160   -1.4290 H   0  0  0  0  0  0  0  0  0  0  0  0
    2.6468   -1.7995   -0.8873 H   0  0  0  0  0  0  0  0  0  0  0  0
    3.4557   -0.8785   -2.1645 H   0  0  0  0  0  0  0  0  0  0  0  0
    2.4511   -0.0434   -0.9759 H   0  0  0  0  0  0  0  0  0  0  0  0
    3.5001   -1.5687    1.5778 H   0  0  0  0  0  0  0  0  0  0  0  0
    3.2411    0.1708    1.4491 H   0  0  0  0  0  0  0  0  0  0  0  0
    4.8278   -0.4474    1.9209 H   0  0  0  0  0  0  0  0  0  0  0  0
    3.7100    1.8468    0.1350 H   0  0  0  0  0  0  0  0  0  0  0  0
    4.7651    7.3080   -0.0600 H   0  0  0  0  0  0  0  0  0  0  0  0
    3.3214    7.9345    2.0666 H   0  0  0  0  0  0  0  0  0  0  0  0
    0.9305    8.3097    2.5762 H   0  0  0  0  0  0  0  0  0  0  0  0
   -0.8214    7.1828    1.1997 H   0  0  0  0  0  0  0  0  0  0  0  0
    2.2026    5.3163   -1.1725 H   0  0  0  0  0  0  0  0  0  0  0  0
    8.1231    3.8445   -3.1577 H   0  0  0  0  0  0  0  0  0  0  0  0
    9.4587    6.0770   -4.1734 H   0  0  0  0  0  0  0  0  0  0  0  0
    9.4740    8.5585   -4.0828 H   0  0  0  0  0  0  0  0  0  0  0  0
    7.8421    9.7634   -2.6786 H   0  0  0  0  0  0  0  0  0  0  0  0
  1  2  1  0  0  0  0
  1 30  1  0  0  0  0
  1 31  1  0  0  0  0
  1 32  1  0  0  0  0
  2  3  1  0  0  0  0
  2  4  1  0  0  0  0
  2  5  1  0  0  0  0
  3 33  1  0  0  0  0
  3 34  1  0  0  0  0
  3 35  1  0  0  0  0
  4 36  1  0  0  0  0
  4 37  1  0  0  0  0
  4 38  1  0  0  0  0
  5  6  2  0  0  0  0
  5  7  1  0  0  0  0
  7  8  1  0  0  0  0
  7 39  1  0  0  0  0
  8  9  1  0  0  0  0
  8 21  2  0  0  0  0
  9 10  2  0  0  0  0
 10 11  1  0  0  0  0
 10 19  1  0  0  0  0
 11 12  1  0  0  0  0
 11 40  1  0  0  0  0
 12 13  1  0  0  0  0
 12 18  2  0  0  0  0
 13 14  2  0  0  0  0
 13 41  1  0  0  0  0
 14 15  1  0  0  0  0
 14 42  1  0  0  0  0
 15 16  2  0  0  0  0
 15 43  1  0  0  0  0
 16 17  1  0  0  0  0
 16 18  1  0  0  0  0
 18 44  1  0  0  0  0
 19 20  2  0  0  0  0
 19 29  1  0  0  0  0
 20 21  1  0  0  0  0
 20 22  1  0  0  0  0
 22 23  1  0  0  0  0
 22 45  1  0  0  0  0
 23 24  1  0  0  0  0
 23 29  2  0  0  0  0
 24 25  2  0  0  0  0
 24 46  1  0  0  0  0
 25 26  1  0  0  0  0
 25 47  1  0  0  0  0
 26 27  2  0  0  0  0
 26 48  1  0  0  0  0
 27 28  1  0  0  0  0
 27 29  1  0  0  0  0
M  END
$$$$
