CHEMBL3593289
 OpenBabel04072215363D

 72 76  0  0  0  0  0  0  0  0999 V2000
   11.2111  -11.1767    2.3237 C   0  0  0  0  0  0  0  0  0  0  0  0
   10.3833  -10.1840    3.1241 C   0  0  0  0  0  0  0  0  0  0  0  0
    9.1489   -9.7470    2.3403 C   0  0  0  0  0  0  0  0  0  0  0  0
    8.3001   -8.7508    3.1311 C   0  0  0  0  0  0  0  0  0  0  0  0
    7.1228   -8.3190    2.3454 C   0  0  0  0  0  0  0  0  0  0  0  0
    6.7019   -7.1264    1.8093 C   0  0  0  0  0  0  0  0  0  0  0  0
    5.4976   -7.4467    1.1425 C   0  0  0  0  0  0  0  0  0  0  0  0
    4.7396   -6.5478    0.4250 N   0  0  0  0  0  0  0  0  0  0  0  0
    3.6007   -6.7986   -0.2880 C   0  0  0  0  0  0  0  0  0  0  0  0
    3.1236   -5.8879   -0.9648 O   0  0  0  0  0  0  0  0  0  0  0  0
    3.0564   -8.0474   -0.1499 N   0  0  0  0  0  0  0  0  0  0  0  0
    1.9029   -8.4828   -0.8067 C   0  0  0  0  0  0  0  0  0  0  0  0
    1.6932   -8.2185   -2.1569 C   0  0  0  0  0  0  0  0  0  0  0  0
    0.5267   -8.6650   -2.7742 C   0  0  0  0  0  0  0  0  0  0  0  0
   -0.4591   -9.3472   -2.0417 C   0  0  0  0  0  0  0  0  0  0  0  0
   -1.6793   -9.7785   -2.7187 C   0  0  0  0  0  0  0  0  0  0  0  0
   -1.8186  -10.2490   -4.0061 C   0  0  0  0  0  0  0  0  0  0  0  0
   -3.1001  -10.5232   -4.4044 N   0  0  0  0  0  0  0  0  0  0  0  0
   -3.9652  -10.2335   -3.4571 C   0  0  0  0  0  0  0  0  0  0  0  0
   -5.3140  -10.2872   -3.5692 N   0  0  0  0  0  0  0  0  0  0  0  0
   -6.0322  -10.2640   -4.7723 C   0  0  0  0  0  0  0  0  0  0  0  0
   -5.4959  -10.6689   -5.9795 C   0  0  0  0  0  0  0  0  0  0  0  0
   -6.2346  -10.5474   -7.1317 C   0  0  0  0  0  0  0  0  0  0  0  0
   -5.7675  -10.9851   -8.3536 N   0  0  0  0  0  0  0  0  0  0  0  0
   -6.1637  -10.2469   -9.5588 C   0  0  0  0  0  0  0  0  0  0  0  0
   -6.2603  -11.2195  -10.7569 C   0  0  0  0  0  0  0  0  0  0  0  0
   -5.0247  -12.0149  -10.9624 N   0  0  0  0  0  0  0  0  0  0  0  0
   -5.2075  -12.9677  -12.0539 C   0  0  0  0  0  0  0  0  0  0  0  0
   -4.6980  -12.7312   -9.7101 C   0  0  0  0  0  0  0  0  0  0  0  0
   -4.5463  -11.7827   -8.5018 C   0  0  0  0  0  0  0  0  0  0  0  0
   -7.4764  -10.0465   -7.0695 N   0  0  0  0  0  0  0  0  0  0  0  0
   -7.9671   -9.7234   -5.8615 C   0  0  0  0  0  0  0  0  0  0  0  0
   -9.3830   -9.2457   -5.8072 C   0  0  0  0  0  0  0  0  0  0  0  0
   -7.2948   -9.8150   -4.7007 N   0  0  0  0  0  0  0  0  0  0  0  0
   -3.2311   -9.7088   -1.9838 S   0  0  0  0  0  0  0  0  0  0  0  0
   -0.2259   -9.6195   -0.6882 C   0  0  0  0  0  0  0  0  0  0  0  0
    0.9653   -9.2175   -0.0816 C   0  0  0  0  0  0  0  0  0  0  0  0
    5.1976   -8.7402    1.3040 N   0  0  0  0  0  0  0  0  0  0  0  0
    6.2170   -9.2856    2.0486 O   0  0  0  0  0  0  0  0  0  0  0  0
   12.0939  -11.4827    2.8927 H   0  0  0  0  0  0  0  0  0  0  0  0
   11.5488  -10.7332    1.3814 H   0  0  0  0  0  0  0  0  0  0  0  0
   10.6280  -12.0734    2.0901 H   0  0  0  0  0  0  0  0  0  0  0  0
   10.9994   -9.3110    3.3679 H   0  0  0  0  0  0  0  0  0  0  0  0
   10.0806  -10.6453    4.0712 H   0  0  0  0  0  0  0  0  0  0  0  0
    8.5479  -10.6310    2.0894 H   0  0  0  0  0  0  0  0  0  0  0  0
    9.4565   -9.2977    1.3871 H   0  0  0  0  0  0  0  0  0  0  0  0
    8.9030   -7.8761    3.4017 H   0  0  0  0  0  0  0  0  0  0  0  0
    7.9574   -9.2085    4.0669 H   0  0  0  0  0  0  0  0  0  0  0  0
    7.2003   -6.1718    1.8754 H   0  0  0  0  0  0  0  0  0  0  0  0
    5.0703   -5.5977    0.3482 H   0  0  0  0  0  0  0  0  0  0  0  0
    3.3281   -8.5363    0.6966 H   0  0  0  0  0  0  0  0  0  0  0  0
    2.4425   -7.6940   -2.7445 H   0  0  0  0  0  0  0  0  0  0  0  0
    0.3936   -8.4557   -3.8334 H   0  0  0  0  0  0  0  0  0  0  0  0
   -1.0082  -10.4013   -4.7085 H   0  0  0  0  0  0  0  0  0  0  0  0
   -5.8839   -9.9313   -2.8163 H   0  0  0  0  0  0  0  0  0  0  0  0
   -4.4898  -11.0641   -6.0256 H   0  0  0  0  0  0  0  0  0  0  0  0
   -5.4156   -9.4714   -9.7711 H   0  0  0  0  0  0  0  0  0  0  0  0
   -7.1301   -9.7413   -9.4526 H   0  0  0  0  0  0  0  0  0  0  0  0
   -6.4716  -10.6352  -11.6601 H   0  0  0  0  0  0  0  0  0  0  0  0
   -7.1154  -11.8889  -10.5892 H   0  0  0  0  0  0  0  0  0  0  0  0
   -5.4090  -12.4396  -12.9917 H   0  0  0  0  0  0  0  0  0  0  0  0
   -6.0319  -13.6650  -11.8645 H   0  0  0  0  0  0  0  0  0  0  0  0
   -4.2932  -13.5514  -12.2083 H   0  0  0  0  0  0  0  0  0  0  0  0
   -3.7609  -13.2867   -9.8323 H   0  0  0  0  0  0  0  0  0  0  0  0
   -5.4850  -13.4631   -9.4780 H   0  0  0  0  0  0  0  0  0  0  0  0
   -3.6770  -11.1259   -8.6334 H   0  0  0  0  0  0  0  0  0  0  0  0
   -4.3625  -12.4188   -7.6289 H   0  0  0  0  0  0  0  0  0  0  0  0
   -9.8181   -9.1960   -6.8104 H   0  0  0  0  0  0  0  0  0  0  0  0
   -9.4249   -8.2477   -5.3617 H   0  0  0  0  0  0  0  0  0  0  0  0
   -9.9839   -9.9327   -5.2047 H   0  0  0  0  0  0  0  0  0  0  0  0
   -0.9623  -10.1493   -0.0893 H   0  0  0  0  0  0  0  0  0  0  0  0
    1.1226   -9.4301    0.9722 H   0  0  0  0  0  0  0  0  0  0  0  0
  1  2  1  0  0  0  0
  1 40  1  0  0  0  0
  1 41  1  0  0  0  0
  1 42  1  0  0  0  0
  2  3  1  0  0  0  0
  2 43  1  0  0  0  0
  2 44  1  0  0  0  0
  3  4  1  0  0  0  0
  3 45  1  0  0  0  0
  3 46  1  0  0  0  0
  4  5  1  0  0  0  0
  4 47  1  0  0  0  0
  4 48  1  0  0  0  0
  5  6  2  0  0  0  0
  5 39  1  0  0  0  0
  6  7  1  0  0  0  0
  6 49  1  0  0  0  0
  7  8  1  0  0  0  0
  7 38  2  0  0  0  0
  8  9  1  0  0  0  0
  8 50  1  0  0  0  0
  9 10  2  0  0  0  0
  9 11  1  0  0  0  0
 11 12  1  0  0  0  0
 11 51  1  0  0  0  0
 12 13  1  0  0  0  0
 12 37  2  0  0  0  0
 13 14  2  0  0  0  0
 13 52  1  0  0  0  0
 14 15  1  0  0  0  0
 14 53  1  0  0  0  0
 15 16  1  0  0  0  0
 15 36  2  0  0  0  0
 16 17  2  0  0  0  0
 16 35  1  0  0  0  0
 17 18  1  0  0  0  0
 17 54  1  0  0  0  0
 18 19  2  0  0  0  0
 19 20  1  0  0  0  0
 19 35  1  0  0  0  0
 20 21  1  0  0  0  0
 20 55  1  0  0  0  0
 21 22  1  0  0  0  0
 21 34  2  0  0  0  0
 22 23  2  0  0  0  0
 22 56  1  0  0  0  0
 23 24  1  0  0  0  0
 23 31  1  0  0  0  0
 24 25  1  0  0  0  0
 24 30  1  0  0  0  0
 25 26  1  0  0  0  0
 25 57  1  0  0  0  0
 25 58  1  0  0  0  0
 26 27  1  0  0  0  0
 26 59  1  0  0  0  0
 26 60  1  0  0  0  0
 27 28  1  0  0  0  0
 27 29  1  0  0  0  0
 28 61  1  0  0  0  0
 28 62  1  0  0  0  0
 28 63  1  0  0  0  0
 29 30  1  0  0  0  0
 29 64  1  0  0  0  0
 29 65  1  0  0  0  0
 30 66  1  0  0  0  0
 30 67  1  0  0  0  0
 31 32  2  0  0  0  0
 32 33  1  0  0  0  0
 32 34  1  0  0  0  0
 33 68  1  0  0  0  0
 33 69  1  0  0  0  0
 33 70  1  0  0  0  0
 36 37  1  0  0  0  0
 36 71  1  0  0  0  0
 37 72  1  0  0  0  0
 38 39  1  0  0  0  0
M  END
$$$$
