CHEMBL3671567
 OpenBabel04072215373D

 59 62  0  0  1  0  0  0  0  0999 V2000
    3.3748   -3.4122    1.8182 C   0  0  0  0  0  0  0  0  0  0  0  0
    3.4934   -2.9477    0.5685 C   0  0  0  0  0  0  0  0  0  0  0  0
    3.6981   -1.4912    0.3443 C   0  0  0  0  0  0  0  0  0  0  0  0
    3.2445   -0.6419    1.1055 O   0  0  0  0  0  0  0  0  0  0  0  0
    4.4644   -1.1176   -0.7392 N   0  0  0  0  0  0  0  0  0  0  0  0
    5.3276   -2.0157   -1.3937 C   0  0  0  0  0  0  0  0  0  0  0  0
    6.4133   -2.5137   -0.6670 C   0  0  0  0  0  0  0  0  0  0  0  0
    7.1056   -3.6537   -1.1199 C   0  0  0  0  0  0  0  0  0  0  0  0
    8.0815   -4.3329   -0.3754 C   0  0  0  0  0  0  0  0  0  0  0  0
    8.3892   -3.9100    0.9466 N   0  0  0  0  0  0  0  0  0  0  0  0
    9.0368   -4.7362    1.8970 C   0  0  0  0  0  0  0  0  0  0  0  0
    8.6537   -6.0752    2.0628 C   0  0  0  0  0  0  0  0  0  0  0  0
    9.3814   -6.9304    2.8904 C   0  0  0  0  0  0  0  0  0  0  0  0
   10.4850   -6.4401    3.5844 C   0  0  0  0  0  0  0  0  0  0  0  0
   11.5369   -7.6261    4.6129 Br  0  0  0  0  0  0  0  0  0  0  0  0
   10.8330   -5.0938    3.5028 C   0  0  0  0  0  0  0  0  0  0  0  0
   10.0996   -4.2532    2.6691 C   0  0  0  0  0  0  0  0  0  0  0  0
   10.4530   -2.9617    2.5705 F   0  0  0  0  0  0  0  0  0  0  0  0
    8.6878   -5.4376   -0.8487 N   0  0  0  0  0  0  0  0  0  0  0  0
    8.3026   -5.8793   -2.0459 C   0  0  0  0  0  0  0  0  0  0  0  0
    7.3547   -5.3364   -2.8156 N   0  0  0  0  0  0  0  0  0  0  0  0
    6.7553   -4.2385   -2.3470 C   0  0  0  0  0  0  0  0  0  0  0  0
    5.7191   -3.6747   -3.0862 C   0  0  0  0  0  0  0  0  0  0  0  0
    5.0085   -2.5539   -2.6434 C   0  0  0  0  0  0  0  0  0  0  0  0
    4.0040   -2.1293   -3.4816 O   0  0  0  0  0  0  0  0  0  0  0  0
    3.7508   -0.7171   -3.4623 C   0  0  0  0  0  0  0  0  0  0  0  0
    3.2853   -0.2202   -4.8362 C   0  0  0  0  0  0  0  0  0  0  0  0
    3.1745    1.2309   -4.8762 N   0  0  0  0  0  0  0  0  0  0  0  0
    4.2845    2.0321   -5.0007 C   0  0  0  0  0  0  0  0  0  0  0  0
    5.4108    1.5678   -5.1822 O   0  0  0  0  0  0  0  0  0  0  0  0
    4.0629    3.5331   -4.7917 C   0  0  3  0  0  0  0  0  0  0  0  0
    4.4330    3.9390   -3.3833 C   0  0  0  0  0  0  0  0  0  0  0  0
    3.7820    5.3079   -3.2549 C   0  0  0  0  0  0  0  0  0  0  0  0
    2.5644    5.2340   -4.1702 C   0  0  0  0  0  0  0  0  0  0  0  0
    2.6370    3.9371   -4.8638 N   0  0  0  0  0  0  0  0  0  0  0  0
    3.2924   -4.4766    2.0096 H   0  0  0  0  0  0  0  0  0  0  0  0
    3.3787   -2.7429    2.6739 H   0  0  0  0  0  0  0  0  0  0  0  0
    3.5093   -3.6212   -0.2791 H   0  0  0  0  0  0  0  0  0  0  0  0
    4.8264   -0.1840   -0.5737 H   0  0  0  0  0  0  0  0  0  0  0  0
    6.6515   -2.0784    0.3009 H   0  0  0  0  0  0  0  0  0  0  0  0
    8.7661   -2.9650    0.9466 H   0  0  0  0  0  0  0  0  0  0  0  0
    7.8047   -6.4693    1.5084 H   0  0  0  0  0  0  0  0  0  0  0  0
    9.0936   -7.9763    2.9568 H   0  0  0  0  0  0  0  0  0  0  0  0
   11.6799   -4.6953    4.0505 H   0  0  0  0  0  0  0  0  0  0  0  0
    8.7973   -6.7685   -2.4202 H   0  0  0  0  0  0  0  0  0  0  0  0
    5.4339   -4.1468   -4.0251 H   0  0  0  0  0  0  0  0  0  0  0  0
    4.6514   -0.1574   -3.1835 H   0  0  0  0  0  0  0  0  0  0  0  0
    2.9567   -0.5116   -2.7348 H   0  0  0  0  0  0  0  0  0  0  0  0
    2.3115   -0.6465   -5.0957 H   0  0  0  0  0  0  0  0  0  0  0  0
    3.9949   -0.5442   -5.6066 H   0  0  0  0  0  0  0  0  0  0  0  0
    2.3089    1.7052   -4.6242 H   0  0  0  0  0  0  0  0  0  0  0  0
    4.6405    4.0811   -5.5436 H   0  0  0  0  0  0  0  0  0  0  0  0
    5.5138    3.9843   -3.2214 H   0  0  0  0  0  0  0  0  0  0  0  0
    4.0104    3.2536   -2.6391 H   0  0  0  0  0  0  0  0  0  0  0  0
    4.4725    6.0815   -3.6136 H   0  0  0  0  0  0  0  0  0  0  0  0
    3.5200    5.5423   -2.2190 H   0  0  0  0  0  0  0  0  0  0  0  0
    2.5790    6.0650   -4.8849 H   0  0  0  0  0  0  0  0  0  0  0  0
    1.6346    5.2994   -3.5969 H   0  0  0  0  0  0  0  0  0  0  0  0
    2.3690    4.0560   -5.8423 H   0  0  0  0  0  0  0  0  0  0  0  0
  1  2  2  0  0  0  0
  1 36  1  0  0  0  0
  1 37  1  0  0  0  0
  2  3  1  0  0  0  0
  2 38  1  0  0  0  0
  3  4  2  0  0  0  0
  3  5  1  0  0  0  0
  5  6  1  0  0  0  0
  5 39  1  0  0  0  0
  6  7  1  0  0  0  0
  6 24  2  0  0  0  0
  7  8  2  0  0  0  0
  7 40  1  0  0  0  0
  8  9  1  0  0  0  0
  8 22  1  0  0  0  0
  9 10  1  0  0  0  0
  9 19  2  0  0  0  0
 10 11  1  0  0  0  0
 10 41  1  0  0  0  0
 11 12  1  0  0  0  0
 11 17  2  0  0  0  0
 12 13  2  0  0  0  0
 12 42  1  0  0  0  0
 13 14  1  0  0  0  0
 13 43  1  0  0  0  0
 14 15  1  0  0  0  0
 14 16  2  0  0  0  0
 16 17  1  0  0  0  0
 16 44  1  0  0  0  0
 17 18  1  0  0  0  0
 19 20  1  0  0  0  0
 20 21  2  0  0  0  0
 20 45  1  0  0  0  0
 21 22  1  0  0  0  0
 22 23  2  0  0  0  0
 23 24  1  0  0  0  0
 23 46  1  0  0  0  0
 24 25  1  0  0  0  0
 25 26  1  0  0  0  0
 26 27  1  0  0  0  0
 26 47  1  0  0  0  0
 26 48  1  0  0  0  0
 27 28  1  0  0  0  0
 27 49  1  0  0  0  0
 27 50  1  0  0  0  0
 28 29  1  0  0  0  0
 28 51  1  0  0  0  0
 29 30  2  0  0  0  0
 29 31  1  0  0  0  0
 31 32  1  0  0  0  0
 31 35  1  0  0  0  0
 31 52  1  0  0  0  0
 32 33  1  0  0  0  0
 32 53  1  0  0  0  0
 32 54  1  0  0  0  0
 33 34  1  0  0  0  0
 33 55  1  0  0  0  0
 33 56  1  0  0  0  0
 34 35  1  0  0  0  0
 34 57  1  0  0  0  0
 34 58  1  0  0  0  0
 35 59  1  0  0  0  0
M  END
$$$$
