CHEMBL3694671
 OpenBabel04072215373D

 53 56  0  0  0  0  0  0  0  0999 V2000
    5.0185   -5.1682   -0.4981 C   0  0  0  0  0  0  0  0  0  0  0  0
    5.4737   -4.3305   -2.0028 S   0  0  0  0  0  0  0  0  0  0  0  0
    6.2128   -5.2689   -2.8183 O   0  0  0  0  0  0  0  0  0  0  0  0
    4.3019   -3.6452   -2.5013 O   0  0  0  0  0  0  0  0  0  0  0  0
    6.6081   -3.2106   -1.4520 N   0  0  0  0  0  0  0  0  0  0  0  0
    6.2829   -1.8498   -1.7217 C   0  0  0  0  0  0  0  0  0  0  0  0
    6.7630   -1.4003   -2.8939 N   0  0  0  0  0  0  0  0  0  0  0  0
    6.4717   -0.1159   -3.1898 C   0  0  0  0  0  0  0  0  0  0  0  0
    7.0143    0.4563   -4.4592 C   0  0  0  0  0  0  0  0  0  0  0  0
    7.8545   -0.3184   -5.3826 C   0  0  0  0  0  0  0  0  0  0  0  0
    8.3674    0.2612   -6.4829 C   0  0  0  0  0  0  0  0  0  0  0  0
    8.0640    1.5943   -6.7822 N   0  0  0  0  0  0  0  0  0  0  0  0
    8.3973    2.4060   -7.8736 C   0  0  0  0  0  0  0  0  0  0  0  0
    9.0921    2.0050   -9.1089 C   0  0  0  0  0  0  0  0  0  0  0  0
    8.9219    0.7102   -9.6176 C   0  0  0  0  0  0  0  0  0  0  0  0
    9.5619    0.3087  -10.7784 C   0  0  0  0  0  0  0  0  0  0  0  0
   10.3174    1.2200  -11.5061 C   0  0  0  0  0  0  0  0  0  0  0  0
   10.4483    2.5488  -11.0898 C   0  0  0  0  0  0  0  0  0  0  0  0
   11.1316    3.5193  -11.8775 N   0  0  0  0  0  0  0  0  0  0  0  0
   11.6774    3.3033  -13.1217 C   0  0  0  0  0  0  0  0  0  0  0  0
   11.6738    2.2529  -13.7610 O   0  0  0  0  0  0  0  0  0  0  0  0
   12.3255    4.4007  -13.6422 N   0  0  0  0  0  0  0  0  0  0  0  0
   12.9451    4.2710  -14.9713 C   0  0  0  0  0  0  0  0  0  0  0  0
   12.0174    4.4453  -16.1860 C   0  0  0  0  0  0  0  0  0  0  0  0
   10.7677    4.8163  -15.8279 F   0  0  0  0  0  0  0  0  0  0  0  0
   12.4994    5.4250  -16.9934 F   0  0  0  0  0  0  0  0  0  0  0  0
   11.9276    3.3242  -16.9322 F   0  0  0  0  0  0  0  0  0  0  0  0
    9.8589    2.9224   -9.8673 C   0  0  0  0  0  0  0  0  0  0  0  0
    7.8433    3.6361   -7.5470 C   0  0  0  0  0  0  0  0  0  0  0  0
    7.1681    3.6059   -6.3586 N   0  0  0  0  0  0  0  0  0  0  0  0
    7.2832    2.3710   -5.9284 C   0  0  0  0  0  0  0  0  0  0  0  0
    6.7573    1.7535   -4.7559 C   0  0  0  0  0  0  0  0  0  0  0  0
    5.7794    0.7131   -2.3767 N   0  0  0  0  0  0  0  0  0  0  0  0
    5.3346    0.2050   -1.2110 C   0  0  0  0  0  0  0  0  0  0  0  0
    5.5445   -1.0940   -0.8343 C   0  0  0  0  0  0  0  0  0  0  0  0
    5.1251   -1.5602    0.3479 F   0  0  0  0  0  0  0  0  0  0  0  0
    4.2568   -5.9120   -0.7501 H   0  0  0  0  0  0  0  0  0  0  0  0
    4.6039   -4.4450    0.2033 H   0  0  0  0  0  0  0  0  0  0  0  0
    5.8953   -5.6683   -0.0826 H   0  0  0  0  0  0  0  0  0  0  0  0
    7.5000   -3.4412   -1.8960 H   0  0  0  0  0  0  0  0  0  0  0  0
    8.0591   -1.3600   -5.1549 H   0  0  0  0  0  0  0  0  0  0  0  0
    9.0174   -0.2845   -7.1501 H   0  0  0  0  0  0  0  0  0  0  0  0
    8.2681   -0.0084   -9.1384 H   0  0  0  0  0  0  0  0  0  0  0  0
    9.4467   -0.7068  -11.1460 H   0  0  0  0  0  0  0  0  0  0  0  0
   10.7751    0.8474  -12.4120 H   0  0  0  0  0  0  0  0  0  0  0  0
   11.1798    4.4557  -11.5030 H   0  0  0  0  0  0  0  0  0  0  0  0
   11.9968    5.3148  -13.3651 H   0  0  0  0  0  0  0  0  0  0  0  0
   13.4214    3.2840  -15.0400 H   0  0  0  0  0  0  0  0  0  0  0  0
   13.7500    5.0102  -15.0120 H   0  0  0  0  0  0  0  0  0  0  0  0
    9.9756    3.9422   -9.5076 H   0  0  0  0  0  0  0  0  0  0  0  0
    7.8644    4.5415   -8.1391 H   0  0  0  0  0  0  0  0  0  0  0  0
    6.1530    2.3869   -4.1137 H   0  0  0  0  0  0  0  0  0  0  0  0
    4.8070    0.9004   -0.5666 H   0  0  0  0  0  0  0  0  0  0  0  0
  1  2  1  0  0  0  0
  1 37  1  0  0  0  0
  1 38  1  0  0  0  0
  1 39  1  0  0  0  0
  2  3  2  0  0  0  0
  2  4  2  0  0  0  0
  2  5  1  0  0  0  0
  5  6  1  0  0  0  0
  5 40  1  0  0  0  0
  6  7  1  0  0  0  0
  6 35  2  0  0  0  0
  7  8  2  0  0  0  0
  8  9  1  0  0  0  0
  8 33  1  0  0  0  0
  9 10  1  0  0  0  0
  9 32  2  0  0  0  0
 10 11  2  0  0  0  0
 10 41  1  0  0  0  0
 11 12  1  0  0  0  0
 11 42  1  0  0  0  0
 12 13  1  0  0  0  0
 12 31  1  0  0  0  0
 13 14  1  0  0  0  0
 13 29  2  0  0  0  0
 14 15  1  0  0  0  0
 14 28  2  0  0  0  0
 15 16  2  0  0  0  0
 15 43  1  0  0  0  0
 16 17  1  0  0  0  0
 16 44  1  0  0  0  0
 17 18  2  0  0  0  0
 17 45  1  0  0  0  0
 18 19  1  0  0  0  0
 18 28  1  0  0  0  0
 19 20  1  0  0  0  0
 19 46  1  0  0  0  0
 20 21  2  0  0  0  0
 20 22  1  0  0  0  0
 22 23  1  0  0  0  0
 22 47  1  0  0  0  0
 23 24  1  0  0  0  0
 23 48  1  0  0  0  0
 23 49  1  0  0  0  0
 24 25  1  0  0  0  0
 24 26  1  0  0  0  0
 24 27  1  0  0  0  0
 28 50  1  0  0  0  0
 29 30  1  0  0  0  0
 29 51  1  0  0  0  0
 30 31  2  0  0  0  0
 31 32  1  0  0  0  0
 32 52  1  0  0  0  0
 33 34  2  0  0  0  0
 34 35  1  0  0  0  0
 34 53  1  0  0  0  0
 35 36  1  0  0  0  0
M  END
$$$$
