CHEMBL207520
 OpenBabel04072215363D

 41 43  0  0  0  0  0  0  0  0999 V2000
    1.4856   -0.3312   -0.5151 C   0  0  0  0  0  0  0  0  0  0  0  0
    2.9123   -0.4418   -0.3537 N   0  0  0  0  0  0  0  0  0  0  0  0
    3.5437    0.1157    0.7386 C   0  0  0  0  0  0  0  0  0  0  0  0
    2.9484    0.7058    1.6331 O   0  0  0  0  0  0  0  0  0  0  0  0
    5.0220   -0.0435    0.8009 C   0  0  0  0  0  0  0  0  0  0  0  0
    5.7988   -0.1478   -0.3563 C   0  0  0  0  0  0  0  0  0  0  0  0
    7.1804   -0.2776   -0.2488 C   0  0  0  0  0  0  0  0  0  0  0  0
    7.7889   -0.2807    1.0092 C   0  0  0  0  0  0  0  0  0  0  0  0
    7.0378   -0.1264    2.1812 C   0  0  0  0  0  0  0  0  0  0  0  0
    7.5999   -0.1880    3.4615 N   0  0  0  0  0  0  0  0  0  0  0  0
    8.9739    0.2689    3.6455 C   0  0  0  0  0  0  0  0  0  0  0  0
    9.4155    0.2290    5.0685 C   0  0  0  0  0  0  0  0  0  0  0  0
    9.3094    1.2138    6.0213 C   0  0  0  0  0  0  0  0  0  0  0  0
    9.8337    0.8992    7.2490 N   0  0  0  0  0  0  0  0  0  0  0  0
   10.3550   -0.3093    7.2523 C   0  0  0  0  0  0  0  0  0  0  0  0
   11.0113   -0.8941    8.2796 N   0  0  0  0  0  0  0  0  0  0  0  0
   11.6107   -0.2377    9.3545 C   0  0  0  0  0  0  0  0  0  0  0  0
   11.2312    1.0275    9.7967 C   0  0  0  0  0  0  0  0  0  0  0  0
   11.9405    1.6537   10.8163 C   0  0  0  0  0  0  0  0  0  0  0  0
   13.0013    0.9865   11.4035 C   0  0  0  0  0  0  0  0  0  0  0  0
   13.2943   -0.2862   10.9484 C   0  0  0  0  0  0  0  0  0  0  0  0
   12.6267   -0.9060    9.9469 N   0  0  0  0  0  0  0  0  0  0  0  0
   10.1666   -1.1516    5.7529 S   0  0  0  0  0  0  0  0  0  0  0  0
    5.6435   -0.0424    2.0587 C   0  0  0  0  0  0  0  0  0  0  0  0
    1.1868   -0.9036   -1.3961 H   0  0  0  0  0  0  0  0  0  0  0  0
    1.2249    0.7221   -0.6496 H   0  0  0  0  0  0  0  0  0  0  0  0
    0.9828   -0.7199    0.3743 H   0  0  0  0  0  0  0  0  0  0  0  0
    3.4190   -1.0698   -0.9616 H   0  0  0  0  0  0  0  0  0  0  0  0
    5.3503   -0.1108   -1.3438 H   0  0  0  0  0  0  0  0  0  0  0  0
    7.7909   -0.3773   -1.1429 H   0  0  0  0  0  0  0  0  0  0  0  0
    8.8653   -0.4123    1.0453 H   0  0  0  0  0  0  0  0  0  0  0  0
    6.9743    0.1910    4.1697 H   0  0  0  0  0  0  0  0  0  0  0  0
    9.0588    1.3056    3.2902 H   0  0  0  0  0  0  0  0  0  0  0  0
    9.6688   -0.3315    3.0474 H   0  0  0  0  0  0  0  0  0  0  0  0
    8.8657    2.1899    5.8748 H   0  0  0  0  0  0  0  0  0  0  0  0
   11.4737   -1.7810    8.1233 H   0  0  0  0  0  0  0  0  0  0  0  0
   10.3919    1.5529    9.3553 H   0  0  0  0  0  0  0  0  0  0  0  0
   11.6621    2.6545   11.1326 H   0  0  0  0  0  0  0  0  0  0  0  0
   13.5830    1.4479   12.1919 H   0  0  0  0  0  0  0  0  0  0  0  0
   14.1090   -0.8595   11.3821 H   0  0  0  0  0  0  0  0  0  0  0  0
    5.0236    0.0337    2.9507 H   0  0  0  0  0  0  0  0  0  0  0  0
  1  2  1  0  0  0  0
  1 25  1  0  0  0  0
  1 26  1  0  0  0  0
  1 27  1  0  0  0  0
  2  3  1  0  0  0  0
  2 28  1  0  0  0  0
  3  4  2  0  0  0  0
  3  5  1  0  0  0  0
  5  6  1  0  0  0  0
  5 24  2  0  0  0  0
  6  7  2  0  0  0  0
  6 29  1  0  0  0  0
  7  8  1  0  0  0  0
  7 30  1  0  0  0  0
  8  9  2  0  0  0  0
  8 31  1  0  0  0  0
  9 10  1  0  0  0  0
  9 24  1  0  0  0  0
 10 11  1  0  0  0  0
 10 32  1  0  0  0  0
 11 12  1  0  0  0  0
 11 33  1  0  0  0  0
 11 34  1  0  0  0  0
 12 13  2  0  0  0  0
 12 23  1  0  0  0  0
 13 14  1  0  0  0  0
 13 35  1  0  0  0  0
 14 15  2  0  0  0  0
 15 16  1  0  0  0  0
 15 23  1  0  0  0  0
 16 17  1  0  0  0  0
 16 36  1  0  0  0  0
 17 18  1  0  0  0  0
 17 22  2  0  0  0  0
 18 19  2  0  0  0  0
 18 37  1  0  0  0  0
 19 20  1  0  0  0  0
 19 38  1  0  0  0  0
 20 21  2  0  0  0  0
 20 39  1  0  0  0  0
 21 22  1  0  0  0  0
 21 40  1  0  0  0  0
 24 41  1  0  0  0  0
M  END
$$$$
