CHEMBL3900551
 OpenBabel04072215373D

 61 63  0  0  0  0  0  0  0  0999 V2000
    7.6890   -2.7952   -0.6407 C   0  0  0  0  0  0  0  0  0  0  0  0
    6.5915   -2.3396    0.0583 O   0  0  0  0  0  0  0  0  0  0  0  0
    5.3083   -2.2492   -0.3834 C   0  0  0  0  0  0  0  0  0  0  0  0
    4.8551   -2.8343   -1.5885 C   0  0  0  0  0  0  0  0  0  0  0  0
    3.4920   -2.7493   -1.9874 C   0  0  0  0  0  0  0  0  0  0  0  0
    3.0239   -3.3703   -3.2174 N   0  0  0  0  0  0  0  0  0  0  0  0
    1.8843   -2.8044   -3.9638 C   0  0  0  0  0  0  0  0  0  0  0  0
    0.7567   -3.8309   -4.2607 C   0  0  0  0  0  0  0  0  0  0  0  0
    0.0181   -4.4279   -3.0549 C   0  0  0  0  0  0  0  0  0  0  0  0
   -0.9633   -5.4026   -3.5634 N   0  0  0  0  0  0  0  0  0  0  0  0
   -1.7969   -5.9869   -2.5064 C   0  0  0  0  0  0  0  0  0  0  0  0
   -2.8301   -6.9787   -3.0953 C   0  0  0  0  0  0  0  0  0  0  0  0
   -2.7509   -7.0463   -4.4773 F   0  0  0  0  0  0  0  0  0  0  0  0
   -2.6120   -8.2464   -2.5844 F   0  0  0  0  0  0  0  0  0  0  0  0
   -4.1122   -6.5845   -2.7553 F   0  0  0  0  0  0  0  0  0  0  0  0
    3.6623   -4.5596   -3.7371 C   0  0  0  0  0  0  0  0  0  0  0  0
    4.2357   -5.5067   -2.8545 C   0  0  0  0  0  0  0  0  0  0  0  0
    4.7659   -6.7081   -3.3228 C   0  0  0  0  0  0  0  0  0  0  0  0
    4.7300   -7.0025   -4.6831 C   0  0  0  0  0  0  0  0  0  0  0  0
    5.2006   -8.1892   -5.1418 N   0  0  0  0  0  0  0  0  0  0  0  0
    5.1458   -8.5062   -6.4609 C   0  0  0  0  0  0  0  0  0  0  0  0
    4.6023   -7.5892   -7.3771 C   0  0  0  0  0  0  0  0  0  0  0  0
    4.5202   -7.9018   -8.8170 C   0  0  0  0  0  0  0  0  0  0  0  0
    4.0499   -7.0755   -9.8245 C   0  0  0  0  0  0  0  0  0  0  0  0
    4.1377   -7.7244  -11.0020 N   0  0  0  0  0  0  0  0  0  0  0  0
    4.6451   -8.9274  -10.7664 N   0  0  0  0  0  0  0  0  0  0  0  0
    4.8862   -9.9337  -11.7927 C   0  0  0  0  0  0  0  0  0  0  0  0
    4.8902   -9.0750   -9.4531 C   0  0  0  0  0  0  0  0  0  0  0  0
    4.1340   -6.3956   -6.9126 N   0  0  0  0  0  0  0  0  0  0  0  0
    4.1782   -6.0809   -5.5882 C   0  0  0  0  0  0  0  0  0  0  0  0
    3.6537   -4.8719   -5.1206 C   0  0  0  0  0  0  0  0  0  0  0  0
    2.6165   -2.0179   -1.1521 C   0  0  0  0  0  0  0  0  0  0  0  0
    3.0700   -1.4331    0.0340 C   0  0  0  0  0  0  0  0  0  0  0  0
    2.2115   -0.7425    0.8257 F   0  0  0  0  0  0  0  0  0  0  0  0
    4.4023   -1.5548    0.4180 C   0  0  0  0  0  0  0  0  0  0  0  0
    4.8198   -0.9913    1.5809 F   0  0  0  0  0  0  0  0  0  0  0  0
   -1.0084   -1.5255   -0.0325 Cl  0  0  0  0  0  0  0  0  0  0  0  0
    8.5444   -2.8811    0.0631 H   0  0  0  0  0  0  0  0  0  0  0  0
    7.9622   -2.0682   -1.4342 H   0  0  0  0  0  0  0  0  0  0  0  0
    7.5011   -3.7992   -1.0718 H   0  0  0  0  0  0  0  0  0  0  0  0
    5.5632   -3.3536   -2.2169 H   0  0  0  0  0  0  0  0  0  0  0  0
    2.2531   -2.4324   -4.9418 H   0  0  0  0  0  0  0  0  0  0  0  0
    1.4479   -1.9116   -3.4809 H   0  0  0  0  0  0  0  0  0  0  0  0
    1.1630   -4.6745   -4.8487 H   0  0  0  0  0  0  0  0  0  0  0  0
    0.0021   -3.3330   -4.9067 H   0  0  0  0  0  0  0  0  0  0  0  0
   -0.4982   -3.6121   -2.5026 H   0  0  0  0  0  0  0  0  0  0  0  0
    0.7374   -4.9342   -2.3735 H   0  0  0  0  0  0  0  0  0  0  0  0
   -0.4445   -6.1797   -4.0379 H   0  0  0  0  0  0  0  0  0  0  0  0
   -2.3371   -5.1761   -1.9710 H   0  0  0  0  0  0  0  0  0  0  0  0
   -1.1577   -6.5134   -1.7624 H   0  0  0  0  0  0  0  0  0  0  0  0
    4.2399   -5.3398   -1.7862 H   0  0  0  0  0  0  0  0  0  0  0  0
    5.1793   -7.4211   -2.6201 H   0  0  0  0  0  0  0  0  0  0  0  0
    5.5227   -9.4666   -6.7811 H   0  0  0  0  0  0  0  0  0  0  0  0
    3.6687   -6.0714   -9.7120 H   0  0  0  0  0  0  0  0  0  0  0  0
    4.5982   -9.5416  -12.7910 H   0  0  0  0  0  0  0  0  0  0  0  0
    4.2858  -10.8413  -11.5747 H   0  0  0  0  0  0  0  0  0  0  0  0
    5.9631  -10.2001  -11.8045 H   0  0  0  0  0  0  0  0  0  0  0  0
    5.3017   -9.9671   -9.0052 H   0  0  0  0  0  0  0  0  0  0  0  0
    3.2309   -4.1891   -5.8462 H   0  0  0  0  0  0  0  0  0  0  0  0
    1.5725   -1.9096   -1.3878 H   0  0  0  0  0  0  0  0  0  0  0  0
    0.1330   -2.0867    0.4874 H   0  0  0  0  0  0  0  0  0  0  0  0
  1  2  1  0  0  0  0
  1 38  1  0  0  0  0
  1 39  1  0  0  0  0
  1 40  1  0  0  0  0
  2  3  1  0  0  0  0
  3  4  1  0  0  0  0
  3 35  2  0  0  0  0
  4  5  2  0  0  0  0
  4 41  1  0  0  0  0
  5  6  1  0  0  0  0
  5 32  1  0  0  0  0
  6  7  1  0  0  0  0
  6 16  1  0  0  0  0
  7  8  1  0  0  0  0
  7 42  1  0  0  0  0
  7 43  1  0  0  0  0
  8  9  1  0  0  0  0
  8 44  1  0  0  0  0
  8 45  1  0  0  0  0
  9 10  1  0  0  0  0
  9 46  1  0  0  0  0
  9 47  1  0  0  0  0
 10 11  1  0  0  0  0
 10 48  1  0  0  0  0
 11 12  1  0  0  0  0
 11 49  1  0  0  0  0
 11 50  1  0  0  0  0
 12 13  1  0  0  0  0
 12 14  1  0  0  0  0
 12 15  1  0  0  0  0
 16 17  1  0  0  0  0
 16 31  2  0  0  0  0
 17 18  2  0  0  0  0
 17 51  1  0  0  0  0
 18 19  1  0  0  0  0
 18 52  1  0  0  0  0
 19 20  1  0  0  0  0
 19 30  2  0  0  0  0
 20 21  2  0  0  0  0
 21 22  1  0  0  0  0
 21 53  1  0  0  0  0
 22 23  1  0  0  0  0
 22 29  2  0  0  0  0
 23 24  1  0  0  0  0
 23 28  2  0  0  0  0
 24 25  2  0  0  0  0
 24 54  1  0  0  0  0
 25 26  1  0  0  0  0
 26 27  1  0  0  0  0
 26 28  1  0  0  0  0
 27 55  1  0  0  0  0
 27 56  1  0  0  0  0
 27 57  1  0  0  0  0
 28 58  1  0  0  0  0
 29 30  1  0  0  0  0
 30 31  1  0  0  0  0
 31 59  1  0  0  0  0
 32 33  2  0  0  0  0
 32 60  1  0  0  0  0
 33 34  1  0  0  0  0
 33 35  1  0  0  0  0
 35 36  1  0  0  0  0
 37 61  1  0  0  0  0
M  END
$$$$
