CHEMBL4165827
 OpenBabel04072215383D

 61 65  0  0  0  0  0  0  0  0999 V2000
    1.0528    0.5521    0.5716 C   0  0  0  0  0  0  0  0  0  0  0  0
    2.4814    0.5337    0.5357 O   0  0  0  0  0  0  0  0  0  0  0  0
    3.0162   -0.6629    0.8815 C   0  0  0  0  0  0  0  0  0  0  0  0
    2.3901   -1.6670    1.1699 O   0  0  0  0  0  0  0  0  0  0  0  0
    4.5034   -0.5975    0.9151 C   0  0  0  0  0  0  0  0  0  0  0  0
    5.2318    0.5669    0.5815 C   0  0  0  0  0  0  0  0  0  0  0  0
    6.6345    0.6032    0.6886 C   0  0  0  0  0  0  0  0  0  0  0  0
    7.2950   -0.5241    1.1451 C   0  0  0  0  0  0  0  0  0  0  0  0
    6.5540   -1.6710    1.4617 C   0  0  0  0  0  0  0  0  0  0  0  0
    5.1808   -1.7441    1.3446 C   0  0  0  0  0  0  0  0  0  0  0  0
    7.3818   -2.6834    1.9348 N   0  0  0  0  0  0  0  0  0  0  0  0
    8.7007   -2.2736    1.9804 C   0  0  0  0  0  0  0  0  0  0  0  0
    9.6357   -2.8683    2.4775 O   0  0  0  0  0  0  0  0  0  0  0  0
    8.7074   -0.8882    1.3841 C   0  0  0  0  0  0  0  0  0  0  0  0
    9.8741   -0.2576    1.1407 C   0  0  0  0  0  0  0  0  0  0  0  0
   11.1434   -0.8290    1.3006 N   0  0  0  0  0  0  0  0  0  0  0  0
   11.9034   -1.3253    0.1918 C   0  0  0  0  0  0  0  0  0  0  0  0
   13.2019   -1.7959    0.4281 C   0  0  0  0  0  0  0  0  0  0  0  0
   14.0679   -2.1511   -0.6200 C   0  0  0  0  0  0  0  0  0  0  0  0
   13.5866   -2.0293   -1.9278 C   0  0  0  0  0  0  0  0  0  0  0  0
   14.2111   -2.2183   -3.1398 N   0  0  0  0  0  0  0  0  0  0  0  0
   13.2956   -2.1576   -4.1657 C   0  0  0  0  0  0  0  0  0  0  0  0
   13.6358   -2.4906   -5.5822 C   0  0  0  0  0  0  0  0  0  0  0  0
   14.7394   -3.4602   -5.7262 N   0  0  0  0  0  0  0  0  0  0  0  0
   14.4311   -4.7549   -5.1051 C   0  0  0  0  0  0  0  0  0  0  0  0
   14.9782   -3.6857   -7.1598 C   0  0  0  0  0  0  0  0  0  0  0  0
   12.1009   -1.7409   -3.6117 C   0  0  0  0  0  0  0  0  0  0  0  0
   12.2745   -1.6578   -2.2033 C   0  0  0  0  0  0  0  0  0  0  0  0
   11.4273   -1.3157   -1.1302 C   0  0  0  0  0  0  0  0  0  0  0  0
    9.9058    1.1938    0.8378 C   0  0  0  0  0  0  0  0  0  0  0  0
    9.9960    2.0868    1.9189 C   0  0  0  0  0  0  0  0  0  0  0  0
   10.0777    3.4632    1.7041 C   0  0  0  0  0  0  0  0  0  0  0  0
   10.0764    3.9644    0.4065 C   0  0  0  0  0  0  0  0  0  0  0  0
    9.9821    3.0912   -0.6769 C   0  0  0  0  0  0  0  0  0  0  0  0
    9.8924    1.7130   -0.4632 C   0  0  0  0  0  0  0  0  0  0  0  0
    0.7127    1.4977    0.1408 H   0  0  0  0  0  0  0  0  0  0  0  0
    0.7048    0.4967    1.6083 H   0  0  0  0  0  0  0  0  0  0  0  0
    0.6311   -0.2673   -0.0201 H   0  0  0  0  0  0  0  0  0  0  0  0
    4.7128    1.4626    0.2433 H   0  0  0  0  0  0  0  0  0  0  0  0
    7.1653    1.5128    0.4280 H   0  0  0  0  0  0  0  0  0  0  0  0
    4.6437   -2.6536    1.5949 H   0  0  0  0  0  0  0  0  0  0  0  0
    7.0747   -3.5729    2.2972 H   0  0  0  0  0  0  0  0  0  0  0  0
   11.1260   -1.5801    2.0013 H   0  0  0  0  0  0  0  0  0  0  0  0
   13.5706   -1.8625    1.4493 H   0  0  0  0  0  0  0  0  0  0  0  0
   15.0793   -2.4858   -0.4163 H   0  0  0  0  0  0  0  0  0  0  0  0
   15.1824   -2.4690   -3.2687 H   0  0  0  0  0  0  0  0  0  0  0  0
   13.9186   -1.5509   -6.0768 H   0  0  0  0  0  0  0  0  0  0  0  0
   12.7326   -2.8586   -6.0880 H   0  0  0  0  0  0  0  0  0  0  0  0
   14.3269   -4.6744   -4.0178 H   0  0  0  0  0  0  0  0  0  0  0  0
   15.2600   -5.4545   -5.2650 H   0  0  0  0  0  0  0  0  0  0  0  0
   13.5165   -5.2032   -5.5064 H   0  0  0  0  0  0  0  0  0  0  0  0
   15.2165   -2.7472   -7.6732 H   0  0  0  0  0  0  0  0  0  0  0  0
   14.1073   -4.1341   -7.6554 H   0  0  0  0  0  0  0  0  0  0  0  0
   15.8345   -4.3531   -7.3089 H   0  0  0  0  0  0  0  0  0  0  0  0
   11.1867   -1.5496   -4.1580 H   0  0  0  0  0  0  0  0  0  0  0  0
   10.4031   -1.0489   -1.3546 H   0  0  0  0  0  0  0  0  0  0  0  0
   10.0276    1.7052    2.9379 H   0  0  0  0  0  0  0  0  0  0  0  0
   10.1637    4.1397    2.5519 H   0  0  0  0  0  0  0  0  0  0  0  0
   10.1608    5.0336    0.2359 H   0  0  0  0  0  0  0  0  0  0  0  0
   10.0009    3.4856   -1.6902 H   0  0  0  0  0  0  0  0  0  0  0  0
    9.8328    1.0580   -1.3257 H   0  0  0  0  0  0  0  0  0  0  0  0
  1  2  1  0  0  0  0
  1 36  1  0  0  0  0
  1 37  1  0  0  0  0
  1 38  1  0  0  0  0
  2  3  1  0  0  0  0
  3  4  2  0  0  0  0
  3  5  1  0  0  0  0
  5  6  1  0  0  0  0
  5 10  2  0  0  0  0
  6  7  2  0  0  0  0
  6 39  1  0  0  0  0
  7  8  1  0  0  0  0
  7 40  1  0  0  0  0
  8  9  2  0  0  0  0
  8 14  1  0  0  0  0
  9 10  1  0  0  0  0
  9 11  1  0  0  0  0
 10 41  1  0  0  0  0
 11 12  1  0  0  0  0
 11 42  1  0  0  0  0
 12 13  2  0  0  0  0
 12 14  1  0  0  0  0
 14 15  2  0  0  0  0
 15 16  1  0  0  0  0
 15 30  1  0  0  0  0
 16 17  1  0  0  0  0
 16 43  1  0  0  0  0
 17 18  1  0  0  0  0
 17 29  2  0  0  0  0
 18 19  2  0  0  0  0
 18 44  1  0  0  0  0
 19 20  1  0  0  0  0
 19 45  1  0  0  0  0
 20 21  1  0  0  0  0
 20 28  2  0  0  0  0
 21 22  1  0  0  0  0
 21 46  1  0  0  0  0
 22 23  1  0  0  0  0
 22 27  2  0  0  0  0
 23 24  1  0  0  0  0
 23 47  1  0  0  0  0
 23 48  1  0  0  0  0
 24 25  1  0  0  0  0
 24 26  1  0  0  0  0
 25 49  1  0  0  0  0
 25 50  1  0  0  0  0
 25 51  1  0  0  0  0
 26 52  1  0  0  0  0
 26 53  1  0  0  0  0
 26 54  1  0  0  0  0
 27 28  1  0  0  0  0
 27 55  1  0  0  0  0
 28 29  1  0  0  0  0
 29 56  1  0  0  0  0
 30 31  1  0  0  0  0
 30 35  2  0  0  0  0
 31 32  2  0  0  0  0
 31 57  1  0  0  0  0
 32 33  1  0  0  0  0
 32 58  1  0  0  0  0
 33 34  2  0  0  0  0
 33 59  1  0  0  0  0
 34 35  1  0  0  0  0
 34 60  1  0  0  0  0
 35 61  1  0  0  0  0
M  END
$$$$
