CHEMBL2047249
 OpenBabel04072215363D

 35 38  0  0  0  0  0  0  0  0999 V2000
    1.2311    0.0326   -0.2938 N   0  0  0  0  0  0  0  0  0  0  0  0
    2.6091    0.0089   -0.2385 C   0  0  0  0  0  0  0  0  0  0  0  0
    3.2489    1.1739   -0.1478 N   0  0  0  0  0  0  0  0  0  0  0  0
    4.5831    1.0611   -0.1035 C   0  0  0  0  0  0  0  0  0  0  0  0
    5.2996   -0.1342   -0.1227 C   0  0  0  0  0  0  0  0  0  0  0  0
    4.5440   -1.2770   -0.2072 C   0  0  0  0  0  0  0  0  0  0  0  0
    5.1517   -2.5538   -0.2584 N   0  0  0  0  0  0  0  0  0  0  0  0
    4.5378   -3.7107   -0.7893 C   0  0  0  0  0  0  0  0  0  0  0  0
    3.7012   -3.6305   -1.9147 C   0  0  0  0  0  0  0  0  0  0  0  0
    3.0779   -4.7617   -2.4391 C   0  0  0  0  0  0  0  0  0  0  0  0
    3.3132   -6.0016   -1.8559 C   0  0  0  0  0  0  0  0  0  0  0  0
    2.4343   -7.5324   -2.5283 Br  0  0  0  0  0  0  0  0  0  0  0  0
    4.1863   -6.1156   -0.7750 C   0  0  0  0  0  0  0  0  0  0  0  0
    4.8095   -4.9763   -0.2538 C   0  0  0  0  0  0  0  0  0  0  0  0
    3.1932   -1.1965   -0.2479 N   0  0  0  0  0  0  0  0  0  0  0  0
    6.7180    0.1599   -0.1084 C   0  0  0  0  0  0  0  0  0  0  0  0
    7.8316   -0.6635   -0.1448 C   0  0  0  0  0  0  0  0  0  0  0  0
    9.1011   -0.0728   -0.1359 C   0  0  0  0  0  0  0  0  0  0  0  0
    9.2497    1.3236   -0.1001 C   0  0  0  0  0  0  0  0  0  0  0  0
    8.1327    2.1579   -0.0743 C   0  0  0  0  0  0  0  0  0  0  0  0
    6.8812    1.5646   -0.0777 C   0  0  0  0  0  0  0  0  0  0  0  0
    5.5314    2.2493   -0.0753 C   0  0  0  0  0  0  0  0  0  0  0  0
    0.8808    0.8792    0.1284 H   0  0  0  0  0  0  0  0  0  0  0  0
    0.8653   -0.8472    0.0441 H   0  0  0  0  0  0  0  0  0  0  0  0
    5.6492   -2.7244    0.6083 H   0  0  0  0  0  0  0  0  0  0  0  0
    3.5140   -2.6685   -2.3876 H   0  0  0  0  0  0  0  0  0  0  0  0
    2.4139   -4.6568   -3.2912 H   0  0  0  0  0  0  0  0  0  0  0  0
    4.3868   -7.0857   -0.3290 H   0  0  0  0  0  0  0  0  0  0  0  0
    5.4862   -5.0860    0.5892 H   0  0  0  0  0  0  0  0  0  0  0  0
    7.7437   -1.7429   -0.1964 H   0  0  0  0  0  0  0  0  0  0  0  0
    9.9873   -0.7032   -0.1671 H   0  0  0  0  0  0  0  0  0  0  0  0
   10.2472    1.7576   -0.1018 H   0  0  0  0  0  0  0  0  0  0  0  0
    8.2456    3.2372   -0.0605 H   0  0  0  0  0  0  0  0  0  0  0  0
    5.3998    2.8590   -0.9739 H   0  0  0  0  0  0  0  0  0  0  0  0
    5.3855    2.8353    0.8359 H   0  0  0  0  0  0  0  0  0  0  0  0
  1  2  1  0  0  0  0
  1 23  1  0  0  0  0
  1 24  1  0  0  0  0
  2  3  1  0  0  0  0
  2 15  2  0  0  0  0
  3  4  2  0  0  0  0
  4  5  1  0  0  0  0
  4 22  1  0  0  0  0
  5  6  2  0  0  0  0
  5 16  1  0  0  0  0
  6  7  1  0  0  0  0
  6 15  1  0  0  0  0
  7  8  1  0  0  0  0
  7 25  1  0  0  0  0
  8  9  1  0  0  0  0
  8 14  2  0  0  0  0
  9 10  2  0  0  0  0
  9 26  1  0  0  0  0
 10 11  1  0  0  0  0
 10 27  1  0  0  0  0
 11 12  1  0  0  0  0
 11 13  2  0  0  0  0
 13 14  1  0  0  0  0
 13 28  1  0  0  0  0
 14 29  1  0  0  0  0
 16 17  1  0  0  0  0
 16 21  2  0  0  0  0
 17 18  2  0  0  0  0
 17 30  1  0  0  0  0
 18 19  1  0  0  0  0
 18 31  1  0  0  0  0
 19 20  2  0  0  0  0
 19 32  1  0  0  0  0
 20 21  1  0  0  0  0
 20 33  1  0  0  0  0
 21 22  1  0  0  0  0
 22 34  1  0  0  0  0
 22 35  1  0  0  0  0
M  END
$$$$
