CHEMBL1965170
 OpenBabel04072215363D

 64 68  0  0  1  0  0  0  0  0999 V2000
    1.9050   -1.6231    0.0190 C   0  0  0  0  0  0  0  0  0  0  0  0
    3.0286   -0.7530   -0.1286 O   0  0  0  0  0  0  0  0  0  0  0  0
    3.5420   -0.2305    1.0227 C   0  0  0  0  0  0  0  0  0  0  0  0
    3.0670   -0.4918    2.3064 C   0  0  0  0  0  0  0  0  0  0  0  0
    3.6743    0.0817    3.4162 C   0  0  0  0  0  0  0  0  0  0  0  0
    4.7656    0.9534    3.2791 C   0  0  0  0  0  0  0  0  0  0  0  0
    5.3907    1.5599    4.3990 N   0  0  0  0  0  0  0  0  0  0  0  0
    5.0711    1.3308    5.7234 C   0  0  0  0  0  0  0  0  0  0  0  0
    4.2508    0.5075    6.1183 O   0  0  0  0  0  0  0  0  0  0  0  0
    5.7590    2.1708    6.5901 N   0  0  0  0  0  0  0  0  0  0  0  0
    5.5267    2.0450    7.9823 C   0  0  0  0  0  0  0  0  0  0  0  0
    5.5174    0.7907    8.5917 C   0  0  0  0  0  0  0  0  0  0  0  0
    5.0934    0.6528    9.9128 C   0  0  0  0  0  0  0  0  0  0  0  0
    4.7137    1.7733   10.6687 C   0  0  0  0  0  0  0  0  0  0  0  0
    4.1680    1.5879   12.0232 C   0  0  0  0  0  0  0  0  0  0  0  0
    4.7116    0.5940   12.8130 C   0  0  0  0  0  0  0  0  0  0  0  0
    3.9170    0.3942   14.2837 S   0  0  0  0  0  0  0  0  0  0  0  0
    2.8530    1.7250   13.9970 C   0  0  0  0  0  0  0  0  0  0  0  0
    1.8604    2.2253   14.8676 C   0  0  0  0  0  0  0  0  0  0  0  0
    1.6292    1.6963   16.1983 C   0  0  0  0  0  0  0  0  0  0  0  0
    2.5071    1.1787   17.1791 C   0  0  0  0  0  0  0  0  0  0  0  0
    1.8884    0.8956   18.3275 N   0  0  0  0  0  0  0  0  0  0  0  0
    0.6043    1.1897   18.0784 N   0  0  0  0  0  0  0  0  0  0  0  0
   -0.3687    1.0875   19.1489 C   0  0  0  0  0  0  0  0  0  0  0  0
   -0.4500    2.3515   20.0170 C   0  0  3  0  0  0  0  0  0  0  0  0
    0.7746    2.6147   20.7090 O   0  0  0  0  0  0  0  0  0  0  0  0
   -0.8866    3.5976   19.2309 C   0  0  0  0  0  0  0  0  0  0  0  0
   -1.0660    4.7333   20.0751 O   0  0  0  0  0  0  0  0  0  0  0  0
    0.3921    1.6554   16.8126 C   0  0  0  0  0  0  0  0  0  0  0  0
    1.1227    3.2885   14.3777 C   0  0  0  0  0  0  0  0  0  0  0  0
    1.2723    3.8308   13.1603 N   0  0  0  0  0  0  0  0  0  0  0  0
    2.2055    3.3473   12.3184 C   0  0  0  0  0  0  0  0  0  0  0  0
    2.2038    3.9795   11.0818 N   0  0  0  0  0  0  0  0  0  0  0  0
    3.0643    2.2777   12.7122 C   0  0  0  0  0  0  0  0  0  0  0  0
    4.8539    3.0370   10.0832 C   0  0  0  0  0  0  0  0  0  0  0  0
    5.2308    3.1759    8.7392 C   0  0  0  0  0  0  0  0  0  0  0  0
    5.2434    1.2128    2.0056 C   0  0  0  0  0  0  0  0  0  0  0  0
    4.6351    0.6318    0.8843 C   0  0  0  0  0  0  0  0  0  0  0  0
    1.6615   -2.0322   -0.9657 H   0  0  0  0  0  0  0  0  0  0  0  0
    1.0318   -1.0682    0.3786 H   0  0  0  0  0  0  0  0  0  0  0  0
    2.1326   -2.4674    0.6769 H   0  0  0  0  0  0  0  0  0  0  0  0
    2.2166   -1.1518    2.4854 H   0  0  0  0  0  0  0  0  0  0  0  0
    3.2439   -0.1772    4.3766 H   0  0  0  0  0  0  0  0  0  0  0  0
    6.1998    2.1351    4.2138 H   0  0  0  0  0  0  0  0  0  0  0  0
    5.9001    3.1086    6.2433 H   0  0  0  0  0  0  0  0  0  0  0  0
    5.7869   -0.1023    8.0322 H   0  0  0  0  0  0  0  0  0  0  0  0
    5.0333   -0.3543   10.3189 H   0  0  0  0  0  0  0  0  0  0  0  0
    5.5365   -0.0668   12.5824 H   0  0  0  0  0  0  0  0  0  0  0  0
    3.5767    1.0206   17.1242 H   0  0  0  0  0  0  0  0  0  0  0  0
   -0.0753    0.2241   19.7577 H   0  0  0  0  0  0  0  0  0  0  0  0
   -1.3393    0.8662   18.6909 H   0  0  0  0  0  0  0  0  0  0  0  0
   -1.1878    2.1690   20.8064 H   0  0  0  0  0  0  0  0  0  0  0  0
    1.4981    2.6339   20.0492 H   0  0  0  0  0  0  0  0  0  0  0  0
   -1.8399    3.4137   18.7262 H   0  0  0  0  0  0  0  0  0  0  0  0
   -0.1406    3.8822   18.4839 H   0  0  0  0  0  0  0  0  0  0  0  0
   -1.1737    4.4225   20.9916 H   0  0  0  0  0  0  0  0  0  0  0  0
   -0.5943    1.9434   16.4744 H   0  0  0  0  0  0  0  0  0  0  0  0
    0.3524    3.7662   14.9779 H   0  0  0  0  0  0  0  0  0  0  0  0
    1.3732    4.5594   11.0159 H   0  0  0  0  0  0  0  0  0  0  0  0
    2.3380    3.3429   10.3064 H   0  0  0  0  0  0  0  0  0  0  0  0
    4.6233    3.9377   10.6477 H   0  0  0  0  0  0  0  0  0  0  0  0
    5.2031    4.1625    8.2860 H   0  0  0  0  0  0  0  0  0  0  0  0
    6.0931    1.8848    1.8482 H   0  0  0  0  0  0  0  0  0  0  0  0
    5.0125    0.8437   -0.1164 H   0  0  0  0  0  0  0  0  0  0  0  0
  1  2  1  0  0  0  0
  1 39  1  0  0  0  0
  1 40  1  0  0  0  0
  1 41  1  0  0  0  0
  2  3  1  0  0  0  0
  3  4  1  0  0  0  0
  3 38  2  0  0  0  0
  4  5  2  0  0  0  0
  4 42  1  0  0  0  0
  5  6  1  0  0  0  0
  5 43  1  0  0  0  0
  6  7  1  0  0  0  0
  6 37  2  0  0  0  0
  7  8  1  0  0  0  0
  7 44  1  0  0  0  0
  8  9  2  0  0  0  0
  8 10  1  0  0  0  0
 10 11  1  0  0  0  0
 10 45  1  0  0  0  0
 11 12  1  0  0  0  0
 11 36  2  0  0  0  0
 12 13  2  0  0  0  0
 12 46  1  0  0  0  0
 13 14  1  0  0  0  0
 13 47  1  0  0  0  0
 14 15  1  0  0  0  0
 14 35  2  0  0  0  0
 15 16  2  0  0  0  0
 15 34  1  0  0  0  0
 16 17  1  0  0  0  0
 16 48  1  0  0  0  0
 17 18  1  0  0  0  0
 18 19  1  0  0  0  0
 18 34  2  0  0  0  0
 19 20  1  0  0  0  0
 19 30  2  0  0  0  0
 20 21  1  0  0  0  0
 20 29  2  0  0  0  0
 21 22  2  0  0  0  0
 21 49  1  0  0  0  0
 22 23  1  0  0  0  0
 23 24  1  0  0  0  0
 23 29  1  0  0  0  0
 24 25  1  0  0  0  0
 24 50  1  0  0  0  0
 24 51  1  0  0  0  0
 25 26  1  0  0  0  0
 25 27  1  0  0  0  0
 25 52  1  0  0  0  0
 26 53  1  0  0  0  0
 27 28  1  0  0  0  0
 27 54  1  0  0  0  0
 27 55  1  0  0  0  0
 28 56  1  0  0  0  0
 29 57  1  0  0  0  0
 30 31  1  0  0  0  0
 30 58  1  0  0  0  0
 31 32  2  0  0  0  0
 32 33  1  0  0  0  0
 32 34  1  0  0  0  0
 33 59  1  0  0  0  0
 33 60  1  0  0  0  0
 35 36  1  0  0  0  0
 35 61  1  0  0  0  0
 36 62  1  0  0  0  0
 37 38  1  0  0  0  0
 37 63  1  0  0  0  0
 38 64  1  0  0  0  0
M  END
$$$$
