CHEMBL409914
 OpenBabel04072215383D

 50 53  0  0  0  0  0  0  0  0999 V2000
    2.5045    0.0666   -0.0337 C   0  0  0  0  0  0  0  0  0  0  0  0
    1.0057    0.0315   -0.0906 C   0  0  0  0  0  0  0  0  0  0  0  0
    0.3034    1.2214   -0.0259 C   0  0  0  0  0  0  0  0  0  0  0  0
   -1.0987    1.2493   -0.0134 C   0  0  0  0  0  0  0  0  0  0  0  0
   -1.9040    0.1102   -0.0583 C   0  0  0  0  0  0  0  0  0  0  0  0
   -3.3539    0.1462   -0.0587 N   0  0  0  0  0  0  0  0  0  0  0  0
   -4.0638    1.3391   -0.0519 C   0  0  0  0  0  0  0  0  0  0  0  0
   -3.5303    2.4411   -0.0403 O   0  0  0  0  0  0  0  0  0  0  0  0
   -5.4450    1.2621   -0.0859 N   0  0  0  0  0  0  0  0  0  0  0  0
   -6.1976    2.4818    0.0476 C   0  0  0  0  0  0  0  0  0  0  0  0
   -7.0526    2.7027    1.1359 C   0  0  0  0  0  0  0  0  0  0  0  0
   -7.7845    3.8959    1.2362 C   0  0  0  0  0  0  0  0  0  0  0  0
   -7.6923    4.8633    0.2385 C   0  0  0  0  0  0  0  0  0  0  0  0
   -6.8487    4.6610   -0.8613 C   0  0  0  0  0  0  0  0  0  0  0  0
   -6.7859    5.6868   -1.9628 C   0  0  0  0  0  0  0  0  0  0  0  0
   -7.6294    6.7394   -1.7573 F   0  0  0  0  0  0  0  0  0  0  0  0
   -5.5495    6.2288   -2.1230 F   0  0  0  0  0  0  0  0  0  0  0  0
   -7.1359    5.1722   -3.1752 F   0  0  0  0  0  0  0  0  0  0  0  0
   -6.0911    3.4760   -0.9362 C   0  0  0  0  0  0  0  0  0  0  0  0
   -1.1988   -1.0834   -0.1283 C   0  0  0  0  0  0  0  0  0  0  0  0
    0.2583   -1.1437   -0.1616 C   0  0  0  0  0  0  0  0  0  0  0  0
    0.8899   -2.4649   -0.1397 C   0  0  0  0  0  0  0  0  0  0  0  0
    0.1706   -3.3775    0.6121 C   0  0  0  0  0  0  0  0  0  0  0  0
    0.5364   -4.6565    0.6194 C   0  0  0  0  0  0  0  0  0  0  0  0
    1.7757   -4.9757    0.1995 C   0  0  0  0  0  0  0  0  0  0  0  0
    2.2338   -5.9775    0.8917 N   0  0  0  0  0  0  0  0  0  0  0  0
    2.4204   -7.1436    0.3466 C   0  0  0  0  0  0  0  0  0  0  0  0
    1.5093   -7.5099    1.3113 N   0  0  0  0  0  0  0  0  0  0  0  0
    3.2798   -6.7477   -0.5743 N   0  0  0  0  0  0  0  0  0  0  0  0
    3.3498   -5.3918   -1.1265 C   0  0  0  0  0  0  0  0  0  0  0  0
    2.5003   -4.3181   -0.7073 C   0  0  0  0  0  0  0  0  0  0  0  0
    2.0630   -2.9172   -0.8407 C   0  0  0  0  0  0  0  0  0  0  0  0
    2.8809    1.0909   -0.0113 H   0  0  0  0  0  0  0  0  0  0  0  0
    2.9290   -0.3662   -0.9382 H   0  0  0  0  0  0  0  0  0  0  0  0
    2.8866   -0.4562    0.8502 H   0  0  0  0  0  0  0  0  0  0  0  0
    0.8369    2.1650    0.0401 H   0  0  0  0  0  0  0  0  0  0  0  0
   -1.5072    2.2464    0.0379 H   0  0  0  0  0  0  0  0  0  0  0  0
   -3.8649   -0.7268   -0.1122 H   0  0  0  0  0  0  0  0  0  0  0  0
   -5.8641    0.4224    0.2730 H   0  0  0  0  0  0  0  0  0  0  0  0
   -7.1276    1.9899    1.9505 H   0  0  0  0  0  0  0  0  0  0  0  0
   -8.4325    4.0754    2.0900 H   0  0  0  0  0  0  0  0  0  0  0  0
   -8.2830    5.7772    0.3142 H   0  0  0  0  0  0  0  0  0  0  0  0
   -5.4264    3.3155   -1.7847 H   0  0  0  0  0  0  0  0  0  0  0  0
   -1.7643   -2.0181   -0.1093 H   0  0  0  0  0  0  0  0  0  0  0  0
   -0.7046   -3.1483    1.2120 H   0  0  0  0  0  0  0  0  0  0  0  0
   -0.0876   -5.3546    1.1467 H   0  0  0  0  0  0  0  0  0  0  0  0
    1.1002   -6.6688    1.7046 H   0  0  0  0  0  0  0  0  0  0  0  0
    1.3194   -8.2958    1.8938 H   0  0  0  0  0  0  0  0  0  0  0  0
    4.0510   -5.2763   -1.9564 H   0  0  0  0  0  0  0  0  0  0  0  0
    2.6310   -2.2281   -1.4555 H   0  0  0  0  0  0  0  0  0  0  0  0
  1  2  1  0  0  0  0
  1 33  1  0  0  0  0
  1 34  1  0  0  0  0
  1 35  1  0  0  0  0
  2  3  1  0  0  0  0
  2 21  2  0  0  0  0
  3  4  2  0  0  0  0
  3 36  1  0  0  0  0
  4  5  1  0  0  0  0
  4 37  1  0  0  0  0
  5  6  1  0  0  0  0
  5 20  2  0  0  0  0
  6  7  1  0  0  0  0
  6 38  1  0  0  0  0
  7  8  2  0  0  0  0
  7  9  1  0  0  0  0
  9 10  1  0  0  0  0
  9 39  1  0  0  0  0
 10 11  1  0  0  0  0
 10 19  2  0  0  0  0
 11 12  2  0  0  0  0
 11 40  1  0  0  0  0
 12 13  1  0  0  0  0
 12 41  1  0  0  0  0
 13 14  2  0  0  0  0
 13 42  1  0  0  0  0
 14 15  1  0  0  0  0
 14 19  1  0  0  0  0
 15 16  1  0  0  0  0
 15 17  1  0  0  0  0
 15 18  1  0  0  0  0
 19 43  1  0  0  0  0
 20 21  1  0  0  0  0
 20 44  1  0  0  0  0
 21 22  1  0  0  0  0
 22 23  1  0  0  0  0
 22 32  2  0  0  0  0
 23 24  2  0  0  0  0
 23 45  1  0  0  0  0
 24 25  1  0  0  0  0
 24 46  1  0  0  0  0
 25 26  1  0  0  0  0
 25 31  2  0  0  0  0
 26 27  2  0  0  0  0
 27 28  1  0  0  0  0
 27 29  1  0  0  0  0
 28 47  1  0  0  0  0
 28 48  1  0  0  0  0
 29 30  2  0  0  0  0
 30 31  1  0  0  0  0
 30 49  1  0  0  0  0
 31 32  1  0  0  0  0
 32 50  1  0  0  0  0
M  END
$$$$
