CHEMBL3690541
 OpenBabel04072215373D

 46 49  0  0  0  0  0  0  0  0999 V2000
    2.4661    1.2384    1.0167 O   0  0  0  0  0  0  0  0  0  0  0  0
    2.1839    0.0967    0.6797 C   0  0  0  0  0  0  0  0  0  0  0  0
    0.8832   -0.2544    0.3810 N   0  0  0  0  0  0  0  0  0  0  0  0
   -0.1811    0.7259    0.6308 C   0  0  0  0  0  0  0  0  0  0  0  0
   -0.6795    0.7897    2.0816 C   0  0  0  0  0  0  0  0  0  0  0  0
   -0.0860   -0.1442    2.8614 F   0  0  0  0  0  0  0  0  0  0  0  0
   -0.4785    1.9981    2.6444 F   0  0  0  0  0  0  0  0  0  0  0  0
   -2.0124    0.5392    2.1225 F   0  0  0  0  0  0  0  0  0  0  0  0
    3.0448   -0.9681    0.5250 N   0  0  0  0  0  0  0  0  0  0  0  0
    4.4462   -0.9609    0.7057 C   0  0  0  0  0  0  0  0  0  0  0  0
    5.1639    0.1850    1.0468 C   0  0  0  0  0  0  0  0  0  0  0  0
    6.5532    0.1536    1.1224 C   0  0  0  0  0  0  0  0  0  0  0  0
    7.2357   -1.0360    0.8934 C   0  0  0  0  0  0  0  0  0  0  0  0
    6.5419   -2.2300    0.6713 C   0  0  0  0  0  0  0  0  0  0  0  0
    7.2513   -3.5143    0.6011 C   0  0  0  0  0  0  0  0  0  0  0  0
    6.9891   -4.6351   -0.1733 C   0  0  0  0  0  0  0  0  0  0  0  0
    7.8884   -5.6423    0.0501 N   0  0  0  0  0  0  0  0  0  0  0  0
    8.7109   -5.1743    0.9613 C   0  0  0  0  0  0  0  0  0  0  0  0
    9.8571   -5.7702    1.5632 C   0  0  0  0  0  0  0  0  0  0  0  0
   10.5872   -5.1110    2.4971 C   0  0  0  0  0  0  0  0  0  0  0  0
   11.8068   -5.7558    3.0560 C   0  0  0  0  0  0  0  0  0  0  0  0
   12.1001   -7.0127    2.6672 N   0  0  0  0  0  0  0  0  0  0  0  0
   13.2393   -7.5422    3.1427 C   0  0  0  0  0  0  0  0  0  0  0  0
   14.0886   -6.8713    3.9861 C   0  0  0  0  0  0  0  0  0  0  0  0
   13.6845   -5.6055    4.3312 C   0  0  0  0  0  0  0  0  0  0  0  0
   14.4315   -4.8391    5.1782 O   0  0  0  0  0  0  0  0  0  0  0  0
   12.5655   -5.0241    3.8900 N   0  0  0  0  0  0  0  0  0  0  0  0
   10.1470   -3.7728    2.9173 C   0  0  0  0  0  0  0  0  0  0  0  0
    9.0573   -3.2144    2.3681 C   0  0  0  0  0  0  0  0  0  0  0  0
    8.3555   -3.8903    1.3668 N   0  0  0  0  0  0  0  0  0  0  0  0
    5.1430   -2.1695    0.5288 C   0  0  0  0  0  0  0  0  0  0  0  0
    0.6414   -1.2219    0.5369 H   0  0  0  0  0  0  0  0  0  0  0  0
   -1.0079    0.4524   -0.0316 H   0  0  0  0  0  0  0  0  0  0  0  0
    0.1670    1.7184    0.3212 H   0  0  0  0  0  0  0  0  0  0  0  0
    2.6407   -1.8276    0.1872 H   0  0  0  0  0  0  0  0  0  0  0  0
    4.6769    1.1347    1.2394 H   0  0  0  0  0  0  0  0  0  0  0  0
    7.1023    1.0606    1.3607 H   0  0  0  0  0  0  0  0  0  0  0  0
    8.3221   -1.0106    0.9070 H   0  0  0  0  0  0  0  0  0  0  0  0
    6.1960   -4.7652   -0.8984 H   0  0  0  0  0  0  0  0  0  0  0  0
   10.1218   -6.7665    1.2233 H   0  0  0  0  0  0  0  0  0  0  0  0
   13.4537   -8.5531    2.8072 H   0  0  0  0  0  0  0  0  0  0  0  0
   15.0044   -7.3219    4.3374 H   0  0  0  0  0  0  0  0  0  0  0  0
   15.1888   -5.3572    5.4797 H   0  0  0  0  0  0  0  0  0  0  0  0
   10.7167   -3.2509    3.6816 H   0  0  0  0  0  0  0  0  0  0  0  0
    8.7063   -2.2437    2.6845 H   0  0  0  0  0  0  0  0  0  0  0  0
    4.5911   -3.0783    0.3014 H   0  0  0  0  0  0  0  0  0  0  0  0
  1  2  2  0  0  0  0
  2  3  1  0  0  0  0
  2  9  1  0  0  0  0
  3  4  1  0  0  0  0
  3 32  1  0  0  0  0
  4  5  1  0  0  0  0
  4 33  1  0  0  0  0
  4 34  1  0  0  0  0
  5  6  1  0  0  0  0
  5  7  1  0  0  0  0
  5  8  1  0  0  0  0
  9 10  1  0  0  0  0
  9 35  1  0  0  0  0
 10 11  1  0  0  0  0
 10 31  2  0  0  0  0
 11 12  2  0  0  0  0
 11 36  1  0  0  0  0
 12 13  1  0  0  0  0
 12 37  1  0  0  0  0
 13 14  2  0  0  0  0
 13 38  1  0  0  0  0
 14 15  1  0  0  0  0
 14 31  1  0  0  0  0
 15 16  2  0  0  0  0
 15 30  1  0  0  0  0
 16 17  1  0  0  0  0
 16 39  1  0  0  0  0
 17 18  2  0  0  0  0
 18 19  1  0  0  0  0
 18 30  1  0  0  0  0
 19 20  2  0  0  0  0
 19 40  1  0  0  0  0
 20 21  1  0  0  0  0
 20 28  1  0  0  0  0
 21 22  1  0  0  0  0
 21 27  2  0  0  0  0
 22 23  2  0  0  0  0
 23 24  1  0  0  0  0
 23 41  1  0  0  0  0
 24 25  2  0  0  0  0
 24 42  1  0  0  0  0
 25 26  1  0  0  0  0
 25 27  1  0  0  0  0
 26 43  1  0  0  0  0
 28 29  2  0  0  0  0
 28 44  1  0  0  0  0
 29 30  1  0  0  0  0
 29 45  1  0  0  0  0
 31 46  1  0  0  0  0
M  END
$$$$
