CHEMBL3759313
 OpenBabel04072215373D

 56 58  0  0  0  0  0  0  0  0999 V2000
    2.4480    1.3848    1.0579 C   0  0  0  0  0  0  0  0  0  0  0  0
    2.3796    0.2273    0.2222 O   0  0  0  0  0  0  0  0  0  0  0  0
    2.9820   -0.8906    0.7366 C   0  0  0  0  0  0  0  0  0  0  0  0
    4.0974   -0.7849    1.5789 C   0  0  0  0  0  0  0  0  0  0  0  0
    4.6435   -1.8749    2.2260 C   0  0  0  0  0  0  0  0  0  0  0  0
    5.6517   -1.6394    3.0675 N   0  0  0  0  0  0  0  0  0  0  0  0
    6.1575   -2.6968    3.6975 C   0  0  0  0  0  0  0  0  0  0  0  0
    5.7683   -3.9568    3.5263 N   0  0  0  0  0  0  0  0  0  0  0  0
    4.7667   -4.1889    2.6519 C   0  0  0  0  0  0  0  0  0  0  0  0
    4.4256   -5.5403    2.3880 N   0  0  0  0  0  0  0  0  0  0  0  0
    5.2631   -6.6248    2.7569 C   0  0  0  0  0  0  0  0  0  0  0  0
    6.6397   -6.5865    2.4906 C   0  0  0  0  0  0  0  0  0  0  0  0
    7.4857   -7.5981    2.9432 C   0  0  0  0  0  0  0  0  0  0  0  0
    6.9612   -8.6790    3.6488 C   0  0  0  0  0  0  0  0  0  0  0  0
    5.5873   -8.7573    3.8807 C   0  0  0  0  0  0  0  0  0  0  0  0
    4.7508   -7.7394    3.4266 C   0  0  0  0  0  0  0  0  0  0  0  0
    3.4346   -7.8117    3.6822 F   0  0  0  0  0  0  0  0  0  0  0  0
    4.1128   -3.1445    1.9772 C   0  0  0  0  0  0  0  0  0  0  0  0
    3.0241   -3.2745    1.0739 C   0  0  0  0  0  0  0  0  0  0  0  0
    2.4662   -2.1571    0.4396 C   0  0  0  0  0  0  0  0  0  0  0  0
    1.3847   -2.4443   -0.3550 O   0  0  0  0  0  0  0  0  0  0  0  0
    1.2613   -1.6797   -1.5587 C   0  0  0  0  0  0  0  0  0  0  0  0
    0.1722   -2.3149   -2.4339 C   0  0  0  0  0  0  0  0  0  0  0  0
   -0.0567   -1.4962   -3.7061 C   0  0  0  0  0  0  0  0  0  0  0  0
   -1.1906   -2.0470   -4.5769 C   0  0  0  0  0  0  0  0  0  0  0  0
   -1.3796   -1.1754   -5.8236 C   0  0  0  0  0  0  0  0  0  0  0  0
   -2.5099   -1.6762   -6.7214 C   0  0  0  0  0  0  0  0  0  0  0  0
   -2.7009   -0.7851   -7.9326 C   0  0  0  0  0  0  0  0  0  0  0  0
   -2.0316    0.2118   -8.1840 O   0  0  0  0  0  0  0  0  0  0  0  0
   -3.7274   -1.1968   -8.7564 N   0  0  0  0  0  0  0  0  0  0  0  0
   -3.8711   -0.4595   -9.9565 O   0  0  0  0  0  0  0  0  0  0  0  0
    1.6464    2.0657    0.7603 H   0  0  0  0  0  0  0  0  0  0  0  0
    3.4028    1.9028    0.9128 H   0  0  0  0  0  0  0  0  0  0  0  0
    2.2971    1.1381    2.1166 H   0  0  0  0  0  0  0  0  0  0  0  0
    4.5621    0.1791    1.7680 H   0  0  0  0  0  0  0  0  0  0  0  0
    6.9590   -2.5194    4.4051 H   0  0  0  0  0  0  0  0  0  0  0  0
    3.4497   -5.7182    2.6109 H   0  0  0  0  0  0  0  0  0  0  0  0
    7.0641   -5.7404    1.9543 H   0  0  0  0  0  0  0  0  0  0  0  0
    8.5545   -7.5257    2.7591 H   0  0  0  0  0  0  0  0  0  0  0  0
    7.6245   -9.4544    4.0213 H   0  0  0  0  0  0  0  0  0  0  0  0
    5.1662   -9.5932    4.4280 H   0  0  0  0  0  0  0  0  0  0  0  0
    2.6022   -4.2552    0.8653 H   0  0  0  0  0  0  0  0  0  0  0  0
    2.2143   -1.6692   -2.1022 H   0  0  0  0  0  0  0  0  0  0  0  0
    0.9465   -0.6583   -1.3307 H   0  0  0  0  0  0  0  0  0  0  0  0
   -0.7583   -2.3856   -1.8566 H   0  0  0  0  0  0  0  0  0  0  0  0
    0.4517   -3.3454   -2.6849 H   0  0  0  0  0  0  0  0  0  0  0  0
    0.8706   -1.4703   -4.2911 H   0  0  0  0  0  0  0  0  0  0  0  0
   -0.2913   -0.4604   -3.4309 H   0  0  0  0  0  0  0  0  0  0  0  0
   -2.1233   -2.0705   -4.0006 H   0  0  0  0  0  0  0  0  0  0  0  0
   -0.9656   -3.0779   -4.8753 H   0  0  0  0  0  0  0  0  0  0  0  0
   -0.4438   -1.1480   -6.3962 H   0  0  0  0  0  0  0  0  0  0  0  0
   -1.5893   -0.1425   -5.5180 H   0  0  0  0  0  0  0  0  0  0  0  0
   -3.4509   -1.7011   -6.1604 H   0  0  0  0  0  0  0  0  0  0  0  0
   -2.2885   -2.6929   -7.0684 H   0  0  0  0  0  0  0  0  0  0  0  0
   -4.0768   -2.1500   -8.7677 H   0  0  0  0  0  0  0  0  0  0  0  0
   -3.1844    0.2375   -9.8580 H   0  0  0  0  0  0  0  0  0  0  0  0
  1  2  1  0  0  0  0
  1 32  1  0  0  0  0
  1 33  1  0  0  0  0
  1 34  1  0  0  0  0
  2  3  1  0  0  0  0
  3  4  1  0  0  0  0
  3 20  2  0  0  0  0
  4  5  2  0  0  0  0
  4 35  1  0  0  0  0
  5  6  1  0  0  0  0
  5 18  1  0  0  0  0
  6  7  2  0  0  0  0
  7  8  1  0  0  0  0
  7 36  1  0  0  0  0
  8  9  2  0  0  0  0
  9 10  1  0  0  0  0
  9 18  1  0  0  0  0
 10 11  1  0  0  0  0
 10 37  1  0  0  0  0
 11 12  1  0  0  0  0
 11 16  2  0  0  0  0
 12 13  2  0  0  0  0
 12 38  1  0  0  0  0
 13 14  1  0  0  0  0
 13 39  1  0  0  0  0
 14 15  2  0  0  0  0
 14 40  1  0  0  0  0
 15 16  1  0  0  0  0
 15 41  1  0  0  0  0
 16 17  1  0  0  0  0
 18 19  2  0  0  0  0
 19 20  1  0  0  0  0
 19 42  1  0  0  0  0
 20 21  1  0  0  0  0
 21 22  1  0  0  0  0
 22 23  1  0  0  0  0
 22 43  1  0  0  0  0
 22 44  1  0  0  0  0
 23 24  1  0  0  0  0
 23 45  1  0  0  0  0
 23 46  1  0  0  0  0
 24 25  1  0  0  0  0
 24 47  1  0  0  0  0
 24 48  1  0  0  0  0
 25 26  1  0  0  0  0
 25 49  1  0  0  0  0
 25 50  1  0  0  0  0
 26 27  1  0  0  0  0
 26 51  1  0  0  0  0
 26 52  1  0  0  0  0
 27 28  1  0  0  0  0
 27 53  1  0  0  0  0
 27 54  1  0  0  0  0
 28 29  2  0  0  0  0
 28 30  1  0  0  0  0
 30 31  1  0  0  0  0
 30 55  1  0  0  0  0
 31 56  1  0  0  0  0
M  END
$$$$
