CHEMBL1988153
 OpenBabel04072215363D

 36 39  0  0  0  0  0  0  0  0999 V2000
   -0.5324   -2.1956   -0.8749 C   0  0  0  0  0  0  0  0  0  0  0  0
   -0.0687   -0.9699   -0.2029 C   0  0  0  0  0  0  0  0  0  0  0  0
   -0.5483   -0.3442    0.8477 N   0  0  0  0  0  0  0  0  0  0  0  0
    0.2888    0.7300    1.0743 N   0  0  0  0  0  0  0  0  0  0  0  0
    1.2246    0.6929    0.1449 C   0  0  0  0  0  0  0  0  0  0  0  0
    2.3193    1.6162    0.0540 C   0  0  0  0  0  0  0  0  0  0  0  0
    2.6558    2.6246    0.9351 C   0  0  0  0  0  0  0  0  0  0  0  0
    3.8868    3.2944    0.5932 C   0  0  0  0  0  0  0  0  0  0  0  0
    4.6012    4.3294    1.2410 C   0  0  0  0  0  0  0  0  0  0  0  0
    4.0787    4.9107    2.3811 O   0  0  0  0  0  0  0  0  0  0  0  0
    4.3990    6.2229    2.6598 C   0  0  0  0  0  0  0  0  0  0  0  0
    4.5300    7.2116    1.6803 C   0  0  0  0  0  0  0  0  0  0  0  0
    4.9760    8.4878    2.0260 C   0  0  0  0  0  0  0  0  0  0  0  0
    5.2340    8.8129    3.3651 C   0  0  0  0  0  0  0  0  0  0  0  0
    5.7821   10.1684    3.7412 C   0  0  0  0  0  0  0  0  0  0  0  0
    6.0726   10.9540    2.6663 F   0  0  0  0  0  0  0  0  0  0  0  0
    4.9194   10.8874    4.5084 F   0  0  0  0  0  0  0  0  0  0  0  0
    6.9379   10.0798    4.4575 F   0  0  0  0  0  0  0  0  0  0  0  0
    4.9880    7.8467    4.3547 C   0  0  0  0  0  0  0  0  0  0  0  0
    4.5747    6.5574    4.0026 C   0  0  0  0  0  0  0  0  0  0  0  0
    5.8483    4.6502    0.7037 C   0  0  0  0  0  0  0  0  0  0  0  0
    6.3452    4.1567   -0.4495 N   0  0  0  0  0  0  0  0  0  0  0  0
    5.6210    3.2389   -1.1215 C   0  0  0  0  0  0  0  0  0  0  0  0
    4.4176    2.7723   -0.5901 C   0  0  0  0  0  0  0  0  0  0  0  0
    3.4185    1.5417   -1.2482 S   0  0  0  0  0  0  0  0  0  0  0  0
    1.0447   -0.3699   -0.7140 O   0  0  0  0  0  0  0  0  0  0  0  0
   -1.4704   -2.5485   -0.4379 H   0  0  0  0  0  0  0  0  0  0  0  0
    0.2140   -2.9901   -0.7705 H   0  0  0  0  0  0  0  0  0  0  0  0
   -0.6956   -2.0132   -1.9406 H   0  0  0  0  0  0  0  0  0  0  0  0
    2.0774    2.8505    1.8252 H   0  0  0  0  0  0  0  0  0  0  0  0
    4.3310    6.9923    0.6331 H   0  0  0  0  0  0  0  0  0  0  0  0
    5.1399    9.2221    1.2384 H   0  0  0  0  0  0  0  0  0  0  0  0
    5.1421    8.0903    5.4056 H   0  0  0  0  0  0  0  0  0  0  0  0
    4.4132    5.8111    4.7772 H   0  0  0  0  0  0  0  0  0  0  0  0
    6.5098    5.3597    1.1943 H   0  0  0  0  0  0  0  0  0  0  0  0
    6.0364    2.8707   -2.0528 H   0  0  0  0  0  0  0  0  0  0  0  0
  1  2  1  0  0  0  0
  1 27  1  0  0  0  0
  1 28  1  0  0  0  0
  1 29  1  0  0  0  0
  2  3  2  0  0  0  0
  2 26  1  0  0  0  0
  3  4  1  0  0  0  0
  4  5  2  0  0  0  0
  5  6  1  0  0  0  0
  5 26  1  0  0  0  0
  6  7  2  0  0  0  0
  6 25  1  0  0  0  0
  7  8  1  0  0  0  0
  7 30  1  0  0  0  0
  8  9  1  0  0  0  0
  8 24  2  0  0  0  0
  9 10  1  0  0  0  0
  9 21  2  0  0  0  0
 10 11  1  0  0  0  0
 11 12  1  0  0  0  0
 11 20  2  0  0  0  0
 12 13  2  0  0  0  0
 12 31  1  0  0  0  0
 13 14  1  0  0  0  0
 13 32  1  0  0  0  0
 14 15  1  0  0  0  0
 14 19  2  0  0  0  0
 15 16  1  0  0  0  0
 15 17  1  0  0  0  0
 15 18  1  0  0  0  0
 19 20  1  0  0  0  0
 19 33  1  0  0  0  0
 20 34  1  0  0  0  0
 21 22  1  0  0  0  0
 21 35  1  0  0  0  0
 22 23  2  0  0  0  0
 23 24  1  0  0  0  0
 23 36  1  0  0  0  0
 24 25  1  0  0  0  0
M  END
$$$$
