CHEMBL3981567
 OpenBabel04072215373D

 72 76  0  0  0  0  0  0  0  0999 V2000
    3.3941   -1.1731    0.3074 C   0  0  0  0  0  0  0  0  0  0  0  0
    3.3392   -0.1183    1.2655 O   0  0  0  0  0  0  0  0  0  0  0  0
    3.8801    1.0822    0.8881 C   0  0  0  0  0  0  0  0  0  0  0  0
    4.8976    1.1675   -0.0626 C   0  0  0  0  0  0  0  0  0  0  0  0
    5.2680    2.3997   -0.6470 C   0  0  0  0  0  0  0  0  0  0  0  0
    6.1336    2.5269   -1.7607 C   0  0  0  0  0  0  0  0  0  0  0  0
    6.7370    1.4662   -2.4213 O   0  0  0  0  0  0  0  0  0  0  0  0
    5.9693    0.4382   -2.9312 C   0  0  0  0  0  0  0  0  0  0  0  0
    4.5946    0.4997   -3.1351 C   0  0  0  0  0  0  0  0  0  0  0  0
    3.8865   -0.6519   -3.4895 C   0  0  0  0  0  0  0  0  0  0  0  0
    4.5339   -1.8726   -3.7075 C   0  0  0  0  0  0  0  0  0  0  0  0
    3.8292   -3.0632   -4.0166 N   0  0  0  0  0  0  0  0  0  0  0  0
    2.4554   -3.2202   -3.9138 C   0  0  0  0  0  0  0  0  0  0  0  0
    1.6764   -2.4013   -3.4404 O   0  0  0  0  0  0  0  0  0  0  0  0
    1.8567   -4.4933   -4.4371 C   0  0  0  0  0  0  0  0  0  0  0  0
    0.8884   -5.1087   -3.4734 C   0  0  0  0  0  0  0  0  0  0  0  0
    1.3604   -5.6852   -2.4988 O   0  0  0  0  0  0  0  0  0  0  0  0
   -0.4640   -5.0142   -3.7740 N   0  0  0  0  0  0  0  0  0  0  0  0
   -1.4189   -5.5707   -2.8995 C   0  0  0  0  0  0  0  0  0  0  0  0
   -1.3365   -5.3394   -1.5195 C   0  0  0  0  0  0  0  0  0  0  0  0
   -2.1573   -6.0395   -0.6386 C   0  0  0  0  0  0  0  0  0  0  0  0
   -3.0544   -6.9685   -1.1458 C   0  0  0  0  0  0  0  0  0  0  0  0
   -3.7841   -7.7081   -0.3007 F   0  0  0  0  0  0  0  0  0  0  0  0
   -3.1943   -7.1556   -2.5191 C   0  0  0  0  0  0  0  0  0  0  0  0
   -2.3979   -6.4264   -3.4072 C   0  0  0  0  0  0  0  0  0  0  0  0
    2.5905   -5.5138   -5.3098 C   0  0  0  0  0  0  0  0  0  0  0  0
    1.6803   -4.5198   -5.9537 C   0  0  0  0  0  0  0  0  0  0  0  0
    5.9265   -1.9076   -3.6276 C   0  0  0  0  0  0  0  0  0  0  0  0
    6.6268   -0.7614   -3.2292 C   0  0  0  0  0  0  0  0  0  0  0  0
    7.9602   -0.8335   -3.1137 F   0  0  0  0  0  0  0  0  0  0  0  0
    6.4775    3.7852   -2.2414 C   0  0  0  0  0  0  0  0  0  0  0  0
    5.9057    4.8816   -1.6317 C   0  0  0  0  0  0  0  0  0  0  0  0
    5.0313    4.8035   -0.6068 N   0  0  0  0  0  0  0  0  0  0  0  0
    4.7137    3.5875   -0.1295 C   0  0  0  0  0  0  0  0  0  0  0  0
    3.8048    3.4936    0.9231 C   0  0  0  0  0  0  0  0  0  0  0  0
    3.3875    2.2622    1.4520 C   0  0  0  0  0  0  0  0  0  0  0  0
    2.4852    2.3636    2.4848 O   0  0  0  0  0  0  0  0  0  0  0  0
    2.5088    1.2944    3.4367 C   0  0  0  0  0  0  0  0  0  0  0  0
    2.1037    1.8094    4.8173 C   0  0  0  0  0  0  0  0  0  0  0  0
    0.6673    2.3249    4.8511 C   0  0  0  0  0  0  0  0  0  0  0  0
    0.2380    2.7473    6.2420 C   0  0  0  0  0  0  0  0  0  0  0  0
    0.9431    2.6958    7.2396 O   0  0  0  0  0  0  0  0  0  0  0  0
   -1.0591    3.2062    6.2867 N   0  0  0  0  0  0  0  0  0  0  0  0
   -1.5638    3.5095    7.5725 O   0  0  0  0  0  0  0  0  0  0  0  0
    4.2550   -1.8132    0.5184 H   0  0  0  0  0  0  0  0  0  0  0  0
    3.4275   -0.8219   -0.7284 H   0  0  0  0  0  0  0  0  0  0  0  0
    2.4824   -1.7727    0.3992 H   0  0  0  0  0  0  0  0  0  0  0  0
    5.3809    0.2586   -0.4014 H   0  0  0  0  0  0  0  0  0  0  0  0
    4.0254    1.4091   -2.9511 H   0  0  0  0  0  0  0  0  0  0  0  0
    2.8083   -0.5512   -3.5584 H   0  0  0  0  0  0  0  0  0  0  0  0
    4.3803   -3.8771   -4.2544 H   0  0  0  0  0  0  0  0  0  0  0  0
   -0.7261   -4.8594   -4.7370 H   0  0  0  0  0  0  0  0  0  0  0  0
   -0.6178   -4.6249   -1.1232 H   0  0  0  0  0  0  0  0  0  0  0  0
   -2.0725   -5.8899    0.4325 H   0  0  0  0  0  0  0  0  0  0  0  0
   -3.8961   -7.8985   -2.8841 H   0  0  0  0  0  0  0  0  0  0  0  0
   -2.4834   -6.6137   -4.4730 H   0  0  0  0  0  0  0  0  0  0  0  0
    2.2460   -6.5468   -5.2871 H   0  0  0  0  0  0  0  0  0  0  0  0
    3.6576   -5.4370   -5.4615 H   0  0  0  0  0  0  0  0  0  0  0  0
    0.7532   -4.8673   -6.3863 H   0  0  0  0  0  0  0  0  0  0  0  0
    2.1534   -3.7334   -6.5370 H   0  0  0  0  0  0  0  0  0  0  0  0
    6.4910   -2.8148   -3.8199 H   0  0  0  0  0  0  0  0  0  0  0  0
    7.1661    3.9064   -3.0693 H   0  0  0  0  0  0  0  0  0  0  0  0
    6.1383    5.8904   -1.9618 H   0  0  0  0  0  0  0  0  0  0  0  0
    3.3939    4.4126    1.3381 H   0  0  0  0  0  0  0  0  0  0  0  0
    3.5142    0.8682    3.5351 H   0  0  0  0  0  0  0  0  0  0  0  0
    1.8048    0.5181    3.1152 H   0  0  0  0  0  0  0  0  0  0  0  0
    2.7840    2.6136    5.1215 H   0  0  0  0  0  0  0  0  0  0  0  0
    2.2199    0.9939    5.5423 H   0  0  0  0  0  0  0  0  0  0  0  0
   -0.0164    1.5361    4.5149 H   0  0  0  0  0  0  0  0  0  0  0  0
    0.5577    3.1861    4.1824 H   0  0  0  0  0  0  0  0  0  0  0  0
   -1.7427    2.9833    5.5715 H   0  0  0  0  0  0  0  0  0  0  0  0
   -0.7852    3.3419    8.1481 H   0  0  0  0  0  0  0  0  0  0  0  0
  1  2  1  0  0  0  0
  1 45  1  0  0  0  0
  1 46  1  0  0  0  0
  1 47  1  0  0  0  0
  2  3  1  0  0  0  0
  3  4  1  0  0  0  0
  3 36  2  0  0  0  0
  4  5  2  0  0  0  0
  4 48  1  0  0  0  0
  5  6  1  0  0  0  0
  5 34  1  0  0  0  0
  6  7  1  0  0  0  0
  6 31  2  0  0  0  0
  7  8  1  0  0  0  0
  8  9  1  0  0  0  0
  8 29  2  0  0  0  0
  9 10  2  0  0  0  0
  9 49  1  0  0  0  0
 10 11  1  0  0  0  0
 10 50  1  0  0  0  0
 11 12  1  0  0  0  0
 11 28  2  0  0  0  0
 12 13  1  0  0  0  0
 12 51  1  0  0  0  0
 13 14  2  0  0  0  0
 13 15  1  0  0  0  0
 15 16  1  0  0  0  0
 15 26  1  0  0  0  0
 15 27  1  0  0  0  0
 16 17  2  0  0  0  0
 16 18  1  0  0  0  0
 18 19  1  0  0  0  0
 18 52  1  0  0  0  0
 19 20  1  0  0  0  0
 19 25  2  0  0  0  0
 20 21  2  0  0  0  0
 20 53  1  0  0  0  0
 21 22  1  0  0  0  0
 21 54  1  0  0  0  0
 22 23  1  0  0  0  0
 22 24  2  0  0  0  0
 24 25  1  0  0  0  0
 24 55  1  0  0  0  0
 25 56  1  0  0  0  0
 26 27  1  0  0  0  0
 26 57  1  0  0  0  0
 26 58  1  0  0  0  0
 27 59  1  0  0  0  0
 27 60  1  0  0  0  0
 28 29  1  0  0  0  0
 28 61  1  0  0  0  0
 29 30  1  0  0  0  0
 31 32  1  0  0  0  0
 31 62  1  0  0  0  0
 32 33  2  0  0  0  0
 32 63  1  0  0  0  0
 33 34  1  0  0  0  0
 34 35  2  0  0  0  0
 35 36  1  0  0  0  0
 35 64  1  0  0  0  0
 36 37  1  0  0  0  0
 37 38  1  0  0  0  0
 38 39  1  0  0  0  0
 38 65  1  0  0  0  0
 38 66  1  0  0  0  0
 39 40  1  0  0  0  0
 39 67  1  0  0  0  0
 39 68  1  0  0  0  0
 40 41  1  0  0  0  0
 40 69  1  0  0  0  0
 40 70  1  0  0  0  0
 41 42  2  0  0  0  0
 41 43  1  0  0  0  0
 43 44  1  0  0  0  0
 43 71  1  0  0  0  0
 44 72  1  0  0  0  0
M  END
$$$$
