CHEMBL3971050
 OpenBabel04072215373D

 65 69  0  0  1  0  0  0  0  0999 V2000
    4.8482    1.8404    5.1501 C   0  0  0  0  0  0  0  0  0  0  0  0
    3.8373    1.0274    4.5436 O   0  0  0  0  0  0  0  0  0  0  0  0
    4.0125    0.7724    3.2076 C   0  0  0  0  0  0  0  0  0  0  0  0
    5.2813    0.7081    2.6204 C   0  0  0  0  0  0  0  0  0  0  0  0
    5.4321    0.5683    1.2211 C   0  0  0  0  0  0  0  0  0  0  0  0
    6.6519    0.5573    0.5361 C   0  0  0  0  0  0  0  0  0  0  0  0
    7.8662    0.6522    1.2684 N   0  0  0  0  0  0  0  0  0  0  0  0
    9.0880    1.0292    0.6719 C   0  0  0  0  0  0  0  0  0  0  0  0
    9.1423    2.1688   -0.1391 C   0  0  0  0  0  0  0  0  0  0  0  0
   10.2997    2.4902   -0.8422 C   0  0  0  0  0  0  0  0  0  0  0  0
   11.4254    1.6761   -0.7278 C   0  0  0  0  0  0  0  0  0  0  0  0
   12.8053    2.0830   -1.6820 Cl  0  0  0  0  0  0  0  0  0  0  0  0
   11.3977    0.5648    0.1240 C   0  0  0  0  0  0  0  0  0  0  0  0
   12.7606   -0.4801    0.3218 Cl  0  0  0  0  0  0  0  0  0  0  0  0
   10.2327    0.2493    0.8333 C   0  0  0  0  0  0  0  0  0  0  0  0
    6.7173    0.4869   -0.8083 N   0  0  0  0  0  0  0  0  0  0  0  0
    5.5628    0.4149   -1.4711 C   0  0  0  0  0  0  0  0  0  0  0  0
    4.3500    0.3971   -0.9203 N   0  0  0  0  0  0  0  0  0  0  0  0
    4.3022    0.4774    0.4101 C   0  0  0  0  0  0  0  0  0  0  0  0
    3.0606    0.4690    1.0099 C   0  0  0  0  0  0  0  0  0  0  0  0
    2.8854    0.5599    2.4008 C   0  0  0  0  0  0  0  0  0  0  0  0
    1.6352    0.4574    2.9865 O   0  0  0  0  0  0  0  0  0  0  0  0
    0.6823   -0.2332    2.1555 C   0  0  0  0  0  0  0  0  0  0  0  0
   -0.5660   -0.7255    2.8842 C   0  0  3  0  0  0  0  0  0  0  0  0
   -1.4036    0.4202    3.4744 C   0  0  0  0  0  0  0  0  0  0  0  0
   -2.5910   -0.1429    4.1374 N   0  0  0  0  0  0  0  0  0  0  0  0
   -3.8633    0.0982    3.6642 C   0  0  0  0  0  0  0  0  0  0  0  0
   -4.6027   -0.8604    3.2045 N   0  0  0  0  0  0  0  0  0  0  0  0
   -5.8571   -0.5810    2.8398 C   0  0  0  0  0  0  0  0  0  0  0  0
   -6.9514   -0.3569    2.5190 N   0  0  0  0  0  0  0  0  0  0  0  0
   -4.1721    1.4242    3.8319 N   0  0  0  0  0  0  0  0  0  0  0  0
   -4.6586    2.3404    2.8193 C   0  0  0  0  0  0  0  0  0  0  0  0
   -4.3442    3.6934    3.4490 C   0  0  0  0  0  0  0  0  0  0  0  0
   -4.6750    3.4684    4.9183 C   0  0  0  0  0  0  0  0  0  0  0  0
   -4.3339    2.0002    5.1639 C   0  0  0  0  0  0  0  0  0  0  0  0
   -2.2916   -1.2187    5.0835 C   0  0  0  0  0  0  0  0  0  0  0  0
   -1.3672   -2.2730    4.4680 C   0  0  0  0  0  0  0  0  0  0  0  0
   -0.1911   -1.6793    3.8968 O   0  0  0  0  0  0  0  0  0  0  0  0
    4.3779    2.4564    5.9219 H   0  0  0  0  0  0  0  0  0  0  0  0
    5.3329    2.5311    4.4481 H   0  0  0  0  0  0  0  0  0  0  0  0
    5.6007    1.2040    5.6282 H   0  0  0  0  0  0  0  0  0  0  0  0
    6.1713    0.7919    3.2372 H   0  0  0  0  0  0  0  0  0  0  0  0
    7.9449   -0.1401    1.8950 H   0  0  0  0  0  0  0  0  0  0  0  0
    8.2582    2.7940   -0.2558 H   0  0  0  0  0  0  0  0  0  0  0  0
   10.3002    3.3586   -1.4950 H   0  0  0  0  0  0  0  0  0  0  0  0
   10.2135   -0.6313    1.4696 H   0  0  0  0  0  0  0  0  0  0  0  0
    5.6133    0.3713   -2.5534 H   0  0  0  0  0  0  0  0  0  0  0  0
    2.2126    0.3949    0.3366 H   0  0  0  0  0  0  0  0  0  0  0  0
    1.1582   -1.1235    1.7214 H   0  0  0  0  0  0  0  0  0  0  0  0
    0.3575    0.4470    1.3586 H   0  0  0  0  0  0  0  0  0  0  0  0
   -1.1711   -1.2615    2.1385 H   0  0  0  0  0  0  0  0  0  0  0  0
   -1.6929    1.1106    2.6721 H   0  0  0  0  0  0  0  0  0  0  0  0
   -0.8261    0.9846    4.2135 H   0  0  0  0  0  0  0  0  0  0  0  0
   -5.7379    2.2332    2.6722 H   0  0  0  0  0  0  0  0  0  0  0  0
   -4.1455    2.2155    1.8611 H   0  0  0  0  0  0  0  0  0  0  0  0
   -4.9150    4.5138    3.0067 H   0  0  0  0  0  0  0  0  0  0  0  0
   -3.2755    3.9186    3.3423 H   0  0  0  0  0  0  0  0  0  0  0  0
   -5.7422    3.6410    5.0988 H   0  0  0  0  0  0  0  0  0  0  0  0
   -4.1118    4.1332    5.5803 H   0  0  0  0  0  0  0  0  0  0  0  0
   -5.1503    1.5015    5.6998 H   0  0  0  0  0  0  0  0  0  0  0  0
   -3.4177    1.9005    5.7541 H   0  0  0  0  0  0  0  0  0  0  0  0
   -3.2052   -1.6872    5.4633 H   0  0  0  0  0  0  0  0  0  0  0  0
   -1.7816   -0.7585    5.9383 H   0  0  0  0  0  0  0  0  0  0  0  0
   -1.8818   -2.8553    3.6955 H   0  0  0  0  0  0  0  0  0  0  0  0
   -1.0346   -2.9691    5.2446 H   0  0  0  0  0  0  0  0  0  0  0  0
  1  2  1  0  0  0  0
  1 39  1  0  0  0  0
  1 40  1  0  0  0  0
  1 41  1  0  0  0  0
  2  3  1  0  0  0  0
  3  4  1  0  0  0  0
  3 21  2  0  0  0  0
  4  5  2  0  0  0  0
  4 42  1  0  0  0  0
  5  6  1  0  0  0  0
  5 19  1  0  0  0  0
  6  7  1  0  0  0  0
  6 16  2  0  0  0  0
  7  8  1  0  0  0  0
  7 43  1  0  0  0  0
  8  9  1  0  0  0  0
  8 15  2  0  0  0  0
  9 10  2  0  0  0  0
  9 44  1  0  0  0  0
 10 11  1  0  0  0  0
 10 45  1  0  0  0  0
 11 12  1  0  0  0  0
 11 13  2  0  0  0  0
 13 14  1  0  0  0  0
 13 15  1  0  0  0  0
 15 46  1  0  0  0  0
 16 17  1  0  0  0  0
 17 18  2  0  0  0  0
 17 47  1  0  0  0  0
 18 19  1  0  0  0  0
 19 20  2  0  0  0  0
 20 21  1  0  0  0  0
 20 48  1  0  0  0  0
 21 22  1  0  0  0  0
 22 23  1  0  0  0  0
 23 24  1  0  0  0  0
 23 49  1  0  0  0  0
 23 50  1  0  0  0  0
 24 25  1  0  0  0  0
 24 38  1  0  0  0  0
 24 51  1  0  0  0  0
 25 26  1  0  0  0  0
 25 52  1  0  0  0  0
 25 53  1  0  0  0  0
 26 27  1  0  0  0  0
 26 36  1  0  0  0  0
 27 28  2  0  0  0  0
 27 31  1  0  0  0  0
 28 29  1  0  0  0  0
 29 30  3  0  0  0  0
 31 32  1  0  0  0  0
 31 35  1  0  0  0  0
 32 33  1  0  0  0  0
 32 54  1  0  0  0  0
 32 55  1  0  0  0  0
 33 34  1  0  0  0  0
 33 56  1  0  0  0  0
 33 57  1  0  0  0  0
 34 35  1  0  0  0  0
 34 58  1  0  0  0  0
 34 59  1  0  0  0  0
 35 60  1  0  0  0  0
 35 61  1  0  0  0  0
 36 37  1  0  0  0  0
 36 62  1  0  0  0  0
 36 63  1  0  0  0  0
 37 38  1  0  0  0  0
 37 64  1  0  0  0  0
 37 65  1  0  0  0  0
M  END
$$$$
