CHEMBL196705
 OpenBabel04072215363D

 48 51  0  0  0  0  0  0  0  0999 V2000
   -6.2634    1.3799   -2.8698 C   0  0  0  0  0  0  0  0  0  0  0  0
   -5.2831    0.5739   -2.0734 C   0  0  0  0  0  0  0  0  0  0  0  0
   -5.6917   -0.5721   -1.3946 C   0  0  0  0  0  0  0  0  0  0  0  0
   -4.7616   -1.3416   -0.6972 C   0  0  0  0  0  0  0  0  0  0  0  0
   -3.3971   -1.0064   -0.6842 C   0  0  0  0  0  0  0  0  0  0  0  0
   -2.4803   -1.7778    0.0870 N   0  0  0  0  0  0  0  0  0  0  0  0
   -2.5159   -3.2039    0.1583 C   0  0  0  0  0  0  0  0  0  0  0  0
   -3.1377   -3.8866   -0.8253 N   0  0  0  0  0  0  0  0  0  0  0  0
   -3.1772   -5.2529   -0.8336 N   0  0  0  0  0  0  0  0  0  0  0  0
   -2.5174   -5.9730    0.1010 C   0  0  0  0  0  0  0  0  0  0  0  0
   -2.7079   -7.4397   -0.0562 C   0  0  0  0  0  0  0  0  0  0  0  0
   -2.8423   -8.0091   -1.3396 C   0  0  0  0  0  0  0  0  0  0  0  0
   -3.0488   -9.3828   -1.5202 C   0  0  0  0  0  0  0  0  0  0  0  0
   -3.0957  -10.2355   -0.4175 C   0  0  0  0  0  0  0  0  0  0  0  0
   -3.3219  -11.6872   -0.6404 C   0  0  0  0  0  0  0  0  0  0  0  0
   -2.8361  -12.5501    0.3040 N   0  0  0  0  0  0  0  0  0  0  0  0
   -3.8924  -12.1026   -1.6391 O   0  0  0  0  0  0  0  0  0  0  0  0
   -2.9899   -9.6987    0.8670 C   0  0  0  0  0  0  0  0  0  0  0  0
   -2.8359   -8.3165    1.0378 C   0  0  0  0  0  0  0  0  0  0  0  0
   -1.7753   -5.3185    1.1146 C   0  0  0  0  0  0  0  0  0  0  0  0
   -0.9807   -5.9892    2.0801 C   0  0  0  0  0  0  0  0  0  0  0  0
   -0.3609   -5.3275    3.1412 C   0  0  0  0  0  0  0  0  0  0  0  0
   -0.4632   -3.9538    3.2337 C   0  0  0  0  0  0  0  0  0  0  0  0
   -1.1507   -3.2470    2.2479 C   0  0  0  0  0  0  0  0  0  0  0  0
   -1.8136   -3.8986    1.1711 C   0  0  0  0  0  0  0  0  0  0  0  0
   -2.9886    0.1883   -1.3038 C   0  0  0  0  0  0  0  0  0  0  0  0
   -1.5647    0.6740   -1.2866 C   0  0  0  0  0  0  0  0  0  0  0  0
   -3.9374    0.9576   -2.0062 C   0  0  0  0  0  0  0  0  0  0  0  0
   -7.2592    0.9247   -2.8584 H   0  0  0  0  0  0  0  0  0  0  0  0
   -5.9394    1.4406   -3.9139 H   0  0  0  0  0  0  0  0  0  0  0  0
   -6.3493    2.3906   -2.4577 H   0  0  0  0  0  0  0  0  0  0  0  0
   -6.7318   -0.8876   -1.4087 H   0  0  0  0  0  0  0  0  0  0  0  0
   -5.1156   -2.2275   -0.1750 H   0  0  0  0  0  0  0  0  0  0  0  0
   -2.5022   -1.3902    1.0239 H   0  0  0  0  0  0  0  0  0  0  0  0
   -2.8106   -7.3725   -2.2248 H   0  0  0  0  0  0  0  0  0  0  0  0
   -3.1768   -9.7799   -2.5254 H   0  0  0  0  0  0  0  0  0  0  0  0
   -2.1594  -12.2719    0.9984 H   0  0  0  0  0  0  0  0  0  0  0  0
   -2.9131  -13.5345    0.0865 H   0  0  0  0  0  0  0  0  0  0  0  0
   -3.0731  -10.3291    1.7478 H   0  0  0  0  0  0  0  0  0  0  0  0
   -2.8454   -7.9341    2.0564 H   0  0  0  0  0  0  0  0  0  0  0  0
   -0.8215   -7.0649    2.0262 H   0  0  0  0  0  0  0  0  0  0  0  0
    0.2010   -5.8895    3.8827 H   0  0  0  0  0  0  0  0  0  0  0  0
    0.0076   -3.4253    4.0586 H   0  0  0  0  0  0  0  0  0  0  0  0
   -1.1651   -2.1642    2.3445 H   0  0  0  0  0  0  0  0  0  0  0  0
   -0.8894   -0.0060   -0.7595 H   0  0  0  0  0  0  0  0  0  0  0  0
   -1.5104    1.6475   -0.7879 H   0  0  0  0  0  0  0  0  0  0  0  0
   -1.1922    0.7780   -2.3108 H   0  0  0  0  0  0  0  0  0  0  0  0
   -3.6167    1.8636   -2.5188 H   0  0  0  0  0  0  0  0  0  0  0  0
  1  2  1  0  0  0  0
  1 29  1  0  0  0  0
  1 30  1  0  0  0  0
  1 31  1  0  0  0  0
  2  3  1  0  0  0  0
  2 28  2  0  0  0  0
  3  4  2  0  0  0  0
  3 32  1  0  0  0  0
  4  5  1  0  0  0  0
  4 33  1  0  0  0  0
  5  6  1  0  0  0  0
  5 26  2  0  0  0  0
  6  7  1  0  0  0  0
  6 34  1  0  0  0  0
  7  8  1  0  0  0  0
  7 25  2  0  0  0  0
  8  9  2  0  0  0  0
  9 10  1  0  0  0  0
 10 11  1  0  0  0  0
 10 20  2  0  0  0  0
 11 12  1  0  0  0  0
 11 19  2  0  0  0  0
 12 13  2  0  0  0  0
 12 35  1  0  0  0  0
 13 14  1  0  0  0  0
 13 36  1  0  0  0  0
 14 15  1  0  0  0  0
 14 18  2  0  0  0  0
 15 16  1  0  0  0  0
 15 17  2  0  0  0  0
 16 37  1  0  0  0  0
 16 38  1  0  0  0  0
 18 19  1  0  0  0  0
 18 39  1  0  0  0  0
 19 40  1  0  0  0  0
 20 21  1  0  0  0  0
 20 25  1  0  0  0  0
 21 22  2  0  0  0  0
 21 41  1  0  0  0  0
 22 23  1  0  0  0  0
 22 42  1  0  0  0  0
 23 24  2  0  0  0  0
 23 43  1  0  0  0  0
 24 25  1  0  0  0  0
 24 44  1  0  0  0  0
 26 27  1  0  0  0  0
 26 28  1  0  0  0  0
 27 45  1  0  0  0  0
 27 46  1  0  0  0  0
 27 47  1  0  0  0  0
 28 48  1  0  0  0  0
M  END
$$$$
