CHEMBL46694
 OpenBabel04072215383D

 64 68  0  0  0  0  0  0  0  0999 V2000
    2.4763   -2.9969    6.7942 C   0  0  0  0  0  0  0  0  0  0  0  0
    1.8662   -2.0043    5.8357 C   0  0  0  0  0  0  0  0  0  0  0  0
    0.8338   -2.2870    5.2259 O   0  0  0  0  0  0  0  0  0  0  0  0
    2.5309   -0.7902    5.6687 N   0  0  0  0  0  0  0  0  0  0  0  0
    3.8790   -0.5652    6.1982 C   0  0  0  0  0  0  0  0  0  0  0  0
    4.3484    0.8989    6.1344 C   0  0  0  0  0  0  0  0  0  0  0  0
    4.0740    1.6009    4.8848 N   0  0  0  0  0  0  0  0  0  0  0  0
    5.1020    1.5567    3.8511 C   0  0  0  0  0  0  0  0  0  0  0  0
    5.4866    0.2342    3.2347 C   0  0  0  0  0  0  0  0  0  0  0  0
    4.8393   -0.2688    2.1074 C   0  0  0  0  0  0  0  0  0  0  0  0
    5.2877   -1.4401    1.4731 C   0  0  0  0  0  0  0  0  0  0  0  0
    4.6047   -1.9278    0.2294 C   0  0  0  0  0  0  0  0  0  0  0  0
    6.4454   -2.0849    1.9442 C   0  0  0  0  0  0  0  0  0  0  0  0
    7.1426   -1.5702    3.0395 C   0  0  0  0  0  0  0  0  0  0  0  0
    8.3129   -2.1878    3.5149 N   0  0  0  0  0  0  0  0  0  0  0  0
    9.3470   -1.5095    4.1707 C   0  0  0  0  0  0  0  0  0  0  0  0
    9.5971   -0.2274    3.8609 N   0  0  0  0  0  0  0  0  0  0  0  0
   10.4629    0.4491    4.6302 C   0  0  0  0  0  0  0  0  0  0  0  0
   11.0981   -0.1034    5.7082 C   0  0  0  0  0  0  0  0  0  0  0  0
   10.8636   -1.4484    5.8952 C   0  0  0  0  0  0  0  0  0  0  0  0
   11.6031   -2.1461    6.8871 N   0  0  0  0  0  0  0  0  0  0  0  0
   12.0032   -1.6261    8.1020 C   0  0  0  0  0  0  0  0  0  0  0  0
   12.5608   -2.6731    8.7885 C   0  0  0  0  0  0  0  0  0  0  0  0
   12.5903   -3.7962    8.0131 N   0  0  0  0  0  0  0  0  0  0  0  0
   12.0660   -3.4635    6.8388 C   0  0  0  0  0  0  0  0  0  0  0  0
   12.0690   -4.3556    5.6598 C   0  0  0  0  0  0  0  0  0  0  0  0
   12.0098   -5.7431    5.8433 C   0  0  0  0  0  0  0  0  0  0  0  0
   11.9725   -6.6111    4.7460 C   0  0  0  0  0  0  0  0  0  0  0  0
   11.9831   -6.1040    3.4479 C   0  0  0  0  0  0  0  0  0  0  0  0
   12.0853   -4.7338    3.2451 C   0  0  0  0  0  0  0  0  0  0  0  0
   12.1713   -3.8760    4.3432 C   0  0  0  0  0  0  0  0  0  0  0  0
   10.0017   -2.1592    5.1326 N   0  0  0  0  0  0  0  0  0  0  0  0
    6.6115   -0.4498    3.7032 C   0  0  0  0  0  0  0  0  0  0  0  0
    2.6905    1.4190    4.4522 C   0  0  0  0  0  0  0  0  0  0  0  0
    2.1547   -0.0197    4.4833 C   0  0  0  0  0  0  0  0  0  0  0  0
    1.8378   -3.8839    6.8503 H   0  0  0  0  0  0  0  0  0  0  0  0
    2.5535   -2.5705    7.7967 H   0  0  0  0  0  0  0  0  0  0  0  0
    3.4590   -3.3101    6.4307 H   0  0  0  0  0  0  0  0  0  0  0  0
    4.5625   -1.2198    5.6499 H   0  0  0  0  0  0  0  0  0  0  0  0
    3.8969   -0.8794    7.2478 H   0  0  0  0  0  0  0  0  0  0  0  0
    5.4086    0.9639    6.4077 H   0  0  0  0  0  0  0  0  0  0  0  0
    3.8188    1.4475    6.9259 H   0  0  0  0  0  0  0  0  0  0  0  0
    6.0122    2.0167    4.2659 H   0  0  0  0  0  0  0  0  0  0  0  0
    4.8264    2.2427    3.0396 H   0  0  0  0  0  0  0  0  0  0  0  0
    3.9825    0.2626    1.6962 H   0  0  0  0  0  0  0  0  0  0  0  0
    3.5933   -1.5150    0.1500 H   0  0  0  0  0  0  0  0  0  0  0  0
    4.5161   -3.0193    0.2423 H   0  0  0  0  0  0  0  0  0  0  0  0
    5.1735   -1.6268   -0.6567 H   0  0  0  0  0  0  0  0  0  0  0  0
    6.8127   -2.9699    1.4272 H   0  0  0  0  0  0  0  0  0  0  0  0
    8.7067   -2.9073    2.9263 H   0  0  0  0  0  0  0  0  0  0  0  0
   10.6329    1.4784    4.3306 H   0  0  0  0  0  0  0  0  0  0  0  0
   11.7975    0.4767    6.2935 H   0  0  0  0  0  0  0  0  0  0  0  0
   11.7876   -0.6116    8.4046 H   0  0  0  0  0  0  0  0  0  0  0  0
   12.9416   -2.6763    9.8022 H   0  0  0  0  0  0  0  0  0  0  0  0
   11.9920   -6.1559    6.8504 H   0  0  0  0  0  0  0  0  0  0  0  0
   11.9329   -7.6844    4.9084 H   0  0  0  0  0  0  0  0  0  0  0  0
   11.9256   -6.7768    2.5970 H   0  0  0  0  0  0  0  0  0  0  0  0
   12.0995   -4.3254    2.2387 H   0  0  0  0  0  0  0  0  0  0  0  0
   12.2953   -2.8166    4.1398 H   0  0  0  0  0  0  0  0  0  0  0  0
    7.1227   -0.0656    4.5845 H   0  0  0  0  0  0  0  0  0  0  0  0
    2.5233    1.8583    3.4613 H   0  0  0  0  0  0  0  0  0  0  0  0
    2.0700    2.0149    5.1351 H   0  0  0  0  0  0  0  0  0  0  0  0
    2.5069   -0.5803    3.6119 H   0  0  0  0  0  0  0  0  0  0  0  0
    1.0602    0.0136    4.4157 H   0  0  0  0  0  0  0  0  0  0  0  0
  1  2  1  0  0  0  0
  1 36  1  0  0  0  0
  1 37  1  0  0  0  0
  1 38  1  0  0  0  0
  2  3  2  0  0  0  0
  2  4  1  0  0  0  0
  4  5  1  0  0  0  0
  4 35  1  0  0  0  0
  5  6  1  0  0  0  0
  5 39  1  0  0  0  0
  5 40  1  0  0  0  0
  6  7  1  0  0  0  0
  6 41  1  0  0  0  0
  6 42  1  0  0  0  0
  7  8  1  0  0  0  0
  7 34  1  0  0  0  0
  8  9  1  0  0  0  0
  8 43  1  0  0  0  0
  8 44  1  0  0  0  0
  9 10  1  0  0  0  0
  9 33  2  0  0  0  0
 10 11  2  0  0  0  0
 10 45  1  0  0  0  0
 11 12  1  0  0  0  0
 11 13  1  0  0  0  0
 12 46  1  0  0  0  0
 12 47  1  0  0  0  0
 12 48  1  0  0  0  0
 13 14  2  0  0  0  0
 13 49  1  0  0  0  0
 14 15  1  0  0  0  0
 14 33  1  0  0  0  0
 15 16  1  0  0  0  0
 15 50  1  0  0  0  0
 16 17  1  0  0  0  0
 16 32  2  0  0  0  0
 17 18  2  0  0  0  0
 18 19  1  0  0  0  0
 18 51  1  0  0  0  0
 19 20  2  0  0  0  0
 19 52  1  0  0  0  0
 20 21  1  0  0  0  0
 20 32  1  0  0  0  0
 21 22  1  0  0  0  0
 21 25  1  0  0  0  0
 22 23  2  0  0  0  0
 22 53  1  0  0  0  0
 23 24  1  0  0  0  0
 23 54  1  0  0  0  0
 24 25  2  0  0  0  0
 25 26  1  0  0  0  0
 26 27  1  0  0  0  0
 26 31  2  0  0  0  0
 27 28  2  0  0  0  0
 27 55  1  0  0  0  0
 28 29  1  0  0  0  0
 28 56  1  0  0  0  0
 29 30  2  0  0  0  0
 29 57  1  0  0  0  0
 30 31  1  0  0  0  0
 30 58  1  0  0  0  0
 31 59  1  0  0  0  0
 33 60  1  0  0  0  0
 34 35  1  0  0  0  0
 34 61  1  0  0  0  0
 34 62  1  0  0  0  0
 35 63  1  0  0  0  0
 35 64  1  0  0  0  0
M  END
$$$$
