CHEMBL189291
 OpenBabel04072215363D

 65 68  0  0  0  0  0  0  0  0999 V2000
    1.0218   -0.1015    0.0313 C   0  0  0  0  0  0  0  0  0  0  0  0
    2.4654   -0.1792   -0.1532 N   0  0  0  0  0  0  0  0  0  0  0  0
    3.0772    0.8200   -0.9489 C   0  0  0  0  0  0  0  0  0  0  0  0
    2.6078    2.1244   -0.9668 C   0  0  0  0  0  0  0  0  0  0  0  0
    3.1919    3.0852   -1.7856 C   0  0  0  0  0  0  0  0  0  0  0  0
    4.2718    2.7895   -2.6243 C   0  0  0  0  0  0  0  0  0  0  0  0
    4.8228    3.7365   -3.5261 N   0  0  0  0  0  0  0  0  0  0  0  0
    4.3555    5.0278   -3.6991 C   0  0  0  0  0  0  0  0  0  0  0  0
    3.4369    5.5426   -3.0685 O   0  0  0  0  0  0  0  0  0  0  0  0
    5.0192    5.7278   -4.6992 N   0  0  0  0  0  0  0  0  0  0  0  0
    4.5919    7.0681   -4.9480 C   0  0  0  0  0  0  0  0  0  0  0  0
    4.6034    8.0145   -3.9169 C   0  0  0  0  0  0  0  0  0  0  0  0
    4.1402    9.3246   -4.1292 C   0  0  0  0  0  0  0  0  0  0  0  0
    4.1914   10.3394   -3.0106 C   0  0  0  0  0  0  0  0  0  0  0  0
    4.7215    9.8496   -1.8547 F   0  0  0  0  0  0  0  0  0  0  0  0
    4.9546   11.4209   -3.3350 F   0  0  0  0  0  0  0  0  0  0  0  0
    2.9666   10.8335   -2.6806 F   0  0  0  0  0  0  0  0  0  0  0  0
    3.6380    9.6692   -5.3960 C   0  0  0  0  0  0  0  0  0  0  0  0
    3.6209    8.7238   -6.4271 C   0  0  0  0  0  0  0  0  0  0  0  0
    4.1106    7.4380   -6.2025 C   0  0  0  0  0  0  0  0  0  0  0  0
    4.0501    6.5311   -7.1896 F   0  0  0  0  0  0  0  0  0  0  0  0
    4.8009    1.4994   -2.5714 C   0  0  0  0  0  0  0  0  0  0  0  0
    4.2055    0.5275   -1.7445 C   0  0  0  0  0  0  0  0  0  0  0  0
    3.1402   -0.9461    0.8362 C   0  0  0  0  0  0  0  0  0  0  0  0
    4.4498   -0.6370    1.1662 C   0  0  0  0  0  0  0  0  0  0  0  0
    5.0395   -1.3633    2.1580 C   0  0  0  0  0  0  0  0  0  0  0  0
    4.4182   -2.3612    2.7805 N   0  0  0  0  0  0  0  0  0  0  0  0
    3.1574   -2.6340    2.4062 C   0  0  0  0  0  0  0  0  0  0  0  0
    2.5066   -3.7092    3.0165 N   0  0  0  0  0  0  0  0  0  0  0  0
    2.7347   -4.1709    4.3241 C   0  0  0  0  0  0  0  0  0  0  0  0
    3.1566   -3.3193    5.3496 C   0  0  0  0  0  0  0  0  0  0  0  0
    3.3891   -3.8083    6.6318 C   0  0  0  0  0  0  0  0  0  0  0  0
    3.1707   -5.1577    6.9172 C   0  0  0  0  0  0  0  0  0  0  0  0
    2.7047   -6.0315    5.9221 C   0  0  0  0  0  0  0  0  0  0  0  0
    2.4931   -7.5077    6.1548 C   0  0  0  0  0  0  0  0  0  0  0  0
    1.2304   -7.8660    7.3705 S   0  0  0  0  0  0  0  0  0  0  0  0
   -0.2586   -7.1223    6.7358 C   0  0  0  0  0  0  0  0  0  0  0  0
    1.0160   -9.3021    7.3508 O   0  0  0  0  0  0  0  0  0  0  0  0
    1.5540   -7.2072    8.6228 O   0  0  0  0  0  0  0  0  0  0  0  0
    2.5074   -5.5192    4.6256 C   0  0  0  0  0  0  0  0  0  0  0  0
    2.4838   -1.9508    1.4637 N   0  0  0  0  0  0  0  0  0  0  0  0
    0.5355    0.5403   -0.7182 H   0  0  0  0  0  0  0  0  0  0  0  0
    0.7725    0.3073    1.0187 H   0  0  0  0  0  0  0  0  0  0  0  0
    0.5529   -1.0828   -0.0821 H   0  0  0  0  0  0  0  0  0  0  0  0
    1.7845    2.4367   -0.3307 H   0  0  0  0  0  0  0  0  0  0  0  0
    2.7555    4.0747   -1.7264 H   0  0  0  0  0  0  0  0  0  0  0  0
    5.5768    3.4277   -4.1198 H   0  0  0  0  0  0  0  0  0  0  0  0
    5.2264    5.1845   -5.5261 H   0  0  0  0  0  0  0  0  0  0  0  0
    4.9715    7.7292   -2.9298 H   0  0  0  0  0  0  0  0  0  0  0  0
    3.2591   10.6740   -5.5789 H   0  0  0  0  0  0  0  0  0  0  0  0
    3.2135    8.9813   -7.4002 H   0  0  0  0  0  0  0  0  0  0  0  0
    5.6667    1.2098   -3.1613 H   0  0  0  0  0  0  0  0  0  0  0  0
    4.6294   -0.4760   -1.7226 H   0  0  0  0  0  0  0  0  0  0  0  0
    5.0064    0.1632    0.7002 H   0  0  0  0  0  0  0  0  0  0  0  0
    6.0502   -1.1535    2.4887 H   0  0  0  0  0  0  0  0  0  0  0  0
    1.5411   -3.7256    2.7202 H   0  0  0  0  0  0  0  0  0  0  0  0
    3.3195   -2.2609    5.1553 H   0  0  0  0  0  0  0  0  0  0  0  0
    3.7450   -3.1296    7.4039 H   0  0  0  0  0  0  0  0  0  0  0  0
    3.3716   -5.5023    7.9306 H   0  0  0  0  0  0  0  0  0  0  0  0
    3.4177   -7.9966    6.4777 H   0  0  0  0  0  0  0  0  0  0  0  0
    2.1619   -8.0001    5.2327 H   0  0  0  0  0  0  0  0  0  0  0  0
   -0.4495   -7.4878    5.7245 H   0  0  0  0  0  0  0  0  0  0  0  0
   -0.1527   -6.0377    6.7505 H   0  0  0  0  0  0  0  0  0  0  0  0
   -1.0819   -7.4187    7.3916 H   0  0  0  0  0  0  0  0  0  0  0  0
    2.2171   -6.1883    3.8174 H   0  0  0  0  0  0  0  0  0  0  0  0
  1  2  1  0  0  0  0
  1 42  1  0  0  0  0
  1 43  1  0  0  0  0
  1 44  1  0  0  0  0
  2  3  1  0  0  0  0
  2 24  1  0  0  0  0
  3  4  1  0  0  0  0
  3 23  2  0  0  0  0
  4  5  2  0  0  0  0
  4 45  1  0  0  0  0
  5  6  1  0  0  0  0
  5 46  1  0  0  0  0
  6  7  1  0  0  0  0
  6 22  2  0  0  0  0
  7  8  1  0  0  0  0
  7 47  1  0  0  0  0
  8  9  2  0  0  0  0
  8 10  1  0  0  0  0
 10 11  1  0  0  0  0
 10 48  1  0  0  0  0
 11 12  1  0  0  0  0
 11 20  2  0  0  0  0
 12 13  2  0  0  0  0
 12 49  1  0  0  0  0
 13 14  1  0  0  0  0
 13 18  1  0  0  0  0
 14 15  1  0  0  0  0
 14 16  1  0  0  0  0
 14 17  1  0  0  0  0
 18 19  2  0  0  0  0
 18 50  1  0  0  0  0
 19 20  1  0  0  0  0
 19 51  1  0  0  0  0
 20 21  1  0  0  0  0
 22 23  1  0  0  0  0
 22 52  1  0  0  0  0
 23 53  1  0  0  0  0
 24 25  1  0  0  0  0
 24 41  2  0  0  0  0
 25 26  2  0  0  0  0
 25 54  1  0  0  0  0
 26 27  1  0  0  0  0
 26 55  1  0  0  0  0
 27 28  2  0  0  0  0
 28 29  1  0  0  0  0
 28 41  1  0  0  0  0
 29 30  1  0  0  0  0
 29 56  1  0  0  0  0
 30 31  1  0  0  0  0
 30 40  2  0  0  0  0
 31 32  2  0  0  0  0
 31 57  1  0  0  0  0
 32 33  1  0  0  0  0
 32 58  1  0  0  0  0
 33 34  2  0  0  0  0
 33 59  1  0  0  0  0
 34 35  1  0  0  0  0
 34 40  1  0  0  0  0
 35 36  1  0  0  0  0
 35 60  1  0  0  0  0
 35 61  1  0  0  0  0
 36 37  1  0  0  0  0
 36 38  2  0  0  0  0
 36 39  2  0  0  0  0
 37 62  1  0  0  0  0
 37 63  1  0  0  0  0
 37 64  1  0  0  0  0
 40 65  1  0  0  0  0
M  END
$$$$
