CHEMBL249302
 OpenBabel04072215363D

 42 46  0  0  0  0  0  0  0  0999 V2000
    1.0122    1.2057    2.2861 C   0  0  0  0  0  0  0  0  0  0  0  0
    2.4311    1.1501    2.2404 O   0  0  0  0  0  0  0  0  0  0  0  0
    2.8970    0.9141    0.9113 C   0  0  0  0  0  0  0  0  0  0  0  0
    4.3999    0.9258    0.8943 C   0  0  0  0  0  0  0  0  0  0  0  0
    5.1346    0.0448    1.7159 C   0  0  0  0  0  0  0  0  0  0  0  0
    6.5324    0.0131    1.6960 C   0  0  0  0  0  0  0  0  0  0  0  0
    7.2648    0.8510    0.8509 C   0  0  0  0  0  0  0  0  0  0  0  0
    6.5281    1.7145    0.0401 C   0  0  0  0  0  0  0  0  0  0  0  0
    6.9014    2.6438   -0.8959 N   0  0  0  0  0  0  0  0  0  0  0  0
    5.7684    3.2245   -1.4014 C   0  0  0  0  0  0  0  0  0  0  0  0
    5.7878    4.2859   -2.4459 C   0  0  0  0  0  0  0  0  0  0  0  0
    6.9335    4.6952   -3.0188 N   0  0  0  0  0  0  0  0  0  0  0  0
    6.5145    5.6287   -3.9032 N   0  0  0  0  0  0  0  0  0  0  0  0
    5.1667    5.8403   -3.8902 C   0  0  0  0  0  0  0  0  0  0  0  0
    4.4886    6.7192   -4.6478 N   0  0  0  0  0  0  0  0  0  0  0  0
    3.1519    6.6998   -4.3940 C   0  0  0  0  0  0  0  0  0  0  0  0
    2.4703    5.8815   -3.4777 C   0  0  0  0  0  0  0  0  0  0  0  0
    1.0091    5.9470   -3.3014 C   0  0  0  0  0  0  0  0  0  0  0  0
    0.1247    6.2387   -4.3302 C   0  0  0  0  0  0  0  0  0  0  0  0
   -1.2202    6.3043   -4.2049 N   0  0  0  0  0  0  0  0  0  0  0  0
   -1.7021    6.0542   -2.9808 C   0  0  0  0  0  0  0  0  0  0  0  0
   -0.9702    5.7576   -1.8999 N   0  0  0  0  0  0  0  0  0  0  0  0
    0.3695    5.7154   -2.0909 C   0  0  0  0  0  0  0  0  0  0  0  0
    3.2629    4.9890   -2.7333 C   0  0  0  0  0  0  0  0  0  0  0  0
    4.6528    4.9725   -2.9452 C   0  0  0  0  0  0  0  0  0  0  0  0
    4.6858    2.7176   -0.8486 N   0  0  0  0  0  0  0  0  0  0  0  0
    5.1372    1.7745    0.0469 C   0  0  0  0  0  0  0  0  0  0  0  0
    0.7074    1.3935    3.3190 H   0  0  0  0  0  0  0  0  0  0  0  0
    0.5827    0.2528    1.9623 H   0  0  0  0  0  0  0  0  0  0  0  0
    0.6375    2.0205    1.6586 H   0  0  0  0  0  0  0  0  0  0  0  0
    2.4978    1.6844    0.2412 H   0  0  0  0  0  0  0  0  0  0  0  0
    2.5428   -0.0644    0.5650 H   0  0  0  0  0  0  0  0  0  0  0  0
    4.5982   -0.6235    2.3885 H   0  0  0  0  0  0  0  0  0  0  0  0
    7.0583   -0.6791    2.3508 H   0  0  0  0  0  0  0  0  0  0  0  0
    8.3487    0.8260    0.8330 H   0  0  0  0  0  0  0  0  0  0  0  0
    7.8394    2.8850   -1.1815 H   0  0  0  0  0  0  0  0  0  0  0  0
    7.1922    6.0963   -4.4923 H   0  0  0  0  0  0  0  0  0  0  0  0
    2.6061    7.4287   -4.9913 H   0  0  0  0  0  0  0  0  0  0  0  0
    0.4726    6.4270   -5.3431 H   0  0  0  0  0  0  0  0  0  0  0  0
   -2.7784    6.0934   -2.8551 H   0  0  0  0  0  0  0  0  0  0  0  0
    0.9285    5.4858   -1.1871 H   0  0  0  0  0  0  0  0  0  0  0  0
    2.8346    4.3058   -2.0033 H   0  0  0  0  0  0  0  0  0  0  0  0
  1  2  1  0  0  0  0
  1 28  1  0  0  0  0
  1 29  1  0  0  0  0
  1 30  1  0  0  0  0
  2  3  1  0  0  0  0
  3  4  1  0  0  0  0
  3 31  1  0  0  0  0
  3 32  1  0  0  0  0
  4  5  1  0  0  0  0
  4 27  2  0  0  0  0
  5  6  2  0  0  0  0
  5 33  1  0  0  0  0
  6  7  1  0  0  0  0
  6 34  1  0  0  0  0
  7  8  2  0  0  0  0
  7 35  1  0  0  0  0
  8  9  1  0  0  0  0
  8 27  1  0  0  0  0
  9 10  1  0  0  0  0
  9 36  1  0  0  0  0
 10 11  1  0  0  0  0
 10 26  2  0  0  0  0
 11 12  2  0  0  0  0
 11 25  1  0  0  0  0
 12 13  1  0  0  0  0
 13 14  1  0  0  0  0
 13 37  1  0  0  0  0
 14 15  1  0  0  0  0
 14 25  2  0  0  0  0
 15 16  2  0  0  0  0
 16 17  1  0  0  0  0
 16 38  1  0  0  0  0
 17 18  1  0  0  0  0
 17 24  2  0  0  0  0
 18 19  1  0  0  0  0
 18 23  2  0  0  0  0
 19 20  2  0  0  0  0
 19 39  1  0  0  0  0
 20 21  1  0  0  0  0
 21 22  2  0  0  0  0
 21 40  1  0  0  0  0
 22 23  1  0  0  0  0
 23 41  1  0  0  0  0
 24 25  1  0  0  0  0
 24 42  1  0  0  0  0
 26 27  1  0  0  0  0
M  END
$$$$
