CHEMBL66102
 OpenBabel04072215383D

 54 58  0  0  0  0  0  0  0  0999 V2000
    0.1410   -1.7354    0.6087 C   0  0  0  0  0  0  0  0  0  0  0  0
    1.5285   -1.4192    0.5238 O   0  0  0  0  0  0  0  0  0  0  0  0
    2.3929   -2.4850    0.4916 C   0  0  0  0  0  0  0  0  0  0  0  0
    2.0337   -3.7233   -0.0605 C   0  0  0  0  0  0  0  0  0  0  0  0
    2.9737   -4.7493   -0.1872 C   0  0  0  0  0  0  0  0  0  0  0  0
    4.2865   -4.5450    0.2201 C   0  0  0  0  0  0  0  0  0  0  0  0
    4.6500   -3.3277    0.7906 C   0  0  0  0  0  0  0  0  0  0  0  0
    3.7072   -2.3042    0.9577 C   0  0  0  0  0  0  0  0  0  0  0  0
    4.2413   -1.1615    1.5135 O   0  0  0  0  0  0  0  0  0  0  0  0
    3.5288   -0.3830    2.3917 C   0  0  0  0  0  0  0  0  0  0  0  0
    2.4688   -0.8093    3.1868 C   0  0  0  0  0  0  0  0  0  0  0  0
    1.7119    0.1290    3.8984 C   0  0  0  0  0  0  0  0  0  0  0  0
    2.0674    1.4863    3.9034 C   0  0  0  0  0  0  0  0  0  0  0  0
    1.1870    2.4967    4.4864 C   0  0  0  0  0  0  0  0  0  0  0  0
    0.3622    2.2270    5.5646 C   0  0  0  0  0  0  0  0  0  0  0  0
   -0.3716    3.3498    5.8584 N   0  0  0  0  0  0  0  0  0  0  0  0
   -1.3370    3.4709    6.9330 C   0  0  0  0  0  0  0  0  0  0  0  0
   -0.7585    3.1934    8.3231 C   0  0  0  0  0  0  0  0  0  0  0  0
   -1.9634    2.8495    9.1942 C   0  0  0  0  0  0  0  0  0  0  0  0
   -3.1151    2.5287    8.2426 C   0  0  0  0  0  0  0  0  0  0  0  0
   -2.5114    2.4958    6.8441 C   0  0  0  0  0  0  0  0  0  0  0  0
   -0.0413    4.3463    4.9755 C   0  0  0  0  0  0  0  0  0  0  0  0
   -0.5807    5.5797    4.9756 N   0  0  0  0  0  0  0  0  0  0  0  0
   -0.0803    6.3440    3.9946 C   0  0  0  0  0  0  0  0  0  0  0  0
    0.8298    6.0078    3.0676 N   0  0  0  0  0  0  0  0  0  0  0  0
    1.3388    4.7608    3.0890 C   0  0  0  0  0  0  0  0  0  0  0  0
    2.2434    4.4757    2.0724 N   0  0  0  0  0  0  0  0  0  0  0  0
    0.9177    3.8592    4.0908 C   0  0  0  0  0  0  0  0  0  0  0  0
    3.2621    1.8531    3.2795 C   0  0  0  0  0  0  0  0  0  0  0  0
    3.9622    0.9382    2.4922 C   0  0  0  0  0  0  0  0  0  0  0  0
   -0.3952   -0.8225    0.8851 H   0  0  0  0  0  0  0  0  0  0  0  0
   -0.0570   -2.4837    1.3802 H   0  0  0  0  0  0  0  0  0  0  0  0
   -0.2412   -2.0620   -0.3642 H   0  0  0  0  0  0  0  0  0  0  0  0
    1.0290   -3.9102   -0.4305 H   0  0  0  0  0  0  0  0  0  0  0  0
    2.6827   -5.6981   -0.6301 H   0  0  0  0  0  0  0  0  0  0  0  0
    5.0285   -5.3268    0.0882 H   0  0  0  0  0  0  0  0  0  0  0  0
    5.6800   -3.1640    1.0988 H   0  0  0  0  0  0  0  0  0  0  0  0
    2.1680   -1.8517    3.2052 H   0  0  0  0  0  0  0  0  0  0  0  0
    0.8182   -0.2173    4.4102 H   0  0  0  0  0  0  0  0  0  0  0  0
    0.2412    1.3239    6.1519 H   0  0  0  0  0  0  0  0  0  0  0  0
   -1.7350    4.4939    6.9220 H   0  0  0  0  0  0  0  0  0  0  0  0
   -0.2038    4.0534    8.7115 H   0  0  0  0  0  0  0  0  0  0  0  0
   -0.0664    2.3437    8.3131 H   0  0  0  0  0  0  0  0  0  0  0  0
   -2.2300    3.6933    9.8399 H   0  0  0  0  0  0  0  0  0  0  0  0
   -1.7368    1.9996    9.8465 H   0  0  0  0  0  0  0  0  0  0  0  0
   -3.8750    3.3161    8.3075 H   0  0  0  0  0  0  0  0  0  0  0  0
   -3.6026    1.5817    8.4962 H   0  0  0  0  0  0  0  0  0  0  0  0
   -3.2380    2.7898    6.0796 H   0  0  0  0  0  0  0  0  0  0  0  0
   -2.1794    1.4777    6.6091 H   0  0  0  0  0  0  0  0  0  0  0  0
   -0.4649    7.3573    3.9352 H   0  0  0  0  0  0  0  0  0  0  0  0
    2.2107    5.2039    1.3681 H   0  0  0  0  0  0  0  0  0  0  0  0
    2.1694    3.5306    1.7196 H   0  0  0  0  0  0  0  0  0  0  0  0
    3.6428    2.8691    3.3557 H   0  0  0  0  0  0  0  0  0  0  0  0
    4.8332    1.2687    1.9318 H   0  0  0  0  0  0  0  0  0  0  0  0
  1  2  1  0  0  0  0
  1 31  1  0  0  0  0
  1 32  1  0  0  0  0
  1 33  1  0  0  0  0
  2  3  1  0  0  0  0
  3  4  1  0  0  0  0
  3  8  2  0  0  0  0
  4  5  2  0  0  0  0
  4 34  1  0  0  0  0
  5  6  1  0  0  0  0
  5 35  1  0  0  0  0
  6  7  2  0  0  0  0
  6 36  1  0  0  0  0
  7  8  1  0  0  0  0
  7 37  1  0  0  0  0
  8  9  1  0  0  0  0
  9 10  1  0  0  0  0
 10 11  1  0  0  0  0
 10 30  2  0  0  0  0
 11 12  2  0  0  0  0
 11 38  1  0  0  0  0
 12 13  1  0  0  0  0
 12 39  1  0  0  0  0
 13 14  1  0  0  0  0
 13 29  2  0  0  0  0
 14 15  2  0  0  0  0
 14 28  1  0  0  0  0
 15 16  1  0  0  0  0
 15 40  1  0  0  0  0
 16 17  1  0  0  0  0
 16 22  1  0  0  0  0
 17 18  1  0  0  0  0
 17 21  1  0  0  0  0
 17 41  1  0  0  0  0
 18 19  1  0  0  0  0
 18 42  1  0  0  0  0
 18 43  1  0  0  0  0
 19 20  1  0  0  0  0
 19 44  1  0  0  0  0
 19 45  1  0  0  0  0
 20 21  1  0  0  0  0
 20 46  1  0  0  0  0
 20 47  1  0  0  0  0
 21 48  1  0  0  0  0
 21 49  1  0  0  0  0
 22 23  1  0  0  0  0
 22 28  2  0  0  0  0
 23 24  2  0  0  0  0
 24 25  1  0  0  0  0
 24 50  1  0  0  0  0
 25 26  2  0  0  0  0
 26 27  1  0  0  0  0
 26 28  1  0  0  0  0
 27 51  1  0  0  0  0
 27 52  1  0  0  0  0
 29 30  1  0  0  0  0
 29 53  1  0  0  0  0
 30 54  1  0  0  0  0
M  END
$$$$
