CHEMBL4789418
 OpenBabel04072215383D

150156  0  0  1  0  0  0  0  0999 V2000
  -45.2477    0.8966   12.9867 C   0  0  0  0  0  0  0  0  0  0  0  0
  -43.7571    0.9221   12.8053 C   0  0  0  0  0  0  0  0  0  0  0  0
  -43.0255    2.0345   13.2331 C   0  0  0  0  0  0  0  0  0  0  0  0
  -41.6432    2.0443   13.0985 C   0  0  0  0  0  0  0  0  0  0  0  0
  -40.9864    0.9571   12.5222 C   0  0  0  0  0  0  0  0  0  0  0  0
  -39.6501    0.9984   12.5643 F   0  0  0  0  0  0  0  0  0  0  0  0
  -41.6922   -0.1494   12.0193 C   0  0  0  0  0  0  0  0  0  0  0  0
  -41.1069   -1.2497   11.3295 N   0  0  0  0  0  0  0  0  0  0  0  0
  -39.8611   -1.2359   10.7298 C   0  0  0  0  0  0  0  0  0  0  0  0
  -39.1168   -0.2671   10.6821 O   0  0  0  0  0  0  0  0  0  0  0  0
  -39.5522   -2.4333   10.0783 N   0  0  0  0  0  0  0  0  0  0  0  0
  -38.2746   -2.5454    9.4650 C   0  0  0  0  0  0  0  0  0  0  0  0
  -37.1250   -2.2406   10.1875 C   0  0  0  0  0  0  0  0  0  0  0  0
  -35.8828   -2.2001    9.5502 C   0  0  0  0  0  0  0  0  0  0  0  0
  -35.7260   -2.4948    8.1793 C   0  0  0  0  0  0  0  0  0  0  0  0
  -34.3637   -2.5811    7.5919 C   0  0  0  0  0  0  0  0  0  0  0  0
  -33.3058   -3.0821    8.4109 C   0  0  0  0  0  0  0  0  0  0  0  0
  -32.0084   -3.2752    7.9615 C   0  0  0  0  0  0  0  0  0  0  0  0
  -31.7187   -3.0991    6.6269 C   0  0  0  0  0  0  0  0  0  0  0  0
  -32.7500   -2.6646    5.7830 C   0  0  0  0  0  0  0  0  0  0  0  0
  -34.0217   -2.2969    6.2346 C   0  0  0  0  0  0  0  0  0  0  0  0
  -34.5285   -1.5936    5.1028 C   0  0  0  0  0  0  0  0  0  0  0  0
  -35.4774   -0.6287    5.1252 N   0  0  0  0  0  0  0  0  0  0  0  0
  -33.8310   -1.8008    3.9867 N   0  0  0  0  0  0  0  0  0  0  0  0
  -32.7661   -2.5250    4.4057 N   0  0  0  0  0  0  0  0  0  0  0  0
  -31.8008   -3.0330    3.5158 C   0  0  0  0  0  0  0  0  0  0  0  0
  -30.8412   -3.6638    3.9513 O   0  0  0  0  0  0  0  0  0  0  0  0
  -32.0441   -2.7811    2.0505 C   0  0  0  0  0  0  0  0  0  0  0  0
  -30.8104   -3.2786    1.2866 C   0  0  0  0  0  0  0  0  0  0  0  0
  -30.8683   -3.0705   -0.2156 C   0  0  0  0  0  0  0  0  0  0  0  0
  -30.9628   -1.5911   -0.5769 C   0  0  0  0  0  0  0  0  0  0  0  0
  -30.8306   -1.3992   -2.0753 C   0  0  0  0  0  0  0  0  0  0  0  0
  -30.9483    0.0733   -2.4693 C   0  0  0  0  0  0  0  0  0  0  0  0
  -30.7222    0.2281   -3.9659 C   0  0  0  0  0  0  0  0  0  0  0  0
  -30.9653    1.6357   -4.5064 C   0  0  0  0  0  0  0  0  0  0  0  0
  -30.9673    1.6011   -6.0348 C   0  0  0  0  0  0  0  0  0  0  0  0
  -31.2182    2.9703   -6.6590 C   0  0  0  0  0  0  0  0  0  0  0  0
  -31.2309    2.9303   -8.1974 C   0  0  0  0  0  0  0  0  0  0  0  0
  -32.4009    2.1130   -8.7334 C   0  0  0  0  0  0  0  0  0  0  0  0
  -32.4297    1.9938  -10.2556 C   0  0  0  0  0  0  0  0  0  0  0  0
  -33.6268    1.1436  -10.6909 C   0  0  0  0  0  0  0  0  0  0  0  0
  -33.6043   -0.2300  -10.0283 C   0  0  0  0  0  0  0  0  0  0  0  0
  -32.5751   -0.8871   -9.9305 O   0  0  0  0  0  0  0  0  0  0  0  0
  -34.8234   -0.6194   -9.5216 N   0  0  0  0  0  0  0  0  0  0  0  0
  -35.1480   -1.9566   -8.9877 C   0  0  2  0  0  0  0  0  0  0  0  0
  -34.4693   -2.2173   -7.6296 C   0  0  0  0  0  0  0  0  0  0  0  0
  -33.7784   -3.2271   -7.4577 O   0  0  0  0  0  0  0  0  0  0  0  0
  -34.6966   -1.3532   -6.5658 N   0  0  0  0  0  0  0  0  0  0  0  0
  -35.7992   -0.4097   -6.3630 C   0  0  0  0  0  0  0  0  0  0  0  0
  -35.2441    0.6384   -5.3920 C   0  0  2  0  0  0  0  0  0  0  0  0
  -34.5130    1.6390   -6.0993 O   0  0  0  0  0  0  0  0  0  0  0  0
  -34.3046   -0.1790   -4.5182 C   0  0  0  0  0  0  0  0  0  0  0  0
  -33.6839   -1.1783   -5.5127 C   0  0  1  0  0  0  0  0  0  0  0  0
  -33.1598   -2.4349   -4.7982 C   0  0  0  0  0  0  0  0  0  0  0  0
  -33.7420   -2.9444   -3.8391 O   0  0  0  0  0  0  0  0  0  0  0  0
  -31.9882   -2.9934   -5.2481 N   0  0  0  0  0  0  0  0  0  0  0  0
  -31.2684   -2.7156   -6.4906 C   0  0  0  0  0  0  0  0  0  0  0  0
  -29.8201   -2.3602   -6.2925 C   0  0  0  0  0  0  0  0  0  0  0  0
  -29.1509   -2.6214   -5.0987 C   0  0  0  0  0  0  0  0  0  0  0  0
  -27.8189   -2.2536   -4.9351 C   0  0  0  0  0  0  0  0  0  0  0  0
  -27.1044   -1.6337   -5.9654 C   0  0  0  0  0  0  0  0  0  0  0  0
  -25.7070   -1.2400   -5.7439 C   0  0  0  0  0  0  0  0  0  0  0  0
  -24.5372   -1.4505   -6.9943 S   0  0  0  0  0  0  0  0  0  0  0  0
  -23.3282   -0.8382   -5.9577 C   0  0  0  0  0  0  0  0  0  0  0  0
  -23.7155   -0.4938   -4.7539 N   0  0  0  0  0  0  0  0  0  0  0  0
  -25.0759   -0.7200   -4.6158 C   0  0  0  0  0  0  0  0  0  0  0  0
  -25.6887   -0.3747   -3.3012 C   0  0  0  0  0  0  0  0  0  0  0  0
  -27.7643   -1.4104   -7.1831 C   0  0  0  0  0  0  0  0  0  0  0  0
  -29.1063   -1.7707   -7.3456 C   0  0  0  0  0  0  0  0  0  0  0  0
  -35.0486   -3.1302  -10.0465 C   0  0  0  0  0  0  0  0  0  0  0  0
  -35.7433   -4.3983   -9.4937 C   0  0  0  0  0  0  0  0  0  0  0  0
  -35.8166   -2.7080  -11.3183 C   0  0  0  0  0  0  0  0  0  0  0  0
  -33.6317   -3.5628  -10.4834 C   0  0  0  0  0  0  0  0  0  0  0  0
  -36.8973   -2.8457    7.4818 C   0  0  0  0  0  0  0  0  0  0  0  0
  -38.1567   -2.8896    8.1196 C   0  0  0  0  0  0  0  0  0  0  0  0
  -43.0866   -0.1639   12.2018 C   0  0  0  0  0  0  0  0  0  0  0  0
  -45.6060    1.8155   13.4660 H   0  0  0  0  0  0  0  0  0  0  0  0
  -45.5356    0.0568   13.6259 H   0  0  0  0  0  0  0  0  0  0  0  0
  -45.7485    0.8116   12.0184 H   0  0  0  0  0  0  0  0  0  0  0  0
  -43.5199    2.8903   13.6883 H   0  0  0  0  0  0  0  0  0  0  0  0
  -41.0549    2.8866   13.4514 H   0  0  0  0  0  0  0  0  0  0  0  0
  -41.6959   -2.0421   11.1326 H   0  0  0  0  0  0  0  0  0  0  0  0
  -40.3245   -2.8412    9.5768 H   0  0  0  0  0  0  0  0  0  0  0  0
  -37.1812   -2.0081   11.2487 H   0  0  0  0  0  0  0  0  0  0  0  0
  -35.0246   -1.9311   10.1631 H   0  0  0  0  0  0  0  0  0  0  0  0
  -33.4981   -3.3405    9.4495 H   0  0  0  0  0  0  0  0  0  0  0  0
  -31.2328   -3.6076    8.6439 H   0  0  0  0  0  0  0  0  0  0  0  0
  -30.7157   -3.2891    6.2560 H   0  0  0  0  0  0  0  0  0  0  0  0
  -35.2262    0.1124    4.4677 H   0  0  0  0  0  0  0  0  0  0  0  0
  -36.3934   -0.9202    4.7988 H   0  0  0  0  0  0  0  0  0  0  0  0
  -32.1940   -1.7095    1.8906 H   0  0  0  0  0  0  0  0  0  0  0  0
  -32.9379   -3.3287    1.7290 H   0  0  0  0  0  0  0  0  0  0  0  0
  -30.6690   -4.3487    1.4816 H   0  0  0  0  0  0  0  0  0  0  0  0
  -29.9159   -2.7751    1.6772 H   0  0  0  0  0  0  0  0  0  0  0  0
  -31.7112   -3.6271   -0.6424 H   0  0  0  0  0  0  0  0  0  0  0  0
  -29.9552   -3.4975   -0.6514 H   0  0  0  0  0  0  0  0  0  0  0  0
  -30.1682   -1.0327   -0.0687 H   0  0  0  0  0  0  0  0  0  0  0  0
  -31.9227   -1.1823   -0.2452 H   0  0  0  0  0  0  0  0  0  0  0  0
  -31.6076   -1.9859   -2.5741 H   0  0  0  0  0  0  0  0  0  0  0  0
  -29.8636   -1.7950   -2.4000 H   0  0  0  0  0  0  0  0  0  0  0  0
  -30.2081    0.6682   -1.9261 H   0  0  0  0  0  0  0  0  0  0  0  0
  -31.9423    0.4421   -2.1913 H   0  0  0  0  0  0  0  0  0  0  0  0
  -31.3782   -0.4695   -4.4773 H   0  0  0  0  0  0  0  0  0  0  0  0
  -29.7009   -0.0695   -4.2144 H   0  0  0  0  0  0  0  0  0  0  0  0
  -30.1887    2.3101   -4.1416 H   0  0  0  0  0  0  0  0  0  0  0  0
  -31.9300    2.0168   -4.1501 H   0  0  0  0  0  0  0  0  0  0  0  0
  -31.7490    0.9121   -6.3665 H   0  0  0  0  0  0  0  0  0  0  0  0
  -30.0248    1.1821   -6.4076 H   0  0  0  0  0  0  0  0  0  0  0  0
  -30.4289    3.6584   -6.3345 H   0  0  0  0  0  0  0  0  0  0  0  0
  -32.1692    3.3747   -6.2985 H   0  0  0  0  0  0  0  0  0  0  0  0
  -30.2856    2.5123   -8.5621 H   0  0  0  0  0  0  0  0  0  0  0  0
  -31.3039    3.9551   -8.5778 H   0  0  0  0  0  0  0  0  0  0  0  0
  -33.3444    2.5531   -8.3923 H   0  0  0  0  0  0  0  0  0  0  0  0
  -32.3416    1.1050   -8.3170 H   0  0  0  0  0  0  0  0  0  0  0  0
  -31.4969    1.5422  -10.6140 H   0  0  0  0  0  0  0  0  0  0  0  0
  -32.5049    2.9891  -10.7088 H   0  0  0  0  0  0  0  0  0  0  0  0
  -33.6130    1.0018  -11.7777 H   0  0  0  0  0  0  0  0  0  0  0  0
  -34.5548    1.6711  -10.4428 H   0  0  0  0  0  0  0  0  0  0  0  0
  -35.5934    0.0278   -9.6089 H   0  0  0  0  0  0  0  0  0  0  0  0
  -36.2147   -1.8768   -8.7373 H   0  0  0  0  0  0  0  0  0  0  0  0
  -36.6084   -0.9644   -5.8759 H   0  0  0  0  0  0  0  0  0  0  0  0
  -36.1490    0.0187   -7.3082 H   0  0  0  0  0  0  0  0  0  0  0  0
  -36.0118    1.1522   -4.8065 H   0  0  0  0  0  0  0  0  0  0  0  0
  -33.9473    1.1870   -6.7482 H   0  0  0  0  0  0  0  0  0  0  0  0
  -34.8670   -0.6835   -3.7231 H   0  0  0  0  0  0  0  0  0  0  0  0
  -33.5444    0.4364   -4.0353 H   0  0  0  0  0  0  0  0  0  0  0  0
  -32.8591   -0.6751   -6.0023 H   0  0  0  0  0  0  0  0  0  0  0  0
  -31.7537   -3.8536   -4.7732 H   0  0  0  0  0  0  0  0  0  0  0  0
  -31.7343   -1.8982   -7.0430 H   0  0  0  0  0  0  0  0  0  0  0  0
  -31.3219   -3.6206   -7.1025 H   0  0  0  0  0  0  0  0  0  0  0  0
  -29.6646   -3.0819   -4.2611 H   0  0  0  0  0  0  0  0  0  0  0  0
  -27.3555   -2.4712   -3.9793 H   0  0  0  0  0  0  0  0  0  0  0  0
  -22.3013   -0.7447   -6.2838 H   0  0  0  0  0  0  0  0  0  0  0  0
  -24.9544    0.0958   -2.6402 H   0  0  0  0  0  0  0  0  0  0  0  0
  -26.0482   -1.2699   -2.7864 H   0  0  0  0  0  0  0  0  0  0  0  0
  -26.5236    0.3203   -3.4320 H   0  0  0  0  0  0  0  0  0  0  0  0
  -27.2504   -0.9469   -8.0226 H   0  0  0  0  0  0  0  0  0  0  0  0
  -29.5963   -1.5788   -8.3010 H   0  0  0  0  0  0  0  0  0  0  0  0
  -36.7551   -4.1786   -9.1397 H   0  0  0  0  0  0  0  0  0  0  0  0
  -35.1843   -4.8480   -8.6669 H   0  0  0  0  0  0  0  0  0  0  0  0
  -35.8253   -5.1663  -10.2725 H   0  0  0  0  0  0  0  0  0  0  0  0
  -36.8708   -2.5171  -11.0918 H   0  0  0  0  0  0  0  0  0  0  0  0
  -35.7735   -3.4896  -12.0845 H   0  0  0  0  0  0  0  0  0  0  0  0
  -35.3957   -1.8005  -11.7635 H   0  0  0  0  0  0  0  0  0  0  0  0
  -32.9988   -3.8653   -9.6445 H   0  0  0  0  0  0  0  0  0  0  0  0
  -33.1120   -2.7950  -11.0572 H   0  0  0  0  0  0  0  0  0  0  0  0
  -33.6889   -4.4298  -11.1550 H   0  0  0  0  0  0  0  0  0  0  0  0
  -36.8465   -3.1071    6.4284 H   0  0  0  0  0  0  0  0  0  0  0  0
  -39.0369   -3.1364    7.5342 H   0  0  0  0  0  0  0  0  0  0  0  0
  -43.6756   -1.0096   11.8530 H   0  0  0  0  0  0  0  0  0  0  0  0
  1  2  1  0  0  0  0
  1 77  1  0  0  0  0
  1 78  1  0  0  0  0
  1 79  1  0  0  0  0
  2  3  1  0  0  0  0
  2 76  2  0  0  0  0
  3  4  2  0  0  0  0
  3 80  1  0  0  0  0
  4  5  1  0  0  0  0
  4 81  1  0  0  0  0
  5  6  1  0  0  0  0
  5  7  2  0  0  0  0
  7  8  1  0  0  0  0
  7 76  1  0  0  0  0
  8  9  1  0  0  0  0
  8 82  1  0  0  0  0
  9 10  2  0  0  0  0
  9 11  1  0  0  0  0
 11 12  1  0  0  0  0
 11 83  1  0  0  0  0
 12 13  1  0  0  0  0
 12 75  2  0  0  0  0
 13 14  2  0  0  0  0
 13 84  1  0  0  0  0
 14 15  1  0  0  0  0
 14 85  1  0  0  0  0
 15 16  1  0  0  0  0
 15 74  2  0  0  0  0
 16 17  1  0  0  0  0
 16 21  2  0  0  0  0
 17 18  2  0  0  0  0
 17 86  1  0  0  0  0
 18 19  1  0  0  0  0
 18 87  1  0  0  0  0
 19 20  2  0  0  0  0
 19 88  1  0  0  0  0
 20 21  1  0  0  0  0
 20 25  1  0  0  0  0
 21 22  1  0  0  0  0
 22 23  1  0  0  0  0
 22 24  2  0  0  0  0
 23 89  1  0  0  0  0
 23 90  1  0  0  0  0
 24 25  1  0  0  0  0
 25 26  1  0  0  0  0
 26 27  2  0  0  0  0
 26 28  1  0  0  0  0
 28 29  1  0  0  0  0
 28 91  1  0  0  0  0
 28 92  1  0  0  0  0
 29 30  1  0  0  0  0
 29 93  1  0  0  0  0
 29 94  1  0  0  0  0
 30 31  1  0  0  0  0
 30 95  1  0  0  0  0
 30 96  1  0  0  0  0
 31 32  1  0  0  0  0
 31 97  1  0  0  0  0
 31 98  1  0  0  0  0
 32 33  1  0  0  0  0
 32 99  1  0  0  0  0
 32100  1  0  0  0  0
 33 34  1  0  0  0  0
 33101  1  0  0  0  0
 33102  1  0  0  0  0
 34 35  1  0  0  0  0
 34103  1  0  0  0  0
 34104  1  0  0  0  0
 35 36  1  0  0  0  0
 35105  1  0  0  0  0
 35106  1  0  0  0  0
 36 37  1  0  0  0  0
 36107  1  0  0  0  0
 36108  1  0  0  0  0
 37 38  1  0  0  0  0
 37109  1  0  0  0  0
 37110  1  0  0  0  0
 38 39  1  0  0  0  0
 38111  1  0  0  0  0
 38112  1  0  0  0  0
 39 40  1  0  0  0  0
 39113  1  0  0  0  0
 39114  1  0  0  0  0
 40 41  1  0  0  0  0
 40115  1  0  0  0  0
 40116  1  0  0  0  0
 41 42  1  0  0  0  0
 41117  1  0  0  0  0
 41118  1  0  0  0  0
 42 43  2  0  0  0  0
 42 44  1  0  0  0  0
 44119  1  0  0  0  0
 45 70  1  0  0  0  0
 45 46  1  0  0  0  0
 45 44  1  0  0  0  0
 45120  1  1  0  0  0
 46 47  2  0  0  0  0
 46 48  1  0  0  0  0
 48 49  1  0  0  0  0
 48 53  1  0  0  0  0
 49 50  1  0  0  0  0
 49121  1  0  0  0  0
 49122  1  0  0  0  0
 50 51  1  0  0  0  0
 50 52  1  0  0  0  0
 50123  1  1  0  0  0
 51124  1  0  0  0  0
 52 53  1  0  0  0  0
 52125  1  0  0  0  0
 52126  1  0  0  0  0
 53 54  1  0  0  0  0
 53127  1  6  0  0  0
 54 55  2  0  0  0  0
 54 56  1  0  0  0  0
 56 57  1  0  0  0  0
 56128  1  0  0  0  0
 57 58  1  0  0  0  0
 57129  1  0  0  0  0
 57130  1  0  0  0  0
 58 59  1  0  0  0  0
 58 69  2  0  0  0  0
 59 60  2  0  0  0  0
 59131  1  0  0  0  0
 60 61  1  0  0  0  0
 60132  1  0  0  0  0
 61 62  1  0  0  0  0
 61 68  2  0  0  0  0
 62 63  1  0  0  0  0
 62 66  2  0  0  0  0
 63 64  1  0  0  0  0
 64 65  2  0  0  0  0
 64133  1  0  0  0  0
 65 66  1  0  0  0  0
 66 67  1  0  0  0  0
 67134  1  0  0  0  0
 67135  1  0  0  0  0
 67136  1  0  0  0  0
 68 69  1  0  0  0  0
 68137  1  0  0  0  0
 69138  1  0  0  0  0
 70 71  1  0  0  0  0
 70 72  1  0  0  0  0
 70 73  1  0  0  0  0
 71139  1  0  0  0  0
 71140  1  0  0  0  0
 71141  1  0  0  0  0
 72142  1  0  0  0  0
 72143  1  0  0  0  0
 72144  1  0  0  0  0
 73145  1  0  0  0  0
 73146  1  0  0  0  0
 73147  1  0  0  0  0
 74 75  1  0  0  0  0
 74148  1  0  0  0  0
 75149  1  0  0  0  0
 76150  1  0  0  0  0
M  END
$$$$
