CHEMBL1977346
 OpenBabel04072215363D

 24 26  0  0  0  0  0  0  0  0999 V2000
    1.2762    0.4797   -0.8948 O   0  0  0  0  0  0  0  0  0  0  0  0
    2.2993    0.1905   -0.2676 C   0  0  0  0  0  0  0  0  0  0  0  0
    2.6624   -1.1300   -0.2333 N   0  0  0  0  0  0  0  0  0  0  0  0
    3.5811   -1.7830    0.5949 C   0  0  0  0  0  0  0  0  0  0  0  0
    3.2770   -3.1141    0.9173 C   0  0  0  0  0  0  0  0  0  0  0  0
    4.0501   -3.8134    1.8407 C   0  0  0  0  0  0  0  0  0  0  0  0
    5.1650   -3.2073    2.4043 C   0  0  0  0  0  0  0  0  0  0  0  0
    5.5243   -1.9166    2.0143 C   0  0  0  0  0  0  0  0  0  0  0  0
    4.7386   -1.1859    1.1065 C   0  0  0  0  0  0  0  0  0  0  0  0
    5.1515    0.1084    0.7503 N   0  0  0  0  0  0  0  0  0  0  0  0
    4.3305    1.2267    0.8271 C   0  0  0  0  0  0  0  0  0  0  0  0
    4.9160    2.3339    1.3506 N   0  0  0  0  0  0  0  0  0  0  0  0
    4.1969    3.4774    1.5860 N   0  0  0  0  0  0  0  0  0  0  0  0
    2.8867    3.5073    1.2947 C   0  0  0  0  0  0  0  0  0  0  0  0
    1.8183    5.2343    1.7286 I   0  0  0  0  0  0  0  0  0  0  0  0
    2.2535    2.4306    0.7262 C   0  0  0  0  0  0  0  0  0  0  0  0
    2.9967    1.2672    0.4603 C   0  0  0  0  0  0  0  0  0  0  0  0
    1.9716   -1.7059   -0.7013 H   0  0  0  0  0  0  0  0  0  0  0  0
    2.3994   -3.5990    0.4970 H   0  0  0  0  0  0  0  0  0  0  0  0
    3.7676   -4.8215    2.1333 H   0  0  0  0  0  0  0  0  0  0  0  0
    5.7563   -3.7353    3.1476 H   0  0  0  0  0  0  0  0  0  0  0  0
    6.4104   -1.4689    2.4573 H   0  0  0  0  0  0  0  0  0  0  0  0
    6.0547    0.3701    1.1360 H   0  0  0  0  0  0  0  0  0  0  0  0
    1.1958    2.4677    0.4806 H   0  0  0  0  0  0  0  0  0  0  0  0
  1  2  2  0  0  0  0
  2  3  1  0  0  0  0
  2 17  1  0  0  0  0
  3  4  1  0  0  0  0
  3 18  1  0  0  0  0
  4  5  1  0  0  0  0
  4  9  2  0  0  0  0
  5  6  2  0  0  0  0
  5 19  1  0  0  0  0
  6  7  1  0  0  0  0
  6 20  1  0  0  0  0
  7  8  2  0  0  0  0
  7 21  1  0  0  0  0
  8  9  1  0  0  0  0
  8 22  1  0  0  0  0
  9 10  1  0  0  0  0
 10 11  1  0  0  0  0
 10 23  1  0  0  0  0
 11 12  1  0  0  0  0
 11 17  2  0  0  0  0
 12 13  2  0  0  0  0
 13 14  1  0  0  0  0
 14 15  1  0  0  0  0
 14 16  2  0  0  0  0
 16 17  1  0  0  0  0
 16 24  1  0  0  0  0
M  END
$$$$
