CHEMBL223622
 OpenBabel04072215363D

 34 36  0  0  0  0  0  0  0  0999 V2000
    1.2418   -0.9128   -0.5305 C   0  0  0  0  0  0  0  0  0  0  0  0
    2.5754   -0.4643   -0.2939 O   0  0  0  0  0  0  0  0  0  0  0  0
    3.1626   -1.3166    0.6550 N   0  0  0  0  0  0  0  0  0  0  0  0
    4.3985   -0.9764    0.8554 C   0  0  0  0  0  0  0  0  0  0  0  0
    5.2711   -1.7447    1.7609 C   0  0  0  0  0  0  0  0  0  0  0  0
    5.0016   -3.0669    2.0973 C   0  0  0  0  0  0  0  0  0  0  0  0
    3.9495   -3.7918    1.5448 N   0  0  0  0  0  0  0  0  0  0  0  0
    5.8066   -3.7858    2.8990 N   0  0  0  0  0  0  0  0  0  0  0  0
    6.9111   -3.1771    3.3479 C   0  0  0  0  0  0  0  0  0  0  0  0
    7.2728   -1.9193    3.0887 N   0  0  0  0  0  0  0  0  0  0  0  0
    6.4050   -1.2025    2.3408 C   0  0  0  0  0  0  0  0  0  0  0  0
    6.6900    0.1454    2.1577 O   0  0  0  0  0  0  0  0  0  0  0  0
    7.2960    0.8246    3.2042 C   0  0  0  0  0  0  0  0  0  0  0  0
    8.2053    1.8340    2.8469 C   0  0  0  0  0  0  0  0  0  0  0  0
    8.7853    2.6427    3.8525 C   0  0  0  0  0  0  0  0  0  0  0  0
    9.6873    3.7452    3.8459 C   0  0  0  0  0  0  0  0  0  0  0  0
    9.8525    4.1647    5.1470 C   0  0  0  0  0  0  0  0  0  0  0  0
    9.1158    3.3335    5.9491 N   0  0  0  0  0  0  0  0  0  0  0  0
    8.4542    2.4031    5.1881 C   0  0  0  0  0  0  0  0  0  0  0  0
    7.5741    1.3853    5.5694 C   0  0  0  0  0  0  0  0  0  0  0  0
    6.9816    0.6296    4.5541 C   0  0  0  0  0  0  0  0  0  0  0  0
    6.0580   -0.2718    4.9223 F   0  0  0  0  0  0  0  0  0  0  0  0
    0.7497   -0.2094   -1.2077 H   0  0  0  0  0  0  0  0  0  0  0  0
    0.6799   -0.9470    0.4085 H   0  0  0  0  0  0  0  0  0  0  0  0
    1.2478   -1.9036   -0.9972 H   0  0  0  0  0  0  0  0  0  0  0  0
    4.8382   -0.1062    0.3332 H   0  0  0  0  0  0  0  0  0  0  0  0
    3.1002   -3.2294    1.4675 H   0  0  0  0  0  0  0  0  0  0  0  0
    3.8364   -4.6690    2.0377 H   0  0  0  0  0  0  0  0  0  0  0  0
    7.5674   -3.7578    3.9862 H   0  0  0  0  0  0  0  0  0  0  0  0
    8.4485    2.0110    1.8037 H   0  0  0  0  0  0  0  0  0  0  0  0
   10.1470    4.2006    2.9790 H   0  0  0  0  0  0  0  0  0  0  0  0
   10.4244    4.9814    5.5691 H   0  0  0  0  0  0  0  0  0  0  0  0
    9.0384    3.4177    6.9547 H   0  0  0  0  0  0  0  0  0  0  0  0
    7.3252    1.1989    6.6079 H   0  0  0  0  0  0  0  0  0  0  0  0
  1  2  1  0  0  0  0
  1 23  1  0  0  0  0
  1 24  1  0  0  0  0
  1 25  1  0  0  0  0
  2  3  1  0  0  0  0
  3  4  2  0  0  0  0
  4  5  1  0  0  0  0
  4 26  1  0  0  0  0
  5  6  1  0  0  0  0
  5 11  2  0  0  0  0
  6  7  1  0  0  0  0
  6  8  2  0  0  0  0
  7 27  1  0  0  0  0
  7 28  1  0  0  0  0
  8  9  1  0  0  0  0
  9 10  2  0  0  0  0
  9 29  1  0  0  0  0
 10 11  1  0  0  0  0
 11 12  1  0  0  0  0
 12 13  1  0  0  0  0
 13 14  1  0  0  0  0
 13 21  2  0  0  0  0
 14 15  2  0  0  0  0
 14 30  1  0  0  0  0
 15 16  1  0  0  0  0
 15 19  1  0  0  0  0
 16 17  2  0  0  0  0
 16 31  1  0  0  0  0
 17 18  1  0  0  0  0
 17 32  1  0  0  0  0
 18 19  1  0  0  0  0
 18 33  1  0  0  0  0
 19 20  2  0  0  0  0
 20 21  1  0  0  0  0
 20 34  1  0  0  0  0
 21 22  1  0  0  0  0
M  END
$$$$
