CHEMBL1254515
 OpenBabel04072215363D

 51 54  0  0  0  0  0  0  0  0999 V2000
    0.1831    0.8579    1.7185 C   0  0  0  0  0  0  0  0  0  0  0  0
    1.5265    1.2592    1.9782 O   0  0  0  0  0  0  0  0  0  0  0  0
    2.3470    0.3494    2.5824 C   0  0  0  0  0  0  0  0  0  0  0  0
    1.9204   -0.9100    2.9925 C   0  0  0  0  0  0  0  0  0  0  0  0
    2.8042   -1.8079    3.5927 C   0  0  0  0  0  0  0  0  0  0  0  0
    4.1480   -1.4923    3.7877 C   0  0  0  0  0  0  0  0  0  0  0  0
    5.0644   -2.3895    4.3967 N   0  0  0  0  0  0  0  0  0  0  0  0
    4.7735   -3.6854    4.7880 C   0  0  0  0  0  0  0  0  0  0  0  0
    3.6990   -4.2530    4.5893 O   0  0  0  0  0  0  0  0  0  0  0  0
    5.8079   -4.2979    5.4757 N   0  0  0  0  0  0  0  0  0  0  0  0
    5.6291   -5.6333    5.9522 C   0  0  0  0  0  0  0  0  0  0  0  0
    5.1041   -6.6241    5.1110 C   0  0  0  0  0  0  0  0  0  0  0  0
    4.8226   -7.9035    5.5993 C   0  0  0  0  0  0  0  0  0  0  0  0
    5.0992   -8.2246    6.9281 C   0  0  0  0  0  0  0  0  0  0  0  0
    4.7792   -9.4299    7.5141 O   0  0  0  0  0  0  0  0  0  0  0  0
    4.8897  -10.5978    6.7705 C   0  0  0  0  0  0  0  0  0  0  0  0
    5.7480  -10.6716    5.7290 N   0  0  0  0  0  0  0  0  0  0  0  0
    5.8264  -11.8334    5.0571 C   0  0  0  0  0  0  0  0  0  0  0  0
    5.1717  -12.9731    5.3035 N   0  0  0  0  0  0  0  0  0  0  0  0
    4.3499  -12.8978    6.3711 C   0  0  0  0  0  0  0  0  0  0  0  0
    3.5302  -13.9046    6.9285 C   0  0  0  0  0  0  0  0  0  0  0  0
    2.8798  -13.3513    8.0106 C   0  0  0  0  0  0  0  0  0  0  0  0
    3.2776  -12.0401    8.1166 N   0  0  0  0  0  0  0  0  0  0  0  0
    2.8002  -11.1228    9.1276 C   0  0  0  0  0  0  0  0  0  0  0  0
    4.1836  -11.7409    7.1239 C   0  0  0  0  0  0  0  0  0  0  0  0
    5.6312   -7.2457    7.7740 C   0  0  0  0  0  0  0  0  0  0  0  0
    5.9126   -5.9639    7.2844 C   0  0  0  0  0  0  0  0  0  0  0  0
    6.5102   -4.7706    8.3839 Cl  0  0  0  0  0  0  0  0  0  0  0  0
    4.5805   -0.2250    3.3822 C   0  0  0  0  0  0  0  0  0  0  0  0
    3.6840    0.7143    2.7981 C   0  0  0  0  0  0  0  0  0  0  0  0
    4.2148    2.0859    2.4430 C   0  0  0  0  0  0  0  0  0  0  0  0
    3.3071    2.9936    1.9914 F   0  0  0  0  0  0  0  0  0  0  0  0
    4.8113    2.6843    3.5179 F   0  0  0  0  0  0  0  0  0  0  0  0
    5.1845    2.0288    1.4841 F   0  0  0  0  0  0  0  0  0  0  0  0
   -0.3147    1.6697    1.1788 H   0  0  0  0  0  0  0  0  0  0  0  0
   -0.3627    0.6949    2.6540 H   0  0  0  0  0  0  0  0  0  0  0  0
    0.1488   -0.0313    1.0805 H   0  0  0  0  0  0  0  0  0  0  0  0
    0.8943   -1.2435    2.8726 H   0  0  0  0  0  0  0  0  0  0  0  0
    2.3762   -2.7574    3.8903 H   0  0  0  0  0  0  0  0  0  0  0  0
    6.0309   -2.0991    4.4647 H   0  0  0  0  0  0  0  0  0  0  0  0
    6.3093   -3.6856    6.1081 H   0  0  0  0  0  0  0  0  0  0  0  0
    4.8775   -6.4031    4.0700 H   0  0  0  0  0  0  0  0  0  0  0  0
    4.3718   -8.6290    4.9268 H   0  0  0  0  0  0  0  0  0  0  0  0
    6.5022  -11.8457    4.2072 H   0  0  0  0  0  0  0  0  0  0  0  0
    3.4331  -14.9219    6.5752 H   0  0  0  0  0  0  0  0  0  0  0  0
    2.1709  -13.7852    8.7048 H   0  0  0  0  0  0  0  0  0  0  0  0
    2.1014  -11.6416    9.7897 H   0  0  0  0  0  0  0  0  0  0  0  0
    2.2888  -10.2954    8.6298 H   0  0  0  0  0  0  0  0  0  0  0  0
    3.6560  -10.7664    9.7057 H   0  0  0  0  0  0  0  0  0  0  0  0
    5.8014   -7.4789    8.8213 H   0  0  0  0  0  0  0  0  0  0  0  0
    5.6213    0.0668    3.5216 H   0  0  0  0  0  0  0  0  0  0  0  0
  1  2  1  0  0  0  0
  1 35  1  0  0  0  0
  1 36  1  0  0  0  0
  1 37  1  0  0  0  0
  2  3  1  0  0  0  0
  3  4  1  0  0  0  0
  3 30  2  0  0  0  0
  4  5  2  0  0  0  0
  4 38  1  0  0  0  0
  5  6  1  0  0  0  0
  5 39  1  0  0  0  0
  6  7  1  0  0  0  0
  6 29  2  0  0  0  0
  7  8  1  0  0  0  0
  7 40  1  0  0  0  0
  8  9  2  0  0  0  0
  8 10  1  0  0  0  0
 10 11  1  0  0  0  0
 10 41  1  0  0  0  0
 11 12  1  0  0  0  0
 11 27  2  0  0  0  0
 12 13  2  0  0  0  0
 12 42  1  0  0  0  0
 13 14  1  0  0  0  0
 13 43  1  0  0  0  0
 14 15  1  0  0  0  0
 14 26  2  0  0  0  0
 15 16  1  0  0  0  0
 16 17  1  0  0  0  0
 16 25  2  0  0  0  0
 17 18  2  0  0  0  0
 18 19  1  0  0  0  0
 18 44  1  0  0  0  0
 19 20  2  0  0  0  0
 20 21  1  0  0  0  0
 20 25  1  0  0  0  0
 21 22  2  0  0  0  0
 21 45  1  0  0  0  0
 22 23  1  0  0  0  0
 22 46  1  0  0  0  0
 23 24  1  0  0  0  0
 23 25  1  0  0  0  0
 24 47  1  0  0  0  0
 24 48  1  0  0  0  0
 24 49  1  0  0  0  0
 26 27  1  0  0  0  0
 26 50  1  0  0  0  0
 27 28  1  0  0  0  0
 29 30  1  0  0  0  0
 29 51  1  0  0  0  0
 30 31  1  0  0  0  0
 31 32  1  0  0  0  0
 31 33  1  0  0  0  0
 31 34  1  0  0  0  0
M  END
$$$$
