CHEMBL469883
 OpenBabel04072215383D

 45 47  0  0  0  0  0  0  0  0999 V2000
    2.5211    0.1958   -0.0727 C   0  0  0  0  0  0  0  0  0  0  0  0
    1.0254    0.0581    0.0050 C   0  0  0  0  0  0  0  0  0  0  0  0
    0.2668    1.2434    0.0921 C   0  0  0  0  0  0  0  0  0  0  0  0
   -1.1291    1.2090    0.1178 C   0  0  0  0  0  0  0  0  0  0  0  0
   -1.8023   -0.0125    0.0817 C   0  0  0  0  0  0  0  0  0  0  0  0
   -3.2918   -0.0097    0.0805 C   0  0  0  0  0  0  0  0  0  0  0  0
   -3.8616    0.9395   -0.4441 O   0  0  0  0  0  0  0  0  0  0  0  0
   -3.8903   -1.0662    0.7494 N   0  0  0  0  0  0  0  0  0  0  0  0
   -5.2791   -1.2725    0.8984 C   0  0  0  0  0  0  0  0  0  0  0  0
   -6.2401   -0.6191    0.1242 C   0  0  0  0  0  0  0  0  0  0  0  0
   -7.6011   -0.8293    0.3528 C   0  0  0  0  0  0  0  0  0  0  0  0
   -8.0181   -1.6890    1.3664 C   0  0  0  0  0  0  0  0  0  0  0  0
   -7.0735   -2.3680    2.1465 C   0  0  0  0  0  0  0  0  0  0  0  0
   -7.5047   -3.2748    3.2713 C   0  0  0  0  0  0  0  0  0  0  0  0
   -8.8531   -3.3084    3.4629 F   0  0  0  0  0  0  0  0  0  0  0  0
   -7.1216   -4.5667    3.0776 F   0  0  0  0  0  0  0  0  0  0  0  0
   -6.9692   -2.9036    4.4683 F   0  0  0  0  0  0  0  0  0  0  0  0
   -5.7034   -2.1720    1.8849 C   0  0  0  0  0  0  0  0  0  0  0  0
   -1.0673   -1.1972   -0.0071 C   0  0  0  0  0  0  0  0  0  0  0  0
    0.3424   -1.1733   -0.0399 C   0  0  0  0  0  0  0  0  0  0  0  0
    0.9813   -2.5129   -0.2113 C   0  0  0  0  0  0  0  0  0  0  0  0
    0.4042   -3.3159   -0.9388 O   0  0  0  0  0  0  0  0  0  0  0  0
    2.1128   -2.7710    0.5379 N   0  0  0  0  0  0  0  0  0  0  0  0
    2.8249   -3.9955    0.5696 C   0  0  0  0  0  0  0  0  0  0  0  0
    2.6025   -5.0605   -0.3049 C   0  0  0  0  0  0  0  0  0  0  0  0
    3.3261   -6.2438   -0.1622 C   0  0  0  0  0  0  0  0  0  0  0  0
    4.2673   -6.3258    0.8494 C   0  0  0  0  0  0  0  0  0  0  0  0
    4.5380   -5.3136    1.6977 N   0  0  0  0  0  0  0  0  0  0  0  0
    3.8169   -4.1772    1.5320 C   0  0  0  0  0  0  0  0  0  0  0  0
    2.8147    1.2320   -0.2784 H   0  0  0  0  0  0  0  0  0  0  0  0
    2.9292   -0.4157   -0.8820 H   0  0  0  0  0  0  0  0  0  0  0  0
    2.9803   -0.0824    0.8801 H   0  0  0  0  0  0  0  0  0  0  0  0
    0.7587    2.2154    0.1062 H   0  0  0  0  0  0  0  0  0  0  0  0
   -1.6914    2.1423    0.1516 H   0  0  0  0  0  0  0  0  0  0  0  0
   -3.2906   -1.6667    1.3003 H   0  0  0  0  0  0  0  0  0  0  0  0
   -5.9575    0.0546   -0.6793 H   0  0  0  0  0  0  0  0  0  0  0  0
   -8.3337   -0.3079   -0.2582 H   0  0  0  0  0  0  0  0  0  0  0  0
   -9.0841   -1.8203    1.5466 H   0  0  0  0  0  0  0  0  0  0  0  0
   -4.9737   -2.7034    2.4936 H   0  0  0  0  0  0  0  0  0  0  0  0
   -1.5841   -2.1504   -0.1025 H   0  0  0  0  0  0  0  0  0  0  0  0
    2.3909   -2.0773    1.2187 H   0  0  0  0  0  0  0  0  0  0  0  0
    1.8759   -5.0029   -1.1072 H   0  0  0  0  0  0  0  0  0  0  0  0
    3.1508   -7.0833   -0.8276 H   0  0  0  0  0  0  0  0  0  0  0  0
    4.8403   -7.2358    1.0065 H   0  0  0  0  0  0  0  0  0  0  0  0
    4.0652   -3.3948    2.2443 H   0  0  0  0  0  0  0  0  0  0  0  0
  1  2  1  0  0  0  0
  1 30  1  0  0  0  0
  1 31  1  0  0  0  0
  1 32  1  0  0  0  0
  2  3  1  0  0  0  0
  2 20  2  0  0  0  0
  3  4  2  0  0  0  0
  3 33  1  0  0  0  0
  4  5  1  0  0  0  0
  4 34  1  0  0  0  0
  5  6  1  0  0  0  0
  5 19  2  0  0  0  0
  6  7  2  0  0  0  0
  6  8  1  0  0  0  0
  8  9  1  0  0  0  0
  8 35  1  0  0  0  0
  9 10  1  0  0  0  0
  9 18  2  0  0  0  0
 10 11  2  0  0  0  0
 10 36  1  0  0  0  0
 11 12  1  0  0  0  0
 11 37  1  0  0  0  0
 12 13  2  0  0  0  0
 12 38  1  0  0  0  0
 13 14  1  0  0  0  0
 13 18  1  0  0  0  0
 14 15  1  0  0  0  0
 14 16  1  0  0  0  0
 14 17  1  0  0  0  0
 18 39  1  0  0  0  0
 19 20  1  0  0  0  0
 19 40  1  0  0  0  0
 20 21  1  0  0  0  0
 21 22  2  0  0  0  0
 21 23  1  0  0  0  0
 23 24  1  0  0  0  0
 23 41  1  0  0  0  0
 24 25  1  0  0  0  0
 24 29  2  0  0  0  0
 25 26  2  0  0  0  0
 25 42  1  0  0  0  0
 26 27  1  0  0  0  0
 26 43  1  0  0  0  0
 27 28  2  0  0  0  0
 27 44  1  0  0  0  0
 28 29  1  0  0  0  0
 29 45  1  0  0  0  0
M  END
$$$$
