CHEMBL3671543
 OpenBabel04072215373D

 54 56  0  0  0  0  0  0  0  0999 V2000
    2.2395    0.5237    2.0127 C   0  0  0  0  0  0  0  0  0  0  0  0
    2.8538    0.1134    0.8971 C   0  0  0  0  0  0  0  0  0  0  0  0
    3.4869   -1.2297    0.8203 C   0  0  0  0  0  0  0  0  0  0  0  0
    3.1990   -2.1338    1.5926 O   0  0  0  0  0  0  0  0  0  0  0  0
    4.4408   -1.2805   -0.1853 N   0  0  0  0  0  0  0  0  0  0  0  0
    5.1992   -2.4597   -0.3296 C   0  0  0  0  0  0  0  0  0  0  0  0
    6.3283   -2.6059    0.4741 C   0  0  0  0  0  0  0  0  0  0  0  0
    7.0366   -3.8271    0.5031 C   0  0  0  0  0  0  0  0  0  0  0  0
    8.0965   -4.1150    1.3774 C   0  0  0  0  0  0  0  0  0  0  0  0
    8.4817   -3.1698    2.3671 N   0  0  0  0  0  0  0  0  0  0  0  0
    9.2287   -3.5038    3.5210 C   0  0  0  0  0  0  0  0  0  0  0  0
    8.9258   -4.6538    4.2648 C   0  0  0  0  0  0  0  0  0  0  0  0
    9.7319   -5.0502    5.3325 C   0  0  0  0  0  0  0  0  0  0  0  0
   10.8389   -4.2800    5.6810 C   0  0  0  0  0  0  0  0  0  0  0  0
   11.9831   -4.8703    7.0644 Br  0  0  0  0  0  0  0  0  0  0  0  0
   11.1186   -3.0954    5.0044 C   0  0  0  0  0  0  0  0  0  0  0  0
   10.3056   -2.7135    3.9392 C   0  0  0  0  0  0  0  0  0  0  0  0
   10.5905   -1.5814    3.2760 F   0  0  0  0  0  0  0  0  0  0  0  0
    8.7317   -5.3039    1.3535 N   0  0  0  0  0  0  0  0  0  0  0  0
    8.2951   -6.2099    0.4824 C   0  0  0  0  0  0  0  0  0  0  0  0
    7.2687   -6.0597   -0.3593 N   0  0  0  0  0  0  0  0  0  0  0  0
    6.6398   -4.8807   -0.3350 C   0  0  0  0  0  0  0  0  0  0  0  0
    5.5383   -4.6954   -1.1634 C   0  0  0  0  0  0  0  0  0  0  0  0
    4.8170   -3.4955   -1.1958 C   0  0  0  0  0  0  0  0  0  0  0  0
    3.7893   -3.4739   -2.1104 O   0  0  0  0  0  0  0  0  0  0  0  0
    3.5211   -2.1986   -2.7013 C   0  0  0  0  0  0  0  0  0  0  0  0
    2.9787   -2.3577   -4.1272 C   0  0  0  0  0  0  0  0  0  0  0  0
    2.8125   -1.0655   -4.7873 N   0  0  0  0  0  0  0  0  0  0  0  0
    3.8988   -0.4376   -5.3643 C   0  0  0  0  0  0  0  0  0  0  0  0
    5.0073   -0.9308   -5.4989 O   0  0  0  0  0  0  0  0  0  0  0  0
    3.6525    0.9739   -5.8409 C   0  0  0  0  0  0  0  0  0  0  0  0
    4.3340    1.9441   -5.3276 N   0  0  0  0  0  0  0  0  0  0  0  0
    3.9769    3.1443   -5.9603 O   0  0  0  0  0  0  0  0  0  0  0  0
    4.8858    4.1577   -5.5364 C   0  0  0  0  0  0  0  0  0  0  0  0
    1.7388    1.4856    2.0506 H   0  0  0  0  0  0  0  0  0  0  0  0
    2.2127   -0.0921    2.9083 H   0  0  0  0  0  0  0  0  0  0  0  0
    2.8625    0.7278    0.0053 H   0  0  0  0  0  0  0  0  0  0  0  0
    4.9664   -0.4168   -0.2567 H   0  0  0  0  0  0  0  0  0  0  0  0
    6.6142   -1.7972    1.1422 H   0  0  0  0  0  0  0  0  0  0  0  0
    8.7994   -2.3032    1.9408 H   0  0  0  0  0  0  0  0  0  0  0  0
    8.0709   -5.2681    3.9893 H   0  0  0  0  0  0  0  0  0  0  0  0
    9.4967   -5.9701    5.8614 H   0  0  0  0  0  0  0  0  0  0  0  0
   11.9695   -2.4793    5.2740 H   0  0  0  0  0  0  0  0  0  0  0  0
    8.8131   -7.1653    0.4670 H   0  0  0  0  0  0  0  0  0  0  0  0
    5.2252   -5.5205   -1.8010 H   0  0  0  0  0  0  0  0  0  0  0  0
    4.4276   -1.5847   -2.7555 H   0  0  0  0  0  0  0  0  0  0  0  0
    2.7617   -1.6831   -2.1005 H   0  0  0  0  0  0  0  0  0  0  0  0
    2.0081   -2.8635   -4.1185 H   0  0  0  0  0  0  0  0  0  0  0  0
    3.6610   -2.9796   -4.7196 H   0  0  0  0  0  0  0  0  0  0  0  0
    1.9591   -0.5441   -4.6316 H   0  0  0  0  0  0  0  0  0  0  0  0
    2.8861    1.0870   -6.6255 H   0  0  0  0  0  0  0  0  0  0  0  0
    4.5899    5.1051   -5.9945 H   0  0  0  0  0  0  0  0  0  0  0  0
    5.9041    3.9148   -5.8573 H   0  0  0  0  0  0  0  0  0  0  0  0
    4.8506    4.2656   -4.4481 H   0  0  0  0  0  0  0  0  0  0  0  0
  1  2  2  0  0  0  0
  1 35  1  0  0  0  0
  1 36  1  0  0  0  0
  2  3  1  0  0  0  0
  2 37  1  0  0  0  0
  3  4  2  0  0  0  0
  3  5  1  0  0  0  0
  5  6  1  0  0  0  0
  5 38  1  0  0  0  0
  6  7  1  0  0  0  0
  6 24  2  0  0  0  0
  7  8  2  0  0  0  0
  7 39  1  0  0  0  0
  8  9  1  0  0  0  0
  8 22  1  0  0  0  0
  9 10  1  0  0  0  0
  9 19  2  0  0  0  0
 10 11  1  0  0  0  0
 10 40  1  0  0  0  0
 11 12  1  0  0  0  0
 11 17  2  0  0  0  0
 12 13  2  0  0  0  0
 12 41  1  0  0  0  0
 13 14  1  0  0  0  0
 13 42  1  0  0  0  0
 14 15  1  0  0  0  0
 14 16  2  0  0  0  0
 16 17  1  0  0  0  0
 16 43  1  0  0  0  0
 17 18  1  0  0  0  0
 19 20  1  0  0  0  0
 20 21  2  0  0  0  0
 20 44  1  0  0  0  0
 21 22  1  0  0  0  0
 22 23  2  0  0  0  0
 23 24  1  0  0  0  0
 23 45  1  0  0  0  0
 24 25  1  0  0  0  0
 25 26  1  0  0  0  0
 26 27  1  0  0  0  0
 26 46  1  0  0  0  0
 26 47  1  0  0  0  0
 27 28  1  0  0  0  0
 27 48  1  0  0  0  0
 27 49  1  0  0  0  0
 28 29  1  0  0  0  0
 28 50  1  0  0  0  0
 29 30  2  0  0  0  0
 29 31  1  0  0  0  0
 31 32  2  0  0  0  0
 31 51  1  0  0  0  0
 32 33  1  0  0  0  0
 33 34  1  0  0  0  0
 34 52  1  0  0  0  0
 34 53  1  0  0  0  0
 34 54  1  0  0  0  0
M  END
$$$$
