CHEMBL428039
 OpenBabel04072215383D

 58 60  0  0  0  0  0  0  0  0999 V2000
    0.6688   -1.8421    1.5080 C   0  0  0  0  0  0  0  0  0  0  0  0
    2.1190   -2.1823    1.2326 C   0  0  0  0  0  0  0  0  0  0  0  0
    2.8639   -0.9843    0.9559 O   0  0  0  0  0  0  0  0  0  0  0  0
    4.2336   -1.1389    1.0004 C   0  0  0  0  0  0  0  0  0  0  0  0
    4.8601   -2.3979    0.9606 C   0  0  0  0  0  0  0  0  0  0  0  0
    6.2253   -2.5612    1.1398 C   0  0  0  0  0  0  0  0  0  0  0  0
    6.7269   -3.7983    1.1732 N   0  0  0  0  0  0  0  0  0  0  0  0
    8.0441   -3.9013    1.3637 C   0  0  0  0  0  0  0  0  0  0  0  0
    8.8963   -2.8860    1.5149 N   0  0  0  0  0  0  0  0  0  0  0  0
    8.3790   -1.6419    1.4761 C   0  0  0  0  0  0  0  0  0  0  0  0
    9.2600   -0.5368    1.6289 N   0  0  0  0  0  0  0  0  0  0  0  0
   10.6337   -0.7074    1.5177 C   0  0  0  0  0  0  0  0  0  0  0  0
   11.2221   -1.3706    0.5163 C   0  0  0  0  0  0  0  0  0  0  0  0
   12.6581   -1.6585    0.4604 C   0  0  0  0  0  0  0  0  0  0  0  0
   13.0788   -2.3187   -0.4830 O   0  0  0  0  0  0  0  0  0  0  0  0
   13.5118   -1.1426    1.5786 C   0  0  0  0  0  0  0  0  0  0  0  0
   14.8790   -1.3680    1.6695 O   0  0  0  0  0  0  0  0  0  0  0  0
   15.4540   -2.2854    0.7444 C   0  0  0  0  0  0  0  0  0  0  0  0
   12.9348   -0.4197    2.5473 C   0  0  0  0  0  0  0  0  0  0  0  0
   11.4901   -0.1238    2.5936 C   0  0  0  0  0  0  0  0  0  0  0  0
   11.0081    0.5545    3.4914 O   0  0  0  0  0  0  0  0  0  0  0  0
    7.0124   -1.4224    1.2802 C   0  0  0  0  0  0  0  0  0  0  0  0
    6.4143   -0.1522    1.2081 C   0  0  0  0  0  0  0  0  0  0  0  0
    5.0279    0.0092    1.1363 C   0  0  0  0  0  0  0  0  0  0  0  0
    4.4499    1.3044    1.2293 N   0  0  0  0  0  0  0  0  0  0  0  0
    5.1075    2.3908    1.7822 C   0  0  0  0  0  0  0  0  0  0  0  0
    6.2048    2.3522    2.3353 O   0  0  0  0  0  0  0  0  0  0  0  0
    4.3696    3.6790    1.7186 C   0  0  0  0  0  0  0  0  0  0  0  0
    5.0144    4.7787    2.1532 C   0  0  0  0  0  0  0  0  0  0  0  0
    4.5157    6.1891    2.2310 C   0  0  0  0  0  0  0  0  0  0  0  0
    3.0579    6.3589    2.2708 N   0  0  0  0  0  0  0  0  0  0  0  0
    2.4992    5.8526    3.5311 C   0  0  0  0  0  0  0  0  0  0  0  0
    2.7455    7.7895    2.1550 C   0  0  0  0  0  0  0  0  0  0  0  0
    0.0900   -2.7570    1.6735 H   0  0  0  0  0  0  0  0  0  0  0  0
    0.2301   -1.2901    0.6725 H   0  0  0  0  0  0  0  0  0  0  0  0
    0.5881   -1.2135    2.3999 H   0  0  0  0  0  0  0  0  0  0  0  0
    2.1660   -2.8560    0.3681 H   0  0  0  0  0  0  0  0  0  0  0  0
    2.5167   -2.6879    2.1222 H   0  0  0  0  0  0  0  0  0  0  0  0
    4.2898   -3.3108    0.8229 H   0  0  0  0  0  0  0  0  0  0  0  0
    8.4609   -4.9008    1.4049 H   0  0  0  0  0  0  0  0  0  0  0  0
    9.0073    0.0144    2.4555 H   0  0  0  0  0  0  0  0  0  0  0  0
   10.6361   -1.7918   -0.2931 H   0  0  0  0  0  0  0  0  0  0  0  0
   16.5132   -2.3945    0.9936 H   0  0  0  0  0  0  0  0  0  0  0  0
   15.4024   -1.8944   -0.2765 H   0  0  0  0  0  0  0  0  0  0  0  0
   14.9918   -3.2756    0.8255 H   0  0  0  0  0  0  0  0  0  0  0  0
   13.5187   -0.0150    3.3664 H   0  0  0  0  0  0  0  0  0  0  0  0
    7.0694    0.7137    1.2089 H   0  0  0  0  0  0  0  0  0  0  0  0
    3.4633    1.3710    1.0072 H   0  0  0  0  0  0  0  0  0  0  0  0
    3.3609    3.7119    1.3337 H   0  0  0  0  0  0  0  0  0  0  0  0
    6.0422    4.6793    2.5077 H   0  0  0  0  0  0  0  0  0  0  0  0
    4.9228    6.7003    1.3479 H   0  0  0  0  0  0  0  0  0  0  0  0
    4.9773    6.6726    3.1036 H   0  0  0  0  0  0  0  0  0  0  0  0
    2.6274    4.7693    3.6205 H   0  0  0  0  0  0  0  0  0  0  0  0
    1.4187    6.0317    3.5670 H   0  0  0  0  0  0  0  0  0  0  0  0
    2.9549    6.3247    4.4093 H   0  0  0  0  0  0  0  0  0  0  0  0
    3.1307    8.1960    1.2131 H   0  0  0  0  0  0  0  0  0  0  0  0
    3.1723    8.3735    2.9799 H   0  0  0  0  0  0  0  0  0  0  0  0
    1.6619    7.9476    2.1461 H   0  0  0  0  0  0  0  0  0  0  0  0
  1  2  1  0  0  0  0
  1 34  1  0  0  0  0
  1 35  1  0  0  0  0
  1 36  1  0  0  0  0
  2  3  1  0  0  0  0
  2 37  1  0  0  0  0
  2 38  1  0  0  0  0
  3  4  1  0  0  0  0
  4  5  1  0  0  0  0
  4 24  2  0  0  0  0
  5  6  2  0  0  0  0
  5 39  1  0  0  0  0
  6  7  1  0  0  0  0
  6 22  1  0  0  0  0
  7  8  2  0  0  0  0
  8  9  1  0  0  0  0
  8 40  1  0  0  0  0
  9 10  2  0  0  0  0
 10 11  1  0  0  0  0
 10 22  1  0  0  0  0
 11 12  1  0  0  0  0
 11 41  1  0  0  0  0
 12 13  2  0  0  0  0
 12 20  1  0  0  0  0
 13 14  1  0  0  0  0
 13 42  1  0  0  0  0
 14 15  2  0  0  0  0
 14 16  1  0  0  0  0
 16 17  1  0  0  0  0
 16 19  2  0  0  0  0
 17 18  1  0  0  0  0
 18 43  1  0  0  0  0
 18 44  1  0  0  0  0
 18 45  1  0  0  0  0
 19 20  1  0  0  0  0
 19 46  1  0  0  0  0
 20 21  2  0  0  0  0
 22 23  2  0  0  0  0
 23 24  1  0  0  0  0
 23 47  1  0  0  0  0
 24 25  1  0  0  0  0
 25 26  1  0  0  0  0
 25 48  1  0  0  0  0
 26 27  2  0  0  0  0
 26 28  1  0  0  0  0
 28 29  2  0  0  0  0
 28 49  1  0  0  0  0
 29 30  1  0  0  0  0
 29 50  1  0  0  0  0
 30 31  1  0  0  0  0
 30 51  1  0  0  0  0
 30 52  1  0  0  0  0
 31 32  1  0  0  0  0
 31 33  1  0  0  0  0
 32 53  1  0  0  0  0
 32 54  1  0  0  0  0
 32 55  1  0  0  0  0
 33 56  1  0  0  0  0
 33 57  1  0  0  0  0
 33 58  1  0  0  0  0
M  END
$$$$
