CHEMBL360526
 OpenBabel04072215363D

 52 55  0  0  0  0  0  0  0  0999 V2000
    5.2302    0.3099   -2.1637 C   0  0  0  0  0  0  0  0  0  0  0  0
    4.1008   -0.2626   -1.5008 O   0  0  0  0  0  0  0  0  0  0  0  0
    4.3830   -1.1291   -0.4789 C   0  0  0  0  0  0  0  0  0  0  0  0
    5.5698   -1.0384    0.2684 C   0  0  0  0  0  0  0  0  0  0  0  0
    5.9576   -2.0080    1.1875 C   0  0  0  0  0  0  0  0  0  0  0  0
    7.1697   -1.8953    1.7523 N   0  0  0  0  0  0  0  0  0  0  0  0
    7.5907   -2.8808    2.5690 C   0  0  0  0  0  0  0  0  0  0  0  0
    6.8564   -4.0186    2.8315 C   0  0  0  0  0  0  0  0  0  0  0  0
    5.5919   -4.1365    2.2599 C   0  0  0  0  0  0  0  0  0  0  0  0
    4.9575   -5.3312    2.5765 O   0  0  0  0  0  0  0  0  0  0  0  0
    4.1225   -5.9531    1.6759 C   0  0  0  0  0  0  0  0  0  0  0  0
    4.2951   -5.9315    0.2956 C   0  0  0  0  0  0  0  0  0  0  0  0
    3.2533   -6.3515   -0.5360 C   0  0  0  0  0  0  0  0  0  0  0  0
    2.0709   -6.8856   -0.0130 C   0  0  0  0  0  0  0  0  0  0  0  0
    0.9373   -7.2011   -0.8058 N   0  0  0  0  0  0  0  0  0  0  0  0
    0.8369   -7.0143   -2.1710 C   0  0  0  0  0  0  0  0  0  0  0  0
    1.7565   -6.6891   -2.9139 O   0  0  0  0  0  0  0  0  0  0  0  0
   -0.4598   -7.2194   -2.6377 N   0  0  0  0  0  0  0  0  0  0  0  0
   -0.7285   -7.0607   -4.0242 C   0  0  0  0  0  0  0  0  0  0  0  0
    0.1045   -7.6255   -4.9978 C   0  0  0  0  0  0  0  0  0  0  0  0
   -0.1075   -7.3446   -6.3477 C   0  0  0  0  0  0  0  0  0  0  0  0
   -1.1466   -6.5040   -6.7184 C   0  0  0  0  0  0  0  0  0  0  0  0
   -1.3179   -6.2035   -8.0121 F   0  0  0  0  0  0  0  0  0  0  0  0
   -2.0067   -5.9637   -5.7708 C   0  0  0  0  0  0  0  0  0  0  0  0
   -1.8038   -6.2650   -4.4288 C   0  0  0  0  0  0  0  0  0  0  0  0
   -2.6094   -5.7165   -3.5060 F   0  0  0  0  0  0  0  0  0  0  0  0
    1.9841   -7.0643    1.3717 C   0  0  0  0  0  0  0  0  0  0  0  0
    3.0055   -6.5979    2.2114 C   0  0  0  0  0  0  0  0  0  0  0  0
    5.0849   -3.0781    1.4561 C   0  0  0  0  0  0  0  0  0  0  0  0
    3.7966   -3.0174    0.8782 C   0  0  0  0  0  0  0  0  0  0  0  0
    3.4633   -2.1185   -0.1386 C   0  0  0  0  0  0  0  0  0  0  0  0
    2.2401   -2.4085   -0.6713 O   0  0  0  0  0  0  0  0  0  0  0  0
    1.8487   -1.8551   -1.9107 C   0  0  0  0  0  0  0  0  0  0  0  0
    4.9710    0.4558   -3.2160 H   0  0  0  0  0  0  0  0  0  0  0  0
    6.1234   -0.3283   -2.1460 H   0  0  0  0  0  0  0  0  0  0  0  0
    5.4526    1.2886   -1.7271 H   0  0  0  0  0  0  0  0  0  0  0  0
    6.2585   -0.2117    0.1124 H   0  0  0  0  0  0  0  0  0  0  0  0
    8.5795   -2.7384    2.9929 H   0  0  0  0  0  0  0  0  0  0  0  0
    7.2609   -4.7982    3.4695 H   0  0  0  0  0  0  0  0  0  0  0  0
    5.1735   -5.4811   -0.1587 H   0  0  0  0  0  0  0  0  0  0  0  0
    3.3906   -6.1842   -1.5992 H   0  0  0  0  0  0  0  0  0  0  0  0
    0.1329   -7.5927   -0.3350 H   0  0  0  0  0  0  0  0  0  0  0  0
   -1.1858   -6.8736   -2.0214 H   0  0  0  0  0  0  0  0  0  0  0  0
    0.9420   -8.2582   -4.7097 H   0  0  0  0  0  0  0  0  0  0  0  0
    0.5599   -7.7542   -7.1033 H   0  0  0  0  0  0  0  0  0  0  0  0
   -2.8032   -5.2941   -6.0743 H   0  0  0  0  0  0  0  0  0  0  0  0
    1.1072   -7.5196    1.8257 H   0  0  0  0  0  0  0  0  0  0  0  0
    2.9030   -6.6874    3.2897 H   0  0  0  0  0  0  0  0  0  0  0  0
    3.0349   -3.7375    1.1626 H   0  0  0  0  0  0  0  0  0  0  0  0
    1.0535   -2.4873   -2.3198 H   0  0  0  0  0  0  0  0  0  0  0  0
    2.6513   -1.8360   -2.6560 H   0  0  0  0  0  0  0  0  0  0  0  0
    1.4241   -0.8563   -1.7519 H   0  0  0  0  0  0  0  0  0  0  0  0
  1  2  1  0  0  0  0
  1 34  1  0  0  0  0
  1 35  1  0  0  0  0
  1 36  1  0  0  0  0
  2  3  1  0  0  0  0
  3  4  1  0  0  0  0
  3 31  2  0  0  0  0
  4  5  2  0  0  0  0
  4 37  1  0  0  0  0
  5  6  1  0  0  0  0
  5 29  1  0  0  0  0
  6  7  2  0  0  0  0
  7  8  1  0  0  0  0
  7 38  1  0  0  0  0
  8  9  2  0  0  0  0
  8 39  1  0  0  0  0
  9 10  1  0  0  0  0
  9 29  1  0  0  0  0
 10 11  1  0  0  0  0
 11 12  1  0  0  0  0
 11 28  2  0  0  0  0
 12 13  2  0  0  0  0
 12 40  1  0  0  0  0
 13 14  1  0  0  0  0
 13 41  1  0  0  0  0
 14 15  1  0  0  0  0
 14 27  2  0  0  0  0
 15 16  1  0  0  0  0
 15 42  1  0  0  0  0
 16 17  2  0  0  0  0
 16 18  1  0  0  0  0
 18 19  1  0  0  0  0
 18 43  1  0  0  0  0
 19 20  1  0  0  0  0
 19 25  2  0  0  0  0
 20 21  2  0  0  0  0
 20 44  1  0  0  0  0
 21 22  1  0  0  0  0
 21 45  1  0  0  0  0
 22 23  1  0  0  0  0
 22 24  2  0  0  0  0
 24 25  1  0  0  0  0
 24 46  1  0  0  0  0
 25 26  1  0  0  0  0
 27 28  1  0  0  0  0
 27 47  1  0  0  0  0
 28 48  1  0  0  0  0
 29 30  2  0  0  0  0
 30 31  1  0  0  0  0
 30 49  1  0  0  0  0
 31 32  1  0  0  0  0
 32 33  1  0  0  0  0
 33 50  1  0  0  0  0
 33 51  1  0  0  0  0
 33 52  1  0  0  0  0
M  END
$$$$
