CHEMBL400140
 OpenBabel04072215373D

 51 53  0  0  0  0  0  0  0  0999 V2000
    8.2048   -0.5784   -1.3811 C   0  0  0  0  0  0  0  0  0  0  0  0
    6.8507   -0.4507   -0.6998 C   0  0  0  0  0  0  0  0  0  0  0  0
    6.8969    0.6233    0.3827 C   0  0  0  0  0  0  0  0  0  0  0  0
    5.5423    0.8058    1.0784 C   0  0  0  0  0  0  0  0  0  0  0  0
    5.5741    1.9389    2.0731 C   0  0  0  0  0  0  0  0  0  0  0  0
    5.9242    3.2223    1.6447 C   0  0  0  0  0  0  0  0  0  0  0  0
    5.9817    4.2853    2.5414 C   0  0  0  0  0  0  0  0  0  0  0  0
    5.6598    4.1073    3.8838 C   0  0  0  0  0  0  0  0  0  0  0  0
    5.6727    5.1597    4.8210 N   0  0  0  0  0  0  0  0  0  0  0  0
    6.0745    6.4609    4.5771 C   0  0  0  0  0  0  0  0  0  0  0  0
    6.5410    6.9065    3.5319 O   0  0  0  0  0  0  0  0  0  0  0  0
    5.8927    7.4204    5.6877 C   0  0  0  0  0  0  0  0  0  0  0  0
    5.5447    8.7308    5.3277 C   0  0  0  0  0  0  0  0  0  0  0  0
    5.3204    9.6803    6.3078 C   0  0  0  0  0  0  0  0  0  0  0  0
    5.4542    9.2778    7.6190 C   0  0  0  0  0  0  0  0  0  0  0  0
    5.8395    8.0335    7.9925 N   0  0  0  0  0  0  0  0  0  0  0  0
    6.0961    7.1093    7.0375 C   0  0  0  0  0  0  0  0  0  0  0  0
    6.5094    5.8207    7.4371 N   0  0  0  0  0  0  0  0  0  0  0  0
    7.0732    5.7253    8.7885 C   0  0  0  0  0  0  0  0  0  0  0  0
    8.5887    5.7684    8.7690 C   0  0  0  0  0  0  0  0  0  0  0  0
    9.2880    6.8748    8.2714 C   0  0  0  0  0  0  0  0  0  0  0  0
   10.6740    6.8793    8.3365 C   0  0  0  0  0  0  0  0  0  0  0  0
   11.4051    5.8732    8.8600 N   0  0  0  0  0  0  0  0  0  0  0  0
   10.7195    4.8159    9.3404 C   0  0  0  0  0  0  0  0  0  0  0  0
    9.3356    4.7166    9.3146 C   0  0  0  0  0  0  0  0  0  0  0  0
    5.2815    2.8285    4.3211 C   0  0  0  0  0  0  0  0  0  0  0  0
    5.2449    1.7526    3.4231 C   0  0  0  0  0  0  0  0  0  0  0  0
    8.1710   -1.3484   -2.1568 H   0  0  0  0  0  0  0  0  0  0  0  0
    8.9812   -0.8526   -0.6596 H   0  0  0  0  0  0  0  0  0  0  0  0
    8.4964    0.3661   -1.8527 H   0  0  0  0  0  0  0  0  0  0  0  0
    6.5662   -1.4139   -0.2636 H   0  0  0  0  0  0  0  0  0  0  0  0
    6.0938   -0.1919   -1.4500 H   0  0  0  0  0  0  0  0  0  0  0  0
    7.2209    1.5617   -0.0830 H   0  0  0  0  0  0  0  0  0  0  0  0
    7.6595    0.3683    1.1296 H   0  0  0  0  0  0  0  0  0  0  0  0
    5.2580   -0.1295    1.5755 H   0  0  0  0  0  0  0  0  0  0  0  0
    4.7603    1.0205    0.3391 H   0  0  0  0  0  0  0  0  0  0  0  0
    6.1638    3.4158    0.6023 H   0  0  0  0  0  0  0  0  0  0  0  0
    6.2707    5.2478    2.1378 H   0  0  0  0  0  0  0  0  0  0  0  0
    5.3286    4.9490    5.7546 H   0  0  0  0  0  0  0  0  0  0  0  0
    5.4482    9.0040    4.2762 H   0  0  0  0  0  0  0  0  0  0  0  0
    5.0382   10.6963    6.0538 H   0  0  0  0  0  0  0  0  0  0  0  0
    5.2554    9.9656    8.4369 H   0  0  0  0  0  0  0  0  0  0  0  0
    7.1729    5.4392    6.7626 H   0  0  0  0  0  0  0  0  0  0  0  0
    6.7554    4.7562    9.1912 H   0  0  0  0  0  0  0  0  0  0  0  0
    6.6972    6.4686    9.5008 H   0  0  0  0  0  0  0  0  0  0  0  0
    8.7701    7.7325    7.8540 H   0  0  0  0  0  0  0  0  0  0  0  0
   11.2491    7.7235    7.9664 H   0  0  0  0  0  0  0  0  0  0  0  0
   11.3293    4.0274    9.7708 H   0  0  0  0  0  0  0  0  0  0  0  0
    8.8565    3.8362    9.7292 H   0  0  0  0  0  0  0  0  0  0  0  0
    5.0199    2.6535    5.3609 H   0  0  0  0  0  0  0  0  0  0  0  0
    4.9584    0.7675    3.7866 H   0  0  0  0  0  0  0  0  0  0  0  0
  1  2  1  0  0  0  0
  1 28  1  0  0  0  0
  1 29  1  0  0  0  0
  1 30  1  0  0  0  0
  2  3  1  0  0  0  0
  2 31  1  0  0  0  0
  2 32  1  0  0  0  0
  3  4  1  0  0  0  0
  3 33  1  0  0  0  0
  3 34  1  0  0  0  0
  4  5  1  0  0  0  0
  4 35  1  0  0  0  0
  4 36  1  0  0  0  0
  5  6  1  0  0  0  0
  5 27  2  0  0  0  0
  6  7  2  0  0  0  0
  6 37  1  0  0  0  0
  7  8  1  0  0  0  0
  7 38  1  0  0  0  0
  8  9  1  0  0  0  0
  8 26  2  0  0  0  0
  9 10  1  0  0  0  0
  9 39  1  0  0  0  0
 10 11  2  0  0  0  0
 10 12  1  0  0  0  0
 12 13  1  0  0  0  0
 12 17  2  0  0  0  0
 13 14  2  0  0  0  0
 13 40  1  0  0  0  0
 14 15  1  0  0  0  0
 14 41  1  0  0  0  0
 15 16  2  0  0  0  0
 15 42  1  0  0  0  0
 16 17  1  0  0  0  0
 17 18  1  0  0  0  0
 18 19  1  0  0  0  0
 18 43  1  0  0  0  0
 19 20  1  0  0  0  0
 19 44  1  0  0  0  0
 19 45  1  0  0  0  0
 20 21  1  0  0  0  0
 20 25  2  0  0  0  0
 21 22  2  0  0  0  0
 21 46  1  0  0  0  0
 22 23  1  0  0  0  0
 22 47  1  0  0  0  0
 23 24  2  0  0  0  0
 24 25  1  0  0  0  0
 24 48  1  0  0  0  0
 25 49  1  0  0  0  0
 26 27  1  0  0  0  0
 26 50  1  0  0  0  0
 27 51  1  0  0  0  0
M  END
$$$$
