CHEMBL186001
 OpenBabel04072215363D

 36 38  0  0  0  0  0  0  0  0999 V2000
    0.4336    2.7666   -5.0666 C   0  0  0  0  0  0  0  0  0  0  0  0
    1.1281    2.4380   -3.7778 C   0  0  0  0  0  0  0  0  0  0  0  0
    2.5225    2.4281   -3.7143 C   0  0  0  0  0  0  0  0  0  0  0  0
    3.1732    2.1134   -2.5185 C   0  0  0  0  0  0  0  0  0  0  0  0
    2.4579    1.8003   -1.3542 C   0  0  0  0  0  0  0  0  0  0  0  0
    3.1086    1.4622   -0.1510 N   0  0  0  0  0  0  0  0  0  0  0  0
    4.3716    0.9152   -0.0381 C   0  0  0  0  0  0  0  0  0  0  0  0
    4.8465    0.1537   -0.9827 N   0  0  0  0  0  0  0  0  0  0  0  0
    6.0814   -0.4130   -0.8532 C   0  0  0  0  0  0  0  0  0  0  0  0
    6.9074   -0.2601    0.1286 N   0  0  0  0  0  0  0  0  0  0  0  0
    6.4420    0.5382    1.0992 N   0  0  0  0  0  0  0  0  0  0  0  0
    7.1319    0.8858    2.2224 C   0  0  0  0  0  0  0  0  0  0  0  0
    6.3489    1.7315    2.9816 C   0  0  0  0  0  0  0  0  0  0  0  0
    6.7417    2.3456    4.2789 C   0  0  0  0  0  0  0  0  0  0  0  0
    5.1111    1.9028    2.2671 C   0  0  0  0  0  0  0  0  0  0  0  0
    3.9740    2.7622    2.6896 C   0  0  0  0  0  0  0  0  0  0  0  0
    5.2167    1.1379    1.1086 C   0  0  0  0  0  0  0  0  0  0  0  0
    1.0574    1.8213   -1.4180 C   0  0  0  0  0  0  0  0  0  0  0  0
    0.4088    2.1353   -2.6186 C   0  0  0  0  0  0  0  0  0  0  0  0
   -0.9581    2.1506   -2.6845 O   0  0  0  0  0  0  0  0  0  0  0  0
    1.1525    2.9650   -5.8692 H   0  0  0  0  0  0  0  0  0  0  0  0
   -0.1853    3.6613   -4.9464 H   0  0  0  0  0  0  0  0  0  0  0  0
   -0.1939    1.9281   -5.3857 H   0  0  0  0  0  0  0  0  0  0  0  0
    3.1196    2.6632   -4.5925 H   0  0  0  0  0  0  0  0  0  0  0  0
    4.2606    2.1299   -2.5091 H   0  0  0  0  0  0  0  0  0  0  0  0
    2.5285    1.4187    0.6731 H   0  0  0  0  0  0  0  0  0  0  0  0
    6.3907   -1.0635   -1.6900 H   0  0  0  0  0  0  0  0  0  0  0  0
    8.1317    0.5061    2.3784 H   0  0  0  0  0  0  0  0  0  0  0  0
    7.7462    2.0286    4.5798 H   0  0  0  0  0  0  0  0  0  0  0  0
    6.0444    2.0487    5.0683 H   0  0  0  0  0  0  0  0  0  0  0  0
    6.7424    3.4376    4.2033 H   0  0  0  0  0  0  0  0  0  0  0  0
    4.1705    3.2495    3.6499 H   0  0  0  0  0  0  0  0  0  0  0  0
    3.0648    2.1644    2.8051 H   0  0  0  0  0  0  0  0  0  0  0  0
    3.7891    3.5490    1.9514 H   0  0  0  0  0  0  0  0  0  0  0  0
    0.4746    1.5805   -0.5354 H   0  0  0  0  0  0  0  0  0  0  0  0
   -1.3190    1.9046   -1.8183 H   0  0  0  0  0  0  0  0  0  0  0  0
  1  2  1  0  0  0  0
  1 21  1  0  0  0  0
  1 22  1  0  0  0  0
  1 23  1  0  0  0  0
  2  3  1  0  0  0  0
  2 19  2  0  0  0  0
  3  4  2  0  0  0  0
  3 24  1  0  0  0  0
  4  5  1  0  0  0  0
  4 25  1  0  0  0  0
  5  6  1  0  0  0  0
  5 18  2  0  0  0  0
  6  7  1  0  0  0  0
  6 26  1  0  0  0  0
  7  8  2  0  0  0  0
  7 17  1  0  0  0  0
  8  9  1  0  0  0  0
  9 10  2  0  0  0  0
  9 27  1  0  0  0  0
 10 11  1  0  0  0  0
 11 12  1  0  0  0  0
 11 17  1  0  0  0  0
 12 13  2  0  0  0  0
 12 28  1  0  0  0  0
 13 14  1  0  0  0  0
 13 15  1  0  0  0  0
 14 29  1  0  0  0  0
 14 30  1  0  0  0  0
 14 31  1  0  0  0  0
 15 16  1  0  0  0  0
 15 17  2  0  0  0  0
 16 32  1  0  0  0  0
 16 33  1  0  0  0  0
 16 34  1  0  0  0  0
 18 19  1  0  0  0  0
 18 35  1  0  0  0  0
 19 20  1  0  0  0  0
 20 36  1  0  0  0  0
M  END
$$$$
