CHEMBL2322142
 OpenBabel04072215363D

 34 37  0  0  0  0  0  0  0  0999 V2000
   -2.9668   -0.7430   -0.0265 C   0  0  0  0  0  0  0  0  0  0  0  0
   -1.7936   -1.4750   -0.0538 C   0  0  0  0  0  0  0  0  0  0  0  0
   -0.7543   -0.5332   -0.0439 C   0  0  0  0  0  0  0  0  0  0  0  0
   -1.2896    0.7394   -0.0244 C   0  0  0  0  0  0  0  0  0  0  0  0
   -0.6507    1.9428   -0.0160 N   0  0  0  0  0  0  0  0  0  0  0  0
    0.6587    1.8437   -0.0423 C   0  0  0  0  0  0  0  0  0  0  0  0
    1.3560    0.5718   -0.0714 C   0  0  0  0  0  0  0  0  0  0  0  0
    2.6551    0.3727   -0.1124 N   0  0  0  0  0  0  0  0  0  0  0  0
    2.7880   -0.9966   -0.0957 C   0  0  0  0  0  0  0  0  0  0  0  0
    1.5611   -1.6402   -0.0301 C   0  0  0  0  0  0  0  0  0  0  0  0
    1.1946   -3.0850    0.0972 C   0  0  0  0  0  0  0  0  0  0  0  0
    2.2519   -3.8928    0.8648 C   0  0  0  0  0  0  0  0  0  0  0  0
    1.7845   -5.3330    1.0602 C   0  0  0  0  0  0  0  0  0  0  0  0
    1.4552   -6.0011   -0.2731 C   0  0  0  0  0  0  0  0  0  0  0  0
    0.4630   -5.1813   -1.0954 C   0  0  0  0  0  0  0  0  0  0  0  0
    0.9240   -3.7333   -1.2679 C   0  0  0  0  0  0  0  0  0  0  0  0
    0.6489   -0.6103   -0.0545 N   0  0  0  0  0  0  0  0  0  0  0  0
   -2.6502    0.5965   -0.0079 N   0  0  0  0  0  0  0  0  0  0  0  0
   -4.0034   -1.0570   -0.0204 H   0  0  0  0  0  0  0  0  0  0  0  0
   -1.7382   -2.5541   -0.0809 H   0  0  0  0  0  0  0  0  0  0  0  0
    1.2625    2.7655   -0.0357 H   0  0  0  0  0  0  0  0  0  0  0  0
    3.7717   -1.4522   -0.0982 H   0  0  0  0  0  0  0  0  0  0  0  0
    0.2792   -3.1460    0.6978 H   0  0  0  0  0  0  0  0  0  0  0  0
    2.4409   -3.4373    1.8448 H   0  0  0  0  0  0  0  0  0  0  0  0
    3.2070   -3.8920    0.3246 H   0  0  0  0  0  0  0  0  0  0  0  0
    0.8945   -5.3433    1.7023 H   0  0  0  0  0  0  0  0  0  0  0  0
    2.5594   -5.9069    1.5811 H   0  0  0  0  0  0  0  0  0  0  0  0
    1.0450   -7.0011   -0.0915 H   0  0  0  0  0  0  0  0  0  0  0  0
    2.3794   -6.1338   -0.8491 H   0  0  0  0  0  0  0  0  0  0  0  0
   -0.5153   -5.1914   -0.5980 H   0  0  0  0  0  0  0  0  0  0  0  0
    0.3241   -5.6467   -2.0776 H   0  0  0  0  0  0  0  0  0  0  0  0
    0.1570   -3.1758   -1.8187 H   0  0  0  0  0  0  0  0  0  0  0  0
    1.8298   -3.7088   -1.8881 H   0  0  0  0  0  0  0  0  0  0  0  0
   -3.3019    1.3685    0.0137 H   0  0  0  0  0  0  0  0  0  0  0  0
  1  2  2  0  0  0  0
  1 18  1  0  0  0  0
  1 19  1  0  0  0  0
  2  3  1  0  0  0  0
  2 20  1  0  0  0  0
  3  4  2  0  0  0  0
  3 17  1  0  0  0  0
  4  5  1  0  0  0  0
  4 18  1  0  0  0  0
  5  6  2  0  0  0  0
  6  7  1  0  0  0  0
  6 21  1  0  0  0  0
  7  8  2  0  0  0  0
  7 17  1  0  0  0  0
  8  9  1  0  0  0  0
  9 10  2  0  0  0  0
  9 22  1  0  0  0  0
 10 11  1  0  0  0  0
 10 17  1  0  0  0  0
 11 12  1  0  0  0  0
 11 16  1  0  0  0  0
 11 23  1  0  0  0  0
 12 13  1  0  0  0  0
 12 24  1  0  0  0  0
 12 25  1  0  0  0  0
 13 14  1  0  0  0  0
 13 26  1  0  0  0  0
 13 27  1  0  0  0  0
 14 15  1  0  0  0  0
 14 28  1  0  0  0  0
 14 29  1  0  0  0  0
 15 16  1  0  0  0  0
 15 30  1  0  0  0  0
 15 31  1  0  0  0  0
 16 32  1  0  0  0  0
 16 33  1  0  0  0  0
 18 34  1  0  0  0  0
M  END
$$$$
