CHEMBL1241390
 OpenBabel04072215363D

 33 35  0  0  0  0  0  0  0  0999 V2000
    3.7778    0.6428    0.5367 C   0  0  0  0  0  0  0  0  0  0  0  0
    2.5713   -0.1570    0.0440 C   0  0  0  0  0  0  0  0  0  0  0  0
    1.6091    0.7190   -0.7569 C   0  0  0  0  0  0  0  0  0  0  0  0
    2.9711   -1.3331   -0.7217 N   0  0  0  0  0  0  0  0  0  0  0  0
    3.6910   -1.1989   -1.8557 N   0  0  0  0  0  0  0  0  0  0  0  0
    3.7741   -2.4484   -2.3552 C   0  0  0  0  0  0  0  0  0  0  0  0
    4.4361   -2.6655   -3.6398 C   0  0  0  0  0  0  0  0  0  0  0  0
    4.0170   -3.6460   -4.5435 C   0  0  0  0  0  0  0  0  0  0  0  0
    4.6964   -3.8288   -5.7479 C   0  0  0  0  0  0  0  0  0  0  0  0
    5.7618   -2.9921   -6.0347 C   0  0  0  0  0  0  0  0  0  0  0  0
    6.1819   -2.0116   -5.2107 N   0  0  0  0  0  0  0  0  0  0  0  0
    5.5054   -1.8656   -4.0405 C   0  0  0  0  0  0  0  0  0  0  0  0
    3.1507   -3.3966   -1.4772 C   0  0  0  0  0  0  0  0  0  0  0  0
    2.9285   -4.7789   -1.3857 C   0  0  0  0  0  0  0  0  0  0  0  0
    3.3857   -5.7342   -2.2823 N   0  0  0  0  0  0  0  0  0  0  0  0
    2.2207   -5.2579   -0.3406 N   0  0  0  0  0  0  0  0  0  0  0  0
    1.7718   -4.3920    0.5850 C   0  0  0  0  0  0  0  0  0  0  0  0
    1.9358   -3.0654    0.6190 N   0  0  0  0  0  0  0  0  0  0  0  0
    2.6372   -2.6295   -0.4436 C   0  0  0  0  0  0  0  0  0  0  0  0
    3.4529    1.4831    1.1599 H   0  0  0  0  0  0  0  0  0  0  0  0
    4.3629    1.0482   -0.2968 H   0  0  0  0  0  0  0  0  0  0  0  0
    4.4426    0.0139    1.1370 H   0  0  0  0  0  0  0  0  0  0  0  0
    2.0346   -0.5205    0.9277 H   0  0  0  0  0  0  0  0  0  0  0  0
    2.0836    1.1191   -1.6601 H   0  0  0  0  0  0  0  0  0  0  0  0
    1.2620    1.5649   -0.1548 H   0  0  0  0  0  0  0  0  0  0  0  0
    0.7305    0.1450   -1.0704 H   0  0  0  0  0  0  0  0  0  0  0  0
    3.1486   -4.2662   -4.3384 H   0  0  0  0  0  0  0  0  0  0  0  0
    4.3918   -4.5993   -6.4474 H   0  0  0  0  0  0  0  0  0  0  0  0
    6.3129   -3.0872   -6.9655 H   0  0  0  0  0  0  0  0  0  0  0  0
    5.8675   -1.0572   -3.4108 H   0  0  0  0  0  0  0  0  0  0  0  0
    4.3101   -5.5502   -2.6518 H   0  0  0  0  0  0  0  0  0  0  0  0
    3.2633   -6.6600   -1.8845 H   0  0  0  0  0  0  0  0  0  0  0  0
    1.2058   -4.8275    1.4065 H   0  0  0  0  0  0  0  0  0  0  0  0
  1  2  1  0  0  0  0
  1 20  1  0  0  0  0
  1 21  1  0  0  0  0
  1 22  1  0  0  0  0
  2  3  1  0  0  0  0
  2  4  1  0  0  0  0
  2 23  1  0  0  0  0
  3 24  1  0  0  0  0
  3 25  1  0  0  0  0
  3 26  1  0  0  0  0
  4  5  1  0  0  0  0
  4 19  1  0  0  0  0
  5  6  2  0  0  0  0
  6  7  1  0  0  0  0
  6 13  1  0  0  0  0
  7  8  1  0  0  0  0
  7 12  2  0  0  0  0
  8  9  2  0  0  0  0
  8 27  1  0  0  0  0
  9 10  1  0  0  0  0
  9 28  1  0  0  0  0
 10 11  2  0  0  0  0
 10 29  1  0  0  0  0
 11 12  1  0  0  0  0
 12 30  1  0  0  0  0
 13 14  1  0  0  0  0
 13 19  2  0  0  0  0
 14 15  1  0  0  0  0
 14 16  2  0  0  0  0
 15 31  1  0  0  0  0
 15 32  1  0  0  0  0
 16 17  1  0  0  0  0
 17 18  2  0  0  0  0
 17 33  1  0  0  0  0
 18 19  1  0  0  0  0
M  END
$$$$
