CHEMBL522629
 OpenBabel04072215383D

 42 45  0  0  0  0  0  0  0  0999 V2000
   -1.3175    0.3137   -2.0945 Cl  0  0  0  0  0  0  0  0  0  0  0  0
    0.3439   -0.1338   -2.0808 C   0  0  0  0  0  0  0  0  0  0  0  0
    1.2524    0.5660   -2.8722 C   0  0  0  0  0  0  0  0  0  0  0  0
    2.5999    0.2081   -2.8631 C   0  0  0  0  0  0  0  0  0  0  0  0
    3.0431   -0.8443   -2.0573 C   0  0  0  0  0  0  0  0  0  0  0  0
    2.1293   -1.5446   -1.2553 C   0  0  0  0  0  0  0  0  0  0  0  0
    2.5596   -2.6088   -0.4240 N   0  0  0  0  0  0  0  0  0  0  0  0
    3.8312   -3.0938   -0.2204 C   0  0  0  0  0  0  0  0  0  0  0  0
    3.6812   -4.1365    0.6618 C   0  0  0  0  0  0  0  0  0  0  0  0
    4.7017   -5.0058    1.2312 C   0  0  0  0  0  0  0  0  0  0  0  0
    4.4150   -5.5471    2.5044 C   0  0  0  0  0  0  0  0  0  0  0  0
    5.2718   -6.4530    3.1237 C   0  0  0  0  0  0  0  0  0  0  0  0
    6.4176   -6.8617    2.4637 C   0  0  0  0  0  0  0  0  0  0  0  0
    6.7303   -6.3216    1.2145 C   0  0  0  0  0  0  0  0  0  0  0  0
    5.9204   -5.3470    0.5919 C   0  0  0  0  0  0  0  0  0  0  0  0
    6.2905   -4.7790   -0.6525 N   0  0  0  0  0  0  0  0  0  0  0  0
    7.6929   -4.8901   -1.0503 C   0  0  0  0  0  0  0  0  0  0  0  0
    8.0772   -3.8466   -2.0691 C   0  0  0  0  0  0  0  0  0  0  0  0
    7.8961   -2.4840   -1.8100 C   0  0  0  0  0  0  0  0  0  0  0  0
    8.4013   -1.5607   -2.7126 C   0  0  0  0  0  0  0  0  0  0  0  0
    9.0631   -1.8966   -3.8402 N   0  0  0  0  0  0  0  0  0  0  0  0
    9.2295   -3.2145   -4.0743 C   0  0  0  0  0  0  0  0  0  0  0  0
    8.7614   -4.2124   -3.2332 C   0  0  0  0  0  0  0  0  0  0  0  0
    2.3528   -4.2490    0.9857 N   0  0  0  0  0  0  0  0  0  0  0  0
    1.6801   -3.3201    0.3242 N   0  0  0  0  0  0  0  0  0  0  0  0
    0.7716   -1.1885   -1.2756 C   0  0  0  0  0  0  0  0  0  0  0  0
    0.9163    1.3882   -3.4984 H   0  0  0  0  0  0  0  0  0  0  0  0
    3.3092    0.7523   -3.4848 H   0  0  0  0  0  0  0  0  0  0  0  0
    4.0988   -1.0942   -2.0827 H   0  0  0  0  0  0  0  0  0  0  0  0
    4.7036   -2.6705   -0.6905 H   0  0  0  0  0  0  0  0  0  0  0  0
    3.5036   -5.2583    3.0277 H   0  0  0  0  0  0  0  0  0  0  0  0
    5.0297   -6.8502    4.1055 H   0  0  0  0  0  0  0  0  0  0  0  0
    7.0748   -7.5997    2.9156 H   0  0  0  0  0  0  0  0  0  0  0  0
    7.6304   -6.6962    0.7361 H   0  0  0  0  0  0  0  0  0  0  0  0
    5.6650   -5.1275   -1.3798 H   0  0  0  0  0  0  0  0  0  0  0  0
    7.8785   -5.8936   -1.4514 H   0  0  0  0  0  0  0  0  0  0  0  0
    8.3614   -4.7340   -0.1936 H   0  0  0  0  0  0  0  0  0  0  0  0
    7.4006   -2.1483   -0.9044 H   0  0  0  0  0  0  0  0  0  0  0  0
    8.3013   -0.4931   -2.5381 H   0  0  0  0  0  0  0  0  0  0  0  0
    9.7836   -3.4586   -4.9765 H   0  0  0  0  0  0  0  0  0  0  0  0
    8.9586   -5.2520   -3.4727 H   0  0  0  0  0  0  0  0  0  0  0  0
    0.0411   -1.7184   -0.6666 H   0  0  0  0  0  0  0  0  0  0  0  0
  1  2  1  0  0  0  0
  2  3  1  0  0  0  0
  2 26  2  0  0  0  0
  3  4  2  0  0  0  0
  3 27  1  0  0  0  0
  4  5  1  0  0  0  0
  4 28  1  0  0  0  0
  5  6  2  0  0  0  0
  5 29  1  0  0  0  0
  6  7  1  0  0  0  0
  6 26  1  0  0  0  0
  7  8  1  0  0  0  0
  7 25  1  0  0  0  0
  8  9  2  0  0  0  0
  8 30  1  0  0  0  0
  9 10  1  0  0  0  0
  9 24  1  0  0  0  0
 10 11  1  0  0  0  0
 10 15  2  0  0  0  0
 11 12  2  0  0  0  0
 11 31  1  0  0  0  0
 12 13  1  0  0  0  0
 12 32  1  0  0  0  0
 13 14  2  0  0  0  0
 13 33  1  0  0  0  0
 14 15  1  0  0  0  0
 14 34  1  0  0  0  0
 15 16  1  0  0  0  0
 16 17  1  0  0  0  0
 16 35  1  0  0  0  0
 17 18  1  0  0  0  0
 17 36  1  0  0  0  0
 17 37  1  0  0  0  0
 18 19  1  0  0  0  0
 18 23  2  0  0  0  0
 19 20  2  0  0  0  0
 19 38  1  0  0  0  0
 20 21  1  0  0  0  0
 20 39  1  0  0  0  0
 21 22  2  0  0  0  0
 22 23  1  0  0  0  0
 22 40  1  0  0  0  0
 23 41  1  0  0  0  0
 24 25  2  0  0  0  0
 26 42  1  0  0  0  0
M  END
$$$$
