CHEMBL3288504
 OpenBabel04072215363D

 50 54  0  0  0  0  0  0  0  0999 V2000
   -5.2400   -5.0713    5.6771 C   0  0  0  0  0  0  0  0  0  0  0  0
   -4.2714   -4.6181    4.6224 C   0  0  0  0  0  0  0  0  0  0  0  0
   -2.9043   -4.8700    4.7904 C   0  0  0  0  0  0  0  0  0  0  0  0
   -2.0055   -4.4455    3.8242 C   0  0  0  0  0  0  0  0  0  0  0  0
   -2.4707   -3.7708    2.6952 C   0  0  0  0  0  0  0  0  0  0  0  0
   -3.8395   -3.5093    2.4879 C   0  0  0  0  0  0  0  0  0  0  0  0
   -4.3644   -2.7856    1.3778 N   0  0  0  0  0  0  0  0  0  0  0  0
   -3.5839   -2.2754    0.3640 C   0  0  0  0  0  0  0  0  0  0  0  0
   -2.3760   -2.4995    0.2712 O   0  0  0  0  0  0  0  0  0  0  0  0
   -4.1679   -1.4455   -0.7296 C   0  0  0  0  0  0  0  0  0  0  0  0
   -3.1418   -0.9202   -1.5770 C   0  0  0  0  0  0  0  0  0  0  0  0
   -3.4206   -0.0285   -2.5947 C   0  0  0  0  0  0  0  0  0  0  0  0
   -4.7205    0.0568   -2.9917 C   0  0  0  0  0  0  0  0  0  0  0  0
   -5.6451   -0.7808   -2.3729 C   0  0  0  0  0  0  0  0  0  0  0  0
   -6.8262   -1.0790   -2.9785 C   0  0  0  0  0  0  0  0  0  0  0  0
   -7.7442   -0.1466   -2.6277 C   0  0  0  0  0  0  0  0  0  0  0  0
   -8.1543    0.7287   -3.7636 C   0  0  0  0  0  0  0  0  0  0  0  0
   -7.6087    0.4103   -5.0708 C   0  0  0  0  0  0  0  0  0  0  0  0
   -7.8035    1.1390   -6.2341 C   0  0  0  0  0  0  0  0  0  0  0  0
   -8.6233    2.2422   -6.1980 C   0  0  0  0  0  0  0  0  0  0  0  0
   -9.1491    2.5978   -4.9495 C   0  0  0  0  0  0  0  0  0  0  0  0
   -9.9816    3.6370   -4.6375 N   0  0  0  0  0  0  0  0  0  0  0  0
  -10.2115    3.7787   -3.3291 N   0  0  0  0  0  0  0  0  0  0  0  0
   -9.5508    2.7635   -2.7789 C   0  0  0  0  0  0  0  0  0  0  0  0
   -9.4997    2.6084   -1.4465 N   0  0  0  0  0  0  0  0  0  0  0  0
   -8.9102    1.9242   -3.7386 C   0  0  0  0  0  0  0  0  0  0  0  0
   -7.9260   -0.2304   -1.2365 C   0  0  0  0  0  0  0  0  0  0  0  0
   -6.8654   -0.8719   -0.4350 C   0  0  0  0  0  0  0  0  0  0  0  0
   -5.5430   -1.1131   -1.0466 C   0  0  0  0  0  0  0  0  0  0  0  0
   -4.7320   -3.9507    3.4725 C   0  0  0  0  0  0  0  0  0  0  0  0
   -4.7181   -5.5115    6.5339 H   0  0  0  0  0  0  0  0  0  0  0  0
   -5.9198   -5.8258    5.2707 H   0  0  0  0  0  0  0  0  0  0  0  0
   -5.8135   -4.2162    6.0441 H   0  0  0  0  0  0  0  0  0  0  0  0
   -2.5306   -5.3871    5.6706 H   0  0  0  0  0  0  0  0  0  0  0  0
   -0.9381   -4.6282    3.9434 H   0  0  0  0  0  0  0  0  0  0  0  0
   -1.7042   -3.4604    1.9947 H   0  0  0  0  0  0  0  0  0  0  0  0
   -5.3632   -2.6438    1.3414 H   0  0  0  0  0  0  0  0  0  0  0  0
   -2.0930   -1.1653   -1.4208 H   0  0  0  0  0  0  0  0  0  0  0  0
   -2.6411    0.5043   -3.1233 H   0  0  0  0  0  0  0  0  0  0  0  0
   -5.0122    0.7060   -3.8121 H   0  0  0  0  0  0  0  0  0  0  0  0
   -7.1871   -2.1072   -2.7708 H   0  0  0  0  0  0  0  0  0  0  0  0
   -6.9457   -0.4492   -5.1946 H   0  0  0  0  0  0  0  0  0  0  0  0
   -7.3118    0.8285   -7.1532 H   0  0  0  0  0  0  0  0  0  0  0  0
   -8.8203    2.8105   -7.1005 H   0  0  0  0  0  0  0  0  0  0  0  0
  -10.4043    4.2911   -5.2820 H   0  0  0  0  0  0  0  0  0  0  0  0
   -9.9288    3.3636   -0.9223 H   0  0  0  0  0  0  0  0  0  0  0  0
   -8.6071    2.3360   -1.0512 H   0  0  0  0  0  0  0  0  0  0  0  0
   -8.7869    0.2062   -0.7487 H   0  0  0  0  0  0  0  0  0  0  0  0
   -7.0056   -0.9625    0.6421 H   0  0  0  0  0  0  0  0  0  0  0  0
   -5.8002   -3.7757    3.3583 H   0  0  0  0  0  0  0  0  0  0  0  0
  1  2  1  0  0  0  0
  1 31  1  0  0  0  0
  1 32  1  0  0  0  0
  1 33  1  0  0  0  0
  2  3  1  0  0  0  0
  2 30  2  0  0  0  0
  3  4  2  0  0  0  0
  3 34  1  0  0  0  0
  4  5  1  0  0  0  0
  4 35  1  0  0  0  0
  5  6  2  0  0  0  0
  5 36  1  0  0  0  0
  6  7  1  0  0  0  0
  6 30  1  0  0  0  0
  7  8  1  0  0  0  0
  7 37  1  0  0  0  0
  8  9  2  0  0  0  0
  8 10  1  0  0  0  0
 10 11  1  0  0  0  0
 10 29  2  0  0  0  0
 11 12  2  0  0  0  0
 11 38  1  0  0  0  0
 12 13  1  0  0  0  0
 12 39  1  0  0  0  0
 13 14  2  0  0  0  0
 13 40  1  0  0  0  0
 14 15  1  0  0  0  0
 14 29  1  0  0  0  0
 15 16  2  0  0  0  0
 15 41  1  0  0  0  0
 16 17  1  0  0  0  0
 16 27  1  0  0  0  0
 17 18  1  0  0  0  0
 17 26  2  0  0  0  0
 18 19  2  0  0  0  0
 18 42  1  0  0  0  0
 19 20  1  0  0  0  0
 19 43  1  0  0  0  0
 20 21  2  0  0  0  0
 20 44  1  0  0  0  0
 21 22  1  0  0  0  0
 21 26  1  0  0  0  0
 22 23  1  0  0  0  0
 22 45  1  0  0  0  0
 23 24  2  0  0  0  0
 24 25  1  0  0  0  0
 24 26  1  0  0  0  0
 25 46  1  0  0  0  0
 25 47  1  0  0  0  0
 27 28  2  0  0  0  0
 27 48  1  0  0  0  0
 28 29  1  0  0  0  0
 28 49  1  0  0  0  0
 30 50  1  0  0  0  0
M  END
$$$$
