CHEMBL3288519
 OpenBabel04072215363D

 47 51  0  0  0  0  0  0  0  0999 V2000
   -3.4817    3.0250    1.5172 N   0  0  0  0  0  0  0  0  0  0  0  0
   -3.2468    1.7128    1.3566 C   0  0  0  0  0  0  0  0  0  0  0  0
   -4.1415    0.8296    1.7877 N   0  0  0  0  0  0  0  0  0  0  0  0
   -3.6243   -0.3468    1.4346 N   0  0  0  0  0  0  0  0  0  0  0  0
   -2.4198   -0.2649    0.7905 C   0  0  0  0  0  0  0  0  0  0  0  0
   -1.6171   -1.2831    0.2716 C   0  0  0  0  0  0  0  0  0  0  0  0
   -0.4220   -0.9086   -0.3259 C   0  0  0  0  0  0  0  0  0  0  0  0
   -0.0461    0.4308   -0.3742 C   0  0  0  0  0  0  0  0  0  0  0  0
   -0.8484    1.4800    0.1523 C   0  0  0  0  0  0  0  0  0  0  0  0
   -0.3678    2.8814    0.0839 C   0  0  0  0  0  0  0  0  0  0  0  0
    0.4281    3.3382   -0.9751 C   0  0  0  0  0  0  0  0  0  0  0  0
    0.8928    4.6603   -1.0367 C   0  0  0  0  0  0  0  0  0  0  0  0
    0.4793    5.6399   -0.1031 C   0  0  0  0  0  0  0  0  0  0  0  0
    0.7916    7.0297   -0.1473 C   0  0  0  0  0  0  0  0  0  0  0  0
    1.6408    7.6972   -1.1796 C   0  0  0  0  0  0  0  0  0  0  0  0
    2.3990    8.5842   -0.7956 O   0  0  0  0  0  0  0  0  0  0  0  0
    1.4782    7.2883   -2.4914 N   0  0  0  0  0  0  0  0  0  0  0  0
    2.1804    7.7678   -3.6224 C   0  0  0  0  0  0  0  0  0  0  0  0
    3.0528    8.8595   -3.5903 C   0  0  0  0  0  0  0  0  0  0  0  0
    3.6634    9.3108   -4.7634 C   0  0  0  0  0  0  0  0  0  0  0  0
    4.7976   10.8243   -4.7032 Br  0  0  0  0  0  0  0  0  0  0  0  0
    3.4349    8.6727   -5.9774 C   0  0  0  0  0  0  0  0  0  0  0  0
    2.5922    7.5664   -6.0061 C   0  0  0  0  0  0  0  0  0  0  0  0
    2.2854    6.6716   -7.6441 Br  0  0  0  0  0  0  0  0  0  0  0  0
    1.9640    7.1135   -4.8421 C   0  0  0  0  0  0  0  0  0  0  0  0
    0.3218    7.8934    0.8663 C   0  0  0  0  0  0  0  0  0  0  0  0
   -0.4579    7.4117    1.9113 C   0  0  0  0  0  0  0  0  0  0  0  0
   -0.7580    6.0590    1.9696 C   0  0  0  0  0  0  0  0  0  0  0  0
   -0.2998    5.1728    0.9827 C   0  0  0  0  0  0  0  0  0  0  0  0
   -0.6296    3.8118    1.0947 C   0  0  0  0  0  0  0  0  0  0  0  0
   -2.0992    1.0978    0.7404 C   0  0  0  0  0  0  0  0  0  0  0  0
   -4.4072    3.2589    1.8605 H   0  0  0  0  0  0  0  0  0  0  0  0
   -3.1372    3.6826    0.8282 H   0  0  0  0  0  0  0  0  0  0  0  0
   -4.1450   -1.1855    1.6619 H   0  0  0  0  0  0  0  0  0  0  0  0
   -1.9084   -2.3265    0.3295 H   0  0  0  0  0  0  0  0  0  0  0  0
    0.2346   -1.6674   -0.7458 H   0  0  0  0  0  0  0  0  0  0  0  0
    0.9200    0.6571   -0.8224 H   0  0  0  0  0  0  0  0  0  0  0  0
    0.7169    2.6652   -1.7818 H   0  0  0  0  0  0  0  0  0  0  0  0
    1.5893    4.8923   -1.8357 H   0  0  0  0  0  0  0  0  0  0  0  0
    0.7652    6.5939   -2.6743 H   0  0  0  0  0  0  0  0  0  0  0  0
    3.2552    9.3955   -2.6690 H   0  0  0  0  0  0  0  0  0  0  0  0
    3.9059    9.0355   -6.8865 H   0  0  0  0  0  0  0  0  0  0  0  0
    1.3154    6.2430   -4.8935 H   0  0  0  0  0  0  0  0  0  0  0  0
    0.5650    8.9536    0.8352 H   0  0  0  0  0  0  0  0  0  0  0  0
   -0.8207    8.0897    2.6801 H   0  0  0  0  0  0  0  0  0  0  0  0
   -1.3714    5.6964    2.7929 H   0  0  0  0  0  0  0  0  0  0  0  0
   -1.1284    3.4739    2.0028 H   0  0  0  0  0  0  0  0  0  0  0  0
  1  2  1  0  0  0  0
  1 32  1  0  0  0  0
  1 33  1  0  0  0  0
  2  3  2  0  0  0  0
  2 31  1  0  0  0  0
  3  4  1  0  0  0  0
  4  5  1  0  0  0  0
  4 34  1  0  0  0  0
  5  6  1  0  0  0  0
  5 31  2  0  0  0  0
  6  7  2  0  0  0  0
  6 35  1  0  0  0  0
  7  8  1  0  0  0  0
  7 36  1  0  0  0  0
  8  9  2  0  0  0  0
  8 37  1  0  0  0  0
  9 10  1  0  0  0  0
  9 31  1  0  0  0  0
 10 11  1  0  0  0  0
 10 30  2  0  0  0  0
 11 12  2  0  0  0  0
 11 38  1  0  0  0  0
 12 13  1  0  0  0  0
 12 39  1  0  0  0  0
 13 14  1  0  0  0  0
 13 29  2  0  0  0  0
 14 15  1  0  0  0  0
 14 26  2  0  0  0  0
 15 16  2  0  0  0  0
 15 17  1  0  0  0  0
 17 18  1  0  0  0  0
 17 40  1  0  0  0  0
 18 19  1  0  0  0  0
 18 25  2  0  0  0  0
 19 20  2  0  0  0  0
 19 41  1  0  0  0  0
 20 21  1  0  0  0  0
 20 22  1  0  0  0  0
 22 23  2  0  0  0  0
 22 42  1  0  0  0  0
 23 24  1  0  0  0  0
 23 25  1  0  0  0  0
 25 43  1  0  0  0  0
 26 27  1  0  0  0  0
 26 44  1  0  0  0  0
 27 28  2  0  0  0  0
 27 45  1  0  0  0  0
 28 29  1  0  0  0  0
 28 46  1  0  0  0  0
 29 30  1  0  0  0  0
 30 47  1  0  0  0  0
M  END
$$$$
