CHEMBL2005800
 OpenBabel04072215363D

 38 40  0  0  0  0  0  0  0  0999 V2000
    2.7991    1.4510    0.8446 C   0  0  0  0  0  0  0  0  0  0  0  0
    3.4130    0.5821   -0.2414 C   0  0  0  0  0  0  0  0  0  0  0  0
    4.1388   -0.6358    0.3270 C   0  0  0  0  0  0  0  0  0  0  0  0
    4.8608   -1.6170   -0.9944 S   0  0  0  0  0  0  0  0  0  0  0  0
    3.7818   -2.1204   -1.8183 O   0  0  0  0  0  0  0  0  0  0  0  0
    5.9735   -0.8854   -1.5554 O   0  0  0  0  0  0  0  0  0  0  0  0
    5.4204   -2.9711   -0.1341 N   0  0  0  0  0  0  0  0  0  0  0  0
    6.8199   -3.2611   -0.2272 C   0  0  0  0  0  0  0  0  0  0  0  0
    7.6961   -2.6542    0.6865 C   0  0  0  0  0  0  0  0  0  0  0  0
    9.0710   -2.9089    0.6351 C   0  0  0  0  0  0  0  0  0  0  0  0
    9.5495   -3.7622   -0.3479 C   0  0  0  0  0  0  0  0  0  0  0  0
    8.6651   -4.3481   -1.2775 C   0  0  0  0  0  0  0  0  0  0  0  0
    7.3003   -4.1022   -1.2372 C   0  0  0  0  0  0  0  0  0  0  0  0
    9.4923   -5.1977   -2.1812 C   0  0  0  0  0  0  0  0  0  0  0  0
    9.1815   -5.9497   -3.1894 N   0  0  0  0  0  0  0  0  0  0  0  0
    7.8167   -5.9500   -3.4660 O   0  0  0  0  0  0  0  0  0  0  0  0
   10.8941   -5.0648   -1.7185 C   0  0  0  0  0  0  0  0  0  0  0  0
   12.0428   -5.6559   -2.2164 C   0  0  0  0  0  0  0  0  0  0  0  0
   13.2467   -5.3599   -1.5759 C   0  0  0  0  0  0  0  0  0  0  0  0
   13.2739   -4.4934   -0.4685 C   0  0  0  0  0  0  0  0  0  0  0  0
   12.0982   -3.9068    0.0179 C   0  0  0  0  0  0  0  0  0  0  0  0
   10.9016   -4.1997   -0.6173 C   0  0  0  0  0  0  0  0  0  0  0  0
    2.2880    2.3093    0.3949 H   0  0  0  0  0  0  0  0  0  0  0  0
    3.5658    1.8343    1.5249 H   0  0  0  0  0  0  0  0  0  0  0  0
    2.0636    0.8913    1.4308 H   0  0  0  0  0  0  0  0  0  0  0  0
    4.1082    1.1877   -0.8341 H   0  0  0  0  0  0  0  0  0  0  0  0
    2.6199    0.2563   -0.9248 H   0  0  0  0  0  0  0  0  0  0  0  0
    3.4405   -1.2783    0.8728 H   0  0  0  0  0  0  0  0  0  0  0  0
    4.9523   -0.3313    0.9929 H   0  0  0  0  0  0  0  0  0  0  0  0
    4.8283   -3.7637   -0.3971 H   0  0  0  0  0  0  0  0  0  0  0  0
    7.3069   -1.9901    1.4535 H   0  0  0  0  0  0  0  0  0  0  0  0
    9.7384   -2.4462    1.3540 H   0  0  0  0  0  0  0  0  0  0  0  0
    6.6289   -4.5445   -1.9617 H   0  0  0  0  0  0  0  0  0  0  0  0
    7.7690   -6.5175   -4.2581 H   0  0  0  0  0  0  0  0  0  0  0  0
   12.0042   -6.3235   -3.0710 H   0  0  0  0  0  0  0  0  0  0  0  0
   14.1735   -5.8037   -1.9346 H   0  0  0  0  0  0  0  0  0  0  0  0
   14.2231   -4.2757    0.0175 H   0  0  0  0  0  0  0  0  0  0  0  0
   12.1358   -3.2409    0.8737 H   0  0  0  0  0  0  0  0  0  0  0  0
  1  2  1  0  0  0  0
  1 23  1  0  0  0  0
  1 24  1  0  0  0  0
  1 25  1  0  0  0  0
  2  3  1  0  0  0  0
  2 26  1  0  0  0  0
  2 27  1  0  0  0  0
  3  4  1  0  0  0  0
  3 28  1  0  0  0  0
  3 29  1  0  0  0  0
  4  5  2  0  0  0  0
  4  6  2  0  0  0  0
  4  7  1  0  0  0  0
  7  8  1  0  0  0  0
  7 30  1  0  0  0  0
  8  9  1  0  0  0  0
  8 13  2  0  0  0  0
  9 10  2  0  0  0  0
  9 31  1  0  0  0  0
 10 11  1  0  0  0  0
 10 32  1  0  0  0  0
 11 12  2  0  0  0  0
 11 22  1  0  0  0  0
 12 13  1  0  0  0  0
 12 14  1  0  0  0  0
 13 33  1  0  0  0  0
 14 15  2  3  0  0  0
 14 17  1  0  0  0  0
 15 16  1  0  0  0  0
 16 34  1  0  0  0  0
 17 18  1  0  0  0  0
 17 22  2  0  0  0  0
 18 19  2  0  0  0  0
 18 35  1  0  0  0  0
 19 20  1  0  0  0  0
 19 36  1  0  0  0  0
 20 21  2  0  0  0  0
 20 37  1  0  0  0  0
 21 22  1  0  0  0  0
 21 38  1  0  0  0  0
M  END
$$$$
