CHEMBL3951451
 OpenBabel04072215373D

 51 55  0  0  0  0  0  0  0  0999 V2000
    2.9210    0.7099   -1.8204 C   0  0  0  0  0  0  0  0  0  0  0  0
    1.4928    0.4472   -1.4497 C   0  0  0  0  0  0  0  0  0  0  0  0
    0.9828   -0.8552   -1.5052 C   0  0  0  0  0  0  0  0  0  0  0  0
   -0.3304   -1.1059   -1.1333 C   0  0  0  0  0  0  0  0  0  0  0  0
   -1.1505   -0.0589   -0.7188 C   0  0  0  0  0  0  0  0  0  0  0  0
   -2.3545   -0.4035   -0.2504 F   0  0  0  0  0  0  0  0  0  0  0  0
   -0.6912    1.2711   -0.7048 C   0  0  0  0  0  0  0  0  0  0  0  0
   -1.4890    2.4034   -0.3803 N   0  0  0  0  0  0  0  0  0  0  0  0
   -2.8693    2.4419   -0.4638 C   0  0  0  0  0  0  0  0  0  0  0  0
   -3.5743    1.5227   -0.8499 O   0  0  0  0  0  0  0  0  0  0  0  0
   -3.3991    3.6758   -0.0871 N   0  0  0  0  0  0  0  0  0  0  0  0
   -4.8243    3.8108   -0.0575 C   0  0  0  0  0  0  0  0  0  0  0  0
   -5.5324    2.8783    0.6967 C   0  0  0  0  0  0  0  0  0  0  0  0
   -6.9160    2.8158    0.6231 C   0  0  0  0  0  0  0  0  0  0  0  0
   -7.6756    3.7649   -0.0788 C   0  0  0  0  0  0  0  0  0  0  0  0
   -9.1555    3.5691   -0.1341 C   0  0  0  0  0  0  0  0  0  0  0  0
   -9.8781    3.6832   -1.3372 C   0  0  0  0  0  0  0  0  0  0  0  0
  -11.2125    3.5202   -1.5160 N   0  0  0  0  0  0  0  0  0  0  0  0
  -11.9506    3.1234   -0.4682 C   0  0  0  0  0  0  0  0  0  0  0  0
  -11.3174    2.8884    0.7387 C   0  0  0  0  0  0  0  0  0  0  0  0
  -11.8180    2.3911    1.9065 N   0  0  0  0  0  0  0  0  0  0  0  0
  -10.9215    2.2946    2.8881 N   0  0  0  0  0  0  0  0  0  0  0  0
   -9.8039    2.7727    2.3479 C   0  0  0  0  0  0  0  0  0  0  0  0
   -8.6946    2.8568    3.0870 N   0  0  0  0  0  0  0  0  0  0  0  0
   -9.9549    3.1215    0.9609 C   0  0  0  0  0  0  0  0  0  0  0  0
   -6.9555    4.7842   -0.8066 C   0  0  0  0  0  0  0  0  0  0  0  0
   -7.5955    5.7925   -1.5754 C   0  0  0  0  0  0  0  0  0  0  0  0
   -6.9049    6.6355   -2.4480 C   0  0  0  0  0  0  0  0  0  0  0  0
   -5.5278    6.5674   -2.5168 C   0  0  0  0  0  0  0  0  0  0  0  0
   -4.8451    5.6781   -1.6899 C   0  0  0  0  0  0  0  0  0  0  0  0
   -5.5200    4.7765   -0.8274 C   0  0  0  0  0  0  0  0  0  0  0  0
    0.6505    1.5040   -1.0435 C   0  0  0  0  0  0  0  0  0  0  0  0
    3.4407   -0.2180   -2.0905 H   0  0  0  0  0  0  0  0  0  0  0  0
    3.4591    1.1534   -0.9751 H   0  0  0  0  0  0  0  0  0  0  0  0
    2.9729    1.3827   -2.6800 H   0  0  0  0  0  0  0  0  0  0  0  0
    1.6120   -1.6842   -1.8249 H   0  0  0  0  0  0  0  0  0  0  0  0
   -0.7308   -2.1141   -1.1479 H   0  0  0  0  0  0  0  0  0  0  0  0
   -1.0164    3.2824   -0.2549 H   0  0  0  0  0  0  0  0  0  0  0  0
   -2.8776    4.4633   -0.4280 H   0  0  0  0  0  0  0  0  0  0  0  0
   -5.0065    2.1331    1.2906 H   0  0  0  0  0  0  0  0  0  0  0  0
   -7.3941    1.9648    1.1053 H   0  0  0  0  0  0  0  0  0  0  0  0
   -9.3643    3.9119   -2.2695 H   0  0  0  0  0  0  0  0  0  0  0  0
  -13.0105    2.9746   -0.6349 H   0  0  0  0  0  0  0  0  0  0  0  0
  -12.7641    2.0784    2.0918 H   0  0  0  0  0  0  0  0  0  0  0  0
   -8.7005    2.4684    4.0221 H   0  0  0  0  0  0  0  0  0  0  0  0
   -7.8588    3.3561    2.8172 H   0  0  0  0  0  0  0  0  0  0  0  0
   -8.6742    5.9244   -1.5387 H   0  0  0  0  0  0  0  0  0  0  0  0
   -7.4530    7.3274   -3.0827 H   0  0  0  0  0  0  0  0  0  0  0  0
   -4.9819    7.2014   -3.2103 H   0  0  0  0  0  0  0  0  0  0  0  0
   -3.7633    5.6719   -1.7768 H   0  0  0  0  0  0  0  0  0  0  0  0
    1.0534    2.5131   -1.0216 H   0  0  0  0  0  0  0  0  0  0  0  0
  1  2  1  0  0  0  0
  1 33  1  0  0  0  0
  1 34  1  0  0  0  0
  1 35  1  0  0  0  0
  2  3  1  0  0  0  0
  2 32  2  0  0  0  0
  3  4  2  0  0  0  0
  3 36  1  0  0  0  0
  4  5  1  0  0  0  0
  4 37  1  0  0  0  0
  5  6  1  0  0  0  0
  5  7  2  0  0  0  0
  7  8  1  0  0  0  0
  7 32  1  0  0  0  0
  8  9  1  0  0  0  0
  8 38  1  0  0  0  0
  9 10  2  0  0  0  0
  9 11  1  0  0  0  0
 11 12  1  0  0  0  0
 11 39  1  0  0  0  0
 12 13  1  0  0  0  0
 12 31  2  0  0  0  0
 13 14  2  0  0  0  0
 13 40  1  0  0  0  0
 14 15  1  0  0  0  0
 14 41  1  0  0  0  0
 15 16  1  0  0  0  0
 15 26  2  0  0  0  0
 16 17  1  0  0  0  0
 16 25  2  0  0  0  0
 17 18  2  0  0  0  0
 17 42  1  0  0  0  0
 18 19  1  0  0  0  0
 19 20  2  0  0  0  0
 19 43  1  0  0  0  0
 20 21  1  0  0  0  0
 20 25  1  0  0  0  0
 21 22  1  0  0  0  0
 21 44  1  0  0  0  0
 22 23  2  0  0  0  0
 23 24  1  0  0  0  0
 23 25  1  0  0  0  0
 24 45  1  0  0  0  0
 24 46  1  0  0  0  0
 26 27  1  0  0  0  0
 26 31  1  0  0  0  0
 27 28  2  0  0  0  0
 27 47  1  0  0  0  0
 28 29  1  0  0  0  0
 28 48  1  0  0  0  0
 29 30  2  0  0  0  0
 29 49  1  0  0  0  0
 30 31  1  0  0  0  0
 30 50  1  0  0  0  0
 32 51  1  0  0  0  0
M  END
$$$$
