CHEMBL385956
 OpenBabel04072215373D

 51 54  0  0  0  0  0  0  0  0999 V2000
    2.4297    0.2546   -0.4924 C   0  0  0  0  0  0  0  0  0  0  0  0
    0.9524    0.1592   -0.2238 C   0  0  0  0  0  0  0  0  0  0  0  0
    0.2027    1.3526   -0.1872 C   0  0  0  0  0  0  0  0  0  0  0  0
   -1.1850    1.3275   -0.0370 C   0  0  0  0  0  0  0  0  0  0  0  0
   -1.8460    0.1045    0.0232 C   0  0  0  0  0  0  0  0  0  0  0  0
   -3.3290    0.0664    0.1215 C   0  0  0  0  0  0  0  0  0  0  0  0
   -3.9619    0.9880   -0.3821 O   0  0  0  0  0  0  0  0  0  0  0  0
   -3.8535   -1.0034    0.8414 N   0  0  0  0  0  0  0  0  0  0  0  0
   -5.2267   -1.2580    1.0463 C   0  0  0  0  0  0  0  0  0  0  0  0
   -6.2298   -0.6716    0.2735 C   0  0  0  0  0  0  0  0  0  0  0  0
   -7.5755   -0.9071    0.5496 C   0  0  0  0  0  0  0  0  0  0  0  0
   -7.9368   -1.7304    1.6117 C   0  0  0  0  0  0  0  0  0  0  0  0
   -6.9505   -2.3536    2.3892 C   0  0  0  0  0  0  0  0  0  0  0  0
   -7.3283   -3.2154    3.5662 C   0  0  0  0  0  0  0  0  0  0  0  0
   -8.6699   -3.2673    3.8009 F   0  0  0  0  0  0  0  0  0  0  0  0
   -6.9263   -4.5084    3.4159 F   0  0  0  0  0  0  0  0  0  0  0  0
   -6.7657   -2.7859    4.7305 F   0  0  0  0  0  0  0  0  0  0  0  0
   -5.5930   -2.1301    2.0797 C   0  0  0  0  0  0  0  0  0  0  0  0
   -1.1082   -1.0718   -0.0350 C   0  0  0  0  0  0  0  0  0  0  0  0
    0.2947   -1.0736   -0.0430 C   0  0  0  0  0  0  0  0  0  0  0  0
    0.9794   -2.3008    0.0874 N   0  0  0  0  0  0  0  0  0  0  0  0
    0.5420   -3.4433    0.8252 C   0  0  0  0  0  0  0  0  0  0  0  0
   -0.6199   -3.3503    1.5360 N   0  0  0  0  0  0  0  0  0  0  0  0
   -1.1494   -4.4524    2.0898 C   0  0  0  0  0  0  0  0  0  0  0  0
   -0.5630   -5.6910    2.0040 C   0  0  0  0  0  0  0  0  0  0  0  0
    0.6515   -5.7869    1.3331 C   0  0  0  0  0  0  0  0  0  0  0  0
    1.2422   -4.6640    0.7087 C   0  0  0  0  0  0  0  0  0  0  0  0
    2.5006   -4.7917   -0.0621 C   0  0  0  0  0  0  0  0  0  0  0  0
    2.8368   -5.9464   -0.7502 C   0  0  0  0  0  0  0  0  0  0  0  0
    3.9924   -5.9100   -1.4969 C   0  0  0  0  0  0  0  0  0  0  0  0
    4.7932   -4.8358   -1.5724 N   0  0  0  0  0  0  0  0  0  0  0  0
    4.4027   -3.7741   -0.8582 C   0  0  0  0  0  0  0  0  0  0  0  0
    3.2993   -3.6949   -0.0963 N   0  0  0  0  0  0  0  0  0  0  0  0
    2.7308    1.2893   -0.6952 H   0  0  0  0  0  0  0  0  0  0  0  0
    2.6840   -0.3269   -1.3852 H   0  0  0  0  0  0  0  0  0  0  0  0
    3.0125   -0.1021    0.3604 H   0  0  0  0  0  0  0  0  0  0  0  0
    0.6973    2.3180   -0.2802 H   0  0  0  0  0  0  0  0  0  0  0  0
   -1.7472    2.2569    0.0066 H   0  0  0  0  0  0  0  0  0  0  0  0
   -3.1983   -1.5624    1.3757 H   0  0  0  0  0  0  0  0  0  0  0  0
   -5.9890   -0.0262   -0.5673 H   0  0  0  0  0  0  0  0  0  0  0  0
   -8.3399   -0.4288   -0.0570 H   0  0  0  0  0  0  0  0  0  0  0  0
   -8.9923   -1.8778    1.8329 H   0  0  0  0  0  0  0  0  0  0  0  0
   -4.8281   -2.6134    2.6860 H   0  0  0  0  0  0  0  0  0  0  0  0
   -1.6329   -2.0210   -0.0797 H   0  0  0  0  0  0  0  0  0  0  0  0
    1.9949   -2.2363    0.1407 H   0  0  0  0  0  0  0  0  0  0  0  0
   -2.0969   -4.3067    2.6011 H   0  0  0  0  0  0  0  0  0  0  0  0
   -1.0390   -6.5592    2.4453 H   0  0  0  0  0  0  0  0  0  0  0  0
    1.1288   -6.7637    1.2923 H   0  0  0  0  0  0  0  0  0  0  0  0
    2.2199   -6.8346   -0.7458 H   0  0  0  0  0  0  0  0  0  0  0  0
    4.3060   -6.7683   -2.0841 H   0  0  0  0  0  0  0  0  0  0  0  0
    5.0307   -2.8912   -0.9087 H   0  0  0  0  0  0  0  0  0  0  0  0
  1  2  1  0  0  0  0
  1 34  1  0  0  0  0
  1 35  1  0  0  0  0
  1 36  1  0  0  0  0
  2  3  1  0  0  0  0
  2 20  2  0  0  0  0
  3  4  2  0  0  0  0
  3 37  1  0  0  0  0
  4  5  1  0  0  0  0
  4 38  1  0  0  0  0
  5  6  1  0  0  0  0
  5 19  2  0  0  0  0
  6  7  2  0  0  0  0
  6  8  1  0  0  0  0
  8  9  1  0  0  0  0
  8 39  1  0  0  0  0
  9 10  1  0  0  0  0
  9 18  2  0  0  0  0
 10 11  2  0  0  0  0
 10 40  1  0  0  0  0
 11 12  1  0  0  0  0
 11 41  1  0  0  0  0
 12 13  2  0  0  0  0
 12 42  1  0  0  0  0
 13 14  1  0  0  0  0
 13 18  1  0  0  0  0
 14 15  1  0  0  0  0
 14 16  1  0  0  0  0
 14 17  1  0  0  0  0
 18 43  1  0  0  0  0
 19 20  1  0  0  0  0
 19 44  1  0  0  0  0
 20 21  1  0  0  0  0
 21 22  1  0  0  0  0
 21 45  1  0  0  0  0
 22 23  1  0  0  0  0
 22 27  2  0  0  0  0
 23 24  2  0  0  0  0
 24 25  1  0  0  0  0
 24 46  1  0  0  0  0
 25 26  2  0  0  0  0
 25 47  1  0  0  0  0
 26 27  1  0  0  0  0
 26 48  1  0  0  0  0
 27 28  1  0  0  0  0
 28 29  1  0  0  0  0
 28 33  2  0  0  0  0
 29 30  2  0  0  0  0
 29 49  1  0  0  0  0
 30 31  1  0  0  0  0
 30 50  1  0  0  0  0
 31 32  2  0  0  0  0
 32 33  1  0  0  0  0
 32 51  1  0  0  0  0
M  END
$$$$
