CHEMBL1994159
 OpenBabel04072215363D

 29 31  0  0  0  0  0  0  0  0999 V2000
    1.1867   -0.6937   -0.0290 C   0  0  0  0  0  0  0  0  0  0  0  0
    2.4195    0.1683    0.0056 C   0  0  0  0  0  0  0  0  0  0  0  0
    2.7943    0.7886   -0.9861 O   0  0  0  0  0  0  0  0  0  0  0  0
    3.1976    0.2684    1.2763 C   0  0  0  0  0  0  0  0  0  0  0  0
    2.7644   -0.3108    2.4745 C   0  0  0  0  0  0  0  0  0  0  0  0
    3.5481   -0.2008    3.6262 C   0  0  0  0  0  0  0  0  0  0  0  0
    4.7630    0.4867    3.5868 C   0  0  0  0  0  0  0  0  0  0  0  0
    5.1969    1.0809    2.3963 C   0  0  0  0  0  0  0  0  0  0  0  0
    6.5223    1.7649    2.3601 C   0  0  0  0  0  0  0  0  0  0  0  0
    6.6420    2.9424    1.4423 C   0  0  0  0  0  0  0  0  0  0  0  0
    7.8389    3.5328    1.3375 C   0  0  0  0  0  0  0  0  0  0  0  0
    8.9173    3.0481    2.1050 C   0  0  0  0  0  0  0  0  0  0  0  0
   10.1722    3.4384    2.1866 N   0  0  0  0  0  0  0  0  0  0  0  0
   10.7486    2.5937    3.1021 C   0  0  0  0  0  0  0  0  0  0  0  0
    9.8345    1.6859    3.5821 C   0  0  0  0  0  0  0  0  0  0  0  0
    8.6600    1.9786    2.9457 N   0  0  0  0  0  0  0  0  0  0  0  0
    7.4843    1.3118    3.1112 N   0  0  0  0  0  0  0  0  0  0  0  0
    4.4139    0.9638    1.2425 C   0  0  0  0  0  0  0  0  0  0  0  0
    0.8078   -0.7336   -1.0554 H   0  0  0  0  0  0  0  0  0  0  0  0
    0.4097   -0.2642    0.6086 H   0  0  0  0  0  0  0  0  0  0  0  0
    1.4262   -1.7146    0.2791 H   0  0  0  0  0  0  0  0  0  0  0  0
    1.8281   -0.8575    2.5375 H   0  0  0  0  0  0  0  0  0  0  0  0
    3.2177   -0.6598    4.5558 H   0  0  0  0  0  0  0  0  0  0  0  0
    5.3721    0.5515    4.4868 H   0  0  0  0  0  0  0  0  0  0  0  0
    5.7857    3.3098    0.8915 H   0  0  0  0  0  0  0  0  0  0  0  0
    8.0026    4.3852    0.6875 H   0  0  0  0  0  0  0  0  0  0  0  0
   11.7947    2.6834    3.3662 H   0  0  0  0  0  0  0  0  0  0  0  0
    9.9054    0.8770    4.2924 H   0  0  0  0  0  0  0  0  0  0  0  0
    4.7557    1.3765    0.2959 H   0  0  0  0  0  0  0  0  0  0  0  0
  1  2  1  0  0  0  0
  1 19  1  0  0  0  0
  1 20  1  0  0  0  0
  1 21  1  0  0  0  0
  2  3  2  0  0  0  0
  2  4  1  0  0  0  0
  4  5  1  0  0  0  0
  4 18  2  0  0  0  0
  5  6  2  0  0  0  0
  5 22  1  0  0  0  0
  6  7  1  0  0  0  0
  6 23  1  0  0  0  0
  7  8  2  0  0  0  0
  7 24  1  0  0  0  0
  8  9  1  0  0  0  0
  8 18  1  0  0  0  0
  9 10  1  0  0  0  0
  9 17  2  0  0  0  0
 10 11  2  0  0  0  0
 10 25  1  0  0  0  0
 11 12  1  0  0  0  0
 11 26  1  0  0  0  0
 12 13  2  0  0  0  0
 12 16  1  0  0  0  0
 13 14  1  0  0  0  0
 14 15  2  0  0  0  0
 14 27  1  0  0  0  0
 15 16  1  0  0  0  0
 15 28  1  0  0  0  0
 16 17  1  0  0  0  0
 18 29  1  0  0  0  0
M  END
$$$$
