CHEMBL233455
 OpenBabel04072215363D

 51 54  0  0  0  0  0  0  0  0999 V2000
    1.4955   -3.4013   -5.4814 N   0  0  0  0  0  0  0  0  0  0  0  0
    1.8565   -2.7321   -4.6048 C   0  0  0  0  0  0  0  0  0  0  0  0
    2.3225   -1.9407   -3.5171 C   0  0  0  0  0  0  0  0  0  0  0  0
    2.4769   -2.5369   -2.2817 C   0  0  0  0  0  0  0  0  0  0  0  0
    2.8451   -1.8851   -1.1596 N   0  0  0  0  0  0  0  0  0  0  0  0
    3.1245   -0.5860   -1.2924 C   0  0  0  0  0  0  0  0  0  0  0  0
    3.4857    0.1098   -0.1437 N   0  0  0  0  0  0  0  0  0  0  0  0
    4.3124    1.2352   -0.0378 C   0  0  0  0  0  0  0  0  0  0  0  0
    4.1427    2.1260    1.0279 C   0  0  0  0  0  0  0  0  0  0  0  0
    4.8618    3.3266    1.0786 C   0  0  0  0  0  0  0  0  0  0  0  0
    5.7814    3.6474    0.0741 C   0  0  0  0  0  0  0  0  0  0  0  0
    6.4696    4.9904    0.0194 C   0  0  0  0  0  0  0  0  0  0  0  0
    7.3341    5.3143    1.2479 C   0  0  0  0  0  0  0  0  0  0  0  0
    8.0336    6.6062    1.1119 N   0  0  0  0  0  0  0  0  0  0  0  0
    8.8949    6.8804    2.2736 C   0  0  0  0  0  0  0  0  0  0  0  0
    8.1208    7.8700    3.1214 C   0  0  0  0  0  0  0  0  0  0  0  0
    7.4638    8.7386    2.0723 C   0  0  0  0  0  0  0  0  0  0  0  0
    7.1049    7.7464    0.9791 C   0  0  0  0  0  0  0  0  0  0  0  0
    5.9850    2.7397   -0.9689 C   0  0  0  0  0  0  0  0  0  0  0  0
    5.2502    1.5576   -1.0251 C   0  0  0  0  0  0  0  0  0  0  0  0
    3.0198    0.0696   -2.4610 N   0  0  0  0  0  0  0  0  0  0  0  0
    2.6058   -0.5882   -3.5737 C   0  0  0  0  0  0  0  0  0  0  0  0
    2.4529    0.2937   -4.7624 C   0  0  0  0  0  0  0  0  0  0  0  0
    2.7061   -0.1308   -6.0784 C   0  0  0  0  0  0  0  0  0  0  0  0
    2.4972    0.7145   -7.1752 C   0  0  0  0  0  0  0  0  0  0  0  0
    2.0644    2.0221   -6.9819 C   0  0  0  0  0  0  0  0  0  0  0  0
    1.8483    2.4882   -5.6910 C   0  0  0  0  0  0  0  0  0  0  0  0
    2.0403    1.6351   -4.5991 C   0  0  0  0  0  0  0  0  0  0  0  0
    2.2927   -3.6006   -2.1421 H   0  0  0  0  0  0  0  0  0  0  0  0
    3.3413   -0.4338    0.6934 H   0  0  0  0  0  0  0  0  0  0  0  0
    3.4020    1.9206    1.7967 H   0  0  0  0  0  0  0  0  0  0  0  0
    4.6589    4.0264    1.8858 H   0  0  0  0  0  0  0  0  0  0  0  0
    5.6810    5.7382   -0.1234 H   0  0  0  0  0  0  0  0  0  0  0  0
    7.1019    5.0455   -0.8765 H   0  0  0  0  0  0  0  0  0  0  0  0
    8.0840    4.5183    1.3526 H   0  0  0  0  0  0  0  0  0  0  0  0
    6.7276    5.2996    2.1623 H   0  0  0  0  0  0  0  0  0  0  0  0
    9.8166    7.3522    1.9104 H   0  0  0  0  0  0  0  0  0  0  0  0
    9.1904    5.9880    2.8356 H   0  0  0  0  0  0  0  0  0  0  0  0
    8.7615    8.4444    3.7953 H   0  0  0  0  0  0  0  0  0  0  0  0
    7.3597    7.3522    3.7179 H   0  0  0  0  0  0  0  0  0  0  0  0
    8.1760    9.4807    1.6931 H   0  0  0  0  0  0  0  0  0  0  0  0
    6.5865    9.2658    2.4584 H   0  0  0  0  0  0  0  0  0  0  0  0
    7.2000    8.1997   -0.0133 H   0  0  0  0  0  0  0  0  0  0  0  0
    6.0573    7.4550    1.1140 H   0  0  0  0  0  0  0  0  0  0  0  0
    6.6874    2.9590   -1.7696 H   0  0  0  0  0  0  0  0  0  0  0  0
    5.4179    0.8896   -1.8662 H   0  0  0  0  0  0  0  0  0  0  0  0
    3.0826   -1.1285   -6.2898 H   0  0  0  0  0  0  0  0  0  0  0  0
    2.6774    0.3460   -8.1824 H   0  0  0  0  0  0  0  0  0  0  0  0
    1.9056    2.6767   -7.8344 H   0  0  0  0  0  0  0  0  0  0  0  0
    1.5309    3.5158   -5.5280 H   0  0  0  0  0  0  0  0  0  0  0  0
    1.8620    2.0311   -3.5993 H   0  0  0  0  0  0  0  0  0  0  0  0
  1  2  3  0  0  0  0
  2  3  1  0  0  0  0
  3  4  1  0  0  0  0
  3 22  2  0  0  0  0
  4  5  2  0  0  0  0
  4 29  1  0  0  0  0
  5  6  1  0  0  0  0
  6  7  1  0  0  0  0
  6 21  2  0  0  0  0
  7  8  1  0  0  0  0
  7 30  1  0  0  0  0
  8  9  1  0  0  0  0
  8 20  2  0  0  0  0
  9 10  2  0  0  0  0
  9 31  1  0  0  0  0
 10 11  1  0  0  0  0
 10 32  1  0  0  0  0
 11 12  1  0  0  0  0
 11 19  2  0  0  0  0
 12 13  1  0  0  0  0
 12 33  1  0  0  0  0
 12 34  1  0  0  0  0
 13 14  1  0  0  0  0
 13 35  1  0  0  0  0
 13 36  1  0  0  0  0
 14 15  1  0  0  0  0
 14 18  1  0  0  0  0
 15 16  1  0  0  0  0
 15 37  1  0  0  0  0
 15 38  1  0  0  0  0
 16 17  1  0  0  0  0
 16 39  1  0  0  0  0
 16 40  1  0  0  0  0
 17 18  1  0  0  0  0
 17 41  1  0  0  0  0
 17 42  1  0  0  0  0
 18 43  1  0  0  0  0
 18 44  1  0  0  0  0
 19 20  1  0  0  0  0
 19 45  1  0  0  0  0
 20 46  1  0  0  0  0
 21 22  1  0  0  0  0
 22 23  1  0  0  0  0
 23 24  1  0  0  0  0
 23 28  2  0  0  0  0
 24 25  2  0  0  0  0
 24 47  1  0  0  0  0
 25 26  1  0  0  0  0
 25 48  1  0  0  0  0
 26 27  2  0  0  0  0
 26 49  1  0  0  0  0
 27 28  1  0  0  0  0
 27 50  1  0  0  0  0
 28 51  1  0  0  0  0
M  END
$$$$
