CHEMBL3671544
 OpenBabel04072215373D

 64 66  0  0  1  0  0  0  0  0999 V2000
    2.2979    0.1484   -2.2585 C   0  0  0  0  0  0  0  0  0  0  0  0
    2.9357    0.1725   -1.0745 C   0  0  0  0  0  0  0  0  0  0  0  0
    3.6060    1.4128   -0.5842 C   0  0  0  0  0  0  0  0  0  0  0  0
    3.3607    2.5113   -1.0701 O   0  0  0  0  0  0  0  0  0  0  0  0
    4.5053    1.1526    0.4264 N   0  0  0  0  0  0  0  0  0  0  0  0
    5.2454    2.2088    0.9864 C   0  0  0  0  0  0  0  0  0  0  0  0
    6.4138    2.6119    0.3454 C   0  0  0  0  0  0  0  0  0  0  0  0
    7.0972    3.7812    0.7594 C   0  0  0  0  0  0  0  0  0  0  0  0
    8.2378    4.3134    0.1259 C   0  0  0  0  0  0  0  0  0  0  0  0
    8.7108    3.7043   -1.0569 N   0  0  0  0  0  0  0  0  0  0  0  0
   10.0259    3.6994   -1.5621 C   0  0  0  0  0  0  0  0  0  0  0  0
   11.1338    3.7241   -0.7111 C   0  0  0  0  0  0  0  0  0  0  0  0
   12.4198    3.4830   -1.1997 C   0  0  0  0  0  0  0  0  0  0  0  0
   12.6089    3.2438   -2.5607 C   0  0  0  0  0  0  0  0  0  0  0  0
   14.3255    2.7705   -3.1917 Br  0  0  0  0  0  0  0  0  0  0  0  0
   11.5365    3.3055   -3.4433 C   0  0  0  0  0  0  0  0  0  0  0  0
   10.2574    3.5285   -2.9363 C   0  0  0  0  0  0  0  0  0  0  0  0
    9.2211    3.5514   -3.7891 F   0  0  0  0  0  0  0  0  0  0  0  0
    8.8817    5.3988    0.6039 N   0  0  0  0  0  0  0  0  0  0  0  0
    8.3619    5.9759    1.6887 C   0  0  0  0  0  0  0  0  0  0  0  0
    7.2723    5.5729    2.3504 N   0  0  0  0  0  0  0  0  0  0  0  0
    6.6524    4.4885    1.8819 C   0  0  0  0  0  0  0  0  0  0  0  0
    5.5215    4.0339    2.5422 C   0  0  0  0  0  0  0  0  0  0  0  0
    4.8149    2.8984    2.1277 C   0  0  0  0  0  0  0  0  0  0  0  0
    3.7634    2.5933    2.9444 O   0  0  0  0  0  0  0  0  0  0  0  0
    3.4450    1.2187    3.1477 C   0  0  0  0  0  0  0  0  0  0  0  0
    4.6030    0.3785    3.7011 C   0  0  0  0  0  0  0  0  0  0  0  0
    4.2415   -1.0152    3.8045 N   0  0  0  0  0  0  0  0  0  0  0  0
    4.2949   -1.8795    2.7405 C   0  0  0  0  0  0  0  0  0  0  0  0
    4.6340   -1.5206    1.6127 O   0  0  0  0  0  0  0  0  0  0  0  0
    3.7785   -3.2835    3.0649 C   0  0  3  0  0  0  0  0  0  0  0  0
    3.9728   -4.1957    1.8457 C   0  0  0  0  0  0  0  0  0  0  0  0
    4.4692   -3.9029    4.2997 C   0  0  0  0  0  0  0  0  0  0  0  0
    4.2871   -3.1995    5.5968 N   0  0  0  0  0  0  0  0  0  0  0  0
    2.8886   -3.1460    6.0402 C   0  0  0  0  0  0  0  0  0  0  0  0
    5.0926   -3.8807    6.6220 C   0  0  0  0  0  0  0  0  0  0  0  0
    1.7759   -0.7351   -2.5884 H   0  0  0  0  0  0  0  0  0  0  0  0
    2.2862    1.0175   -2.9125 H   0  0  0  0  0  0  0  0  0  0  0  0
    2.9271   -0.6906   -0.4201 H   0  0  0  0  0  0  0  0  0  0  0  0
    4.9340    0.2262    0.4219 H   0  0  0  0  0  0  0  0  0  0  0  0
    6.7771    2.0370   -0.5040 H   0  0  0  0  0  0  0  0  0  0  0  0
    7.9964    3.6572   -1.7783 H   0  0  0  0  0  0  0  0  0  0  0  0
   10.9992    3.8748    0.3589 H   0  0  0  0  0  0  0  0  0  0  0  0
   13.2527    3.4480   -0.5038 H   0  0  0  0  0  0  0  0  0  0  0  0
   11.6686    3.1477   -4.5075 H   0  0  0  0  0  0  0  0  0  0  0  0
    8.8710    6.8536    2.0665 H   0  0  0  0  0  0  0  0  0  0  0  0
    5.1790    4.5776    3.4193 H   0  0  0  0  0  0  0  0  0  0  0  0
    2.9846    0.7839    2.2563 H   0  0  0  0  0  0  0  0  0  0  0  0
    2.6434    1.2026    3.8978 H   0  0  0  0  0  0  0  0  0  0  0  0
    4.8759    0.7271    4.7032 H   0  0  0  0  0  0  0  0  0  0  0  0
    5.5053    0.4497    3.0869 H   0  0  0  0  0  0  0  0  0  0  0  0
    4.1605   -1.4304    4.7324 H   0  0  0  0  0  0  0  0  0  0  0  0
    2.6991   -3.1976    3.2404 H   0  0  0  0  0  0  0  0  0  0  0  0
    5.0349   -4.4051    1.6727 H   0  0  0  0  0  0  0  0  0  0  0  0
    3.5773   -3.7333    0.9346 H   0  0  0  0  0  0  0  0  0  0  0  0
    3.4543   -5.1499    1.9832 H   0  0  0  0  0  0  0  0  0  0  0  0
    5.5474   -3.9252    4.0866 H   0  0  0  0  0  0  0  0  0  0  0  0
    4.1464   -4.9477    4.4045 H   0  0  0  0  0  0  0  0  0  0  0  0
    2.3243   -2.4144    5.4510 H   0  0  0  0  0  0  0  0  0  0  0  0
    2.8252   -2.8016    7.0783 H   0  0  0  0  0  0  0  0  0  0  0  0
    2.3858   -4.1156    5.9651 H   0  0  0  0  0  0  0  0  0  0  0  0
    6.1498   -3.8971    6.3351 H   0  0  0  0  0  0  0  0  0  0  0  0
    4.7612   -4.9127    6.7858 H   0  0  0  0  0  0  0  0  0  0  0  0
    5.0380   -3.3440    7.5759 H   0  0  0  0  0  0  0  0  0  0  0  0
  1  2  2  0  0  0  0
  1 37  1  0  0  0  0
  1 38  1  0  0  0  0
  2  3  1  0  0  0  0
  2 39  1  0  0  0  0
  3  4  2  0  0  0  0
  3  5  1  0  0  0  0
  5  6  1  0  0  0  0
  5 40  1  0  0  0  0
  6  7  1  0  0  0  0
  6 24  2  0  0  0  0
  7  8  2  0  0  0  0
  7 41  1  0  0  0  0
  8  9  1  0  0  0  0
  8 22  1  0  0  0  0
  9 10  1  0  0  0  0
  9 19  2  0  0  0  0
 10 11  1  0  0  0  0
 10 42  1  0  0  0  0
 11 12  1  0  0  0  0
 11 17  2  0  0  0  0
 12 13  2  0  0  0  0
 12 43  1  0  0  0  0
 13 14  1  0  0  0  0
 13 44  1  0  0  0  0
 14 15  1  0  0  0  0
 14 16  2  0  0  0  0
 16 17  1  0  0  0  0
 16 45  1  0  0  0  0
 17 18  1  0  0  0  0
 19 20  1  0  0  0  0
 20 21  2  0  0  0  0
 20 46  1  0  0  0  0
 21 22  1  0  0  0  0
 22 23  2  0  0  0  0
 23 24  1  0  0  0  0
 23 47  1  0  0  0  0
 24 25  1  0  0  0  0
 25 26  1  0  0  0  0
 26 27  1  0  0  0  0
 26 48  1  0  0  0  0
 26 49  1  0  0  0  0
 27 28  1  0  0  0  0
 27 50  1  0  0  0  0
 27 51  1  0  0  0  0
 28 29  1  0  0  0  0
 28 52  1  0  0  0  0
 29 30  2  0  0  0  0
 29 31  1  0  0  0  0
 31 32  1  0  0  0  0
 31 33  1  0  0  0  0
 31 53  1  0  0  0  0
 32 54  1  0  0  0  0
 32 55  1  0  0  0  0
 32 56  1  0  0  0  0
 33 34  1  0  0  0  0
 33 57  1  0  0  0  0
 33 58  1  0  0  0  0
 34 35  1  0  0  0  0
 34 36  1  0  0  0  0
 35 59  1  0  0  0  0
 35 60  1  0  0  0  0
 35 61  1  0  0  0  0
 36 62  1  0  0  0  0
 36 63  1  0  0  0  0
 36 64  1  0  0  0  0
M  END
$$$$
