CHEMBL493315
 OpenBabel04072215383D

 52 55  0  0  0  0  0  0  0  0999 V2000
    2.5337    0.1672   -0.0768 C   0  0  0  0  0  0  0  0  0  0  0  0
    1.0305    0.1065   -0.0574 C   0  0  0  0  0  0  0  0  0  0  0  0
    0.3397    1.3239    0.0408 C   0  0  0  0  0  0  0  0  0  0  0  0
   -1.0531    1.3684    0.0480 C   0  0  0  0  0  0  0  0  0  0  0  0
   -1.8010    0.1998   -0.0228 C   0  0  0  0  0  0  0  0  0  0  0  0
   -3.2183    0.1791   -0.0482 N   0  0  0  0  0  0  0  0  0  0  0  0
   -4.0679    1.2768   -0.0181 C   0  0  0  0  0  0  0  0  0  0  0  0
   -3.6865    2.4403    0.0886 O   0  0  0  0  0  0  0  0  0  0  0  0
   -5.4996    0.9975   -0.1257 C   0  0  0  0  0  0  0  0  0  0  0  0
   -6.4944    1.9560   -0.1129 C   0  0  0  0  0  0  0  0  0  0  0  0
   -7.7950    1.4037   -0.2517 C   0  0  0  0  0  0  0  0  0  0  0  0
   -7.7889    0.0232   -0.3681 C   0  0  0  0  0  0  0  0  0  0  0  0
   -8.8684   -0.8979   -0.5277 C   0  0  0  0  0  0  0  0  0  0  0  0
  -10.1437   -0.4844   -0.6069 C   0  0  0  0  0  0  0  0  0  0  0  0
  -11.2439   -1.4635   -0.7723 C   0  0  0  0  0  0  0  0  0  0  0  0
  -11.0670   -2.6744   -0.8568 O   0  0  0  0  0  0  0  0  0  0  0  0
  -12.4812   -0.8808   -0.8191 N   0  0  0  0  0  0  0  0  0  0  0  0
  -13.5888   -1.7488   -0.9589 O   0  0  0  0  0  0  0  0  0  0  0  0
   -6.1629   -0.5658   -0.2958 S   0  0  0  0  0  0  0  0  0  0  0  0
   -1.1134   -1.0215   -0.0926 C   0  0  0  0  0  0  0  0  0  0  0  0
    0.3016   -1.1015   -0.1181 C   0  0  0  0  0  0  0  0  0  0  0  0
    0.9765   -2.3355   -0.2929 N   0  0  0  0  0  0  0  0  0  0  0  0
    0.4699   -3.4826   -0.8129 C   0  0  0  0  0  0  0  0  0  0  0  0
   -0.6953   -3.6085   -1.4087 N   0  0  0  0  0  0  0  0  0  0  0  0
   -0.9151   -4.9081   -1.7947 C   0  0  0  0  0  0  0  0  0  0  0  0
    0.0882   -5.8128   -1.5073 C   0  0  0  0  0  0  0  0  0  0  0  0
    0.1155   -7.2560   -1.7746 C   0  0  0  0  0  0  0  0  0  0  0  0
   -0.5891   -7.7900   -2.8635 C   0  0  0  0  0  0  0  0  0  0  0  0
   -0.6248   -9.1672   -3.0797 C   0  0  0  0  0  0  0  0  0  0  0  0
    0.0542   -9.9855   -2.1962 C   0  0  0  0  0  0  0  0  0  0  0  0
    0.7506   -9.5218   -1.1379 N   0  0  0  0  0  0  0  0  0  0  0  0
    0.7630   -8.1756   -0.9518 C   0  0  0  0  0  0  0  0  0  0  0  0
    1.3818   -4.9568   -0.7597 S   0  0  0  0  0  0  0  0  0  0  0  0
    2.8843    1.1927   -0.2472 H   0  0  0  0  0  0  0  0  0  0  0  0
    2.9436   -0.4428   -0.8866 H   0  0  0  0  0  0  0  0  0  0  0  0
    2.9371   -0.1662    0.8839 H   0  0  0  0  0  0  0  0  0  0  0  0
    0.8820    2.2660    0.0930 H   0  0  0  0  0  0  0  0  0  0  0  0
   -1.5112    2.3489    0.1016 H   0  0  0  0  0  0  0  0  0  0  0  0
   -3.6591   -0.7296   -0.1327 H   0  0  0  0  0  0  0  0  0  0  0  0
   -6.2855    3.0162   -0.0128 H   0  0  0  0  0  0  0  0  0  0  0  0
   -8.6900    2.0130   -0.2666 H   0  0  0  0  0  0  0  0  0  0  0  0
   -8.6416   -1.9615   -0.5875 H   0  0  0  0  0  0  0  0  0  0  0  0
  -10.4250    0.5591   -0.5535 H   0  0  0  0  0  0  0  0  0  0  0  0
  -12.6811    0.1070   -0.7337 H   0  0  0  0  0  0  0  0  0  0  0  0
  -13.1628   -2.6308   -0.9918 H   0  0  0  0  0  0  0  0  0  0  0  0
   -1.6939   -1.9393   -0.1172 H   0  0  0  0  0  0  0  0  0  0  0  0
    1.9405   -2.3432    0.0149 H   0  0  0  0  0  0  0  0  0  0  0  0
   -1.8544   -5.1489   -2.2757 H   0  0  0  0  0  0  0  0  0  0  0  0
   -1.1210   -7.1432   -3.5572 H   0  0  0  0  0  0  0  0  0  0  0  0
   -1.1739   -9.5877   -3.9152 H   0  0  0  0  0  0  0  0  0  0  0  0
    0.0530  -11.0653   -2.3184 H   0  0  0  0  0  0  0  0  0  0  0  0
    1.3138   -7.8641   -0.0686 H   0  0  0  0  0  0  0  0  0  0  0  0
  1  2  1  0  0  0  0
  1 34  1  0  0  0  0
  1 35  1  0  0  0  0
  1 36  1  0  0  0  0
  2  3  1  0  0  0  0
  2 21  2  0  0  0  0
  3  4  2  0  0  0  0
  3 37  1  0  0  0  0
  4  5  1  0  0  0  0
  4 38  1  0  0  0  0
  5  6  1  0  0  0  0
  5 20  2  0  0  0  0
  6  7  1  0  0  0  0
  6 39  1  0  0  0  0
  7  8  2  0  0  0  0
  7  9  1  0  0  0  0
  9 10  2  0  0  0  0
  9 19  1  0  0  0  0
 10 11  1  0  0  0  0
 10 40  1  0  0  0  0
 11 12  2  0  0  0  0
 11 41  1  0  0  0  0
 12 13  1  0  0  0  0
 12 19  1  0  0  0  0
 13 14  2  0  0  0  0
 13 42  1  0  0  0  0
 14 15  1  0  0  0  0
 14 43  1  0  0  0  0
 15 16  2  0  0  0  0
 15 17  1  0  0  0  0
 17 18  1  0  0  0  0
 17 44  1  0  0  0  0
 18 45  1  0  0  0  0
 20 21  1  0  0  0  0
 20 46  1  0  0  0  0
 21 22  1  0  0  0  0
 22 23  1  0  0  0  0
 22 47  1  0  0  0  0
 23 24  2  0  0  0  0
 23 33  1  0  0  0  0
 24 25  1  0  0  0  0
 25 26  2  0  0  0  0
 25 48  1  0  0  0  0
 26 27  1  0  0  0  0
 26 33  1  0  0  0  0
 27 28  1  0  0  0  0
 27 32  2  0  0  0  0
 28 29  2  0  0  0  0
 28 49  1  0  0  0  0
 29 30  1  0  0  0  0
 29 50  1  0  0  0  0
 30 31  2  0  0  0  0
 30 51  1  0  0  0  0
 31 32  1  0  0  0  0
 32 52  1  0  0  0  0
M  END
$$$$
