CHEMBL452088
 OpenBabel04072215383D

 61 65  0  0  0  0  0  0  0  0999 V2000
   10.6227    2.0415   -0.9984 C   0  0  0  0  0  0  0  0  0  0  0  0
    9.7135    2.8618   -1.7418 O   0  0  0  0  0  0  0  0  0  0  0  0
    8.8466    3.6190   -1.0013 C   0  0  0  0  0  0  0  0  0  0  0  0
    9.1954    4.0843    0.2751 C   0  0  0  0  0  0  0  0  0  0  0  0
    8.3102    4.7607    1.1028 C   0  0  0  0  0  0  0  0  0  0  0  0
    8.7251    5.0825    2.3330 N   0  0  0  0  0  0  0  0  0  0  0  0
    7.8680    5.7151    3.1556 C   0  0  0  0  0  0  0  0  0  0  0  0
    6.5746    6.0450    2.8090 C   0  0  0  0  0  0  0  0  0  0  0  0
    6.1289    5.6727    1.5395 C   0  0  0  0  0  0  0  0  0  0  0  0
    4.8207    5.9283    1.1425 O   0  0  0  0  0  0  0  0  0  0  0  0
    3.7977    5.7216    2.0531 C   0  0  0  0  0  0  0  0  0  0  0  0
    2.7026    6.5845    1.9820 C   0  0  0  0  0  0  0  0  0  0  0  0
    1.6012    6.4585    2.8611 C   0  0  0  0  0  0  0  0  0  0  0  0
    1.6143    5.4333    3.8293 C   0  0  0  0  0  0  0  0  0  0  0  0
    0.7454    4.9526    4.8633 C   0  0  0  0  0  0  0  0  0  0  0  0
   -0.5206    5.4224    5.1645 N   0  0  0  0  0  0  0  0  0  0  0  0
   -1.4142    4.8769    6.0581 C   0  0  0  0  0  0  0  0  0  0  0  0
   -2.5741    5.2861    6.0732 O   0  0  0  0  0  0  0  0  0  0  0  0
   -0.9152    3.9261    6.9079 N   0  0  0  0  0  0  0  0  0  0  0  0
   -1.6360    3.1939    7.8662 C   0  0  0  0  0  0  0  0  0  0  0  0
   -2.8787    2.6343    7.5584 C   0  0  0  0  0  0  0  0  0  0  0  0
   -3.5475    1.8391    8.4975 C   0  0  0  0  0  0  0  0  0  0  0  0
   -3.0033    1.6248    9.7731 C   0  0  0  0  0  0  0  0  0  0  0  0
   -3.7276    0.8039   10.8122 C   0  0  0  0  0  0  0  0  0  0  0  0
   -4.9082    0.2853   10.3754 F   0  0  0  0  0  0  0  0  0  0  0  0
   -2.9897   -0.2576   11.2408 F   0  0  0  0  0  0  0  0  0  0  0  0
   -4.0251    1.5256   11.9277 F   0  0  0  0  0  0  0  0  0  0  0  0
   -1.7583    2.1955   10.0807 C   0  0  0  0  0  0  0  0  0  0  0  0
   -1.0697    2.9491    9.1260 C   0  0  0  0  0  0  0  0  0  0  0  0
    0.4563    3.6323    9.5707 Cl  0  0  0  0  0  0  0  0  0  0  0  0
    1.3045    3.9360    5.5259 N   0  0  0  0  0  0  0  0  0  0  0  0
    2.4287    3.6693    4.8512 N   0  0  0  0  0  0  0  0  0  0  0  0
    3.1817    2.4849    5.1831 C   0  0  0  0  0  0  0  0  0  0  0  0
    2.7083    4.5676    3.8566 C   0  0  0  0  0  0  0  0  0  0  0  0
    3.7958    4.6689    2.9732 C   0  0  0  0  0  0  0  0  0  0  0  0
    7.0166    5.0465    0.6279 C   0  0  0  0  0  0  0  0  0  0  0  0
    6.6964    4.6819   -0.6986 C   0  0  0  0  0  0  0  0  0  0  0  0
    7.5900    3.9614   -1.5146 C   0  0  0  0  0  0  0  0  0  0  0  0
    7.0526    3.6833   -2.7428 O   0  0  0  0  0  0  0  0  0  0  0  0
    7.7247    2.8084   -3.6354 C   0  0  0  0  0  0  0  0  0  0  0  0
   10.7867    1.1162   -1.5597 H   0  0  0  0  0  0  0  0  0  0  0  0
   10.2420    1.7480   -0.0122 H   0  0  0  0  0  0  0  0  0  0  0  0
   11.5839    2.5561   -0.8963 H   0  0  0  0  0  0  0  0  0  0  0  0
   10.1943    3.9129    0.6722 H   0  0  0  0  0  0  0  0  0  0  0  0
    8.2557    5.9419    4.1444 H   0  0  0  0  0  0  0  0  0  0  0  0
    5.9373    6.5554    3.5150 H   0  0  0  0  0  0  0  0  0  0  0  0
    2.6952    7.3807    1.2408 H   0  0  0  0  0  0  0  0  0  0  0  0
    0.7659    7.1502    2.7831 H   0  0  0  0  0  0  0  0  0  0  0  0
   -0.8977    6.1626    4.5928 H   0  0  0  0  0  0  0  0  0  0  0  0
    0.0974    3.9678    7.0153 H   0  0  0  0  0  0  0  0  0  0  0  0
   -3.3129    2.7686    6.5698 H   0  0  0  0  0  0  0  0  0  0  0  0
   -4.4992    1.3847    8.2225 H   0  0  0  0  0  0  0  0  0  0  0  0
   -1.3284    2.0538   11.0713 H   0  0  0  0  0  0  0  0  0  0  0  0
    2.6907    1.9594    6.0064 H   0  0  0  0  0  0  0  0  0  0  0  0
    4.1887    2.7860    5.4788 H   0  0  0  0  0  0  0  0  0  0  0  0
    3.2084    1.8432    4.2995 H   0  0  0  0  0  0  0  0  0  0  0  0
    4.6126    3.9561    3.0182 H   0  0  0  0  0  0  0  0  0  0  0  0
    5.7209    4.9415   -1.1091 H   0  0  0  0  0  0  0  0  0  0  0  0
    6.9949    2.5051   -4.3948 H   0  0  0  0  0  0  0  0  0  0  0  0
    8.0642    1.8897   -3.1506 H   0  0  0  0  0  0  0  0  0  0  0  0
    8.5390    3.3265   -4.1512 H   0  0  0  0  0  0  0  0  0  0  0  0
  1  2  1  0  0  0  0
  1 41  1  0  0  0  0
  1 42  1  0  0  0  0
  1 43  1  0  0  0  0
  2  3  1  0  0  0  0
  3  4  1  0  0  0  0
  3 38  2  0  0  0  0
  4  5  2  0  0  0  0
  4 44  1  0  0  0  0
  5  6  1  0  0  0  0
  5 36  1  0  0  0  0
  6  7  2  0  0  0  0
  7  8  1  0  0  0  0
  7 45  1  0  0  0  0
  8  9  2  0  0  0  0
  8 46  1  0  0  0  0
  9 10  1  0  0  0  0
  9 36  1  0  0  0  0
 10 11  1  0  0  0  0
 11 12  1  0  0  0  0
 11 35  2  0  0  0  0
 12 13  2  0  0  0  0
 12 47  1  0  0  0  0
 13 14  1  0  0  0  0
 13 48  1  0  0  0  0
 14 15  1  0  0  0  0
 14 34  2  0  0  0  0
 15 16  1  0  0  0  0
 15 31  2  0  0  0  0
 16 17  1  0  0  0  0
 16 49  1  0  0  0  0
 17 18  2  0  0  0  0
 17 19  1  0  0  0  0
 19 20  1  0  0  0  0
 19 50  1  0  0  0  0
 20 21  1  0  0  0  0
 20 29  2  0  0  0  0
 21 22  2  0  0  0  0
 21 51  1  0  0  0  0
 22 23  1  0  0  0  0
 22 52  1  0  0  0  0
 23 24  1  0  0  0  0
 23 28  2  0  0  0  0
 24 25  1  0  0  0  0
 24 26  1  0  0  0  0
 24 27  1  0  0  0  0
 28 29  1  0  0  0  0
 28 53  1  0  0  0  0
 29 30  1  0  0  0  0
 31 32  1  0  0  0  0
 32 33  1  0  0  0  0
 32 34  1  0  0  0  0
 33 54  1  0  0  0  0
 33 55  1  0  0  0  0
 33 56  1  0  0  0  0
 34 35  1  0  0  0  0
 35 57  1  0  0  0  0
 36 37  2  0  0  0  0
 37 38  1  0  0  0  0
 37 58  1  0  0  0  0
 38 39  1  0  0  0  0
 39 40  1  0  0  0  0
 40 59  1  0  0  0  0
 40 60  1  0  0  0  0
 40 61  1  0  0  0  0
M  END
$$$$
