CHEMBL3690398
 OpenBabel04072215373D

 45 48  0  0  0  0  0  0  0  0999 V2000
    2.5083    0.7690    1.2881 O   0  0  0  0  0  0  0  0  0  0  0  0
    2.2262   -0.1334    0.5119 C   0  0  0  0  0  0  0  0  0  0  0  0
    0.9281   -0.3243    0.0869 N   0  0  0  0  0  0  0  0  0  0  0  0
   -0.1374    0.4731    0.7055 C   0  0  0  0  0  0  0  0  0  0  0  0
   -0.6570   -0.0675    2.0450 C   0  0  0  0  0  0  0  0  0  0  0  0
   -0.0792   -1.2483    2.3698 F   0  0  0  0  0  0  0  0  0  0  0  0
   -0.4569    0.7929    3.0633 F   0  0  0  0  0  0  0  0  0  0  0  0
   -1.9915   -0.2981    1.9634 F   0  0  0  0  0  0  0  0  0  0  0  0
    3.0852   -1.0466   -0.0597 N   0  0  0  0  0  0  0  0  0  0  0  0
    4.4850   -1.1222    0.1168 C   0  0  0  0  0  0  0  0  0  0  0  0
    5.1965   -0.2426    0.9323 C   0  0  0  0  0  0  0  0  0  0  0  0
    6.5848   -0.3013    0.9910 C   0  0  0  0  0  0  0  0  0  0  0  0
    7.2717   -1.2601    0.2537 C   0  0  0  0  0  0  0  0  0  0  0  0
    6.5864   -2.2333   -0.4817 C   0  0  0  0  0  0  0  0  0  0  0  0
    7.3077   -3.3330   -1.1432 C   0  0  0  0  0  0  0  0  0  0  0  0
    7.0408   -3.9883   -2.3345 C   0  0  0  0  0  0  0  0  0  0  0  0
    7.9741   -4.9522   -2.6204 N   0  0  0  0  0  0  0  0  0  0  0  0
    8.8230   -4.9181   -1.6168 C   0  0  0  0  0  0  0  0  0  0  0  0
   10.0000   -5.6869   -1.3673 C   0  0  0  0  0  0  0  0  0  0  0  0
   10.7193   -5.5232   -0.2288 C   0  0  0  0  0  0  0  0  0  0  0  0
   11.9220   -6.3720    0.0005 C   0  0  0  0  0  0  0  0  0  0  0  0
   12.3218   -6.7038    1.2834 C   0  0  0  0  0  0  0  0  0  0  0  0
   13.4501   -7.4835    1.3936 C   0  0  0  0  0  0  0  0  0  0  0  0
   14.1501   -7.9221    0.3357 N   0  0  0  0  0  0  0  0  0  0  0  0
   13.6775   -7.5568   -0.8645 C   0  0  0  0  0  0  0  0  0  0  0  0
   12.5923   -6.8008   -1.0898 N   0  0  0  0  0  0  0  0  0  0  0  0
   10.2766   -4.5172    0.7449 C   0  0  0  0  0  0  0  0  0  0  0  0
    9.1569   -3.8120    0.5298 C   0  0  0  0  0  0  0  0  0  0  0  0
    8.4437   -3.9808   -0.6592 N   0  0  0  0  0  0  0  0  0  0  0  0
    5.1863   -2.1277   -0.5738 C   0  0  0  0  0  0  0  0  0  0  0  0
    0.6828   -1.2734   -0.1595 H   0  0  0  0  0  0  0  0  0  0  0  0
   -0.9546    0.5083   -0.0210 H   0  0  0  0  0  0  0  0  0  0  0  0
    0.2185    1.5018    0.8420 H   0  0  0  0  0  0  0  0  0  0  0  0
    2.6843   -1.6716   -0.7419 H   0  0  0  0  0  0  0  0  0  0  0  0
    4.7053    0.5258    1.5197 H   0  0  0  0  0  0  0  0  0  0  0  0
    7.1299    0.4093    1.6066 H   0  0  0  0  0  0  0  0  0  0  0  0
    8.3575   -1.2285    0.2735 H   0  0  0  0  0  0  0  0  0  0  0  0
    6.2214   -3.8074   -3.0180 H   0  0  0  0  0  0  0  0  0  0  0  0
   10.2800   -6.4167   -2.1211 H   0  0  0  0  0  0  0  0  0  0  0  0
   11.7873   -6.3899    2.1690 H   0  0  0  0  0  0  0  0  0  0  0  0
   13.8298   -7.7849    2.3640 H   0  0  0  0  0  0  0  0  0  0  0  0
   14.2253   -7.9038   -1.7333 H   0  0  0  0  0  0  0  0  0  0  0  0
   10.8611   -4.3395    1.6413 H   0  0  0  0  0  0  0  0  0  0  0  0
    8.7992   -3.0998    1.2547 H   0  0  0  0  0  0  0  0  0  0  0  0
    4.6366   -2.8449   -1.1788 H   0  0  0  0  0  0  0  0  0  0  0  0
  1  2  2  0  0  0  0
  2  3  1  0  0  0  0
  2  9  1  0  0  0  0
  3  4  1  0  0  0  0
  3 31  1  0  0  0  0
  4  5  1  0  0  0  0
  4 32  1  0  0  0  0
  4 33  1  0  0  0  0
  5  6  1  0  0  0  0
  5  7  1  0  0  0  0
  5  8  1  0  0  0  0
  9 10  1  0  0  0  0
  9 34  1  0  0  0  0
 10 11  1  0  0  0  0
 10 30  2  0  0  0  0
 11 12  2  0  0  0  0
 11 35  1  0  0  0  0
 12 13  1  0  0  0  0
 12 36  1  0  0  0  0
 13 14  2  0  0  0  0
 13 37  1  0  0  0  0
 14 15  1  0  0  0  0
 14 30  1  0  0  0  0
 15 16  2  0  0  0  0
 15 29  1  0  0  0  0
 16 17  1  0  0  0  0
 16 38  1  0  0  0  0
 17 18  2  0  0  0  0
 18 19  1  0  0  0  0
 18 29  1  0  0  0  0
 19 20  2  0  0  0  0
 19 39  1  0  0  0  0
 20 21  1  0  0  0  0
 20 27  1  0  0  0  0
 21 22  1  0  0  0  0
 21 26  2  0  0  0  0
 22 23  2  0  0  0  0
 22 40  1  0  0  0  0
 23 24  1  0  0  0  0
 23 41  1  0  0  0  0
 24 25  2  0  0  0  0
 25 26  1  0  0  0  0
 25 42  1  0  0  0  0
 27 28  2  0  0  0  0
 27 43  1  0  0  0  0
 28 29  1  0  0  0  0
 28 44  1  0  0  0  0
 30 45  1  0  0  0  0
M  END
$$$$
