CHEMBL3656114
 OpenBabel04072215373D

 59 62  0  0  0  0  0  0  0  0999 V2000
   -0.2856    2.2453    3.4325 C   0  0  0  0  0  0  0  0  0  0  0  0
    1.0328    1.5039    3.3158 C   0  0  0  0  0  0  0  0  0  0  0  0
    2.1511    2.3651    3.6180 N   0  0  0  0  0  0  0  0  0  0  0  0
    2.7763    3.0868    2.6292 C   0  0  0  0  0  0  0  0  0  0  0  0
    2.4533    3.0086    1.4469 O   0  0  0  0  0  0  0  0  0  0  0  0
    3.8515    3.9661    3.0718 C   0  0  0  0  0  0  0  0  0  0  0  0
    4.3832    4.1779    4.3320 C   0  0  0  0  0  0  0  0  0  0  0  0
    5.3911    5.1134    4.2269 N   0  0  0  0  0  0  0  0  0  0  0  0
    5.5129    5.5344    2.9255 C   0  0  0  0  0  0  0  0  0  0  0  0
    6.4482    6.5665    2.4817 C   0  0  0  0  0  0  0  0  0  0  0  0
    6.4981    6.9283    1.1401 C   0  0  0  0  0  0  0  0  0  0  0  0
    7.3131    7.9837    0.7485 C   0  0  0  0  0  0  0  0  0  0  0  0
    7.3909    8.4549   -0.5530 O   0  0  0  0  0  0  0  0  0  0  0  0
    6.2768    8.3706   -1.3678 C   0  0  0  0  0  0  0  0  0  0  0  0
    4.9776    8.4994   -0.8910 C   0  0  0  0  0  0  0  0  0  0  0  0
    3.8905    8.2861   -1.7317 C   0  0  0  0  0  0  0  0  0  0  0  0
    4.0540    8.0141   -3.0945 C   0  0  0  0  0  0  0  0  0  0  0  0
    2.9523    7.7396   -3.9543 N   0  0  0  0  0  0  0  0  0  0  0  0
    1.6219    7.7116   -3.5661 C   0  0  0  0  0  0  0  0  0  0  0  0
    1.2091    7.9668   -2.4336 O   0  0  0  0  0  0  0  0  0  0  0  0
    0.7576    7.3370   -4.5874 N   0  0  0  0  0  0  0  0  0  0  0  0
   -0.6372    7.2498   -4.3168 C   0  0  0  0  0  0  0  0  0  0  0  0
   -1.3116    6.0612   -4.5937 C   0  0  0  0  0  0  0  0  0  0  0  0
   -2.6732    5.9452   -4.2983 C   0  0  0  0  0  0  0  0  0  0  0  0
   -3.3736    7.0223   -3.7561 C   0  0  0  0  0  0  0  0  0  0  0  0
   -2.7155    8.2238   -3.4724 C   0  0  0  0  0  0  0  0  0  0  0  0
   -3.4613    9.3750   -2.8665 C   0  0  0  0  0  0  0  0  0  0  0  0
   -1.3412    8.3283   -3.7567 C   0  0  0  0  0  0  0  0  0  0  0  0
    5.3630    8.0059   -3.5994 C   0  0  0  0  0  0  0  0  0  0  0  0
    6.4687    8.1801   -2.7384 C   0  0  0  0  0  0  0  0  0  0  0  0
    8.1366    8.5764    1.7000 C   0  0  0  0  0  0  0  0  0  0  0  0
    8.0425    8.1286    3.0157 C   0  0  0  0  0  0  0  0  0  0  0  0
    7.2034    7.1474    3.4357 N   0  0  0  0  0  0  0  0  0  0  0  0
    4.5883    4.8121    2.1974 C   0  0  0  0  0  0  0  0  0  0  0  0
   -1.1217    1.5698    3.2290 H   0  0  0  0  0  0  0  0  0  0  0  0
   -0.3353    3.0772    2.7221 H   0  0  0  0  0  0  0  0  0  0  0  0
   -0.4124    2.6589    4.4388 H   0  0  0  0  0  0  0  0  0  0  0  0
    1.1410    1.0998    2.3034 H   0  0  0  0  0  0  0  0  0  0  0  0
    1.0668    0.6669    4.0206 H   0  0  0  0  0  0  0  0  0  0  0  0
    2.3698    2.5730    4.5805 H   0  0  0  0  0  0  0  0  0  0  0  0
    4.1473    3.7544    5.2962 H   0  0  0  0  0  0  0  0  0  0  0  0
    5.9674    5.4616    4.9854 H   0  0  0  0  0  0  0  0  0  0  0  0
    5.8767    6.4139    0.4204 H   0  0  0  0  0  0  0  0  0  0  0  0
    4.7709    8.7135    0.1536 H   0  0  0  0  0  0  0  0  0  0  0  0
    2.9163    8.3254   -1.2609 H   0  0  0  0  0  0  0  0  0  0  0  0
    3.1623    7.5620   -4.9279 H   0  0  0  0  0  0  0  0  0  0  0  0
    1.1292    6.6366   -5.2101 H   0  0  0  0  0  0  0  0  0  0  0  0
   -0.7793    5.1913   -4.9672 H   0  0  0  0  0  0  0  0  0  0  0  0
   -3.1893    5.0052   -4.4754 H   0  0  0  0  0  0  0  0  0  0  0  0
   -4.4348    6.9153   -3.5407 H   0  0  0  0  0  0  0  0  0  0  0  0
   -4.5016    9.1131   -2.6441 H   0  0  0  0  0  0  0  0  0  0  0  0
   -3.4709   10.2260   -3.5621 H   0  0  0  0  0  0  0  0  0  0  0  0
   -2.9888    9.6844   -1.9288 H   0  0  0  0  0  0  0  0  0  0  0  0
   -0.8204    9.2552   -3.5320 H   0  0  0  0  0  0  0  0  0  0  0  0
    5.5514    7.8524   -4.6596 H   0  0  0  0  0  0  0  0  0  0  0  0
    7.4773    8.1506   -3.1425 H   0  0  0  0  0  0  0  0  0  0  0  0
    8.8178    9.3684    1.4310 H   0  0  0  0  0  0  0  0  0  0  0  0
    8.6604    8.5695    3.7928 H   0  0  0  0  0  0  0  0  0  0  0  0
    4.4148    4.8839    1.1293 H   0  0  0  0  0  0  0  0  0  0  0  0
  1  2  1  0  0  0  0
  1 35  1  0  0  0  0
  1 36  1  0  0  0  0
  1 37  1  0  0  0  0
  2  3  1  0  0  0  0
  2 38  1  0  0  0  0
  2 39  1  0  0  0  0
  3  4  1  0  0  0  0
  3 40  1  0  0  0  0
  4  5  2  0  0  0  0
  4  6  1  0  0  0  0
  6  7  2  0  0  0  0
  6 34  1  0  0  0  0
  7  8  1  0  0  0  0
  7 41  1  0  0  0  0
  8  9  1  0  0  0  0
  8 42  1  0  0  0  0
  9 10  1  0  0  0  0
  9 34  2  0  0  0  0
 10 11  1  0  0  0  0
 10 33  2  0  0  0  0
 11 12  2  0  0  0  0
 11 43  1  0  0  0  0
 12 13  1  0  0  0  0
 12 31  1  0  0  0  0
 13 14  1  0  0  0  0
 14 15  1  0  0  0  0
 14 30  2  0  0  0  0
 15 16  2  0  0  0  0
 15 44  1  0  0  0  0
 16 17  1  0  0  0  0
 16 45  1  0  0  0  0
 17 18  1  0  0  0  0
 17 29  2  0  0  0  0
 18 19  1  0  0  0  0
 18 46  1  0  0  0  0
 19 20  2  0  0  0  0
 19 21  1  0  0  0  0
 21 22  1  0  0  0  0
 21 47  1  0  0  0  0
 22 23  1  0  0  0  0
 22 28  2  0  0  0  0
 23 24  2  0  0  0  0
 23 48  1  0  0  0  0
 24 25  1  0  0  0  0
 24 49  1  0  0  0  0
 25 26  2  0  0  0  0
 25 50  1  0  0  0  0
 26 27  1  0  0  0  0
 26 28  1  0  0  0  0
 27 51  1  0  0  0  0
 27 52  1  0  0  0  0
 27 53  1  0  0  0  0
 28 54  1  0  0  0  0
 29 30  1  0  0  0  0
 29 55  1  0  0  0  0
 30 56  1  0  0  0  0
 31 32  2  0  0  0  0
 31 57  1  0  0  0  0
 32 33  1  0  0  0  0
 32 58  1  0  0  0  0
 34 59  1  0  0  0  0
M  END
$$$$
