CHEMBL3896803
 OpenBabel04072215373D

 40 43  0  0  0  0  0  0  0  0999 V2000
    6.9396    3.0579   -1.9853 C   0  0  0  0  0  0  0  0  0  0  0  0
    6.3056    1.9561   -1.3525 O   0  0  0  0  0  0  0  0  0  0  0  0
    5.0904    2.1811   -0.7606 C   0  0  0  0  0  0  0  0  0  0  0  0
    4.4484    3.4234   -0.6957 C   0  0  0  0  0  0  0  0  0  0  0  0
    3.1829    3.5785   -0.0920 C   0  0  0  0  0  0  0  0  0  0  0  0
    2.5014    4.8959   -0.0592 C   0  0  0  0  0  0  0  0  0  0  0  0
    1.6778    5.2582    1.0214 C   0  0  0  0  0  0  0  0  0  0  0  0
    0.9990    6.4848    1.0695 C   0  0  0  0  0  0  0  0  0  0  0  0
    1.1744    7.4120    0.0272 C   0  0  0  0  0  0  0  0  0  0  0  0
    0.7153    8.7329   -0.2842 C   0  0  0  0  0  0  0  0  0  0  0  0
   -0.1413    9.6161    0.5143 C   0  0  0  0  0  0  0  0  0  0  0  0
   -0.1237    9.5766    1.9154 C   0  0  0  0  0  0  0  0  0  0  0  0
   -0.9373   10.4273    2.6663 C   0  0  0  0  0  0  0  0  0  0  0  0
   -1.7646   11.3420    2.0232 C   0  0  0  0  0  0  0  0  0  0  0  0
   -1.7852   11.4062    0.6320 C   0  0  0  0  0  0  0  0  0  0  0  0
   -0.9801   10.5465   -0.1192 C   0  0  0  0  0  0  0  0  0  0  0  0
    1.1879    9.1325   -1.4787 N   0  0  0  0  0  0  0  0  0  0  0  0
    1.9518    8.1134   -1.8933 N   0  0  0  0  0  0  0  0  0  0  0  0
    1.9854    7.0493   -1.0383 C   0  0  0  0  0  0  0  0  0  0  0  0
    2.6479    5.8166   -1.1181 C   0  0  0  0  0  0  0  0  0  0  0  0
    2.5891    2.4344    0.4705 C   0  0  0  0  0  0  0  0  0  0  0  0
    3.2240    1.1910    0.4345 C   0  0  0  0  0  0  0  0  0  0  0  0
    4.4635    1.0699   -0.1854 C   0  0  0  0  0  0  0  0  0  0  0  0
    5.0796   -0.1514   -0.2370 O   0  0  0  0  0  0  0  0  0  0  0  0
    7.8834    2.7035   -2.4111 H   0  0  0  0  0  0  0  0  0  0  0  0
    7.1776    3.8446   -1.2620 H   0  0  0  0  0  0  0  0  0  0  0  0
    6.3298    3.4482   -2.8073 H   0  0  0  0  0  0  0  0  0  0  0  0
    4.9338    4.3011   -1.1083 H   0  0  0  0  0  0  0  0  0  0  0  0
    1.5492    4.5841    1.8665 H   0  0  0  0  0  0  0  0  0  0  0  0
    0.3503    6.6994    1.9130 H   0  0  0  0  0  0  0  0  0  0  0  0
    0.5433    8.9031    2.4467 H   0  0  0  0  0  0  0  0  0  0  0  0
   -0.9122   10.3825    3.7501 H   0  0  0  0  0  0  0  0  0  0  0  0
   -2.3877   12.0167    2.6072 H   0  0  0  0  0  0  0  0  0  0  0  0
   -2.4215   12.1277    0.1269 H   0  0  0  0  0  0  0  0  0  0  0  0
   -1.0011   10.6095   -1.2056 H   0  0  0  0  0  0  0  0  0  0  0  0
    2.4314    8.2071   -2.7803 H   0  0  0  0  0  0  0  0  0  0  0  0
    3.2502    5.5823   -1.9903 H   0  0  0  0  0  0  0  0  0  0  0  0
    1.6086    2.4913    0.9370 H   0  0  0  0  0  0  0  0  0  0  0  0
    2.7333    0.3345    0.8865 H   0  0  0  0  0  0  0  0  0  0  0  0
    4.5091   -0.8118    0.1857 H   0  0  0  0  0  0  0  0  0  0  0  0
  1  2  1  0  0  0  0
  1 25  1  0  0  0  0
  1 26  1  0  0  0  0
  1 27  1  0  0  0  0
  2  3  1  0  0  0  0
  3  4  1  0  0  0  0
  3 23  2  0  0  0  0
  4  5  2  0  0  0  0
  4 28  1  0  0  0  0
  5  6  1  0  0  0  0
  5 21  1  0  0  0  0
  6  7  1  0  0  0  0
  6 20  2  0  0  0  0
  7  8  2  0  0  0  0
  7 29  1  0  0  0  0
  8  9  1  0  0  0  0
  8 30  1  0  0  0  0
  9 10  1  0  0  0  0
  9 19  2  0  0  0  0
 10 11  1  0  0  0  0
 10 17  2  0  0  0  0
 11 12  1  0  0  0  0
 11 16  2  0  0  0  0
 12 13  2  0  0  0  0
 12 31  1  0  0  0  0
 13 14  1  0  0  0  0
 13 32  1  0  0  0  0
 14 15  2  0  0  0  0
 14 33  1  0  0  0  0
 15 16  1  0  0  0  0
 15 34  1  0  0  0  0
 16 35  1  0  0  0  0
 17 18  1  0  0  0  0
 18 19  1  0  0  0  0
 18 36  1  0  0  0  0
 19 20  1  0  0  0  0
 20 37  1  0  0  0  0
 21 22  2  0  0  0  0
 21 38  1  0  0  0  0
 22 23  1  0  0  0  0
 22 39  1  0  0  0  0
 23 24  1  0  0  0  0
 24 40  1  0  0  0  0
M  END
$$$$
