CHEMBL4174261
 OpenBabel04072215383D

 43 46  0  0  0  0  0  0  0  0999 V2000
    1.1862   -0.5614   -0.2586 O   0  0  0  0  0  0  0  0  0  0  0  0
    2.2711   -0.0352   -0.0474 C   0  0  0  0  0  0  0  0  0  0  0  0
    2.8387    0.1137    1.2134 N   0  0  0  0  0  0  0  0  0  0  0  0
    2.2657   -0.3025    2.4397 C   0  0  0  0  0  0  0  0  0  0  0  0
    1.1206   -1.0892    2.5386 C   0  0  0  0  0  0  0  0  0  0  0  0
    0.5845   -1.4096    3.7857 C   0  0  0  0  0  0  0  0  0  0  0  0
    1.1989   -0.9658    4.9565 C   0  0  0  0  0  0  0  0  0  0  0  0
    2.3837   -0.2182    4.9090 C   0  0  0  0  0  0  0  0  0  0  0  0
    3.1261    0.1680    6.1364 C   0  0  0  0  0  0  0  0  0  0  0  0
    3.9850    1.2895    6.1259 C   0  0  0  0  0  0  0  0  0  0  0  0
    4.9042    1.5094    7.1444 C   0  0  0  0  0  0  0  0  0  0  0  0
    4.8538    0.6797    8.2492 C   0  0  0  0  0  0  0  0  0  0  0  0
    5.7710    0.8150    9.3694 C   0  0  0  0  0  0  0  0  0  0  0  0
    6.9821    0.8011    9.2024 O   0  0  0  0  0  0  0  0  0  0  0  0
    5.1390    0.7659   10.5791 N   0  0  0  0  0  0  0  0  0  0  0  0
    4.1212   -0.1450   10.7046 C   0  0  0  0  0  0  0  0  0  0  0  0
    3.5565   -0.7622    9.7172 N   0  0  0  0  0  0  0  0  0  0  0  0
    3.8540   -0.2688    8.4278 C   0  0  0  0  0  0  0  0  0  0  0  0
    3.0472   -0.5790    7.3345 C   0  0  0  0  0  0  0  0  0  0  0  0
    2.8933    0.1018    3.6256 C   0  0  0  0  0  0  0  0  0  0  0  0
    3.0801    0.5090   -1.0365 N   0  0  0  0  0  0  0  0  0  0  0  0
    2.7632    0.6430   -2.4153 C   0  0  0  0  0  0  0  0  0  0  0  0
    1.5236    0.2644   -2.9608 C   0  0  0  0  0  0  0  0  0  0  0  0
    1.2661    0.4348   -4.3260 C   0  0  0  0  0  0  0  0  0  0  0  0
    2.2356    0.9783   -5.1476 C   0  0  0  0  0  0  0  0  0  0  0  0
    1.9860    1.1417   -6.4545 F   0  0  0  0  0  0  0  0  0  0  0  0
    3.4700    1.3534   -4.6171 C   0  0  0  0  0  0  0  0  0  0  0  0
    4.4261    1.8515   -5.4002 F   0  0  0  0  0  0  0  0  0  0  0  0
    3.7360    1.1776   -3.2619 C   0  0  0  0  0  0  0  0  0  0  0  0
    3.6651    0.6869    1.2787 H   0  0  0  0  0  0  0  0  0  0  0  0
    0.6159   -1.4827    1.6631 H   0  0  0  0  0  0  0  0  0  0  0  0
   -0.3167   -2.0159    3.8395 H   0  0  0  0  0  0  0  0  0  0  0  0
    0.7363   -1.2303    5.9042 H   0  0  0  0  0  0  0  0  0  0  0  0
    3.9613    1.9979    5.3012 H   0  0  0  0  0  0  0  0  0  0  0  0
    5.6091    2.3331    7.0991 H   0  0  0  0  0  0  0  0  0  0  0  0
    4.8427    1.6873   10.8774 H   0  0  0  0  0  0  0  0  0  0  0  0
    3.7944   -0.2866   11.7470 H   0  0  0  0  0  0  0  0  0  0  0  0
    2.3528   -1.4083    7.4419 H   0  0  0  0  0  0  0  0  0  0  0  0
    3.8164    0.6704    3.5482 H   0  0  0  0  0  0  0  0  0  0  0  0
    4.0111    0.7861   -0.7627 H   0  0  0  0  0  0  0  0  0  0  0  0
    0.7295   -0.1640   -2.3605 H   0  0  0  0  0  0  0  0  0  0  0  0
    0.3047    0.1433   -4.7435 H   0  0  0  0  0  0  0  0  0  0  0  0
    4.7050    1.4868   -2.8868 H   0  0  0  0  0  0  0  0  0  0  0  0
  1  2  2  0  0  0  0
  2  3  1  0  0  0  0
  2 21  1  0  0  0  0
  3  4  1  0  0  0  0
  3 30  1  0  0  0  0
  4  5  1  0  0  0  0
  4 20  2  0  0  0  0
  5  6  2  0  0  0  0
  5 31  1  0  0  0  0
  6  7  1  0  0  0  0
  6 32  1  0  0  0  0
  7  8  2  0  0  0  0
  7 33  1  0  0  0  0
  8  9  1  0  0  0  0
  8 20  1  0  0  0  0
  9 10  1  0  0  0  0
  9 19  2  0  0  0  0
 10 11  2  0  0  0  0
 10 34  1  0  0  0  0
 11 12  1  0  0  0  0
 11 35  1  0  0  0  0
 12 13  1  0  0  0  0
 12 18  2  0  0  0  0
 13 14  2  0  0  0  0
 13 15  1  0  0  0  0
 15 16  1  0  0  0  0
 15 36  1  0  0  0  0
 16 17  2  0  0  0  0
 16 37  1  0  0  0  0
 17 18  1  0  0  0  0
 18 19  1  0  0  0  0
 19 38  1  0  0  0  0
 20 39  1  0  0  0  0
 21 22  1  0  0  0  0
 21 40  1  0  0  0  0
 22 23  1  0  0  0  0
 22 29  2  0  0  0  0
 23 24  2  0  0  0  0
 23 41  1  0  0  0  0
 24 25  1  0  0  0  0
 24 42  1  0  0  0  0
 25 26  1  0  0  0  0
 25 27  2  0  0  0  0
 27 28  1  0  0  0  0
 27 29  1  0  0  0  0
 29 43  1  0  0  0  0
M  END
$$$$
