CHEMBL491681
 OpenBabel04072215383D

 46 49  0  0  0  0  0  0  0  0999 V2000
    6.0988   -0.4574    3.9049 F   0  0  0  0  0  0  0  0  0  0  0  0
    4.8080   -0.1218    3.6920 C   0  0  0  0  0  0  0  0  0  0  0  0
    4.0886   -1.2511    3.5044 F   0  0  0  0  0  0  0  0  0  0  0  0
    4.3591    0.4822    4.8146 F   0  0  0  0  0  0  0  0  0  0  0  0
    4.6027    0.7557    2.5990 O   0  0  0  0  0  0  0  0  0  0  0  0
    5.5863    0.9412    1.6736 C   0  0  0  0  0  0  0  0  0  0  0  0
    6.6213    0.0629    1.3849 C   0  0  0  0  0  0  0  0  0  0  0  0
    7.5930    0.3973    0.4368 C   0  0  0  0  0  0  0  0  0  0  0  0
    7.4998    1.6015   -0.2757 C   0  0  0  0  0  0  0  0  0  0  0  0
    8.4693    1.9367   -1.2497 N   0  0  0  0  0  0  0  0  0  0  0  0
    9.5544    1.1974   -1.6681 C   0  0  0  0  0  0  0  0  0  0  0  0
   10.2162    2.0235   -2.5479 C   0  0  0  0  0  0  0  0  0  0  0  0
   11.4473    1.7699   -3.2801 C   0  0  0  0  0  0  0  0  0  0  0  0
   11.5194    2.3514   -4.5660 C   0  0  0  0  0  0  0  0  0  0  0  0
   12.6629    2.2540   -5.3507 C   0  0  0  0  0  0  0  0  0  0  0  0
   13.7568    1.5579   -4.8681 C   0  0  0  0  0  0  0  0  0  0  0  0
   13.7008    0.9481   -3.6118 C   0  0  0  0  0  0  0  0  0  0  0  0
   12.5713    1.0647   -2.7676 C   0  0  0  0  0  0  0  0  0  0  0  0
   12.5588    0.3983   -1.5203 N   0  0  0  0  0  0  0  0  0  0  0  0
   13.8306    0.3027   -0.8007 C   0  0  0  0  0  0  0  0  0  0  0  0
   13.6160   -0.3648    0.5337 C   0  0  0  0  0  0  0  0  0  0  0  0
   13.2322   -1.7084    0.6045 C   0  0  0  0  0  0  0  0  0  0  0  0
   13.0482   -2.2812    1.8521 C   0  0  0  0  0  0  0  0  0  0  0  0
   13.2214   -1.6171    3.0145 N   0  0  0  0  0  0  0  0  0  0  0  0
   13.6041   -0.3261    2.9258 C   0  0  0  0  0  0  0  0  0  0  0  0
   13.8145    0.3354    1.7261 C   0  0  0  0  0  0  0  0  0  0  0  0
    9.4972    3.1813   -2.6967 N   0  0  0  0  0  0  0  0  0  0  0  0
    8.4353    3.1176   -1.9099 N   0  0  0  0  0  0  0  0  0  0  0  0
    6.4291    2.4630   -0.0218 C   0  0  0  0  0  0  0  0  0  0  0  0
    5.4820    2.1308    0.9479 C   0  0  0  0  0  0  0  0  0  0  0  0
    6.7304   -0.8987    1.8829 H   0  0  0  0  0  0  0  0  0  0  0  0
    8.4148   -0.3012    0.2849 H   0  0  0  0  0  0  0  0  0  0  0  0
    9.7540    0.2000   -1.3272 H   0  0  0  0  0  0  0  0  0  0  0  0
   10.6649    2.8987   -4.9622 H   0  0  0  0  0  0  0  0  0  0  0  0
   12.6946    2.7233   -6.3292 H   0  0  0  0  0  0  0  0  0  0  0  0
   14.6590    1.4714   -5.4688 H   0  0  0  0  0  0  0  0  0  0  0  0
   14.5755    0.3862   -3.3066 H   0  0  0  0  0  0  0  0  0  0  0  0
   11.8478    0.7814   -0.9059 H   0  0  0  0  0  0  0  0  0  0  0  0
   14.2469    1.3079   -0.6532 H   0  0  0  0  0  0  0  0  0  0  0  0
   14.5723   -0.2957   -1.3429 H   0  0  0  0  0  0  0  0  0  0  0  0
   13.0814   -2.2959   -0.2959 H   0  0  0  0  0  0  0  0  0  0  0  0
   12.7485   -3.3203    1.9526 H   0  0  0  0  0  0  0  0  0  0  0  0
   13.7453    0.1824    3.8752 H   0  0  0  0  0  0  0  0  0  0  0  0
   14.1313    1.3732    1.7288 H   0  0  0  0  0  0  0  0  0  0  0  0
    6.3230    3.4124   -0.5541 H   0  0  0  0  0  0  0  0  0  0  0  0
    4.6548    2.8132    1.1401 H   0  0  0  0  0  0  0  0  0  0  0  0
  1  2  1  0  0  0  0
  2  3  1  0  0  0  0
  2  4  1  0  0  0  0
  2  5  1  0  0  0  0
  5  6  1  0  0  0  0
  6  7  1  0  0  0  0
  6 30  2  0  0  0  0
  7  8  2  0  0  0  0
  7 31  1  0  0  0  0
  8  9  1  0  0  0  0
  8 32  1  0  0  0  0
  9 10  1  0  0  0  0
  9 29  2  0  0  0  0
 10 11  1  0  0  0  0
 10 28  1  0  0  0  0
 11 12  2  0  0  0  0
 11 33  1  0  0  0  0
 12 13  1  0  0  0  0
 12 27  1  0  0  0  0
 13 14  1  0  0  0  0
 13 18  2  0  0  0  0
 14 15  2  0  0  0  0
 14 34  1  0  0  0  0
 15 16  1  0  0  0  0
 15 35  1  0  0  0  0
 16 17  2  0  0  0  0
 16 36  1  0  0  0  0
 17 18  1  0  0  0  0
 17 37  1  0  0  0  0
 18 19  1  0  0  0  0
 19 20  1  0  0  0  0
 19 38  1  0  0  0  0
 20 21  1  0  0  0  0
 20 39  1  0  0  0  0
 20 40  1  0  0  0  0
 21 22  1  0  0  0  0
 21 26  2  0  0  0  0
 22 23  2  0  0  0  0
 22 41  1  0  0  0  0
 23 24  1  0  0  0  0
 23 42  1  0  0  0  0
 24 25  2  0  0  0  0
 25 26  1  0  0  0  0
 25 43  1  0  0  0  0
 26 44  1  0  0  0  0
 27 28  2  0  0  0  0
 29 30  1  0  0  0  0
 29 45  1  0  0  0  0
 30 46  1  0  0  0  0
M  END
$$$$
