CHEMBL1242295
 OpenBabel04072215363D

 42 46  0  0  0  0  0  0  0  0999 V2000
    1.1477    0.2187    0.0897 N   0  0  0  0  0  0  0  0  0  0  0  0
    2.5248    0.0451    0.0512 C   0  0  0  0  0  0  0  0  0  0  0  0
    3.2518    1.1818    0.0584 N   0  0  0  0  0  0  0  0  0  0  0  0
    4.5936    1.0925    0.0584 C   0  0  0  0  0  0  0  0  0  0  0  0
    5.3436   -0.0193    0.0672 N   0  0  0  0  0  0  0  0  0  0  0  0
    4.5824   -1.1279    0.0477 C   0  0  0  0  0  0  0  0  0  0  0  0
    3.1935   -1.1902    0.0243 C   0  0  0  0  0  0  0  0  0  0  0  0
    2.8947   -2.5895   -0.0395 C   0  0  0  0  0  0  0  0  0  0  0  0
    1.5950   -3.2692   -0.1703 C   0  0  0  0  0  0  0  0  0  0  0  0
    0.5394   -2.6776   -0.8755 C   0  0  0  0  0  0  0  0  0  0  0  0
   -0.7090   -3.2952   -1.0096 C   0  0  0  0  0  0  0  0  0  0  0  0
   -0.8426   -4.5850   -0.4962 C   0  0  0  0  0  0  0  0  0  0  0  0
   -1.9089   -5.4533   -0.5472 N   0  0  0  0  0  0  0  0  0  0  0  0
   -1.5675   -6.6535    0.0142 C   0  0  0  0  0  0  0  0  0  0  0  0
   -0.2800   -6.5447    0.4889 C   0  0  0  0  0  0  0  0  0  0  0  0
    0.1927   -5.2413    0.1691 C   0  0  0  0  0  0  0  0  0  0  0  0
    1.4159   -4.5634    0.3579 C   0  0  0  0  0  0  0  0  0  0  0  0
    4.0229   -3.3263    0.0224 N   0  0  0  0  0  0  0  0  0  0  0  0
    5.0222   -2.4223    0.0424 N   0  0  0  0  0  0  0  0  0  0  0  0
    6.4041   -2.8587    0.0447 C   0  0  0  0  0  0  0  0  0  0  0  0
    6.7842   -3.7424   -1.1459 C   0  0  0  0  0  0  0  0  0  0  0  0
    8.0236   -4.5127   -0.6931 C   0  0  0  0  0  0  0  0  0  0  0  0
    8.0946   -4.3730    0.8265 C   0  0  0  0  0  0  0  0  0  0  0  0
    6.7868   -3.7164    1.2501 C   0  0  0  0  0  0  0  0  0  0  0  0
    0.9203    1.1784    0.3234 H   0  0  0  0  0  0  0  0  0  0  0  0
    0.6471   -0.4879    0.6164 H   0  0  0  0  0  0  0  0  0  0  0  0
    5.1318    2.0350    0.0543 H   0  0  0  0  0  0  0  0  0  0  0  0
    0.6747   -1.7202   -1.3719 H   0  0  0  0  0  0  0  0  0  0  0  0
   -1.5186   -2.8027   -1.5371 H   0  0  0  0  0  0  0  0  0  0  0  0
   -2.7971   -5.2432   -0.9820 H   0  0  0  0  0  0  0  0  0  0  0  0
   -2.2647   -7.4806    0.0208 H   0  0  0  0  0  0  0  0  0  0  0  0
    0.2779   -7.3288    0.9839 H   0  0  0  0  0  0  0  0  0  0  0  0
    2.2294   -5.0635    0.8766 H   0  0  0  0  0  0  0  0  0  0  0  0
    7.0402   -1.9649    0.0330 H   0  0  0  0  0  0  0  0  0  0  0  0
    6.9801   -3.1511   -2.0464 H   0  0  0  0  0  0  0  0  0  0  0  0
    5.9876   -4.4541   -1.3946 H   0  0  0  0  0  0  0  0  0  0  0  0
    8.9295   -4.1032   -1.1536 H   0  0  0  0  0  0  0  0  0  0  0  0
    7.9543   -5.5641   -0.9927 H   0  0  0  0  0  0  0  0  0  0  0  0
    8.9436   -3.7344    1.0982 H   0  0  0  0  0  0  0  0  0  0  0  0
    8.2416   -5.3397    1.3192 H   0  0  0  0  0  0  0  0  0  0  0  0
    6.9059   -3.1213    2.1608 H   0  0  0  0  0  0  0  0  0  0  0  0
    6.0342   -4.4877    1.4534 H   0  0  0  0  0  0  0  0  0  0  0  0
  1  2  1  0  0  0  0
  1 25  1  0  0  0  0
  1 26  1  0  0  0  0
  2  3  1  0  0  0  0
  2  7  2  0  0  0  0
  3  4  2  0  0  0  0
  4  5  1  0  0  0  0
  4 27  1  0  0  0  0
  5  6  2  0  0  0  0
  6  7  1  0  0  0  0
  6 19  1  0  0  0  0
  7  8  1  0  0  0  0
  8  9  1  0  0  0  0
  8 18  2  0  0  0  0
  9 10  1  0  0  0  0
  9 17  2  0  0  0  0
 10 11  2  0  0  0  0
 10 28  1  0  0  0  0
 11 12  1  0  0  0  0
 11 29  1  0  0  0  0
 12 13  1  0  0  0  0
 12 16  2  0  0  0  0
 13 14  1  0  0  0  0
 13 30  1  0  0  0  0
 14 15  2  0  0  0  0
 14 31  1  0  0  0  0
 15 16  1  0  0  0  0
 15 32  1  0  0  0  0
 16 17  1  0  0  0  0
 17 33  1  0  0  0  0
 18 19  1  0  0  0  0
 19 20  1  0  0  0  0
 20 21  1  0  0  0  0
 20 24  1  0  0  0  0
 20 34  1  0  0  0  0
 21 22  1  0  0  0  0
 21 35  1  0  0  0  0
 21 36  1  0  0  0  0
 22 23  1  0  0  0  0
 22 37  1  0  0  0  0
 22 38  1  0  0  0  0
 23 24  1  0  0  0  0
 23 39  1  0  0  0  0
 23 40  1  0  0  0  0
 24 41  1  0  0  0  0
 24 42  1  0  0  0  0
M  END
$$$$
