CHEMBL3961214
 OpenBabel04072215373D

 47 50  0  0  0  0  0  0  0  0999 V2000
    2.4438   -0.4120   -0.8955 C   0  0  0  0  0  0  0  0  0  0  0  0
    0.9487   -0.3327   -1.0248 C   0  0  0  0  0  0  0  0  0  0  0  0
    0.3874    0.8454   -1.5298 C   0  0  0  0  0  0  0  0  0  0  0  0
   -0.9844    0.9526   -1.6657 C   0  0  0  0  0  0  0  0  0  0  0  0
   -1.8036   -0.1124   -1.2969 C   0  0  0  0  0  0  0  0  0  0  0  0
   -1.2928   -1.3098   -0.7765 C   0  0  0  0  0  0  0  0  0  0  0  0
   -2.1388   -2.4052   -0.3857 N   0  0  0  0  0  0  0  0  0  0  0  0
   -3.5300   -2.3603   -0.3989 C   0  0  0  0  0  0  0  0  0  0  0  0
   -4.1680   -1.3594   -0.7089 O   0  0  0  0  0  0  0  0  0  0  0  0
   -4.1689   -3.5386   -0.0158 N   0  0  0  0  0  0  0  0  0  0  0  0
   -5.6011   -3.6630   -0.0585 C   0  0  0  0  0  0  0  0  0  0  0  0
   -6.3895   -2.8902   -0.9245 C   0  0  0  0  0  0  0  0  0  0  0  0
   -7.7893   -2.8845   -0.8526 C   0  0  0  0  0  0  0  0  0  0  0  0
   -8.4511   -3.6981    0.0597 C   0  0  0  0  0  0  0  0  0  0  0  0
   -9.8906   -3.6291    0.1497 C   0  0  0  0  0  0  0  0  0  0  0  0
  -11.0924   -3.5471    0.1758 C   0  0  0  0  0  0  0  0  0  0  0  0
  -12.5461   -3.5436    0.1744 C   0  0  0  0  0  0  0  0  0  0  0  0
  -13.2869   -4.8286    0.1626 C   0  0  0  0  0  0  0  0  0  0  0  0
  -14.6233   -4.7671    0.1682 C   0  0  0  0  0  0  0  0  0  0  0  0
  -15.2560   -3.5064    0.1782 C   0  0  0  0  0  0  0  0  0  0  0  0
  -16.5326   -3.1840    0.1864 N   0  0  0  0  0  0  0  0  0  0  0  0
  -16.5399   -1.8277    0.1828 C   0  0  0  0  0  0  0  0  0  0  0  0
  -17.6949   -1.1695    0.1838 N   0  0  0  0  0  0  0  0  0  0  0  0
  -15.2773   -1.2965    0.1776 C   0  0  0  0  0  0  0  0  0  0  0  0
  -14.4378   -2.3825    0.1776 N   0  0  0  0  0  0  0  0  0  0  0  0
  -13.0596   -2.3523    0.1784 N   0  0  0  0  0  0  0  0  0  0  0  0
   -7.6858   -4.5551    0.8608 C   0  0  0  0  0  0  0  0  0  0  0  0
   -6.2696   -4.5444    0.7984 C   0  0  0  0  0  0  0  0  0  0  0  0
    0.1053   -1.4101   -0.6517 C   0  0  0  0  0  0  0  0  0  0  0  0
    2.9177    0.5247   -1.2171 H   0  0  0  0  0  0  0  0  0  0  0  0
    2.8413   -1.2110   -1.5271 H   0  0  0  0  0  0  0  0  0  0  0  0
    2.7306   -0.5789    0.1463 H   0  0  0  0  0  0  0  0  0  0  0  0
    1.0105    1.6874   -1.8220 H   0  0  0  0  0  0  0  0  0  0  0  0
   -1.4343    1.8604   -2.0586 H   0  0  0  0  0  0  0  0  0  0  0  0
   -2.8618    0.0550   -1.4494 H   0  0  0  0  0  0  0  0  0  0  0  0
   -1.6835   -3.2516   -0.0784 H   0  0  0  0  0  0  0  0  0  0  0  0
   -3.6724   -4.1514    0.6141 H   0  0  0  0  0  0  0  0  0  0  0  0
   -5.9366   -2.2440   -1.6720 H   0  0  0  0  0  0  0  0  0  0  0  0
   -8.3426   -2.2149   -1.5074 H   0  0  0  0  0  0  0  0  0  0  0  0
  -12.7352   -5.7577    0.1500 H   0  0  0  0  0  0  0  0  0  0  0  0
  -15.2407   -5.6575    0.1621 H   0  0  0  0  0  0  0  0  0  0  0  0
  -18.5645   -1.6876    0.2513 H   0  0  0  0  0  0  0  0  0  0  0  0
  -17.7759   -0.1635    0.2495 H   0  0  0  0  0  0  0  0  0  0  0  0
  -14.9015   -0.2861    0.1725 H   0  0  0  0  0  0  0  0  0  0  0  0
   -8.1804   -5.2240    1.5615 H   0  0  0  0  0  0  0  0  0  0  0  0
   -5.7167   -5.2025    1.4632 H   0  0  0  0  0  0  0  0  0  0  0  0
    0.5622   -2.3163   -0.2603 H   0  0  0  0  0  0  0  0  0  0  0  0
  1  2  1  0  0  0  0
  1 30  1  0  0  0  0
  1 31  1  0  0  0  0
  1 32  1  0  0  0  0
  2  3  1  0  0  0  0
  2 29  2  0  0  0  0
  3  4  2  0  0  0  0
  3 33  1  0  0  0  0
  4  5  1  0  0  0  0
  4 34  1  0  0  0  0
  5  6  2  0  0  0  0
  5 35  1  0  0  0  0
  6  7  1  0  0  0  0
  6 29  1  0  0  0  0
  7  8  1  0  0  0  0
  7 36  1  0  0  0  0
  8  9  2  0  0  0  0
  8 10  1  0  0  0  0
 10 11  1  0  0  0  0
 10 37  1  0  0  0  0
 11 12  1  0  0  0  0
 11 28  2  0  0  0  0
 12 13  2  0  0  0  0
 12 38  1  0  0  0  0
 13 14  1  0  0  0  0
 13 39  1  0  0  0  0
 14 15  1  0  0  0  0
 14 27  2  0  0  0  0
 15 16  3  0  0  0  0
 16 17  1  0  0  0  0
 17 18  1  0  0  0  0
 17 26  2  0  0  0  0
 18 19  2  0  0  0  0
 18 40  1  0  0  0  0
 19 20  1  0  0  0  0
 19 41  1  0  0  0  0
 20 21  2  0  0  0  0
 20 25  1  0  0  0  0
 21 22  1  0  0  0  0
 22 23  1  0  0  0  0
 22 24  2  0  0  0  0
 23 42  1  0  0  0  0
 23 43  1  0  0  0  0
 24 25  1  0  0  0  0
 24 44  1  0  0  0  0
 25 26  1  0  0  0  0
 27 28  1  0  0  0  0
 27 45  1  0  0  0  0
 28 46  1  0  0  0  0
 29 47  1  0  0  0  0
M  END
$$$$
