CHEMBL3355009
 OpenBabel04072215363D

 54 56  0  0  0  0  0  0  0  0999 V2000
    1.3321    2.6421   -2.0271 C   0  0  0  0  0  0  0  0  0  0  0  0
    2.7412    2.1082   -1.8655 C   0  0  0  0  0  0  0  0  0  0  0  0
    3.1627    2.3239   -0.5176 O   0  0  0  0  0  0  0  0  0  0  0  0
    4.4449    1.9328   -0.1946 C   0  0  0  0  0  0  0  0  0  0  0  0
    5.3178    1.3329   -1.0281 C   0  0  0  0  0  0  0  0  0  0  0  0
    6.6811    0.9920   -0.5603 C   0  0  0  0  0  0  0  0  0  0  0  0
    7.4927    0.4612   -1.3119 O   0  0  0  0  0  0  0  0  0  0  0  0
    6.9664    1.3147    0.7406 N   0  0  0  0  0  0  0  0  0  0  0  0
    6.0780    1.9258    1.5894 C   0  0  0  0  0  0  0  0  0  0  0  0
    4.8349    2.2462    1.1864 C   0  0  0  0  0  0  0  0  0  0  0  0
    3.9844    3.0043    2.1296 C   0  0  0  0  0  0  0  0  0  0  0  0
    3.2024    2.3764    3.1132 C   0  0  0  0  0  0  0  0  0  0  0  0
    2.4382    3.1412    4.0118 C   0  0  0  0  0  0  0  0  0  0  0  0
    2.4322    4.5420    3.9299 C   0  0  0  0  0  0  0  0  0  0  0  0
    1.7212    5.3983    4.9462 C   0  0  0  0  0  0  0  0  0  0  0  0
    0.2458    5.1304    5.0905 C   0  0  0  0  0  0  0  0  0  0  0  0
   -0.1626    4.3660    5.9768 O   0  0  0  0  0  0  0  0  0  0  0  0
   -0.5672    5.7807    4.1874 N   0  0  0  0  0  0  0  0  0  0  0  0
   -1.9349    5.5987    4.2813 C   0  0  0  0  0  0  0  0  0  0  0  0
   -2.7063    5.6837    5.4612 C   0  0  0  0  0  0  0  0  0  0  0  0
   -3.9630    5.2701    5.0921 C   0  0  0  0  0  0  0  0  0  0  0  0
   -5.2606    5.0851    5.8368 C   0  0  0  0  0  0  0  0  0  0  0  0
   -6.0050    3.8359    5.3191 C   0  0  0  0  0  0  0  0  0  0  0  0
   -4.9675    4.8475    7.3383 C   0  0  0  0  0  0  0  0  0  0  0  0
   -6.1522    6.3402    5.6773 C   0  0  0  0  0  0  0  0  0  0  0  0
   -5.5947    7.2861    4.8867 F   0  0  0  0  0  0  0  0  0  0  0  0
   -7.3595    6.0440    5.1403 F   0  0  0  0  0  0  0  0  0  0  0  0
   -6.3963    6.9368    6.8706 F   0  0  0  0  0  0  0  0  0  0  0  0
   -3.9616    5.0429    3.7455 O   0  0  0  0  0  0  0  0  0  0  0  0
   -2.6994    5.3096    3.2282 N   0  0  0  0  0  0  0  0  0  0  0  0
    3.1888    5.1450    2.9239 C   0  0  0  0  0  0  0  0  0  0  0  0
    3.1916    6.4805    2.8048 F   0  0  0  0  0  0  0  0  0  0  0  0
    3.9609    4.4006    2.0375 C   0  0  0  0  0  0  0  0  0  0  0  0
    0.9678    2.4628   -3.0423 H   0  0  0  0  0  0  0  0  0  0  0  0
    1.3029    3.7183   -1.8267 H   0  0  0  0  0  0  0  0  0  0  0  0
    0.6519    2.1633   -1.3152 H   0  0  0  0  0  0  0  0  0  0  0  0
    3.4048    2.6403   -2.5571 H   0  0  0  0  0  0  0  0  0  0  0  0
    2.7474    1.0358   -2.0923 H   0  0  0  0  0  0  0  0  0  0  0  0
    5.1114    1.0734   -2.0515 H   0  0  0  0  0  0  0  0  0  0  0  0
    7.9070    1.1013    1.0451 H   0  0  0  0  0  0  0  0  0  0  0  0
    6.4566    2.1511    2.5833 H   0  0  0  0  0  0  0  0  0  0  0  0
    3.1839    1.2915    3.1908 H   0  0  0  0  0  0  0  0  0  0  0  0
    1.8628    2.6316    4.7842 H   0  0  0  0  0  0  0  0  0  0  0  0
    1.8575    6.4681    4.7438 H   0  0  0  0  0  0  0  0  0  0  0  0
    2.1834    5.2245    5.9267 H   0  0  0  0  0  0  0  0  0  0  0  0
   -0.2139    5.9336    3.2515 H   0  0  0  0  0  0  0  0  0  0  0  0
   -2.3741    5.9848    6.4430 H   0  0  0  0  0  0  0  0  0  0  0  0
   -5.4147    2.9238    5.4682 H   0  0  0  0  0  0  0  0  0  0  0  0
   -6.2285    3.9108    4.2490 H   0  0  0  0  0  0  0  0  0  0  0  0
   -6.9582    3.7003    5.8451 H   0  0  0  0  0  0  0  0  0  0  0  0
   -4.3624    3.9462    7.4954 H   0  0  0  0  0  0  0  0  0  0  0  0
   -5.8949    4.7280    7.9102 H   0  0  0  0  0  0  0  0  0  0  0  0
   -4.4181    5.6883    7.7794 H   0  0  0  0  0  0  0  0  0  0  0  0
    4.5462    4.9135    1.2859 H   0  0  0  0  0  0  0  0  0  0  0  0
  1  2  1  0  0  0  0
  1 34  1  0  0  0  0
  1 35  1  0  0  0  0
  1 36  1  0  0  0  0
  2  3  1  0  0  0  0
  2 37  1  0  0  0  0
  2 38  1  0  0  0  0
  3  4  1  0  0  0  0
  4  5  2  0  0  0  0
  4 10  1  0  0  0  0
  5  6  1  0  0  0  0
  5 39  1  0  0  0  0
  6  7  2  0  0  0  0
  6  8  1  0  0  0  0
  8  9  1  0  0  0  0
  8 40  1  0  0  0  0
  9 10  2  0  0  0  0
  9 41  1  0  0  0  0
 10 11  1  0  0  0  0
 11 12  1  0  0  0  0
 11 33  2  0  0  0  0
 12 13  2  0  0  0  0
 12 42  1  0  0  0  0
 13 14  1  0  0  0  0
 13 43  1  0  0  0  0
 14 15  1  0  0  0  0
 14 31  2  0  0  0  0
 15 16  1  0  0  0  0
 15 44  1  0  0  0  0
 15 45  1  0  0  0  0
 16 17  2  0  0  0  0
 16 18  1  0  0  0  0
 18 19  1  0  0  0  0
 18 46  1  0  0  0  0
 19 20  1  0  0  0  0
 19 30  2  0  0  0  0
 20 21  2  0  0  0  0
 20 47  1  0  0  0  0
 21 22  1  0  0  0  0
 21 29  1  0  0  0  0
 22 23  1  0  0  0  0
 22 24  1  0  0  0  0
 22 25  1  0  0  0  0
 23 48  1  0  0  0  0
 23 49  1  0  0  0  0
 23 50  1  0  0  0  0
 24 51  1  0  0  0  0
 24 52  1  0  0  0  0
 24 53  1  0  0  0  0
 25 26  1  0  0  0  0
 25 27  1  0  0  0  0
 25 28  1  0  0  0  0
 29 30  1  0  0  0  0
 31 32  1  0  0  0  0
 31 33  1  0  0  0  0
 33 54  1  0  0  0  0
M  END
$$$$
