CHEMBL3676339
 OpenBabel04072215373D

 50 52  0  0  0  0  0  0  0  0999 V2000
    3.0415   -2.0714   -1.8426 C   0  0  0  0  0  0  0  0  0  0  0  0
    3.2882   -0.9938   -1.0873 C   0  0  0  0  0  0  0  0  0  0  0  0
    4.1352    0.0981   -1.6315 C   0  0  0  0  0  0  0  0  0  0  0  0
    4.3983    0.1695   -2.8264 O   0  0  0  0  0  0  0  0  0  0  0  0
    4.5164    1.0075   -0.6631 N   0  0  0  0  0  0  0  0  0  0  0  0
    5.2008    2.1939   -1.0033 C   0  0  0  0  0  0  0  0  0  0  0  0
    6.3049    2.0650   -1.8483 C   0  0  0  0  0  0  0  0  0  0  0  0
    6.9373    3.1863   -2.4132 C   0  0  0  0  0  0  0  0  0  0  0  0
    8.0187    3.1157   -3.3067 C   0  0  0  0  0  0  0  0  0  0  0  0
    8.5733    1.8470   -3.6271 N   0  0  0  0  0  0  0  0  0  0  0  0
    9.7634    1.5759   -4.3411 C   0  0  0  0  0  0  0  0  0  0  0  0
   10.8600    2.4506   -4.3388 C   0  0  0  0  0  0  0  0  0  0  0  0
   12.0175    2.1565   -5.0609 C   0  0  0  0  0  0  0  0  0  0  0  0
   12.1080    0.9556   -5.7542 C   0  0  0  0  0  0  0  0  0  0  0  0
   13.2125    0.6881   -6.4602 F   0  0  0  0  0  0  0  0  0  0  0  0
   11.0634    0.0413   -5.7139 C   0  0  0  0  0  0  0  0  0  0  0  0
   11.1654   -1.1245   -6.3677 F   0  0  0  0  0  0  0  0  0  0  0  0
    9.9087    0.3466   -5.0050 C   0  0  0  0  0  0  0  0  0  0  0  0
    8.9033   -0.5447   -4.9622 F   0  0  0  0  0  0  0  0  0  0  0  0
    8.5551    4.2261   -3.8415 N   0  0  0  0  0  0  0  0  0  0  0  0
    8.0102    5.3931   -3.4886 C   0  0  0  0  0  0  0  0  0  0  0  0
    6.9965    5.5695   -2.6349 N   0  0  0  0  0  0  0  0  0  0  0  0
    6.4679    4.4661   -2.0994 C   0  0  0  0  0  0  0  0  0  0  0  0
    5.4212    4.5862   -1.1907 C   0  0  0  0  0  0  0  0  0  0  0  0
    4.8028    3.4753   -0.5981 C   0  0  0  0  0  0  0  0  0  0  0  0
    3.7775    3.8077    0.2558 O   0  0  0  0  0  0  0  0  0  0  0  0
    3.6139    2.9321    1.3652 C   0  0  0  0  0  0  0  0  0  0  0  0
    3.1983    3.6723    2.6364 C   0  0  0  0  0  0  0  0  0  0  0  0
    3.0577    2.7539    3.7614 N   0  0  0  0  0  0  0  0  0  0  0  0
    4.1308    2.0384    4.2479 C   0  0  0  0  0  0  0  0  0  0  0  0
    3.7965    1.0652    5.3431 C   0  0  0  0  0  0  0  0  0  0  0  0
    5.2700    2.1395    3.8047 O   0  0  0  0  0  0  0  0  0  0  0  0
    2.4172   -2.8799   -1.4812 H   0  0  0  0  0  0  0  0  0  0  0  0
    3.4586   -2.1664   -2.8430 H   0  0  0  0  0  0  0  0  0  0  0  0
    2.8660   -0.8963   -0.0967 H   0  0  0  0  0  0  0  0  0  0  0  0
    4.0883    0.9266    0.2420 H   0  0  0  0  0  0  0  0  0  0  0  0
    6.6691    1.0654   -2.0752 H   0  0  0  0  0  0  0  0  0  0  0  0
    7.8343    1.1948   -3.8913 H   0  0  0  0  0  0  0  0  0  0  0  0
   10.8210    3.3808   -3.7764 H   0  0  0  0  0  0  0  0  0  0  0  0
   12.8423    2.8619   -5.0854 H   0  0  0  0  0  0  0  0  0  0  0  0
    8.4381    6.2824   -3.9361 H   0  0  0  0  0  0  0  0  0  0  0  0
    5.0664    5.5859   -0.9450 H   0  0  0  0  0  0  0  0  0  0  0  0
    4.5460    2.4000    1.5722 H   0  0  0  0  0  0  0  0  0  0  0  0
    2.8267    2.2097    1.1176 H   0  0  0  0  0  0  0  0  0  0  0  0
    2.2347    4.1721    2.4882 H   0  0  0  0  0  0  0  0  0  0  0  0
    3.9345    4.4401    2.8948 H   0  0  0  0  0  0  0  0  0  0  0  0
    2.1793    2.7361    4.2643 H   0  0  0  0  0  0  0  0  0  0  0  0
    2.7195    0.9960    5.5129 H   0  0  0  0  0  0  0  0  0  0  0  0
    4.2897    1.3815    6.2642 H   0  0  0  0  0  0  0  0  0  0  0  0
    4.1593    0.0742    5.0534 H   0  0  0  0  0  0  0  0  0  0  0  0
  1  2  2  0  0  0  0
  1 33  1  0  0  0  0
  1 34  1  0  0  0  0
  2  3  1  0  0  0  0
  2 35  1  0  0  0  0
  3  4  2  0  0  0  0
  3  5  1  0  0  0  0
  5  6  1  0  0  0  0
  5 36  1  0  0  0  0
  6  7  1  0  0  0  0
  6 25  2  0  0  0  0
  7  8  2  0  0  0  0
  7 37  1  0  0  0  0
  8  9  1  0  0  0  0
  8 23  1  0  0  0  0
  9 10  1  0  0  0  0
  9 20  2  0  0  0  0
 10 11  1  0  0  0  0
 10 38  1  0  0  0  0
 11 12  1  0  0  0  0
 11 18  2  0  0  0  0
 12 13  2  0  0  0  0
 12 39  1  0  0  0  0
 13 14  1  0  0  0  0
 13 40  1  0  0  0  0
 14 15  1  0  0  0  0
 14 16  2  0  0  0  0
 16 17  1  0  0  0  0
 16 18  1  0  0  0  0
 18 19  1  0  0  0  0
 20 21  1  0  0  0  0
 21 22  2  0  0  0  0
 21 41  1  0  0  0  0
 22 23  1  0  0  0  0
 23 24  2  0  0  0  0
 24 25  1  0  0  0  0
 24 42  1  0  0  0  0
 25 26  1  0  0  0  0
 26 27  1  0  0  0  0
 27 28  1  0  0  0  0
 27 43  1  0  0  0  0
 27 44  1  0  0  0  0
 28 29  1  0  0  0  0
 28 45  1  0  0  0  0
 28 46  1  0  0  0  0
 29 30  1  0  0  0  0
 29 47  1  0  0  0  0
 30 31  1  0  0  0  0
 30 32  2  0  0  0  0
 31 48  1  0  0  0  0
 31 49  1  0  0  0  0
 31 50  1  0  0  0  0
M  END
$$$$
