CHEMBL1970083
 OpenBabel04072215363D

 54 58  0  0  0  0  0  0  0  0999 V2000
    1.1679   -0.2184   -1.6995 N   0  0  0  0  0  0  0  0  0  0  0  0
    2.5252   -0.2572   -1.4024 C   0  0  0  0  0  0  0  0  0  0  0  0
    3.2206    0.7876   -1.8840 N   0  0  0  0  0  0  0  0  0  0  0  0
    4.5406    0.8831   -1.6415 C   0  0  0  0  0  0  0  0  0  0  0  0
    5.3033   -0.0011   -0.8851 C   0  0  0  0  0  0  0  0  0  0  0  0
    6.7544    0.2022   -0.6620 C   0  0  0  0  0  0  0  0  0  0  0  0
    7.2920    1.4875   -0.4911 C   0  0  0  0  0  0  0  0  0  0  0  0
    8.6596    1.6410   -0.2938 C   0  0  0  0  0  0  0  0  0  0  0  0
    9.5296    0.6148   -0.2283 N   0  0  0  0  0  0  0  0  0  0  0  0
    9.0132   -0.6165   -0.3947 C   0  0  0  0  0  0  0  0  0  0  0  0
    7.6693   -0.8608   -0.6389 C   0  0  0  0  0  0  0  0  0  0  0  0
    4.5482   -1.0859   -0.3653 C   0  0  0  0  0  0  0  0  0  0  0  0
    5.1135   -2.3141    0.7197 S   0  0  0  0  0  0  0  0  0  0  0  0
    3.6847   -3.1917    0.6096 C   0  0  0  0  0  0  0  0  0  0  0  0
    2.6813   -2.5176   -0.0580 C   0  0  0  0  0  0  0  0  0  0  0  0
    1.3391   -3.1098   -0.0450 C   0  0  0  0  0  0  0  0  0  0  0  0
    0.8926   -3.7112    1.1344 C   0  0  0  0  0  0  0  0  0  0  0  0
   -0.3578   -4.3112    1.2068 C   0  0  0  0  0  0  0  0  0  0  0  0
   -1.2400   -4.2784    0.1285 C   0  0  0  0  0  0  0  0  0  0  0  0
   -2.5430   -4.8348    0.1904 N   0  0  0  0  0  0  0  0  0  0  0  0
   -3.1062   -5.3783    1.3237 C   0  0  0  0  0  0  0  0  0  0  0  0
   -2.5778   -5.4058    2.4328 O   0  0  0  0  0  0  0  0  0  0  0  0
   -4.3512   -5.9550    1.0921 N   0  0  0  0  0  0  0  0  0  0  0  0
   -4.9816   -6.5835    2.1978 C   0  0  0  0  0  0  0  0  0  0  0  0
   -5.0800   -5.9301    3.4345 C   0  0  0  0  0  0  0  0  0  0  0  0
   -5.4781   -6.6254    4.5839 C   0  0  0  0  0  0  0  0  0  0  0  0
   -5.5026   -5.9393    5.9289 C   0  0  0  0  0  0  0  0  0  0  0  0
   -5.1764   -4.6168    5.8819 F   0  0  0  0  0  0  0  0  0  0  0  0
   -6.7323   -5.9952    6.5102 F   0  0  0  0  0  0  0  0  0  0  0  0
   -4.6437   -6.5057    6.8207 F   0  0  0  0  0  0  0  0  0  0  0  0
   -5.8078   -7.9868    4.4674 C   0  0  0  0  0  0  0  0  0  0  0  0
   -5.7728   -8.6241    3.2219 C   0  0  0  0  0  0  0  0  0  0  0  0
   -5.3789   -7.9139    2.0924 C   0  0  0  0  0  0  0  0  0  0  0  0
   -5.2851   -8.5474    0.9133 F   0  0  0  0  0  0  0  0  0  0  0  0
   -0.8080   -3.6781   -1.0584 C   0  0  0  0  0  0  0  0  0  0  0  0
    0.4851   -3.1304   -1.1534 C   0  0  0  0  0  0  0  0  0  0  0  0
    3.1739   -1.2681   -0.6435 C   0  0  0  0  0  0  0  0  0  0  0  0
    0.9382    0.7057   -2.0503 H   0  0  0  0  0  0  0  0  0  0  0  0
    0.5813   -0.5446   -0.9419 H   0  0  0  0  0  0  0  0  0  0  0  0
    4.9964    1.7549   -2.1058 H   0  0  0  0  0  0  0  0  0  0  0  0
    6.6690    2.3756   -0.5047 H   0  0  0  0  0  0  0  0  0  0  0  0
    9.1005    2.6266   -0.1788 H   0  0  0  0  0  0  0  0  0  0  0  0
    9.7238   -1.4354   -0.3293 H   0  0  0  0  0  0  0  0  0  0  0  0
    7.3635   -1.8872   -0.8081 H   0  0  0  0  0  0  0  0  0  0  0  0
    3.6264   -4.1494    1.1124 H   0  0  0  0  0  0  0  0  0  0  0  0
    1.5100   -3.7378    2.0299 H   0  0  0  0  0  0  0  0  0  0  0  0
   -0.5924   -4.7882    2.1508 H   0  0  0  0  0  0  0  0  0  0  0  0
   -3.1402   -4.7153   -0.6144 H   0  0  0  0  0  0  0  0  0  0  0  0
   -4.4054   -6.4665    0.2206 H   0  0  0  0  0  0  0  0  0  0  0  0
   -4.7774   -4.8857    3.5192 H   0  0  0  0  0  0  0  0  0  0  0  0
   -6.0754   -8.5583    5.3548 H   0  0  0  0  0  0  0  0  0  0  0  0
   -6.0084   -9.6807    3.1356 H   0  0  0  0  0  0  0  0  0  0  0  0
   -1.4580   -3.6305   -1.9275 H   0  0  0  0  0  0  0  0  0  0  0  0
    0.8049   -2.7137   -2.1059 H   0  0  0  0  0  0  0  0  0  0  0  0
  1  2  1  0  0  0  0
  1 38  1  0  0  0  0
  1 39  1  0  0  0  0
  2  3  1  0  0  0  0
  2 37  2  0  0  0  0
  3  4  2  0  0  0  0
  4  5  1  0  0  0  0
  4 40  1  0  0  0  0
  5  6  1  0  0  0  0
  5 12  2  0  0  0  0
  6  7  1  0  0  0  0
  6 11  2  0  0  0  0
  7  8  2  0  0  0  0
  7 41  1  0  0  0  0
  8  9  1  0  0  0  0
  8 42  1  0  0  0  0
  9 10  2  0  0  0  0
 10 11  1  0  0  0  0
 10 43  1  0  0  0  0
 11 44  1  0  0  0  0
 12 13  1  0  0  0  0
 12 37  1  0  0  0  0
 13 14  1  0  0  0  0
 14 15  2  0  0  0  0
 14 45  1  0  0  0  0
 15 16  1  0  0  0  0
 15 37  1  0  0  0  0
 16 17  1  0  0  0  0
 16 36  2  0  0  0  0
 17 18  2  0  0  0  0
 17 46  1  0  0  0  0
 18 19  1  0  0  0  0
 18 47  1  0  0  0  0
 19 20  1  0  0  0  0
 19 35  2  0  0  0  0
 20 21  1  0  0  0  0
 20 48  1  0  0  0  0
 21 22  2  0  0  0  0
 21 23  1  0  0  0  0
 23 24  1  0  0  0  0
 23 49  1  0  0  0  0
 24 25  1  0  0  0  0
 24 33  2  0  0  0  0
 25 26  2  0  0  0  0
 25 50  1  0  0  0  0
 26 27  1  0  0  0  0
 26 31  1  0  0  0  0
 27 28  1  0  0  0  0
 27 29  1  0  0  0  0
 27 30  1  0  0  0  0
 31 32  2  0  0  0  0
 31 51  1  0  0  0  0
 32 33  1  0  0  0  0
 32 52  1  0  0  0  0
 33 34  1  0  0  0  0
 35 36  1  0  0  0  0
 35 53  1  0  0  0  0
 36 54  1  0  0  0  0
M  END
$$$$
