CHEMBL189059
 OpenBabel04072215363D

 79 82  0  0  0  0  0  0  0  0999 V2000
    1.2716    2.4500    4.4482 C   0  0  0  0  0  0  0  0  0  0  0  0
    2.6379    2.2419    4.1278 O   0  0  0  0  0  0  0  0  0  0  0  0
    2.9653    2.3169    2.8010 C   0  0  0  0  0  0  0  0  0  0  0  0
    2.0736    2.4861    1.7460 C   0  0  0  0  0  0  0  0  0  0  0  0
    2.5539    2.6126    0.4470 C   0  0  0  0  0  0  0  0  0  0  0  0
    1.7753    2.8497   -0.6532 O   0  0  0  0  0  0  0  0  0  0  0  0
    0.5819    3.5891   -0.4031 C   0  0  0  0  0  0  0  0  0  0  0  0
    3.9254    2.5131    0.2037 C   0  0  0  0  0  0  0  0  0  0  0  0
    4.8570    2.3679    1.2516 C   0  0  0  0  0  0  0  0  0  0  0  0
    6.3155    2.4870    1.0026 C   0  0  0  0  0  0  0  0  0  0  0  0
    6.7301    3.3930    0.0099 C   0  0  0  0  0  0  0  0  0  0  0  0
    8.0752    3.6202   -0.2352 C   0  0  0  0  0  0  0  0  0  0  0  0
    8.5137    4.4970   -1.2136 C   0  0  0  0  0  0  0  0  0  0  0  0
    9.8018    4.7338   -1.4609 N   0  0  0  0  0  0  0  0  0  0  0  0
   10.6830    3.9973   -0.7788 C   0  0  0  0  0  0  0  0  0  0  0  0
   11.9769    4.1561   -1.2124 N   0  0  0  0  0  0  0  0  0  0  0  0
   12.9715    3.1390   -0.9880 C   0  0  0  0  0  0  0  0  0  0  0  0
   14.0345    3.2462   -2.0941 C   0  0  0  0  0  0  0  0  0  0  0  0
   15.1077    2.1616   -1.9350 C   0  0  0  0  0  0  0  0  0  0  0  0
   16.1644    2.1886   -2.9625 N   0  0  0  0  0  0  0  0  0  0  0  0
   16.9084    3.4618   -2.9928 C   0  0  0  0  0  0  0  0  0  0  0  0
   18.0525    3.4481   -4.0339 C   0  0  0  0  0  0  0  0  0  0  0  0
   19.0278    2.3542   -3.8694 N   0  0  0  0  0  0  0  0  0  0  0  0
   19.9011    2.5822   -2.7212 C   0  0  0  0  0  0  0  0  0  0  0  0
   18.2943    1.0768   -3.7585 C   0  0  0  0  0  0  0  0  0  0  0  0
   17.1181    1.0751   -2.7486 C   0  0  0  0  0  0  0  0  0  0  0  0
   10.3520    3.1433    0.2035 N   0  0  0  0  0  0  0  0  0  0  0  0
    9.0546    2.9681    0.5068 C   0  0  0  0  0  0  0  0  0  0  0  0
    8.6753    2.1612    1.5294 N   0  0  0  0  0  0  0  0  0  0  0  0
    7.3510    1.8839    1.7403 C   0  0  0  0  0  0  0  0  0  0  0  0
    7.0555    1.0284    2.8498 N   0  0  0  0  0  0  0  0  0  0  0  0
    6.9368   -0.3369    2.6197 C   0  0  0  0  0  0  0  0  0  0  0  0
    7.0257   -0.8471    1.4998 O   0  0  0  0  0  0  0  0  0  0  0  0
    6.7288   -1.0709    3.7802 N   0  0  0  0  0  0  0  0  0  0  0  0
    6.6604   -2.5639    3.8074 C   0  0  0  0  0  0  0  0  0  0  0  0
    8.0102   -3.1584    3.3644 C   0  0  0  0  0  0  0  0  0  0  0  0
    6.3545   -3.0928    5.2341 C   0  0  0  0  0  0  0  0  0  0  0  0
    5.5587   -3.1175    2.8904 C   0  0  0  0  0  0  0  0  0  0  0  0
    4.3366    2.2575    2.5475 C   0  0  0  0  0  0  0  0  0  0  0  0
    1.1863    2.5023    5.5378 H   0  0  0  0  0  0  0  0  0  0  0  0
    0.6675    1.6064    4.0980 H   0  0  0  0  0  0  0  0  0  0  0  0
    0.9016    3.3984    4.0429 H   0  0  0  0  0  0  0  0  0  0  0  0
    1.0065    2.5304    1.9244 H   0  0  0  0  0  0  0  0  0  0  0  0
    0.2972    4.0904   -1.3324 H   0  0  0  0  0  0  0  0  0  0  0  0
    0.7232    4.3661    0.3574 H   0  0  0  0  0  0  0  0  0  0  0  0
   -0.2288    2.9114   -0.1171 H   0  0  0  0  0  0  0  0  0  0  0  0
    4.2560    2.6046   -0.8305 H   0  0  0  0  0  0  0  0  0  0  0  0
    6.0038    3.9605   -0.5610 H   0  0  0  0  0  0  0  0  0  0  0  0
    7.8195    5.0370   -1.8476 H   0  0  0  0  0  0  0  0  0  0  0  0
   12.2498    5.1292   -1.2092 H   0  0  0  0  0  0  0  0  0  0  0  0
   12.5223    2.1404   -1.0336 H   0  0  0  0  0  0  0  0  0  0  0  0
   13.4345    3.2692   -0.0047 H   0  0  0  0  0  0  0  0  0  0  0  0
   14.4779    4.2480   -2.0522 H   0  0  0  0  0  0  0  0  0  0  0  0
   13.5592    3.1546   -3.0814 H   0  0  0  0  0  0  0  0  0  0  0  0
   14.6020    1.1882   -1.9933 H   0  0  0  0  0  0  0  0  0  0  0  0
   15.5492    2.2352   -0.9333 H   0  0  0  0  0  0  0  0  0  0  0  0
   17.3133    3.6910   -1.9988 H   0  0  0  0  0  0  0  0  0  0  0  0
   16.2413    4.2838   -3.2710 H   0  0  0  0  0  0  0  0  0  0  0  0
   18.5666    4.4172   -4.0250 H   0  0  0  0  0  0  0  0  0  0  0  0
   17.6107    3.3609   -5.0359 H   0  0  0  0  0  0  0  0  0  0  0  0
   20.4290    3.5370   -2.8273 H   0  0  0  0  0  0  0  0  0  0  0  0
   20.6727    1.8062   -2.6717 H   0  0  0  0  0  0  0  0  0  0  0  0
   19.3696    2.5947   -1.7646 H   0  0  0  0  0  0  0  0  0  0  0  0
   18.9904    0.2646   -3.5129 H   0  0  0  0  0  0  0  0  0  0  0  0
   17.8969    0.8316   -4.7524 H   0  0  0  0  0  0  0  0  0  0  0  0
   17.5241    1.1153   -1.7291 H   0  0  0  0  0  0  0  0  0  0  0  0
   16.5902    0.1184   -2.8459 H   0  0  0  0  0  0  0  0  0  0  0  0
    7.7028    1.1785    3.6104 H   0  0  0  0  0  0  0  0  0  0  0  0
    6.2201   -0.5747    4.5038 H   0  0  0  0  0  0  0  0  0  0  0  0
    8.8264   -2.8227    4.0142 H   0  0  0  0  0  0  0  0  0  0  0  0
    8.2620   -2.8602    2.3417 H   0  0  0  0  0  0  0  0  0  0  0  0
    7.9900   -4.2542    3.3824 H   0  0  0  0  0  0  0  0  0  0  0  0
    7.1299   -2.8233    5.9578 H   0  0  0  0  0  0  0  0  0  0  0  0
    6.2824   -4.1905    5.2355 H   0  0  0  0  0  0  0  0  0  0  0  0
    5.3979   -2.7137    5.6092 H   0  0  0  0  0  0  0  0  0  0  0  0
    5.7666   -2.9118    1.8337 H   0  0  0  0  0  0  0  0  0  0  0  0
    4.5815   -2.6892    3.1322 H   0  0  0  0  0  0  0  0  0  0  0  0
    5.4830   -4.2073    2.9845 H   0  0  0  0  0  0  0  0  0  0  0  0
    4.9942    2.1690    3.4060 H   0  0  0  0  0  0  0  0  0  0  0  0
  1  2  1  0  0  0  0
  1 40  1  0  0  0  0
  1 41  1  0  0  0  0
  1 42  1  0  0  0  0
  2  3  1  0  0  0  0
  3  4  1  0  0  0  0
  3 39  2  0  0  0  0
  4  5  2  0  0  0  0
  4 43  1  0  0  0  0
  5  6  1  0  0  0  0
  5  8  1  0  0  0  0
  6  7  1  0  0  0  0
  7 44  1  0  0  0  0
  7 45  1  0  0  0  0
  7 46  1  0  0  0  0
  8  9  2  0  0  0  0
  8 47  1  0  0  0  0
  9 10  1  0  0  0  0
  9 39  1  0  0  0  0
 10 11  1  0  0  0  0
 10 30  2  0  0  0  0
 11 12  2  0  0  0  0
 11 48  1  0  0  0  0
 12 13  1  0  0  0  0
 12 28  1  0  0  0  0
 13 14  2  0  0  0  0
 13 49  1  0  0  0  0
 14 15  1  0  0  0  0
 15 16  1  0  0  0  0
 15 27  2  0  0  0  0
 16 17  1  0  0  0  0
 16 50  1  0  0  0  0
 17 18  1  0  0  0  0
 17 51  1  0  0  0  0
 17 52  1  0  0  0  0
 18 19  1  0  0  0  0
 18 53  1  0  0  0  0
 18 54  1  0  0  0  0
 19 20  1  0  0  0  0
 19 55  1  0  0  0  0
 19 56  1  0  0  0  0
 20 21  1  0  0  0  0
 20 26  1  0  0  0  0
 21 22  1  0  0  0  0
 21 57  1  0  0  0  0
 21 58  1  0  0  0  0
 22 23  1  0  0  0  0
 22 59  1  0  0  0  0
 22 60  1  0  0  0  0
 23 24  1  0  0  0  0
 23 25  1  0  0  0  0
 24 61  1  0  0  0  0
 24 62  1  0  0  0  0
 24 63  1  0  0  0  0
 25 26  1  0  0  0  0
 25 64  1  0  0  0  0
 25 65  1  0  0  0  0
 26 66  1  0  0  0  0
 26 67  1  0  0  0  0
 27 28  1  0  0  0  0
 28 29  2  0  0  0  0
 29 30  1  0  0  0  0
 30 31  1  0  0  0  0
 31 32  1  0  0  0  0
 31 68  1  0  0  0  0
 32 33  2  0  0  0  0
 32 34  1  0  0  0  0
 34 35  1  0  0  0  0
 34 69  1  0  0  0  0
 35 36  1  0  0  0  0
 35 37  1  0  0  0  0
 35 38  1  0  0  0  0
 36 70  1  0  0  0  0
 36 71  1  0  0  0  0
 36 72  1  0  0  0  0
 37 73  1  0  0  0  0
 37 74  1  0  0  0  0
 37 75  1  0  0  0  0
 38 76  1  0  0  0  0
 38 77  1  0  0  0  0
 38 78  1  0  0  0  0
 39 79  1  0  0  0  0
M  END
$$$$
