CHEMBL3907423
 OpenBabel04072215373D

 50 54  0  0  0  0  0  0  0  0999 V2000
    8.1432    0.6562    0.8777 O   0  0  0  0  0  0  0  0  0  0  0  0
    7.3255   -0.2147    0.5857 C   0  0  0  0  0  0  0  0  0  0  0  0
    7.5643   -1.5597    0.7858 N   0  0  0  0  0  0  0  0  0  0  0  0
    8.8218   -2.0385    1.2700 C   0  0  0  0  0  0  0  0  0  0  0  0
    9.0860   -3.5102    1.4252 C   0  0  0  0  0  0  0  0  0  0  0  0
    8.9328   -2.6429    2.6406 C   0  0  0  0  0  0  0  0  0  0  0  0
    6.0599    0.1765   -0.1085 C   0  0  0  0  0  0  0  0  0  0  0  0
    6.1850    1.3178   -0.9352 C   0  0  0  0  0  0  0  0  0  0  0  0
    5.1164    1.7865   -1.6951 C   0  0  0  0  0  0  0  0  0  0  0  0
    3.9041    1.1219   -1.6481 C   0  0  0  0  0  0  0  0  0  0  0  0
    3.7578   -0.0081   -0.8338 C   0  0  0  0  0  0  0  0  0  0  0  0
    4.8172   -0.4848   -0.0377 C   0  0  0  0  0  0  0  0  0  0  0  0
    4.4769   -1.9564    0.9376 S   0  0  0  0  0  0  0  0  0  0  0  0
    3.2706   -1.3791    2.1333 C   0  0  0  0  0  0  0  0  0  0  0  0
    1.9107   -1.2341    1.8141 C   0  0  0  0  0  0  0  0  0  0  0  0
    0.9921   -0.6793    2.7311 C   0  0  0  0  0  0  0  0  0  0  0  0
    1.4319   -0.4414    4.0460 C   0  0  0  0  0  0  0  0  0  0  0  0
    1.0196    0.2471    5.2388 C   0  0  0  0  0  0  0  0  0  0  0  0
    0.9797    1.6910    5.4327 C   0  0  0  0  0  0  0  0  0  0  0  0
    1.5673    2.5640    4.5899 C   0  0  0  0  0  0  0  0  0  0  0  0
    2.4082    3.6799    5.0830 C   0  0  0  0  0  0  0  0  0  0  0  0
    3.0158    4.5422    4.1750 C   0  0  0  0  0  0  0  0  0  0  0  0
    4.0078    5.4152    4.6258 C   0  0  0  0  0  0  0  0  0  0  0  0
    4.3777    5.3983    5.9641 C   0  0  0  0  0  0  0  0  0  0  0  0
    3.7233    4.5161    6.8044 C   0  0  0  0  0  0  0  0  0  0  0  0
    2.7494    3.6689    6.3963 N   0  0  0  0  0  0  0  0  0  0  0  0
    1.5542   -0.4281    6.2765 N   0  0  0  0  0  0  0  0  0  0  0  0
    2.7384   -0.8028    5.7561 N   0  0  0  0  0  0  0  0  0  0  0  0
    2.7227   -0.8388    4.3857 C   0  0  0  0  0  0  0  0  0  0  0  0
    3.6999   -1.1826    3.4494 C   0  0  0  0  0  0  0  0  0  0  0  0
    6.8475   -2.2282    0.5290 H   0  0  0  0  0  0  0  0  0  0  0  0
    9.6667   -1.4384    0.9324 H   0  0  0  0  0  0  0  0  0  0  0  0
   10.0802   -3.8710    1.1845 H   0  0  0  0  0  0  0  0  0  0  0  0
    8.2933   -4.2112    1.1967 H   0  0  0  0  0  0  0  0  0  0  0  0
    9.8201   -2.4094    3.2182 H   0  0  0  0  0  0  0  0  0  0  0  0
    8.0310   -2.7418    3.2314 H   0  0  0  0  0  0  0  0  0  0  0  0
    7.1395    1.8401   -1.0016 H   0  0  0  0  0  0  0  0  0  0  0  0
    5.2408    2.6623   -2.3324 H   0  0  0  0  0  0  0  0  0  0  0  0
    3.0660    1.4675   -2.2426 H   0  0  0  0  0  0  0  0  0  0  0  0
    2.7991   -0.5135   -0.8445 H   0  0  0  0  0  0  0  0  0  0  0  0
    1.5434   -1.5414    0.8377 H   0  0  0  0  0  0  0  0  0  0  0  0
   -0.0469   -0.5241    2.4522 H   0  0  0  0  0  0  0  0  0  0  0  0
    0.8919    1.9769    6.4833 H   0  0  0  0  0  0  0  0  0  0  0  0
    1.7314    2.3050    3.5493 H   0  0  0  0  0  0  0  0  0  0  0  0
    2.7658    4.5100    3.1205 H   0  0  0  0  0  0  0  0  0  0  0  0
    4.5112    6.0793    3.9287 H   0  0  0  0  0  0  0  0  0  0  0  0
    5.1640    6.0446    6.3395 H   0  0  0  0  0  0  0  0  0  0  0  0
    3.9876    4.4483    7.8565 H   0  0  0  0  0  0  0  0  0  0  0  0
    3.4825   -1.0661    6.3879 H   0  0  0  0  0  0  0  0  0  0  0  0
    4.7315   -1.3324    3.7470 H   0  0  0  0  0  0  0  0  0  0  0  0
  1  2  2  0  0  0  0
  2  3  1  0  0  0  0
  2  7  1  0  0  0  0
  3  4  1  0  0  0  0
  3 31  1  0  0  0  0
  4  5  1  0  0  0  0
  4  6  1  0  0  0  0
  4 32  1  0  0  0  0
  5  6  1  0  0  0  0
  5 33  1  0  0  0  0
  5 34  1  0  0  0  0
  6 35  1  0  0  0  0
  6 36  1  0  0  0  0
  7  8  1  0  0  0  0
  7 12  2  0  0  0  0
  8  9  2  0  0  0  0
  8 37  1  0  0  0  0
  9 10  1  0  0  0  0
  9 38  1  0  0  0  0
 10 11  2  0  0  0  0
 10 39  1  0  0  0  0
 11 12  1  0  0  0  0
 11 40  1  0  0  0  0
 12 13  1  0  0  0  0
 13 14  1  0  0  0  0
 14 15  1  0  0  0  0
 14 30  2  0  0  0  0
 15 16  2  0  0  0  0
 15 41  1  0  0  0  0
 16 17  1  0  0  0  0
 16 42  1  0  0  0  0
 17 18  1  0  0  0  0
 17 29  2  0  0  0  0
 18 19  1  0  0  0  0
 18 27  2  0  0  0  0
 19 20  2  0  0  0  0
 19 43  1  0  0  0  0
 20 21  1  0  0  0  0
 20 44  1  0  0  0  0
 21 22  1  0  0  0  0
 21 26  2  0  0  0  0
 22 23  2  0  0  0  0
 22 45  1  0  0  0  0
 23 24  1  0  0  0  0
 23 46  1  0  0  0  0
 24 25  2  0  0  0  0
 24 47  1  0  0  0  0
 25 26  1  0  0  0  0
 25 48  1  0  0  0  0
 27 28  1  0  0  0  0
 28 29  1  0  0  0  0
 28 49  1  0  0  0  0
 29 30  1  0  0  0  0
 30 50  1  0  0  0  0
M  END
$$$$
