CHEMBL3656094
 OpenBabel04072215373D

 64 68  0  0  1  0  0  0  0  0999 V2000
    0.8851  -10.1584   -2.7762 C   0  0  0  0  0  0  0  0  0  0  0  0
   -0.5939   -9.9224   -2.6695 C   0  0  0  0  0  0  0  0  0  0  0  0
   -1.4822  -10.9367   -3.0378 C   0  0  0  0  0  0  0  0  0  0  0  0
   -2.8517  -10.7348   -2.9431 C   0  0  0  0  0  0  0  0  0  0  0  0
   -3.3472   -9.5160   -2.4801 C   0  0  0  0  0  0  0  0  0  0  0  0
   -2.4867   -8.4825   -2.0946 C   0  0  0  0  0  0  0  0  0  0  0  0
   -2.9581   -7.2259   -1.6308 N   0  0  0  0  0  0  0  0  0  0  0  0
   -4.2768   -6.9152   -1.3386 C   0  0  0  0  0  0  0  0  0  0  0  0
   -5.2084   -7.7125   -1.3366 O   0  0  0  0  0  0  0  0  0  0  0  0
   -4.4537   -5.5623   -1.0804 N   0  0  0  0  0  0  0  0  0  0  0  0
   -5.7407   -5.0414   -0.7737 C   0  0  0  0  0  0  0  0  0  0  0  0
   -6.6354   -5.7044    0.0717 C   0  0  0  0  0  0  0  0  0  0  0  0
   -7.9180   -5.1867    0.2877 C   0  0  0  0  0  0  0  0  0  0  0  0
   -8.3218   -4.0078   -0.3444 C   0  0  0  0  0  0  0  0  0  0  0  0
   -9.6002   -3.5834   -0.0593 O   0  0  0  0  0  0  0  0  0  0  0  0
  -10.3255   -2.8924   -1.0017 C   0  0  0  0  0  0  0  0  0  0  0  0
  -10.2863   -3.1413   -2.3678 C   0  0  0  0  0  0  0  0  0  0  0  0
  -11.0803   -2.3632   -3.1943 C   0  0  0  0  0  0  0  0  0  0  0  0
  -11.9299   -1.4100   -2.7522 N   0  0  0  0  0  0  0  0  0  0  0  0
  -12.0057   -1.2380   -1.4123 C   0  0  0  0  0  0  0  0  0  0  0  0
  -12.9694   -0.2317   -0.9832 C   0  0  0  0  0  0  0  0  0  0  0  0
  -13.4249    0.1120    0.2750 C   0  0  0  0  0  0  0  0  0  0  0  0
  -14.3150    1.2203    0.1707 C   0  0  0  0  0  0  0  0  0  0  0  0
  -15.0337    1.9240    1.2328 C   0  0  0  0  0  0  0  0  0  0  0  0
  -16.1605    2.3793    1.0426 O   0  0  0  0  0  0  0  0  0  0  0  0
  -14.4232    2.0067    2.4763 N   0  0  0  0  0  0  0  0  0  0  0  0
  -15.1814    2.4491    3.6365 C   0  0  0  0  0  0  0  0  0  0  0  0
  -14.1580    2.5905    4.7643 C   0  0  0  0  0  0  0  0  0  0  0  0
  -12.9658    1.7732    4.2804 C   0  0  1  0  0  0  0  0  0  0  0  0
  -13.1725    0.3874    4.5641 O   0  0  0  0  0  0  0  0  0  0  0  0
  -12.9925    2.0140    2.7752 C   0  0  0  0  0  0  0  0  0  0  0  0
  -14.4724    1.4364   -1.1878 C   0  0  0  0  0  0  0  0  0  0  0  0
  -13.6587    0.5670   -1.8682 N   0  0  0  0  0  0  0  0  0  0  0  0
  -11.2265   -1.9506   -0.5091 C   0  0  0  0  0  0  0  0  0  0  0  0
   -7.4130   -3.3093   -1.1411 C   0  0  0  0  0  0  0  0  0  0  0  0
   -6.1372   -3.8330   -1.3507 C   0  0  0  0  0  0  0  0  0  0  0  0
   -5.2980   -3.1887   -2.1772 F   0  0  0  0  0  0  0  0  0  0  0  0
   -1.1029   -8.6953   -2.1965 C   0  0  0  0  0  0  0  0  0  0  0  0
    1.0996  -11.1523   -3.1856 H   0  0  0  0  0  0  0  0  0  0  0  0
    1.3522  -10.0993   -1.7888 H   0  0  0  0  0  0  0  0  0  0  0  0
    1.3423   -9.4220   -3.4445 H   0  0  0  0  0  0  0  0  0  0  0  0
   -1.1145  -11.8933   -3.4040 H   0  0  0  0  0  0  0  0  0  0  0  0
   -3.5465  -11.5195   -3.2297 H   0  0  0  0  0  0  0  0  0  0  0  0
   -4.4247   -9.4122   -2.4411 H   0  0  0  0  0  0  0  0  0  0  0  0
   -2.2646   -6.5442   -1.3615 H   0  0  0  0  0  0  0  0  0  0  0  0
   -3.8554   -4.9413   -1.6113 H   0  0  0  0  0  0  0  0  0  0  0  0
   -6.3520   -6.6314    0.5664 H   0  0  0  0  0  0  0  0  0  0  0  0
   -8.6043   -5.7172    0.9451 H   0  0  0  0  0  0  0  0  0  0  0  0
   -9.6547   -3.9114   -2.7944 H   0  0  0  0  0  0  0  0  0  0  0  0
  -11.0536   -2.4928   -4.2728 H   0  0  0  0  0  0  0  0  0  0  0  0
  -13.1409   -0.3907    1.1889 H   0  0  0  0  0  0  0  0  0  0  0  0
  -15.9302    1.6823    3.8633 H   0  0  0  0  0  0  0  0  0  0  0  0
  -15.6947    3.3929    3.4283 H   0  0  0  0  0  0  0  0  0  0  0  0
  -14.5619    2.2457    5.7205 H   0  0  0  0  0  0  0  0  0  0  0  0
  -13.8675    3.6430    4.8618 H   0  0  0  0  0  0  0  0  0  0  0  0
  -12.0217    2.0747    4.7409 H   0  0  0  0  0  0  0  0  0  0  0  0
  -13.9412    0.0943    4.0399 H   0  0  0  0  0  0  0  0  0  0  0  0
  -12.4224    1.2694    2.2278 H   0  0  0  0  0  0  0  0  0  0  0  0
  -12.6117    3.0095    2.5209 H   0  0  0  0  0  0  0  0  0  0  0  0
  -15.1062    2.1326   -1.7230 H   0  0  0  0  0  0  0  0  0  0  0  0
  -13.5683    0.4888   -2.8742 H   0  0  0  0  0  0  0  0  0  0  0  0
  -11.3023   -1.7828    0.5590 H   0  0  0  0  0  0  0  0  0  0  0  0
   -7.6766   -2.3731   -1.6197 H   0  0  0  0  0  0  0  0  0  0  0  0
   -0.4028   -7.9136   -1.9113 H   0  0  0  0  0  0  0  0  0  0  0  0
  1  2  1  0  0  0  0
  1 39  1  0  0  0  0
  1 40  1  0  0  0  0
  1 41  1  0  0  0  0
  2  3  1  0  0  0  0
  2 38  2  0  0  0  0
  3  4  2  0  0  0  0
  3 42  1  0  0  0  0
  4  5  1  0  0  0  0
  4 43  1  0  0  0  0
  5  6  2  0  0  0  0
  5 44  1  0  0  0  0
  6  7  1  0  0  0  0
  6 38  1  0  0  0  0
  7  8  1  0  0  0  0
  7 45  1  0  0  0  0
  8  9  2  0  0  0  0
  8 10  1  0  0  0  0
 10 11  1  0  0  0  0
 10 46  1  0  0  0  0
 11 12  1  0  0  0  0
 11 36  2  0  0  0  0
 12 13  2  0  0  0  0
 12 47  1  0  0  0  0
 13 14  1  0  0  0  0
 13 48  1  0  0  0  0
 14 15  1  0  0  0  0
 14 35  2  0  0  0  0
 15 16  1  0  0  0  0
 16 17  1  0  0  0  0
 16 34  2  0  0  0  0
 17 18  2  0  0  0  0
 17 49  1  0  0  0  0
 18 19  1  0  0  0  0
 18 50  1  0  0  0  0
 19 20  2  0  0  0  0
 20 21  1  0  0  0  0
 20 34  1  0  0  0  0
 21 22  2  0  0  0  0
 21 33  1  0  0  0  0
 22 23  1  0  0  0  0
 22 51  1  0  0  0  0
 23 24  1  0  0  0  0
 23 32  2  0  0  0  0
 24 25  2  0  0  0  0
 24 26  1  0  0  0  0
 26 27  1  0  0  0  0
 26 31  1  0  0  0  0
 27 28  1  0  0  0  0
 27 52  1  0  0  0  0
 27 53  1  0  0  0  0
 28 29  1  0  0  0  0
 28 54  1  0  0  0  0
 28 55  1  0  0  0  0
 29 30  1  0  0  0  0
 29 31  1  0  0  0  0
 29 56  1  1  0  0  0
 30 57  1  0  0  0  0
 31 58  1  0  0  0  0
 31 59  1  0  0  0  0
 32 33  1  0  0  0  0
 32 60  1  0  0  0  0
 33 61  1  0  0  0  0
 34 62  1  0  0  0  0
 35 36  1  0  0  0  0
 35 63  1  0  0  0  0
 36 37  1  0  0  0  0
 38 64  1  0  0  0  0
M  END
$$$$
