CHEMBL4237916
 OpenBabel04072215383D

 41 43  0  0  0  0  0  0  0  0999 V2000
    2.6637   -2.8416   -0.7301 C   0  0  0  0  0  0  0  0  0  0  0  0
    2.2836   -1.4663   -0.2046 C   0  0  0  0  0  0  0  0  0  0  0  0
    3.0129   -1.0661    1.0884 C   0  0  0  0  0  0  0  0  0  0  0  0
    4.4830   -0.9616    0.9537 N   0  0  0  0  0  0  0  0  0  0  0  0
    5.0183   -0.0952   -0.0185 C   0  0  0  0  0  0  0  0  0  0  0  0
    4.4122    1.1270   -0.3435 C   0  0  0  0  0  0  0  0  0  0  0  0
    5.0182    2.0378   -1.2170 C   0  0  0  0  0  0  0  0  0  0  0  0
    6.2487    1.7427   -1.7967 C   0  0  0  0  0  0  0  0  0  0  0  0
    6.9755    2.5736   -2.6021 O   0  0  0  0  0  0  0  0  0  0  0  0
    6.3910    3.8348   -2.9036 C   0  0  0  0  0  0  0  0  0  0  0  0
    6.8364    0.5065   -1.5395 C   0  0  0  0  0  0  0  0  0  0  0  0
    6.2209   -0.4062   -0.6746 C   0  0  0  0  0  0  0  0  0  0  0  0
    5.2216   -1.7294    1.8917 C   0  0  0  0  0  0  0  0  0  0  0  0
    4.6760   -2.9126    2.3115 N   0  0  0  0  0  0  0  0  0  0  0  0
    5.3622   -3.7309    3.1226 C   0  0  0  0  0  0  0  0  0  0  0  0
    6.5889   -3.5530    3.5998 N   0  0  0  0  0  0  0  0  0  0  0  0
    7.0904   -2.3723    3.2302 C   0  0  0  0  0  0  0  0  0  0  0  0
    8.3297   -1.9809    3.6291 O   0  0  0  0  0  0  0  0  0  0  0  0
    8.5236   -0.7308    3.1614 C   0  0  0  0  0  0  0  0  0  0  0  0
    7.4111   -0.2724    2.4852 C   0  0  0  0  0  0  0  0  0  0  0  0
    7.2861    1.1153    1.9741 C   0  0  0  0  0  0  0  0  0  0  0  0
    6.4890   -1.3893    2.4409 C   0  0  0  0  0  0  0  0  0  0  0  0
    2.0567   -3.0860   -1.6094 H   0  0  0  0  0  0  0  0  0  0  0  0
    2.4874   -3.6156    0.0229 H   0  0  0  0  0  0  0  0  0  0  0  0
    3.7142   -2.8781   -1.0315 H   0  0  0  0  0  0  0  0  0  0  0  0
    1.2055   -1.4632    0.0005 H   0  0  0  0  0  0  0  0  0  0  0  0
    2.4412   -0.7263   -0.9958 H   0  0  0  0  0  0  0  0  0  0  0  0
    2.7063   -1.7737    1.8689 H   0  0  0  0  0  0  0  0  0  0  0  0
    2.6167   -0.1047    1.4388 H   0  0  0  0  0  0  0  0  0  0  0  0
    3.4736    1.4213    0.1160 H   0  0  0  0  0  0  0  0  0  0  0  0
    4.5082    2.9778   -1.3967 H   0  0  0  0  0  0  0  0  0  0  0  0
    7.0698    4.3671   -3.5767 H   0  0  0  0  0  0  0  0  0  0  0  0
    6.2704    4.4415   -2.0012 H   0  0  0  0  0  0  0  0  0  0  0  0
    5.4358    3.7068   -3.4253 H   0  0  0  0  0  0  0  0  0  0  0  0
    7.8016    0.2627   -1.9763 H   0  0  0  0  0  0  0  0  0  0  0  0
    6.7200   -1.3543   -0.4848 H   0  0  0  0  0  0  0  0  0  0  0  0
    4.8590   -4.6464    3.4169 H   0  0  0  0  0  0  0  0  0  0  0  0
    9.4751   -0.2817    3.4136 H   0  0  0  0  0  0  0  0  0  0  0  0
    7.8922    1.8018    2.5768 H   0  0  0  0  0  0  0  0  0  0  0  0
    6.2559    1.4747    2.0209 H   0  0  0  0  0  0  0  0  0  0  0  0
    7.6682    1.1949    0.9556 H   0  0  0  0  0  0  0  0  0  0  0  0
  1  2  1  0  0  0  0
  1 23  1  0  0  0  0
  1 24  1  0  0  0  0
  1 25  1  0  0  0  0
  2  3  1  0  0  0  0
  2 26  1  0  0  0  0
  2 27  1  0  0  0  0
  3  4  1  0  0  0  0
  3 28  1  0  0  0  0
  3 29  1  0  0  0  0
  4  5  1  0  0  0  0
  4 13  1  0  0  0  0
  5  6  1  0  0  0  0
  5 12  2  0  0  0  0
  6  7  2  0  0  0  0
  6 30  1  0  0  0  0
  7  8  1  0  0  0  0
  7 31  1  0  0  0  0
  8  9  1  0  0  0  0
  8 11  2  0  0  0  0
  9 10  1  0  0  0  0
 10 32  1  0  0  0  0
 10 33  1  0  0  0  0
 10 34  1  0  0  0  0
 11 12  1  0  0  0  0
 11 35  1  0  0  0  0
 12 36  1  0  0  0  0
 13 14  1  0  0  0  0
 13 22  2  0  0  0  0
 14 15  2  0  0  0  0
 15 16  1  0  0  0  0
 15 37  1  0  0  0  0
 16 17  2  0  0  0  0
 17 18  1  0  0  0  0
 17 22  1  0  0  0  0
 18 19  1  0  0  0  0
 19 20  2  0  0  0  0
 19 38  1  0  0  0  0
 20 21  1  0  0  0  0
 20 22  1  0  0  0  0
 21 39  1  0  0  0  0
 21 40  1  0  0  0  0
 21 41  1  0  0  0  0
M  END
$$$$
