CHEMBL1994808
 OpenBabel04072215363D

 23 24  0  0  0  0  0  0  0  0999 V2000
    0.9876   -0.0805   -0.0749 C   0  0  0  0  0  0  0  0  0  0  0  0
    2.4775    0.0260   -0.0833 C   0  0  0  0  0  0  0  0  0  0  0  0
    3.2103   -1.1018   -0.0312 N   0  0  0  0  0  0  0  0  0  0  0  0
    4.5826   -1.0209   -0.0077 N   0  0  0  0  0  0  0  0  0  0  0  0
    5.1945    0.1846   -0.0382 C   0  0  0  0  0  0  0  0  0  0  0  0
    6.6741    0.1554   -0.0063 C   0  0  0  0  0  0  0  0  0  0  0  0
    7.3828   -0.8942   -0.6263 C   0  0  0  0  0  0  0  0  0  0  0  0
    8.7824   -0.9241   -0.6479 C   0  0  0  0  0  0  0  0  0  0  0  0
    9.5111    0.0979   -0.0500 C   0  0  0  0  0  0  0  0  0  0  0  0
    8.8417    1.1278    0.5992 C   0  0  0  0  0  0  0  0  0  0  0  0
    7.4433    1.1431    0.6387 C   0  0  0  0  0  0  0  0  0  0  0  0
    4.3756    1.3024   -0.1192 C   0  0  0  0  0  0  0  0  0  0  0  0
    4.8862    2.6378   -0.2300 C   0  0  0  0  0  0  0  0  0  0  0  0
    5.3080    3.7181   -0.2973 N   0  0  0  0  0  0  0  0  0  0  0  0
    3.0156    1.2520   -0.1338 N   0  0  0  0  0  0  0  0  0  0  0  0
    0.6639   -1.1250   -0.0748 H   0  0  0  0  0  0  0  0  0  0  0  0
    0.5728    0.4132   -0.9592 H   0  0  0  0  0  0  0  0  0  0  0  0
    0.5886    0.4086    0.8191 H   0  0  0  0  0  0  0  0  0  0  0  0
    6.8449   -1.7095   -1.1103 H   0  0  0  0  0  0  0  0  0  0  0  0
    9.3011   -1.7452   -1.1370 H   0  0  0  0  0  0  0  0  0  0  0  0
   10.5976    0.0877   -0.0803 H   0  0  0  0  0  0  0  0  0  0  0  0
    9.4041    1.9249    1.0803 H   0  0  0  0  0  0  0  0  0  0  0  0
    6.9789    1.9515    1.1988 H   0  0  0  0  0  0  0  0  0  0  0  0
  1  2  1  0  0  0  0
  1 16  1  0  0  0  0
  1 17  1  0  0  0  0
  1 18  1  0  0  0  0
  2  3  1  0  0  0  0
  2 15  2  0  0  0  0
  3  4  2  0  0  0  0
  4  5  1  0  0  0  0
  5  6  1  0  0  0  0
  5 12  2  0  0  0  0
  6  7  1  0  0  0  0
  6 11  2  0  0  0  0
  7  8  2  0  0  0  0
  7 19  1  0  0  0  0
  8  9  1  0  0  0  0
  8 20  1  0  0  0  0
  9 10  2  0  0  0  0
  9 21  1  0  0  0  0
 10 11  1  0  0  0  0
 10 22  1  0  0  0  0
 11 23  1  0  0  0  0
 12 13  1  0  0  0  0
 12 15  1  0  0  0  0
 13 14  3  0  0  0  0
M  END
$$$$
