CHEMBL3981584
 OpenBabel04072215373D

 44 47  0  0  0  0  0  0  0  0999 V2000
    3.4819    0.3795    1.2684 O   0  0  0  0  0  0  0  0  0  0  0  0
    3.0702    0.5929    0.1317 C   0  0  0  0  0  0  0  0  0  0  0  0
    2.1623    1.5922   -0.1409 N   0  0  0  0  0  0  0  0  0  0  0  0
    1.6826    2.2967    0.9906 O   0  0  0  0  0  0  0  0  0  0  0  0
    3.5039   -0.2356   -1.0171 C   0  0  0  0  0  0  0  0  0  0  0  0
    3.8834   -1.5609   -0.7920 C   0  0  0  0  0  0  0  0  0  0  0  0
    4.3565   -2.3445   -1.8503 C   0  0  0  0  0  0  0  0  0  0  0  0
    4.4749   -1.8134   -3.1424 C   0  0  0  0  0  0  0  0  0  0  0  0
    5.0192   -2.6277   -4.2303 C   0  0  0  0  0  0  0  0  0  0  0  0
    5.0579   -4.0062   -4.4044 C   0  0  0  0  0  0  0  0  0  0  0  0
    5.6976   -4.2953   -5.6442 C   0  0  0  0  0  0  0  0  0  0  0  0
    6.0102   -5.4468   -6.3859 C   0  0  0  0  0  0  0  0  0  0  0  0
    5.7489   -6.7254   -5.9174 N   0  0  0  0  0  0  0  0  0  0  0  0
    5.4443   -7.7646   -6.8849 C   0  0  0  0  0  0  0  0  0  0  0  0
    4.0269   -8.2742   -6.7132 C   0  0  0  0  0  0  0  0  0  0  0  0
    2.9264   -7.4158   -6.8696 C   0  0  0  0  0  0  0  0  0  0  0  0
    1.6219   -7.9082   -6.7916 C   0  0  0  0  0  0  0  0  0  0  0  0
    1.3982   -9.2647   -6.5594 C   0  0  0  0  0  0  0  0  0  0  0  0
    2.4803  -10.1265   -6.3930 C   0  0  0  0  0  0  0  0  0  0  0  0
    3.7854   -9.6351   -6.4679 C   0  0  0  0  0  0  0  0  0  0  0  0
    6.6251   -5.2686   -7.5874 N   0  0  0  0  0  0  0  0  0  0  0  0
    6.9149   -4.0174   -7.9934 C   0  0  0  0  0  0  0  0  0  0  0  0
    6.6649   -2.8595   -7.3628 N   0  0  0  0  0  0  0  0  0  0  0  0
    6.0473   -3.0755   -6.1918 C   0  0  0  0  0  0  0  0  0  0  0  0
    5.6656   -2.0919   -5.3277 N   0  0  0  0  0  0  0  0  0  0  0  0
    4.0766   -0.4856   -3.3584 C   0  0  0  0  0  0  0  0  0  0  0  0
    3.5968    0.3014   -2.3051 C   0  0  0  0  0  0  0  0  0  0  0  0
    1.5423    1.5569   -0.9433 H   0  0  0  0  0  0  0  0  0  0  0  0
    2.2347    1.9239    1.7138 H   0  0  0  0  0  0  0  0  0  0  0  0
    3.8243   -1.9863    0.2087 H   0  0  0  0  0  0  0  0  0  0  0  0
    4.6562   -3.3695   -1.6419 H   0  0  0  0  0  0  0  0  0  0  0  0
    4.6482   -4.7377   -3.7207 H   0  0  0  0  0  0  0  0  0  0  0  0
    5.2317   -6.7734   -5.0502 H   0  0  0  0  0  0  0  0  0  0  0  0
    6.1508   -8.5865   -6.7184 H   0  0  0  0  0  0  0  0  0  0  0  0
    5.5708   -7.4573   -7.9303 H   0  0  0  0  0  0  0  0  0  0  0  0
    3.0835   -6.3583   -7.0736 H   0  0  0  0  0  0  0  0  0  0  0  0
    0.7773   -7.2368   -6.9276 H   0  0  0  0  0  0  0  0  0  0  0  0
    0.3831   -9.6506   -6.5160 H   0  0  0  0  0  0  0  0  0  0  0  0
    2.3071  -11.1858   -6.2195 H   0  0  0  0  0  0  0  0  0  0  0  0
    4.6158  -10.3287   -6.3514 H   0  0  0  0  0  0  0  0  0  0  0  0
    7.4149   -3.9346   -8.9541 H   0  0  0  0  0  0  0  0  0  0  0  0
    5.8501   -1.1142   -5.4898 H   0  0  0  0  0  0  0  0  0  0  0  0
    4.1331   -0.0387   -4.3482 H   0  0  0  0  0  0  0  0  0  0  0  0
    3.3391    1.3391   -2.5032 H   0  0  0  0  0  0  0  0  0  0  0  0
  1  2  2  0  0  0  0
  2  3  1  0  0  0  0
  2  5  1  0  0  0  0
  3  4  1  0  0  0  0
  3 28  1  0  0  0  0
  4 29  1  0  0  0  0
  5  6  1  0  0  0  0
  5 27  2  0  0  0  0
  6  7  2  0  0  0  0
  6 30  1  0  0  0  0
  7  8  1  0  0  0  0
  7 31  1  0  0  0  0
  8  9  1  0  0  0  0
  8 26  2  0  0  0  0
  9 10  2  0  0  0  0
  9 25  1  0  0  0  0
 10 11  1  0  0  0  0
 10 32  1  0  0  0  0
 11 12  1  0  0  0  0
 11 24  2  0  0  0  0
 12 13  1  0  0  0  0
 12 21  2  0  0  0  0
 13 14  1  0  0  0  0
 13 33  1  0  0  0  0
 14 15  1  0  0  0  0
 14 34  1  0  0  0  0
 14 35  1  0  0  0  0
 15 16  1  0  0  0  0
 15 20  2  0  0  0  0
 16 17  2  0  0  0  0
 16 36  1  0  0  0  0
 17 18  1  0  0  0  0
 17 37  1  0  0  0  0
 18 19  2  0  0  0  0
 18 38  1  0  0  0  0
 19 20  1  0  0  0  0
 19 39  1  0  0  0  0
 20 40  1  0  0  0  0
 21 22  1  0  0  0  0
 22 23  2  0  0  0  0
 22 41  1  0  0  0  0
 23 24  1  0  0  0  0
 24 25  1  0  0  0  0
 25 42  1  0  0  0  0
 26 27  1  0  0  0  0
 26 43  1  0  0  0  0
 27 44  1  0  0  0  0
M  END
$$$$
