CHEMBL3287601
 OpenBabel04072215363D

 67 71  0  0  0  0  0  0  0  0999 V2000
   15.1719  -10.3753   -2.9968 C   0  0  0  0  0  0  0  0  0  0  0  0
   14.3353   -8.8240   -3.2172 S   0  0  0  0  0  0  0  0  0  0  0  0
   15.2947   -7.7825   -2.8864 O   0  0  0  0  0  0  0  0  0  0  0  0
   13.6968   -8.8733   -4.5138 O   0  0  0  0  0  0  0  0  0  0  0  0
   13.0859   -8.8922   -1.9354 C   0  0  0  0  0  0  0  0  0  0  0  0
   12.2371   -7.6498   -1.9828 C   0  0  0  0  0  0  0  0  0  0  0  0
   11.1253   -7.6012   -2.8335 C   0  0  0  0  0  0  0  0  0  0  0  0
   10.3301   -6.4639   -2.8823 C   0  0  0  0  0  0  0  0  0  0  0  0
   10.6386   -5.3662   -2.0808 C   0  0  0  0  0  0  0  0  0  0  0  0
   11.7348   -5.3767   -1.2082 C   0  0  0  0  0  0  0  0  0  0  0  0
   12.0529   -4.2675   -0.3925 N   0  0  0  0  0  0  0  0  0  0  0  0
   11.1823   -3.2631    0.0880 C   0  0  0  0  0  0  0  0  0  0  0  0
   11.7197   -2.1098    0.6279 C   0  0  0  0  0  0  0  0  0  0  0  0
   10.8226   -1.1199    0.9652 C   0  0  0  0  0  0  0  0  0  0  0  0
   11.3275    0.0200    1.5883 O   0  0  0  0  0  0  0  0  0  0  0  0
   10.4772    0.6948    2.4412 C   0  0  0  0  0  0  0  0  0  0  0  0
    9.5548    0.0427    3.2616 C   0  0  0  0  0  0  0  0  0  0  0  0
    8.6778    0.7709    4.0634 C   0  0  0  0  0  0  0  0  0  0  0  0
    8.7428    2.1617    4.1139 C   0  0  0  0  0  0  0  0  0  0  0  0
    7.8697    2.9235    4.9179 N   0  0  0  0  0  0  0  0  0  0  0  0
    7.0391    2.4339    5.9146 C   0  0  0  0  0  0  0  0  0  0  0  0
    6.9415    1.2818    6.3134 O   0  0  0  0  0  0  0  0  0  0  0  0
    6.1937    3.4756    6.5772 C   0  0  0  0  0  0  0  0  0  0  0  0
    4.8668    3.7117    5.9274 C   0  0  0  0  0  0  0  0  0  0  0  0
    4.8209    4.5653    5.0494 O   0  0  0  0  0  0  0  0  0  0  0  0
    3.8159    2.9365    6.3933 N   0  0  0  0  0  0  0  0  0  0  0  0
    2.5048    2.9361    5.8556 C   0  0  0  0  0  0  0  0  0  0  0  0
    2.2100    3.4695    4.5940 C   0  0  0  0  0  0  0  0  0  0  0  0
    0.8982    3.5085    4.1155 C   0  0  0  0  0  0  0  0  0  0  0  0
   -0.1281    3.0047    4.8974 C   0  0  0  0  0  0  0  0  0  0  0  0
   -1.3900    3.0705    4.4534 F   0  0  0  0  0  0  0  0  0  0  0  0
    0.1409    2.4317    6.1351 C   0  0  0  0  0  0  0  0  0  0  0  0
    1.4602    2.3817    6.6090 C   0  0  0  0  0  0  0  0  0  0  0  0
    6.9247    4.6919    7.1572 C   0  0  0  0  0  0  0  0  0  0  0  0
    6.3311    3.6796    8.0838 C   0  0  0  0  0  0  0  0  0  0  0  0
    9.7008    2.8203    3.3327 C   0  0  0  0  0  0  0  0  0  0  0  0
   10.5660    2.0830    2.5139 C   0  0  0  0  0  0  0  0  0  0  0  0
   11.4915    2.7383    1.7960 F   0  0  0  0  0  0  0  0  0  0  0  0
    9.4992   -1.2021    0.7383 N   0  0  0  0  0  0  0  0  0  0  0  0
    9.0738   -2.3644    0.2558 C   0  0  0  0  0  0  0  0  0  0  0  0
    9.8508   -3.4024   -0.0579 N   0  0  0  0  0  0  0  0  0  0  0  0
   12.5388   -6.5290   -1.1830 C   0  0  0  0  0  0  0  0  0  0  0  0
   15.9576  -10.4489   -3.7516 H   0  0  0  0  0  0  0  0  0  0  0  0
   14.4517  -11.1842   -3.1297 H   0  0  0  0  0  0  0  0  0  0  0  0
   15.6083  -10.4052   -1.9975 H   0  0  0  0  0  0  0  0  0  0  0  0
   13.5897   -8.9930   -0.9700 H   0  0  0  0  0  0  0  0  0  0  0  0
   12.4768   -9.7854   -2.1079 H   0  0  0  0  0  0  0  0  0  0  0  0
   10.8773   -8.4423   -3.4780 H   0  0  0  0  0  0  0  0  0  0  0  0
    9.4715   -6.4189   -3.5465 H   0  0  0  0  0  0  0  0  0  0  0  0
   10.0062   -4.4872   -2.1631 H   0  0  0  0  0  0  0  0  0  0  0  0
   12.8886   -4.3820    0.1637 H   0  0  0  0  0  0  0  0  0  0  0  0
   12.7815   -1.9796    0.7784 H   0  0  0  0  0  0  0  0  0  0  0  0
    9.4659   -1.0398    3.2619 H   0  0  0  0  0  0  0  0  0  0  0  0
    7.9278    0.2098    4.6107 H   0  0  0  0  0  0  0  0  0  0  0  0
    7.8602    3.9255    4.7625 H   0  0  0  0  0  0  0  0  0  0  0  0
    3.9819    2.3643    7.2136 H   0  0  0  0  0  0  0  0  0  0  0  0
    2.9901    3.8513    3.9425 H   0  0  0  0  0  0  0  0  0  0  0  0
    0.6821    3.9356    3.1412 H   0  0  0  0  0  0  0  0  0  0  0  0
   -0.6820    2.0396    6.7257 H   0  0  0  0  0  0  0  0  0  0  0  0
    1.6424    1.9388    7.5848 H   0  0  0  0  0  0  0  0  0  0  0  0
    6.4431    5.6598    7.0647 H   0  0  0  0  0  0  0  0  0  0  0  0
    8.0064    4.7346    7.0888 H   0  0  0  0  0  0  0  0  0  0  0  0
    5.4670    3.9879    8.6605 H   0  0  0  0  0  0  0  0  0  0  0  0
    7.0096    3.0268    8.6242 H   0  0  0  0  0  0  0  0  0  0  0  0
    9.8092    3.9005    3.3532 H   0  0  0  0  0  0  0  0  0  0  0  0
    8.0063   -2.4818    0.1098 H   0  0  0  0  0  0  0  0  0  0  0  0
   13.4085   -6.5610   -0.5305 H   0  0  0  0  0  0  0  0  0  0  0  0
  1  2  1  0  0  0  0
  1 43  1  0  0  0  0
  1 44  1  0  0  0  0
  1 45  1  0  0  0  0
  2  3  2  0  0  0  0
  2  4  2  0  0  0  0
  2  5  1  0  0  0  0
  5  6  1  0  0  0  0
  5 46  1  0  0  0  0
  5 47  1  0  0  0  0
  6  7  1  0  0  0  0
  6 42  2  0  0  0  0
  7  8  2  0  0  0  0
  7 48  1  0  0  0  0
  8  9  1  0  0  0  0
  8 49  1  0  0  0  0
  9 10  2  0  0  0  0
  9 50  1  0  0  0  0
 10 11  1  0  0  0  0
 10 42  1  0  0  0  0
 11 12  1  0  0  0  0
 11 51  1  0  0  0  0
 12 13  1  0  0  0  0
 12 41  2  0  0  0  0
 13 14  2  0  0  0  0
 13 52  1  0  0  0  0
 14 15  1  0  0  0  0
 14 39  1  0  0  0  0
 15 16  1  0  0  0  0
 16 17  1  0  0  0  0
 16 37  2  0  0  0  0
 17 18  2  0  0  0  0
 17 53  1  0  0  0  0
 18 19  1  0  0  0  0
 18 54  1  0  0  0  0
 19 20  1  0  0  0  0
 19 36  2  0  0  0  0
 20 21  1  0  0  0  0
 20 55  1  0  0  0  0
 21 22  2  0  0  0  0
 21 23  1  0  0  0  0
 23 24  1  0  0  0  0
 23 34  1  0  0  0  0
 23 35  1  0  0  0  0
 24 25  2  0  0  0  0
 24 26  1  0  0  0  0
 26 27  1  0  0  0  0
 26 56  1  0  0  0  0
 27 28  1  0  0  0  0
 27 33  2  0  0  0  0
 28 29  2  0  0  0  0
 28 57  1  0  0  0  0
 29 30  1  0  0  0  0
 29 58  1  0  0  0  0
 30 31  1  0  0  0  0
 30 32  2  0  0  0  0
 32 33  1  0  0  0  0
 32 59  1  0  0  0  0
 33 60  1  0  0  0  0
 34 35  1  0  0  0  0
 34 61  1  0  0  0  0
 34 62  1  0  0  0  0
 35 63  1  0  0  0  0
 35 64  1  0  0  0  0
 36 37  1  0  0  0  0
 36 65  1  0  0  0  0
 37 38  1  0  0  0  0
 39 40  2  0  0  0  0
 40 41  1  0  0  0  0
 40 66  1  0  0  0  0
 42 67  1  0  0  0  0
M  END
$$$$
