CHEMBL371169
 OpenBabel04072215373D

 49 52  0  0  0  0  0  0  0  0999 V2000
    9.8254   -2.9343    6.4081 Cl  0  0  0  0  0  0  0  0  0  0  0  0
    9.4295   -2.7700    4.7406 C   0  0  0  0  0  0  0  0  0  0  0  0
   10.4495   -2.7377    3.7944 C   0  0  0  0  0  0  0  0  0  0  0  0
   10.1271   -2.6119    2.4482 C   0  0  0  0  0  0  0  0  0  0  0  0
    8.7901   -2.5043    2.0599 C   0  0  0  0  0  0  0  0  0  0  0  0
    7.7516   -2.4994    3.0008 C   0  0  0  0  0  0  0  0  0  0  0  0
    6.3920   -2.4004    2.6422 N   0  0  0  0  0  0  0  0  0  0  0  0
    5.7970   -2.4652    1.3690 C   0  0  0  0  0  0  0  0  0  0  0  0
    4.5531   -1.8741    1.1434 C   0  0  0  0  0  0  0  0  0  0  0  0
    3.9381   -1.8446   -0.0644 N   0  0  0  0  0  0  0  0  0  0  0  0
    4.6230   -2.4440   -1.0662 C   0  0  0  0  0  0  0  0  0  0  0  0
    5.8581   -3.0570   -0.8842 C   0  0  0  0  0  0  0  0  0  0  0  0
    6.6369   -3.6759   -1.9638 C   0  0  0  0  0  0  0  0  0  0  0  0
    7.4598   -4.7771   -1.7244 C   0  0  0  0  0  0  0  0  0  0  0  0
    8.1926   -5.4141   -2.6683 N   0  0  0  0  0  0  0  0  0  0  0  0
    8.1395   -4.8984   -3.9170 C   0  0  0  0  0  0  0  0  0  0  0  0
    7.4040   -3.7718   -4.2869 C   0  0  0  0  0  0  0  0  0  0  0  0
    7.5025   -3.2796   -5.5859 N   0  0  0  0  0  0  0  0  0  0  0  0
    7.1362   -1.9064   -5.8954 C   0  0  0  0  0  0  0  0  0  0  0  0
    7.9286   -1.4453   -7.1156 C   0  0  0  0  0  0  0  0  0  0  0  0
    7.6627    0.0285   -7.3956 C   0  0  0  0  0  0  0  0  0  0  0  0
    8.4207    0.5193   -8.5279 N   0  0  0  0  0  0  0  0  0  0  0  0
    9.6613    1.0929   -8.5013 C   0  0  0  0  0  0  0  0  0  0  0  0
    9.9468    1.4408   -9.7951 C   0  0  0  0  0  0  0  0  0  0  0  0
    8.8153    1.0365  -10.5329 C   0  0  0  0  0  0  0  0  0  0  0  0
    7.8850    0.4711   -9.7612 N   0  0  0  0  0  0  0  0  0  0  0  0
    6.6325   -3.1824   -3.2810 C   0  0  0  0  0  0  0  0  0  0  0  0
    6.4313   -3.0803    0.3450 N   0  0  0  0  0  0  0  0  0  0  0  0
    8.0911   -2.6626    4.3520 C   0  0  0  0  0  0  0  0  0  0  0  0
   11.4902   -2.8144    4.0943 H   0  0  0  0  0  0  0  0  0  0  0  0
   10.9081   -2.5944    1.6928 H   0  0  0  0  0  0  0  0  0  0  0  0
    8.5829   -2.3957    0.9992 H   0  0  0  0  0  0  0  0  0  0  0  0
    5.8181   -1.9654    3.3526 H   0  0  0  0  0  0  0  0  0  0  0  0
    4.0099   -1.3793    1.9411 H   0  0  0  0  0  0  0  0  0  0  0  0
    4.1327   -2.4168   -2.0331 H   0  0  0  0  0  0  0  0  0  0  0  0
    7.5556   -5.1986   -0.7249 H   0  0  0  0  0  0  0  0  0  0  0  0
    8.7653   -5.4102   -4.6438 H   0  0  0  0  0  0  0  0  0  0  0  0
    7.2151   -3.9644   -6.2846 H   0  0  0  0  0  0  0  0  0  0  0  0
    7.3869   -1.2433   -5.0581 H   0  0  0  0  0  0  0  0  0  0  0  0
    6.0587   -1.8343   -6.0807 H   0  0  0  0  0  0  0  0  0  0  0  0
    7.6684   -2.0567   -7.9887 H   0  0  0  0  0  0  0  0  0  0  0  0
    9.0017   -1.6014   -6.9405 H   0  0  0  0  0  0  0  0  0  0  0  0
    7.9350    0.6467   -6.5320 H   0  0  0  0  0  0  0  0  0  0  0  0
    6.6010    0.2025   -7.6061 H   0  0  0  0  0  0  0  0  0  0  0  0
   10.2185    1.2035   -7.5819 H   0  0  0  0  0  0  0  0  0  0  0  0
   10.8413    1.9231  -10.1645 H   0  0  0  0  0  0  0  0  0  0  0  0
    8.6329    1.1319  -11.5958 H   0  0  0  0  0  0  0  0  0  0  0  0
    6.0268   -2.3134   -3.5174 H   0  0  0  0  0  0  0  0  0  0  0  0
    7.3142   -2.7120    5.1100 H   0  0  0  0  0  0  0  0  0  0  0  0
  1  2  1  0  0  0  0
  2  3  1  0  0  0  0
  2 29  2  0  0  0  0
  3  4  2  0  0  0  0
  3 30  1  0  0  0  0
  4  5  1  0  0  0  0
  4 31  1  0  0  0  0
  5  6  2  0  0  0  0
  5 32  1  0  0  0  0
  6  7  1  0  0  0  0
  6 29  1  0  0  0  0
  7  8  1  0  0  0  0
  7 33  1  0  0  0  0
  8  9  1  0  0  0  0
  8 28  2  0  0  0  0
  9 10  2  0  0  0  0
  9 34  1  0  0  0  0
 10 11  1  0  0  0  0
 11 12  2  0  0  0  0
 11 35  1  0  0  0  0
 12 13  1  0  0  0  0
 12 28  1  0  0  0  0
 13 14  1  0  0  0  0
 13 27  2  0  0  0  0
 14 15  2  0  0  0  0
 14 36  1  0  0  0  0
 15 16  1  0  0  0  0
 16 17  2  0  0  0  0
 16 37  1  0  0  0  0
 17 18  1  0  0  0  0
 17 27  1  0  0  0  0
 18 19  1  0  0  0  0
 18 38  1  0  0  0  0
 19 20  1  0  0  0  0
 19 39  1  0  0  0  0
 19 40  1  0  0  0  0
 20 21  1  0  0  0  0
 20 41  1  0  0  0  0
 20 42  1  0  0  0  0
 21 22  1  0  0  0  0
 21 43  1  0  0  0  0
 21 44  1  0  0  0  0
 22 23  1  0  0  0  0
 22 26  1  0  0  0  0
 23 24  2  0  0  0  0
 23 45  1  0  0  0  0
 24 25  1  0  0  0  0
 24 46  1  0  0  0  0
 25 26  2  0  0  0  0
 25 47  1  0  0  0  0
 27 48  1  0  0  0  0
 29 49  1  0  0  0  0
M  END
$$$$
