CHEMBL3093585
 OpenBabel04072215363D

 61 66  0  0  0  0  0  0  0  0999 V2000
    2.2389   -1.6184   -0.7452 C   0  0  0  0  0  0  0  0  0  0  0  0
    3.1712   -0.7313   -0.0400 N   0  0  0  0  0  0  0  0  0  0  0  0
    4.2891   -0.1567   -0.6511 C   0  0  0  0  0  0  0  0  0  0  0  0
    4.6155    1.0404   -0.1803 C   0  0  0  0  0  0  0  0  0  0  0  0
    5.8186    1.8262   -0.5326 C   0  0  0  0  0  0  0  0  0  0  0  0
    6.5509    1.4177   -1.4459 O   0  0  0  0  0  0  0  0  0  0  0  0
    6.0416    2.9671    0.2246 N   0  0  0  0  0  0  0  0  0  0  0  0
    7.1188    3.8908    0.1209 C   0  0  0  0  0  0  0  0  0  0  0  0
    8.2094    3.7514   -0.7501 C   0  0  0  0  0  0  0  0  0  0  0  0
    9.1927    4.7595   -0.8572 C   0  0  0  0  0  0  0  0  0  0  0  0
    9.0979    5.9131   -0.0790 C   0  0  0  0  0  0  0  0  0  0  0  0
    9.9809    6.9832   -0.3758 O   0  0  0  0  0  0  0  0  0  0  0  0
   10.4629    7.8751    0.5815 C   0  0  0  0  0  0  0  0  0  0  0  0
   10.8904    9.1185   -0.1082 C   0  0  0  0  0  0  0  0  0  0  0  0
   11.7168    9.9227    0.5757 C   0  0  0  0  0  0  0  0  0  0  0  0
   11.5906    9.8604    1.9842 C   0  0  0  0  0  0  0  0  0  0  0  0
   11.5985   10.8236    2.8858 N   0  0  0  0  0  0  0  0  0  0  0  0
   11.1636   10.2395    4.0401 C   0  0  0  0  0  0  0  0  0  0  0  0
   10.8453   10.8866    5.2125 N   0  0  0  0  0  0  0  0  0  0  0  0
   10.7123   12.2450    5.3626 C   0  0  0  0  0  0  0  0  0  0  0  0
   10.9405   13.1131    4.5322 O   0  0  0  0  0  0  0  0  0  0  0  0
   10.1975   12.6995    6.7030 C   0  0  0  0  0  0  0  0  0  0  0  0
   10.9928   12.3824    7.9491 C   0  0  0  0  0  0  0  0  0  0  0  0
    9.6084   11.8252    7.7870 C   0  0  0  0  0  0  0  0  0  0  0  0
   11.0072    8.8807    3.8694 C   0  0  0  0  0  0  0  0  0  0  0  0
   11.0747    8.6904    2.5177 N   0  0  0  0  0  0  0  0  0  0  0  0
   10.5757    7.6119    1.8430 N   0  0  0  0  0  0  0  0  0  0  0  0
    8.0387    6.0453    0.8115 C   0  0  0  0  0  0  0  0  0  0  0  0
    7.8775    7.1687    1.5224 F   0  0  0  0  0  0  0  0  0  0  0  0
    7.0691    5.0399    0.9247 C   0  0  0  0  0  0  0  0  0  0  0  0
    3.5261    1.3757    0.7844 C   0  0  0  0  0  0  0  0  0  0  0  0
    3.5122    2.3932    1.4493 O   0  0  0  0  0  0  0  0  0  0  0  0
    2.6367    0.2945    0.7815 N   0  0  0  0  0  0  0  0  0  0  0  0
    1.6723    0.0058    1.7804 C   0  0  0  0  0  0  0  0  0  0  0  0
    0.7173    0.9669    2.1046 C   0  0  0  0  0  0  0  0  0  0  0  0
   -0.2972    0.6761    3.0365 C   0  0  0  0  0  0  0  0  0  0  0  0
   -0.3036   -0.5602    3.6933 C   0  0  0  0  0  0  0  0  0  0  0  0
    0.6548   -1.5104    3.3874 C   0  0  0  0  0  0  0  0  0  0  0  0
    1.6360   -1.2312    2.4233 C   0  0  0  0  0  0  0  0  0  0  0  0
    2.6414   -1.9759   -1.6752 H   0  0  0  0  0  0  0  0  0  0  0  0
    1.2793   -1.1053   -0.9551 H   0  0  0  0  0  0  0  0  0  0  0  0
    2.0193   -2.4916   -0.1156 H   0  0  0  0  0  0  0  0  0  0  0  0
    4.8093   -0.7292   -1.4131 H   0  0  0  0  0  0  0  0  0  0  0  0
    5.3207    3.1903    0.9136 H   0  0  0  0  0  0  0  0  0  0  0  0
    8.3172    2.8750   -1.3834 H   0  0  0  0  0  0  0  0  0  0  0  0
   10.0045    4.6419   -1.5722 H   0  0  0  0  0  0  0  0  0  0  0  0
   10.4896    9.3855   -1.0793 H   0  0  0  0  0  0  0  0  0  0  0  0
   12.2223   10.7730    0.1339 H   0  0  0  0  0  0  0  0  0  0  0  0
   10.5594   10.2900    5.9711 H   0  0  0  0  0  0  0  0  0  0  0  0
    9.7652   13.6966    6.6467 H   0  0  0  0  0  0  0  0  0  0  0  0
   11.1473   13.1890    8.6568 H   0  0  0  0  0  0  0  0  0  0  0  0
   11.8334   11.7027    7.8672 H   0  0  0  0  0  0  0  0  0  0  0  0
    8.8252   12.2533    8.4080 H   0  0  0  0  0  0  0  0  0  0  0  0
    9.4923   10.7590    7.6520 H   0  0  0  0  0  0  0  0  0  0  0  0
   10.7003    8.0829    4.5239 H   0  0  0  0  0  0  0  0  0  0  0  0
    6.2542    5.2023    1.6238 H   0  0  0  0  0  0  0  0  0  0  0  0
    0.7048    1.9290    1.5961 H   0  0  0  0  0  0  0  0  0  0  0  0
   -1.0546    1.4183    3.2559 H   0  0  0  0  0  0  0  0  0  0  0  0
   -1.0590   -0.7756    4.4446 H   0  0  0  0  0  0  0  0  0  0  0  0
    0.6686   -2.4691    3.9023 H   0  0  0  0  0  0  0  0  0  0  0  0
    2.3926   -1.9874    2.2103 H   0  0  0  0  0  0  0  0  0  0  0  0
  1  2  1  0  0  0  0
  1 40  1  0  0  0  0
  1 41  1  0  0  0  0
  1 42  1  0  0  0  0
  2  3  1  0  0  0  0
  2 33  1  0  0  0  0
  3  4  2  0  0  0  0
  3 43  1  0  0  0  0
  4  5  1  0  0  0  0
  4 31  1  0  0  0  0
  5  6  2  0  0  0  0
  5  7  1  0  0  0  0
  7  8  1  0  0  0  0
  7 44  1  0  0  0  0
  8  9  1  0  0  0  0
  8 30  2  0  0  0  0
  9 10  2  0  0  0  0
  9 45  1  0  0  0  0
 10 11  1  0  0  0  0
 10 46  1  0  0  0  0
 11 12  1  0  0  0  0
 11 28  2  0  0  0  0
 12 13  1  0  0  0  0
 13 14  1  0  0  0  0
 13 27  2  0  0  0  0
 14 15  2  0  0  0  0
 14 47  1  0  0  0  0
 15 16  1  0  0  0  0
 15 48  1  0  0  0  0
 16 17  2  0  0  0  0
 16 26  1  0  0  0  0
 17 18  1  0  0  0  0
 18 19  1  0  0  0  0
 18 25  2  0  0  0  0
 19 20  1  0  0  0  0
 19 49  1  0  0  0  0
 20 21  2  0  0  0  0
 20 22  1  0  0  0  0
 22 23  1  0  0  0  0
 22 24  1  0  0  0  0
 22 50  1  0  0  0  0
 23 24  1  0  0  0  0
 23 51  1  0  0  0  0
 23 52  1  0  0  0  0
 24 53  1  0  0  0  0
 24 54  1  0  0  0  0
 25 26  1  0  0  0  0
 25 55  1  0  0  0  0
 26 27  1  0  0  0  0
 28 29  1  0  0  0  0
 28 30  1  0  0  0  0
 30 56  1  0  0  0  0
 31 32  2  0  0  0  0
 31 33  1  0  0  0  0
 33 34  1  0  0  0  0
 34 35  1  0  0  0  0
 34 39  2  0  0  0  0
 35 36  2  0  0  0  0
 35 57  1  0  0  0  0
 36 37  1  0  0  0  0
 36 58  1  0  0  0  0
 37 38  2  0  0  0  0
 37 59  1  0  0  0  0
 38 39  1  0  0  0  0
 38 60  1  0  0  0  0
 39 61  1  0  0  0  0
M  END
$$$$
