CHEMBL3915508
 OpenBabel04072215373D

 29 31  0  0  0  0  0  0  0  0999 V2000
    3.4855    4.3193    5.3665 N   0  0  0  0  0  0  0  0  0  0  0  0
    3.5390    3.5943    4.4571 C   0  0  0  0  0  0  0  0  0  0  0  0
    3.6100    2.7106    3.3380 C   0  0  0  0  0  0  0  0  0  0  0  0
    4.8171    2.0890    3.0222 C   0  0  0  0  0  0  0  0  0  0  0  0
    4.8821    1.2187    1.9337 C   0  0  0  0  0  0  0  0  0  0  0  0
    3.7396    0.9018    1.1835 C   0  0  0  0  0  0  0  0  0  0  0  0
    3.7559   -0.0358    0.1210 N   0  0  0  0  0  0  0  0  0  0  0  0
    4.5678   -1.2066    0.0906 C   0  0  0  0  0  0  0  0  0  0  0  0
    5.3775   -1.4701    1.1459 N   0  0  0  0  0  0  0  0  0  0  0  0
    6.0977   -2.6073    1.2338 N   0  0  0  0  0  0  0  0  0  0  0  0
    5.9522   -3.5321    0.2765 C   0  0  0  0  0  0  0  0  0  0  0  0
    5.1360   -3.3604   -0.8359 C   0  0  0  0  0  0  0  0  0  0  0  0
    4.9971   -4.3684   -1.8093 C   0  0  0  0  0  0  0  0  0  0  0  0
    4.1655   -4.1802   -2.9123 C   0  0  0  0  0  0  0  0  0  0  0  0
    3.4880   -2.9763   -3.0685 C   0  0  0  0  0  0  0  0  0  0  0  0
    3.6252   -1.9681   -2.1104 C   0  0  0  0  0  0  0  0  0  0  0  0
    4.4326   -2.1447   -0.9602 C   0  0  0  0  0  0  0  0  0  0  0  0
    2.5474    1.5743    1.4776 C   0  0  0  0  0  0  0  0  0  0  0  0
    2.4798    2.4656    2.5554 C   0  0  0  0  0  0  0  0  0  0  0  0
    5.7100    2.2561    3.6198 H   0  0  0  0  0  0  0  0  0  0  0  0
    5.8428    0.7616    1.7132 H   0  0  0  0  0  0  0  0  0  0  0  0
    3.8279    0.4439   -0.7711 H   0  0  0  0  0  0  0  0  0  0  0  0
    6.5238   -4.4364    0.4469 H   0  0  0  0  0  0  0  0  0  0  0  0
    5.5287   -5.3126   -1.7067 H   0  0  0  0  0  0  0  0  0  0  0  0
    4.0482   -4.9714   -3.6489 H   0  0  0  0  0  0  0  0  0  0  0  0
    2.8430   -2.8220   -3.9303 H   0  0  0  0  0  0  0  0  0  0  0  0
    3.0873   -1.0370   -2.2711 H   0  0  0  0  0  0  0  0  0  0  0  0
    1.6459    1.3643    0.9067 H   0  0  0  0  0  0  0  0  0  0  0  0
    1.5333    2.9481    2.7933 H   0  0  0  0  0  0  0  0  0  0  0  0
  1  2  3  0  0  0  0
  2  3  1  0  0  0  0
  3  4  1  0  0  0  0
  3 19  2  0  0  0  0
  4  5  2  0  0  0  0
  4 20  1  0  0  0  0
  5  6  1  0  0  0  0
  5 21  1  0  0  0  0
  6  7  1  0  0  0  0
  6 18  2  0  0  0  0
  7  8  1  0  0  0  0
  7 22  1  0  0  0  0
  8  9  1  0  0  0  0
  8 17  2  0  0  0  0
  9 10  2  0  0  0  0
 10 11  1  0  0  0  0
 11 12  2  0  0  0  0
 11 23  1  0  0  0  0
 12 13  1  0  0  0  0
 12 17  1  0  0  0  0
 13 14  2  0  0  0  0
 13 24  1  0  0  0  0
 14 15  1  0  0  0  0
 14 25  1  0  0  0  0
 15 16  2  0  0  0  0
 15 26  1  0  0  0  0
 16 17  1  0  0  0  0
 16 27  1  0  0  0  0
 18 19  1  0  0  0  0
 18 28  1  0  0  0  0
 19 29  1  0  0  0  0
M  END
$$$$
