CHEMBL3972701
 OpenBabel04072215373D

 55 58  0  0  0  0  0  0  0  0999 V2000
   -7.3641   -6.3856   -1.5478 C   0  0  0  0  0  0  0  0  0  0  0  0
   -6.7849   -5.0308   -1.2419 C   0  0  0  0  0  0  0  0  0  0  0  0
   -7.6332   -3.9259   -1.3530 C   0  0  0  0  0  0  0  0  0  0  0  0
   -7.1786   -2.6346   -1.0901 C   0  0  0  0  0  0  0  0  0  0  0  0
   -5.8649   -2.3923   -0.6839 C   0  0  0  0  0  0  0  0  0  0  0  0
   -5.3803   -1.0797   -0.4039 N   0  0  0  0  0  0  0  0  0  0  0  0
   -6.1693    0.0574   -0.3368 C   0  0  0  0  0  0  0  0  0  0  0  0
   -7.3921    0.0754   -0.4098 O   0  0  0  0  0  0  0  0  0  0  0  0
   -5.4269    1.2299   -0.2154 N   0  0  0  0  0  0  0  0  0  0  0  0
   -6.0873    2.4938   -0.1696 C   0  0  0  0  0  0  0  0  0  0  0  0
   -7.2425    2.7094    0.5901 C   0  0  0  0  0  0  0  0  0  0  0  0
   -7.9098    3.9427    0.5381 C   0  0  0  0  0  0  0  0  0  0  0  0
   -7.4354    4.9763   -0.2764 C   0  0  0  0  0  0  0  0  0  0  0  0
   -8.1508    6.1580   -0.2425 O   0  0  0  0  0  0  0  0  0  0  0  0
   -8.2913    6.9349   -1.3765 C   0  0  0  0  0  0  0  0  0  0  0  0
   -8.2768    6.4281   -2.6693 C   0  0  0  0  0  0  0  0  0  0  0  0
   -8.4119    7.3265   -3.7090 C   0  0  0  0  0  0  0  0  0  0  0  0
   -8.6138    8.6465   -3.5303 N   0  0  0  0  0  0  0  0  0  0  0  0
   -8.7024    9.1335   -2.2824 C   0  0  0  0  0  0  0  0  0  0  0  0
   -8.9697   10.5064   -2.0920 N   0  0  0  0  0  0  0  0  0  0  0  0
   -9.1324   11.4061   -3.1344 C   0  0  0  0  0  0  0  0  0  0  0  0
   -9.0499   11.1662   -4.3304 O   0  0  0  0  0  0  0  0  0  0  0  0
   -9.4412   12.8267   -2.7803 C   0  0  0  0  0  0  0  0  0  0  0  0
   -8.8261   13.5461   -1.6089 C   0  0  0  0  0  0  0  0  0  0  0  0
  -10.2981   13.2419   -1.6131 C   0  0  0  0  0  0  0  0  0  0  0  0
   -8.5446    8.3024   -1.1746 C   0  0  0  0  0  0  0  0  0  0  0  0
   -6.2472    4.7877   -0.9867 C   0  0  0  0  0  0  0  0  0  0  0  0
   -5.5903    3.5539   -0.9308 C   0  0  0  0  0  0  0  0  0  0  0  0
   -4.4917    3.3685   -1.6796 F   0  0  0  0  0  0  0  0  0  0  0  0
   -5.0046   -3.4954   -0.5770 C   0  0  0  0  0  0  0  0  0  0  0  0
   -5.4461   -4.8212   -0.8533 C   0  0  0  0  0  0  0  0  0  0  0  0
   -4.4411   -5.9507   -0.7177 C   0  0  0  0  0  0  0  0  0  0  0  0
   -4.9238   -7.1957   -0.9809 F   0  0  0  0  0  0  0  0  0  0  0  0
   -3.3760   -5.7910   -1.5550 F   0  0  0  0  0  0  0  0  0  0  0  0
   -3.9144   -6.0236    0.5370 F   0  0  0  0  0  0  0  0  0  0  0  0
   -8.4207   -6.3144   -1.8318 H   0  0  0  0  0  0  0  0  0  0  0  0
   -7.3133   -7.0311   -0.6656 H   0  0  0  0  0  0  0  0  0  0  0  0
   -6.8376   -6.8468   -2.3881 H   0  0  0  0  0  0  0  0  0  0  0  0
   -8.6716   -4.0490   -1.6543 H   0  0  0  0  0  0  0  0  0  0  0  0
   -7.9023   -1.8396   -1.2195 H   0  0  0  0  0  0  0  0  0  0  0  0
   -4.4233   -0.9961   -0.0938 H   0  0  0  0  0  0  0  0  0  0  0  0
   -4.5396    1.2275   -0.7032 H   0  0  0  0  0  0  0  0  0  0  0  0
   -7.6445    1.9204    1.2233 H   0  0  0  0  0  0  0  0  0  0  0  0
   -8.8119    4.0836    1.1301 H   0  0  0  0  0  0  0  0  0  0  0  0
   -8.1543    5.3755   -2.8883 H   0  0  0  0  0  0  0  0  0  0  0  0
   -8.3643    7.0093   -4.7445 H   0  0  0  0  0  0  0  0  0  0  0  0
   -9.0557   10.8433   -1.1485 H   0  0  0  0  0  0  0  0  0  0  0  0
   -9.5687   13.4317   -3.6789 H   0  0  0  0  0  0  0  0  0  0  0  0
   -8.5167   14.5746   -1.7734 H   0  0  0  0  0  0  0  0  0  0  0  0
   -8.1848   13.0055   -0.9262 H   0  0  0  0  0  0  0  0  0  0  0  0
  -10.9867   14.0660   -1.7775 H   0  0  0  0  0  0  0  0  0  0  0  0
  -10.6772   12.4926   -0.9321 H   0  0  0  0  0  0  0  0  0  0  0  0
   -8.6197    8.6901   -0.1650 H   0  0  0  0  0  0  0  0  0  0  0  0
   -5.8249    5.5728   -1.6040 H   0  0  0  0  0  0  0  0  0  0  0  0
   -3.9666   -3.3466   -0.2747 H   0  0  0  0  0  0  0  0  0  0  0  0
  1  2  1  0  0  0  0
  1 36  1  0  0  0  0
  1 37  1  0  0  0  0
  1 38  1  0  0  0  0
  2  3  1  0  0  0  0
  2 31  2  0  0  0  0
  3  4  2  0  0  0  0
  3 39  1  0  0  0  0
  4  5  1  0  0  0  0
  4 40  1  0  0  0  0
  5  6  1  0  0  0  0
  5 30  2  0  0  0  0
  6  7  1  0  0  0  0
  6 41  1  0  0  0  0
  7  8  2  0  0  0  0
  7  9  1  0  0  0  0
  9 10  1  0  0  0  0
  9 42  1  0  0  0  0
 10 11  1  0  0  0  0
 10 28  2  0  0  0  0
 11 12  2  0  0  0  0
 11 43  1  0  0  0  0
 12 13  1  0  0  0  0
 12 44  1  0  0  0  0
 13 14  1  0  0  0  0
 13 27  2  0  0  0  0
 14 15  1  0  0  0  0
 15 16  1  0  0  0  0
 15 26  2  0  0  0  0
 16 17  2  0  0  0  0
 16 45  1  0  0  0  0
 17 18  1  0  0  0  0
 17 46  1  0  0  0  0
 18 19  2  0  0  0  0
 19 20  1  0  0  0  0
 19 26  1  0  0  0  0
 20 21  1  0  0  0  0
 20 47  1  0  0  0  0
 21 22  2  0  0  0  0
 21 23  1  0  0  0  0
 23 24  1  0  0  0  0
 23 25  1  0  0  0  0
 23 48  1  0  0  0  0
 24 25  1  0  0  0  0
 24 49  1  0  0  0  0
 24 50  1  0  0  0  0
 25 51  1  0  0  0  0
 25 52  1  0  0  0  0
 26 53  1  0  0  0  0
 27 28  1  0  0  0  0
 27 54  1  0  0  0  0
 28 29  1  0  0  0  0
 30 31  1  0  0  0  0
 30 55  1  0  0  0  0
 31 32  1  0  0  0  0
 32 33  1  0  0  0  0
 32 34  1  0  0  0  0
 32 35  1  0  0  0  0
M  END
$$$$
