CHEMBL1982957
 OpenBabel04072215363D

 39 42  0  0  0  0  0  0  0  0999 V2000
    0.5848   -0.9424   -0.2559 N   0  0  0  0  0  0  0  0  0  0  0  0
    1.8672   -1.2534    0.1020 C   0  0  0  0  0  0  0  0  0  0  0  0
    2.1515   -1.4810    1.2702 O   0  0  0  0  0  0  0  0  0  0  0  0
    2.8832   -1.3400   -0.9826 C   0  0  0  0  0  0  0  0  0  0  0  0
    2.7189   -0.6933   -2.2097 C   0  0  0  0  0  0  0  0  0  0  0  0
    3.7069   -0.8013   -3.1865 C   0  0  0  0  0  0  0  0  0  0  0  0
    4.8720   -1.5302   -2.9310 C   0  0  0  0  0  0  0  0  0  0  0  0
    5.0934   -2.1471   -1.6879 C   0  0  0  0  0  0  0  0  0  0  0  0
    6.3781   -2.8043   -1.3652 C   0  0  0  0  0  0  0  0  0  0  0  0
    7.6054   -2.2947   -1.8149 C   0  0  0  0  0  0  0  0  0  0  0  0
    8.8483   -2.7525   -1.5157 N   0  0  0  0  0  0  0  0  0  0  0  0
    8.8205   -3.7983   -0.6713 C   0  0  0  0  0  0  0  0  0  0  0  0
    9.9344   -4.4199   -0.1786 N   0  0  0  0  0  0  0  0  0  0  0  0
    9.5626   -5.4411    0.6607 C   0  0  0  0  0  0  0  0  0  0  0  0
    8.1783   -5.4851    0.7045 C   0  0  0  0  0  0  0  0  0  0  0  0
    7.4184   -6.4750    1.4577 C   0  0  0  0  0  0  0  0  0  0  0  0
    6.2004   -6.1305    2.0602 C   0  0  0  0  0  0  0  0  0  0  0  0
    5.4014   -7.1043    2.6638 C   0  0  0  0  0  0  0  0  0  0  0  0
    5.8270   -8.4300    2.6980 C   0  0  0  0  0  0  0  0  0  0  0  0
    7.0587   -8.7773    2.1472 C   0  0  0  0  0  0  0  0  0  0  0  0
    7.8511   -7.8061    1.5304 C   0  0  0  0  0  0  0  0  0  0  0  0
    7.7031   -4.4280   -0.1397 C   0  0  0  0  0  0  0  0  0  0  0  0
    6.4461   -3.9289   -0.5299 C   0  0  0  0  0  0  0  0  0  0  0  0
    4.0650   -2.0536   -0.7294 C   0  0  0  0  0  0  0  0  0  0  0  0
   -0.1059   -0.9718    0.4834 H   0  0  0  0  0  0  0  0  0  0  0  0
    0.2545   -0.9823   -1.2083 H   0  0  0  0  0  0  0  0  0  0  0  0
    1.8483   -0.0772   -2.4117 H   0  0  0  0  0  0  0  0  0  0  0  0
    3.5838   -0.2995   -4.1437 H   0  0  0  0  0  0  0  0  0  0  0  0
    5.6200   -1.5934   -3.7200 H   0  0  0  0  0  0  0  0  0  0  0  0
    7.6292   -1.4205   -2.4618 H   0  0  0  0  0  0  0  0  0  0  0  0
   10.8760   -4.1461   -0.4140 H   0  0  0  0  0  0  0  0  0  0  0  0
   10.3177   -6.0442    1.1487 H   0  0  0  0  0  0  0  0  0  0  0  0
    5.8518   -5.1008    2.0611 H   0  0  0  0  0  0  0  0  0  0  0  0
    4.4437   -6.8267    3.0965 H   0  0  0  0  0  0  0  0  0  0  0  0
    5.1988   -9.1908    3.1525 H   0  0  0  0  0  0  0  0  0  0  0  0
    7.3953   -9.8103    2.1790 H   0  0  0  0  0  0  0  0  0  0  0  0
    8.7937   -8.1067    1.0804 H   0  0  0  0  0  0  0  0  0  0  0  0
    5.5429   -4.4077   -0.1660 H   0  0  0  0  0  0  0  0  0  0  0  0
    4.1886   -2.5123    0.2519 H   0  0  0  0  0  0  0  0  0  0  0  0
  1  2  1  0  0  0  0
  1 25  1  0  0  0  0
  1 26  1  0  0  0  0
  2  3  2  0  0  0  0
  2  4  1  0  0  0  0
  4  5  1  0  0  0  0
  4 24  2  0  0  0  0
  5  6  2  0  0  0  0
  5 27  1  0  0  0  0
  6  7  1  0  0  0  0
  6 28  1  0  0  0  0
  7  8  2  0  0  0  0
  7 29  1  0  0  0  0
  8  9  1  0  0  0  0
  8 24  1  0  0  0  0
  9 10  1  0  0  0  0
  9 23  2  0  0  0  0
 10 11  2  0  0  0  0
 10 30  1  0  0  0  0
 11 12  1  0  0  0  0
 12 13  1  0  0  0  0
 12 22  2  0  0  0  0
 13 14  1  0  0  0  0
 13 31  1  0  0  0  0
 14 15  2  0  0  0  0
 14 32  1  0  0  0  0
 15 16  1  0  0  0  0
 15 22  1  0  0  0  0
 16 17  1  0  0  0  0
 16 21  2  0  0  0  0
 17 18  2  0  0  0  0
 17 33  1  0  0  0  0
 18 19  1  0  0  0  0
 18 34  1  0  0  0  0
 19 20  2  0  0  0  0
 19 35  1  0  0  0  0
 20 21  1  0  0  0  0
 20 36  1  0  0  0  0
 21 37  1  0  0  0  0
 22 23  1  0  0  0  0
 23 38  1  0  0  0  0
 24 39  1  0  0  0  0
M  END
$$$$
