CHEMBL243914
 OpenBabel04072215363D

 52 55  0  0  0  0  0  0  0  0999 V2000
    5.2529   -8.4528    4.9607 C   0  0  0  0  0  0  0  0  0  0  0  0
    6.4887   -7.8584    5.3625 O   0  0  0  0  0  0  0  0  0  0  0  0
    6.3938   -6.5446    5.7141 C   0  0  0  0  0  0  0  0  0  0  0  0
    5.3433   -5.9285    5.7505 O   0  0  0  0  0  0  0  0  0  0  0  0
    7.6480   -6.0819    5.9446 N   0  0  0  0  0  0  0  0  0  0  0  0
    7.9308   -4.7862    6.2337 C   0  0  0  0  0  0  0  0  0  0  0  0
    9.1357   -4.2576    6.1726 N   0  0  0  0  0  0  0  0  0  0  0  0
    8.9268   -2.9478    6.5141 C   0  0  0  0  0  0  0  0  0  0  0  0
    9.8081   -1.8631    6.5610 C   0  0  0  0  0  0  0  0  0  0  0  0
    9.3033   -0.6248    6.9817 C   0  0  0  0  0  0  0  0  0  0  0  0
    7.9727   -0.4923    7.4147 C   0  0  0  0  0  0  0  0  0  0  0  0
    7.4632    0.6817    7.9340 O   0  0  0  0  0  0  0  0  0  0  0  0
    8.2748    1.4710    8.7191 C   0  0  0  0  0  0  0  0  0  0  0  0
    8.0580    2.8413    8.6380 C   0  0  0  0  0  0  0  0  0  0  0  0
    8.8733    3.7228    9.3549 C   0  0  0  0  0  0  0  0  0  0  0  0
    9.9134    3.2514   10.1644 C   0  0  0  0  0  0  0  0  0  0  0  0
   10.8196    4.0977   10.8457 N   0  0  0  0  0  0  0  0  0  0  0  0
   10.7391    5.4733   10.9200 C   0  0  0  0  0  0  0  0  0  0  0  0
    9.8075    6.1514   10.4977 O   0  0  0  0  0  0  0  0  0  0  0  0
   11.8641    6.0339   11.5128 N   0  0  0  0  0  0  0  0  0  0  0  0
   11.9256    7.4427   11.6674 C   0  0  0  0  0  0  0  0  0  0  0  0
   10.8448    8.1601   12.1950 C   0  0  0  0  0  0  0  0  0  0  0  0
   10.8633    9.5624   12.2328 C   0  0  0  0  0  0  0  0  0  0  0  0
    9.6925   10.3345   12.7921 C   0  0  0  0  0  0  0  0  0  0  0  0
    8.6908    9.5480   13.2731 F   0  0  0  0  0  0  0  0  0  0  0  0
   10.0606   11.1380   13.8297 F   0  0  0  0  0  0  0  0  0  0  0  0
    9.1182   11.1561   11.8714 F   0  0  0  0  0  0  0  0  0  0  0  0
   11.9863   10.2384   11.7267 C   0  0  0  0  0  0  0  0  0  0  0  0
   13.0814    9.5243   11.2314 C   0  0  0  0  0  0  0  0  0  0  0  0
   13.0538    8.1329   11.2272 C   0  0  0  0  0  0  0  0  0  0  0  0
   14.0955    7.4552   10.7212 F   0  0  0  0  0  0  0  0  0  0  0  0
   10.0861    1.8692   10.2868 C   0  0  0  0  0  0  0  0  0  0  0  0
    9.2520    0.9840    9.5911 C   0  0  0  0  0  0  0  0  0  0  0  0
    7.0631   -1.5523    7.3031 C   0  0  0  0  0  0  0  0  0  0  0  0
    7.5963   -2.7512    6.8459 C   0  0  0  0  0  0  0  0  0  0  0  0
    6.9460   -3.9343    6.6445 O   0  0  0  0  0  0  0  0  0  0  0  0
    5.4032   -9.5336    4.8953 H   0  0  0  0  0  0  0  0  0  0  0  0
    4.9732   -8.0796    3.9708 H   0  0  0  0  0  0  0  0  0  0  0  0
    4.4588   -8.2594    5.6886 H   0  0  0  0  0  0  0  0  0  0  0  0
    8.4244   -6.6873    5.7390 H   0  0  0  0  0  0  0  0  0  0  0  0
   10.8480   -1.9806    6.2788 H   0  0  0  0  0  0  0  0  0  0  0  0
    9.9754    0.2309    6.9950 H   0  0  0  0  0  0  0  0  0  0  0  0
    7.2677    3.2387    8.0066 H   0  0  0  0  0  0  0  0  0  0  0  0
    8.6677    4.7814    9.2369 H   0  0  0  0  0  0  0  0  0  0  0  0
   11.5302    3.6570   11.4112 H   0  0  0  0  0  0  0  0  0  0  0  0
   12.7366    5.5957   11.2424 H   0  0  0  0  0  0  0  0  0  0  0  0
    9.9677    7.6248   12.5592 H   0  0  0  0  0  0  0  0  0  0  0  0
   12.0049   11.3277   11.7136 H   0  0  0  0  0  0  0  0  0  0  0  0
   13.9435   10.0459   10.8270 H   0  0  0  0  0  0  0  0  0  0  0  0
   10.8700    1.4557   10.9157 H   0  0  0  0  0  0  0  0  0  0  0  0
    9.3969   -0.0850    9.7196 H   0  0  0  0  0  0  0  0  0  0  0  0
    6.0190   -1.4545    7.5724 H   0  0  0  0  0  0  0  0  0  0  0  0
  1  2  1  0  0  0  0
  1 37  1  0  0  0  0
  1 38  1  0  0  0  0
  1 39  1  0  0  0  0
  2  3  1  0  0  0  0
  3  4  2  0  0  0  0
  3  5  1  0  0  0  0
  5  6  1  0  0  0  0
  5 40  1  0  0  0  0
  6  7  2  0  0  0  0
  6 36  1  0  0  0  0
  7  8  1  0  0  0  0
  8  9  1  0  0  0  0
  8 35  2  0  0  0  0
  9 10  2  0  0  0  0
  9 41  1  0  0  0  0
 10 11  1  0  0  0  0
 10 42  1  0  0  0  0
 11 12  1  0  0  0  0
 11 34  2  0  0  0  0
 12 13  1  0  0  0  0
 13 14  1  0  0  0  0
 13 33  2  0  0  0  0
 14 15  2  0  0  0  0
 14 43  1  0  0  0  0
 15 16  1  0  0  0  0
 15 44  1  0  0  0  0
 16 17  1  0  0  0  0
 16 32  2  0  0  0  0
 17 18  1  0  0  0  0
 17 45  1  0  0  0  0
 18 19  2  0  0  0  0
 18 20  1  0  0  0  0
 20 21  1  0  0  0  0
 20 46  1  0  0  0  0
 21 22  1  0  0  0  0
 21 30  2  0  0  0  0
 22 23  2  0  0  0  0
 22 47  1  0  0  0  0
 23 24  1  0  0  0  0
 23 28  1  0  0  0  0
 24 25  1  0  0  0  0
 24 26  1  0  0  0  0
 24 27  1  0  0  0  0
 28 29  2  0  0  0  0
 28 48  1  0  0  0  0
 29 30  1  0  0  0  0
 29 49  1  0  0  0  0
 30 31  1  0  0  0  0
 32 33  1  0  0  0  0
 32 50  1  0  0  0  0
 33 51  1  0  0  0  0
 34 35  1  0  0  0  0
 34 52  1  0  0  0  0
 35 36  1  0  0  0  0
M  END
$$$$
