CHEMBL4467107
 OpenBabel04072215383D

 47 49  0  0  0  0  0  0  0  0999 V2000
   11.2703   -2.7387   -0.5123 C   0  0  0  0  0  0  0  0  0  0  0  0
   10.7115   -3.6607    0.4144 O   0  0  0  0  0  0  0  0  0  0  0  0
    9.9993   -3.1385    1.4565 C   0  0  0  0  0  0  0  0  0  0  0  0
    9.8033   -1.7837    1.7246 C   0  0  0  0  0  0  0  0  0  0  0  0
    9.0376   -1.3919    2.8331 C   0  0  0  0  0  0  0  0  0  0  0  0
    8.4617   -2.3488    3.6816 C   0  0  0  0  0  0  0  0  0  0  0  0
    7.6484   -1.8833    4.8511 C   0  0  0  0  0  0  0  0  0  0  0  0
    7.5165   -0.6721    5.0179 O   0  0  0  0  0  0  0  0  0  0  0  0
    7.0420   -2.9453    5.7604 C   0  0  0  0  0  0  0  0  0  0  0  0
    6.0395   -2.2185    7.0860 S   0  0  0  0  0  0  0  0  0  0  0  0
    5.6122   -3.6755    8.0038 C   0  0  0  0  0  0  0  0  0  0  0  0
    5.9696   -4.8831    7.5423 N   0  0  0  0  0  0  0  0  0  0  0  0
    5.6629   -5.9237    8.3370 C   0  0  0  0  0  0  0  0  0  0  0  0
    5.0219   -5.7951    9.5483 C   0  0  0  0  0  0  0  0  0  0  0  0
    4.6859   -4.5148    9.9399 C   0  0  0  0  0  0  0  0  0  0  0  0
    4.1103   -4.3404   11.2189 N   0  0  0  0  0  0  0  0  0  0  0  0
    4.0553   -3.1874   12.0312 C   0  0  0  0  0  0  0  0  0  0  0  0
    4.8271   -2.0463   11.7865 C   0  0  0  0  0  0  0  0  0  0  0  0
    4.8737   -0.9863   12.6996 C   0  0  0  0  0  0  0  0  0  0  0  0
    4.1556   -1.0486   13.8960 C   0  0  0  0  0  0  0  0  0  0  0  0
    4.3104    0.0770   14.8551 C   0  0  0  0  0  0  0  0  0  0  0  0
    3.1893    0.4274   15.7936 C   0  0  0  0  0  0  0  0  0  0  0  0
    5.3554    0.7283   14.8554 O   0  0  0  0  0  0  0  0  0  0  0  0
    3.3808   -2.1785   14.1646 C   0  0  0  0  0  0  0  0  0  0  0  0
    3.3382   -3.2365   13.2412 C   0  0  0  0  0  0  0  0  0  0  0  0
    4.9727   -3.4613    9.1628 N   0  0  0  0  0  0  0  0  0  0  0  0
    8.6674   -3.7052    3.4110 C   0  0  0  0  0  0  0  0  0  0  0  0
    9.4306   -4.0890    2.3047 C   0  0  0  0  0  0  0  0  0  0  0  0
   11.7491   -3.3153   -1.3095 H   0  0  0  0  0  0  0  0  0  0  0  0
   12.0400   -2.1226   -0.0356 H   0  0  0  0  0  0  0  0  0  0  0  0
   10.4947   -2.1174   -0.9730 H   0  0  0  0  0  0  0  0  0  0  0  0
   10.2291   -1.0077    1.0993 H   0  0  0  0  0  0  0  0  0  0  0  0
    8.8929   -0.3335    3.0258 H   0  0  0  0  0  0  0  0  0  0  0  0
    7.8601   -3.5226    6.2030 H   0  0  0  0  0  0  0  0  0  0  0  0
    6.3930   -3.5899    5.1596 H   0  0  0  0  0  0  0  0  0  0  0  0
    5.9749   -6.8982    7.9713 H   0  0  0  0  0  0  0  0  0  0  0  0
    4.8357   -6.6567   10.1763 H   0  0  0  0  0  0  0  0  0  0  0  0
    3.3394   -4.9793   11.3752 H   0  0  0  0  0  0  0  0  0  0  0  0
    5.4302   -1.9525   10.8901 H   0  0  0  0  0  0  0  0  0  0  0  0
    5.4950   -0.1230   12.4749 H   0  0  0  0  0  0  0  0  0  0  0  0
    2.2908   -0.1681   15.6234 H   0  0  0  0  0  0  0  0  0  0  0  0
    2.9231    1.4775   15.6370 H   0  0  0  0  0  0  0  0  0  0  0  0
    3.5256    0.2836   16.8237 H   0  0  0  0  0  0  0  0  0  0  0  0
    2.8392   -2.2842   15.0995 H   0  0  0  0  0  0  0  0  0  0  0  0
    2.7590   -4.1228   13.4940 H   0  0  0  0  0  0  0  0  0  0  0  0
    8.2475   -4.4909    4.0333 H   0  0  0  0  0  0  0  0  0  0  0  0
    9.5842   -5.1459    2.1000 H   0  0  0  0  0  0  0  0  0  0  0  0
  1  2  1  0  0  0  0
  1 29  1  0  0  0  0
  1 30  1  0  0  0  0
  1 31  1  0  0  0  0
  2  3  1  0  0  0  0
  3  4  1  0  0  0  0
  3 28  2  0  0  0  0
  4  5  2  0  0  0  0
  4 32  1  0  0  0  0
  5  6  1  0  0  0  0
  5 33  1  0  0  0  0
  6  7  1  0  0  0  0
  6 27  2  0  0  0  0
  7  8  2  0  0  0  0
  7  9  1  0  0  0  0
  9 10  1  0  0  0  0
  9 34  1  0  0  0  0
  9 35  1  0  0  0  0
 10 11  1  0  0  0  0
 11 12  1  0  0  0  0
 11 26  2  0  0  0  0
 12 13  2  0  0  0  0
 13 14  1  0  0  0  0
 13 36  1  0  0  0  0
 14 15  2  0  0  0  0
 14 37  1  0  0  0  0
 15 16  1  0  0  0  0
 15 26  1  0  0  0  0
 16 17  1  0  0  0  0
 16 38  1  0  0  0  0
 17 18  1  0  0  0  0
 17 25  2  0  0  0  0
 18 19  2  0  0  0  0
 18 39  1  0  0  0  0
 19 20  1  0  0  0  0
 19 40  1  0  0  0  0
 20 21  1  0  0  0  0
 20 24  2  0  0  0  0
 21 22  1  0  0  0  0
 21 23  2  0  0  0  0
 22 41  1  0  0  0  0
 22 42  1  0  0  0  0
 22 43  1  0  0  0  0
 24 25  1  0  0  0  0
 24 44  1  0  0  0  0
 25 45  1  0  0  0  0
 27 28  1  0  0  0  0
 27 46  1  0  0  0  0
 28 47  1  0  0  0  0
M  END
$$$$
