CHEMBL1242034
 OpenBabel04072215363D

 41 44  0  0  0  0  0  0  0  0999 V2000
    3.1545    0.4305    1.2317 C   0  0  0  0  0  0  0  0  0  0  0  0
    2.5621    0.0856   -0.1390 C   0  0  0  0  0  0  0  0  0  0  0  0
    1.0386    0.0022   -0.0103 C   0  0  0  0  0  0  0  0  0  0  0  0
    3.0242    1.0485   -1.1488 N   0  0  0  0  0  0  0  0  0  0  0  0
    2.7294    2.3700   -0.9835 N   0  0  0  0  0  0  0  0  0  0  0  0
    3.0389    2.9393   -2.1706 C   0  0  0  0  0  0  0  0  0  0  0  0
    2.9502    4.3905   -2.3850 C   0  0  0  0  0  0  0  0  0  0  0  0
    3.1864    5.1145   -1.2211 C   0  0  0  0  0  0  0  0  0  0  0  0
    3.2635    6.4582   -1.2785 C   0  0  0  0  0  0  0  0  0  0  0  0
    3.0870    7.0647   -2.4527 C   0  0  0  0  0  0  0  0  0  0  0  0
    3.1504    8.3485   -2.3459 N   0  0  0  0  0  0  0  0  0  0  0  0
    3.2193    9.6015   -2.1657 C   0  0  0  0  0  0  0  0  0  0  0  0
    2.9750    9.5020   -3.4711 C   0  0  0  0  0  0  0  0  0  0  0  0
    2.7638    8.0987   -4.4118 C   0  0  0  0  0  0  0  0  0  0  0  0
    2.3465    8.3709   -5.7529 N   0  0  0  0  0  0  0  0  0  0  0  0
    2.8547    6.6695   -3.7215 C   0  0  0  0  0  0  0  0  0  0  0  0
    2.7883    5.1099   -3.6498 C   0  0  0  0  0  0  0  0  0  0  0  0
    3.6733    2.0095   -3.0241 C   0  0  0  0  0  0  0  0  0  0  0  0
    4.2824    2.0426   -4.2795 C   0  0  0  0  0  0  0  0  0  0  0  0
    4.4162    3.1964   -5.0114 N   0  0  0  0  0  0  0  0  0  0  0  0
    4.7379    0.8908   -4.8051 N   0  0  0  0  0  0  0  0  0  0  0  0
    4.6179   -0.2330   -4.0717 C   0  0  0  0  0  0  0  0  0  0  0  0
    4.1025   -0.3695   -2.8378 N   0  0  0  0  0  0  0  0  0  0  0  0
    3.6404    0.7994   -2.3553 C   0  0  0  0  0  0  0  0  0  0  0  0
    2.8342   -0.2850    1.9976 H   0  0  0  0  0  0  0  0  0  0  0  0
    2.8357    1.4306    1.5455 H   0  0  0  0  0  0  0  0  0  0  0  0
    4.2493    0.4201    1.2075 H   0  0  0  0  0  0  0  0  0  0  0  0
    2.9337   -0.9028   -0.4467 H   0  0  0  0  0  0  0  0  0  0  0  0
    0.6258    0.9702    0.2951 H   0  0  0  0  0  0  0  0  0  0  0  0
    0.7285   -0.7259    0.7462 H   0  0  0  0  0  0  0  0  0  0  0  0
    0.5848   -0.2888   -0.9632 H   0  0  0  0  0  0  0  0  0  0  0  0
    3.3559    4.6809   -0.2436 H   0  0  0  0  0  0  0  0  0  0  0  0
    3.4141    7.1053   -0.4238 H   0  0  0  0  0  0  0  0  0  0  0  0
    3.4055    9.5059   -1.1089 H   0  0  0  0  0  0  0  0  0  0  0  0
    2.8579   10.5138   -3.8620 H   0  0  0  0  0  0  0  0  0  0  0  0
    2.8774    8.1814   -6.6024 H   0  0  0  0  0  0  0  0  0  0  0  0
    2.3759    9.3800   -5.7207 H   0  0  0  0  0  0  0  0  0  0  0  0
    2.6440    4.4943   -4.5495 H   0  0  0  0  0  0  0  0  0  0  0  0
    4.1672    4.0904   -4.6233 H   0  0  0  0  0  0  0  0  0  0  0  0
    4.8349    3.1551   -5.9243 H   0  0  0  0  0  0  0  0  0  0  0  0
    4.9811   -1.1422   -4.5416 H   0  0  0  0  0  0  0  0  0  0  0  0
  1  2  1  0  0  0  0
  1 25  1  0  0  0  0
  1 26  1  0  0  0  0
  1 27  1  0  0  0  0
  2  3  1  0  0  0  0
  2  4  1  0  0  0  0
  2 28  1  0  0  0  0
  3 29  1  0  0  0  0
  3 30  1  0  0  0  0
  3 31  1  0  0  0  0
  4  5  1  0  0  0  0
  4 24  1  0  0  0  0
  5  6  2  0  0  0  0
  6  7  1  0  0  0  0
  6 18  1  0  0  0  0
  7  8  1  0  0  0  0
  7 17  2  0  0  0  0
  8  9  2  0  0  0  0
  8 32  1  0  0  0  0
  9 10  1  0  0  0  0
  9 33  1  0  0  0  0
 10 11  1  0  0  0  0
 10 16  2  0  0  0  0
 11 12  2  0  0  0  0
 12 13  1  0  0  0  0
 12 34  1  0  0  0  0
 13 14  2  0  0  0  0
 13 35  1  0  0  0  0
 14 15  1  0  0  0  0
 14 16  1  0  0  0  0
 15 36  1  0  0  0  0
 15 37  1  0  0  0  0
 16 17  1  0  0  0  0
 17 38  1  0  0  0  0
 18 19  1  0  0  0  0
 18 24  2  0  0  0  0
 19 20  1  0  0  0  0
 19 21  2  0  0  0  0
 20 39  1  0  0  0  0
 20 40  1  0  0  0  0
 21 22  1  0  0  0  0
 22 23  2  0  0  0  0
 22 41  1  0  0  0  0
 23 24  1  0  0  0  0
M  END
$$$$
