CHEMBL2018756
 OpenBabel04072215363D

 50 52  0  0  0  0  0  0  0  0999 V2000
    2.0754    4.2640   -0.1347 C   0  0  0  0  0  0  0  0  0  0  0  0
    1.8431    3.7548   -1.5473 C   0  0  0  0  0  0  0  0  0  0  0  0
    2.7910    2.7070   -1.8149 O   0  0  0  0  0  0  0  0  0  0  0  0
    3.9797    3.1630   -2.2958 C   0  0  0  0  0  0  0  0  0  0  0  0
    4.1427    4.3002   -2.7100 O   0  0  0  0  0  0  0  0  0  0  0  0
    4.9240    2.1736   -2.1955 N   0  0  0  0  0  0  0  0  0  0  0  0
    6.3153    2.3428   -2.3577 C   0  0  0  0  0  0  0  0  0  0  0  0
    6.8898    3.6211   -2.4069 C   0  0  0  0  0  0  0  0  0  0  0  0
    8.2641    3.8034   -2.5629 C   0  0  0  0  0  0  0  0  0  0  0  0
    9.1154    2.7073   -2.6195 C   0  0  0  0  0  0  0  0  0  0  0  0
   10.4941    2.8996   -2.8341 N   0  0  0  0  0  0  0  0  0  0  0  0
   11.5285    2.0403   -2.4016 C   0  0  0  0  0  0  0  0  0  0  0  0
   11.3442    1.3479   -1.2633 N   0  0  0  0  0  0  0  0  0  0  0  0
   12.3147    0.5025   -0.9197 C   0  0  0  0  0  0  0  0  0  0  0  0
   13.4343    0.2554   -1.6116 N   0  0  0  0  0  0  0  0  0  0  0  0
   13.6007    0.9399   -2.7540 C   0  0  0  0  0  0  0  0  0  0  0  0
   14.6824    0.6513   -3.5868 C   0  0  0  0  0  0  0  0  0  0  0  0
   14.9061    1.2903   -4.8309 C   0  0  0  0  0  0  0  0  0  0  0  0
   15.8275    0.6335   -5.6054 O   0  0  0  0  0  0  0  0  0  0  0  0
   16.9825    1.3428   -6.0231 C   0  0  0  0  0  0  0  0  0  0  0  0
   14.0364    2.3045   -5.2264 C   0  0  0  0  0  0  0  0  0  0  0  0
   13.9512    3.0900   -6.3321 O   0  0  0  0  0  0  0  0  0  0  0  0
   14.8574    3.0351   -7.4051 C   0  0  0  0  0  0  0  0  0  0  0  0
   12.9409    2.5919   -4.3896 C   0  0  0  0  0  0  0  0  0  0  0  0
   12.6898    1.9007   -3.1841 C   0  0  0  0  0  0  0  0  0  0  0  0
    8.5455    1.4261   -2.5681 C   0  0  0  0  0  0  0  0  0  0  0  0
    7.1562    1.2215   -2.4470 C   0  0  0  0  0  0  0  0  0  0  0  0
    6.6441   -0.1924   -2.4524 C   0  0  0  0  0  0  0  0  0  0  0  0
    1.4042    5.0929    0.1030 H   0  0  0  0  0  0  0  0  0  0  0  0
    3.1097    4.6009   -0.0022 H   0  0  0  0  0  0  0  0  0  0  0  0
    1.9144    3.4569    0.5874 H   0  0  0  0  0  0  0  0  0  0  0  0
    1.9128    4.5731   -2.2745 H   0  0  0  0  0  0  0  0  0  0  0  0
    0.8374    3.3349   -1.6417 H   0  0  0  0  0  0  0  0  0  0  0  0
    4.5639    1.2618   -1.9575 H   0  0  0  0  0  0  0  0  0  0  0  0
    6.2922    4.5216   -2.3077 H   0  0  0  0  0  0  0  0  0  0  0  0
    8.6484    4.8174   -2.6226 H   0  0  0  0  0  0  0  0  0  0  0  0
   10.7912    3.8661   -2.7891 H   0  0  0  0  0  0  0  0  0  0  0  0
   12.1721   -0.0421    0.0095 H   0  0  0  0  0  0  0  0  0  0  0  0
   15.3438   -0.1581   -3.2793 H   0  0  0  0  0  0  0  0  0  0  0  0
   17.8557    0.6898   -5.9184 H   0  0  0  0  0  0  0  0  0  0  0  0
   17.1658    2.2678   -5.4692 H   0  0  0  0  0  0  0  0  0  0  0  0
   16.8989    1.5336   -7.0955 H   0  0  0  0  0  0  0  0  0  0  0  0
   14.4930    3.7358   -8.1649 H   0  0  0  0  0  0  0  0  0  0  0  0
   14.8817    2.0445   -7.8638 H   0  0  0  0  0  0  0  0  0  0  0  0
   15.8413    3.4036   -7.1076 H   0  0  0  0  0  0  0  0  0  0  0  0
   12.2233    3.3349   -4.7355 H   0  0  0  0  0  0  0  0  0  0  0  0
    9.1987    0.5592   -2.6505 H   0  0  0  0  0  0  0  0  0  0  0  0
    7.4353   -0.9027   -2.7202 H   0  0  0  0  0  0  0  0  0  0  0  0
    5.8519   -0.3098   -3.1988 H   0  0  0  0  0  0  0  0  0  0  0  0
    6.2652   -0.4710   -1.4647 H   0  0  0  0  0  0  0  0  0  0  0  0
  1  2  1  0  0  0  0
  1 29  1  0  0  0  0
  1 30  1  0  0  0  0
  1 31  1  0  0  0  0
  2  3  1  0  0  0  0
  2 32  1  0  0  0  0
  2 33  1  0  0  0  0
  3  4  1  0  0  0  0
  4  5  2  0  0  0  0
  4  6  1  0  0  0  0
  6  7  1  0  0  0  0
  6 34  1  0  0  0  0
  7  8  1  0  0  0  0
  7 27  2  0  0  0  0
  8  9  2  0  0  0  0
  8 35  1  0  0  0  0
  9 10  1  0  0  0  0
  9 36  1  0  0  0  0
 10 11  1  0  0  0  0
 10 26  2  0  0  0  0
 11 12  1  0  0  0  0
 11 37  1  0  0  0  0
 12 13  1  0  0  0  0
 12 25  2  0  0  0  0
 13 14  2  0  0  0  0
 14 15  1  0  0  0  0
 14 38  1  0  0  0  0
 15 16  2  0  0  0  0
 16 17  1  0  0  0  0
 16 25  1  0  0  0  0
 17 18  2  0  0  0  0
 17 39  1  0  0  0  0
 18 19  1  0  0  0  0
 18 21  1  0  0  0  0
 19 20  1  0  0  0  0
 20 40  1  0  0  0  0
 20 41  1  0  0  0  0
 20 42  1  0  0  0  0
 21 22  1  0  0  0  0
 21 24  2  0  0  0  0
 22 23  1  0  0  0  0
 23 43  1  0  0  0  0
 23 44  1  0  0  0  0
 23 45  1  0  0  0  0
 24 25  1  0  0  0  0
 24 46  1  0  0  0  0
 26 27  1  0  0  0  0
 26 47  1  0  0  0  0
 27 28  1  0  0  0  0
 28 48  1  0  0  0  0
 28 49  1  0  0  0  0
 28 50  1  0  0  0  0
M  END
$$$$
