CHEMBL1097824
 OpenBabel04072215363D

 58 63  0  0  0  0  0  0  0  0999 V2000
    0.3614    3.1151   -2.4023 C   0  0  0  0  0  0  0  0  0  0  0  0
    0.0982    1.7672   -2.8330 N   0  0  0  0  0  0  0  0  0  0  0  0
    0.9754    0.9157   -3.4364 C   0  0  0  0  0  0  0  0  0  0  0  0
    0.4428   -0.2741   -3.6121 N   0  0  0  0  0  0  0  0  0  0  0  0
   -0.8426   -0.1681   -3.1341 C   0  0  0  0  0  0  0  0  0  0  0  0
   -1.8154   -1.2942   -3.1087 C   0  0  0  0  0  0  0  0  0  0  0  0
   -1.4967   -2.5925   -3.4374 C   0  0  0  0  0  0  0  0  0  0  0  0
   -2.6003   -3.4777   -3.2643 C   0  0  0  0  0  0  0  0  0  0  0  0
   -2.5682   -4.8232   -3.4729 N   0  0  0  0  0  0  0  0  0  0  0  0
   -3.7151   -5.4819   -3.2255 C   0  0  0  0  0  0  0  0  0  0  0  0
   -4.8987   -4.8980   -2.8165 C   0  0  0  0  0  0  0  0  0  0  0  0
   -4.9510   -3.5101   -2.6793 C   0  0  0  0  0  0  0  0  0  0  0  0
   -6.1071   -2.8279   -2.3488 O   0  0  0  0  0  0  0  0  0  0  0  0
   -7.2659   -3.1463   -3.0224 C   0  0  0  0  0  0  0  0  0  0  0  0
   -7.2862   -3.7094   -4.2953 C   0  0  0  0  0  0  0  0  0  0  0  0
   -8.4896   -4.1475   -4.8397 C   0  0  0  0  0  0  0  0  0  0  0  0
   -9.6983   -3.9896   -4.1517 C   0  0  0  0  0  0  0  0  0  0  0  0
  -10.9069   -4.5341   -4.6437 N   0  0  0  0  0  0  0  0  0  0  0  0
  -10.9435   -5.6228   -5.5050 C   0  0  0  0  0  0  0  0  0  0  0  0
   -9.9526   -6.2728   -5.8333 O   0  0  0  0  0  0  0  0  0  0  0  0
  -12.2502   -6.0169   -5.9965 C   0  0  0  0  0  0  0  0  0  0  0  0
  -13.4555   -5.3089   -6.1512 C   0  0  0  0  0  0  0  0  0  0  0  0
  -14.3865   -5.9977   -6.8162 N   0  0  0  0  0  0  0  0  0  0  0  0
  -13.8279   -7.2262   -7.0068 N   0  0  0  0  0  0  0  0  0  0  0  0
  -14.5601   -8.2757   -7.6199 C   0  0  0  0  0  0  0  0  0  0  0  0
  -15.5099   -7.9702   -8.6014 C   0  0  0  0  0  0  0  0  0  0  0  0
  -16.2009   -9.0023   -9.2391 C   0  0  0  0  0  0  0  0  0  0  0  0
  -15.9784  -10.3298   -8.8692 C   0  0  0  0  0  0  0  0  0  0  0  0
  -15.0531  -10.6335   -7.8720 C   0  0  0  0  0  0  0  0  0  0  0  0
  -14.3344   -9.6104   -7.2541 C   0  0  0  0  0  0  0  0  0  0  0  0
  -12.5086   -7.2539   -6.5646 C   0  0  0  0  0  0  0  0  0  0  0  0
  -11.6411   -8.2883   -6.7658 N   0  0  0  0  0  0  0  0  0  0  0  0
   -9.6987   -3.2830   -2.9498 C   0  0  0  0  0  0  0  0  0  0  0  0
   -8.4815   -2.8781   -2.3900 C   0  0  0  0  0  0  0  0  0  0  0  0
   -8.4986   -2.2462   -1.2067 F   0  0  0  0  0  0  0  0  0  0  0  0
   -3.7529   -2.8045   -2.8576 C   0  0  0  0  0  0  0  0  0  0  0  0
   -3.4476   -1.1294   -2.6525 S   0  0  0  0  0  0  0  0  0  0  0  0
   -1.0828    1.1045   -2.6671 C   0  0  0  0  0  0  0  0  0  0  0  0
    1.3382    3.4349   -2.7704 H   0  0  0  0  0  0  0  0  0  0  0  0
    0.3501    3.1258   -1.3089 H   0  0  0  0  0  0  0  0  0  0  0  0
   -0.4212    3.7687   -2.7957 H   0  0  0  0  0  0  0  0  0  0  0  0
    1.9826    1.2004   -3.7106 H   0  0  0  0  0  0  0  0  0  0  0  0
   -0.5105   -2.9080   -3.7557 H   0  0  0  0  0  0  0  0  0  0  0  0
   -3.6642   -6.5570   -3.3854 H   0  0  0  0  0  0  0  0  0  0  0  0
   -5.7742   -5.5160   -2.6478 H   0  0  0  0  0  0  0  0  0  0  0  0
   -6.3776   -3.8612   -4.8714 H   0  0  0  0  0  0  0  0  0  0  0  0
   -8.4427   -4.6255   -5.8147 H   0  0  0  0  0  0  0  0  0  0  0  0
  -11.7705   -4.2708   -4.1834 H   0  0  0  0  0  0  0  0  0  0  0  0
  -13.6877   -4.2919   -5.8606 H   0  0  0  0  0  0  0  0  0  0  0  0
  -15.6819   -6.9403   -8.9081 H   0  0  0  0  0  0  0  0  0  0  0  0
  -16.9129   -8.7708  -10.0271 H   0  0  0  0  0  0  0  0  0  0  0  0
  -16.5333  -11.1289   -9.3538 H   0  0  0  0  0  0  0  0  0  0  0  0
  -14.8963  -11.6653   -7.5677 H   0  0  0  0  0  0  0  0  0  0  0  0
  -13.6408   -9.8684   -6.4566 H   0  0  0  0  0  0  0  0  0  0  0  0
  -11.7714   -8.9010   -7.5696 H   0  0  0  0  0  0  0  0  0  0  0  0
  -10.6456   -8.0676   -6.6331 H   0  0  0  0  0  0  0  0  0  0  0  0
  -10.6122   -3.0870   -2.3988 H   0  0  0  0  0  0  0  0  0  0  0  0
   -1.9500    1.5620   -2.2140 H   0  0  0  0  0  0  0  0  0  0  0  0
  1  2  1  0  0  0  0
  1 39  1  0  0  0  0
  1 40  1  0  0  0  0
  1 41  1  0  0  0  0
  2  3  1  0  0  0  0
  2 38  1  0  0  0  0
  3  4  2  0  0  0  0
  3 42  1  0  0  0  0
  4  5  1  0  0  0  0
  5  6  1  0  0  0  0
  5 38  2  0  0  0  0
  6  7  2  0  0  0  0
  6 37  1  0  0  0  0
  7  8  1  0  0  0  0
  7 43  1  0  0  0  0
  8  9  1  0  0  0  0
  8 36  2  0  0  0  0
  9 10  2  0  0  0  0
 10 11  1  0  0  0  0
 10 44  1  0  0  0  0
 11 12  2  0  0  0  0
 11 45  1  0  0  0  0
 12 13  1  0  0  0  0
 12 36  1  0  0  0  0
 13 14  1  0  0  0  0
 14 15  1  0  0  0  0
 14 34  2  0  0  0  0
 15 16  2  0  0  0  0
 15 46  1  0  0  0  0
 16 17  1  0  0  0  0
 16 47  1  0  0  0  0
 17 18  1  0  0  0  0
 17 33  2  0  0  0  0
 18 19  1  0  0  0  0
 18 48  1  0  0  0  0
 19 20  2  0  0  0  0
 19 21  1  0  0  0  0
 21 22  1  0  0  0  0
 21 31  2  0  0  0  0
 22 23  2  0  0  0  0
 22 49  1  0  0  0  0
 23 24  1  0  0  0  0
 24 25  1  0  0  0  0
 24 31  1  0  0  0  0
 25 26  1  0  0  0  0
 25 30  2  0  0  0  0
 26 27  2  0  0  0  0
 26 50  1  0  0  0  0
 27 28  1  0  0  0  0
 27 51  1  0  0  0  0
 28 29  2  0  0  0  0
 28 52  1  0  0  0  0
 29 30  1  0  0  0  0
 29 53  1  0  0  0  0
 30 54  1  0  0  0  0
 31 32  1  0  0  0  0
 32 55  1  0  0  0  0
 32 56  1  0  0  0  0
 33 34  1  0  0  0  0
 33 57  1  0  0  0  0
 34 35  1  0  0  0  0
 36 37  1  0  0  0  0
 38 58  1  0  0  0  0
M  END
$$$$
