CHEMBL92516
 OpenBabel04072215383D

 30 33  0  0  0  0  0  0  0  0999 V2000
   -0.6157   -0.9892    0.5296 C   0  0  0  0  0  0  0  0  0  0  0  0
    0.7682   -1.0062    0.5686 C   0  0  0  0  0  0  0  0  0  0  0  0
    1.4571    0.0479   -0.0317 C   0  0  0  0  0  0  0  0  0  0  0  0
    2.9157    0.0711   -0.0275 C   0  0  0  0  0  0  0  0  0  0  0  0
    3.7012    0.6986    1.0792 C   0  0  0  0  0  0  0  0  0  0  0  0
    4.9969    0.7461    1.1725 N   0  0  0  0  0  0  0  0  0  0  0  0
    5.6975    0.1623    0.1461 C   0  0  0  0  0  0  0  0  0  0  0  0
    7.0488   -0.0006   -0.0938 C   0  0  0  0  0  0  0  0  0  0  0  0
    8.1904    0.4164    0.7272 C   0  0  0  0  0  0  0  0  0  0  0  0
    9.5528    0.1932    0.3535 C   0  0  0  0  0  0  0  0  0  0  0  0
   10.4401    0.6735    1.2923 C   0  0  0  0  0  0  0  0  0  0  0  0
    9.6427    1.3905    2.6227 S   0  0  0  0  0  0  0  0  0  0  0  0
    8.1063    1.0601    1.9450 C   0  0  0  0  0  0  0  0  0  0  0  0
    7.1173   -0.6738   -1.3280 C   0  0  0  0  0  0  0  0  0  0  0  0
    5.9175   -0.9377   -1.8473 N   0  0  0  0  0  0  0  0  0  0  0  0
    5.0445   -0.4336   -0.9419 N   0  0  0  0  0  0  0  0  0  0  0  0
    3.6563   -0.4701   -1.0072 C   0  0  0  0  0  0  0  0  0  0  0  0
    0.7364    1.0715   -0.6467 C   0  0  0  0  0  0  0  0  0  0  0  0
   -0.6460    0.9976   -0.6316 C   0  0  0  0  0  0  0  0  0  0  0  0
   -1.3360   -0.0095   -0.0556 N   0  0  0  0  0  0  0  0  0  0  0  0
   -1.1996   -1.7866    0.9811 H   0  0  0  0  0  0  0  0  0  0  0  0
    1.2874   -1.8266    1.0538 H   0  0  0  0  0  0  0  0  0  0  0  0
    3.1014    1.1607    1.8821 H   0  0  0  0  0  0  0  0  0  0  0  0
    9.8850   -0.2941   -0.5543 H   0  0  0  0  0  0  0  0  0  0  0  0
   11.5204    0.6371    1.2613 H   0  0  0  0  0  0  0  0  0  0  0  0
    7.2151    1.3570    2.4811 H   0  0  0  0  0  0  0  0  0  0  0  0
    7.9923   -0.9909   -1.8800 H   0  0  0  0  0  0  0  0  0  0  0  0
    3.2424   -0.9602   -1.8789 H   0  0  0  0  0  0  0  0  0  0  0  0
    1.2304    1.9083   -1.1293 H   0  0  0  0  0  0  0  0  0  0  0  0
   -1.2539    1.7684   -1.0973 H   0  0  0  0  0  0  0  0  0  0  0  0
  1  2  1  0  0  0  0
  1 20  2  0  0  0  0
  1 21  1  0  0  0  0
  2  3  2  0  0  0  0
  2 22  1  0  0  0  0
  3  4  1  0  0  0  0
  3 18  1  0  0  0  0
  4  5  1  0  0  0  0
  4 17  2  0  0  0  0
  5  6  2  0  0  0  0
  5 23  1  0  0  0  0
  6  7  1  0  0  0  0
  7  8  2  0  0  0  0
  7 16  1  0  0  0  0
  8  9  1  0  0  0  0
  8 14  1  0  0  0  0
  9 10  1  0  0  0  0
  9 13  2  0  0  0  0
 10 11  2  0  0  0  0
 10 24  1  0  0  0  0
 11 12  1  0  0  0  0
 11 25  1  0  0  0  0
 12 13  1  0  0  0  0
 13 26  1  0  0  0  0
 14 15  2  0  0  0  0
 14 27  1  0  0  0  0
 15 16  1  0  0  0  0
 16 17  1  0  0  0  0
 17 28  1  0  0  0  0
 18 19  2  0  0  0  0
 18 29  1  0  0  0  0
 19 20  1  0  0  0  0
 19 30  1  0  0  0  0
M  END
$$$$
