CHEMBL461776
 OpenBabel04072215383D

 49 52  0  0  0  0  0  0  0  0999 V2000
    0.7000   -0.6352    0.3194 C   0  0  0  0  0  0  0  0  0  0  0  0
    2.1110   -0.3629    0.5122 N   0  0  0  0  0  0  0  0  0  0  0  0
    3.0134   -1.4125    0.3593 C   0  0  0  0  0  0  0  0  0  0  0  0
    2.7742   -2.4596   -0.2357 O   0  0  0  0  0  0  0  0  0  0  0  0
    4.2681   -1.2247    1.1418 C   0  0  0  0  0  0  0  0  0  0  0  0
    4.7312   -2.3025    1.8055 C   0  0  0  0  0  0  0  0  0  0  0  0
    5.6549   -2.1615    2.8850 C   0  0  0  0  0  0  0  0  0  0  0  0
    5.7732   -1.1099    3.7741 C   0  0  0  0  0  0  0  0  0  0  0  0
    6.7916   -1.3012    4.7393 C   0  0  0  0  0  0  0  0  0  0  0  0
    7.4542   -2.5093    4.6035 C   0  0  0  0  0  0  0  0  0  0  0  0
    8.5533   -3.0473    5.3427 C   0  0  0  0  0  0  0  0  0  0  0  0
    9.1329   -2.3625    6.3475 C   0  0  0  0  0  0  0  0  0  0  0  0
   10.3029   -2.9047    7.0772 C   0  0  0  0  0  0  0  0  0  0  0  0
   10.7912   -4.0057    6.8193 O   0  0  0  0  0  0  0  0  0  0  0  0
   10.7774   -2.0598    8.0479 N   0  0  0  0  0  0  0  0  0  0  0  0
   11.9239   -2.4112    8.8621 C   0  0  0  0  0  0  0  0  0  0  0  0
   13.0509   -1.4271    8.7108 C   0  0  0  0  0  0  0  0  0  0  0  0
   13.6730   -1.2039    7.4777 C   0  0  0  0  0  0  0  0  0  0  0  0
   14.7672   -0.3455    7.3937 C   0  0  0  0  0  0  0  0  0  0  0  0
   15.2128    0.2645    8.5532 C   0  0  0  0  0  0  0  0  0  0  0  0
   14.6175    0.1101    9.7549 N   0  0  0  0  0  0  0  0  0  0  0  0
   13.5520   -0.7250    9.8041 C   0  0  0  0  0  0  0  0  0  0  0  0
    6.7454   -3.4174    3.3125 S   0  0  0  0  0  0  0  0  0  0  0  0
    4.7840    0.0449    1.3261 O   0  0  0  0  0  0  0  0  0  0  0  0
    3.8988    1.0888    1.2884 C   0  0  0  0  0  0  0  0  0  0  0  0
    4.4065    2.3367    1.6577 C   0  0  0  0  0  0  0  0  0  0  0  0
    3.5530    3.4324    1.7275 C   0  0  0  0  0  0  0  0  0  0  0  0
    2.2004    3.2715    1.4349 C   0  0  0  0  0  0  0  0  0  0  0  0
    1.7001    2.0200    1.0530 C   0  0  0  0  0  0  0  0  0  0  0  0
    2.5507    0.9135    0.9621 C   0  0  0  0  0  0  0  0  0  0  0  0
    0.5310   -1.6579   -0.0314 H   0  0  0  0  0  0  0  0  0  0  0  0
    0.2639    0.0589   -0.4025 H   0  0  0  0  0  0  0  0  0  0  0  0
    0.1992   -0.5376    1.2901 H   0  0  0  0  0  0  0  0  0  0  0  0
    4.2971   -3.2849    1.6261 H   0  0  0  0  0  0  0  0  0  0  0  0
    5.1512   -0.2247    3.7290 H   0  0  0  0  0  0  0  0  0  0  0  0
    7.0244   -0.5594    5.4905 H   0  0  0  0  0  0  0  0  0  0  0  0
    8.9404   -4.0261    5.0623 H   0  0  0  0  0  0  0  0  0  0  0  0
    8.7846   -1.3870    6.6521 H   0  0  0  0  0  0  0  0  0  0  0  0
   10.3123   -1.1840    8.2394 H   0  0  0  0  0  0  0  0  0  0  0  0
   12.2731   -3.4178    8.6064 H   0  0  0  0  0  0  0  0  0  0  0  0
   11.5806   -2.4472    9.9028 H   0  0  0  0  0  0  0  0  0  0  0  0
   13.3093   -1.6991    6.5800 H   0  0  0  0  0  0  0  0  0  0  0  0
   15.2657   -0.1666    6.4479 H   0  0  0  0  0  0  0  0  0  0  0  0
   16.0846    0.9130    8.5449 H   0  0  0  0  0  0  0  0  0  0  0  0
   13.0957   -0.8053   10.7876 H   0  0  0  0  0  0  0  0  0  0  0  0
    5.4607    2.4473    1.8997 H   0  0  0  0  0  0  0  0  0  0  0  0
    3.9379    4.4075    2.0158 H   0  0  0  0  0  0  0  0  0  0  0  0
    1.5313    4.1270    1.4942 H   0  0  0  0  0  0  0  0  0  0  0  0
    0.6435    1.9490    0.8157 H   0  0  0  0  0  0  0  0  0  0  0  0
  1  2  1  0  0  0  0
  1 31  1  0  0  0  0
  1 32  1  0  0  0  0
  1 33  1  0  0  0  0
  2  3  1  0  0  0  0
  2 30  1  0  0  0  0
  3  4  2  0  0  0  0
  3  5  1  0  0  0  0
  5  6  2  0  0  0  0
  5 24  1  0  0  0  0
  6  7  1  0  0  0  0
  6 34  1  0  0  0  0
  7  8  2  0  0  0  0
  7 23  1  0  0  0  0
  8  9  1  0  0  0  0
  8 35  1  0  0  0  0
  9 10  2  0  0  0  0
  9 36  1  0  0  0  0
 10 11  1  0  0  0  0
 10 23  1  0  0  0  0
 11 12  2  0  0  0  0
 11 37  1  0  0  0  0
 12 13  1  0  0  0  0
 12 38  1  0  0  0  0
 13 14  2  0  0  0  0
 13 15  1  0  0  0  0
 15 16  1  0  0  0  0
 15 39  1  0  0  0  0
 16 17  1  0  0  0  0
 16 40  1  0  0  0  0
 16 41  1  0  0  0  0
 17 18  1  0  0  0  0
 17 22  2  0  0  0  0
 18 19  2  0  0  0  0
 18 42  1  0  0  0  0
 19 20  1  0  0  0  0
 19 43  1  0  0  0  0
 20 21  2  0  0  0  0
 20 44  1  0  0  0  0
 21 22  1  0  0  0  0
 22 45  1  0  0  0  0
 24 25  1  0  0  0  0
 25 26  1  0  0  0  0
 25 30  2  0  0  0  0
 26 27  2  0  0  0  0
 26 46  1  0  0  0  0
 27 28  1  0  0  0  0
 27 47  1  0  0  0  0
 28 29  2  0  0  0  0
 28 48  1  0  0  0  0
 29 30  1  0  0  0  0
 29 49  1  0  0  0  0
M  END
$$$$
