CHEMBL1084974
 OpenBabel04072215363D

 68 73  0  0  0  0  0  0  0  0999 V2000
   -5.9289   -2.4207    7.7022 C   0  0  0  0  0  0  0  0  0  0  0  0
   -4.9985   -1.8905    6.7123 N   0  0  0  0  0  0  0  0  0  0  0  0
   -4.9216   -2.7833    5.5346 C   0  0  0  0  0  0  0  0  0  0  0  0
   -3.9335   -2.2620    4.4667 C   0  0  0  0  0  0  0  0  0  0  0  0
   -4.2877   -0.8905    4.0843 N   0  0  0  0  0  0  0  0  0  0  0  0
   -4.3041   -0.4910    2.7656 C   0  0  0  0  0  0  0  0  0  0  0  0
   -3.4825   -1.0837    1.7988 C   0  0  0  0  0  0  0  0  0  0  0  0
   -3.5711   -0.7411    0.4466 C   0  0  0  0  0  0  0  0  0  0  0  0
   -4.5015    0.2056    0.0279 C   0  0  0  0  0  0  0  0  0  0  0  0
   -5.3308    0.8289    0.9623 C   0  0  0  0  0  0  0  0  0  0  0  0
   -6.3486    1.7702    0.5313 C   0  0  0  0  0  0  0  0  0  0  0  0
   -7.1211    1.7998   -0.6433 C   0  0  0  0  0  0  0  0  0  0  0  0
   -7.9772    2.8205   -0.6956 N   0  0  0  0  0  0  0  0  0  0  0  0
   -7.7860    3.4692    0.4925 N   0  0  0  0  0  0  0  0  0  0  0  0
   -8.4542    4.6470    0.9339 C   0  0  0  0  0  0  0  0  0  0  0  0
   -9.4372    5.1695    0.0918 N   0  0  0  0  0  0  0  0  0  0  0  0
   -8.0776    5.1896    2.1117 C   0  0  0  0  0  0  0  0  0  0  0  0
   -8.6203    6.4243    2.6830 C   0  0  0  0  0  0  0  0  0  0  0  0
   -9.7563    6.4008    3.5008 C   0  0  0  0  0  0  0  0  0  0  0  0
  -10.2211    7.5801    4.0936 C   0  0  0  0  0  0  0  0  0  0  0  0
   -9.5648    8.7873    3.8600 C   0  0  0  0  0  0  0  0  0  0  0  0
  -10.0561    9.9801    4.4510 N   0  0  0  0  0  0  0  0  0  0  0  0
   -9.5158   10.4757    5.9686 S   0  0  0  0  0  0  0  0  0  0  0  0
  -10.1365   11.7498    6.2611 O   0  0  0  0  0  0  0  0  0  0  0  0
   -9.6656    9.3564    6.8778 O   0  0  0  0  0  0  0  0  0  0  0  0
   -7.7714   10.7724    5.7672 C   0  0  0  0  0  0  0  0  0  0  0  0
   -6.8825   10.0462    6.5781 C   0  0  0  0  0  0  0  0  0  0  0  0
   -5.5063   10.1675    6.3970 C   0  0  0  0  0  0  0  0  0  0  0  0
   -5.0133   11.0054    5.4016 C   0  0  0  0  0  0  0  0  0  0  0  0
   -5.8940   11.7548    4.6133 C   0  0  0  0  0  0  0  0  0  0  0  0
   -5.1862   12.7271    3.3665 Cl  0  0  0  0  0  0  0  0  0  0  0  0
   -7.2850   11.6686    4.8059 C   0  0  0  0  0  0  0  0  0  0  0  0
   -8.3431   12.6333    3.8242 Cl  0  0  0  0  0  0  0  0  0  0  0  0
   -8.4511    8.8194    3.0209 C   0  0  0  0  0  0  0  0  0  0  0  0
   -7.9760    7.6423    2.4395 C   0  0  0  0  0  0  0  0  0  0  0  0
   -6.9982    4.4564    2.8468 C   0  0  0  0  0  0  0  0  0  0  0  0
   -6.3886    3.3828    2.4619 N   0  0  0  0  0  0  0  0  0  0  0  0
   -6.7785    2.8707    1.2551 C   0  0  0  0  0  0  0  0  0  0  0  0
   -5.2057    0.4831    2.3181 C   0  0  0  0  0  0  0  0  0  0  0  0
   -4.4577    0.0496    5.2027 C   0  0  0  0  0  0  0  0  0  0  0  0
   -5.4181   -0.5434    6.2597 C   0  0  0  0  0  0  0  0  0  0  0  0
   -5.5918   -3.4028    8.0518 H   0  0  0  0  0  0  0  0  0  0  0  0
   -6.9464   -2.5238    7.3092 H   0  0  0  0  0  0  0  0  0  0  0  0
   -5.9607   -1.7681    8.5812 H   0  0  0  0  0  0  0  0  0  0  0  0
   -5.9149   -2.8903    5.0752 H   0  0  0  0  0  0  0  0  0  0  0  0
   -4.5964   -3.7836    5.8431 H   0  0  0  0  0  0  0  0  0  0  0  0
   -3.9883   -2.9499    3.6147 H   0  0  0  0  0  0  0  0  0  0  0  0
   -2.9075   -2.2844    4.8519 H   0  0  0  0  0  0  0  0  0  0  0  0
   -2.7440   -1.8253    2.0913 H   0  0  0  0  0  0  0  0  0  0  0  0
   -2.9188   -1.2240   -0.2747 H   0  0  0  0  0  0  0  0  0  0  0  0
   -4.5659    0.4485   -1.0280 H   0  0  0  0  0  0  0  0  0  0  0  0
   -7.0992    1.1015   -1.4770 H   0  0  0  0  0  0  0  0  0  0  0  0
   -9.3370    4.8078   -0.8612 H   0  0  0  0  0  0  0  0  0  0  0  0
   -9.5327    6.1796    0.1384 H   0  0  0  0  0  0  0  0  0  0  0  0
  -10.2856    5.4674    3.6828 H   0  0  0  0  0  0  0  0  0  0  0  0
  -11.1051    7.5490    4.7276 H   0  0  0  0  0  0  0  0  0  0  0  0
  -10.3455   10.7478    3.8439 H   0  0  0  0  0  0  0  0  0  0  0  0
   -7.2537    9.3721    7.3500 H   0  0  0  0  0  0  0  0  0  0  0  0
   -4.8190    9.5934    7.0159 H   0  0  0  0  0  0  0  0  0  0  0  0
   -3.9385   11.0674    5.2379 H   0  0  0  0  0  0  0  0  0  0  0  0
   -7.9370    9.7499    2.8036 H   0  0  0  0  0  0  0  0  0  0  0  0
   -7.0996    7.6844    1.7955 H   0  0  0  0  0  0  0  0  0  0  0  0
   -6.7064    4.8956    3.8172 H   0  0  0  0  0  0  0  0  0  0  0  0
   -5.8828    0.9398    3.0341 H   0  0  0  0  0  0  0  0  0  0  0  0
   -4.8415    1.0269    4.8918 H   0  0  0  0  0  0  0  0  0  0  0  0
   -3.4775    0.2369    5.6596 H   0  0  0  0  0  0  0  0  0  0  0  0
   -6.4301   -0.5843    5.8334 H   0  0  0  0  0  0  0  0  0  0  0  0
   -5.4509    0.1392    7.1171 H   0  0  0  0  0  0  0  0  0  0  0  0
  1  2  1  0  0  0  0
  1 42  1  0  0  0  0
  1 43  1  0  0  0  0
  1 44  1  0  0  0  0
  2  3  1  0  0  0  0
  2 41  1  0  0  0  0
  3  4  1  0  0  0  0
  3 45  1  0  0  0  0
  3 46  1  0  0  0  0
  4  5  1  0  0  0  0
  4 47  1  0  0  0  0
  4 48  1  0  0  0  0
  5  6  1  0  0  0  0
  5 40  1  0  0  0  0
  6  7  1  0  0  0  0
  6 39  2  0  0  0  0
  7  8  2  0  0  0  0
  7 49  1  0  0  0  0
  8  9  1  0  0  0  0
  8 50  1  0  0  0  0
  9 10  2  0  0  0  0
  9 51  1  0  0  0  0
 10 11  1  0  0  0  0
 10 39  1  0  0  0  0
 11 12  1  0  0  0  0
 11 38  2  0  0  0  0
 12 13  2  0  0  0  0
 12 52  1  0  0  0  0
 13 14  1  0  0  0  0
 14 15  1  0  0  0  0
 14 38  1  0  0  0  0
 15 16  1  0  0  0  0
 15 17  2  0  0  0  0
 16 53  1  0  0  0  0
 16 54  1  0  0  0  0
 17 18  1  0  0  0  0
 17 36  1  0  0  0  0
 18 19  1  0  0  0  0
 18 35  2  0  0  0  0
 19 20  2  0  0  0  0
 19 55  1  0  0  0  0
 20 21  1  0  0  0  0
 20 56  1  0  0  0  0
 21 22  1  0  0  0  0
 21 34  2  0  0  0  0
 22 23  1  0  0  0  0
 22 57  1  0  0  0  0
 23 24  2  0  0  0  0
 23 25  2  0  0  0  0
 23 26  1  0  0  0  0
 26 27  1  0  0  0  0
 26 32  2  0  0  0  0
 27 28  2  0  0  0  0
 27 58  1  0  0  0  0
 28 29  1  0  0  0  0
 28 59  1  0  0  0  0
 29 30  2  0  0  0  0
 29 60  1  0  0  0  0
 30 31  1  0  0  0  0
 30 32  1  0  0  0  0
 32 33  1  0  0  0  0
 34 35  1  0  0  0  0
 34 61  1  0  0  0  0
 35 62  1  0  0  0  0
 36 37  2  0  0  0  0
 36 63  1  0  0  0  0
 37 38  1  0  0  0  0
 39 64  1  0  0  0  0
 40 41  1  0  0  0  0
 40 65  1  0  0  0  0
 40 66  1  0  0  0  0
 41 67  1  0  0  0  0
 41 68  1  0  0  0  0
M  END
$$$$
