CHEMBL481968
 OpenBabel04072215383D

 45 47  0  0  0  0  0  0  0  0999 V2000
    1.7692   -1.6964    1.6966 O   0  0  0  0  0  0  0  0  0  0  0  0
    2.7742   -1.1844    1.1968 C   0  0  0  0  0  0  0  0  0  0  0  0
    3.2607    0.0519    1.6253 N   0  0  0  0  0  0  0  0  0  0  0  0
    2.5786    0.6871    2.6199 N   0  0  0  0  0  0  0  0  0  0  0  0
    2.9816    1.8484    3.0116 C   0  0  0  0  0  0  0  0  0  0  0  0
    2.2186    2.5460    4.0698 C   0  0  0  0  0  0  0  0  0  0  0  0
    1.0629    1.9692    4.6196 C   0  0  0  0  0  0  0  0  0  0  0  0
    0.3107    2.6534    5.5958 C   0  0  0  0  0  0  0  0  0  0  0  0
   -0.9094    2.0225    6.1799 C   0  0  0  0  0  0  0  0  0  0  0  0
   -1.7936    2.6877    6.6973 O   0  0  0  0  0  0  0  0  0  0  0  0
   -0.9585    0.6742    6.1438 O   0  0  0  0  0  0  0  0  0  0  0  0
    0.6801    3.9692    5.9779 C   0  0  0  0  0  0  0  0  0  0  0  0
   -0.0991    4.7411    6.8852 N   0  0  0  0  0  0  0  0  0  0  0  0
   -0.2463    6.1513    6.9152 C   0  0  0  0  0  0  0  0  0  0  0  0
   -0.1845    6.9265    5.7487 C   0  0  0  0  0  0  0  0  0  0  0  0
   -0.2247    8.3229    5.8086 C   0  0  0  0  0  0  0  0  0  0  0  0
   -0.3598    8.9599    7.0404 C   0  0  0  0  0  0  0  0  0  0  0  0
   -0.3182   11.0351    7.1325 I   0  0  0  0  0  0  0  0  0  0  0  0
   -0.5051    8.2108    8.2049 C   0  0  0  0  0  0  0  0  0  0  0  0
   -0.4622    6.8181    8.1306 C   0  0  0  0  0  0  0  0  0  0  0  0
   -0.5867    6.1146    9.2672 F   0  0  0  0  0  0  0  0  0  0  0  0
    1.8898    4.4800    5.4544 C   0  0  0  0  0  0  0  0  0  0  0  0
    2.3577    5.6708    5.8632 F   0  0  0  0  0  0  0  0  0  0  0  0
    2.6386    3.7887    4.5088 C   0  0  0  0  0  0  0  0  0  0  0  0
    3.7532    4.3432    4.0119 F   0  0  0  0  0  0  0  0  0  0  0  0
    3.4977   -1.8316    0.1231 C   0  0  0  0  0  0  0  0  0  0  0  0
    3.1731   -2.9960   -0.5498 C   0  0  0  0  0  0  0  0  0  0  0  0
    4.2081   -3.2465   -1.4701 C   0  0  0  0  0  0  0  0  0  0  0  0
    5.1196   -2.2246   -1.3135 C   0  0  0  0  0  0  0  0  0  0  0  0
    6.4210   -1.9551   -1.9672 C   0  0  0  0  0  0  0  0  0  0  0  0
    7.4359   -2.5386   -1.1613 O   0  0  0  0  0  0  0  0  0  0  0  0
    4.6948   -1.3487   -0.3469 O   0  0  0  0  0  0  0  0  0  0  0  0
    4.0585    0.4774    1.1663 H   0  0  0  0  0  0  0  0  0  0  0  0
    3.8666    2.3520    2.5822 H   0  0  0  0  0  0  0  0  0  0  0  0
    0.7448    1.0002    4.2428 H   0  0  0  0  0  0  0  0  0  0  0  0
   -0.1807    0.1811    5.8252 H   0  0  0  0  0  0  0  0  0  0  0  0
   -0.9660    4.2755    7.1907 H   0  0  0  0  0  0  0  0  0  0  0  0
   -0.0827    6.4521    4.7769 H   0  0  0  0  0  0  0  0  0  0  0  0
   -0.1301    8.8933    4.8876 H   0  0  0  0  0  0  0  0  0  0  0  0
   -0.6278    8.6834    9.1739 H   0  0  0  0  0  0  0  0  0  0  0  0
    2.2885   -3.5916   -0.3674 H   0  0  0  0  0  0  0  0  0  0  0  0
    4.2938   -4.0798   -2.1541 H   0  0  0  0  0  0  0  0  0  0  0  0
    6.6162   -0.8855   -2.0733 H   0  0  0  0  0  0  0  0  0  0  0  0
    6.4637   -2.4195   -2.9579 H   0  0  0  0  0  0  0  0  0  0  0  0
    7.3311   -2.1660   -0.2692 H   0  0  0  0  0  0  0  0  0  0  0  0
  1  2  2  0  0  0  0
  2  3  1  0  0  0  0
  2 26  1  0  0  0  0
  3  4  1  0  0  0  0
  3 33  1  0  0  0  0
  4  5  2  0  0  0  0
  5  6  1  0  0  0  0
  5 34  1  0  0  0  0
  6  7  1  0  0  0  0
  6 24  2  0  0  0  0
  7  8  2  0  0  0  0
  7 35  1  0  0  0  0
  8  9  1  0  0  0  0
  8 12  1  0  0  0  0
  9 10  2  0  0  0  0
  9 11  1  0  0  0  0
 11 36  1  0  0  0  0
 12 13  1  0  0  0  0
 12 22  2  0  0  0  0
 13 14  1  0  0  0  0
 13 37  1  0  0  0  0
 14 15  1  0  0  0  0
 14 20  2  0  0  0  0
 15 16  2  0  0  0  0
 15 38  1  0  0  0  0
 16 17  1  0  0  0  0
 16 39  1  0  0  0  0
 17 18  1  0  0  0  0
 17 19  2  0  0  0  0
 19 20  1  0  0  0  0
 19 40  1  0  0  0  0
 20 21  1  0  0  0  0
 22 23  1  0  0  0  0
 22 24  1  0  0  0  0
 24 25  1  0  0  0  0
 26 27  2  0  0  0  0
 26 32  1  0  0  0  0
 27 28  1  0  0  0  0
 27 41  1  0  0  0  0
 28 29  2  0  0  0  0
 28 42  1  0  0  0  0
 29 30  1  0  0  0  0
 29 32  1  0  0  0  0
 30 31  1  0  0  0  0
 30 43  1  0  0  0  0
 30 44  1  0  0  0  0
 31 45  1  0  0  0  0
M  END
$$$$
