CHEMBL1940718
 OpenBabel04072215363D

 33 35  0  0  0  0  0  0  0  0999 V2000
    4.5810    0.2590   -0.0125 C   0  0  0  0  0  0  0  0  0  0  0  0
    3.1097   -0.0327   -0.0054 C   0  0  0  0  0  0  0  0  0  0  0  0
    2.6342   -1.3440   -0.0031 C   0  0  0  0  0  0  0  0  0  0  0  0
    1.2576   -1.5944   -0.0002 C   0  0  0  0  0  0  0  0  0  0  0  0
    0.3278   -0.5648   -0.0037 C   0  0  0  0  0  0  0  0  0  0  0  0
   -0.9802   -0.8576   -0.0078 N   0  0  0  0  0  0  0  0  0  0  0  0
   -1.8599    0.1716   -0.0226 C   0  0  0  0  0  0  0  0  0  0  0  0
   -3.4952   -0.3783   -0.0057 Cl  0  0  0  0  0  0  0  0  0  0  0  0
   -1.5143    1.5253   -0.0231 C   0  0  0  0  0  0  0  0  0  0  0  0
   -2.5136    2.6113   -0.0646 C   0  0  0  0  0  0  0  0  0  0  0  0
   -2.3477    3.8069    0.5238 C   0  0  0  0  0  0  0  0  0  0  0  0
   -3.4380    4.8215    0.4760 C   0  0  0  0  0  0  0  0  0  0  0  0
   -4.3542    4.7457   -0.3342 O   0  0  0  0  0  0  0  0  0  0  0  0
   -3.3281    5.8986    1.4663 C   0  0  0  0  0  0  0  0  0  0  0  0
   -2.3697    6.0679    2.5289 C   0  0  0  0  0  0  0  0  0  0  0  0
   -2.5898    7.2005    3.2826 C   0  0  0  0  0  0  0  0  0  0  0  0
   -3.9484    8.0748    2.7373 S   0  0  0  0  0  0  0  0  0  0  0  0
   -4.2422    6.9410    1.4931 C   0  0  0  0  0  0  0  0  0  0  0  0
   -0.1414    1.8008   -0.0264 C   0  0  0  0  0  0  0  0  0  0  0  0
    0.8021    0.7609   -0.0092 C   0  0  0  0  0  0  0  0  0  0  0  0
    2.1856    1.0178   -0.0055 C   0  0  0  0  0  0  0  0  0  0  0  0
    5.1733   -0.6618   -0.0276 H   0  0  0  0  0  0  0  0  0  0  0  0
    4.8583    0.8230    0.8838 H   0  0  0  0  0  0  0  0  0  0  0  0
    4.8448    0.8417   -0.9010 H   0  0  0  0  0  0  0  0  0  0  0  0
    3.3241   -2.1851   -0.0065 H   0  0  0  0  0  0  0  0  0  0  0  0
    0.9027   -2.6226   -0.0003 H   0  0  0  0  0  0  0  0  0  0  0  0
   -3.4483    2.3885   -0.5779 H   0  0  0  0  0  0  0  0  0  0  0  0
   -1.4423    4.0541    1.0564 H   0  0  0  0  0  0  0  0  0  0  0  0
   -1.5527    5.3946    2.7557 H   0  0  0  0  0  0  0  0  0  0  0  0
   -2.0193    7.5513    4.1319 H   0  0  0  0  0  0  0  0  0  0  0  0
   -5.0868    7.0871    0.8299 H   0  0  0  0  0  0  0  0  0  0  0  0
    0.2126    2.8282   -0.0572 H   0  0  0  0  0  0  0  0  0  0  0  0
    2.5487    2.0441   -0.0067 H   0  0  0  0  0  0  0  0  0  0  0  0
  1  2  1  0  0  0  0
  1 22  1  0  0  0  0
  1 23  1  0  0  0  0
  1 24  1  0  0  0  0
  2  3  1  0  0  0  0
  2 21  2  0  0  0  0
  3  4  2  0  0  0  0
  3 25  1  0  0  0  0
  4  5  1  0  0  0  0
  4 26  1  0  0  0  0
  5  6  1  0  0  0  0
  5 20  2  0  0  0  0
  6  7  2  0  0  0  0
  7  8  1  0  0  0  0
  7  9  1  0  0  0  0
  9 10  1  0  0  0  0
  9 19  2  0  0  0  0
 10 11  2  0  0  0  0
 10 27  1  0  0  0  0
 11 12  1  0  0  0  0
 11 28  1  0  0  0  0
 12 13  2  0  0  0  0
 12 14  1  0  0  0  0
 14 15  1  0  0  0  0
 14 18  2  0  0  0  0
 15 16  2  0  0  0  0
 15 29  1  0  0  0  0
 16 17  1  0  0  0  0
 16 30  1  0  0  0  0
 17 18  1  0  0  0  0
 18 31  1  0  0  0  0
 19 20  1  0  0  0  0
 19 32  1  0  0  0  0
 20 21  1  0  0  0  0
 21 33  1  0  0  0  0
M  END
$$$$
