CHEMBL101924
 OpenBabel04072215353D

 28 30  0  0  0  0  0  0  0  0999 V2000
    1.3813   -0.1729    0.0028 C   0  0  0  0  0  0  0  0  0  0  0  0
    0.4948   -1.1338    0.4790 C   0  0  0  0  0  0  0  0  0  0  0  0
   -0.8816   -0.9092    0.4068 C   0  0  0  0  0  0  0  0  0  0  0  0
   -1.3927    0.2809   -0.1407 C   0  0  0  0  0  0  0  0  0  0  0  0
   -2.8396    0.5050   -0.1689 C   0  0  0  0  0  0  0  0  0  0  0  0
   -3.8003    0.0753    0.7235 C   0  0  0  0  0  0  0  0  0  0  0  0
   -5.0942    0.4200    0.4268 N   0  0  0  0  0  0  0  0  0  0  0  0
   -5.1604    1.0760   -0.7092 C   0  0  0  0  0  0  0  0  0  0  0  0
   -6.2810    1.4841   -1.3379 N   0  0  0  0  0  0  0  0  0  0  0  0
   -7.5318    0.9063   -1.1346 C   0  0  0  0  0  0  0  0  0  0  0  0
   -7.8184    0.2375   -0.0083 N   0  0  0  0  0  0  0  0  0  0  0  0
   -9.0048   -0.3773    0.0829 C   0  0  0  0  0  0  0  0  0  0  0  0
   -9.9409   -0.3405   -0.9135 C   0  0  0  0  0  0  0  0  0  0  0  0
   -9.5849    0.3921   -2.0183 C   0  0  0  0  0  0  0  0  0  0  0  0
   -8.4001    1.0238   -2.1538 N   0  0  0  0  0  0  0  0  0  0  0  0
   -3.6183    1.3810   -1.4272 S   0  0  0  0  0  0  0  0  0  0  0  0
   -0.4826    1.2364   -0.6155 C   0  0  0  0  0  0  0  0  0  0  0  0
    0.8928    1.0112   -0.5462 C   0  0  0  0  0  0  0  0  0  0  0  0
    2.4527   -0.3433    0.0606 H   0  0  0  0  0  0  0  0  0  0  0  0
    0.8719   -2.0575    0.9097 H   0  0  0  0  0  0  0  0  0  0  0  0
   -1.5513   -1.6816    0.7800 H   0  0  0  0  0  0  0  0  0  0  0  0
   -3.6133   -0.5002    1.6215 H   0  0  0  0  0  0  0  0  0  0  0  0
   -6.2246    1.8490   -2.2754 H   0  0  0  0  0  0  0  0  0  0  0  0
   -9.1683   -0.9234    1.0073 H   0  0  0  0  0  0  0  0  0  0  0  0
  -10.8873   -0.8526   -0.8315 H   0  0  0  0  0  0  0  0  0  0  0  0
  -10.2586    0.4881   -2.8642 H   0  0  0  0  0  0  0  0  0  0  0  0
   -0.8331    2.1790   -1.0310 H   0  0  0  0  0  0  0  0  0  0  0  0
    1.5826    1.7653   -0.9147 H   0  0  0  0  0  0  0  0  0  0  0  0
  1  2  1  0  0  0  0
  1 18  2  0  0  0  0
  1 19  1  0  0  0  0
  2  3  2  0  0  0  0
  2 20  1  0  0  0  0
  3  4  1  0  0  0  0
  3 21  1  0  0  0  0
  4  5  1  0  0  0  0
  4 17  2  0  0  0  0
  5  6  2  0  0  0  0
  5 16  1  0  0  0  0
  6  7  1  0  0  0  0
  6 22  1  0  0  0  0
  7  8  2  0  0  0  0
  8  9  1  0  0  0  0
  8 16  1  0  0  0  0
  9 10  1  0  0  0  0
  9 23  1  0  0  0  0
 10 11  1  0  0  0  0
 10 15  2  0  0  0  0
 11 12  2  0  0  0  0
 12 13  1  0  0  0  0
 12 24  1  0  0  0  0
 13 14  2  0  0  0  0
 13 25  1  0  0  0  0
 14 15  1  0  0  0  0
 14 26  1  0  0  0  0
 17 18  1  0  0  0  0
 17 27  1  0  0  0  0
 18 28  1  0  0  0  0
M  END
$$$$
