CHEMBL352877
 OpenBabel04072215363D

 58 62  0  0  0  0  0  0  0  0999 V2000
    2.5466   -0.4491   -1.5223 C   0  0  0  0  0  0  0  0  0  0  0  0
    2.3969    0.0035   -0.1809 O   0  0  0  0  0  0  0  0  0  0  0  0
    3.0538    1.1359    0.2082 C   0  0  0  0  0  0  0  0  0  0  0  0
    4.1579    1.6660   -0.4687 C   0  0  0  0  0  0  0  0  0  0  0  0
    4.7829    2.8410   -0.0702 C   0  0  0  0  0  0  0  0  0  0  0  0
    5.8221    3.2732   -0.7874 N   0  0  0  0  0  0  0  0  0  0  0  0
    6.4128    4.3976   -0.3724 C   0  0  0  0  0  0  0  0  0  0  0  0
    6.0825    5.0979    0.7141 N   0  0  0  0  0  0  0  0  0  0  0  0
    5.0252    4.6645    1.4287 C   0  0  0  0  0  0  0  0  0  0  0  0
    4.6742    5.3701    2.6158 N   0  0  0  0  0  0  0  0  0  0  0  0
    5.1885    6.6573    2.9199 C   0  0  0  0  0  0  0  0  0  0  0  0
    5.1258    7.7613    2.0455 C   0  0  0  0  0  0  0  0  0  0  0  0
    4.1960    7.7264    0.5812 Cl  0  0  0  0  0  0  0  0  0  0  0  0
    5.7607    8.9801    2.3604 C   0  0  0  0  0  0  0  0  0  0  0  0
    6.4321    9.1411    3.5728 C   0  0  0  0  0  0  0  0  0  0  0  0
    6.4161    8.0843    4.4541 C   0  0  0  0  0  0  0  0  0  0  0  0
    5.8101    6.8847    4.1468 C   0  0  0  0  0  0  0  0  0  0  0  0
    5.9139    5.9840    5.1675 O   0  0  0  0  0  0  0  0  0  0  0  0
    6.5862    6.7811    6.1688 C   0  0  0  0  0  0  0  0  0  0  0  0
    6.9750    8.0850    5.6935 O   0  0  0  0  0  0  0  0  0  0  0  0
    4.3065    3.5135    1.0590 C   0  0  0  0  0  0  0  0  0  0  0  0
    3.1864    2.9960    1.7483 C   0  0  0  0  0  0  0  0  0  0  0  0
    2.6047    1.7855    1.3636 C   0  0  0  0  0  0  0  0  0  0  0  0
    1.6121    1.3532    2.2039 O   0  0  0  0  0  0  0  0  0  0  0  0
    1.6391   -0.0261    2.6029 C   0  0  0  0  0  0  0  0  0  0  0  0
    2.9834   -0.5168    3.1659 C   0  0  0  0  0  0  0  0  0  0  0  0
    3.4178    0.2954    4.3931 C   0  0  0  0  0  0  0  0  0  0  0  0
    4.7206   -0.1030    4.9645 N   0  0  0  0  0  0  0  0  0  0  0  0
    5.0200    0.7003    6.1760 C   0  0  0  0  0  0  0  0  0  0  0  0
    5.4019    2.1650    5.8749 C   0  0  0  0  0  0  0  0  0  0  0  0
    6.4944    2.2535    4.9525 O   0  0  0  0  0  0  0  0  0  0  0  0
    6.2146    1.5308    3.7485 C   0  0  0  0  0  0  0  0  0  0  0  0
    5.8639    0.0636    4.0392 C   0  0  0  0  0  0  0  0  0  0  0  0
    3.2207   -1.3112   -1.5397 H   0  0  0  0  0  0  0  0  0  0  0  0
    2.8900    0.3141   -2.2264 H   0  0  0  0  0  0  0  0  0  0  0  0
    1.5632   -0.7767   -1.8720 H   0  0  0  0  0  0  0  0  0  0  0  0
    4.5828    1.1604   -1.3310 H   0  0  0  0  0  0  0  0  0  0  0  0
    7.2349    4.7731   -0.9664 H   0  0  0  0  0  0  0  0  0  0  0  0
    4.8276    4.7464    3.4078 H   0  0  0  0  0  0  0  0  0  0  0  0
    5.7239    9.8059    1.6547 H   0  0  0  0  0  0  0  0  0  0  0  0
    6.9337   10.0701    3.8192 H   0  0  0  0  0  0  0  0  0  0  0  0
    7.4808    6.2477    6.5088 H   0  0  0  0  0  0  0  0  0  0  0  0
    5.9118    6.9135    7.0238 H   0  0  0  0  0  0  0  0  0  0  0  0
    2.7867    3.5173    2.6157 H   0  0  0  0  0  0  0  0  0  0  0  0
    1.2872   -0.6675    1.7895 H   0  0  0  0  0  0  0  0  0  0  0  0
    0.8858   -0.1200    3.3928 H   0  0  0  0  0  0  0  0  0  0  0  0
    3.7405   -0.4563    2.3806 H   0  0  0  0  0  0  0  0  0  0  0  0
    2.8914   -1.5752    3.4374 H   0  0  0  0  0  0  0  0  0  0  0  0
    2.6519    0.1477    5.1649 H   0  0  0  0  0  0  0  0  0  0  0  0
    3.4052    1.3617    4.1553 H   0  0  0  0  0  0  0  0  0  0  0  0
    5.8649    0.2230    6.6883 H   0  0  0  0  0  0  0  0  0  0  0  0
    4.1794    0.6679    6.8787 H   0  0  0  0  0  0  0  0  0  0  0  0
    5.7176    2.6567    6.7985 H   0  0  0  0  0  0  0  0  0  0  0  0
    4.5534    2.7350    5.4807 H   0  0  0  0  0  0  0  0  0  0  0  0
    7.1040    1.5809    3.1124 H   0  0  0  0  0  0  0  0  0  0  0  0
    5.4051    2.0303    3.2156 H   0  0  0  0  0  0  0  0  0  0  0  0
    6.7357   -0.4115    4.5104 H   0  0  0  0  0  0  0  0  0  0  0  0
    5.7085   -0.4799    3.1026 H   0  0  0  0  0  0  0  0  0  0  0  0
  1  2  1  0  0  0  0
  1 34  1  0  0  0  0
  1 35  1  0  0  0  0
  1 36  1  0  0  0  0
  2  3  1  0  0  0  0
  3  4  1  0  0  0  0
  3 23  2  0  0  0  0
  4  5  2  0  0  0  0
  4 37  1  0  0  0  0
  5  6  1  0  0  0  0
  5 21  1  0  0  0  0
  6  7  2  0  0  0  0
  7  8  1  0  0  0  0
  7 38  1  0  0  0  0
  8  9  2  0  0  0  0
  9 10  1  0  0  0  0
  9 21  1  0  0  0  0
 10 11  1  0  0  0  0
 10 39  1  0  0  0  0
 11 12  1  0  0  0  0
 11 17  2  0  0  0  0
 12 13  1  0  0  0  0
 12 14  2  0  0  0  0
 14 15  1  0  0  0  0
 14 40  1  0  0  0  0
 15 16  2  0  0  0  0
 15 41  1  0  0  0  0
 16 17  1  0  0  0  0
 16 20  1  0  0  0  0
 17 18  1  0  0  0  0
 18 19  1  0  0  0  0
 19 20  1  0  0  0  0
 19 42  1  0  0  0  0
 19 43  1  0  0  0  0
 21 22  2  0  0  0  0
 22 23  1  0  0  0  0
 22 44  1  0  0  0  0
 23 24  1  0  0  0  0
 24 25  1  0  0  0  0
 25 26  1  0  0  0  0
 25 45  1  0  0  0  0
 25 46  1  0  0  0  0
 26 27  1  0  0  0  0
 26 47  1  0  0  0  0
 26 48  1  0  0  0  0
 27 28  1  0  0  0  0
 27 49  1  0  0  0  0
 27 50  1  0  0  0  0
 28 29  1  0  0  0  0
 28 33  1  0  0  0  0
 29 30  1  0  0  0  0
 29 51  1  0  0  0  0
 29 52  1  0  0  0  0
 30 31  1  0  0  0  0
 30 53  1  0  0  0  0
 30 54  1  0  0  0  0
 31 32  1  0  0  0  0
 32 33  1  0  0  0  0
 32 55  1  0  0  0  0
 32 56  1  0  0  0  0
 33 57  1  0  0  0  0
 33 58  1  0  0  0  0
M  END
$$$$
