CHEMBL3690493
 OpenBabel04072215373D

 48 51  0  0  0  0  0  0  0  0999 V2000
    3.0167    1.1203   -2.7391 C   0  0  0  0  0  0  0  0  0  0  0  0
    3.3029    0.4432   -1.4359 C   0  0  0  0  0  0  0  0  0  0  0  0
    4.1911   -0.6362   -1.3845 C   0  0  0  0  0  0  0  0  0  0  0  0
    4.4296   -1.2757   -0.1724 C   0  0  0  0  0  0  0  0  0  0  0  0
    5.3405   -2.4340   -0.0343 C   0  0  0  0  0  0  0  0  0  0  0  0
    6.1638   -2.6149    1.1671 C   0  0  0  0  0  0  0  0  0  0  0  0
    6.9150   -3.7180    1.3098 C   0  0  0  0  0  0  0  0  0  0  0  0
    6.8930   -4.7047    0.3220 N   0  0  0  0  0  0  0  0  0  0  0  0
    7.4543   -5.9790    0.2814 C   0  0  0  0  0  0  0  0  0  0  0  0
    8.0751   -6.7024    1.4007 C   0  0  0  0  0  0  0  0  0  0  0  0
    7.6265   -6.5048    2.7139 C   0  0  0  0  0  0  0  0  0  0  0  0
    8.1804   -7.2062    3.7772 C   0  0  0  0  0  0  0  0  0  0  0  0
    9.1614   -8.1596    3.5397 C   0  0  0  0  0  0  0  0  0  0  0  0
    9.6187   -8.4067    2.2436 C   0  0  0  0  0  0  0  0  0  0  0  0
   10.6015   -9.3845    1.9631 N   0  0  0  0  0  0  0  0  0  0  0  0
   11.3902  -10.0205    2.8918 C   0  0  0  0  0  0  0  0  0  0  0  0
   11.4253   -9.8131    4.0927 O   0  0  0  0  0  0  0  0  0  0  0  0
   12.2382  -10.9402    2.3207 N   0  0  0  0  0  0  0  0  0  0  0  0
   13.1264  -11.6938    3.2167 C   0  0  0  0  0  0  0  0  0  0  0  0
   12.4785  -12.8616    3.9755 C   0  0  0  0  0  0  0  0  0  0  0  0
   11.2394  -13.1418    3.5084 F   0  0  0  0  0  0  0  0  0  0  0  0
   13.2210  -13.9849    3.8075 F   0  0  0  0  0  0  0  0  0  0  0  0
   12.3892  -12.6346    5.3011 F   0  0  0  0  0  0  0  0  0  0  0  0
    9.0713   -7.6731    1.1792 C   0  0  0  0  0  0  0  0  0  0  0  0
    7.1945   -6.4103   -1.0114 C   0  0  0  0  0  0  0  0  0  0  0  0
    6.4247   -5.5201   -1.7115 N   0  0  0  0  0  0  0  0  0  0  0  0
    6.2029   -4.5330   -0.8743 C   0  0  0  0  0  0  0  0  0  0  0  0
    5.3870   -3.3728   -1.0105 C   0  0  0  0  0  0  0  0  0  0  0  0
    3.8394   -0.8394    0.9651 N   0  0  0  0  0  0  0  0  0  0  0  0
    2.9735    0.2236    0.9318 N   0  0  0  0  0  0  0  0  0  0  0  0
    2.7163    0.8344   -0.2414 C   0  0  0  0  0  0  0  0  0  0  0  0
    1.6032    2.1351   -0.1237 Cl  0  0  0  0  0  0  0  0  0  0  0  0
    3.5738    0.6557   -3.5602 H   0  0  0  0  0  0  0  0  0  0  0  0
    3.3092    2.1737   -2.6975 H   0  0  0  0  0  0  0  0  0  0  0  0
    1.9523    1.0426   -2.9820 H   0  0  0  0  0  0  0  0  0  0  0  0
    4.6945   -0.9681   -2.2874 H   0  0  0  0  0  0  0  0  0  0  0  0
    6.1430   -1.8474    1.9368 H   0  0  0  0  0  0  0  0  0  0  0  0
    7.5401   -3.8703    2.1785 H   0  0  0  0  0  0  0  0  0  0  0  0
    6.8111   -5.8240    2.9404 H   0  0  0  0  0  0  0  0  0  0  0  0
    7.8330   -7.0301    4.7915 H   0  0  0  0  0  0  0  0  0  0  0  0
    9.5299   -8.7130    4.3962 H   0  0  0  0  0  0  0  0  0  0  0  0
   10.8522   -9.5211    0.9964 H   0  0  0  0  0  0  0  0  0  0  0  0
   11.8626  -11.4440    1.5289 H   0  0  0  0  0  0  0  0  0  0  0  0
   13.5637  -10.9959    3.9420 H   0  0  0  0  0  0  0  0  0  0  0  0
   13.9454  -12.0637    2.5940 H   0  0  0  0  0  0  0  0  0  0  0  0
    9.4215   -7.8548    0.1644 H   0  0  0  0  0  0  0  0  0  0  0  0
    7.4751   -7.3564   -1.4566 H   0  0  0  0  0  0  0  0  0  0  0  0
    4.7868   -3.3154   -1.9119 H   0  0  0  0  0  0  0  0  0  0  0  0
  1  2  1  0  0  0  0
  1 33  1  0  0  0  0
  1 34  1  0  0  0  0
  1 35  1  0  0  0  0
  2  3  1  0  0  0  0
  2 31  2  0  0  0  0
  3  4  2  0  0  0  0
  3 36  1  0  0  0  0
  4  5  1  0  0  0  0
  4 29  1  0  0  0  0
  5  6  1  0  0  0  0
  5 28  2  0  0  0  0
  6  7  2  0  0  0  0
  6 37  1  0  0  0  0
  7  8  1  0  0  0  0
  7 38  1  0  0  0  0
  8  9  1  0  0  0  0
  8 27  1  0  0  0  0
  9 10  1  0  0  0  0
  9 25  2  0  0  0  0
 10 11  1  0  0  0  0
 10 24  2  0  0  0  0
 11 12  2  0  0  0  0
 11 39  1  0  0  0  0
 12 13  1  0  0  0  0
 12 40  1  0  0  0  0
 13 14  2  0  0  0  0
 13 41  1  0  0  0  0
 14 15  1  0  0  0  0
 14 24  1  0  0  0  0
 15 16  1  0  0  0  0
 15 42  1  0  0  0  0
 16 17  2  0  0  0  0
 16 18  1  0  0  0  0
 18 19  1  0  0  0  0
 18 43  1  0  0  0  0
 19 20  1  0  0  0  0
 19 44  1  0  0  0  0
 19 45  1  0  0  0  0
 20 21  1  0  0  0  0
 20 22  1  0  0  0  0
 20 23  1  0  0  0  0
 24 46  1  0  0  0  0
 25 26  1  0  0  0  0
 25 47  1  0  0  0  0
 26 27  2  0  0  0  0
 27 28  1  0  0  0  0
 28 48  1  0  0  0  0
 29 30  2  0  0  0  0
 30 31  1  0  0  0  0
 31 32  1  0  0  0  0
M  END
$$$$
