CHEMBL391069
 OpenBabel04072215373D

 43 46  0  0  0  0  0  0  0  0999 V2000
    2.1162   -0.5089    0.9478 O   0  0  0  0  0  0  0  0  0  0  0  0
    2.1134    0.0995   -0.1169 C   0  0  0  0  0  0  0  0  0  0  0  0
    1.3911    1.2678   -0.3286 N   0  0  0  0  0  0  0  0  0  0  0  0
    0.4651    1.8560    0.5730 C   0  0  0  0  0  0  0  0  0  0  0  0
    0.1212    1.3269    1.8112 C   0  0  0  0  0  0  0  0  0  0  0  0
   -0.8132    1.8513    2.6444 N   0  0  0  0  0  0  0  0  0  0  0  0
   -1.4640    2.9519    2.2509 C   0  0  0  0  0  0  0  0  0  0  0  0
   -2.4617    3.4651    3.0672 C   0  0  0  0  0  0  0  0  0  0  0  0
   -3.1947    4.5961    2.7047 C   0  0  0  0  0  0  0  0  0  0  0  0
   -2.9121    5.2444    1.5084 C   0  0  0  0  0  0  0  0  0  0  0  0
   -1.9053    4.7527    0.6746 C   0  0  0  0  0  0  0  0  0  0  0  0
   -1.1829    3.5960    1.0286 C   0  0  0  0  0  0  0  0  0  0  0  0
   -0.1937    3.0290    0.1956 C   0  0  0  0  0  0  0  0  0  0  0  0
    2.8797   -0.3684   -1.2591 C   0  0  0  0  0  0  0  0  0  0  0  0
    2.7147   -0.0869   -2.6089 C   0  0  0  0  0  0  0  0  0  0  0  0
    3.6720   -0.8582   -3.2825 C   0  0  0  0  0  0  0  0  0  0  0  0
    4.4126   -1.5768   -2.4458 N   0  0  0  0  0  0  0  0  0  0  0  0
    3.9164   -1.2880   -1.2195 N   0  0  0  0  0  0  0  0  0  0  0  0
    4.4931   -2.0054   -0.0868 C   0  0  0  0  0  0  0  0  0  0  0  0
    6.0112   -1.8217    0.0236 C   0  0  0  0  0  0  0  0  0  0  0  0
    6.6201   -2.5863    1.1782 C   0  0  0  0  0  0  0  0  0  0  0  0
    7.1918   -3.8468    0.9814 C   0  0  0  0  0  0  0  0  0  0  0  0
    7.7537   -4.5050    2.0670 C   0  0  0  0  0  0  0  0  0  0  0  0
    7.7801   -4.0000    3.3196 N   0  0  0  0  0  0  0  0  0  0  0  0
    7.2202   -2.7846    3.4906 C   0  0  0  0  0  0  0  0  0  0  0  0
    6.6347   -2.0494    2.4678 C   0  0  0  0  0  0  0  0  0  0  0  0
    1.5230    1.7413   -1.2085 H   0  0  0  0  0  0  0  0  0  0  0  0
    0.5701    0.4256    2.2120 H   0  0  0  0  0  0  0  0  0  0  0  0
   -2.6824    2.9594    4.0046 H   0  0  0  0  0  0  0  0  0  0  0  0
   -3.9839    4.9604    3.3576 H   0  0  0  0  0  0  0  0  0  0  0  0
   -3.4804    6.1260    1.2226 H   0  0  0  0  0  0  0  0  0  0  0  0
   -1.6992    5.2705   -0.2591 H   0  0  0  0  0  0  0  0  0  0  0  0
    0.0317    3.5064   -0.7548 H   0  0  0  0  0  0  0  0  0  0  0  0
    1.9707    0.5503   -3.0650 H   0  0  0  0  0  0  0  0  0  0  0  0
    3.8539   -0.9385   -4.3470 H   0  0  0  0  0  0  0  0  0  0  0  0
    4.2367   -3.0620   -0.2334 H   0  0  0  0  0  0  0  0  0  0  0  0
    4.0184   -1.6810    0.8380 H   0  0  0  0  0  0  0  0  0  0  0  0
    6.2518   -0.7561    0.1345 H   0  0  0  0  0  0  0  0  0  0  0  0
    6.5057   -2.1369   -0.9042 H   0  0  0  0  0  0  0  0  0  0  0  0
    7.2147   -4.3126    0.0009 H   0  0  0  0  0  0  0  0  0  0  0  0
    8.2140   -5.4829    1.9536 H   0  0  0  0  0  0  0  0  0  0  0  0
    7.2570   -2.3992    4.5053 H   0  0  0  0  0  0  0  0  0  0  0  0
    6.2104   -1.0748    2.6819 H   0  0  0  0  0  0  0  0  0  0  0  0
  1  2  2  0  0  0  0
  2  3  1  0  0  0  0
  2 14  1  0  0  0  0
  3  4  1  0  0  0  0
  3 27  1  0  0  0  0
  4  5  1  0  0  0  0
  4 13  2  0  0  0  0
  5  6  2  0  0  0  0
  5 28  1  0  0  0  0
  6  7  1  0  0  0  0
  7  8  1  0  0  0  0
  7 12  2  0  0  0  0
  8  9  2  0  0  0  0
  8 29  1  0  0  0  0
  9 10  1  0  0  0  0
  9 30  1  0  0  0  0
 10 11  2  0  0  0  0
 10 31  1  0  0  0  0
 11 12  1  0  0  0  0
 11 32  1  0  0  0  0
 12 13  1  0  0  0  0
 13 33  1  0  0  0  0
 14 15  2  0  0  0  0
 14 18  1  0  0  0  0
 15 16  1  0  0  0  0
 15 34  1  0  0  0  0
 16 17  2  0  0  0  0
 16 35  1  0  0  0  0
 17 18  1  0  0  0  0
 18 19  1  0  0  0  0
 19 20  1  0  0  0  0
 19 36  1  0  0  0  0
 19 37  1  0  0  0  0
 20 21  1  0  0  0  0
 20 38  1  0  0  0  0
 20 39  1  0  0  0  0
 21 22  1  0  0  0  0
 21 26  2  0  0  0  0
 22 23  2  0  0  0  0
 22 40  1  0  0  0  0
 23 24  1  0  0  0  0
 23 41  1  0  0  0  0
 24 25  2  0  0  0  0
 25 26  1  0  0  0  0
 25 42  1  0  0  0  0
 26 43  1  0  0  0  0
M  END
$$$$
