CHEMBL4164946
 OpenBabel04072215383D

 42 45  0  0  0  0  0  0  0  0999 V2000
    2.4686   -0.8358   -0.9757 O   0  0  0  0  0  0  0  0  0  0  0  0
    2.2950    0.1210   -0.2174 C   0  0  0  0  0  0  0  0  0  0  0  0
    2.9630    0.2071    1.1361 C   0  0  0  0  0  0  0  0  0  0  0  0
    2.0606    0.2436    2.2810 N   0  0  0  0  0  0  0  0  0  0  0  0
    2.2917    0.9445    3.4502 C   0  0  0  0  0  0  0  0  0  0  0  0
    3.4729    1.6999    3.7558 C   0  0  0  0  0  0  0  0  0  0  0  0
    3.5941    2.7836    4.6120 C   0  0  0  0  0  0  0  0  0  0  0  0
    4.9415    3.2149    4.5617 C   0  0  0  0  0  0  0  0  0  0  0  0
    5.5800    2.3545    3.7040 C   0  0  0  0  0  0  0  0  0  0  0  0
    4.7076    1.4395    3.2134 O   0  0  0  0  0  0  0  0  0  0  0  0
    1.2575    0.8666    4.2646 N   0  0  0  0  0  0  0  0  0  0  0  0
    0.3507    0.0550    3.6346 C   0  0  0  0  0  0  0  0  0  0  0  0
   -0.9150   -0.3667    4.0729 C   0  0  0  0  0  0  0  0  0  0  0  0
   -1.6887   -1.1785    3.2361 C   0  0  0  0  0  0  0  0  0  0  0  0
   -1.2047   -1.5774    1.9923 C   0  0  0  0  0  0  0  0  0  0  0  0
    0.0669   -1.1935    1.5524 C   0  0  0  0  0  0  0  0  0  0  0  0
    0.8246   -0.3633    2.3932 C   0  0  0  0  0  0  0  0  0  0  0  0
    1.4907    1.1693   -0.6009 N   0  0  0  0  0  0  0  0  0  0  0  0
    1.2577    2.2249    0.2190 N   0  0  0  0  0  0  0  0  0  0  0  0
    0.3279    3.0428   -0.1668 C   0  0  0  0  0  0  0  0  0  0  0  0
   -0.0685    4.2019    0.6638 C   0  0  0  0  0  0  0  0  0  0  0  0
    0.5459    4.3800    1.9141 C   0  0  0  0  0  0  0  0  0  0  0  0
    0.1740    5.4419    2.7384 C   0  0  0  0  0  0  0  0  0  0  0  0
   -0.8086    6.3349    2.3210 C   0  0  0  0  0  0  0  0  0  0  0  0
   -1.4183    6.1683    1.0758 C   0  0  0  0  0  0  0  0  0  0  0  0
   -1.0510    5.1050    0.2438 C   0  0  0  0  0  0  0  0  0  0  0  0
   -1.8586    4.9765   -1.2793 Cl  0  0  0  0  0  0  0  0  0  0  0  0
    3.5774    1.1111    1.1263 H   0  0  0  0  0  0  0  0  0  0  0  0
    3.6149   -0.6609    1.2805 H   0  0  0  0  0  0  0  0  0  0  0  0
    2.7853    3.2132    5.1876 H   0  0  0  0  0  0  0  0  0  0  0  0
    5.3915    4.0442    5.0889 H   0  0  0  0  0  0  0  0  0  0  0  0
    6.5985    2.2648    3.3523 H   0  0  0  0  0  0  0  0  0  0  0  0
   -1.2820   -0.0578    5.0452 H   0  0  0  0  0  0  0  0  0  0  0  0
   -2.6754   -1.5002    3.5605 H   0  0  0  0  0  0  0  0  0  0  0  0
   -1.8226   -2.2008    1.3490 H   0  0  0  0  0  0  0  0  0  0  0  0
    0.4248   -1.5283    0.5849 H   0  0  0  0  0  0  0  0  0  0  0  0
    0.9944    1.0718   -1.4808 H   0  0  0  0  0  0  0  0  0  0  0  0
   -0.2069    2.8752   -1.1184 H   0  0  0  0  0  0  0  0  0  0  0  0
    1.3069    3.6855    2.2615 H   0  0  0  0  0  0  0  0  0  0  0  0
    0.6485    5.5632    3.7094 H   0  0  0  0  0  0  0  0  0  0  0  0
   -1.1058    7.1577    2.9669 H   0  0  0  0  0  0  0  0  0  0  0  0
   -2.1854    6.8719    0.7625 H   0  0  0  0  0  0  0  0  0  0  0  0
  1  2  2  0  0  0  0
  2  3  1  0  0  0  0
  2 18  1  0  0  0  0
  3  4  1  0  0  0  0
  3 28  1  0  0  0  0
  3 29  1  0  0  0  0
  4  5  1  0  0  0  0
  4 17  1  0  0  0  0
  5  6  1  0  0  0  0
  5 11  2  0  0  0  0
  6  7  2  0  0  0  0
  6 10  1  0  0  0  0
  7  8  1  0  0  0  0
  7 30  1  0  0  0  0
  8  9  2  0  0  0  0
  8 31  1  0  0  0  0
  9 10  1  0  0  0  0
  9 32  1  0  0  0  0
 11 12  1  0  0  0  0
 12 13  1  0  0  0  0
 12 17  2  0  0  0  0
 13 14  2  0  0  0  0
 13 33  1  0  0  0  0
 14 15  1  0  0  0  0
 14 34  1  0  0  0  0
 15 16  2  0  0  0  0
 15 35  1  0  0  0  0
 16 17  1  0  0  0  0
 16 36  1  0  0  0  0
 18 19  1  0  0  0  0
 18 37  1  0  0  0  0
 19 20  2  0  0  0  0
 20 21  1  0  0  0  0
 20 38  1  0  0  0  0
 21 22  1  0  0  0  0
 21 26  2  0  0  0  0
 22 23  2  0  0  0  0
 22 39  1  0  0  0  0
 23 24  1  0  0  0  0
 23 40  1  0  0  0  0
 24 25  2  0  0  0  0
 24 41  1  0  0  0  0
 25 26  1  0  0  0  0
 25 42  1  0  0  0  0
 26 27  1  0  0  0  0
M  END
$$$$
