CHEMBL380700
 OpenBabel04072215373D

 40 42  0  0  0  0  0  0  0  0999 V2000
   -4.9821    2.7902   -3.2159 C   0  0  0  0  0  0  0  0  0  0  0  0
   -4.1420    1.9768   -2.2746 C   0  0  0  0  0  0  0  0  0  0  0  0
   -3.0521    2.5614   -1.6243 C   0  0  0  0  0  0  0  0  0  0  0  0
   -2.2740    1.8084   -0.7526 C   0  0  0  0  0  0  0  0  0  0  0  0
   -2.5767    0.4653   -0.5197 C   0  0  0  0  0  0  0  0  0  0  0  0
   -3.6620   -0.1446   -1.1527 C   0  0  0  0  0  0  0  0  0  0  0  0
   -4.0300   -1.4968   -0.9506 N   0  0  0  0  0  0  0  0  0  0  0  0
   -3.4154   -2.4229   -0.1161 C   0  0  0  0  0  0  0  0  0  0  0  0
   -2.4184   -2.1751    0.5545 O   0  0  0  0  0  0  0  0  0  0  0  0
   -4.0397   -3.7445   -0.0665 C   0  0  0  0  0  0  0  0  0  0  0  0
   -5.3820   -4.1687   -1.0551 S   0  0  0  0  0  0  0  0  0  0  0  0
   -5.4297   -5.7116   -0.3221 C   0  0  0  0  0  0  0  0  0  0  0  0
   -4.5145   -5.9455    0.5886 N   0  0  0  0  0  0  0  0  0  0  0  0
   -3.6995   -4.8285    0.7444 C   0  0  0  0  0  0  0  0  0  0  0  0
   -2.6164   -4.8719    1.7928 C   0  0  0  0  0  0  0  0  0  0  0  0
   -2.0923   -6.2759    2.1146 C   0  0  0  0  0  0  0  0  0  0  0  0
   -1.0531   -6.2468    3.2131 C   0  0  0  0  0  0  0  0  0  0  0  0
   -1.4332   -6.3596    4.5531 C   0  0  0  0  0  0  0  0  0  0  0  0
   -0.4498   -6.3108    5.5314 C   0  0  0  0  0  0  0  0  0  0  0  0
    0.8659   -6.1558    5.2713 N   0  0  0  0  0  0  0  0  0  0  0  0
    1.2112   -6.0404    3.9714 C   0  0  0  0  0  0  0  0  0  0  0  0
    0.3030   -6.0764    2.9220 C   0  0  0  0  0  0  0  0  0  0  0  0
   -4.4406    0.6232   -2.0337 C   0  0  0  0  0  0  0  0  0  0  0  0
   -4.6157    3.8206   -3.2881 H   0  0  0  0  0  0  0  0  0  0  0  0
   -6.0173    2.8302   -2.8637 H   0  0  0  0  0  0  0  0  0  0  0  0
   -4.9541    2.3568   -4.2201 H   0  0  0  0  0  0  0  0  0  0  0  0
   -2.8007    3.6067   -1.7892 H   0  0  0  0  0  0  0  0  0  0  0  0
   -1.4262    2.2619   -0.2451 H   0  0  0  0  0  0  0  0  0  0  0  0
   -1.9354   -0.0699    0.1713 H   0  0  0  0  0  0  0  0  0  0  0  0
   -4.8437   -1.8229   -1.4560 H   0  0  0  0  0  0  0  0  0  0  0  0
   -6.1757   -6.4484   -0.5923 H   0  0  0  0  0  0  0  0  0  0  0  0
   -3.0155   -4.4067    2.7032 H   0  0  0  0  0  0  0  0  0  0  0  0
   -1.7639   -4.2650    1.4706 H   0  0  0  0  0  0  0  0  0  0  0  0
   -1.6580   -6.7333    1.2159 H   0  0  0  0  0  0  0  0  0  0  0  0
   -2.9114   -6.9390    2.4204 H   0  0  0  0  0  0  0  0  0  0  0  0
   -2.4718   -6.4824    4.8376 H   0  0  0  0  0  0  0  0  0  0  0  0
   -0.7048   -6.3964    6.5842 H   0  0  0  0  0  0  0  0  0  0  0  0
    2.2737   -5.9124    3.7870 H   0  0  0  0  0  0  0  0  0  0  0  0
    0.6543   -5.9711    1.9011 H   0  0  0  0  0  0  0  0  0  0  0  0
   -5.2919    0.1776   -2.5434 H   0  0  0  0  0  0  0  0  0  0  0  0
  1  2  1  0  0  0  0
  1 24  1  0  0  0  0
  1 25  1  0  0  0  0
  1 26  1  0  0  0  0
  2  3  1  0  0  0  0
  2 23  2  0  0  0  0
  3  4  2  0  0  0  0
  3 27  1  0  0  0  0
  4  5  1  0  0  0  0
  4 28  1  0  0  0  0
  5  6  2  0  0  0  0
  5 29  1  0  0  0  0
  6  7  1  0  0  0  0
  6 23  1  0  0  0  0
  7  8  1  0  0  0  0
  7 30  1  0  0  0  0
  8  9  2  0  0  0  0
  8 10  1  0  0  0  0
 10 11  1  0  0  0  0
 10 14  2  0  0  0  0
 11 12  1  0  0  0  0
 12 13  2  0  0  0  0
 12 31  1  0  0  0  0
 13 14  1  0  0  0  0
 14 15  1  0  0  0  0
 15 16  1  0  0  0  0
 15 32  1  0  0  0  0
 15 33  1  0  0  0  0
 16 17  1  0  0  0  0
 16 34  1  0  0  0  0
 16 35  1  0  0  0  0
 17 18  1  0  0  0  0
 17 22  2  0  0  0  0
 18 19  2  0  0  0  0
 18 36  1  0  0  0  0
 19 20  1  0  0  0  0
 19 37  1  0  0  0  0
 20 21  2  0  0  0  0
 21 22  1  0  0  0  0
 21 38  1  0  0  0  0
 22 39  1  0  0  0  0
 23 40  1  0  0  0  0
M  END
$$$$
