CHEMBL467983
 OpenBabel04072215383D

 46 50  0  0  0  0  0  0  0  0999 V2000
    3.0644    1.0311   -0.1150 O   0  0  0  0  0  0  0  0  0  0  0  0
    2.5195   -0.0729   -0.0655 C   0  0  0  0  0  0  0  0  0  0  0  0
    3.0924   -1.1650    0.7608 C   0  0  0  0  0  0  0  0  0  0  0  0
    2.7306   -2.4977    0.4893 C   0  0  0  0  0  0  0  0  0  0  0  0
    3.4297   -3.5484    1.0733 C   0  0  0  0  0  0  0  0  0  0  0  0
    4.5021   -3.2783    1.9125 C   0  0  0  0  0  0  0  0  0  0  0  0
    4.8045   -1.9597    2.2538 C   0  0  0  0  0  0  0  0  0  0  0  0
    4.0683   -0.8792    1.7461 C   0  0  0  0  0  0  0  0  0  0  0  0
    4.3175    0.4149    2.1908 N   0  0  0  0  0  0  0  0  0  0  0  0
    4.7977    0.7267    3.5282 C   0  0  0  0  0  0  0  0  0  0  0  0
    6.1606    1.3814    3.5084 C   0  0  0  0  0  0  0  0  0  0  0  0
    6.7697    1.7221    4.7303 C   0  0  0  0  0  0  0  0  0  0  0  0
    8.0239    2.3502    4.7806 C   0  0  0  0  0  0  0  0  0  0  0  0
    8.6909    2.6241    3.5767 C   0  0  0  0  0  0  0  0  0  0  0  0
    9.9170    3.2147    3.1907 C   0  0  0  0  0  0  0  0  0  0  0  0
   10.0975    3.2178    1.8668 N   0  0  0  0  0  0  0  0  0  0  0  0
    8.9722    2.6363    1.4019 N   0  0  0  0  0  0  0  0  0  0  0  0
    8.0933    2.2592    2.3756 C   0  0  0  0  0  0  0  0  0  0  0  0
    6.8333    1.6525    2.2985 C   0  0  0  0  0  0  0  0  0  0  0  0
    1.3264   -0.3127   -0.8589 C   0  0  0  0  0  0  0  0  0  0  0  0
    1.2689   -0.3306   -2.2403 C   0  0  0  0  0  0  0  0  0  0  0  0
   -0.0510   -0.4221   -2.5920 N   0  0  0  0  0  0  0  0  0  0  0  0
   -0.8185   -0.0893   -1.4996 C   0  0  0  0  0  0  0  0  0  0  0  0
   -2.1203    0.4092   -1.4079 C   0  0  0  0  0  0  0  0  0  0  0  0
   -2.6318    0.6027   -0.1207 C   0  0  0  0  0  0  0  0  0  0  0  0
   -1.9170    0.1879    1.0029 C   0  0  0  0  0  0  0  0  0  0  0  0
   -2.6286    0.3326    2.5647 Cl  0  0  0  0  0  0  0  0  0  0  0  0
   -0.6079   -0.2867    0.8954 C   0  0  0  0  0  0  0  0  0  0  0  0
   -0.0168   -0.3078   -0.3808 C   0  0  0  0  0  0  0  0  0  0  0  0
    1.9308   -2.7371   -0.2057 H   0  0  0  0  0  0  0  0  0  0  0  0
    3.1654   -4.5770    0.8409 H   0  0  0  0  0  0  0  0  0  0  0  0
    5.1068   -4.0892    2.3096 H   0  0  0  0  0  0  0  0  0  0  0  0
    5.6587   -1.7823    2.9041 H   0  0  0  0  0  0  0  0  0  0  0  0
    3.7632    1.1480    1.7419 H   0  0  0  0  0  0  0  0  0  0  0  0
    4.8392   -0.1606    4.1725 H   0  0  0  0  0  0  0  0  0  0  0  0
    4.0855    1.4169    3.9987 H   0  0  0  0  0  0  0  0  0  0  0  0
    6.2612    1.4964    5.6670 H   0  0  0  0  0  0  0  0  0  0  0  0
    8.4737    2.6059    5.7343 H   0  0  0  0  0  0  0  0  0  0  0  0
   10.6805    3.6415    3.8233 H   0  0  0  0  0  0  0  0  0  0  0  0
    8.8762    2.5087    0.4068 H   0  0  0  0  0  0  0  0  0  0  0  0
    6.3921    1.4070    1.3383 H   0  0  0  0  0  0  0  0  0  0  0  0
    2.0431   -0.2546   -2.9913 H   0  0  0  0  0  0  0  0  0  0  0  0
   -0.4020   -0.5545   -3.5313 H   0  0  0  0  0  0  0  0  0  0  0  0
   -2.6769    0.7155   -2.2880 H   0  0  0  0  0  0  0  0  0  0  0  0
   -3.5994    1.0835   -0.0012 H   0  0  0  0  0  0  0  0  0  0  0  0
   -0.0374   -0.5532    1.7795 H   0  0  0  0  0  0  0  0  0  0  0  0
  1  2  2  0  0  0  0
  2  3  1  0  0  0  0
  2 20  1  0  0  0  0
  3  4  1  0  0  0  0
  3  8  2  0  0  0  0
  4  5  2  0  0  0  0
  4 30  1  0  0  0  0
  5  6  1  0  0  0  0
  5 31  1  0  0  0  0
  6  7  2  0  0  0  0
  6 32  1  0  0  0  0
  7  8  1  0  0  0  0
  7 33  1  0  0  0  0
  8  9  1  0  0  0  0
  9 10  1  0  0  0  0
  9 34  1  0  0  0  0
 10 11  1  0  0  0  0
 10 35  1  0  0  0  0
 10 36  1  0  0  0  0
 11 12  1  0  0  0  0
 11 19  2  0  0  0  0
 12 13  2  0  0  0  0
 12 37  1  0  0  0  0
 13 14  1  0  0  0  0
 13 38  1  0  0  0  0
 14 15  1  0  0  0  0
 14 18  2  0  0  0  0
 15 16  2  0  0  0  0
 15 39  1  0  0  0  0
 16 17  1  0  0  0  0
 17 18  1  0  0  0  0
 17 40  1  0  0  0  0
 18 19  1  0  0  0  0
 19 41  1  0  0  0  0
 20 21  2  0  0  0  0
 20 29  1  0  0  0  0
 21 22  1  0  0  0  0
 21 42  1  0  0  0  0
 22 23  1  0  0  0  0
 22 43  1  0  0  0  0
 23 24  1  0  0  0  0
 23 29  2  0  0  0  0
 24 25  2  0  0  0  0
 24 44  1  0  0  0  0
 25 26  1  0  0  0  0
 25 45  1  0  0  0  0
 26 27  1  0  0  0  0
 26 28  2  0  0  0  0
 28 29  1  0  0  0  0
 28 46  1  0  0  0  0
M  END
$$$$
