CHEMBL392935
 OpenBabel04072215373D

 44 46  0  0  0  0  0  0  0  0999 V2000
    6.3356    1.4232   -1.4792 C   0  0  0  0  0  0  0  0  0  0  0  0
    5.5073    0.5006   -0.5981 C   0  0  0  0  0  0  0  0  0  0  0  0
    5.4283    1.0006    0.8200 C   0  0  0  0  0  0  0  0  0  0  0  0
    4.4513    1.9346    1.1649 C   0  0  0  0  0  0  0  0  0  0  0  0
    4.3652    2.4293    2.4643 C   0  0  0  0  0  0  0  0  0  0  0  0
    5.2584    2.0120    3.4537 C   0  0  0  0  0  0  0  0  0  0  0  0
    5.2298    2.4963    4.7836 N   0  0  0  0  0  0  0  0  0  0  0  0
    4.3828    3.4673    5.2915 C   0  0  0  0  0  0  0  0  0  0  0  0
    3.5229    4.0451    4.6327 O   0  0  0  0  0  0  0  0  0  0  0  0
    4.5976    3.8110    6.6851 C   0  0  0  0  0  0  0  0  0  0  0  0
    5.5130    3.3328    7.6102 C   0  0  0  0  0  0  0  0  0  0  0  0
    5.3355    4.1185    8.7589 C   0  0  0  0  0  0  0  0  0  0  0  0
    4.3302    4.9796    8.6290 N   0  0  0  0  0  0  0  0  0  0  0  0
    3.8688    4.7676    7.3746 N   0  0  0  0  0  0  0  0  0  0  0  0
    2.7700    5.6081    6.8994 C   0  0  0  0  0  0  0  0  0  0  0  0
    1.4538    4.8475    6.7081 C   0  0  0  0  0  0  0  0  0  0  0  0
    0.2913    5.7245    6.2924 C   0  0  0  0  0  0  0  0  0  0  0  0
    0.0788    6.0655    4.9489 C   0  0  0  0  0  0  0  0  0  0  0  0
   -1.0503    6.7984    4.6181 C   0  0  0  0  0  0  0  0  0  0  0  0
   -1.9636    7.2253    5.5159 N   0  0  0  0  0  0  0  0  0  0  0  0
   -1.7339    6.9034    6.8061 C   0  0  0  0  0  0  0  0  0  0  0  0
   -0.6355    6.1721    7.2389 C   0  0  0  0  0  0  0  0  0  0  0  0
    6.2405    1.0735    3.1105 C   0  0  0  0  0  0  0  0  0  0  0  0
    6.3283    0.5747    1.8031 C   0  0  0  0  0  0  0  0  0  0  0  0
    6.3508    1.0492   -2.5080 H   0  0  0  0  0  0  0  0  0  0  0  0
    7.3697    1.4874   -1.1239 H   0  0  0  0  0  0  0  0  0  0  0  0
    5.9230    2.4378   -1.4956 H   0  0  0  0  0  0  0  0  0  0  0  0
    5.9265   -0.5126   -0.6149 H   0  0  0  0  0  0  0  0  0  0  0  0
    4.4935    0.4169   -1.0083 H   0  0  0  0  0  0  0  0  0  0  0  0
    3.7425    2.2947    0.4213 H   0  0  0  0  0  0  0  0  0  0  0  0
    3.5794    3.1485    2.6590 H   0  0  0  0  0  0  0  0  0  0  0  0
    5.9285    2.1115    5.4038 H   0  0  0  0  0  0  0  0  0  0  0  0
    6.2533    2.5582    7.4766 H   0  0  0  0  0  0  0  0  0  0  0  0
    5.9004    4.1002    9.6827 H   0  0  0  0  0  0  0  0  0  0  0  0
    3.1087    6.1046    5.9842 H   0  0  0  0  0  0  0  0  0  0  0  0
    2.6291    6.3996    7.6476 H   0  0  0  0  0  0  0  0  0  0  0  0
    1.1926    4.3225    7.6351 H   0  0  0  0  0  0  0  0  0  0  0  0
    1.5534    4.0541    5.9615 H   0  0  0  0  0  0  0  0  0  0  0  0
    0.7647    5.7413    4.1717 H   0  0  0  0  0  0  0  0  0  0  0  0
   -1.2623    7.0623    3.5864 H   0  0  0  0  0  0  0  0  0  0  0  0
   -2.4866    7.2478    7.5091 H   0  0  0  0  0  0  0  0  0  0  0  0
   -0.5247    5.9403    8.2921 H   0  0  0  0  0  0  0  0  0  0  0  0
    6.9580    0.7218    3.8473 H   0  0  0  0  0  0  0  0  0  0  0  0
    7.1060   -0.1445    1.5569 H   0  0  0  0  0  0  0  0  0  0  0  0
  1  2  1  0  0  0  0
  1 25  1  0  0  0  0
  1 26  1  0  0  0  0
  1 27  1  0  0  0  0
  2  3  1  0  0  0  0
  2 28  1  0  0  0  0
  2 29  1  0  0  0  0
  3  4  1  0  0  0  0
  3 24  2  0  0  0  0
  4  5  2  0  0  0  0
  4 30  1  0  0  0  0
  5  6  1  0  0  0  0
  5 31  1  0  0  0  0
  6  7  1  0  0  0  0
  6 23  2  0  0  0  0
  7  8  1  0  0  0  0
  7 32  1  0  0  0  0
  8  9  2  0  0  0  0
  8 10  1  0  0  0  0
 10 11  2  0  0  0  0
 10 14  1  0  0  0  0
 11 12  1  0  0  0  0
 11 33  1  0  0  0  0
 12 13  2  0  0  0  0
 12 34  1  0  0  0  0
 13 14  1  0  0  0  0
 14 15  1  0  0  0  0
 15 16  1  0  0  0  0
 15 35  1  0  0  0  0
 15 36  1  0  0  0  0
 16 17  1  0  0  0  0
 16 37  1  0  0  0  0
 16 38  1  0  0  0  0
 17 18  1  0  0  0  0
 17 22  2  0  0  0  0
 18 19  2  0  0  0  0
 18 39  1  0  0  0  0
 19 20  1  0  0  0  0
 19 40  1  0  0  0  0
 20 21  2  0  0  0  0
 21 22  1  0  0  0  0
 21 41  1  0  0  0  0
 22 42  1  0  0  0  0
 23 24  1  0  0  0  0
 23 43  1  0  0  0  0
 24 44  1  0  0  0  0
M  END
$$$$
