CHEMBL369014
 OpenBabel04072215373D

 45 48  0  0  0  0  0  0  0  0999 V2000
    3.8232   -2.5941   -0.8258 C   0  0  0  0  0  0  0  0  0  0  0  0
    4.6805   -1.3470   -0.9682 C   0  0  0  0  0  0  0  0  0  0  0  0
    5.3884   -1.1702    0.2628 O   0  0  0  0  0  0  0  0  0  0  0  0
    4.7115   -0.5012    1.2263 C   0  0  0  0  0  0  0  0  0  0  0  0
    3.7538    0.2363    1.0630 O   0  0  0  0  0  0  0  0  0  0  0  0
    5.2084   -0.9300    2.5579 C   0  0  0  0  0  0  0  0  0  0  0  0
    4.5020   -0.5114    3.6887 C   0  0  0  0  0  0  0  0  0  0  0  0
    4.8785   -0.9665    4.9539 C   0  0  0  0  0  0  0  0  0  0  0  0
    6.0132   -1.7693    5.1210 C   0  0  0  0  0  0  0  0  0  0  0  0
    6.4751   -2.1243    6.4514 C   0  0  0  0  0  0  0  0  0  0  0  0
    6.9680   -3.3797    6.7520 C   0  0  0  0  0  0  0  0  0  0  0  0
    7.2829   -3.4450    8.0977 N   0  0  0  0  0  0  0  0  0  0  0  0
    7.8390   -4.5830    8.7597 C   0  0  0  0  0  0  0  0  0  0  0  0
    8.5966   -5.5210    8.0391 C   0  0  0  0  0  0  0  0  0  0  0  0
    9.1970   -6.5974    8.7028 C   0  0  0  0  0  0  0  0  0  0  0  0
    9.0251   -6.7603   10.0762 C   0  0  0  0  0  0  0  0  0  0  0  0
    8.2486   -5.8516   10.7891 C   0  0  0  0  0  0  0  0  0  0  0  0
    7.6618   -4.7659   10.1361 C   0  0  0  0  0  0  0  0  0  0  0  0
    6.9918   -2.2039    8.6583 C   0  0  0  0  0  0  0  0  0  0  0  0
    7.1741   -1.8618    9.9489 N   0  0  0  0  0  0  0  0  0  0  0  0
    6.8799   -0.5845   10.1970 C   0  0  0  0  0  0  0  0  0  0  0  0
    6.4619    0.3420    9.3275 N   0  0  0  0  0  0  0  0  0  0  0  0
    6.3139   -0.0069    8.0358 C   0  0  0  0  0  0  0  0  0  0  0  0
    5.9654    1.0264    7.1961 N   0  0  0  0  0  0  0  0  0  0  0  0
    6.5497   -1.3444    7.6520 C   0  0  0  0  0  0  0  0  0  0  0  0
    6.6977   -2.2129    3.9794 C   0  0  0  0  0  0  0  0  0  0  0  0
    6.2915   -1.8059    2.7061 C   0  0  0  0  0  0  0  0  0  0  0  0
    3.2942   -2.8205   -1.7556 H   0  0  0  0  0  0  0  0  0  0  0  0
    3.0885   -2.4725   -0.0218 H   0  0  0  0  0  0  0  0  0  0  0  0
    4.4444   -3.4531   -0.5491 H   0  0  0  0  0  0  0  0  0  0  0  0
    4.0817   -0.4683   -1.2316 H   0  0  0  0  0  0  0  0  0  0  0  0
    5.4242   -1.4920   -1.7576 H   0  0  0  0  0  0  0  0  0  0  0  0
    3.6450    0.1525    3.5892 H   0  0  0  0  0  0  0  0  0  0  0  0
    4.2767   -0.6743    5.8127 H   0  0  0  0  0  0  0  0  0  0  0  0
    7.0715   -4.2559    6.1258 H   0  0  0  0  0  0  0  0  0  0  0  0
    8.7876   -5.4103    6.9761 H   0  0  0  0  0  0  0  0  0  0  0  0
    9.8145   -7.3002    8.1502 H   0  0  0  0  0  0  0  0  0  0  0  0
    9.4995   -7.5903   10.5927 H   0  0  0  0  0  0  0  0  0  0  0  0
    8.0986   -5.9812   11.8584 H   0  0  0  0  0  0  0  0  0  0  0  0
    7.0442   -4.0939   10.7267 H   0  0  0  0  0  0  0  0  0  0  0  0
    7.0037   -0.2519   11.2229 H   0  0  0  0  0  0  0  0  0  0  0  0
    5.6285    1.8526    7.6727 H   0  0  0  0  0  0  0  0  0  0  0  0
    5.7217    0.8741    6.2356 H   0  0  0  0  0  0  0  0  0  0  0  0
    7.5538   -2.8781    4.0635 H   0  0  0  0  0  0  0  0  0  0  0  0
    6.8299   -2.1843    1.8402 H   0  0  0  0  0  0  0  0  0  0  0  0
  1  2  1  0  0  0  0
  1 28  1  0  0  0  0
  1 29  1  0  0  0  0
  1 30  1  0  0  0  0
  2  3  1  0  0  0  0
  2 31  1  0  0  0  0
  2 32  1  0  0  0  0
  3  4  1  0  0  0  0
  4  5  2  0  0  0  0
  4  6  1  0  0  0  0
  6  7  1  0  0  0  0
  6 27  2  0  0  0  0
  7  8  2  0  0  0  0
  7 33  1  0  0  0  0
  8  9  1  0  0  0  0
  8 34  1  0  0  0  0
  9 10  1  0  0  0  0
  9 26  2  0  0  0  0
 10 11  2  0  0  0  0
 10 25  1  0  0  0  0
 11 12  1  0  0  0  0
 11 35  1  0  0  0  0
 12 13  1  0  0  0  0
 12 19  1  0  0  0  0
 13 14  1  0  0  0  0
 13 18  2  0  0  0  0
 14 15  2  0  0  0  0
 14 36  1  0  0  0  0
 15 16  1  0  0  0  0
 15 37  1  0  0  0  0
 16 17  2  0  0  0  0
 16 38  1  0  0  0  0
 17 18  1  0  0  0  0
 17 39  1  0  0  0  0
 18 40  1  0  0  0  0
 19 20  1  0  0  0  0
 19 25  2  0  0  0  0
 20 21  2  0  0  0  0
 21 22  1  0  0  0  0
 21 41  1  0  0  0  0
 22 23  2  0  0  0  0
 23 24  1  0  0  0  0
 23 25  1  0  0  0  0
 24 42  1  0  0  0  0
 24 43  1  0  0  0  0
 26 27  1  0  0  0  0
 26 44  1  0  0  0  0
 27 45  1  0  0  0  0
M  END
$$$$
