CHEMBL407708
 OpenBabel04072215383D

 62 66  0  0  0  0  0  0  0  0999 V2000
    2.8376    0.1229   -3.7112 C   0  0  0  0  0  0  0  0  0  0  0  0
    3.0868   -0.7320   -2.4679 C   0  0  0  0  0  0  0  0  0  0  0  0
    2.2000   -1.9758   -2.5088 C   0  0  0  0  0  0  0  0  0  0  0  0
    4.5019   -1.0958   -2.4193 N   0  0  0  0  0  0  0  0  0  0  0  0
    5.0367   -1.3976   -1.2208 C   0  0  0  0  0  0  0  0  0  0  0  0
    4.4894   -1.8812   -0.1308 N   0  0  0  0  0  0  0  0  0  0  0  0
    5.4883   -1.9363    0.8114 N   0  0  0  0  0  0  0  0  0  0  0  0
    6.5827   -1.4583    0.2507 C   0  0  0  0  0  0  0  0  0  0  0  0
    7.8902   -1.2748    0.9638 C   0  0  0  0  0  0  0  0  0  0  0  0
    8.9910   -0.7303    0.3525 C   0  0  0  0  0  0  0  0  0  0  0  0
    9.9971   -0.6779    1.2672 N   0  0  0  0  0  0  0  0  0  0  0  0
   11.2027   -0.1546    1.0048 N   0  0  0  0  0  0  0  0  0  0  0  0
   12.0363   -0.2372    1.9857 C   0  0  0  0  0  0  0  0  0  0  0  0
   11.7979   -0.8085    3.1992 N   0  0  0  0  0  0  0  0  0  0  0  0
   10.6295   -1.3183    3.4768 C   0  0  0  0  0  0  0  0  0  0  0  0
   10.4459   -1.8833    4.7222 N   0  0  0  0  0  0  0  0  0  0  0  0
   11.5066   -2.4100    5.5070 C   0  0  0  0  0  0  0  0  0  0  0  0
   12.5604   -3.1467    4.9417 C   0  0  0  0  0  0  0  0  0  0  0  0
   13.5860   -3.6878    5.7392 C   0  0  0  0  0  0  0  0  0  0  0  0
   14.6995   -4.4180    5.0627 C   0  0  0  0  0  0  0  0  0  0  0  0
   14.7036   -4.5040    3.8360 O   0  0  0  0  0  0  0  0  0  0  0  0
   15.6836   -4.9634    5.8616 N   0  0  0  0  0  0  0  0  0  0  0  0
   16.8500   -5.5903    5.3206 C   0  0  0  0  0  0  0  0  0  0  0  0
   17.9128   -6.1653    6.2174 C   0  0  0  0  0  0  0  0  0  0  0  0
   18.1872   -4.9114    5.4414 C   0  0  0  0  0  0  0  0  0  0  0  0
   13.5292   -3.5010    7.1218 C   0  0  0  0  0  0  0  0  0  0  0  0
   14.4816   -3.9960    7.9275 F   0  0  0  0  0  0  0  0  0  0  0  0
   12.4860   -2.7908    7.7089 C   0  0  0  0  0  0  0  0  0  0  0  0
   11.4854   -2.2628    6.9006 C   0  0  0  0  0  0  0  0  0  0  0  0
   10.4851   -1.5745    7.4721 F   0  0  0  0  0  0  0  0  0  0  0  0
    9.5988   -1.2349    2.4596 C   0  0  0  0  0  0  0  0  0  0  0  0
    8.2501   -1.6085    2.3292 C   0  0  0  0  0  0  0  0  0  0  0  0
    7.2736   -2.2940    3.2734 C   0  0  0  0  0  0  0  0  0  0  0  0
    7.2928   -3.8124    3.0817 C   0  0  0  0  0  0  0  0  0  0  0  0
    7.3348   -1.9332    4.7500 C   0  0  0  0  0  0  0  0  0  0  0  0
    6.3626   -1.1129   -1.0653 O   0  0  0  0  0  0  0  0  0  0  0  0
    1.7867    0.4241   -3.7745 H   0  0  0  0  0  0  0  0  0  0  0  0
    3.0939   -0.4209   -4.6273 H   0  0  0  0  0  0  0  0  0  0  0  0
    3.4473    1.0327   -3.6839 H   0  0  0  0  0  0  0  0  0  0  0  0
    2.8204   -0.1277   -1.5906 H   0  0  0  0  0  0  0  0  0  0  0  0
    2.4578   -2.6247   -3.3529 H   0  0  0  0  0  0  0  0  0  0  0  0
    1.1454   -1.6946   -2.6074 H   0  0  0  0  0  0  0  0  0  0  0  0
    2.2967   -2.5682   -1.5935 H   0  0  0  0  0  0  0  0  0  0  0  0
    5.1089   -0.5459   -3.0176 H   0  0  0  0  0  0  0  0  0  0  0  0
    9.1530   -0.3710   -0.6536 H   0  0  0  0  0  0  0  0  0  0  0  0
   13.0451    0.1870    1.8478 H   0  0  0  0  0  0  0  0  0  0  0  0
    9.8158   -1.3352    5.3007 H   0  0  0  0  0  0  0  0  0  0  0  0
   12.5886   -3.3025    3.8637 H   0  0  0  0  0  0  0  0  0  0  0  0
   15.6264   -4.8569    6.8694 H   0  0  0  0  0  0  0  0  0  0  0  0
   16.6574   -6.1354    4.3976 H   0  0  0  0  0  0  0  0  0  0  0  0
   18.4081   -7.0749    5.8953 H   0  0  0  0  0  0  0  0  0  0  0  0
   17.7966   -6.0827    7.2909 H   0  0  0  0  0  0  0  0  0  0  0  0
   18.8548   -4.9678    4.5893 H   0  0  0  0  0  0  0  0  0  0  0  0
   18.2445   -3.9771    5.9871 H   0  0  0  0  0  0  0  0  0  0  0  0
   12.4548   -2.6510    8.7835 H   0  0  0  0  0  0  0  0  0  0  0  0
    6.2726   -1.9515    2.9898 H   0  0  0  0  0  0  0  0  0  0  0  0
    8.2837   -4.2288    3.2898 H   0  0  0  0  0  0  0  0  0  0  0  0
    7.0288   -4.0822    2.0527 H   0  0  0  0  0  0  0  0  0  0  0  0
    6.5683   -4.2996    3.7433 H   0  0  0  0  0  0  0  0  0  0  0  0
    8.1311   -2.4628    5.2720 H   0  0  0  0  0  0  0  0  0  0  0  0
    6.4061   -2.2475    5.2436 H   0  0  0  0  0  0  0  0  0  0  0  0
    7.4386   -0.8547    4.9021 H   0  0  0  0  0  0  0  0  0  0  0  0
  1  2  1  0  0  0  0
  1 37  1  0  0  0  0
  1 38  1  0  0  0  0
  1 39  1  0  0  0  0
  2  3  1  0  0  0  0
  2  4  1  0  0  0  0
  2 40  1  0  0  0  0
  3 41  1  0  0  0  0
  3 42  1  0  0  0  0
  3 43  1  0  0  0  0
  4  5  1  0  0  0  0
  4 44  1  0  0  0  0
  5  6  2  0  0  0  0
  5 36  1  0  0  0  0
  6  7  1  0  0  0  0
  7  8  2  0  0  0  0
  8  9  1  0  0  0  0
  8 36  1  0  0  0  0
  9 10  2  0  0  0  0
  9 32  1  0  0  0  0
 10 11  1  0  0  0  0
 10 45  1  0  0  0  0
 11 12  1  0  0  0  0
 11 31  1  0  0  0  0
 12 13  2  0  0  0  0
 13 14  1  0  0  0  0
 13 46  1  0  0  0  0
 14 15  2  0  0  0  0
 15 16  1  0  0  0  0
 15 31  1  0  0  0  0
 16 17  1  0  0  0  0
 16 47  1  0  0  0  0
 17 18  1  0  0  0  0
 17 29  2  0  0  0  0
 18 19  2  0  0  0  0
 18 48  1  0  0  0  0
 19 20  1  0  0  0  0
 19 26  1  0  0  0  0
 20 21  2  0  0  0  0
 20 22  1  0  0  0  0
 22 23  1  0  0  0  0
 22 49  1  0  0  0  0
 23 24  1  0  0  0  0
 23 25  1  0  0  0  0
 23 50  1  0  0  0  0
 24 25  1  0  0  0  0
 24 51  1  0  0  0  0
 24 52  1  0  0  0  0
 25 53  1  0  0  0  0
 25 54  1  0  0  0  0
 26 27  1  0  0  0  0
 26 28  2  0  0  0  0
 28 29  1  0  0  0  0
 28 55  1  0  0  0  0
 29 30  1  0  0  0  0
 31 32  2  0  0  0  0
 32 33  1  0  0  0  0
 33 34  1  0  0  0  0
 33 35  1  0  0  0  0
 33 56  1  0  0  0  0
 34 57  1  0  0  0  0
 34 58  1  0  0  0  0
 34 59  1  0  0  0  0
 35 60  1  0  0  0  0
 35 61  1  0  0  0  0
 35 62  1  0  0  0  0
M  END
$$$$
