CHEMBL512933
 OpenBabel04072215383D

 39 42  0  0  0  0  0  0  0  0999 V2000
    6.9368    1.1948    6.7898 C   0  0  0  0  0  0  0  0  0  0  0  0
    6.6633    0.2685    5.7169 N   0  0  0  0  0  0  0  0  0  0  0  0
    5.5286    0.5428    4.9682 C   0  0  0  0  0  0  0  0  0  0  0  0
    4.9054   -0.5322    4.4750 N   0  0  0  0  0  0  0  0  0  0  0  0
    3.8091   -0.3046    3.7375 C   0  0  0  0  0  0  0  0  0  0  0  0
    3.3150    0.9512    3.4849 C   0  0  0  0  0  0  0  0  0  0  0  0
    4.0225    2.0139    4.0158 C   0  0  0  0  0  0  0  0  0  0  0  0
    3.5302    3.3264    3.7578 N   0  0  0  0  0  0  0  0  0  0  0  0
    4.0887    4.5563    4.1794 C   0  0  0  0  0  0  0  0  0  0  0  0
    3.9658    5.7019    3.3778 C   0  0  0  0  0  0  0  0  0  0  0  0
    4.5201    6.9388    3.7699 C   0  0  0  0  0  0  0  0  0  0  0  0
    5.1915    7.0772    4.9931 C   0  0  0  0  0  0  0  0  0  0  0  0
    5.7893    8.3761    5.4018 C   0  0  0  0  0  0  0  0  0  0  0  0
    5.7164    9.5129    4.7246 N   0  0  0  0  0  0  0  0  0  0  0  0
    6.3956   10.5307    5.3981 C   0  0  0  0  0  0  0  0  0  0  0  0
    6.5337   11.8761    4.9935 C   0  0  0  0  0  0  0  0  0  0  0  0
    7.2557   12.7779    5.7896 C   0  0  0  0  0  0  0  0  0  0  0  0
    7.8380   12.3626    6.9835 C   0  0  0  0  0  0  0  0  0  0  0  0
    7.7121   11.0405    7.4079 C   0  0  0  0  0  0  0  0  0  0  0  0
    6.9902   10.1467    6.5989 C   0  0  0  0  0  0  0  0  0  0  0  0
    6.6899    8.4886    6.8705 S   0  0  0  0  0  0  0  0  0  0  0  0
    5.2630    5.9315    5.8065 C   0  0  0  0  0  0  0  0  0  0  0  0
    4.7169    4.7036    5.4140 C   0  0  0  0  0  0  0  0  0  0  0  0
    5.1169    1.8037    4.7715 N   0  0  0  0  0  0  0  0  0  0  0  0
    7.7880    0.8264    7.3722 H   0  0  0  0  0  0  0  0  0  0  0  0
    6.0859    1.2904    7.4733 H   0  0  0  0  0  0  0  0  0  0  0  0
    7.2098    2.1837    6.4065 H   0  0  0  0  0  0  0  0  0  0  0  0
    6.5945   -0.7085    5.9823 H   0  0  0  0  0  0  0  0  0  0  0  0
    3.3275   -1.1924    3.3388 H   0  0  0  0  0  0  0  0  0  0  0  0
    2.4234    1.0870    2.8892 H   0  0  0  0  0  0  0  0  0  0  0  0
    3.1844    3.3841    2.8073 H   0  0  0  0  0  0  0  0  0  0  0  0
    3.4542    5.6454    2.4197 H   0  0  0  0  0  0  0  0  0  0  0  0
    4.4253    7.7923    3.0997 H   0  0  0  0  0  0  0  0  0  0  0  0
    6.0809   12.2083    4.0647 H   0  0  0  0  0  0  0  0  0  0  0  0
    7.3643   13.8134    5.4743 H   0  0  0  0  0  0  0  0  0  0  0  0
    8.3962   13.0684    7.5949 H   0  0  0  0  0  0  0  0  0  0  0  0
    8.1616   10.7078    8.3387 H   0  0  0  0  0  0  0  0  0  0  0  0
    5.7515    5.9541    6.7769 H   0  0  0  0  0  0  0  0  0  0  0  0
    4.7946    3.8604    6.0964 H   0  0  0  0  0  0  0  0  0  0  0  0
  1  2  1  0  0  0  0
  1 25  1  0  0  0  0
  1 26  1  0  0  0  0
  1 27  1  0  0  0  0
  2  3  1  0  0  0  0
  2 28  1  0  0  0  0
  3  4  1  0  0  0  0
  3 24  2  0  0  0  0
  4  5  2  0  0  0  0
  5  6  1  0  0  0  0
  5 29  1  0  0  0  0
  6  7  2  0  0  0  0
  6 30  1  0  0  0  0
  7  8  1  0  0  0  0
  7 24  1  0  0  0  0
  8  9  1  0  0  0  0
  8 31  1  0  0  0  0
  9 10  1  0  0  0  0
  9 23  2  0  0  0  0
 10 11  2  0  0  0  0
 10 32  1  0  0  0  0
 11 12  1  0  0  0  0
 11 33  1  0  0  0  0
 12 13  1  0  0  0  0
 12 22  2  0  0  0  0
 13 14  2  0  0  0  0
 13 21  1  0  0  0  0
 14 15  1  0  0  0  0
 15 16  1  0  0  0  0
 15 20  2  0  0  0  0
 16 17  2  0  0  0  0
 16 34  1  0  0  0  0
 17 18  1  0  0  0  0
 17 35  1  0  0  0  0
 18 19  2  0  0  0  0
 18 36  1  0  0  0  0
 19 20  1  0  0  0  0
 19 37  1  0  0  0  0
 20 21  1  0  0  0  0
 22 23  1  0  0  0  0
 22 38  1  0  0  0  0
 23 39  1  0  0  0  0
M  END
$$$$
