CHEMBL188502
 OpenBabel04072215363D

 51 54  0  0  0  0  0  0  0  0999 V2000
    9.9087   -4.3475    5.9432 Cl  0  0  0  0  0  0  0  0  0  0  0  0
    9.4463   -3.4752    4.5331 C   0  0  0  0  0  0  0  0  0  0  0  0
   10.4234   -2.8536    3.7572 C   0  0  0  0  0  0  0  0  0  0  0  0
   10.0509   -2.1365    2.6239 C   0  0  0  0  0  0  0  0  0  0  0  0
    8.7022   -2.0593    2.2657 C   0  0  0  0  0  0  0  0  0  0  0  0
    7.7157   -2.7144    3.0193 C   0  0  0  0  0  0  0  0  0  0  0  0
    6.3342   -2.5755    2.7279 N   0  0  0  0  0  0  0  0  0  0  0  0
    5.8079   -2.5033    1.4147 C   0  0  0  0  0  0  0  0  0  0  0  0
    4.5544   -1.9298    1.1912 C   0  0  0  0  0  0  0  0  0  0  0  0
    3.9581   -1.8711   -0.0230 N   0  0  0  0  0  0  0  0  0  0  0  0
    4.6570   -2.4496   -1.0242 C   0  0  0  0  0  0  0  0  0  0  0  0
    5.9011   -3.0528   -0.8452 C   0  0  0  0  0  0  0  0  0  0  0  0
    6.6673   -3.6754   -1.9311 C   0  0  0  0  0  0  0  0  0  0  0  0
    7.4776   -4.7876   -1.7008 C   0  0  0  0  0  0  0  0  0  0  0  0
    8.1948   -5.4316   -2.6546 N   0  0  0  0  0  0  0  0  0  0  0  0
    8.1365   -4.9129   -3.9023 C   0  0  0  0  0  0  0  0  0  0  0  0
    7.4048   -3.7803   -4.2639 C   0  0  0  0  0  0  0  0  0  0  0  0
    7.4965   -3.2829   -5.5607 N   0  0  0  0  0  0  0  0  0  0  0  0
    7.1408   -1.9059   -5.8654 C   0  0  0  0  0  0  0  0  0  0  0  0
    7.9374   -1.4447   -7.0875 C   0  0  0  0  0  0  0  0  0  0  0  0
    7.6727    0.0319   -7.3816 C   0  0  0  0  0  0  0  0  0  0  0  0
    8.4731    0.5434   -8.5466 C   0  0  0  0  0  0  0  0  0  0  0  0
    9.7539    1.0728   -8.3762 C   0  0  0  0  0  0  0  0  0  0  0  0
   10.4595    1.5471   -9.4771 C   0  0  0  0  0  0  0  0  0  0  0  0
    9.8584    1.4672  -10.7237 C   0  0  0  0  0  0  0  0  0  0  0  0
    8.6286    0.9499  -10.9325 N   0  0  0  0  0  0  0  0  0  0  0  0
    7.9669    0.4999   -9.8438 C   0  0  0  0  0  0  0  0  0  0  0  0
    6.6501   -3.1852   -3.2485 C   0  0  0  0  0  0  0  0  0  0  0  0
    6.4714   -3.0827    0.3849 N   0  0  0  0  0  0  0  0  0  0  0  0
    8.0982   -3.3923    4.1815 C   0  0  0  0  0  0  0  0  0  0  0  0
   11.4731   -2.9210    4.0319 H   0  0  0  0  0  0  0  0  0  0  0  0
   10.8006   -1.6374    2.0181 H   0  0  0  0  0  0  0  0  0  0  0  0
    8.4297   -1.4865    1.3828 H   0  0  0  0  0  0  0  0  0  0  0  0
    5.9755   -1.8059    3.2880 H   0  0  0  0  0  0  0  0  0  0  0  0
    3.9891   -1.4777    1.9996 H   0  0  0  0  0  0  0  0  0  0  0  0
    4.1673   -2.4276   -1.9916 H   0  0  0  0  0  0  0  0  0  0  0  0
    7.5764   -5.2142   -0.7038 H   0  0  0  0  0  0  0  0  0  0  0  0
    8.7555   -5.4250   -4.6332 H   0  0  0  0  0  0  0  0  0  0  0  0
    7.2211   -3.9654   -6.2656 H   0  0  0  0  0  0  0  0  0  0  0  0
    7.3956   -1.2465   -5.0266 H   0  0  0  0  0  0  0  0  0  0  0  0
    6.0638   -1.8255   -6.0509 H   0  0  0  0  0  0  0  0  0  0  0  0
    7.6792   -2.0621   -7.9571 H   0  0  0  0  0  0  0  0  0  0  0  0
    9.0091   -1.6023   -6.9046 H   0  0  0  0  0  0  0  0  0  0  0  0
    7.9063    0.6391   -6.4974 H   0  0  0  0  0  0  0  0  0  0  0  0
    6.6032    0.1891   -7.5747 H   0  0  0  0  0  0  0  0  0  0  0  0
   10.2047    1.1238   -7.3870 H   0  0  0  0  0  0  0  0  0  0  0  0
   11.4491    1.9737   -9.3699 H   0  0  0  0  0  0  0  0  0  0  0  0
   10.3653    1.8278  -11.6139 H   0  0  0  0  0  0  0  0  0  0  0  0
    6.9813    0.0940  -10.0516 H   0  0  0  0  0  0  0  0  0  0  0  0
    6.0459   -2.3139   -3.4804 H   0  0  0  0  0  0  0  0  0  0  0  0
    7.3464   -3.8788    4.7957 H   0  0  0  0  0  0  0  0  0  0  0  0
  1  2  1  0  0  0  0
  2  3  1  0  0  0  0
  2 30  2  0  0  0  0
  3  4  2  0  0  0  0
  3 31  1  0  0  0  0
  4  5  1  0  0  0  0
  4 32  1  0  0  0  0
  5  6  2  0  0  0  0
  5 33  1  0  0  0  0
  6  7  1  0  0  0  0
  6 30  1  0  0  0  0
  7  8  1  0  0  0  0
  7 34  1  0  0  0  0
  8  9  1  0  0  0  0
  8 29  2  0  0  0  0
  9 10  2  0  0  0  0
  9 35  1  0  0  0  0
 10 11  1  0  0  0  0
 11 12  2  0  0  0  0
 11 36  1  0  0  0  0
 12 13  1  0  0  0  0
 12 29  1  0  0  0  0
 13 14  1  0  0  0  0
 13 28  2  0  0  0  0
 14 15  2  0  0  0  0
 14 37  1  0  0  0  0
 15 16  1  0  0  0  0
 16 17  2  0  0  0  0
 16 38  1  0  0  0  0
 17 18  1  0  0  0  0
 17 28  1  0  0  0  0
 18 19  1  0  0  0  0
 18 39  1  0  0  0  0
 19 20  1  0  0  0  0
 19 40  1  0  0  0  0
 19 41  1  0  0  0  0
 20 21  1  0  0  0  0
 20 42  1  0  0  0  0
 20 43  1  0  0  0  0
 21 22  1  0  0  0  0
 21 44  1  0  0  0  0
 21 45  1  0  0  0  0
 22 23  1  0  0  0  0
 22 27  2  0  0  0  0
 23 24  2  0  0  0  0
 23 46  1  0  0  0  0
 24 25  1  0  0  0  0
 24 47  1  0  0  0  0
 25 26  2  0  0  0  0
 25 48  1  0  0  0  0
 26 27  1  0  0  0  0
 27 49  1  0  0  0  0
 28 50  1  0  0  0  0
 30 51  1  0  0  0  0
M  END
$$$$
