CHEMBL4762111
 OpenBabel04072215383D

 39 42  0  0  0  0  0  0  0  0999 V2000
   -1.4882    3.6504    1.8816 O   0  0  0  0  0  0  0  0  0  0  0  0
   -0.3606    3.1750    1.8464 C   0  0  0  0  0  0  0  0  0  0  0  0
    0.5861    3.1351    3.0187 C   0  0  0  0  0  0  0  0  0  0  0  0
    2.1557    2.5159    2.3547 S   0  0  0  0  0  0  0  0  0  0  0  0
    1.4392    2.1057    0.8238 C   0  0  0  0  0  0  0  0  0  0  0  0
    1.9457    1.4520   -0.1658 N   0  0  0  0  0  0  0  0  0  0  0  0
    3.2479    1.0181    0.0171 N   0  0  0  0  0  0  0  0  0  0  0  0
    3.6105    0.0965   -0.8171 C   0  0  0  0  0  0  0  0  0  0  0  0
    2.8112   -0.6022   -1.9308 C   0  0  0  0  0  0  0  0  0  0  0  0
    1.6493   -0.4190   -2.2207 O   0  0  0  0  0  0  0  0  0  0  0  0
    3.7043   -1.5070   -2.5007 N   0  0  0  0  0  0  0  0  0  0  0  0
    3.2813   -2.5431   -3.4176 C   0  0  0  0  0  0  0  0  0  0  0  0
    2.8025   -3.7713   -2.6720 C   0  0  0  0  0  0  0  0  0  0  0  0
    1.4690   -3.8636   -2.2418 C   0  0  0  0  0  0  0  0  0  0  0  0
    1.0490   -4.9360   -1.4519 C   0  0  0  0  0  0  0  0  0  0  0  0
    1.9549   -5.9271   -1.0819 C   0  0  0  0  0  0  0  0  0  0  0  0
    3.2744   -5.8615   -1.5235 C   0  0  0  0  0  0  0  0  0  0  0  0
    3.6939   -4.7950   -2.3193 C   0  0  0  0  0  0  0  0  0  0  0  0
    4.9597   -1.4335   -1.8727 C   0  0  0  0  0  0  0  0  0  0  0  0
    6.1184   -2.1400   -2.1481 C   0  0  0  0  0  0  0  0  0  0  0  0
    7.2454   -1.8904   -1.3525 C   0  0  0  0  0  0  0  0  0  0  0  0
    7.1954   -0.9540   -0.3028 C   0  0  0  0  0  0  0  0  0  0  0  0
    8.5963   -0.6926    0.6605 Cl  0  0  0  0  0  0  0  0  0  0  0  0
    6.0341   -0.2345   -0.0353 C   0  0  0  0  0  0  0  0  0  0  0  0
    4.9428   -0.4948   -0.8429 C   0  0  0  0  0  0  0  0  0  0  0  0
    0.1731    2.5741    0.7467 N   0  0  0  0  0  0  0  0  0  0  0  0
    0.2036    2.4321    3.7631 H   0  0  0  0  0  0  0  0  0  0  0  0
    0.7068    4.1311    3.4496 H   0  0  0  0  0  0  0  0  0  0  0  0
    4.0956   -2.7935   -4.1077 H   0  0  0  0  0  0  0  0  0  0  0  0
    2.4619   -2.1550   -4.0344 H   0  0  0  0  0  0  0  0  0  0  0  0
    0.7525   -3.0841   -2.4992 H   0  0  0  0  0  0  0  0  0  0  0  0
    0.0180   -4.9869   -1.1110 H   0  0  0  0  0  0  0  0  0  0  0  0
    1.6340   -6.7473   -0.4454 H   0  0  0  0  0  0  0  0  0  0  0  0
    3.9814   -6.6354   -1.2349 H   0  0  0  0  0  0  0  0  0  0  0  0
    4.7302   -4.7617   -2.6431 H   0  0  0  0  0  0  0  0  0  0  0  0
    6.1807   -2.8534   -2.9625 H   0  0  0  0  0  0  0  0  0  0  0  0
    8.1693   -2.4319   -1.5499 H   0  0  0  0  0  0  0  0  0  0  0  0
    5.9778    0.4951    0.7652 H   0  0  0  0  0  0  0  0  0  0  0  0
   -0.3589    2.4569   -0.1012 H   0  0  0  0  0  0  0  0  0  0  0  0
  1  2  2  0  0  0  0
  2  3  1  0  0  0  0
  2 26  1  0  0  0  0
  3  4  1  0  0  0  0
  3 27  1  0  0  0  0
  3 28  1  0  0  0  0
  4  5  1  0  0  0  0
  5  6  2  0  0  0  0
  5 26  1  0  0  0  0
  6  7  1  0  0  0  0
  7  8  2  0  0  0  0
  8  9  1  0  0  0  0
  8 25  1  0  0  0  0
  9 10  2  0  0  0  0
  9 11  1  0  0  0  0
 11 12  1  0  0  0  0
 11 19  1  0  0  0  0
 12 13  1  0  0  0  0
 12 29  1  0  0  0  0
 12 30  1  0  0  0  0
 13 14  1  0  0  0  0
 13 18  2  0  0  0  0
 14 15  2  0  0  0  0
 14 31  1  0  0  0  0
 15 16  1  0  0  0  0
 15 32  1  0  0  0  0
 16 17  2  0  0  0  0
 16 33  1  0  0  0  0
 17 18  1  0  0  0  0
 17 34  1  0  0  0  0
 18 35  1  0  0  0  0
 19 20  1  0  0  0  0
 19 25  2  0  0  0  0
 20 21  2  0  0  0  0
 20 36  1  0  0  0  0
 21 22  1  0  0  0  0
 21 37  1  0  0  0  0
 22 23  1  0  0  0  0
 22 24  2  0  0  0  0
 24 25  1  0  0  0  0
 24 38  1  0  0  0  0
 26 39  1  0  0  0  0
M  END
$$$$
