CHEMBL593909
 OpenBabel04072215383D

 71 76  0  0  0  0  0  0  0  0999 V2000
    2.6564    0.8172   -1.0894 C   0  0  0  0  0  0  0  0  0  0  0  0
    2.4199   -0.1427   -0.0648 O   0  0  0  0  0  0  0  0  0  0  0  0
    3.1626   -0.0793    1.0810 C   0  0  0  0  0  0  0  0  0  0  0  0
    4.2975    0.7233    1.2012 C   0  0  0  0  0  0  0  0  0  0  0  0
    4.9570    0.8727    2.4390 C   0  0  0  0  0  0  0  0  0  0  0  0
    6.0039    1.7777    2.6671 C   0  0  0  0  0  0  0  0  0  0  0  0
    6.3695    2.6998    1.6481 N   0  0  0  0  0  0  0  0  0  0  0  0
    7.1345    3.8639    1.8858 C   0  0  0  0  0  0  0  0  0  0  0  0
    6.8752    4.6891    2.9847 C   0  0  0  0  0  0  0  0  0  0  0  0
    7.7234    5.7497    3.2965 C   0  0  0  0  0  0  0  0  0  0  0  0
    8.8411    6.0365    2.4992 C   0  0  0  0  0  0  0  0  0  0  0  0
    9.7761    7.0828    2.9427 C   0  0  0  0  0  0  0  0  0  0  0  0
    9.9856    7.3860    4.2064 N   0  0  0  0  0  0  0  0  0  0  0  0
   10.9532    8.3671    4.3132 C   0  0  0  0  0  0  0  0  0  0  0  0
   11.4631    8.8995    5.5154 C   0  0  0  0  0  0  0  0  0  0  0  0
   12.4477    9.8928    5.4714 C   0  0  0  0  0  0  0  0  0  0  0  0
   12.9204   10.3550    4.2476 C   0  0  0  0  0  0  0  0  0  0  0  0
   14.1277   11.5827    4.2136 Cl  0  0  0  0  0  0  0  0  0  0  0  0
   12.4347    9.8442    3.0410 C   0  0  0  0  0  0  0  0  0  0  0  0
   11.4499    8.8465    3.1013 C   0  0  0  0  0  0  0  0  0  0  0  0
   10.6715    8.0175    1.8116 S   0  0  0  0  0  0  0  0  0  0  0  0
    9.0557    5.2628    1.3484 C   0  0  0  0  0  0  0  0  0  0  0  0
    8.2034    4.1987    1.0521 C   0  0  0  0  0  0  0  0  0  0  0  0
    8.4528    3.4479   -0.0324 F   0  0  0  0  0  0  0  0  0  0  0  0
    6.6219    1.8583    3.8572 N   0  0  0  0  0  0  0  0  0  0  0  0
    6.1719    1.0645    4.8278 C   0  0  0  0  0  0  0  0  0  0  0  0
    5.1420    0.2172    4.7364 N   0  0  0  0  0  0  0  0  0  0  0  0
    4.5409    0.1348    3.5489 C   0  0  0  0  0  0  0  0  0  0  0  0
    3.4402   -0.7001    3.4101 C   0  0  0  0  0  0  0  0  0  0  0  0
    2.7582   -0.8338    2.1931 C   0  0  0  0  0  0  0  0  0  0  0  0
    1.7046   -1.7167    2.2549 O   0  0  0  0  0  0  0  0  0  0  0  0
    1.4023   -2.3850    1.0311 C   0  0  0  0  0  0  0  0  0  0  0  0
    0.8449   -3.7768    1.3168 C   0  0  0  0  0  0  0  0  0  0  0  0
    0.6609   -4.5035   -0.0198 C   0  0  0  0  0  0  0  0  0  0  0  0
    0.1131   -5.8609    0.0797 N   0  0  0  0  0  0  0  0  0  0  0  0
   -0.1128   -6.4022   -1.2788 C   0  0  0  0  0  0  0  0  0  0  0  0
   -0.6572   -7.8462   -1.2502 C   0  0  0  0  0  0  0  0  0  0  0  0
    0.1840   -8.8039   -0.5068 N   0  0  0  0  0  0  0  0  0  0  0  0
    1.4062   -9.1320   -1.2365 C   0  0  0  0  0  0  0  0  0  0  0  0
    0.4812   -8.2412    0.8261 C   0  0  0  0  0  0  0  0  0  0  0  0
    0.9928   -6.7780    0.8320 C   0  0  0  0  0  0  0  0  0  0  0  0
    3.3889    0.4219   -1.8003 H   0  0  0  0  0  0  0  0  0  0  0  0
    2.9715    1.7955   -0.7133 H   0  0  0  0  0  0  0  0  0  0  0  0
    1.7136    0.9782   -1.6186 H   0  0  0  0  0  0  0  0  0  0  0  0
    4.6828    1.2576    0.3428 H   0  0  0  0  0  0  0  0  0  0  0  0
    6.6667    2.2174    0.8050 H   0  0  0  0  0  0  0  0  0  0  0  0
    6.0258    4.4796    3.6348 H   0  0  0  0  0  0  0  0  0  0  0  0
    7.5242    6.3338    4.1943 H   0  0  0  0  0  0  0  0  0  0  0  0
   11.0901    8.5294    6.4660 H   0  0  0  0  0  0  0  0  0  0  0  0
   12.8375   10.2982    6.4020 H   0  0  0  0  0  0  0  0  0  0  0  0
   12.8043   10.2047    2.0866 H   0  0  0  0  0  0  0  0  0  0  0  0
    9.9061    5.4300    0.6957 H   0  0  0  0  0  0  0  0  0  0  0  0
    6.6835    1.1215    5.7822 H   0  0  0  0  0  0  0  0  0  0  0  0
    3.0927   -1.2570    4.2780 H   0  0  0  0  0  0  0  0  0  0  0  0
    2.3040   -2.5149    0.4221 H   0  0  0  0  0  0  0  0  0  0  0  0
    0.6548   -1.7987    0.4857 H   0  0  0  0  0  0  0  0  0  0  0  0
   -0.1033   -3.7025    1.8629 H   0  0  0  0  0  0  0  0  0  0  0  0
    1.5429   -4.3077    1.9739 H   0  0  0  0  0  0  0  0  0  0  0  0
    1.6195   -4.5234   -0.5558 H   0  0  0  0  0  0  0  0  0  0  0  0
   -0.0259   -3.8982   -0.6270 H   0  0  0  0  0  0  0  0  0  0  0  0
    0.8164   -6.3731   -1.8641 H   0  0  0  0  0  0  0  0  0  0  0  0
   -0.8406   -5.7742   -1.8070 H   0  0  0  0  0  0  0  0  0  0  0  0
   -0.8166   -8.2003   -2.2761 H   0  0  0  0  0  0  0  0  0  0  0  0
   -1.6522   -7.8336   -0.7856 H   0  0  0  0  0  0  0  0  0  0  0  0
    1.1643   -9.5367   -2.2258 H   0  0  0  0  0  0  0  0  0  0  0  0
    1.9615   -9.9151   -0.7086 H   0  0  0  0  0  0  0  0  0  0  0  0
    2.0757   -8.2772   -1.3749 H   0  0  0  0  0  0  0  0  0  0  0  0
    1.2001   -8.8805    1.3536 H   0  0  0  0  0  0  0  0  0  0  0  0
   -0.4414   -8.2845    1.4202 H   0  0  0  0  0  0  0  0  0  0  0  0
    2.0131   -6.7474    0.4284 H   0  0  0  0  0  0  0  0  0  0  0  0
    1.0478   -6.4621    1.8794 H   0  0  0  0  0  0  0  0  0  0  0  0
  1  2  1  0  0  0  0
  1 42  1  0  0  0  0
  1 43  1  0  0  0  0
  1 44  1  0  0  0  0
  2  3  1  0  0  0  0
  3  4  1  0  0  0  0
  3 30  2  0  0  0  0
  4  5  2  0  0  0  0
  4 45  1  0  0  0  0
  5  6  1  0  0  0  0
  5 28  1  0  0  0  0
  6  7  1  0  0  0  0
  6 25  2  0  0  0  0
  7  8  1  0  0  0  0
  7 46  1  0  0  0  0
  8  9  1  0  0  0  0
  8 23  2  0  0  0  0
  9 10  2  0  0  0  0
  9 47  1  0  0  0  0
 10 11  1  0  0  0  0
 10 48  1  0  0  0  0
 11 12  1  0  0  0  0
 11 22  2  0  0  0  0
 12 13  2  0  0  0  0
 12 21  1  0  0  0  0
 13 14  1  0  0  0  0
 14 15  1  0  0  0  0
 14 20  2  0  0  0  0
 15 16  2  0  0  0  0
 15 49  1  0  0  0  0
 16 17  1  0  0  0  0
 16 50  1  0  0  0  0
 17 18  1  0  0  0  0
 17 19  2  0  0  0  0
 19 20  1  0  0  0  0
 19 51  1  0  0  0  0
 20 21  1  0  0  0  0
 22 23  1  0  0  0  0
 22 52  1  0  0  0  0
 23 24  1  0  0  0  0
 25 26  1  0  0  0  0
 26 27  2  0  0  0  0
 26 53  1  0  0  0  0
 27 28  1  0  0  0  0
 28 29  2  0  0  0  0
 29 30  1  0  0  0  0
 29 54  1  0  0  0  0
 30 31  1  0  0  0  0
 31 32  1  0  0  0  0
 32 33  1  0  0  0  0
 32 55  1  0  0  0  0
 32 56  1  0  0  0  0
 33 34  1  0  0  0  0
 33 57  1  0  0  0  0
 33 58  1  0  0  0  0
 34 35  1  0  0  0  0
 34 59  1  0  0  0  0
 34 60  1  0  0  0  0
 35 36  1  0  0  0  0
 35 41  1  0  0  0  0
 36 37  1  0  0  0  0
 36 61  1  0  0  0  0
 36 62  1  0  0  0  0
 37 38  1  0  0  0  0
 37 63  1  0  0  0  0
 37 64  1  0  0  0  0
 38 39  1  0  0  0  0
 38 40  1  0  0  0  0
 39 65  1  0  0  0  0
 39 66  1  0  0  0  0
 39 67  1  0  0  0  0
 40 41  1  0  0  0  0
 40 68  1  0  0  0  0
 40 69  1  0  0  0  0
 41 70  1  0  0  0  0
 41 71  1  0  0  0  0
M  END
$$$$
