CHEMBL3397920
 OpenBabel04072215363D

 61 64  0  0  0  0  0  0  0  0999 V2000
    1.0437   -0.1767   -0.3473 C   0  0  0  0  0  0  0  0  0  0  0  0
    2.3673   -0.0803    0.1477 O   0  0  0  0  0  0  0  0  0  0  0  0
    3.0114    1.1264    0.0445 C   0  0  0  0  0  0  0  0  0  0  0  0
    2.4331    2.2986   -0.4267 C   0  0  0  0  0  0  0  0  0  0  0  0
    3.2016    3.4579   -0.5226 C   0  0  0  0  0  0  0  0  0  0  0  0
    4.5650    3.4536   -0.1601 C   0  0  0  0  0  0  0  0  0  0  0  0
    5.3149    4.6925   -0.5105 C   0  0  0  0  0  0  0  0  0  0  0  0
    6.3034    4.5918   -1.2289 O   0  0  0  0  0  0  0  0  0  0  0  0
    4.8296    5.8721    0.0476 N   0  0  0  0  0  0  0  0  0  0  0  0
    5.4394    7.1336   -0.1525 C   0  0  0  0  0  0  0  0  0  0  0  0
    5.3576    8.0896    0.8642 C   0  0  0  0  0  0  0  0  0  0  0  0
    6.0573    9.3031    0.7679 C   0  0  0  0  0  0  0  0  0  0  0  0
    6.8031    9.5825   -0.3769 C   0  0  0  0  0  0  0  0  0  0  0  0
    7.5587   10.7127   -0.5631 O   0  0  0  0  0  0  0  0  0  0  0  0
    8.1023   11.2948    0.6247 C   0  0  0  0  0  0  0  0  0  0  0  0
    9.3519   12.1121    0.2474 C   0  0  0  0  0  0  0  0  0  0  0  0
   10.0674   12.6953    1.4036 N   0  0  0  0  0  0  0  0  0  0  0  0
    9.2681   13.6776    2.1512 C   0  0  0  0  0  0  0  0  0  0  0  0
    9.4326   14.9695    1.3796 C   0  0  0  0  0  0  0  0  0  0  0  0
   10.9009   14.9340    1.0002 C   0  0  0  0  0  0  0  0  0  0  0  0
   11.2571   13.4479    0.9486 C   0  0  0  0  0  0  0  0  0  0  0  0
    6.7815    8.6791   -1.4344 C   0  0  0  0  0  0  0  0  0  0  0  0
    7.4228    8.9635   -2.5795 F   0  0  0  0  0  0  0  0  0  0  0  0
    6.1207    7.4582   -1.3245 C   0  0  0  0  0  0  0  0  0  0  0  0
    5.1959    2.2883    0.3592 C   0  0  0  0  0  0  0  0  0  0  0  0
    6.6359    2.2551    0.7697 C   0  0  0  0  0  0  0  0  0  0  0  0
    7.2339    3.3018    1.4991 C   0  0  0  0  0  0  0  0  0  0  0  0
    8.5851    3.2653    1.8717 C   0  0  0  0  0  0  0  0  0  0  0  0
    9.3608    2.1460    1.5905 C   0  0  0  0  0  0  0  0  0  0  0  0
    8.7838    1.0869    0.9069 C   0  0  0  0  0  0  0  0  0  0  0  0
    9.4798   -0.0598    0.6579 O   0  0  0  0  0  0  0  0  0  0  0  0
    7.4620    1.1531    0.4649 C   0  0  0  0  0  0  0  0  0  0  0  0
    4.3600    1.1420    0.4689 C   0  0  0  0  0  0  0  0  0  0  0  0
    4.8104   -0.0436    1.0130 O   0  0  0  0  0  0  0  0  0  0  0  0
    0.7269   -1.2207   -0.2718 H   0  0  0  0  0  0  0  0  0  0  0  0
    0.9811    0.1128   -1.4038 H   0  0  0  0  0  0  0  0  0  0  0  0
    0.3595    0.4240    0.2627 H   0  0  0  0  0  0  0  0  0  0  0  0
    1.3956    2.3399   -0.7443 H   0  0  0  0  0  0  0  0  0  0  0  0
    2.7464    4.3554   -0.9349 H   0  0  0  0  0  0  0  0  0  0  0  0
    4.1569    5.7946    0.8011 H   0  0  0  0  0  0  0  0  0  0  0  0
    4.8173    7.8763    1.7843 H   0  0  0  0  0  0  0  0  0  0  0  0
    6.0125   10.0011    1.5950 H   0  0  0  0  0  0  0  0  0  0  0  0
    8.3925   10.5252    1.3504 H   0  0  0  0  0  0  0  0  0  0  0  0
    7.3337   11.9418    1.0581 H   0  0  0  0  0  0  0  0  0  0  0  0
    9.0807   12.8717   -0.4961 H   0  0  0  0  0  0  0  0  0  0  0  0
   10.0369   11.4270   -0.2729 H   0  0  0  0  0  0  0  0  0  0  0  0
    9.7027   13.7856    3.1537 H   0  0  0  0  0  0  0  0  0  0  0  0
    8.2217   13.4023    2.2985 H   0  0  0  0  0  0  0  0  0  0  0  0
    9.1735   15.8502    1.9720 H   0  0  0  0  0  0  0  0  0  0  0  0
    8.8063   14.9687    0.4793 H   0  0  0  0  0  0  0  0  0  0  0  0
   11.4944   15.4324    1.7758 H   0  0  0  0  0  0  0  0  0  0  0  0
   11.0838   15.4430    0.0497 H   0  0  0  0  0  0  0  0  0  0  0  0
   12.0893   13.2487    1.6343 H   0  0  0  0  0  0  0  0  0  0  0  0
   11.5992   13.1551   -0.0510 H   0  0  0  0  0  0  0  0  0  0  0  0
    6.1515    6.7835   -2.1737 H   0  0  0  0  0  0  0  0  0  0  0  0
    6.6647    4.1869    1.7701 H   0  0  0  0  0  0  0  0  0  0  0  0
    9.0268    4.1174    2.3815 H   0  0  0  0  0  0  0  0  0  0  0  0
   10.4004    2.1220    1.9014 H   0  0  0  0  0  0  0  0  0  0  0  0
   10.3600    0.0162    1.0620 H   0  0  0  0  0  0  0  0  0  0  0  0
    7.0790    0.3154   -0.1168 H   0  0  0  0  0  0  0  0  0  0  0  0
    5.5814    0.1309    1.5746 H   0  0  0  0  0  0  0  0  0  0  0  0
  1  2  1  0  0  0  0
  1 35  1  0  0  0  0
  1 36  1  0  0  0  0
  1 37  1  0  0  0  0
  2  3  1  0  0  0  0
  3  4  1  0  0  0  0
  3 33  2  0  0  0  0
  4  5  2  0  0  0  0
  4 38  1  0  0  0  0
  5  6  1  0  0  0  0
  5 39  1  0  0  0  0
  6  7  1  0  0  0  0
  6 25  2  0  0  0  0
  7  8  2  0  0  0  0
  7  9  1  0  0  0  0
  9 10  1  0  0  0  0
  9 40  1  0  0  0  0
 10 11  1  0  0  0  0
 10 24  2  0  0  0  0
 11 12  2  0  0  0  0
 11 41  1  0  0  0  0
 12 13  1  0  0  0  0
 12 42  1  0  0  0  0
 13 14  1  0  0  0  0
 13 22  2  0  0  0  0
 14 15  1  0  0  0  0
 15 16  1  0  0  0  0
 15 43  1  0  0  0  0
 15 44  1  0  0  0  0
 16 17  1  0  0  0  0
 16 45  1  0  0  0  0
 16 46  1  0  0  0  0
 17 18  1  0  0  0  0
 17 21  1  0  0  0  0
 18 19  1  0  0  0  0
 18 47  1  0  0  0  0
 18 48  1  0  0  0  0
 19 20  1  0  0  0  0
 19 49  1  0  0  0  0
 19 50  1  0  0  0  0
 20 21  1  0  0  0  0
 20 51  1  0  0  0  0
 20 52  1  0  0  0  0
 21 53  1  0  0  0  0
 21 54  1  0  0  0  0
 22 23  1  0  0  0  0
 22 24  1  0  0  0  0
 24 55  1  0  0  0  0
 25 26  1  0  0  0  0
 25 33  1  0  0  0  0
 26 27  1  0  0  0  0
 26 32  2  0  0  0  0
 27 28  2  0  0  0  0
 27 56  1  0  0  0  0
 28 29  1  0  0  0  0
 28 57  1  0  0  0  0
 29 30  2  0  0  0  0
 29 58  1  0  0  0  0
 30 31  1  0  0  0  0
 30 32  1  0  0  0  0
 31 59  1  0  0  0  0
 32 60  1  0  0  0  0
 33 34  1  0  0  0  0
 34 61  1  0  0  0  0
M  END
$$$$
