CHEMBL413621
 OpenBabel04072215383D

 64 68  0  0  0  0  0  0  0  0999 V2000
    7.8498    8.9887    5.8831 C   0  0  0  0  0  0  0  0  0  0  0  0
    7.4855    7.6128    5.6842 N   0  0  0  0  0  0  0  0  0  0  0  0
    7.6091    7.0081    4.4519 C   0  0  0  0  0  0  0  0  0  0  0  0
    8.0394    7.5809    3.4567 O   0  0  0  0  0  0  0  0  0  0  0  0
    7.1729    5.5752    4.4005 C   0  0  0  0  0  0  0  0  0  0  0  0
    7.3031    4.8751    3.2110 C   0  0  0  0  0  0  0  0  0  0  0  0
    6.8081    3.5746    3.1606 C   0  0  0  0  0  0  0  0  0  0  0  0
    6.8280    2.7878    2.0263 O   0  0  0  0  0  0  0  0  0  0  0  0
    6.6221    3.3917    0.8008 C   0  0  0  0  0  0  0  0  0  0  0  0
    7.3216    2.8624   -0.2909 C   0  0  0  0  0  0  0  0  0  0  0  0
    7.2374    3.4415   -1.5681 C   0  0  0  0  0  0  0  0  0  0  0  0
    6.4301    4.5753   -1.6831 C   0  0  0  0  0  0  0  0  0  0  0  0
    6.1535    5.4370   -2.7179 N   0  0  0  0  0  0  0  0  0  0  0  0
    5.2900    6.4059   -2.2608 C   0  0  0  0  0  0  0  0  0  0  0  0
    4.9034    7.4205   -3.0673 N   0  0  0  0  0  0  0  0  0  0  0  0
    4.0468    8.4752   -2.6699 C   0  0  0  0  0  0  0  0  0  0  0  0
    4.1853    9.7340   -3.2616 C   0  0  0  0  0  0  0  0  0  0  0  0
    3.4223   10.8191   -2.8166 C   0  0  0  0  0  0  0  0  0  0  0  0
    2.4976   10.6636   -1.7811 C   0  0  0  0  0  0  0  0  0  0  0  0
    1.6301   12.0654   -1.2679 Cl  0  0  0  0  0  0  0  0  0  0  0  0
    2.2988    9.4043   -1.2021 C   0  0  0  0  0  0  0  0  0  0  0  0
    1.2271    9.1240   -0.1700 C   0  0  0  0  0  0  0  0  0  0  0  0
   -0.1220    9.3746   -0.6845 N   0  0  0  0  0  0  0  0  0  0  0  0
   -0.4753    8.5396   -1.8437 C   0  0  0  0  0  0  0  0  0  0  0  0
   -1.8665    8.9264   -2.3932 C   0  0  0  0  0  0  0  0  0  0  0  0
   -2.9614    8.8604   -1.4050 N   0  0  0  0  0  0  0  0  0  0  0  0
   -3.3204    7.4782   -1.1026 C   0  0  0  0  0  0  0  0  0  0  0  0
   -2.5559    9.5984   -0.1884 C   0  0  0  0  0  0  0  0  0  0  0  0
   -1.1488    9.2497    0.3594 C   0  0  0  0  0  0  0  0  0  0  0  0
    3.0884    8.3294   -1.6512 C   0  0  0  0  0  0  0  0  0  0  0  0
    4.9800    6.1813   -1.0047 N   0  0  0  0  0  0  0  0  0  0  0  0
    5.6848    5.0780   -0.6267 C   0  0  0  0  0  0  0  0  0  0  0  0
    5.7387    4.4622    0.6257 C   0  0  0  0  0  0  0  0  0  0  0  0
    6.2881    2.9948    4.3133 C   0  0  0  0  0  0  0  0  0  0  0  0
    6.2279    3.7633    5.4657 C   0  0  0  0  0  0  0  0  0  0  0  0
    6.6451    5.0467    5.5411 N   0  0  0  0  0  0  0  0  0  0  0  0
    7.7160    9.2448    6.9360 H   0  0  0  0  0  0  0  0  0  0  0  0
    7.2154    9.6235    5.2581 H   0  0  0  0  0  0  0  0  0  0  0  0
    8.8945    9.1306    5.5920 H   0  0  0  0  0  0  0  0  0  0  0  0
    7.0973    7.0526    6.4381 H   0  0  0  0  0  0  0  0  0  0  0  0
    7.7495    5.3552    2.3467 H   0  0  0  0  0  0  0  0  0  0  0  0
    7.9600    1.9933   -0.1443 H   0  0  0  0  0  0  0  0  0  0  0  0
    7.7942    3.0391   -2.4073 H   0  0  0  0  0  0  0  0  0  0  0  0
    6.5338    5.3862   -3.6485 H   0  0  0  0  0  0  0  0  0  0  0  0
    5.3646    7.5839   -3.9522 H   0  0  0  0  0  0  0  0  0  0  0  0
    4.9099    9.8988   -4.0533 H   0  0  0  0  0  0  0  0  0  0  0  0
    3.5577   11.7931   -3.2795 H   0  0  0  0  0  0  0  0  0  0  0  0
    1.4303    9.7631    0.7001 H   0  0  0  0  0  0  0  0  0  0  0  0
    1.3053    8.0899    0.1953 H   0  0  0  0  0  0  0  0  0  0  0  0
   -0.4493    7.4747   -1.5800 H   0  0  0  0  0  0  0  0  0  0  0  0
    0.2392    8.6845   -2.6613 H   0  0  0  0  0  0  0  0  0  0  0  0
   -2.1030    8.3052   -3.2656 H   0  0  0  0  0  0  0  0  0  0  0  0
   -1.8144    9.9561   -2.7739 H   0  0  0  0  0  0  0  0  0  0  0  0
   -3.6239    6.9562   -2.0173 H   0  0  0  0  0  0  0  0  0  0  0  0
   -4.1827    7.4506   -0.4285 H   0  0  0  0  0  0  0  0  0  0  0  0
   -2.5090    6.9079   -0.6404 H   0  0  0  0  0  0  0  0  0  0  0  0
   -3.3037    9.4629    0.6022 H   0  0  0  0  0  0  0  0  0  0  0  0
   -2.5735   10.6702   -0.4286 H   0  0  0  0  0  0  0  0  0  0  0  0
   -1.1544    8.2360    0.7801 H   0  0  0  0  0  0  0  0  0  0  0  0
   -0.9263    9.9398    1.1830 H   0  0  0  0  0  0  0  0  0  0  0  0
    2.9429    7.3529   -1.1956 H   0  0  0  0  0  0  0  0  0  0  0  0
    5.1413    4.8666    1.4333 H   0  0  0  0  0  0  0  0  0  0  0  0
    5.9269    1.9722    4.3094 H   0  0  0  0  0  0  0  0  0  0  0  0
    5.8211    3.3518    6.3860 H   0  0  0  0  0  0  0  0  0  0  0  0
  1  2  1  0  0  0  0
  1 37  1  0  0  0  0
  1 38  1  0  0  0  0
  1 39  1  0  0  0  0
  2  3  1  0  0  0  0
  2 40  1  0  0  0  0
  3  4  2  0  0  0  0
  3  5  1  0  0  0  0
  5  6  1  0  0  0  0
  5 36  2  0  0  0  0
  6  7  2  0  0  0  0
  6 41  1  0  0  0  0
  7  8  1  0  0  0  0
  7 34  1  0  0  0  0
  8  9  1  0  0  0  0
  9 10  1  0  0  0  0
  9 33  2  0  0  0  0
 10 11  2  0  0  0  0
 10 42  1  0  0  0  0
 11 12  1  0  0  0  0
 11 43  1  0  0  0  0
 12 13  1  0  0  0  0
 12 32  2  0  0  0  0
 13 14  1  0  0  0  0
 13 44  1  0  0  0  0
 14 15  1  0  0  0  0
 14 31  2  0  0  0  0
 15 16  1  0  0  0  0
 15 45  1  0  0  0  0
 16 17  1  0  0  0  0
 16 30  2  0  0  0  0
 17 18  2  0  0  0  0
 17 46  1  0  0  0  0
 18 19  1  0  0  0  0
 18 47  1  0  0  0  0
 19 20  1  0  0  0  0
 19 21  2  0  0  0  0
 21 22  1  0  0  0  0
 21 30  1  0  0  0  0
 22 23  1  0  0  0  0
 22 48  1  0  0  0  0
 22 49  1  0  0  0  0
 23 24  1  0  0  0  0
 23 29  1  0  0  0  0
 24 25  1  0  0  0  0
 24 50  1  0  0  0  0
 24 51  1  0  0  0  0
 25 26  1  0  0  0  0
 25 52  1  0  0  0  0
 25 53  1  0  0  0  0
 26 27  1  0  0  0  0
 26 28  1  0  0  0  0
 27 54  1  0  0  0  0
 27 55  1  0  0  0  0
 27 56  1  0  0  0  0
 28 29  1  0  0  0  0
 28 57  1  0  0  0  0
 28 58  1  0  0  0  0
 29 59  1  0  0  0  0
 29 60  1  0  0  0  0
 30 61  1  0  0  0  0
 31 32  1  0  0  0  0
 32 33  1  0  0  0  0
 33 62  1  0  0  0  0
 34 35  2  0  0  0  0
 34 63  1  0  0  0  0
 35 36  1  0  0  0  0
 35 64  1  0  0  0  0
M  END
$$$$
