CHEMBL297675
 OpenBabel04072215363D

 43 46  0  0  0  0  0  0  0  0999 V2000
    3.7709    5.0672    0.2019 C   0  0  0  0  0  0  0  0  0  0  0  0
    4.0633    3.6986    0.4651 O   0  0  0  0  0  0  0  0  0  0  0  0
    5.1635    3.4507    1.2426 C   0  0  0  0  0  0  0  0  0  0  0  0
    6.0342    4.4212    1.7376 C   0  0  0  0  0  0  0  0  0  0  0  0
    7.1110    4.0470    2.5334 C   0  0  0  0  0  0  0  0  0  0  0  0
    7.3121    2.7042    2.8438 C   0  0  0  0  0  0  0  0  0  0  0  0
    6.4569    1.7047    2.3658 C   0  0  0  0  0  0  0  0  0  0  0  0
    6.5785    0.3614    2.7565 N   0  0  0  0  0  0  0  0  0  0  0  0
    7.3006   -0.2167    3.7978 C   0  0  0  0  0  0  0  0  0  0  0  0
    7.7594    0.5254    4.8163 N   0  0  0  0  0  0  0  0  0  0  0  0
    8.4599   -0.0855    5.7842 C   0  0  0  0  0  0  0  0  0  0  0  0
    8.7334   -1.4265    5.7838 C   0  0  0  0  0  0  0  0  0  0  0  0
    8.2654   -2.1138    4.6850 C   0  0  0  0  0  0  0  0  0  0  0  0
    8.6669   -3.4664    4.5037 N   0  0  0  0  0  0  0  0  0  0  0  0
    8.8747   -4.3843    5.5140 C   0  0  0  0  0  0  0  0  0  0  0  0
    9.1100   -5.5804    4.8870 C   0  0  0  0  0  0  0  0  0  0  0  0
    9.1416   -5.4159    3.5365 N   0  0  0  0  0  0  0  0  0  0  0  0
    8.9443   -4.1248    3.3017 C   0  0  0  0  0  0  0  0  0  0  0  0
    9.1067   -3.5052    1.9703 C   0  0  0  0  0  0  0  0  0  0  0  0
    8.8132   -4.2517    0.8211 C   0  0  0  0  0  0  0  0  0  0  0  0
    8.9478   -3.6913   -0.4540 C   0  0  0  0  0  0  0  0  0  0  0  0
    9.3678   -2.3715   -0.5990 C   0  0  0  0  0  0  0  0  0  0  0  0
    9.6972   -1.6252    0.5264 C   0  0  0  0  0  0  0  0  0  0  0  0
    9.6039   -2.2032    1.7939 C   0  0  0  0  0  0  0  0  0  0  0  0
    7.5216   -1.5338    3.7140 N   0  0  0  0  0  0  0  0  0  0  0  0
    5.3831    2.1007    1.5548 C   0  0  0  0  0  0  0  0  0  0  0  0
    2.8385    5.1103   -0.3680 H   0  0  0  0  0  0  0  0  0  0  0  0
    4.5579    5.5237   -0.4078 H   0  0  0  0  0  0  0  0  0  0  0  0
    3.6168    5.6275    1.1307 H   0  0  0  0  0  0  0  0  0  0  0  0
    5.9028    5.4769    1.5302 H   0  0  0  0  0  0  0  0  0  0  0  0
    7.7910    4.7967    2.9281 H   0  0  0  0  0  0  0  0  0  0  0  0
    8.1653    2.4528    3.4658 H   0  0  0  0  0  0  0  0  0  0  0  0
    6.2510   -0.3398    2.1064 H   0  0  0  0  0  0  0  0  0  0  0  0
    8.8335    0.5710    6.5641 H   0  0  0  0  0  0  0  0  0  0  0  0
    9.3554   -1.8610    6.5534 H   0  0  0  0  0  0  0  0  0  0  0  0
    8.7600   -4.1409    6.5602 H   0  0  0  0  0  0  0  0  0  0  0  0
    9.2587   -6.5509    5.3423 H   0  0  0  0  0  0  0  0  0  0  0  0
    8.4807   -5.2839    0.9165 H   0  0  0  0  0  0  0  0  0  0  0  0
    8.7213   -4.2876   -1.3335 H   0  0  0  0  0  0  0  0  0  0  0  0
    9.4513   -1.9268   -1.5869 H   0  0  0  0  0  0  0  0  0  0  0  0
   10.0269   -0.5943    0.4268 H   0  0  0  0  0  0  0  0  0  0  0  0
    9.9126   -1.5997    2.6421 H   0  0  0  0  0  0  0  0  0  0  0  0
    4.6821    1.3578    1.1787 H   0  0  0  0  0  0  0  0  0  0  0  0
  1  2  1  0  0  0  0
  1 27  1  0  0  0  0
  1 28  1  0  0  0  0
  1 29  1  0  0  0  0
  2  3  1  0  0  0  0
  3  4  1  0  0  0  0
  3 26  2  0  0  0  0
  4  5  2  0  0  0  0
  4 30  1  0  0  0  0
  5  6  1  0  0  0  0
  5 31  1  0  0  0  0
  6  7  2  0  0  0  0
  6 32  1  0  0  0  0
  7  8  1  0  0  0  0
  7 26  1  0  0  0  0
  8  9  1  0  0  0  0
  8 33  1  0  0  0  0
  9 10  1  0  0  0  0
  9 25  2  0  0  0  0
 10 11  2  0  0  0  0
 11 12  1  0  0  0  0
 11 34  1  0  0  0  0
 12 13  2  0  0  0  0
 12 35  1  0  0  0  0
 13 14  1  0  0  0  0
 13 25  1  0  0  0  0
 14 15  1  0  0  0  0
 14 18  1  0  0  0  0
 15 16  2  0  0  0  0
 15 36  1  0  0  0  0
 16 17  1  0  0  0  0
 16 37  1  0  0  0  0
 17 18  2  0  0  0  0
 18 19  1  0  0  0  0
 19 20  1  0  0  0  0
 19 24  2  0  0  0  0
 20 21  2  0  0  0  0
 20 38  1  0  0  0  0
 21 22  1  0  0  0  0
 21 39  1  0  0  0  0
 22 23  2  0  0  0  0
 22 40  1  0  0  0  0
 23 24  1  0  0  0  0
 23 41  1  0  0  0  0
 24 42  1  0  0  0  0
 26 43  1  0  0  0  0
M  END
$$$$
