CHEMBL272250
 OpenBabel04072215363D

 53 57  0  0  0  0  0  0  0  0999 V2000
   10.4531    3.9373    0.0517 C   0  0  0  0  0  0  0  0  0  0  0  0
   10.3768    4.1914    1.4572 O   0  0  0  0  0  0  0  0  0  0  0  0
    9.1823    3.8798    2.0655 C   0  0  0  0  0  0  0  0  0  0  0  0
    8.3751    2.8432    1.5949 C   0  0  0  0  0  0  0  0  0  0  0  0
    7.1467    2.5439    2.1489 C   0  0  0  0  0  0  0  0  0  0  0  0
    6.4282    1.6252    1.4978 N   0  0  0  0  0  0  0  0  0  0  0  0
    5.1772    1.3890    1.9132 C   0  0  0  0  0  0  0  0  0  0  0  0
    4.6234    1.9962    3.0148 C   0  0  0  0  0  0  0  0  0  0  0  0
    5.4203    2.8425    3.7924 C   0  0  0  0  0  0  0  0  0  0  0  0
    4.9644    3.3488    5.0098 O   0  0  0  0  0  0  0  0  0  0  0  0
    3.9552    2.6460    5.6552 C   0  0  0  0  0  0  0  0  0  0  0  0
    3.9919    1.2623    5.8138 C   0  0  0  0  0  0  0  0  0  0  0  0
    2.8456    0.5737    6.2279 C   0  0  0  0  0  0  0  0  0  0  0  0
    1.6498    1.2409    6.5874 C   0  0  0  0  0  0  0  0  0  0  0  0
    0.4167    0.5912    6.9353 C   0  0  0  0  0  0  0  0  0  0  0  0
    0.2250   -0.8835    6.7300 C   0  0  0  0  0  0  0  0  0  0  0  0
    0.8091   -1.4572    5.8126 O   0  0  0  0  0  0  0  0  0  0  0  0
   -0.6539   -1.5514    7.5767 N   0  0  0  0  0  0  0  0  0  0  0  0
   -0.9312   -2.9479    7.3741 C   0  0  0  0  0  0  0  0  0  0  0  0
   -2.1416   -3.3425    6.5702 C   0  0  0  0  0  0  0  0  0  0  0  0
   -2.0673   -3.6830    8.0285 C   0  0  0  0  0  0  0  0  0  0  0  0
   -0.6891    1.3501    7.3434 C   0  0  0  0  0  0  0  0  0  0  0  0
   -0.6042    2.7374    7.4098 C   0  0  0  0  0  0  0  0  0  0  0  0
    0.5693    3.3840    7.0217 C   0  0  0  0  0  0  0  0  0  0  0  0
    1.6944    2.6628    6.5851 C   0  0  0  0  0  0  0  0  0  0  0  0
    2.8382    3.3455    6.1124 C   0  0  0  0  0  0  0  0  0  0  0  0
    6.7075    3.2175    3.3089 C   0  0  0  0  0  0  0  0  0  0  0  0
    7.5568    4.2224    3.8440 C   0  0  0  0  0  0  0  0  0  0  0  0
    8.7678    4.5921    3.2039 C   0  0  0  0  0  0  0  0  0  0  0  0
    9.4747    5.8028    3.7343 C   0  0  0  0  0  0  0  0  0  0  0  0
   10.6226    6.2135    3.1163 N   0  0  0  0  0  0  0  0  0  0  0  0
    9.0241    6.4480    4.6739 O   0  0  0  0  0  0  0  0  0  0  0  0
   11.4280    4.2868   -0.3013 H   0  0  0  0  0  0  0  0  0  0  0  0
    9.6776    4.4953   -0.4843 H   0  0  0  0  0  0  0  0  0  0  0  0
   10.4015    2.8691   -0.1805 H   0  0  0  0  0  0  0  0  0  0  0  0
    8.6711    2.2382    0.7437 H   0  0  0  0  0  0  0  0  0  0  0  0
    4.6128    0.6736    1.3247 H   0  0  0  0  0  0  0  0  0  0  0  0
    3.5925    1.7696    3.2646 H   0  0  0  0  0  0  0  0  0  0  0  0
    4.8728    0.6939    5.5260 H   0  0  0  0  0  0  0  0  0  0  0  0
    2.8977   -0.5135    6.2345 H   0  0  0  0  0  0  0  0  0  0  0  0
   -1.0848   -1.0802    8.3569 H   0  0  0  0  0  0  0  0  0  0  0  0
   -0.0247   -3.5337    7.2212 H   0  0  0  0  0  0  0  0  0  0  0  0
   -2.0066   -4.1280    5.8358 H   0  0  0  0  0  0  0  0  0  0  0  0
   -2.8397   -2.5708    6.2684 H   0  0  0  0  0  0  0  0  0  0  0  0
   -1.9189   -4.7285    8.2799 H   0  0  0  0  0  0  0  0  0  0  0  0
   -2.7277   -3.1581    8.7067 H   0  0  0  0  0  0  0  0  0  0  0  0
   -1.6465    0.8828    7.5667 H   0  0  0  0  0  0  0  0  0  0  0  0
   -1.4650    3.3231    7.7247 H   0  0  0  0  0  0  0  0  0  0  0  0
    0.5942    4.4725    7.0466 H   0  0  0  0  0  0  0  0  0  0  0  0
    2.8393    4.4322    6.0497 H   0  0  0  0  0  0  0  0  0  0  0  0
    7.2394    4.7723    4.7315 H   0  0  0  0  0  0  0  0  0  0  0  0
   11.0158    5.7069    2.3321 H   0  0  0  0  0  0  0  0  0  0  0  0
   11.0587    7.0704    3.4238 H   0  0  0  0  0  0  0  0  0  0  0  0
  1  2  1  0  0  0  0
  1 33  1  0  0  0  0
  1 34  1  0  0  0  0
  1 35  1  0  0  0  0
  2  3  1  0  0  0  0
  3  4  1  0  0  0  0
  3 29  2  0  0  0  0
  4  5  2  0  0  0  0
  4 36  1  0  0  0  0
  5  6  1  0  0  0  0
  5 27  1  0  0  0  0
  6  7  2  0  0  0  0
  7  8  1  0  0  0  0
  7 37  1  0  0  0  0
  8  9  2  0  0  0  0
  8 38  1  0  0  0  0
  9 10  1  0  0  0  0
  9 27  1  0  0  0  0
 10 11  1  0  0  0  0
 11 12  1  0  0  0  0
 11 26  2  0  0  0  0
 12 13  2  0  0  0  0
 12 39  1  0  0  0  0
 13 14  1  0  0  0  0
 13 40  1  0  0  0  0
 14 15  1  0  0  0  0
 14 25  2  0  0  0  0
 15 16  1  0  0  0  0
 15 22  2  0  0  0  0
 16 17  2  0  0  0  0
 16 18  1  0  0  0  0
 18 19  1  0  0  0  0
 18 41  1  0  0  0  0
 19 20  1  0  0  0  0
 19 21  1  0  0  0  0
 19 42  1  0  0  0  0
 20 21  1  0  0  0  0
 20 43  1  0  0  0  0
 20 44  1  0  0  0  0
 21 45  1  0  0  0  0
 21 46  1  0  0  0  0
 22 23  1  0  0  0  0
 22 47  1  0  0  0  0
 23 24  2  0  0  0  0
 23 48  1  0  0  0  0
 24 25  1  0  0  0  0
 24 49  1  0  0  0  0
 25 26  1  0  0  0  0
 26 50  1  0  0  0  0
 27 28  2  0  0  0  0
 28 29  1  0  0  0  0
 28 51  1  0  0  0  0
 29 30  1  0  0  0  0
 30 31  1  0  0  0  0
 30 32  2  0  0  0  0
 31 52  1  0  0  0  0
 31 53  1  0  0  0  0
M  END
$$$$
