CHEMBL464210
 OpenBabel04072215383D

 42 45  0  0  0  0  0  0  0  0999 V2000
   11.2856   -2.9194   -3.4936 C   0  0  0  0  0  0  0  0  0  0  0  0
   10.2240   -1.9706   -3.2929 N   0  0  0  0  0  0  0  0  0  0  0  0
   10.0529   -1.3048   -2.0962 C   0  0  0  0  0  0  0  0  0  0  0  0
   10.7990   -1.4344   -1.1317 O   0  0  0  0  0  0  0  0  0  0  0  0
    8.8584   -0.3977   -2.0464 C   0  0  0  0  0  0  0  0  0  0  0  0
    8.6044    0.3489   -0.8991 C   0  0  0  0  0  0  0  0  0  0  0  0
    7.4874    1.1846   -0.8787 C   0  0  0  0  0  0  0  0  0  0  0  0
    7.2039    1.9483    0.2794 N   0  0  0  0  0  0  0  0  0  0  0  0
    6.5248    3.1842    0.3592 C   0  0  0  0  0  0  0  0  0  0  0  0
    5.7130    3.5019    1.4546 C   0  0  0  0  0  0  0  0  0  0  0  0
    5.0186    4.7316    1.5187 C   0  0  0  0  0  0  0  0  0  0  0  0
    5.1325    5.6857    0.4933 C   0  0  0  0  0  0  0  0  0  0  0  0
    4.3847    6.9716    0.5486 C   0  0  0  0  0  0  0  0  0  0  0  0
    3.6146    7.3822    1.5416 N   0  0  0  0  0  0  0  0  0  0  0  0
    3.0646    8.6353    1.2497 C   0  0  0  0  0  0  0  0  0  0  0  0
    2.1970    9.3950    2.0654 C   0  0  0  0  0  0  0  0  0  0  0  0
    1.7277   10.6420    1.6209 C   0  0  0  0  0  0  0  0  0  0  0  0
    2.1107   11.1429    0.3813 C   0  0  0  0  0  0  0  0  0  0  0  0
    2.9694   10.4142   -0.4403 C   0  0  0  0  0  0  0  0  0  0  0  0
    3.4279    9.1673    0.0149 C   0  0  0  0  0  0  0  0  0  0  0  0
    4.4694    8.0738   -0.7820 S   0  0  0  0  0  0  0  0  0  0  0  0
    5.9836    5.3652   -0.5754 C   0  0  0  0  0  0  0  0  0  0  0  0
    6.6681    4.1462   -0.6390 C   0  0  0  0  0  0  0  0  0  0  0  0
    6.6652    1.2101   -2.0081 C   0  0  0  0  0  0  0  0  0  0  0  0
    6.9920    0.4257   -3.1047 C   0  0  0  0  0  0  0  0  0  0  0  0
    8.0726   -0.3780   -3.1595 N   0  0  0  0  0  0  0  0  0  0  0  0
   11.2166   -3.3222   -4.5068 H   0  0  0  0  0  0  0  0  0  0  0  0
   11.1893   -3.7278   -2.7635 H   0  0  0  0  0  0  0  0  0  0  0  0
   12.2485   -2.4209   -3.3532 H   0  0  0  0  0  0  0  0  0  0  0  0
    9.5326   -1.7954   -4.0170 H   0  0  0  0  0  0  0  0  0  0  0  0
    9.2813    0.2938   -0.0526 H   0  0  0  0  0  0  0  0  0  0  0  0
    7.0686    1.3558    1.0942 H   0  0  0  0  0  0  0  0  0  0  0  0
    5.5961    2.7952    2.2734 H   0  0  0  0  0  0  0  0  0  0  0  0
    4.3842    4.9315    2.3812 H   0  0  0  0  0  0  0  0  0  0  0  0
    1.8938    9.0130    3.0357 H   0  0  0  0  0  0  0  0  0  0  0  0
    1.0572   11.2235    2.2494 H   0  0  0  0  0  0  0  0  0  0  0  0
    1.7411   12.1098    0.0440 H   0  0  0  0  0  0  0  0  0  0  0  0
    3.2756   10.7991   -1.4089 H   0  0  0  0  0  0  0  0  0  0  0  0
    6.1505    6.0565   -1.3967 H   0  0  0  0  0  0  0  0  0  0  0  0
    7.3327    3.9697   -1.4809 H   0  0  0  0  0  0  0  0  0  0  0  0
    5.7651    1.8153   -2.0344 H   0  0  0  0  0  0  0  0  0  0  0  0
    6.3624    0.4236   -3.9905 H   0  0  0  0  0  0  0  0  0  0  0  0
  1  2  1  0  0  0  0
  1 27  1  0  0  0  0
  1 28  1  0  0  0  0
  1 29  1  0  0  0  0
  2  3  1  0  0  0  0
  2 30  1  0  0  0  0
  3  4  2  0  0  0  0
  3  5  1  0  0  0  0
  5  6  1  0  0  0  0
  5 26  2  0  0  0  0
  6  7  2  0  0  0  0
  6 31  1  0  0  0  0
  7  8  1  0  0  0  0
  7 24  1  0  0  0  0
  8  9  1  0  0  0  0
  8 32  1  0  0  0  0
  9 10  1  0  0  0  0
  9 23  2  0  0  0  0
 10 11  2  0  0  0  0
 10 33  1  0  0  0  0
 11 12  1  0  0  0  0
 11 34  1  0  0  0  0
 12 13  1  0  0  0  0
 12 22  2  0  0  0  0
 13 14  2  0  0  0  0
 13 21  1  0  0  0  0
 14 15  1  0  0  0  0
 15 16  1  0  0  0  0
 15 20  2  0  0  0  0
 16 17  2  0  0  0  0
 16 35  1  0  0  0  0
 17 18  1  0  0  0  0
 17 36  1  0  0  0  0
 18 19  2  0  0  0  0
 18 37  1  0  0  0  0
 19 20  1  0  0  0  0
 19 38  1  0  0  0  0
 20 21  1  0  0  0  0
 22 23  1  0  0  0  0
 22 39  1  0  0  0  0
 23 40  1  0  0  0  0
 24 25  2  0  0  0  0
 24 41  1  0  0  0  0
 25 26  1  0  0  0  0
 25 42  1  0  0  0  0
M  END
$$$$
