CHEMBL495961
 OpenBabel04072215383D

 53 57  0  0  0  0  0  0  0  0999 V2000
   -3.4040    4.3891    2.6942 C   0  0  0  0  0  0  0  0  0  0  0  0
   -2.4216    3.3608    3.0242 N   0  0  0  0  0  0  0  0  0  0  0  0
   -3.0818    2.1497    3.5421 C   0  0  0  0  0  0  0  0  0  0  0  0
   -2.0591    1.0287    3.8381 C   0  0  0  0  0  0  0  0  0  0  0  0
   -1.2382    0.6240    2.6741 N   0  0  0  0  0  0  0  0  0  0  0  0
   -2.0061   -0.0494    1.6130 C   0  0  0  0  0  0  0  0  0  0  0  0
   -2.6749   -1.3450    2.0228 C   0  0  0  0  0  0  0  0  0  0  0  0
   -1.9921   -2.5697    1.9344 C   0  0  0  0  0  0  0  0  0  0  0  0
   -2.6078   -3.7866    2.2629 C   0  0  0  0  0  0  0  0  0  0  0  0
   -3.9312   -3.7190    2.7014 C   0  0  0  0  0  0  0  0  0  0  0  0
   -4.8235   -4.6730    3.1147 N   0  0  0  0  0  0  0  0  0  0  0  0
   -6.0072   -4.0543    3.4574 C   0  0  0  0  0  0  0  0  0  0  0  0
   -7.1015   -4.8239    3.9622 C   0  0  0  0  0  0  0  0  0  0  0  0
   -8.3569   -4.3015    3.9340 C   0  0  0  0  0  0  0  0  0  0  0  0
   -8.6914   -3.0814    3.3387 N   0  0  0  0  0  0  0  0  0  0  0  0
   -9.4625   -5.0454    4.5971 C   0  0  0  0  0  0  0  0  0  0  0  0
  -10.7839   -4.5728    4.6380 C   0  0  0  0  0  0  0  0  0  0  0  0
  -11.7768   -5.2671    5.3365 C   0  0  0  0  0  0  0  0  0  0  0  0
  -11.4708   -6.4593    5.9840 C   0  0  0  0  0  0  0  0  0  0  0  0
  -10.1749   -6.9677    5.9259 C   0  0  0  0  0  0  0  0  0  0  0  0
   -9.1843   -6.2600    5.2404 C   0  0  0  0  0  0  0  0  0  0  0  0
   -7.8934   -6.7858    5.1979 N   0  0  0  0  0  0  0  0  0  0  0  0
   -6.8486   -6.1666    4.5759 C   0  0  0  0  0  0  0  0  0  0  0  0
   -5.7448   -6.7110    4.5321 O   0  0  0  0  0  0  0  0  0  0  0  0
   -5.9116   -2.7482    3.2572 N   0  0  0  0  0  0  0  0  0  0  0  0
   -4.6353   -2.5303    2.8103 C   0  0  0  0  0  0  0  0  0  0  0  0
   -4.0102   -1.3273    2.4682 C   0  0  0  0  0  0  0  0  0  0  0  0
   -0.6017    1.8530    2.1384 C   0  0  0  0  0  0  0  0  0  0  0  0
   -1.5788    3.0300    1.8609 C   0  0  0  0  0  0  0  0  0  0  0  0
   -4.0122    4.6361    3.5723 H   0  0  0  0  0  0  0  0  0  0  0  0
   -4.0786    4.0780    1.8883 H   0  0  0  0  0  0  0  0  0  0  0  0
   -2.9027    5.3134    2.3888 H   0  0  0  0  0  0  0  0  0  0  0  0
   -3.8371    1.7926    2.8306 H   0  0  0  0  0  0  0  0  0  0  0  0
   -3.6095    2.3882    4.4726 H   0  0  0  0  0  0  0  0  0  0  0  0
   -2.5633    0.1664    4.2869 H   0  0  0  0  0  0  0  0  0  0  0  0
   -1.3774    1.3845    4.6237 H   0  0  0  0  0  0  0  0  0  0  0  0
   -1.3207   -0.2926    0.7894 H   0  0  0  0  0  0  0  0  0  0  0  0
   -2.7654    0.6059    1.1669 H   0  0  0  0  0  0  0  0  0  0  0  0
   -0.9584   -2.5837    1.5917 H   0  0  0  0  0  0  0  0  0  0  0  0
   -2.0802   -4.7287    2.1739 H   0  0  0  0  0  0  0  0  0  0  0  0
   -4.6434   -5.6659    3.2077 H   0  0  0  0  0  0  0  0  0  0  0  0
   -7.8384   -2.5538    3.0995 H   0  0  0  0  0  0  0  0  0  0  0  0
   -9.2785   -2.5045    3.9308 H   0  0  0  0  0  0  0  0  0  0  0  0
  -11.0667   -3.6555    4.1270 H   0  0  0  0  0  0  0  0  0  0  0  0
  -12.7881   -4.8701    5.3742 H   0  0  0  0  0  0  0  0  0  0  0  0
  -12.2417   -6.9952    6.5325 H   0  0  0  0  0  0  0  0  0  0  0  0
   -9.9481   -7.9055    6.4240 H   0  0  0  0  0  0  0  0  0  0  0  0
   -7.6893   -7.6793    5.6264 H   0  0  0  0  0  0  0  0  0  0  0  0
   -4.5683   -0.4033    2.5573 H   0  0  0  0  0  0  0  0  0  0  0  0
   -0.0435    1.6206    1.2237 H   0  0  0  0  0  0  0  0  0  0  0  0
    0.1498    2.1882    2.8652 H   0  0  0  0  0  0  0  0  0  0  0  0
   -2.2025    2.7856    0.9930 H   0  0  0  0  0  0  0  0  0  0  0  0
   -0.9836    3.9098    1.5864 H   0  0  0  0  0  0  0  0  0  0  0  0
  1  2  1  0  0  0  0
  1 30  1  0  0  0  0
  1 31  1  0  0  0  0
  1 32  1  0  0  0  0
  2  3  1  0  0  0  0
  2 29  1  0  0  0  0
  3  4  1  0  0  0  0
  3 33  1  0  0  0  0
  3 34  1  0  0  0  0
  4  5  1  0  0  0  0
  4 35  1  0  0  0  0
  4 36  1  0  0  0  0
  5  6  1  0  0  0  0
  5 28  1  0  0  0  0
  6  7  1  0  0  0  0
  6 37  1  0  0  0  0
  6 38  1  0  0  0  0
  7  8  1  0  0  0  0
  7 27  2  0  0  0  0
  8  9  2  0  0  0  0
  8 39  1  0  0  0  0
  9 10  1  0  0  0  0
  9 40  1  0  0  0  0
 10 11  1  0  0  0  0
 10 26  2  0  0  0  0
 11 12  1  0  0  0  0
 11 41  1  0  0  0  0
 12 13  1  0  0  0  0
 12 25  2  0  0  0  0
 13 14  2  0  0  0  0
 13 23  1  0  0  0  0
 14 15  1  0  0  0  0
 14 16  1  0  0  0  0
 15 42  1  0  0  0  0
 15 43  1  0  0  0  0
 16 17  1  0  0  0  0
 16 21  2  0  0  0  0
 17 18  2  0  0  0  0
 17 44  1  0  0  0  0
 18 19  1  0  0  0  0
 18 45  1  0  0  0  0
 19 20  2  0  0  0  0
 19 46  1  0  0  0  0
 20 21  1  0  0  0  0
 20 47  1  0  0  0  0
 21 22  1  0  0  0  0
 22 23  1  0  0  0  0
 22 48  1  0  0  0  0
 23 24  2  0  0  0  0
 25 26  1  0  0  0  0
 26 27  1  0  0  0  0
 27 49  1  0  0  0  0
 28 29  1  0  0  0  0
 28 50  1  0  0  0  0
 28 51  1  0  0  0  0
 29 52  1  0  0  0  0
 29 53  1  0  0  0  0
M  END
$$$$
