CHEMBL3690487
 OpenBabel04072215373D

 48 51  0  0  0  0  0  0  0  0999 V2000
    2.1851   -0.1651   -1.1319 N   0  0  0  0  0  0  0  0  0  0  0  0
    0.8650   -0.1092   -0.6448 C   0  0  0  0  0  0  0  0  0  0  0  0
    0.2366    1.1338   -0.5396 C   0  0  0  0  0  0  0  0  0  0  0  0
   -1.0143    1.2390    0.0629 C   0  0  0  0  0  0  0  0  0  0  0  0
   -1.5907    0.0945    0.5850 C   0  0  0  0  0  0  0  0  0  0  0  0
   -1.0052   -1.1217    0.5566 N   0  0  0  0  0  0  0  0  0  0  0  0
    0.2147   -1.2016   -0.0342 C   0  0  0  0  0  0  0  0  0  0  0  0
    0.8483   -2.5376    0.0055 C   0  0  0  0  0  0  0  0  0  0  0  0
    1.7918   -2.9140    1.0568 C   0  0  0  0  0  0  0  0  0  0  0  0
    2.4254   -4.0971    0.9948 C   0  0  0  0  0  0  0  0  0  0  0  0
    2.1496   -4.9865   -0.0504 N   0  0  0  0  0  0  0  0  0  0  0  0
    2.6221   -6.2749   -0.3253 C   0  0  0  0  0  0  0  0  0  0  0  0
    3.4919   -7.1183    0.5180 C   0  0  0  0  0  0  0  0  0  0  0  0
    3.4364   -7.0362    1.9122 C   0  0  0  0  0  0  0  0  0  0  0  0
    4.2473   -7.8316    2.7147 C   0  0  0  0  0  0  0  0  0  0  0  0
    5.0759   -8.7874    2.1353 C   0  0  0  0  0  0  0  0  0  0  0  0
    5.1059   -8.9670    0.7546 C   0  0  0  0  0  0  0  0  0  0  0  0
    5.8594  -10.0024    0.1373 N   0  0  0  0  0  0  0  0  0  0  0  0
    6.5486  -11.0039    0.7942 C   0  0  0  0  0  0  0  0  0  0  0  0
    6.6472  -11.1669    2.0003 O   0  0  0  0  0  0  0  0  0  0  0  0
    7.2044  -11.8528   -0.0720 N   0  0  0  0  0  0  0  0  0  0  0  0
    7.9617  -12.9762    0.5058 C   0  0  0  0  0  0  0  0  0  0  0  0
    7.1385  -14.1952    0.9520 C   0  0  0  0  0  0  0  0  0  0  0  0
    5.8508  -14.1155    0.5451 F   0  0  0  0  0  0  0  0  0  0  0  0
    7.6527  -15.3233    0.3975 F   0  0  0  0  0  0  0  0  0  0  0  0
    7.1506  -14.3680    2.2891 F   0  0  0  0  0  0  0  0  0  0  0  0
    4.3391   -8.1003   -0.0530 C   0  0  0  0  0  0  0  0  0  0  0  0
    2.0304   -6.5828   -1.5432 C   0  0  0  0  0  0  0  0  0  0  0  0
    1.2109   -5.5889   -1.9993 N   0  0  0  0  0  0  0  0  0  0  0  0
    1.2629   -4.6523   -1.0783 C   0  0  0  0  0  0  0  0  0  0  0  0
    0.6027   -3.3908   -1.0140 C   0  0  0  0  0  0  0  0  0  0  0  0
    2.3973    0.5449   -1.8247 H   0  0  0  0  0  0  0  0  0  0  0  0
    2.4622   -1.0942   -1.4428 H   0  0  0  0  0  0  0  0  0  0  0  0
    0.7196    2.0285   -0.9225 H   0  0  0  0  0  0  0  0  0  0  0  0
   -1.5189    2.1965    0.1352 H   0  0  0  0  0  0  0  0  0  0  0  0
   -2.5635    0.1304    1.0678 H   0  0  0  0  0  0  0  0  0  0  0  0
    1.9661   -2.2131    1.8680 H   0  0  0  0  0  0  0  0  0  0  0  0
    3.1544   -4.3797    1.7398 H   0  0  0  0  0  0  0  0  0  0  0  0
    2.7394   -6.3733    2.4160 H   0  0  0  0  0  0  0  0  0  0  0  0
    4.2169   -7.7324    3.7949 H   0  0  0  0  0  0  0  0  0  0  0  0
    5.6755   -9.3881    2.8104 H   0  0  0  0  0  0  0  0  0  0  0  0
    5.8560  -10.0322   -0.8693 H   0  0  0  0  0  0  0  0  0  0  0  0
    6.7663  -12.0134   -0.9672 H   0  0  0  0  0  0  0  0  0  0  0  0
    8.5368  -12.6047    1.3625 H   0  0  0  0  0  0  0  0  0  0  0  0
    8.6850  -13.2800   -0.2574 H   0  0  0  0  0  0  0  0  0  0  0  0
    4.3788   -8.2042   -1.1341 H   0  0  0  0  0  0  0  0  0  0  0  0
    2.1355   -7.5022   -2.1060 H   0  0  0  0  0  0  0  0  0  0  0  0
   -0.0820   -3.1384   -1.8188 H   0  0  0  0  0  0  0  0  0  0  0  0
  1  2  1  0  0  0  0
  1 32  1  0  0  0  0
  1 33  1  0  0  0  0
  2  3  1  0  0  0  0
  2  7  2  0  0  0  0
  3  4  2  0  0  0  0
  3 34  1  0  0  0  0
  4  5  1  0  0  0  0
  4 35  1  0  0  0  0
  5  6  2  0  0  0  0
  5 36  1  0  0  0  0
  6  7  1  0  0  0  0
  7  8  1  0  0  0  0
  8  9  1  0  0  0  0
  8 31  2  0  0  0  0
  9 10  2  0  0  0  0
  9 37  1  0  0  0  0
 10 11  1  0  0  0  0
 10 38  1  0  0  0  0
 11 12  1  0  0  0  0
 11 30  1  0  0  0  0
 12 13  1  0  0  0  0
 12 28  2  0  0  0  0
 13 14  1  0  0  0  0
 13 27  2  0  0  0  0
 14 15  2  0  0  0  0
 14 39  1  0  0  0  0
 15 16  1  0  0  0  0
 15 40  1  0  0  0  0
 16 17  2  0  0  0  0
 16 41  1  0  0  0  0
 17 18  1  0  0  0  0
 17 27  1  0  0  0  0
 18 19  1  0  0  0  0
 18 42  1  0  0  0  0
 19 20  2  0  0  0  0
 19 21  1  0  0  0  0
 21 22  1  0  0  0  0
 21 43  1  0  0  0  0
 22 23  1  0  0  0  0
 22 44  1  0  0  0  0
 22 45  1  0  0  0  0
 23 24  1  0  0  0  0
 23 25  1  0  0  0  0
 23 26  1  0  0  0  0
 27 46  1  0  0  0  0
 28 29  1  0  0  0  0
 28 47  1  0  0  0  0
 29 30  2  0  0  0  0
 30 31  1  0  0  0  0
 31 48  1  0  0  0  0
M  END
$$$$
