CHEMBL383123
 OpenBabel04072215373D

 49 53  0  0  0  0  0  0  0  0999 V2000
    0.7829    1.2950    0.0646 C   0  0  0  0  0  0  0  0  0  0  0  0
   -0.5824    1.1274    0.1193 C   0  0  0  0  0  0  0  0  0  0  0  0
   -1.1771   -0.0814    0.1464 N   0  0  0  0  0  0  0  0  0  0  0  0
   -0.3943   -1.2036    0.1010 C   0  0  0  0  0  0  0  0  0  0  0  0
   -1.2081   -2.4784    0.0810 C   0  0  0  0  0  0  0  0  0  0  0  0
   -1.0520   -3.4631    1.2472 C   0  0  0  0  0  0  0  0  0  0  0  0
   -1.2564   -2.9846    2.6633 C   0  0  0  0  0  0  0  0  0  0  0  0
   -2.1850   -2.0079    3.0221 C   0  0  0  0  0  0  0  0  0  0  0  0
   -2.3484   -1.7113    4.3711 C   0  0  0  0  0  0  0  0  0  0  0  0
   -1.6658   -2.3127    5.3710 N   0  0  0  0  0  0  0  0  0  0  0  0
   -0.7806   -3.2595    5.0047 C   0  0  0  0  0  0  0  0  0  0  0  0
   -0.5481   -3.6250    3.6889 C   0  0  0  0  0  0  0  0  0  0  0  0
    1.0086   -1.1339    0.0157 C   0  0  0  0  0  0  0  0  0  0  0  0
    1.8793   -2.3017   -0.1028 C   0  0  0  0  0  0  0  0  0  0  0  0
    1.6053   -3.5558   -0.3961 N   0  0  0  0  0  0  0  0  0  0  0  0
    2.7853   -4.2586   -0.2793 N   0  0  0  0  0  0  0  0  0  0  0  0
    3.7189   -3.3821    0.0105 C   0  0  0  0  0  0  0  0  0  0  0  0
    5.0196   -3.5994    0.2753 N   0  0  0  0  0  0  0  0  0  0  0  0
    6.0240   -2.6681   -0.1989 C   0  0  0  0  0  0  0  0  0  0  0  0
    7.2543   -2.7589    0.6783 C   0  0  0  0  0  0  0  0  0  0  0  0
    7.1524   -2.4512    2.0590 C   0  0  0  0  0  0  0  0  0  0  0  0
    8.2703   -2.4878    2.8971 C   0  0  0  0  0  0  0  0  0  0  0  0
    9.4802   -2.8273    2.3339 C   0  0  0  0  0  0  0  0  0  0  0  0
    9.5945   -3.1309    0.9975 C   0  0  0  0  0  0  0  0  0  0  0  0
    8.5052   -3.1108    0.1471 C   0  0  0  0  0  0  0  0  0  0  0  0
   10.8743   -3.4313    0.6448 O   0  0  0  0  0  0  0  0  0  0  0  0
   11.5557   -3.2391    1.9032 C   0  0  0  0  0  0  0  0  0  0  0  0
   10.6694   -2.8967    2.9885 O   0  0  0  0  0  0  0  0  0  0  0  0
    3.2254   -2.1116    0.1241 O   0  0  0  0  0  0  0  0  0  0  0  0
    1.5788    0.1536    0.0179 C   0  0  0  0  0  0  0  0  0  0  0  0
    1.2200    2.2869    0.0489 H   0  0  0  0  0  0  0  0  0  0  0  0
   -1.2564    1.9792    0.1381 H   0  0  0  0  0  0  0  0  0  0  0  0
   -1.0034   -2.9999   -0.8625 H   0  0  0  0  0  0  0  0  0  0  0  0
   -2.2709   -2.2027    0.0174 H   0  0  0  0  0  0  0  0  0  0  0  0
   -0.0663   -3.9294    1.1968 H   0  0  0  0  0  0  0  0  0  0  0  0
   -1.7677   -4.2806    1.0845 H   0  0  0  0  0  0  0  0  0  0  0  0
   -2.7848   -1.4857    2.2860 H   0  0  0  0  0  0  0  0  0  0  0  0
   -3.0658   -0.9615    4.6934 H   0  0  0  0  0  0  0  0  0  0  0  0
   -0.2505   -3.7439    5.8190 H   0  0  0  0  0  0  0  0  0  0  0  0
    0.1689   -4.4115    3.4699 H   0  0  0  0  0  0  0  0  0  0  0  0
    5.3052   -4.5682    0.1713 H   0  0  0  0  0  0  0  0  0  0  0  0
    5.6761   -1.6278   -0.1914 H   0  0  0  0  0  0  0  0  0  0  0  0
    6.2807   -2.9154   -1.2367 H   0  0  0  0  0  0  0  0  0  0  0  0
    6.1824   -2.1835    2.4803 H   0  0  0  0  0  0  0  0  0  0  0  0
    8.1890   -2.2540    3.9527 H   0  0  0  0  0  0  0  0  0  0  0  0
    8.6353   -3.3519   -0.9034 H   0  0  0  0  0  0  0  0  0  0  0  0
   12.2895   -2.4326    1.7851 H   0  0  0  0  0  0  0  0  0  0  0  0
   12.0883   -4.1617    2.1610 H   0  0  0  0  0  0  0  0  0  0  0  0
    2.6584    0.2826   -0.0364 H   0  0  0  0  0  0  0  0  0  0  0  0
  1  2  1  0  0  0  0
  1 30  2  0  0  0  0
  1 31  1  0  0  0  0
  2  3  2  0  0  0  0
  2 32  1  0  0  0  0
  3  4  1  0  0  0  0
  4  5  1  0  0  0  0
  4 13  2  0  0  0  0
  5  6  1  0  0  0  0
  5 33  1  0  0  0  0
  5 34  1  0  0  0  0
  6  7  1  0  0  0  0
  6 35  1  0  0  0  0
  6 36  1  0  0  0  0
  7  8  1  0  0  0  0
  7 12  2  0  0  0  0
  8  9  2  0  0  0  0
  8 37  1  0  0  0  0
  9 10  1  0  0  0  0
  9 38  1  0  0  0  0
 10 11  2  0  0  0  0
 11 12  1  0  0  0  0
 11 39  1  0  0  0  0
 12 40  1  0  0  0  0
 13 14  1  0  0  0  0
 13 30  1  0  0  0  0
 14 15  2  0  0  0  0
 14 29  1  0  0  0  0
 15 16  1  0  0  0  0
 16 17  2  0  0  0  0
 17 18  1  0  0  0  0
 17 29  1  0  0  0  0
 18 19  1  0  0  0  0
 18 41  1  0  0  0  0
 19 20  1  0  0  0  0
 19 42  1  0  0  0  0
 19 43  1  0  0  0  0
 20 21  1  0  0  0  0
 20 25  2  0  0  0  0
 21 22  2  0  0  0  0
 21 44  1  0  0  0  0
 22 23  1  0  0  0  0
 22 45  1  0  0  0  0
 23 24  2  0  0  0  0
 23 28  1  0  0  0  0
 24 25  1  0  0  0  0
 24 26  1  0  0  0  0
 25 46  1  0  0  0  0
 26 27  1  0  0  0  0
 27 28  1  0  0  0  0
 27 47  1  0  0  0  0
 27 48  1  0  0  0  0
 30 49  1  0  0  0  0
M  END
$$$$
