CHEMBL244100
 OpenBabel04072215363D

 54 57  0  0  0  0  0  0  0  0999 V2000
    6.6844  -10.2847   -4.4121 C   0  0  0  0  0  0  0  0  0  0  0  0
    5.6788  -10.3349   -3.3988 O   0  0  0  0  0  0  0  0  0  0  0  0
    5.8987   -9.5135   -2.3403 C   0  0  0  0  0  0  0  0  0  0  0  0
    6.8144   -8.7049   -2.2604 O   0  0  0  0  0  0  0  0  0  0  0  0
    4.9833   -9.8029   -1.3663 N   0  0  0  0  0  0  0  0  0  0  0  0
    5.2597   -9.4517   -0.0762 C   0  0  0  0  0  0  0  0  0  0  0  0
    5.1804  -10.2682    0.9471 N   0  0  0  0  0  0  0  0  0  0  0  0
    5.6591   -9.5501    2.0142 C   0  0  0  0  0  0  0  0  0  0  0  0
    5.9076   -9.9607    3.3316 C   0  0  0  0  0  0  0  0  0  0  0  0
    6.3386   -9.0097    4.2655 C   0  0  0  0  0  0  0  0  0  0  0  0
    6.5322   -7.6724    3.8919 C   0  0  0  0  0  0  0  0  0  0  0  0
    6.9408   -6.6349    4.8759 C   0  0  0  0  0  0  0  0  0  0  0  0
    6.5592   -5.4723    4.7005 O   0  0  0  0  0  0  0  0  0  0  0  0
    7.7851   -6.9450    6.0542 C   0  0  0  0  0  0  0  0  0  0  0  0
    7.6171   -6.1709    7.2004 C   0  0  0  0  0  0  0  0  0  0  0  0
    8.4198   -6.3873    8.3231 C   0  0  0  0  0  0  0  0  0  0  0  0
    9.4150   -7.3724    8.3324 C   0  0  0  0  0  0  0  0  0  0  0  0
   10.2826   -7.5922    9.4300 N   0  0  0  0  0  0  0  0  0  0  0  0
   10.2391   -6.9150   10.6335 C   0  0  0  0  0  0  0  0  0  0  0  0
    9.4003   -6.0719   10.9433 O   0  0  0  0  0  0  0  0  0  0  0  0
   11.2781   -7.2619   11.4875 N   0  0  0  0  0  0  0  0  0  0  0  0
   11.3397   -6.6211   12.7561 C   0  0  0  0  0  0  0  0  0  0  0  0
   10.2267   -6.6046   13.6077 C   0  0  0  0  0  0  0  0  0  0  0  0
   10.2531   -5.8839   14.8120 C   0  0  0  0  0  0  0  0  0  0  0  0
    9.0560   -5.8745   15.7327 C   0  0  0  0  0  0  0  0  0  0  0  0
    8.0143   -6.6335   15.2906 F   0  0  0  0  0  0  0  0  0  0  0  0
    9.3605   -6.3543   16.9710 F   0  0  0  0  0  0  0  0  0  0  0  0
    8.5536   -4.6248   15.9315 F   0  0  0  0  0  0  0  0  0  0  0  0
   11.4133   -5.1641   15.1457 C   0  0  0  0  0  0  0  0  0  0  0  0
   12.5312   -5.1927   14.3054 C   0  0  0  0  0  0  0  0  0  0  0  0
   12.4955   -5.9373   13.1311 C   0  0  0  0  0  0  0  0  0  0  0  0
   13.5606   -5.9325   12.3144 F   0  0  0  0  0  0  0  0  0  0  0  0
    9.5739   -8.1566    7.1815 C   0  0  0  0  0  0  0  0  0  0  0  0
    8.7772   -7.9347    6.0453 C   0  0  0  0  0  0  0  0  0  0  0  0
    6.3053   -7.2508    2.5668 C   0  0  0  0  0  0  0  0  0  0  0  0
    5.8996   -8.2284    1.6582 C   0  0  0  0  0  0  0  0  0  0  0  0
    5.6677   -8.1985    0.3072 N   0  0  0  0  0  0  0  0  0  0  0  0
    6.3092  -10.8226   -5.2871 H   0  0  0  0  0  0  0  0  0  0  0  0
    7.5891  -10.7896   -4.0579 H   0  0  0  0  0  0  0  0  0  0  0  0
    6.9063   -9.2553   -4.7086 H   0  0  0  0  0  0  0  0  0  0  0  0
    4.5102  -10.6880   -1.4934 H   0  0  0  0  0  0  0  0  0  0  0  0
    5.7635  -11.0020    3.6123 H   0  0  0  0  0  0  0  0  0  0  0  0
    6.4894   -9.3338    5.2912 H   0  0  0  0  0  0  0  0  0  0  0  0
    6.8633   -5.3825    7.2345 H   0  0  0  0  0  0  0  0  0  0  0  0
    8.2344   -5.7411    9.1762 H   0  0  0  0  0  0  0  0  0  0  0  0
   10.9572   -8.3434    9.3517 H   0  0  0  0  0  0  0  0  0  0  0  0
   12.1751   -7.3626   11.0219 H   0  0  0  0  0  0  0  0  0  0  0  0
    9.3219   -7.1407   13.3218 H   0  0  0  0  0  0  0  0  0  0  0  0
   11.4440   -4.5731   16.0600 H   0  0  0  0  0  0  0  0  0  0  0  0
   13.4209   -4.6209   14.5522 H   0  0  0  0  0  0  0  0  0  0  0  0
   10.3280   -8.9356    7.1395 H   0  0  0  0  0  0  0  0  0  0  0  0
    8.9570   -8.5303    5.1575 H   0  0  0  0  0  0  0  0  0  0  0  0
    6.4389   -6.2146    2.2733 H   0  0  0  0  0  0  0  0  0  0  0  0
    5.7814   -7.4081   -0.3100 H   0  0  0  0  0  0  0  0  0  0  0  0
  1  2  1  0  0  0  0
  1 38  1  0  0  0  0
  1 39  1  0  0  0  0
  1 40  1  0  0  0  0
  2  3  1  0  0  0  0
  3  4  2  0  0  0  0
  3  5  1  0  0  0  0
  5  6  1  0  0  0  0
  5 41  1  0  0  0  0
  6  7  2  0  0  0  0
  6 37  1  0  0  0  0
  7  8  1  0  0  0  0
  8  9  1  0  0  0  0
  8 36  2  0  0  0  0
  9 10  2  0  0  0  0
  9 42  1  0  0  0  0
 10 11  1  0  0  0  0
 10 43  1  0  0  0  0
 11 12  1  0  0  0  0
 11 35  2  0  0  0  0
 12 13  2  0  0  0  0
 12 14  1  0  0  0  0
 14 15  1  0  0  0  0
 14 34  2  0  0  0  0
 15 16  2  0  0  0  0
 15 44  1  0  0  0  0
 16 17  1  0  0  0  0
 16 45  1  0  0  0  0
 17 18  1  0  0  0  0
 17 33  2  0  0  0  0
 18 19  1  0  0  0  0
 18 46  1  0  0  0  0
 19 20  2  0  0  0  0
 19 21  1  0  0  0  0
 21 22  1  0  0  0  0
 21 47  1  0  0  0  0
 22 23  1  0  0  0  0
 22 31  2  0  0  0  0
 23 24  2  0  0  0  0
 23 48  1  0  0  0  0
 24 25  1  0  0  0  0
 24 29  1  0  0  0  0
 25 26  1  0  0  0  0
 25 27  1  0  0  0  0
 25 28  1  0  0  0  0
 29 30  2  0  0  0  0
 29 49  1  0  0  0  0
 30 31  1  0  0  0  0
 30 50  1  0  0  0  0
 31 32  1  0  0  0  0
 33 34  1  0  0  0  0
 33 51  1  0  0  0  0
 34 52  1  0  0  0  0
 35 36  1  0  0  0  0
 35 53  1  0  0  0  0
 36 37  1  0  0  0  0
 37 54  1  0  0  0  0
M  END
$$$$
