CHEMBL1997193
 OpenBabel04072215363D

 34 36  0  0  0  0  0  0  0  0999 V2000
    2.1999   -0.3928    0.7021 C   0  0  0  0  0  0  0  0  0  0  0  0
    0.7621   -0.4052    0.3063 C   0  0  0  0  0  0  0  0  0  0  0  0
    0.0811   -1.3759   -0.3953 C   0  0  0  0  0  0  0  0  0  0  0  0
   -1.2948   -1.0502   -0.5677 C   0  0  0  0  0  0  0  0  0  0  0  0
   -1.6405    0.1523    0.0239 C   0  0  0  0  0  0  0  0  0  0  0  0
   -2.9343    0.7710    0.0889 C   0  0  0  0  0  0  0  0  0  0  0  0
   -3.4142    1.6453   -0.9827 C   0  0  0  0  0  0  0  0  0  0  0  0
   -4.6522    2.1599   -0.9480 C   0  0  0  0  0  0  0  0  0  0  0  0
   -5.1945    3.0041   -2.0216 C   0  0  0  0  0  0  0  0  0  0  0  0
   -5.0132    4.3933   -1.9723 C   0  0  0  0  0  0  0  0  0  0  0  0
   -5.5666    5.2040   -2.9652 C   0  0  0  0  0  0  0  0  0  0  0  0
   -5.3387    7.0792   -2.8813 Br  0  0  0  0  0  0  0  0  0  0  0  0
   -6.2973    4.6476   -4.0150 C   0  0  0  0  0  0  0  0  0  0  0  0
   -6.4795    3.2657   -4.0760 C   0  0  0  0  0  0  0  0  0  0  0  0
   -5.9314    2.4533   -3.0824 C   0  0  0  0  0  0  0  0  0  0  0  0
   -6.1233    1.0993   -3.1312 O   0  0  0  0  0  0  0  0  0  0  0  0
   -5.4709    1.8761    0.1121 N   0  0  0  0  0  0  0  0  0  0  0  0
   -5.1238    1.0641    1.1598 C   0  0  0  0  0  0  0  0  0  0  0  0
   -5.9232    0.8278    2.0613 O   0  0  0  0  0  0  0  0  0  0  0  0
   -3.7477    0.4845    1.1345 C   0  0  0  0  0  0  0  0  0  0  0  0
   -3.3834   -0.3642    2.2177 C   0  0  0  0  0  0  0  0  0  0  0  0
   -3.0594   -1.0606    3.0902 N   0  0  0  0  0  0  0  0  0  0  0  0
   -0.2610    0.9003    0.7291 S   0  0  0  0  0  0  0  0  0  0  0  0
    2.7078   -1.2984    0.3522 H   0  0  0  0  0  0  0  0  0  0  0  0
    2.3046   -0.3539    1.7914 H   0  0  0  0  0  0  0  0  0  0  0  0
    2.7176    0.4683    0.2678 H   0  0  0  0  0  0  0  0  0  0  0  0
    0.5435   -2.2856   -0.7598 H   0  0  0  0  0  0  0  0  0  0  0  0
   -2.0056   -1.6860   -1.0824 H   0  0  0  0  0  0  0  0  0  0  0  0
   -2.7442    1.8428   -1.8151 H   0  0  0  0  0  0  0  0  0  0  0  0
   -4.4533    4.8406   -1.1542 H   0  0  0  0  0  0  0  0  0  0  0  0
   -6.7312    5.2808   -4.7854 H   0  0  0  0  0  0  0  0  0  0  0  0
   -7.0527    2.8442   -4.8966 H   0  0  0  0  0  0  0  0  0  0  0  0
   -6.6779    0.8807   -3.8983 H   0  0  0  0  0  0  0  0  0  0  0  0
   -6.4181    2.2359    0.1238 H   0  0  0  0  0  0  0  0  0  0  0  0
  1  2  1  0  0  0  0
  1 24  1  0  0  0  0
  1 25  1  0  0  0  0
  1 26  1  0  0  0  0
  2  3  2  0  0  0  0
  2 23  1  0  0  0  0
  3  4  1  0  0  0  0
  3 27  1  0  0  0  0
  4  5  2  0  0  0  0
  4 28  1  0  0  0  0
  5  6  1  0  0  0  0
  5 23  1  0  0  0  0
  6  7  1  0  0  0  0
  6 20  2  0  0  0  0
  7  8  2  0  0  0  0
  7 29  1  0  0  0  0
  8  9  1  0  0  0  0
  8 17  1  0  0  0  0
  9 10  1  0  0  0  0
  9 15  2  0  0  0  0
 10 11  2  0  0  0  0
 10 30  1  0  0  0  0
 11 12  1  0  0  0  0
 11 13  1  0  0  0  0
 13 14  2  0  0  0  0
 13 31  1  0  0  0  0
 14 15  1  0  0  0  0
 14 32  1  0  0  0  0
 15 16  1  0  0  0  0
 16 33  1  0  0  0  0
 17 18  1  0  0  0  0
 17 34  1  0  0  0  0
 18 19  2  0  0  0  0
 18 20  1  0  0  0  0
 20 21  1  0  0  0  0
 21 22  3  0  0  0  0
M  END
$$$$
