CHEMBL292930
 OpenBabel04072215363D

 73 77  0  0  0  0  0  0  0  0999 V2000
    0.9486    0.8656    0.1983 C   0  0  0  0  0  0  0  0  0  0  0  0
    2.0460    1.7287   -0.2291 N   0  0  0  0  0  0  0  0  0  0  0  0
    3.4580    1.7457    0.6818 S   0  0  0  0  0  0  0  0  0  0  0  0
    4.1437    2.9701    0.3348 O   0  0  0  0  0  0  0  0  0  0  0  0
    3.1217    1.4284    2.0568 O   0  0  0  0  0  0  0  0  0  0  0  0
    4.3957    0.3902    0.0067 C   0  0  0  0  0  0  0  0  0  0  0  0
    4.1647   -0.8890    0.5513 C   0  0  0  0  0  0  0  0  0  0  0  0
    4.9080   -1.9770    0.1150 C   0  0  0  0  0  0  0  0  0  0  0  0
    5.8670   -1.7380   -0.8471 C   0  0  0  0  0  0  0  0  0  0  0  0
    6.1364   -0.4725   -1.3948 C   0  0  0  0  0  0  0  0  0  0  0  0
    5.3947    0.6196   -0.9642 C   0  0  0  0  0  0  0  0  0  0  0  0
    7.2684   -0.6765   -2.3366 C   0  0  0  0  0  0  0  0  0  0  0  0
    7.9031    0.2732   -3.0549 C   0  0  0  0  0  0  0  0  0  0  0  0
    9.0497    0.0821   -3.8928 C   0  0  0  0  0  0  0  0  0  0  0  0
    9.9943   -0.8537   -3.5421 N   0  0  0  0  0  0  0  0  0  0  0  0
   11.0335   -0.8333   -4.4141 C   0  0  0  0  0  0  0  0  0  0  0  0
   10.8193    0.1681   -5.3337 C   0  0  0  0  0  0  0  0  0  0  0  0
    9.5255    0.7302   -5.0432 C   0  0  0  0  0  0  0  0  0  0  0  0
    8.7949    1.8309   -5.7582 C   0  0  0  0  0  0  0  0  0  0  0  0
    9.0759    2.0394   -7.2476 C   0  0  0  0  0  0  0  0  0  0  0  0
    8.7468    0.8374   -8.1552 C   0  0  0  0  0  0  0  0  0  0  0  0
    9.1781    1.0506   -9.5566 N   0  0  0  0  0  0  0  0  0  0  0  0
    8.5595    2.2204  -10.2008 C   0  0  0  0  0  0  0  0  0  0  0  0
    7.0636    2.0275  -10.5255 C   0  0  0  0  0  0  0  0  0  0  0  0
    6.7518    0.8584  -11.3941 N   0  0  0  0  0  0  0  0  0  0  0  0
    7.2102    1.0827  -12.7964 C   0  0  0  0  0  0  0  0  0  0  0  0
    6.3931    2.1955  -13.4549 C   0  0  0  0  0  0  0  0  0  0  0  0
    6.7943    2.9114  -14.3591 O   0  0  0  0  0  0  0  0  0  0  0  0
    5.1363    2.2764  -12.9450 O   0  0  0  0  0  0  0  0  0  0  0  0
    7.4347   -0.3355  -10.8204 C   0  0  0  0  0  0  0  0  0  0  0  0
    8.9181   -0.1395  -10.3966 C   0  0  0  0  0  0  0  0  0  0  0  0
   11.8642    0.4956   -6.3582 C   0  0  0  0  0  0  0  0  0  0  0  0
   12.9275   -0.6167   -6.4823 C   0  0  0  0  0  0  0  0  0  0  0  0
   13.3676   -1.1710   -5.1183 C   0  0  0  0  0  0  0  0  0  0  0  0
   12.1830   -1.7724   -4.3527 C   0  0  0  0  0  0  0  0  0  0  0  0
    7.5765   -2.1627   -2.2970 C   0  0  0  0  0  0  0  0  0  0  0  0
    8.4331   -2.7950   -2.8841 O   0  0  0  0  0  0  0  0  0  0  0  0
    6.7000   -2.7014   -1.3837 N   0  0  0  0  0  0  0  0  0  0  0  0
    0.1307    0.9494   -0.5234 H   0  0  0  0  0  0  0  0  0  0  0  0
    0.5629    1.1786    1.1721 H   0  0  0  0  0  0  0  0  0  0  0  0
    1.2577   -0.1811    0.2357 H   0  0  0  0  0  0  0  0  0  0  0  0
    1.8024    2.6710   -0.5361 H   0  0  0  0  0  0  0  0  0  0  0  0
    3.4152   -1.0348    1.3280 H   0  0  0  0  0  0  0  0  0  0  0  0
    4.7509   -2.9668    0.5285 H   0  0  0  0  0  0  0  0  0  0  0  0
    5.5836    1.6190   -1.3432 H   0  0  0  0  0  0  0  0  0  0  0  0
    7.5404    1.2967   -2.9956 H   0  0  0  0  0  0  0  0  0  0  0  0
    9.8945   -1.5328   -2.7983 H   0  0  0  0  0  0  0  0  0  0  0  0
    9.0268    2.7696   -5.2375 H   0  0  0  0  0  0  0  0  0  0  0  0
    7.7147    1.6749   -5.6407 H   0  0  0  0  0  0  0  0  0  0  0  0
   10.1131    2.3593   -7.3930 H   0  0  0  0  0  0  0  0  0  0  0  0
    8.4564    2.8921   -7.5501 H   0  0  0  0  0  0  0  0  0  0  0  0
    7.6761    0.6142   -8.0893 H   0  0  0  0  0  0  0  0  0  0  0  0
    9.2683   -0.0492   -7.7780 H   0  0  0  0  0  0  0  0  0  0  0  0
    9.1096    2.4305  -11.1268 H   0  0  0  0  0  0  0  0  0  0  0  0
    8.6932    3.1286   -9.6064 H   0  0  0  0  0  0  0  0  0  0  0  0
    6.6753    2.9535  -10.9629 H   0  0  0  0  0  0  0  0  0  0  0  0
    6.5004    1.9033   -9.5919 H   0  0  0  0  0  0  0  0  0  0  0  0
    7.0172    0.1830  -13.3933 H   0  0  0  0  0  0  0  0  0  0  0  0
    8.2733    1.3279  -12.8638 H   0  0  0  0  0  0  0  0  0  0  0  0
    5.0845    1.6303  -12.2016 H   0  0  0  0  0  0  0  0  0  0  0  0
    7.3677   -1.1779  -11.5210 H   0  0  0  0  0  0  0  0  0  0  0  0
    6.8622   -0.6487   -9.9383 H   0  0  0  0  0  0  0  0  0  0  0  0
    9.5300   -0.0471  -11.3042 H   0  0  0  0  0  0  0  0  0  0  0  0
    9.2825   -1.0462   -9.8978 H   0  0  0  0  0  0  0  0  0  0  0  0
   12.3544    1.4304   -6.0616 H   0  0  0  0  0  0  0  0  0  0  0  0
   11.4333    0.6474   -7.3484 H   0  0  0  0  0  0  0  0  0  0  0  0
   13.7970   -0.2285   -7.0245 H   0  0  0  0  0  0  0  0  0  0  0  0
   12.5198   -1.4402   -7.0836 H   0  0  0  0  0  0  0  0  0  0  0  0
   13.8119   -0.3595   -4.5283 H   0  0  0  0  0  0  0  0  0  0  0  0
   14.1418   -1.9342   -5.2536 H   0  0  0  0  0  0  0  0  0  0  0  0
   12.4700   -1.9821   -3.3169 H   0  0  0  0  0  0  0  0  0  0  0  0
   11.8897   -2.7234   -4.8148 H   0  0  0  0  0  0  0  0  0  0  0  0
    6.7109   -3.6809   -1.1465 H   0  0  0  0  0  0  0  0  0  0  0  0
  1  2  1  0  0  0  0
  1 39  1  0  0  0  0
  1 40  1  0  0  0  0
  1 41  1  0  0  0  0
  2  3  1  0  0  0  0
  2 42  1  0  0  0  0
  3  4  2  0  0  0  0
  3  5  2  0  0  0  0
  3  6  1  0  0  0  0
  6  7  1  0  0  0  0
  6 11  2  0  0  0  0
  7  8  2  0  0  0  0
  7 43  1  0  0  0  0
  8  9  1  0  0  0  0
  8 44  1  0  0  0  0
  9 10  2  0  0  0  0
  9 38  1  0  0  0  0
 10 11  1  0  0  0  0
 10 12  1  0  0  0  0
 11 45  1  0  0  0  0
 12 13  2  0  0  0  0
 12 36  1  0  0  0  0
 13 14  1  0  0  0  0
 13 46  1  0  0  0  0
 14 15  1  0  0  0  0
 14 18  2  0  0  0  0
 15 16  1  0  0  0  0
 15 47  1  0  0  0  0
 16 17  2  0  0  0  0
 16 35  1  0  0  0  0
 17 18  1  0  0  0  0
 17 32  1  0  0  0  0
 18 19  1  0  0  0  0
 19 20  1  0  0  0  0
 19 48  1  0  0  0  0
 19 49  1  0  0  0  0
 20 21  1  0  0  0  0
 20 50  1  0  0  0  0
 20 51  1  0  0  0  0
 21 22  1  0  0  0  0
 21 52  1  0  0  0  0
 21 53  1  0  0  0  0
 22 23  1  0  0  0  0
 22 31  1  0  0  0  0
 23 24  1  0  0  0  0
 23 54  1  0  0  0  0
 23 55  1  0  0  0  0
 24 25  1  0  0  0  0
 24 56  1  0  0  0  0
 24 57  1  0  0  0  0
 25 26  1  0  0  0  0
 25 30  1  0  0  0  0
 26 27  1  0  0  0  0
 26 58  1  0  0  0  0
 26 59  1  0  0  0  0
 27 28  2  0  0  0  0
 27 29  1  0  0  0  0
 29 60  1  0  0  0  0
 30 31  1  0  0  0  0
 30 61  1  0  0  0  0
 30 62  1  0  0  0  0
 31 63  1  0  0  0  0
 31 64  1  0  0  0  0
 32 33  1  0  0  0  0
 32 65  1  0  0  0  0
 32 66  1  0  0  0  0
 33 34  1  0  0  0  0
 33 67  1  0  0  0  0
 33 68  1  0  0  0  0
 34 35  1  0  0  0  0
 34 69  1  0  0  0  0
 34 70  1  0  0  0  0
 35 71  1  0  0  0  0
 35 72  1  0  0  0  0
 36 37  2  0  0  0  0
 36 38  1  0  0  0  0
 38 73  1  0  0  0  0
M  END
$$$$
