CHEMBL220406
 OpenBabel04072215363D

 61 67  0  0  0  0  0  0  0  0999 V2000
    3.8231    2.6917   -0.0001 C   0  0  0  0  0  0  0  0  0  0  0  0
    3.3017    1.6309    0.9578 C   0  0  0  0  0  0  0  0  0  0  0  0
    3.7967    0.2070    0.6438 C   0  0  0  0  0  0  0  0  0  0  0  0
    5.2352    0.0144    0.7948 N   0  0  0  0  0  0  0  0  0  0  0  0
    5.9097    0.1812    2.0261 C   0  0  0  0  0  0  0  0  0  0  0  0
    5.4416    0.3942    3.3394 C   0  0  0  0  0  0  0  0  0  0  0  0
    6.3750    0.6612    4.3644 C   0  0  0  0  0  0  0  0  0  0  0  0
    7.7413    0.6718    4.1088 C   0  0  0  0  0  0  0  0  0  0  0  0
    8.7540    0.9017    5.0523 N   0  0  0  0  0  0  0  0  0  0  0  0
    8.6622    1.1904    6.3997 C   0  0  0  0  0  0  0  0  0  0  0  0
    7.6125    1.3531    7.0048 O   0  0  0  0  0  0  0  0  0  0  0  0
    9.9725    1.2804    7.0654 C   0  0  0  0  0  0  0  0  0  0  0  0
   10.2180    1.5390    8.4016 C   0  0  0  0  0  0  0  0  0  0  0  0
   11.6060    1.5305    8.7269 C   0  0  0  0  0  0  0  0  0  0  0  0
   12.3916    1.2815    7.6249 C   0  0  0  0  0  0  0  0  0  0  0  0
   11.4542    1.0658    6.2131 S   0  0  0  0  0  0  0  0  0  0  0  0
    8.1918    0.4466    2.8048 C   0  0  0  0  0  0  0  0  0  0  0  0
    7.2829    0.2350    1.7585 C   0  0  0  0  0  0  0  0  0  0  0  0
    7.3248    0.1653    0.3824 C   0  0  0  0  0  0  0  0  0  0  0  0
    8.4257    0.6204   -0.3592 C   0  0  0  0  0  0  0  0  0  0  0  0
    8.1468    1.0119   -1.6825 C   0  0  0  0  0  0  0  0  0  0  0  0
    6.8895    0.8453   -2.2983 C   0  0  0  0  0  0  0  0  0  0  0  0
    6.0936   -0.1706   -1.6684 C   0  0  0  0  0  0  0  0  0  0  0  0
    6.1509   -0.1258   -0.2548 C   0  0  0  0  0  0  0  0  0  0  0  0
    6.1216   -1.5266   -2.5002 C   0  0  0  0  0  0  0  0  0  0  0  0
    7.1691   -1.5475   -3.6944 C   0  0  0  0  0  0  0  0  0  0  0  0
    6.9521   -0.2960   -4.4684 C   0  0  0  0  0  0  0  0  0  0  0  0
    6.5481   -0.1814   -5.7328 N   0  0  0  0  0  0  0  0  0  0  0  0
    6.0606    1.0848   -5.7708 N   0  0  0  0  0  0  0  0  0  0  0  0
    5.3868    1.5538   -6.9570 C   0  0  0  0  0  0  0  0  0  0  0  0
    6.0712    1.7145   -4.5486 C   0  0  0  0  0  0  0  0  0  0  0  0
    6.8153    0.8961   -3.7368 C   0  0  0  0  0  0  0  0  0  0  0  0
    9.3848    1.4436   -2.2717 C   0  0  0  0  0  0  0  0  0  0  0  0
    9.7033    1.8251   -3.3888 O   0  0  0  0  0  0  0  0  0  0  0  0
   10.3306    1.2681   -1.2627 N   0  0  0  0  0  0  0  0  0  0  0  0
    9.8223    0.8205    0.0088 C   0  0  0  0  0  0  0  0  0  0  0  0
    3.4262    3.6747    0.2777 H   0  0  0  0  0  0  0  0  0  0  0  0
    3.5109    2.4797   -1.0265 H   0  0  0  0  0  0  0  0  0  0  0  0
    4.9145    2.7565    0.0287 H   0  0  0  0  0  0  0  0  0  0  0  0
    2.2052    1.6384    0.9225 H   0  0  0  0  0  0  0  0  0  0  0  0
    3.5716    1.9267    1.9771 H   0  0  0  0  0  0  0  0  0  0  0  0
    3.5134   -0.0779   -0.3745 H   0  0  0  0  0  0  0  0  0  0  0  0
    3.3165   -0.5036    1.3278 H   0  0  0  0  0  0  0  0  0  0  0  0
    4.3809    0.4087    3.5703 H   0  0  0  0  0  0  0  0  0  0  0  0
    5.9916    0.8709    5.3621 H   0  0  0  0  0  0  0  0  0  0  0  0
    9.7051    0.8375    4.7083 H   0  0  0  0  0  0  0  0  0  0  0  0
    9.4237    1.7121    9.1158 H   0  0  0  0  0  0  0  0  0  0  0  0
   12.0052    1.6947    9.7184 H   0  0  0  0  0  0  0  0  0  0  0  0
   13.4705    1.2151    7.5804 H   0  0  0  0  0  0  0  0  0  0  0  0
    9.2541    0.4638    2.5977 H   0  0  0  0  0  0  0  0  0  0  0  0
    5.1212   -1.6786   -2.9211 H   0  0  0  0  0  0  0  0  0  0  0  0
    6.3541   -2.3625   -1.8305 H   0  0  0  0  0  0  0  0  0  0  0  0
    7.0765   -2.4407   -4.3180 H   0  0  0  0  0  0  0  0  0  0  0  0
    8.1939   -1.5378   -3.2904 H   0  0  0  0  0  0  0  0  0  0  0  0
    5.6137    0.8866   -7.7921 H   0  0  0  0  0  0  0  0  0  0  0  0
    5.7369    2.5640   -7.1799 H   0  0  0  0  0  0  0  0  0  0  0  0
    4.3110    1.5544   -6.7593 H   0  0  0  0  0  0  0  0  0  0  0  0
    5.5144    2.6230   -4.3677 H   0  0  0  0  0  0  0  0  0  0  0  0
   11.3059    1.4167   -1.4719 H   0  0  0  0  0  0  0  0  0  0  0  0
    9.9583    1.6176    0.7404 H   0  0  0  0  0  0  0  0  0  0  0  0
   10.3152   -0.1094    0.3015 H   0  0  0  0  0  0  0  0  0  0  0  0
  1  2  1  0  0  0  0
  1 37  1  0  0  0  0
  1 38  1  0  0  0  0
  1 39  1  0  0  0  0
  2  3  1  0  0  0  0
  2 40  1  0  0  0  0
  2 41  1  0  0  0  0
  3  4  1  0  0  0  0
  3 42  1  0  0  0  0
  3 43  1  0  0  0  0
  4  5  1  0  0  0  0
  4 24  1  0  0  0  0
  5  6  1  0  0  0  0
  5 18  2  0  0  0  0
  6  7  2  0  0  0  0
  6 44  1  0  0  0  0
  7  8  1  0  0  0  0
  7 45  1  0  0  0  0
  8  9  1  0  0  0  0
  8 17  2  0  0  0  0
  9 10  1  0  0  0  0
  9 46  1  0  0  0  0
 10 11  2  0  0  0  0
 10 12  1  0  0  0  0
 12 13  2  0  0  0  0
 12 16  1  0  0  0  0
 13 14  1  0  0  0  0
 13 47  1  0  0  0  0
 14 15  2  0  0  0  0
 14 48  1  0  0  0  0
 15 16  1  0  0  0  0
 15 49  1  0  0  0  0
 17 18  1  0  0  0  0
 17 50  1  0  0  0  0
 18 19  1  0  0  0  0
 19 20  1  0  0  0  0
 19 24  2  0  0  0  0
 20 21  2  0  0  0  0
 20 36  1  0  0  0  0
 21 22  1  0  0  0  0
 21 33  1  0  0  0  0
 22 23  2  0  0  0  0
 22 32  1  0  0  0  0
 23 24  1  0  0  0  0
 23 25  1  0  0  0  0
 25 26  1  0  0  0  0
 25 51  1  0  0  0  0
 25 52  1  0  0  0  0
 26 27  1  0  0  0  0
 26 53  1  0  0  0  0
 26 54  1  0  0  0  0
 27 28  2  0  0  0  0
 27 32  1  0  0  0  0
 28 29  1  0  0  0  0
 29 30  1  0  0  0  0
 29 31  1  0  0  0  0
 30 55  1  0  0  0  0
 30 56  1  0  0  0  0
 30 57  1  0  0  0  0
 31 32  2  0  0  0  0
 31 58  1  0  0  0  0
 33 34  2  0  0  0  0
 33 35  1  0  0  0  0
 35 36  1  0  0  0  0
 35 59  1  0  0  0  0
 36 60  1  0  0  0  0
 36 61  1  0  0  0  0
M  END
$$$$
