CHEMBL3920945
 OpenBabel04072215373D

 74 78  0  0  0  0  0  0  0  0999 V2000
   -1.7637   -1.3963    0.7048 C   0  0  0  0  0  0  0  0  0  0  0  0
   -1.0838   -1.2312   -0.6261 C   0  0  0  0  0  0  0  0  0  0  0  0
   -1.8086   -0.5478   -1.6339 C   0  0  0  0  0  0  0  0  0  0  0  0
   -1.2279   -0.2257   -2.8652 C   0  0  0  0  0  0  0  0  0  0  0  0
   -1.9026    0.3870   -3.8987 O   0  0  0  0  0  0  0  0  0  0  0  0
   -2.7621    1.4368   -3.5977 C   0  0  0  0  0  0  0  0  0  0  0  0
   -3.7801    1.6861   -4.4975 C   0  0  0  0  0  0  0  0  0  0  0  0
   -4.6394    2.7114   -4.1616 C   0  0  0  0  0  0  0  0  0  0  0  0
   -5.7116    3.0015   -5.0234 N   0  0  0  0  0  0  0  0  0  0  0  0
   -6.7079    3.9099   -4.7301 C   0  0  0  0  0  0  0  0  0  0  0  0
   -6.8779    4.5185   -3.6840 O   0  0  0  0  0  0  0  0  0  0  0  0
   -7.6941    4.0876   -5.8430 C   0  0  0  0  0  0  0  0  0  0  0  0
   -8.8355    5.0714   -5.6952 C   0  0  0  0  0  0  0  0  0  0  0  0
   -9.1128    3.5980   -5.6616 C   0  0  0  0  0  0  0  0  0  0  0  0
   -4.4723    3.4363   -3.0484 N   0  0  0  0  0  0  0  0  0  0  0  0
   -3.4385    3.1338   -2.2681 C   0  0  0  0  0  0  0  0  0  0  0  0
   -2.5535    2.1655   -2.4883 N   0  0  0  0  0  0  0  0  0  0  0  0
    0.0771   -0.6233   -3.1155 C   0  0  0  0  0  0  0  0  0  0  0  0
    0.7944   -1.3266   -2.1405 C   0  0  0  0  0  0  0  0  0  0  0  0
    0.2418   -1.6403   -0.8871 C   0  0  0  0  0  0  0  0  0  0  0  0
    0.9822   -2.4227    0.0507 N   0  0  0  0  0  0  0  0  0  0  0  0
    2.3642   -2.4909    0.0688 C   0  0  0  0  0  0  0  0  0  0  0  0
    3.0971   -1.6899   -0.4997 O   0  0  0  0  0  0  0  0  0  0  0  0
    2.8618   -3.5817    0.7939 N   0  0  0  0  0  0  0  0  0  0  0  0
    4.2573   -3.6774    1.0698 C   0  0  0  0  0  0  0  0  0  0  0  0
    4.9809   -4.8602    0.9666 C   0  0  0  0  0  0  0  0  0  0  0  0
    6.3904   -4.8707    1.1778 C   0  0  0  0  0  0  0  0  0  0  0  0
    7.1280   -3.7295    1.5242 C   0  0  0  0  0  0  0  0  0  0  0  0
    8.4894   -3.6915    1.7228 N   0  0  0  0  0  0  0  0  0  0  0  0
    9.6783   -4.5628    1.5557 C   0  0  0  0  0  0  0  0  0  0  0  0
    9.9791   -5.1136    0.1740 C   0  0  0  0  0  0  0  0  0  0  0  0
    9.3144   -6.4502   -0.1127 C   0  0  0  0  0  0  0  0  0  0  0  0
    9.4135   -7.4456    0.9603 N   0  0  0  0  0  0  0  0  0  0  0  0
    8.4458   -8.5269    0.7189 C   0  0  0  0  0  0  0  0  0  0  0  0
    9.2438   -6.9430    2.3292 C   0  0  0  0  0  0  0  0  0  0  0  0
    9.9163   -5.6122    2.6295 C   0  0  0  0  0  0  0  0  0  0  0  0
    6.3488   -2.5610    1.7194 C   0  0  0  0  0  0  0  0  0  0  0  0
    6.8819   -1.2347    2.2041 C   0  0  0  0  0  0  0  0  0  0  0  0
    8.2321   -1.1925    2.3867 F   0  0  0  0  0  0  0  0  0  0  0  0
    6.5959   -0.2059    1.3555 F   0  0  0  0  0  0  0  0  0  0  0  0
    6.3368   -0.8766    3.4041 F   0  0  0  0  0  0  0  0  0  0  0  0
    4.9500   -2.5493    1.4799 C   0  0  0  0  0  0  0  0  0  0  0  0
   -2.8153   -1.0865    0.6551 H   0  0  0  0  0  0  0  0  0  0  0  0
   -1.2795   -0.7633    1.4552 H   0  0  0  0  0  0  0  0  0  0  0  0
   -1.7517   -2.4401    1.0282 H   0  0  0  0  0  0  0  0  0  0  0  0
   -2.8357   -0.2457   -1.4426 H   0  0  0  0  0  0  0  0  0  0  0  0
   -3.8920    1.0903   -5.3920 H   0  0  0  0  0  0  0  0  0  0  0  0
   -5.7675    2.4972   -5.8948 H   0  0  0  0  0  0  0  0  0  0  0  0
   -7.2713    4.0171   -6.8404 H   0  0  0  0  0  0  0  0  0  0  0  0
   -9.1451    5.6333   -6.5681 H   0  0  0  0  0  0  0  0  0  0  0  0
   -8.9236    5.6264   -4.7659 H   0  0  0  0  0  0  0  0  0  0  0  0
   -9.6213    3.1623   -6.5124 H   0  0  0  0  0  0  0  0  0  0  0  0
   -9.3918    3.1678   -4.7049 H   0  0  0  0  0  0  0  0  0  0  0  0
   -3.3081    3.7302   -1.3680 H   0  0  0  0  0  0  0  0  0  0  0  0
    0.5514   -0.3932   -4.0652 H   0  0  0  0  0  0  0  0  0  0  0  0
    1.8058   -1.6296   -2.3992 H   0  0  0  0  0  0  0  0  0  0  0  0
    0.5247   -2.6823    0.9118 H   0  0  0  0  0  0  0  0  0  0  0  0
    2.3491   -4.4428    0.6604 H   0  0  0  0  0  0  0  0  0  0  0  0
    4.4889   -5.7854    0.6739 H   0  0  0  0  0  0  0  0  0  0  0  0
    6.8917   -5.8210    1.0598 H   0  0  0  0  0  0  0  0  0  0  0  0
    8.8197   -2.7442    1.9082 H   0  0  0  0  0  0  0  0  0  0  0  0
   10.4954   -3.8434    1.7251 H   0  0  0  0  0  0  0  0  0  0  0  0
   11.0675   -5.2778    0.1161 H   0  0  0  0  0  0  0  0  0  0  0  0
    9.7439   -4.3881   -0.6114 H   0  0  0  0  0  0  0  0  0  0  0  0
    9.8071   -6.8760   -0.9991 H   0  0  0  0  0  0  0  0  0  0  0  0
    8.2791   -6.2746   -0.4108 H   0  0  0  0  0  0  0  0  0  0  0  0
    8.4907   -8.8847   -0.3160 H   0  0  0  0  0  0  0  0  0  0  0  0
    7.4163   -8.1925    0.9061 H   0  0  0  0  0  0  0  0  0  0  0  0
    8.6467   -9.3845    1.3691 H   0  0  0  0  0  0  0  0  0  0  0  0
    9.6855   -7.6879    3.0055 H   0  0  0  0  0  0  0  0  0  0  0  0
    8.1878   -6.8699    2.6070 H   0  0  0  0  0  0  0  0  0  0  0  0
   11.0006   -5.7943    2.6908 H   0  0  0  0  0  0  0  0  0  0  0  0
    9.6114   -5.2476    3.6143 H   0  0  0  0  0  0  0  0  0  0  0  0
    4.4050   -1.6130    1.6260 H   0  0  0  0  0  0  0  0  0  0  0  0
  1  2  1  0  0  0  0
  1 43  1  0  0  0  0
  1 44  1  0  0  0  0
  1 45  1  0  0  0  0
  2  3  1  0  0  0  0
  2 20  2  0  0  0  0
  3  4  2  0  0  0  0
  3 46  1  0  0  0  0
  4  5  1  0  0  0  0
  4 18  1  0  0  0  0
  5  6  1  0  0  0  0
  6  7  1  0  0  0  0
  6 17  2  0  0  0  0
  7  8  2  0  0  0  0
  7 47  1  0  0  0  0
  8  9  1  0  0  0  0
  8 15  1  0  0  0  0
  9 10  1  0  0  0  0
  9 48  1  0  0  0  0
 10 11  2  0  0  0  0
 10 12  1  0  0  0  0
 12 13  1  0  0  0  0
 12 14  1  0  0  0  0
 12 49  1  0  0  0  0
 13 14  1  0  0  0  0
 13 50  1  0  0  0  0
 13 51  1  0  0  0  0
 14 52  1  0  0  0  0
 14 53  1  0  0  0  0
 15 16  2  0  0  0  0
 16 17  1  0  0  0  0
 16 54  1  0  0  0  0
 18 19  2  0  0  0  0
 18 55  1  0  0  0  0
 19 20  1  0  0  0  0
 19 56  1  0  0  0  0
 20 21  1  0  0  0  0
 21 22  1  0  0  0  0
 21 57  1  0  0  0  0
 22 23  2  0  0  0  0
 22 24  1  0  0  0  0
 24 25  1  0  0  0  0
 24 58  1  0  0  0  0
 25 26  1  0  0  0  0
 25 42  2  0  0  0  0
 26 27  2  0  0  0  0
 26 59  1  0  0  0  0
 27 28  1  0  0  0  0
 27 60  1  0  0  0  0
 28 29  1  0  0  0  0
 28 37  2  0  0  0  0
 29 30  1  0  0  0  0
 29 61  1  0  0  0  0
 30 31  1  0  0  0  0
 30 36  1  0  0  0  0
 30 62  1  0  0  0  0
 31 32  1  0  0  0  0
 31 63  1  0  0  0  0
 31 64  1  0  0  0  0
 32 33  1  0  0  0  0
 32 65  1  0  0  0  0
 32 66  1  0  0  0  0
 33 34  1  0  0  0  0
 33 35  1  0  0  0  0
 34 67  1  0  0  0  0
 34 68  1  0  0  0  0
 34 69  1  0  0  0  0
 35 36  1  0  0  0  0
 35 70  1  0  0  0  0
 35 71  1  0  0  0  0
 36 72  1  0  0  0  0
 36 73  1  0  0  0  0
 37 38  1  0  0  0  0
 37 42  1  0  0  0  0
 38 39  1  0  0  0  0
 38 40  1  0  0  0  0
 38 41  1  0  0  0  0
 42 74  1  0  0  0  0
M  END
$$$$
