CHEMBL4562600
 OpenBabel04072215383D

 49 53  0  0  0  0  0  0  0  0999 V2000
    1.5943    0.4303   -0.5933 C   0  0  0  0  0  0  0  0  0  0  0  0
    2.7720   -0.1778   -0.0752 O   0  0  0  0  0  0  0  0  0  0  0  0
    3.3656    0.4587    0.9797 C   0  0  0  0  0  0  0  0  0  0  0  0
    2.9094    1.6302    1.5800 C   0  0  0  0  0  0  0  0  0  0  0  0
    3.6093    2.1903    2.6499 C   0  0  0  0  0  0  0  0  0  0  0  0
    4.7967    1.6161    3.1094 C   0  0  0  0  0  0  0  0  0  0  0  0
    5.5526    2.2303    4.2032 C   0  0  0  0  0  0  0  0  0  0  0  0
    6.1602    1.4340    5.0931 N   0  0  0  0  0  0  0  0  0  0  0  0
    6.6998    2.2418    6.0217 N   0  0  0  0  0  0  0  0  0  0  0  0
    7.3826    1.6755    7.1498 C   0  0  0  0  0  0  0  0  0  0  0  0
    7.4966    0.2715    7.2617 C   0  0  0  0  0  0  0  0  0  0  0  0
    8.1500   -0.3060    8.3590 C   0  0  0  0  0  0  0  0  0  0  0  0
    8.6923    0.5013    9.3534 C   0  0  0  0  0  0  0  0  0  0  0  0
    8.5827    1.8886    9.2525 C   0  0  0  0  0  0  0  0  0  0  0  0
    7.9335    2.4777    8.1566 C   0  0  0  0  0  0  0  0  0  0  0  0
    6.4718    3.5735    5.7051 C   0  0  0  0  0  0  0  0  0  0  0  0
    5.7363    3.6177    4.5223 C   0  0  0  0  0  0  0  0  0  0  0  0
    5.2719    4.8055    3.7605 C   0  0  0  0  0  0  0  0  0  0  0  0
    5.0525    4.7497    2.5528 O   0  0  0  0  0  0  0  0  0  0  0  0
    5.1411    5.9419    4.5212 N   0  0  0  0  0  0  0  0  0  0  0  0
    4.7460    7.1776    4.0637 C   0  0  0  0  0  0  0  0  0  0  0  0
    4.1385    7.5755    2.9702 N   0  0  0  0  0  0  0  0  0  0  0  0
    4.0818    8.9788    2.9494 C   0  0  0  0  0  0  0  0  0  0  0  0
    3.5212    9.8180    1.9497 C   0  0  0  0  0  0  0  0  0  0  0  0
    3.6798   11.2136    2.0308 C   0  0  0  0  0  0  0  0  0  0  0  0
    4.3656   11.7745    3.0976 C   0  0  0  0  0  0  0  0  0  0  0  0
    4.5661   13.0992    3.1328 F   0  0  0  0  0  0  0  0  0  0  0  0
    4.8558   10.9914    4.1358 C   0  0  0  0  0  0  0  0  0  0  0  0
    4.6888    9.5995    4.0466 C   0  0  0  0  0  0  0  0  0  0  0  0
    5.1551    8.3983    5.1830 S   0  0  0  0  0  0  0  0  0  0  0  0
    5.2330    0.4181    2.5269 C   0  0  0  0  0  0  0  0  0  0  0  0
    4.5209   -0.1532    1.4682 C   0  0  0  0  0  0  0  0  0  0  0  0
    1.2259   -0.1958   -1.4103 H   0  0  0  0  0  0  0  0  0  0  0  0
    1.8096    1.4234   -1.0024 H   0  0  0  0  0  0  0  0  0  0  0  0
    0.8087    0.4790    0.1685 H   0  0  0  0  0  0  0  0  0  0  0  0
    2.0182    2.1466    1.2420 H   0  0  0  0  0  0  0  0  0  0  0  0
    3.2121    3.0940    3.1025 H   0  0  0  0  0  0  0  0  0  0  0  0
    7.0792   -0.3869    6.5064 H   0  0  0  0  0  0  0  0  0  0  0  0
    8.2317   -1.3877    8.4328 H   0  0  0  0  0  0  0  0  0  0  0  0
    9.1981    0.0530   10.2045 H   0  0  0  0  0  0  0  0  0  0  0  0
    9.0061    2.5145   10.0344 H   0  0  0  0  0  0  0  0  0  0  0  0
    7.8754    3.5600    8.1283 H   0  0  0  0  0  0  0  0  0  0  0  0
    6.8721    4.3570    6.3277 H   0  0  0  0  0  0  0  0  0  0  0  0
    5.4663    5.9301    5.4772 H   0  0  0  0  0  0  0  0  0  0  0  0
    2.9944    9.3839    1.1045 H   0  0  0  0  0  0  0  0  0  0  0  0
    3.2880   11.8649    1.2543 H   0  0  0  0  0  0  0  0  0  0  0  0
    5.3718   11.4477    4.9724 H   0  0  0  0  0  0  0  0  0  0  0  0
    6.1315   -0.0764    2.8908 H   0  0  0  0  0  0  0  0  0  0  0  0
    4.8753   -1.0774    1.0185 H   0  0  0  0  0  0  0  0  0  0  0  0
  1  2  1  0  0  0  0
  1 33  1  0  0  0  0
  1 34  1  0  0  0  0
  1 35  1  0  0  0  0
  2  3  1  0  0  0  0
  3  4  1  0  0  0  0
  3 32  2  0  0  0  0
  4  5  2  0  0  0  0
  4 36  1  0  0  0  0
  5  6  1  0  0  0  0
  5 37  1  0  0  0  0
  6  7  1  0  0  0  0
  6 31  2  0  0  0  0
  7  8  2  0  0  0  0
  7 17  1  0  0  0  0
  8  9  1  0  0  0  0
  9 10  1  0  0  0  0
  9 16  1  0  0  0  0
 10 11  1  0  0  0  0
 10 15  2  0  0  0  0
 11 12  2  0  0  0  0
 11 38  1  0  0  0  0
 12 13  1  0  0  0  0
 12 39  1  0  0  0  0
 13 14  2  0  0  0  0
 13 40  1  0  0  0  0
 14 15  1  0  0  0  0
 14 41  1  0  0  0  0
 15 42  1  0  0  0  0
 16 17  2  0  0  0  0
 16 43  1  0  0  0  0
 17 18  1  0  0  0  0
 18 19  2  0  0  0  0
 18 20  1  0  0  0  0
 20 21  1  0  0  0  0
 20 44  1  0  0  0  0
 21 22  2  0  0  0  0
 21 30  1  0  0  0  0
 22 23  1  0  0  0  0
 23 24  1  0  0  0  0
 23 29  2  0  0  0  0
 24 25  2  0  0  0  0
 24 45  1  0  0  0  0
 25 26  1  0  0  0  0
 25 46  1  0  0  0  0
 26 27  1  0  0  0  0
 26 28  2  0  0  0  0
 28 29  1  0  0  0  0
 28 47  1  0  0  0  0
 29 30  1  0  0  0  0
 31 32  1  0  0  0  0
 31 48  1  0  0  0  0
 32 49  1  0  0  0  0
M  END
$$$$
