CHEMBL3288505
 OpenBabel04072215363D

 50 54  0  0  0  0  0  0  0  0999 V2000
   -6.7078   -1.3156    5.5994 C   0  0  0  0  0  0  0  0  0  0  0  0
   -6.2438   -0.4819    4.4445 C   0  0  0  0  0  0  0  0  0  0  0  0
   -5.3376   -1.0024    3.5235 C   0  0  0  0  0  0  0  0  0  0  0  0
   -4.8842   -0.2110    2.4673 C   0  0  0  0  0  0  0  0  0  0  0  0
   -5.3161    1.1121    2.2876 C   0  0  0  0  0  0  0  0  0  0  0  0
   -4.8657    1.9665    1.2357 N   0  0  0  0  0  0  0  0  0  0  0  0
   -3.9624    1.5818    0.2701 C   0  0  0  0  0  0  0  0  0  0  0  0
   -3.5256    0.4320    0.1789 O   0  0  0  0  0  0  0  0  0  0  0  0
   -3.4862    2.5342   -0.7775 C   0  0  0  0  0  0  0  0  0  0  0  0
   -2.4724    1.9358   -1.5902 C   0  0  0  0  0  0  0  0  0  0  0  0
   -1.8188    2.6448   -2.5795 C   0  0  0  0  0  0  0  0  0  0  0  0
   -2.4077    3.8035   -2.9894 C   0  0  0  0  0  0  0  0  0  0  0  0
   -3.6192    4.1621   -2.4055 C   0  0  0  0  0  0  0  0  0  0  0  0
   -4.4655    5.0411   -3.0150 C   0  0  0  0  0  0  0  0  0  0  0  0
   -4.1457    6.3025   -2.6320 C   0  0  0  0  0  0  0  0  0  0  0  0
   -3.5559    7.1105   -3.7459 C   0  0  0  0  0  0  0  0  0  0  0  0
   -3.5417    6.4870   -5.0586 C   0  0  0  0  0  0  0  0  0  0  0  0
   -2.9090    6.9813   -6.1894 C   0  0  0  0  0  0  0  0  0  0  0  0
   -2.2846    8.2031   -6.1191 C   0  0  0  0  0  0  0  0  0  0  0  0
   -2.2907    8.8495   -4.8781 C   0  0  0  0  0  0  0  0  0  0  0  0
   -1.7577   10.0669   -4.5504 N   0  0  0  0  0  0  0  0  0  0  0  0
   -1.8372   10.3622   -3.2496 N   0  0  0  0  0  0  0  0  0  0  0  0
   -2.4819    9.3243   -2.7265 C   0  0  0  0  0  0  0  0  0  0  0  0
   -2.6924    9.2467   -1.4012 N   0  0  0  0  0  0  0  0  0  0  0  0
   -2.8599    8.3436   -3.6923 C   0  0  0  0  0  0  0  0  0  0  0  0
   -4.3520    6.3929   -1.2488 C   0  0  0  0  0  0  0  0  0  0  0  0
   -4.3879    5.1412   -0.4730 C   0  0  0  0  0  0  0  0  0  0  0  0
   -3.9022    3.8909   -1.0919 C   0  0  0  0  0  0  0  0  0  0  0  0
   -6.2287    1.6238    3.2100 C   0  0  0  0  0  0  0  0  0  0  0  0
   -6.6853    0.8362    4.2794 C   0  0  0  0  0  0  0  0  0  0  0  0
   -6.3347   -2.3439    5.5277 H   0  0  0  0  0  0  0  0  0  0  0  0
   -7.8007   -1.3612    5.6181 H   0  0  0  0  0  0  0  0  0  0  0  0
   -6.3417   -0.8920    6.5398 H   0  0  0  0  0  0  0  0  0  0  0  0
   -4.9655   -2.0195    3.6195 H   0  0  0  0  0  0  0  0  0  0  0  0
   -4.1739   -0.6947    1.8040 H   0  0  0  0  0  0  0  0  0  0  0  0
   -5.2404    2.9025    1.2031 H   0  0  0  0  0  0  0  0  0  0  0  0
   -2.1474    0.9075   -1.4322 H   0  0  0  0  0  0  0  0  0  0  0  0
   -0.9446    2.2531   -3.0851 H   0  0  0  0  0  0  0  0  0  0  0  0
   -1.9795    4.3875   -3.8008 H   0  0  0  0  0  0  0  0  0  0  0  0
   -5.5346    4.8124   -2.8368 H   0  0  0  0  0  0  0  0  0  0  0  0
   -4.0055    5.5099   -5.2088 H   0  0  0  0  0  0  0  0  0  0  0  0
   -2.9104    6.3975   -7.1072 H   0  0  0  0  0  0  0  0  0  0  0  0
   -1.7999    8.6234   -6.9947 H   0  0  0  0  0  0  0  0  0  0  0  0
   -1.3139   10.7240   -5.1758 H   0  0  0  0  0  0  0  0  0  0  0  0
   -2.2290    9.9825   -0.8775 H   0  0  0  0  0  0  0  0  0  0  0  0
   -2.5439    8.3424   -0.9720 H   0  0  0  0  0  0  0  0  0  0  0  0
   -4.4280    7.3443   -0.7356 H   0  0  0  0  0  0  0  0  0  0  0  0
   -4.5745    5.1907    0.6001 H   0  0  0  0  0  0  0  0  0  0  0  0
   -6.5992    2.6414    3.1171 H   0  0  0  0  0  0  0  0  0  0  0  0
   -7.3911    1.2609    4.9891 H   0  0  0  0  0  0  0  0  0  0  0  0
  1  2  1  0  0  0  0
  1 31  1  0  0  0  0
  1 32  1  0  0  0  0
  1 33  1  0  0  0  0
  2  3  1  0  0  0  0
  2 30  2  0  0  0  0
  3  4  2  0  0  0  0
  3 34  1  0  0  0  0
  4  5  1  0  0  0  0
  4 35  1  0  0  0  0
  5  6  1  0  0  0  0
  5 29  2  0  0  0  0
  6  7  1  0  0  0  0
  6 36  1  0  0  0  0
  7  8  2  0  0  0  0
  7  9  1  0  0  0  0
  9 10  1  0  0  0  0
  9 28  2  0  0  0  0
 10 11  2  0  0  0  0
 10 37  1  0  0  0  0
 11 12  1  0  0  0  0
 11 38  1  0  0  0  0
 12 13  2  0  0  0  0
 12 39  1  0  0  0  0
 13 14  1  0  0  0  0
 13 28  1  0  0  0  0
 14 15  2  0  0  0  0
 14 40  1  0  0  0  0
 15 16  1  0  0  0  0
 15 26  1  0  0  0  0
 16 17  1  0  0  0  0
 16 25  2  0  0  0  0
 17 18  2  0  0  0  0
 17 41  1  0  0  0  0
 18 19  1  0  0  0  0
 18 42  1  0  0  0  0
 19 20  2  0  0  0  0
 19 43  1  0  0  0  0
 20 21  1  0  0  0  0
 20 25  1  0  0  0  0
 21 22  1  0  0  0  0
 21 44  1  0  0  0  0
 22 23  2  0  0  0  0
 23 24  1  0  0  0  0
 23 25  1  0  0  0  0
 24 45  1  0  0  0  0
 24 46  1  0  0  0  0
 26 27  2  0  0  0  0
 26 47  1  0  0  0  0
 27 28  1  0  0  0  0
 27 48  1  0  0  0  0
 29 30  1  0  0  0  0
 29 49  1  0  0  0  0
 30 50  1  0  0  0  0
M  END
$$$$
