CHEMBL2071215
 OpenBabel04072215363D

 38 40  0  0  1  0  0  0  0  0999 V2000
    2.6917    1.7488    3.8468 C   0  0  0  0  0  0  0  0  0  0  0  0
    2.7020    0.5224    3.0860 N   0  0  0  0  0  0  0  0  0  0  0  0
    2.5857    0.3850    1.7303 C   0  0  0  0  0  0  0  0  0  0  0  0
    2.6193   -0.9662    1.4866 C   0  0  0  0  0  0  0  0  0  0  0  0
    2.4918   -1.5596    0.2822 N   0  0  0  0  0  0  0  0  0  0  0  0
    2.5243   -2.9267    0.0006 C   0  0  0  0  0  0  0  0  0  0  0  0
    1.9068   -3.3437   -1.1083 N   0  0  0  0  0  0  0  0  0  0  0  0
    1.8493   -4.6832   -1.2866 C   0  0  0  0  0  0  0  0  0  0  0  0
    2.4017   -5.6157   -0.4268 C   0  0  0  0  0  0  0  0  0  0  0  0
    2.2481   -7.2816   -0.8010 Cl  0  0  0  0  0  0  0  0  0  0  0  0
    3.0726   -5.0910    0.6605 C   0  0  0  0  0  0  0  0  0  0  0  0
    3.7670   -5.7794    1.6554 N   0  0  0  0  0  0  0  0  0  0  0  0
    3.5862   -7.0803    2.1937 C   0  0  2  0  0  0  0  0  0  0  0  0
    2.2926   -7.2735    3.0153 C   0  0  0  0  0  0  0  0  0  0  0  0
    3.1248   -8.1151    4.0047 C   0  0  0  0  0  0  0  0  0  0  0  0
    4.3855   -7.3633    3.5014 C   0  0  2  0  0  0  0  0  0  0  0  0
    4.9710   -6.2648    4.4253 C   0  0  0  0  0  0  0  0  0  0  0  0
    4.2017   -5.1599    4.6815 N   0  0  0  0  0  0  0  0  0  0  0  0
    6.0824   -6.3243    4.9579 O   0  0  0  0  0  0  0  0  0  0  0  0
    3.1250   -3.7620    0.8627 N   0  0  0  0  0  0  0  0  0  0  0  0
    2.7669   -1.5537    2.7653 C   0  0  0  0  0  0  0  0  0  0  0  0
    2.8086   -0.6444    3.7427 N   0  0  0  0  0  0  0  0  0  0  0  0
    2.5994    2.5991    3.1687 H   0  0  0  0  0  0  0  0  0  0  0  0
    3.6281    1.8113    4.4065 H   0  0  0  0  0  0  0  0  0  0  0  0
    1.8389    1.7180    4.5307 H   0  0  0  0  0  0  0  0  0  0  0  0
    2.4880    1.2411    1.0783 H   0  0  0  0  0  0  0  0  0  0  0  0
    2.1420   -1.0588   -0.5239 H   0  0  0  0  0  0  0  0  0  0  0  0
    1.3155   -4.9915   -2.1822 H   0  0  0  0  0  0  0  0  0  0  0  0
    4.1685   -5.0806    2.2796 H   0  0  0  0  0  0  0  0  0  0  0  0
    3.7581   -7.8636    1.4475 H   0  0  0  0  0  0  0  0  0  0  0  0
    1.4878   -7.8196    2.5154 H   0  0  0  0  0  0  0  0  0  0  0  0
    1.8659   -6.3677    3.4598 H   0  0  0  0  0  0  0  0  0  0  0  0
    3.1412   -9.1868    3.7717 H   0  0  0  0  0  0  0  0  0  0  0  0
    2.8725   -7.9925    5.0615 H   0  0  0  0  0  0  0  0  0  0  0  0
    5.1989   -8.0750    3.2869 H   0  0  0  0  0  0  0  0  0  0  0  0
    3.2439   -5.0440    4.3858 H   0  0  0  0  0  0  0  0  0  0  0  0
    4.5730   -4.4895    5.3463 H   0  0  0  0  0  0  0  0  0  0  0  0
    2.8178   -2.5980    3.0319 H   0  0  0  0  0  0  0  0  0  0  0  0
  1  2  1  0  0  0  0
  1 23  1  0  0  0  0
  1 24  1  0  0  0  0
  1 25  1  0  0  0  0
  2  3  1  0  0  0  0
  2 22  1  0  0  0  0
  3  4  2  0  0  0  0
  3 26  1  0  0  0  0
  4  5  1  0  0  0  0
  4 21  1  0  0  0  0
  5  6  1  0  0  0  0
  5 27  1  0  0  0  0
  6  7  1  0  0  0  0
  6 20  2  0  0  0  0
  7  8  2  0  0  0  0
  8  9  1  0  0  0  0
  8 28  1  0  0  0  0
  9 10  1  0  0  0  0
  9 11  2  0  0  0  0
 11 12  1  0  0  0  0
 11 20  1  0  0  0  0
 12 13  1  0  0  0  0
 12 29  1  0  0  0  0
 13 14  1  0  0  0  0
 13 16  1  0  0  0  0
 13 30  1  6  0  0  0
 14 15  1  0  0  0  0
 14 31  1  0  0  0  0
 14 32  1  0  0  0  0
 15 16  1  0  0  0  0
 15 33  1  0  0  0  0
 15 34  1  0  0  0  0
 16 17  1  0  0  0  0
 16 35  1  6  0  0  0
 17 18  1  0  0  0  0
 17 19  2  0  0  0  0
 18 36  1  0  0  0  0
 18 37  1  0  0  0  0
 21 22  2  0  0  0  0
 21 38  1  0  0  0  0
M  END
$$$$
