CHEMBL1991078
 OpenBabel04072215363D

 56 60  0  0  0  0  0  0  0  0999 V2000
    3.8552    1.0480   -6.8596 C   0  0  0  0  0  0  0  0  0  0  0  0
    2.9537    1.7462   -6.0055 O   0  0  0  0  0  0  0  0  0  0  0  0
    3.5031    2.6647   -5.1503 C   0  0  0  0  0  0  0  0  0  0  0  0
    4.7080    3.3230   -5.4321 C   0  0  0  0  0  0  0  0  0  0  0  0
    5.1998    4.3192   -4.5839 C   0  0  0  0  0  0  0  0  0  0  0  0
    4.4885    4.6984   -3.4419 C   0  0  0  0  0  0  0  0  0  0  0  0
    5.0042    5.8476   -2.6363 C   0  0  0  0  0  0  0  0  0  0  0  0
    5.9281    6.5364   -3.0860 O   0  0  0  0  0  0  0  0  0  0  0  0
    4.4221    6.0387   -1.4118 N   0  0  0  0  0  0  0  0  0  0  0  0
    4.6665    7.1340   -0.6154 C   0  0  0  0  0  0  0  0  0  0  0  0
    4.8790    6.9230    0.6857 N   0  0  0  0  0  0  0  0  0  0  0  0
    4.9116    8.1602    1.2018 N   0  0  0  0  0  0  0  0  0  0  0  0
    4.4321    9.1147    0.3504 C   0  0  0  0  0  0  0  0  0  0  0  0
    3.9571   10.4044    0.5830 C   0  0  0  0  0  0  0  0  0  0  0  0
    3.5875   11.1505   -0.5394 C   0  0  0  0  0  0  0  0  0  0  0  0
    3.7700   10.6683   -1.8468 C   0  0  0  0  0  0  0  0  0  0  0  0
    3.4919   11.5606   -2.9618 C   0  0  0  0  0  0  0  0  0  0  0  0
    3.6568   11.3071   -4.3065 C   0  0  0  0  0  0  0  0  0  0  0  0
    3.3038   12.4744   -4.9130 N   0  0  0  0  0  0  0  0  0  0  0  0
    3.3603   12.8066   -6.3294 C   0  0  0  0  0  0  0  0  0  0  0  0
    2.0665   12.4870   -7.0366 C   0  0  0  0  0  0  0  0  0  0  0  0
    0.8666   13.1052   -6.6488 C   0  0  0  0  0  0  0  0  0  0  0  0
   -0.3303   12.8035   -7.2983 C   0  0  0  0  0  0  0  0  0  0  0  0
   -0.3402   11.9019   -8.3568 C   0  0  0  0  0  0  0  0  0  0  0  0
    0.8462   11.2961   -8.7662 C   0  0  0  0  0  0  0  0  0  0  0  0
    2.0460   11.5850   -8.1088 C   0  0  0  0  0  0  0  0  0  0  0  0
    2.9672   13.4153   -4.0106 N   0  0  0  0  0  0  0  0  0  0  0  0
    3.0621   12.8595   -2.8106 N   0  0  0  0  0  0  0  0  0  0  0  0
    4.2088    9.3365   -2.0368 C   0  0  0  0  0  0  0  0  0  0  0  0
    4.4874    8.5261   -0.9117 C   0  0  0  0  0  0  0  0  0  0  0  0
    3.2832    4.0465   -3.1561 C   0  0  0  0  0  0  0  0  0  0  0  0
    2.7892    3.0289   -3.9944 C   0  0  0  0  0  0  0  0  0  0  0  0
    1.5734    2.5466   -3.5807 O   0  0  0  0  0  0  0  0  0  0  0  0
    1.2629    1.1960   -3.8994 C   0  0  0  0  0  0  0  0  0  0  0  0
    3.2845    0.2910   -7.4057 H   0  0  0  0  0  0  0  0  0  0  0  0
    4.6252    0.5343   -6.2743 H   0  0  0  0  0  0  0  0  0  0  0  0
    4.3029    1.7112   -7.6066 H   0  0  0  0  0  0  0  0  0  0  0  0
    5.2732    3.1202   -6.3359 H   0  0  0  0  0  0  0  0  0  0  0  0
    6.1290    4.8244   -4.8444 H   0  0  0  0  0  0  0  0  0  0  0  0
    4.1969    5.2148   -0.8718 H   0  0  0  0  0  0  0  0  0  0  0  0
    5.1933    8.2754    2.1684 H   0  0  0  0  0  0  0  0  0  0  0  0
    3.8280   10.7972    1.5862 H   0  0  0  0  0  0  0  0  0  0  0  0
    3.1612   12.1410   -0.3785 H   0  0  0  0  0  0  0  0  0  0  0  0
    3.9888   10.4420   -4.8581 H   0  0  0  0  0  0  0  0  0  0  0  0
    4.1998   12.2424   -6.7559 H   0  0  0  0  0  0  0  0  0  0  0  0
    3.5963   13.8707   -6.4259 H   0  0  0  0  0  0  0  0  0  0  0  0
    0.8542   13.8215   -5.8282 H   0  0  0  0  0  0  0  0  0  0  0  0
   -1.2576   13.2733   -6.9743 H   0  0  0  0  0  0  0  0  0  0  0  0
   -1.2759   11.6712   -8.8640 H   0  0  0  0  0  0  0  0  0  0  0  0
    0.8337   10.5954   -9.5962 H   0  0  0  0  0  0  0  0  0  0  0  0
    2.9598   11.0969   -8.4439 H   0  0  0  0  0  0  0  0  0  0  0  0
    4.3185    8.9138   -3.0304 H   0  0  0  0  0  0  0  0  0  0  0  0
    2.6814    4.3316   -2.2974 H   0  0  0  0  0  0  0  0  0  0  0  0
    0.4173    0.8983   -3.2701 H   0  0  0  0  0  0  0  0  0  0  0  0
    2.0958    0.5226   -3.6722 H   0  0  0  0  0  0  0  0  0  0  0  0
    0.9325    1.0977   -4.9366 H   0  0  0  0  0  0  0  0  0  0  0  0
  1  2  1  0  0  0  0
  1 35  1  0  0  0  0
  1 36  1  0  0  0  0
  1 37  1  0  0  0  0
  2  3  1  0  0  0  0
  3  4  1  0  0  0  0
  3 32  2  0  0  0  0
  4  5  2  0  0  0  0
  4 38  1  0  0  0  0
  5  6  1  0  0  0  0
  5 39  1  0  0  0  0
  6  7  1  0  0  0  0
  6 31  2  0  0  0  0
  7  8  2  0  0  0  0
  7  9  1  0  0  0  0
  9 10  1  0  0  0  0
  9 40  1  0  0  0  0
 10 11  2  0  0  0  0
 10 30  1  0  0  0  0
 11 12  1  0  0  0  0
 12 13  1  0  0  0  0
 12 41  1  0  0  0  0
 13 14  1  0  0  0  0
 13 30  2  0  0  0  0
 14 15  2  0  0  0  0
 14 42  1  0  0  0  0
 15 16  1  0  0  0  0
 15 43  1  0  0  0  0
 16 17  1  0  0  0  0
 16 29  2  0  0  0  0
 17 18  2  0  0  0  0
 17 28  1  0  0  0  0
 18 19  1  0  0  0  0
 18 44  1  0  0  0  0
 19 20  1  0  0  0  0
 19 27  1  0  0  0  0
 20 21  1  0  0  0  0
 20 45  1  0  0  0  0
 20 46  1  0  0  0  0
 21 22  1  0  0  0  0
 21 26  2  0  0  0  0
 22 23  2  0  0  0  0
 22 47  1  0  0  0  0
 23 24  1  0  0  0  0
 23 48  1  0  0  0  0
 24 25  2  0  0  0  0
 24 49  1  0  0  0  0
 25 26  1  0  0  0  0
 25 50  1  0  0  0  0
 26 51  1  0  0  0  0
 27 28  2  0  0  0  0
 29 30  1  0  0  0  0
 29 52  1  0  0  0  0
 31 32  1  0  0  0  0
 31 53  1  0  0  0  0
 32 33  1  0  0  0  0
 33 34  1  0  0  0  0
 34 54  1  0  0  0  0
 34 55  1  0  0  0  0
 34 56  1  0  0  0  0
M  END
$$$$
