CHEMBL3976632
 OpenBabel04072215373D

 55 58  0  0  0  0  0  0  0  0999 V2000
    2.6250    0.2086    0.1384 C   0  0  0  0  0  0  0  0  0  0  0  0
    1.1265    0.0699    0.1503 C   0  0  0  0  0  0  0  0  0  0  0  0
    0.3806    1.2688    0.1581 C   0  0  0  0  0  0  0  0  0  0  0  0
   -1.0067    1.2763   -0.0009 C   0  0  0  0  0  0  0  0  0  0  0  0
   -1.7692    2.4220   -0.1027 O   0  0  0  0  0  0  0  0  0  0  0  0
   -1.2348    3.5227   -0.7458 C   0  0  0  0  0  0  0  0  0  0  0  0
   -0.3572    3.4243   -1.8218 C   0  0  0  0  0  0  0  0  0  0  0  0
    0.1936    4.5877   -2.3041 C   0  0  0  0  0  0  0  0  0  0  0  0
   -0.1341    5.8051   -1.8405 N   0  0  0  0  0  0  0  0  0  0  0  0
   -1.0545    5.9097   -0.8658 C   0  0  0  0  0  0  0  0  0  0  0  0
   -1.4358    7.1853   -0.4141 N   0  0  0  0  0  0  0  0  0  0  0  0
   -0.8886    8.3605   -0.8878 C   0  0  0  0  0  0  0  0  0  0  0  0
   -0.0089    8.4837   -1.7298 O   0  0  0  0  0  0  0  0  0  0  0  0
   -1.4069    9.6293   -0.2918 C   0  0  0  0  0  0  0  0  0  0  0  0
   -1.1968    9.8923    1.1818 C   0  0  0  0  0  0  0  0  0  0  0  0
   -2.5887    9.7914    0.6268 C   0  0  0  0  0  0  0  0  0  0  0  0
   -1.6309    4.7823   -0.2887 C   0  0  0  0  0  0  0  0  0  0  0  0
   -1.6769    0.0647   -0.0562 C   0  0  0  0  0  0  0  0  0  0  0  0
   -0.9575   -1.1332    0.0009 C   0  0  0  0  0  0  0  0  0  0  0  0
    0.4430   -1.1657    0.1011 C   0  0  0  0  0  0  0  0  0  0  0  0
    1.1574   -2.4005    0.1537 N   0  0  0  0  0  0  0  0  0  0  0  0
    0.5898   -3.6514    0.3731 C   0  0  0  0  0  0  0  0  0  0  0  0
   -0.6067   -3.8712    0.5319 O   0  0  0  0  0  0  0  0  0  0  0  0
    1.5352   -4.6684    0.4708 N   0  0  0  0  0  0  0  0  0  0  0  0
    1.1240   -6.0032    0.7399 C   0  0  0  0  0  0  0  0  0  0  0  0
    1.7588   -6.7074    1.7579 C   0  0  0  0  0  0  0  0  0  0  0  0
    1.3122   -7.9863    2.1022 C   0  0  0  0  0  0  0  0  0  0  0  0
    0.2700   -8.6034    1.3960 C   0  0  0  0  0  0  0  0  0  0  0  0
   -0.1851  -10.1794    1.9323 Cl  0  0  0  0  0  0  0  0  0  0  0  0
   -0.3447   -7.9418    0.3300 C   0  0  0  0  0  0  0  0  0  0  0  0
   -1.4416   -8.5331   -0.5195 C   0  0  0  0  0  0  0  0  0  0  0  0
   -1.7768   -9.8253   -0.2622 F   0  0  0  0  0  0  0  0  0  0  0  0
   -2.6061   -7.8307   -0.4266 F   0  0  0  0  0  0  0  0  0  0  0  0
   -1.1120   -8.5150   -1.8448 F   0  0  0  0  0  0  0  0  0  0  0  0
    0.0846   -6.6243    0.0296 C   0  0  0  0  0  0  0  0  0  0  0  0
    2.9281    1.2431    0.3435 H   0  0  0  0  0  0  0  0  0  0  0  0
    3.0180   -0.0468   -0.8512 H   0  0  0  0  0  0  0  0  0  0  0  0
    3.0940   -0.4151    0.9022 H   0  0  0  0  0  0  0  0  0  0  0  0
    0.9118    2.2149    0.2524 H   0  0  0  0  0  0  0  0  0  0  0  0
   -0.0660    2.4743   -2.2525 H   0  0  0  0  0  0  0  0  0  0  0  0
    0.9436    4.5798   -3.0882 H   0  0  0  0  0  0  0  0  0  0  0  0
   -2.1315    7.2345    0.3142 H   0  0  0  0  0  0  0  0  0  0  0  0
   -1.2258   10.4749   -0.9545 H   0  0  0  0  0  0  0  0  0  0  0  0
   -0.8130   10.8690    1.4568 H   0  0  0  0  0  0  0  0  0  0  0  0
   -0.8310    9.0851    1.8059 H   0  0  0  0  0  0  0  0  0  0  0  0
   -3.1578   10.7133    0.5380 H   0  0  0  0  0  0  0  0  0  0  0  0
   -3.1974    8.9430    0.9036 H   0  0  0  0  0  0  0  0  0  0  0  0
   -2.3644    4.8605    0.5072 H   0  0  0  0  0  0  0  0  0  0  0  0
   -2.7580    0.0335   -0.1520 H   0  0  0  0  0  0  0  0  0  0  0  0
   -1.5452   -2.0420   -0.0718 H   0  0  0  0  0  0  0  0  0  0  0  0
    2.1617   -2.3555    0.0756 H   0  0  0  0  0  0  0  0  0  0  0  0
    2.4077   -4.3835    0.8911 H   0  0  0  0  0  0  0  0  0  0  0  0
    2.5518   -6.2528    2.3444 H   0  0  0  0  0  0  0  0  0  0  0  0
    1.7753   -8.4987    2.9438 H   0  0  0  0  0  0  0  0  0  0  0  0
   -0.4100   -6.0843   -0.7792 H   0  0  0  0  0  0  0  0  0  0  0  0
  1  2  1  0  0  0  0
  1 36  1  0  0  0  0
  1 37  1  0  0  0  0
  1 38  1  0  0  0  0
  2  3  1  0  0  0  0
  2 20  2  0  0  0  0
  3  4  2  0  0  0  0
  3 39  1  0  0  0  0
  4  5  1  0  0  0  0
  4 18  1  0  0  0  0
  5  6  1  0  0  0  0
  6  7  1  0  0  0  0
  6 17  2  0  0  0  0
  7  8  2  0  0  0  0
  7 40  1  0  0  0  0
  8  9  1  0  0  0  0
  8 41  1  0  0  0  0
  9 10  2  0  0  0  0
 10 11  1  0  0  0  0
 10 17  1  0  0  0  0
 11 12  1  0  0  0  0
 11 42  1  0  0  0  0
 12 13  2  0  0  0  0
 12 14  1  0  0  0  0
 14 15  1  0  0  0  0
 14 16  1  0  0  0  0
 14 43  1  0  0  0  0
 15 16  1  0  0  0  0
 15 44  1  0  0  0  0
 15 45  1  0  0  0  0
 16 46  1  0  0  0  0
 16 47  1  0  0  0  0
 17 48  1  0  0  0  0
 18 19  2  0  0  0  0
 18 49  1  0  0  0  0
 19 20  1  0  0  0  0
 19 50  1  0  0  0  0
 20 21  1  0  0  0  0
 21 22  1  0  0  0  0
 21 51  1  0  0  0  0
 22 23  2  0  0  0  0
 22 24  1  0  0  0  0
 24 25  1  0  0  0  0
 24 52  1  0  0  0  0
 25 26  1  0  0  0  0
 25 35  2  0  0  0  0
 26 27  2  0  0  0  0
 26 53  1  0  0  0  0
 27 28  1  0  0  0  0
 27 54  1  0  0  0  0
 28 29  1  0  0  0  0
 28 30  2  0  0  0  0
 30 31  1  0  0  0  0
 30 35  1  0  0  0  0
 31 32  1  0  0  0  0
 31 33  1  0  0  0  0
 31 34  1  0  0  0  0
 35 55  1  0  0  0  0
M  END
$$$$
