CHEMBL3633759
 OpenBabel04072215373D

 47 49  0  0  0  0  0  0  0  0999 V2000
    2.6518    1.2600   -0.8796 C   0  0  0  0  0  0  0  0  0  0  0  0
    2.4128    0.1389   -0.0356 O   0  0  0  0  0  0  0  0  0  0  0  0
    3.0670    0.0532    1.1613 C   0  0  0  0  0  0  0  0  0  0  0  0
    4.2187    0.7913    1.4586 C   0  0  0  0  0  0  0  0  0  0  0  0
    4.8269    0.7503    2.7023 C   0  0  0  0  0  0  0  0  0  0  0  0
    5.8956    1.5269    2.8959 N   0  0  0  0  0  0  0  0  0  0  0  0
    6.4579    1.4786    4.1046 C   0  0  0  0  0  0  0  0  0  0  0  0
    6.0649    0.7072    5.1173 N   0  0  0  0  0  0  0  0  0  0  0  0
    4.9978   -0.0899    4.9065 C   0  0  0  0  0  0  0  0  0  0  0  0
    4.5964   -0.9713    5.9499 N   0  0  0  0  0  0  0  0  0  0  0  0
    5.1073   -0.9029    7.2671 C   0  0  0  0  0  0  0  0  0  0  0  0
    5.1285    0.3183    7.9584 C   0  0  0  0  0  0  0  0  0  0  0  0
    5.6971    0.4157    9.2276 C   0  0  0  0  0  0  0  0  0  0  0  0
    6.2446   -0.7144    9.8280 C   0  0  0  0  0  0  0  0  0  0  0  0
    6.2019   -1.9362    9.1582 C   0  0  0  0  0  0  0  0  0  0  0  0
    6.8892   -3.3316    9.9022 Cl  0  0  0  0  0  0  0  0  0  0  0  0
    5.6294   -2.0404    7.8917 C   0  0  0  0  0  0  0  0  0  0  0  0
    4.2994   -0.0901    3.6882 C   0  0  0  0  0  0  0  0  0  0  0  0
    3.1441   -0.8585    3.4000 C   0  0  0  0  0  0  0  0  0  0  0  0
    2.5532   -0.8183    2.1353 C   0  0  0  0  0  0  0  0  0  0  0  0
    1.4597   -1.6423    1.9890 O   0  0  0  0  0  0  0  0  0  0  0  0
    1.4631   -2.3780    0.7668 C   0  0  0  0  0  0  0  0  0  0  0  0
    0.4804   -3.5482    0.8288 C   0  0  0  0  0  0  0  0  0  0  0  0
    0.4672   -4.2545   -0.5251 C   0  0  0  0  0  0  0  0  0  0  0  0
   -0.5466   -5.3674   -0.6379 C   0  0  0  0  0  0  0  0  0  0  0  0
   -1.3198   -5.7092    0.2515 O   0  0  0  0  0  0  0  0  0  0  0  0
   -0.5312   -5.9680   -1.8793 N   0  0  0  0  0  0  0  0  0  0  0  0
   -1.3917   -7.0780   -2.0393 O   0  0  0  0  0  0  0  0  0  0  0  0
    3.3145    0.9610   -1.6972 H   0  0  0  0  0  0  0  0  0  0  0  0
    3.0510    2.1404   -0.3685 H   0  0  0  0  0  0  0  0  0  0  0  0
    1.6912    1.5585   -1.3100 H   0  0  0  0  0  0  0  0  0  0  0  0
    4.6828    1.4312    0.7139 H   0  0  0  0  0  0  0  0  0  0  0  0
    7.3151    2.1190    4.2785 H   0  0  0  0  0  0  0  0  0  0  0  0
    4.5898   -1.9209    5.5902 H   0  0  0  0  0  0  0  0  0  0  0  0
    4.7153    1.2117    7.4921 H   0  0  0  0  0  0  0  0  0  0  0  0
    5.7221    1.3758    9.7350 H   0  0  0  0  0  0  0  0  0  0  0  0
    6.7064   -0.6328   10.8077 H   0  0  0  0  0  0  0  0  0  0  0  0
    5.6250   -2.9998    7.3824 H   0  0  0  0  0  0  0  0  0  0  0  0
    2.6980   -1.4911    4.1643 H   0  0  0  0  0  0  0  0  0  0  0  0
    2.4682   -2.7664    0.5551 H   0  0  0  0  0  0  0  0  0  0  0  0
    1.1349   -1.7313   -0.0535 H   0  0  0  0  0  0  0  0  0  0  0  0
   -0.5204   -3.1810    1.0881 H   0  0  0  0  0  0  0  0  0  0  0  0
    0.7618   -4.2420    1.6303 H   0  0  0  0  0  0  0  0  0  0  0  0
    1.4590   -4.6758   -0.7282 H   0  0  0  0  0  0  0  0  0  0  0  0
    0.2414   -3.5271   -1.3151 H   0  0  0  0  0  0  0  0  0  0  0  0
    0.2605   -5.9173   -2.5105 H   0  0  0  0  0  0  0  0  0  0  0  0
   -1.8615   -7.1058   -1.1773 H   0  0  0  0  0  0  0  0  0  0  0  0
  1  2  1  0  0  0  0
  1 29  1  0  0  0  0
  1 30  1  0  0  0  0
  1 31  1  0  0  0  0
  2  3  1  0  0  0  0
  3  4  1  0  0  0  0
  3 20  2  0  0  0  0
  4  5  2  0  0  0  0
  4 32  1  0  0  0  0
  5  6  1  0  0  0  0
  5 18  1  0  0  0  0
  6  7  2  0  0  0  0
  7  8  1  0  0  0  0
  7 33  1  0  0  0  0
  8  9  2  0  0  0  0
  9 10  1  0  0  0  0
  9 18  1  0  0  0  0
 10 11  1  0  0  0  0
 10 34  1  0  0  0  0
 11 12  1  0  0  0  0
 11 17  2  0  0  0  0
 12 13  2  0  0  0  0
 12 35  1  0  0  0  0
 13 14  1  0  0  0  0
 13 36  1  0  0  0  0
 14 15  2  0  0  0  0
 14 37  1  0  0  0  0
 15 16  1  0  0  0  0
 15 17  1  0  0  0  0
 17 38  1  0  0  0  0
 18 19  2  0  0  0  0
 19 20  1  0  0  0  0
 19 39  1  0  0  0  0
 20 21  1  0  0  0  0
 21 22  1  0  0  0  0
 22 23  1  0  0  0  0
 22 40  1  0  0  0  0
 22 41  1  0  0  0  0
 23 24  1  0  0  0  0
 23 42  1  0  0  0  0
 23 43  1  0  0  0  0
 24 25  1  0  0  0  0
 24 44  1  0  0  0  0
 24 45  1  0  0  0  0
 25 26  2  0  0  0  0
 25 27  1  0  0  0  0
 27 28  1  0  0  0  0
 27 46  1  0  0  0  0
 28 47  1  0  0  0  0
M  END
$$$$
