CHEMBL600632
 OpenBabel04072215383D

 60 64  0  0  1  0  0  0  0  0999 V2000
   -0.0721    3.5459   -2.3210 C   0  0  0  0  0  0  0  0  0  0  0  0
   -0.2664    2.2012   -2.8003 N   0  0  0  0  0  0  0  0  0  0  0  0
    0.6481    1.4318   -3.4567 C   0  0  0  0  0  0  0  0  0  0  0  0
    0.1885    0.2171   -3.6640 N   0  0  0  0  0  0  0  0  0  0  0  0
   -1.0876    0.2195   -3.1506 C   0  0  0  0  0  0  0  0  0  0  0  0
   -1.9799   -0.9725   -3.1464 C   0  0  0  0  0  0  0  0  0  0  0  0
   -1.5734   -2.2268   -3.5406 C   0  0  0  0  0  0  0  0  0  0  0  0
   -2.6039   -3.1993   -3.3920 C   0  0  0  0  0  0  0  0  0  0  0  0
   -2.4734   -4.5249   -3.6717 N   0  0  0  0  0  0  0  0  0  0  0  0
   -3.5608   -5.2815   -3.4425 C   0  0  0  0  0  0  0  0  0  0  0  0
   -4.7761   -4.8116   -2.9855 C   0  0  0  0  0  0  0  0  0  0  0  0
   -4.9322   -3.4407   -2.7746 C   0  0  0  0  0  0  0  0  0  0  0  0
   -6.1310   -2.8710   -2.3903 O   0  0  0  0  0  0  0  0  0  0  0  0
   -7.2814   -3.2807   -3.0279 C   0  0  0  0  0  0  0  0  0  0  0  0
   -7.3084   -3.7783   -4.3303 C   0  0  0  0  0  0  0  0  0  0  0  0
   -8.4919   -4.2920   -4.8575 C   0  0  0  0  0  0  0  0  0  0  0  0
   -9.6816   -4.2527   -4.1243 C   0  0  0  0  0  0  0  0  0  0  0  0
  -10.8904   -4.7689   -4.6356 N   0  0  0  0  0  0  0  0  0  0  0  0
  -10.9765   -5.6769   -5.6755 C   0  0  0  0  0  0  0  0  0  0  0  0
  -10.0445   -6.3256   -6.1342 O   0  0  0  0  0  0  0  0  0  0  0  0
  -12.3754   -5.8347   -6.2238 C   0  0  0  0  0  0  0  0  0  0  0  0
  -12.3557   -6.8148   -7.4073 C   0  0  3  0  0  0  0  0  0  0  0  0
  -13.7661   -7.1716   -7.7791 N   0  0  0  0  0  0  0  0  0  0  0  0
  -14.3061   -8.3592   -7.2516 C   0  0  0  0  0  0  0  0  0  0  0  0
  -14.0553   -8.8019   -5.9473 C   0  0  0  0  0  0  0  0  0  0  0  0
  -14.6624   -9.9527   -5.4375 C   0  0  0  0  0  0  0  0  0  0  0  0
  -15.5491  -10.6783   -6.2228 C   0  0  0  0  0  0  0  0  0  0  0  0
  -15.8456  -10.2375   -7.5089 C   0  0  0  0  0  0  0  0  0  0  0  0
  -15.2479   -9.0740   -8.0078 C   0  0  0  0  0  0  0  0  0  0  0  0
  -11.5657   -6.1993   -8.6077 C   0  0  0  0  0  0  0  0  0  0  0  0
  -11.1188   -4.9457   -8.3704 F   0  0  0  0  0  0  0  0  0  0  0  0
  -10.5079   -6.9650   -8.9578 F   0  0  0  0  0  0  0  0  0  0  0  0
  -12.3651   -6.1227   -9.7069 F   0  0  0  0  0  0  0  0  0  0  0  0
   -9.6820   -3.6404   -2.8694 C   0  0  0  0  0  0  0  0  0  0  0  0
   -8.4830   -3.1695   -2.3284 C   0  0  0  0  0  0  0  0  0  0  0  0
   -8.5025   -2.6187   -1.1052 F   0  0  0  0  0  0  0  0  0  0  0  0
   -3.7950   -2.6354   -2.9326 C   0  0  0  0  0  0  0  0  0  0  0  0
   -3.6072   -0.9530   -2.6454 S   0  0  0  0  0  0  0  0  0  0  0  0
   -1.3967    1.4564   -2.6291 C   0  0  0  0  0  0  0  0  0  0  0  0
    0.8611    3.9473   -2.7211 H   0  0  0  0  0  0  0  0  0  0  0  0
   -0.0279    3.5111   -1.2288 H   0  0  0  0  0  0  0  0  0  0  0  0
   -0.9146    4.1594   -2.6475 H   0  0  0  0  0  0  0  0  0  0  0  0
    1.6267    1.7918   -3.7465 H   0  0  0  0  0  0  0  0  0  0  0  0
   -0.5751   -2.4520   -3.8944 H   0  0  0  0  0  0  0  0  0  0  0  0
   -3.4316   -6.3394   -3.6598 H   0  0  0  0  0  0  0  0  0  0  0  0
   -5.5976   -5.5039   -2.8355 H   0  0  0  0  0  0  0  0  0  0  0  0
   -6.4156   -3.8051   -4.9493 H   0  0  0  0  0  0  0  0  0  0  0  0
   -8.4527   -4.7057   -5.8617 H   0  0  0  0  0  0  0  0  0  0  0  0
  -11.7397   -4.5504   -4.1274 H   0  0  0  0  0  0  0  0  0  0  0  0
  -12.7585   -4.8555   -6.5316 H   0  0  0  0  0  0  0  0  0  0  0  0
  -13.0171   -6.1860   -5.4080 H   0  0  0  0  0  0  0  0  0  0  0  0
  -11.8239   -7.7362   -7.1355 H   0  0  0  0  0  0  0  0  0  0  0  0
  -13.8799   -7.1525   -8.7985 H   0  0  0  0  0  0  0  0  0  0  0  0
  -13.3854   -8.2645   -5.2870 H   0  0  0  0  0  0  0  0  0  0  0  0
  -14.4450  -10.2690   -4.4218 H   0  0  0  0  0  0  0  0  0  0  0  0
  -16.0111  -11.5785   -5.8305 H   0  0  0  0  0  0  0  0  0  0  0  0
  -16.5490  -10.7922   -8.1232 H   0  0  0  0  0  0  0  0  0  0  0  0
  -15.5146   -8.7418   -9.0083 H   0  0  0  0  0  0  0  0  0  0  0  0
  -10.5864   -3.5501   -2.2768 H   0  0  0  0  0  0  0  0  0  0  0  0
   -2.2782    1.8409   -2.1361 H   0  0  0  0  0  0  0  0  0  0  0  0
  1  2  1  0  0  0  0
  1 40  1  0  0  0  0
  1 41  1  0  0  0  0
  1 42  1  0  0  0  0
  2  3  1  0  0  0  0
  2 39  1  0  0  0  0
  3  4  2  0  0  0  0
  3 43  1  0  0  0  0
  4  5  1  0  0  0  0
  5  6  1  0  0  0  0
  5 39  2  0  0  0  0
  6  7  2  0  0  0  0
  6 38  1  0  0  0  0
  7  8  1  0  0  0  0
  7 44  1  0  0  0  0
  8  9  1  0  0  0  0
  8 37  2  0  0  0  0
  9 10  2  0  0  0  0
 10 11  1  0  0  0  0
 10 45  1  0  0  0  0
 11 12  2  0  0  0  0
 11 46  1  0  0  0  0
 12 13  1  0  0  0  0
 12 37  1  0  0  0  0
 13 14  1  0  0  0  0
 14 15  1  0  0  0  0
 14 35  2  0  0  0  0
 15 16  2  0  0  0  0
 15 47  1  0  0  0  0
 16 17  1  0  0  0  0
 16 48  1  0  0  0  0
 17 18  1  0  0  0  0
 17 34  2  0  0  0  0
 18 19  1  0  0  0  0
 18 49  1  0  0  0  0
 19 20  2  0  0  0  0
 19 21  1  0  0  0  0
 21 22  1  0  0  0  0
 21 50  1  0  0  0  0
 21 51  1  0  0  0  0
 22 23  1  0  0  0  0
 22 30  1  0  0  0  0
 22 52  1  0  0  0  0
 23 24  1  0  0  0  0
 23 53  1  0  0  0  0
 24 25  1  0  0  0  0
 24 29  2  0  0  0  0
 25 26  2  0  0  0  0
 25 54  1  0  0  0  0
 26 27  1  0  0  0  0
 26 55  1  0  0  0  0
 27 28  2  0  0  0  0
 27 56  1  0  0  0  0
 28 29  1  0  0  0  0
 28 57  1  0  0  0  0
 29 58  1  0  0  0  0
 30 31  1  0  0  0  0
 30 32  1  0  0  0  0
 30 33  1  0  0  0  0
 34 35  1  0  0  0  0
 34 59  1  0  0  0  0
 35 36  1  0  0  0  0
 37 38  1  0  0  0  0
 39 60  1  0  0  0  0
M  END
$$$$
