CHEMBL1289601
 OpenBabel04072215363D

 49 52  0  0  0  0  0  0  0  0999 V2000
    4.2192   -0.8851   -1.2165 C   0  0  0  0  0  0  0  0  0  0  0  0
    4.1906   -1.1115    0.1932 O   0  0  0  0  0  0  0  0  0  0  0  0
    4.4126   -0.0185    0.9954 C   0  0  0  0  0  0  0  0  0  0  0  0
    5.0823    1.1292    0.5401 C   0  0  0  0  0  0  0  0  0  0  0  0
    5.3385    2.2274    1.3504 C   0  0  0  0  0  0  0  0  0  0  0  0
    6.0053    3.2574    0.8047 N   0  0  0  0  0  0  0  0  0  0  0  0
    6.3065    4.3126    1.5856 C   0  0  0  0  0  0  0  0  0  0  0  0
    5.9560    4.3986    2.9145 C   0  0  0  0  0  0  0  0  0  0  0  0
    5.2517    3.3369    3.4793 C   0  0  0  0  0  0  0  0  0  0  0  0
    5.1045    3.4312    4.8491 O   0  0  0  0  0  0  0  0  0  0  0  0
    3.8963    3.2195    5.4663 C   0  0  0  0  0  0  0  0  0  0  0  0
    2.6585    3.2342    4.8363 C   0  0  0  0  0  0  0  0  0  0  0  0
    1.5054    2.9419    5.5645 C   0  0  0  0  0  0  0  0  0  0  0  0
    1.5416    2.7426    6.9491 C   0  0  0  0  0  0  0  0  0  0  0  0
    0.3527    2.5687    7.7116 N   0  0  0  0  0  0  0  0  0  0  0  0
   -0.9090    2.9088    7.2645 C   0  0  0  0  0  0  0  0  0  0  0  0
   -1.1677    3.4232    6.1756 O   0  0  0  0  0  0  0  0  0  0  0  0
   -1.9142    2.6160    8.1597 N   0  0  0  0  0  0  0  0  0  0  0  0
   -3.2688    2.9436    7.8224 C   0  0  0  0  0  0  0  0  0  0  0  0
   -4.4326    2.5943    8.6974 C   0  0  0  0  0  0  0  0  0  0  0  0
   -4.2225    1.8560    7.4081 C   0  0  0  0  0  0  0  0  0  0  0  0
    2.7945    2.7400    7.5803 C   0  0  0  0  0  0  0  0  0  0  0  0
    2.9402    2.4938    9.2865 Cl  0  0  0  0  0  0  0  0  0  0  0  0
    3.9624    2.9723    6.8420 C   0  0  0  0  0  0  0  0  0  0  0  0
    4.9279    2.1996    2.6954 C   0  0  0  0  0  0  0  0  0  0  0  0
    4.2665    1.0371    3.1594 C   0  0  0  0  0  0  0  0  0  0  0  0
    4.0021   -0.0667    2.3350 C   0  0  0  0  0  0  0  0  0  0  0  0
    3.3095   -1.2164    3.0076 C   0  0  0  0  0  0  0  0  0  0  0  0
    3.1635   -2.3803    2.3161 N   0  0  0  0  0  0  0  0  0  0  0  0
    2.9044   -1.1408    4.1572 O   0  0  0  0  0  0  0  0  0  0  0  0
    3.9612   -1.8250   -1.7128 H   0  0  0  0  0  0  0  0  0  0  0  0
    5.2195   -0.6057   -1.5626 H   0  0  0  0  0  0  0  0  0  0  0  0
    3.4757   -0.1340   -1.5045 H   0  0  0  0  0  0  0  0  0  0  0  0
    5.4660    1.1928   -0.4748 H   0  0  0  0  0  0  0  0  0  0  0  0
    6.8765    5.1006    1.1005 H   0  0  0  0  0  0  0  0  0  0  0  0
    6.2509    5.2565    3.5076 H   0  0  0  0  0  0  0  0  0  0  0  0
    2.5552    3.4281    3.7730 H   0  0  0  0  0  0  0  0  0  0  0  0
    0.5788    2.8619    5.0033 H   0  0  0  0  0  0  0  0  0  0  0  0
    0.4740    2.3695    8.6899 H   0  0  0  0  0  0  0  0  0  0  0  0
   -1.6803    2.4476    9.1283 H   0  0  0  0  0  0  0  0  0  0  0  0
   -3.3506    3.8820    7.2705 H   0  0  0  0  0  0  0  0  0  0  0  0
   -5.2493    3.3085    8.7412 H   0  0  0  0  0  0  0  0  0  0  0  0
   -4.2540    2.0594    9.6202 H   0  0  0  0  0  0  0  0  0  0  0  0
   -4.8832    2.0652    6.5738 H   0  0  0  0  0  0  0  0  0  0  0  0
   -3.8822    0.8282    7.4547 H   0  0  0  0  0  0  0  0  0  0  0  0
    4.9316    2.9661    7.3349 H   0  0  0  0  0  0  0  0  0  0  0  0
    3.9445    0.9774    4.1962 H   0  0  0  0  0  0  0  0  0  0  0  0
    3.5090   -2.4890    1.3729 H   0  0  0  0  0  0  0  0  0  0  0  0
    2.7572   -3.1686    2.7990 H   0  0  0  0  0  0  0  0  0  0  0  0
  1  2  1  0  0  0  0
  1 31  1  0  0  0  0
  1 32  1  0  0  0  0
  1 33  1  0  0  0  0
  2  3  1  0  0  0  0
  3  4  1  0  0  0  0
  3 27  2  0  0  0  0
  4  5  2  0  0  0  0
  4 34  1  0  0  0  0
  5  6  1  0  0  0  0
  5 25  1  0  0  0  0
  6  7  2  0  0  0  0
  7  8  1  0  0  0  0
  7 35  1  0  0  0  0
  8  9  2  0  0  0  0
  8 36  1  0  0  0  0
  9 10  1  0  0  0  0
  9 25  1  0  0  0  0
 10 11  1  0  0  0  0
 11 12  1  0  0  0  0
 11 24  2  0  0  0  0
 12 13  2  0  0  0  0
 12 37  1  0  0  0  0
 13 14  1  0  0  0  0
 13 38  1  0  0  0  0
 14 15  1  0  0  0  0
 14 22  2  0  0  0  0
 15 16  1  0  0  0  0
 15 39  1  0  0  0  0
 16 17  2  0  0  0  0
 16 18  1  0  0  0  0
 18 19  1  0  0  0  0
 18 40  1  0  0  0  0
 19 20  1  0  0  0  0
 19 21  1  0  0  0  0
 19 41  1  0  0  0  0
 20 21  1  0  0  0  0
 20 42  1  0  0  0  0
 20 43  1  0  0  0  0
 21 44  1  0  0  0  0
 21 45  1  0  0  0  0
 22 23  1  0  0  0  0
 22 24  1  0  0  0  0
 24 46  1  0  0  0  0
 25 26  2  0  0  0  0
 26 27  1  0  0  0  0
 26 47  1  0  0  0  0
 27 28  1  0  0  0  0
 28 29  1  0  0  0  0
 28 30  2  0  0  0  0
 29 48  1  0  0  0  0
 29 49  1  0  0  0  0
M  END
$$$$
