CHEMBL4560187
 OpenBabel04072215383D

 61 64  0  0  0  0  0  0  0  0999 V2000
    3.4706   -1.0372   -0.6865 C   0  0  0  0  0  0  0  0  0  0  0  0
    2.5946   -0.3113    0.1772 O   0  0  0  0  0  0  0  0  0  0  0  0
    3.2012    0.4461    1.1405 C   0  0  0  0  0  0  0  0  0  0  0  0
    4.3077    1.2267    0.8023 C   0  0  0  0  0  0  0  0  0  0  0  0
    4.9986    1.9743    1.7736 C   0  0  0  0  0  0  0  0  0  0  0  0
    6.1728    2.6973    1.5145 C   0  0  0  0  0  0  0  0  0  0  0  0
    6.6799    2.7649    0.1829 N   0  0  0  0  0  0  0  0  0  0  0  0
    8.0027    3.1464   -0.1276 C   0  0  0  0  0  0  0  0  0  0  0  0
    9.0849    2.5561    0.5454 C   0  0  0  0  0  0  0  0  0  0  0  0
   10.3930    2.9908    0.3302 C   0  0  0  0  0  0  0  0  0  0  0  0
   10.6343    4.0170   -0.5766 C   0  0  0  0  0  0  0  0  0  0  0  0
    9.5700    4.5699   -1.2806 C   0  0  0  0  0  0  0  0  0  0  0  0
    9.8058    5.5554   -2.1572 F   0  0  0  0  0  0  0  0  0  0  0  0
    8.2617    4.1372   -1.0771 C   0  0  0  0  0  0  0  0  0  0  0  0
    6.8464    3.3252    2.4936 N   0  0  0  0  0  0  0  0  0  0  0  0
    6.3268    3.2578    3.7209 C   0  0  0  0  0  0  0  0  0  0  0  0
    5.1975    2.6282    4.0665 N   0  0  0  0  0  0  0  0  0  0  0  0
    4.5478    1.9745    3.0974 C   0  0  0  0  0  0  0  0  0  0  0  0
    3.3877    1.2618    3.4031 C   0  0  0  0  0  0  0  0  0  0  0  0
    2.6960    0.4951    2.4494 C   0  0  0  0  0  0  0  0  0  0  0  0
    1.5870   -0.1494    2.9606 O   0  0  0  0  0  0  0  0  0  0  0  0
    0.8428   -0.9445    2.0429 C   0  0  0  0  0  0  0  0  0  0  0  0
   -0.3585   -1.6442    2.6730 C   0  0  0  0  0  0  0  0  0  0  0  0
   -0.9567   -2.4171    1.6239 O   0  0  0  0  0  0  0  0  0  0  0  0
   -2.1091   -3.1503    2.0378 C   0  0  0  0  0  0  0  0  0  0  0  0
   -2.6139   -3.9641    0.8402 C   0  0  0  0  0  0  0  0  0  0  0  0
   -3.0352   -3.1211   -0.2764 N   0  0  0  0  0  0  0  0  0  0  0  0
   -4.2757   -2.5245   -0.3113 C   0  0  0  0  0  0  0  0  0  0  0  0
   -5.1353   -2.7180    0.5465 O   0  0  0  0  0  0  0  0  0  0  0  0
   -4.5245   -1.6092   -1.4894 C   0  0  0  0  0  0  0  0  0  0  0  0
   -5.5453   -2.1450   -2.3643 N   0  0  0  0  0  0  0  0  0  0  0  0
   -6.8647   -2.3534   -2.0868 C   0  0  0  0  0  0  0  0  0  0  0  0
   -7.4768   -2.8231   -3.1513 N   0  0  0  0  0  0  0  0  0  0  0  0
   -6.4622   -2.8788   -4.0783 C   0  0  0  0  0  0  0  0  0  0  0  0
   -6.6536   -3.3765   -5.4330 N   0  3  0  0  0  0  0  0  0  0  0  0
   -7.7781   -3.8178   -5.7213 O   0  0  0  0  0  0  0  0  0  0  0  0
   -5.6850   -3.3358   -6.2104 O   0  5  0  0  0  0  0  0  0  0  0  0
   -5.2603   -2.4518   -3.6487 N   0  0  0  0  0  0  0  0  0  0  0  0
    3.1198   -2.0724   -0.7334 H   0  0  0  0  0  0  0  0  0  0  0  0
    4.5148   -1.0616   -0.3548 H   0  0  0  0  0  0  0  0  0  0  0  0
    3.4080   -0.6043   -1.6887 H   0  0  0  0  0  0  0  0  0  0  0  0
    4.6632    1.2325   -0.2239 H   0  0  0  0  0  0  0  0  0  0  0  0
    5.9897    3.2130   -0.4116 H   0  0  0  0  0  0  0  0  0  0  0  0
    8.9016    1.7624    1.2668 H   0  0  0  0  0  0  0  0  0  0  0  0
   11.2102    2.5413    0.8870 H   0  0  0  0  0  0  0  0  0  0  0  0
   11.6397    4.3926   -0.7333 H   0  0  0  0  0  0  0  0  0  0  0  0
    7.4637    4.6133   -1.6358 H   0  0  0  0  0  0  0  0  0  0  0  0
    6.8760    3.7603    4.5100 H   0  0  0  0  0  0  0  0  0  0  0  0
    3.0211    1.2913    4.4271 H   0  0  0  0  0  0  0  0  0  0  0  0
    1.4831   -1.7365    1.6379 H   0  0  0  0  0  0  0  0  0  0  0  0
    0.4601   -0.3148    1.2302 H   0  0  0  0  0  0  0  0  0  0  0  0
   -1.0743   -0.9143    3.0679 H   0  0  0  0  0  0  0  0  0  0  0  0
   -0.0393   -2.2964    3.4942 H   0  0  0  0  0  0  0  0  0  0  0  0
   -2.8766   -2.4555    2.3940 H   0  0  0  0  0  0  0  0  0  0  0  0
   -1.8310   -3.8345    2.8460 H   0  0  0  0  0  0  0  0  0  0  0  0
   -3.4560   -4.5946    1.1383 H   0  0  0  0  0  0  0  0  0  0  0  0
   -1.8146   -4.5988    0.4482 H   0  0  0  0  0  0  0  0  0  0  0  0
   -2.3144   -2.8408   -0.9317 H   0  0  0  0  0  0  0  0  0  0  0  0
   -3.6127   -1.4487   -2.0747 H   0  0  0  0  0  0  0  0  0  0  0  0
   -4.8712   -0.6360   -1.1238 H   0  0  0  0  0  0  0  0  0  0  0  0
   -7.3091   -2.1626   -1.1180 H   0  0  0  0  0  0  0  0  0  0  0  0
  1  2  1  0  0  0  0
  1 39  1  0  0  0  0
  1 40  1  0  0  0  0
  1 41  1  0  0  0  0
  2  3  1  0  0  0  0
  3  4  1  0  0  0  0
  3 20  2  0  0  0  0
  4  5  2  0  0  0  0
  4 42  1  0  0  0  0
  5  6  1  0  0  0  0
  5 18  1  0  0  0  0
  6  7  1  0  0  0  0
  6 15  2  0  0  0  0
  7  8  1  0  0  0  0
  7 43  1  0  0  0  0
  8  9  1  0  0  0  0
  8 14  2  0  0  0  0
  9 10  2  0  0  0  0
  9 44  1  0  0  0  0
 10 11  1  0  0  0  0
 10 45  1  0  0  0  0
 11 12  2  0  0  0  0
 11 46  1  0  0  0  0
 12 13  1  0  0  0  0
 12 14  1  0  0  0  0
 14 47  1  0  0  0  0
 15 16  1  0  0  0  0
 16 17  2  0  0  0  0
 16 48  1  0  0  0  0
 17 18  1  0  0  0  0
 18 19  2  0  0  0  0
 19 20  1  0  0  0  0
 19 49  1  0  0  0  0
 20 21  1  0  0  0  0
 21 22  1  0  0  0  0
 22 23  1  0  0  0  0
 22 50  1  0  0  0  0
 22 51  1  0  0  0  0
 23 24  1  0  0  0  0
 23 52  1  0  0  0  0
 23 53  1  0  0  0  0
 24 25  1  0  0  0  0
 25 26  1  0  0  0  0
 25 54  1  0  0  0  0
 25 55  1  0  0  0  0
 26 27  1  0  0  0  0
 26 56  1  0  0  0  0
 26 57  1  0  0  0  0
 27 28  1  0  0  0  0
 27 58  1  0  0  0  0
 28 29  2  0  0  0  0
 28 30  1  0  0  0  0
 30 31  1  0  0  0  0
 30 59  1  0  0  0  0
 30 60  1  0  0  0  0
 31 32  1  0  0  0  0
 31 38  1  0  0  0  0
 32 33  2  0  0  0  0
 32 61  1  0  0  0  0
 33 34  1  0  0  0  0
 34 35  1  0  0  0  0
 34 38  2  0  0  0  0
 35 36  2  0  0  0  0
 35 37  1  0  0  0  0
M  CHG  2  35   1  37  -1
M  END
$$$$
