CHEMBL427550
 OpenBabel04072215383D

 46 49  0  0  0  0  0  0  0  0999 V2000
    2.0063    3.8858    1.5397 N   0  0  0  0  0  0  0  0  0  0  0  0
    2.9662    4.2384    0.6271 C   0  0  0  0  0  0  0  0  0  0  0  0
    3.5323    5.3300    0.6775 O   0  0  0  0  0  0  0  0  0  0  0  0
    3.3058    3.2249   -0.4042 C   0  0  0  0  0  0  0  0  0  0  0  0
    2.3463    2.2961   -0.7988 C   0  0  0  0  0  0  0  0  0  0  0  0
    2.7046    1.2912   -1.6844 C   0  0  0  0  0  0  0  0  0  0  0  0
    3.9973    1.2577   -2.2306 C   0  0  0  0  0  0  0  0  0  0  0  0
    4.9629    2.2599   -1.9622 C   0  0  0  0  0  0  0  0  0  0  0  0
    6.3062    2.2482   -2.6520 C   0  0  0  0  0  0  0  0  0  0  0  0
    6.6970    1.0242   -3.0790 N   0  0  0  0  0  0  0  0  0  0  0  0
    7.9352    0.8186   -3.6800 N   0  0  0  0  0  0  0  0  0  0  0  0
    8.8360    1.8145   -3.7800 C   0  0  0  0  0  0  0  0  0  0  0  0
   10.1115    1.5866   -4.3641 N   0  0  0  0  0  0  0  0  0  0  0  0
   10.4803    0.6498   -5.3438 C   0  0  0  0  0  0  0  0  0  0  0  0
    9.5951    0.2458   -6.3466 C   0  0  0  0  0  0  0  0  0  0  0  0
    9.9808   -0.6692   -7.3354 C   0  0  0  0  0  0  0  0  0  0  0  0
   11.2632   -1.2120   -7.3301 C   0  0  0  0  0  0  0  0  0  0  0  0
   11.7298   -2.1686   -8.1847 O   0  0  0  0  0  0  0  0  0  0  0  0
   11.1969   -2.1876   -9.5052 C   0  0  0  0  0  0  0  0  0  0  0  0
    9.8647   -2.4341   -9.4841 F   0  0  0  0  0  0  0  0  0  0  0  0
   11.3979   -0.9828  -10.0937 F   0  0  0  0  0  0  0  0  0  0  0  0
   11.9991   -3.4535  -10.4444 Cl  0  0  0  0  0  0  0  0  0  0  0  0
   12.1574   -0.8163   -6.3336 C   0  0  0  0  0  0  0  0  0  0  0  0
   11.7771    0.1203   -5.3630 C   0  0  0  0  0  0  0  0  0  0  0  0
    8.4961    3.1107   -3.3413 C   0  0  0  0  0  0  0  0  0  0  0  0
    9.4152    4.1867   -3.4080 C   0  0  0  0  0  0  0  0  0  0  0  0
    9.0702    5.4828   -3.0477 C   0  0  0  0  0  0  0  0  0  0  0  0
    7.7641    5.7535   -2.6921 C   0  0  0  0  0  0  0  0  0  0  0  0
    6.8301    4.7154   -2.6305 C   0  0  0  0  0  0  0  0  0  0  0  0
    7.1790    3.3550   -2.8526 C   0  0  0  0  0  0  0  0  0  0  0  0
    4.5905    3.2079   -0.9862 C   0  0  0  0  0  0  0  0  0  0  0  0
    1.7873    4.5370    2.2750 H   0  0  0  0  0  0  0  0  0  0  0  0
    1.7049    2.9220    1.6560 H   0  0  0  0  0  0  0  0  0  0  0  0
    1.3251    2.3449   -0.4282 H   0  0  0  0  0  0  0  0  0  0  0  0
    1.9710    0.5309   -1.9545 H   0  0  0  0  0  0  0  0  0  0  0  0
    4.2419    0.4200   -2.8845 H   0  0  0  0  0  0  0  0  0  0  0  0
   10.8636    1.8743   -3.7529 H   0  0  0  0  0  0  0  0  0  0  0  0
    8.5861    0.6510   -6.3786 H   0  0  0  0  0  0  0  0  0  0  0  0
    9.2311   -0.9450   -8.0690 H   0  0  0  0  0  0  0  0  0  0  0  0
   13.1611   -1.2358   -6.3078 H   0  0  0  0  0  0  0  0  0  0  0  0
   12.5052    0.4114   -4.6104 H   0  0  0  0  0  0  0  0  0  0  0  0
   10.4373    4.0308   -3.7648 H   0  0  0  0  0  0  0  0  0  0  0  0
    9.8089    6.2824   -3.0839 H   0  0  0  0  0  0  0  0  0  0  0  0
    7.4584    6.7725   -2.4636 H   0  0  0  0  0  0  0  0  0  0  0  0
    5.8011    5.0011   -2.4318 H   0  0  0  0  0  0  0  0  0  0  0  0
    5.3027    3.9498   -0.6308 H   0  0  0  0  0  0  0  0  0  0  0  0
  1  2  1  0  0  0  0
  1 32  1  0  0  0  0
  1 33  1  0  0  0  0
  2  3  2  0  0  0  0
  2  4  1  0  0  0  0
  4  5  1  0  0  0  0
  4 31  2  0  0  0  0
  5  6  2  0  0  0  0
  5 34  1  0  0  0  0
  6  7  1  0  0  0  0
  6 35  1  0  0  0  0
  7  8  2  0  0  0  0
  7 36  1  0  0  0  0
  8  9  1  0  0  0  0
  8 31  1  0  0  0  0
  9 10  1  0  0  0  0
  9 30  2  0  0  0  0
 10 11  2  0  0  0  0
 11 12  1  0  0  0  0
 12 13  1  0  0  0  0
 12 25  2  0  0  0  0
 13 14  1  0  0  0  0
 13 37  1  0  0  0  0
 14 15  1  0  0  0  0
 14 24  2  0  0  0  0
 15 16  2  0  0  0  0
 15 38  1  0  0  0  0
 16 17  1  0  0  0  0
 16 39  1  0  0  0  0
 17 18  1  0  0  0  0
 17 23  2  0  0  0  0
 18 19  1  0  0  0  0
 19 20  1  0  0  0  0
 19 21  1  0  0  0  0
 19 22  1  0  0  0  0
 23 24  1  0  0  0  0
 23 40  1  0  0  0  0
 24 41  1  0  0  0  0
 25 26  1  0  0  0  0
 25 30  1  0  0  0  0
 26 27  2  0  0  0  0
 26 42  1  0  0  0  0
 27 28  1  0  0  0  0
 27 43  1  0  0  0  0
 28 29  2  0  0  0  0
 28 44  1  0  0  0  0
 29 30  1  0  0  0  0
 29 45  1  0  0  0  0
 31 46  1  0  0  0  0
M  END
$$$$
