CHEMBL517469
 OpenBabel04072215383D

 62 67  0  0  0  0  0  0  0  0999 V2000
    6.3420    7.9628   -3.4847 C   0  0  0  0  0  0  0  0  0  0  0  0
    6.5694    6.6432   -2.7729 C   0  0  0  0  0  0  0  0  0  0  0  0
    5.7765    5.5836   -3.3547 N   0  0  0  0  0  0  0  0  0  0  0  0
    4.5160    5.2194   -2.9810 C   0  0  0  0  0  0  0  0  0  0  0  0
    4.0876    4.1957   -3.6850 N   0  0  0  0  0  0  0  0  0  0  0  0
    5.1287    3.8749   -4.5250 C   0  0  0  0  0  0  0  0  0  0  0  0
    5.1321    2.6771   -5.4020 C   0  0  0  0  0  0  0  0  0  0  0  0
    4.0685    1.8129   -5.4835 C   0  0  0  0  0  0  0  0  0  0  0  0
    4.4163    0.6155   -6.1662 C   0  0  0  0  0  0  0  0  0  0  0  0
    3.5927   -0.4642   -6.2523 N   0  0  0  0  0  0  0  0  0  0  0  0
    4.1350   -1.5741   -6.7693 C   0  0  0  0  0  0  0  0  0  0  0  0
    5.4277   -1.6707   -7.2351 C   0  0  0  0  0  0  0  0  0  0  0  0
    6.2608   -0.5491   -7.2035 C   0  0  0  0  0  0  0  0  0  0  0  0
    7.5847   -0.8568   -7.4879 O   0  0  0  0  0  0  0  0  0  0  0  0
    8.4955    0.0473   -7.9678 C   0  0  0  0  0  0  0  0  0  0  0  0
    9.6987    0.0922   -7.2674 C   0  0  0  0  0  0  0  0  0  0  0  0
   10.8578    0.5808   -7.8778 C   0  0  0  0  0  0  0  0  0  0  0  0
   10.8461    1.0346   -9.2052 C   0  0  0  0  0  0  0  0  0  0  0  0
   12.0376    1.3428   -9.9170 N   0  0  0  0  0  0  0  0  0  0  0  0
   13.3129    1.3633   -9.3850 C   0  0  0  0  0  0  0  0  0  0  0  0
   13.5750    1.3468   -8.1816 O   0  0  0  0  0  0  0  0  0  0  0  0
   14.3560    1.3875  -10.3034 N   0  0  0  0  0  0  0  0  0  0  0  0
   15.7090    1.2696   -9.8116 C   0  0  0  0  0  0  0  0  0  0  0  0
   16.5601    1.2451  -11.0604 C   0  0  0  0  0  0  0  0  0  0  0  0
   15.7518    1.9633  -12.0182 N   0  0  0  0  0  0  0  0  0  0  0  0
   16.2999    2.5399  -13.1938 C   0  0  0  0  0  0  0  0  0  0  0  0
   15.5981    3.5181  -13.9077 C   0  0  0  0  0  0  0  0  0  0  0  0
   16.1673    4.1390  -15.0284 C   0  0  0  0  0  0  0  0  0  0  0  0
   17.4380    3.7805  -15.4684 C   0  0  0  0  0  0  0  0  0  0  0  0
   18.1494    2.8034  -14.7801 C   0  0  0  0  0  0  0  0  0  0  0  0
   17.5855    2.2001  -13.6555 C   0  0  0  0  0  0  0  0  0  0  0  0
   18.3158    1.2584  -13.0378 F   0  0  0  0  0  0  0  0  0  0  0  0
   14.3961    1.9526  -11.6045 C   0  0  0  0  0  0  0  0  0  0  0  0
   13.4033    2.3031  -12.2319 O   0  0  0  0  0  0  0  0  0  0  0  0
    9.6095    1.0793   -9.8689 C   0  0  0  0  0  0  0  0  0  0  0  0
    8.4446    0.5892   -9.2488 C   0  0  0  0  0  0  0  0  0  0  0  0
    7.3031    0.5582   -9.9519 F   0  0  0  0  0  0  0  0  0  0  0  0
    5.7381    0.6272   -6.6423 C   0  0  0  0  0  0  0  0  0  0  0  0
    6.4577    2.1565   -6.3340 S   0  0  0  0  0  0  0  0  0  0  0  0
    6.1799    4.7453   -4.3526 C   0  0  0  0  0  0  0  0  0  0  0  0
    6.9660    8.7454   -3.0450 H   0  0  0  0  0  0  0  0  0  0  0  0
    5.2943    8.2726   -3.4093 H   0  0  0  0  0  0  0  0  0  0  0  0
    6.5889    7.8827   -4.5491 H   0  0  0  0  0  0  0  0  0  0  0  0
    6.3077    6.7172   -1.7120 H   0  0  0  0  0  0  0  0  0  0  0  0
    7.6222    6.3458   -2.8382 H   0  0  0  0  0  0  0  0  0  0  0  0
    3.9642    5.7179   -2.1951 H   0  0  0  0  0  0  0  0  0  0  0  0
    3.1236    1.9689   -4.9774 H   0  0  0  0  0  0  0  0  0  0  0  0
    3.4841   -2.4448   -6.7654 H   0  0  0  0  0  0  0  0  0  0  0  0
    5.8094   -2.6253   -7.5822 H   0  0  0  0  0  0  0  0  0  0  0  0
    9.7639   -0.3390   -6.2710 H   0  0  0  0  0  0  0  0  0  0  0  0
   11.7676    0.5185   -7.2942 H   0  0  0  0  0  0  0  0  0  0  0  0
   11.9656    1.5402  -10.9129 H   0  0  0  0  0  0  0  0  0  0  0  0
   15.8372    0.3859   -9.1790 H   0  0  0  0  0  0  0  0  0  0  0  0
   15.9245    2.1633   -9.2120 H   0  0  0  0  0  0  0  0  0  0  0  0
   16.6943    0.2177  -11.4196 H   0  0  0  0  0  0  0  0  0  0  0  0
   17.5299    1.7165  -10.8788 H   0  0  0  0  0  0  0  0  0  0  0  0
   14.6165    3.8517  -13.5859 H   0  0  0  0  0  0  0  0  0  0  0  0
   15.6104    4.9123  -15.5532 H   0  0  0  0  0  0  0  0  0  0  0  0
   17.8732    4.2607  -16.3416 H   0  0  0  0  0  0  0  0  0  0  0  0
   19.1398    2.5047  -15.1089 H   0  0  0  0  0  0  0  0  0  0  0  0
    9.5360    1.4338  -10.8927 H   0  0  0  0  0  0  0  0  0  0  0  0
    7.1565    4.8072   -4.8109 H   0  0  0  0  0  0  0  0  0  0  0  0
  1  2  1  0  0  0  0
  1 41  1  0  0  0  0
  1 42  1  0  0  0  0
  1 43  1  0  0  0  0
  2  3  1  0  0  0  0
  2 44  1  0  0  0  0
  2 45  1  0  0  0  0
  3  4  1  0  0  0  0
  3 40  1  0  0  0  0
  4  5  2  0  0  0  0
  4 46  1  0  0  0  0
  5  6  1  0  0  0  0
  6  7  1  0  0  0  0
  6 40  2  0  0  0  0
  7  8  2  0  0  0  0
  7 39  1  0  0  0  0
  8  9  1  0  0  0  0
  8 47  1  0  0  0  0
  9 10  1  0  0  0  0
  9 38  2  0  0  0  0
 10 11  2  0  0  0  0
 11 12  1  0  0  0  0
 11 48  1  0  0  0  0
 12 13  2  0  0  0  0
 12 49  1  0  0  0  0
 13 14  1  0  0  0  0
 13 38  1  0  0  0  0
 14 15  1  0  0  0  0
 15 16  1  0  0  0  0
 15 36  2  0  0  0  0
 16 17  2  0  0  0  0
 16 50  1  0  0  0  0
 17 18  1  0  0  0  0
 17 51  1  0  0  0  0
 18 19  1  0  0  0  0
 18 35  2  0  0  0  0
 19 20  1  0  0  0  0
 19 52  1  0  0  0  0
 20 21  2  0  0  0  0
 20 22  1  0  0  0  0
 22 23  1  0  0  0  0
 22 33  1  0  0  0  0
 23 24  1  0  0  0  0
 23 53  1  0  0  0  0
 23 54  1  0  0  0  0
 24 25  1  0  0  0  0
 24 55  1  0  0  0  0
 24 56  1  0  0  0  0
 25 26  1  0  0  0  0
 25 33  1  0  0  0  0
 26 27  1  0  0  0  0
 26 31  2  0  0  0  0
 27 28  2  0  0  0  0
 27 57  1  0  0  0  0
 28 29  1  0  0  0  0
 28 58  1  0  0  0  0
 29 30  2  0  0  0  0
 29 59  1  0  0  0  0
 30 31  1  0  0  0  0
 30 60  1  0  0  0  0
 31 32  1  0  0  0  0
 33 34  2  0  0  0  0
 35 36  1  0  0  0  0
 35 61  1  0  0  0  0
 36 37  1  0  0  0  0
 38 39  1  0  0  0  0
 40 62  1  0  0  0  0
M  END
$$$$
