CHEMBL1978267
 OpenBabel04072215363D

 77 83  0  0  0  0  0  0  0  0999 V2000
    3.0306   -0.7886   -1.1225 C   0  0  0  0  0  0  0  0  0  0  0  0
    2.3140   -0.0713   -0.0546 N   0  0  0  0  0  0  0  0  0  0  0  0
    1.3170   -0.8804    0.6520 C   0  0  0  0  0  0  0  0  0  0  0  0
    3.0739    0.8662    0.6894 C   0  0  0  0  0  0  0  0  0  0  0  0
    3.0076    0.9346    2.0966 C   0  0  0  0  0  0  0  0  0  0  0  0
    3.8157    1.8054    2.8485 C   0  0  0  0  0  0  0  0  0  0  0  0
    4.7291    2.6526    2.2230 C   0  0  0  0  0  0  0  0  0  0  0  0
    5.5173    3.5938    3.0171 C   0  0  0  0  0  0  0  0  0  0  0  0
    5.9787    3.2542    4.2811 N   0  0  0  0  0  0  0  0  0  0  0  0
    6.6172    4.3192    4.6624 C   0  0  0  0  0  0  0  0  0  0  0  0
    7.4999    4.7527    6.0966 S   0  0  0  0  0  0  0  0  0  0  0  0
    7.8114    6.3386    5.3809 C   0  0  0  0  0  0  0  0  0  0  0  0
    7.2570    6.4830    4.1657 C   0  0  0  0  0  0  0  0  0  0  0  0
    6.5928    5.3399    3.7605 N   0  0  0  0  0  0  0  0  0  0  0  0
    5.8711    4.9092    2.6673 C   0  0  0  0  0  0  0  0  0  0  0  0
    5.5466    5.7351    1.5077 C   0  0  0  0  0  0  0  0  0  0  0  0
    6.4327    6.6338    0.9570 C   0  0  0  0  0  0  0  0  0  0  0  0
    5.9638    7.3543   -0.1100 C   0  0  0  0  0  0  0  0  0  0  0  0
    4.7472    7.1751   -0.6353 N   0  0  0  0  0  0  0  0  0  0  0  0
    3.9611    6.2460   -0.0682 C   0  0  0  0  0  0  0  0  0  0  0  0
    2.7082    5.9698   -0.6354 N   0  0  0  0  0  0  0  0  0  0  0  0
    1.8244    6.9398   -1.1483 C   0  0  0  0  0  0  0  0  0  0  0  0
    0.8434    6.5628   -2.0641 C   0  0  0  0  0  0  0  0  0  0  0  0
   -0.0199    7.5201   -2.5920 C   0  0  0  0  0  0  0  0  0  0  0  0
    0.0609    8.8505   -2.1682 C   0  0  0  0  0  0  0  0  0  0  0  0
    0.9940    9.2595   -1.2106 C   0  0  0  0  0  0  0  0  0  0  0  0
    1.0463   10.5499   -0.7326 N   0  0  0  0  0  0  0  0  0  0  0  0
   -0.1468   11.3876   -0.5825 C   0  0  0  0  0  0  0  0  0  0  0  0
   -0.0160   12.6361   -1.4607 C   0  0  0  0  0  0  0  0  0  0  0  0
    1.1864   13.3644   -1.1539 O   0  0  0  0  0  0  0  0  0  0  0  0
    2.3424   12.5368   -1.3809 C   0  0  0  0  0  0  0  0  0  0  0  0
    2.3186   11.2561   -0.5230 C   0  0  0  0  0  0  0  0  0  0  0  0
    1.8702    8.2804   -0.7270 C   0  0  0  0  0  0  0  0  0  0  0  0
    4.3146    5.5395    1.0103 N   0  0  0  0  0  0  0  0  0  0  0  0
    4.8335    2.5858    0.8331 C   0  0  0  0  0  0  0  0  0  0  0  0
    3.9863    1.7618    0.0720 C   0  0  0  0  0  0  0  0  0  0  0  0
    3.9699    1.9359   -1.3340 N   0  0  0  0  0  0  0  0  0  0  0  0
    5.1204    2.0383   -2.0935 C   0  0  0  0  0  0  0  0  0  0  0  0
    6.2667    1.9524   -1.6626 O   0  0  0  0  0  0  0  0  0  0  0  0
    4.9300    2.1577   -3.5617 C   0  0  0  0  0  0  0  0  0  0  0  0
    3.9202    2.9485   -4.1196 C   0  0  0  0  0  0  0  0  0  0  0  0
    3.8459    3.0936   -5.5091 C   0  0  0  0  0  0  0  0  0  0  0  0
    4.7680    2.4479   -6.3364 C   0  0  0  0  0  0  0  0  0  0  0  0
    5.7682    1.6521   -5.7815 C   0  0  0  0  0  0  0  0  0  0  0  0
    5.8516    1.5104   -4.3967 C   0  0  0  0  0  0  0  0  0  0  0  0
    2.6384   -1.8013   -1.2679 H   0  0  0  0  0  0  0  0  0  0  0  0
    4.1030   -0.8889   -0.9230 H   0  0  0  0  0  0  0  0  0  0  0  0
    2.8787   -0.2836   -2.0819 H   0  0  0  0  0  0  0  0  0  0  0  0
    0.9047   -1.6587   -0.0009 H   0  0  0  0  0  0  0  0  0  0  0  0
    0.4743   -0.2549    0.9630 H   0  0  0  0  0  0  0  0  0  0  0  0
    1.7363   -1.4005    1.5206 H   0  0  0  0  0  0  0  0  0  0  0  0
    2.3405    0.2954    2.6651 H   0  0  0  0  0  0  0  0  0  0  0  0
    3.7221    1.8149    3.9336 H   0  0  0  0  0  0  0  0  0  0  0  0
    8.3829    7.0957    5.9015 H   0  0  0  0  0  0  0  0  0  0  0  0
    7.3049    7.3633    3.5446 H   0  0  0  0  0  0  0  0  0  0  0  0
    7.4409    6.7772    1.3139 H   0  0  0  0  0  0  0  0  0  0  0  0
    6.5693    8.1110   -0.5985 H   0  0  0  0  0  0  0  0  0  0  0  0
    2.2540    5.2692   -0.0601 H   0  0  0  0  0  0  0  0  0  0  0  0
    0.7710    5.5320   -2.3966 H   0  0  0  0  0  0  0  0  0  0  0  0
   -0.7531    7.2377   -3.3415 H   0  0  0  0  0  0  0  0  0  0  0  0
   -0.6067    9.5760   -2.6238 H   0  0  0  0  0  0  0  0  0  0  0  0
   -0.2056   11.6932    0.4700 H   0  0  0  0  0  0  0  0  0  0  0  0
   -1.0758   10.8532   -0.8051 H   0  0  0  0  0  0  0  0  0  0  0  0
   -0.8642   13.3040   -1.2823 H   0  0  0  0  0  0  0  0  0  0  0  0
   -0.0120   12.3716   -2.5246 H   0  0  0  0  0  0  0  0  0  0  0  0
    3.2267   13.1336   -1.1347 H   0  0  0  0  0  0  0  0  0  0  0  0
    2.3933   12.2906   -2.4482 H   0  0  0  0  0  0  0  0  0  0  0  0
    2.3921   11.5281    0.5368 H   0  0  0  0  0  0  0  0  0  0  0  0
    3.1949   10.6482   -0.7751 H   0  0  0  0  0  0  0  0  0  0  0  0
    2.5851    8.5630    0.0412 H   0  0  0  0  0  0  0  0  0  0  0  0
    5.5343    3.2363    0.3187 H   0  0  0  0  0  0  0  0  0  0  0  0
    3.1004    1.6847   -1.7858 H   0  0  0  0  0  0  0  0  0  0  0  0
    3.2224    3.4932   -3.4890 H   0  0  0  0  0  0  0  0  0  0  0  0
    3.0831    3.7313   -5.9501 H   0  0  0  0  0  0  0  0  0  0  0  0
    4.7190    2.5791   -7.4151 H   0  0  0  0  0  0  0  0  0  0  0  0
    6.4946    1.1576   -6.4219 H   0  0  0  0  0  0  0  0  0  0  0  0
    6.6471    0.9063   -3.9640 H   0  0  0  0  0  0  0  0  0  0  0  0
  1  2  1  0  0  0  0
  1 46  1  0  0  0  0
  1 47  1  0  0  0  0
  1 48  1  0  0  0  0
  2  3  1  0  0  0  0
  2  4  1  0  0  0  0
  3 49  1  0  0  0  0
  3 50  1  0  0  0  0
  3 51  1  0  0  0  0
  4  5  1  0  0  0  0
  4 36  2  0  0  0  0
  5  6  2  0  0  0  0
  5 52  1  0  0  0  0
  6  7  1  0  0  0  0
  6 53  1  0  0  0  0
  7  8  1  0  0  0  0
  7 35  2  0  0  0  0
  8  9  1  0  0  0  0
  8 15  2  0  0  0  0
  9 10  2  0  0  0  0
 10 11  1  0  0  0  0
 10 14  1  0  0  0  0
 11 12  1  0  0  0  0
 12 13  2  0  0  0  0
 12 54  1  0  0  0  0
 13 14  1  0  0  0  0
 13 55  1  0  0  0  0
 14 15  1  0  0  0  0
 15 16  1  0  0  0  0
 16 17  1  0  0  0  0
 16 34  2  0  0  0  0
 17 18  2  0  0  0  0
 17 56  1  0  0  0  0
 18 19  1  0  0  0  0
 18 57  1  0  0  0  0
 19 20  2  0  0  0  0
 20 21  1  0  0  0  0
 20 34  1  0  0  0  0
 21 22  1  0  0  0  0
 21 58  1  0  0  0  0
 22 23  1  0  0  0  0
 22 33  2  0  0  0  0
 23 24  2  0  0  0  0
 23 59  1  0  0  0  0
 24 25  1  0  0  0  0
 24 60  1  0  0  0  0
 25 26  2  0  0  0  0
 25 61  1  0  0  0  0
 26 27  1  0  0  0  0
 26 33  1  0  0  0  0
 27 28  1  0  0  0  0
 27 32  1  0  0  0  0
 28 29  1  0  0  0  0
 28 62  1  0  0  0  0
 28 63  1  0  0  0  0
 29 30  1  0  0  0  0
 29 64  1  0  0  0  0
 29 65  1  0  0  0  0
 30 31  1  0  0  0  0
 31 32  1  0  0  0  0
 31 66  1  0  0  0  0
 31 67  1  0  0  0  0
 32 68  1  0  0  0  0
 32 69  1  0  0  0  0
 33 70  1  0  0  0  0
 35 36  1  0  0  0  0
 35 71  1  0  0  0  0
 36 37  1  0  0  0  0
 37 38  1  0  0  0  0
 37 72  1  0  0  0  0
 38 39  2  0  0  0  0
 38 40  1  0  0  0  0
 40 41  1  0  0  0  0
 40 45  2  0  0  0  0
 41 42  2  0  0  0  0
 41 73  1  0  0  0  0
 42 43  1  0  0  0  0
 42 74  1  0  0  0  0
 43 44  2  0  0  0  0
 43 75  1  0  0  0  0
 44 45  1  0  0  0  0
 44 76  1  0  0  0  0
 45 77  1  0  0  0  0
M  END
$$$$
