CHEMBL118569
 OpenBabel04072215363D

 54 57  0  0  0  0  0  0  0  0999 V2000
    2.1992    0.9459   -3.0739 C   0  0  0  0  0  0  0  0  0  0  0  0
    3.3204    0.6728   -2.2391 O   0  0  0  0  0  0  0  0  0  0  0  0
    3.8142   -0.6457   -2.4862 C   0  0  0  0  0  0  0  0  0  0  0  0
    5.0620   -0.9153   -1.6307 C   0  0  0  0  0  0  0  0  0  0  0  0
    5.6183   -2.2723   -1.8129 N   0  0  0  0  0  0  0  0  0  0  0  0
    6.0464   -2.4947   -3.1991 C   0  0  0  0  0  0  0  0  0  0  0  0
    6.7316   -2.4877   -0.8595 C   0  0  0  0  0  0  0  0  0  0  0  0
    7.3192   -3.9006   -0.9510 C   0  0  0  0  0  0  0  0  0  0  0  0
    8.3354   -4.0969    0.0299 O   0  0  0  0  0  0  0  0  0  0  0  0
    8.9841   -5.3054   -0.0676 C   0  0  0  0  0  0  0  0  0  0  0  0
    8.6366   -6.3458   -0.9381 C   0  0  0  0  0  0  0  0  0  0  0  0
    9.3575   -7.5425   -0.9760 C   0  0  0  0  0  0  0  0  0  0  0  0
   10.4419   -7.6564   -0.1087 C   0  0  0  0  0  0  0  0  0  0  0  0
   11.3320   -8.6855    0.0600 N   0  0  0  0  0  0  0  0  0  0  0  0
   12.2909   -8.3623    0.9935 C   0  0  0  0  0  0  0  0  0  0  0  0
   13.4376   -9.2244    1.2846 C   0  0  0  0  0  0  0  0  0  0  0  0
   14.3530   -8.8602    2.2707 C   0  0  0  0  0  0  0  0  0  0  0  0
   15.5176   -9.6076    2.4688 C   0  0  0  0  0  0  0  0  0  0  0  0
   16.4729   -9.2122    3.4160 C   0  0  0  0  0  0  0  0  0  0  0  0
   17.6534   -9.9359    3.5599 C   0  0  0  0  0  0  0  0  0  0  0  0
   17.8719  -11.0573    2.7676 C   0  0  0  0  0  0  0  0  0  0  0  0
   16.9047  -11.4592    1.8397 C   0  0  0  0  0  0  0  0  0  0  0  0
   15.7236  -10.7508    1.6678 C   0  0  0  0  0  0  0  0  0  0  0  0
   14.8330  -11.1551    0.7465 N   0  0  0  0  0  0  0  0  0  0  0  0
   13.7386  -10.3898    0.5825 C   0  0  0  0  0  0  0  0  0  0  0  0
   12.9285  -10.8718   -0.4012 O   0  0  0  0  0  0  0  0  0  0  0  0
   11.9535   -7.1075    1.4743 C   0  0  0  0  0  0  0  0  0  0  0  0
   10.8110   -6.6465    0.7734 C   0  0  0  0  0  0  0  0  0  0  0  0
   10.0719   -5.4514    0.7962 C   0  0  0  0  0  0  0  0  0  0  0  0
    1.8766    1.9746   -2.8970 H   0  0  0  0  0  0  0  0  0  0  0  0
    1.3751    0.2682   -2.8325 H   0  0  0  0  0  0  0  0  0  0  0  0
    2.4716    0.8418   -4.1296 H   0  0  0  0  0  0  0  0  0  0  0  0
    4.0577   -0.7142   -3.5503 H   0  0  0  0  0  0  0  0  0  0  0  0
    3.0337   -1.3777   -2.2486 H   0  0  0  0  0  0  0  0  0  0  0  0
    4.7745   -0.7777   -0.5801 H   0  0  0  0  0  0  0  0  0  0  0  0
    5.8203   -0.1477   -1.8356 H   0  0  0  0  0  0  0  0  0  0  0  0
    5.2168   -2.3840   -3.9017 H   0  0  0  0  0  0  0  0  0  0  0  0
    6.3738   -3.5270   -3.3580 H   0  0  0  0  0  0  0  0  0  0  0  0
    6.8529   -1.8171   -3.4945 H   0  0  0  0  0  0  0  0  0  0  0  0
    6.3691   -2.3433    0.1671 H   0  0  0  0  0  0  0  0  0  0  0  0
    7.5313   -1.7493   -1.0054 H   0  0  0  0  0  0  0  0  0  0  0  0
    7.7738   -4.0339   -1.9384 H   0  0  0  0  0  0  0  0  0  0  0  0
    6.5126   -4.6273   -0.7940 H   0  0  0  0  0  0  0  0  0  0  0  0
    7.7957   -6.2654   -1.6195 H   0  0  0  0  0  0  0  0  0  0  0  0
    9.0836   -8.3389   -1.6596 H   0  0  0  0  0  0  0  0  0  0  0  0
   11.3318   -9.5490   -0.4686 H   0  0  0  0  0  0  0  0  0  0  0  0
   14.1829   -7.9719    2.8724 H   0  0  0  0  0  0  0  0  0  0  0  0
   16.3098   -8.3330    4.0343 H   0  0  0  0  0  0  0  0  0  0  0  0
   18.4016   -9.6180    4.2811 H   0  0  0  0  0  0  0  0  0  0  0  0
   18.7957  -11.6211    2.8640 H   0  0  0  0  0  0  0  0  0  0  0  0
   17.0870  -12.3362    1.2242 H   0  0  0  0  0  0  0  0  0  0  0  0
   13.4551  -11.6483   -0.6630 H   0  0  0  0  0  0  0  0  0  0  0  0
   12.4956   -6.5410    2.2194 H   0  0  0  0  0  0  0  0  0  0  0  0
   10.3520   -4.6446    1.4662 H   0  0  0  0  0  0  0  0  0  0  0  0
  1  2  1  0  0  0  0
  1 30  1  0  0  0  0
  1 31  1  0  0  0  0
  1 32  1  0  0  0  0
  2  3  1  0  0  0  0
  3  4  1  0  0  0  0
  3 33  1  0  0  0  0
  3 34  1  0  0  0  0
  4  5  1  0  0  0  0
  4 35  1  0  0  0  0
  4 36  1  0  0  0  0
  5  6  1  0  0  0  0
  5  7  1  0  0  0  0
  6 37  1  0  0  0  0
  6 38  1  0  0  0  0
  6 39  1  0  0  0  0
  7  8  1  0  0  0  0
  7 40  1  0  0  0  0
  7 41  1  0  0  0  0
  8  9  1  0  0  0  0
  8 42  1  0  0  0  0
  8 43  1  0  0  0  0
  9 10  1  0  0  0  0
 10 11  1  0  0  0  0
 10 29  2  0  0  0  0
 11 12  2  0  0  0  0
 11 44  1  0  0  0  0
 12 13  1  0  0  0  0
 12 45  1  0  0  0  0
 13 14  1  0  0  0  0
 13 28  2  0  0  0  0
 14 15  1  0  0  0  0
 14 46  1  0  0  0  0
 15 16  1  0  0  0  0
 15 27  2  0  0  0  0
 16 17  1  0  0  0  0
 16 25  2  0  0  0  0
 17 18  2  0  0  0  0
 17 47  1  0  0  0  0
 18 19  1  0  0  0  0
 18 23  1  0  0  0  0
 19 20  2  0  0  0  0
 19 48  1  0  0  0  0
 20 21  1  0  0  0  0
 20 49  1  0  0  0  0
 21 22  2  0  0  0  0
 21 50  1  0  0  0  0
 22 23  1  0  0  0  0
 22 51  1  0  0  0  0
 23 24  2  0  0  0  0
 24 25  1  0  0  0  0
 25 26  1  0  0  0  0
 26 52  1  0  0  0  0
 27 28  1  0  0  0  0
 27 53  1  0  0  0  0
 28 29  1  0  0  0  0
 29 54  1  0  0  0  0
M  END
$$$$
