CHEMBL3947019
 OpenBabel04072215373D

 52 55  0  0  0  0  0  0  0  0999 V2000
    1.0895   -0.0685   -0.4788 O   0  0  0  0  0  0  0  0  0  0  0  0
    2.1879    0.0126    0.0560 C   0  0  0  0  0  0  0  0  0  0  0  0
    2.7482   -0.9951    0.8343 N   0  0  0  0  0  0  0  0  0  0  0  0
    2.1117   -2.2364    1.1252 C   0  0  0  0  0  0  0  0  0  0  0  0
    1.0133   -2.7040    0.3936 C   0  0  0  0  0  0  0  0  0  0  0  0
    0.3237   -3.8516    0.7765 C   0  0  0  0  0  0  0  0  0  0  0  0
    0.7461   -4.5738    1.8831 C   0  0  0  0  0  0  0  0  0  0  0  0
    1.9077   -4.1978    2.5642 C   0  0  0  0  0  0  0  0  0  0  0  0
    2.3855   -4.9088    3.6541 O   0  0  0  0  0  0  0  0  0  0  0  0
    2.3123   -6.3036    3.6010 C   0  0  0  0  0  0  0  0  0  0  0  0
    2.2916   -6.9912    4.8007 C   0  0  0  0  0  0  0  0  0  0  0  0
    2.2345   -8.3692    4.7040 C   0  0  0  0  0  0  0  0  0  0  0  0
    2.2853   -9.1513    5.8783 N   0  0  0  0  0  0  0  0  0  0  0  0
    2.3391  -10.5305    5.8762 C   0  0  0  0  0  0  0  0  0  0  0  0
    2.3048  -11.2663    4.8997 O   0  0  0  0  0  0  0  0  0  0  0  0
    2.4885  -11.2070    7.2006 C   0  0  0  0  0  0  0  0  0  0  0  0
    2.3873  -10.5840    8.5661 C   0  0  0  0  0  0  0  0  0  0  0  0
    3.7349  -10.9593    8.0205 C   0  0  0  0  0  0  0  0  0  0  0  0
    2.1620   -8.9868    3.5190 N   0  0  0  0  0  0  0  0  0  0  0  0
    2.2027   -8.2343    2.4207 C   0  0  0  0  0  0  0  0  0  0  0  0
    2.3066   -6.9079    2.4000 N   0  0  0  0  0  0  0  0  0  0  0  0
    2.5789   -3.0162    2.1982 C   0  0  0  0  0  0  0  0  0  0  0  0
    2.9955    1.1400   -0.0282 N   0  0  0  0  0  0  0  0  0  0  0  0
    2.6629    2.3584   -0.6850 C   0  0  0  0  0  0  0  0  0  0  0  0
    1.4502    2.5831   -1.3431 C   0  0  0  0  0  0  0  0  0  0  0  0
    1.1960    3.7896   -1.9993 C   0  0  0  0  0  0  0  0  0  0  0  0
    2.1407    4.8103   -1.9836 C   0  0  0  0  0  0  0  0  0  0  0  0
    3.3229    4.6422   -1.2687 C   0  0  0  0  0  0  0  0  0  0  0  0
    4.2980    5.5832   -1.1228 O   0  0  0  0  0  0  0  0  0  0  0  0
    3.9461    6.9630   -1.1406 C   0  0  0  0  0  0  0  0  0  0  0  0
    2.6212    7.2042   -1.0560 F   0  0  0  0  0  0  0  0  0  0  0  0
    4.5366    7.5647   -0.0825 F   0  0  0  0  0  0  0  0  0  0  0  0
    4.4233    7.5332   -2.2676 F   0  0  0  0  0  0  0  0  0  0  0  0
    3.5966    3.4034   -0.6605 C   0  0  0  0  0  0  0  0  0  0  0  0
    3.5477   -0.7549    1.3984 H   0  0  0  0  0  0  0  0  0  0  0  0
    0.6515   -2.1919   -0.4921 H   0  0  0  0  0  0  0  0  0  0  0  0
   -0.5449   -4.1736    0.2091 H   0  0  0  0  0  0  0  0  0  0  0  0
    0.1775   -5.4507    2.1786 H   0  0  0  0  0  0  0  0  0  0  0  0
    2.3251   -6.4677    5.7442 H   0  0  0  0  0  0  0  0  0  0  0  0
    2.3431   -8.6655    6.7610 H   0  0  0  0  0  0  0  0  0  0  0  0
    2.1600  -12.2452    7.1470 H   0  0  0  0  0  0  0  0  0  0  0  0
    1.9838  -11.2051    9.3622 H   0  0  0  0  0  0  0  0  0  0  0  0
    2.1467   -9.5376    8.6811 H   0  0  0  0  0  0  0  0  0  0  0  0
    4.2395  -11.8301    8.4262 H   0  0  0  0  0  0  0  0  0  0  0  0
    4.4078  -10.1649    7.7198 H   0  0  0  0  0  0  0  0  0  0  0  0
    2.1443   -8.7489    1.4687 H   0  0  0  0  0  0  0  0  0  0  0  0
    3.4494   -2.7087    2.7694 H   0  0  0  0  0  0  0  0  0  0  0  0
    3.9178    1.0816    0.3736 H   0  0  0  0  0  0  0  0  0  0  0  0
    0.6648    1.8362   -1.3846 H   0  0  0  0  0  0  0  0  0  0  0  0
    0.2513    3.9253   -2.5213 H   0  0  0  0  0  0  0  0  0  0  0  0
    1.9152    5.7192   -2.5336 H   0  0  0  0  0  0  0  0  0  0  0  0
    4.5477    3.2776   -0.1495 H   0  0  0  0  0  0  0  0  0  0  0  0
  1  2  2  0  0  0  0
  2  3  1  0  0  0  0
  2 23  1  0  0  0  0
  3  4  1  0  0  0  0
  3 35  1  0  0  0  0
  4  5  1  0  0  0  0
  4 22  2  0  0  0  0
  5  6  2  0  0  0  0
  5 36  1  0  0  0  0
  6  7  1  0  0  0  0
  6 37  1  0  0  0  0
  7  8  2  0  0  0  0
  7 38  1  0  0  0  0
  8  9  1  0  0  0  0
  8 22  1  0  0  0  0
  9 10  1  0  0  0  0
 10 11  1  0  0  0  0
 10 21  2  0  0  0  0
 11 12  2  0  0  0  0
 11 39  1  0  0  0  0
 12 13  1  0  0  0  0
 12 19  1  0  0  0  0
 13 14  1  0  0  0  0
 13 40  1  0  0  0  0
 14 15  2  0  0  0  0
 14 16  1  0  0  0  0
 16 17  1  0  0  0  0
 16 18  1  0  0  0  0
 16 41  1  0  0  0  0
 17 18  1  0  0  0  0
 17 42  1  0  0  0  0
 17 43  1  0  0  0  0
 18 44  1  0  0  0  0
 18 45  1  0  0  0  0
 19 20  2  0  0  0  0
 20 21  1  0  0  0  0
 20 46  1  0  0  0  0
 22 47  1  0  0  0  0
 23 24  1  0  0  0  0
 23 48  1  0  0  0  0
 24 25  1  0  0  0  0
 24 34  2  0  0  0  0
 25 26  2  0  0  0  0
 25 49  1  0  0  0  0
 26 27  1  0  0  0  0
 26 50  1  0  0  0  0
 27 28  2  0  0  0  0
 27 51  1  0  0  0  0
 28 29  1  0  0  0  0
 28 34  1  0  0  0  0
 29 30  1  0  0  0  0
 30 31  1  0  0  0  0
 30 32  1  0  0  0  0
 30 33  1  0  0  0  0
 34 52  1  0  0  0  0
M  END
$$$$
