CHEMBL3956579
 OpenBabel04072215373D

 71 75  0  0  0  0  0  0  0  0999 V2000
    1.7460    5.4460   -1.3437 C   0  0  0  0  0  0  0  0  0  0  0  0
    2.2504    4.5131   -2.3041 O   0  0  0  0  0  0  0  0  0  0  0  0
    3.0695    3.5394   -1.7862 C   0  0  0  0  0  0  0  0  0  0  0  0
    2.8714    2.9705   -0.5313 C   0  0  0  0  0  0  0  0  0  0  0  0
    3.7384    1.9806   -0.0838 C   0  0  0  0  0  0  0  0  0  0  0  0
    3.6232    1.3274    1.1149 O   0  0  0  0  0  0  0  0  0  0  0  0
    2.2946    1.2318    1.6236 C   0  0  0  0  0  0  0  0  0  0  0  0
    4.8477    1.6185   -0.8571 C   0  0  0  0  0  0  0  0  0  0  0  0
    5.0717    2.1456   -2.1316 C   0  0  0  0  0  0  0  0  0  0  0  0
    6.1655    1.7606   -2.9324 N   0  0  0  0  0  0  0  0  0  0  0  0
    6.7349    0.3153   -2.8266 C   0  0  0  0  0  0  0  0  0  0  0  0
    5.8287   -0.9295   -3.1415 C   0  0  0  0  0  0  0  0  0  0  0  0
    5.2775   -0.8478   -4.5887 C   0  0  0  0  0  0  0  0  0  0  0  0
    4.5174   -2.0216   -5.0805 N   0  0  0  0  0  0  0  0  0  0  0  0
    4.1070   -1.8898   -6.4959 C   0  0  0  0  0  0  0  0  0  0  0  0
    5.2915   -1.8548   -7.4703 C   0  0  0  0  0  0  0  0  0  0  0  0
    3.1848   -3.0492   -6.8922 C   0  0  0  0  0  0  0  0  0  0  0  0
    5.0910   -1.4075   -1.8583 C   0  0  0  0  0  0  0  0  0  0  0  0
    5.4298   -2.7883   -2.1081 O   0  0  0  0  0  0  0  0  0  0  0  0
    6.5092   -2.3491   -2.9805 C   0  0  0  0  0  0  0  0  0  0  0  0
    7.2324    2.6423   -3.3655 C   0  0  0  0  0  0  0  0  0  0  0  0
    7.7145    2.3420   -4.6190 C   0  0  0  0  0  0  0  0  0  0  0  0
    9.0656    2.5209   -4.8406 C   0  0  0  0  0  0  0  0  0  0  0  0
    9.8407    3.2106   -3.9825 C   0  0  0  0  0  0  0  0  0  0  0  0
   11.1493    2.9895   -4.2465 N   0  0  0  0  0  0  0  0  0  0  0  0
   12.0045    3.9044   -3.8178 C   0  0  0  0  0  0  0  0  0  0  0  0
   11.5616    5.0371   -3.1803 C   0  0  0  0  0  0  0  0  0  0  0  0
   12.5058    6.1703   -3.2580 C   0  0  0  0  0  0  0  0  0  0  0  0
   12.4940    7.3408   -4.0725 C   0  0  0  0  0  0  0  0  0  0  0  0
   13.6439    8.0322   -4.0255 N   0  0  0  0  0  0  0  0  0  0  0  0
   14.4120    7.2998   -3.2036 N   0  0  0  0  0  0  0  0  0  0  0  0
   15.5750    7.8763   -2.5666 C   0  0  0  0  0  0  0  0  0  0  0  0
   13.8522    6.0855   -2.9065 C   0  0  0  0  0  0  0  0  0  0  0  0
   10.2570    5.1063   -2.6846 N   0  0  0  0  0  0  0  0  0  0  0  0
    9.3341    4.0741   -3.0241 C   0  0  0  0  0  0  0  0  0  0  0  0
    7.9627    3.6474   -2.6369 C   0  0  0  0  0  0  0  0  0  0  0  0
    4.1301    3.0910   -2.5966 C   0  0  0  0  0  0  0  0  0  0  0  0
    1.3115    6.2927   -1.8846 H   0  0  0  0  0  0  0  0  0  0  0  0
    2.5478    5.8353   -0.7049 H   0  0  0  0  0  0  0  0  0  0  0  0
    0.9467    5.0079   -0.7341 H   0  0  0  0  0  0  0  0  0  0  0  0
    2.0521    3.3003    0.0935 H   0  0  0  0  0  0  0  0  0  0  0  0
    2.3113    0.5531    2.4827 H   0  0  0  0  0  0  0  0  0  0  0  0
    1.6120    0.8138    0.8787 H   0  0  0  0  0  0  0  0  0  0  0  0
    1.9390    2.2039    1.9795 H   0  0  0  0  0  0  0  0  0  0  0  0
    5.5480    0.9155   -0.4287 H   0  0  0  0  0  0  0  0  0  0  0  0
    7.2179    0.2160   -1.8494 H   0  0  0  0  0  0  0  0  0  0  0  0
    7.5593    0.2138   -3.5421 H   0  0  0  0  0  0  0  0  0  0  0  0
    6.1672   -0.7671   -5.2297 H   0  0  0  0  0  0  0  0  0  0  0  0
    4.6856    0.0518   -4.7151 H   0  0  0  0  0  0  0  0  0  0  0  0
    3.6902   -2.1582   -4.4971 H   0  0  0  0  0  0  0  0  0  0  0  0
    3.5320   -0.9619   -6.6076 H   0  0  0  0  0  0  0  0  0  0  0  0
    5.9389   -2.7309   -7.3483 H   0  0  0  0  0  0  0  0  0  0  0  0
    5.9005   -0.9550   -7.3428 H   0  0  0  0  0  0  0  0  0  0  0  0
    4.9372   -1.8470   -8.5084 H   0  0  0  0  0  0  0  0  0  0  0  0
    3.7105   -4.0109   -6.8777 H   0  0  0  0  0  0  0  0  0  0  0  0
    2.8017   -2.8995   -7.9066 H   0  0  0  0  0  0  0  0  0  0  0  0
    2.3179   -3.1212   -6.2262 H   0  0  0  0  0  0  0  0  0  0  0  0
    4.0171   -1.2328   -1.7903 H   0  0  0  0  0  0  0  0  0  0  0  0
    5.5635   -1.1294   -0.9083 H   0  0  0  0  0  0  0  0  0  0  0  0
    6.5601   -3.0103   -3.8540 H   0  0  0  0  0  0  0  0  0  0  0  0
    7.4722   -2.4011   -2.4634 H   0  0  0  0  0  0  0  0  0  0  0  0
    7.1323    1.7865   -5.3422 H   0  0  0  0  0  0  0  0  0  0  0  0
    9.5254    2.0830   -5.7280 H   0  0  0  0  0  0  0  0  0  0  0  0
   13.0268    3.7518   -4.1332 H   0  0  0  0  0  0  0  0  0  0  0  0
   11.7137    7.7131   -4.7238 H   0  0  0  0  0  0  0  0  0  0  0  0
   15.7328    8.8989   -2.9205 H   0  0  0  0  0  0  0  0  0  0  0  0
   16.4556    7.2625   -2.7705 H   0  0  0  0  0  0  0  0  0  0  0  0
   15.3699    7.8952   -1.4917 H   0  0  0  0  0  0  0  0  0  0  0  0
   14.4412    5.3133   -2.4308 H   0  0  0  0  0  0  0  0  0  0  0  0
    7.5329    4.0875   -1.7477 H   0  0  0  0  0  0  0  0  0  0  0  0
    4.2099    3.4904   -3.6064 H   0  0  0  0  0  0  0  0  0  0  0  0
  1  2  1  0  0  0  0
  1 38  1  0  0  0  0
  1 39  1  0  0  0  0
  1 40  1  0  0  0  0
  2  3  1  0  0  0  0
  3  4  1  0  0  0  0
  3 37  2  0  0  0  0
  4  5  2  0  0  0  0
  4 41  1  0  0  0  0
  5  6  1  0  0  0  0
  5  8  1  0  0  0  0
  6  7  1  0  0  0  0
  7 42  1  0  0  0  0
  7 43  1  0  0  0  0
  7 44  1  0  0  0  0
  8  9  2  0  0  0  0
  8 45  1  0  0  0  0
  9 10  1  0  0  0  0
  9 37  1  0  0  0  0
 10 11  1  0  0  0  0
 10 21  1  0  0  0  0
 11 12  1  0  0  0  0
 11 46  1  0  0  0  0
 11 47  1  0  0  0  0
 12 13  1  0  0  0  0
 12 18  1  0  0  0  0
 12 20  1  0  0  0  0
 13 14  1  0  0  0  0
 13 48  1  0  0  0  0
 13 49  1  0  0  0  0
 14 15  1  0  0  0  0
 14 50  1  0  0  0  0
 15 16  1  0  0  0  0
 15 17  1  0  0  0  0
 15 51  1  0  0  0  0
 16 52  1  0  0  0  0
 16 53  1  0  0  0  0
 16 54  1  0  0  0  0
 17 55  1  0  0  0  0
 17 56  1  0  0  0  0
 17 57  1  0  0  0  0
 18 19  1  0  0  0  0
 18 58  1  0  0  0  0
 18 59  1  0  0  0  0
 19 20  1  0  0  0  0
 20 60  1  0  0  0  0
 20 61  1  0  0  0  0
 21 22  1  0  0  0  0
 21 36  2  0  0  0  0
 22 23  2  0  0  0  0
 22 62  1  0  0  0  0
 23 24  1  0  0  0  0
 23 63  1  0  0  0  0
 24 25  1  0  0  0  0
 24 35  2  0  0  0  0
 25 26  2  0  0  0  0
 26 27  1  0  0  0  0
 26 64  1  0  0  0  0
 27 28  1  0  0  0  0
 27 34  2  0  0  0  0
 28 29  1  0  0  0  0
 28 33  2  0  0  0  0
 29 30  2  0  0  0  0
 29 65  1  0  0  0  0
 30 31  1  0  0  0  0
 31 32  1  0  0  0  0
 31 33  1  0  0  0  0
 32 66  1  0  0  0  0
 32 67  1  0  0  0  0
 32 68  1  0  0  0  0
 33 69  1  0  0  0  0
 34 35  1  0  0  0  0
 35 36  1  0  0  0  0
 36 70  1  0  0  0  0
 37 71  1  0  0  0  0
M  END
$$$$
