CHEMBL4092692
 OpenBabel04072215383D

 56 61  0  0  0  0  0  0  0  0999 V2000
   11.9846    0.4687    3.2032 C   0  0  0  0  0  0  0  0  0  0  0  0
   10.9887    0.6610    2.0897 C   0  0  0  0  0  0  0  0  0  0  0  0
   10.8679    1.7610    1.5519 O   0  0  0  0  0  0  0  0  0  0  0  0
   10.2314   -0.4396    1.7278 N   0  0  0  0  0  0  0  0  0  0  0  0
   10.2632   -1.7526    2.3667 C   0  0  0  0  0  0  0  0  0  0  0  0
    9.0269   -1.9213    3.2586 C   0  0  0  0  0  0  0  0  0  0  0  0
    7.7635   -1.5376    2.5362 C   0  0  0  0  0  0  0  0  0  0  0  0
    7.8000   -0.7238    1.4000 C   0  0  0  0  0  0  0  0  0  0  0  0
    6.6880   -0.3458    0.7328 N   0  0  0  0  0  0  0  0  0  0  0  0
    5.5217   -0.7233    1.2593 C   0  0  0  0  0  0  0  0  0  0  0  0
    5.3672   -1.4617    2.3574 N   0  0  0  0  0  0  0  0  0  0  0  0
    6.4930   -1.8981    2.9597 C   0  0  0  0  0  0  0  0  0  0  0  0
    6.3589   -2.7789    4.0412 O   0  0  0  0  0  0  0  0  0  0  0  0
    5.1993   -3.5438    4.0682 C   0  0  0  0  0  0  0  0  0  0  0  0
    4.7046   -4.1576    2.9157 C   0  0  0  0  0  0  0  0  0  0  0  0
    3.4531   -4.7753    2.9001 C   0  0  0  0  0  0  0  0  0  0  0  0
    2.7251   -4.8287    4.1002 C   0  0  0  0  0  0  0  0  0  0  0  0
    3.2443   -4.3105    5.2920 C   0  0  0  0  0  0  0  0  0  0  0  0
    2.2620   -4.5266    6.2973 C   0  0  0  0  0  0  0  0  0  0  0  0
    1.1402   -5.0319    5.6821 C   0  0  0  0  0  0  0  0  0  0  0  0
    1.4081   -5.2227    4.3400 N   0  0  0  0  0  0  0  0  0  0  0  0
    0.4385   -5.5595    3.3754 C   0  0  0  0  0  0  0  0  0  0  0  0
   -0.6561   -5.0171    3.4166 O   0  0  0  0  0  0  0  0  0  0  0  0
    0.8631   -6.5814    2.5562 N   0  0  0  0  0  0  0  0  0  0  0  0
    0.0133   -7.0309    1.5575 C   0  0  0  0  0  0  0  0  0  0  0  0
   -0.6520   -6.2394    0.5977 C   0  0  0  0  0  0  0  0  0  0  0  0
   -1.4233   -7.1275   -0.1087 C   0  0  0  0  0  0  0  0  0  0  0  0
   -2.3688   -6.7525   -1.2357 C   0  0  0  0  0  0  0  0  0  0  0  0
   -3.7125   -7.4472   -1.3067 C   0  0  0  0  0  0  0  0  0  0  0  0
   -2.6651   -7.7715   -2.3151 C   0  0  0  0  0  0  0  0  0  0  0  0
   -1.2015   -8.3827    0.3730 O   0  0  0  0  0  0  0  0  0  0  0  0
   -0.2374   -8.3290    1.3752 N   0  0  0  0  0  0  0  0  0  0  0  0
    4.5150   -3.6769    5.2854 C   0  0  0  0  0  0  0  0  0  0  0  0
    9.1159   -0.2552    0.8052 C   0  0  0  0  0  0  0  0  0  0  0  0
   12.5128    1.4097    3.3828 H   0  0  0  0  0  0  0  0  0  0  0  0
   12.7228   -0.2884    2.9294 H   0  0  0  0  0  0  0  0  0  0  0  0
   11.4649    0.1885    4.1233 H   0  0  0  0  0  0  0  0  0  0  0  0
   11.1774   -1.9007    2.9458 H   0  0  0  0  0  0  0  0  0  0  0  0
   10.2650   -2.5048    1.5666 H   0  0  0  0  0  0  0  0  0  0  0  0
    9.1282   -1.2683    4.1345 H   0  0  0  0  0  0  0  0  0  0  0  0
    8.9811   -2.9580    3.6087 H   0  0  0  0  0  0  0  0  0  0  0  0
    4.6207   -0.4203    0.7392 H   0  0  0  0  0  0  0  0  0  0  0  0
    5.2521   -4.0798    1.9802 H   0  0  0  0  0  0  0  0  0  0  0  0
    3.0448   -5.1256    1.9574 H   0  0  0  0  0  0  0  0  0  0  0  0
    2.3344   -4.2670    7.3460 H   0  0  0  0  0  0  0  0  0  0  0  0
    0.1591   -5.2742    6.0744 H   0  0  0  0  0  0  0  0  0  0  0  0
    1.4363   -7.3008    2.9797 H   0  0  0  0  0  0  0  0  0  0  0  0
   -0.5823   -5.1735    0.4495 H   0  0  0  0  0  0  0  0  0  0  0  0
   -2.3521   -5.7066   -1.5264 H   0  0  0  0  0  0  0  0  0  0  0  0
   -4.5647   -6.8569   -1.6268 H   0  0  0  0  0  0  0  0  0  0  0  0
   -3.9564   -8.1977   -0.5634 H   0  0  0  0  0  0  0  0  0  0  0  0
   -2.8080   -7.4091   -3.3272 H   0  0  0  0  0  0  0  0  0  0  0  0
   -2.2003   -8.7495   -2.2619 H   0  0  0  0  0  0  0  0  0  0  0  0
    4.9024   -3.2269    6.1901 H   0  0  0  0  0  0  0  0  0  0  0  0
    9.0189    0.7908    0.4971 H   0  0  0  0  0  0  0  0  0  0  0  0
    9.3288   -0.8528   -0.0895 H   0  0  0  0  0  0  0  0  0  0  0  0
  1  2  1  0  0  0  0
  1 35  1  0  0  0  0
  1 36  1  0  0  0  0
  1 37  1  0  0  0  0
  2  3  2  0  0  0  0
  2  4  1  0  0  0  0
  4  5  1  0  0  0  0
  4 34  1  0  0  0  0
  5  6  1  0  0  0  0
  5 38  1  0  0  0  0
  5 39  1  0  0  0  0
  6  7  1  0  0  0  0
  6 40  1  0  0  0  0
  6 41  1  0  0  0  0
  7  8  1  0  0  0  0
  7 12  2  0  0  0  0
  8  9  2  0  0  0  0
  8 34  1  0  0  0  0
  9 10  1  0  0  0  0
 10 11  2  0  0  0  0
 10 42  1  0  0  0  0
 11 12  1  0  0  0  0
 12 13  1  0  0  0  0
 13 14  1  0  0  0  0
 14 15  1  0  0  0  0
 14 33  2  0  0  0  0
 15 16  2  0  0  0  0
 15 43  1  0  0  0  0
 16 17  1  0  0  0  0
 16 44  1  0  0  0  0
 17 18  2  0  0  0  0
 17 21  1  0  0  0  0
 18 19  1  0  0  0  0
 18 33  1  0  0  0  0
 19 20  2  0  0  0  0
 19 45  1  0  0  0  0
 20 21  1  0  0  0  0
 20 46  1  0  0  0  0
 21 22  1  0  0  0  0
 22 23  2  0  0  0  0
 22 24  1  0  0  0  0
 24 25  1  0  0  0  0
 24 47  1  0  0  0  0
 25 26  1  0  0  0  0
 25 32  2  0  0  0  0
 26 27  2  0  0  0  0
 26 48  1  0  0  0  0
 27 28  1  0  0  0  0
 27 31  1  0  0  0  0
 28 29  1  0  0  0  0
 28 30  1  0  0  0  0
 28 49  1  0  0  0  0
 29 30  1  0  0  0  0
 29 50  1  0  0  0  0
 29 51  1  0  0  0  0
 30 52  1  0  0  0  0
 30 53  1  0  0  0  0
 31 32  1  0  0  0  0
 33 54  1  0  0  0  0
 34 55  1  0  0  0  0
 34 56  1  0  0  0  0
M  END
$$$$
