CHEMBL1970290
 OpenBabel04072215363D

 77 80  0  0  0  0  0  0  0  0999 V2000
    5.5330    1.2808    1.9747 C   0  0  0  0  0  0  0  0  0  0  0  0
    5.2811    0.7796    0.5560 C   0  0  0  0  0  0  0  0  0  0  0  0
    4.6930   -0.5709    0.4693 N   0  0  0  0  0  0  0  0  0  0  0  0
    3.4467   -0.7249    1.2466 C   0  0  0  0  0  0  0  0  0  0  0  0
    2.2405    0.0879    0.7772 C   0  0  0  0  0  0  0  0  0  0  0  0
    4.4872   -0.9756   -0.9407 C   0  0  0  0  0  0  0  0  0  0  0  0
    5.7560   -1.0101   -1.8100 C   0  0  0  0  0  0  0  0  0  0  0  0
    6.7941   -1.8605   -1.2643 N   0  0  0  0  0  0  0  0  0  0  0  0
    7.9596   -2.0589   -1.9586 C   0  0  0  0  0  0  0  0  0  0  0  0
    8.2157   -1.5373   -3.0377 O   0  0  0  0  0  0  0  0  0  0  0  0
    8.9371   -3.0385   -1.3918 C   0  0  0  0  0  0  0  0  0  0  0  0
    9.0746   -3.2452   -0.0350 C   0  0  0  0  0  0  0  0  0  0  0  0
   10.0024   -4.2032    0.4145 C   0  0  0  0  0  0  0  0  0  0  0  0
   10.7931   -4.8986   -0.5050 C   0  0  0  0  0  0  0  0  0  0  0  0
   10.6593   -4.6645   -1.9001 C   0  0  0  0  0  0  0  0  0  0  0  0
   11.4530   -5.4097   -2.8129 N   0  0  0  0  0  0  0  0  0  0  0  0
   12.1747   -6.4570   -2.3473 N   0  0  0  0  0  0  0  0  0  0  0  0
   12.6407   -7.1039   -3.4216 C   0  0  0  0  0  0  0  0  0  0  0  0
   13.4515   -8.3854   -3.2828 C   0  0  0  0  0  0  0  0  0  0  0  0
   13.6172   -8.8291   -1.8107 C   0  0  0  0  0  0  0  0  0  0  0  0
   12.7512   -9.5356   -4.0357 C   0  0  0  0  0  0  0  0  0  0  0  0
   14.8632   -8.1948   -3.8735 C   0  0  0  0  0  0  0  0  0  0  0  0
   12.2988   -6.3885   -4.6019 C   0  0  0  0  0  0  0  0  0  0  0  0
   11.5806   -5.2819   -4.2108 C   0  0  0  0  0  0  0  0  0  0  0  0
   11.1333   -4.2353   -5.0504 N   0  0  0  0  0  0  0  0  0  0  0  0
   10.8887   -4.4038   -6.4579 C   0  0  0  0  0  0  0  0  0  0  0  0
   11.0023   -5.4944   -6.9784 O   0  0  0  0  0  0  0  0  0  0  0  0
   10.5815   -3.1928   -7.0540 N   0  0  0  0  0  0  0  0  0  0  0  0
   10.5928   -3.0813   -8.4743 C   0  0  0  0  0  0  0  0  0  0  0  0
   11.4477   -2.1119   -9.0215 C   0  0  0  0  0  0  0  0  0  0  0  0
   11.6878   -2.0766  -10.3939 C   0  0  0  0  0  0  0  0  0  0  0  0
   11.1503   -3.0656  -11.2097 C   0  0  0  0  0  0  0  0  0  0  0  0
   10.2334   -3.9869  -10.6894 C   0  0  0  0  0  0  0  0  0  0  0  0
    9.6484   -4.9372  -11.5271 C   0  0  0  0  0  0  0  0  0  0  0  0
    8.3616   -5.3744  -11.2666 C   0  0  0  0  0  0  0  0  0  0  0  0
    7.8348   -5.1724   -9.9996 C   0  0  0  0  0  0  0  0  0  0  0  0
    8.6229   -4.5707   -9.0073 C   0  0  0  0  0  0  0  0  0  0  0  0
    9.8256   -3.9048   -9.3439 C   0  0  0  0  0  0  0  0  0  0  0  0
    9.6926   -3.7567   -2.3204 C   0  0  0  0  0  0  0  0  0  0  0  0
    6.1790    2.1648    1.9418 H   0  0  0  0  0  0  0  0  0  0  0  0
    6.0388    0.5223    2.5811 H   0  0  0  0  0  0  0  0  0  0  0  0
    4.6037    1.5720    2.4733 H   0  0  0  0  0  0  0  0  0  0  0  0
    6.2612    0.7698    0.0726 H   0  0  0  0  0  0  0  0  0  0  0  0
    4.6694    1.5148    0.0170 H   0  0  0  0  0  0  0  0  0  0  0  0
    3.6402   -0.4969    2.3012 H   0  0  0  0  0  0  0  0  0  0  0  0
    3.1643   -1.7864    1.2485 H   0  0  0  0  0  0  0  0  0  0  0  0
    2.4920    1.1341    0.5826 H   0  0  0  0  0  0  0  0  0  0  0  0
    1.4620    0.0770    1.5473 H   0  0  0  0  0  0  0  0  0  0  0  0
    1.8059   -0.3383   -0.1330 H   0  0  0  0  0  0  0  0  0  0  0  0
    3.7631   -0.3171   -1.4343 H   0  0  0  0  0  0  0  0  0  0  0  0
    4.0639   -1.9896   -0.9473 H   0  0  0  0  0  0  0  0  0  0  0  0
    6.1771   -0.0087   -1.9556 H   0  0  0  0  0  0  0  0  0  0  0  0
    5.5020   -1.3899   -2.8070 H   0  0  0  0  0  0  0  0  0  0  0  0
    6.5968   -2.3338   -0.3907 H   0  0  0  0  0  0  0  0  0  0  0  0
    8.4992   -2.6851    0.6919 H   0  0  0  0  0  0  0  0  0  0  0  0
   10.1196   -4.4067    1.4797 H   0  0  0  0  0  0  0  0  0  0  0  0
   11.5043   -5.6227   -0.1260 H   0  0  0  0  0  0  0  0  0  0  0  0
   12.6483   -9.0426   -1.3433 H   0  0  0  0  0  0  0  0  0  0  0  0
   14.1150   -8.0588   -1.2097 H   0  0  0  0  0  0  0  0  0  0  0  0
   14.2221   -9.7416   -1.7375 H   0  0  0  0  0  0  0  0  0  0  0  0
   11.7597   -9.7390   -3.6141 H   0  0  0  0  0  0  0  0  0  0  0  0
   13.3342  -10.4626   -3.9737 H   0  0  0  0  0  0  0  0  0  0  0  0
   12.6166   -9.3027   -5.0978 H   0  0  0  0  0  0  0  0  0  0  0  0
   15.4029   -7.3927   -3.3569 H   0  0  0  0  0  0  0  0  0  0  0  0
   14.8247   -7.9370   -4.9376 H   0  0  0  0  0  0  0  0  0  0  0  0
   15.4592   -9.1108   -3.7797 H   0  0  0  0  0  0  0  0  0  0  0  0
   12.6083   -6.6546   -5.6082 H   0  0  0  0  0  0  0  0  0  0  0  0
   10.9474   -3.3378   -4.6302 H   0  0  0  0  0  0  0  0  0  0  0  0
   10.8941   -2.3703   -6.5635 H   0  0  0  0  0  0  0  0  0  0  0  0
   11.9671   -1.3966   -8.3922 H   0  0  0  0  0  0  0  0  0  0  0  0
   12.3141   -1.2993  -10.8267 H   0  0  0  0  0  0  0  0  0  0  0  0
   11.3498   -3.0390  -12.2812 H   0  0  0  0  0  0  0  0  0  0  0  0
   10.1982   -5.3426  -12.3725 H   0  0  0  0  0  0  0  0  0  0  0  0
    7.7932   -5.8827  -12.0409 H   0  0  0  0  0  0  0  0  0  0  0  0
    6.8327   -5.5289   -9.7761 H   0  0  0  0  0  0  0  0  0  0  0  0
    8.2286   -4.5274   -7.9957 H   0  0  0  0  0  0  0  0  0  0  0  0
    9.4641   -3.5876   -3.3621 H   0  0  0  0  0  0  0  0  0  0  0  0
  1  2  1  0  0  0  0
  1 40  1  0  0  0  0
  1 41  1  0  0  0  0
  1 42  1  0  0  0  0
  2  3  1  0  0  0  0
  2 43  1  0  0  0  0
  2 44  1  0  0  0  0
  3  4  1  0  0  0  0
  3  6  1  0  0  0  0
  4  5  1  0  0  0  0
  4 45  1  0  0  0  0
  4 46  1  0  0  0  0
  5 47  1  0  0  0  0
  5 48  1  0  0  0  0
  5 49  1  0  0  0  0
  6  7  1  0  0  0  0
  6 50  1  0  0  0  0
  6 51  1  0  0  0  0
  7  8  1  0  0  0  0
  7 52  1  0  0  0  0
  7 53  1  0  0  0  0
  8  9  1  0  0  0  0
  8 54  1  0  0  0  0
  9 10  2  0  0  0  0
  9 11  1  0  0  0  0
 11 12  1  0  0  0  0
 11 39  2  0  0  0  0
 12 13  2  0  0  0  0
 12 55  1  0  0  0  0
 13 14  1  0  0  0  0
 13 56  1  0  0  0  0
 14 15  2  0  0  0  0
 14 57  1  0  0  0  0
 15 16  1  0  0  0  0
 15 39  1  0  0  0  0
 16 17  1  0  0  0  0
 16 24  1  0  0  0  0
 17 18  2  0  0  0  0
 18 19  1  0  0  0  0
 18 23  1  0  0  0  0
 19 20  1  0  0  0  0
 19 21  1  0  0  0  0
 19 22  1  0  0  0  0
 20 58  1  0  0  0  0
 20 59  1  0  0  0  0
 20 60  1  0  0  0  0
 21 61  1  0  0  0  0
 21 62  1  0  0  0  0
 21 63  1  0  0  0  0
 22 64  1  0  0  0  0
 22 65  1  0  0  0  0
 22 66  1  0  0  0  0
 23 24  2  0  0  0  0
 23 67  1  0  0  0  0
 24 25  1  0  0  0  0
 25 26  1  0  0  0  0
 25 68  1  0  0  0  0
 26 27  2  0  0  0  0
 26 28  1  0  0  0  0
 28 29  1  0  0  0  0
 28 69  1  0  0  0  0
 29 30  1  0  0  0  0
 29 38  2  0  0  0  0
 30 31  2  0  0  0  0
 30 70  1  0  0  0  0
 31 32  1  0  0  0  0
 31 71  1  0  0  0  0
 32 33  2  0  0  0  0
 32 72  1  0  0  0  0
 33 34  1  0  0  0  0
 33 38  1  0  0  0  0
 34 35  2  0  0  0  0
 34 73  1  0  0  0  0
 35 36  1  0  0  0  0
 35 74  1  0  0  0  0
 36 37  2  0  0  0  0
 36 75  1  0  0  0  0
 37 38  1  0  0  0  0
 37 76  1  0  0  0  0
 39 77  1  0  0  0  0
M  END
$$$$
