CHEMBL429743
 OpenBabel04072215383D

 56 60  0  0  0  0  0  0  0  0999 V2000
    5.1988    0.9859   -1.5681 C   0  0  0  0  0  0  0  0  0  0  0  0
    4.0741    0.1853   -1.2028 O   0  0  0  0  0  0  0  0  0  0  0  0
    4.3452   -0.9615   -0.5067 C   0  0  0  0  0  0  0  0  0  0  0  0
    5.4994   -1.1041    0.2817 C   0  0  0  0  0  0  0  0  0  0  0  0
    5.8810   -2.3178    0.8405 C   0  0  0  0  0  0  0  0  0  0  0  0
    7.0793   -2.3821    1.4443 N   0  0  0  0  0  0  0  0  0  0  0  0
    7.5113   -3.5780    1.8898 C   0  0  0  0  0  0  0  0  0  0  0  0
    6.8032   -4.7482    1.7332 C   0  0  0  0  0  0  0  0  0  0  0  0
    5.5575   -4.6884    1.1093 C   0  0  0  0  0  0  0  0  0  0  0  0
    4.9768   -5.9403    0.9538 O   0  0  0  0  0  0  0  0  0  0  0  0
    4.1359   -6.2120   -0.0993 C   0  0  0  0  0  0  0  0  0  0  0  0
    4.2671   -5.6737   -1.3726 C   0  0  0  0  0  0  0  0  0  0  0  0
    3.1870   -5.7423   -2.2591 C   0  0  0  0  0  0  0  0  0  0  0  0
    2.0209   -6.5046   -1.9767 C   0  0  0  0  0  0  0  0  0  0  0  0
    0.8535   -6.6007   -2.7948 C   0  0  0  0  0  0  0  0  0  0  0  0
    0.6120   -5.8200   -4.0496 C   0  0  0  0  0  0  0  0  0  0  0  0
   -0.5209   -5.3871   -4.2377 O   0  0  0  0  0  0  0  0  0  0  0  0
    1.6702   -5.7153   -4.9315 N   0  0  0  0  0  0  0  0  0  0  0  0
    1.6616   -5.0649   -6.1851 C   0  0  0  0  0  0  0  0  0  0  0  0
    0.5977   -4.2905   -6.6585 C   0  0  0  0  0  0  0  0  0  0  0  0
    0.6200   -3.7653   -7.9556 C   0  0  0  0  0  0  0  0  0  0  0  0
    1.7169   -3.9978   -8.7782 C   0  0  0  0  0  0  0  0  0  0  0  0
    1.7213   -3.4034  -10.3920 Cl  0  0  0  0  0  0  0  0  0  0  0  0
    2.8079   -4.7192   -8.3017 C   0  0  0  0  0  0  0  0  0  0  0  0
    2.7833   -5.2426   -7.0048 C   0  0  0  0  0  0  0  0  0  0  0  0
   -0.2290   -7.4118   -2.4003 C   0  0  0  0  0  0  0  0  0  0  0  0
   -0.1904   -8.1293   -1.2172 C   0  0  0  0  0  0  0  0  0  0  0  0
    0.9176   -8.0161   -0.3851 C   0  0  0  0  0  0  0  0  0  0  0  0
    2.0053   -7.2026   -0.7361 C   0  0  0  0  0  0  0  0  0  0  0  0
    3.0506   -7.0365    0.1864 C   0  0  0  0  0  0  0  0  0  0  0  0
    5.0304   -3.4273    0.7060 C   0  0  0  0  0  0  0  0  0  0  0  0
    3.7516   -3.1895    0.1487 C   0  0  0  0  0  0  0  0  0  0  0  0
    3.4402   -2.0185   -0.5502 C   0  0  0  0  0  0  0  0  0  0  0  0
    2.2611   -2.1402   -1.2281 O   0  0  0  0  0  0  0  0  0  0  0  0
    1.9332   -1.2173   -2.2531 C   0  0  0  0  0  0  0  0  0  0  0  0
    4.9857    1.4501   -2.5358 H   0  0  0  0  0  0  0  0  0  0  0  0
    6.1257    0.4132   -1.6928 H   0  0  0  0  0  0  0  0  0  0  0  0
    5.3371    1.7787   -0.8268 H   0  0  0  0  0  0  0  0  0  0  0  0
    6.1715   -0.2636    0.4365 H   0  0  0  0  0  0  0  0  0  0  0  0
    8.4874   -3.5706    2.3669 H   0  0  0  0  0  0  0  0  0  0  0  0
    7.2165   -5.6906    2.0757 H   0  0  0  0  0  0  0  0  0  0  0  0
    5.1302   -5.0677   -1.6363 H   0  0  0  0  0  0  0  0  0  0  0  0
    3.2567   -5.1190   -3.1422 H   0  0  0  0  0  0  0  0  0  0  0  0
    2.4954   -6.2592   -4.7186 H   0  0  0  0  0  0  0  0  0  0  0  0
   -0.2761   -4.0836   -6.0478 H   0  0  0  0  0  0  0  0  0  0  0  0
   -0.2305   -3.1916   -8.3150 H   0  0  0  0  0  0  0  0  0  0  0  0
    3.6714   -4.8938   -8.9377 H   0  0  0  0  0  0  0  0  0  0  0  0
    3.6415   -5.8121   -6.6584 H   0  0  0  0  0  0  0  0  0  0  0  0
   -1.1131   -7.4661   -3.0342 H   0  0  0  0  0  0  0  0  0  0  0  0
   -1.0342   -8.7505   -0.9239 H   0  0  0  0  0  0  0  0  0  0  0  0
    0.9175   -8.5542    0.5621 H   0  0  0  0  0  0  0  0  0  0  0  0
    2.9953   -7.4965    1.1720 H   0  0  0  0  0  0  0  0  0  0  0  0
    2.9924   -3.9663    0.1648 H   0  0  0  0  0  0  0  0  0  0  0  0
    1.1795   -1.6949   -2.8907 H   0  0  0  0  0  0  0  0  0  0  0  0
    2.7789   -0.9726   -2.9024 H   0  0  0  0  0  0  0  0  0  0  0  0
    1.4801   -0.3241   -1.8164 H   0  0  0  0  0  0  0  0  0  0  0  0
  1  2  1  0  0  0  0
  1 36  1  0  0  0  0
  1 37  1  0  0  0  0
  1 38  1  0  0  0  0
  2  3  1  0  0  0  0
  3  4  1  0  0  0  0
  3 33  2  0  0  0  0
  4  5  2  0  0  0  0
  4 39  1  0  0  0  0
  5  6  1  0  0  0  0
  5 31  1  0  0  0  0
  6  7  2  0  0  0  0
  7  8  1  0  0  0  0
  7 40  1  0  0  0  0
  8  9  2  0  0  0  0
  8 41  1  0  0  0  0
  9 10  1  0  0  0  0
  9 31  1  0  0  0  0
 10 11  1  0  0  0  0
 11 12  1  0  0  0  0
 11 30  2  0  0  0  0
 12 13  2  0  0  0  0
 12 42  1  0  0  0  0
 13 14  1  0  0  0  0
 13 43  1  0  0  0  0
 14 15  1  0  0  0  0
 14 29  2  0  0  0  0
 15 16  1  0  0  0  0
 15 26  2  0  0  0  0
 16 17  2  0  0  0  0
 16 18  1  0  0  0  0
 18 19  1  0  0  0  0
 18 44  1  0  0  0  0
 19 20  1  0  0  0  0
 19 25  2  0  0  0  0
 20 21  2  0  0  0  0
 20 45  1  0  0  0  0
 21 22  1  0  0  0  0
 21 46  1  0  0  0  0
 22 23  1  0  0  0  0
 22 24  2  0  0  0  0
 24 25  1  0  0  0  0
 24 47  1  0  0  0  0
 25 48  1  0  0  0  0
 26 27  1  0  0  0  0
 26 49  1  0  0  0  0
 27 28  2  0  0  0  0
 27 50  1  0  0  0  0
 28 29  1  0  0  0  0
 28 51  1  0  0  0  0
 29 30  1  0  0  0  0
 30 52  1  0  0  0  0
 31 32  2  0  0  0  0
 32 33  1  0  0  0  0
 32 53  1  0  0  0  0
 33 34  1  0  0  0  0
 34 35  1  0  0  0  0
 35 54  1  0  0  0  0
 35 55  1  0  0  0  0
 35 56  1  0  0  0  0
M  END
$$$$
