CHEMBL3893896
 OpenBabel04072215373D

 43 46  0  0  0  0  0  0  0  0999 V2000
    1.4931   -5.8368    0.7082 N   0  0  0  0  0  0  0  0  0  0  0  0
    0.5949   -4.8846    1.2061 C   0  0  0  0  0  0  0  0  0  0  0  0
    0.6228   -4.5340    2.5595 C   0  0  0  0  0  0  0  0  0  0  0  0
   -0.1577   -3.4766    3.0310 C   0  0  0  0  0  0  0  0  0  0  0  0
   -0.9279   -2.7247    2.1434 C   0  0  0  0  0  0  0  0  0  0  0  0
   -0.9374   -3.0285    0.7772 C   0  0  0  0  0  0  0  0  0  0  0  0
   -1.6350   -2.2005   -0.1482 N   0  0  0  0  0  0  0  0  0  0  0  0
   -2.4723   -2.7037   -1.1895 C   0  0  0  0  0  0  0  0  0  0  0  0
   -2.5290   -2.0476   -2.4316 C   0  0  0  0  0  0  0  0  0  0  0  0
   -3.4515   -2.4281   -3.4406 C   0  0  0  0  0  0  0  0  0  0  0  0
   -4.4760   -3.3260   -3.0847 C   0  0  0  0  0  0  0  0  0  0  0  0
   -5.6293   -3.9946   -3.6393 C   0  0  0  0  0  0  0  0  0  0  0  0
   -5.6893   -5.1517   -4.5177 C   0  0  0  0  0  0  0  0  0  0  0  0
   -4.7028   -6.0587   -4.6002 C   0  0  0  0  0  0  0  0  0  0  0  0
   -4.8372   -7.5174   -4.8520 C   0  0  0  0  0  0  0  0  0  0  0  0
   -6.0182   -8.1926   -5.1998 C   0  0  0  0  0  0  0  0  0  0  0  0
   -6.0215   -9.5864   -5.3657 C   0  0  0  0  0  0  0  0  0  0  0  0
   -4.8542  -10.3266   -5.1710 C   0  0  0  0  0  0  0  0  0  0  0  0
   -3.6913   -9.6750   -4.7738 C   0  0  0  0  0  0  0  0  0  0  0  0
   -3.6883   -8.2913   -4.6100 C   0  0  0  0  0  0  0  0  0  0  0  0
   -6.5527   -4.0491   -2.6559 N   0  0  0  0  0  0  0  0  0  0  0  0
   -5.7778   -4.2428   -1.5857 N   0  0  0  0  0  0  0  0  0  0  0  0
   -4.4957   -3.7803   -1.7664 C   0  0  0  0  0  0  0  0  0  0  0  0
   -3.4440   -3.6550   -0.8705 C   0  0  0  0  0  0  0  0  0  0  0  0
   -0.1540   -4.0982    0.3229 C   0  0  0  0  0  0  0  0  0  0  0  0
    1.7630   -6.5461    1.3807 H   0  0  0  0  0  0  0  0  0  0  0  0
    1.2142   -6.2306   -0.1842 H   0  0  0  0  0  0  0  0  0  0  0  0
    1.2614   -5.0755    3.2505 H   0  0  0  0  0  0  0  0  0  0  0  0
   -0.1347   -3.2217    4.0899 H   0  0  0  0  0  0  0  0  0  0  0  0
   -1.5106   -1.8956    2.5334 H   0  0  0  0  0  0  0  0  0  0  0  0
   -2.2018   -1.5275    0.3692 H   0  0  0  0  0  0  0  0  0  0  0  0
   -1.8492   -1.2138   -2.6163 H   0  0  0  0  0  0  0  0  0  0  0  0
   -3.4615   -1.9003   -4.3908 H   0  0  0  0  0  0  0  0  0  0  0  0
   -6.7015   -5.4496   -4.7586 H   0  0  0  0  0  0  0  0  0  0  0  0
   -3.7124   -5.7557   -4.2630 H   0  0  0  0  0  0  0  0  0  0  0  0
   -6.9574   -7.6636   -5.3346 H   0  0  0  0  0  0  0  0  0  0  0  0
   -6.9350  -10.1048   -5.6459 H   0  0  0  0  0  0  0  0  0  0  0  0
   -4.8502  -11.3998   -5.3167 H   0  0  0  0  0  0  0  0  0  0  0  0
   -2.7824  -10.2424   -4.5877 H   0  0  0  0  0  0  0  0  0  0  0  0
   -2.7738   -7.8157   -4.2667 H   0  0  0  0  0  0  0  0  0  0  0  0
   -6.2142   -4.5816   -0.7224 H   0  0  0  0  0  0  0  0  0  0  0  0
   -3.4651   -4.1384    0.1004 H   0  0  0  0  0  0  0  0  0  0  0  0
   -0.1074   -4.2995   -0.7430 H   0  0  0  0  0  0  0  0  0  0  0  0
  1  2  1  0  0  0  0
  1 26  1  0  0  0  0
  1 27  1  0  0  0  0
  2  3  1  0  0  0  0
  2 25  2  0  0  0  0
  3  4  2  0  0  0  0
  3 28  1  0  0  0  0
  4  5  1  0  0  0  0
  4 29  1  0  0  0  0
  5  6  2  0  0  0  0
  5 30  1  0  0  0  0
  6  7  1  0  0  0  0
  6 25  1  0  0  0  0
  7  8  1  0  0  0  0
  7 31  1  0  0  0  0
  8  9  1  0  0  0  0
  8 24  2  0  0  0  0
  9 10  2  0  0  0  0
  9 32  1  0  0  0  0
 10 11  1  0  0  0  0
 10 33  1  0  0  0  0
 11 12  1  0  0  0  0
 11 23  2  0  0  0  0
 12 13  1  0  0  0  0
 12 21  2  0  0  0  0
 13 14  2  0  0  0  0
 13 34  1  0  0  0  0
 14 15  1  0  0  0  0
 14 35  1  0  0  0  0
 15 16  1  0  0  0  0
 15 20  2  0  0  0  0
 16 17  2  0  0  0  0
 16 36  1  0  0  0  0
 17 18  1  0  0  0  0
 17 37  1  0  0  0  0
 18 19  2  0  0  0  0
 18 38  1  0  0  0  0
 19 20  1  0  0  0  0
 19 39  1  0  0  0  0
 20 40  1  0  0  0  0
 21 22  1  0  0  0  0
 22 23  1  0  0  0  0
 22 41  1  0  0  0  0
 23 24  1  0  0  0  0
 24 42  1  0  0  0  0
 25 43  1  0  0  0  0
M  END
$$$$
