CHEMBL3940300
 OpenBabel04072215373D

 50 54  0  0  0  0  0  0  0  0999 V2000
    1.0002   -0.1225   -0.1589 O   0  0  0  0  0  0  0  0  0  0  0  0
    2.2130   -0.1595    0.0193 C   0  0  0  0  0  0  0  0  0  0  0  0
    2.8647   -0.2682    1.2407 N   0  0  0  0  0  0  0  0  0  0  0  0
    2.2345   -0.3768    2.5044 C   0  0  0  0  0  0  0  0  0  0  0  0
    0.8719   -0.6426    2.6567 C   0  0  0  0  0  0  0  0  0  0  0  0
    0.2843   -0.6897    3.9216 C   0  0  0  0  0  0  0  0  0  0  0  0
    1.0568   -0.4824    5.0593 C   0  0  0  0  0  0  0  0  0  0  0  0
    2.4323   -0.2437    4.9418 C   0  0  0  0  0  0  0  0  0  0  0  0
    3.2787   -0.0277    6.1721 C   0  0  0  0  0  0  0  0  0  0  0  0
    2.5798   -0.1102    7.3392 F   0  0  0  0  0  0  0  0  0  0  0  0
    4.2858   -0.9385    6.2773 F   0  0  0  0  0  0  0  0  0  0  0  0
    3.8792    1.1946    6.1843 F   0  0  0  0  0  0  0  0  0  0  0  0
    3.0141   -0.1997    3.6569 C   0  0  0  0  0  0  0  0  0  0  0  0
    3.0777    0.0012   -1.1799 C   0  0  0  0  0  0  0  0  0  0  0  0
    2.6154    0.8191   -2.2140 C   0  0  0  0  0  0  0  0  0  0  0  0
    3.3701    0.9628   -3.3719 C   0  0  0  0  0  0  0  0  0  0  0  0
    4.5896    0.2907   -3.4968 C   0  0  0  0  0  0  0  0  0  0  0  0
    5.0892   -0.5312   -2.4736 C   0  0  0  0  0  0  0  0  0  0  0  0
    6.3247   -1.1448   -2.5940 N   0  0  0  0  0  0  0  0  0  0  0  0
    7.1404   -1.4473   -1.4138 C   0  0  0  0  0  0  0  0  0  0  0  0
    7.1150   -2.9503   -1.1292 C   0  0  0  0  0  0  0  0  0  0  0  0
    7.3780   -3.7298   -2.3859 C   0  0  0  0  0  0  0  0  0  0  0  0
    7.2325   -3.1638   -3.6021 C   0  0  0  0  0  0  0  0  0  0  0  0
    7.5652   -4.0479   -4.7561 C   0  0  0  0  0  0  0  0  0  0  0  0
    7.9656   -5.2832   -4.6904 N   0  0  0  0  0  0  0  0  0  0  0  0
    8.0766   -5.8074   -3.4301 C   0  0  0  0  0  0  0  0  0  0  0  0
    8.4508   -7.0537   -2.9860 C   0  0  0  0  0  0  0  0  0  0  0  0
    8.3685   -6.9850   -1.5881 C   0  0  0  0  0  0  0  0  0  0  0  0
    7.9811   -5.7873   -1.1513 N   0  0  0  0  0  0  0  0  0  0  0  0
    7.7920   -5.0575   -2.2823 N   0  0  0  0  0  0  0  0  0  0  0  0
    6.7549   -1.7635   -3.8594 C   0  0  0  0  0  0  0  0  0  0  0  0
    4.2976   -0.6736   -1.3190 C   0  0  0  0  0  0  0  0  0  0  0  0
    3.8657   -0.1232    1.2473 H   0  0  0  0  0  0  0  0  0  0  0  0
    0.2279   -0.8267    1.8020 H   0  0  0  0  0  0  0  0  0  0  0  0
   -0.7821   -0.8839    4.0106 H   0  0  0  0  0  0  0  0  0  0  0  0
    0.5790   -0.5098    6.0375 H   0  0  0  0  0  0  0  0  0  0  0  0
    4.0810   -0.0002    3.5732 H   0  0  0  0  0  0  0  0  0  0  0  0
    1.6654    1.3412   -2.1169 H   0  0  0  0  0  0  0  0  0  0  0  0
    3.0147    1.6040   -4.1742 H   0  0  0  0  0  0  0  0  0  0  0  0
    5.1684    0.4516   -4.4032 H   0  0  0  0  0  0  0  0  0  0  0  0
    6.8325   -0.8790   -0.5285 H   0  0  0  0  0  0  0  0  0  0  0  0
    8.1716   -1.1296   -1.6198 H   0  0  0  0  0  0  0  0  0  0  0  0
    6.1385   -3.2464   -0.7278 H   0  0  0  0  0  0  0  0  0  0  0  0
    7.8690   -3.1669   -0.3644 H   0  0  0  0  0  0  0  0  0  0  0  0
    7.4640   -3.5871   -5.7534 H   0  0  0  0  0  0  0  0  0  0  0  0
    8.7407   -7.8937   -3.6001 H   0  0  0  0  0  0  0  0  0  0  0  0
    8.5769   -7.7614   -0.8628 H   0  0  0  0  0  0  0  0  0  0  0  0
    5.9401   -1.8001   -4.5925 H   0  0  0  0  0  0  0  0  0  0  0  0
    7.5692   -1.1688   -4.2899 H   0  0  0  0  0  0  0  0  0  0  0  0
    4.6034   -1.3640   -0.5396 H   0  0  0  0  0  0  0  0  0  0  0  0
  1  2  2  0  0  0  0
  2  3  1  0  0  0  0
  2 14  1  0  0  0  0
  3  4  1  0  0  0  0
  3 33  1  0  0  0  0
  4  5  1  0  0  0  0
  4 13  2  0  0  0  0
  5  6  2  0  0  0  0
  5 34  1  0  0  0  0
  6  7  1  0  0  0  0
  6 35  1  0  0  0  0
  7  8  2  0  0  0  0
  7 36  1  0  0  0  0
  8  9  1  0  0  0  0
  8 13  1  0  0  0  0
  9 10  1  0  0  0  0
  9 11  1  0  0  0  0
  9 12  1  0  0  0  0
 13 37  1  0  0  0  0
 14 15  1  0  0  0  0
 14 32  2  0  0  0  0
 15 16  2  0  0  0  0
 15 38  1  0  0  0  0
 16 17  1  0  0  0  0
 16 39  1  0  0  0  0
 17 18  2  0  0  0  0
 17 40  1  0  0  0  0
 18 19  1  0  0  0  0
 18 32  1  0  0  0  0
 19 20  1  0  0  0  0
 19 31  1  0  0  0  0
 20 21  1  0  0  0  0
 20 41  1  0  0  0  0
 20 42  1  0  0  0  0
 21 22  1  0  0  0  0
 21 43  1  0  0  0  0
 21 44  1  0  0  0  0
 22 23  2  0  0  0  0
 22 30  1  0  0  0  0
 23 24  1  0  0  0  0
 23 31  1  0  0  0  0
 24 25  2  0  0  0  0
 24 45  1  0  0  0  0
 25 26  1  0  0  0  0
 26 27  2  0  0  0  0
 26 30  1  0  0  0  0
 27 28  1  0  0  0  0
 27 46  1  0  0  0  0
 28 29  2  0  0  0  0
 28 47  1  0  0  0  0
 29 30  1  0  0  0  0
 31 48  1  0  0  0  0
 31 49  1  0  0  0  0
 32 50  1  0  0  0  0
M  END
$$$$
