CHEMBL3671494
 OpenBabel04072215373D

 54 57  0  0  0  0  0  0  0  0999 V2000
    3.5450    3.6100    1.7919 C   0  0  0  0  0  0  0  0  0  0  0  0
    3.5786    2.3194    2.1446 C   0  0  0  0  0  0  0  0  0  0  0  0
    3.7406    1.2796    1.0926 C   0  0  0  0  0  0  0  0  0  0  0  0
    3.3006    1.4261   -0.0438 O   0  0  0  0  0  0  0  0  0  0  0  0
    4.4511    0.1514    1.4254 N   0  0  0  0  0  0  0  0  0  0  0  0
    5.2858    0.0731    2.5554 C   0  0  0  0  0  0  0  0  0  0  0  0
    6.4154    0.8918    2.5889 C   0  0  0  0  0  0  0  0  0  0  0  0
    7.1176    1.0799    3.7944 C   0  0  0  0  0  0  0  0  0  0  0  0
    8.1690    1.9982    3.9697 C   0  0  0  0  0  0  0  0  0  0  0  0
    8.5364    2.8682    2.9080 N   0  0  0  0  0  0  0  0  0  0  0  0
    9.2926    4.0515    3.0920 C   0  0  0  0  0  0  0  0  0  0  0  0
    9.0003    4.9367    4.1400 C   0  0  0  0  0  0  0  0  0  0  0  0
    9.8167    6.0398    4.3948 C   0  0  0  0  0  0  0  0  0  0  0  0
   10.9224    6.2790    3.5829 C   0  0  0  0  0  0  0  0  0  0  0  0
   12.0787    7.7176    3.9886 Br  0  0  0  0  0  0  0  0  0  0  0  0
   11.1926    5.4557    2.4926 C   0  0  0  0  0  0  0  0  0  0  0  0
   10.3699    4.3576    2.2518 C   0  0  0  0  0  0  0  0  0  0  0  0
   10.6446    3.5530    1.2127 F   0  0  0  0  0  0  0  0  0  0  0  0
    8.7925    2.1420    5.1566 N   0  0  0  0  0  0  0  0  0  0  0  0
    8.3561    1.3937    6.1687 C   0  0  0  0  0  0  0  0  0  0  0  0
    7.3406    0.5283    6.1247 N   0  0  0  0  0  0  0  0  0  0  0  0
    6.7275    0.3820    4.9479 C   0  0  0  0  0  0  0  0  0  0  0  0
    5.6292   -0.4714    4.8732 C   0  0  0  0  0  0  0  0  0  0  0  0
    4.9121   -0.6596    3.6870 C   0  0  0  0  0  0  0  0  0  0  0  0
    3.8542   -1.5313    3.7847 O   0  0  0  0  0  0  0  0  0  0  0  0
    3.5656   -2.2744    2.5962 C   0  0  0  0  0  0  0  0  0  0  0  0
    3.0316   -3.6675    2.9406 C   0  0  0  0  0  0  0  0  0  0  0  0
    2.8301   -4.4775    1.7474 N   0  0  0  0  0  0  0  0  0  0  0  0
    3.8992   -5.0588    1.1046 C   0  0  0  0  0  0  0  0  0  0  0  0
    5.0440   -5.0239    1.5346 O   0  0  0  0  0  0  0  0  0  0  0  0
    3.6388   -5.7213   -0.2026 C   0  0  0  0  0  0  0  0  0  0  0  0
    3.3292   -4.8559   -1.4050 C   0  0  0  0  0  0  0  0  0  0  0  0
    2.3091   -5.8358   -0.9038 C   0  0  0  0  0  0  0  0  0  0  0  0
    3.4948    4.3906    2.5429 H   0  0  0  0  0  0  0  0  0  0  0  0
    3.5892    3.9124    0.7492 H   0  0  0  0  0  0  0  0  0  0  0  0
    3.5559    2.0203    3.1853 H   0  0  0  0  0  0  0  0  0  0  0  0
    4.7983   -0.2894    0.5785 H   0  0  0  0  0  0  0  0  0  0  0  0
    6.6946    1.4529    1.6987 H   0  0  0  0  0  0  0  0  0  0  0  0
    8.8534    2.3398    2.0986 H   0  0  0  0  0  0  0  0  0  0  0  0
    8.1479    4.7472    4.7885 H   0  0  0  0  0  0  0  0  0  0  0  0
    9.5905    6.6824    5.2416 H   0  0  0  0  0  0  0  0  0  0  0  0
   12.0431    5.6376    1.8446 H   0  0  0  0  0  0  0  0  0  0  0  0
    8.8669    1.5087    7.1189 H   0  0  0  0  0  0  0  0  0  0  0  0
    5.3071   -0.9837    5.7760 H   0  0  0  0  0  0  0  0  0  0  0  0
    4.4617   -2.3967    1.9742 H   0  0  0  0  0  0  0  0  0  0  0  0
    2.7984   -1.7390    2.0248 H   0  0  0  0  0  0  0  0  0  0  0  0
    2.0732   -3.5946    3.4656 H   0  0  0  0  0  0  0  0  0  0  0  0
    3.7306   -4.1812    3.6106 H   0  0  0  0  0  0  0  0  0  0  0  0
    1.9356   -4.4382    1.2823 H   0  0  0  0  0  0  0  0  0  0  0  0
    4.3242   -6.5489   -0.3762 H   0  0  0  0  0  0  0  0  0  0  0  0
    3.8484   -5.0790   -2.3306 H   0  0  0  0  0  0  0  0  0  0  0  0
    3.1395   -3.7996   -1.2506 H   0  0  0  0  0  0  0  0  0  0  0  0
    2.1354   -6.7244   -1.5037 H   0  0  0  0  0  0  0  0  0  0  0  0
    1.4066   -5.4478   -0.4526 H   0  0  0  0  0  0  0  0  0  0  0  0
  1  2  2  0  0  0  0
  1 34  1  0  0  0  0
  1 35  1  0  0  0  0
  2  3  1  0  0  0  0
  2 36  1  0  0  0  0
  3  4  2  0  0  0  0
  3  5  1  0  0  0  0
  5  6  1  0  0  0  0
  5 37  1  0  0  0  0
  6  7  1  0  0  0  0
  6 24  2  0  0  0  0
  7  8  2  0  0  0  0
  7 38  1  0  0  0  0
  8  9  1  0  0  0  0
  8 22  1  0  0  0  0
  9 10  1  0  0  0  0
  9 19  2  0  0  0  0
 10 11  1  0  0  0  0
 10 39  1  0  0  0  0
 11 12  1  0  0  0  0
 11 17  2  0  0  0  0
 12 13  2  0  0  0  0
 12 40  1  0  0  0  0
 13 14  1  0  0  0  0
 13 41  1  0  0  0  0
 14 15  1  0  0  0  0
 14 16  2  0  0  0  0
 16 17  1  0  0  0  0
 16 42  1  0  0  0  0
 17 18  1  0  0  0  0
 19 20  1  0  0  0  0
 20 21  2  0  0  0  0
 20 43  1  0  0  0  0
 21 22  1  0  0  0  0
 22 23  2  0  0  0  0
 23 24  1  0  0  0  0
 23 44  1  0  0  0  0
 24 25  1  0  0  0  0
 25 26  1  0  0  0  0
 26 27  1  0  0  0  0
 26 45  1  0  0  0  0
 26 46  1  0  0  0  0
 27 28  1  0  0  0  0
 27 47  1  0  0  0  0
 27 48  1  0  0  0  0
 28 29  1  0  0  0  0
 28 49  1  0  0  0  0
 29 30  2  0  0  0  0
 29 31  1  0  0  0  0
 31 32  1  0  0  0  0
 31 33  1  0  0  0  0
 31 50  1  0  0  0  0
 32 33  1  0  0  0  0
 32 51  1  0  0  0  0
 32 52  1  0  0  0  0
 33 53  1  0  0  0  0
 33 54  1  0  0  0  0
M  END
$$$$
