CHEMBL220750
 OpenBabel04072215363D

 61 64  0  0  1  0  0  0  0  0999 V2000
    0.5925   -0.5345    0.5147 C   0  0  0  0  0  0  0  0  0  0  0  0
    1.6739   -0.2295    1.4551 N   0  0  0  0  0  0  0  0  0  0  0  0
    1.6255    1.1868    1.8209 C   0  0  0  0  0  0  0  0  0  0  0  0
    2.9915   -0.6204    0.9159 C   0  0  1  0  0  0  0  0  0  0  0  0
    4.1473   -0.3633    1.8779 C   0  0  0  0  0  0  0  0  0  0  0  0
    5.2662   -1.2626    1.3666 C   0  0  0  0  0  0  0  0  0  0  0  0
    4.5997   -2.4031    0.7243 N   0  0  0  0  0  0  0  0  0  0  0  0
    5.0369   -3.7230    0.8672 C   0  0  0  0  0  0  0  0  0  0  0  0
    6.0071   -4.0764    1.8261 C   0  0  0  0  0  0  0  0  0  0  0  0
    6.4623   -5.3894    1.9926 C   0  0  0  0  0  0  0  0  0  0  0  0
    5.9538   -6.4211    1.2054 C   0  0  0  0  0  0  0  0  0  0  0  0
    6.4709   -7.8281    1.3477 C   0  0  0  0  0  0  0  0  0  0  0  0
    7.4400   -7.9544    2.3001 F   0  0  0  0  0  0  0  0  0  0  0  0
    5.4990   -8.7162    1.6898 F   0  0  0  0  0  0  0  0  0  0  0  0
    7.0268   -8.3002    0.1969 F   0  0  0  0  0  0  0  0  0  0  0  0
    4.9683   -6.1135    0.2585 C   0  0  0  0  0  0  0  0  0  0  0  0
    4.5255   -4.7912    0.0768 C   0  0  0  0  0  0  0  0  0  0  0  0
    3.6729   -4.5212   -1.0218 N   0  0  0  0  0  0  0  0  0  0  0  0
    2.4711   -5.1760   -1.2535 C   0  0  0  0  0  0  0  0  0  0  0  0
    2.0273   -6.0768   -0.5459 O   0  0  0  0  0  0  0  0  0  0  0  0
    1.6328   -4.6933   -2.4012 C   0  0  0  0  0  0  0  0  0  0  0  0
    0.3615   -5.2666   -2.6226 C   0  0  0  0  0  0  0  0  0  0  0  0
   -0.4473   -4.8293   -3.6826 C   0  0  0  0  0  0  0  0  0  0  0  0
   -1.7433   -5.4078   -3.9262 C   0  0  0  0  0  0  0  0  0  0  0  0
   -2.8212   -5.8657   -4.1873 C   0  0  0  0  0  0  0  0  0  0  0  0
   -4.0933   -6.4264   -4.5419 C   0  0  0  0  0  0  0  0  0  0  0  0
   -5.1858   -5.6682   -4.8864 C   0  0  0  0  0  0  0  0  0  0  0  0
   -6.3856   -6.1884   -5.2512 N   0  0  0  0  0  0  0  0  0  0  0  0
   -6.4706   -7.5216   -5.2860 C   0  0  0  0  0  0  0  0  0  0  0  0
   -7.6731   -8.0804   -5.6663 N   0  0  0  0  0  0  0  0  0  0  0  0
   -5.4840   -8.3549   -4.9460 N   0  0  0  0  0  0  0  0  0  0  0  0
   -4.3076   -7.7855   -4.5886 C   0  0  0  0  0  0  0  0  0  0  0  0
    0.0102   -3.8209   -4.5332 C   0  0  0  0  0  0  0  0  0  0  0  0
    1.2634   -3.2497   -4.3232 C   0  0  0  0  0  0  0  0  0  0  0  0
    2.0612   -3.6850   -3.2663 C   0  0  0  0  0  0  0  0  0  0  0  0
    3.2523   -3.0894   -3.1030 F   0  0  0  0  0  0  0  0  0  0  0  0
    3.1507   -2.1349    0.6352 C   0  0  0  0  0  0  0  0  0  0  0  0
   -0.3783   -0.2656    0.9461 H   0  0  0  0  0  0  0  0  0  0  0  0
    0.5406   -1.6071    0.2995 H   0  0  0  0  0  0  0  0  0  0  0  0
    0.7093    0.0029   -0.4332 H   0  0  0  0  0  0  0  0  0  0  0  0
    0.6575    1.4309    2.2721 H   0  0  0  0  0  0  0  0  0  0  0  0
    1.7820    1.8399    0.9555 H   0  0  0  0  0  0  0  0  0  0  0  0
    2.3758    1.4305    2.5800 H   0  0  0  0  0  0  0  0  0  0  0  0
    3.1914   -0.0739   -0.0178 H   0  0  0  0  0  0  0  0  0  0  0  0
    3.8757   -0.6469    2.9027 H   0  0  0  0  0  0  0  0  0  0  0  0
    4.4642    0.6849    1.8884 H   0  0  0  0  0  0  0  0  0  0  0  0
    5.9256   -1.4903    2.2063 H   0  0  0  0  0  0  0  0  0  0  0  0
    5.8627   -0.7451    0.6086 H   0  0  0  0  0  0  0  0  0  0  0  0
    6.4324   -3.3461    2.5049 H   0  0  0  0  0  0  0  0  0  0  0  0
    7.2209   -5.5922    2.7483 H   0  0  0  0  0  0  0  0  0  0  0  0
    4.5915   -6.9015   -0.3921 H   0  0  0  0  0  0  0  0  0  0  0  0
    3.8310   -3.6189   -1.4584 H   0  0  0  0  0  0  0  0  0  0  0  0
    0.0029   -6.0540   -1.9596 H   0  0  0  0  0  0  0  0  0  0  0  0
   -5.1520   -4.5804   -4.8938 H   0  0  0  0  0  0  0  0  0  0  0  0
   -8.4300   -7.4387   -5.5067 H   0  0  0  0  0  0  0  0  0  0  0  0
   -7.7574   -9.0150   -5.2920 H   0  0  0  0  0  0  0  0  0  0  0  0
   -3.5194   -8.4893   -4.3433 H   0  0  0  0  0  0  0  0  0  0  0  0
   -0.6037   -3.4738   -5.3628 H   0  0  0  0  0  0  0  0  0  0  0  0
    1.6273   -2.4651   -4.9799 H   0  0  0  0  0  0  0  0  0  0  0  0
    2.5896   -2.7397    1.3585 H   0  0  0  0  0  0  0  0  0  0  0  0
    2.7638   -2.3213   -0.3687 H   0  0  0  0  0  0  0  0  0  0  0  0
  1  2  1  0  0  0  0
  1 38  1  0  0  0  0
  1 39  1  0  0  0  0
  1 40  1  0  0  0  0
  2  3  1  0  0  0  0
  3 41  1  0  0  0  0
  3 42  1  0  0  0  0
  3 43  1  0  0  0  0
  4  5  1  0  0  0  0
  4 37  1  0  0  0  0
  4  2  1  0  0  0  0
  4 44  1  6  0  0  0
  5  6  1  0  0  0  0
  5 45  1  0  0  0  0
  5 46  1  0  0  0  0
  6  7  1  0  0  0  0
  6 47  1  0  0  0  0
  6 48  1  0  0  0  0
  7  8  1  0  0  0  0
  7 37  1  0  0  0  0
  8  9  1  0  0  0  0
  8 17  2  0  0  0  0
  9 10  2  0  0  0  0
  9 49  1  0  0  0  0
 10 11  1  0  0  0  0
 10 50  1  0  0  0  0
 11 12  1  0  0  0  0
 11 16  2  0  0  0  0
 12 13  1  0  0  0  0
 12 14  1  0  0  0  0
 12 15  1  0  0  0  0
 16 17  1  0  0  0  0
 16 51  1  0  0  0  0
 17 18  1  0  0  0  0
 18 19  1  0  0  0  0
 18 52  1  0  0  0  0
 19 20  2  0  0  0  0
 19 21  1  0  0  0  0
 21 22  1  0  0  0  0
 21 35  2  0  0  0  0
 22 23  2  0  0  0  0
 22 53  1  0  0  0  0
 23 24  1  0  0  0  0
 23 33  1  0  0  0  0
 24 25  3  0  0  0  0
 25 26  1  0  0  0  0
 26 27  1  0  0  0  0
 26 32  2  0  0  0  0
 27 28  2  0  0  0  0
 27 54  1  0  0  0  0
 28 29  1  0  0  0  0
 29 30  1  0  0  0  0
 29 31  2  0  0  0  0
 30 55  1  0  0  0  0
 30 56  1  0  0  0  0
 31 32  1  0  0  0  0
 32 57  1  0  0  0  0
 33 34  2  0  0  0  0
 33 58  1  0  0  0  0
 34 35  1  0  0  0  0
 34 59  1  0  0  0  0
 35 36  1  0  0  0  0
 37 60  1  0  0  0  0
 37 61  1  0  0  0  0
M  END
$$$$
