CHEMBL4453429
 OpenBabel04072215383D

 54 57  0  0  0  0  0  0  0  0999 V2000
    3.5636   -0.0716    1.1989 C   0  0  0  0  0  0  0  0  0  0  0  0
    2.6755    0.4229    0.1941 O   0  0  0  0  0  0  0  0  0  0  0  0
    3.2215    0.6351   -1.0418 C   0  0  0  0  0  0  0  0  0  0  0  0
    4.1916   -0.2263   -1.5570 C   0  0  0  0  0  0  0  0  0  0  0  0
    4.8039    0.0211   -2.8036 C   0  0  0  0  0  0  0  0  0  0  0  0
    5.8612   -0.7440   -3.3246 C   0  0  0  0  0  0  0  0  0  0  0  0
    6.2765   -1.8975   -2.6262 N   0  0  0  0  0  0  0  0  0  0  0  0
    7.5649   -2.4548   -2.5355 C   0  0  0  0  0  0  0  0  0  0  0  0
    8.7168   -1.6663   -2.6263 C   0  0  0  0  0  0  0  0  0  0  0  0
    9.9703   -2.1953   -2.3047 C   0  0  0  0  0  0  0  0  0  0  0  0
   10.0814   -3.5272   -1.9091 C   0  0  0  0  0  0  0  0  0  0  0  0
   11.7541   -4.1927   -1.3346 Br  0  0  0  0  0  0  0  0  0  0  0  0
    8.9629   -4.3529   -1.8881 C   0  0  0  0  0  0  0  0  0  0  0  0
    7.7195   -3.8075   -2.1941 C   0  0  0  0  0  0  0  0  0  0  0  0
    6.6333   -4.5945   -2.1261 F   0  0  0  0  0  0  0  0  0  0  0  0
    6.4975   -0.4010   -4.4581 N   0  0  0  0  0  0  0  0  0  0  0  0
    6.0357    0.6782   -5.0982 C   0  0  0  0  0  0  0  0  0  0  0  0
    5.0084    1.4452   -4.7182 N   0  0  0  0  0  0  0  0  0  0  0  0
    4.4099    1.1301   -3.5655 C   0  0  0  0  0  0  0  0  0  0  0  0
    3.3802    1.9163   -3.0837 C   0  0  0  0  0  0  0  0  0  0  0  0
    2.7863    1.7066   -1.8319 C   0  0  0  0  0  0  0  0  0  0  0  0
    1.8318    2.6388   -1.5284 O   0  0  0  0  0  0  0  0  0  0  0  0
    1.5513    2.9370   -0.1618 C   0  0  0  0  0  0  0  0  0  0  0  0
    2.7615    3.5168    0.5800 C   0  0  0  0  0  0  0  0  0  0  0  0
    2.4748    3.7782    1.9790 N   0  0  0  0  0  0  0  0  0  0  0  0
    1.8896    4.9572    2.3743 C   0  0  0  0  0  0  0  0  0  0  0  0
    1.6337    5.8697    1.5914 O   0  0  0  0  0  0  0  0  0  0  0  0
    1.5778    5.0647    3.8460 C   0  0  0  0  0  0  0  0  0  0  0  0
    2.3977    6.0810    4.4628 N   0  0  0  0  0  0  0  0  0  0  0  0
    2.4227    7.4171    4.1924 C   0  0  0  0  0  0  0  0  0  0  0  0
    3.3547    7.9995    4.9135 N   0  0  0  0  0  0  0  0  0  0  0  0
    3.8782    6.9484    5.6292 C   0  0  0  0  0  0  0  0  0  0  0  0
    5.0249    7.0862    6.5162 N   0  3  0  0  0  0  0  0  0  0  0  0
    5.5691    8.1999    6.5698 O   0  0  0  0  0  0  0  0  0  0  0  0
    5.3919    6.0832    7.1504 O   0  5  0  0  0  0  0  0  0  0  0  0
    3.3038    5.7516    5.4064 N   0  0  0  0  0  0  0  0  0  0  0  0
    3.4247    0.5370    2.0973 H   0  0  0  0  0  0  0  0  0  0  0  0
    4.6252   -0.0075    0.9365 H   0  0  0  0  0  0  0  0  0  0  0  0
    3.2955   -1.1052    1.4336 H   0  0  0  0  0  0  0  0  0  0  0  0
    4.5115   -1.0839   -0.9766 H   0  0  0  0  0  0  0  0  0  0  0  0
    5.5322   -2.5837   -2.5464 H   0  0  0  0  0  0  0  0  0  0  0  0
    8.6448   -0.6163   -2.8991 H   0  0  0  0  0  0  0  0  0  0  0  0
   10.8424   -1.5474   -2.3343 H   0  0  0  0  0  0  0  0  0  0  0  0
    9.0336   -5.3973   -1.6043 H   0  0  0  0  0  0  0  0  0  0  0  0
    6.5459    0.9588   -6.0118 H   0  0  0  0  0  0  0  0  0  0  0  0
    3.0523    2.7675   -3.6891 H   0  0  0  0  0  0  0  0  0  0  0  0
    1.0969    2.0819    0.3498 H   0  0  0  0  0  0  0  0  0  0  0  0
    0.7600    3.6975   -0.1728 H   0  0  0  0  0  0  0  0  0  0  0  0
    3.0829    4.4422    0.0881 H   0  0  0  0  0  0  0  0  0  0  0  0
    3.6242    2.8461    0.5559 H   0  0  0  0  0  0  0  0  0  0  0  0
    2.6655    3.0411    2.6479 H   0  0  0  0  0  0  0  0  0  0  0  0
    1.7474    4.1136    4.3612 H   0  0  0  0  0  0  0  0  0  0  0  0
    0.5268    5.3421    3.9724 H   0  0  0  0  0  0  0  0  0  0  0  0
    1.7800    7.8919    3.4607 H   0  0  0  0  0  0  0  0  0  0  0  0
  1  2  1  0  0  0  0
  1 37  1  0  0  0  0
  1 38  1  0  0  0  0
  1 39  1  0  0  0  0
  2  3  1  0  0  0  0
  3  4  1  0  0  0  0
  3 21  2  0  0  0  0
  4  5  2  0  0  0  0
  4 40  1  0  0  0  0
  5  6  1  0  0  0  0
  5 19  1  0  0  0  0
  6  7  1  0  0  0  0
  6 16  2  0  0  0  0
  7  8  1  0  0  0  0
  7 41  1  0  0  0  0
  8  9  1  0  0  0  0
  8 14  2  0  0  0  0
  9 10  2  0  0  0  0
  9 42  1  0  0  0  0
 10 11  1  0  0  0  0
 10 43  1  0  0  0  0
 11 12  1  0  0  0  0
 11 13  2  0  0  0  0
 13 14  1  0  0  0  0
 13 44  1  0  0  0  0
 14 15  1  0  0  0  0
 16 17  1  0  0  0  0
 17 18  2  0  0  0  0
 17 45  1  0  0  0  0
 18 19  1  0  0  0  0
 19 20  2  0  0  0  0
 20 21  1  0  0  0  0
 20 46  1  0  0  0  0
 21 22  1  0  0  0  0
 22 23  1  0  0  0  0
 23 24  1  0  0  0  0
 23 47  1  0  0  0  0
 23 48  1  0  0  0  0
 24 25  1  0  0  0  0
 24 49  1  0  0  0  0
 24 50  1  0  0  0  0
 25 26  1  0  0  0  0
 25 51  1  0  0  0  0
 26 27  2  0  0  0  0
 26 28  1  0  0  0  0
 28 29  1  0  0  0  0
 28 52  1  0  0  0  0
 28 53  1  0  0  0  0
 29 30  1  0  0  0  0
 29 36  1  0  0  0  0
 30 31  2  0  0  0  0
 30 54  1  0  0  0  0
 31 32  1  0  0  0  0
 32 33  1  0  0  0  0
 32 36  2  0  0  0  0
 33 34  2  0  0  0  0
 33 35  1  0  0  0  0
M  CHG  2  33   1  35  -1
M  END
$$$$
