CHEMBL4777374
 OpenBabel04072215383D

 56 60  0  0  0  0  0  0  0  0999 V2000
    2.1240   -0.6884   -1.9729 C   0  0  0  0  0  0  0  0  0  0  0  0
    0.7010   -0.4337   -1.5796 C   0  0  0  0  0  0  0  0  0  0  0  0
    0.1434    0.8250   -1.7677 C   0  0  0  0  0  0  0  0  0  0  0  0
   -1.1781    1.0736   -1.3961 C   0  0  0  0  0  0  0  0  0  0  0  0
   -1.9951    0.0733   -0.8499 C   0  0  0  0  0  0  0  0  0  0  0  0
   -3.3513    0.3011   -0.4970 N   0  0  0  0  0  0  0  0  0  0  0  0
   -4.0732    1.4269   -0.8595 C   0  0  0  0  0  0  0  0  0  0  0  0
   -3.6447    2.2470   -1.6650 O   0  0  0  0  0  0  0  0  0  0  0  0
   -5.2908    1.5470   -0.2273 N   0  0  0  0  0  0  0  0  0  0  0  0
   -6.0676    2.7081   -0.3437 C   0  0  0  0  0  0  0  0  0  0  0  0
   -7.0978    2.8259    0.4980 N   0  0  0  0  0  0  0  0  0  0  0  0
   -7.7579    4.0072    0.5067 C   0  0  0  0  0  0  0  0  0  0  0  0
   -8.7808    4.2382    1.4502 N   0  0  0  0  0  0  0  0  0  0  0  0
   -8.9510    3.5895    2.6838 C   0  0  0  0  0  0  0  0  0  0  0  0
   -7.8477    3.1610    3.4354 C   0  0  0  0  0  0  0  0  0  0  0  0
   -8.0159    2.5021    4.6512 C   0  0  0  0  0  0  0  0  0  0  0  0
   -9.2989    2.2594    5.1302 C   0  0  0  0  0  0  0  0  0  0  0  0
  -10.4070    2.6822    4.4001 C   0  0  0  0  0  0  0  0  0  0  0  0
  -10.2341    3.3491    3.1842 C   0  0  0  0  0  0  0  0  0  0  0  0
   -7.3997    5.0621   -0.3026 C   0  0  0  0  0  0  0  0  0  0  0  0
   -6.3195    4.8488   -1.1176 C   0  0  0  0  0  0  0  0  0  0  0  0
   -5.5065    6.2101   -1.9456 S   0  0  0  0  0  0  0  0  0  0  0  0
   -4.2827    6.5152   -0.7207 C   0  0  0  0  0  0  0  0  0  0  0  0
   -3.0895    5.8430   -0.5777 C   0  0  0  0  0  0  0  0  0  0  0  0
   -2.4980    6.3347    0.5557 N   0  0  0  0  0  0  0  0  0  0  0  0
   -3.4664    6.9332    1.3304 C   0  0  0  0  0  0  0  0  0  0  0  0
   -3.5363    7.1741    2.7054 C   0  0  0  0  0  0  0  0  0  0  0  0
   -4.6430    7.8944    3.1656 C   0  0  0  0  0  0  0  0  0  0  0  0
   -5.5602    8.4522    2.2749 C   0  0  0  0  0  0  0  0  0  0  0  0
   -5.4868    8.1744    0.9066 C   0  0  0  0  0  0  0  0  0  0  0  0
   -4.4823    7.3027    0.4483 C   0  0  0  0  0  0  0  0  0  0  0  0
   -5.6994    3.6694   -1.1841 N   0  0  0  0  0  0  0  0  0  0  0  0
   -1.4270   -1.1870   -0.6449 C   0  0  0  0  0  0  0  0  0  0  0  0
   -0.0932   -1.4361   -1.0121 C   0  0  0  0  0  0  0  0  0  0  0  0
    2.5897    0.2127   -2.3902 H   0  0  0  0  0  0  0  0  0  0  0  0
    2.1747   -1.4723   -2.7350 H   0  0  0  0  0  0  0  0  0  0  0  0
    2.7115   -0.9849   -1.0993 H   0  0  0  0  0  0  0  0  0  0  0  0
    0.7178    1.6311   -2.2160 H   0  0  0  0  0  0  0  0  0  0  0  0
   -1.5300    2.0853   -1.5585 H   0  0  0  0  0  0  0  0  0  0  0  0
   -3.8588   -0.4627   -0.0748 H   0  0  0  0  0  0  0  0  0  0  0  0
   -5.5781    0.9253    0.5072 H   0  0  0  0  0  0  0  0  0  0  0  0
   -9.6141    4.6516    1.0553 H   0  0  0  0  0  0  0  0  0  0  0  0
   -6.8374    3.3538    3.0815 H   0  0  0  0  0  0  0  0  0  0  0  0
   -7.1451    2.1817    5.2160 H   0  0  0  0  0  0  0  0  0  0  0  0
   -9.4348    1.7378    6.0724 H   0  0  0  0  0  0  0  0  0  0  0  0
  -11.4077    2.4909    4.7762 H   0  0  0  0  0  0  0  0  0  0  0  0
  -11.1139    3.6718    2.6335 H   0  0  0  0  0  0  0  0  0  0  0  0
   -7.8636    6.0347   -0.2205 H   0  0  0  0  0  0  0  0  0  0  0  0
   -2.6259    5.0551   -1.1590 H   0  0  0  0  0  0  0  0  0  0  0  0
   -1.5372    6.1852    0.8328 H   0  0  0  0  0  0  0  0  0  0  0  0
   -2.8073    6.7615    3.3951 H   0  0  0  0  0  0  0  0  0  0  0  0
   -4.7850    8.0322    4.2351 H   0  0  0  0  0  0  0  0  0  0  0  0
   -6.3704    9.0715    2.6502 H   0  0  0  0  0  0  0  0  0  0  0  0
   -6.2261    8.5741    0.2202 H   0  0  0  0  0  0  0  0  0  0  0  0
   -2.0070   -1.9988   -0.2131 H   0  0  0  0  0  0  0  0  0  0  0  0
    0.3280   -2.4266   -0.8502 H   0  0  0  0  0  0  0  0  0  0  0  0
  1  2  1  0  0  0  0
  1 35  1  0  0  0  0
  1 36  1  0  0  0  0
  1 37  1  0  0  0  0
  2  3  1  0  0  0  0
  2 34  2  0  0  0  0
  3  4  2  0  0  0  0
  3 38  1  0  0  0  0
  4  5  1  0  0  0  0
  4 39  1  0  0  0  0
  5  6  1  0  0  0  0
  5 33  2  0  0  0  0
  6  7  1  0  0  0  0
  6 40  1  0  0  0  0
  7  8  2  0  0  0  0
  7  9  1  0  0  0  0
  9 10  1  0  0  0  0
  9 41  1  0  0  0  0
 10 11  1  0  0  0  0
 10 32  2  0  0  0  0
 11 12  2  0  0  0  0
 12 13  1  0  0  0  0
 12 20  1  0  0  0  0
 13 14  1  0  0  0  0
 13 42  1  0  0  0  0
 14 15  1  0  0  0  0
 14 19  2  0  0  0  0
 15 16  2  0  0  0  0
 15 43  1  0  0  0  0
 16 17  1  0  0  0  0
 16 44  1  0  0  0  0
 17 18  2  0  0  0  0
 17 45  1  0  0  0  0
 18 19  1  0  0  0  0
 18 46  1  0  0  0  0
 19 47  1  0  0  0  0
 20 21  2  0  0  0  0
 20 48  1  0  0  0  0
 21 22  1  0  0  0  0
 21 32  1  0  0  0  0
 22 23  1  0  0  0  0
 23 24  2  0  0  0  0
 23 31  1  0  0  0  0
 24 25  1  0  0  0  0
 24 49  1  0  0  0  0
 25 26  1  0  0  0  0
 25 50  1  0  0  0  0
 26 27  1  0  0  0  0
 26 31  2  0  0  0  0
 27 28  2  0  0  0  0
 27 51  1  0  0  0  0
 28 29  1  0  0  0  0
 28 52  1  0  0  0  0
 29 30  2  0  0  0  0
 29 53  1  0  0  0  0
 30 31  1  0  0  0  0
 30 54  1  0  0  0  0
 33 34  1  0  0  0  0
 33 55  1  0  0  0  0
 34 56  1  0  0  0  0
M  END
$$$$
