CHEMBL3702643
 OpenBabel04072215373D

 45 48  0  0  0  0  0  0  0  0999 V2000
    4.2298   -3.0181    1.8141 N   0  0  0  0  0  0  0  0  0  0  0  0
    4.8012   -1.7665    1.7151 C   0  0  0  0  0  0  0  0  0  0  0  0
    4.9981   -1.0898    2.8610 N   0  0  0  0  0  0  0  0  0  0  0  0
    5.5742    0.1259    2.7683 C   0  0  0  0  0  0  0  0  0  0  0  0
    5.9552    0.6470    1.5701 C   0  0  0  0  0  0  0  0  0  0  0  0
    5.7275   -0.1329    0.4634 C   0  0  0  0  0  0  0  0  0  0  0  0
    5.1601   -1.3486    0.4949 N   0  0  0  0  0  0  0  0  0  0  0  0
    6.2632    0.5531   -0.7682 C   0  0  0  0  0  0  0  0  0  0  0  0
    6.8957    1.7783   -0.2283 N   0  0  0  0  0  0  0  0  0  0  0  0
    7.9272    2.4497   -0.8537 C   0  0  0  0  0  0  0  0  0  0  0  0
    8.4018    2.1001   -2.1264 C   0  0  0  0  0  0  0  0  0  0  0  0
    9.4926    2.7544   -2.7235 C   0  0  0  0  0  0  0  0  0  0  0  0
   10.1378    3.7992   -2.0657 C   0  0  0  0  0  0  0  0  0  0  0  0
    9.6685    4.1933   -0.8155 C   0  0  0  0  0  0  0  0  0  0  0  0
   10.3397    5.2370    0.0059 C   0  0  0  0  0  0  0  0  0  0  0  0
   10.3120    5.0879    1.2257 O   0  0  0  0  0  0  0  0  0  0  0  0
   10.8794    6.3160   -0.6726 N   0  0  0  0  0  0  0  0  0  0  0  0
   11.5014    7.4303   -0.0611 C   0  0  0  0  0  0  0  0  0  0  0  0
   11.9424    7.4247    1.2662 C   0  0  0  0  0  0  0  0  0  0  0  0
   12.4747    8.5749    1.8520 C   0  0  0  0  0  0  0  0  0  0  0  0
   12.5757    9.7491    1.1142 C   0  0  0  0  0  0  0  0  0  0  0  0
   12.1685    9.7759   -0.2264 C   0  0  0  0  0  0  0  0  0  0  0  0
   12.2464   11.0504   -1.0286 C   0  0  0  0  0  0  0  0  0  0  0  0
   12.6665   12.1270   -0.3072 F   0  0  0  0  0  0  0  0  0  0  0  0
   13.1006   10.9505   -2.0839 F   0  0  0  0  0  0  0  0  0  0  0  0
   11.0414   11.4044   -1.5563 F   0  0  0  0  0  0  0  0  0  0  0  0
   11.6547    8.6009   -0.8129 C   0  0  0  0  0  0  0  0  0  0  0  0
    8.5702    3.5330   -0.2381 C   0  0  0  0  0  0  0  0  0  0  0  0
    6.6299    1.9190    1.2214 C   0  0  0  0  0  0  0  0  0  0  0  0
    4.3900   -3.3876    2.7407 H   0  0  0  0  0  0  0  0  0  0  0  0
    4.5195   -3.5859    1.0309 H   0  0  0  0  0  0  0  0  0  0  0  0
    5.7260    0.6488    3.7064 H   0  0  0  0  0  0  0  0  0  0  0  0
    5.4418    0.8169   -1.4424 H   0  0  0  0  0  0  0  0  0  0  0  0
    6.9772   -0.1133   -1.2606 H   0  0  0  0  0  0  0  0  0  0  0  0
    7.9495    1.2835   -2.6830 H   0  0  0  0  0  0  0  0  0  0  0  0
    9.8494    2.4185   -3.6947 H   0  0  0  0  0  0  0  0  0  0  0  0
   11.0142    4.2548   -2.5161 H   0  0  0  0  0  0  0  0  0  0  0  0
   10.6627    6.4014   -1.6590 H   0  0  0  0  0  0  0  0  0  0  0  0
   11.8865    6.5313    1.8801 H   0  0  0  0  0  0  0  0  0  0  0  0
   12.7932    8.5484    2.8911 H   0  0  0  0  0  0  0  0  0  0  0  0
   12.9673   10.6444    1.5943 H   0  0  0  0  0  0  0  0  0  0  0  0
   11.3359    8.6313   -1.8536 H   0  0  0  0  0  0  0  0  0  0  0  0
    8.2347    3.8833    0.7358 H   0  0  0  0  0  0  0  0  0  0  0  0
    5.9677    2.7733    1.4012 H   0  0  0  0  0  0  0  0  0  0  0  0
    7.5514    2.0126    1.8052 H   0  0  0  0  0  0  0  0  0  0  0  0
  1  2  1  0  0  0  0
  1 30  1  0  0  0  0
  1 31  1  0  0  0  0
  2  3  1  0  0  0  0
  2  7  2  0  0  0  0
  3  4  2  0  0  0  0
  4  5  1  0  0  0  0
  4 32  1  0  0  0  0
  5  6  2  0  0  0  0
  5 29  1  0  0  0  0
  6  7  1  0  0  0  0
  6  8  1  0  0  0  0
  8  9  1  0  0  0  0
  8 33  1  0  0  0  0
  8 34  1  0  0  0  0
  9 10  1  0  0  0  0
  9 29  1  0  0  0  0
 10 11  1  0  0  0  0
 10 28  2  0  0  0  0
 11 12  2  0  0  0  0
 11 35  1  0  0  0  0
 12 13  1  0  0  0  0
 12 36  1  0  0  0  0
 13 14  2  0  0  0  0
 13 37  1  0  0  0  0
 14 15  1  0  0  0  0
 14 28  1  0  0  0  0
 15 16  2  0  0  0  0
 15 17  1  0  0  0  0
 17 18  1  0  0  0  0
 17 38  1  0  0  0  0
 18 19  1  0  0  0  0
 18 27  2  0  0  0  0
 19 20  2  0  0  0  0
 19 39  1  0  0  0  0
 20 21  1  0  0  0  0
 20 40  1  0  0  0  0
 21 22  2  0  0  0  0
 21 41  1  0  0  0  0
 22 23  1  0  0  0  0
 22 27  1  0  0  0  0
 23 24  1  0  0  0  0
 23 25  1  0  0  0  0
 23 26  1  0  0  0  0
 27 42  1  0  0  0  0
 28 43  1  0  0  0  0
 29 44  1  0  0  0  0
 29 45  1  0  0  0  0
M  END
$$$$
