CHEMBL3959956
 OpenBabel04072215373D

 45 48  0  0  0  0  0  0  0  0999 V2000
    2.8546    0.8713   -2.3723 C   0  0  0  0  0  0  0  0  0  0  0  0
    1.4380    0.5947   -1.9520 C   0  0  0  0  0  0  0  0  0  0  0  0
    0.9280   -0.7002   -2.0823 C   0  0  0  0  0  0  0  0  0  0  0  0
   -0.3682   -0.9773   -1.6711 C   0  0  0  0  0  0  0  0  0  0  0  0
   -1.1698    0.0329   -1.1415 C   0  0  0  0  0  0  0  0  0  0  0  0
   -2.3510   -0.3626   -0.6541 F   0  0  0  0  0  0  0  0  0  0  0  0
   -0.7188    1.3585   -1.0424 C   0  0  0  0  0  0  0  0  0  0  0  0
   -1.5066    2.4552   -0.5734 N   0  0  0  0  0  0  0  0  0  0  0  0
   -2.8914    2.4736   -0.4740 C   0  0  0  0  0  0  0  0  0  0  0  0
   -3.6413    1.5602   -0.7979 O   0  0  0  0  0  0  0  0  0  0  0  0
   -3.3891    3.7047   -0.0359 N   0  0  0  0  0  0  0  0  0  0  0  0
   -4.7999    3.8539    0.1026 C   0  0  0  0  0  0  0  0  0  0  0  0
   -5.5431    2.9586    0.8810 C   0  0  0  0  0  0  0  0  0  0  0  0
   -6.9411    3.0301    0.9152 C   0  0  0  0  0  0  0  0  0  0  0  0
   -7.6198    3.9845    0.1484 C   0  0  0  0  0  0  0  0  0  0  0  0
   -9.0916    3.9800    0.1085 C   0  0  0  0  0  0  0  0  0  0  0  0
   -9.7593    4.7164    1.0314 C   0  0  0  0  0  0  0  0  0  0  0  0
  -11.2146    4.7142    1.0515 C   0  0  0  0  0  0  0  0  0  0  0  0
  -11.9275    3.9944    0.1677 C   0  0  0  0  0  0  0  0  0  0  0  0
  -11.2518    3.2217   -0.8122 C   0  0  0  0  0  0  0  0  0  0  0  0
  -11.7056    2.4508   -1.7740 N   0  0  0  0  0  0  0  0  0  0  0  0
  -10.6232    1.9359   -2.4388 N   0  0  0  0  0  0  0  0  0  0  0  0
   -9.5235    2.3833   -1.8696 C   0  0  0  0  0  0  0  0  0  0  0  0
   -8.2665    2.0785   -2.2472 N   0  0  0  0  0  0  0  0  0  0  0  0
   -9.8557    3.2298   -0.8150 N   0  0  0  0  0  0  0  0  0  0  0  0
   -6.8717    4.9142   -0.5882 C   0  0  0  0  0  0  0  0  0  0  0  0
   -5.4669    4.8636   -0.5943 C   0  0  0  0  0  0  0  0  0  0  0  0
    0.6120    1.6173   -1.4318 C   0  0  0  0  0  0  0  0  0  0  0  0
    3.3462   -0.0401   -2.7350 H   0  0  0  0  0  0  0  0  0  0  0  0
    3.4392    1.2415   -1.5248 H   0  0  0  0  0  0  0  0  0  0  0  0
    2.8784    1.6028   -3.1853 H   0  0  0  0  0  0  0  0  0  0  0  0
    1.5387   -1.5052   -2.4854 H   0  0  0  0  0  0  0  0  0  0  0  0
   -0.7684   -1.9844   -1.7376 H   0  0  0  0  0  0  0  0  0  0  0  0
   -1.0221    3.3207   -0.3937 H   0  0  0  0  0  0  0  0  0  0  0  0
   -2.9031    4.4990   -0.4251 H   0  0  0  0  0  0  0  0  0  0  0  0
   -5.0398    2.1790    1.4495 H   0  0  0  0  0  0  0  0  0  0  0  0
   -7.4924    2.3084    1.5149 H   0  0  0  0  0  0  0  0  0  0  0  0
   -9.2479    5.3127    1.7817 H   0  0  0  0  0  0  0  0  0  0  0  0
  -11.7170    5.3074    1.8101 H   0  0  0  0  0  0  0  0  0  0  0  0
  -13.0126    3.9823    0.1804 H   0  0  0  0  0  0  0  0  0  0  0  0
   -8.1802    1.2991   -2.8937 H   0  0  0  0  0  0  0  0  0  0  0  0
   -7.4929    2.1165   -1.5859 H   0  0  0  0  0  0  0  0  0  0  0  0
   -7.3770    5.6617   -1.1974 H   0  0  0  0  0  0  0  0  0  0  0  0
   -4.9198    5.5642   -1.2184 H   0  0  0  0  0  0  0  0  0  0  0  0
    1.0200    2.6230   -1.3561 H   0  0  0  0  0  0  0  0  0  0  0  0
  1  2  1  0  0  0  0
  1 29  1  0  0  0  0
  1 30  1  0  0  0  0
  1 31  1  0  0  0  0
  2  3  1  0  0  0  0
  2 28  2  0  0  0  0
  3  4  2  0  0  0  0
  3 32  1  0  0  0  0
  4  5  1  0  0  0  0
  4 33  1  0  0  0  0
  5  6  1  0  0  0  0
  5  7  2  0  0  0  0
  7  8  1  0  0  0  0
  7 28  1  0  0  0  0
  8  9  1  0  0  0  0
  8 34  1  0  0  0  0
  9 10  2  0  0  0  0
  9 11  1  0  0  0  0
 11 12  1  0  0  0  0
 11 35  1  0  0  0  0
 12 13  1  0  0  0  0
 12 27  2  0  0  0  0
 13 14  2  0  0  0  0
 13 36  1  0  0  0  0
 14 15  1  0  0  0  0
 14 37  1  0  0  0  0
 15 16  1  0  0  0  0
 15 26  2  0  0  0  0
 16 17  2  0  0  0  0
 16 25  1  0  0  0  0
 17 18  1  0  0  0  0
 17 38  1  0  0  0  0
 18 19  2  0  0  0  0
 18 39  1  0  0  0  0
 19 20  1  0  0  0  0
 19 40  1  0  0  0  0
 20 21  2  0  0  0  0
 20 25  1  0  0  0  0
 21 22  1  0  0  0  0
 22 23  2  0  0  0  0
 23 24  1  0  0  0  0
 23 25  1  0  0  0  0
 24 41  1  0  0  0  0
 24 42  1  0  0  0  0
 26 27  1  0  0  0  0
 26 43  1  0  0  0  0
 27 44  1  0  0  0  0
 28 45  1  0  0  0  0
M  END
$$$$
