CHEMBL450024
 OpenBabel04072215383D

 50 52  0  0  0  0  0  0  0  0999 V2000
    1.3063    2.5571    0.8991 C   0  0  0  0  0  0  0  0  0  0  0  0
    2.7279    2.3641    0.8000 N   0  0  0  0  0  0  0  0  0  0  0  0
    3.2759    1.3709    0.0161 C   0  0  0  0  0  0  0  0  0  0  0  0
    2.6133    0.6120   -0.6831 O   0  0  0  0  0  0  0  0  0  0  0  0
    4.7723    1.2640    0.0847 C   0  0  0  0  0  0  0  0  0  0  0  0
    5.4280    0.3136   -0.6907 C   0  0  0  0  0  0  0  0  0  0  0  0
    6.8145    0.1979   -0.5701 C   0  0  0  0  0  0  0  0  0  0  0  0
    7.5003    1.0267    0.3161 C   0  0  0  0  0  0  0  0  0  0  0  0
    8.9166    0.8969    0.4951 C   0  0  0  0  0  0  0  0  0  0  0  0
   10.0987    0.7381    0.6451 C   0  0  0  0  0  0  0  0  0  0  0  0
   11.5055    0.4885    0.8106 C   0  0  0  0  0  0  0  0  0  0  0  0
   12.3921    1.5798    0.8369 C   0  0  0  0  0  0  0  0  0  0  0  0
   13.7688    1.3527    0.9322 C   0  0  0  0  0  0  0  0  0  0  0  0
   14.7908    2.4239    0.7862 C   0  0  0  0  0  0  0  0  0  0  0  0
   15.8553    2.0972    0.2684 O   0  0  0  0  0  0  0  0  0  0  0  0
   14.4917    3.6792    1.2946 N   0  0  0  0  0  0  0  0  0  0  0  0
   15.3846    4.7821    1.2567 C   0  0  0  0  0  0  0  0  0  0  0  0
   16.4678    4.8488    0.3737 C   0  0  0  0  0  0  0  0  0  0  0  0
   17.3789    5.9042    0.4244 C   0  0  0  0  0  0  0  0  0  0  0  0
   17.2188    6.9140    1.3653 C   0  0  0  0  0  0  0  0  0  0  0  0
   16.1288    6.8888    2.2467 C   0  0  0  0  0  0  0  0  0  0  0  0
   15.9799    7.9528    3.3054 C   0  0  0  0  0  0  0  0  0  0  0  0
   17.0148    8.8387    3.3406 F   0  0  0  0  0  0  0  0  0  0  0  0
   14.8536    8.6995    3.1432 F   0  0  0  0  0  0  0  0  0  0  0  0
   15.9014    7.4258    4.5594 F   0  0  0  0  0  0  0  0  0  0  0  0
   15.1955    5.8331    2.1618 C   0  0  0  0  0  0  0  0  0  0  0  0
   14.2490    0.0407    1.0451 C   0  0  0  0  0  0  0  0  0  0  0  0
   13.3739   -1.0408    1.0324 C   0  0  0  0  0  0  0  0  0  0  0  0
   11.9954   -0.8335    0.8972 C   0  0  0  0  0  0  0  0  0  0  0  0
   11.0953   -2.0364    0.7986 C   0  0  0  0  0  0  0  0  0  0  0  0
    6.7603    1.9590    1.0367 C   0  0  0  0  0  0  0  0  0  0  0  0
    5.4122    2.1064    0.9464 N   0  0  0  0  0  0  0  0  0  0  0  0
    1.1068    3.3929    1.5735 H   0  0  0  0  0  0  0  0  0  0  0  0
    0.8437    1.6454    1.2881 H   0  0  0  0  0  0  0  0  0  0  0  0
    0.8992    2.7703   -0.0930 H   0  0  0  0  0  0  0  0  0  0  0  0
    3.3730    2.9253    1.3495 H   0  0  0  0  0  0  0  0  0  0  0  0
    4.8703   -0.3307   -1.3648 H   0  0  0  0  0  0  0  0  0  0  0  0
    7.3432   -0.5459   -1.1621 H   0  0  0  0  0  0  0  0  0  0  0  0
   12.0032    2.5864    0.7154 H   0  0  0  0  0  0  0  0  0  0  0  0
   13.6859    3.7615    1.9005 H   0  0  0  0  0  0  0  0  0  0  0  0
   16.6358    4.0829   -0.3783 H   0  0  0  0  0  0  0  0  0  0  0  0
   18.2233    5.9178   -0.2607 H   0  0  0  0  0  0  0  0  0  0  0  0
   17.9565    7.7137    1.4146 H   0  0  0  0  0  0  0  0  0  0  0  0
   14.3542    5.8206    2.8520 H   0  0  0  0  0  0  0  0  0  0  0  0
   15.3208   -0.1451    1.1064 H   0  0  0  0  0  0  0  0  0  0  0  0
   13.7843   -2.0467    1.0923 H   0  0  0  0  0  0  0  0  0  0  0  0
   11.6650   -2.9688    0.8905 H   0  0  0  0  0  0  0  0  0  0  0  0
   10.5977   -2.0574   -0.1764 H   0  0  0  0  0  0  0  0  0  0  0  0
   10.3485   -2.0292    1.5975 H   0  0  0  0  0  0  0  0  0  0  0  0
    7.2438    2.6335    1.7398 H   0  0  0  0  0  0  0  0  0  0  0  0
  1  2  1  0  0  0  0
  1 33  1  0  0  0  0
  1 34  1  0  0  0  0
  1 35  1  0  0  0  0
  2  3  1  0  0  0  0
  2 36  1  0  0  0  0
  3  4  2  0  0  0  0
  3  5  1  0  0  0  0
  5  6  1  0  0  0  0
  5 32  2  0  0  0  0
  6  7  2  0  0  0  0
  6 37  1  0  0  0  0
  7  8  1  0  0  0  0
  7 38  1  0  0  0  0
  8  9  1  0  0  0  0
  8 31  2  0  0  0  0
  9 10  3  0  0  0  0
 10 11  1  0  0  0  0
 11 12  1  0  0  0  0
 11 29  2  0  0  0  0
 12 13  2  0  0  0  0
 12 39  1  0  0  0  0
 13 14  1  0  0  0  0
 13 27  1  0  0  0  0
 14 15  2  0  0  0  0
 14 16  1  0  0  0  0
 16 17  1  0  0  0  0
 16 40  1  0  0  0  0
 17 18  1  0  0  0  0
 17 26  2  0  0  0  0
 18 19  2  0  0  0  0
 18 41  1  0  0  0  0
 19 20  1  0  0  0  0
 19 42  1  0  0  0  0
 20 21  2  0  0  0  0
 20 43  1  0  0  0  0
 21 22  1  0  0  0  0
 21 26  1  0  0  0  0
 22 23  1  0  0  0  0
 22 24  1  0  0  0  0
 22 25  1  0  0  0  0
 26 44  1  0  0  0  0
 27 28  2  0  0  0  0
 27 45  1  0  0  0  0
 28 29  1  0  0  0  0
 28 46  1  0  0  0  0
 29 30  1  0  0  0  0
 30 47  1  0  0  0  0
 30 48  1  0  0  0  0
 30 49  1  0  0  0  0
 31 32  1  0  0  0  0
 31 50  1  0  0  0  0
M  END
$$$$
