CHEMBL4515912
 OpenBabel04072215383D

 53 55  0  0  1  0  0  0  0  0999 V2000
    1.1269   -0.1738    0.4807 C   0  0  0  0  0  0  0  0  0  0  0  0
    2.4747    0.2878    0.3533 O   0  0  0  0  0  0  0  0  0  0  0  0
    2.6092    1.6380    0.3692 C   0  0  0  0  0  0  0  0  0  0  0  0
    1.8735    2.5291    1.1332 C   0  0  0  0  0  0  0  0  0  0  0  0
    2.0107    3.9065    0.9342 C   0  0  0  0  0  0  0  0  0  0  0  0
    1.5602    4.6809    1.9799 O   0  0  0  0  0  0  0  0  0  0  0  0
    2.8259    4.4630   -0.0631 C   0  0  0  0  0  0  0  0  0  0  0  0
    3.8955    3.5735   -0.3669 C   0  0  0  0  0  0  0  0  0  0  0  0
    3.7030    2.1713   -0.3031 C   0  0  0  0  0  0  0  0  0  0  0  0
    5.3138    3.9577   -0.4587 C   0  0  0  0  0  0  0  0  0  0  0  0
    6.3247    3.7212    0.4817 C   0  0  0  0  0  0  0  0  0  0  0  0
    7.6208    4.2435    0.2890 C   0  0  0  0  0  0  0  0  0  0  0  0
    7.8641    5.1130   -0.7774 C   0  0  0  0  0  0  0  0  0  0  0  0
    6.8567    5.3279   -1.7158 C   0  0  0  0  0  0  0  0  0  0  0  0
    5.6909    4.5480   -1.6152 C   0  0  0  0  0  0  0  0  0  0  0  0
    6.8273    6.5535   -2.6529 C   0  0  2  0  0  0  0  0  0  0  0  0
    6.9675    7.7080   -1.8051 O   0  0  0  0  0  0  0  0  0  0  0  0
    5.4451    6.6031   -3.2932 C   0  0  1  0  0  0  0  0  0  0  0  0
    4.4885    6.9814   -2.2885 O   0  0  0  0  0  0  0  0  0  0  0  0
    4.9623    7.2521   -4.5555 C   0  0  0  0  0  0  0  0  0  0  0  0
    5.5556    8.1466   -5.1269 O   0  0  0  0  0  0  0  0  0  0  0  0
    3.6542    6.5981   -5.0556 C   0  0  0  0  0  0  0  0  0  0  0  0
    2.5043    7.5694   -5.0911 C   0  0  0  0  0  0  0  0  0  0  0  0
    1.2952    7.0922   -4.2428 C   0  0  0  0  0  0  0  0  0  0  0  0
    1.3728    7.2220   -2.6640 C   0  0  2  0  0  0  0  0  0  0  0  0
    1.7070    8.7104   -2.3761 C   0  0  0  0  0  0  0  0  0  0  0  0
    2.1244    6.0484   -1.9935 O   0  0  0  0  0  0  0  0  0  0  0  0
    2.4582    5.9318   -0.6239 C   0  0  0  0  0  0  0  0  0  0  0  0
    2.3002    6.8770    0.1434 O   0  0  0  0  0  0  0  0  0  0  0  0
    0.9926   -1.0371   -0.1812 H   0  0  0  0  0  0  0  0  0  0  0  0
    0.3803    0.5751    0.1885 H   0  0  0  0  0  0  0  0  0  0  0  0
    0.9556   -0.4962    1.5106 H   0  0  0  0  0  0  0  0  0  0  0  0
    1.2274    2.1373    1.9147 H   0  0  0  0  0  0  0  0  0  0  0  0
    1.9768    4.3262    2.8054 H   0  0  0  0  0  0  0  0  0  0  0  0
    4.4618    1.4834   -0.6771 H   0  0  0  0  0  0  0  0  0  0  0  0
    6.1334    3.1309    1.3795 H   0  0  0  0  0  0  0  0  0  0  0  0
    8.4105    4.0402    1.0106 H   0  0  0  0  0  0  0  0  0  0  0  0
    8.8103    5.6517   -0.8404 H   0  0  0  0  0  0  0  0  0  0  0  0
    4.9107    4.4938   -2.3621 H   0  0  0  0  0  0  0  0  0  0  0  0
    7.6330    6.5249   -3.3881 H   0  0  0  0  0  0  0  0  0  0  0  0
    6.5126    7.4916   -0.9599 H   0  0  0  0  0  0  0  0  0  0  0  0
    5.2807    5.5854   -3.6498 H   0  0  0  0  0  0  0  0  0  0  0  0
    4.6766    7.9067   -2.0455 H   0  0  0  0  0  0  0  0  0  0  0  0
    3.3817    5.7545   -4.4010 H   0  0  0  0  0  0  0  0  0  0  0  0
    3.8718    6.1513   -6.0262 H   0  0  0  0  0  0  0  0  0  0  0  0
    2.1853    7.6453   -6.1401 H   0  0  0  0  0  0  0  0  0  0  0  0
    2.8244    8.5805   -4.8163 H   0  0  0  0  0  0  0  0  0  0  0  0
    0.4548    7.7224   -4.5843 H   0  0  0  0  0  0  0  0  0  0  0  0
    1.0336    6.0666   -4.5216 H   0  0  0  0  0  0  0  0  0  0  0  0
    0.3368    7.0761   -2.3313 H   0  0  0  0  0  0  0  0  0  0  0  0
    1.0102    9.1386   -1.6461 H   0  0  0  0  0  0  0  0  0  0  0  0
    1.5219    9.3423   -3.2664 H   0  0  0  0  0  0  0  0  0  0  0  0
    2.7276    8.9039   -2.0563 H   0  0  0  0  0  0  0  0  0  0  0  0
  1  2  1  0  0  0  0
  1 30  1  0  0  0  0
  1 31  1  0  0  0  0
  1 32  1  0  0  0  0
  2  3  1  0  0  0  0
  3  4  1  0  0  0  0
  3  9  2  0  0  0  0
  4  5  2  0  0  0  0
  4 33  1  0  0  0  0
  5  6  1  0  0  0  0
  5  7  1  0  0  0  0
  6 34  1  0  0  0  0
  7  8  2  0  0  0  0
  7 28  1  0  0  0  0
  8  9  1  0  0  0  0
  8 10  1  0  0  0  0
  9 35  1  0  0  0  0
 10 11  1  0  0  0  0
 10 15  2  0  0  0  0
 11 12  2  0  0  0  0
 11 36  1  0  0  0  0
 12 13  1  0  0  0  0
 12 37  1  0  0  0  0
 13 14  2  0  0  0  0
 13 38  1  0  0  0  0
 14 15  1  0  0  0  0
 14 16  1  0  0  0  0
 15 39  1  0  0  0  0
 16 18  1  0  0  0  0
 16 17  1  0  0  0  0
 16 40  1  6  0  0  0
 17 41  1  0  0  0  0
 18 19  1  0  0  0  0
 18 20  1  0  0  0  0
 18 42  1  6  0  0  0
 19 43  1  0  0  0  0
 20 21  2  0  0  0  0
 20 22  1  0  0  0  0
 22 23  1  0  0  0  0
 22 44  1  0  0  0  0
 22 45  1  0  0  0  0
 23 24  1  0  0  0  0
 23 46  1  0  0  0  0
 23 47  1  0  0  0  0
 24 25  1  0  0  0  0
 24 48  1  0  0  0  0
 24 49  1  0  0  0  0
 25 27  1  0  0  0  0
 25 26  1  0  0  0  0
 25 50  1  1  0  0  0
 26 51  1  0  0  0  0
 26 52  1  0  0  0  0
 26 53  1  0  0  0  0
 27 28  1  0  0  0  0
 28 29  2  0  0  0  0
M  END
$$$$
