CHEMBL3958130
 OpenBabel04072215373D

 44 47  0  0  0  0  0  0  0  0999 V2000
    1.6442    0.1834   -1.2550 C   0  0  0  0  0  0  0  0  0  0  0  0
    2.2181   -0.0736    0.0702 N   0  0  0  0  0  0  0  0  0  0  0  0
    2.2595    0.9765    1.0189 C   0  0  0  0  0  0  0  0  0  0  0  0
    2.3814    0.6635    2.3860 C   0  0  0  0  0  0  0  0  0  0  0  0
    2.3482    1.6531    3.3784 C   0  0  0  0  0  0  0  0  0  0  0  0
    2.1989    2.9867    3.0259 C   0  0  0  0  0  0  0  0  0  0  0  0
    2.1055    3.3324    1.6822 C   0  0  0  0  0  0  0  0  0  0  0  0
    2.1440    2.3382    0.6927 C   0  0  0  0  0  0  0  0  0  0  0  0
    3.0408   -1.2395    0.0868 C   0  0  0  0  0  0  0  0  0  0  0  0
    2.5465   -2.5086   -0.2749 C   0  0  0  0  0  0  0  0  0  0  0  0
    3.3477   -3.6772   -0.2151 C   0  0  0  0  0  0  0  0  0  0  0  0
    4.7267   -3.5276    0.0337 C   0  0  0  0  0  0  0  0  0  0  0  0
    5.9075   -4.3118    0.2754 C   0  0  0  0  0  0  0  0  0  0  0  0
    6.2548   -5.0855    1.4591 C   0  0  0  0  0  0  0  0  0  0  0  0
    5.7168   -4.8174    2.6648 C   0  0  0  0  0  0  0  0  0  0  0  0
    6.5375   -4.5870    3.8812 C   0  0  0  0  0  0  0  0  0  0  0  0
    7.7283   -3.8332    3.8122 C   0  0  0  0  0  0  0  0  0  0  0  0
    8.3518   -3.3635    4.9768 C   0  0  0  0  0  0  0  0  0  0  0  0
    7.8063   -3.6529    6.2224 C   0  0  0  0  0  0  0  0  0  0  0  0
    6.6461   -4.4276    6.2965 C   0  0  0  0  0  0  0  0  0  0  0  0
    6.0036   -4.8818    5.1334 C   0  0  0  0  0  0  0  0  0  0  0  0
    6.9535   -3.6096   -0.2167 N   0  0  0  0  0  0  0  0  0  0  0  0
    6.5616   -2.3505    0.0310 N   0  0  0  0  0  0  0  0  0  0  0  0
    5.2088   -2.2332    0.1859 C   0  0  0  0  0  0  0  0  0  0  0  0
    4.4025   -1.1108    0.3902 C   0  0  0  0  0  0  0  0  0  0  0  0
    1.0921    1.1256   -1.3224 H   0  0  0  0  0  0  0  0  0  0  0  0
    0.9122   -0.5897   -1.5113 H   0  0  0  0  0  0  0  0  0  0  0  0
    2.4234    0.2003   -2.0272 H   0  0  0  0  0  0  0  0  0  0  0  0
    2.4686   -0.3758    2.6948 H   0  0  0  0  0  0  0  0  0  0  0  0
    2.4212    1.3687    4.4255 H   0  0  0  0  0  0  0  0  0  0  0  0
    2.1549    3.7554    3.7934 H   0  0  0  0  0  0  0  0  0  0  0  0
    1.9974    4.3761    1.3979 H   0  0  0  0  0  0  0  0  0  0  0  0
    2.0964    2.6698   -0.3397 H   0  0  0  0  0  0  0  0  0  0  0  0
    1.5085   -2.6104   -0.5865 H   0  0  0  0  0  0  0  0  0  0  0  0
    2.9204   -4.6430   -0.4691 H   0  0  0  0  0  0  0  0  0  0  0  0
    7.2784   -5.4634    1.4277 H   0  0  0  0  0  0  0  0  0  0  0  0
    4.7208   -4.3867    2.7420 H   0  0  0  0  0  0  0  0  0  0  0  0
    8.1538   -3.5427    2.8531 H   0  0  0  0  0  0  0  0  0  0  0  0
    9.2480   -2.7532    4.9093 H   0  0  0  0  0  0  0  0  0  0  0  0
    8.2634   -3.2678    7.1280 H   0  0  0  0  0  0  0  0  0  0  0  0
    6.1968   -4.6495    7.2576 H   0  0  0  0  0  0  0  0  0  0  0  0
    5.0753   -5.4305    5.2229 H   0  0  0  0  0  0  0  0  0  0  0  0
    7.2524   -1.6119   -0.0042 H   0  0  0  0  0  0  0  0  0  0  0  0
    4.8340   -0.1520    0.6508 H   0  0  0  0  0  0  0  0  0  0  0  0
  1  2  1  0  0  0  0
  1 26  1  0  0  0  0
  1 27  1  0  0  0  0
  1 28  1  0  0  0  0
  2  3  1  0  0  0  0
  2  9  1  0  0  0  0
  3  4  1  0  0  0  0
  3  8  2  0  0  0  0
  4  5  2  0  0  0  0
  4 29  1  0  0  0  0
  5  6  1  0  0  0  0
  5 30  1  0  0  0  0
  6  7  2  0  0  0  0
  6 31  1  0  0  0  0
  7  8  1  0  0  0  0
  7 32  1  0  0  0  0
  8 33  1  0  0  0  0
  9 10  1  0  0  0  0
  9 25  2  0  0  0  0
 10 11  2  0  0  0  0
 10 34  1  0  0  0  0
 11 12  1  0  0  0  0
 11 35  1  0  0  0  0
 12 13  1  0  0  0  0
 12 24  2  0  0  0  0
 13 14  1  0  0  0  0
 13 22  2  0  0  0  0
 14 15  2  0  0  0  0
 14 36  1  0  0  0  0
 15 16  1  0  0  0  0
 15 37  1  0  0  0  0
 16 17  1  0  0  0  0
 16 21  2  0  0  0  0
 17 18  2  0  0  0  0
 17 38  1  0  0  0  0
 18 19  1  0  0  0  0
 18 39  1  0  0  0  0
 19 20  2  0  0  0  0
 19 40  1  0  0  0  0
 20 21  1  0  0  0  0
 20 41  1  0  0  0  0
 21 42  1  0  0  0  0
 22 23  1  0  0  0  0
 23 24  1  0  0  0  0
 23 43  1  0  0  0  0
 24 25  1  0  0  0  0
 25 44  1  0  0  0  0
M  END
$$$$
