CHEMBL2430251
 OpenBabel04072215363D

 51 55  0  0  0  0  0  0  0  0999 V2000
    1.1217    0.3960    0.0857 C   0  0  0  0  0  0  0  0  0  0  0  0
    2.5782    0.0838    0.0414 C   0  0  0  0  0  0  0  0  0  0  0  0
    3.5071    1.1060    0.0358 N   0  0  0  0  0  0  0  0  0  0  0  0
    4.7735    0.5977    0.1051 C   0  0  0  0  0  0  0  0  0  0  0  0
    4.6469   -0.7761    0.1680 C   0  0  0  0  0  0  0  0  0  0  0  0
    3.2622   -1.1326    0.0002 C   0  0  0  0  0  0  0  0  0  0  0  0
    2.6339   -2.4748   -0.0640 C   0  0  0  0  0  0  0  0  0  0  0  0
    1.5896   -2.7057    0.5521 O   0  0  0  0  0  0  0  0  0  0  0  0
    3.2527   -3.4776   -0.8252 N   0  0  0  0  0  0  0  0  0  0  0  0
    2.7422   -4.8542   -0.8000 C   0  0  0  0  0  0  0  0  0  0  0  0
    3.8923   -5.8854   -0.8296 C   0  0  0  0  0  0  0  0  0  0  0  0
    4.8531   -5.6183   -1.8702 O   0  0  0  0  0  0  0  0  0  0  0  0
    5.3657   -4.2881   -1.7256 C   0  0  0  0  0  0  0  0  0  0  0  0
    4.2165   -3.2796   -1.9109 C   0  0  0  0  0  0  0  0  0  0  0  0
    5.8080   -1.6726    0.3739 C   0  0  0  0  0  0  0  0  0  0  0  0
    7.1822   -1.0479    0.3075 C   0  0  0  0  0  0  0  0  0  0  0  0
    7.2732    0.4644    0.1913 C   0  0  0  0  0  0  0  0  0  0  0  0
    6.0102    1.3188    0.1229 C   0  0  0  0  0  0  0  0  0  0  0  0
    6.1734    2.6669    0.0730 C   0  0  0  0  0  0  0  0  0  0  0  0
    5.1142    3.7583    0.0331 C   0  0  0  0  0  0  0  0  0  0  0  0
    3.9094    3.6506   -0.0016 O   0  0  0  0  0  0  0  0  0  0  0  0
    5.8096    4.9565    0.0323 N   0  0  0  0  0  0  0  0  0  0  0  0
    7.1815    4.7589    0.0611 C   0  0  0  0  0  0  0  0  0  0  0  0
    8.1484    5.7506    0.0652 C   0  0  0  0  0  0  0  0  0  0  0  0
    9.4868    5.3550    0.0875 C   0  0  0  0  0  0  0  0  0  0  0  0
    9.8095    3.9995    0.0955 C   0  0  0  0  0  0  0  0  0  0  0  0
   11.0952    3.6242    0.1056 F   0  0  0  0  0  0  0  0  0  0  0  0
    8.8292    3.0194    0.0754 C   0  0  0  0  0  0  0  0  0  0  0  0
    7.4865    3.3928    0.0707 C   0  0  0  0  0  0  0  0  0  0  0  0
    0.9492    1.4659    0.2513 H   0  0  0  0  0  0  0  0  0  0  0  0
    0.6339   -0.1386    0.9074 H   0  0  0  0  0  0  0  0  0  0  0  0
    0.6340    0.1181   -0.8530 H   0  0  0  0  0  0  0  0  0  0  0  0
    3.2698    2.0941    0.0189 H   0  0  0  0  0  0  0  0  0  0  0  0
    2.1344   -4.9734   -1.7056 H   0  0  0  0  0  0  0  0  0  0  0  0
    2.1012   -5.0302    0.0680 H   0  0  0  0  0  0  0  0  0  0  0  0
    3.4967   -6.8878   -1.0164 H   0  0  0  0  0  0  0  0  0  0  0  0
    4.4184   -5.9087    0.1328 H   0  0  0  0  0  0  0  0  0  0  0  0
    6.1565   -4.1174   -2.4612 H   0  0  0  0  0  0  0  0  0  0  0  0
    5.8281   -4.2411   -0.7309 H   0  0  0  0  0  0  0  0  0  0  0  0
    3.6904   -3.5053   -2.8463 H   0  0  0  0  0  0  0  0  0  0  0  0
    4.5466   -2.2452   -2.0003 H   0  0  0  0  0  0  0  0  0  0  0  0
    5.8368   -2.3570   -0.4489 H   0  0  0  0  0  0  0  0  0  0  0  0
    5.6858   -2.2707    1.2819 H   0  0  0  0  0  0  0  0  0  0  0  0
    7.7143   -1.4753   -0.5577 H   0  0  0  0  0  0  0  0  0  0  0  0
    7.7740   -1.3878    1.1652 H   0  0  0  0  0  0  0  0  0  0  0  0
    7.8431    0.6516   -0.7284 H   0  0  0  0  0  0  0  0  0  0  0  0
    7.8480    0.7792    1.0692 H   0  0  0  0  0  0  0  0  0  0  0  0
    5.3427    5.8499    0.0129 H   0  0  0  0  0  0  0  0  0  0  0  0
    7.8855    6.8024    0.0594 H   0  0  0  0  0  0  0  0  0  0  0  0
   10.2905    6.0869    0.0971 H   0  0  0  0  0  0  0  0  0  0  0  0
    9.1845    1.9978    0.0711 H   0  0  0  0  0  0  0  0  0  0  0  0
  1  2  1  0  0  0  0
  1 30  1  0  0  0  0
  1 31  1  0  0  0  0
  1 32  1  0  0  0  0
  2  3  1  0  0  0  0
  2  6  2  0  0  0  0
  3  4  1  0  0  0  0
  3 33  1  0  0  0  0
  4  5  2  0  0  0  0
  4 18  1  0  0  0  0
  5  6  1  0  0  0  0
  5 15  1  0  0  0  0
  6  7  1  0  0  0  0
  7  8  2  0  0  0  0
  7  9  1  0  0  0  0
  9 10  1  0  0  0  0
  9 14  1  0  0  0  0
 10 11  1  0  0  0  0
 10 34  1  0  0  0  0
 10 35  1  0  0  0  0
 11 12  1  0  0  0  0
 11 36  1  0  0  0  0
 11 37  1  0  0  0  0
 12 13  1  0  0  0  0
 13 14  1  0  0  0  0
 13 38  1  0  0  0  0
 13 39  1  0  0  0  0
 14 40  1  0  0  0  0
 14 41  1  0  0  0  0
 15 16  1  0  0  0  0
 15 42  1  0  0  0  0
 15 43  1  0  0  0  0
 16 17  1  0  0  0  0
 16 44  1  0  0  0  0
 16 45  1  0  0  0  0
 17 18  1  0  0  0  0
 17 46  1  0  0  0  0
 17 47  1  0  0  0  0
 18 19  2  0  0  0  0
 19 20  1  0  0  0  0
 19 29  1  0  0  0  0
 20 21  2  0  0  0  0
 20 22  1  0  0  0  0
 22 23  1  0  0  0  0
 22 48  1  0  0  0  0
 23 24  1  0  0  0  0
 23 29  2  0  0  0  0
 24 25  2  0  0  0  0
 24 49  1  0  0  0  0
 25 26  1  0  0  0  0
 25 50  1  0  0  0  0
 26 27  1  0  0  0  0
 26 28  2  0  0  0  0
 28 29  1  0  0  0  0
 28 51  1  0  0  0  0
M  END
$$$$
