CHEMBL262468
 OpenBabel04072215363D

 50 54  0  0  1  0  0  0  0  0999 V2000
    2.0280   -0.7858   -1.8312 C   0  0  0  0  0  0  0  0  0  0  0  0
    0.5579   -0.5636   -1.5988 C   0  0  0  0  0  0  0  0  0  0  0  0
    0.0195    0.6988   -1.8518 C   0  0  0  0  0  0  0  0  0  0  0  0
   -1.3343    0.9288   -1.6409 C   0  0  0  0  0  0  0  0  0  0  0  0
   -2.1680   -0.0933   -1.1733 C   0  0  0  0  0  0  0  0  0  0  0  0
   -1.6690   -1.3677   -0.9058 C   0  0  0  0  0  0  0  0  0  0  0  0
   -2.4789   -2.4376   -0.4146 N   0  0  0  0  0  0  0  0  0  0  0  0
   -3.8405   -2.3904   -0.0718 C   0  0  0  0  0  0  0  0  0  0  0  0
   -4.5525   -1.3999   -0.1616 O   0  0  0  0  0  0  0  0  0  0  0  0
   -4.3005   -3.6301    0.3740 N   0  0  0  0  0  0  0  0  0  0  0  0
   -5.5800   -3.9551    0.9157 C   0  0  0  0  0  0  0  0  0  0  0  0
   -6.5816   -3.0422    1.2623 C   0  0  0  0  0  0  0  0  0  0  0  0
   -7.7383   -3.4591    1.9817 C   0  0  0  0  0  0  0  0  0  0  0  0
   -7.9683   -4.8115    2.2677 C   0  0  0  0  0  0  0  0  0  0  0  0
   -7.1662   -5.6857    1.5246 C   0  0  0  0  0  0  0  0  0  0  0  0
   -5.8936   -5.3077    1.0546 C   0  0  0  0  0  0  0  0  0  0  0  0
   -7.9337   -6.7689    0.7786 C   0  0  0  0  0  0  0  0  0  0  0  0
   -9.3243   -6.1719    0.4127 C   0  0  0  0  0  0  0  0  0  0  0  0
  -10.1567   -5.7499    1.6526 C   0  0  3  0  0  0  0  0  0  0  0  0
  -11.1796   -7.1791    2.0989 S   0  0  0  0  0  0  0  0  0  0  0  0
   -9.9828   -7.6909    3.2881 C   0  0  0  0  0  0  0  0  0  0  0  0
   -9.9742   -8.9550    3.7333 N   0  0  0  0  0  0  0  0  0  0  0  0
   -9.1256   -9.1709    4.7248 C   0  0  0  0  0  0  0  0  0  0  0  0
   -8.4174   -8.2174    5.3567 N   0  0  0  0  0  0  0  0  0  0  0  0
   -8.5058   -6.9642    4.8719 C   0  0  0  0  0  0  0  0  0  0  0  0
   -7.9878   -5.9968    5.7289 N   0  0  0  0  0  0  0  0  0  0  0  0
   -9.1744   -6.6540    3.7126 C   0  0  0  0  0  0  0  0  0  0  0  0
   -9.2681   -5.3703    2.8844 C   0  0  3  0  0  0  0  0  0  0  0  0
   -0.2922   -1.5936   -1.1305 C   0  0  0  0  0  0  0  0  0  0  0  0
    2.5251    0.1404   -2.1476 H   0  0  0  0  0  0  0  0  0  0  0  0
    2.1892   -1.5224   -2.6232 H   0  0  0  0  0  0  0  0  0  0  0  0
    2.5231   -1.1136   -0.9125 H   0  0  0  0  0  0  0  0  0  0  0  0
    0.6462    1.5149   -2.2075 H   0  0  0  0  0  0  0  0  0  0  0  0
   -1.7505    1.9137   -1.8299 H   0  0  0  0  0  0  0  0  0  0  0  0
   -3.2138    0.1512   -1.0255 H   0  0  0  0  0  0  0  0  0  0  0  0
   -1.9933   -3.3051   -0.2531 H   0  0  0  0  0  0  0  0  0  0  0  0
   -3.6643   -4.4056    0.2794 H   0  0  0  0  0  0  0  0  0  0  0  0
   -6.5028   -1.9964    0.9740 H   0  0  0  0  0  0  0  0  0  0  0  0
   -8.4983   -2.7118    2.2067 H   0  0  0  0  0  0  0  0  0  0  0  0
   -5.2377   -6.0699    0.6441 H   0  0  0  0  0  0  0  0  0  0  0  0
   -7.9987   -7.6848    1.3678 H   0  0  0  0  0  0  0  0  0  0  0  0
   -7.4156   -7.0087   -0.1564 H   0  0  0  0  0  0  0  0  0  0  0  0
   -9.8767   -6.8496   -0.2473 H   0  0  0  0  0  0  0  0  0  0  0  0
   -9.1614   -5.2601   -0.1836 H   0  0  0  0  0  0  0  0  0  0  0  0
  -10.8175   -4.9142    1.3942 H   0  0  0  0  0  0  0  0  0  0  0  0
   -9.0103  -10.1901    5.0768 H   0  0  0  0  0  0  0  0  0  0  0  0
   -7.6119   -6.5218    6.5214 H   0  0  0  0  0  0  0  0  0  0  0  0
   -8.7436   -5.4072    6.0690 H   0  0  0  0  0  0  0  0  0  0  0  0
   -9.7544   -4.6087    3.5083 H   0  0  0  0  0  0  0  0  0  0  0  0
    0.1426   -2.5718   -0.9402 H   0  0  0  0  0  0  0  0  0  0  0  0
  1  2  1  0  0  0  0
  1 30  1  0  0  0  0
  1 31  1  0  0  0  0
  1 32  1  0  0  0  0
  2  3  1  0  0  0  0
  2 29  2  0  0  0  0
  3  4  2  0  0  0  0
  3 33  1  0  0  0  0
  4  5  1  0  0  0  0
  4 34  1  0  0  0  0
  5  6  2  0  0  0  0
  5 35  1  0  0  0  0
  6  7  1  0  0  0  0
  6 29  1  0  0  0  0
  7  8  1  0  0  0  0
  7 36  1  0  0  0  0
  8  9  2  0  0  0  0
  8 10  1  0  0  0  0
 10 11  1  0  0  0  0
 10 37  1  0  0  0  0
 11 12  1  0  0  0  0
 11 16  2  0  0  0  0
 12 13  2  0  0  0  0
 12 38  1  0  0  0  0
 13 14  1  0  0  0  0
 13 39  1  0  0  0  0
 14 15  2  0  0  0  0
 14 28  1  0  0  0  0
 15 16  1  0  0  0  0
 15 17  1  0  0  0  0
 16 40  1  0  0  0  0
 17 18  1  0  0  0  0
 17 41  1  0  0  0  0
 17 42  1  0  0  0  0
 18 19  1  0  0  0  0
 18 43  1  0  0  0  0
 18 44  1  0  0  0  0
 19 20  1  0  0  0  0
 19 28  1  0  0  0  0
 19 45  1  0  0  0  0
 20 21  1  0  0  0  0
 21 22  1  0  0  0  0
 21 27  2  0  0  0  0
 22 23  2  0  0  0  0
 23 24  1  0  0  0  0
 23 46  1  0  0  0  0
 24 25  2  0  0  0  0
 25 26  1  0  0  0  0
 25 27  1  0  0  0  0
 26 47  1  0  0  0  0
 26 48  1  0  0  0  0
 27 28  1  0  0  0  0
 28 49  1  0  0  0  0
 29 50  1  0  0  0  0
M  END
$$$$
