CHEMBL3648113
 OpenBabel04072215373D

 51 52  0  0  1  0  0  0  0  0999 V2000
   15.4767   -5.5093    6.6755 C   0  0  0  0  0  0  0  0  0  0  0  0
   15.5078   -4.1183    6.2831 N   0  0  0  0  0  0  0  0  0  0  0  0
   16.8175   -3.3002    6.3918 S   0  0  3  0  0  0  0  0  0  0  0  0
   16.9789   -2.8933    8.1150 C   0  0  0  0  0  0  0  0  0  0  0  0
   18.0948   -3.7861    5.9093 O   0  0  0  0  0  0  0  0  0  0  0  0
   16.4896   -1.7291    5.5936 C   0  0  0  0  0  0  0  0  0  0  0  0
   15.2809   -1.6451    4.8850 C   0  0  0  0  0  0  0  0  0  0  0  0
   14.8308   -0.4426    4.3474 C   0  0  0  0  0  0  0  0  0  0  0  0
   15.5943    0.7152    4.4313 C   0  0  0  0  0  0  0  0  0  0  0  0
   15.1542    1.9484    3.9063 N   0  0  0  0  0  0  0  0  0  0  0  0
   14.2454    2.1752    2.8590 C   0  0  0  0  0  0  0  0  0  0  0  0
   14.5478    3.2052    2.0628 N   0  0  0  0  0  0  0  0  0  0  0  0
   13.8520    3.2907    0.9120 C   0  0  0  0  0  0  0  0  0  0  0  0
   12.8507    2.4266    0.5345 C   0  0  0  0  0  0  0  0  0  0  0  0
   12.1933    2.5627   -1.2285 Br  0  0  0  0  0  0  0  0  0  0  0  0
   12.4849    1.4840    1.4868 C   0  0  0  0  0  0  0  0  0  0  0  0
   11.4570    0.5566    1.4181 N   0  0  0  0  0  0  0  0  0  0  0  0
   10.1409    0.8352    0.8264 C   0  0  2  0  0  0  0  0  0  0  0  0
    9.4932    2.0887    1.4250 C   0  0  0  0  0  0  0  0  0  0  0  0
    9.1823   -0.3855    0.9903 C   0  0  1  0  0  0  0  0  0  0  0  0
    9.7484   -1.6909    0.4352 C   0  0  0  0  0  0  0  0  0  0  0  0
    8.8113   -0.5948    2.3552 O   0  0  0  0  0  0  0  0  0  0  0  0
   13.1973    1.3622    2.6284 N   0  0  0  0  0  0  0  0  0  0  0  0
   16.8049    0.6328    5.1492 C   0  0  0  0  0  0  0  0  0  0  0  0
   17.2728   -0.5779    5.7222 C   0  0  0  0  0  0  0  0  0  0  0  0
   18.3955   -0.4307    6.4912 O   0  0  0  0  0  0  0  0  0  0  0  0
   19.5091   -1.2611    6.1641 C   0  0  0  0  0  0  0  0  0  0  0  0
   14.5440   -5.9671    6.3357 H   0  0  0  0  0  0  0  0  0  0  0  0
   15.5069   -5.5756    7.7677 H   0  0  0  0  0  0  0  0  0  0  0  0
   16.3359   -6.0669    6.2943 H   0  0  0  0  0  0  0  0  0  0  0  0
   17.1268   -3.8288    8.6608 H   0  0  0  0  0  0  0  0  0  0  0  0
   16.0636   -2.4036    8.4486 H   0  0  0  0  0  0  0  0  0  0  0  0
   17.8407   -2.2497    8.2782 H   0  0  0  0  0  0  0  0  0  0  0  0
   14.6298   -2.5100    4.7849 H   0  0  0  0  0  0  0  0  0  0  0  0
   13.8530   -0.4494    3.8809 H   0  0  0  0  0  0  0  0  0  0  0  0
   15.8820    2.6461    3.8119 H   0  0  0  0  0  0  0  0  0  0  0  0
   14.1650    4.1026    0.2605 H   0  0  0  0  0  0  0  0  0  0  0  0
   11.4146    0.1290    2.3413 H   0  0  0  0  0  0  0  0  0  0  0  0
   10.2545    0.9666   -0.2515 H   0  0  0  0  0  0  0  0  0  0  0  0
    9.0246    1.8893    2.3940 H   0  0  0  0  0  0  0  0  0  0  0  0
    8.7148    2.4600    0.7501 H   0  0  0  0  0  0  0  0  0  0  0  0
   10.2062    2.9032    1.5770 H   0  0  0  0  0  0  0  0  0  0  0  0
    8.2527   -0.1554    0.4475 H   0  0  0  0  0  0  0  0  0  0  0  0
   10.6135   -2.0304    1.0138 H   0  0  0  0  0  0  0  0  0  0  0  0
   10.0395   -1.5902   -0.6149 H   0  0  0  0  0  0  0  0  0  0  0  0
    8.9979   -2.4877    0.5120 H   0  0  0  0  0  0  0  0  0  0  0  0
    9.5839   -0.9484    2.8264 H   0  0  0  0  0  0  0  0  0  0  0  0
   17.4091    1.5296    5.2784 H   0  0  0  0  0  0  0  0  0  0  0  0
   20.4025   -0.6315    6.0977 H   0  0  0  0  0  0  0  0  0  0  0  0
   19.4049   -1.7978    5.2176 H   0  0  0  0  0  0  0  0  0  0  0  0
   19.6784   -1.9586    6.9907 H   0  0  0  0  0  0  0  0  0  0  0  0
  1  2  1  0  0  0  0
  1 28  1  0  0  0  0
  1 29  1  0  0  0  0
  1 30  1  0  0  0  0
  2  3  2  0  0  0  0
  3  4  1  0  0  0  0
  3  5  2  0  0  0  0
  3  6  1  0  0  0  0
  4 31  1  0  0  0  0
  4 32  1  0  0  0  0
  4 33  1  0  0  0  0
  6  7  1  0  0  0  0
  6 25  2  0  0  0  0
  7  8  2  0  0  0  0
  7 34  1  0  0  0  0
  8  9  1  0  0  0  0
  8 35  1  0  0  0  0
  9 10  1  0  0  0  0
  9 24  2  0  0  0  0
 10 11  1  0  0  0  0
 10 36  1  0  0  0  0
 11 12  1  0  0  0  0
 11 23  2  0  0  0  0
 12 13  2  0  0  0  0
 13 14  1  0  0  0  0
 13 37  1  0  0  0  0
 14 15  1  0  0  0  0
 14 16  2  0  0  0  0
 16 17  1  0  0  0  0
 16 23  1  0  0  0  0
 17 38  1  0  0  0  0
 18 20  1  0  0  0  0
 18 19  1  0  0  0  0
 18 17  1  0  0  0  0
 18 39  1  6  0  0  0
 19 40  1  0  0  0  0
 19 41  1  0  0  0  0
 19 42  1  0  0  0  0
 20 21  1  0  0  0  0
 20 22  1  0  0  0  0
 20 43  1  6  0  0  0
 21 44  1  0  0  0  0
 21 45  1  0  0  0  0
 21 46  1  0  0  0  0
 22 47  1  0  0  0  0
 24 25  1  0  0  0  0
 24 48  1  0  0  0  0
 25 26  1  0  0  0  0
 26 27  1  0  0  0  0
 27 49  1  0  0  0  0
 27 50  1  0  0  0  0
 27 51  1  0  0  0  0
M  END
$$$$
