CHEMBL3945658
 OpenBabel04072215373D

 61 65  0  0  0  0  0  0  0  0999 V2000
    1.4756   -0.4017   -0.0706 C   0  0  0  0  0  0  0  0  0  0  0  0
    2.2861    0.7743   -0.1812 O   0  0  0  0  0  0  0  0  0  0  0  0
    3.0329    1.0692    0.9334 C   0  0  0  0  0  0  0  0  0  0  0  0
    2.6296    0.8052    2.2300 C   0  0  0  0  0  0  0  0  0  0  0  0
    3.4694    1.1392    3.2957 C   0  0  0  0  0  0  0  0  0  0  0  0
    3.1895    0.9338    4.6183 O   0  0  0  0  0  0  0  0  0  0  0  0
    1.9799    0.2472    4.8944 C   0  0  0  0  0  0  0  0  0  0  0  0
    4.7334    1.6942    3.0709 C   0  0  0  0  0  0  0  0  0  0  0  0
    5.2162    1.8887    1.7878 C   0  0  0  0  0  0  0  0  0  0  0  0
    6.5870    2.2228    1.5843 N   0  0  0  0  0  0  0  0  0  0  0  0
    7.0661    1.9429    0.1830 C   0  0  0  0  0  0  0  0  0  0  0  0
    7.2464    0.4954   -0.0164 C   0  0  0  0  0  0  0  0  0  0  0  0
    7.3767   -0.6889   -0.1406 C   0  0  0  0  0  0  0  0  0  0  0  0
    7.5468   -2.1093   -0.2792 C   0  0  0  0  0  0  0  0  0  0  0  0
    8.8040   -2.6612   -0.2038 C   0  0  0  0  0  0  0  0  0  0  0  0
    8.9402   -4.0288   -0.3475 C   0  0  0  0  0  0  0  0  0  0  0  0
    7.8908   -4.8506   -0.5806 N   0  0  0  0  0  0  0  0  0  0  0  0
    6.6611   -4.2810   -0.6507 C   0  0  0  0  0  0  0  0  0  0  0  0
    5.5696   -5.1776   -0.9140 C   0  0  0  0  0  0  0  0  0  0  0  0
    4.6458   -5.8441   -1.1449 N   0  0  0  0  0  0  0  0  0  0  0  0
    6.4367   -2.9199   -0.4972 C   0  0  0  0  0  0  0  0  0  0  0  0
    7.5865    2.8482    2.4138 C   0  0  0  0  0  0  0  0  0  0  0  0
    8.1517    3.9523    1.8189 C   0  0  0  0  0  0  0  0  0  0  0  0
    9.4200    4.2954    2.1612 C   0  0  0  0  0  0  0  0  0  0  0  0
   10.0942    3.7260    3.1756 C   0  0  0  0  0  0  0  0  0  0  0  0
   11.3569    3.9280    2.9608 N   0  0  0  0  0  0  0  0  0  0  0  0
   12.1413    4.0553    4.0101 C   0  0  0  0  0  0  0  0  0  0  0  0
   11.7089    3.9922    5.3126 C   0  0  0  0  0  0  0  0  0  0  0  0
   12.6565    4.8593    6.1657 C   0  0  0  0  0  0  0  0  0  0  0  0
   13.4549    5.9188    5.5590 C   0  0  0  0  0  0  0  0  0  0  0  0
   14.4162    6.4251    6.3110 N   0  0  0  0  0  0  0  0  0  0  0  0
   14.2517    5.8048    7.4786 N   0  0  0  0  0  0  0  0  0  0  0  0
   15.1396    6.2524    8.5364 C   0  0  0  0  0  0  0  0  0  0  0  0
   13.2328    4.8381    7.4425 C   0  0  0  0  0  0  0  0  0  0  0  0
   10.4266    3.4121    5.5003 N   0  0  0  0  0  0  0  0  0  0  0  0
    9.5022    3.1497    4.2919 C   0  0  0  0  0  0  0  0  0  0  0  0
    8.1781    2.5152    3.7139 C   0  0  0  0  0  0  0  0  0  0  0  0
    4.2829    1.6689    0.7266 C   0  0  0  0  0  0  0  0  0  0  0  0
    1.1405   -0.6898   -1.0730 H   0  0  0  0  0  0  0  0  0  0  0  0
    0.5802   -0.2111    0.5308 H   0  0  0  0  0  0  0  0  0  0  0  0
    2.0457   -1.2437    0.3398 H   0  0  0  0  0  0  0  0  0  0  0  0
    1.6594    0.3602    2.4029 H   0  0  0  0  0  0  0  0  0  0  0  0
    1.9325    0.0855    5.9727 H   0  0  0  0  0  0  0  0  0  0  0  0
    1.9606   -0.7334    4.4056 H   0  0  0  0  0  0  0  0  0  0  0  0
    1.1187    0.8550    4.5992 H   0  0  0  0  0  0  0  0  0  0  0  0
    5.3613    1.9199    3.9229 H   0  0  0  0  0  0  0  0  0  0  0  0
    8.0183    2.4274   -0.0655 H   0  0  0  0  0  0  0  0  0  0  0  0
    6.3916    2.3567   -0.5802 H   0  0  0  0  0  0  0  0  0  0  0  0
    9.6950   -2.0452   -0.0128 H   0  0  0  0  0  0  0  0  0  0  0  0
    9.9052   -4.5144   -0.2899 H   0  0  0  0  0  0  0  0  0  0  0  0
    5.4343   -2.5039   -0.5571 H   0  0  0  0  0  0  0  0  0  0  0  0
    7.7138    4.4286    0.9463 H   0  0  0  0  0  0  0  0  0  0  0  0
    9.9494    5.0333    1.5525 H   0  0  0  0  0  0  0  0  0  0  0  0
   13.1000    4.4490    3.7050 H   0  0  0  0  0  0  0  0  0  0  0  0
   13.4206    6.3019    4.5468 H   0  0  0  0  0  0  0  0  0  0  0  0
   15.8762    6.9590    8.1154 H   0  0  0  0  0  0  0  0  0  0  0  0
   15.6880    5.4111    8.9595 H   0  0  0  0  0  0  0  0  0  0  0  0
   14.5569    6.7927    9.2838 H   0  0  0  0  0  0  0  0  0  0  0  0
   13.0752    4.2329    8.3228 H   0  0  0  0  0  0  0  0  0  0  0  0
    7.7058    1.7310    4.3105 H   0  0  0  0  0  0  0  0  0  0  0  0
    4.4951    1.9333   -0.3067 H   0  0  0  0  0  0  0  0  0  0  0  0
  1  2  1  0  0  0  0
  1 39  1  0  0  0  0
  1 40  1  0  0  0  0
  1 41  1  0  0  0  0
  2  3  1  0  0  0  0
  3  4  1  0  0  0  0
  3 38  2  0  0  0  0
  4  5  2  0  0  0  0
  4 42  1  0  0  0  0
  5  6  1  0  0  0  0
  5  8  1  0  0  0  0
  6  7  1  0  0  0  0
  7 43  1  0  0  0  0
  7 44  1  0  0  0  0
  7 45  1  0  0  0  0
  8  9  2  0  0  0  0
  8 46  1  0  0  0  0
  9 10  1  0  0  0  0
  9 38  1  0  0  0  0
 10 11  1  0  0  0  0
 10 22  1  0  0  0  0
 11 12  1  0  0  0  0
 11 47  1  0  0  0  0
 11 48  1  0  0  0  0
 12 13  3  0  0  0  0
 13 14  1  0  0  0  0
 14 15  1  0  0  0  0
 14 21  2  0  0  0  0
 15 16  2  0  0  0  0
 15 49  1  0  0  0  0
 16 17  1  0  0  0  0
 16 50  1  0  0  0  0
 17 18  2  0  0  0  0
 18 19  1  0  0  0  0
 18 21  1  0  0  0  0
 19 20  3  0  0  0  0
 21 51  1  0  0  0  0
 22 23  1  0  0  0  0
 22 37  2  0  0  0  0
 23 24  2  0  0  0  0
 23 52  1  0  0  0  0
 24 25  1  0  0  0  0
 24 53  1  0  0  0  0
 25 26  1  0  0  0  0
 25 36  2  0  0  0  0
 26 27  2  0  0  0  0
 27 28  1  0  0  0  0
 27 54  1  0  0  0  0
 28 29  1  0  0  0  0
 28 35  2  0  0  0  0
 29 30  1  0  0  0  0
 29 34  2  0  0  0  0
 30 31  2  0  0  0  0
 30 55  1  0  0  0  0
 31 32  1  0  0  0  0
 32 33  1  0  0  0  0
 32 34  1  0  0  0  0
 33 56  1  0  0  0  0
 33 57  1  0  0  0  0
 33 58  1  0  0  0  0
 34 59  1  0  0  0  0
 35 36  1  0  0  0  0
 36 37  1  0  0  0  0
 37 60  1  0  0  0  0
 38 61  1  0  0  0  0
M  END
$$$$
