CHEMBL3694706
 OpenBabel04072215373D

 55 58  0  0  0  0  0  0  0  0999 V2000
   -0.6458    1.5881   -2.1438 N   0  0  0  0  0  0  0  0  0  0  0  0
   -0.4264    0.7783   -1.0248 C   0  0  0  0  0  0  0  0  0  0  0  0
   -1.1375   -0.3665   -1.0102 N   0  0  0  0  0  0  0  0  0  0  0  0
   -0.9469   -1.1903    0.0376 C   0  0  0  0  0  0  0  0  0  0  0  0
   -1.7014   -2.4655    0.0888 C   0  0  0  0  0  0  0  0  0  0  0  0
   -2.6839   -2.8571   -0.9271 C   0  0  0  0  0  0  0  0  0  0  0  0
   -3.3338   -4.0272   -0.8167 C   0  0  0  0  0  0  0  0  0  0  0  0
   -3.0457   -4.8855    0.2475 N   0  0  0  0  0  0  0  0  0  0  0  0
   -3.5200   -6.1531    0.5616 C   0  0  0  0  0  0  0  0  0  0  0  0
   -4.4788   -6.9601   -0.2005 C   0  0  0  0  0  0  0  0  0  0  0  0
   -5.3745   -7.7736    0.5059 C   0  0  0  0  0  0  0  0  0  0  0  0
   -6.2835   -8.5772   -0.1700 C   0  0  0  0  0  0  0  0  0  0  0  0
   -6.3373   -8.5491   -1.5615 C   0  0  0  0  0  0  0  0  0  0  0  0
   -5.4796   -7.7316   -2.2986 C   0  0  0  0  0  0  0  0  0  0  0  0
   -5.5355   -7.6217   -3.7094 N   0  0  0  0  0  0  0  0  0  0  0  0
   -6.4424   -8.2449   -4.5348 C   0  0  0  0  0  0  0  0  0  0  0  0
   -7.3515   -8.9908   -4.2038 O   0  0  0  0  0  0  0  0  0  0  0  0
   -6.2118   -7.9895   -5.8678 N   0  0  0  0  0  0  0  0  0  0  0  0
   -7.1108   -8.6148   -6.8484 C   0  0  0  0  0  0  0  0  0  0  0  0
   -8.4817   -7.9467   -7.0360 C   0  0  0  0  0  0  0  0  0  0  0  0
   -8.5593   -6.7563   -6.3972 F   0  0  0  0  0  0  0  0  0  0  0  0
   -8.6915   -7.6955   -8.3536 F   0  0  0  0  0  0  0  0  0  0  0  0
   -9.4994   -8.7225   -6.6109 F   0  0  0  0  0  0  0  0  0  0  0  0
   -4.5196   -6.9763   -1.6083 C   0  0  0  0  0  0  0  0  0  0  0  0
   -2.9157   -6.4417    1.7792 C   0  0  0  0  0  0  0  0  0  0  0  0
   -2.0699   -5.4531    2.1886 N   0  0  0  0  0  0  0  0  0  0  0  0
   -2.1467   -4.5385    1.2511 C   0  0  0  0  0  0  0  0  0  0  0  0
   -1.4749   -3.2950    1.1365 C   0  0  0  0  0  0  0  0  0  0  0  0
   -0.1110   -0.9446    1.0543 N   0  0  0  0  0  0  0  0  0  0  0  0
    0.5818    0.1988    0.9928 C   0  0  0  0  0  0  0  0  0  0  0  0
    0.4885    1.1199   -0.0311 C   0  0  0  0  0  0  0  0  0  0  0  0
    1.2104    2.2863   -0.1006 O   0  0  0  0  0  0  0  0  0  0  0  0
    2.1471    2.4525    0.9811 C   0  0  0  0  0  0  0  0  0  0  0  0
    2.9727    3.7212    0.8210 C   0  0  0  0  0  0  0  0  0  0  0  0
    2.1363    4.8712    0.8378 O   0  0  0  0  0  0  0  0  0  0  0  0
   -1.3936    1.1623   -2.6863 H   0  0  0  0  0  0  0  0  0  0  0  0
   -0.8639    2.5394   -1.8699 H   0  0  0  0  0  0  0  0  0  0  0  0
   -2.8774   -2.1797   -1.7533 H   0  0  0  0  0  0  0  0  0  0  0  0
   -4.0867   -4.3244   -1.5306 H   0  0  0  0  0  0  0  0  0  0  0  0
   -5.3763   -7.7938    1.5938 H   0  0  0  0  0  0  0  0  0  0  0  0
   -6.9617   -9.2218    0.3824 H   0  0  0  0  0  0  0  0  0  0  0  0
   -7.0685   -9.1929   -2.0369 H   0  0  0  0  0  0  0  0  0  0  0  0
   -4.8545   -7.0223   -4.1500 H   0  0  0  0  0  0  0  0  0  0  0  0
   -5.8432   -7.0782   -6.0993 H   0  0  0  0  0  0  0  0  0  0  0  0
   -7.2645   -9.6617   -6.5580 H   0  0  0  0  0  0  0  0  0  0  0  0
   -6.5689   -8.6232   -7.7985 H   0  0  0  0  0  0  0  0  0  0  0  0
   -3.7886   -6.4070   -2.1748 H   0  0  0  0  0  0  0  0  0  0  0  0
   -3.0444   -7.3319    2.3828 H   0  0  0  0  0  0  0  0  0  0  0  0
   -0.7738   -3.0577    1.9309 H   0  0  0  0  0  0  0  0  0  0  0  0
    1.2371    0.3211    1.8471 H   0  0  0  0  0  0  0  0  0  0  0  0
    2.8419    1.6038    1.0049 H   0  0  0  0  0  0  0  0  0  0  0  0
    1.5870    2.5247    1.9216 H   0  0  0  0  0  0  0  0  0  0  0  0
    3.5399    3.7155   -0.1134 H   0  0  0  0  0  0  0  0  0  0  0  0
    3.6740    3.8027    1.6586 H   0  0  0  0  0  0  0  0  0  0  0  0
    1.4988    4.7559    0.1104 H   0  0  0  0  0  0  0  0  0  0  0  0
  1  2  1  0  0  0  0
  1 36  1  0  0  0  0
  1 37  1  0  0  0  0
  2  3  1  0  0  0  0
  2 31  2  0  0  0  0
  3  4  2  0  0  0  0
  4  5  1  0  0  0  0
  4 29  1  0  0  0  0
  5  6  1  0  0  0  0
  5 28  2  0  0  0  0
  6  7  2  0  0  0  0
  6 38  1  0  0  0  0
  7  8  1  0  0  0  0
  7 39  1  0  0  0  0
  8  9  1  0  0  0  0
  8 27  1  0  0  0  0
  9 10  1  0  0  0  0
  9 25  2  0  0  0  0
 10 11  1  0  0  0  0
 10 24  2  0  0  0  0
 11 12  2  0  0  0  0
 11 40  1  0  0  0  0
 12 13  1  0  0  0  0
 12 41  1  0  0  0  0
 13 14  2  0  0  0  0
 13 42  1  0  0  0  0
 14 15  1  0  0  0  0
 14 24  1  0  0  0  0
 15 16  1  0  0  0  0
 15 43  1  0  0  0  0
 16 17  2  0  0  0  0
 16 18  1  0  0  0  0
 18 19  1  0  0  0  0
 18 44  1  0  0  0  0
 19 20  1  0  0  0  0
 19 45  1  0  0  0  0
 19 46  1  0  0  0  0
 20 21  1  0  0  0  0
 20 22  1  0  0  0  0
 20 23  1  0  0  0  0
 24 47  1  0  0  0  0
 25 26  1  0  0  0  0
 25 48  1  0  0  0  0
 26 27  2  0  0  0  0
 27 28  1  0  0  0  0
 28 49  1  0  0  0  0
 29 30  2  0  0  0  0
 30 31  1  0  0  0  0
 30 50  1  0  0  0  0
 31 32  1  0  0  0  0
 32 33  1  0  0  0  0
 33 34  1  0  0  0  0
 33 51  1  0  0  0  0
 33 52  1  0  0  0  0
 34 35  1  0  0  0  0
 34 53  1  0  0  0  0
 34 54  1  0  0  0  0
 35 55  1  0  0  0  0
M  END
$$$$
