CHEMBL380735
 OpenBabel04072215373D

 51 54  0  0  0  0  0  0  0  0999 V2000
   11.7470   -0.2185   -5.4653 N   0  0  0  0  0  0  0  0  0  0  0  0
   11.2363   -0.8974   -4.6759 C   0  0  0  0  0  0  0  0  0  0  0  0
   10.5900   -1.7387   -3.7311 C   0  0  0  0  0  0  0  0  0  0  0  0
    9.7144   -2.7476   -4.0468 C   0  0  0  0  0  0  0  0  0  0  0  0
    9.1876   -3.4137   -2.9663 N   0  0  0  0  0  0  0  0  0  0  0  0
    9.6183   -2.9070   -1.8308 C   0  0  0  0  0  0  0  0  0  0  0  0
    9.2081   -3.2692   -0.5857 N   0  0  0  0  0  0  0  0  0  0  0  0
    7.9499   -3.8316   -0.3192 C   0  0  0  0  0  0  0  0  0  0  0  0
    7.2937   -4.6320   -1.2327 C   0  0  0  0  0  0  0  0  0  0  0  0
    5.9742   -4.9680   -1.0197 C   0  0  0  0  0  0  0  0  0  0  0  0
    5.2481   -5.6101   -2.0053 N   0  0  0  0  0  0  0  0  0  0  0  0
    5.5435   -5.4112   -3.4345 C   0  0  0  0  0  0  0  0  0  0  0  0
    4.2997   -4.9182   -4.2145 C   0  0  0  0  0  0  0  0  0  0  0  0
    3.0623   -5.7061   -3.9945 N   0  0  0  0  0  0  0  0  0  0  0  0
    3.2090   -7.0564   -4.5831 C   0  0  0  0  0  0  0  0  0  0  0  0
    1.9299   -7.9283   -4.5271 C   0  0  0  0  0  0  0  0  0  0  0  0
    2.1392   -9.3023   -5.0291 N   0  0  0  0  0  0  0  0  0  0  0  0
    2.3990   -9.3754   -6.4732 C   0  0  0  0  0  0  0  0  0  0  0  0
    1.0333   -9.4208   -7.1273 C   0  0  0  0  0  0  0  0  0  0  0  0
    0.1891  -10.2065   -6.1428 C   0  0  0  0  0  0  0  0  0  0  0  0
    0.9351  -10.1267   -4.8151 C   0  0  0  0  0  0  0  0  0  0  0  0
    2.8202   -5.7260   -2.5299 C   0  0  0  0  0  0  0  0  0  0  0  0
    3.9838   -6.2716   -1.6729 C   0  0  0  0  0  0  0  0  0  0  0  0
    5.3957   -4.6574    0.1493 N   0  0  0  0  0  0  0  0  0  0  0  0
    6.1356   -3.9692    1.0331 C   0  0  0  0  0  0  0  0  0  0  0  0
    7.3855   -3.5171    0.8539 N   0  0  0  0  0  0  0  0  0  0  0  0
   10.7780   -1.6380   -2.0323 S   0  0  0  0  0  0  0  0  0  0  0  0
    9.4107   -3.0453   -5.0431 H   0  0  0  0  0  0  0  0  0  0  0  0
    9.4840   -2.6887    0.1966 H   0  0  0  0  0  0  0  0  0  0  0  0
    7.7999   -4.9803   -2.1206 H   0  0  0  0  0  0  0  0  0  0  0  0
    5.9064   -6.3567   -3.8531 H   0  0  0  0  0  0  0  0  0  0  0  0
    6.3305   -4.6693   -3.6111 H   0  0  0  0  0  0  0  0  0  0  0  0
    4.5332   -4.8746   -5.2860 H   0  0  0  0  0  0  0  0  0  0  0  0
    4.0956   -3.8789   -3.9217 H   0  0  0  0  0  0  0  0  0  0  0  0
    4.0349   -7.6115   -4.1235 H   0  0  0  0  0  0  0  0  0  0  0  0
    3.4777   -6.9169   -5.6365 H   0  0  0  0  0  0  0  0  0  0  0  0
    1.1090   -7.4236   -5.0507 H   0  0  0  0  0  0  0  0  0  0  0  0
    1.6351   -8.0202   -3.4759 H   0  0  0  0  0  0  0  0  0  0  0  0
    2.9375  -10.3092   -6.6787 H   0  0  0  0  0  0  0  0  0  0  0  0
    3.0186   -8.5682   -6.8713 H   0  0  0  0  0  0  0  0  0  0  0  0
    1.0617   -9.8934   -8.1138 H   0  0  0  0  0  0  0  0  0  0  0  0
    0.6282   -8.4094   -7.2475 H   0  0  0  0  0  0  0  0  0  0  0  0
    0.1019  -11.2510   -6.4633 H   0  0  0  0  0  0  0  0  0  0  0  0
   -0.8203   -9.7888   -6.0731 H   0  0  0  0  0  0  0  0  0  0  0  0
    1.2499  -11.1329   -4.5136 H   0  0  0  0  0  0  0  0  0  0  0  0
    0.2862   -9.7539   -4.0138 H   0  0  0  0  0  0  0  0  0  0  0  0
    1.9027   -6.2755   -2.2980 H   0  0  0  0  0  0  0  0  0  0  0  0
    2.6142   -4.6935   -2.2147 H   0  0  0  0  0  0  0  0  0  0  0  0
    4.1051   -7.3459   -1.8538 H   0  0  0  0  0  0  0  0  0  0  0  0
    3.7128   -6.1755   -0.6160 H   0  0  0  0  0  0  0  0  0  0  0  0
    5.6652   -3.7435    1.9846 H   0  0  0  0  0  0  0  0  0  0  0  0
  1  2  3  0  0  0  0
  2  3  1  0  0  0  0
  3  4  2  0  0  0  0
  3 27  1  0  0  0  0
  4  5  1  0  0  0  0
  4 28  1  0  0  0  0
  5  6  2  0  0  0  0
  6  7  1  0  0  0  0
  6 27  1  0  0  0  0
  7  8  1  0  0  0  0
  7 29  1  0  0  0  0
  8  9  1  0  0  0  0
  8 26  2  0  0  0  0
  9 10  2  0  0  0  0
  9 30  1  0  0  0  0
 10 11  1  0  0  0  0
 10 24  1  0  0  0  0
 11 12  1  0  0  0  0
 11 23  1  0  0  0  0
 12 13  1  0  0  0  0
 12 31  1  0  0  0  0
 12 32  1  0  0  0  0
 13 14  1  0  0  0  0
 13 33  1  0  0  0  0
 13 34  1  0  0  0  0
 14 15  1  0  0  0  0
 14 22  1  0  0  0  0
 15 16  1  0  0  0  0
 15 35  1  0  0  0  0
 15 36  1  0  0  0  0
 16 17  1  0  0  0  0
 16 37  1  0  0  0  0
 16 38  1  0  0  0  0
 17 18  1  0  0  0  0
 17 21  1  0  0  0  0
 18 19  1  0  0  0  0
 18 39  1  0  0  0  0
 18 40  1  0  0  0  0
 19 20  1  0  0  0  0
 19 41  1  0  0  0  0
 19 42  1  0  0  0  0
 20 21  1  0  0  0  0
 20 43  1  0  0  0  0
 20 44  1  0  0  0  0
 21 45  1  0  0  0  0
 21 46  1  0  0  0  0
 22 23  1  0  0  0  0
 22 47  1  0  0  0  0
 22 48  1  0  0  0  0
 23 49  1  0  0  0  0
 23 50  1  0  0  0  0
 24 25  2  0  0  0  0
 25 26  1  0  0  0  0
 25 51  1  0  0  0  0
M  END
$$$$
