CHEMBL4794056
 OpenBabel04072215383D

 71 76  0  0  0  0  0  0  0  0999 V2000
   -2.5008   -3.9630   -1.7302 C   0  0  0  0  0  0  0  0  0  0  0  0
   -3.8420   -4.4912   -2.1782 C   0  0  0  0  0  0  0  0  0  0  0  0
   -3.8251   -5.6639   -2.9719 C   0  0  0  0  0  0  0  0  0  0  0  0
   -5.0089   -6.2234   -3.4445 C   0  0  0  0  0  0  0  0  0  0  0  0
   -4.9683   -7.6314   -4.4295 Cl  0  0  0  0  0  0  0  0  0  0  0  0
   -6.2226   -5.6424   -3.1207 C   0  0  0  0  0  0  0  0  0  0  0  0
   -6.2511   -4.4926   -2.3308 C   0  0  0  0  0  0  0  0  0  0  0  0
   -5.0769   -3.8818   -1.8578 C   0  0  0  0  0  0  0  0  0  0  0  0
   -5.1291   -2.6867   -1.0874 N   0  0  0  0  0  0  0  0  0  0  0  0
   -6.2556   -1.8805   -0.8769 C   0  0  0  0  0  0  0  0  0  0  0  0
   -7.3805   -2.1032   -1.3122 O   0  0  0  0  0  0  0  0  0  0  0  0
   -5.9319   -0.7248   -0.1829 N   0  0  0  0  0  0  0  0  0  0  0  0
   -6.9578    0.2262   -0.0290 C   0  0  0  0  0  0  0  0  0  0  0  0
   -7.9441    0.0233    0.8445 N   0  0  0  0  0  0  0  0  0  0  0  0
   -8.8456    1.0150    0.9459 C   0  0  0  0  0  0  0  0  0  0  0  0
  -10.1244    0.8960    2.1966 S   0  0  0  0  0  0  0  0  0  0  0  0
  -11.1378   -0.4449    1.7012 C   0  0  0  0  0  0  0  0  0  0  0  0
  -10.9613   -1.2734    0.6191 C   0  0  0  0  0  0  0  0  0  0  0  0
  -11.9569   -2.2112    0.6349 N   0  0  0  0  0  0  0  0  0  0  0  0
  -12.8004   -1.9975    1.7019 C   0  0  0  0  0  0  0  0  0  0  0  0
  -13.9365   -2.7133    2.1048 C   0  0  0  0  0  0  0  0  0  0  0  0
  -14.6152   -2.2717    3.2428 C   0  0  0  0  0  0  0  0  0  0  0  0
  -14.1740   -1.1554    3.9474 C   0  0  0  0  0  0  0  0  0  0  0  0
  -13.0328   -0.4522    3.5343 C   0  0  0  0  0  0  0  0  0  0  0  0
  -12.3194   -0.8790    2.3898 C   0  0  0  0  0  0  0  0  0  0  0  0
   -8.7820    2.1644    0.1806 C   0  0  0  0  0  0  0  0  0  0  0  0
   -7.7469    2.2851   -0.7236 C   0  0  0  0  0  0  0  0  0  0  0  0
   -7.6421    3.3518   -1.5979 N   0  0  0  0  0  0  0  0  0  0  0  0
   -8.7597    4.2541   -1.9172 C   0  0  0  0  0  0  0  0  0  0  0  0
   -8.9936    4.3416   -3.4431 C   0  0  0  0  0  0  0  0  0  0  0  0
   -7.7981    4.6855   -4.2431 N   0  0  0  0  0  0  0  0  0  0  0  0
   -7.2854    6.0417   -3.9740 C   0  0  0  0  0  0  0  0  0  0  0  0
   -8.2584    7.1702   -4.2475 C   0  0  0  0  0  0  0  0  0  0  0  0
   -8.6869    8.0021   -3.2002 C   0  0  0  0  0  0  0  0  0  0  0  0
   -9.5339    9.0833   -3.4495 C   0  0  0  0  0  0  0  0  0  0  0  0
   -9.9604    9.3473   -4.7490 C   0  0  0  0  0  0  0  0  0  0  0  0
   -9.5485    8.5253   -5.7967 C   0  0  0  0  0  0  0  0  0  0  0  0
   -8.7057    7.4388   -5.5481 C   0  0  0  0  0  0  0  0  0  0  0  0
   -6.7592    3.6722   -3.9238 C   0  0  0  0  0  0  0  0  0  0  0  0
   -6.4262    3.5089   -2.4173 C   0  0  0  0  0  0  0  0  0  0  0  0
   -6.7903    1.3387   -0.7612 N   0  0  0  0  0  0  0  0  0  0  0  0
   -1.6818   -4.4437   -2.2758 H   0  0  0  0  0  0  0  0  0  0  0  0
   -2.3513   -4.1660   -0.6667 H   0  0  0  0  0  0  0  0  0  0  0  0
   -2.4143   -2.8904   -1.9242 H   0  0  0  0  0  0  0  0  0  0  0  0
   -2.8815   -6.1388   -3.2304 H   0  0  0  0  0  0  0  0  0  0  0  0
   -7.1579   -6.0704   -3.4717 H   0  0  0  0  0  0  0  0  0  0  0  0
   -7.2342   -4.1034   -2.0889 H   0  0  0  0  0  0  0  0  0  0  0  0
   -4.2725   -2.3859   -0.6450 H   0  0  0  0  0  0  0  0  0  0  0  0
   -5.1319   -0.2776   -0.5904 H   0  0  0  0  0  0  0  0  0  0  0  0
  -10.1995   -1.3055   -0.1494 H   0  0  0  0  0  0  0  0  0  0  0  0
  -12.0552   -2.9628   -0.0312 H   0  0  0  0  0  0  0  0  0  0  0  0
  -14.2805   -3.5849    1.5572 H   0  0  0  0  0  0  0  0  0  0  0  0
  -15.4984   -2.8083    3.5815 H   0  0  0  0  0  0  0  0  0  0  0  0
  -14.7188   -0.8261    4.8291 H   0  0  0  0  0  0  0  0  0  0  0  0
  -12.7003    0.4143    4.0981 H   0  0  0  0  0  0  0  0  0  0  0  0
   -9.5189    2.9423    0.3218 H   0  0  0  0  0  0  0  0  0  0  0  0
   -8.5385    5.2463   -1.5092 H   0  0  0  0  0  0  0  0  0  0  0  0
   -9.7080    3.9368   -1.4738 H   0  0  0  0  0  0  0  0  0  0  0  0
   -9.8161    5.0333   -3.6559 H   0  0  0  0  0  0  0  0  0  0  0  0
   -9.3551    3.3619   -3.7897 H   0  0  0  0  0  0  0  0  0  0  0  0
   -6.4130    6.2203   -4.6169 H   0  0  0  0  0  0  0  0  0  0  0  0
   -6.9171    6.1390   -2.9467 H   0  0  0  0  0  0  0  0  0  0  0  0
   -8.3514    7.8224   -2.1814 H   0  0  0  0  0  0  0  0  0  0  0  0
   -9.8514    9.7254   -2.6321 H   0  0  0  0  0  0  0  0  0  0  0  0
  -10.6088   10.1976   -4.9458 H   0  0  0  0  0  0  0  0  0  0  0  0
   -9.8781    8.7347   -6.8110 H   0  0  0  0  0  0  0  0  0  0  0  0
   -8.3883    6.8052   -6.3732 H   0  0  0  0  0  0  0  0  0  0  0  0
   -5.8396    3.8963   -4.4787 H   0  0  0  0  0  0  0  0  0  0  0  0
   -7.1035    2.7027   -4.3090 H   0  0  0  0  0  0  0  0  0  0  0  0
   -5.8844    4.3915   -2.0578 H   0  0  0  0  0  0  0  0  0  0  0  0
   -5.7242    2.6730   -2.3236 H   0  0  0  0  0  0  0  0  0  0  0  0
  1  2  1  0  0  0  0
  1 42  1  0  0  0  0
  1 43  1  0  0  0  0
  1 44  1  0  0  0  0
  2  3  1  0  0  0  0
  2  8  2  0  0  0  0
  3  4  2  0  0  0  0
  3 45  1  0  0  0  0
  4  5  1  0  0  0  0
  4  6  1  0  0  0  0
  6  7  2  0  0  0  0
  6 46  1  0  0  0  0
  7  8  1  0  0  0  0
  7 47  1  0  0  0  0
  8  9  1  0  0  0  0
  9 10  1  0  0  0  0
  9 48  1  0  0  0  0
 10 11  2  0  0  0  0
 10 12  1  0  0  0  0
 12 13  1  0  0  0  0
 12 49  1  0  0  0  0
 13 14  1  0  0  0  0
 13 41  2  0  0  0  0
 14 15  2  0  0  0  0
 15 16  1  0  0  0  0
 15 26  1  0  0  0  0
 16 17  1  0  0  0  0
 17 18  2  0  0  0  0
 17 25  1  0  0  0  0
 18 19  1  0  0  0  0
 18 50  1  0  0  0  0
 19 20  1  0  0  0  0
 19 51  1  0  0  0  0
 20 21  1  0  0  0  0
 20 25  2  0  0  0  0
 21 22  2  0  0  0  0
 21 52  1  0  0  0  0
 22 23  1  0  0  0  0
 22 53  1  0  0  0  0
 23 24  2  0  0  0  0
 23 54  1  0  0  0  0
 24 25  1  0  0  0  0
 24 55  1  0  0  0  0
 26 27  2  0  0  0  0
 26 56  1  0  0  0  0
 27 28  1  0  0  0  0
 27 41  1  0  0  0  0
 28 29  1  0  0  0  0
 28 40  1  0  0  0  0
 29 30  1  0  0  0  0
 29 57  1  0  0  0  0
 29 58  1  0  0  0  0
 30 31  1  0  0  0  0
 30 59  1  0  0  0  0
 30 60  1  0  0  0  0
 31 32  1  0  0  0  0
 31 39  1  0  0  0  0
 32 33  1  0  0  0  0
 32 61  1  0  0  0  0
 32 62  1  0  0  0  0
 33 34  1  0  0  0  0
 33 38  2  0  0  0  0
 34 35  2  0  0  0  0
 34 63  1  0  0  0  0
 35 36  1  0  0  0  0
 35 64  1  0  0  0  0
 36 37  2  0  0  0  0
 36 65  1  0  0  0  0
 37 38  1  0  0  0  0
 37 66  1  0  0  0  0
 38 67  1  0  0  0  0
 39 40  1  0  0  0  0
 39 68  1  0  0  0  0
 39 69  1  0  0  0  0
 40 70  1  0  0  0  0
 40 71  1  0  0  0  0
M  END
$$$$
