CHEMBL374330
 OpenBabel04072215373D

 46 49  0  0  0  0  0  0  0  0999 V2000
    2.0588   -0.2920    2.4383 C   0  0  0  0  0  0  0  0  0  0  0  0
    0.6490   -0.1321    1.9554 C   0  0  0  0  0  0  0  0  0  0  0  0
    0.0582    1.1298    1.9289 C   0  0  0  0  0  0  0  0  0  0  0  0
   -1.2505    1.2910    1.4732 C   0  0  0  0  0  0  0  0  0  0  0  0
   -1.9970    0.2010    1.0178 C   0  0  0  0  0  0  0  0  0  0  0  0
   -3.3251    0.3194    0.5385 N   0  0  0  0  0  0  0  0  0  0  0  0
   -3.9806    1.5122    0.2988 C   0  0  0  0  0  0  0  0  0  0  0  0
   -3.4661    2.6269    0.3797 O   0  0  0  0  0  0  0  0  0  0  0  0
   -5.3211    1.3210   -0.0126 N   0  0  0  0  0  0  0  0  0  0  0  0
   -6.1512    2.4394   -0.2639 C   0  0  0  0  0  0  0  0  0  0  0  0
   -5.7059    3.5235   -1.0234 C   0  0  0  0  0  0  0  0  0  0  0  0
   -6.4583    4.6997   -1.1004 C   0  0  0  0  0  0  0  0  0  0  0  0
   -7.6946    4.8155   -0.4482 C   0  0  0  0  0  0  0  0  0  0  0  0
   -8.4747    6.0732   -0.4816 C   0  0  0  0  0  0  0  0  0  0  0  0
   -8.5182    6.8847   -1.6425 C   0  0  0  0  0  0  0  0  0  0  0  0
   -9.3400    8.0089   -1.7403 C   0  0  0  0  0  0  0  0  0  0  0  0
  -10.2010    8.3530   -0.7030 C   0  0  0  0  0  0  0  0  0  0  0  0
  -10.1311    7.5818    0.4585 C   0  0  0  0  0  0  0  0  0  0  0  0
  -10.8498    7.6532    1.6210 N   0  0  0  0  0  0  0  0  0  0  0  0
  -10.4085    6.8461    2.5921 N   0  0  0  0  0  0  0  0  0  0  0  0
   -9.4211    6.1710    2.0123 C   0  0  0  0  0  0  0  0  0  0  0  0
   -8.6549    5.3161    2.7109 N   0  0  0  0  0  0  0  0  0  0  0  0
   -9.2559    6.5072    0.6291 C   0  0  0  0  0  0  0  0  0  0  0  0
   -8.1750    3.6626    0.2054 C   0  0  0  0  0  0  0  0  0  0  0  0
   -7.4145    2.4905    0.3107 C   0  0  0  0  0  0  0  0  0  0  0  0
   -1.4109   -1.0701    1.0556 C   0  0  0  0  0  0  0  0  0  0  0  0
   -0.1010   -1.2330    1.5196 C   0  0  0  0  0  0  0  0  0  0  0  0
    2.4900    0.6714    2.7425 H   0  0  0  0  0  0  0  0  0  0  0  0
    2.6893   -0.6984    1.6424 H   0  0  0  0  0  0  0  0  0  0  0  0
    2.0889   -0.9562    3.3052 H   0  0  0  0  0  0  0  0  0  0  0  0
    0.6075    2.0088    2.2544 H   0  0  0  0  0  0  0  0  0  0  0  0
   -1.6454    2.3026    1.4953 H   0  0  0  0  0  0  0  0  0  0  0  0
   -3.7717   -0.5188    0.2007 H   0  0  0  0  0  0  0  0  0  0  0  0
   -5.7529    0.5384    0.4580 H   0  0  0  0  0  0  0  0  0  0  0  0
   -4.7449    3.4844   -1.5316 H   0  0  0  0  0  0  0  0  0  0  0  0
   -6.0374    5.5332   -1.6574 H   0  0  0  0  0  0  0  0  0  0  0  0
   -7.9144    6.6248   -2.5106 H   0  0  0  0  0  0  0  0  0  0  0  0
   -9.3309    8.6030   -2.6514 H   0  0  0  0  0  0  0  0  0  0  0  0
  -10.8768    9.1975   -0.7914 H   0  0  0  0  0  0  0  0  0  0  0  0
  -11.6416    8.2526    1.8198 H   0  0  0  0  0  0  0  0  0  0  0  0
   -8.7308    5.3856    3.7195 H   0  0  0  0  0  0  0  0  0  0  0  0
   -7.7046    5.1470    2.3971 H   0  0  0  0  0  0  0  0  0  0  0  0
   -9.1496    3.6769    0.6918 H   0  0  0  0  0  0  0  0  0  0  0  0
   -7.7987    1.6697    0.9087 H   0  0  0  0  0  0  0  0  0  0  0  0
   -1.9617   -1.9461    0.7228 H   0  0  0  0  0  0  0  0  0  0  0  0
    0.3407   -2.2293    1.5357 H   0  0  0  0  0  0  0  0  0  0  0  0
  1  2  1  0  0  0  0
  1 28  1  0  0  0  0
  1 29  1  0  0  0  0
  1 30  1  0  0  0  0
  2  3  1  0  0  0  0
  2 27  2  0  0  0  0
  3  4  2  0  0  0  0
  3 31  1  0  0  0  0
  4  5  1  0  0  0  0
  4 32  1  0  0  0  0
  5  6  1  0  0  0  0
  5 26  2  0  0  0  0
  6  7  1  0  0  0  0
  6 33  1  0  0  0  0
  7  8  2  0  0  0  0
  7  9  1  0  0  0  0
  9 10  1  0  0  0  0
  9 34  1  0  0  0  0
 10 11  1  0  0  0  0
 10 25  2  0  0  0  0
 11 12  2  0  0  0  0
 11 35  1  0  0  0  0
 12 13  1  0  0  0  0
 12 36  1  0  0  0  0
 13 14  1  0  0  0  0
 13 24  2  0  0  0  0
 14 15  1  0  0  0  0
 14 23  2  0  0  0  0
 15 16  2  0  0  0  0
 15 37  1  0  0  0  0
 16 17  1  0  0  0  0
 16 38  1  0  0  0  0
 17 18  2  0  0  0  0
 17 39  1  0  0  0  0
 18 19  1  0  0  0  0
 18 23  1  0  0  0  0
 19 20  1  0  0  0  0
 19 40  1  0  0  0  0
 20 21  2  0  0  0  0
 21 22  1  0  0  0  0
 21 23  1  0  0  0  0
 22 41  1  0  0  0  0
 22 42  1  0  0  0  0
 24 25  1  0  0  0  0
 24 43  1  0  0  0  0
 25 44  1  0  0  0  0
 26 27  1  0  0  0  0
 26 45  1  0  0  0  0
 27 46  1  0  0  0  0
M  END
$$$$
