CHEMBL3605102
 OpenBabel04072215363D

 47 51  0  0  0  0  0  0  0  0999 V2000
   -1.3697    1.1185   -1.5918 C   0  0  0  0  0  0  0  0  0  0  0  0
   -0.3803    0.4424   -0.7898 N   0  0  0  0  0  0  0  0  0  0  0  0
    0.7085   -0.2494   -1.2351 C   0  0  0  0  0  0  0  0  0  0  0  0
    1.3760   -0.6922   -0.1106 C   0  0  0  0  0  0  0  0  0  0  0  0
    2.5981   -1.4723   -0.1392 C   0  0  0  0  0  0  0  0  0  0  0  0
    2.8387   -2.3986   -1.1381 C   0  0  0  0  0  0  0  0  0  0  0  0
    3.9310   -3.1726   -1.2195 N   0  0  0  0  0  0  0  0  0  0  0  0
    4.8866   -3.0867   -0.2769 C   0  0  0  0  0  0  0  0  0  0  0  0
    5.9192   -3.9937   -0.4705 N   0  0  0  0  0  0  0  0  0  0  0  0
    4.7787   -2.1455    0.7949 C   0  0  0  0  0  0  0  0  0  0  0  0
    5.6698   -1.8219    1.9274 C   0  0  0  0  0  0  0  0  0  0  0  0
    6.9771   -2.3859    2.2816 C   0  0  0  0  0  0  0  0  0  0  0  0
    7.8914   -2.7276    1.2849 C   0  0  0  0  0  0  0  0  0  0  0  0
    9.0840   -3.3718    1.6014 C   0  0  0  0  0  0  0  0  0  0  0  0
    9.4873   -3.4932    2.9299 C   0  0  0  0  0  0  0  0  0  0  0  0
   10.7197   -3.9782    3.3202 O   0  0  0  0  0  0  0  0  0  0  0  0
   11.7803   -3.8586    2.4464 C   0  0  0  0  0  0  0  0  0  0  0  0
   11.9875   -2.7403    1.6295 C   0  0  0  0  0  0  0  0  0  0  0  0
   12.9986   -2.7471    0.6728 C   0  0  0  0  0  0  0  0  0  0  0  0
   13.8640   -3.8377    0.5918 C   0  0  0  0  0  0  0  0  0  0  0  0
   13.7252   -4.9121    1.4742 C   0  0  0  0  0  0  0  0  0  0  0  0
   12.6791   -4.9237    2.3999 C   0  0  0  0  0  0  0  0  0  0  0  0
    8.6118   -3.1161    3.9438 C   0  0  0  0  0  0  0  0  0  0  0  0
    7.3540   -2.5894    3.6209 C   0  0  0  0  0  0  0  0  0  0  0  0
    5.1555   -0.8078    2.7066 C   0  0  0  0  0  0  0  0  0  0  0  0
    3.6670   -0.2386    2.1601 S   0  0  0  0  0  0  0  0  0  0  0  0
    3.6165   -1.3449    0.8307 C   0  0  0  0  0  0  0  0  0  0  0  0
    0.5699   -0.2363    0.9600 C   0  0  0  0  0  0  0  0  0  0  0  0
   -0.4922    0.4599    0.5475 N   0  0  0  0  0  0  0  0  0  0  0  0
   -1.1974    0.8956   -2.6464 H   0  0  0  0  0  0  0  0  0  0  0  0
   -1.2768    2.1934   -1.4148 H   0  0  0  0  0  0  0  0  0  0  0  0
   -2.3587    0.7626   -1.2940 H   0  0  0  0  0  0  0  0  0  0  0  0
    0.9136   -0.3506   -2.2919 H   0  0  0  0  0  0  0  0  0  0  0  0
    2.1212   -2.5702   -1.9359 H   0  0  0  0  0  0  0  0  0  0  0  0
    5.6559   -4.6447   -1.2040 H   0  0  0  0  0  0  0  0  0  0  0  0
    6.2592   -4.4203    0.3799 H   0  0  0  0  0  0  0  0  0  0  0  0
    7.6888   -2.5189    0.2384 H   0  0  0  0  0  0  0  0  0  0  0  0
    9.7070   -3.7248    0.7832 H   0  0  0  0  0  0  0  0  0  0  0  0
   11.3284   -1.8767    1.6896 H   0  0  0  0  0  0  0  0  0  0  0  0
   13.1002   -1.9140   -0.0157 H   0  0  0  0  0  0  0  0  0  0  0  0
   14.6518   -3.8472   -0.1557 H   0  0  0  0  0  0  0  0  0  0  0  0
   14.4173   -5.7457    1.4278 H   0  0  0  0  0  0  0  0  0  0  0  0
   12.5540   -5.7709    3.0691 H   0  0  0  0  0  0  0  0  0  0  0  0
    8.9026   -3.2258    4.9860 H   0  0  0  0  0  0  0  0  0  0  0  0
    6.6834   -2.3264    4.4362 H   0  0  0  0  0  0  0  0  0  0  0  0
    5.5947   -0.3527    3.5834 H   0  0  0  0  0  0  0  0  0  0  0  0
    0.7081   -0.3777    2.0229 H   0  0  0  0  0  0  0  0  0  0  0  0
  1  2  1  0  0  0  0
  1 30  1  0  0  0  0
  1 31  1  0  0  0  0
  1 32  1  0  0  0  0
  2  3  1  0  0  0  0
  2 29  1  0  0  0  0
  3  4  2  0  0  0  0
  3 33  1  0  0  0  0
  4  5  1  0  0  0  0
  4 28  1  0  0  0  0
  5  6  1  0  0  0  0
  5 27  2  0  0  0  0
  6  7  2  0  0  0  0
  6 34  1  0  0  0  0
  7  8  1  0  0  0  0
  8  9  1  0  0  0  0
  8 10  2  0  0  0  0
  9 35  1  0  0  0  0
  9 36  1  0  0  0  0
 10 11  1  0  0  0  0
 10 27  1  0  0  0  0
 11 12  1  0  0  0  0
 11 25  2  0  0  0  0
 12 13  1  0  0  0  0
 12 24  2  0  0  0  0
 13 14  2  0  0  0  0
 13 37  1  0  0  0  0
 14 15  1  0  0  0  0
 14 38  1  0  0  0  0
 15 16  1  0  0  0  0
 15 23  2  0  0  0  0
 16 17  1  0  0  0  0
 17 18  1  0  0  0  0
 17 22  2  0  0  0  0
 18 19  2  0  0  0  0
 18 39  1  0  0  0  0
 19 20  1  0  0  0  0
 19 40  1  0  0  0  0
 20 21  2  0  0  0  0
 20 41  1  0  0  0  0
 21 22  1  0  0  0  0
 21 42  1  0  0  0  0
 22 43  1  0  0  0  0
 23 24  1  0  0  0  0
 23 44  1  0  0  0  0
 24 45  1  0  0  0  0
 25 26  1  0  0  0  0
 25 46  1  0  0  0  0
 26 27  1  0  0  0  0
 28 29  2  0  0  0  0
 28 47  1  0  0  0  0
M  END
$$$$
