CHEMBL3676344
 OpenBabel04072215373D

 58 60  0  0  0  0  0  0  0  0999 V2000
    3.2101   -3.6952    0.7781 C   0  0  0  0  0  0  0  0  0  0  0  0
    3.3640   -2.9417   -0.3183 C   0  0  0  0  0  0  0  0  0  0  0  0
    3.5831   -1.4767   -0.1758 C   0  0  0  0  0  0  0  0  0  0  0  0
    3.1257   -0.8373    0.7727 O   0  0  0  0  0  0  0  0  0  0  0  0
    4.3771   -0.8505   -1.1093 N   0  0  0  0  0  0  0  0  0  0  0  0
    5.2316   -1.5703   -1.9654 C   0  0  0  0  0  0  0  0  0  0  0  0
    6.2970   -2.2568   -1.3842 C   0  0  0  0  0  0  0  0  0  0  0  0
    6.9562   -3.2731   -2.1006 C   0  0  0  0  0  0  0  0  0  0  0  0
    7.8973   -4.1490   -1.5426 C   0  0  0  0  0  0  0  0  0  0  0  0
    8.1767   -4.1073   -0.1471 N   0  0  0  0  0  0  0  0  0  0  0  0
    8.8102   -5.1754    0.5349 C   0  0  0  0  0  0  0  0  0  0  0  0
    8.4023   -6.5018    0.3129 C   0  0  0  0  0  0  0  0  0  0  0  0
    9.1311   -7.5734    0.8241 C   0  0  0  0  0  0  0  0  0  0  0  0
   10.2640   -7.3261    1.5973 C   0  0  0  0  0  0  0  0  0  0  0  0
   11.3189   -8.7857    2.1731 Br  0  0  0  0  0  0  0  0  0  0  0  0
   10.6252   -6.0174    1.9037 C   0  0  0  0  0  0  0  0  0  0  0  0
   11.6987   -5.7640    2.6720 F   0  0  0  0  0  0  0  0  0  0  0  0
    9.8979   -4.9502    1.3841 C   0  0  0  0  0  0  0  0  0  0  0  0
   10.2707   -3.6888    1.6557 F   0  0  0  0  0  0  0  0  0  0  0  0
    8.4838   -5.1134   -2.2764 N   0  0  0  0  0  0  0  0  0  0  0  0
    8.1010   -5.2303   -3.5502 C   0  0  0  0  0  0  0  0  0  0  0  0
    7.1732   -4.4915   -4.1592 N   0  0  0  0  0  0  0  0  0  0  0  0
    6.5977   -3.5293   -3.4354 C   0  0  0  0  0  0  0  0  0  0  0  0
    5.5823   -2.7769   -4.0120 C   0  0  0  0  0  0  0  0  0  0  0  0
    4.8987   -1.7812   -3.3084 C   0  0  0  0  0  0  0  0  0  0  0  0
    3.9060   -1.1411   -4.0117 O   0  0  0  0  0  0  0  0  0  0  0  0
    3.6974    0.2345   -3.6605 C   0  0  0  0  0  0  0  0  0  0  0  0
    3.2794    1.0566   -4.8847 C   0  0  0  0  0  0  0  0  0  0  0  0
    3.1818    2.4768   -4.5818 N   0  0  0  0  0  0  0  0  0  0  0  0
    4.3107    3.2585   -4.4304 C   0  0  0  0  0  0  0  0  0  0  0  0
    5.4385    2.8717   -4.7273 O   0  0  0  0  0  0  0  0  0  0  0  0
    4.0507    4.6655   -3.8742 C   0  0  0  0  0  0  0  0  0  0  0  0
    2.9922    4.6689   -2.8278 N   0  0  0  0  0  0  0  0  0  0  0  0
    3.4132    3.9049   -1.6453 C   0  0  0  0  0  0  0  0  0  0  0  0
    2.7345    6.0583   -2.4170 C   0  0  0  0  0  0  0  0  0  0  0  0
    3.1165   -4.7726    0.7028 H   0  0  0  0  0  0  0  0  0  0  0  0
    3.1959   -3.2541    1.7708 H   0  0  0  0  0  0  0  0  0  0  0  0
    3.3975   -3.3893   -1.3028 H   0  0  0  0  0  0  0  0  0  0  0  0
    4.7584   -0.0083   -0.6959 H   0  0  0  0  0  0  0  0  0  0  0  0
    6.5435   -2.0742   -0.3400 H   0  0  0  0  0  0  0  0  0  0  0  0
    8.5471   -3.2006    0.1260 H   0  0  0  0  0  0  0  0  0  0  0  0
    7.5343   -6.7027   -0.3145 H   0  0  0  0  0  0  0  0  0  0  0  0
    8.8267   -8.5887    0.5785 H   0  0  0  0  0  0  0  0  0  0  0  0
    8.5812   -6.0057   -4.1353 H   0  0  0  0  0  0  0  0  0  0  0  0
    5.2850   -2.9991   -5.0373 H   0  0  0  0  0  0  0  0  0  0  0  0
    4.6074    0.6808   -3.2405 H   0  0  0  0  0  0  0  0  0  0  0  0
    2.8958    0.2864   -2.9134 H   0  0  0  0  0  0  0  0  0  0  0  0
    2.3049    0.7231   -5.2566 H   0  0  0  0  0  0  0  0  0  0  0  0
    4.0043    0.9129   -5.6940 H   0  0  0  0  0  0  0  0  0  0  0  0
    2.3420    2.8439   -4.1396 H   0  0  0  0  0  0  0  0  0  0  0  0
    3.7410    5.2852   -4.7246 H   0  0  0  0  0  0  0  0  0  0  0  0
    4.9936    5.0648   -3.4804 H   0  0  0  0  0  0  0  0  0  0  0  0
    3.5982    2.8545   -1.8894 H   0  0  0  0  0  0  0  0  0  0  0  0
    2.6151    3.9045   -0.8940 H   0  0  0  0  0  0  0  0  0  0  0  0
    4.3212    4.3134   -1.1868 H   0  0  0  0  0  0  0  0  0  0  0  0
    2.4233    6.6687   -3.2722 H   0  0  0  0  0  0  0  0  0  0  0  0
    3.6174    6.5262   -1.9656 H   0  0  0  0  0  0  0  0  0  0  0  0
    1.9175    6.0962   -1.6881 H   0  0  0  0  0  0  0  0  0  0  0  0
  1  2  2  0  0  0  0
  1 36  1  0  0  0  0
  1 37  1  0  0  0  0
  2  3  1  0  0  0  0
  2 38  1  0  0  0  0
  3  4  2  0  0  0  0
  3  5  1  0  0  0  0
  5  6  1  0  0  0  0
  5 39  1  0  0  0  0
  6  7  1  0  0  0  0
  6 25  2  0  0  0  0
  7  8  2  0  0  0  0
  7 40  1  0  0  0  0
  8  9  1  0  0  0  0
  8 23  1  0  0  0  0
  9 10  1  0  0  0  0
  9 20  2  0  0  0  0
 10 11  1  0  0  0  0
 10 41  1  0  0  0  0
 11 12  1  0  0  0  0
 11 18  2  0  0  0  0
 12 13  2  0  0  0  0
 12 42  1  0  0  0  0
 13 14  1  0  0  0  0
 13 43  1  0  0  0  0
 14 15  1  0  0  0  0
 14 16  2  0  0  0  0
 16 17  1  0  0  0  0
 16 18  1  0  0  0  0
 18 19  1  0  0  0  0
 20 21  1  0  0  0  0
 21 22  2  0  0  0  0
 21 44  1  0  0  0  0
 22 23  1  0  0  0  0
 23 24  2  0  0  0  0
 24 25  1  0  0  0  0
 24 45  1  0  0  0  0
 25 26  1  0  0  0  0
 26 27  1  0  0  0  0
 27 28  1  0  0  0  0
 27 46  1  0  0  0  0
 27 47  1  0  0  0  0
 28 29  1  0  0  0  0
 28 48  1  0  0  0  0
 28 49  1  0  0  0  0
 29 30  1  0  0  0  0
 29 50  1  0  0  0  0
 30 31  2  0  0  0  0
 30 32  1  0  0  0  0
 32 33  1  0  0  0  0
 32 51  1  0  0  0  0
 32 52  1  0  0  0  0
 33 34  1  0  0  0  0
 33 35  1  0  0  0  0
 34 53  1  0  0  0  0
 34 54  1  0  0  0  0
 34 55  1  0  0  0  0
 35 56  1  0  0  0  0
 35 57  1  0  0  0  0
 35 58  1  0  0  0  0
M  END
$$$$
