CHEMBL199759
 OpenBabel04072215363D

 37 39  0  0  0  0  0  0  0  0999 V2000
    3.5053    5.4933   -2.1073 C   0  0  0  0  0  0  0  0  0  0  0  0
    4.4558    4.5177   -1.5318 C   0  0  0  0  0  0  0  0  0  0  0  0
    5.7600    4.5566   -1.9086 N   0  0  0  0  0  0  0  0  0  0  0  0
    6.3333    3.5103   -1.2628 N   0  0  0  0  0  0  0  0  0  0  0  0
    5.4278    2.8269   -0.5303 C   0  0  0  0  0  0  0  0  0  0  0  0
    5.4173    1.4660    0.3999 S   0  0  0  0  0  0  0  0  0  0  0  0
    3.6937    1.6846    0.6756 C   0  0  0  0  0  0  0  0  0  0  0  0
    2.9823    0.7622    1.5455 C   0  0  0  0  0  0  0  0  0  0  0  0
    3.7381   -0.1725    2.2012 N   0  0  0  0  0  0  0  0  0  0  0  0
    1.7678    0.8003    1.7322 O   0  0  0  0  0  0  0  0  0  0  0  0
    3.1933    2.8297    0.0293 C   0  0  0  0  0  0  0  0  0  0  0  0
    1.8487    3.2164    0.0818 N   0  0  0  0  0  0  0  0  0  0  0  0
    1.4894    4.5142    0.4210 C   0  0  0  0  0  0  0  0  0  0  0  0
    2.2825    5.3677    0.8234 O   0  0  0  0  0  0  0  0  0  0  0  0
   -0.0010    4.8222    0.2880 C   0  0  0  0  0  0  0  0  0  0  0  0
   -0.2097    5.3569   -1.0156 O   0  0  0  0  0  0  0  0  0  0  0  0
   -1.4778    5.7387   -1.3561 C   0  0  0  0  0  0  0  0  0  0  0  0
   -2.6114    5.6708   -0.5456 C   0  0  0  0  0  0  0  0  0  0  0  0
   -3.8588    6.0656   -1.0482 C   0  0  0  0  0  0  0  0  0  0  0  0
   -3.9770    6.5350   -2.3559 C   0  0  0  0  0  0  0  0  0  0  0  0
   -2.8456    6.6243   -3.1614 C   0  0  0  0  0  0  0  0  0  0  0  0
   -1.6032    6.2298   -2.6599 C   0  0  0  0  0  0  0  0  0  0  0  0
    4.2549    3.4481   -0.6544 C   0  0  0  0  0  0  0  0  0  0  0  0
    4.0090    6.1686   -2.8103 H   0  0  0  0  0  0  0  0  0  0  0  0
    3.0572    6.1208   -1.3366 H   0  0  0  0  0  0  0  0  0  0  0  0
    2.7093    4.9779   -2.6537 H   0  0  0  0  0  0  0  0  0  0  0  0
    7.3172    3.3276   -1.4009 H   0  0  0  0  0  0  0  0  0  0  0  0
    4.7497   -0.1765    2.1259 H   0  0  0  0  0  0  0  0  0  0  0  0
    3.2974   -0.7736    2.8811 H   0  0  0  0  0  0  0  0  0  0  0  0
    1.1918    2.4891    0.3591 H   0  0  0  0  0  0  0  0  0  0  0  0
   -0.2564    5.5607    1.0588 H   0  0  0  0  0  0  0  0  0  0  0  0
   -0.5864    3.9103    0.4387 H   0  0  0  0  0  0  0  0  0  0  0  0
   -2.5658    5.3172    0.4784 H   0  0  0  0  0  0  0  0  0  0  0  0
   -4.7430    6.0047   -0.4180 H   0  0  0  0  0  0  0  0  0  0  0  0
   -4.9474    6.8332   -2.7453 H   0  0  0  0  0  0  0  0  0  0  0  0
   -2.9270    6.9966   -4.1793 H   0  0  0  0  0  0  0  0  0  0  0  0
   -0.7229    6.3031   -3.2940 H   0  0  0  0  0  0  0  0  0  0  0  0
  1  2  1  0  0  0  0
  1 24  1  0  0  0  0
  1 25  1  0  0  0  0
  1 26  1  0  0  0  0
  2  3  2  0  0  0  0
  2 23  1  0  0  0  0
  3  4  1  0  0  0  0
  4  5  1  0  0  0  0
  4 27  1  0  0  0  0
  5  6  1  0  0  0  0
  5 23  2  0  0  0  0
  6  7  1  0  0  0  0
  7  8  1  0  0  0  0
  7 11  2  0  0  0  0
  8  9  1  0  0  0  0
  8 10  2  0  0  0  0
  9 28  1  0  0  0  0
  9 29  1  0  0  0  0
 11 12  1  0  0  0  0
 11 23  1  0  0  0  0
 12 13  1  0  0  0  0
 12 30  1  0  0  0  0
 13 14  2  0  0  0  0
 13 15  1  0  0  0  0
 15 16  1  0  0  0  0
 15 31  1  0  0  0  0
 15 32  1  0  0  0  0
 16 17  1  0  0  0  0
 17 18  1  0  0  0  0
 17 22  2  0  0  0  0
 18 19  2  0  0  0  0
 18 33  1  0  0  0  0
 19 20  1  0  0  0  0
 19 34  1  0  0  0  0
 20 21  2  0  0  0  0
 20 35  1  0  0  0  0
 21 22  1  0  0  0  0
 21 36  1  0  0  0  0
 22 37  1  0  0  0  0
M  END
$$$$
