CHEMBL2377495
 OpenBabel04072215363D

 15 16  0  0  0  0  0  0  0  0999 V2000
    4.4265    0.4406    1.3826 C   0  0  0  0  0  0  0  0  0  0  0  0
    3.0551   -0.1071    0.3420 S   0  0  0  0  0  0  0  0  0  0  0  0
    3.2575   -1.8445    0.4110 C   0  0  0  0  0  0  0  0  0  0  0  0
    4.2460   -2.4083    1.0642 N   0  0  0  0  0  0  0  0  0  0  0  0
    4.1310   -3.7796    0.9663 C   0  0  0  0  0  0  0  0  0  0  0  0
    5.0009   -4.6305    1.5480 N   0  0  0  0  0  0  0  0  0  0  0  0
    4.8213   -5.8740    1.4197 N   0  0  0  0  0  0  0  0  0  0  0  0
    3.8240   -6.3936    0.7424 N   0  0  0  0  0  0  0  0  0  0  0  0
    2.9210   -5.6019    0.1329 C   0  0  0  0  0  0  0  0  0  0  0  0
    1.6699   -6.4003   -0.7095 Cl  0  0  0  0  0  0  0  0  0  0  0  0
    3.0540   -4.2423    0.2306 C   0  0  0  0  0  0  0  0  0  0  0  0
    2.1607   -2.9106   -0.3654 S   0  0  0  0  0  0  0  0  0  0  0  0
    4.3755    1.5266    1.4987 H   0  0  0  0  0  0  0  0  0  0  0  0
    5.3844    0.1873    0.9199 H   0  0  0  0  0  0  0  0  0  0  0  0
    4.3689   -0.0127    2.3762 H   0  0  0  0  0  0  0  0  0  0  0  0
  1  2  1  0  0  0  0
  1 13  1  0  0  0  0
  1 14  1  0  0  0  0
  1 15  1  0  0  0  0
  2  3  1  0  0  0  0
  3  4  2  0  0  0  0
  3 12  1  0  0  0  0
  4  5  1  0  0  0  0
  5  6  1  0  0  0  0
  5 11  2  0  0  0  0
  6  7  2  0  0  0  0
  7  8  1  0  0  0  0
  8  9  2  0  0  0  0
  9 10  1  0  0  0  0
  9 11  1  0  0  0  0
 11 12  1  0  0  0  0
M  END
$$$$
