CHEMBL427047
 OpenBabel04072215383D

 70 74  0  0  0  0  0  0  0  0999 V2000
   -0.5847    7.0268    2.1440 C   0  0  0  0  0  0  0  0  0  0  0  0
   -0.9833    8.0104    1.0795 C   0  0  0  0  0  0  0  0  0  0  0  0
   -1.6731    9.1683    1.4726 C   0  0  0  0  0  0  0  0  0  0  0  0
   -1.9404   10.1904    0.5612 C   0  0  0  0  0  0  0  0  0  0  0  0
   -1.5104   10.0807   -0.7586 C   0  0  0  0  0  0  0  0  0  0  0  0
   -0.8267    8.9359   -1.1906 C   0  0  0  0  0  0  0  0  0  0  0  0
   -0.3229    8.8736   -2.6038 C   0  0  0  0  0  0  0  0  0  0  0  0
   -0.5880    7.8973   -0.2666 C   0  0  0  0  0  0  0  0  0  0  0  0
    0.3070    6.8778   -0.6794 O   0  0  0  0  0  0  0  0  0  0  0  0
    0.0625    5.5065   -0.4737 C   0  0  0  0  0  0  0  0  0  0  0  0
   -1.0772    5.0483   -0.4037 O   0  0  0  0  0  0  0  0  0  0  0  0
    1.2474    4.7568   -0.4094 N   0  0  0  0  0  0  0  0  0  0  0  0
    1.2641    3.3189   -0.3510 C   0  0  0  0  0  0  0  0  0  0  0  0
    0.3522    2.5453   -1.0740 C   0  0  0  0  0  0  0  0  0  0  0  0
    0.4704    1.1516   -1.1164 C   0  0  0  0  0  0  0  0  0  0  0  0
    1.4738    0.5067   -0.3980 C   0  0  0  0  0  0  0  0  0  0  0  0
    2.3563    1.2445    0.3762 C   0  0  0  0  0  0  0  0  0  0  0  0
    2.2424    2.6397    0.4077 C   0  0  0  0  0  0  0  0  0  0  0  0
    2.5132    5.4170   -0.3450 C   0  0  0  0  0  0  0  0  0  0  0  0
    3.5557    4.9457   -1.1247 C   0  0  0  0  0  0  0  0  0  0  0  0
    4.7587    5.5878   -0.9807 C   0  0  0  0  0  0  0  0  0  0  0  0
    4.9518    6.6012   -0.1262 N   0  0  0  0  0  0  0  0  0  0  0  0
    3.8918    7.0322    0.5673 C   0  0  0  0  0  0  0  0  0  0  0  0
    4.1360    8.0277    1.5035 N   0  0  0  0  0  0  0  0  0  0  0  0
    3.2933    9.0446    1.9669 C   0  0  0  0  0  0  0  0  0  0  0  0
    3.4842    9.5552    3.2480 C   0  0  0  0  0  0  0  0  0  0  0  0
    2.5989   10.4981    3.7868 C   0  0  0  0  0  0  0  0  0  0  0  0
    1.5121   11.0005    3.0581 C   0  0  0  0  0  0  0  0  0  0  0  0
    0.6498   11.9206    3.6299 N   0  0  0  0  0  0  0  0  0  0  0  0
   -0.2681   12.7426    2.8264 C   0  0  0  0  0  0  0  0  0  0  0  0
   -0.5006   14.0850    3.5616 C   0  0  0  0  0  0  0  0  0  0  0  0
   -1.0329   13.9062    4.9344 N   0  0  0  0  0  0  0  0  0  0  0  0
   -1.1418   15.1987    5.6073 C   0  0  0  0  0  0  0  0  0  0  0  0
   -0.1374   13.0016    5.6961 C   0  0  0  0  0  0  0  0  0  0  0  0
    0.1083   11.6533    4.9783 C   0  0  0  0  0  0  0  0  0  0  0  0
    1.4102   10.5631    1.7384 C   0  0  0  0  0  0  0  0  0  0  0  0
    2.2580    9.5735    1.2105 C   0  0  0  0  0  0  0  0  0  0  0  0
    2.6679    6.4789    0.4671 N   0  0  0  0  0  0  0  0  0  0  0  0
   -1.0459    7.2747    3.1061 H   0  0  0  0  0  0  0  0  0  0  0  0
    0.4998    7.0380    2.2874 H   0  0  0  0  0  0  0  0  0  0  0  0
   -0.9155    6.0155    1.9019 H   0  0  0  0  0  0  0  0  0  0  0  0
   -1.9387    9.3164    2.5176 H   0  0  0  0  0  0  0  0  0  0  0  0
   -2.4272   11.1007    0.8996 H   0  0  0  0  0  0  0  0  0  0  0  0
   -1.6734   10.9159   -1.4361 H   0  0  0  0  0  0  0  0  0  0  0  0
   -0.5728    9.7876   -3.1554 H   0  0  0  0  0  0  0  0  0  0  0  0
   -0.7820    8.0338   -3.1334 H   0  0  0  0  0  0  0  0  0  0  0  0
    0.7668    8.7717   -2.6223 H   0  0  0  0  0  0  0  0  0  0  0  0
   -0.4350    3.0127   -1.6619 H   0  0  0  0  0  0  0  0  0  0  0  0
   -0.2235    0.5676   -1.7186 H   0  0  0  0  0  0  0  0  0  0  0  0
    1.5754   -0.5797   -0.4538 H   0  0  0  0  0  0  0  0  0  0  0  0
    3.1246    0.7481    0.9605 H   0  0  0  0  0  0  0  0  0  0  0  0
    2.9290    3.1833    1.0558 H   0  0  0  0  0  0  0  0  0  0  0  0
    3.4400    4.1245   -1.8177 H   0  0  0  0  0  0  0  0  0  0  0  0
    5.6219    5.2896   -1.5639 H   0  0  0  0  0  0  0  0  0  0  0  0
    5.1232    8.2432    1.5301 H   0  0  0  0  0  0  0  0  0  0  0  0
    4.3056    9.1964    3.8637 H   0  0  0  0  0  0  0  0  0  0  0  0
    2.7904   10.8602    4.7924 H   0  0  0  0  0  0  0  0  0  0  0  0
   -1.2260   12.2244    2.6933 H   0  0  0  0  0  0  0  0  0  0  0  0
    0.1405   12.9700    1.8363 H   0  0  0  0  0  0  0  0  0  0  0  0
   -1.2016   14.6877    2.9725 H   0  0  0  0  0  0  0  0  0  0  0  0
    0.4546   14.6270    3.5963 H   0  0  0  0  0  0  0  0  0  0  0  0
   -1.8236   15.8585    5.0598 H   0  0  0  0  0  0  0  0  0  0  0  0
   -0.1729   15.7037    5.6975 H   0  0  0  0  0  0  0  0  0  0  0  0
   -1.5597   15.0737    6.6120 H   0  0  0  0  0  0  0  0  0  0  0  0
   -0.5756   12.7978    6.6801 H   0  0  0  0  0  0  0  0  0  0  0  0
    0.8355   13.4849    5.8605 H   0  0  0  0  0  0  0  0  0  0  0  0
   -0.8369   11.0983    4.8935 H   0  0  0  0  0  0  0  0  0  0  0  0
    0.7737   11.0454    5.5993 H   0  0  0  0  0  0  0  0  0  0  0  0
    0.6294   10.9416    1.0869 H   0  0  0  0  0  0  0  0  0  0  0  0
    2.0818    9.2333    0.1919 H   0  0  0  0  0  0  0  0  0  0  0  0
  1  2  1  0  0  0  0
  1 39  1  0  0  0  0
  1 40  1  0  0  0  0
  1 41  1  0  0  0  0
  2  3  1  0  0  0  0
  2  8  2  0  0  0  0
  3  4  2  0  0  0  0
  3 42  1  0  0  0  0
  4  5  1  0  0  0  0
  4 43  1  0  0  0  0
  5  6  2  0  0  0  0
  5 44  1  0  0  0  0
  6  7  1  0  0  0  0
  6  8  1  0  0  0  0
  7 45  1  0  0  0  0
  7 46  1  0  0  0  0
  7 47  1  0  0  0  0
  8  9  1  0  0  0  0
  9 10  1  0  0  0  0
 10 11  2  0  0  0  0
 10 12  1  0  0  0  0
 12 13  1  0  0  0  0
 12 19  1  0  0  0  0
 13 14  1  0  0  0  0
 13 18  2  0  0  0  0
 14 15  2  0  0  0  0
 14 48  1  0  0  0  0
 15 16  1  0  0  0  0
 15 49  1  0  0  0  0
 16 17  2  0  0  0  0
 16 50  1  0  0  0  0
 17 18  1  0  0  0  0
 17 51  1  0  0  0  0
 18 52  1  0  0  0  0
 19 20  1  0  0  0  0
 19 38  2  0  0  0  0
 20 21  2  0  0  0  0
 20 53  1  0  0  0  0
 21 22  1  0  0  0  0
 21 54  1  0  0  0  0
 22 23  2  0  0  0  0
 23 24  1  0  0  0  0
 23 38  1  0  0  0  0
 24 25  1  0  0  0  0
 24 55  1  0  0  0  0
 25 26  1  0  0  0  0
 25 37  2  0  0  0  0
 26 27  2  0  0  0  0
 26 56  1  0  0  0  0
 27 28  1  0  0  0  0
 27 57  1  0  0  0  0
 28 29  1  0  0  0  0
 28 36  2  0  0  0  0
 29 30  1  0  0  0  0
 29 35  1  0  0  0  0
 30 31  1  0  0  0  0
 30 58  1  0  0  0  0
 30 59  1  0  0  0  0
 31 32  1  0  0  0  0
 31 60  1  0  0  0  0
 31 61  1  0  0  0  0
 32 33  1  0  0  0  0
 32 34  1  0  0  0  0
 33 62  1  0  0  0  0
 33 63  1  0  0  0  0
 33 64  1  0  0  0  0
 34 35  1  0  0  0  0
 34 65  1  0  0  0  0
 34 66  1  0  0  0  0
 35 67  1  0  0  0  0
 35 68  1  0  0  0  0
 36 37  1  0  0  0  0
 36 69  1  0  0  0  0
 37 70  1  0  0  0  0
M  END
$$$$
