CHEMBL4795648
 OpenBabel04072215383D

 76 81  0  0  0  0  0  0  0  0999 V2000
   12.3100  -11.3023   -0.7719 C   0  0  0  0  0  0  0  0  0  0  0  0
   12.2392   -9.9315   -1.1236 O   0  0  0  0  0  0  0  0  0  0  0  0
   11.0644   -9.2932   -0.6160 C   0  0  0  0  0  0  0  0  0  0  0  0
   11.1627   -7.8195   -0.9884 C   0  0  0  0  0  0  0  0  0  0  0  0
   10.0438   -7.0727   -0.5219 O   0  0  0  0  0  0  0  0  0  0  0  0
   10.2557   -5.8841    0.1311 C   0  0  0  0  0  0  0  0  0  0  0  0
    9.1965   -5.5667    0.9977 C   0  0  0  0  0  0  0  0  0  0  0  0
    9.1916   -4.4422    1.8150 C   0  0  0  0  0  0  0  0  0  0  0  0
    8.1110   -4.1948    2.5658 N   0  0  0  0  0  0  0  0  0  0  0  0
    8.1474   -3.1107    3.3530 C   0  0  0  0  0  0  0  0  0  0  0  0
    9.1722   -2.2693    3.4880 N   0  0  0  0  0  0  0  0  0  0  0  0
   10.2224   -2.5126    2.6796 C   0  0  0  0  0  0  0  0  0  0  0  0
   11.2894   -1.6200    2.7280 O   0  0  0  0  0  0  0  0  0  0  0  0
   11.0049   -0.2759    2.8719 C   0  0  0  0  0  0  0  0  0  0  0  0
   11.9371    0.4920    3.5719 C   0  0  0  0  0  0  0  0  0  0  0  0
   11.7907    1.8896    3.6617 C   0  0  0  0  0  0  0  0  0  0  0  0
   10.7190    2.5478    3.0390 C   0  0  0  0  0  0  0  0  0  0  0  0
   10.6630    3.9598    3.0329 N   0  0  0  0  0  0  0  0  0  0  0  0
   10.2251    4.8114    1.9869 C   0  0  0  0  0  0  0  0  0  0  0  0
    9.6782    4.2476    0.8809 N   0  0  0  0  0  0  0  0  0  0  0  0
    9.2160    5.0284   -0.1113 C   0  0  0  0  0  0  0  0  0  0  0  0
    9.2658    6.4040   -0.0866 C   0  0  0  0  0  0  0  0  0  0  0  0
    9.8418    7.0103    1.0248 C   0  0  0  0  0  0  0  0  0  0  0  0
    9.8792    8.4105    1.1171 N   0  0  0  0  0  0  0  0  0  0  0  0
   10.4765    9.0263    2.1819 C   0  0  0  0  0  0  0  0  0  0  0  0
   10.9970    8.3908    3.2421 C   0  0  0  0  0  0  0  0  0  0  0  0
   11.6695    9.1541    4.2988 C   0  0  0  0  0  0  0  0  0  0  0  0
   10.9465    9.6780    5.3816 C   0  0  0  0  0  0  0  0  0  0  0  0
   11.5985   10.4369    6.3563 C   0  0  0  0  0  0  0  0  0  0  0  0
   12.9664   10.6702    6.2479 C   0  0  0  0  0  0  0  0  0  0  0  0
   13.5897   11.4047    7.1786 F   0  0  0  0  0  0  0  0  0  0  0  0
   13.6941   10.1626    5.1790 C   0  0  0  0  0  0  0  0  0  0  0  0
   13.0459    9.4030    4.2044 C   0  0  0  0  0  0  0  0  0  0  0  0
   10.9538    6.8931    3.2414 C   0  0  0  0  0  0  0  0  0  0  0  0
   11.4766    6.2410    4.1410 O   0  0  0  0  0  0  0  0  0  0  0  0
   10.3090    6.2073    2.0841 C   0  0  0  0  0  0  0  0  0  0  0  0
    9.7671    1.7570    2.3861 C   0  0  0  0  0  0  0  0  0  0  0  0
    9.9228    0.3743    2.2777 C   0  0  0  0  0  0  0  0  0  0  0  0
    9.0284   -0.2976    1.5367 F   0  0  0  0  0  0  0  0  0  0  0  0
   10.3144   -3.6141    1.8136 C   0  0  0  0  0  0  0  0  0  0  0  0
   11.3862   -3.9046    0.9323 C   0  0  0  0  0  0  0  0  0  0  0  0
   11.3127   -4.9717    0.0211 C   0  0  0  0  0  0  0  0  0  0  0  0
   12.3031   -4.9267   -0.9295 O   0  0  0  0  0  0  0  0  0  0  0  0
   11.8907   -5.2728   -2.2511 C   0  0  0  0  0  0  0  0  0  0  0  0
   11.9888   -4.1655   -3.2847 C   0  0  0  0  0  0  0  0  0  0  0  0
   11.4612   -4.7591   -4.4768 O   0  0  0  0  0  0  0  0  0  0  0  0
   11.4247   -3.8959   -5.5922 C   0  0  0  0  0  0  0  0  0  0  0  0
   13.2141  -11.7207   -1.2235 H   0  0  0  0  0  0  0  0  0  0  0  0
   11.4426  -11.8443   -1.1581 H   0  0  0  0  0  0  0  0  0  0  0  0
   12.3798  -11.4128    0.3137 H   0  0  0  0  0  0  0  0  0  0  0  0
   11.0010   -9.4057    0.4710 H   0  0  0  0  0  0  0  0  0  0  0  0
   10.1701   -9.7427   -1.0646 H   0  0  0  0  0  0  0  0  0  0  0  0
   11.1674   -7.7787   -2.0845 H   0  0  0  0  0  0  0  0  0  0  0  0
   12.1230   -7.4383   -0.6248 H   0  0  0  0  0  0  0  0  0  0  0  0
    8.3264   -6.2215    1.0219 H   0  0  0  0  0  0  0  0  0  0  0  0
    7.2540   -2.8926    3.9274 H   0  0  0  0  0  0  0  0  0  0  0  0
   12.7955    0.0138    4.0390 H   0  0  0  0  0  0  0  0  0  0  0  0
   12.5477    2.4615    4.1949 H   0  0  0  0  0  0  0  0  0  0  0  0
   11.3654    4.4182    3.6162 H   0  0  0  0  0  0  0  0  0  0  0  0
    8.7832    4.4953   -0.9532 H   0  0  0  0  0  0  0  0  0  0  0  0
    8.8804    6.9793   -0.9147 H   0  0  0  0  0  0  0  0  0  0  0  0
    9.7218    8.9563    0.2765 H   0  0  0  0  0  0  0  0  0  0  0  0
   10.5124   10.1102    2.0895 H   0  0  0  0  0  0  0  0  0  0  0  0
    9.8791    9.4974    5.4766 H   0  0  0  0  0  0  0  0  0  0  0  0
   11.0545   10.8451    7.2032 H   0  0  0  0  0  0  0  0  0  0  0  0
   14.7601   10.3560    5.1125 H   0  0  0  0  0  0  0  0  0  0  0  0
   13.6215    9.0009    3.3724 H   0  0  0  0  0  0  0  0  0  0  0  0
    8.8960    2.2060    1.9206 H   0  0  0  0  0  0  0  0  0  0  0  0
   12.2589   -3.2537    0.9138 H   0  0  0  0  0  0  0  0  0  0  0  0
   10.8572   -5.6257   -2.2995 H   0  0  0  0  0  0  0  0  0  0  0  0
   12.5387   -6.0937   -2.5815 H   0  0  0  0  0  0  0  0  0  0  0  0
   13.0256   -3.8456   -3.4326 H   0  0  0  0  0  0  0  0  0  0  0  0
   11.3874   -3.3000   -2.9852 H   0  0  0  0  0  0  0  0  0  0  0  0
   10.8924   -4.4194   -6.3923 H   0  0  0  0  0  0  0  0  0  0  0  0
   12.4393   -3.6790   -5.9337 H   0  0  0  0  0  0  0  0  0  0  0  0
   10.8841   -2.9757   -5.3585 H   0  0  0  0  0  0  0  0  0  0  0  0
  1  2  1  0  0  0  0
  1 48  1  0  0  0  0
  1 49  1  0  0  0  0
  1 50  1  0  0  0  0
  2  3  1  0  0  0  0
  3  4  1  0  0  0  0
  3 51  1  0  0  0  0
  3 52  1  0  0  0  0
  4  5  1  0  0  0  0
  4 53  1  0  0  0  0
  4 54  1  0  0  0  0
  5  6  1  0  0  0  0
  6  7  1  0  0  0  0
  6 42  2  0  0  0  0
  7  8  2  0  0  0  0
  7 55  1  0  0  0  0
  8  9  1  0  0  0  0
  8 40  1  0  0  0  0
  9 10  2  0  0  0  0
 10 11  1  0  0  0  0
 10 56  1  0  0  0  0
 11 12  2  0  0  0  0
 12 13  1  0  0  0  0
 12 40  1  0  0  0  0
 13 14  1  0  0  0  0
 14 15  1  0  0  0  0
 14 38  2  0  0  0  0
 15 16  2  0  0  0  0
 15 57  1  0  0  0  0
 16 17  1  0  0  0  0
 16 58  1  0  0  0  0
 17 18  1  0  0  0  0
 17 37  2  0  0  0  0
 18 19  1  0  0  0  0
 18 59  1  0  0  0  0
 19 20  1  0  0  0  0
 19 36  2  0  0  0  0
 20 21  2  0  0  0  0
 21 22  1  0  0  0  0
 21 60  1  0  0  0  0
 22 23  2  0  0  0  0
 22 61  1  0  0  0  0
 23 24  1  0  0  0  0
 23 36  1  0  0  0  0
 24 25  1  0  0  0  0
 24 62  1  0  0  0  0
 25 26  2  0  0  0  0
 25 63  1  0  0  0  0
 26 27  1  0  0  0  0
 26 34  1  0  0  0  0
 27 28  1  0  0  0  0
 27 33  2  0  0  0  0
 28 29  2  0  0  0  0
 28 64  1  0  0  0  0
 29 30  1  0  0  0  0
 29 65  1  0  0  0  0
 30 31  1  0  0  0  0
 30 32  2  0  0  0  0
 32 33  1  0  0  0  0
 32 66  1  0  0  0  0
 33 67  1  0  0  0  0
 34 35  2  0  0  0  0
 34 36  1  0  0  0  0
 37 38  1  0  0  0  0
 37 68  1  0  0  0  0
 38 39  1  0  0  0  0
 40 41  2  0  0  0  0
 41 42  1  0  0  0  0
 41 69  1  0  0  0  0
 42 43  1  0  0  0  0
 43 44  1  0  0  0  0
 44 45  1  0  0  0  0
 44 70  1  0  0  0  0
 44 71  1  0  0  0  0
 45 46  1  0  0  0  0
 45 72  1  0  0  0  0
 45 73  1  0  0  0  0
 46 47  1  0  0  0  0
 47 74  1  0  0  0  0
 47 75  1  0  0  0  0
 47 76  1  0  0  0  0
M  END
$$$$
