CHEMBL3926082
 OpenBabel04072215373D

 79 82  0  0  0  0  0  0  0  0999 V2000
    1.3436    3.4378   -3.4286 C   0  0  0  0  0  0  0  0  0  0  0  0
    2.4313    2.6807   -3.8294 O   0  0  0  0  0  0  0  0  0  0  0  0
    3.1489    1.8300   -3.0471 C   0  0  0  0  0  0  0  0  0  0  0  0
    2.6561    1.3795   -1.8091 C   0  0  0  0  0  0  0  0  0  0  0  0
    3.3890    0.4780   -1.0407 C   0  0  0  0  0  0  0  0  0  0  0  0
    2.9441   -0.0184    0.1568 O   0  0  0  0  0  0  0  0  0  0  0  0
    1.7096    0.2225    0.7528 C   0  0  0  0  0  0  0  0  0  0  0  0
    4.6279    0.0447   -1.5090 C   0  0  0  0  0  0  0  0  0  0  0  0
    5.1870    0.4698   -2.7599 C   0  0  0  0  0  0  0  0  0  0  0  0
    6.4639   -0.0650   -3.2587 N   0  0  0  0  0  0  0  0  0  0  0  0
    7.0809   -1.2438   -2.5523 C   0  0  0  0  0  0  0  0  0  0  0  0
    8.5082   -0.8624   -2.1293 C   0  0  0  0  0  0  0  0  0  0  0  0
    9.2771   -1.8909   -1.4117 N   0  0  0  0  0  0  0  0  0  0  0  0
   10.6800   -1.4195   -1.2447 C   0  0  0  0  0  0  0  0  0  0  0  0
   10.7524   -0.0835   -0.4749 C   0  0  0  0  0  0  0  0  0  0  0  0
   11.5298   -2.4583   -0.5078 C   0  0  0  0  0  0  0  0  0  0  0  0
    7.2857    0.3948   -4.4068 C   0  0  0  0  0  0  0  0  0  0  0  0
    7.8104   -0.6677   -5.1571 C   0  0  0  0  0  0  0  0  0  0  0  0
    8.9237   -0.5509   -5.9030 C   0  0  0  0  0  0  0  0  0  0  0  0
    9.5336    0.6460   -6.0712 C   0  0  0  0  0  0  0  0  0  0  0  0
   10.7063    0.5963   -6.7051 N   0  0  0  0  0  0  0  0  0  0  0  0
   11.3516    1.6931   -7.0607 C   0  0  0  0  0  0  0  0  0  0  0  0
   10.7640    2.9415   -6.8926 C   0  0  0  0  0  0  0  0  0  0  0  0
   11.3257    3.9415   -7.9094 C   0  0  0  0  0  0  0  0  0  0  0  0
   11.4080    5.3248   -8.0502 C   0  0  0  0  0  0  0  0  0  0  0  0
   11.8866    5.6230   -9.2979 N   0  0  0  0  0  0  0  0  0  0  0  0
   12.0945    4.4906   -9.9615 N   0  0  0  0  0  0  0  0  0  0  0  0
   12.3131    4.3270  -11.4190 C   0  0  0  0  0  0  0  0  0  0  0  0
   13.6766    4.7223  -12.0640 C   0  0  0  0  0  0  0  0  0  0  0  0
   14.1001    6.1431  -11.6829 C   0  0  0  0  0  0  0  0  0  0  0  0
   15.2712    6.6142  -12.5651 C   0  0  0  0  0  0  0  0  0  0  0  0
   14.9013    6.6017  -13.9320 O   0  0  0  0  0  0  0  0  0  0  0  0
   14.7137    5.2633  -14.3497 C   0  0  0  0  0  0  0  0  0  0  0  0
   13.5161    4.6408  -13.6148 C   0  0  0  0  0  0  0  0  0  0  0  0
   11.7907    3.4709   -9.1501 C   0  0  0  0  0  0  0  0  0  0  0  0
    9.6182    3.0388   -6.0712 N   0  0  0  0  0  0  0  0  0  0  0  0
    8.9850    1.8627   -5.6014 C   0  0  0  0  0  0  0  0  0  0  0  0
    7.8300    1.7387   -4.6901 C   0  0  0  0  0  0  0  0  0  0  0  0
    4.4087    1.3751   -3.5120 C   0  0  0  0  0  0  0  0  0  0  0  0
   -0.7659    0.3621   -2.3764 Cl  0  0  0  0  0  0  0  0  0  0  0  0
    0.9029    3.9395   -4.3131 H   0  0  0  0  0  0  0  0  0  0  0  0
    1.6745    4.2132   -2.7051 H   0  0  0  0  0  0  0  0  0  0  0  0
    0.5449    2.8184   -2.9711 H   0  0  0  0  0  0  0  0  0  0  0  0
    1.6907    1.7103   -1.4380 H   0  0  0  0  0  0  0  0  0  0  0  0
    1.6594   -0.3217    1.7209 H   0  0  0  0  0  0  0  0  0  0  0  0
    0.8762   -0.1447    0.1196 H   0  0  0  0  0  0  0  0  0  0  0  0
    1.5872    1.3063    0.9562 H   0  0  0  0  0  0  0  0  0  0  0  0
    5.0921   -0.6451   -0.8349 H   0  0  0  0  0  0  0  0  0  0  0  0
    7.0859   -2.1534   -3.1779 H   0  0  0  0  0  0  0  0  0  0  0  0
    6.5537   -1.6233   -1.6784 H   0  0  0  0  0  0  0  0  0  0  0  0
    8.3606    0.0151   -1.4788 H   0  0  0  0  0  0  0  0  0  0  0  0
    9.1014   -0.5748   -3.0191 H   0  0  0  0  0  0  0  0  0  0  0  0
    9.3008   -2.7617   -1.9999 H   0  0  0  0  0  0  0  0  0  0  0  0
   11.1518   -1.2704   -2.2448 H   0  0  0  0  0  0  0  0  0  0  0  0
   10.2457   -0.1813    0.5084 H   0  0  0  0  0  0  0  0  0  0  0  0
   10.2894    0.7475   -1.0454 H   0  0  0  0  0  0  0  0  0  0  0  0
   11.8060    0.2235   -0.3244 H   0  0  0  0  0  0  0  0  0  0  0  0
   11.1213   -2.6545    0.5049 H   0  0  0  0  0  0  0  0  0  0  0  0
   12.5701   -2.0741   -0.4024 H   0  0  0  0  0  0  0  0  0  0  0  0
   11.5789   -3.4063   -1.0820 H   0  0  0  0  0  0  0  0  0  0  0  0
    7.4439   -1.6663   -5.0840 H   0  0  0  0  0  0  0  0  0  0  0  0
    9.3596   -1.4320   -6.3472 H   0  0  0  0  0  0  0  0  0  0  0  0
   12.2802    1.5555   -7.6071 H   0  0  0  0  0  0  0  0  0  0  0  0
   11.1180    6.0726   -7.3259 H   0  0  0  0  0  0  0  0  0  0  0  0
   11.5157    4.9238  -11.9083 H   0  0  0  0  0  0  0  0  0  0  0  0
   12.1246    3.2660  -11.7094 H   0  0  0  0  0  0  0  0  0  0  0  0
   14.4914    4.0229  -11.7609 H   0  0  0  0  0  0  0  0  0  0  0  0
   14.3992    6.1610  -10.6129 H   0  0  0  0  0  0  0  0  0  0  0  0
   13.2496    6.8363  -11.8414 H   0  0  0  0  0  0  0  0  0  0  0  0
   16.1942    6.0109  -12.4041 H   0  0  0  0  0  0  0  0  0  0  0  0
   15.5226    7.6575  -12.2835 H   0  0  0  0  0  0  0  0  0  0  0  0
   15.6476    4.6732  -14.2191 H   0  0  0  0  0  0  0  0  0  0  0  0
   14.4977    5.2667  -15.4423 H   0  0  0  0  0  0  0  0  0  0  0  0
   13.3726    3.5890  -13.9514 H   0  0  0  0  0  0  0  0  0  0  0  0
   12.6222    5.2248  -13.9253 H   0  0  0  0  0  0  0  0  0  0  0  0
   11.8079    2.4415   -9.4872 H   0  0  0  0  0  0  0  0  0  0  0  0
    7.4504    2.6139   -4.1666 H   0  0  0  0  0  0  0  0  0  0  0  0
    4.7582    1.7112   -4.4777 H   0  0  0  0  0  0  0  0  0  0  0  0
    0.4305   -0.2949   -2.2063 H   0  0  0  0  0  0  0  0  0  0  0  0
  1  2  1  0  0  0  0
  1 41  1  0  0  0  0
  1 42  1  0  0  0  0
  1 43  1  0  0  0  0
  2  3  1  0  0  0  0
  3  4  1  0  0  0  0
  3 39  2  0  0  0  0
  4  5  2  0  0  0  0
  4 44  1  0  0  0  0
  5  6  1  0  0  0  0
  5  8  1  0  0  0  0
  6  7  1  0  0  0  0
  7 45  1  0  0  0  0
  7 46  1  0  0  0  0
  7 47  1  0  0  0  0
  8  9  2  0  0  0  0
  8 48  1  0  0  0  0
  9 10  1  0  0  0  0
  9 39  1  0  0  0  0
 10 11  1  0  0  0  0
 10 17  1  0  0  0  0
 11 12  1  0  0  0  0
 11 49  1  0  0  0  0
 11 50  1  0  0  0  0
 12 13  1  0  0  0  0
 12 51  1  0  0  0  0
 12 52  1  0  0  0  0
 13 14  1  0  0  0  0
 13 53  1  0  0  0  0
 14 15  1  0  0  0  0
 14 16  1  0  0  0  0
 14 54  1  0  0  0  0
 15 55  1  0  0  0  0
 15 56  1  0  0  0  0
 15 57  1  0  0  0  0
 16 58  1  0  0  0  0
 16 59  1  0  0  0  0
 16 60  1  0  0  0  0
 17 18  1  0  0  0  0
 17 38  2  0  0  0  0
 18 19  2  0  0  0  0
 18 61  1  0  0  0  0
 19 20  1  0  0  0  0
 19 62  1  0  0  0  0
 20 21  1  0  0  0  0
 20 37  2  0  0  0  0
 21 22  2  0  0  0  0
 22 23  1  0  0  0  0
 22 63  1  0  0  0  0
 23 24  1  0  0  0  0
 23 36  2  0  0  0  0
 24 25  1  0  0  0  0
 24 35  2  0  0  0  0
 25 26  2  0  0  0  0
 25 64  1  0  0  0  0
 26 27  1  0  0  0  0
 27 28  1  0  0  0  0
 27 35  1  0  0  0  0
 28 29  1  0  0  0  0
 28 65  1  0  0  0  0
 28 66  1  0  0  0  0
 29 30  1  0  0  0  0
 29 34  1  0  0  0  0
 29 67  1  0  0  0  0
 30 31  1  0  0  0  0
 30 68  1  0  0  0  0
 30 69  1  0  0  0  0
 31 32  1  0  0  0  0
 31 70  1  0  0  0  0
 31 71  1  0  0  0  0
 32 33  1  0  0  0  0
 33 34  1  0  0  0  0
 33 72  1  0  0  0  0
 33 73  1  0  0  0  0
 34 74  1  0  0  0  0
 34 75  1  0  0  0  0
 35 76  1  0  0  0  0
 36 37  1  0  0  0  0
 37 38  1  0  0  0  0
 38 77  1  0  0  0  0
 39 78  1  0  0  0  0
 40 79  1  0  0  0  0
M  END
$$$$
