CHEMBL2086730
 OpenBabel04072215363D

 45 49  0  0  0  0  0  0  0  0999 V2000
    3.1898   -3.4490    0.8511 C   0  0  0  0  0  0  0  0  0  0  0  0
    2.5144   -2.3860    1.5093 O   0  0  0  0  0  0  0  0  0  0  0  0
    3.2837   -1.4084    2.0739 C   0  0  0  0  0  0  0  0  0  0  0  0
    4.6657   -1.2638    1.9466 C   0  0  0  0  0  0  0  0  0  0  0  0
    5.3383   -0.2474    2.6421 C   0  0  0  0  0  0  0  0  0  0  0  0
    4.6318    0.6391    3.4626 C   0  0  0  0  0  0  0  0  0  0  0  0
    5.3117    1.5851    4.4010 C   0  0  0  0  0  0  0  0  0  0  0  0
    5.8390    2.7513    3.9538 C   0  0  0  0  0  0  0  0  0  0  0  0
    4.7502    3.7031    3.4520 C   0  0  0  0  0  0  0  0  0  0  0  0
    3.7072    3.9940    4.0084 O   0  0  0  0  0  0  0  0  0  0  0  0
    5.1465    4.1336    2.1955 N   0  0  0  0  0  0  0  0  0  0  0  0
    6.3508    3.5599    1.8265 C   0  0  0  0  0  0  0  0  0  0  0  0
    7.0152    3.6957    0.6256 C   0  0  0  0  0  0  0  0  0  0  0  0
    8.2334    3.0245    0.4874 C   0  0  0  0  0  0  0  0  0  0  0  0
    8.7716    2.2800    1.5541 C   0  0  0  0  0  0  0  0  0  0  0  0
    8.0741    2.1519    2.7591 C   0  0  0  0  0  0  0  0  0  0  0  0
    6.8361    2.7641    2.8602 C   0  0  0  0  0  0  0  0  0  0  0  0
    5.1906    1.4455    5.8240 C   0  0  0  0  0  0  0  0  0  0  0  0
    5.4077    2.2825    6.8205 N   0  0  0  0  0  0  0  0  0  0  0  0
    5.1299    1.5807    7.9732 C   0  0  0  0  0  0  0  0  0  0  0  0
    5.1687    1.9931    9.3126 C   0  0  0  0  0  0  0  0  0  0  0  0
    4.8666    1.0534   10.3110 C   0  0  0  0  0  0  0  0  0  0  0  0
    4.5286   -0.2598    9.9858 C   0  0  0  0  0  0  0  0  0  0  0  0
    4.4653   -0.6843    8.6527 C   0  0  0  0  0  0  0  0  0  0  0  0
    4.7740    0.2711    7.6829 C   0  0  0  0  0  0  0  0  0  0  0  0
    4.8118    0.2130    6.3174 N   0  0  0  0  0  0  0  0  0  0  0  0
    3.2348    0.5297    3.5270 C   0  0  0  0  0  0  0  0  0  0  0  0
    2.5718   -0.4916    2.8470 C   0  0  0  0  0  0  0  0  0  0  0  0
    2.4308   -4.1477    0.4857 H   0  0  0  0  0  0  0  0  0  0  0  0
    3.8413   -3.9950    1.5420 H   0  0  0  0  0  0  0  0  0  0  0  0
    3.7490   -3.0833   -0.0161 H   0  0  0  0  0  0  0  0  0  0  0  0
    5.2532   -1.9361    1.3299 H   0  0  0  0  0  0  0  0  0  0  0  0
    6.4200   -0.1863    2.5575 H   0  0  0  0  0  0  0  0  0  0  0  0
    4.5871    4.7583    1.6364 H   0  0  0  0  0  0  0  0  0  0  0  0
    6.6061    4.2817   -0.1890 H   0  0  0  0  0  0  0  0  0  0  0  0
    8.7778    3.0828   -0.4529 H   0  0  0  0  0  0  0  0  0  0  0  0
    9.7385    1.7950    1.4364 H   0  0  0  0  0  0  0  0  0  0  0  0
    8.4897    1.5851    3.5863 H   0  0  0  0  0  0  0  0  0  0  0  0
    5.4270    3.0136    9.5613 H   0  0  0  0  0  0  0  0  0  0  0  0
    4.8992    1.3567   11.3561 H   0  0  0  0  0  0  0  0  0  0  0  0
    4.3054   -0.9718   10.7783 H   0  0  0  0  0  0  0  0  0  0  0  0
    4.1964   -1.7001    8.3951 H   0  0  0  0  0  0  0  0  0  0  0  0
    4.5895   -0.5985    5.7607 H   0  0  0  0  0  0  0  0  0  0  0  0
    2.6557    1.2194    4.1419 H   0  0  0  0  0  0  0  0  0  0  0  0
    1.4929   -0.5868    2.9432 H   0  0  0  0  0  0  0  0  0  0  0  0
  1  2  1  0  0  0  0
  1 29  1  0  0  0  0
  1 30  1  0  0  0  0
  1 31  1  0  0  0  0
  2  3  1  0  0  0  0
  3  4  1  0  0  0  0
  3 28  2  0  0  0  0
  4  5  2  0  0  0  0
  4 32  1  0  0  0  0
  5  6  1  0  0  0  0
  5 33  1  0  0  0  0
  6  7  1  0  0  0  0
  6 27  2  0  0  0  0
  7  8  2  3  0  0  0
  7 18  1  0  0  0  0
  8  9  1  0  0  0  0
  8 17  1  0  0  0  0
  9 10  2  0  0  0  0
  9 11  1  0  0  0  0
 11 12  1  0  0  0  0
 11 34  1  0  0  0  0
 12 13  1  0  0  0  0
 12 17  2  0  0  0  0
 13 14  2  0  0  0  0
 13 35  1  0  0  0  0
 14 15  1  0  0  0  0
 14 36  1  0  0  0  0
 15 16  2  0  0  0  0
 15 37  1  0  0  0  0
 16 17  1  0  0  0  0
 16 38  1  0  0  0  0
 18 19  2  0  0  0  0
 18 26  1  0  0  0  0
 19 20  1  0  0  0  0
 20 21  1  0  0  0  0
 20 25  2  0  0  0  0
 21 22  2  0  0  0  0
 21 39  1  0  0  0  0
 22 23  1  0  0  0  0
 22 40  1  0  0  0  0
 23 24  2  0  0  0  0
 23 41  1  0  0  0  0
 24 25  1  0  0  0  0
 24 42  1  0  0  0  0
 25 26  1  0  0  0  0
 26 43  1  0  0  0  0
 27 28  1  0  0  0  0
 27 44  1  0  0  0  0
 28 45  1  0  0  0  0
M  END
$$$$
