CHEMBL3759111
 OpenBabel04072215373D

 53 55  0  0  0  0  0  0  0  0999 V2000
    3.5140   -1.0325   -0.8391 C   0  0  0  0  0  0  0  0  0  0  0  0
    2.6306   -0.2650   -0.0192 O   0  0  0  0  0  0  0  0  0  0  0  0
    3.1556    0.8820    0.5148 C   0  0  0  0  0  0  0  0  0  0  0  0
    4.0886    1.6443   -0.1951 C   0  0  0  0  0  0  0  0  0  0  0  0
    4.6969    2.7573    0.3515 C   0  0  0  0  0  0  0  0  0  0  0  0
    5.6360    3.3551   -0.3844 N   0  0  0  0  0  0  0  0  0  0  0  0
    6.2636    4.3831    0.1819 C   0  0  0  0  0  0  0  0  0  0  0  0
    6.0403    4.8494    1.4085 N   0  0  0  0  0  0  0  0  0  0  0  0
    5.1032    4.2325    2.1534 C   0  0  0  0  0  0  0  0  0  0  0  0
    4.9858    4.5900    3.5200 N   0  0  0  0  0  0  0  0  0  0  0  0
    5.8803    5.4049    4.2653 C   0  0  0  0  0  0  0  0  0  0  0  0
    7.2385    5.5195    3.9486 C   0  0  0  0  0  0  0  0  0  0  0  0
    8.0835    6.3652    4.6706 C   0  0  0  0  0  0  0  0  0  0  0  0
    7.5939    7.0719    5.7649 C   0  0  0  0  0  0  0  0  0  0  0  0
    6.2652    6.9072    6.1512 C   0  0  0  0  0  0  0  0  0  0  0  0
    5.4277    6.0753    5.4109 C   0  0  0  0  0  0  0  0  0  0  0  0
    4.1520    5.9272    5.8004 F   0  0  0  0  0  0  0  0  0  0  0  0
    4.3395    3.1686    1.6401 C   0  0  0  0  0  0  0  0  0  0  0  0
    3.3044    2.4769    2.3183 C   0  0  0  0  0  0  0  0  0  0  0  0
    2.7231    1.3289    1.7708 C   0  0  0  0  0  0  0  0  0  0  0  0
    1.7537    0.7608    2.5617 O   0  0  0  0  0  0  0  0  0  0  0  0
    1.7700   -0.6644    2.5874 C   0  0  0  0  0  0  0  0  0  0  0  0
    0.9010   -1.1870    3.7291 C   0  0  0  0  0  0  0  0  0  0  0  0
    0.9245   -2.7154    3.7152 C   0  0  0  0  0  0  0  0  0  0  0  0
    0.0164   -3.3394    4.7685 C   0  0  0  0  0  0  0  0  0  0  0  0
    0.0710   -4.8650    4.6852 C   0  0  0  0  0  0  0  0  0  0  0  0
   -0.8491   -5.5231    5.6883 C   0  0  0  0  0  0  0  0  0  0  0  0
   -1.5598   -4.9177    6.4870 O   0  0  0  0  0  0  0  0  0  0  0  0
   -0.8332   -6.8979    5.6263 N   0  0  0  0  0  0  0  0  0  0  0  0
   -1.5961   -7.5522    6.6226 O   0  0  0  0  0  0  0  0  0  0  0  0
    3.3197   -2.0898   -0.6481 H   0  0  0  0  0  0  0  0  0  0  0  0
    4.5770   -0.8590   -0.6218 H   0  0  0  0  0  0  0  0  0  0  0  0
    3.3042   -0.8227   -1.8915 H   0  0  0  0  0  0  0  0  0  0  0  0
    4.3817    1.3612   -1.2024 H   0  0  0  0  0  0  0  0  0  0  0  0
    7.0442    4.8673   -0.3930 H   0  0  0  0  0  0  0  0  0  0  0  0
    4.0225    4.7343    3.8035 H   0  0  0  0  0  0  0  0  0  0  0  0
    7.6645    4.9602    3.1217 H   0  0  0  0  0  0  0  0  0  0  0  0
    9.1213    6.4681    4.3653 H   0  0  0  0  0  0  0  0  0  0  0  0
    8.2516    7.7385    6.3155 H   0  0  0  0  0  0  0  0  0  0  0  0
    5.8745    7.4283    7.0213 H   0  0  0  0  0  0  0  0  0  0  0  0
    2.9670    2.8072    3.2990 H   0  0  0  0  0  0  0  0  0  0  0  0
    2.7982   -1.0255    2.7224 H   0  0  0  0  0  0  0  0  0  0  0  0
    1.3467   -1.0588    1.6596 H   0  0  0  0  0  0  0  0  0  0  0  0
   -0.1255   -0.8135    3.6105 H   0  0  0  0  0  0  0  0  0  0  0  0
    1.2588   -0.7960    4.6905 H   0  0  0  0  0  0  0  0  0  0  0  0
    1.9548   -3.0600    3.8709 H   0  0  0  0  0  0  0  0  0  0  0  0
    0.6174   -3.0704    2.7230 H   0  0  0  0  0  0  0  0  0  0  0  0
   -1.0151   -2.9974    4.6179 H   0  0  0  0  0  0  0  0  0  0  0  0
    0.3203   -3.0091    5.7685 H   0  0  0  0  0  0  0  0  0  0  0  0
    1.0935   -5.2144    4.8728 H   0  0  0  0  0  0  0  0  0  0  0  0
   -0.2238   -5.1977    3.6827 H   0  0  0  0  0  0  0  0  0  0  0  0
   -0.0573   -7.4213    5.2365 H   0  0  0  0  0  0  0  0  0  0  0  0
   -2.0048   -6.7973    7.1030 H   0  0  0  0  0  0  0  0  0  0  0  0
  1  2  1  0  0  0  0
  1 31  1  0  0  0  0
  1 32  1  0  0  0  0
  1 33  1  0  0  0  0
  2  3  1  0  0  0  0
  3  4  1  0  0  0  0
  3 20  2  0  0  0  0
  4  5  2  0  0  0  0
  4 34  1  0  0  0  0
  5  6  1  0  0  0  0
  5 18  1  0  0  0  0
  6  7  2  0  0  0  0
  7  8  1  0  0  0  0
  7 35  1  0  0  0  0
  8  9  2  0  0  0  0
  9 10  1  0  0  0  0
  9 18  1  0  0  0  0
 10 11  1  0  0  0  0
 10 36  1  0  0  0  0
 11 12  1  0  0  0  0
 11 16  2  0  0  0  0
 12 13  2  0  0  0  0
 12 37  1  0  0  0  0
 13 14  1  0  0  0  0
 13 38  1  0  0  0  0
 14 15  2  0  0  0  0
 14 39  1  0  0  0  0
 15 16  1  0  0  0  0
 15 40  1  0  0  0  0
 16 17  1  0  0  0  0
 18 19  2  0  0  0  0
 19 20  1  0  0  0  0
 19 41  1  0  0  0  0
 20 21  1  0  0  0  0
 21 22  1  0  0  0  0
 22 23  1  0  0  0  0
 22 42  1  0  0  0  0
 22 43  1  0  0  0  0
 23 24  1  0  0  0  0
 23 44  1  0  0  0  0
 23 45  1  0  0  0  0
 24 25  1  0  0  0  0
 24 46  1  0  0  0  0
 24 47  1  0  0  0  0
 25 26  1  0  0  0  0
 25 48  1  0  0  0  0
 25 49  1  0  0  0  0
 26 27  1  0  0  0  0
 26 50  1  0  0  0  0
 26 51  1  0  0  0  0
 27 28  2  0  0  0  0
 27 29  1  0  0  0  0
 29 30  1  0  0  0  0
 29 52  1  0  0  0  0
 30 53  1  0  0  0  0
M  END
$$$$
