CHEMBL3221551
 OpenBabel04072215363D

 55 56  0  0  0  0  0  0  0  0999 V2000
    6.9372    2.4874   -2.4155 C   0  0  0  0  0  0  0  0  0  0  0  0
    7.4350    1.9332   -1.0816 C   0  0  0  0  0  0  0  0  0  0  0  0
    6.6354    0.6929   -0.6552 C   0  0  0  0  0  0  0  0  0  0  0  0
    7.1603    0.0898    0.6483 C   0  0  0  0  0  0  0  0  0  0  0  0
    7.0877    0.9835    1.6973 O   0  0  0  0  0  0  0  0  0  0  0  0
    6.3971    0.7679    2.8419 C   0  0  0  0  0  0  0  0  0  0  0  0
    5.2399    0.3760    2.7851 O   0  0  0  0  0  0  0  0  0  0  0  0
    7.0078    0.8828    4.0572 N   0  0  0  0  0  0  0  0  0  0  0  0
    8.3898    1.2186    4.2552 C   0  0  0  0  0  0  0  0  0  0  0  0
    9.1690    1.9088    3.3022 C   0  0  0  0  0  0  0  0  0  0  0  0
   10.5228    2.1614    3.5198 C   0  0  0  0  0  0  0  0  0  0  0  0
   11.1551    1.7350    4.7042 C   0  0  0  0  0  0  0  0  0  0  0  0
   12.5503    1.9213    4.9964 N   0  0  0  0  0  0  0  0  0  0  0  0
   13.5771    2.5039    4.1685 C   0  0  0  0  0  0  0  0  0  0  0  0
   13.2697    3.0114    2.9441 N   0  0  0  0  0  0  0  0  0  0  0  0
   14.1969    3.5613    2.1223 C   0  0  0  0  0  0  0  0  0  0  0  0
   15.4908    3.6152    2.5060 N   0  0  0  0  0  0  0  0  0  0  0  0
   15.8842    3.1272    3.7081 C   0  0  0  0  0  0  0  0  0  0  0  0
   17.2318    3.1990    4.0570 C   0  0  0  0  0  0  0  0  0  0  0  0
   17.6897    2.7007    5.2912 C   0  0  0  0  0  0  0  0  0  0  0  0
   19.0034    2.7715    5.6311 O   0  0  0  0  0  0  0  0  0  0  0  0
   20.0165    3.2870    4.8498 C   0  0  0  0  0  0  0  0  0  0  0  0
   16.7561    2.1178    6.1840 C   0  0  0  0  0  0  0  0  0  0  0  0
   17.0834    1.5936    7.3978 O   0  0  0  0  0  0  0  0  0  0  0  0
   18.3306    1.5090    7.9760 C   0  0  0  0  0  0  0  0  0  0  0  0
   15.4051    2.0539    5.8262 C   0  0  0  0  0  0  0  0  0  0  0  0
   14.9404    2.5512    4.5887 C   0  0  0  0  0  0  0  0  0  0  0  0
   10.3665    1.0734    5.6662 C   0  0  0  0  0  0  0  0  0  0  0  0
    9.0093    0.8254    5.4495 C   0  0  0  0  0  0  0  0  0  0  0  0
    0.1070    0.8628    2.4281 Cl  0  0  0  0  0  0  0  0  0  0  0  0
    7.5434    3.3744   -2.6973 H   0  0  0  0  0  0  0  0  0  0  0  0
    5.8730    2.7952   -2.3372 H   0  0  0  0  0  0  0  0  0  0  0  0
    7.0382    1.7240   -3.2169 H   0  0  0  0  0  0  0  0  0  0  0  0
    7.3434    2.7254   -0.3079 H   0  0  0  0  0  0  0  0  0  0  0  0
    8.5081    1.6634   -1.1920 H   0  0  0  0  0  0  0  0  0  0  0  0
    6.7307   -0.0844   -1.4453 H   0  0  0  0  0  0  0  0  0  0  0  0
    5.5608    0.9482   -0.5360 H   0  0  0  0  0  0  0  0  0  0  0  0
    8.2299   -0.1829    0.5156 H   0  0  0  0  0  0  0  0  0  0  0  0
    6.6030   -0.8435    0.8815 H   0  0  0  0  0  0  0  0  0  0  0  0
    6.4621    0.5938    4.8857 H   0  0  0  0  0  0  0  0  0  0  0  0
    8.7661    2.2822    2.3784 H   0  0  0  0  0  0  0  0  0  0  0  0
   11.0250    2.6858    2.7328 H   0  0  0  0  0  0  0  0  0  0  0  0
   12.8283    1.5537    5.9100 H   0  0  0  0  0  0  0  0  0  0  0  0
   13.9042    3.9552    1.1587 H   0  0  0  0  0  0  0  0  0  0  0  0
   17.9190    3.6467    3.3511 H   0  0  0  0  0  0  0  0  0  0  0  0
   20.9736    3.2188    5.4047 H   0  0  0  0  0  0  0  0  0  0  0  0
   19.8165    4.3551    4.6184 H   0  0  0  0  0  0  0  0  0  0  0  0
   20.1067    2.7017    3.9097 H   0  0  0  0  0  0  0  0  0  0  0  0
   18.2360    1.0027    8.9583 H   0  0  0  0  0  0  0  0  0  0  0  0
   18.7465    2.5244    8.1447 H   0  0  0  0  0  0  0  0  0  0  0  0
   19.0078    0.9025    7.3382 H   0  0  0  0  0  0  0  0  0  0  0  0
   14.7529    1.5987    6.5501 H   0  0  0  0  0  0  0  0  0  0  0  0
   10.8103    0.7305    6.5931 H   0  0  0  0  0  0  0  0  0  0  0  0
    8.4468    0.2953    6.2087 H   0  0  0  0  0  0  0  0  0  0  0  0
    0.6872    1.7023    1.5057 H   0  0  0  0  0  0  0  0  0  0  0  0
  1  2  1  0  0  0  0
  1 31  1  0  0  0  0
  1 32  1  0  0  0  0
  1 33  1  0  0  0  0
  2  3  1  0  0  0  0
  2 34  1  0  0  0  0
  2 35  1  0  0  0  0
  3  4  1  0  0  0  0
  3 36  1  0  0  0  0
  3 37  1  0  0  0  0
  4  5  1  0  0  0  0
  4 38  1  0  0  0  0
  4 39  1  0  0  0  0
  5  6  1  0  0  0  0
  6  7  2  0  0  0  0
  6  8  1  0  0  0  0
  8  9  1  0  0  0  0
  8 40  1  0  0  0  0
  9 10  1  0  0  0  0
  9 29  2  0  0  0  0
 10 11  2  0  0  0  0
 10 41  1  0  0  0  0
 11 12  1  0  0  0  0
 11 42  1  0  0  0  0
 12 13  1  0  0  0  0
 12 28  2  0  0  0  0
 13 14  1  0  0  0  0
 13 43  1  0  0  0  0
 14 15  1  0  0  0  0
 14 27  2  0  0  0  0
 15 16  2  0  0  0  0
 16 17  1  0  0  0  0
 16 44  1  0  0  0  0
 17 18  2  0  0  0  0
 18 19  1  0  0  0  0
 18 27  1  0  0  0  0
 19 20  2  0  0  0  0
 19 45  1  0  0  0  0
 20 21  1  0  0  0  0
 20 23  1  0  0  0  0
 21 22  1  0  0  0  0
 22 46  1  0  0  0  0
 22 47  1  0  0  0  0
 22 48  1  0  0  0  0
 23 24  1  0  0  0  0
 23 26  2  0  0  0  0
 24 25  1  0  0  0  0
 25 49  1  0  0  0  0
 25 50  1  0  0  0  0
 25 51  1  0  0  0  0
 26 27  1  0  0  0  0
 26 52  1  0  0  0  0
 28 29  1  0  0  0  0
 28 53  1  0  0  0  0
 29 54  1  0  0  0  0
 30 55  1  0  0  0  0
M  END
$$$$
