CHEMBL3690533
 OpenBabel04072215373D

 49 52  0  0  0  0  0  0  0  0999 V2000
    5.1338    2.4340   -4.2748 C   0  0  0  0  0  0  0  0  0  0  0  0
    4.9526    1.3594   -3.3660 O   0  0  0  0  0  0  0  0  0  0  0  0
    4.3950    1.7461   -2.1674 C   0  0  0  0  0  0  0  0  0  0  0  0
    4.2086    0.7440   -1.2996 N   0  0  0  0  0  0  0  0  0  0  0  0
    3.6472    1.0755   -0.1287 C   0  0  0  0  0  0  0  0  0  0  0  0
    3.2784    2.3533    0.1964 C   0  0  0  0  0  0  0  0  0  0  0  0
    3.5387    3.3304   -0.7508 C   0  0  0  0  0  0  0  0  0  0  0  0
    3.2379    4.7693   -0.5126 C   0  0  0  0  0  0  0  0  0  0  0  0
    2.9196    5.6915   -1.6142 C   0  0  0  0  0  0  0  0  0  0  0  0
    2.7060    6.9953   -1.3691 C   0  0  0  0  0  0  0  0  0  0  0  0
    2.8160    7.4838   -0.0655 N   0  0  0  0  0  0  0  0  0  0  0  0
    2.7066    8.7699    0.4536 C   0  0  0  0  0  0  0  0  0  0  0  0
    2.4633   10.0212   -0.2778 C   0  0  0  0  0  0  0  0  0  0  0  0
    1.7190   11.0303    0.3507 C   0  0  0  0  0  0  0  0  0  0  0  0
    1.4700   12.2370   -0.2927 C   0  0  0  0  0  0  0  0  0  0  0  0
    1.9658   12.4582   -1.5748 C   0  0  0  0  0  0  0  0  0  0  0  0
    2.7440   11.4952   -2.2186 C   0  0  0  0  0  0  0  0  0  0  0  0
    3.3034   11.6900   -3.5056 N   0  0  0  0  0  0  0  0  0  0  0  0
    3.2357   12.8413   -4.2553 C   0  0  0  0  0  0  0  0  0  0  0  0
    2.7029   13.9005   -3.9329 O   0  0  0  0  0  0  0  0  0  0  0  0
    3.8073   12.7100   -5.4999 N   0  0  0  0  0  0  0  0  0  0  0  0
    3.8237   13.8931   -6.3750 C   0  0  0  0  0  0  0  0  0  0  0  0
    4.9170   14.9356   -6.0910 C   0  0  0  0  0  0  0  0  0  0  0  0
    5.7925   14.5164   -5.1496 F   0  0  0  0  0  0  0  0  0  0  0  0
    5.6365   15.1615   -7.2198 F   0  0  0  0  0  0  0  0  0  0  0  0
    4.4090   16.1219   -5.6979 F   0  0  0  0  0  0  0  0  0  0  0  0
    2.9890   10.2792   -1.5586 C   0  0  0  0  0  0  0  0  0  0  0  0
    2.8466    8.5862    1.8236 C   0  0  0  0  0  0  0  0  0  0  0  0
    3.0735    7.2824    2.1566 N   0  0  0  0  0  0  0  0  0  0  0  0
    3.0760    6.6413    1.0126 C   0  0  0  0  0  0  0  0  0  0  0  0
    3.3016    5.2639    0.7468 C   0  0  0  0  0  0  0  0  0  0  0  0
    4.0836    3.0346   -1.9513 N   0  0  0  0  0  0  0  0  0  0  0  0
    5.5812    2.0259   -5.1871 H   0  0  0  0  0  0  0  0  0  0  0  0
    5.8246    3.1834   -3.8742 H   0  0  0  0  0  0  0  0  0  0  0  0
    4.1761    2.8883   -4.5514 H   0  0  0  0  0  0  0  0  0  0  0  0
    3.4999    0.2557    0.5673 H   0  0  0  0  0  0  0  0  0  0  0  0
    2.8093    2.5662    1.1486 H   0  0  0  0  0  0  0  0  0  0  0  0
    2.8554    5.2912   -2.6218 H   0  0  0  0  0  0  0  0  0  0  0  0
    2.4437    7.6840   -2.1577 H   0  0  0  0  0  0  0  0  0  0  0  0
    1.3211   10.8927    1.3537 H   0  0  0  0  0  0  0  0  0  0  0  0
    0.8921   13.0135    0.2020 H   0  0  0  0  0  0  0  0  0  0  0  0
    1.7242   13.4088   -2.0369 H   0  0  0  0  0  0  0  0  0  0  0  0
    3.8132   10.9156   -3.9051 H   0  0  0  0  0  0  0  0  0  0  0  0
    4.5650   12.0504   -5.5987 H   0  0  0  0  0  0  0  0  0  0  0  0
    2.8450   14.3845   -6.3086 H   0  0  0  0  0  0  0  0  0  0  0  0
    3.9229   13.5189   -7.3976 H   0  0  0  0  0  0  0  0  0  0  0  0
    3.6256    9.5414   -2.0366 H   0  0  0  0  0  0  0  0  0  0  0  0
    2.8062    9.3462    2.5950 H   0  0  0  0  0  0  0  0  0  0  0  0
    3.5492    4.6573    1.6103 H   0  0  0  0  0  0  0  0  0  0  0  0
  1  2  1  0  0  0  0
  1 33  1  0  0  0  0
  1 34  1  0  0  0  0
  1 35  1  0  0  0  0
  2  3  1  0  0  0  0
  3  4  1  0  0  0  0
  3 32  2  0  0  0  0
  4  5  2  0  0  0  0
  5  6  1  0  0  0  0
  5 36  1  0  0  0  0
  6  7  2  0  0  0  0
  6 37  1  0  0  0  0
  7  8  1  0  0  0  0
  7 32  1  0  0  0  0
  8  9  1  0  0  0  0
  8 31  2  0  0  0  0
  9 10  2  0  0  0  0
  9 38  1  0  0  0  0
 10 11  1  0  0  0  0
 10 39  1  0  0  0  0
 11 12  1  0  0  0  0
 11 30  1  0  0  0  0
 12 13  1  0  0  0  0
 12 28  2  0  0  0  0
 13 14  1  0  0  0  0
 13 27  2  0  0  0  0
 14 15  2  0  0  0  0
 14 40  1  0  0  0  0
 15 16  1  0  0  0  0
 15 41  1  0  0  0  0
 16 17  2  0  0  0  0
 16 42  1  0  0  0  0
 17 18  1  0  0  0  0
 17 27  1  0  0  0  0
 18 19  1  0  0  0  0
 18 43  1  0  0  0  0
 19 20  2  0  0  0  0
 19 21  1  0  0  0  0
 21 22  1  0  0  0  0
 21 44  1  0  0  0  0
 22 23  1  0  0  0  0
 22 45  1  0  0  0  0
 22 46  1  0  0  0  0
 23 24  1  0  0  0  0
 23 25  1  0  0  0  0
 23 26  1  0  0  0  0
 27 47  1  0  0  0  0
 28 29  1  0  0  0  0
 28 48  1  0  0  0  0
 29 30  2  0  0  0  0
 30 31  1  0  0  0  0
 31 49  1  0  0  0  0
M  END
$$$$
