CHEMBL244095
 OpenBabel04072215363D

 54 57  0  0  0  0  0  0  0  0999 V2000
    6.6606   -5.5366    6.7602 C   0  0  0  0  0  0  0  0  0  0  0  0
    7.3902   -4.6063    7.5606 O   0  0  0  0  0  0  0  0  0  0  0  0
    6.9935   -3.3110    7.4558 C   0  0  0  0  0  0  0  0  0  0  0  0
    6.0073   -2.9230    6.8454 O   0  0  0  0  0  0  0  0  0  0  0  0
    7.9336   -2.5366    8.0678 N   0  0  0  0  0  0  0  0  0  0  0  0
    8.0500   -1.2137    7.7531 C   0  0  0  0  0  0  0  0  0  0  0  0
    9.1996   -0.6415    7.5169 N   0  0  0  0  0  0  0  0  0  0  0  0
    8.8960    0.6428    7.1517 C   0  0  0  0  0  0  0  0  0  0  0  0
    9.7345    1.6448    6.6501 C   0  0  0  0  0  0  0  0  0  0  0  0
    9.1923    2.9105    6.4119 C   0  0  0  0  0  0  0  0  0  0  0  0
    7.8635    3.1955    6.7507 C   0  0  0  0  0  0  0  0  0  0  0  0
    7.3184    4.4615    6.6631 O   0  0  0  0  0  0  0  0  0  0  0  0
    8.1132    5.5570    6.9272 C   0  0  0  0  0  0  0  0  0  0  0  0
    7.8323    6.7082    6.1962 C   0  0  0  0  0  0  0  0  0  0  0  0
    8.6214    7.8537    6.3539 C   0  0  0  0  0  0  0  0  0  0  0  0
    9.7048    7.8686    7.2362 C   0  0  0  0  0  0  0  0  0  0  0  0
   10.5894    8.9664    7.3694 N   0  0  0  0  0  0  0  0  0  0  0  0
   10.4561   10.1982    6.7546 C   0  0  0  0  0  0  0  0  0  0  0  0
    9.4918   10.5523    6.0849 O   0  0  0  0  0  0  0  0  0  0  0  0
   11.5883   10.9887    6.9182 N   0  0  0  0  0  0  0  0  0  0  0  0
   11.6382   12.2873    6.3518 C   0  0  0  0  0  0  0  0  0  0  0  0
   12.7728   12.6736    5.6383 C   0  0  0  0  0  0  0  0  0  0  0  0
   12.8062   13.9195    5.0076 C   0  0  0  0  0  0  0  0  0  0  0  0
   11.7276   14.8005    5.1267 C   0  0  0  0  0  0  0  0  0  0  0  0
   10.5964   14.4350    5.8617 C   0  0  0  0  0  0  0  0  0  0  0  0
    9.2376   15.5577    6.1229 S   0  0  0  0  0  0  0  0  0  0  0  0
    8.6606   15.8478    4.4439 C   0  0  0  0  0  0  0  0  0  0  0  0
    9.3674   15.1931    3.4942 F   0  0  0  0  0  0  0  0  0  0  0  0
    7.3642   15.4772    4.3072 F   0  0  0  0  0  0  0  0  0  0  0  0
    8.7260   17.1695    4.1437 F   0  0  0  0  0  0  0  0  0  0  0  0
   10.5636   13.1785    6.4777 C   0  0  0  0  0  0  0  0  0  0  0  0
    9.9425    6.7289    8.0160 C   0  0  0  0  0  0  0  0  0  0  0  0
    9.1357    5.5883    7.8771 C   0  0  0  0  0  0  0  0  0  0  0  0
    6.9868    2.1775    7.1587 C   0  0  0  0  0  0  0  0  0  0  0  0
    7.5408    0.9035    7.3273 C   0  0  0  0  0  0  0  0  0  0  0  0
    7.0110   -0.3231    7.6515 N   0  0  0  0  0  0  0  0  0  0  0  0
    6.9536   -6.5445    7.0689 H   0  0  0  0  0  0  0  0  0  0  0  0
    6.9324   -5.4069    5.7080 H   0  0  0  0  0  0  0  0  0  0  0  0
    5.5818   -5.4300    6.9015 H   0  0  0  0  0  0  0  0  0  0  0  0
    8.8022   -3.0162    8.2544 H   0  0  0  0  0  0  0  0  0  0  0  0
   10.7775    1.4313    6.4476 H   0  0  0  0  0  0  0  0  0  0  0  0
    9.8365    3.6775    5.9903 H   0  0  0  0  0  0  0  0  0  0  0  0
    7.0078    6.7208    5.4888 H   0  0  0  0  0  0  0  0  0  0  0  0
    8.3629    8.7104    5.7409 H   0  0  0  0  0  0  0  0  0  0  0  0
   11.3273    8.8854    8.0533 H   0  0  0  0  0  0  0  0  0  0  0  0
   12.4582   10.4769    6.9397 H   0  0  0  0  0  0  0  0  0  0  0  0
   13.6112   11.9951    5.5105 H   0  0  0  0  0  0  0  0  0  0  0  0
   13.6699   14.2023    4.4106 H   0  0  0  0  0  0  0  0  0  0  0  0
   11.7852   15.7709    4.6390 H   0  0  0  0  0  0  0  0  0  0  0  0
    9.6927   12.8889    7.0631 H   0  0  0  0  0  0  0  0  0  0  0  0
   10.7620    6.7013    8.7287 H   0  0  0  0  0  0  0  0  0  0  0  0
    9.3386    4.7246    8.5061 H   0  0  0  0  0  0  0  0  0  0  0  0
    5.9374    2.3792    7.3451 H   0  0  0  0  0  0  0  0  0  0  0  0
    6.0370   -0.5436    7.8056 H   0  0  0  0  0  0  0  0  0  0  0  0
  1  2  1  0  0  0  0
  1 37  1  0  0  0  0
  1 38  1  0  0  0  0
  1 39  1  0  0  0  0
  2  3  1  0  0  0  0
  3  4  2  0  0  0  0
  3  5  1  0  0  0  0
  5  6  1  0  0  0  0
  5 40  1  0  0  0  0
  6  7  2  0  0  0  0
  6 36  1  0  0  0  0
  7  8  1  0  0  0  0
  8  9  1  0  0  0  0
  8 35  2  0  0  0  0
  9 10  2  0  0  0  0
  9 41  1  0  0  0  0
 10 11  1  0  0  0  0
 10 42  1  0  0  0  0
 11 12  1  0  0  0  0
 11 34  2  0  0  0  0
 12 13  1  0  0  0  0
 13 14  1  0  0  0  0
 13 33  2  0  0  0  0
 14 15  2  0  0  0  0
 14 43  1  0  0  0  0
 15 16  1  0  0  0  0
 15 44  1  0  0  0  0
 16 17  1  0  0  0  0
 16 32  2  0  0  0  0
 17 18  1  0  0  0  0
 17 45  1  0  0  0  0
 18 19  2  0  0  0  0
 18 20  1  0  0  0  0
 20 21  1  0  0  0  0
 20 46  1  0  0  0  0
 21 22  1  0  0  0  0
 21 31  2  0  0  0  0
 22 23  2  0  0  0  0
 22 47  1  0  0  0  0
 23 24  1  0  0  0  0
 23 48  1  0  0  0  0
 24 25  2  0  0  0  0
 24 49  1  0  0  0  0
 25 26  1  0  0  0  0
 25 31  1  0  0  0  0
 26 27  1  0  0  0  0
 27 28  1  0  0  0  0
 27 29  1  0  0  0  0
 27 30  1  0  0  0  0
 31 50  1  0  0  0  0
 32 33  1  0  0  0  0
 32 51  1  0  0  0  0
 33 52  1  0  0  0  0
 34 35  1  0  0  0  0
 34 53  1  0  0  0  0
 35 36  1  0  0  0  0
 36 54  1  0  0  0  0
M  END
$$$$
