CHEMBL2088112
 OpenBabel04072215363D

 45 48  0  0  0  0  0  0  0  0999 V2000
    3.1309   -0.0910    9.9078 C   0  0  0  0  0  0  0  0  0  0  0  0
    2.2795    0.3108    8.7127 C   0  0  0  0  0  0  0  0  0  0  0  0
    3.0123    0.1330    7.4327 C   0  0  0  0  0  0  0  0  0  0  0  0
    3.1235   -0.9642    6.6116 C   0  0  0  0  0  0  0  0  0  0  0  0
    3.9761   -0.5773    5.5589 C   0  0  0  0  0  0  0  0  0  0  0  0
    4.4203   -1.3618    4.5531 N   0  0  0  0  0  0  0  0  0  0  0  0
    4.4317   -2.7688    4.4517 C   0  0  0  0  0  0  0  0  0  0  0  0
    3.7070   -3.5033    5.3242 N   0  0  0  0  0  0  0  0  0  0  0  0
    3.7557   -4.8357    5.2644 C   0  0  0  0  0  0  0  0  0  0  0  0
    3.0586   -5.4912    6.2591 N   0  0  0  0  0  0  0  0  0  0  0  0
    2.3986   -6.7295    5.8911 C   0  0  0  0  0  0  0  0  0  0  0  0
    1.0504   -6.5906    5.2785 C   0  0  0  0  0  0  0  0  0  0  0  0
    0.4478   -5.6748    4.4520 C   0  0  0  0  0  0  0  0  0  0  0  0
   -0.8585   -6.1873    4.2216 C   0  0  0  0  0  0  0  0  0  0  0  0
   -1.8928   -5.6109    3.3593 C   0  0  0  0  0  0  0  0  0  0  0  0
   -3.1549   -6.1897    3.2438 C   0  0  0  0  0  0  0  0  0  0  0  0
   -4.0762   -5.6222    2.3659 C   0  0  0  0  0  0  0  0  0  0  0  0
   -3.7164   -4.4971    1.6343 C   0  0  0  0  0  0  0  0  0  0  0  0
   -2.4473   -3.9757    1.8179 C   0  0  0  0  0  0  0  0  0  0  0  0
   -1.5317   -4.5026    2.6598 N   0  0  0  0  0  0  0  0  0  0  0  0
   -1.0301   -7.3340    4.9034 N   0  0  0  0  0  0  0  0  0  0  0  0
    0.1624   -7.5831    5.5526 O   0  0  0  0  0  0  0  0  0  0  0  0
    4.4620   -5.5085    4.3541 N   0  0  0  0  0  0  0  0  0  0  0  0
    5.1816   -4.7690    3.4857 C   0  0  0  0  0  0  0  0  0  0  0  0
    5.2058   -3.3929    3.4872 C   0  0  0  0  0  0  0  0  0  0  0  0
    6.2965   -2.4594    2.2615 Br  0  0  0  0  0  0  0  0  0  0  0  0
    4.3327    0.7076    5.6792 N   0  0  0  0  0  0  0  0  0  0  0  0
    3.7567    1.1043    6.8308 N   0  0  0  0  0  0  0  0  0  0  0  0
    2.5406   -0.0349   10.8280 H   0  0  0  0  0  0  0  0  0  0  0  0
    3.9960    0.5712   10.0165 H   0  0  0  0  0  0  0  0  0  0  0  0
    3.5042   -1.1167    9.8082 H   0  0  0  0  0  0  0  0  0  0  0  0
    1.9457    1.3475    8.8235 H   0  0  0  0  0  0  0  0  0  0  0  0
    1.3776   -0.3138    8.6952 H   0  0  0  0  0  0  0  0  0  0  0  0
    2.6609   -1.9240    6.7813 H   0  0  0  0  0  0  0  0  0  0  0  0
    5.0321   -0.9035    3.8883 H   0  0  0  0  0  0  0  0  0  0  0  0
    2.4602   -4.8083    6.7094 H   0  0  0  0  0  0  0  0  0  0  0  0
    2.2832   -7.3026    6.8200 H   0  0  0  0  0  0  0  0  0  0  0  0
    3.0285   -7.3554    5.2471 H   0  0  0  0  0  0  0  0  0  0  0  0
    0.8780   -4.7716    4.0440 H   0  0  0  0  0  0  0  0  0  0  0  0
   -3.4212   -7.0732    3.8159 H   0  0  0  0  0  0  0  0  0  0  0  0
   -5.0634   -6.0609    2.2502 H   0  0  0  0  0  0  0  0  0  0  0  0
   -4.4074   -4.0381    0.9359 H   0  0  0  0  0  0  0  0  0  0  0  0
   -2.1200   -3.0953    1.2718 H   0  0  0  0  0  0  0  0  0  0  0  0
    5.7715   -5.3467    2.7802 H   0  0  0  0  0  0  0  0  0  0  0  0
    3.9248    2.0520    7.1472 H   0  0  0  0  0  0  0  0  0  0  0  0
  1  2  1  0  0  0  0
  1 29  1  0  0  0  0
  1 30  1  0  0  0  0
  1 31  1  0  0  0  0
  2  3  1  0  0  0  0
  2 32  1  0  0  0  0
  2 33  1  0  0  0  0
  3  4  2  0  0  0  0
  3 28  1  0  0  0  0
  4  5  1  0  0  0  0
  4 34  1  0  0  0  0
  5  6  1  0  0  0  0
  5 27  2  0  0  0  0
  6  7  1  0  0  0  0
  6 35  1  0  0  0  0
  7  8  1  0  0  0  0
  7 25  2  0  0  0  0
  8  9  2  0  0  0  0
  9 10  1  0  0  0  0
  9 23  1  0  0  0  0
 10 11  1  0  0  0  0
 10 36  1  0  0  0  0
 11 12  1  0  0  0  0
 11 37  1  0  0  0  0
 11 38  1  0  0  0  0
 12 13  2  0  0  0  0
 12 22  1  0  0  0  0
 13 14  1  0  0  0  0
 13 39  1  0  0  0  0
 14 15  1  0  0  0  0
 14 21  2  0  0  0  0
 15 16  1  0  0  0  0
 15 20  2  0  0  0  0
 16 17  2  0  0  0  0
 16 40  1  0  0  0  0
 17 18  1  0  0  0  0
 17 41  1  0  0  0  0
 18 19  2  0  0  0  0
 18 42  1  0  0  0  0
 19 20  1  0  0  0  0
 19 43  1  0  0  0  0
 21 22  1  0  0  0  0
 23 24  2  0  0  0  0
 24 25  1  0  0  0  0
 24 44  1  0  0  0  0
 25 26  1  0  0  0  0
 27 28  1  0  0  0  0
 28 45  1  0  0  0  0
M  END
$$$$
