CHEMBL3969824
 OpenBabel04072215373D

 61 63  0  0  0  0  0  0  0  0999 V2000
    2.5048   -0.8504   -1.8513 C   0  0  0  0  0  0  0  0  0  0  0  0
    3.4558   -0.5423   -0.8960 O   0  0  0  0  0  0  0  0  0  0  0  0
    3.5565   -1.1074    0.3369 C   0  0  0  0  0  0  0  0  0  0  0  0
    2.6859   -2.1171    0.7680 C   0  0  0  0  0  0  0  0  0  0  0  0
    2.7892   -2.6279    2.0526 C   0  0  0  0  0  0  0  0  0  0  0  0
    3.7659   -2.1630    2.9381 C   0  0  0  0  0  0  0  0  0  0  0  0
    3.6401   -2.8293    4.5698 Cl  0  0  0  0  0  0  0  0  0  0  0  0
    4.7112   -1.1644    2.5242 C   0  0  0  0  0  0  0  0  0  0  0  0
    5.7361   -0.6410    3.4234 N   0  0  0  0  0  0  0  0  0  0  0  0
    6.1910    0.7605    3.3164 C   0  0  0  0  0  0  0  0  0  0  0  0
    7.7383    0.9273    3.2914 C   0  0  0  0  0  0  0  0  0  0  0  0
    8.4086    0.2564    2.1647 N   0  0  0  0  0  0  0  0  0  0  0  0
    9.8847    0.4334    2.2312 C   0  0  0  0  0  0  0  0  0  0  0  0
   10.5122   -0.3182    3.4249 C   0  0  0  0  0  0  0  0  0  0  0  0
   10.5450   -0.0776    0.9422 C   0  0  0  0  0  0  0  0  0  0  0  0
    6.3294   -1.4654    4.4504 C   0  0  0  0  0  0  0  0  0  0  0  0
    6.7333   -0.9121    5.6912 C   0  0  0  0  0  0  0  0  0  0  0  0
    7.3662   -1.6954    6.6543 C   0  0  0  0  0  0  0  0  0  0  0  0
    7.6063   -3.0428    6.4087 C   0  0  0  0  0  0  0  0  0  0  0  0
    8.2294   -3.8086    7.3376 N   0  0  0  0  0  0  0  0  0  0  0  0
    8.4639   -5.1273    7.1197 C   0  0  0  0  0  0  0  0  0  0  0  0
    8.0512   -5.7178    5.9135 C   0  0  0  0  0  0  0  0  0  0  0  0
    8.2590   -7.1567    5.6538 C   0  0  0  0  0  0  0  0  0  0  0  0
    7.9135   -7.8535    4.5111 C   0  0  0  0  0  0  0  0  0  0  0  0
    8.2523   -9.1494    4.6687 N   0  0  0  0  0  0  0  0  0  0  0  0
    8.7972   -9.2792    5.8703 N   0  0  0  0  0  0  0  0  0  0  0  0
    9.2823  -10.5364    6.4224 C   0  0  0  0  0  0  0  0  0  0  0  0
    8.8221   -8.0933    6.4986 C   0  0  0  0  0  0  0  0  0  0  0  0
    7.4340   -4.9437    4.9758 N   0  0  0  0  0  0  0  0  0  0  0  0
    7.1998   -3.6210    5.1910 C   0  0  0  0  0  0  0  0  0  0  0  0
    6.5754   -2.8360    4.2199 C   0  0  0  0  0  0  0  0  0  0  0  0
    4.5584   -0.6475    1.2074 C   0  0  0  0  0  0  0  0  0  0  0  0
   -0.3148   -0.9015    1.9290 Cl  0  0  0  0  0  0  0  0  0  0  0  0
    2.6515   -0.1949   -2.7329 H   0  0  0  0  0  0  0  0  0  0  0  0
    1.4820   -0.6739   -1.4516 H   0  0  0  0  0  0  0  0  0  0  0  0
    2.6102   -1.9085   -2.1708 H   0  0  0  0  0  0  0  0  0  0  0  0
    1.9024   -2.4976    0.1237 H   0  0  0  0  0  0  0  0  0  0  0  0
    2.0792   -3.3833    2.3720 H   0  0  0  0  0  0  0  0  0  0  0  0
    5.8308    1.3135    4.2079 H   0  0  0  0  0  0  0  0  0  0  0  0
    5.7447    1.3008    2.4646 H   0  0  0  0  0  0  0  0  0  0  0  0
    8.1341    0.5335    4.2359 H   0  0  0  0  0  0  0  0  0  0  0  0
    7.9763    2.0134    3.2811 H   0  0  0  0  0  0  0  0  0  0  0  0
    8.0630    0.7163    1.2886 H   0  0  0  0  0  0  0  0  0  0  0  0
   10.1378    1.5158    2.3194 H   0  0  0  0  0  0  0  0  0  0  0  0
   10.2569   -1.3981    3.3828 H   0  0  0  0  0  0  0  0  0  0  0  0
   10.1907    0.0930    4.4008 H   0  0  0  0  0  0  0  0  0  0  0  0
   11.6182   -0.2102    3.4079 H   0  0  0  0  0  0  0  0  0  0  0  0
   10.3433   -1.1602    0.7986 H   0  0  0  0  0  0  0  0  0  0  0  0
   11.6475    0.0720    0.9945 H   0  0  0  0  0  0  0  0  0  0  0  0
   10.1715    0.4848    0.0617 H   0  0  0  0  0  0  0  0  0  0  0  0
    6.5689    0.1285    5.9260 H   0  0  0  0  0  0  0  0  0  0  0  0
    7.6768   -1.2476    7.5909 H   0  0  0  0  0  0  0  0  0  0  0  0
    8.9630   -5.6994    7.8863 H   0  0  0  0  0  0  0  0  0  0  0  0
    7.4404   -7.4522    3.6246 H   0  0  0  0  0  0  0  0  0  0  0  0
    9.1370  -11.3599    5.6926 H   0  0  0  0  0  0  0  0  0  0  0  0
    8.7231  -10.7747    7.3522 H   0  0  0  0  0  0  0  0  0  0  0  0
   10.3632  -10.4463    6.6596 H   0  0  0  0  0  0  0  0  0  0  0  0
    9.2128   -7.9345    7.4948 H   0  0  0  0  0  0  0  0  0  0  0  0
    6.2909   -3.2901    3.2763 H   0  0  0  0  0  0  0  0  0  0  0  0
    5.2137    0.1174    0.8251 H   0  0  0  0  0  0  0  0  0  0  0  0
    0.8659   -0.2109    2.0816 H   0  0  0  0  0  0  0  0  0  0  0  0
  1  2  1  0  0  0  0
  1 34  1  0  0  0  0
  1 35  1  0  0  0  0
  1 36  1  0  0  0  0
  2  3  1  0  0  0  0
  3  4  1  0  0  0  0
  3 32  2  0  0  0  0
  4  5  2  0  0  0  0
  4 37  1  0  0  0  0
  5  6  1  0  0  0  0
  5 38  1  0  0  0  0
  6  7  1  0  0  0  0
  6  8  2  0  0  0  0
  8  9  1  0  0  0  0
  8 32  1  0  0  0  0
  9 10  1  0  0  0  0
  9 16  1  0  0  0  0
 10 11  1  0  0  0  0
 10 39  1  0  0  0  0
 10 40  1  0  0  0  0
 11 12  1  0  0  0  0
 11 41  1  0  0  0  0
 11 42  1  0  0  0  0
 12 13  1  0  0  0  0
 12 43  1  0  0  0  0
 13 14  1  0  0  0  0
 13 15  1  0  0  0  0
 13 44  1  0  0  0  0
 14 45  1  0  0  0  0
 14 46  1  0  0  0  0
 14 47  1  0  0  0  0
 15 48  1  0  0  0  0
 15 49  1  0  0  0  0
 15 50  1  0  0  0  0
 16 17  1  0  0  0  0
 16 31  2  0  0  0  0
 17 18  2  0  0  0  0
 17 51  1  0  0  0  0
 18 19  1  0  0  0  0
 18 52  1  0  0  0  0
 19 20  1  0  0  0  0
 19 30  2  0  0  0  0
 20 21  2  0  0  0  0
 21 22  1  0  0  0  0
 21 53  1  0  0  0  0
 22 23  1  0  0  0  0
 22 29  2  0  0  0  0
 23 24  1  0  0  0  0
 23 28  2  0  0  0  0
 24 25  2  0  0  0  0
 24 54  1  0  0  0  0
 25 26  1  0  0  0  0
 26 27  1  0  0  0  0
 26 28  1  0  0  0  0
 27 55  1  0  0  0  0
 27 56  1  0  0  0  0
 27 57  1  0  0  0  0
 28 58  1  0  0  0  0
 29 30  1  0  0  0  0
 30 31  1  0  0  0  0
 31 59  1  0  0  0  0
 32 60  1  0  0  0  0
 33 61  1  0  0  0  0
M  END
$$$$
