CHEMBL4225772
 OpenBabel04072215383D

 48 50  0  0  0  0  0  0  0  0999 V2000
    1.6785   -2.5573    0.7352 C   0  0  0  0  0  0  0  0  0  0  0  0
    3.0403   -2.1363    0.9569 N   0  0  0  0  0  0  0  0  0  0  0  0
    3.8490   -1.7964   -0.1053 C   0  0  0  0  0  0  0  0  0  0  0  0
    3.4889   -1.8555   -1.2781 O   0  0  0  0  0  0  0  0  0  0  0  0
    5.1987   -1.2905    0.2251 C   0  0  0  0  0  0  0  0  0  0  0  0
    5.9064   -1.6760    1.3632 C   0  0  0  0  0  0  0  0  0  0  0  0
    7.1635   -1.1161    1.6046 C   0  0  0  0  0  0  0  0  0  0  0  0
    7.6757   -0.1842    0.7037 C   0  0  0  0  0  0  0  0  0  0  0  0
    9.2232    0.6230    1.0714 S   0  0  0  0  0  0  0  0  0  0  0  0
    9.9087    0.8657   -0.5525 C   0  0  0  0  0  0  0  0  0  0  0  0
    9.6433    2.0157   -1.2956 C   0  0  0  0  0  0  0  0  0  0  0  0
   10.2312    2.1989   -2.5582 C   0  0  0  0  0  0  0  0  0  0  0  0
   11.1161    1.2482   -3.0875 C   0  0  0  0  0  0  0  0  0  0  0  0
   11.7216    1.5542   -4.3341 N   0  0  0  0  0  0  0  0  0  0  0  0
   12.7402    0.9372   -5.0672 C   0  0  0  0  0  0  0  0  0  0  0  0
   13.5473   -0.4946   -4.7367 S   0  0  0  0  0  0  0  0  0  0  0  0
   13.1074    1.7842   -6.1267 N   0  0  0  0  0  0  0  0  0  0  0  0
   13.7619    1.4083   -7.3203 C   0  0  0  0  0  0  0  0  0  0  0  0
   14.6793    2.2846   -7.8934 C   0  0  0  0  0  0  0  0  0  0  0  0
   15.3160    1.9411   -9.0890 C   0  0  0  0  0  0  0  0  0  0  0  0
   15.0328    0.7280   -9.7330 C   0  0  0  0  0  0  0  0  0  0  0  0
   15.8545    0.4370  -11.2207 Cl  0  0  0  0  0  0  0  0  0  0  0  0
   14.1135   -0.1639   -9.1766 C   0  0  0  0  0  0  0  0  0  0  0  0
   13.7620   -1.5138   -9.7451 C   0  0  0  0  0  0  0  0  0  0  0  0
   14.3205   -1.8329  -10.9408 F   0  0  0  0  0  0  0  0  0  0  0  0
   14.1126   -2.5252   -8.8989 F   0  0  0  0  0  0  0  0  0  0  0  0
   12.4158   -1.6483   -9.9296 F   0  0  0  0  0  0  0  0  0  0  0  0
   13.4721    0.2066   -7.9740 C   0  0  0  0  0  0  0  0  0  0  0  0
   11.3534    0.0966   -2.3394 C   0  0  0  0  0  0  0  0  0  0  0  0
   10.7662   -0.0920   -1.0854 C   0  0  0  0  0  0  0  0  0  0  0  0
    7.0106    0.1841   -0.4141 N   0  0  0  0  0  0  0  0  0  0  0  0
    5.8011   -0.3867   -0.6388 C   0  0  0  0  0  0  0  0  0  0  0  0
    1.1873   -2.6805    1.7028 H   0  0  0  0  0  0  0  0  0  0  0  0
    1.6825   -3.5065    0.1933 H   0  0  0  0  0  0  0  0  0  0  0  0
    1.1529   -1.8024    0.1429 H   0  0  0  0  0  0  0  0  0  0  0  0
    3.3149   -1.8955    1.8988 H   0  0  0  0  0  0  0  0  0  0  0  0
    5.5089   -2.4127    2.0533 H   0  0  0  0  0  0  0  0  0  0  0  0
    7.7251   -1.4022    2.4888 H   0  0  0  0  0  0  0  0  0  0  0  0
    8.9758    2.7785   -0.8997 H   0  0  0  0  0  0  0  0  0  0  0  0
    9.9974    3.1119   -3.1009 H   0  0  0  0  0  0  0  0  0  0  0  0
   11.3253    2.3602   -4.7979 H   0  0  0  0  0  0  0  0  0  0  0  0
   13.2468    2.7458   -5.8340 H   0  0  0  0  0  0  0  0  0  0  0  0
   14.9394    3.2221   -7.4089 H   0  0  0  0  0  0  0  0  0  0  0  0
   16.0450    2.6275   -9.5162 H   0  0  0  0  0  0  0  0  0  0  0  0
   12.7212   -0.4681   -7.5616 H   0  0  0  0  0  0  0  0  0  0  0  0
   11.9830   -0.7106   -2.6874 H   0  0  0  0  0  0  0  0  0  0  0  0
   10.9973   -1.0010   -0.5337 H   0  0  0  0  0  0  0  0  0  0  0  0
    5.3089   -0.0677   -1.5543 H   0  0  0  0  0  0  0  0  0  0  0  0
  1  2  1  0  0  0  0
  1 33  1  0  0  0  0
  1 34  1  0  0  0  0
  1 35  1  0  0  0  0
  2  3  1  0  0  0  0
  2 36  1  0  0  0  0
  3  4  2  0  0  0  0
  3  5  1  0  0  0  0
  5  6  1  0  0  0  0
  5 32  2  0  0  0  0
  6  7  2  0  0  0  0
  6 37  1  0  0  0  0
  7  8  1  0  0  0  0
  7 38  1  0  0  0  0
  8  9  1  0  0  0  0
  8 31  2  0  0  0  0
  9 10  1  0  0  0  0
 10 11  1  0  0  0  0
 10 30  2  0  0  0  0
 11 12  2  0  0  0  0
 11 39  1  0  0  0  0
 12 13  1  0  0  0  0
 12 40  1  0  0  0  0
 13 14  1  0  0  0  0
 13 29  2  0  0  0  0
 14 15  1  0  0  0  0
 14 41  1  0  0  0  0
 15 16  2  0  0  0  0
 15 17  1  0  0  0  0
 17 18  1  0  0  0  0
 17 42  1  0  0  0  0
 18 19  1  0  0  0  0
 18 28  2  0  0  0  0
 19 20  2  0  0  0  0
 19 43  1  0  0  0  0
 20 21  1  0  0  0  0
 20 44  1  0  0  0  0
 21 22  1  0  0  0  0
 21 23  2  0  0  0  0
 23 24  1  0  0  0  0
 23 28  1  0  0  0  0
 24 25  1  0  0  0  0
 24 26  1  0  0  0  0
 24 27  1  0  0  0  0
 28 45  1  0  0  0  0
 29 30  1  0  0  0  0
 29 46  1  0  0  0  0
 30 47  1  0  0  0  0
 31 32  1  0  0  0  0
 32 48  1  0  0  0  0
M  END
$$$$
