CHEMBL2086729
 OpenBabel04072215363D

 41 45  0  0  0  0  0  0  0  0999 V2000
   -2.9540    0.7855    0.1000 O   0  0  0  0  0  0  0  0  0  0  0  0
   -1.7718    0.5042    0.0844 C   0  0  0  0  0  0  0  0  0  0  0  0
   -0.7309    1.4139    0.0957 N   0  0  0  0  0  0  0  0  0  0  0  0
    0.5028    0.7804    0.0513 C   0  0  0  0  0  0  0  0  0  0  0  0
    1.7332    1.4076    0.0364 C   0  0  0  0  0  0  0  0  0  0  0  0
    2.8672    0.5985   -0.0300 C   0  0  0  0  0  0  0  0  0  0  0  0
    2.7396   -0.7980   -0.0772 C   0  0  0  0  0  0  0  0  0  0  0  0
    1.4778   -1.4087   -0.0502 C   0  0  0  0  0  0  0  0  0  0  0  0
    0.3466   -0.6100    0.0145 C   0  0  0  0  0  0  0  0  0  0  0  0
   -1.1142   -0.8644    0.0416 C   0  0  0  0  0  0  0  0  0  0  0  0
   -1.8122   -2.0251    0.0349 C   0  0  0  0  0  0  0  0  0  0  0  0
   -1.1143   -3.2661    0.0516 C   0  0  0  0  0  0  0  0  0  0  0  0
   -0.7129   -4.0108    1.0617 N   0  0  0  0  0  0  0  0  0  0  0  0
   -0.0916   -5.0988    0.4989 C   0  0  0  0  0  0  0  0  0  0  0  0
    0.5327   -6.1937    1.1139 C   0  0  0  0  0  0  0  0  0  0  0  0
    1.1231   -7.1711    0.3022 C   0  0  0  0  0  0  0  0  0  0  0  0
    1.0890   -7.0615   -1.0908 C   0  0  0  0  0  0  0  0  0  0  0  0
    0.4663   -5.9782   -1.7219 C   0  0  0  0  0  0  0  0  0  0  0  0
   -0.1131   -5.0195   -0.8907 C   0  0  0  0  0  0  0  0  0  0  0  0
   -0.7921   -3.8561   -1.1496 N   0  0  0  0  0  0  0  0  0  0  0  0
   -3.3006   -2.0287    0.0413 C   0  0  0  0  0  0  0  0  0  0  0  0
   -3.9751   -2.0359    1.2735 C   0  0  0  0  0  0  0  0  0  0  0  0
   -5.3712   -2.0402    1.3156 C   0  0  0  0  0  0  0  0  0  0  0  0
   -6.1028   -2.0462    0.1302 C   0  0  0  0  0  0  0  0  0  0  0  0
   -7.8227   -2.0624    0.1857 Cl  0  0  0  0  0  0  0  0  0  0  0  0
   -5.4526   -2.0467   -1.1015 C   0  0  0  0  0  0  0  0  0  0  0  0
   -4.0563   -2.0377   -1.1457 C   0  0  0  0  0  0  0  0  0  0  0  0
   -3.3016   -2.0485   -2.7047 Cl  0  0  0  0  0  0  0  0  0  0  0  0
   -0.8826    2.4099    0.1265 H   0  0  0  0  0  0  0  0  0  0  0  0
    1.8246    2.4874    0.0727 H   0  0  0  0  0  0  0  0  0  0  0  0
    3.8569    1.0495   -0.0421 H   0  0  0  0  0  0  0  0  0  0  0  0
    3.6328   -1.4175   -0.1286 H   0  0  0  0  0  0  0  0  0  0  0  0
    1.4277   -2.4908   -0.0714 H   0  0  0  0  0  0  0  0  0  0  0  0
    0.5574   -6.2696    2.1941 H   0  0  0  0  0  0  0  0  0  0  0  0
    1.6121   -8.0250    0.7652 H   0  0  0  0  0  0  0  0  0  0  0  0
    1.5572   -7.8348   -1.6972 H   0  0  0  0  0  0  0  0  0  0  0  0
    0.4413   -5.8955   -2.8039 H   0  0  0  0  0  0  0  0  0  0  0  0
   -0.9995   -3.4766   -2.0635 H   0  0  0  0  0  0  0  0  0  0  0  0
   -3.4139   -2.0300    2.2062 H   0  0  0  0  0  0  0  0  0  0  0  0
   -5.8813   -2.0344    2.2772 H   0  0  0  0  0  0  0  0  0  0  0  0
   -6.0312   -2.0521   -2.0214 H   0  0  0  0  0  0  0  0  0  0  0  0
  1  2  2  0  0  0  0
  2  3  1  0  0  0  0
  2 10  1  0  0  0  0
  3  4  1  0  0  0  0
  3 29  1  0  0  0  0
  4  5  1  0  0  0  0
  4  9  2  0  0  0  0
  5  6  2  0  0  0  0
  5 30  1  0  0  0  0
  6  7  1  0  0  0  0
  6 31  1  0  0  0  0
  7  8  2  0  0  0  0
  7 32  1  0  0  0  0
  8  9  1  0  0  0  0
  8 33  1  0  0  0  0
  9 10  1  0  0  0  0
 10 11  2  3  0  0  0
 11 12  1  0  0  0  0
 11 21  1  0  0  0  0
 12 13  2  0  0  0  0
 12 20  1  0  0  0  0
 13 14  1  0  0  0  0
 14 15  1  0  0  0  0
 14 19  2  0  0  0  0
 15 16  2  0  0  0  0
 15 34  1  0  0  0  0
 16 17  1  0  0  0  0
 16 35  1  0  0  0  0
 17 18  2  0  0  0  0
 17 36  1  0  0  0  0
 18 19  1  0  0  0  0
 18 37  1  0  0  0  0
 19 20  1  0  0  0  0
 20 38  1  0  0  0  0
 21 22  1  0  0  0  0
 21 27  2  0  0  0  0
 22 23  2  0  0  0  0
 22 39  1  0  0  0  0
 23 24  1  0  0  0  0
 23 40  1  0  0  0  0
 24 25  1  0  0  0  0
 24 26  2  0  0  0  0
 26 27  1  0  0  0  0
 26 41  1  0  0  0  0
 27 28  1  0  0  0  0
M  END
$$$$
