CHEMBL219727
 OpenBabel04072215363D

 46 49  0  0  0  0  0  0  0  0999 V2000
    2.3481   -0.4705    1.5918 C   0  0  0  0  0  0  0  0  0  0  0  0
    0.8540   -0.3385    1.5378 C   0  0  0  0  0  0  0  0  0  0  0  0
    0.2488    0.8618    1.9225 C   0  0  0  0  0  0  0  0  0  0  0  0
   -1.1338    0.9882    1.8808 C   0  0  0  0  0  0  0  0  0  0  0  0
   -1.9212   -0.0741    1.4522 C   0  0  0  0  0  0  0  0  0  0  0  0
   -1.3440   -1.2800    1.0396 C   0  0  0  0  0  0  0  0  0  0  0  0
   -2.1110   -2.3893    0.5932 N   0  0  0  0  0  0  0  0  0  0  0  0
   -3.4657   -2.3570    0.3089 C   0  0  0  0  0  0  0  0  0  0  0  0
   -4.1509   -1.3397    0.2956 O   0  0  0  0  0  0  0  0  0  0  0  0
   -3.9888   -3.6270    0.0908 N   0  0  0  0  0  0  0  0  0  0  0  0
   -5.3748   -3.7961   -0.1514 C   0  0  0  0  0  0  0  0  0  0  0  0
   -6.1036   -2.8937   -0.9292 C   0  0  0  0  0  0  0  0  0  0  0  0
   -7.4999   -2.9630   -0.9900 C   0  0  0  0  0  0  0  0  0  0  0  0
   -8.2090   -3.9593   -0.3042 C   0  0  0  0  0  0  0  0  0  0  0  0
   -9.6885   -4.0074   -0.3153 C   0  0  0  0  0  0  0  0  0  0  0  0
  -10.4318   -3.6619   -1.4723 C   0  0  0  0  0  0  0  0  0  0  0  0
  -11.8185   -3.8099   -1.5449 C   0  0  0  0  0  0  0  0  0  0  0  0
  -12.5235   -4.3588   -0.4796 C   0  0  0  0  0  0  0  0  0  0  0  0
  -14.3845   -4.6378   -0.6052 Br  0  0  0  0  0  0  0  0  0  0  0  0
  -11.8087   -4.6670    0.6769 C   0  0  0  0  0  0  0  0  0  0  0  0
  -12.2108   -5.2288    1.8574 N   0  0  0  0  0  0  0  0  0  0  0  0
  -11.2738   -5.2358    2.8111 N   0  0  0  0  0  0  0  0  0  0  0  0
  -10.2045   -4.7311    2.2041 C   0  0  0  0  0  0  0  0  0  0  0  0
   -9.0704   -4.4858    2.8781 N   0  0  0  0  0  0  0  0  0  0  0  0
  -10.4368   -4.4461    0.8174 C   0  0  0  0  0  0  0  0  0  0  0  0
   -7.4398   -4.9338    0.3626 C   0  0  0  0  0  0  0  0  0  0  0  0
   -6.0434   -4.8521    0.4545 C   0  0  0  0  0  0  0  0  0  0  0  0
    0.0493   -1.4104    1.0948 C   0  0  0  0  0  0  0  0  0  0  0  0
    2.8138    0.4426    1.9798 H   0  0  0  0  0  0  0  0  0  0  0  0
    2.7490   -0.6491    0.5898 H   0  0  0  0  0  0  0  0  0  0  0  0
    2.6326   -1.2940    2.2531 H   0  0  0  0  0  0  0  0  0  0  0  0
    0.8464    1.7046    2.2608 H   0  0  0  0  0  0  0  0  0  0  0  0
   -1.6083    1.9200    2.1831 H   0  0  0  0  0  0  0  0  0  0  0  0
   -2.9936    0.0779    1.4572 H   0  0  0  0  0  0  0  0  0  0  0  0
   -1.6059   -3.2149    0.3027 H   0  0  0  0  0  0  0  0  0  0  0  0
   -3.5249   -4.3719    0.5880 H   0  0  0  0  0  0  0  0  0  0  0  0
   -5.5994   -2.0953   -1.4695 H   0  0  0  0  0  0  0  0  0  0  0  0
   -8.0179   -2.1966   -1.5621 H   0  0  0  0  0  0  0  0  0  0  0  0
   -9.9182   -3.2875   -2.3567 H   0  0  0  0  0  0  0  0  0  0  0  0
  -12.3372   -3.5205   -2.4563 H   0  0  0  0  0  0  0  0  0  0  0  0
  -13.1264   -5.6028    2.0782 H   0  0  0  0  0  0  0  0  0  0  0  0
   -9.1489   -4.5078    3.8891 H   0  0  0  0  0  0  0  0  0  0  0  0
   -8.4536   -3.7495    2.5480 H   0  0  0  0  0  0  0  0  0  0  0  0
   -7.9306   -5.7626    0.8715 H   0  0  0  0  0  0  0  0  0  0  0  0
   -5.5178   -5.5805    1.0648 H   0  0  0  0  0  0  0  0  0  0  0  0
    0.5324   -2.3364    0.7963 H   0  0  0  0  0  0  0  0  0  0  0  0
  1  2  1  0  0  0  0
  1 29  1  0  0  0  0
  1 30  1  0  0  0  0
  1 31  1  0  0  0  0
  2  3  1  0  0  0  0
  2 28  2  0  0  0  0
  3  4  2  0  0  0  0
  3 32  1  0  0  0  0
  4  5  1  0  0  0  0
  4 33  1  0  0  0  0
  5  6  2  0  0  0  0
  5 34  1  0  0  0  0
  6  7  1  0  0  0  0
  6 28  1  0  0  0  0
  7  8  1  0  0  0  0
  7 35  1  0  0  0  0
  8  9  2  0  0  0  0
  8 10  1  0  0  0  0
 10 11  1  0  0  0  0
 10 36  1  0  0  0  0
 11 12  1  0  0  0  0
 11 27  2  0  0  0  0
 12 13  2  0  0  0  0
 12 37  1  0  0  0  0
 13 14  1  0  0  0  0
 13 38  1  0  0  0  0
 14 15  1  0  0  0  0
 14 26  2  0  0  0  0
 15 16  1  0  0  0  0
 15 25  2  0  0  0  0
 16 17  2  0  0  0  0
 16 39  1  0  0  0  0
 17 18  1  0  0  0  0
 17 40  1  0  0  0  0
 18 19  1  0  0  0  0
 18 20  2  0  0  0  0
 20 21  1  0  0  0  0
 20 25  1  0  0  0  0
 21 22  1  0  0  0  0
 21 41  1  0  0  0  0
 22 23  2  0  0  0  0
 23 24  1  0  0  0  0
 23 25  1  0  0  0  0
 24 42  1  0  0  0  0
 24 43  1  0  0  0  0
 26 27  1  0  0  0  0
 26 44  1  0  0  0  0
 27 45  1  0  0  0  0
 28 46  1  0  0  0  0
M  END
$$$$
