CHEMBL4172205
 OpenBabel04072215383D

 64 68  0  0  0  0  0  0  0  0999 V2000
    1.1565    0.6371   -0.4373 C   0  0  0  0  0  0  0  0  0  0  0  0
    2.5836    0.6104   -0.4252 O   0  0  0  0  0  0  0  0  0  0  0  0
    3.1183    0.7837    0.8116 C   0  0  0  0  0  0  0  0  0  0  0  0
    2.4873    0.9154    1.8493 O   0  0  0  0  0  0  0  0  0  0  0  0
    4.6042    0.8512    0.7544 C   0  0  0  0  0  0  0  0  0  0  0  0
    5.3345    0.6867   -0.4441 C   0  0  0  0  0  0  0  0  0  0  0  0
    6.7360    0.8144   -0.4653 C   0  0  0  0  0  0  0  0  0  0  0  0
    7.3955    1.1162    0.7167 C   0  0  0  0  0  0  0  0  0  0  0  0
    6.6512    1.2632    1.8957 C   0  0  0  0  0  0  0  0  0  0  0  0
    5.2800    1.1271    1.9454 C   0  0  0  0  0  0  0  0  0  0  0  0
    7.4745    1.5864    2.9684 N   0  0  0  0  0  0  0  0  0  0  0  0
    8.7907    1.6927    2.5747 C   0  0  0  0  0  0  0  0  0  0  0  0
    9.7313    2.0769    3.2442 O   0  0  0  0  0  0  0  0  0  0  0  0
    8.8042    1.3125    1.1125 C   0  0  0  0  0  0  0  0  0  0  0  0
    9.9831    1.1759    0.4637 C   0  0  0  0  0  0  0  0  0  0  0  0
   11.2582    1.2509    1.0410 N   0  0  0  0  0  0  0  0  0  0  0  0
   11.9797    0.0464    1.3358 C   0  0  0  0  0  0  0  0  0  0  0  0
   13.3738    0.0971    1.3584 C   0  0  0  0  0  0  0  0  0  0  0  0
   14.1449   -1.0600    1.5308 C   0  0  0  0  0  0  0  0  0  0  0  0
   13.4766   -2.2802    1.7176 C   0  0  0  0  0  0  0  0  0  0  0  0
   12.0878   -2.3491    1.8544 C   0  0  0  0  0  0  0  0  0  0  0  0
   11.3392   -1.1599    1.6832 C   0  0  0  0  0  0  0  0  0  0  0  0
   11.7506   -3.7136    2.1561 C   0  0  0  0  0  0  0  0  0  0  0  0
   10.3943   -4.2581    2.5020 C   0  0  0  0  0  0  0  0  0  0  0  0
   10.4249   -5.0286    3.7635 N   0  0  0  0  0  0  0  0  0  0  0  0
   10.8128   -4.1993    4.9092 C   0  0  0  0  0  0  0  0  0  0  0  0
    9.1056   -5.6136    4.0157 C   0  0  0  0  0  0  0  0  0  0  0  0
   12.9207   -4.4417    2.0259 C   0  0  0  0  0  0  0  0  0  0  0  0
   13.9490   -3.5729    1.7887 N   0  0  0  0  0  0  0  0  0  0  0  0
   15.3231   -3.9696    1.5792 C   0  0  0  0  0  0  0  0  0  0  0  0
   10.0114    1.0555   -1.0086 C   0  0  0  0  0  0  0  0  0  0  0  0
   10.0700    2.2374   -1.7641 C   0  0  0  0  0  0  0  0  0  0  0  0
   10.1344    2.1876   -3.1598 C   0  0  0  0  0  0  0  0  0  0  0  0
   10.1509    0.9569   -3.8062 C   0  0  0  0  0  0  0  0  0  0  0  0
   10.1008   -0.2236   -3.0654 C   0  0  0  0  0  0  0  0  0  0  0  0
   10.0381   -0.1817   -1.6692 C   0  0  0  0  0  0  0  0  0  0  0  0
    0.8177    0.3218   -1.4275 H   0  0  0  0  0  0  0  0  0  0  0  0
    0.8029    1.6591   -0.2591 H   0  0  0  0  0  0  0  0  0  0  0  0
    0.7334   -0.0489    0.3036 H   0  0  0  0  0  0  0  0  0  0  0  0
    4.8204    0.4678   -1.3802 H   0  0  0  0  0  0  0  0  0  0  0  0
    7.2713    0.6799   -1.3999 H   0  0  0  0  0  0  0  0  0  0  0  0
    4.7389    1.2428    2.8829 H   0  0  0  0  0  0  0  0  0  0  0  0
    7.1646    1.8071    3.9013 H   0  0  0  0  0  0  0  0  0  0  0  0
   11.2185    1.7756    1.9249 H   0  0  0  0  0  0  0  0  0  0  0  0
   13.8789    1.0431    1.1780 H   0  0  0  0  0  0  0  0  0  0  0  0
   15.2274   -1.0086    1.4810 H   0  0  0  0  0  0  0  0  0  0  0  0
   10.2601   -1.2056    1.7738 H   0  0  0  0  0  0  0  0  0  0  0  0
   10.0890   -4.9212    1.6817 H   0  0  0  0  0  0  0  0  0  0  0  0
    9.6550   -3.4506    2.5595 H   0  0  0  0  0  0  0  0  0  0  0  0
   11.8341   -3.8183    4.8078 H   0  0  0  0  0  0  0  0  0  0  0  0
   10.8106   -4.7978    5.8282 H   0  0  0  0  0  0  0  0  0  0  0  0
   10.1365   -3.3493    5.0531 H   0  0  0  0  0  0  0  0  0  0  0  0
    8.8043   -6.2681    3.1906 H   0  0  0  0  0  0  0  0  0  0  0  0
    8.3330   -4.8467    4.1477 H   0  0  0  0  0  0  0  0  0  0  0  0
    9.1254   -6.2367    4.9174 H   0  0  0  0  0  0  0  0  0  0  0  0
   13.0884   -5.5080    2.1134 H   0  0  0  0  0  0  0  0  0  0  0  0
   15.4296   -5.0402    1.7735 H   0  0  0  0  0  0  0  0  0  0  0  0
   15.9605   -3.4061    2.2643 H   0  0  0  0  0  0  0  0  0  0  0  0
   15.5856   -3.7557    0.5394 H   0  0  0  0  0  0  0  0  0  0  0  0
   10.0783    3.2020   -1.2637 H   0  0  0  0  0  0  0  0  0  0  0  0
   10.1980    3.1114   -3.7271 H   0  0  0  0  0  0  0  0  0  0  0  0
   10.2212    0.9145   -4.8909 H   0  0  0  0  0  0  0  0  0  0  0  0
   10.1351   -1.1831   -3.5740 H   0  0  0  0  0  0  0  0  0  0  0  0
   10.0218   -1.1060   -1.1026 H   0  0  0  0  0  0  0  0  0  0  0  0
  1  2  1  0  0  0  0
  1 37  1  0  0  0  0
  1 38  1  0  0  0  0
  1 39  1  0  0  0  0
  2  3  1  0  0  0  0
  3  4  2  0  0  0  0
  3  5  1  0  0  0  0
  5  6  1  0  0  0  0
  5 10  2  0  0  0  0
  6  7  2  0  0  0  0
  6 40  1  0  0  0  0
  7  8  1  0  0  0  0
  7 41  1  0  0  0  0
  8  9  2  0  0  0  0
  8 14  1  0  0  0  0
  9 10  1  0  0  0  0
  9 11  1  0  0  0  0
 10 42  1  0  0  0  0
 11 12  1  0  0  0  0
 11 43  1  0  0  0  0
 12 13  2  0  0  0  0
 12 14  1  0  0  0  0
 14 15  2  0  0  0  0
 15 16  1  0  0  0  0
 15 31  1  0  0  0  0
 16 17  1  0  0  0  0
 16 44  1  0  0  0  0
 17 18  1  0  0  0  0
 17 22  2  0  0  0  0
 18 19  2  0  0  0  0
 18 45  1  0  0  0  0
 19 20  1  0  0  0  0
 19 46  1  0  0  0  0
 20 21  2  0  0  0  0
 20 29  1  0  0  0  0
 21 22  1  0  0  0  0
 21 23  1  0  0  0  0
 22 47  1  0  0  0  0
 23 24  1  0  0  0  0
 23 28  2  0  0  0  0
 24 25  1  0  0  0  0
 24 48  1  0  0  0  0
 24 49  1  0  0  0  0
 25 26  1  0  0  0  0
 25 27  1  0  0  0  0
 26 50  1  0  0  0  0
 26 51  1  0  0  0  0
 26 52  1  0  0  0  0
 27 53  1  0  0  0  0
 27 54  1  0  0  0  0
 27 55  1  0  0  0  0
 28 29  1  0  0  0  0
 28 56  1  0  0  0  0
 29 30  1  0  0  0  0
 30 57  1  0  0  0  0
 30 58  1  0  0  0  0
 30 59  1  0  0  0  0
 31 32  1  0  0  0  0
 31 36  2  0  0  0  0
 32 33  2  0  0  0  0
 32 60  1  0  0  0  0
 33 34  1  0  0  0  0
 33 61  1  0  0  0  0
 34 35  2  0  0  0  0
 34 62  1  0  0  0  0
 35 36  1  0  0  0  0
 35 63  1  0  0  0  0
 36 64  1  0  0  0  0
M  END
$$$$
