CHEMBL3904294
 OpenBabel04072215373D

 72 76  0  0  0  0  0  0  0  0999 V2000
    0.7533   -2.1444    3.8404 C   0  0  0  0  0  0  0  0  0  0  0  0
    2.1333   -1.9473    4.1573 O   0  0  0  0  0  0  0  0  0  0  0  0
    2.9860   -1.6495    3.1201 C   0  0  0  0  0  0  0  0  0  0  0  0
    2.6021   -1.6033    1.7797 C   0  0  0  0  0  0  0  0  0  0  0  0
    3.5235   -1.2209    0.8088 C   0  0  0  0  0  0  0  0  0  0  0  0
    3.2580   -1.0954   -0.5303 O   0  0  0  0  0  0  0  0  0  0  0  0
    1.9659   -1.4936   -0.9783 C   0  0  0  0  0  0  0  0  0  0  0  0
    4.8362   -0.8874    1.1851 C   0  0  0  0  0  0  0  0  0  0  0  0
    5.2710   -0.9248    2.5219 C   0  0  0  0  0  0  0  0  0  0  0  0
    6.5244   -0.3968    2.9389 N   0  0  0  0  0  0  0  0  0  0  0  0
    7.0167    0.8319    2.1811 C   0  0  0  0  0  0  0  0  0  0  0  0
    6.0796    2.0447    1.9457 C   0  0  0  0  0  0  0  0  0  0  0  0
    5.7895    3.0003    3.1159 C   0  0  0  0  0  0  0  0  0  0  0  0
    5.0934    4.2166    2.6501 N   0  0  0  0  0  0  0  0  0  0  0  0
    3.6600    4.2995    2.5029 C   0  0  0  0  0  0  0  0  0  0  0  0
    3.4508    5.5156    1.6189 C   0  0  0  0  0  0  0  0  0  0  0  0
    4.6241    6.4218    1.9627 C   0  0  0  0  0  0  0  0  0  0  0  0
    5.6986    5.4372    2.3686 C   0  0  0  0  0  0  0  0  0  0  0  0
    6.8911    5.6953    2.4640 O   0  0  0  0  0  0  0  0  0  0  0  0
    7.6808   -1.0847    3.4970 C   0  0  0  0  0  0  0  0  0  0  0  0
    8.4409   -0.3217    4.3687 C   0  0  0  0  0  0  0  0  0  0  0  0
    9.7757   -0.6046    4.5864 C   0  0  0  0  0  0  0  0  0  0  0  0
   10.3777   -1.7373    4.1118 C   0  0  0  0  0  0  0  0  0  0  0  0
   11.7016   -1.7481    4.2730 N   0  0  0  0  0  0  0  0  0  0  0  0
   12.3332   -2.9108    4.0770 C   0  0  0  0  0  0  0  0  0  0  0  0
   11.6476   -4.0764    3.8141 C   0  0  0  0  0  0  0  0  0  0  0  0
   12.3590   -5.3026    4.2287 C   0  0  0  0  0  0  0  0  0  0  0  0
   13.0004   -6.3535    3.5278 C   0  0  0  0  0  0  0  0  0  0  0  0
   13.7019   -7.1805    4.3247 N   0  0  0  0  0  0  0  0  0  0  0  0
   13.5326   -6.6656    5.5587 N   0  0  0  0  0  0  0  0  0  0  0  0
   13.8500   -7.4388    6.7646 C   0  0  0  0  0  0  0  0  0  0  0  0
   12.8014   -8.5364    6.9599 C   0  0  0  0  0  0  0  0  0  0  0  0
   15.2573   -8.0453    6.8305 C   0  0  0  0  0  0  0  0  0  0  0  0
   12.8472   -5.4750    5.5235 C   0  0  0  0  0  0  0  0  0  0  0  0
   10.2988   -4.0304    3.4712 N   0  0  0  0  0  0  0  0  0  0  0  0
    9.6093   -2.7903    3.5590 C   0  0  0  0  0  0  0  0  0  0  0  0
    8.2313   -2.3827    3.1724 C   0  0  0  0  0  0  0  0  0  0  0  0
    4.3180   -1.3368    3.4775 C   0  0  0  0  0  0  0  0  0  0  0  0
    0.1940   -2.2431    4.7775 H   0  0  0  0  0  0  0  0  0  0  0  0
    0.6115   -3.0702    3.2715 H   0  0  0  0  0  0  0  0  0  0  0  0
    0.3277   -1.2881    3.3029 H   0  0  0  0  0  0  0  0  0  0  0  0
    1.5871   -1.8480    1.4943 H   0  0  0  0  0  0  0  0  0  0  0  0
    1.9398   -1.3883   -2.0672 H   0  0  0  0  0  0  0  0  0  0  0  0
    1.1855   -0.8453   -0.5645 H   0  0  0  0  0  0  0  0  0  0  0  0
    1.7705   -2.5452   -0.7422 H   0  0  0  0  0  0  0  0  0  0  0  0
    5.5119   -0.5587    0.4002 H   0  0  0  0  0  0  0  0  0  0  0  0
    7.3662    0.4850    1.2001 H   0  0  0  0  0  0  0  0  0  0  0  0
    7.9078    1.2596    2.6551 H   0  0  0  0  0  0  0  0  0  0  0  0
    5.1399    1.7544    1.4711 H   0  0  0  0  0  0  0  0  0  0  0  0
    6.6014    2.6592    1.1956 H   0  0  0  0  0  0  0  0  0  0  0  0
    6.7292    3.3209    3.5821 H   0  0  0  0  0  0  0  0  0  0  0  0
    5.1699    2.5279    3.8840 H   0  0  0  0  0  0  0  0  0  0  0  0
    3.2183    4.4461    3.4937 H   0  0  0  0  0  0  0  0  0  0  0  0
    3.2624    3.3875    2.0465 H   0  0  0  0  0  0  0  0  0  0  0  0
    2.4807    5.9975    1.7732 H   0  0  0  0  0  0  0  0  0  0  0  0
    3.5137    5.2290    0.5611 H   0  0  0  0  0  0  0  0  0  0  0  0
    4.3899    7.0791    2.8070 H   0  0  0  0  0  0  0  0  0  0  0  0
    4.9363    7.0195    1.1021 H   0  0  0  0  0  0  0  0  0  0  0  0
    8.0324    0.5988    4.7814 H   0  0  0  0  0  0  0  0  0  0  0  0
   10.3683    0.1239    5.1330 H   0  0  0  0  0  0  0  0  0  0  0  0
   13.4032   -2.8938    4.2623 H   0  0  0  0  0  0  0  0  0  0  0  0
   13.0235   -6.5398    2.4622 H   0  0  0  0  0  0  0  0  0  0  0  0
   13.7667   -6.7376    7.6063 H   0  0  0  0  0  0  0  0  0  0  0  0
   12.7696   -9.2125    6.0986 H   0  0  0  0  0  0  0  0  0  0  0  0
   11.8046   -8.0991    7.0790 H   0  0  0  0  0  0  0  0  0  0  0  0
   13.0127   -9.1357    7.8518 H   0  0  0  0  0  0  0  0  0  0  0  0
   15.4721   -8.6936    5.9757 H   0  0  0  0  0  0  0  0  0  0  0  0
   15.3645   -8.6571    7.7380 H   0  0  0  0  0  0  0  0  0  0  0  0
   16.0281   -7.2697    6.8778 H   0  0  0  0  0  0  0  0  0  0  0  0
   12.7392   -4.8759    6.4180 H   0  0  0  0  0  0  0  0  0  0  0  0
    7.6406   -3.0906    2.5921 H   0  0  0  0  0  0  0  0  0  0  0  0
    4.5845   -1.3420    4.5315 H   0  0  0  0  0  0  0  0  0  0  0  0
  1  2  1  0  0  0  0
  1 39  1  0  0  0  0
  1 40  1  0  0  0  0
  1 41  1  0  0  0  0
  2  3  1  0  0  0  0
  3  4  1  0  0  0  0
  3 38  2  0  0  0  0
  4  5  2  0  0  0  0
  4 42  1  0  0  0  0
  5  6  1  0  0  0  0
  5  8  1  0  0  0  0
  6  7  1  0  0  0  0
  7 43  1  0  0  0  0
  7 44  1  0  0  0  0
  7 45  1  0  0  0  0
  8  9  2  0  0  0  0
  8 46  1  0  0  0  0
  9 10  1  0  0  0  0
  9 38  1  0  0  0  0
 10 11  1  0  0  0  0
 10 20  1  0  0  0  0
 11 12  1  0  0  0  0
 11 47  1  0  0  0  0
 11 48  1  0  0  0  0
 12 13  1  0  0  0  0
 12 49  1  0  0  0  0
 12 50  1  0  0  0  0
 13 14  1  0  0  0  0
 13 51  1  0  0  0  0
 13 52  1  0  0  0  0
 14 15  1  0  0  0  0
 14 18  1  0  0  0  0
 15 16  1  0  0  0  0
 15 53  1  0  0  0  0
 15 54  1  0  0  0  0
 16 17  1  0  0  0  0
 16 55  1  0  0  0  0
 16 56  1  0  0  0  0
 17 18  1  0  0  0  0
 17 57  1  0  0  0  0
 17 58  1  0  0  0  0
 18 19  2  0  0  0  0
 20 21  1  0  0  0  0
 20 37  2  0  0  0  0
 21 22  2  0  0  0  0
 21 59  1  0  0  0  0
 22 23  1  0  0  0  0
 22 60  1  0  0  0  0
 23 24  1  0  0  0  0
 23 36  2  0  0  0  0
 24 25  2  0  0  0  0
 25 26  1  0  0  0  0
 25 61  1  0  0  0  0
 26 27  1  0  0  0  0
 26 35  2  0  0  0  0
 27 28  1  0  0  0  0
 27 34  2  0  0  0  0
 28 29  2  0  0  0  0
 28 62  1  0  0  0  0
 29 30  1  0  0  0  0
 30 31  1  0  0  0  0
 30 34  1  0  0  0  0
 31 32  1  0  0  0  0
 31 33  1  0  0  0  0
 31 63  1  0  0  0  0
 32 64  1  0  0  0  0
 32 65  1  0  0  0  0
 32 66  1  0  0  0  0
 33 67  1  0  0  0  0
 33 68  1  0  0  0  0
 33 69  1  0  0  0  0
 34 70  1  0  0  0  0
 35 36  1  0  0  0  0
 36 37  1  0  0  0  0
 37 71  1  0  0  0  0
 38 72  1  0  0  0  0
M  END
$$$$
