CHEMBL3954671
 OpenBabel04072215373D

 68 72  0  0  1  0  0  0  0  0999 V2000
    0.4550   -0.4742   -4.1306 C   0  0  0  0  0  0  0  0  0  0  0  0
    1.7751   -0.9956   -4.3354 O   0  0  0  0  0  0  0  0  0  0  0  0
    2.7320   -0.6432   -3.4151 C   0  0  0  0  0  0  0  0  0  0  0  0
    2.5091    0.2224   -2.3434 C   0  0  0  0  0  0  0  0  0  0  0  0
    3.5294    0.4733   -1.4307 C   0  0  0  0  0  0  0  0  0  0  0  0
    3.4318    1.2748   -0.3240 O   0  0  0  0  0  0  0  0  0  0  0  0
    2.1955    1.9475   -0.1212 C   0  0  0  0  0  0  0  0  0  0  0  0
    4.7762   -0.1426   -1.5933 C   0  0  0  0  0  0  0  0  0  0  0  0
    5.0477   -1.0172   -2.6564 C   0  0  0  0  0  0  0  0  0  0  0  0
    6.2384   -1.7751   -2.7093 N   0  0  0  0  0  0  0  0  0  0  0  0
    6.8123   -2.2426   -1.3826 C   0  0  0  0  0  0  0  0  0  0  0  0
    5.8808   -3.1892   -0.5585 C   0  0  0  0  0  0  0  0  0  0  0  0
    6.4133   -3.6106    0.7742 N   0  0  0  0  0  0  0  0  0  0  0  0
    7.6409   -4.4372    0.6949 C   0  0  0  0  0  0  0  0  0  0  0  0
    7.1362   -5.8469    0.4587 C   0  0  0  0  0  0  0  0  0  0  0  0
    5.9223   -5.9317    1.3623 C   0  0  0  0  0  0  0  0  0  0  0  0
    5.4920   -4.4735    1.5841 C   0  0  2  0  0  0  0  0  0  0  0  0
    3.9748   -4.2941    1.4194 C   0  0  0  0  0  0  0  0  0  0  0  0
    3.5735   -2.9825    1.8048 O   0  0  0  0  0  0  0  0  0  0  0  0
    7.3076   -1.7436   -3.6894 C   0  0  0  0  0  0  0  0  0  0  0  0
    7.8976   -2.9690   -3.9306 C   0  0  0  0  0  0  0  0  0  0  0  0
    9.2191   -3.0333   -4.3300 C   0  0  0  0  0  0  0  0  0  0  0  0
    9.9200   -1.9046   -4.6533 C   0  0  0  0  0  0  0  0  0  0  0  0
   11.2245   -2.1100   -4.8112 N   0  0  0  0  0  0  0  0  0  0  0  0
   11.9385   -1.0936   -5.2964 C   0  0  0  0  0  0  0  0  0  0  0  0
   11.3436    0.0829   -5.7114 C   0  0  0  0  0  0  0  0  0  0  0  0
   12.1496    0.9003   -6.6116 C   0  0  0  0  0  0  0  0  0  0  0  0
   12.1744    0.9068   -8.0336 C   0  0  0  0  0  0  0  0  0  0  0  0
   13.2179    1.5766   -8.5369 N   0  0  0  0  0  0  0  0  0  0  0  0
   13.8739    1.9970   -7.4429 N   0  0  0  0  0  0  0  0  0  0  0  0
   14.9045    3.0032   -7.5475 C   0  0  0  0  0  0  0  0  0  0  0  0
   13.3731    1.4672   -6.2843 C   0  0  0  0  0  0  0  0  0  0  0  0
   10.0209    0.3503   -5.4333 N   0  0  0  0  0  0  0  0  0  0  0  0
    9.2747   -0.6522   -4.8007 C   0  0  0  0  0  0  0  0  0  0  0  0
    7.9378   -0.5911   -4.2386 C   0  0  0  0  0  0  0  0  0  0  0  0
    4.0039   -1.2400   -3.5772 C   0  0  0  0  0  0  0  0  0  0  0  0
   -0.2006   -0.8806   -4.9073 H   0  0  0  0  0  0  0  0  0  0  0  0
    0.4441    0.6161   -4.2289 H   0  0  0  0  0  0  0  0  0  0  0  0
    0.0448   -0.7837   -3.1635 H   0  0  0  0  0  0  0  0  0  0  0  0
    1.5442    0.6871   -2.2098 H   0  0  0  0  0  0  0  0  0  0  0  0
    2.2902    2.5565    0.7831 H   0  0  0  0  0  0  0  0  0  0  0  0
    1.3778    1.2372    0.0403 H   0  0  0  0  0  0  0  0  0  0  0  0
    1.9741    2.6222   -0.9553 H   0  0  0  0  0  0  0  0  0  0  0  0
    5.5341    0.0619   -0.8435 H   0  0  0  0  0  0  0  0  0  0  0  0
    7.1300   -1.3798   -0.7880 H   0  0  0  0  0  0  0  0  0  0  0  0
    7.7354   -2.8107   -1.5483 H   0  0  0  0  0  0  0  0  0  0  0  0
    5.6151   -4.0629   -1.1652 H   0  0  0  0  0  0  0  0  0  0  0  0
    4.9559   -2.6353   -0.3842 H   0  0  0  0  0  0  0  0  0  0  0  0
    8.1499   -4.3936    1.6654 H   0  0  0  0  0  0  0  0  0  0  0  0
    8.3687   -4.1157   -0.0500 H   0  0  0  0  0  0  0  0  0  0  0  0
    7.8823   -6.6116    0.6962 H   0  0  0  0  0  0  0  0  0  0  0  0
    6.8354   -5.9834   -0.5867 H   0  0  0  0  0  0  0  0  0  0  0  0
    6.2069   -6.3822    2.3225 H   0  0  0  0  0  0  0  0  0  0  0  0
    5.1438   -6.5598    0.9183 H   0  0  0  0  0  0  0  0  0  0  0  0
    5.7172   -4.2214    2.6313 H   0  0  0  0  0  0  0  0  0  0  0  0
    3.6531   -4.4811    0.3900 H   0  0  0  0  0  0  0  0  0  0  0  0
    3.4393   -5.0001    2.0635 H   0  0  0  0  0  0  0  0  0  0  0  0
    4.3368   -2.3965    1.6448 H   0  0  0  0  0  0  0  0  0  0  0  0
    7.3996   -3.8902   -3.6502 H   0  0  0  0  0  0  0  0  0  0  0  0
    9.7292   -3.9880   -4.3368 H   0  0  0  0  0  0  0  0  0  0  0  0
   12.9988   -1.2853   -5.4160 H   0  0  0  0  0  0  0  0  0  0  0  0
   11.4998    0.4148   -8.7235 H   0  0  0  0  0  0  0  0  0  0  0  0
   14.9869    3.3448   -8.5832 H   0  0  0  0  0  0  0  0  0  0  0  0
   15.8562    2.5904   -7.2057 H   0  0  0  0  0  0  0  0  0  0  0  0
   14.6019    3.8412   -6.9132 H   0  0  0  0  0  0  0  0  0  0  0  0
   13.9079    1.5655   -5.3497 H   0  0  0  0  0  0  0  0  0  0  0  0
    7.4514    0.3781   -4.1700 H   0  0  0  0  0  0  0  0  0  0  0  0
    4.1441   -1.9464   -4.3927 H   0  0  0  0  0  0  0  0  0  0  0  0
  1  2  1  0  0  0  0
  1 37  1  0  0  0  0
  1 38  1  0  0  0  0
  1 39  1  0  0  0  0
  2  3  1  0  0  0  0
  3  4  1  0  0  0  0
  3 36  2  0  0  0  0
  4  5  2  0  0  0  0
  4 40  1  0  0  0  0
  5  6  1  0  0  0  0
  5  8  1  0  0  0  0
  6  7  1  0  0  0  0
  7 41  1  0  0  0  0
  7 42  1  0  0  0  0
  7 43  1  0  0  0  0
  8  9  2  0  0  0  0
  8 44  1  0  0  0  0
  9 10  1  0  0  0  0
  9 36  1  0  0  0  0
 10 11  1  0  0  0  0
 10 20  1  0  0  0  0
 11 12  1  0  0  0  0
 11 45  1  0  0  0  0
 11 46  1  0  0  0  0
 12 13  1  0  0  0  0
 12 47  1  0  0  0  0
 12 48  1  0  0  0  0
 13 14  1  0  0  0  0
 13 17  1  0  0  0  0
 14 15  1  0  0  0  0
 14 49  1  0  0  0  0
 14 50  1  0  0  0  0
 15 16  1  0  0  0  0
 15 51  1  0  0  0  0
 15 52  1  0  0  0  0
 16 17  1  0  0  0  0
 16 53  1  0  0  0  0
 16 54  1  0  0  0  0
 17 18  1  0  0  0  0
 17 55  1  1  0  0  0
 18 19  1  0  0  0  0
 18 56  1  0  0  0  0
 18 57  1  0  0  0  0
 19 58  1  0  0  0  0
 20 21  1  0  0  0  0
 20 35  2  0  0  0  0
 21 22  2  0  0  0  0
 21 59  1  0  0  0  0
 22 23  1  0  0  0  0
 22 60  1  0  0  0  0
 23 24  1  0  0  0  0
 23 34  2  0  0  0  0
 24 25  2  0  0  0  0
 25 26  1  0  0  0  0
 25 61  1  0  0  0  0
 26 27  1  0  0  0  0
 26 33  2  0  0  0  0
 27 28  1  0  0  0  0
 27 32  2  0  0  0  0
 28 29  2  0  0  0  0
 28 62  1  0  0  0  0
 29 30  1  0  0  0  0
 30 31  1  0  0  0  0
 30 32  1  0  0  0  0
 31 63  1  0  0  0  0
 31 64  1  0  0  0  0
 31 65  1  0  0  0  0
 32 66  1  0  0  0  0
 33 34  1  0  0  0  0
 34 35  1  0  0  0  0
 35 67  1  0  0  0  0
 36 68  1  0  0  0  0
M  END
$$$$
