CHEMBL425109
 OpenBabel04072215383D

 61 67  0  0  0  0  0  0  0  0999 V2000
    3.4884   -1.3792   -2.0615 C   0  0  0  0  0  0  0  0  0  0  0  0
    3.1185   -2.3508   -0.9466 C   0  0  0  0  0  0  0  0  0  0  0  0
    3.5860   -1.9551    0.4642 C   0  0  0  0  0  0  0  0  0  0  0  0
    5.0282   -1.8498    0.6503 N   0  0  0  0  0  0  0  0  0  0  0  0
    5.7400   -0.6297    0.5615 C   0  0  0  0  0  0  0  0  0  0  0  0
    5.3132    0.7047    0.4014 C   0  0  0  0  0  0  0  0  0  0  0  0
    6.2850    1.7174    0.2414 C   0  0  0  0  0  0  0  0  0  0  0  0
    7.6467    1.4337    0.2580 C   0  0  0  0  0  0  0  0  0  0  0  0
    8.6755    2.3797    0.0997 N   0  0  0  0  0  0  0  0  0  0  0  0
    8.5940    3.7352   -0.1216 C   0  0  0  0  0  0  0  0  0  0  0  0
    7.5415    4.3644   -0.2357 O   0  0  0  0  0  0  0  0  0  0  0  0
    9.8917    4.3794   -0.2057 C   0  0  0  0  0  0  0  0  0  0  0  0
   10.2308    5.7033   -0.4265 C   0  0  0  0  0  0  0  0  0  0  0  0
   11.6405    5.7784   -0.3943 C   0  0  0  0  0  0  0  0  0  0  0  0
   12.0870    4.4980   -0.1593 C   0  0  0  0  0  0  0  0  0  0  0  0
   11.0386    3.6419   -0.0353 O   0  0  0  0  0  0  0  0  0  0  0  0
    8.0546    0.1072    0.4223 C   0  0  0  0  0  0  0  0  0  0  0  0
    7.1111   -0.9278    0.5471 C   0  0  0  0  0  0  0  0  0  0  0  0
    7.1158   -2.3068    0.5567 C   0  0  0  0  0  0  0  0  0  0  0  0
    8.2062   -3.0519    0.0981 C   0  0  0  0  0  0  0  0  0  0  0  0
    7.9031   -4.3497   -0.3734 C   0  0  0  0  0  0  0  0  0  0  0  0
    6.6323   -4.9473   -0.2415 C   0  0  0  0  0  0  0  0  0  0  0  0
    5.8331   -4.3394    0.7886 C   0  0  0  0  0  0  0  0  0  0  0  0
    5.9172   -2.9250    0.7814 C   0  0  0  0  0  0  0  0  0  0  0  0
    5.8854   -5.2042    2.1298 C   0  0  0  0  0  0  0  0  0  0  0  0
    6.9330   -6.3990    2.1178 C   0  0  0  0  0  0  0  0  0  0  0  0
    6.7124   -7.1425    0.8489 C   0  0  0  0  0  0  0  0  0  0  0  0
    6.3446   -8.4140    0.6985 N   0  0  0  0  0  0  0  0  0  0  0  0
    5.8714   -8.4327   -0.5739 N   0  0  0  0  0  0  0  0  0  0  0  0
    5.2411   -9.6257   -1.0847 C   0  0  0  0  0  0  0  0  0  0  0  0
    5.8556   -7.1962   -1.1739 C   0  0  0  0  0  0  0  0  0  0  0  0
    6.5568   -6.3841   -0.3220 C   0  0  0  0  0  0  0  0  0  0  0  0
    9.1410   -4.9448   -0.8042 C   0  0  0  0  0  0  0  0  0  0  0  0
    9.4385   -6.0392   -1.2714 O   0  0  0  0  0  0  0  0  0  0  0  0
   10.1064   -3.9778   -0.5389 N   0  0  0  0  0  0  0  0  0  0  0  0
    9.6192   -2.7149   -0.0445 C   0  0  0  0  0  0  0  0  0  0  0  0
    3.1061   -1.7516   -3.0197 H   0  0  0  0  0  0  0  0  0  0  0  0
    4.5713   -1.2699   -2.1638 H   0  0  0  0  0  0  0  0  0  0  0  0
    3.0481   -0.3907   -1.8957 H   0  0  0  0  0  0  0  0  0  0  0  0
    3.5016   -3.3440   -1.2037 H   0  0  0  0  0  0  0  0  0  0  0  0
    2.0233   -2.4318   -0.9311 H   0  0  0  0  0  0  0  0  0  0  0  0
    3.2245   -2.6932    1.1882 H   0  0  0  0  0  0  0  0  0  0  0  0
    3.1351   -0.9972    0.7467 H   0  0  0  0  0  0  0  0  0  0  0  0
    4.2618    0.9677    0.3590 H   0  0  0  0  0  0  0  0  0  0  0  0
    5.9309    2.7336    0.0908 H   0  0  0  0  0  0  0  0  0  0  0  0
    9.6221    2.0354    0.1500 H   0  0  0  0  0  0  0  0  0  0  0  0
    9.5244    6.5065   -0.5887 H   0  0  0  0  0  0  0  0  0  0  0  0
   12.2579    6.6583   -0.5250 H   0  0  0  0  0  0  0  0  0  0  0  0
   13.0692    4.0613   -0.0519 H   0  0  0  0  0  0  0  0  0  0  0  0
    9.1114   -0.1303    0.4347 H   0  0  0  0  0  0  0  0  0  0  0  0
    4.8880   -5.6303    2.2845 H   0  0  0  0  0  0  0  0  0  0  0  0
    6.1252   -4.5511    2.9767 H   0  0  0  0  0  0  0  0  0  0  0  0
    6.8435   -7.0439    2.9954 H   0  0  0  0  0  0  0  0  0  0  0  0
    7.9580   -5.9950    2.1156 H   0  0  0  0  0  0  0  0  0  0  0  0
    5.4791  -10.4709   -0.4341 H   0  0  0  0  0  0  0  0  0  0  0  0
    5.6161   -9.8134   -2.0935 H   0  0  0  0  0  0  0  0  0  0  0  0
    4.1610   -9.4578   -1.1017 H   0  0  0  0  0  0  0  0  0  0  0  0
    5.3174   -7.0115   -2.0932 H   0  0  0  0  0  0  0  0  0  0  0  0
   11.0793   -4.1932   -0.6952 H   0  0  0  0  0  0  0  0  0  0  0  0
    9.7945   -1.9497   -0.7978 H   0  0  0  0  0  0  0  0  0  0  0  0
   10.0899   -2.4786    0.9139 H   0  0  0  0  0  0  0  0  0  0  0  0
  1  2  1  0  0  0  0
  1 37  1  0  0  0  0
  1 38  1  0  0  0  0
  1 39  1  0  0  0  0
  2  3  1  0  0  0  0
  2 40  1  0  0  0  0
  2 41  1  0  0  0  0
  3  4  1  0  0  0  0
  3 42  1  0  0  0  0
  3 43  1  0  0  0  0
  4  5  1  0  0  0  0
  4 24  1  0  0  0  0
  5  6  1  0  0  0  0
  5 18  2  0  0  0  0
  6  7  2  0  0  0  0
  6 44  1  0  0  0  0
  7  8  1  0  0  0  0
  7 45  1  0  0  0  0
  8  9  1  0  0  0  0
  8 17  2  0  0  0  0
  9 10  1  0  0  0  0
  9 46  1  0  0  0  0
 10 11  2  0  0  0  0
 10 12  1  0  0  0  0
 12 13  2  0  0  0  0
 12 16  1  0  0  0  0
 13 14  1  0  0  0  0
 13 47  1  0  0  0  0
 14 15  2  0  0  0  0
 14 48  1  0  0  0  0
 15 16  1  0  0  0  0
 15 49  1  0  0  0  0
 17 18  1  0  0  0  0
 17 50  1  0  0  0  0
 18 19  1  0  0  0  0
 19 20  1  0  0  0  0
 19 24  2  0  0  0  0
 20 21  2  0  0  0  0
 20 36  1  0  0  0  0
 21 22  1  0  0  0  0
 21 33  1  0  0  0  0
 22 23  2  0  0  0  0
 22 32  1  0  0  0  0
 23 24  1  0  0  0  0
 23 25  1  0  0  0  0
 25 26  1  0  0  0  0
 25 51  1  0  0  0  0
 25 52  1  0  0  0  0
 26 27  1  0  0  0  0
 26 53  1  0  0  0  0
 26 54  1  0  0  0  0
 27 28  2  0  0  0  0
 27 32  1  0  0  0  0
 28 29  1  0  0  0  0
 29 30  1  0  0  0  0
 29 31  1  0  0  0  0
 30 55  1  0  0  0  0
 30 56  1  0  0  0  0
 30 57  1  0  0  0  0
 31 32  2  0  0  0  0
 31 58  1  0  0  0  0
 33 34  2  0  0  0  0
 33 35  1  0  0  0  0
 35 36  1  0  0  0  0
 35 59  1  0  0  0  0
 36 60  1  0  0  0  0
 36 61  1  0  0  0  0
M  END
$$$$
