CHEMBL1999428
 OpenBabel04072215363D

 41 43  0  0  1  0  0  0  0  0999 V2000
    1.0387   -0.2666   -0.7687 C   0  0  0  0  0  0  0  0  0  0  0  0
    2.3708   -0.0486   -0.0453 C   0  0  3  0  0  0  0  0  0  0  0  0
    2.9155   -1.3008    0.4572 N   0  0  0  0  0  0  0  0  0  0  0  0
    2.4958   -1.8230    1.6631 C   0  0  0  0  0  0  0  0  0  0  0  0
    1.6629   -1.2708    2.3746 O   0  0  0  0  0  0  0  0  0  0  0  0
    3.0782   -3.1289    2.0912 C   0  0  0  0  0  0  0  0  0  0  0  0
    4.2841   -3.6229    1.5938 C   0  0  0  0  0  0  0  0  0  0  0  0
    4.7879   -4.8485    2.0597 C   0  0  0  0  0  0  0  0  0  0  0  0
    4.1220   -5.6055    3.0439 C   0  0  0  0  0  0  0  0  0  0  0  0
    4.6733   -6.8905    3.5421 C   0  0  0  0  0  0  0  0  0  0  0  0
    6.0555   -7.1105    3.6401 C   0  0  0  0  0  0  0  0  0  0  0  0
    6.5267   -8.3344    4.0957 C   0  0  0  0  0  0  0  0  0  0  0  0
    5.7295   -9.3519    4.4735 N   0  0  0  0  0  0  0  0  0  0  0  0
    4.4029   -9.1332    4.3910 C   0  0  0  0  0  0  0  0  0  0  0  0
    3.8402   -7.9473    3.9381 C   0  0  0  0  0  0  0  0  0  0  0  0
    2.9157   -5.0804    3.5382 C   0  0  0  0  0  0  0  0  0  0  0  0
    2.3996   -3.8650    3.0688 C   0  0  0  0  0  0  0  0  0  0  0  0
    3.3859    0.6608   -0.9230 C   0  0  0  0  0  0  0  0  0  0  0  0
    3.9580    1.8642   -0.4796 C   0  0  0  0  0  0  0  0  0  0  0  0
    4.8742    2.5561   -1.2734 C   0  0  0  0  0  0  0  0  0  0  0  0
    5.2397    2.0501   -2.5180 C   0  0  0  0  0  0  0  0  0  0  0  0
    4.6930    0.8499   -2.9672 C   0  0  0  0  0  0  0  0  0  0  0  0
    3.7735    0.1572   -2.1750 C   0  0  0  0  0  0  0  0  0  0  0  0
    0.2974   -0.7149   -0.0982 H   0  0  0  0  0  0  0  0  0  0  0  0
    1.1424   -0.9363   -1.6296 H   0  0  0  0  0  0  0  0  0  0  0  0
    0.6327    0.6848   -1.1310 H   0  0  0  0  0  0  0  0  0  0  0  0
    2.1575    0.5869    0.8235 H   0  0  0  0  0  0  0  0  0  0  0  0
    3.4788   -1.8531   -0.1713 H   0  0  0  0  0  0  0  0  0  0  0  0
    4.8707   -3.0685    0.8690 H   0  0  0  0  0  0  0  0  0  0  0  0
    5.7239   -5.2063    1.6336 H   0  0  0  0  0  0  0  0  0  0  0  0
    6.7749   -6.3416    3.3790 H   0  0  0  0  0  0  0  0  0  0  0  0
    7.5929   -8.5292    4.1707 H   0  0  0  0  0  0  0  0  0  0  0  0
    3.7769   -9.9636    4.7053 H   0  0  0  0  0  0  0  0  0  0  0  0
    2.7591   -7.8698    3.8901 H   0  0  0  0  0  0  0  0  0  0  0  0
    2.3606   -5.5993    4.3172 H   0  0  0  0  0  0  0  0  0  0  0  0
    1.4639   -3.4906    3.4814 H   0  0  0  0  0  0  0  0  0  0  0  0
    3.6840    2.2778    0.4894 H   0  0  0  0  0  0  0  0  0  0  0  0
    5.2971    3.4931   -0.9205 H   0  0  0  0  0  0  0  0  0  0  0  0
    5.9484    2.5927   -3.1380 H   0  0  0  0  0  0  0  0  0  0  0  0
    4.9779    0.4566   -3.9397 H   0  0  0  0  0  0  0  0  0  0  0  0
    3.3548   -0.7725   -2.5520 H   0  0  0  0  0  0  0  0  0  0  0  0
  1  2  1  0  0  0  0
  1 24  1  0  0  0  0
  1 25  1  0  0  0  0
  1 26  1  0  0  0  0
  2  3  1  0  0  0  0
  2 18  1  0  0  0  0
  2 27  1  0  0  0  0
  3  4  1  0  0  0  0
  3 28  1  0  0  0  0
  4  5  2  0  0  0  0
  4  6  1  0  0  0  0
  6  7  1  0  0  0  0
  6 17  2  0  0  0  0
  7  8  2  0  0  0  0
  7 29  1  0  0  0  0
  8  9  1  0  0  0  0
  8 30  1  0  0  0  0
  9 10  1  0  0  0  0
  9 16  2  0  0  0  0
 10 11  1  0  0  0  0
 10 15  2  0  0  0  0
 11 12  2  0  0  0  0
 11 31  1  0  0  0  0
 12 13  1  0  0  0  0
 12 32  1  0  0  0  0
 13 14  2  0  0  0  0
 14 15  1  0  0  0  0
 14 33  1  0  0  0  0
 15 34  1  0  0  0  0
 16 17  1  0  0  0  0
 16 35  1  0  0  0  0
 17 36  1  0  0  0  0
 18 19  1  0  0  0  0
 18 23  2  0  0  0  0
 19 20  2  0  0  0  0
 19 37  1  0  0  0  0
 20 21  1  0  0  0  0
 20 38  1  0  0  0  0
 21 22  2  0  0  0  0
 21 39  1  0  0  0  0
 22 23  1  0  0  0  0
 22 40  1  0  0  0  0
 23 41  1  0  0  0  0
M  END
$$$$
