CHEMBL3896044
 OpenBabel04072215373D

 51 55  0  0  0  0  0  0  0  0999 V2000
    1.0775   -0.4702   -0.0748 C   0  0  0  0  0  0  0  0  0  0  0  0
    2.4786   -0.2449   -0.0385 O   0  0  0  0  0  0  0  0  0  0  0  0
    3.0534    0.1855    1.1216 C   0  0  0  0  0  0  0  0  0  0  0  0
    4.2198    0.9303    0.8918 C   0  0  0  0  0  0  0  0  0  0  0  0
    4.9856    1.4617    1.9582 C   0  0  0  0  0  0  0  0  0  0  0  0
    6.1278    2.2644    1.8385 C   0  0  0  0  0  0  0  0  0  0  0  0
    6.5913    2.6561    0.5524 N   0  0  0  0  0  0  0  0  0  0  0  0
    7.8894    3.1710    0.3295 C   0  0  0  0  0  0  0  0  0  0  0  0
    9.0039    2.5000    0.8483 C   0  0  0  0  0  0  0  0  0  0  0  0
   10.2860    3.0314    0.7211 C   0  0  0  0  0  0  0  0  0  0  0  0
   10.4698    4.2408    0.0520 C   0  0  0  0  0  0  0  0  0  0  0  0
   12.0747    4.8744   -0.0281 Cl  0  0  0  0  0  0  0  0  0  0  0  0
    9.3682    4.9022   -0.5026 C   0  0  0  0  0  0  0  0  0  0  0  0
    9.5233    6.4080   -1.3404 Cl  0  0  0  0  0  0  0  0  0  0  0  0
    8.0806    4.3632   -0.3739 C   0  0  0  0  0  0  0  0  0  0  0  0
    6.8172    2.6951    2.9174 N   0  0  0  0  0  0  0  0  0  0  0  0
    6.3643    2.3331    4.1155 C   0  0  0  0  0  0  0  0  0  0  0  0
    5.2854    1.5856    4.3434 N   0  0  0  0  0  0  0  0  0  0  0  0
    4.6157    1.1666    3.2680 C   0  0  0  0  0  0  0  0  0  0  0  0
    3.4874    0.3999    3.4817 C   0  0  0  0  0  0  0  0  0  0  0  0
    2.6550   -0.0534    2.4402 C   0  0  0  0  0  0  0  0  0  0  0  0
    1.4815   -0.7279    2.7033 O   0  0  0  0  0  0  0  0  0  0  0  0
    0.9714   -0.4821    4.0241 C   0  0  0  0  0  0  0  0  0  0  0  0
   -0.4729   -0.8414    4.1198 C   0  0  0  0  0  0  0  0  0  0  0  0
   -0.9400   -1.6960    5.0054 N   0  0  0  0  0  0  0  0  0  0  0  0
   -2.3182   -1.6221    5.0633 C   0  0  0  0  0  0  0  0  0  0  0  0
   -3.0540   -2.4331    6.0157 C   0  0  0  0  0  0  0  0  0  0  0  0
   -4.2929   -2.0559    6.5390 C   0  0  0  0  0  0  0  0  0  0  0  0
   -4.9423   -2.8922    7.4463 C   0  0  0  0  0  0  0  0  0  0  0  0
   -4.3274   -4.0804    7.8073 C   0  0  0  0  0  0  0  0  0  0  0  0
   -3.1239   -4.4716    7.3417 N   0  0  0  0  0  0  0  0  0  0  0  0
   -2.5131   -3.6358    6.4647 C   0  0  0  0  0  0  0  0  0  0  0  0
   -2.8872   -0.7413    4.1645 C   0  0  0  0  0  0  0  0  0  0  0  0
   -1.6639    0.0287    3.2390 S   0  0  0  0  0  0  0  0  0  0  0  0
    0.7222   -0.1008   -1.0449 H   0  0  0  0  0  0  0  0  0  0  0  0
    0.5190    0.0708    0.6875 H   0  0  0  0  0  0  0  0  0  0  0  0
    0.8754   -1.5449   -0.0360 H   0  0  0  0  0  0  0  0  0  0  0  0
    4.5323    1.0998   -0.1375 H   0  0  0  0  0  0  0  0  0  0  0  0
    5.8617    3.1763    0.0756 H   0  0  0  0  0  0  0  0  0  0  0  0
    8.8704    1.5646    1.3913 H   0  0  0  0  0  0  0  0  0  0  0  0
   11.1270    2.5035    1.1628 H   0  0  0  0  0  0  0  0  0  0  0  0
    7.2282    4.8995   -0.7878 H   0  0  0  0  0  0  0  0  0  0  0  0
    6.9168    2.6788    4.9811 H   0  0  0  0  0  0  0  0  0  0  0  0
    3.2726    0.1728    4.5230 H   0  0  0  0  0  0  0  0  0  0  0  0
    1.0581    0.5794    4.2954 H   0  0  0  0  0  0  0  0  0  0  0  0
    1.5276   -1.0955    4.7441 H   0  0  0  0  0  0  0  0  0  0  0  0
   -4.7565   -1.1122    6.2668 H   0  0  0  0  0  0  0  0  0  0  0  0
   -5.9056   -2.6221    7.8641 H   0  0  0  0  0  0  0  0  0  0  0  0
   -4.7989   -4.7677    8.5033 H   0  0  0  0  0  0  0  0  0  0  0  0
   -1.5407   -3.9778    6.1163 H   0  0  0  0  0  0  0  0  0  0  0  0
   -3.9288   -0.5087    4.0002 H   0  0  0  0  0  0  0  0  0  0  0  0
  1  2  1  0  0  0  0
  1 35  1  0  0  0  0
  1 36  1  0  0  0  0
  1 37  1  0  0  0  0
  2  3  1  0  0  0  0
  3  4  1  0  0  0  0
  3 21  2  0  0  0  0
  4  5  2  0  0  0  0
  4 38  1  0  0  0  0
  5  6  1  0  0  0  0
  5 19  1  0  0  0  0
  6  7  1  0  0  0  0
  6 16  2  0  0  0  0
  7  8  1  0  0  0  0
  7 39  1  0  0  0  0
  8  9  1  0  0  0  0
  8 15  2  0  0  0  0
  9 10  2  0  0  0  0
  9 40  1  0  0  0  0
 10 11  1  0  0  0  0
 10 41  1  0  0  0  0
 11 12  1  0  0  0  0
 11 13  2  0  0  0  0
 13 14  1  0  0  0  0
 13 15  1  0  0  0  0
 15 42  1  0  0  0  0
 16 17  1  0  0  0  0
 17 18  2  0  0  0  0
 17 43  1  0  0  0  0
 18 19  1  0  0  0  0
 19 20  2  0  0  0  0
 20 21  1  0  0  0  0
 20 44  1  0  0  0  0
 21 22  1  0  0  0  0
 22 23  1  0  0  0  0
 23 24  1  0  0  0  0
 23 45  1  0  0  0  0
 23 46  1  0  0  0  0
 24 25  2  0  0  0  0
 24 34  1  0  0  0  0
 25 26  1  0  0  0  0
 26 27  1  0  0  0  0
 26 33  2  0  0  0  0
 27 28  1  0  0  0  0
 27 32  2  0  0  0  0
 28 29  2  0  0  0  0
 28 47  1  0  0  0  0
 29 30  1  0  0  0  0
 29 48  1  0  0  0  0
 30 31  2  0  0  0  0
 30 49  1  0  0  0  0
 31 32  1  0  0  0  0
 32 50  1  0  0  0  0
 33 34  1  0  0  0  0
 33 51  1  0  0  0  0
M  END
$$$$
