CHEMBL219492
 OpenBabel04072215363D

 64 69  0  0  0  0  0  0  0  0999 V2000
    3.5412   -2.8694   -0.6398 C   0  0  0  0  0  0  0  0  0  0  0  0
    3.1914   -1.5957    0.1181 C   0  0  0  0  0  0  0  0  0  0  0  0
    3.6884   -1.5574    1.5736 C   0  0  0  0  0  0  0  0  0  0  0  0
    5.1312   -1.4207    1.7460 N   0  0  0  0  0  0  0  0  0  0  0  0
    5.8197   -0.1878    1.6742 C   0  0  0  0  0  0  0  0  0  0  0  0
    5.3656    1.1442    1.5746 C   0  0  0  0  0  0  0  0  0  0  0  0
    6.3179    2.1817    1.4461 C   0  0  0  0  0  0  0  0  0  0  0  0
    7.6885    1.9286    1.4236 C   0  0  0  0  0  0  0  0  0  0  0  0
    8.6975    2.9069    1.2930 N   0  0  0  0  0  0  0  0  0  0  0  0
    8.5663    4.2588    1.1509 C   0  0  0  0  0  0  0  0  0  0  0  0
    7.5304    4.8974    1.1046 O   0  0  0  0  0  0  0  0  0  0  0  0
    9.8156    4.8136    1.0837 O   0  0  0  0  0  0  0  0  0  0  0  0
    9.8507    6.2506    0.9800 C   0  0  0  0  0  0  0  0  0  0  0  0
    9.6616    6.8733    2.3619 C   0  0  0  0  0  0  0  0  0  0  0  0
   11.1979    6.6665    0.3984 C   0  0  0  0  0  0  0  0  0  0  0  0
    8.1210    0.6017    1.5092 C   0  0  0  0  0  0  0  0  0  0  0  0
    7.1983   -0.4510    1.6244 C   0  0  0  0  0  0  0  0  0  0  0  0
    7.2219   -1.8339    1.6083 C   0  0  0  0  0  0  0  0  0  0  0  0
    8.3322   -2.5616    1.1788 C   0  0  0  0  0  0  0  0  0  0  0  0
    8.0622   -3.8774    0.7569 C   0  0  0  0  0  0  0  0  0  0  0  0
    6.7999   -4.4984    0.8714 C   0  0  0  0  0  0  0  0  0  0  0  0
    5.9837   -3.8892    1.8831 C   0  0  0  0  0  0  0  0  0  0  0  0
    6.0403   -2.4773    1.8573 C   0  0  0  0  0  0  0  0  0  0  0  0
    6.0204   -4.7435    3.2323 C   0  0  0  0  0  0  0  0  0  0  0  0
    7.0716   -5.9377    3.2350 C   0  0  0  0  0  0  0  0  0  0  0  0
    6.8643   -6.6872    1.9666 C   0  0  0  0  0  0  0  0  0  0  0  0
    6.4819   -7.9552    1.8200 N   0  0  0  0  0  0  0  0  0  0  0  0
    6.0084   -7.9716    0.5477 N   0  0  0  0  0  0  0  0  0  0  0  0
    5.3710   -9.1603    0.0353 C   0  0  0  0  0  0  0  0  0  0  0  0
    5.9976   -6.7338   -0.0496 C   0  0  0  0  0  0  0  0  0  0  0  0
    6.7246   -5.9322    0.7911 C   0  0  0  0  0  0  0  0  0  0  0  0
    9.3188   -4.4711    0.3685 C   0  0  0  0  0  0  0  0  0  0  0  0
    9.6443   -5.5804   -0.0130 O   0  0  0  0  0  0  0  0  0  0  0  0
   10.2540   -3.4665    0.5961 N   0  0  0  0  0  0  0  0  0  0  0  0
    9.7391   -2.2014    1.0561 C   0  0  0  0  0  0  0  0  0  0  0  0
    3.0503   -2.8736   -1.6200 H   0  0  0  0  0  0  0  0  0  0  0  0
    3.2047   -3.7584   -0.0973 H   0  0  0  0  0  0  0  0  0  0  0  0
    4.6174   -2.9457   -0.8133 H   0  0  0  0  0  0  0  0  0  0  0  0
    2.0944   -1.5114    0.1265 H   0  0  0  0  0  0  0  0  0  0  0  0
    3.5610   -0.7316   -0.4473 H   0  0  0  0  0  0  0  0  0  0  0  0
    3.3597   -2.4467    2.1221 H   0  0  0  0  0  0  0  0  0  0  0  0
    3.2280   -0.6940    2.0689 H   0  0  0  0  0  0  0  0  0  0  0  0
    4.3069    1.3873    1.5679 H   0  0  0  0  0  0  0  0  0  0  0  0
    5.9429    3.1981    1.3499 H   0  0  0  0  0  0  0  0  0  0  0  0
    9.6596    2.6018    1.3025 H   0  0  0  0  0  0  0  0  0  0  0  0
    9.0656    6.5973    0.2952 H   0  0  0  0  0  0  0  0  0  0  0  0
   10.4476    6.5421    3.0497 H   0  0  0  0  0  0  0  0  0  0  0  0
    8.7088    6.5690    2.8059 H   0  0  0  0  0  0  0  0  0  0  0  0
    9.6819    7.9661    2.3076 H   0  0  0  0  0  0  0  0  0  0  0  0
   12.0273    6.3473    1.0401 H   0  0  0  0  0  0  0  0  0  0  0  0
   11.2549    7.7602    0.2859 H   0  0  0  0  0  0  0  0  0  0  0  0
   11.3570    6.2133   -0.5822 H   0  0  0  0  0  0  0  0  0  0  0  0
    9.1821    0.3850    1.4928 H   0  0  0  0  0  0  0  0  0  0  0  0
    5.0227   -5.1702    3.3827 H   0  0  0  0  0  0  0  0  0  0  0  0
    6.2548   -4.0844    4.0755 H   0  0  0  0  0  0  0  0  0  0  0  0
    6.9757   -6.5789    4.1147 H   0  0  0  0  0  0  0  0  0  0  0  0
    8.0955   -5.5312    3.2400 H   0  0  0  0  0  0  0  0  0  0  0  0
    5.6033  -10.0078    0.6847 H   0  0  0  0  0  0  0  0  0  0  0  0
    5.7467   -9.3484   -0.9732 H   0  0  0  0  0  0  0  0  0  0  0  0
    4.2920   -8.9859    0.0161 H   0  0  0  0  0  0  0  0  0  0  0  0
    5.4440   -6.5409   -0.9579 H   0  0  0  0  0  0  0  0  0  0  0  0
   11.2344   -3.6812    0.4957 H   0  0  0  0  0  0  0  0  0  0  0  0
    9.9114   -1.4504    0.2880 H   0  0  0  0  0  0  0  0  0  0  0  0
   10.1884   -1.9405    2.0163 H   0  0  0  0  0  0  0  0  0  0  0  0
  1  2  1  0  0  0  0
  1 36  1  0  0  0  0
  1 37  1  0  0  0  0
  1 38  1  0  0  0  0
  2  3  1  0  0  0  0
  2 39  1  0  0  0  0
  2 40  1  0  0  0  0
  3  4  1  0  0  0  0
  3 41  1  0  0  0  0
  3 42  1  0  0  0  0
  4  5  1  0  0  0  0
  4 23  1  0  0  0  0
  5  6  1  0  0  0  0
  5 17  2  0  0  0  0
  6  7  2  0  0  0  0
  6 43  1  0  0  0  0
  7  8  1  0  0  0  0
  7 44  1  0  0  0  0
  8  9  1  0  0  0  0
  8 16  2  0  0  0  0
  9 10  1  0  0  0  0
  9 45  1  0  0  0  0
 10 11  2  0  0  0  0
 10 12  1  0  0  0  0
 12 13  1  0  0  0  0
 13 14  1  0  0  0  0
 13 15  1  0  0  0  0
 13 46  1  0  0  0  0
 14 47  1  0  0  0  0
 14 48  1  0  0  0  0
 14 49  1  0  0  0  0
 15 50  1  0  0  0  0
 15 51  1  0  0  0  0
 15 52  1  0  0  0  0
 16 17  1  0  0  0  0
 16 53  1  0  0  0  0
 17 18  1  0  0  0  0
 18 19  1  0  0  0  0
 18 23  2  0  0  0  0
 19 20  2  0  0  0  0
 19 35  1  0  0  0  0
 20 21  1  0  0  0  0
 20 32  1  0  0  0  0
 21 22  2  0  0  0  0
 21 31  1  0  0  0  0
 22 23  1  0  0  0  0
 22 24  1  0  0  0  0
 24 25  1  0  0  0  0
 24 54  1  0  0  0  0
 24 55  1  0  0  0  0
 25 26  1  0  0  0  0
 25 56  1  0  0  0  0
 25 57  1  0  0  0  0
 26 27  2  0  0  0  0
 26 31  1  0  0  0  0
 27 28  1  0  0  0  0
 28 29  1  0  0  0  0
 28 30  1  0  0  0  0
 29 58  1  0  0  0  0
 29 59  1  0  0  0  0
 29 60  1  0  0  0  0
 30 31  2  0  0  0  0
 30 61  1  0  0  0  0
 32 33  2  0  0  0  0
 32 34  1  0  0  0  0
 34 35  1  0  0  0  0
 34 62  1  0  0  0  0
 35 63  1  0  0  0  0
 35 64  1  0  0  0  0
M  END
$$$$
