CHEMBL386051
 OpenBabel04072215373D

 45 48  0  0  0  0  0  0  0  0999 V2000
   -0.3188   -0.1691    1.7784 C   0  0  0  0  0  0  0  0  0  0  0  0
    1.2689   -0.3409    0.9172 S   0  0  0  0  0  0  0  0  0  0  0  0
    2.0967    1.0637    1.6373 C   0  0  0  0  0  0  0  0  0  0  0  0
    2.0147    2.3116    1.0132 C   0  0  0  0  0  0  0  0  0  0  0  0
    2.5976    3.4264    1.6073 C   0  0  0  0  0  0  0  0  0  0  0  0
    3.2330    3.2972    2.8409 C   0  0  0  0  0  0  0  0  0  0  0  0
    3.2940    2.0589    3.4988 C   0  0  0  0  0  0  0  0  0  0  0  0
    3.8345    1.9286    4.7899 N   0  0  0  0  0  0  0  0  0  0  0  0
    3.7899    2.9074    5.7841 C   0  0  0  0  0  0  0  0  0  0  0  0
    4.7948    2.9449    6.6661 N   0  0  0  0  0  0  0  0  0  0  0  0
    4.7660    3.9471    7.5679 C   0  0  0  0  0  0  0  0  0  0  0  0
    3.7725    4.9017    7.6297 C   0  0  0  0  0  0  0  0  0  0  0  0
    3.7622    5.9939    8.5853 C   0  0  0  0  0  0  0  0  0  0  0  0
    2.7728    6.9002    8.5433 C   0  0  0  0  0  0  0  0  0  0  0  0
    2.7518    8.0058    9.5205 C   0  0  0  0  0  0  0  0  0  0  0  0
    3.4244    9.2144    9.2657 C   0  0  0  0  0  0  0  0  0  0  0  0
    4.3580    9.4572    7.8273 Cl  0  0  0  0  0  0  0  0  0  0  0  0
    3.3610   10.2753   10.1763 C   0  0  0  0  0  0  0  0  0  0  0  0
    2.6079   10.1547   11.3421 C   0  0  0  0  0  0  0  0  0  0  0  0
    1.9441    8.9610   11.6157 C   0  0  0  0  0  0  0  0  0  0  0  0
    2.0254    7.8894   10.7197 C   0  0  0  0  0  0  0  0  0  0  0  0
    1.2164    6.4224   11.1611 Cl  0  0  0  0  0  0  0  0  0  0  0  0
    1.6690    6.7943    7.5254 C   0  0  0  0  0  0  0  0  0  0  0  0
    0.8017    7.6650    7.4805 O   0  0  0  0  0  0  0  0  0  0  0  0
    1.6966    5.6926    6.6868 N   0  0  0  0  0  0  0  0  0  0  0  0
    0.6245    5.4732    5.7290 C   0  0  0  0  0  0  0  0  0  0  0  0
    2.7582    4.7558    6.7029 C   0  0  0  0  0  0  0  0  0  0  0  0
    2.7594    3.7682    5.7988 N   0  0  0  0  0  0  0  0  0  0  0  0
    2.7710    0.9330    2.8570 C   0  0  0  0  0  0  0  0  0  0  0  0
   -1.0053   -0.9444    1.4288 H   0  0  0  0  0  0  0  0  0  0  0  0
   -0.7663    0.8081    1.5738 H   0  0  0  0  0  0  0  0  0  0  0  0
   -0.1846   -0.2837    2.8579 H   0  0  0  0  0  0  0  0  0  0  0  0
    1.4833    2.4262    0.0721 H   0  0  0  0  0  0  0  0  0  0  0  0
    2.5353    4.4000    1.1288 H   0  0  0  0  0  0  0  0  0  0  0  0
    3.6636    4.1853    3.2985 H   0  0  0  0  0  0  0  0  0  0  0  0
    4.6918    1.3953    4.8531 H   0  0  0  0  0  0  0  0  0  0  0  0
    5.6082    3.9648    8.2536 H   0  0  0  0  0  0  0  0  0  0  0  0
    4.5616    6.0506    9.3151 H   0  0  0  0  0  0  0  0  0  0  0  0
    3.8863   11.2060    9.9729 H   0  0  0  0  0  0  0  0  0  0  0  0
    2.5341   10.9908   12.0336 H   0  0  0  0  0  0  0  0  0  0  0  0
    1.3563    8.8714   12.5264 H   0  0  0  0  0  0  0  0  0  0  0  0
   -0.1730    6.2138    5.8418 H   0  0  0  0  0  0  0  0  0  0  0  0
    0.1868    4.4819    5.8912 H   0  0  0  0  0  0  0  0  0  0  0  0
    1.0190    5.5436    4.7102 H   0  0  0  0  0  0  0  0  0  0  0  0
    2.8232   -0.0358    3.3471 H   0  0  0  0  0  0  0  0  0  0  0  0
  1  2  1  0  0  0  0
  1 30  1  0  0  0  0
  1 31  1  0  0  0  0
  1 32  1  0  0  0  0
  2  3  1  0  0  0  0
  3  4  1  0  0  0  0
  3 29  2  0  0  0  0
  4  5  2  0  0  0  0
  4 33  1  0  0  0  0
  5  6  1  0  0  0  0
  5 34  1  0  0  0  0
  6  7  2  0  0  0  0
  6 35  1  0  0  0  0
  7  8  1  0  0  0  0
  7 29  1  0  0  0  0
  8  9  1  0  0  0  0
  8 36  1  0  0  0  0
  9 10  1  0  0  0  0
  9 28  2  0  0  0  0
 10 11  2  0  0  0  0
 11 12  1  0  0  0  0
 11 37  1  0  0  0  0
 12 13  1  0  0  0  0
 12 27  2  0  0  0  0
 13 14  2  0  0  0  0
 13 38  1  0  0  0  0
 14 15  1  0  0  0  0
 14 23  1  0  0  0  0
 15 16  1  0  0  0  0
 15 21  2  0  0  0  0
 16 17  1  0  0  0  0
 16 18  2  0  0  0  0
 18 19  1  0  0  0  0
 18 39  1  0  0  0  0
 19 20  2  0  0  0  0
 19 40  1  0  0  0  0
 20 21  1  0  0  0  0
 20 41  1  0  0  0  0
 21 22  1  0  0  0  0
 23 24  2  0  0  0  0
 23 25  1  0  0  0  0
 25 26  1  0  0  0  0
 25 27  1  0  0  0  0
 26 42  1  0  0  0  0
 26 43  1  0  0  0  0
 26 44  1  0  0  0  0
 27 28  1  0  0  0  0
 29 45  1  0  0  0  0
M  END
$$$$
