CHEMBL3702661
 OpenBabel04072215373D

 51 54  0  0  0  0  0  0  0  0999 V2000
    2.4989   -0.0142   -0.0284 C   0  0  0  0  0  0  0  0  0  0  0  0
    0.9908   -0.0626    0.0247 C   0  0  0  0  0  0  0  0  0  0  0  0
    0.2925    1.1656    0.0576 C   0  0  0  0  0  0  0  0  0  0  0  0
   -1.1048    1.2141    0.0519 C   0  0  0  0  0  0  0  0  0  0  0  0
   -1.8208    0.0232    0.0311 C   0  0  0  0  0  0  0  0  0  0  0  0
   -3.3032   -0.0525    0.0980 C   0  0  0  0  0  0  0  0  0  0  0  0
   -3.7758   -1.0320    0.6742 O   0  0  0  0  0  0  0  0  0  0  0  0
   -4.0312    0.9347   -0.5518 N   0  0  0  0  0  0  0  0  0  0  0  0
   -5.4447    0.9589   -0.6328 C   0  0  0  0  0  0  0  0  0  0  0  0
   -6.2687    0.2104    0.2190 C   0  0  0  0  0  0  0  0  0  0  0  0
   -7.6552    0.2037    0.0688 C   0  0  0  0  0  0  0  0  0  0  0  0
   -8.2460    0.9506   -0.9419 C   0  0  0  0  0  0  0  0  0  0  0  0
   -7.4532    1.7259   -1.8001 C   0  0  0  0  0  0  0  0  0  0  0  0
   -8.0947    2.5043   -2.9230 C   0  0  0  0  0  0  0  0  0  0  0  0
   -9.4448    2.3376   -3.0046 F   0  0  0  0  0  0  0  0  0  0  0  0
   -7.8919    3.8462   -2.8128 F   0  0  0  0  0  0  0  0  0  0  0  0
   -7.6046    2.1510   -4.1439 F   0  0  0  0  0  0  0  0  0  0  0  0
   -6.0522    1.7443   -1.6209 C   0  0  0  0  0  0  0  0  0  0  0  0
   -1.1303   -1.2000    0.0142 C   0  0  0  0  0  0  0  0  0  0  0  0
    0.2709   -1.2794   -0.0062 C   0  0  0  0  0  0  0  0  0  0  0  0
    0.9218   -2.5139   -0.1135 N   0  0  0  0  0  0  0  0  0  0  0  0
    0.2102   -3.6228   -0.7828 C   0  0  0  0  0  0  0  0  0  0  0  0
    1.2526   -4.5653   -1.3817 C   0  0  0  0  0  0  0  0  0  0  0  0
    2.3466   -4.8888   -0.3970 C   0  0  0  0  0  0  0  0  0  0  0  0
    3.1583   -5.9237   -0.7110 N   0  0  0  0  0  0  0  0  0  0  0  0
    4.1501   -6.1964    0.1413 C   0  0  0  0  0  0  0  0  0  0  0  0
    4.9887   -7.2462   -0.1680 N   0  0  0  0  0  0  0  0  0  0  0  0
    4.4185   -5.5038    1.2510 N   0  0  0  0  0  0  0  0  0  0  0  0
    3.5942   -4.4774    1.5306 C   0  0  0  0  0  0  0  0  0  0  0  0
    2.5330   -4.1101    0.7342 C   0  0  0  0  0  0  0  0  0  0  0  0
    1.6177   -2.9786    1.0980 C   0  0  0  0  0  0  0  0  0  0  0  0
    2.8642    1.0164   -0.0954 H   0  0  0  0  0  0  0  0  0  0  0  0
    2.8737   -0.5520   -0.9047 H   0  0  0  0  0  0  0  0  0  0  0  0
    2.9445   -0.4301    0.8781 H   0  0  0  0  0  0  0  0  0  0  0  0
    0.8494    2.1007    0.0818 H   0  0  0  0  0  0  0  0  0  0  0  0
   -1.6031    2.1768    0.1021 H   0  0  0  0  0  0  0  0  0  0  0  0
   -3.5260    1.5719   -1.1539 H   0  0  0  0  0  0  0  0  0  0  0  0
   -5.8562   -0.3873    1.0256 H   0  0  0  0  0  0  0  0  0  0  0  0
   -8.2638   -0.4014    0.7368 H   0  0  0  0  0  0  0  0  0  0  0  0
   -9.3284    0.9167   -1.0602 H   0  0  0  0  0  0  0  0  0  0  0  0
   -5.4478    2.3467   -2.2956 H   0  0  0  0  0  0  0  0  0  0  0  0
   -1.7217   -2.1134    0.0239 H   0  0  0  0  0  0  0  0  0  0  0  0
   -0.4395   -3.2697   -1.5928 H   0  0  0  0  0  0  0  0  0  0  0  0
   -0.4201   -4.1622   -0.0604 H   0  0  0  0  0  0  0  0  0  0  0  0
    1.7122   -4.0834   -2.2532 H   0  0  0  0  0  0  0  0  0  0  0  0
    0.7676   -5.4863   -1.7240 H   0  0  0  0  0  0  0  0  0  0  0  0
    4.9879   -7.3955   -1.1668 H   0  0  0  0  0  0  0  0  0  0  0  0
    5.8817   -7.1027    0.2815 H   0  0  0  0  0  0  0  0  0  0  0  0
    3.8288   -3.9417    2.4459 H   0  0  0  0  0  0  0  0  0  0  0  0
    2.2043   -2.1867    1.5672 H   0  0  0  0  0  0  0  0  0  0  0  0
    0.8921   -3.3277    1.8447 H   0  0  0  0  0  0  0  0  0  0  0  0
  1  2  1  0  0  0  0
  1 32  1  0  0  0  0
  1 33  1  0  0  0  0
  1 34  1  0  0  0  0
  2  3  1  0  0  0  0
  2 20  2  0  0  0  0
  3  4  2  0  0  0  0
  3 35  1  0  0  0  0
  4  5  1  0  0  0  0
  4 36  1  0  0  0  0
  5  6  1  0  0  0  0
  5 19  2  0  0  0  0
  6  7  2  0  0  0  0
  6  8  1  0  0  0  0
  8  9  1  0  0  0  0
  8 37  1  0  0  0  0
  9 10  1  0  0  0  0
  9 18  2  0  0  0  0
 10 11  2  0  0  0  0
 10 38  1  0  0  0  0
 11 12  1  0  0  0  0
 11 39  1  0  0  0  0
 12 13  2  0  0  0  0
 12 40  1  0  0  0  0
 13 14  1  0  0  0  0
 13 18  1  0  0  0  0
 14 15  1  0  0  0  0
 14 16  1  0  0  0  0
 14 17  1  0  0  0  0
 18 41  1  0  0  0  0
 19 20  1  0  0  0  0
 19 42  1  0  0  0  0
 20 21  1  0  0  0  0
 21 22  1  0  0  0  0
 21 31  1  0  0  0  0
 22 23  1  0  0  0  0
 22 43  1  0  0  0  0
 22 44  1  0  0  0  0
 23 24  1  0  0  0  0
 23 45  1  0  0  0  0
 23 46  1  0  0  0  0
 24 25  1  0  0  0  0
 24 30  2  0  0  0  0
 25 26  2  0  0  0  0
 26 27  1  0  0  0  0
 26 28  1  0  0  0  0
 27 47  1  0  0  0  0
 27 48  1  0  0  0  0
 28 29  2  0  0  0  0
 29 30  1  0  0  0  0
 29 49  1  0  0  0  0
 30 31  1  0  0  0  0
 31 50  1  0  0  0  0
 31 51  1  0  0  0  0
M  END
$$$$
