CHEMBL206627
 OpenBabel04072215363D

 37 41  0  0  0  0  0  0  0  0999 V2000
    0.8707   -0.0545   -0.0385 C   0  0  0  0  0  0  0  0  0  0  0  0
    2.3096    0.0879   -0.0421 N   0  0  0  0  0  0  0  0  0  0  0  0
    3.1978   -0.9491   -0.0220 C   0  0  0  0  0  0  0  0  0  0  0  0
    4.4695   -0.4512   -0.1957 C   0  0  0  0  0  0  0  0  0  0  0  0
    5.6617   -1.2497   -0.3295 C   0  0  0  0  0  0  0  0  0  0  0  0
    5.7968   -2.4839   -0.8557 C   0  0  0  0  0  0  0  0  0  0  0  0
    4.7632   -3.3556   -1.4839 C   0  0  0  0  0  0  0  0  0  0  0  0
    3.6226   -3.1177   -1.8243 O   0  0  0  0  0  0  0  0  0  0  0  0
    5.4159   -4.5588   -1.6651 N   0  0  0  0  0  0  0  0  0  0  0  0
    6.7492   -4.5420   -1.3813 N   0  0  0  0  0  0  0  0  0  0  0  0
    7.0292   -3.3379   -0.9263 C   0  0  0  0  0  0  0  0  0  0  0  0
    8.3837   -2.9574   -0.5950 C   0  0  0  0  0  0  0  0  0  0  0  0
    8.7489   -1.7698   -0.1562 N   0  0  0  0  0  0  0  0  0  0  0  0
   10.1232   -1.7406    0.0114 C   0  0  0  0  0  0  0  0  0  0  0  0
   10.7939   -2.9011   -0.2994 C   0  0  0  0  0  0  0  0  0  0  0  0
    9.6748   -4.0841   -0.8181 S   0  0  0  0  0  0  0  0  0  0  0  0
    4.3565    0.9881   -0.1360 C   0  0  0  0  0  0  0  0  0  0  0  0
    5.2756    2.0706   -0.1476 C   0  0  0  0  0  0  0  0  0  0  0  0
    4.7534    3.3585   -0.1077 C   0  0  0  0  0  0  0  0  0  0  0  0
    3.4054    3.6063   -0.0690 C   0  0  0  0  0  0  0  0  0  0  0  0
    2.4692    2.5982   -0.0504 C   0  0  0  0  0  0  0  0  0  0  0  0
    2.9790    1.2888   -0.0699 C   0  0  0  0  0  0  0  0  0  0  0  0
    3.1083    4.9340   -0.0470 O   0  0  0  0  0  0  0  0  0  0  0  0
    4.4296    5.5037   -0.0720 C   0  0  0  0  0  0  0  0  0  0  0  0
    5.4801    4.5130   -0.1067 O   0  0  0  0  0  0  0  0  0  0  0  0
    0.6034   -1.1137   -0.0384 H   0  0  0  0  0  0  0  0  0  0  0  0
    0.4774    0.4249   -0.9394 H   0  0  0  0  0  0  0  0  0  0  0  0
    0.4785    0.4306    0.8587 H   0  0  0  0  0  0  0  0  0  0  0  0
    2.8309   -1.9644    0.0627 H   0  0  0  0  0  0  0  0  0  0  0  0
    6.5557   -0.7710    0.0634 H   0  0  0  0  0  0  0  0  0  0  0  0
    4.9886   -5.3633   -2.1091 H   0  0  0  0  0  0  0  0  0  0  0  0
   10.5944   -0.8300    0.3648 H   0  0  0  0  0  0  0  0  0  0  0  0
   11.8540   -3.1069   -0.2513 H   0  0  0  0  0  0  0  0  0  0  0  0
    6.3463    1.9090   -0.1810 H   0  0  0  0  0  0  0  0  0  0  0  0
    1.4083    2.8089   -0.0185 H   0  0  0  0  0  0  0  0  0  0  0  0
    4.5551    6.1268    0.8217 H   0  0  0  0  0  0  0  0  0  0  0  0
    4.5171    6.1442   -0.9579 H   0  0  0  0  0  0  0  0  0  0  0  0
  1  2  1  0  0  0  0
  1 26  1  0  0  0  0
  1 27  1  0  0  0  0
  1 28  1  0  0  0  0
  2  3  1  0  0  0  0
  2 22  1  0  0  0  0
  3  4  2  0  0  0  0
  3 29  1  0  0  0  0
  4  5  1  0  0  0  0
  4 17  1  0  0  0  0
  5  6  2  0  0  0  0
  5 30  1  0  0  0  0
  6  7  1  0  0  0  0
  6 11  1  0  0  0  0
  7  8  2  0  0  0  0
  7  9  1  0  0  0  0
  9 10  1  0  0  0  0
  9 31  1  0  0  0  0
 10 11  2  0  0  0  0
 11 12  1  0  0  0  0
 12 13  2  0  0  0  0
 12 16  1  0  0  0  0
 13 14  1  0  0  0  0
 14 15  2  0  0  0  0
 14 32  1  0  0  0  0
 15 16  1  0  0  0  0
 15 33  1  0  0  0  0
 17 18  1  0  0  0  0
 17 22  2  0  0  0  0
 18 19  2  0  0  0  0
 18 34  1  0  0  0  0
 19 20  1  0  0  0  0
 19 25  1  0  0  0  0
 20 21  2  0  0  0  0
 20 23  1  0  0  0  0
 21 22  1  0  0  0  0
 21 35  1  0  0  0  0
 23 24  1  0  0  0  0
 24 25  1  0  0  0  0
 24 36  1  0  0  0  0
 24 37  1  0  0  0  0
M  END
$$$$
