CHEMBL3959787
 OpenBabel04072215373D

 63 67  0  0  0  0  0  0  0  0999 V2000
    3.0846   -1.0191   -0.0926 C   0  0  0  0  0  0  0  0  0  0  0  0
    2.3199    0.1753   -0.2737 O   0  0  0  0  0  0  0  0  0  0  0  0
    3.0497    1.2297   -0.7593 C   0  0  0  0  0  0  0  0  0  0  0  0
    2.6662    2.4988   -0.3592 C   0  0  0  0  0  0  0  0  0  0  0  0
    3.3750    3.6065   -0.8256 C   0  0  0  0  0  0  0  0  0  0  0  0
    3.0338    4.9112   -0.5604 O   0  0  0  0  0  0  0  0  0  0  0  0
    1.8977    5.1227    0.2797 C   0  0  0  0  0  0  0  0  0  0  0  0
    4.5326    3.4215   -1.6239 C   0  0  0  0  0  0  0  0  0  0  0  0
    4.9858    2.1397   -1.9789 C   0  0  0  0  0  0  0  0  0  0  0  0
    6.2039    1.8866   -2.6814 N   0  0  0  0  0  0  0  0  0  0  0  0
    6.7196    0.4049   -2.6332 C   0  0  0  0  0  0  0  0  0  0  0  0
    7.1193    0.2248   -1.1778 C   0  0  0  0  0  0  0  0  0  0  0  0
    7.4622    0.0703    0.0706 C   0  0  0  0  0  0  0  0  0  0  0  0
    7.8055   -0.2156    1.4280 C   0  0  0  0  0  0  0  0  0  0  0  0
    8.0473   -1.5042    1.8431 C   0  0  0  0  0  0  0  0  0  0  0  0
    8.3172   -1.6474    3.1823 C   0  0  0  0  0  0  0  0  0  0  0  0
    8.5841   -2.9277    3.6279 O   0  0  0  0  0  0  0  0  0  0  0  0
    8.8252   -2.9913    5.0338 C   0  0  0  0  0  0  0  0  0  0  0  0
    8.3634   -0.6166    4.0416 N   0  0  0  0  0  0  0  0  0  0  0  0
    8.1181    0.5918    3.5189 C   0  0  0  0  0  0  0  0  0  0  0  0
    7.8348    0.8545    2.2398 N   0  0  0  0  0  0  0  0  0  0  0  0
    7.3241    2.7671   -2.9435 C   0  0  0  0  0  0  0  0  0  0  0  0
    7.9145    2.5645   -4.1792 C   0  0  0  0  0  0  0  0  0  0  0  0
    9.2355    2.8948   -4.3719 C   0  0  0  0  0  0  0  0  0  0  0  0
    9.9550    3.5773   -3.4245 C   0  0  0  0  0  0  0  0  0  0  0  0
   11.2579    3.6197   -3.6897 N   0  0  0  0  0  0  0  0  0  0  0  0
   11.9948    4.4292   -2.9274 C   0  0  0  0  0  0  0  0  0  0  0  0
   11.4322    5.2637   -1.9833 C   0  0  0  0  0  0  0  0  0  0  0  0
   12.2809    6.3803   -1.5623 C   0  0  0  0  0  0  0  0  0  0  0  0
   12.3315    7.7079   -2.0752 C   0  0  0  0  0  0  0  0  0  0  0  0
   13.4330    8.3744   -1.7045 N   0  0  0  0  0  0  0  0  0  0  0  0
   14.1102    7.4764   -0.9702 N   0  0  0  0  0  0  0  0  0  0  0  0
   15.2751    7.8756   -0.2137 C   0  0  0  0  0  0  0  0  0  0  0  0
   13.5362    6.2341   -0.9860 C   0  0  0  0  0  0  0  0  0  0  0  0
   10.1058    5.1254   -1.6205 N   0  0  0  0  0  0  0  0  0  0  0  0
    9.3288    4.1801   -2.3095 C   0  0  0  0  0  0  0  0  0  0  0  0
    7.9797    3.6766   -2.0531 C   0  0  0  0  0  0  0  0  0  0  0  0
    4.1276    1.0795   -1.6308 C   0  0  0  0  0  0  0  0  0  0  0  0
    2.5021   -1.7131    0.5187 H   0  0  0  0  0  0  0  0  0  0  0  0
    4.0271   -0.8177    0.4318 H   0  0  0  0  0  0  0  0  0  0  0  0
    3.2744   -1.5094   -1.0535 H   0  0  0  0  0  0  0  0  0  0  0  0
    1.8169    2.5870    0.3102 H   0  0  0  0  0  0  0  0  0  0  0  0
    1.7127    6.2002    0.3409 H   0  0  0  0  0  0  0  0  0  0  0  0
    2.0917    4.7617    1.2960 H   0  0  0  0  0  0  0  0  0  0  0  0
    0.9911    4.6626   -0.1317 H   0  0  0  0  0  0  0  0  0  0  0  0
    5.0635    4.3073   -1.9596 H   0  0  0  0  0  0  0  0  0  0  0  0
    7.5976    0.2567   -3.2703 H   0  0  0  0  0  0  0  0  0  0  0  0
    5.9650   -0.3064   -2.9738 H   0  0  0  0  0  0  0  0  0  0  0  0
    8.0218   -2.3499    1.1749 H   0  0  0  0  0  0  0  0  0  0  0  0
    9.0550   -4.0316    5.2861 H   0  0  0  0  0  0  0  0  0  0  0  0
    7.9306   -2.7037    5.6002 H   0  0  0  0  0  0  0  0  0  0  0  0
    9.6873   -2.3828    5.3255 H   0  0  0  0  0  0  0  0  0  0  0  0
    8.1576    1.4404    4.1939 H   0  0  0  0  0  0  0  0  0  0  0  0
    7.3826    2.0099   -4.9480 H   0  0  0  0  0  0  0  0  0  0  0  0
    9.7307    2.5758   -5.2934 H   0  0  0  0  0  0  0  0  0  0  0  0
   13.0533    4.4373   -3.1557 H   0  0  0  0  0  0  0  0  0  0  0  0
   11.6390    8.2032   -2.7445 H   0  0  0  0  0  0  0  0  0  0  0  0
   15.4936    8.9331   -0.3880 H   0  0  0  0  0  0  0  0  0  0  0  0
   16.1307    7.2625   -0.5080 H   0  0  0  0  0  0  0  0  0  0  0  0
   15.0432    7.7207    0.8435 H   0  0  0  0  0  0  0  0  0  0  0  0
   14.0593    5.3761   -0.5895 H   0  0  0  0  0  0  0  0  0  0  0  0
    7.5091    3.9630   -1.1105 H   0  0  0  0  0  0  0  0  0  0  0  0
    4.2951    0.0923   -2.0315 H   0  0  0  0  0  0  0  0  0  0  0  0
  1  2  1  0  0  0  0
  1 39  1  0  0  0  0
  1 40  1  0  0  0  0
  1 41  1  0  0  0  0
  2  3  1  0  0  0  0
  3  4  1  0  0  0  0
  3 38  2  0  0  0  0
  4  5  2  0  0  0  0
  4 42  1  0  0  0  0
  5  6  1  0  0  0  0
  5  8  1  0  0  0  0
  6  7  1  0  0  0  0
  7 43  1  0  0  0  0
  7 44  1  0  0  0  0
  7 45  1  0  0  0  0
  8  9  2  0  0  0  0
  8 46  1  0  0  0  0
  9 10  1  0  0  0  0
  9 38  1  0  0  0  0
 10 11  1  0  0  0  0
 10 22  1  0  0  0  0
 11 12  1  0  0  0  0
 11 47  1  0  0  0  0
 11 48  1  0  0  0  0
 12 13  3  0  0  0  0
 13 14  1  0  0  0  0
 14 15  1  0  0  0  0
 14 21  2  0  0  0  0
 15 16  2  0  0  0  0
 15 49  1  0  0  0  0
 16 17  1  0  0  0  0
 16 19  1  0  0  0  0
 17 18  1  0  0  0  0
 18 50  1  0  0  0  0
 18 51  1  0  0  0  0
 18 52  1  0  0  0  0
 19 20  2  0  0  0  0
 20 21  1  0  0  0  0
 20 53  1  0  0  0  0
 22 23  1  0  0  0  0
 22 37  2  0  0  0  0
 23 24  2  0  0  0  0
 23 54  1  0  0  0  0
 24 25  1  0  0  0  0
 24 55  1  0  0  0  0
 25 26  1  0  0  0  0
 25 36  2  0  0  0  0
 26 27  2  0  0  0  0
 27 28  1  0  0  0  0
 27 56  1  0  0  0  0
 28 29  1  0  0  0  0
 28 35  2  0  0  0  0
 29 30  1  0  0  0  0
 29 34  2  0  0  0  0
 30 31  2  0  0  0  0
 30 57  1  0  0  0  0
 31 32  1  0  0  0  0
 32 33  1  0  0  0  0
 32 34  1  0  0  0  0
 33 58  1  0  0  0  0
 33 59  1  0  0  0  0
 33 60  1  0  0  0  0
 34 61  1  0  0  0  0
 35 36  1  0  0  0  0
 36 37  1  0  0  0  0
 37 62  1  0  0  0  0
 38 63  1  0  0  0  0
M  END
$$$$
