CHEMBL1998112
 OpenBabel04072215363D

 48 51  0  0  0  0  0  0  0  0999 V2000
    1.4712   -0.9959   -0.2598 C   0  0  0  0  0  0  0  0  0  0  0  0
    2.4939   -0.0472    0.0202 O   0  0  0  0  0  0  0  0  0  0  0  0
    3.1665   -0.1944    1.2039 C   0  0  0  0  0  0  0  0  0  0  0  0
    3.2704   -1.4183    1.8725 C   0  0  0  0  0  0  0  0  0  0  0  0
    4.0117   -1.5276    3.0551 C   0  0  0  0  0  0  0  0  0  0  0  0
    4.6854   -0.4258    3.6000 C   0  0  0  0  0  0  0  0  0  0  0  0
    5.4564   -0.5765    4.8657 C   0  0  0  0  0  0  0  0  0  0  0  0
    5.6189    0.4680    5.6968 C   0  0  0  0  0  0  0  0  0  0  0  0
    6.3291    0.2759    6.8961 C   0  0  0  0  0  0  0  0  0  0  0  0
    6.6261    1.1095    7.8719 N   0  0  0  0  0  0  0  0  0  0  0  0
    7.3141    0.3612    8.7883 C   0  0  0  0  0  0  0  0  0  0  0  0
    7.4448   -0.9411    8.3633 C   0  0  0  0  0  0  0  0  0  0  0  0
    6.8005   -0.9955    7.1482 N   0  0  0  0  0  0  0  0  0  0  0  0
    6.5749   -2.0764    6.2659 C   0  0  0  0  0  0  0  0  0  0  0  0
    7.0281   -3.3327    6.6399 N   0  0  0  0  0  0  0  0  0  0  0  0
    6.5324   -4.5851    6.1728 C   0  0  0  0  0  0  0  0  0  0  0  0
    5.9667   -4.7148    4.8918 C   0  0  0  0  0  0  0  0  0  0  0  0
    5.3760   -5.9005    4.4578 C   0  0  0  0  0  0  0  0  0  0  0  0
    5.3860   -7.0150    5.2794 C   0  0  0  0  0  0  0  0  0  0  0  0
    5.9898   -6.9448    6.5340 C   0  0  0  0  0  0  0  0  0  0  0  0
    6.5580   -5.7414    7.0004 C   0  0  0  0  0  0  0  0  0  0  0  0
    7.1625   -5.6635    8.3715 C   0  0  0  0  0  0  0  0  0  0  0  0
    7.1318   -6.7642    9.1830 N   0  0  0  0  0  0  0  0  0  0  0  0
    7.6762   -4.6255    8.7819 O   0  0  0  0  0  0  0  0  0  0  0  0
    5.9302   -1.8405    5.1547 N   0  0  0  0  0  0  0  0  0  0  0  0
    4.6152    0.7837    2.8961 C   0  0  0  0  0  0  0  0  0  0  0  0
    3.8457    0.9160    1.7286 C   0  0  0  0  0  0  0  0  0  0  0  0
    3.8916    2.1798    1.1946 O   0  0  0  0  0  0  0  0  0  0  0  0
    2.6986    2.6420    0.5731 C   0  0  0  0  0  0  0  0  0  0  0  0
    0.9474   -0.6646   -1.1616 H   0  0  0  0  0  0  0  0  0  0  0  0
    0.7404   -1.0413    0.5550 H   0  0  0  0  0  0  0  0  0  0  0  0
    1.8909   -1.9842   -0.4714 H   0  0  0  0  0  0  0  0  0  0  0  0
    2.8047   -2.3206    1.4907 H   0  0  0  0  0  0  0  0  0  0  0  0
    4.0613   -2.4964    3.5479 H   0  0  0  0  0  0  0  0  0  0  0  0
    5.2115    1.4518    5.5064 H   0  0  0  0  0  0  0  0  0  0  0  0
    7.6780    0.8023    9.7075 H   0  0  0  0  0  0  0  0  0  0  0  0
    7.9181   -1.7942    8.8239 H   0  0  0  0  0  0  0  0  0  0  0  0
    7.4471   -3.4275    7.5679 H   0  0  0  0  0  0  0  0  0  0  0  0
    5.9767   -3.8864    4.1907 H   0  0  0  0  0  0  0  0  0  0  0  0
    4.9126   -5.9405    3.4750 H   0  0  0  0  0  0  0  0  0  0  0  0
    4.9297   -7.9415    4.9402 H   0  0  0  0  0  0  0  0  0  0  0  0
    5.9941   -7.8505    7.1285 H   0  0  0  0  0  0  0  0  0  0  0  0
    6.7018   -7.6466    8.9685 H   0  0  0  0  0  0  0  0  0  0  0  0
    7.5305   -6.6616   10.1087 H   0  0  0  0  0  0  0  0  0  0  0  0
    5.1601    1.6586    3.2430 H   0  0  0  0  0  0  0  0  0  0  0  0
    2.7347    3.7362    0.5650 H   0  0  0  0  0  0  0  0  0  0  0  0
    1.7995    2.3471    1.1256 H   0  0  0  0  0  0  0  0  0  0  0  0
    2.6554    2.3143   -0.4690 H   0  0  0  0  0  0  0  0  0  0  0  0
  1  2  1  0  0  0  0
  1 30  1  0  0  0  0
  1 31  1  0  0  0  0
  1 32  1  0  0  0  0
  2  3  1  0  0  0  0
  3  4  1  0  0  0  0
  3 27  2  0  0  0  0
  4  5  2  0  0  0  0
  4 33  1  0  0  0  0
  5  6  1  0  0  0  0
  5 34  1  0  0  0  0
  6  7  1  0  0  0  0
  6 26  2  0  0  0  0
  7  8  2  0  0  0  0
  7 25  1  0  0  0  0
  8  9  1  0  0  0  0
  8 35  1  0  0  0  0
  9 10  2  0  0  0  0
  9 13  1  0  0  0  0
 10 11  1  0  0  0  0
 11 12  2  0  0  0  0
 11 36  1  0  0  0  0
 12 13  1  0  0  0  0
 12 37  1  0  0  0  0
 13 14  1  0  0  0  0
 14 15  1  0  0  0  0
 14 25  2  0  0  0  0
 15 16  1  0  0  0  0
 15 38  1  0  0  0  0
 16 17  1  0  0  0  0
 16 21  2  0  0  0  0
 17 18  2  0  0  0  0
 17 39  1  0  0  0  0
 18 19  1  0  0  0  0
 18 40  1  0  0  0  0
 19 20  2  0  0  0  0
 19 41  1  0  0  0  0
 20 21  1  0  0  0  0
 20 42  1  0  0  0  0
 21 22  1  0  0  0  0
 22 23  1  0  0  0  0
 22 24  2  0  0  0  0
 23 43  1  0  0  0  0
 23 44  1  0  0  0  0
 26 27  1  0  0  0  0
 26 45  1  0  0  0  0
 27 28  1  0  0  0  0
 28 29  1  0  0  0  0
 29 46  1  0  0  0  0
 29 47  1  0  0  0  0
 29 48  1  0  0  0  0
M  END
$$$$
