CHEMBL3125887
 OpenBabel04072215363D

 57 61  0  0  0  0  0  0  0  0999 V2000
    3.8193   -0.9972    1.4105 N   0  0  0  0  0  0  0  0  0  0  0  0
    3.1313   -0.0689    1.5339 C   0  0  0  0  0  0  0  0  0  0  0  0
    2.2805    1.0662    1.6915 C   0  0  0  0  0  0  0  0  0  0  0  0
    2.5118    2.2755    1.0209 C   0  0  0  0  0  0  0  0  0  0  0  0
    3.6103    2.3384    0.1815 O   0  0  0  0  0  0  0  0  0  0  0  0
    4.4114    3.4565    0.2581 C   0  0  0  0  0  0  0  0  0  0  0  0
    4.5150    4.2246    1.4240 C   0  0  0  0  0  0  0  0  0  0  0  0
    5.1833    5.4232    1.3830 C   0  0  0  0  0  0  0  0  0  0  0  0
    5.8366    5.7775    0.2139 C   0  0  0  0  0  0  0  0  0  0  0  0
    5.9166    4.9517   -0.9034 C   0  0  0  0  0  0  0  0  0  0  0  0
    6.7126    5.2334   -2.0325 N   0  0  0  0  0  0  0  0  0  0  0  0
    7.7618    6.0985   -2.2313 C   0  0  0  0  0  0  0  0  0  0  0  0
    8.2682    6.1368   -3.3609 O   0  0  0  0  0  0  0  0  0  0  0  0
    8.3199    6.9749   -1.1126 C   0  0  0  0  0  0  0  0  0  0  0  0
    7.5256    8.2521   -0.8374 C   0  0  0  0  0  0  0  0  0  0  0  0
    6.6390    8.7203   -1.8321 C   0  0  0  0  0  0  0  0  0  0  0  0
    5.7200    9.7344   -1.5717 C   0  0  0  0  0  0  0  0  0  0  0  0
    5.7088   10.3590   -0.3343 C   0  0  0  0  0  0  0  0  0  0  0  0
    6.6100    9.9579    0.6490 C   0  0  0  0  0  0  0  0  0  0  0  0
    7.5156    8.8931    0.4335 C   0  0  0  0  0  0  0  0  0  0  0  0
    8.2897    8.4380    1.6612 C   0  0  0  0  0  0  0  0  0  0  0  0
    9.0534    7.3265    1.4990 F   0  0  0  0  0  0  0  0  0  0  0  0
    9.1289    9.3974    2.1383 F   0  0  0  0  0  0  0  0  0  0  0  0
    7.4453    8.1420    2.6957 F   0  0  0  0  0  0  0  0  0  0  0  0
    5.1414    3.7934   -0.8943 C   0  0  0  0  0  0  0  0  0  0  0  0
    1.6493    3.3638    1.1953 C   0  0  0  0  0  0  0  0  0  0  0  0
    0.5836    3.2856    2.0927 C   0  0  0  0  0  0  0  0  0  0  0  0
    0.3250    2.0773    2.7659 C   0  0  0  0  0  0  0  0  0  0  0  0
   -0.7451    1.8492    3.6087 N   0  0  0  0  0  0  0  0  0  0  0  0
   -0.7147    0.6118    4.0137 C   0  0  0  0  0  0  0  0  0  0  0  0
   -1.6090   -0.0921    4.7557 N   0  0  0  0  0  0  0  0  0  0  0  0
   -2.8273    0.3894    5.1505 C   0  0  0  0  0  0  0  0  0  0  0  0
   -3.3289    1.4862    4.9662 O   0  0  0  0  0  0  0  0  0  0  0  0
   -3.5922   -0.6954    5.8621 C   0  0  0  0  0  0  0  0  0  0  0  0
   -2.8860   -0.6568    7.2891 C   0  0  0  0  0  0  0  0  0  0  0  0
   -4.2407   -1.1035    7.1804 C   0  0  0  0  0  0  0  0  0  0  0  0
    0.6212   -0.3260    3.5343 S   0  0  0  0  0  0  0  0  0  0  0  0
    1.1820    0.9867    2.5627 C   0  0  0  0  0  0  0  0  0  0  0  0
    4.0255    3.9461    2.3514 H   0  0  0  0  0  0  0  0  0  0  0  0
    5.1888    6.0989    2.2333 H   0  0  0  0  0  0  0  0  0  0  0  0
    6.2396    6.7619    0.2307 H   0  0  0  0  0  0  0  0  0  0  0  0
    6.5559    4.6586   -2.8565 H   0  0  0  0  0  0  0  0  0  0  0  0
    9.3545    7.2458   -1.3560 H   0  0  0  0  0  0  0  0  0  0  0  0
    8.3786    6.3256   -0.2348 H   0  0  0  0  0  0  0  0  0  0  0  0
    6.5923    8.2461   -2.8121 H   0  0  0  0  0  0  0  0  0  0  0  0
    4.9962   10.0137   -2.3335 H   0  0  0  0  0  0  0  0  0  0  0  0
    4.9846   11.1427   -0.1275 H   0  0  0  0  0  0  0  0  0  0  0  0
    6.5663   10.4442    1.6245 H   0  0  0  0  0  0  0  0  0  0  0  0
    5.0951    3.1399   -1.7594 H   0  0  0  0  0  0  0  0  0  0  0  0
    1.8151    4.2994    0.6641 H   0  0  0  0  0  0  0  0  0  0  0  0
   -0.0632    4.1422    2.2635 H   0  0  0  0  0  0  0  0  0  0  0  0
   -1.3636   -1.0465    4.9703 H   0  0  0  0  0  0  0  0  0  0  0  0
   -4.5603   -0.5746    5.3697 H   0  0  0  0  0  0  0  0  0  0  0  0
   -2.7196    0.3114    7.7555 H   0  0  0  0  0  0  0  0  0  0  0  0
   -2.0862   -1.3683    7.4548 H   0  0  0  0  0  0  0  0  0  0  0  0
   -5.0257   -0.4804    7.5939 H   0  0  0  0  0  0  0  0  0  0  0  0
   -4.4400   -2.1656    7.3042 H   0  0  0  0  0  0  0  0  0  0  0  0
  1  2  3  0  0  0  0
  2  3  1  0  0  0  0
  3  4  1  0  0  0  0
  3 38  2  0  0  0  0
  4  5  1  0  0  0  0
  4 26  2  0  0  0  0
  5  6  1  0  0  0  0
  6  7  1  0  0  0  0
  6 25  2  0  0  0  0
  7  8  2  0  0  0  0
  7 39  1  0  0  0  0
  8  9  1  0  0  0  0
  8 40  1  0  0  0  0
  9 10  2  0  0  0  0
  9 41  1  0  0  0  0
 10 11  1  0  0  0  0
 10 25  1  0  0  0  0
 11 12  1  0  0  0  0
 11 42  1  0  0  0  0
 12 13  2  0  0  0  0
 12 14  1  0  0  0  0
 14 15  1  0  0  0  0
 14 43  1  0  0  0  0
 14 44  1  0  0  0  0
 15 16  1  0  0  0  0
 15 20  2  0  0  0  0
 16 17  2  0  0  0  0
 16 45  1  0  0  0  0
 17 18  1  0  0  0  0
 17 46  1  0  0  0  0
 18 19  2  0  0  0  0
 18 47  1  0  0  0  0
 19 20  1  0  0  0  0
 19 48  1  0  0  0  0
 20 21  1  0  0  0  0
 21 22  1  0  0  0  0
 21 23  1  0  0  0  0
 21 24  1  0  0  0  0
 25 49  1  0  0  0  0
 26 27  1  0  0  0  0
 26 50  1  0  0  0  0
 27 28  2  0  0  0  0
 27 51  1  0  0  0  0
 28 29  1  0  0  0  0
 28 38  1  0  0  0  0
 29 30  2  0  0  0  0
 30 31  1  0  0  0  0
 30 37  1  0  0  0  0
 31 32  1  0  0  0  0
 31 52  1  0  0  0  0
 32 33  2  0  0  0  0
 32 34  1  0  0  0  0
 34 35  1  0  0  0  0
 34 36  1  0  0  0  0
 34 53  1  0  0  0  0
 35 36  1  0  0  0  0
 35 54  1  0  0  0  0
 35 55  1  0  0  0  0
 36 56  1  0  0  0  0
 36 57  1  0  0  0  0
 37 38  1  0  0  0  0
M  END
$$$$
