CHEMBL3895044
 OpenBabel04072215373D

 55 58  0  0  0  0  0  0  0  0999 V2000
    2.6183    0.1920    0.0886 C   0  0  0  0  0  0  0  0  0  0  0  0
    1.1199    0.0610    0.1439 C   0  0  0  0  0  0  0  0  0  0  0  0
    0.3883    1.2692    0.2341 C   0  0  0  0  0  0  0  0  0  0  0  0
   -1.0060    1.2901    0.1876 C   0  0  0  0  0  0  0  0  0  0  0  0
   -1.7559    2.4421    0.2897 O   0  0  0  0  0  0  0  0  0  0  0  0
   -1.3199    3.5736   -0.3974 C   0  0  0  0  0  0  0  0  0  0  0  0
   -1.7616    4.7920    0.0647 C   0  0  0  0  0  0  0  0  0  0  0  0
   -1.3210    5.8950   -0.6400 C   0  0  0  0  0  0  0  0  0  0  0  0
   -1.7375    7.1730   -0.2263 N   0  0  0  0  0  0  0  0  0  0  0  0
   -1.4278    8.3360   -0.9030 C   0  0  0  0  0  0  0  0  0  0  0  0
   -0.7743    8.4514   -1.9293 O   0  0  0  0  0  0  0  0  0  0  0  0
   -1.9676    9.5691   -0.2484 C   0  0  0  0  0  0  0  0  0  0  0  0
   -1.8262   10.9168   -0.9263 C   0  0  0  0  0  0  0  0  0  0  0  0
   -0.9941   10.5984    0.2804 C   0  0  0  0  0  0  0  0  0  0  0  0
   -0.5011    5.7790   -1.6901 N   0  0  0  0  0  0  0  0  0  0  0  0
   -0.1506    4.5515   -2.0680 C   0  0  0  0  0  0  0  0  0  0  0  0
   -0.5365    3.4213   -1.4747 N   0  0  0  0  0  0  0  0  0  0  0  0
   -1.6885    0.0861    0.1184 C   0  0  0  0  0  0  0  0  0  0  0  0
   -0.9791   -1.1213    0.0656 C   0  0  0  0  0  0  0  0  0  0  0  0
    0.4256   -1.1667    0.0618 C   0  0  0  0  0  0  0  0  0  0  0  0
    1.1327   -2.4083    0.0191 N   0  0  0  0  0  0  0  0  0  0  0  0
    0.5636   -3.6652   -0.1712 C   0  0  0  0  0  0  0  0  0  0  0  0
   -0.6025   -3.8748   -0.4866 O   0  0  0  0  0  0  0  0  0  0  0  0
    1.4559   -4.6997    0.0999 N   0  0  0  0  0  0  0  0  0  0  0  0
    1.0499   -6.0608    0.0190 C   0  0  0  0  0  0  0  0  0  0  0  0
    1.4356   -6.9403    1.0259 C   0  0  0  0  0  0  0  0  0  0  0  0
    1.0224   -8.2772    0.9803 C   0  0  0  0  0  0  0  0  0  0  0  0
    0.2665   -8.7697   -0.0968 C   0  0  0  0  0  0  0  0  0  0  0  0
    0.0293  -10.4796   -0.1285 Cl  0  0  0  0  0  0  0  0  0  0  0  0
   -0.1469   -7.8972   -1.1079 C   0  0  0  0  0  0  0  0  0  0  0  0
   -0.8415   -8.1667   -2.2505 O   0  0  0  0  0  0  0  0  0  0  0  0
   -1.8569   -9.1567   -2.2988 C   0  0  0  0  0  0  0  0  0  0  0  0
   -2.3549   -9.4873   -1.0921 F   0  0  0  0  0  0  0  0  0  0  0  0
   -2.8839   -8.6688   -3.0352 F   0  0  0  0  0  0  0  0  0  0  0  0
   -1.3905  -10.2564   -2.9284 F   0  0  0  0  0  0  0  0  0  0  0  0
    0.2658   -6.5494   -1.0370 C   0  0  0  0  0  0  0  0  0  0  0  0
    2.9323    1.2266    0.2811 H   0  0  0  0  0  0  0  0  0  0  0  0
    2.9836   -0.0722   -0.9084 H   0  0  0  0  0  0  0  0  0  0  0  0
    3.0996   -0.4299    0.8468 H   0  0  0  0  0  0  0  0  0  0  0  0
    0.9243    2.2122    0.3180 H   0  0  0  0  0  0  0  0  0  0  0  0
   -2.4171    4.8609    0.9213 H   0  0  0  0  0  0  0  0  0  0  0  0
   -2.3124    7.2388    0.6011 H   0  0  0  0  0  0  0  0  0  0  0  0
   -2.8871    9.4297    0.3110 H   0  0  0  0  0  0  0  0  0  0  0  0
   -2.6297   11.6350   -0.8170 H   0  0  0  0  0  0  0  0  0  0  0  0
   -1.3273   10.9611   -1.8900 H   0  0  0  0  0  0  0  0  0  0  0  0
   -1.2331   11.1016    1.2088 H   0  0  0  0  0  0  0  0  0  0  0  0
    0.0670   10.4327    0.1222 H   0  0  0  0  0  0  0  0  0  0  0  0
    0.5137    4.4704   -2.9219 H   0  0  0  0  0  0  0  0  0  0  0  0
   -2.7745    0.0641    0.0985 H   0  0  0  0  0  0  0  0  0  0  0  0
   -1.5810   -2.0227    0.0254 H   0  0  0  0  0  0  0  0  0  0  0  0
    2.1404   -2.3594    0.0016 H   0  0  0  0  0  0  0  0  0  0  0  0
    2.1543   -4.4808    0.7953 H   0  0  0  0  0  0  0  0  0  0  0  0
    2.0226   -6.5994    1.8739 H   0  0  0  0  0  0  0  0  0  0  0  0
    1.3120   -8.9442    1.7906 H   0  0  0  0  0  0  0  0  0  0  0  0
   -0.0267   -5.8766   -1.8427 H   0  0  0  0  0  0  0  0  0  0  0  0
  1  2  1  0  0  0  0
  1 37  1  0  0  0  0
  1 38  1  0  0  0  0
  1 39  1  0  0  0  0
  2  3  1  0  0  0  0
  2 20  2  0  0  0  0
  3  4  2  0  0  0  0
  3 40  1  0  0  0  0
  4  5  1  0  0  0  0
  4 18  1  0  0  0  0
  5  6  1  0  0  0  0
  6  7  1  0  0  0  0
  6 17  2  0  0  0  0
  7  8  2  0  0  0  0
  7 41  1  0  0  0  0
  8  9  1  0  0  0  0
  8 15  1  0  0  0  0
  9 10  1  0  0  0  0
  9 42  1  0  0  0  0
 10 11  2  0  0  0  0
 10 12  1  0  0  0  0
 12 13  1  0  0  0  0
 12 14  1  0  0  0  0
 12 43  1  0  0  0  0
 13 14  1  0  0  0  0
 13 44  1  0  0  0  0
 13 45  1  0  0  0  0
 14 46  1  0  0  0  0
 14 47  1  0  0  0  0
 15 16  2  0  0  0  0
 16 17  1  0  0  0  0
 16 48  1  0  0  0  0
 18 19  2  0  0  0  0
 18 49  1  0  0  0  0
 19 20  1  0  0  0  0
 19 50  1  0  0  0  0
 20 21  1  0  0  0  0
 21 22  1  0  0  0  0
 21 51  1  0  0  0  0
 22 23  2  0  0  0  0
 22 24  1  0  0  0  0
 24 25  1  0  0  0  0
 24 52  1  0  0  0  0
 25 26  1  0  0  0  0
 25 36  2  0  0  0  0
 26 27  2  0  0  0  0
 26 53  1  0  0  0  0
 27 28  1  0  0  0  0
 27 54  1  0  0  0  0
 28 29  1  0  0  0  0
 28 30  2  0  0  0  0
 30 31  1  0  0  0  0
 30 36  1  0  0  0  0
 31 32  1  0  0  0  0
 32 33  1  0  0  0  0
 32 34  1  0  0  0  0
 32 35  1  0  0  0  0
 36 55  1  0  0  0  0
M  END
$$$$
