CHEMBL2386800
 OpenBabel04072215363D

 72 76  0  0  0  0  0  0  0  0999 V2000
    2.9849   -0.4039    2.1744 O   0  0  0  0  0  0  0  0  0  0  0  0
    3.2782   -0.3465    0.9882 C   0  0  0  0  0  0  0  0  0  0  0  0
    2.9336   -1.3485    0.1049 N   0  0  0  0  0  0  0  0  0  0  0  0
    2.2500   -2.5401    0.5668 C   0  0  0  0  0  0  0  0  0  0  0  0
    3.2078   -3.6499    0.9257 C   0  0  0  0  0  0  0  0  0  0  0  0
    3.7340   -3.7374    2.2188 C   0  0  0  0  0  0  0  0  0  0  0  0
    4.6114   -4.7709    2.5634 C   0  0  0  0  0  0  0  0  0  0  0  0
    4.9926   -5.7440    1.6251 C   0  0  0  0  0  0  0  0  0  0  0  0
    5.9195   -6.8241    1.9923 C   0  0  0  0  0  0  0  0  0  0  0  0
    6.4984   -7.0565    3.2699 C   0  0  0  0  0  0  0  0  0  0  0  0
    7.2960   -8.1702    3.1510 C   0  0  0  0  0  0  0  0  0  0  0  0
    8.0708   -8.7963    4.1283 N   0  0  0  0  0  0  0  0  0  0  0  0
    8.1056   -8.3262    5.4928 C   0  0  0  0  0  0  0  0  0  0  0  0
    7.4165   -7.3868    5.8512 O   0  0  0  0  0  0  0  0  0  0  0  0
    8.9882   -9.0013    6.4654 C   0  0  0  0  0  0  0  0  0  0  0  0
   10.1372   -9.7071    6.0994 C   0  0  0  0  0  0  0  0  0  0  0  0
   10.9903  -10.1989    7.0972 C   0  0  0  0  0  0  0  0  0  0  0  0
   10.7079   -9.9695    8.4480 C   0  0  0  0  0  0  0  0  0  0  0  0
   11.5100  -10.3217    9.4965 O   0  0  0  0  0  0  0  0  0  0  0  0
   12.9065  -10.4137    9.1950 C   0  0  0  0  0  0  0  0  0  0  0  0
   13.7067  -10.1493   10.4799 C   0  0  0  0  0  0  0  0  0  0  0  0
   15.1682  -10.1479   10.2800 N   0  0  0  0  0  0  0  0  0  0  0  0
   15.7052  -11.4443    9.8094 C   0  0  0  0  0  0  0  0  0  0  0  0
   15.6580  -12.5519   10.8727 C   0  0  0  0  0  0  0  0  0  0  0  0
   16.3767  -12.1634   12.0486 O   0  0  0  0  0  0  0  0  0  0  0  0
   15.8611  -10.9387   12.5863 C   0  0  0  0  0  0  0  0  0  0  0  0
   15.8751   -9.8080   11.5398 C   0  0  0  0  0  0  0  0  0  0  0  0
    9.5314   -9.3198    8.8080 C   0  0  0  0  0  0  0  0  0  0  0  0
    8.6786   -8.8290    7.8229 C   0  0  0  0  0  0  0  0  0  0  0  0
    7.1701   -8.5422    1.8387 N   0  0  0  0  0  0  0  0  0  0  0  0
    6.3482   -7.7564    1.1221 N   0  0  0  0  0  0  0  0  0  0  0  0
    4.4677   -5.6495    0.3298 C   0  0  0  0  0  0  0  0  0  0  0  0
    3.5909   -4.6121   -0.0190 C   0  0  0  0  0  0  0  0  0  0  0  0
    3.9494    0.6827    0.3556 N   0  0  0  0  0  0  0  0  0  0  0  0
    4.4720    1.8514    0.9538 C   0  0  0  0  0  0  0  0  0  0  0  0
    4.3946    2.1222    2.3223 C   0  0  0  0  0  0  0  0  0  0  0  0
    4.9165    3.3070    2.8513 C   0  0  0  0  0  0  0  0  0  0  0  0
    5.5337    4.2288    2.0130 C   0  0  0  0  0  0  0  0  0  0  0  0
    6.1650    5.6900    2.6645 Cl  0  0  0  0  0  0  0  0  0  0  0  0
    5.6329    3.9713    0.6469 C   0  0  0  0  0  0  0  0  0  0  0  0
    5.1043    2.7868    0.1208 C   0  0  0  0  0  0  0  0  0  0  0  0
    3.4279   -1.4121   -0.7691 H   0  0  0  0  0  0  0  0  0  0  0  0
    1.5865   -2.8678   -0.2422 H   0  0  0  0  0  0  0  0  0  0  0  0
    1.6088   -2.3039    1.4248 H   0  0  0  0  0  0  0  0  0  0  0  0
    3.4606   -2.9984    2.9720 H   0  0  0  0  0  0  0  0  0  0  0  0
    4.9823   -4.7893    3.5853 H   0  0  0  0  0  0  0  0  0  0  0  0
    6.3273   -6.4609    4.1512 H   0  0  0  0  0  0  0  0  0  0  0  0
    8.5925   -9.6198    3.8723 H   0  0  0  0  0  0  0  0  0  0  0  0
   10.4298   -9.8427    5.0631 H   0  0  0  0  0  0  0  0  0  0  0  0
   11.8871  -10.7373    6.8002 H   0  0  0  0  0  0  0  0  0  0  0  0
   13.2056   -9.6724    8.4436 H   0  0  0  0  0  0  0  0  0  0  0  0
   13.0945  -11.4237    8.8183 H   0  0  0  0  0  0  0  0  0  0  0  0
   13.3853  -10.8565   11.2533 H   0  0  0  0  0  0  0  0  0  0  0  0
   13.4032   -9.1596   10.8495 H   0  0  0  0  0  0  0  0  0  0  0  0
   16.7536  -11.2782    9.5279 H   0  0  0  0  0  0  0  0  0  0  0  0
   15.2091  -11.7723    8.8909 H   0  0  0  0  0  0  0  0  0  0  0  0
   16.1306  -13.4576   10.4796 H   0  0  0  0  0  0  0  0  0  0  0  0
   14.6285  -12.8120   11.1442 H   0  0  0  0  0  0  0  0  0  0  0  0
   16.4947  -10.6615   13.4348 H   0  0  0  0  0  0  0  0  0  0  0  0
   14.8529  -11.1161   12.9767 H   0  0  0  0  0  0  0  0  0  0  0  0
   16.9196   -9.5916   11.2790 H   0  0  0  0  0  0  0  0  0  0  0  0
   15.4728   -8.8842   11.9718 H   0  0  0  0  0  0  0  0  0  0  0  0
    9.2991   -9.1545    9.8580 H   0  0  0  0  0  0  0  0  0  0  0  0
    7.7882   -8.2807    8.1287 H   0  0  0  0  0  0  0  0  0  0  0  0
    7.6108   -9.3171    1.3610 H   0  0  0  0  0  0  0  0  0  0  0  0
    4.7342   -6.3889   -0.4228 H   0  0  0  0  0  0  0  0  0  0  0  0
    3.2004   -4.5710   -1.0325 H   0  0  0  0  0  0  0  0  0  0  0  0
    4.0125    0.6225   -0.6482 H   0  0  0  0  0  0  0  0  0  0  0  0
    3.9236    1.4331    3.0159 H   0  0  0  0  0  0  0  0  0  0  0  0
    4.8308    3.4988    3.9180 H   0  0  0  0  0  0  0  0  0  0  0  0
    6.1303    4.6844   -0.0061 H   0  0  0  0  0  0  0  0  0  0  0  0
    5.1958    2.6128   -0.9481 H   0  0  0  0  0  0  0  0  0  0  0  0
  1  2  2  0  0  0  0
  2  3  1  0  0  0  0
  2 34  1  0  0  0  0
  3  4  1  0  0  0  0
  3 42  1  0  0  0  0
  4  5  1  0  0  0  0
  4 43  1  0  0  0  0
  4 44  1  0  0  0  0
  5  6  1  0  0  0  0
  5 33  2  0  0  0  0
  6  7  2  0  0  0  0
  6 45  1  0  0  0  0
  7  8  1  0  0  0  0
  7 46  1  0  0  0  0
  8  9  1  0  0  0  0
  8 32  2  0  0  0  0
  9 10  1  0  0  0  0
  9 31  2  0  0  0  0
 10 11  2  0  0  0  0
 10 47  1  0  0  0  0
 11 12  1  0  0  0  0
 11 30  1  0  0  0  0
 12 13  1  0  0  0  0
 12 48  1  0  0  0  0
 13 14  2  0  0  0  0
 13 15  1  0  0  0  0
 15 16  1  0  0  0  0
 15 29  2  0  0  0  0
 16 17  2  0  0  0  0
 16 49  1  0  0  0  0
 17 18  1  0  0  0  0
 17 50  1  0  0  0  0
 18 19  1  0  0  0  0
 18 28  2  0  0  0  0
 19 20  1  0  0  0  0
 20 21  1  0  0  0  0
 20 51  1  0  0  0  0
 20 52  1  0  0  0  0
 21 22  1  0  0  0  0
 21 53  1  0  0  0  0
 21 54  1  0  0  0  0
 22 23  1  0  0  0  0
 22 27  1  0  0  0  0
 23 24  1  0  0  0  0
 23 55  1  0  0  0  0
 23 56  1  0  0  0  0
 24 25  1  0  0  0  0
 24 57  1  0  0  0  0
 24 58  1  0  0  0  0
 25 26  1  0  0  0  0
 26 27  1  0  0  0  0
 26 59  1  0  0  0  0
 26 60  1  0  0  0  0
 27 61  1  0  0  0  0
 27 62  1  0  0  0  0
 28 29  1  0  0  0  0
 28 63  1  0  0  0  0
 29 64  1  0  0  0  0
 30 31  1  0  0  0  0
 30 65  1  0  0  0  0
 32 33  1  0  0  0  0
 32 66  1  0  0  0  0
 33 67  1  0  0  0  0
 34 35  1  0  0  0  0
 34 68  1  0  0  0  0
 35 36  1  0  0  0  0
 35 41  2  0  0  0  0
 36 37  2  0  0  0  0
 36 69  1  0  0  0  0
 37 38  1  0  0  0  0
 37 70  1  0  0  0  0
 38 39  1  0  0  0  0
 38 40  2  0  0  0  0
 40 41  1  0  0  0  0
 40 71  1  0  0  0  0
 41 72  1  0  0  0  0
M  END
$$$$
