CHEMBL3604205
 OpenBabel04072215363D

 39 42  0  0  0  0  0  0  0  0999 V2000
    1.3095    0.3811    0.6790 C   0  0  0  0  0  0  0  0  0  0  0  0
    2.4506   -0.0574   -0.0481 O   0  0  0  0  0  0  0  0  0  0  0  0
    3.1638    0.9074   -0.7031 C   0  0  0  0  0  0  0  0  0  0  0  0
    2.8350    2.2533   -0.7879 C   0  0  0  0  0  0  0  0  0  0  0  0
    3.6646    3.1368   -1.4914 C   0  0  0  0  0  0  0  0  0  0  0  0
    4.8535    2.7174   -2.1162 C   0  0  0  0  0  0  0  0  0  0  0  0
    5.1659    1.3454   -2.0339 C   0  0  0  0  0  0  0  0  0  0  0  0
    4.3192    0.4589   -1.3393 C   0  0  0  0  0  0  0  0  0  0  0  0
    6.3851    0.7729   -2.6996 C   0  0  0  0  0  0  0  0  0  0  0  0
    7.4021    1.8501   -3.0082 C   0  0  0  0  0  0  0  0  0  0  0  0
    6.7214    3.0388   -3.6597 C   0  0  0  0  0  0  0  0  0  0  0  0
    5.6855    3.6447   -2.8101 N   0  0  0  0  0  0  0  0  0  0  0  0
    5.7630    5.0413   -2.5547 C   0  0  0  0  0  0  0  0  0  0  0  0
    5.4616    5.4336   -1.2944 N   0  0  0  0  0  0  0  0  0  0  0  0
    5.5360    6.7299   -0.9959 C   0  0  0  0  0  0  0  0  0  0  0  0
    5.9241    7.7001   -1.8182 N   0  0  0  0  0  0  0  0  0  0  0  0
    6.2229    7.3363   -3.0624 C   0  0  0  0  0  0  0  0  0  0  0  0
    6.6469    8.3401   -3.9249 C   0  0  0  0  0  0  0  0  0  0  0  0
    6.9858    8.0875   -5.2534 C   0  0  0  0  0  0  0  0  0  0  0  0
    6.8524    6.8052   -5.7543 C   0  0  0  0  0  0  0  0  0  0  0  0
    6.3928    5.7907   -4.9158 C   0  0  0  0  0  0  0  0  0  0  0  0
    6.1339    6.0071   -3.5314 C   0  0  0  0  0  0  0  0  0  0  0  0
    0.8845   -0.4867    1.1919 H   0  0  0  0  0  0  0  0  0  0  0  0
    0.5445    0.7780    0.0035 H   0  0  0  0  0  0  0  0  0  0  0  0
    1.5831    1.1170    1.4428 H   0  0  0  0  0  0  0  0  0  0  0  0
    1.9431    2.6595   -0.3242 H   0  0  0  0  0  0  0  0  0  0  0  0
    3.3557    4.1775   -1.5453 H   0  0  0  0  0  0  0  0  0  0  0  0
    4.5707   -0.5987   -1.2844 H   0  0  0  0  0  0  0  0  0  0  0  0
    6.0725    0.2733   -3.6246 H   0  0  0  0  0  0  0  0  0  0  0  0
    6.8554    0.0200   -2.0559 H   0  0  0  0  0  0  0  0  0  0  0  0
    8.1672    1.4475   -3.6833 H   0  0  0  0  0  0  0  0  0  0  0  0
    7.9117    2.1721   -2.0927 H   0  0  0  0  0  0  0  0  0  0  0  0
    6.2585    2.7230   -4.6050 H   0  0  0  0  0  0  0  0  0  0  0  0
    7.5267    3.7399   -3.9000 H   0  0  0  0  0  0  0  0  0  0  0  0
    5.2544    7.0188    0.0102 H   0  0  0  0  0  0  0  0  0  0  0  0
    6.7132    9.3595   -3.5487 H   0  0  0  0  0  0  0  0  0  0  0  0
    7.3345    8.8940   -5.8912 H   0  0  0  0  0  0  0  0  0  0  0  0
    7.0974    6.5884   -6.7909 H   0  0  0  0  0  0  0  0  0  0  0  0
    6.2391    4.8152   -5.3636 H   0  0  0  0  0  0  0  0  0  0  0  0
  1  2  1  0  0  0  0
  1 23  1  0  0  0  0
  1 24  1  0  0  0  0
  1 25  1  0  0  0  0
  2  3  1  0  0  0  0
  3  4  1  0  0  0  0
  3  8  2  0  0  0  0
  4  5  2  0  0  0  0
  4 26  1  0  0  0  0
  5  6  1  0  0  0  0
  5 27  1  0  0  0  0
  6  7  2  0  0  0  0
  6 12  1  0  0  0  0
  7  8  1  0  0  0  0
  7  9  1  0  0  0  0
  8 28  1  0  0  0  0
  9 10  1  0  0  0  0
  9 29  1  0  0  0  0
  9 30  1  0  0  0  0
 10 11  1  0  0  0  0
 10 31  1  0  0  0  0
 10 32  1  0  0  0  0
 11 12  1  0  0  0  0
 11 33  1  0  0  0  0
 11 34  1  0  0  0  0
 12 13  1  0  0  0  0
 13 14  1  0  0  0  0
 13 22  2  0  0  0  0
 14 15  2  0  0  0  0
 15 16  1  0  0  0  0
 15 35  1  0  0  0  0
 16 17  2  0  0  0  0
 17 18  1  0  0  0  0
 17 22  1  0  0  0  0
 18 19  2  0  0  0  0
 18 36  1  0  0  0  0
 19 20  1  0  0  0  0
 19 37  1  0  0  0  0
 20 21  2  0  0  0  0
 20 38  1  0  0  0  0
 21 22  1  0  0  0  0
 21 39  1  0  0  0  0
M  END
$$$$
