CHEMBL257793
 OpenBabel04072215363D

 57 62  0  0  0  0  0  0  0  0999 V2000
    3.3738   -2.4242    0.5788 C   0  0  0  0  0  0  0  0  0  0  0  0
    3.4787   -1.0318    0.3065 O   0  0  0  0  0  0  0  0  0  0  0  0
    4.1966   -0.8130   -0.8779 N   0  0  0  0  0  0  0  0  0  0  0  0
    4.3074    0.4609   -1.1514 C   0  0  0  0  0  0  0  0  0  0  0  0
    5.0415    0.8331   -2.3915 C   0  0  0  0  0  0  0  0  0  0  0  0
    4.7125    1.9906   -3.0865 C   0  0  0  0  0  0  0  0  0  0  0  0
    5.3964    2.3318   -4.2594 C   0  0  0  0  0  0  0  0  0  0  0  0
    6.4492    1.4865   -4.6568 C   0  0  0  0  0  0  0  0  0  0  0  0
    7.2969    1.5455   -5.7348 N   0  0  0  0  0  0  0  0  0  0  0  0
    8.1958    0.4937   -5.7135 C   0  0  0  0  0  0  0  0  0  0  0  0
    9.2495   -0.1265   -6.4776 C   0  0  0  0  0  0  0  0  0  0  0  0
   10.4777   -0.8237   -7.4102 C   0  0  0  0  0  0  0  0  0  0  0  0
    9.9509   -1.6146   -5.7995 C   0  0  0  0  0  0  0  0  0  0  0  0
    8.6873   -1.3373   -4.5678 C   0  0  0  0  0  0  0  0  0  0  0  0
    7.8609   -0.2183   -4.6762 C   0  0  0  0  0  0  0  0  0  0  0  0
    6.8037    0.3192   -3.9715 C   0  0  0  0  0  0  0  0  0  0  0  0
    6.0397   -0.0171   -2.8680 C   0  0  0  0  0  0  0  0  0  0  0  0
    8.5022   -2.1683   -3.3262 C   0  0  0  0  0  0  0  0  0  0  0  0
    9.7204   -2.8720   -3.3982 N   0  0  0  0  0  0  0  0  0  0  0  0
   10.3669   -2.9319   -4.7826 C   0  0  0  0  0  0  0  0  0  0  0  0
   11.0205   -3.9663   -4.9441 O   0  0  0  0  0  0  0  0  0  0  0  0
   10.6213    0.5755   -8.9038 C   0  0  0  0  0  0  0  0  0  0  0  0
   10.7452    1.3888  -10.3883 C   0  0  0  0  0  0  0  0  0  0  0  0
   10.2077    3.0290  -10.4949 N   0  0  0  0  0  0  0  0  0  0  0  0
   10.0031    4.3335  -11.3500 C   0  0  0  0  0  0  0  0  0  0  0  0
    9.5029    3.1152   -9.4252 N   0  0  0  0  0  0  0  0  0  0  0  0
    9.6832    1.9831   -8.8093 C   0  0  0  0  0  0  0  0  0  0  0  0
    8.6976    1.9611   -7.8335 C   0  0  0  0  0  0  0  0  0  0  0  0
    9.2643    0.7666   -7.4579 C   0  0  0  0  0  0  0  0  0  0  0  0
    3.7211    1.6020   -0.2754 C   0  0  0  0  0  0  0  0  0  0  0  0
    4.8467    2.5159    0.2051 C   0  0  0  0  0  0  0  0  0  0  0  0
    2.6397    2.4696   -0.9379 C   0  0  0  0  0  0  0  0  0  0  0  0
    2.8471   -2.5374    1.5322 H   0  0  0  0  0  0  0  0  0  0  0  0
    4.3564   -2.8987    0.6773 H   0  0  0  0  0  0  0  0  0  0  0  0
    2.7862   -2.9155   -0.2002 H   0  0  0  0  0  0  0  0  0  0  0  0
    3.9042    2.6174   -2.7177 H   0  0  0  0  0  0  0  0  0  0  0  0
    5.1006    3.2171   -4.8179 H   0  0  0  0  0  0  0  0  0  0  0  0
    7.1912    2.2590   -6.4418 H   0  0  0  0  0  0  0  0  0  0  0  0
    6.2432   -0.9573   -2.3954 H   0  0  0  0  0  0  0  0  0  0  0  0
    7.6330   -2.8642   -3.3130 H   0  0  0  0  0  0  0  0  0  0  0  0
    8.3942   -1.6557   -2.3396 H   0  0  0  0  0  0  0  0  0  0  0  0
    9.8854   -3.5144   -2.6080 H   0  0  0  0  0  0  0  0  0  0  0  0
   10.8383    1.2104  -11.4641 H   0  0  0  0  0  0  0  0  0  0  0  0
   10.3075    4.3287  -12.3997 H   0  0  0  0  0  0  0  0  0  0  0  0
   10.5258    5.1905  -10.8476 H   0  0  0  0  0  0  0  0  0  0  0  0
    8.9455    4.7617  -11.3312 H   0  0  0  0  0  0  0  0  0  0  0  0
    7.7239    1.6234   -8.1776 H   0  0  0  0  0  0  0  0  0  0  0  0
    8.9503    2.6357   -7.0334 H   0  0  0  0  0  0  0  0  0  0  0  0
   10.3827    1.1078   -7.0912 H   0  0  0  0  0  0  0  0  0  0  0  0
    8.8677   -0.0078   -8.2709 H   0  0  0  0  0  0  0  0  0  0  0  0
    3.2437    1.1212    0.5888 H   0  0  0  0  0  0  0  0  0  0  0  0
    5.3649    2.9701   -0.6451 H   0  0  0  0  0  0  0  0  0  0  0  0
    5.5999    1.9809    0.7856 H   0  0  0  0  0  0  0  0  0  0  0  0
    4.4571    3.3061    0.8521 H   0  0  0  0  0  0  0  0  0  0  0  0
    3.0474    3.0850   -1.7379 H   0  0  0  0  0  0  0  0  0  0  0  0
    2.2217    3.2119   -0.2561 H   0  0  0  0  0  0  0  0  0  0  0  0
    1.8317    1.8587   -1.3537 H   0  0  0  0  0  0  0  0  0  0  0  0
  1  2  1  0  0  0  0
  1 33  1  0  0  0  0
  1 34  1  0  0  0  0
  1 35  1  0  0  0  0
  2  3  1  0  0  0  0
  3  4  2  0  0  0  0
  4  5  1  0  0  0  0
  4 30  1  0  0  0  0
  5  6  1  0  0  0  0
  5 17  2  0  0  0  0
  6  7  2  0  0  0  0
  6 36  1  0  0  0  0
  7  8  1  0  0  0  0
  7 37  1  0  0  0  0
  8  9  1  0  0  0  0
  8 16  2  0  0  0  0
  9 10  1  0  0  0  0
  9 38  1  0  0  0  0
 10 11  1  0  0  0  0
 10 15  2  0  0  0  0
 11 12  2  0  0  0  0
 11 29  1  0  0  0  0
 12 13  1  0  0  0  0
 12 22  1  0  0  0  0
 13 14  2  0  0  0  0
 13 20  1  0  0  0  0
 14 15  1  0  0  0  0
 14 18  1  0  0  0  0
 15 16  1  0  0  0  0
 16 17  1  0  0  0  0
 17 39  1  0  0  0  0
 18 19  1  0  0  0  0
 18 40  1  0  0  0  0
 18 41  1  0  0  0  0
 19 20  1  0  0  0  0
 19 42  1  0  0  0  0
 20 21  2  0  0  0  0
 22 23  2  0  0  0  0
 22 27  1  0  0  0  0
 23 24  1  0  0  0  0
 23 43  1  0  0  0  0
 24 25  1  0  0  0  0
 24 26  1  0  0  0  0
 25 44  1  0  0  0  0
 25 45  1  0  0  0  0
 25 46  1  0  0  0  0
 26 27  2  0  0  0  0
 27 28  1  0  0  0  0
 28 29  1  0  0  0  0
 28 47  1  0  0  0  0
 28 48  1  0  0  0  0
 29 49  1  0  0  0  0
 29 50  1  0  0  0  0
 30 31  1  0  0  0  0
 30 32  1  0  0  0  0
 30 51  1  0  0  0  0
 31 52  1  0  0  0  0
 31 53  1  0  0  0  0
 31 54  1  0  0  0  0
 32 55  1  0  0  0  0
 32 56  1  0  0  0  0
 32 57  1  0  0  0  0
M  END
$$$$
