CHEMBL365631
 OpenBabel04072215373D

 51 54  0  0  0  0  0  0  0  0999 V2000
    9.9382   -4.2735    5.9168 Cl  0  0  0  0  0  0  0  0  0  0  0  0
    9.4637   -3.4045    4.5090 C   0  0  0  0  0  0  0  0  0  0  0  0
   10.4323   -2.7793    3.7264 C   0  0  0  0  0  0  0  0  0  0  0  0
   10.0479   -2.0681    2.5936 C   0  0  0  0  0  0  0  0  0  0  0  0
    8.6987   -1.9997    2.2408 C   0  0  0  0  0  0  0  0  0  0  0  0
    7.7206   -2.6594    2.9993 C   0  0  0  0  0  0  0  0  0  0  0  0
    6.3364   -2.5357    2.7103 N   0  0  0  0  0  0  0  0  0  0  0  0
    5.8078   -2.4754    1.3963 C   0  0  0  0  0  0  0  0  0  0  0  0
    4.5515   -1.9093    1.1722 C   0  0  0  0  0  0  0  0  0  0  0  0
    3.9525   -1.8644   -0.0424 N   0  0  0  0  0  0  0  0  0  0  0  0
    4.6514   -2.4494   -1.0420 C   0  0  0  0  0  0  0  0  0  0  0  0
    5.8984   -3.0420   -0.8597 C   0  0  0  0  0  0  0  0  0  0  0  0
    6.6665   -3.6709   -1.9419 C   0  0  0  0  0  0  0  0  0  0  0  0
    7.4806   -4.7788   -1.7090 C   0  0  0  0  0  0  0  0  0  0  0  0
    8.1958   -5.4268   -2.6595 N   0  0  0  0  0  0  0  0  0  0  0  0
    8.1324   -4.9123   -3.9104 C   0  0  0  0  0  0  0  0  0  0  0  0
    7.3973   -3.7877   -4.2751 C   0  0  0  0  0  0  0  0  0  0  0  0
    7.4931   -3.2868   -5.5713 N   0  0  0  0  0  0  0  0  0  0  0  0
    7.1313   -1.9132   -5.8802 C   0  0  0  0  0  0  0  0  0  0  0  0
    7.9276   -1.4517   -7.1008 C   0  0  0  0  0  0  0  0  0  0  0  0
    7.6564    0.0234   -7.3966 C   0  0  0  0  0  0  0  0  0  0  0  0
    8.4556    0.5335   -8.5668 C   0  0  0  0  0  0  0  0  0  0  0  0
    7.9625    0.4289   -9.8689 C   0  0  0  0  0  0  0  0  0  0  0  0
    8.7276    0.9289  -10.9123 C   0  0  0  0  0  0  0  0  0  0  0  0
    9.9340    1.5114  -10.7488 N   0  0  0  0  0  0  0  0  0  0  0  0
   10.3984    1.5922   -9.4844 C   0  0  0  0  0  0  0  0  0  0  0  0
    9.7095    1.1207   -8.3768 C   0  0  0  0  0  0  0  0  0  0  0  0
    6.6450   -3.1860   -3.2618 C   0  0  0  0  0  0  0  0  0  0  0  0
    6.4730   -3.0586    0.3710 N   0  0  0  0  0  0  0  0  0  0  0  0
    8.1124   -3.3301    4.1629 C   0  0  0  0  0  0  0  0  0  0  0  0
   11.4838   -2.8428    3.9928 H   0  0  0  0  0  0  0  0  0  0  0  0
   10.7932   -1.5678    1.9808 H   0  0  0  0  0  0  0  0  0  0  0  0
    8.4184   -1.4312    1.3567 H   0  0  0  0  0  0  0  0  0  0  0  0
    5.9664   -1.7731    3.2719 H   0  0  0  0  0  0  0  0  0  0  0  0
    3.9851   -1.4543    1.9767 H   0  0  0  0  0  0  0  0  0  0  0  0
    4.1575   -2.4393   -2.0079 H   0  0  0  0  0  0  0  0  0  0  0  0
    7.5826   -5.1976   -0.7094 H   0  0  0  0  0  0  0  0  0  0  0  0
    8.7555   -5.4272   -4.6389 H   0  0  0  0  0  0  0  0  0  0  0  0
    7.2612   -3.9736   -6.2868 H   0  0  0  0  0  0  0  0  0  0  0  0
    7.3824   -1.2509   -5.0421 H   0  0  0  0  0  0  0  0  0  0  0  0
    6.0540   -1.8371   -6.0666 H   0  0  0  0  0  0  0  0  0  0  0  0
    7.6731   -2.0719   -7.9695 H   0  0  0  0  0  0  0  0  0  0  0  0
    8.9997   -1.6038   -6.9163 H   0  0  0  0  0  0  0  0  0  0  0  0
    7.8875    0.6322   -6.5131 H   0  0  0  0  0  0  0  0  0  0  0  0
    6.5881    0.1758   -7.5939 H   0  0  0  0  0  0  0  0  0  0  0  0
    6.9988   -0.0242  -10.0748 H   0  0  0  0  0  0  0  0  0  0  0  0
    8.3764    0.8740  -11.9387 H   0  0  0  0  0  0  0  0  0  0  0  0
   11.3712    2.0644   -9.3787 H   0  0  0  0  0  0  0  0  0  0  0  0
   10.1451    1.2199   -7.3878 H   0  0  0  0  0  0  0  0  0  0  0  0
    6.0379   -2.3181   -3.4971 H   0  0  0  0  0  0  0  0  0  0  0  0
    7.3670   -3.8209    4.7819 H   0  0  0  0  0  0  0  0  0  0  0  0
  1  2  1  0  0  0  0
  2  3  1  0  0  0  0
  2 30  2  0  0  0  0
  3  4  2  0  0  0  0
  3 31  1  0  0  0  0
  4  5  1  0  0  0  0
  4 32  1  0  0  0  0
  5  6  2  0  0  0  0
  5 33  1  0  0  0  0
  6  7  1  0  0  0  0
  6 30  1  0  0  0  0
  7  8  1  0  0  0  0
  7 34  1  0  0  0  0
  8  9  1  0  0  0  0
  8 29  2  0  0  0  0
  9 10  2  0  0  0  0
  9 35  1  0  0  0  0
 10 11  1  0  0  0  0
 11 12  2  0  0  0  0
 11 36  1  0  0  0  0
 12 13  1  0  0  0  0
 12 29  1  0  0  0  0
 13 14  1  0  0  0  0
 13 28  2  0  0  0  0
 14 15  2  0  0  0  0
 14 37  1  0  0  0  0
 15 16  1  0  0  0  0
 16 17  2  0  0  0  0
 16 38  1  0  0  0  0
 17 18  1  0  0  0  0
 17 28  1  0  0  0  0
 18 19  1  0  0  0  0
 18 39  1  0  0  0  0
 19 20  1  0  0  0  0
 19 40  1  0  0  0  0
 19 41  1  0  0  0  0
 20 21  1  0  0  0  0
 20 42  1  0  0  0  0
 20 43  1  0  0  0  0
 21 22  1  0  0  0  0
 21 44  1  0  0  0  0
 21 45  1  0  0  0  0
 22 23  1  0  0  0  0
 22 27  2  0  0  0  0
 23 24  2  0  0  0  0
 23 46  1  0  0  0  0
 24 25  1  0  0  0  0
 24 47  1  0  0  0  0
 25 26  2  0  0  0  0
 26 27  1  0  0  0  0
 26 48  1  0  0  0  0
 27 49  1  0  0  0  0
 28 50  1  0  0  0  0
 30 51  1  0  0  0  0
M  END
$$$$
