CHEMBL3903823
 OpenBabel04072215373D

 51 54  0  0  0  0  0  0  0  0999 V2000
    0.9217    0.4660    1.2306 C   0  0  0  0  0  0  0  0  0  0  0  0
    2.3437    0.4389    1.1809 O   0  0  0  0  0  0  0  0  0  0  0  0
    2.9690    1.4674    0.5247 C   0  0  0  0  0  0  0  0  0  0  0  0
    2.3302    2.5424   -0.0909 C   0  0  0  0  0  0  0  0  0  0  0  0
    3.1037    3.5041   -0.7278 C   0  0  0  0  0  0  0  0  0  0  0  0
    2.5333    4.5816   -1.3431 O   0  0  0  0  0  0  0  0  0  0  0  0
    4.4937    3.4077   -0.7565 C   0  0  0  0  0  0  0  0  0  0  0  0
    5.1738    2.3520   -0.1216 C   0  0  0  0  0  0  0  0  0  0  0  0
    6.5914    2.3180   -0.1082 N   0  0  0  0  0  0  0  0  0  0  0  0
    7.2792    0.9970   -0.1205 C   0  0  0  0  0  0  0  0  0  0  0  0
    8.2844    0.8496    1.0528 C   0  0  0  0  0  0  0  0  0  0  0  0
    9.0828   -0.3798    0.9834 N   0  0  0  0  0  0  0  0  0  0  0  0
    7.4438    3.4565   -0.1356 C   0  0  0  0  0  0  0  0  0  0  0  0
    8.6604    3.4628   -0.8263 C   0  0  0  0  0  0  0  0  0  0  0  0
    9.5384    4.5418   -0.7214 C   0  0  0  0  0  0  0  0  0  0  0  0
    9.2164    5.6559    0.0320 C   0  0  0  0  0  0  0  0  0  0  0  0
   10.1051    6.6581    0.1152 N   0  0  0  0  0  0  0  0  0  0  0  0
    9.7204    7.7296    0.8429 C   0  0  0  0  0  0  0  0  0  0  0  0
    8.4869    7.8169    1.4712 C   0  0  0  0  0  0  0  0  0  0  0  0
    8.0847    9.0121    2.1867 C   0  0  0  0  0  0  0  0  0  0  0  0
    8.7536   10.2417    2.3845 C   0  0  0  0  0  0  0  0  0  0  0  0
    8.0326   11.1204    3.0821 N   0  0  0  0  0  0  0  0  0  0  0  0
    6.8878   10.4590    3.3290 N   0  0  0  0  0  0  0  0  0  0  0  0
    5.8193   11.1117    4.0447 C   0  0  0  0  0  0  0  0  0  0  0  0
    6.8731    9.1925    2.8215 C   0  0  0  0  0  0  0  0  0  0  0  0
    7.6008    6.7924    1.4112 N   0  0  0  0  0  0  0  0  0  0  0  0
    7.9652    5.7091    0.6917 C   0  0  0  0  0  0  0  0  0  0  0  0
    7.1164    4.6119    0.5998 C   0  0  0  0  0  0  0  0  0  0  0  0
    4.3736    1.3837    0.5086 C   0  0  0  0  0  0  0  0  0  0  0  0
    0.5872   -0.4461    1.7344 H   0  0  0  0  0  0  0  0  0  0  0  0
    0.4849    0.4668    0.2262 H   0  0  0  0  0  0  0  0  0  0  0  0
    0.5663    1.3205    1.8160 H   0  0  0  0  0  0  0  0  0  0  0  0
    1.2523    2.6425   -0.0827 H   0  0  0  0  0  0  0  0  0  0  0  0
    1.5747    4.5664   -1.1896 H   0  0  0  0  0  0  0  0  0  0  0  0
    5.0477    4.1769   -1.2894 H   0  0  0  0  0  0  0  0  0  0  0  0
    7.7922    0.8607   -1.0814 H   0  0  0  0  0  0  0  0  0  0  0  0
    6.5760    0.1580   -0.0764 H   0  0  0  0  0  0  0  0  0  0  0  0
    7.7509    0.8868    2.0082 H   0  0  0  0  0  0  0  0  0  0  0  0
    8.9984    1.6786    1.0671 H   0  0  0  0  0  0  0  0  0  0  0  0
    8.4991   -1.1797    1.2266 H   0  0  0  0  0  0  0  0  0  0  0  0
    9.8097   -0.3367    1.6983 H   0  0  0  0  0  0  0  0  0  0  0  0
    8.9655    2.6220   -1.4427 H   0  0  0  0  0  0  0  0  0  0  0  0
   10.4975    4.5045   -1.2333 H   0  0  0  0  0  0  0  0  0  0  0  0
   10.4536    8.5278    0.8895 H   0  0  0  0  0  0  0  0  0  0  0  0
    9.7367   10.5432    2.0442 H   0  0  0  0  0  0  0  0  0  0  0  0
    6.1455   12.1061    4.3611 H   0  0  0  0  0  0  0  0  0  0  0  0
    5.5687   10.5062    4.9188 H   0  0  0  0  0  0  0  0  0  0  0  0
    4.9606   11.1970    3.3744 H   0  0  0  0  0  0  0  0  0  0  0  0
    6.0184    8.5383    2.9389 H   0  0  0  0  0  0  0  0  0  0  0  0
    6.1809    4.6499    1.1569 H   0  0  0  0  0  0  0  0  0  0  0  0
    4.8263    0.5533    1.0427 H   0  0  0  0  0  0  0  0  0  0  0  0
  1  2  1  0  0  0  0
  1 30  1  0  0  0  0
  1 31  1  0  0  0  0
  1 32  1  0  0  0  0
  2  3  1  0  0  0  0
  3  4  1  0  0  0  0
  3 29  2  0  0  0  0
  4  5  2  0  0  0  0
  4 33  1  0  0  0  0
  5  6  1  0  0  0  0
  5  7  1  0  0  0  0
  6 34  1  0  0  0  0
  7  8  2  0  0  0  0
  7 35  1  0  0  0  0
  8  9  1  0  0  0  0
  8 29  1  0  0  0  0
  9 10  1  0  0  0  0
  9 13  1  0  0  0  0
 10 11  1  0  0  0  0
 10 36  1  0  0  0  0
 10 37  1  0  0  0  0
 11 12  1  0  0  0  0
 11 38  1  0  0  0  0
 11 39  1  0  0  0  0
 12 40  1  0  0  0  0
 12 41  1  0  0  0  0
 13 14  1  0  0  0  0
 13 28  2  0  0  0  0
 14 15  2  0  0  0  0
 14 42  1  0  0  0  0
 15 16  1  0  0  0  0
 15 43  1  0  0  0  0
 16 17  1  0  0  0  0
 16 27  2  0  0  0  0
 17 18  2  0  0  0  0
 18 19  1  0  0  0  0
 18 44  1  0  0  0  0
 19 20  1  0  0  0  0
 19 26  2  0  0  0  0
 20 21  1  0  0  0  0
 20 25  2  0  0  0  0
 21 22  2  0  0  0  0
 21 45  1  0  0  0  0
 22 23  1  0  0  0  0
 23 24  1  0  0  0  0
 23 25  1  0  0  0  0
 24 46  1  0  0  0  0
 24 47  1  0  0  0  0
 24 48  1  0  0  0  0
 25 49  1  0  0  0  0
 26 27  1  0  0  0  0
 27 28  1  0  0  0  0
 28 50  1  0  0  0  0
 29 51  1  0  0  0  0
M  END
$$$$
