CHEMBL454403
 OpenBabel04072215383D

 48 51  0  0  0  0  0  0  0  0999 V2000
    1.5193    1.6504    3.7734 C   0  0  0  0  0  0  0  0  0  0  0  0
    0.3424    1.1612    2.9712 C   0  0  0  0  0  0  0  0  0  0  0  0
   -0.3114    2.0744    2.1260 C   0  0  0  0  0  0  0  0  0  0  0  0
   -1.4195    1.6933    1.3574 C   0  0  0  0  0  0  0  0  0  0  0  0
   -2.0623    2.6174    0.4949 N   0  0  0  0  0  0  0  0  0  0  0  0
   -1.7350    3.9276    0.2420 C   0  0  0  0  0  0  0  0  0  0  0  0
   -2.7109    4.3822   -0.6120 C   0  0  0  0  0  0  0  0  0  0  0  0
   -2.8596    5.7171   -1.1733 C   0  0  0  0  0  0  0  0  0  0  0  0
   -3.4487    5.7990   -2.4523 C   0  0  0  0  0  0  0  0  0  0  0  0
   -3.6870    7.0273   -3.0633 C   0  0  0  0  0  0  0  0  0  0  0  0
   -3.3672    8.1963   -2.3912 C   0  0  0  0  0  0  0  0  0  0  0  0
   -2.7721    8.1347   -1.1294 C   0  0  0  0  0  0  0  0  0  0  0  0
   -2.4633    6.9077   -0.5101 C   0  0  0  0  0  0  0  0  0  0  0  0
   -1.8314    6.8665    0.7514 N   0  0  0  0  0  0  0  0  0  0  0  0
   -1.1017    8.0440    1.2120 C   0  0  0  0  0  0  0  0  0  0  0  0
   -0.0439    7.6522    2.2135 C   0  0  0  0  0  0  0  0  0  0  0  0
    0.9626    6.7437    1.8651 C   0  0  0  0  0  0  0  0  0  0  0  0
    1.9675    6.4754    2.7802 C   0  0  0  0  0  0  0  0  0  0  0  0
    2.0386    7.0432    4.0020 N   0  0  0  0  0  0  0  0  0  0  0  0
    1.0647    7.9225    4.3191 C   0  0  0  0  0  0  0  0  0  0  0  0
    0.0174    8.2553    3.4727 C   0  0  0  0  0  0  0  0  0  0  0  0
   -3.5573    3.3451   -0.9047 N   0  0  0  0  0  0  0  0  0  0  0  0
   -3.1549    2.2768   -0.2309 N   0  0  0  0  0  0  0  0  0  0  0  0
   -1.8966    0.3844    1.4511 C   0  0  0  0  0  0  0  0  0  0  0  0
   -1.2495   -0.5338    2.2788 C   0  0  0  0  0  0  0  0  0  0  0  0
   -0.1174   -0.1700    3.0373 C   0  0  0  0  0  0  0  0  0  0  0  0
    0.5288   -1.2561    3.8741 C   0  0  0  0  0  0  0  0  0  0  0  0
    1.6513   -0.8835    4.5459 F   0  0  0  0  0  0  0  0  0  0  0  0
   -0.3196   -1.7494    4.8198 F   0  0  0  0  0  0  0  0  0  0  0  0
    0.8989   -2.3289    3.1168 F   0  0  0  0  0  0  0  0  0  0  0  0
    1.6860    2.7242    3.6338 H   0  0  0  0  0  0  0  0  0  0  0  0
    2.4323    1.1348    3.4610 H   0  0  0  0  0  0  0  0  0  0  0  0
    1.3430    1.4907    4.8419 H   0  0  0  0  0  0  0  0  0  0  0  0
    0.0680    3.0962    2.0881 H   0  0  0  0  0  0  0  0  0  0  0  0
   -0.8798    4.4165    0.6746 H   0  0  0  0  0  0  0  0  0  0  0  0
   -3.7240    4.8898   -2.9855 H   0  0  0  0  0  0  0  0  0  0  0  0
   -4.1360    7.0664   -4.0519 H   0  0  0  0  0  0  0  0  0  0  0  0
   -3.5793    9.1610   -2.8441 H   0  0  0  0  0  0  0  0  0  0  0  0
   -2.5664    9.0802   -0.6356 H   0  0  0  0  0  0  0  0  0  0  0  0
   -2.4845    6.5218    1.4541 H   0  0  0  0  0  0  0  0  0  0  0  0
   -1.8020    8.7642    1.6513 H   0  0  0  0  0  0  0  0  0  0  0  0
   -0.5761    8.5399    0.3858 H   0  0  0  0  0  0  0  0  0  0  0  0
    0.9714    6.2701    0.8882 H   0  0  0  0  0  0  0  0  0  0  0  0
    2.7726    5.7863    2.5423 H   0  0  0  0  0  0  0  0  0  0  0  0
    1.1569    8.3786    5.3009 H   0  0  0  0  0  0  0  0  0  0  0  0
   -0.7193    8.9857    3.7903 H   0  0  0  0  0  0  0  0  0  0  0  0
   -2.7664    0.0561    0.8838 H   0  0  0  0  0  0  0  0  0  0  0  0
   -1.6314   -1.5540    2.3296 H   0  0  0  0  0  0  0  0  0  0  0  0
  1  2  1  0  0  0  0
  1 31  1  0  0  0  0
  1 32  1  0  0  0  0
  1 33  1  0  0  0  0
  2  3  1  0  0  0  0
  2 26  2  0  0  0  0
  3  4  2  0  0  0  0
  3 34  1  0  0  0  0
  4  5  1  0  0  0  0
  4 24  1  0  0  0  0
  5  6  1  0  0  0  0
  5 23  1  0  0  0  0
  6  7  2  0  0  0  0
  6 35  1  0  0  0  0
  7  8  1  0  0  0  0
  7 22  1  0  0  0  0
  8  9  1  0  0  0  0
  8 13  2  0  0  0  0
  9 10  2  0  0  0  0
  9 36  1  0  0  0  0
 10 11  1  0  0  0  0
 10 37  1  0  0  0  0
 11 12  2  0  0  0  0
 11 38  1  0  0  0  0
 12 13  1  0  0  0  0
 12 39  1  0  0  0  0
 13 14  1  0  0  0  0
 14 15  1  0  0  0  0
 14 40  1  0  0  0  0
 15 16  1  0  0  0  0
 15 41  1  0  0  0  0
 15 42  1  0  0  0  0
 16 17  1  0  0  0  0
 16 21  2  0  0  0  0
 17 18  2  0  0  0  0
 17 43  1  0  0  0  0
 18 19  1  0  0  0  0
 18 44  1  0  0  0  0
 19 20  2  0  0  0  0
 20 21  1  0  0  0  0
 20 45  1  0  0  0  0
 21 46  1  0  0  0  0
 22 23  2  0  0  0  0
 24 25  2  0  0  0  0
 24 47  1  0  0  0  0
 25 26  1  0  0  0  0
 25 48  1  0  0  0  0
 26 27  1  0  0  0  0
 27 28  1  0  0  0  0
 27 29  1  0  0  0  0
 27 30  1  0  0  0  0
M  END
$$$$
