CHEMBL3985498
 OpenBabel04072215373D

 60 62  0  0  0  0  0  0  0  0999 V2000
    3.3828   -1.6564    1.2607 C   0  0  0  0  0  0  0  0  0  0  0  0
    2.7026   -0.4743    1.4766 O   0  0  0  0  0  0  0  0  0  0  0  0
    3.2736    0.7408    1.6950 C   0  0  0  0  0  0  0  0  0  0  0  0
    2.5098    1.7208    2.3162 C   0  0  0  0  0  0  0  0  0  0  0  0
    3.0519    2.9760    2.6039 C   0  0  0  0  0  0  0  0  0  0  0  0
    2.2473    3.8762    3.2094 O   0  0  0  0  0  0  0  0  0  0  0  0
    2.5787    5.1872    3.4499 C   0  0  0  0  0  0  0  0  0  0  0  0
    1.4991    5.8274    4.3042 C   0  0  0  0  0  0  0  0  0  0  0  0
    1.8102    7.1697    4.5551 O   0  0  0  0  0  0  0  0  0  0  0  0
    4.3971    3.2644    2.2693 C   0  0  0  0  0  0  0  0  0  0  0  0
    5.1847    2.3110    1.6299 C   0  0  0  0  0  0  0  0  0  0  0  0
    6.5093    2.6250    1.1538 N   0  0  0  0  0  0  0  0  0  0  0  0
    6.7977    2.0509   -0.2079 C   0  0  0  0  0  0  0  0  0  0  0  0
    7.7720    0.8697   -0.2077 C   0  0  0  0  0  0  0  0  0  0  0  0
    8.9998    1.1695    0.5193 N   0  0  0  0  0  0  0  0  0  0  0  0
    7.4929    3.5970    1.7123 C   0  0  0  0  0  0  0  0  0  0  0  0
    8.0979    4.3567    0.7236 C   0  0  0  0  0  0  0  0  0  0  0  0
    9.2773    4.9354    0.8938 C   0  0  0  0  0  0  0  0  0  0  0  0
    9.8841    4.9339    2.0859 C   0  0  0  0  0  0  0  0  0  0  0  0
   11.1411    5.2992    2.0130 N   0  0  0  0  0  0  0  0  0  0  0  0
   11.8932    5.4666    3.0600 C   0  0  0  0  0  0  0  0  0  0  0  0
   11.3382    5.4929    4.3378 C   0  0  0  0  0  0  0  0  0  0  0  0
   12.2862    6.4294    5.2077 C   0  0  0  0  0  0  0  0  0  0  0  0
   13.6146    6.7364    4.7950 C   0  0  0  0  0  0  0  0  0  0  0  0
   14.1173    7.7527    5.4762 N   0  0  0  0  0  0  0  0  0  0  0  0
   13.2304    8.1372    6.3606 N   0  0  0  0  0  0  0  0  0  0  0  0
   13.5291    9.3444    7.1361 C   0  0  0  0  0  0  0  0  0  0  0  0
   12.1107    7.3335    6.2916 C   0  0  0  0  0  0  0  0  0  0  0  0
   10.0141    4.9407    4.4581 N   0  0  0  0  0  0  0  0  0  0  0  0
    9.3077    4.5515    3.2946 C   0  0  0  0  0  0  0  0  0  0  0  0
    8.0182    3.7822    3.1079 C   0  0  0  0  0  0  0  0  0  0  0  0
    4.5976    1.0427    1.3367 C   0  0  0  0  0  0  0  0  0  0  0  0
    2.0149   -0.4387   -2.2564 Cl  0  0  0  0  0  0  0  0  0  0  0  0
    2.6506   -2.4854    1.1659 H   0  0  0  0  0  0  0  0  0  0  0  0
    4.0308   -1.8682    2.1384 H   0  0  0  0  0  0  0  0  0  0  0  0
    3.9931   -1.6169    0.3350 H   0  0  0  0  0  0  0  0  0  0  0  0
    1.4835    1.4987    2.5818 H   0  0  0  0  0  0  0  0  0  0  0  0
    2.6791    5.7297    2.4830 H   0  0  0  0  0  0  0  0  0  0  0  0
    3.5357    5.2326    4.0113 H   0  0  0  0  0  0  0  0  0  0  0  0
    1.3937    5.2737    5.2656 H   0  0  0  0  0  0  0  0  0  0  0  0
    0.5249    5.7770    3.7728 H   0  0  0  0  0  0  0  0  0  0  0  0
    2.6536    7.1722    5.0803 H   0  0  0  0  0  0  0  0  0  0  0  0
    4.8240    4.2385    2.4498 H   0  0  0  0  0  0  0  0  0  0  0  0
    7.1661    2.7576   -0.9570 H   0  0  0  0  0  0  0  0  0  0  0  0
    5.8740    1.7485   -0.7444 H   0  0  0  0  0  0  0  0  0  0  0  0
    8.0150    0.6080   -1.2663 H   0  0  0  0  0  0  0  0  0  0  0  0
    7.2844   -0.0076    0.2526 H   0  0  0  0  0  0  0  0  0  0  0  0
    9.5403    1.9034    0.0080 H   0  0  0  0  0  0  0  0  0  0  0  0
    9.5763    0.2976    0.5400 H   0  0  0  0  0  0  0  0  0  0  0  0
    7.7565    4.4529   -0.2779 H   0  0  0  0  0  0  0  0  0  0  0  0
    9.7722    5.3738    0.0395 H   0  0  0  0  0  0  0  0  0  0  0  0
   12.8584    5.7554    2.7540 H   0  0  0  0  0  0  0  0  0  0  0  0
   14.2223    6.3490    3.9979 H   0  0  0  0  0  0  0  0  0  0  0  0
   14.4742    9.8124    6.7438 H   0  0  0  0  0  0  0  0  0  0  0  0
   13.7047    9.1153    8.2010 H   0  0  0  0  0  0  0  0  0  0  0  0
   12.7451   10.1152    6.9894 H   0  0  0  0  0  0  0  0  0  0  0  0
   11.2289    7.4990    6.8933 H   0  0  0  0  0  0  0  0  0  0  0  0
    7.5369    3.2855    3.9544 H   0  0  0  0  0  0  0  0  0  0  0  0
    5.1627    0.2850    0.8193 H   0  0  0  0  0  0  0  0  0  0  0  0
    1.8253   -1.2948   -1.1980 H   0  0  0  0  0  0  0  0  0  0  0  0
  1  2  1  0  0  0  0
  1 34  1  0  0  0  0
  1 35  1  0  0  0  0
  1 36  1  0  0  0  0
  2  3  1  0  0  0  0
  3  4  1  0  0  0  0
  3 32  2  0  0  0  0
  4  5  2  0  0  0  0
  4 37  1  0  0  0  0
  5  6  1  0  0  0  0
  5 10  1  0  0  0  0
  6  7  1  0  0  0  0
  7  8  1  0  0  0  0
  7 38  1  0  0  0  0
  7 39  1  0  0  0  0
  8  9  1  0  0  0  0
  8 40  1  0  0  0  0
  8 41  1  0  0  0  0
  9 42  1  0  0  0  0
 10 11  2  0  0  0  0
 10 43  1  0  0  0  0
 11 12  1  0  0  0  0
 11 32  1  0  0  0  0
 12 13  1  0  0  0  0
 12 16  1  0  0  0  0
 13 14  1  0  0  0  0
 13 44  1  0  0  0  0
 13 45  1  0  0  0  0
 14 15  1  0  0  0  0
 14 46  1  0  0  0  0
 14 47  1  0  0  0  0
 15 48  1  0  0  0  0
 15 49  1  0  0  0  0
 16 17  1  0  0  0  0
 16 31  2  0  0  0  0
 17 18  2  0  0  0  0
 17 50  1  0  0  0  0
 18 19  1  0  0  0  0
 18 51  1  0  0  0  0
 19 20  1  0  0  0  0
 19 30  2  0  0  0  0
 20 21  2  0  0  0  0
 21 22  1  0  0  0  0
 21 52  1  0  0  0  0
 22 23  1  0  0  0  0
 22 29  2  0  0  0  0
 23 24  1  0  0  0  0
 23 28  2  0  0  0  0
 24 25  2  0  0  0  0
 24 53  1  0  0  0  0
 25 26  1  0  0  0  0
 26 27  1  0  0  0  0
 26 28  1  0  0  0  0
 27 54  1  0  0  0  0
 27 55  1  0  0  0  0
 27 56  1  0  0  0  0
 28 57  1  0  0  0  0
 29 30  1  0  0  0  0
 30 31  1  0  0  0  0
 31 58  1  0  0  0  0
 32 59  1  0  0  0  0
 33 60  1  0  0  0  0
M  END
$$$$
