CHEMBL4099624
 OpenBabel04072215383D

 63 67  0  0  0  0  0  0  0  0999 V2000
   -1.7598   -2.2108   -0.3797 C   0  0  0  0  0  0  0  0  0  0  0  0
   -0.8672   -1.0113   -0.2196 C   0  0  0  0  0  0  0  0  0  0  0  0
   -1.4768    0.2679   -0.2900 C   0  0  0  0  0  0  0  0  0  0  0  0
   -0.7556    1.4646   -0.2198 C   0  0  0  0  0  0  0  0  0  0  0  0
   -1.3180    2.7058   -0.4684 N   0  0  0  0  0  0  0  0  0  0  0  0
   -2.5899    2.8279   -1.1928 C   0  0  0  0  0  0  0  0  0  0  0  0
   -2.6261    4.1679   -1.9568 C   0  0  0  0  0  0  0  0  0  0  0  0
   -2.3987    5.3355   -1.0758 N   0  0  0  0  0  0  0  0  0  0  0  0
   -2.4156    6.5705   -1.8542 C   0  0  0  0  0  0  0  0  0  0  0  0
   -1.0983    5.1679   -0.3852 C   0  0  0  0  0  0  0  0  0  0  0  0
   -1.0193    3.8467    0.4163 C   0  0  0  0  0  0  0  0  0  0  0  0
    0.6083    1.3512    0.0241 C   0  0  0  0  0  0  0  0  0  0  0  0
    1.2277    0.1043    0.1245 C   0  0  0  0  0  0  0  0  0  0  0  0
    0.5237   -1.0934   -0.0393 C   0  0  0  0  0  0  0  0  0  0  0  0
    1.1992   -2.3489   -0.0606 N   0  0  0  0  0  0  0  0  0  0  0  0
    2.5713   -2.4965   -0.2173 C   0  0  0  0  0  0  0  0  0  0  0  0
    3.3683   -1.5721   -0.3406 O   0  0  0  0  0  0  0  0  0  0  0  0
    2.9777   -3.8261   -0.2818 N   0  0  0  0  0  0  0  0  0  0  0  0
    4.3595   -4.1218   -0.4453 C   0  0  0  0  0  0  0  0  0  0  0  0
    5.3432   -3.4314    0.2652 C   0  0  0  0  0  0  0  0  0  0  0  0
    6.6984   -3.5889   -0.0530 C   0  0  0  0  0  0  0  0  0  0  0  0
    7.1220   -4.4748   -1.0605 C   0  0  0  0  0  0  0  0  0  0  0  0
    8.5503   -4.5788   -1.4374 C   0  0  0  0  0  0  0  0  0  0  0  0
    9.5610   -4.4782   -0.4520 C   0  0  0  0  0  0  0  0  0  0  0  0
   10.9030   -4.5611   -0.7927 C   0  0  0  0  0  0  0  0  0  0  0  0
   11.3732   -4.7499   -2.0356 N   0  0  0  0  0  0  0  0  0  0  0  0
   10.3963   -4.8347   -2.9552 C   0  0  0  0  0  0  0  0  0  0  0  0
   10.6167   -5.0182   -4.2838 N   0  0  0  0  0  0  0  0  0  0  0  0
    9.4998   -5.0497   -5.0209 N   0  0  0  0  0  0  0  0  0  0  0  0
    8.5171   -4.8625   -4.1228 C   0  0  0  0  0  0  0  0  0  0  0  0
    7.1307   -4.7980   -4.6537 C   0  0  0  0  0  0  0  0  0  0  0  0
    9.0151   -4.7544   -2.7752 C   0  0  0  0  0  0  0  0  0  0  0  0
    6.1225   -5.2631   -1.6512 C   0  0  0  0  0  0  0  0  0  0  0  0
    4.7566   -5.0772   -1.3733 C   0  0  0  0  0  0  0  0  0  0  0  0
   -2.7613   -1.9166   -0.7176 H   0  0  0  0  0  0  0  0  0  0  0  0
   -1.8725   -2.7335    0.5744 H   0  0  0  0  0  0  0  0  0  0  0  0
   -1.3659   -2.8945   -1.1376 H   0  0  0  0  0  0  0  0  0  0  0  0
   -2.5562    0.3133   -0.4186 H   0  0  0  0  0  0  0  0  0  0  0  0
   -3.4273    2.7601   -0.4898 H   0  0  0  0  0  0  0  0  0  0  0  0
   -2.6962    2.0274   -1.9346 H   0  0  0  0  0  0  0  0  0  0  0  0
   -3.6042    4.2556   -2.4432 H   0  0  0  0  0  0  0  0  0  0  0  0
   -1.8660    4.1411   -2.7509 H   0  0  0  0  0  0  0  0  0  0  0  0
   -3.3889    6.6993   -2.3406 H   0  0  0  0  0  0  0  0  0  0  0  0
   -1.6392    6.5881   -2.6275 H   0  0  0  0  0  0  0  0  0  0  0  0
   -2.2722    7.4372   -1.2002 H   0  0  0  0  0  0  0  0  0  0  0  0
   -0.9394    6.0032    0.3068 H   0  0  0  0  0  0  0  0  0  0  0  0
   -0.2767    5.1853   -1.1151 H   0  0  0  0  0  0  0  0  0  0  0  0
   -1.7449    3.8669    1.2398 H   0  0  0  0  0  0  0  0  0  0  0  0
   -0.0243    3.7855    0.8737 H   0  0  0  0  0  0  0  0  0  0  0  0
    1.2442    2.2303    0.0666 H   0  0  0  0  0  0  0  0  0  0  0  0
    2.2952    0.1304    0.3102 H   0  0  0  0  0  0  0  0  0  0  0  0
    0.6341   -3.1829   -0.0511 H   0  0  0  0  0  0  0  0  0  0  0  0
    2.3295   -4.4477   -0.7412 H   0  0  0  0  0  0  0  0  0  0  0  0
    5.0674   -2.7264    1.0471 H   0  0  0  0  0  0  0  0  0  0  0  0
    7.4125   -2.9736    0.4914 H   0  0  0  0  0  0  0  0  0  0  0  0
    9.3071   -4.3393    0.5949 H   0  0  0  0  0  0  0  0  0  0  0  0
   11.6688   -4.4742   -0.0253 H   0  0  0  0  0  0  0  0  0  0  0  0
   11.5146   -5.1175   -4.7395 H   0  0  0  0  0  0  0  0  0  0  0  0
    7.1299   -4.6480   -5.7399 H   0  0  0  0  0  0  0  0  0  0  0  0
    6.5734   -3.9693   -4.2097 H   0  0  0  0  0  0  0  0  0  0  0  0
    6.6037   -5.7396   -4.4744 H   0  0  0  0  0  0  0  0  0  0  0  0
    6.3945   -6.0316   -2.3671 H   0  0  0  0  0  0  0  0  0  0  0  0
    4.0253   -5.6384   -1.9468 H   0  0  0  0  0  0  0  0  0  0  0  0
  1  2  1  0  0  0  0
  1 35  1  0  0  0  0
  1 36  1  0  0  0  0
  1 37  1  0  0  0  0
  2  3  1  0  0  0  0
  2 14  2  0  0  0  0
  3  4  2  0  0  0  0
  3 38  1  0  0  0  0
  4  5  1  0  0  0  0
  4 12  1  0  0  0  0
  5  6  1  0  0  0  0
  5 11  1  0  0  0  0
  6  7  1  0  0  0  0
  6 39  1  0  0  0  0
  6 40  1  0  0  0  0
  7  8  1  0  0  0  0
  7 41  1  0  0  0  0
  7 42  1  0  0  0  0
  8  9  1  0  0  0  0
  8 10  1  0  0  0  0
  9 43  1  0  0  0  0
  9 44  1  0  0  0  0
  9 45  1  0  0  0  0
 10 11  1  0  0  0  0
 10 46  1  0  0  0  0
 10 47  1  0  0  0  0
 11 48  1  0  0  0  0
 11 49  1  0  0  0  0
 12 13  2  0  0  0  0
 12 50  1  0  0  0  0
 13 14  1  0  0  0  0
 13 51  1  0  0  0  0
 14 15  1  0  0  0  0
 15 16  1  0  0  0  0
 15 52  1  0  0  0  0
 16 17  2  0  0  0  0
 16 18  1  0  0  0  0
 18 19  1  0  0  0  0
 18 53  1  0  0  0  0
 19 20  1  0  0  0  0
 19 34  2  0  0  0  0
 20 21  2  0  0  0  0
 20 54  1  0  0  0  0
 21 22  1  0  0  0  0
 21 55  1  0  0  0  0
 22 23  1  0  0  0  0
 22 33  2  0  0  0  0
 23 24  1  0  0  0  0
 23 32  2  0  0  0  0
 24 25  2  0  0  0  0
 24 56  1  0  0  0  0
 25 26  1  0  0  0  0
 25 57  1  0  0  0  0
 26 27  2  0  0  0  0
 27 28  1  0  0  0  0
 27 32  1  0  0  0  0
 28 29  1  0  0  0  0
 28 58  1  0  0  0  0
 29 30  2  0  0  0  0
 30 31  1  0  0  0  0
 30 32  1  0  0  0  0
 31 59  1  0  0  0  0
 31 60  1  0  0  0  0
 31 61  1  0  0  0  0
 33 34  1  0  0  0  0
 33 62  1  0  0  0  0
 34 63  1  0  0  0  0
M  END
$$$$
