CHEMBL204548
 OpenBabel04072215363D

 42 45  0  0  0  0  0  0  0  0999 V2000
    2.7931   -0.9761    0.1812 O   0  0  0  0  0  0  0  0  0  0  0  0
    2.1832    0.0870    0.1952 C   0  0  0  0  0  0  0  0  0  0  0  0
    0.8255    0.2532    0.4113 N   0  0  0  0  0  0  0  0  0  0  0  0
   -0.1310   -0.7566    0.6573 C   0  0  0  0  0  0  0  0  0  0  0  0
    0.1479   -2.1252    0.5866 C   0  0  0  0  0  0  0  0  0  0  0  0
   -0.8495   -3.0712    0.8517 C   0  0  0  0  0  0  0  0  0  0  0  0
   -2.1368   -2.6622    1.1990 C   0  0  0  0  0  0  0  0  0  0  0  0
   -3.3083   -3.8844    1.5380 Cl  0  0  0  0  0  0  0  0  0  0  0  0
   -2.4288   -1.2978    1.2658 C   0  0  0  0  0  0  0  0  0  0  0  0
   -3.9990   -0.7089    1.6863 Cl  0  0  0  0  0  0  0  0  0  0  0  0
   -1.4293   -0.3518    0.9914 C   0  0  0  0  0  0  0  0  0  0  0  0
    2.9601    1.3455    0.0008 C   0  0  0  0  0  0  0  0  0  0  0  0
    2.7185    2.4028    0.8999 C   0  0  0  0  0  0  0  0  0  0  0  0
    3.4731    3.5728    0.8421 C   0  0  0  0  0  0  0  0  0  0  0  0
    4.4947    3.6891   -0.0919 C   0  0  0  0  0  0  0  0  0  0  0  0
    4.7468    2.6463   -0.9847 C   0  0  0  0  0  0  0  0  0  0  0  0
    3.9813    1.4611   -0.9678 C   0  0  0  0  0  0  0  0  0  0  0  0
    4.2951    0.4050   -2.0075 C   0  0  0  0  0  0  0  0  0  0  0  0
    3.5727    0.6259   -3.2625 N   0  0  0  0  0  0  0  0  0  0  0  0
    4.0015    1.4687   -4.2625 C   0  0  0  0  0  0  0  0  0  0  0  0
    3.1357    1.3526   -5.3254 C   0  0  0  0  0  0  0  0  0  0  0  0
    2.1488    0.3923   -4.9760 C   0  0  0  0  0  0  0  0  0  0  0  0
    1.0432   -0.1511   -5.6440 C   0  0  0  0  0  0  0  0  0  0  0  0
    0.2651   -1.0876   -5.0498 N   0  0  0  0  0  0  0  0  0  0  0  0
    0.5863   -1.5000   -3.8067 C   0  0  0  0  0  0  0  0  0  0  0  0
    1.6635   -1.0357   -3.0701 C   0  0  0  0  0  0  0  0  0  0  0  0
    2.4457   -0.0549   -3.6841 C   0  0  0  0  0  0  0  0  0  0  0  0
    0.4724    1.2039    0.4075 H   0  0  0  0  0  0  0  0  0  0  0  0
    1.1318   -2.4947    0.3194 H   0  0  0  0  0  0  0  0  0  0  0  0
   -0.6065   -4.1292    0.7854 H   0  0  0  0  0  0  0  0  0  0  0  0
   -1.6772    0.7045    1.0574 H   0  0  0  0  0  0  0  0  0  0  0  0
    1.9682    2.3118    1.6822 H   0  0  0  0  0  0  0  0  0  0  0  0
    3.2800    4.3828    1.5415 H   0  0  0  0  0  0  0  0  0  0  0  0
    5.1035    4.5902   -0.1233 H   0  0  0  0  0  0  0  0  0  0  0  0
    5.5596    2.7646   -1.7002 H   0  0  0  0  0  0  0  0  0  0  0  0
    4.1134   -0.6180   -1.6763 H   0  0  0  0  0  0  0  0  0  0  0  0
    5.3647    0.4363   -2.2573 H   0  0  0  0  0  0  0  0  0  0  0  0
    4.8904    2.0745   -4.1445 H   0  0  0  0  0  0  0  0  0  0  0  0
    3.2128    1.8853   -6.2642 H   0  0  0  0  0  0  0  0  0  0  0  0
    0.7637    0.1377   -6.6509 H   0  0  0  0  0  0  0  0  0  0  0  0
   -0.0717   -2.2590   -3.3911 H   0  0  0  0  0  0  0  0  0  0  0  0
    1.8748   -1.4298   -2.0870 H   0  0  0  0  0  0  0  0  0  0  0  0
  1  2  2  0  0  0  0
  2  3  1  0  0  0  0
  2 12  1  0  0  0  0
  3  4  1  0  0  0  0
  3 28  1  0  0  0  0
  4  5  1  0  0  0  0
  4 11  2  0  0  0  0
  5  6  2  0  0  0  0
  5 29  1  0  0  0  0
  6  7  1  0  0  0  0
  6 30  1  0  0  0  0
  7  8  1  0  0  0  0
  7  9  2  0  0  0  0
  9 10  1  0  0  0  0
  9 11  1  0  0  0  0
 11 31  1  0  0  0  0
 12 13  1  0  0  0  0
 12 17  2  0  0  0  0
 13 14  2  0  0  0  0
 13 32  1  0  0  0  0
 14 15  1  0  0  0  0
 14 33  1  0  0  0  0
 15 16  2  0  0  0  0
 15 34  1  0  0  0  0
 16 17  1  0  0  0  0
 16 35  1  0  0  0  0
 17 18  1  0  0  0  0
 18 19  1  0  0  0  0
 18 36  1  0  0  0  0
 18 37  1  0  0  0  0
 19 20  1  0  0  0  0
 19 27  1  0  0  0  0
 20 21  2  0  0  0  0
 20 38  1  0  0  0  0
 21 22  1  0  0  0  0
 21 39  1  0  0  0  0
 22 23  1  0  0  0  0
 22 27  2  0  0  0  0
 23 24  2  0  0  0  0
 23 40  1  0  0  0  0
 24 25  1  0  0  0  0
 25 26  2  0  0  0  0
 25 41  1  0  0  0  0
 26 27  1  0  0  0  0
 26 42  1  0  0  0  0
M  END
$$$$
