CHEMBL495762
 OpenBabel04072215383D

 50 54  0  0  0  0  0  0  0  0999 V2000
    2.0915   -1.1507   -1.0543 C   0  0  0  0  0  0  0  0  0  0  0  0
    0.9408   -0.3104   -0.7308 N   0  0  0  0  0  0  0  0  0  0  0  0
   -0.2531   -0.7572   -1.4903 C   0  0  0  0  0  0  0  0  0  0  0  0
   -1.5365    0.0284   -1.1223 C   0  0  0  0  0  0  0  0  0  0  0  0
   -1.7541   -0.0862    0.3261 N   0  0  0  0  0  0  0  0  0  0  0  0
   -3.0231   -0.0391    0.8796 C   0  0  0  0  0  0  0  0  0  0  0  0
   -3.2473   -0.6490    2.1298 C   0  0  0  0  0  0  0  0  0  0  0  0
   -4.5016   -0.6969    2.7502 C   0  0  0  0  0  0  0  0  0  0  0  0
   -5.5489   -0.1122    2.0509 C   0  0  0  0  0  0  0  0  0  0  0  0
   -6.8778    0.0379    2.3388 N   0  0  0  0  0  0  0  0  0  0  0  0
   -7.4914    0.6544    1.2729 C   0  0  0  0  0  0  0  0  0  0  0  0
   -8.9007    0.8926    1.3023 C   0  0  0  0  0  0  0  0  0  0  0  0
   -9.5948    0.9680    0.1365 C   0  0  0  0  0  0  0  0  0  0  0  0
   -9.0092    0.6897   -1.0937 N   0  0  0  0  0  0  0  0  0  0  0  0
  -11.0397    1.3801    0.1529 C   0  0  0  0  0  0  0  0  0  0  0  0
  -11.8760    1.5693   -0.9729 C   0  0  0  0  0  0  0  0  0  0  0  0
  -11.4004    1.2728   -2.6155 Cl  0  0  0  0  0  0  0  0  0  0  0  0
  -13.1924    2.0425   -0.8320 C   0  0  0  0  0  0  0  0  0  0  0  0
  -13.7193    2.3219    0.4225 C   0  0  0  0  0  0  0  0  0  0  0  0
  -12.9364    2.1140    1.5477 C   0  0  0  0  0  0  0  0  0  0  0  0
  -11.6202    1.6549    1.4112 C   0  0  0  0  0  0  0  0  0  0  0  0
  -10.8873    1.4760    2.5855 N   0  0  0  0  0  0  0  0  0  0  0  0
   -9.5877    1.0768    2.6163 C   0  0  0  0  0  0  0  0  0  0  0  0
   -9.0267    0.8715    3.6913 O   0  0  0  0  0  0  0  0  0  0  0  0
   -6.6001    0.9358    0.3331 N   0  0  0  0  0  0  0  0  0  0  0  0
   -5.3951    0.4795    0.8069 C   0  0  0  0  0  0  0  0  0  0  0  0
   -4.1223    0.5283    0.2163 C   0  0  0  0  0  0  0  0  0  0  0  0
   -0.6172    0.4144    1.1183 C   0  0  0  0  0  0  0  0  0  0  0  0
    0.6544   -0.3703    0.7231 C   0  0  0  0  0  0  0  0  0  0  0  0
    2.3226   -1.0879   -2.1230 H   0  0  0  0  0  0  0  0  0  0  0  0
    1.9230   -2.2036   -0.7995 H   0  0  0  0  0  0  0  0  0  0  0  0
    2.9806   -0.8048   -0.5161 H   0  0  0  0  0  0  0  0  0  0  0  0
   -0.4379   -1.8241   -1.3008 H   0  0  0  0  0  0  0  0  0  0  0  0
   -0.0703   -0.6412   -2.5648 H   0  0  0  0  0  0  0  0  0  0  0  0
   -2.3693   -0.4047   -1.6886 H   0  0  0  0  0  0  0  0  0  0  0  0
   -1.4360    1.0820   -1.4127 H   0  0  0  0  0  0  0  0  0  0  0  0
   -2.4207   -1.1504    2.6295 H   0  0  0  0  0  0  0  0  0  0  0  0
   -4.6412   -1.1870    3.7062 H   0  0  0  0  0  0  0  0  0  0  0  0
   -7.3404   -0.2288    3.1992 H   0  0  0  0  0  0  0  0  0  0  0  0
   -7.9835    0.7604   -1.0638 H   0  0  0  0  0  0  0  0  0  0  0  0
   -9.3984    1.2056   -1.8779 H   0  0  0  0  0  0  0  0  0  0  0  0
  -13.8118    2.2032   -1.7124 H   0  0  0  0  0  0  0  0  0  0  0  0
  -14.7331    2.7009    0.5193 H   0  0  0  0  0  0  0  0  0  0  0  0
  -13.3546    2.3265    2.5290 H   0  0  0  0  0  0  0  0  0  0  0  0
  -11.3197    1.6251    3.4887 H   0  0  0  0  0  0  0  0  0  0  0  0
   -4.0199    1.0176   -0.7442 H   0  0  0  0  0  0  0  0  0  0  0  0
   -0.7710    0.3073    2.1975 H   0  0  0  0  0  0  0  0  0  0  0  0
   -0.4748    1.4853    0.9214 H   0  0  0  0  0  0  0  0  0  0  0  0
    0.5276   -1.4148    1.0401 H   0  0  0  0  0  0  0  0  0  0  0  0
    1.5032    0.0425    1.2808 H   0  0  0  0  0  0  0  0  0  0  0  0
  1  2  1  0  0  0  0
  1 30  1  0  0  0  0
  1 31  1  0  0  0  0
  1 32  1  0  0  0  0
  2  3  1  0  0  0  0
  2 29  1  0  0  0  0
  3  4  1  0  0  0  0
  3 33  1  0  0  0  0
  3 34  1  0  0  0  0
  4  5  1  0  0  0  0
  4 35  1  0  0  0  0
  4 36  1  0  0  0  0
  5  6  1  0  0  0  0
  5 28  1  0  0  0  0
  6  7  1  0  0  0  0
  6 27  2  0  0  0  0
  7  8  2  0  0  0  0
  7 37  1  0  0  0  0
  8  9  1  0  0  0  0
  8 38  1  0  0  0  0
  9 10  1  0  0  0  0
  9 26  2  0  0  0  0
 10 11  1  0  0  0  0
 10 39  1  0  0  0  0
 11 12  1  0  0  0  0
 11 25  2  0  0  0  0
 12 13  2  0  0  0  0
 12 23  1  0  0  0  0
 13 14  1  0  0  0  0
 13 15  1  0  0  0  0
 14 40  1  0  0  0  0
 14 41  1  0  0  0  0
 15 16  1  0  0  0  0
 15 21  2  0  0  0  0
 16 17  1  0  0  0  0
 16 18  2  0  0  0  0
 18 19  1  0  0  0  0
 18 42  1  0  0  0  0
 19 20  2  0  0  0  0
 19 43  1  0  0  0  0
 20 21  1  0  0  0  0
 20 44  1  0  0  0  0
 21 22  1  0  0  0  0
 22 23  1  0  0  0  0
 22 45  1  0  0  0  0
 23 24  2  0  0  0  0
 25 26  1  0  0  0  0
 26 27  1  0  0  0  0
 27 46  1  0  0  0  0
 28 29  1  0  0  0  0
 28 47  1  0  0  0  0
 28 48  1  0  0  0  0
 29 49  1  0  0  0  0
 29 50  1  0  0  0  0
M  END
$$$$
