CHEMBL4293912
 OpenBabel04072215383D

 47 50  0  0  0  0  0  0  0  0999 V2000
    2.5167   -0.2201    0.4112 C   0  0  0  0  0  0  0  0  0  0  0  0
    1.0258   -0.0926    0.3016 C   0  0  0  0  0  0  0  0  0  0  0  0
    0.4032   -0.0114   -0.9476 C   0  0  0  0  0  0  0  0  0  0  0  0
   -0.9896    0.0629   -1.0431 C   0  0  0  0  0  0  0  0  0  0  0  0
   -1.7810    0.0895    0.1140 C   0  0  0  0  0  0  0  0  0  0  0  0
   -3.2921    0.0933    0.0434 C   0  0  0  0  0  0  0  0  0  0  0  0
   -3.8985   -0.4941    1.0340 N   0  0  0  0  0  0  0  0  0  0  0  0
   -5.2751   -0.7024    0.9775 C   0  0  0  0  0  0  0  0  0  0  0  0
   -6.0922   -1.0197   -0.1311 C   0  0  0  0  0  0  0  0  0  0  0  0
   -7.3391   -1.3208    0.2518 N   0  0  0  0  0  0  0  0  0  0  0  0
   -7.3130   -1.1467    1.5799 N   0  0  0  0  0  0  0  0  0  0  0  0
   -6.0948   -0.7574    2.0758 C   0  0  0  0  0  0  0  0  0  0  0  0
   -5.8503   -0.4885    3.5060 C   0  0  0  0  0  0  0  0  0  0  0  0
   -5.6989   -0.9204   -1.4171 N   0  0  0  0  0  0  0  0  0  0  0  0
   -4.9982    0.2143   -1.8409 C   0  0  0  0  0  0  0  0  0  0  0  0
   -5.4966    0.8037   -2.9455 N   0  0  0  0  0  0  0  0  0  0  0  0
   -4.9305    1.9330   -3.3746 C   0  0  0  0  0  0  0  0  0  0  0  0
   -5.4256    2.5792   -4.4783 N   0  0  0  0  0  0  0  0  0  0  0  0
   -6.7256    2.2418   -5.0205 C   0  0  0  0  0  0  0  0  0  0  0  0
   -7.2330    3.4551   -5.8018 C   0  0  0  0  0  0  0  0  0  0  0  0
   -6.6694    1.0153   -5.9238 C   0  0  0  0  0  0  0  0  0  0  0  0
   -3.8879    2.5117   -2.7706 N   0  0  0  0  0  0  0  0  0  0  0  0
   -3.4417    1.9301   -1.6398 C   0  0  0  0  0  0  0  0  0  0  0  0
   -3.9279    0.7408   -1.1425 C   0  0  0  0  0  0  0  0  0  0  0  0
   -1.1553    0.0168    1.3650 C   0  0  0  0  0  0  0  0  0  0  0  0
    0.2369   -0.0715    1.4575 C   0  0  0  0  0  0  0  0  0  0  0  0
    2.9846   -0.3094   -0.5751 H   0  0  0  0  0  0  0  0  0  0  0  0
    2.7766   -1.1178    0.9821 H   0  0  0  0  0  0  0  0  0  0  0  0
    2.9370    0.6590    0.9084 H   0  0  0  0  0  0  0  0  0  0  0  0
    0.9958   -0.0307   -1.8600 H   0  0  0  0  0  0  0  0  0  0  0  0
   -1.4312    0.0677   -2.0361 H   0  0  0  0  0  0  0  0  0  0  0  0
   -8.1695   -1.3056    2.0976 H   0  0  0  0  0  0  0  0  0  0  0  0
   -6.7774   -0.5328    4.0862 H   0  0  0  0  0  0  0  0  0  0  0  0
   -5.4259    0.5125    3.6312 H   0  0  0  0  0  0  0  0  0  0  0  0
   -5.1490   -1.2165    3.9197 H   0  0  0  0  0  0  0  0  0  0  0  0
   -6.4506   -1.0745   -2.0828 H   0  0  0  0  0  0  0  0  0  0  0  0
   -4.6875    2.8898   -5.0954 H   0  0  0  0  0  0  0  0  0  0  0  0
   -7.4390    2.0596   -4.2062 H   0  0  0  0  0  0  0  0  0  0  0  0
   -6.5590    3.7076   -6.6282 H   0  0  0  0  0  0  0  0  0  0  0  0
   -7.2982    4.3345   -5.1507 H   0  0  0  0  0  0  0  0  0  0  0  0
   -8.2287    3.2671   -6.2159 H   0  0  0  0  0  0  0  0  0  0  0  0
   -5.9663    1.1566   -6.7504 H   0  0  0  0  0  0  0  0  0  0  0  0
   -7.6588    0.8097   -6.3475 H   0  0  0  0  0  0  0  0  0  0  0  0
   -6.3593    0.1228   -5.3716 H   0  0  0  0  0  0  0  0  0  0  0  0
   -2.6487    2.4791   -1.1377 H   0  0  0  0  0  0  0  0  0  0  0  0
   -1.7488    0.0049    2.2770 H   0  0  0  0  0  0  0  0  0  0  0  0
    0.7003   -0.1446    2.4392 H   0  0  0  0  0  0  0  0  0  0  0  0
  1  2  1  0  0  0  0
  1 27  1  0  0  0  0
  1 28  1  0  0  0  0
  1 29  1  0  0  0  0
  2  3  1  0  0  0  0
  2 26  2  0  0  0  0
  3  4  2  0  0  0  0
  3 30  1  0  0  0  0
  4  5  1  0  0  0  0
  4 31  1  0  0  0  0
  5  6  1  0  0  0  0
  5 25  2  0  0  0  0
  6  7  2  0  0  0  0
  6 24  1  0  0  0  0
  7  8  1  0  0  0  0
  8  9  1  0  0  0  0
  8 12  2  0  0  0  0
  9 10  2  0  0  0  0
  9 14  1  0  0  0  0
 10 11  1  0  0  0  0
 11 12  1  0  0  0  0
 11 32  1  0  0  0  0
 12 13  1  0  0  0  0
 13 33  1  0  0  0  0
 13 34  1  0  0  0  0
 13 35  1  0  0  0  0
 14 15  1  0  0  0  0
 14 36  1  0  0  0  0
 15 16  1  0  0  0  0
 15 24  2  0  0  0  0
 16 17  2  0  0  0  0
 17 18  1  0  0  0  0
 17 22  1  0  0  0  0
 18 19  1  0  0  0  0
 18 37  1  0  0  0  0
 19 20  1  0  0  0  0
 19 21  1  0  0  0  0
 19 38  1  0  0  0  0
 20 39  1  0  0  0  0
 20 40  1  0  0  0  0
 20 41  1  0  0  0  0
 21 42  1  0  0  0  0
 21 43  1  0  0  0  0
 21 44  1  0  0  0  0
 22 23  2  0  0  0  0
 23 24  1  0  0  0  0
 23 45  1  0  0  0  0
 25 26  1  0  0  0  0
 25 46  1  0  0  0  0
 26 47  1  0  0  0  0
M  END
$$$$
