CHEMBL3746357
 OpenBabel04072215373D

 51 55  0  0  0  0  0  0  0  0999 V2000
    2.4238    0.6535   -1.1666 O   0  0  0  0  0  0  0  0  0  0  0  0
    2.3767    0.0251   -0.1325 C   0  0  0  0  0  0  0  0  0  0  0  0
    1.2994   -0.2283    0.6835 N   0  0  0  0  0  0  0  0  0  0  0  0
   -0.0087    0.2364    0.4974 C   0  0  0  0  0  0  0  0  0  0  0  0
   -0.3433    1.2787   -0.3642 C   0  0  0  0  0  0  0  0  0  0  0  0
   -1.6793    1.6358   -0.5368 C   0  0  0  0  0  0  0  0  0  0  0  0
   -2.6842    0.9451    0.1383 C   0  0  0  0  0  0  0  0  0  0  0  0
   -2.3569   -0.0971    1.0181 C   0  0  0  0  0  0  0  0  0  0  0  0
   -3.4208   -0.8974    1.7276 C   0  0  0  0  0  0  0  0  0  0  0  0
   -4.6923   -0.5472    1.3925 F   0  0  0  0  0  0  0  0  0  0  0  0
   -3.3189   -2.2313    1.4661 F   0  0  0  0  0  0  0  0  0  0  0  0
   -3.3393   -0.7789    3.0813 F   0  0  0  0  0  0  0  0  0  0  0  0
   -1.0123   -0.4211    1.2130 C   0  0  0  0  0  0  0  0  0  0  0  0
    3.4980   -0.6802    0.3202 N   0  0  0  0  0  0  0  0  0  0  0  0
    3.7118   -1.0790    1.6414 C   0  0  0  0  0  0  0  0  0  0  0  0
    4.6962   -2.0347    1.5937 C   0  0  0  0  0  0  0  0  0  0  0  0
    5.5234   -1.5922    0.5392 C   0  0  0  0  0  0  0  0  0  0  0  0
    6.8803   -1.7256    0.2389 C   0  0  0  0  0  0  0  0  0  0  0  0
    7.3299   -1.2500   -0.9913 C   0  0  0  0  0  0  0  0  0  0  0  0
    8.6993   -1.2119   -1.1168 O   0  0  0  0  0  0  0  0  0  0  0  0
    9.2497   -0.4612   -2.1464 C   0  0  0  0  0  0  0  0  0  0  0  0
    8.7473    0.7642   -2.4049 N   0  0  0  0  0  0  0  0  0  0  0  0
    9.2732    1.3798   -3.4641 C   0  0  0  0  0  0  0  0  0  0  0  0
   10.2698    0.9021   -4.2397 N   0  0  0  0  0  0  0  0  0  0  0  0
   10.7623   -0.3138   -3.8987 C   0  0  0  0  0  0  0  0  0  0  0  0
   10.2989   -1.0401   -2.8278 C   0  0  0  0  0  0  0  0  0  0  0  0
   10.9329   -2.3103   -2.3876 C   0  0  0  0  0  0  0  0  0  0  0  0
   11.5359   -3.0821   -3.4684 N   0  0  0  0  0  0  0  0  0  0  0  0
   12.3113   -2.2909   -4.4204 C   0  0  0  0  0  0  0  0  0  0  0  0
   11.8762   -0.8520   -4.7325 C   0  0  0  0  0  0  0  0  0  0  0  0
    6.4183   -0.8820   -1.9830 C   0  0  0  0  0  0  0  0  0  0  0  0
    5.0650   -0.7177   -1.6910 C   0  0  0  0  0  0  0  0  0  0  0  0
    4.6722   -0.9659   -0.3726 C   0  0  0  0  0  0  0  0  0  0  0  0
    1.4129   -0.9496    1.3836 H   0  0  0  0  0  0  0  0  0  0  0  0
    0.4161    1.8289   -0.9132 H   0  0  0  0  0  0  0  0  0  0  0  0
   -1.9316    2.4458   -1.2188 H   0  0  0  0  0  0  0  0  0  0  0  0
   -3.7237    1.2158   -0.0378 H   0  0  0  0  0  0  0  0  0  0  0  0
   -0.7610   -1.2321    1.8964 H   0  0  0  0  0  0  0  0  0  0  0  0
    3.5530   -0.3033    2.3851 H   0  0  0  0  0  0  0  0  0  0  0  0
    4.5277   -3.0885    1.7978 H   0  0  0  0  0  0  0  0  0  0  0  0
    7.5769   -2.0873    0.9887 H   0  0  0  0  0  0  0  0  0  0  0  0
    8.8846    2.3568   -3.7263 H   0  0  0  0  0  0  0  0  0  0  0  0
   11.6791   -2.0834   -1.6175 H   0  0  0  0  0  0  0  0  0  0  0  0
   10.1918   -2.9681   -1.9133 H   0  0  0  0  0  0  0  0  0  0  0  0
   10.8147   -3.6138   -3.9508 H   0  0  0  0  0  0  0  0  0  0  0  0
   12.3238   -2.8467   -5.3663 H   0  0  0  0  0  0  0  0  0  0  0  0
   13.3563   -2.2735   -4.0907 H   0  0  0  0  0  0  0  0  0  0  0  0
   11.5712   -0.7848   -5.7815 H   0  0  0  0  0  0  0  0  0  0  0  0
   12.7319   -0.1820   -4.5998 H   0  0  0  0  0  0  0  0  0  0  0  0
    6.7482   -0.6356   -2.9881 H   0  0  0  0  0  0  0  0  0  0  0  0
    4.3781   -0.3327   -2.4384 H   0  0  0  0  0  0  0  0  0  0  0  0
  1  2  2  0  0  0  0
  2  3  1  0  0  0  0
  2 14  1  0  0  0  0
  3  4  1  0  0  0  0
  3 34  1  0  0  0  0
  4  5  1  0  0  0  0
  4 13  2  0  0  0  0
  5  6  2  0  0  0  0
  5 35  1  0  0  0  0
  6  7  1  0  0  0  0
  6 36  1  0  0  0  0
  7  8  2  0  0  0  0
  7 37  1  0  0  0  0
  8  9  1  0  0  0  0
  8 13  1  0  0  0  0
  9 10  1  0  0  0  0
  9 11  1  0  0  0  0
  9 12  1  0  0  0  0
 13 38  1  0  0  0  0
 14 15  1  0  0  0  0
 14 33  1  0  0  0  0
 15 16  2  0  0  0  0
 15 39  1  0  0  0  0
 16 17  1  0  0  0  0
 16 40  1  0  0  0  0
 17 18  1  0  0  0  0
 17 33  2  0  0  0  0
 18 19  2  0  0  0  0
 18 41  1  0  0  0  0
 19 20  1  0  0  0  0
 19 31  1  0  0  0  0
 20 21  1  0  0  0  0
 21 22  1  0  0  0  0
 21 26  2  0  0  0  0
 22 23  2  0  0  0  0
 23 24  1  0  0  0  0
 23 42  1  0  0  0  0
 24 25  2  0  0  0  0
 25 26  1  0  0  0  0
 25 30  1  0  0  0  0
 26 27  1  0  0  0  0
 27 28  1  0  0  0  0
 27 43  1  0  0  0  0
 27 44  1  0  0  0  0
 28 29  1  0  0  0  0
 28 45  1  0  0  0  0
 29 30  1  0  0  0  0
 29 46  1  0  0  0  0
 29 47  1  0  0  0  0
 30 48  1  0  0  0  0
 30 49  1  0  0  0  0
 31 32  2  0  0  0  0
 31 50  1  0  0  0  0
 32 33  1  0  0  0  0
 32 51  1  0  0  0  0
M  END
$$$$
