CHEMBL1241769
 OpenBabel04072215363D

 41 44  0  0  1  0  0  0  0  0999 V2000
    0.8641    0.3198    0.0609 N   0  0  0  0  0  0  0  0  0  0  0  0
    2.2420    0.1797    0.0232 C   0  0  0  0  0  0  0  0  0  0  0  0
    2.9377    1.3365   -0.0091 N   0  0  0  0  0  0  0  0  0  0  0  0
    4.2800    1.2848   -0.0596 C   0  0  0  0  0  0  0  0  0  0  0  0
    5.0580    0.1946   -0.0808 N   0  0  0  0  0  0  0  0  0  0  0  0
    4.3302   -0.9349   -0.0341 C   0  0  0  0  0  0  0  0  0  0  0  0
    2.9481   -1.0356    0.0152 C   0  0  0  0  0  0  0  0  0  0  0  0
    2.6936   -2.4474    0.0368 C   0  0  0  0  0  0  0  0  0  0  0  0
    1.4088   -3.1546    0.0846 C   0  0  0  0  0  0  0  0  0  0  0  0
    1.2195   -4.3390   -0.6460 C   0  0  0  0  0  0  0  0  0  0  0  0
   -0.0126   -5.0102   -0.6182 C   0  0  0  0  0  0  0  0  0  0  0  0
   -1.0633   -4.4874    0.1290 C   0  0  0  0  0  0  0  0  0  0  0  0
   -2.5847   -5.2972    0.1515 Cl  0  0  0  0  0  0  0  0  0  0  0  0
   -0.8778   -3.3151    0.8618 C   0  0  0  0  0  0  0  0  0  0  0  0
   -1.8809   -2.7433    1.5947 O   0  0  0  0  0  0  0  0  0  0  0  0
    0.3552   -2.6705    0.8652 C   0  0  0  0  0  0  0  0  0  0  0  0
    3.8405   -3.1525   -0.0061 N   0  0  0  0  0  0  0  0  0  0  0  0
    4.8102   -2.2136   -0.0234 N   0  0  0  0  0  0  0  0  0  0  0  0
    6.2003   -2.6143   -0.1211 C   0  0  0  0  0  0  0  0  0  0  0  0
    6.8908   -2.8240    1.2348 C   0  0  3  0  0  0  0  0  0  0  0  0
    7.0500   -1.5423    2.0431 C   0  0  0  0  0  0  0  0  0  0  0  0
    8.2802   -1.7776    2.8976 C   0  0  0  0  0  0  0  0  0  0  0  0
    9.0910   -2.8229    2.1554 C   0  0  0  0  0  0  0  0  0  0  0  0
    8.2767   -3.2878    1.0340 N   0  0  0  0  0  0  0  0  0  0  0  0
    0.5915    1.2776   -0.1305 H   0  0  0  0  0  0  0  0  0  0  0  0
    0.3267   -0.3932   -0.4128 H   0  0  0  0  0  0  0  0  0  0  0  0
    4.7911    2.2422   -0.0888 H   0  0  0  0  0  0  0  0  0  0  0  0
    2.0329   -4.7526   -1.2419 H   0  0  0  0  0  0  0  0  0  0  0  0
   -0.1372   -5.9307   -1.1823 H   0  0  0  0  0  0  0  0  0  0  0  0
   -2.6722   -3.3025    1.4903 H   0  0  0  0  0  0  0  0  0  0  0  0
    0.4786   -1.7882    1.4895 H   0  0  0  0  0  0  0  0  0  0  0  0
    6.7241   -1.8574   -0.7178 H   0  0  0  0  0  0  0  0  0  0  0  0
    6.2222   -3.5443   -0.7043 H   0  0  0  0  0  0  0  0  0  0  0  0
    6.3471   -3.5660    1.8341 H   0  0  0  0  0  0  0  0  0  0  0  0
    6.1716   -1.3333    2.6602 H   0  0  0  0  0  0  0  0  0  0  0  0
    7.2243   -0.6748    1.3928 H   0  0  0  0  0  0  0  0  0  0  0  0
    7.9913   -2.1552    3.8854 H   0  0  0  0  0  0  0  0  0  0  0  0
    8.8434   -0.8501    3.0441 H   0  0  0  0  0  0  0  0  0  0  0  0
    9.3573   -3.6501    2.8223 H   0  0  0  0  0  0  0  0  0  0  0  0
   10.0224   -2.3949    1.7703 H   0  0  0  0  0  0  0  0  0  0  0  0
    8.3059   -4.3056    0.9739 H   0  0  0  0  0  0  0  0  0  0  0  0
  1  2  1  0  0  0  0
  1 25  1  0  0  0  0
  1 26  1  0  0  0  0
  2  3  1  0  0  0  0
  2  7  2  0  0  0  0
  3  4  2  0  0  0  0
  4  5  1  0  0  0  0
  4 27  1  0  0  0  0
  5  6  2  0  0  0  0
  6  7  1  0  0  0  0
  6 18  1  0  0  0  0
  7  8  1  0  0  0  0
  8  9  1  0  0  0  0
  8 17  2  0  0  0  0
  9 10  1  0  0  0  0
  9 16  2  0  0  0  0
 10 11  2  0  0  0  0
 10 28  1  0  0  0  0
 11 12  1  0  0  0  0
 11 29  1  0  0  0  0
 12 13  1  0  0  0  0
 12 14  2  0  0  0  0
 14 15  1  0  0  0  0
 14 16  1  0  0  0  0
 15 30  1  0  0  0  0
 16 31  1  0  0  0  0
 17 18  1  0  0  0  0
 18 19  1  0  0  0  0
 19 20  1  0  0  0  0
 19 32  1  0  0  0  0
 19 33  1  0  0  0  0
 20 21  1  0  0  0  0
 20 24  1  0  0  0  0
 20 34  1  0  0  0  0
 21 22  1  0  0  0  0
 21 35  1  0  0  0  0
 21 36  1  0  0  0  0
 22 23  1  0  0  0  0
 22 37  1  0  0  0  0
 22 38  1  0  0  0  0
 23 24  1  0  0  0  0
 23 39  1  0  0  0  0
 23 40  1  0  0  0  0
 24 41  1  0  0  0  0
M  END
$$$$
