CHEMBL3939238
 OpenBabel04072215373D

 71 75  0  0  0  0  0  0  0  0999 V2000
    0.7223    0.4865    2.4847 C   0  0  0  0  0  0  0  0  0  0  0  0
    1.5532    1.0935    1.4400 N   0  0  0  0  0  0  0  0  0  0  0  0
    2.5491    0.1139    0.9784 C   0  0  0  0  0  0  0  0  0  0  0  0
    3.4154    0.7053   -0.1314 C   0  0  0  0  0  0  0  0  0  0  0  0
    2.5510    1.1133   -1.3285 C   0  0  0  0  0  0  0  0  0  0  0  0
    1.8064    0.0099   -1.8809 O   0  0  0  0  0  0  0  0  0  0  0  0
    2.4890   -0.9955   -2.5012 C   0  0  0  0  0  0  0  0  0  0  0  0
    1.8821   -2.2552   -2.4772 C   0  0  0  0  0  0  0  0  0  0  0  0
    2.4960   -3.3946   -3.0236 C   0  0  0  0  0  0  0  0  0  0  0  0
    1.9186   -4.6996   -2.9118 N   0  0  0  0  0  0  0  0  0  0  0  0
    0.9260   -5.0315   -1.9941 C   0  0  0  0  0  0  0  0  0  0  0  0
    0.4622   -4.2560   -1.1563 O   0  0  0  0  0  0  0  0  0  0  0  0
    0.5086   -6.3606   -2.0630 N   0  0  0  0  0  0  0  0  0  0  0  0
   -0.5130   -6.7889   -1.1635 C   0  0  0  0  0  0  0  0  0  0  0  0
   -1.7436   -6.1225   -1.1386 C   0  0  0  0  0  0  0  0  0  0  0  0
   -2.7295   -6.4638   -0.2053 C   0  0  0  0  0  0  0  0  0  0  0  0
   -2.5305   -7.5211    0.6858 C   0  0  0  0  0  0  0  0  0  0  0  0
   -3.4664   -7.9249    1.6230 O   0  0  0  0  0  0  0  0  0  0  0  0
   -4.8157   -7.8604    1.3169 C   0  0  0  0  0  0  0  0  0  0  0  0
   -5.3072   -7.9678    0.0154 C   0  0  0  0  0  0  0  0  0  0  0  0
   -6.6546   -7.8189   -0.1825 C   0  0  0  0  0  0  0  0  0  0  0  0
   -7.5361   -7.6407    0.8145 N   0  0  0  0  0  0  0  0  0  0  0  0
   -7.0924   -7.6261    2.0822 C   0  0  0  0  0  0  0  0  0  0  0  0
   -8.0337   -7.4922    3.1267 N   0  0  0  0  0  0  0  0  0  0  0  0
   -9.3991   -7.4001    2.8977 C   0  0  0  0  0  0  0  0  0  0  0  0
   -9.9752   -7.4020    1.8251 O   0  0  0  0  0  0  0  0  0  0  0  0
  -10.2881   -7.2801    4.1021 C   0  0  0  0  0  0  0  0  0  0  0  0
   -9.8875   -7.0335    5.5303 C   0  0  0  0  0  0  0  0  0  0  0  0
  -10.3319   -8.4050    5.1082 C   0  0  0  0  0  0  0  0  0  0  0  0
   -5.7280   -7.7269    2.3752 C   0  0  0  0  0  0  0  0  0  0  0  0
   -1.2925   -8.1749    0.6638 C   0  0  0  0  0  0  0  0  0  0  0  0
   -1.0348   -9.1483    1.5510 F   0  0  0  0  0  0  0  0  0  0  0  0
   -0.2919   -7.8310   -0.2614 C   0  0  0  0  0  0  0  0  0  0  0  0
    3.6946   -3.2115   -3.7241 C   0  0  0  0  0  0  0  0  0  0  0  0
    4.2645   -1.9215   -3.8481 C   0  0  0  0  0  0  0  0  0  0  0  0
    5.4473   -1.6412   -4.7412 C   0  0  0  0  0  0  0  0  0  0  0  0
    5.8996   -2.7389   -5.4058 F   0  0  0  0  0  0  0  0  0  0  0  0
    5.1467   -0.7206   -5.7004 F   0  0  0  0  0  0  0  0  0  0  0  0
    6.5163   -1.1371   -4.0680 F   0  0  0  0  0  0  0  0  0  0  0  0
    3.6747   -0.8300   -3.1918 C   0  0  0  0  0  0  0  0  0  0  0  0
    1.5291    2.1359   -0.8259 C   0  0  0  0  0  0  0  0  0  0  0  0
    0.7027    1.5600    0.3305 C   0  0  0  0  0  0  0  0  0  0  0  0
    1.3433    0.1347    3.3165 H   0  0  0  0  0  0  0  0  0  0  0  0
    0.1451   -0.3664    2.1072 H   0  0  0  0  0  0  0  0  0  0  0  0
    0.0239    1.2206    2.8993 H   0  0  0  0  0  0  0  0  0  0  0  0
    2.0629   -0.8061    0.6292 H   0  0  0  0  0  0  0  0  0  0  0  0
    3.2041   -0.1636    1.8132 H   0  0  0  0  0  0  0  0  0  0  0  0
    4.1856   -0.0168   -0.4178 H   0  0  0  0  0  0  0  0  0  0  0  0
    3.9417    1.5918    0.2513 H   0  0  0  0  0  0  0  0  0  0  0  0
    3.1551    1.5970   -2.1027 H   0  0  0  0  0  0  0  0  0  0  0  0
    0.8913   -2.3151   -2.0395 H   0  0  0  0  0  0  0  0  0  0  0  0
    2.3068   -5.4339   -3.4813 H   0  0  0  0  0  0  0  0  0  0  0  0
    1.2412   -7.0261   -2.2622 H   0  0  0  0  0  0  0  0  0  0  0  0
   -1.9472   -5.3188   -1.8435 H   0  0  0  0  0  0  0  0  0  0  0  0
   -3.6541   -5.8922   -0.2051 H   0  0  0  0  0  0  0  0  0  0  0  0
   -4.6564   -8.1221   -0.8416 H   0  0  0  0  0  0  0  0  0  0  0  0
   -7.0840   -7.8259   -1.1807 H   0  0  0  0  0  0  0  0  0  0  0  0
   -7.6954   -7.4967    4.0723 H   0  0  0  0  0  0  0  0  0  0  0  0
  -11.2535   -6.8593    3.8224 H   0  0  0  0  0  0  0  0  0  0  0  0
  -10.5808   -6.4557    6.1386 H   0  0  0  0  0  0  0  0  0  0  0  0
   -8.8541   -6.8805    5.7973 H   0  0  0  0  0  0  0  0  0  0  0  0
  -11.3140   -8.7538    5.4078 H   0  0  0  0  0  0  0  0  0  0  0  0
   -9.5866   -9.1898    5.0512 H   0  0  0  0  0  0  0  0  0  0  0  0
   -5.3634   -7.7082    3.4014 H   0  0  0  0  0  0  0  0  0  0  0  0
    0.6648   -8.3397   -0.2034 H   0  0  0  0  0  0  0  0  0  0  0  0
    4.2003   -4.0533   -4.1943 H   0  0  0  0  0  0  0  0  0  0  0  0
    4.1247    0.1537   -3.2904 H   0  0  0  0  0  0  0  0  0  0  0  0
    0.8539    2.4228   -1.6404 H   0  0  0  0  0  0  0  0  0  0  0  0
    2.0502    3.0435   -0.4953 H   0  0  0  0  0  0  0  0  0  0  0  0
    0.0710    0.7456   -0.0441 H   0  0  0  0  0  0  0  0  0  0  0  0
    0.0338    2.3492    0.6934 H   0  0  0  0  0  0  0  0  0  0  0  0
  1  2  1  0  0  0  0
  1 43  1  0  0  0  0
  1 44  1  0  0  0  0
  1 45  1  0  0  0  0
  2  3  1  0  0  0  0
  2 42  1  0  0  0  0
  3  4  1  0  0  0  0
  3 46  1  0  0  0  0
  3 47  1  0  0  0  0
  4  5  1  0  0  0  0
  4 48  1  0  0  0  0
  4 49  1  0  0  0  0
  5  6  1  0  0  0  0
  5 41  1  0  0  0  0
  5 50  1  0  0  0  0
  6  7  1  0  0  0  0
  7  8  1  0  0  0  0
  7 40  2  0  0  0  0
  8  9  2  0  0  0  0
  8 51  1  0  0  0  0
  9 10  1  0  0  0  0
  9 34  1  0  0  0  0
 10 11  1  0  0  0  0
 10 52  1  0  0  0  0
 11 12  2  0  0  0  0
 11 13  1  0  0  0  0
 13 14  1  0  0  0  0
 13 53  1  0  0  0  0
 14 15  1  0  0  0  0
 14 33  2  0  0  0  0
 15 16  2  0  0  0  0
 15 54  1  0  0  0  0
 16 17  1  0  0  0  0
 16 55  1  0  0  0  0
 17 18  1  0  0  0  0
 17 31  2  0  0  0  0
 18 19  1  0  0  0  0
 19 20  1  0  0  0  0
 19 30  2  0  0  0  0
 20 21  2  0  0  0  0
 20 56  1  0  0  0  0
 21 22  1  0  0  0  0
 21 57  1  0  0  0  0
 22 23  2  0  0  0  0
 23 24  1  0  0  0  0
 23 30  1  0  0  0  0
 24 25  1  0  0  0  0
 24 58  1  0  0  0  0
 25 26  2  0  0  0  0
 25 27  1  0  0  0  0
 27 28  1  0  0  0  0
 27 29  1  0  0  0  0
 27 59  1  0  0  0  0
 28 29  1  0  0  0  0
 28 60  1  0  0  0  0
 28 61  1  0  0  0  0
 29 62  1  0  0  0  0
 29 63  1  0  0  0  0
 30 64  1  0  0  0  0
 31 32  1  0  0  0  0
 31 33  1  0  0  0  0
 33 65  1  0  0  0  0
 34 35  2  0  0  0  0
 34 66  1  0  0  0  0
 35 36  1  0  0  0  0
 35 40  1  0  0  0  0
 36 37  1  0  0  0  0
 36 38  1  0  0  0  0
 36 39  1  0  0  0  0
 40 67  1  0  0  0  0
 41 42  1  0  0  0  0
 41 68  1  0  0  0  0
 41 69  1  0  0  0  0
 42 70  1  0  0  0  0
 42 71  1  0  0  0  0
M  END
$$$$
