CHEMBL4471491
 OpenBabel04072215383D

 61 64  0  0  0  0  0  0  0  0999 V2000
    3.5039   -1.1632    0.3781 C   0  0  0  0  0  0  0  0  0  0  0  0
    2.6208   -0.0452    0.2902 O   0  0  0  0  0  0  0  0  0  0  0  0
    3.2028    1.1597    0.0075 C   0  0  0  0  0  0  0  0  0  0  0  0
    4.2186    1.2225   -0.9450 C   0  0  0  0  0  0  0  0  0  0  0  0
    4.8923    2.4252   -1.2139 C   0  0  0  0  0  0  0  0  0  0  0  0
    5.9367    2.5454   -2.1358 C   0  0  0  0  0  0  0  0  0  0  0  0
    6.2938    1.4407   -2.9596 N   0  0  0  0  0  0  0  0  0  0  0  0
    7.0753    1.5683   -4.1303 C   0  0  0  0  0  0  0  0  0  0  0  0
    6.8045    2.5959   -5.0440 C   0  0  0  0  0  0  0  0  0  0  0  0
    7.6556    2.8383   -6.1181 C   0  0  0  0  0  0  0  0  0  0  0  0
    8.7828    2.0363   -6.3105 C   0  0  0  0  0  0  0  0  0  0  0  0
    9.8386    2.4579   -7.6099 Cl  0  0  0  0  0  0  0  0  0  0  0  0
    9.0284    0.9565   -5.4535 C   0  0  0  0  0  0  0  0  0  0  0  0
   10.3893   -0.0890   -5.6694 Cl  0  0  0  0  0  0  0  0  0  0  0  0
    8.1676    0.7284   -4.3759 C   0  0  0  0  0  0  0  0  0  0  0  0
    8.3980   -0.2886   -3.5253 F   0  0  0  0  0  0  0  0  0  0  0  0
    6.5854    3.7114   -2.3146 N   0  0  0  0  0  0  0  0  0  0  0  0
    6.1611    4.7589   -1.6047 C   0  0  0  0  0  0  0  0  0  0  0  0
    5.1357    4.7633   -0.7478 N   0  0  0  0  0  0  0  0  0  0  0  0
    4.5048    3.6003   -0.5550 C   0  0  0  0  0  0  0  0  0  0  0  0
    3.4203    3.5428    0.3157 C   0  0  0  0  0  0  0  0  0  0  0  0
    2.7516    2.3423    0.6137 C   0  0  0  0  0  0  0  0  0  0  0  0
    1.7135    2.4962    1.5106 O   0  0  0  0  0  0  0  0  0  0  0  0
    1.0154    1.3081    1.8715 C   0  0  0  0  0  0  0  0  0  0  0  0
   -0.0770    1.5403    2.9105 C   0  0  0  0  0  0  0  0  0  0  0  0
   -0.6263    0.2506    3.2064 O   0  0  0  0  0  0  0  0  0  0  0  0
   -1.6875    0.2913    4.1515 C   0  0  0  0  0  0  0  0  0  0  0  0
   -2.1986   -1.1347    4.3713 C   0  0  0  0  0  0  0  0  0  0  0  0
   -3.2765   -1.1939    5.3434 N   0  0  0  0  0  0  0  0  0  0  0  0
   -4.5870   -0.9861    4.9719 C   0  0  0  0  0  0  0  0  0  0  0  0
   -4.9236   -0.7609    3.8114 O   0  0  0  0  0  0  0  0  0  0  0  0
   -5.5948   -1.0322    6.0942 C   0  0  0  0  0  0  0  0  0  0  0  0
   -6.5382   -2.1133    5.9115 N   0  0  0  0  0  0  0  0  0  0  0  0
   -7.4609   -2.2632    4.9176 C   0  0  0  0  0  0  0  0  0  0  0  0
   -8.1848   -3.3370    5.1406 N   0  0  0  0  0  0  0  0  0  0  0  0
   -7.6532   -3.8217    6.3147 C   0  0  0  0  0  0  0  0  0  0  0  0
   -8.1383   -5.0241    6.9681 N   0  3  0  0  0  0  0  0  0  0  0  0
   -9.0683   -5.6404    6.4123 O   0  0  0  0  0  0  0  0  0  0  0  0
   -7.6026   -5.3685    8.0367 O   0  5  0  0  0  0  0  0  0  0  0  0
   -6.6456   -3.0932    6.8343 N   0  0  0  0  0  0  0  0  0  0  0  0
    3.2588   -1.7190    1.2870 H   0  0  0  0  0  0  0  0  0  0  0  0
    4.5650   -0.8943    0.4405 H   0  0  0  0  0  0  0  0  0  0  0  0
    3.3343   -1.8117   -0.4859 H   0  0  0  0  0  0  0  0  0  0  0  0
    4.4971    0.3214   -1.4852 H   0  0  0  0  0  0  0  0  0  0  0  0
    6.5430    0.6242   -2.4077 H   0  0  0  0  0  0  0  0  0  0  0  0
    5.9408    3.2412   -4.8931 H   0  0  0  0  0  0  0  0  0  0  0  0
    7.4454    3.6754   -6.7801 H   0  0  0  0  0  0  0  0  0  0  0  0
    6.6972    5.6898   -1.7433 H   0  0  0  0  0  0  0  0  0  0  0  0
    3.0852    4.4663    0.7847 H   0  0  0  0  0  0  0  0  0  0  0  0
    1.7138    0.5920    2.3178 H   0  0  0  0  0  0  0  0  0  0  0  0
    0.5362    0.8707    0.9868 H   0  0  0  0  0  0  0  0  0  0  0  0
   -0.8530    2.2090    2.5210 H   0  0  0  0  0  0  0  0  0  0  0  0
    0.3427    1.9880    3.8186 H   0  0  0  0  0  0  0  0  0  0  0  0
   -2.4930    0.9337    3.7798 H   0  0  0  0  0  0  0  0  0  0  0  0
   -1.3173    0.7024    5.0978 H   0  0  0  0  0  0  0  0  0  0  0  0
   -1.3893   -1.7799    4.7320 H   0  0  0  0  0  0  0  0  0  0  0  0
   -2.5387   -1.5619    3.4198 H   0  0  0  0  0  0  0  0  0  0  0  0
   -3.0298   -1.3409    6.3150 H   0  0  0  0  0  0  0  0  0  0  0  0
   -6.1558   -0.0922    6.1098 H   0  0  0  0  0  0  0  0  0  0  0  0
   -5.1059   -1.1555    7.0660 H   0  0  0  0  0  0  0  0  0  0  0  0
   -7.5543   -1.5845    4.0804 H   0  0  0  0  0  0  0  0  0  0  0  0
  1  2  1  0  0  0  0
  1 41  1  0  0  0  0
  1 42  1  0  0  0  0
  1 43  1  0  0  0  0
  2  3  1  0  0  0  0
  3  4  1  0  0  0  0
  3 22  2  0  0  0  0
  4  5  2  0  0  0  0
  4 44  1  0  0  0  0
  5  6  1  0  0  0  0
  5 20  1  0  0  0  0
  6  7  1  0  0  0  0
  6 17  2  0  0  0  0
  7  8  1  0  0  0  0
  7 45  1  0  0  0  0
  8  9  1  0  0  0  0
  8 15  2  0  0  0  0
  9 10  2  0  0  0  0
  9 46  1  0  0  0  0
 10 11  1  0  0  0  0
 10 47  1  0  0  0  0
 11 12  1  0  0  0  0
 11 13  2  0  0  0  0
 13 14  1  0  0  0  0
 13 15  1  0  0  0  0
 15 16  1  0  0  0  0
 17 18  1  0  0  0  0
 18 19  2  0  0  0  0
 18 48  1  0  0  0  0
 19 20  1  0  0  0  0
 20 21  2  0  0  0  0
 21 22  1  0  0  0  0
 21 49  1  0  0  0  0
 22 23  1  0  0  0  0
 23 24  1  0  0  0  0
 24 25  1  0  0  0  0
 24 50  1  0  0  0  0
 24 51  1  0  0  0  0
 25 26  1  0  0  0  0
 25 52  1  0  0  0  0
 25 53  1  0  0  0  0
 26 27  1  0  0  0  0
 27 28  1  0  0  0  0
 27 54  1  0  0  0  0
 27 55  1  0  0  0  0
 28 29  1  0  0  0  0
 28 56  1  0  0  0  0
 28 57  1  0  0  0  0
 29 30  1  0  0  0  0
 29 58  1  0  0  0  0
 30 31  2  0  0  0  0
 30 32  1  0  0  0  0
 32 33  1  0  0  0  0
 32 59  1  0  0  0  0
 32 60  1  0  0  0  0
 33 34  1  0  0  0  0
 33 40  1  0  0  0  0
 34 35  2  0  0  0  0
 34 61  1  0  0  0  0
 35 36  1  0  0  0  0
 36 37  1  0  0  0  0
 36 40  2  0  0  0  0
 37 38  2  0  0  0  0
 37 39  1  0  0  0  0
M  CHG  2  37   1  39  -1
M  END
$$$$
