CHEMBL3968139
 OpenBabel04072215373D

 75 78  0  0  1  0  0  0  0  0999 V2000
    1.4432    5.4586    1.2716 C   0  0  0  0  0  0  0  0  0  0  0  0
    1.5264    4.0657    1.4544 O   0  0  0  0  0  0  0  0  0  0  0  0
    2.6091    3.1905    1.3012 C   0  0  0  0  0  0  0  0  0  0  0  0
    2.3592    1.8905    1.4275 C   0  0  0  0  0  0  0  0  0  0  0  0
    3.2759    0.9106    1.0908 C   0  0  0  0  0  0  0  0  0  0  0  0
    2.8527   -0.3531    1.1428 O   0  0  0  0  0  0  0  0  0  0  0  0
    3.6667   -1.3862    0.7730 C   0  0  0  0  0  0  0  0  0  0  0  0
    4.5647    1.2377    0.6167 C   0  0  0  0  0  0  0  0  0  0  0  0
    4.9784    2.5522    0.5597 C   0  0  0  0  0  0  0  0  0  0  0  0
    6.3232    2.9594    0.0031 N   0  0  0  0  0  0  0  0  0  0  0  0
    6.9188    2.1049   -1.0570 C   0  0  0  0  0  0  0  0  0  0  0  0
    8.2258    2.5969   -1.5846 C   0  0  0  0  0  0  0  0  0  0  0  0
    9.4540    2.6599   -0.7274 C   0  0  0  0  0  0  0  0  0  0  0  0
   10.6258    3.2958   -1.3896 N   0  0  0  0  0  0  0  0  0  0  0  0
   11.1205    2.4689   -2.5068 C   0  0  1  0  0  0  0  0  0  0  0  0
   10.4237    2.7160   -3.8418 C   0  0  0  0  0  0  0  0  0  0  0  0
   12.6370    2.4891   -2.5386 C   0  0  0  0  0  0  0  0  0  0  0  0
   12.9937    3.5019   -1.4896 C   0  0  0  0  0  0  0  0  0  0  0  0
   11.8086    3.4769   -0.5174 C   0  0  2  0  0  0  0  0  0  0  0  0
   11.9992    2.3606    0.5210 C   0  0  0  0  0  0  0  0  0  0  0  0
    7.2181    3.8495    0.7845 C   0  0  0  0  0  0  0  0  0  0  0  0
    7.0913    3.5034    2.0923 C   0  0  0  0  0  0  0  0  0  0  0  0
    7.8128    4.0156    2.9616 C   0  0  0  0  0  0  0  0  0  0  0  0
    8.6928    4.8992    2.6734 C   0  0  0  0  0  0  0  0  0  0  0  0
    8.9222    5.4845    3.6138 N   0  0  0  0  0  0  0  0  0  0  0  0
    9.1319    6.0651    4.5707 C   0  0  0  0  0  0  0  0  0  0  0  0
   10.3466    6.5284    4.3276 C   0  0  0  0  0  0  0  0  0  0  0  0
   10.8708    6.8358    6.1049 C   0  0  0  0  0  0  0  0  0  0  0  0
   10.3854    6.3331    7.4905 C   0  0  0  0  0  0  0  0  0  0  0  0
   11.2000    6.8240    8.5033 N   0  0  0  0  0  0  0  0  0  0  0  0
   12.1532    7.5735    7.9693 N   0  0  0  0  0  0  0  0  0  0  0  0
   13.3040    8.1651    8.7761 C   0  0  0  0  0  0  0  0  0  0  0  0
   11.9622    7.6236    6.5826 C   0  0  0  0  0  0  0  0  0  0  0  0
   10.5032    6.4417    2.5881 N   0  0  0  0  0  0  0  0  0  0  0  0
    9.2830    5.5374    1.7302 C   0  0  0  0  0  0  0  0  0  0  0  0
    8.3411    4.9509    0.4613 C   0  0  0  0  0  0  0  0  0  0  0  0
    3.9732    3.4775    1.0384 C   0  0  0  0  0  0  0  0  0  0  0  0
    1.5564    1.3418   -1.7392 Cl  0  0  0  0  0  0  0  0  0  0  0  0
    0.5362    5.8111    0.6989 H   0  0  0  0  0  0  0  0  0  0  0  0
    1.9988    5.9600    0.4701 H   0  0  0  0  0  0  0  0  0  0  0  0
    2.2861    5.9045    1.7851 H   0  0  0  0  0  0  0  0  0  0  0  0
    1.4098    1.7009    1.8065 H   0  0  0  0  0  0  0  0  0  0  0  0
    3.1329   -2.3268    0.9080 H   0  0  0  0  0  0  0  0  0  0  0  0
    4.5838   -1.3859    1.4093 H   0  0  0  0  0  0  0  0  0  0  0  0
    3.9685   -1.2592   -0.2878 H   0  0  0  0  0  0  0  0  0  0  0  0
    5.2440    0.4688    0.3360 H   0  0  0  0  0  0  0  0  0  0  0  0
    6.2922    2.0475   -2.0024 H   0  0  0  0  0  0  0  0  0  0  0  0
    7.1308    1.1005   -0.6747 H   0  0  0  0  0  0  0  0  0  0  0  0
    7.9591    3.5644   -1.9668 H   0  0  0  0  0  0  0  0  0  0  0  0
    8.5094    1.8342   -2.2822 H   0  0  0  0  0  0  0  0  0  0  0  0
    9.6178    1.7118   -0.2711 H   0  0  0  0  0  0  0  0  0  0  0  0
    9.2887    3.1040    0.1295 H   0  0  0  0  0  0  0  0  0  0  0  0
   10.9527    1.4570   -2.2829 H   0  0  0  0  0  0  0  0  0  0  0  0
   10.6871    3.7060   -4.1659 H   0  0  0  0  0  0  0  0  0  0  0  0
    9.3520    2.5492   -3.8176 H   0  0  0  0  0  0  0  0  0  0  0  0
   10.7247    2.0685   -4.6694 H   0  0  0  0  0  0  0  0  0  0  0  0
   13.0047    2.7073   -3.5525 H   0  0  0  0  0  0  0  0  0  0  0  0
   13.0686    1.4974   -2.2345 H   0  0  0  0  0  0  0  0  0  0  0  0
   13.0193    4.4733   -2.0116 H   0  0  0  0  0  0  0  0  0  0  0  0
   13.9818    3.3063   -1.0311 H   0  0  0  0  0  0  0  0  0  0  0  0
   11.7396    4.4225    0.0534 H   0  0  0  0  0  0  0  0  0  0  0  0
   12.1205    1.3878    0.0202 H   0  0  0  0  0  0  0  0  0  0  0  0
   11.1570    2.3351    1.2409 H   0  0  0  0  0  0  0  0  0  0  0  0
   12.9031    2.5455    1.1219 H   0  0  0  0  0  0  0  0  0  0  0  0
    6.3930    2.8856    2.5893 H   0  0  0  0  0  0  0  0  0  0  0  0
    7.7034    3.7768    3.9866 H   0  0  0  0  0  0  0  0  0  0  0  0
    8.2044    5.7804    5.1328 H   0  0  0  0  0  0  0  0  0  0  0  0
    9.6219    5.6425    7.9060 H   0  0  0  0  0  0  0  0  0  0  0  0
   13.2532    7.9826    9.8925 H   0  0  0  0  0  0  0  0  0  0  0  0
   13.4157    9.2710    8.6637 H   0  0  0  0  0  0  0  0  0  0  0  0
   14.2897    7.7165    8.4753 H   0  0  0  0  0  0  0  0  0  0  0  0
   12.5992    8.1812    5.9874 H   0  0  0  0  0  0  0  0  0  0  0  0
    8.3092    5.0527   -0.6711 H   0  0  0  0  0  0  0  0  0  0  0  0
    4.2177    4.4148    1.2336 H   0  0  0  0  0  0  0  0  0  0  0  0
    1.9844    0.3695   -0.9912 H   0  0  0  0  0  0  0  0  0  0  0  0
  1  2  1  0  0  0  0
  1 39  1  0  0  0  0
  1 40  1  0  0  0  0
  1 41  1  0  0  0  0
  2  3  1  0  0  0  0
  3  4  1  0  0  0  0
  3 37  2  0  0  0  0
  4  5  2  0  0  0  0
  4 42  1  0  0  0  0
  5  6  1  0  0  0  0
  5  8  1  0  0  0  0
  6  7  1  0  0  0  0
  7 43  1  0  0  0  0
  7 44  1  0  0  0  0
  7 45  1  0  0  0  0
  8  9  2  0  0  0  0
  8 46  1  0  0  0  0
  9 10  1  0  0  0  0
  9 37  1  0  0  0  0
 10 11  1  0  0  0  0
 10 21  1  0  0  0  0
 11 12  1  0  0  0  0
 11 47  1  0  0  0  0
 11 48  1  0  0  0  0
 12 13  1  0  0  0  0
 12 49  1  0  0  0  0
 12 50  1  0  0  0  0
 13 14  1  0  0  0  0
 13 51  1  0  0  0  0
 13 52  1  0  0  0  0
 14 15  1  0  0  0  0
 14 19  1  0  0  0  0
 15 16  1  0  0  0  0
 15 17  1  0  0  0  0
 15 53  1  1  0  0  0
 16 54  1  0  0  0  0
 16 55  1  0  0  0  0
 16 56  1  0  0  0  0
 17 18  1  0  0  0  0
 17 57  1  0  0  0  0
 17 58  1  0  0  0  0
 18 19  1  0  0  0  0
 18 59  1  0  0  0  0
 18 60  1  0  0  0  0
 19 20  1  0  0  0  0
 19 61  1  1  0  0  0
 20 62  1  0  0  0  0
 20 63  1  0  0  0  0
 20 64  1  0  0  0  0
 21 22  1  0  0  0  0
 21 36  2  0  0  0  0
 22 23  2  0  0  0  0
 22 65  1  0  0  0  0
 23 24  1  0  0  0  0
 23 66  1  0  0  0  0
 24 25  1  0  0  0  0
 24 35  2  0  0  0  0
 25 26  2  0  0  0  0
 26 27  1  0  0  0  0
 26 67  1  0  0  0  0
 27 28  1  0  0  0  0
 27 34  2  0  0  0  0
 28 29  1  0  0  0  0
 28 33  2  0  0  0  0
 29 30  2  0  0  0  0
 29 68  1  0  0  0  0
 30 31  1  0  0  0  0
 31 32  1  0  0  0  0
 31 33  1  0  0  0  0
 32 69  1  0  0  0  0
 32 70  1  0  0  0  0
 32 71  1  0  0  0  0
 33 72  1  0  0  0  0
 34 35  1  0  0  0  0
 35 36  1  0  0  0  0
 36 73  1  0  0  0  0
 37 74  1  0  0  0  0
 38 75  1  0  0  0  0
M  END
$$$$
