CHEMBL231127
 OpenBabel04072215363D

 53 57  0  0  0  0  0  0  0  0999 V2000
    2.3693   -0.4227    1.5801 C   0  0  0  0  0  0  0  0  0  0  0  0
    0.8744   -0.3052    1.5474 C   0  0  0  0  0  0  0  0  0  0  0  0
    0.2628    0.8800    1.9692 C   0  0  0  0  0  0  0  0  0  0  0  0
   -1.1205    0.9952    1.9489 C   0  0  0  0  0  0  0  0  0  0  0  0
   -1.9017   -0.0706    1.5066 C   0  0  0  0  0  0  0  0  0  0  0  0
   -1.3205   -1.2648    1.0671 C   0  0  0  0  0  0  0  0  0  0  0  0
   -2.0776   -2.3743    0.6118 N   0  0  0  0  0  0  0  0  0  0  0  0
   -3.4502   -2.3895    0.4125 C   0  0  0  0  0  0  0  0  0  0  0  0
   -4.1750   -1.4061    0.5272 O   0  0  0  0  0  0  0  0  0  0  0  0
   -3.9306   -3.6495    0.1053 N   0  0  0  0  0  0  0  0  0  0  0  0
   -5.3189   -3.8299   -0.1293 C   0  0  0  0  0  0  0  0  0  0  0  0
   -6.0473   -2.9070   -0.8816 C   0  0  0  0  0  0  0  0  0  0  0  0
   -7.4399   -2.9705   -0.9243 C   0  0  0  0  0  0  0  0  0  0  0  0
   -8.1384   -3.9852   -0.2518 C   0  0  0  0  0  0  0  0  0  0  0  0
   -9.6111   -3.9575   -0.2202 C   0  0  0  0  0  0  0  0  0  0  0  0
  -10.2786   -3.5616   -1.3613 C   0  0  0  0  0  0  0  0  0  0  0  0
  -11.9418   -3.4151   -1.1450 S   0  0  0  0  0  0  0  0  0  0  0  0
  -11.8930   -4.0795    0.4546 C   0  0  0  0  0  0  0  0  0  0  0  0
  -13.0088   -4.3746    1.2868 C   0  0  0  0  0  0  0  0  0  0  0  0
  -14.4230   -4.2405    0.8881 C   0  0  0  0  0  0  0  0  0  0  0  0
  -14.9190   -4.5471   -0.3709 C   0  0  0  0  0  0  0  0  0  0  0  0
  -16.2126   -4.4342   -0.7524 N   0  0  0  0  0  0  0  0  0  0  0  0
  -17.0610   -4.0123    0.1907 C   0  0  0  0  0  0  0  0  0  0  0  0
  -16.7332   -3.7097    1.4522 N   0  0  0  0  0  0  0  0  0  0  0  0
  -15.4214   -3.8293    1.7628 C   0  0  0  0  0  0  0  0  0  0  0  0
  -12.6474   -4.8150    2.5556 C   0  0  0  0  0  0  0  0  0  0  0  0
  -11.3934   -4.9483    3.0172 N   0  0  0  0  0  0  0  0  0  0  0  0
  -10.3473   -4.6731    2.2175 C   0  0  0  0  0  0  0  0  0  0  0  0
   -9.1158   -4.8166    2.8432 N   0  0  0  0  0  0  0  0  0  0  0  0
  -10.5530   -4.2571    0.8723 C   0  0  0  0  0  0  0  0  0  0  0  0
   -7.3900   -4.9848    0.3818 C   0  0  0  0  0  0  0  0  0  0  0  0
   -5.9889   -4.9024    0.4582 C   0  0  0  0  0  0  0  0  0  0  0  0
    0.0782   -1.3732    1.0935 C   0  0  0  0  0  0  0  0  0  0  0  0
    2.8302    0.4884    1.9789 H   0  0  0  0  0  0  0  0  0  0  0  0
    2.7601   -0.5787    0.5704 H   0  0  0  0  0  0  0  0  0  0  0  0
    2.6701   -1.2542    2.2243 H   0  0  0  0  0  0  0  0  0  0  0  0
    0.8562    1.7202    2.3203 H   0  0  0  0  0  0  0  0  0  0  0  0
   -1.6008    1.9135    2.2742 H   0  0  0  0  0  0  0  0  0  0  0  0
   -2.9757    0.0777    1.5278 H   0  0  0  0  0  0  0  0  0  0  0  0
   -1.5645   -3.1764    0.2775 H   0  0  0  0  0  0  0  0  0  0  0  0
   -3.4490   -4.4126    0.5534 H   0  0  0  0  0  0  0  0  0  0  0  0
   -5.5454   -2.0934   -1.4014 H   0  0  0  0  0  0  0  0  0  0  0  0
   -7.9618   -2.1827   -1.4632 H   0  0  0  0  0  0  0  0  0  0  0  0
   -9.8580   -3.2982   -2.3228 H   0  0  0  0  0  0  0  0  0  0  0  0
  -14.2785   -4.9302   -1.1599 H   0  0  0  0  0  0  0  0  0  0  0  0
  -18.1033   -3.9125   -0.0908 H   0  0  0  0  0  0  0  0  0  0  0  0
  -15.2017   -3.5684    2.7957 H   0  0  0  0  0  0  0  0  0  0  0  0
  -13.4013   -5.0914    3.2906 H   0  0  0  0  0  0  0  0  0  0  0  0
   -9.2664   -4.9143    3.8423 H   0  0  0  0  0  0  0  0  0  0  0  0
   -8.4451   -4.1038    2.5828 H   0  0  0  0  0  0  0  0  0  0  0  0
   -7.8859   -5.8190    0.8736 H   0  0  0  0  0  0  0  0  0  0  0  0
   -5.4532   -5.6392    1.0497 H   0  0  0  0  0  0  0  0  0  0  0  0
    0.5632   -2.2898    0.7642 H   0  0  0  0  0  0  0  0  0  0  0  0
  1  2  1  0  0  0  0
  1 34  1  0  0  0  0
  1 35  1  0  0  0  0
  1 36  1  0  0  0  0
  2  3  1  0  0  0  0
  2 33  2  0  0  0  0
  3  4  2  0  0  0  0
  3 37  1  0  0  0  0
  4  5  1  0  0  0  0
  4 38  1  0  0  0  0
  5  6  2  0  0  0  0
  5 39  1  0  0  0  0
  6  7  1  0  0  0  0
  6 33  1  0  0  0  0
  7  8  1  0  0  0  0
  7 40  1  0  0  0  0
  8  9  2  0  0  0  0
  8 10  1  0  0  0  0
 10 11  1  0  0  0  0
 10 41  1  0  0  0  0
 11 12  1  0  0  0  0
 11 32  2  0  0  0  0
 12 13  2  0  0  0  0
 12 42  1  0  0  0  0
 13 14  1  0  0  0  0
 13 43  1  0  0  0  0
 14 15  1  0  0  0  0
 14 31  2  0  0  0  0
 15 16  2  0  0  0  0
 15 30  1  0  0  0  0
 16 17  1  0  0  0  0
 16 44  1  0  0  0  0
 17 18  1  0  0  0  0
 18 19  1  0  0  0  0
 18 30  2  0  0  0  0
 19 20  1  0  0  0  0
 19 26  2  0  0  0  0
 20 21  1  0  0  0  0
 20 25  2  0  0  0  0
 21 22  2  0  0  0  0
 21 45  1  0  0  0  0
 22 23  1  0  0  0  0
 23 24  2  0  0  0  0
 23 46  1  0  0  0  0
 24 25  1  0  0  0  0
 25 47  1  0  0  0  0
 26 27  1  0  0  0  0
 26 48  1  0  0  0  0
 27 28  2  0  0  0  0
 28 29  1  0  0  0  0
 28 30  1  0  0  0  0
 29 49  1  0  0  0  0
 29 50  1  0  0  0  0
 31 32  1  0  0  0  0
 31 51  1  0  0  0  0
 32 52  1  0  0  0  0
 33 53  1  0  0  0  0
M  END
$$$$
