CHEMBL3915341
 OpenBabel04072215373D

 56 59  0  0  0  0  0  0  0  0999 V2000
    2.6372    0.1955    0.1576 C   0  0  0  0  0  0  0  0  0  0  0  0
    1.1398    0.0595    0.1502 C   0  0  0  0  0  0  0  0  0  0  0  0
    0.3956    1.2612    0.1548 C   0  0  0  0  0  0  0  0  0  0  0  0
   -0.9915    1.2673   -0.0130 C   0  0  0  0  0  0  0  0  0  0  0  0
   -1.7561    2.4111   -0.1011 O   0  0  0  0  0  0  0  0  0  0  0  0
   -1.2306    3.5144   -0.7441 C   0  0  0  0  0  0  0  0  0  0  0  0
   -0.3472    3.4204   -1.8194 C   0  0  0  0  0  0  0  0  0  0  0  0
    0.1933    4.5871   -2.3033 C   0  0  0  0  0  0  0  0  0  0  0  0
   -0.1429    5.8035   -1.8428 N   0  0  0  0  0  0  0  0  0  0  0  0
   -1.0625    5.9035   -0.8687 C   0  0  0  0  0  0  0  0  0  0  0  0
   -1.4540    7.1764   -0.4162 N   0  0  0  0  0  0  0  0  0  0  0  0
   -0.9109    8.3550   -0.8855 C   0  0  0  0  0  0  0  0  0  0  0  0
   -0.0217    8.4883   -1.7217 O   0  0  0  0  0  0  0  0  0  0  0  0
   -1.4434    9.6230   -0.2991 C   0  0  0  0  0  0  0  0  0  0  0  0
   -1.2297    9.9012    1.1708 C   0  0  0  0  0  0  0  0  0  0  0  0
   -2.6223    9.7807    0.6218 C   0  0  0  0  0  0  0  0  0  0  0  0
   -1.6338    4.7710   -0.2889 C   0  0  0  0  0  0  0  0  0  0  0  0
   -1.6628    0.0548   -0.0750 C   0  0  0  0  0  0  0  0  0  0  0  0
   -0.9446   -1.1440   -0.0187 C   0  0  0  0  0  0  0  0  0  0  0  0
    0.4574   -1.1725    0.0927 C   0  0  0  0  0  0  0  0  0  0  0  0
    1.1693   -2.4049    0.1648 N   0  0  0  0  0  0  0  0  0  0  0  0
    0.6000   -3.6492    0.4064 C   0  0  0  0  0  0  0  0  0  0  0  0
   -0.6001   -3.8624    0.5371 O   0  0  0  0  0  0  0  0  0  0  0  0
    1.5448   -4.6549    0.5570 N   0  0  0  0  0  0  0  0  0  0  0  0
    1.1351   -5.9837    0.8737 C   0  0  0  0  0  0  0  0  0  0  0  0
    0.0391   -6.6026    0.2573 C   0  0  0  0  0  0  0  0  0  0  0  0
   -0.3982   -7.8764    0.6555 C   0  0  0  0  0  0  0  0  0  0  0  0
   -1.4936   -8.3276   -0.0168 O   0  0  0  0  0  0  0  0  0  0  0  0
   -2.3413   -9.3103    0.5606 C   0  0  0  0  0  0  0  0  0  0  0  0
   -2.1804   -9.4618    1.8917 F   0  0  0  0  0  0  0  0  0  0  0  0
   -3.6266   -8.9513    0.3409 F   0  0  0  0  0  0  0  0  0  0  0  0
   -2.1303  -10.4999   -0.0434 F   0  0  0  0  0  0  0  0  0  0  0  0
    0.3072   -8.5586    1.6462 C   0  0  0  0  0  0  0  0  0  0  0  0
    1.4073   -7.9516    2.2640 C   0  0  0  0  0  0  0  0  0  0  0  0
    1.8201   -6.6819    1.8660 C   0  0  0  0  0  0  0  0  0  0  0  0
    2.8555   -6.1023    2.4927 F   0  0  0  0  0  0  0  0  0  0  0  0
    2.9397    1.2203    0.4076 H   0  0  0  0  0  0  0  0  0  0  0  0
    3.0353   -0.0236   -0.8395 H   0  0  0  0  0  0  0  0  0  0  0  0
    3.0999   -0.4608    0.8982 H   0  0  0  0  0  0  0  0  0  0  0  0
    0.9196    2.2075    0.2583 H   0  0  0  0  0  0  0  0  0  0  0  0
   -0.0515    2.4722   -2.2481 H   0  0  0  0  0  0  0  0  0  0  0  0
    0.9416    4.5824   -3.0900 H   0  0  0  0  0  0  0  0  0  0  0  0
   -2.1593    7.2176    0.2996 H   0  0  0  0  0  0  0  0  0  0  0  0
   -1.2737   10.4648   -0.9693 H   0  0  0  0  0  0  0  0  0  0  0  0
   -0.8528   10.8833    1.4346 H   0  0  0  0  0  0  0  0  0  0  0  0
   -0.8543    9.1034    1.8014 H   0  0  0  0  0  0  0  0  0  0  0  0
   -3.2017   10.6954    0.5257 H   0  0  0  0  0  0  0  0  0  0  0  0
   -3.2212    8.9282    0.9074 H   0  0  0  0  0  0  0  0  0  0  0  0
   -2.3647    4.8482    0.5066 H   0  0  0  0  0  0  0  0  0  0  0  0
   -2.7430    0.0233   -0.1784 H   0  0  0  0  0  0  0  0  0  0  0  0
   -1.5335   -2.0476   -0.1031 H   0  0  0  0  0  0  0  0  0  0  0  0
    2.1757   -2.3617    0.1101 H   0  0  0  0  0  0  0  0  0  0  0  0
    2.4159   -4.3704    0.9864 H   0  0  0  0  0  0  0  0  0  0  0  0
   -0.5051   -6.0871   -0.5323 H   0  0  0  0  0  0  0  0  0  0  0  0
    0.0313   -9.5595    1.9663 H   0  0  0  0  0  0  0  0  0  0  0  0
    1.9336   -8.4574    3.0681 H   0  0  0  0  0  0  0  0  0  0  0  0
  1  2  1  0  0  0  0
  1 37  1  0  0  0  0
  1 38  1  0  0  0  0
  1 39  1  0  0  0  0
  2  3  1  0  0  0  0
  2 20  2  0  0  0  0
  3  4  2  0  0  0  0
  3 40  1  0  0  0  0
  4  5  1  0  0  0  0
  4 18  1  0  0  0  0
  5  6  1  0  0  0  0
  6  7  1  0  0  0  0
  6 17  2  0  0  0  0
  7  8  2  0  0  0  0
  7 41  1  0  0  0  0
  8  9  1  0  0  0  0
  8 42  1  0  0  0  0
  9 10  2  0  0  0  0
 10 11  1  0  0  0  0
 10 17  1  0  0  0  0
 11 12  1  0  0  0  0
 11 43  1  0  0  0  0
 12 13  2  0  0  0  0
 12 14  1  0  0  0  0
 14 15  1  0  0  0  0
 14 16  1  0  0  0  0
 14 44  1  0  0  0  0
 15 16  1  0  0  0  0
 15 45  1  0  0  0  0
 15 46  1  0  0  0  0
 16 47  1  0  0  0  0
 16 48  1  0  0  0  0
 17 49  1  0  0  0  0
 18 19  2  0  0  0  0
 18 50  1  0  0  0  0
 19 20  1  0  0  0  0
 19 51  1  0  0  0  0
 20 21  1  0  0  0  0
 21 22  1  0  0  0  0
 21 52  1  0  0  0  0
 22 23  2  0  0  0  0
 22 24  1  0  0  0  0
 24 25  1  0  0  0  0
 24 53  1  0  0  0  0
 25 26  1  0  0  0  0
 25 35  2  0  0  0  0
 26 27  2  0  0  0  0
 26 54  1  0  0  0  0
 27 28  1  0  0  0  0
 27 33  1  0  0  0  0
 28 29  1  0  0  0  0
 29 30  1  0  0  0  0
 29 31  1  0  0  0  0
 29 32  1  0  0  0  0
 33 34  2  0  0  0  0
 33 55  1  0  0  0  0
 34 35  1  0  0  0  0
 34 56  1  0  0  0  0
 35 36  1  0  0  0  0
M  END
$$$$
