CHEMBL4171244
 OpenBabel04072215383D

 77 82  0  0  1  0  0  0  0  0999 V2000
    1.4231    1.8475    0.1125 C   0  0  0  0  0  0  0  0  0  0  0  0
    2.8298    1.6183    0.0238 O   0  0  0  0  0  0  0  0  0  0  0  0
    3.1508    0.4048   -0.4859 C   0  0  0  0  0  0  0  0  0  0  0  0
    2.3607   -0.4484   -0.8576 O   0  0  0  0  0  0  0  0  0  0  0  0
    4.6244    0.2082   -0.4976 C   0  0  0  0  0  0  0  0  0  0  0  0
    5.5276    1.1857   -0.0227 C   0  0  0  0  0  0  0  0  0  0  0  0
    6.9072    0.9301    0.0369 C   0  0  0  0  0  0  0  0  0  0  0  0
    7.3643   -0.3124   -0.3571 C   0  0  0  0  0  0  0  0  0  0  0  0
    6.4569   -1.2573   -0.8552 C   0  0  0  0  0  0  0  0  0  0  0  0
    5.1004   -1.0264   -0.9501 C   0  0  0  0  0  0  0  0  0  0  0  0
    7.0976   -2.4501   -1.1683 N   0  0  0  0  0  0  0  0  0  0  0  0
    8.4429   -2.3853   -0.8474 C   0  0  0  0  0  0  0  0  0  0  0  0
    9.2037   -3.3368   -0.7620 O   0  0  0  0  0  0  0  0  0  0  0  0
    8.6865   -0.9510   -0.4431 C   0  0  0  0  0  0  0  0  0  0  0  0
    9.9390   -0.4632   -0.2847 C   0  0  0  0  0  0  0  0  0  0  0  0
   11.1220   -1.0572   -0.7235 N   0  0  0  0  0  0  0  0  0  0  0  0
   11.2501   -1.4055   -2.1000 C   0  0  0  0  0  0  0  0  0  0  0  0
   10.8302   -0.5686   -3.1304 C   0  0  0  0  0  0  0  0  0  0  0  0
   10.9250   -0.9644   -4.4762 C   0  0  0  0  0  0  0  0  0  0  0  0
   11.4282   -2.2183   -4.8408 C   0  0  0  0  0  0  0  0  0  0  0  0
   11.5766   -2.6090   -6.2175 N   0  0  0  0  0  0  0  0  0  0  0  0
   11.1524   -1.8248   -7.3093 C   0  0  0  0  0  0  0  0  0  0  0  0
   10.7087   -0.6850   -7.3276 O   0  0  0  0  0  0  0  0  0  0  0  0
   11.2583   -2.6382   -8.5702 C   0  0  0  0  0  0  0  0  0  0  0  0
   12.1761   -3.7715   -8.1991 C   0  0  0  0  0  0  0  0  0  0  0  0
   12.0529   -3.9148   -6.6774 C   0  0  1  0  0  0  0  0  0  0  0  0
   13.3965   -4.5131   -6.1513 C   0  0  0  0  0  0  0  0  0  0  0  0
   14.6437   -3.7519   -6.3570 N   0  0  0  0  0  0  0  0  0  0  0  0
   14.6404   -2.4204   -5.7206 C   0  0  0  0  0  0  0  0  0  0  0  0
   15.9881   -1.6803   -5.8636 C   0  0  0  0  0  0  0  0  0  0  0  0
   17.1552   -2.4340   -5.3701 N   0  0  0  0  0  0  0  0  0  0  0  0
   17.1673   -2.4959   -3.9094 C   0  0  0  0  0  0  0  0  0  0  0  0
   17.1351   -3.7793   -5.9773 C   0  0  0  0  0  0  0  0  0  0  0  0
   15.7935   -4.5335   -5.8496 C   0  0  0  0  0  0  0  0  0  0  0  0
   11.8107   -3.0533   -3.7837 C   0  0  0  0  0  0  0  0  0  0  0  0
   11.8069   -2.6285   -2.4487 C   0  0  0  0  0  0  0  0  0  0  0  0
   10.1867    0.7997    0.4379 C   0  0  0  0  0  0  0  0  0  0  0  0
   10.3675    0.7409    1.8287 C   0  0  0  0  0  0  0  0  0  0  0  0
   10.6739    1.8986    2.5468 C   0  0  0  0  0  0  0  0  0  0  0  0
   10.7979    3.1140    1.8780 C   0  0  0  0  0  0  0  0  0  0  0  0
   10.6225    3.1763    0.4977 C   0  0  0  0  0  0  0  0  0  0  0  0
   10.3224    2.0199   -0.2261 C   0  0  0  0  0  0  0  0  0  0  0  0
    1.2673    2.8907    0.3989 H   0  0  0  0  0  0  0  0  0  0  0  0
    0.9861    1.2044    0.8831 H   0  0  0  0  0  0  0  0  0  0  0  0
    0.9374    1.6785   -0.8538 H   0  0  0  0  0  0  0  0  0  0  0  0
    5.1652    2.1524    0.3207 H   0  0  0  0  0  0  0  0  0  0  0  0
    7.5757    1.6988    0.4086 H   0  0  0  0  0  0  0  0  0  0  0  0
    4.4254   -1.7857   -1.3321 H   0  0  0  0  0  0  0  0  0  0  0  0
    6.6405   -3.3080   -1.4378 H   0  0  0  0  0  0  0  0  0  0  0  0
   11.3033   -1.8949   -0.1656 H   0  0  0  0  0  0  0  0  0  0  0  0
   10.4079    0.4102   -2.9163 H   0  0  0  0  0  0  0  0  0  0  0  0
   10.5700   -0.2472   -5.2075 H   0  0  0  0  0  0  0  0  0  0  0  0
   11.6834   -2.0353   -9.3783 H   0  0  0  0  0  0  0  0  0  0  0  0
   10.2630   -2.9908   -8.8535 H   0  0  0  0  0  0  0  0  0  0  0  0
   13.1959   -3.5076   -8.5039 H   0  0  0  0  0  0  0  0  0  0  0  0
   11.9200   -4.6993   -8.7217 H   0  0  0  0  0  0  0  0  0  0  0  0
   11.2447   -4.6257   -6.4581 H   0  0  0  0  0  0  0  0  0  0  0  0
   13.5140   -5.4651   -6.6903 H   0  0  0  0  0  0  0  0  0  0  0  0
   13.3256   -4.8230   -5.1099 H   0  0  0  0  0  0  0  0  0  0  0  0
   14.3934   -2.5021   -4.6562 H   0  0  0  0  0  0  0  0  0  0  0  0
   13.8987   -1.7770   -6.1976 H   0  0  0  0  0  0  0  0  0  0  0  0
   15.9249   -0.7062   -5.3624 H   0  0  0  0  0  0  0  0  0  0  0  0
   16.1492   -1.4530   -6.9259 H   0  0  0  0  0  0  0  0  0  0  0  0
   17.1369   -1.4868   -3.4824 H   0  0  0  0  0  0  0  0  0  0  0  0
   18.0968   -2.9553   -3.5601 H   0  0  0  0  0  0  0  0  0  0  0  0
   16.3296   -3.0614   -3.4865 H   0  0  0  0  0  0  0  0  0  0  0  0
   17.9429   -4.3929   -5.5594 H   0  0  0  0  0  0  0  0  0  0  0  0
   17.3664   -3.6714   -7.0456 H   0  0  0  0  0  0  0  0  0  0  0  0
   15.6320   -4.8122   -4.7982 H   0  0  0  0  0  0  0  0  0  0  0  0
   15.8709   -5.4697   -6.4162 H   0  0  0  0  0  0  0  0  0  0  0  0
   12.1183   -4.0709   -3.9318 H   0  0  0  0  0  0  0  0  0  0  0  0
   12.1790   -3.3024   -1.6828 H   0  0  0  0  0  0  0  0  0  0  0  0
   10.2990   -0.2090    2.3548 H   0  0  0  0  0  0  0  0  0  0  0  0
   10.8308    1.8452    3.6199 H   0  0  0  0  0  0  0  0  0  0  0  0
   11.0498    4.0186    2.4348 H   0  0  0  0  0  0  0  0  0  0  0  0
   10.7379    4.1233   -0.0247 H   0  0  0  0  0  0  0  0  0  0  0  0
   10.2102    2.0801   -1.3026 H   0  0  0  0  0  0  0  0  0  0  0  0
  1  2  1  0  0  0  0
  1 43  1  0  0  0  0
  1 44  1  0  0  0  0
  1 45  1  0  0  0  0
  2  3  1  0  0  0  0
  3  4  2  0  0  0  0
  3  5  1  0  0  0  0
  5  6  1  0  0  0  0
  5 10  2  0  0  0  0
  6  7  2  0  0  0  0
  6 46  1  0  0  0  0
  7  8  1  0  0  0  0
  7 47  1  0  0  0  0
  8  9  2  0  0  0  0
  8 14  1  0  0  0  0
  9 10  1  0  0  0  0
  9 11  1  0  0  0  0
 10 48  1  0  0  0  0
 11 12  1  0  0  0  0
 11 49  1  0  0  0  0
 12 13  2  0  0  0  0
 12 14  1  0  0  0  0
 14 15  2  0  0  0  0
 15 16  1  0  0  0  0
 15 37  1  0  0  0  0
 16 17  1  0  0  0  0
 16 50  1  0  0  0  0
 17 18  1  0  0  0  0
 17 36  2  0  0  0  0
 18 19  2  0  0  0  0
 18 51  1  0  0  0  0
 19 20  1  0  0  0  0
 19 52  1  0  0  0  0
 20 21  1  0  0  0  0
 20 35  2  0  0  0  0
 21 22  1  0  0  0  0
 21 26  1  0  0  0  0
 22 23  2  0  0  0  0
 22 24  1  0  0  0  0
 24 25  1  0  0  0  0
 24 53  1  0  0  0  0
 24 54  1  0  0  0  0
 25 26  1  0  0  0  0
 25 55  1  0  0  0  0
 25 56  1  0  0  0  0
 26 27  1  0  0  0  0
 26 57  1  1  0  0  0
 27 28  1  0  0  0  0
 27 58  1  0  0  0  0
 27 59  1  0  0  0  0
 28 29  1  0  0  0  0
 28 34  1  0  0  0  0
 29 30  1  0  0  0  0
 29 60  1  0  0  0  0
 29 61  1  0  0  0  0
 30 31  1  0  0  0  0
 30 62  1  0  0  0  0
 30 63  1  0  0  0  0
 31 32  1  0  0  0  0
 31 33  1  0  0  0  0
 32 64  1  0  0  0  0
 32 65  1  0  0  0  0
 32 66  1  0  0  0  0
 33 34  1  0  0  0  0
 33 67  1  0  0  0  0
 33 68  1  0  0  0  0
 34 69  1  0  0  0  0
 34 70  1  0  0  0  0
 35 36  1  0  0  0  0
 35 71  1  0  0  0  0
 36 72  1  0  0  0  0
 37 38  1  0  0  0  0
 37 42  2  0  0  0  0
 38 39  2  0  0  0  0
 38 73  1  0  0  0  0
 39 40  1  0  0  0  0
 39 74  1  0  0  0  0
 40 41  2  0  0  0  0
 40 75  1  0  0  0  0
 41 42  1  0  0  0  0
 41 76  1  0  0  0  0
 42 77  1  0  0  0  0
M  END
$$$$
