CHEMBL415756
 OpenBabel04072215383D

 35 38  0  0  0  0  0  0  0  0999 V2000
    1.3591   -0.2198    0.2510 C   0  0  0  0  0  0  0  0  0  0  0  0
    0.7834    0.9417    0.7684 C   0  0  0  0  0  0  0  0  0  0  0  0
   -0.5851    1.1715    0.6088 C   0  0  0  0  0  0  0  0  0  0  0  0
   -1.3822    0.2392   -0.0669 C   0  0  0  0  0  0  0  0  0  0  0  0
   -2.8307    0.4626   -0.2039 C   0  0  0  0  0  0  0  0  0  0  0  0
   -3.7788   -0.0190    0.7981 C   0  0  0  0  0  0  0  0  0  0  0  0
   -5.0923    0.2073    0.6353 C   0  0  0  0  0  0  0  0  0  0  0  0
   -5.5478    0.8735   -0.5066 N   0  0  0  0  0  0  0  0  0  0  0  0
   -6.8356    1.1849   -0.9372 C   0  0  0  0  0  0  0  0  0  0  0  0
   -8.1085    0.8351   -0.2907 C   0  0  0  0  0  0  0  0  0  0  0  0
   -9.2003    1.7143   -0.3782 C   0  0  0  0  0  0  0  0  0  0  0  0
  -10.4372    1.3888    0.1877 C   0  0  0  0  0  0  0  0  0  0  0  0
  -10.5982    0.1845    0.8660 C   0  0  0  0  0  0  0  0  0  0  0  0
   -9.5295   -0.7010    0.9609 C   0  0  0  0  0  0  0  0  0  0  0  0
   -8.3029   -0.3870    0.3674 C   0  0  0  0  0  0  0  0  0  0  0  0
   -6.6271    1.8953   -2.1117 C   0  0  0  0  0  0  0  0  0  0  0  0
   -5.3028    2.0032   -2.4319 N   0  0  0  0  0  0  0  0  0  0  0  0
   -4.6685    1.3717   -1.4706 C   0  0  0  0  0  0  0  0  0  0  0  0
   -3.2740    1.1422   -1.2847 C   0  0  0  0  0  0  0  0  0  0  0  0
   -0.7967   -0.9236   -0.5812 C   0  0  0  0  0  0  0  0  0  0  0  0
    0.5706   -1.1515   -0.4233 C   0  0  0  0  0  0  0  0  0  0  0  0
    2.4243   -0.3996    0.3771 H   0  0  0  0  0  0  0  0  0  0  0  0
    1.3981    1.6667    1.2908 H   0  0  0  0  0  0  0  0  0  0  0  0
   -1.0243    2.0778    1.0181 H   0  0  0  0  0  0  0  0  0  0  0  0
   -3.3972   -0.5473    1.6662 H   0  0  0  0  0  0  0  0  0  0  0  0
   -5.8159   -0.1106    1.3710 H   0  0  0  0  0  0  0  0  0  0  0  0
   -9.1047    2.6668   -0.8955 H   0  0  0  0  0  0  0  0  0  0  0  0
  -11.2744    2.0759    0.0940 H   0  0  0  0  0  0  0  0  0  0  0  0
  -11.5578   -0.0696    1.3083 H   0  0  0  0  0  0  0  0  0  0  0  0
   -9.6517   -1.6470    1.4823 H   0  0  0  0  0  0  0  0  0  0  0  0
   -7.5148   -1.1328    0.4106 H   0  0  0  0  0  0  0  0  0  0  0  0
   -7.3829    2.3224   -2.7591 H   0  0  0  0  0  0  0  0  0  0  0  0
   -2.5980    1.5271   -2.0417 H   0  0  0  0  0  0  0  0  0  0  0  0
   -1.4039   -1.6597   -1.1034 H   0  0  0  0  0  0  0  0  0  0  0  0
    1.0194   -2.0579   -0.8217 H   0  0  0  0  0  0  0  0  0  0  0  0
  1  2  1  0  0  0  0
  1 21  2  0  0  0  0
  1 22  1  0  0  0  0
  2  3  2  0  0  0  0
  2 23  1  0  0  0  0
  3  4  1  0  0  0  0
  3 24  1  0  0  0  0
  4  5  1  0  0  0  0
  4 20  2  0  0  0  0
  5  6  1  0  0  0  0
  5 19  2  0  0  0  0
  6  7  2  0  0  0  0
  6 25  1  0  0  0  0
  7  8  1  0  0  0  0
  7 26  1  0  0  0  0
  8  9  1  0  0  0  0
  8 18  1  0  0  0  0
  9 10  1  0  0  0  0
  9 16  2  0  0  0  0
 10 11  1  0  0  0  0
 10 15  2  0  0  0  0
 11 12  2  0  0  0  0
 11 27  1  0  0  0  0
 12 13  1  0  0  0  0
 12 28  1  0  0  0  0
 13 14  2  0  0  0  0
 13 29  1  0  0  0  0
 14 15  1  0  0  0  0
 14 30  1  0  0  0  0
 15 31  1  0  0  0  0
 16 17  1  0  0  0  0
 16 32  1  0  0  0  0
 17 18  2  0  0  0  0
 18 19  1  0  0  0  0
 19 33  1  0  0  0  0
 20 21  1  0  0  0  0
 20 34  1  0  0  0  0
 21 35  1  0  0  0  0
M  END
$$$$
