CHEMBL3953833
 OpenBabel04072215373D

 63 67  0  0  0  0  0  0  0  0999 V2000
    1.5273    0.6688   -0.1556 C   0  0  0  0  0  0  0  0  0  0  0  0
    2.3881   -0.4665   -0.2130 O   0  0  0  0  0  0  0  0  0  0  0  0
    3.1072   -0.6237   -1.3697 C   0  0  0  0  0  0  0  0  0  0  0  0
    2.8039   -0.0442   -2.5888 C   0  0  0  0  0  0  0  0  0  0  0  0
    3.6055   -0.3148   -3.7015 C   0  0  0  0  0  0  0  0  0  0  0  0
    3.3616    0.1557   -4.9665 O   0  0  0  0  0  0  0  0  0  0  0  0
    2.2770    1.0681   -5.1003 C   0  0  0  0  0  0  0  0  0  0  0  0
    4.7624   -1.1068   -3.5746 C   0  0  0  0  0  0  0  0  0  0  0  0
    5.1577   -1.6234   -2.3400 C   0  0  0  0  0  0  0  0  0  0  0  0
    6.3884   -2.3125   -2.1697 N   0  0  0  0  0  0  0  0  0  0  0  0
    6.8137   -2.5453   -0.7531 C   0  0  0  0  0  0  0  0  0  0  0  0
    7.2660   -1.3014   -0.1361 C   0  0  0  0  0  0  0  0  0  0  0  0
    7.6088   -0.2294    0.3142 C   0  0  0  0  0  0  0  0  0  0  0  0
    7.9383    1.0584    0.7981 C   0  0  0  0  0  0  0  0  0  0  0  0
    6.9548    1.7208    1.4301 N   0  0  0  0  0  0  0  0  0  0  0  0
    7.2693    2.9585    1.8483 C   0  0  0  0  0  0  0  0  0  0  0  0
    8.5012    3.5343    1.6386 C   0  0  0  0  0  0  0  0  0  0  0  0
    9.4253    2.7480    0.9859 C   0  0  0  0  0  0  0  0  0  0  0  0
   10.6600    3.3304    0.7753 O   0  0  0  0  0  0  0  0  0  0  0  0
   11.5701    2.4930    0.0696 C   0  0  0  0  0  0  0  0  0  0  0  0
    9.1810    1.5001    0.5570 N   0  0  0  0  0  0  0  0  0  0  0  0
    7.5111   -2.5507   -3.0393 C   0  0  0  0  0  0  0  0  0  0  0  0
    7.9923   -3.8589   -3.0084 C   0  0  0  0  0  0  0  0  0  0  0  0
    9.3276   -4.1053   -3.2477 C   0  0  0  0  0  0  0  0  0  0  0  0
   10.1732   -3.1191   -3.6794 C   0  0  0  0  0  0  0  0  0  0  0  0
   11.4569   -3.4806   -3.6716 N   0  0  0  0  0  0  0  0  0  0  0  0
   12.3160   -2.6460   -4.2604 C   0  0  0  0  0  0  0  0  0  0  0  0
   11.8990   -1.5115   -4.9244 C   0  0  0  0  0  0  0  0  0  0  0  0
   12.8827   -0.9255   -5.8311 C   0  0  0  0  0  0  0  0  0  0  0  0
   13.0864   -1.1554   -7.2203 C   0  0  0  0  0  0  0  0  0  0  0  0
   14.2477   -0.6584   -7.6688 N   0  0  0  0  0  0  0  0  0  0  0  0
   14.7991   -0.1203   -6.5685 N   0  0  0  0  0  0  0  0  0  0  0  0
   15.9178    0.7871   -6.6727 C   0  0  0  0  0  0  0  0  0  0  0  0
   14.1093   -0.4218   -5.4261 C   0  0  0  0  0  0  0  0  0  0  0  0
   10.5991   -1.0643   -4.8161 N   0  0  0  0  0  0  0  0  0  0  0  0
    9.6887   -1.8615   -4.1080 C   0  0  0  0  0  0  0  0  0  0  0  0
    8.3242   -1.5782   -3.6942 C   0  0  0  0  0  0  0  0  0  0  0  0
    4.2370   -1.4424   -1.2735 C   0  0  0  0  0  0  0  0  0  0  0  0
    1.2043    0.8017    0.8820 H   0  0  0  0  0  0  0  0  0  0  0  0
    0.6323    0.5060   -0.7648 H   0  0  0  0  0  0  0  0  0  0  0  0
    2.0460    1.5858   -0.4578 H   0  0  0  0  0  0  0  0  0  0  0  0
    1.9367    0.5956   -2.6713 H   0  0  0  0  0  0  0  0  0  0  0  0
    2.2123    1.3637   -6.1502 H   0  0  0  0  0  0  0  0  0  0  0  0
    2.4516    1.9727   -4.5066 H   0  0  0  0  0  0  0  0  0  0  0  0
    1.3251    0.5978   -4.8289 H   0  0  0  0  0  0  0  0  0  0  0  0
    5.3588   -1.3008   -4.4608 H   0  0  0  0  0  0  0  0  0  0  0  0
    7.6286   -3.2748   -0.6667 H   0  0  0  0  0  0  0  0  0  0  0  0
    6.0167   -3.0205   -0.1676 H   0  0  0  0  0  0  0  0  0  0  0  0
    6.4680    3.5034    2.3333 H   0  0  0  0  0  0  0  0  0  0  0  0
    8.7284    4.5358    1.9614 H   0  0  0  0  0  0  0  0  0  0  0  0
   12.4756    3.0788   -0.1190 H   0  0  0  0  0  0  0  0  0  0  0  0
   11.1696    2.1842   -0.9022 H   0  0  0  0  0  0  0  0  0  0  0  0
   11.8540    1.6256    0.6744 H   0  0  0  0  0  0  0  0  0  0  0  0
    7.3714   -4.6641   -2.6211 H   0  0  0  0  0  0  0  0  0  0  0  0
    9.7301   -5.0911   -3.0443 H   0  0  0  0  0  0  0  0  0  0  0  0
   13.3557   -2.9574   -4.2402 H   0  0  0  0  0  0  0  0  0  0  0  0
   12.4625   -1.6997   -7.9188 H   0  0  0  0  0  0  0  0  0  0  0  0
   16.1753    0.9442   -7.7236 H   0  0  0  0  0  0  0  0  0  0  0  0
   16.7722    0.3810   -6.1266 H   0  0  0  0  0  0  0  0  0  0  0  0
   15.6013    1.7366   -6.2315 H   0  0  0  0  0  0  0  0  0  0  0  0
   14.5330   -0.2274   -4.4509 H   0  0  0  0  0  0  0  0  0  0  0  0
    7.9459   -0.5643   -3.8252 H   0  0  0  0  0  0  0  0  0  0  0  0
    4.3771   -1.9106   -0.3039 H   0  0  0  0  0  0  0  0  0  0  0  0
  1  2  1  0  0  0  0
  1 39  1  0  0  0  0
  1 40  1  0  0  0  0
  1 41  1  0  0  0  0
  2  3  1  0  0  0  0
  3  4  1  0  0  0  0
  3 38  2  0  0  0  0
  4  5  2  0  0  0  0
  4 42  1  0  0  0  0
  5  6  1  0  0  0  0
  5  8  1  0  0  0  0
  6  7  1  0  0  0  0
  7 43  1  0  0  0  0
  7 44  1  0  0  0  0
  7 45  1  0  0  0  0
  8  9  2  0  0  0  0
  8 46  1  0  0  0  0
  9 10  1  0  0  0  0
  9 38  1  0  0  0  0
 10 11  1  0  0  0  0
 10 22  1  0  0  0  0
 11 12  1  0  0  0  0
 11 47  1  0  0  0  0
 11 48  1  0  0  0  0
 12 13  3  0  0  0  0
 13 14  1  0  0  0  0
 14 15  1  0  0  0  0
 14 21  2  0  0  0  0
 15 16  2  0  0  0  0
 16 17  1  0  0  0  0
 16 49  1  0  0  0  0
 17 18  2  0  0  0  0
 17 50  1  0  0  0  0
 18 19  1  0  0  0  0
 18 21  1  0  0  0  0
 19 20  1  0  0  0  0
 20 51  1  0  0  0  0
 20 52  1  0  0  0  0
 20 53  1  0  0  0  0
 22 23  1  0  0  0  0
 22 37  2  0  0  0  0
 23 24  2  0  0  0  0
 23 54  1  0  0  0  0
 24 25  1  0  0  0  0
 24 55  1  0  0  0  0
 25 26  1  0  0  0  0
 25 36  2  0  0  0  0
 26 27  2  0  0  0  0
 27 28  1  0  0  0  0
 27 56  1  0  0  0  0
 28 29  1  0  0  0  0
 28 35  2  0  0  0  0
 29 30  1  0  0  0  0
 29 34  2  0  0  0  0
 30 31  2  0  0  0  0
 30 57  1  0  0  0  0
 31 32  1  0  0  0  0
 32 33  1  0  0  0  0
 32 34  1  0  0  0  0
 33 58  1  0  0  0  0
 33 59  1  0  0  0  0
 33 60  1  0  0  0  0
 34 61  1  0  0  0  0
 35 36  1  0  0  0  0
 36 37  1  0  0  0  0
 37 62  1  0  0  0  0
 38 63  1  0  0  0  0
M  END
$$$$
