CHEMBL406660
 OpenBabel04072215383D

 42 45  0  0  0  0  0  0  0  0999 V2000
    1.2318    2.0673    3.2098 N   0  0  0  0  0  0  0  0  0  0  0  0
    1.4733    0.9602    2.4854 C   0  0  0  0  0  0  0  0  0  0  0  0
    1.8509   -0.1814    3.0668 N   0  0  0  0  0  0  0  0  0  0  0  0
    2.0299   -1.0872    2.0459 O   0  0  0  0  0  0  0  0  0  0  0  0
    1.7476   -0.4947    0.8603 C   0  0  0  0  0  0  0  0  0  0  0  0
    1.8301   -1.1379   -0.3718 C   0  0  0  0  0  0  0  0  0  0  0  0
    1.4874   -0.3794   -1.4889 C   0  0  0  0  0  0  0  0  0  0  0  0
    1.0846    0.9481   -1.3502 C   0  0  0  0  0  0  0  0  0  0  0  0
    1.0085    1.5980   -0.0903 C   0  0  0  0  0  0  0  0  0  0  0  0
    0.5502    3.0014    0.0053 C   0  0  0  0  0  0  0  0  0  0  0  0
   -0.3550    3.3953    0.9900 C   0  0  0  0  0  0  0  0  0  0  0  0
   -0.7271    4.7313    1.1518 C   0  0  0  0  0  0  0  0  0  0  0  0
   -0.2737    5.7186    0.2781 C   0  0  0  0  0  0  0  0  0  0  0  0
   -0.6491    7.0766    0.3980 N   0  0  0  0  0  0  0  0  0  0  0  0
   -1.2432    7.6382    1.5178 C   0  0  0  0  0  0  0  0  0  0  0  0
   -1.3593    7.0724    2.6006 O   0  0  0  0  0  0  0  0  0  0  0  0
   -1.7632    8.8972    1.2543 N   0  0  0  0  0  0  0  0  0  0  0  0
   -2.4828    9.5953    2.2542 C   0  0  0  0  0  0  0  0  0  0  0  0
   -2.0424    9.6320    3.5850 C   0  0  0  0  0  0  0  0  0  0  0  0
   -2.8238   10.2310    4.5729 C   0  0  0  0  0  0  0  0  0  0  0  0
   -4.0452   10.7922    4.2251 C   0  0  0  0  0  0  0  0  0  0  0  0
   -4.8186   11.3304    5.1766 F   0  0  0  0  0  0  0  0  0  0  0  0
   -4.4817   10.7928    2.9041 C   0  0  0  0  0  0  0  0  0  0  0  0
   -3.6878   10.2158    1.9085 C   0  0  0  0  0  0  0  0  0  0  0  0
    0.5491    5.3307   -0.7805 C   0  0  0  0  0  0  0  0  0  0  0  0
    0.9677    3.9928   -0.9034 C   0  0  0  0  0  0  0  0  0  0  0  0
    1.3695    0.8267    1.0594 C   0  0  0  0  0  0  0  0  0  0  0  0
    1.4494    2.0394    4.2006 H   0  0  0  0  0  0  0  0  0  0  0  0
    1.2980    2.9949    2.8052 H   0  0  0  0  0  0  0  0  0  0  0  0
    2.1421   -2.1720   -0.4479 H   0  0  0  0  0  0  0  0  0  0  0  0
    1.5266   -0.8366   -2.4766 H   0  0  0  0  0  0  0  0  0  0  0  0
    0.7976    1.4874   -2.2542 H   0  0  0  0  0  0  0  0  0  0  0  0
   -0.7800    2.6662    1.6790 H   0  0  0  0  0  0  0  0  0  0  0  0
   -1.3923    4.9549    1.9815 H   0  0  0  0  0  0  0  0  0  0  0  0
   -0.2948    7.7231   -0.2889 H   0  0  0  0  0  0  0  0  0  0  0  0
   -2.0773    9.0260    0.3042 H   0  0  0  0  0  0  0  0  0  0  0  0
   -1.0967    9.1758    3.8698 H   0  0  0  0  0  0  0  0  0  0  0  0
   -2.4971   10.2391    5.6075 H   0  0  0  0  0  0  0  0  0  0  0  0
   -5.4500   11.2205    2.6637 H   0  0  0  0  0  0  0  0  0  0  0  0
   -4.0578   10.1917    0.8881 H   0  0  0  0  0  0  0  0  0  0  0  0
    0.8935    6.0552   -1.5146 H   0  0  0  0  0  0  0  0  0  0  0  0
    1.6354    3.7382   -1.7249 H   0  0  0  0  0  0  0  0  0  0  0  0
  1  2  1  0  0  0  0
  1 28  1  0  0  0  0
  1 29  1  0  0  0  0
  2  3  2  0  0  0  0
  2 27  1  0  0  0  0
  3  4  1  0  0  0  0
  4  5  1  0  0  0  0
  5  6  1  0  0  0  0
  5 27  2  0  0  0  0
  6  7  2  0  0  0  0
  6 30  1  0  0  0  0
  7  8  1  0  0  0  0
  7 31  1  0  0  0  0
  8  9  2  0  0  0  0
  8 32  1  0  0  0  0
  9 10  1  0  0  0  0
  9 27  1  0  0  0  0
 10 11  1  0  0  0  0
 10 26  2  0  0  0  0
 11 12  2  0  0  0  0
 11 33  1  0  0  0  0
 12 13  1  0  0  0  0
 12 34  1  0  0  0  0
 13 14  1  0  0  0  0
 13 25  2  0  0  0  0
 14 15  1  0  0  0  0
 14 35  1  0  0  0  0
 15 16  2  0  0  0  0
 15 17  1  0  0  0  0
 17 18  1  0  0  0  0
 17 36  1  0  0  0  0
 18 19  1  0  0  0  0
 18 24  2  0  0  0  0
 19 20  2  0  0  0  0
 19 37  1  0  0  0  0
 20 21  1  0  0  0  0
 20 38  1  0  0  0  0
 21 22  1  0  0  0  0
 21 23  2  0  0  0  0
 23 24  1  0  0  0  0
 23 39  1  0  0  0  0
 24 40  1  0  0  0  0
 25 26  1  0  0  0  0
 25 41  1  0  0  0  0
 26 42  1  0  0  0  0
M  END
$$$$
