CHEMBL234275
 OpenBabel04072215363D

 45 47  0  0  0  0  0  0  0  0999 V2000
   -3.1638    0.1819    0.3607 N   0  0  0  0  0  0  0  0  0  0  0  0
   -2.0118    0.0921    0.2574 C   0  0  0  0  0  0  0  0  0  0  0  0
   -0.5986    0.0210    0.1019 C   0  0  0  0  0  0  0  0  0  0  0  0
    0.1194    1.1905    0.1259 C   0  0  0  0  0  0  0  0  0  0  0  0
    1.4547    1.2385    0.0685 N   0  0  0  0  0  0  0  0  0  0  0  0
    2.1223    0.0804   -0.0479 C   0  0  0  0  0  0  0  0  0  0  0  0
    3.5095    0.1047   -0.1026 N   0  0  0  0  0  0  0  0  0  0  0  0
    4.3676    1.1018    0.3771 C   0  0  0  0  0  0  0  0  0  0  0  0
    4.0348    1.8734    1.5010 C   0  0  0  0  0  0  0  0  0  0  0  0
    4.8208    2.9514    1.9092 C   0  0  0  0  0  0  0  0  0  0  0  0
    5.9521    3.3085    1.1752 C   0  0  0  0  0  0  0  0  0  0  0  0
    6.7610    4.5244    1.5605 C   0  0  0  0  0  0  0  0  0  0  0  0
    7.8624    4.2281    2.5754 C   0  0  0  0  0  0  0  0  0  0  0  0
    8.8370    3.3371    2.0439 O   0  0  0  0  0  0  0  0  0  0  0  0
    6.3079    2.5333    0.0625 C   0  0  0  0  0  0  0  0  0  0  0  0
    5.5277    1.4382   -0.3279 C   0  0  0  0  0  0  0  0  0  0  0  0
    1.5043   -1.1092   -0.1409 N   0  0  0  0  0  0  0  0  0  0  0  0
    0.1429   -1.1421   -0.0515 C   0  0  0  0  0  0  0  0  0  0  0  0
   -0.4373   -2.5096   -0.1252 C   0  0  0  0  0  0  0  0  0  0  0  0
    0.2376   -3.6142    0.4389 C   0  0  0  0  0  0  0  0  0  0  0  0
   -0.2929   -4.9104    0.3782 C   0  0  0  0  0  0  0  0  0  0  0  0
   -1.5280   -5.1167   -0.2345 C   0  0  0  0  0  0  0  0  0  0  0  0
   -2.2284   -6.7363   -0.3177 S   0  0  0  0  0  0  0  0  0  0  0  0
   -3.1552   -6.7642    1.0807 N   0  0  0  0  0  0  0  0  0  0  0  0
   -3.1622   -6.7965   -1.4177 O   0  0  0  0  0  0  0  0  0  0  0  0
   -1.1864   -7.7178   -0.1302 O   0  0  0  0  0  0  0  0  0  0  0  0
   -2.2106   -4.0541   -0.8188 C   0  0  0  0  0  0  0  0  0  0  0  0
   -1.6592   -2.7719   -0.7753 C   0  0  0  0  0  0  0  0  0  0  0  0
   -0.3625    2.1623    0.1993 H   0  0  0  0  0  0  0  0  0  0  0  0
    3.9155   -0.7417   -0.4705 H   0  0  0  0  0  0  0  0  0  0  0  0
    3.1416    1.6381    2.0751 H   0  0  0  0  0  0  0  0  0  0  0  0
    4.5170    3.5227    2.7833 H   0  0  0  0  0  0  0  0  0  0  0  0
    6.0853    5.2848    1.9732 H   0  0  0  0  0  0  0  0  0  0  0  0
    7.1956    4.9596    0.6526 H   0  0  0  0  0  0  0  0  0  0  0  0
    7.4641    3.8012    3.5016 H   0  0  0  0  0  0  0  0  0  0  0  0
    8.3790    5.1595    2.8293 H   0  0  0  0  0  0  0  0  0  0  0  0
    8.3955    2.4755    1.9339 H   0  0  0  0  0  0  0  0  0  0  0  0
    7.1831    2.7978   -0.5282 H   0  0  0  0  0  0  0  0  0  0  0  0
    5.8029    0.8874   -1.2242 H   0  0  0  0  0  0  0  0  0  0  0  0
    1.1984   -3.4706    0.9345 H   0  0  0  0  0  0  0  0  0  0  0  0
    0.2592   -5.7417    0.8121 H   0  0  0  0  0  0  0  0  0  0  0  0
   -4.1446   -6.8450    0.8455 H   0  0  0  0  0  0  0  0  0  0  0  0
   -2.8143   -7.4889    1.7119 H   0  0  0  0  0  0  0  0  0  0  0  0
   -3.1678   -4.2086   -1.3125 H   0  0  0  0  0  0  0  0  0  0  0  0
   -2.2141   -1.9846   -1.2801 H   0  0  0  0  0  0  0  0  0  0  0  0
  1  2  3  0  0  0  0
  2  3  1  0  0  0  0
  3  4  1  0  0  0  0
  3 18  2  0  0  0  0
  4  5  2  0  0  0  0
  4 29  1  0  0  0  0
  5  6  1  0  0  0  0
  6  7  1  0  0  0  0
  6 17  2  0  0  0  0
  7  8  1  0  0  0  0
  7 30  1  0  0  0  0
  8  9  1  0  0  0  0
  8 16  2  0  0  0  0
  9 10  2  0  0  0  0
  9 31  1  0  0  0  0
 10 11  1  0  0  0  0
 10 32  1  0  0  0  0
 11 12  1  0  0  0  0
 11 15  2  0  0  0  0
 12 13  1  0  0  0  0
 12 33  1  0  0  0  0
 12 34  1  0  0  0  0
 13 14  1  0  0  0  0
 13 35  1  0  0  0  0
 13 36  1  0  0  0  0
 14 37  1  0  0  0  0
 15 16  1  0  0  0  0
 15 38  1  0  0  0  0
 16 39  1  0  0  0  0
 17 18  1  0  0  0  0
 18 19  1  0  0  0  0
 19 20  1  0  0  0  0
 19 28  2  0  0  0  0
 20 21  2  0  0  0  0
 20 40  1  0  0  0  0
 21 22  1  0  0  0  0
 21 41  1  0  0  0  0
 22 23  1  0  0  0  0
 22 27  2  0  0  0  0
 23 24  1  0  0  0  0
 23 25  2  0  0  0  0
 23 26  2  0  0  0  0
 24 42  1  0  0  0  0
 24 43  1  0  0  0  0
 27 28  1  0  0  0  0
 27 44  1  0  0  0  0
 28 45  1  0  0  0  0
M  END
$$$$
