CHEMBL215730
 OpenBabel04072215363D

 82 86  0  0  0  0  0  0  0  0999 V2000
    0.6397    0.1807   -1.3527 C   0  0  0  0  0  0  0  0  0  0  0  0
    2.0329    0.1642   -1.0739 O   0  0  0  0  0  0  0  0  0  0  0  0
    2.6976    1.3593   -1.0624 C   0  0  0  0  0  0  0  0  0  0  0  0
    2.1480    2.6150   -1.3189 C   0  0  0  0  0  0  0  0  0  0  0  0
    2.9574    3.7640   -1.2805 C   0  0  0  0  0  0  0  0  0  0  0  0
    4.3304    3.6684   -0.9972 C   0  0  0  0  0  0  0  0  0  0  0  0
    5.1830    4.8065   -1.0432 N   0  0  0  0  0  0  0  0  0  0  0  0
    6.2310    4.9218   -1.9679 C   0  0  0  0  0  0  0  0  0  0  0  0
    7.2183    5.6353   -1.7920 O   0  0  0  0  0  0  0  0  0  0  0  0
    6.0210    4.1796   -3.1375 O   0  0  0  0  0  0  0  0  0  0  0  0
    6.6199    4.4881   -4.3995 C   0  0  0  0  0  0  0  0  0  0  0  0
    6.5550    5.7636   -4.9918 C   0  0  0  0  0  0  0  0  0  0  0  0
    6.1514    7.0459   -4.3266 C   0  0  0  0  0  0  0  0  0  0  0  0
    6.8697    5.8806   -6.3609 C   0  0  0  0  0  0  0  0  0  0  0  0
    7.2671    4.7815   -7.1152 C   0  0  0  0  0  0  0  0  0  0  0  0
    7.3957    3.5413   -6.5046 C   0  0  0  0  0  0  0  0  0  0  0  0
    7.0701    3.3807   -5.1478 C   0  0  0  0  0  0  0  0  0  0  0  0
    7.2594    2.0247   -4.5209 C   0  0  0  0  0  0  0  0  0  0  0  0
    4.7415    5.9900   -0.4047 C   0  0  0  0  0  0  0  0  0  0  0  0
    4.6250    6.0446    0.9651 C   0  0  0  0  0  0  0  0  0  0  0  0
    4.2905    7.2695    1.4877 C   0  0  0  0  0  0  0  0  0  0  0  0
    3.9887    8.3413    0.7372 N   0  0  0  0  0  0  0  0  0  0  0  0
    4.0299    8.1716   -0.5891 C   0  0  0  0  0  0  0  0  0  0  0  0
    3.5659    9.2264   -1.3657 N   0  0  0  0  0  0  0  0  0  0  0  0
    2.9824    9.1966   -2.6389 C   0  0  0  0  0  0  0  0  0  0  0  0
    2.6745    8.0180   -3.3085 C   0  0  0  0  0  0  0  0  0  0  0  0
    2.1940    8.0379   -4.6138 C   0  0  0  0  0  0  0  0  0  0  0  0
    2.0331    9.2287   -5.3402 C   0  0  0  0  0  0  0  0  0  0  0  0
    1.5451    9.0927   -6.6381 N   0  0  0  0  0  0  0  0  0  0  0  0
    0.8368   10.1834   -7.3191 C   0  0  0  0  0  0  0  0  0  0  0  0
   -0.0521    9.5874   -8.4462 C   0  0  0  0  0  0  0  0  0  0  0  0
    0.7167    8.7626   -9.4102 N   0  0  0  0  0  0  0  0  0  0  0  0
   -0.1512    8.2076  -10.4433 C   0  0  0  0  0  0  0  0  0  0  0  0
    1.4050    7.6835   -8.6673 C   0  0  0  0  0  0  0  0  0  0  0  0
    2.3300    8.2435   -7.5625 C   0  0  0  0  0  0  0  0  0  0  0  0
    2.3466   10.4327   -4.6661 C   0  0  0  0  0  0  0  0  0  0  0  0
    2.2359   11.6208   -5.3552 O   0  0  0  0  0  0  0  0  0  0  0  0
    2.9074   12.7465   -4.7913 C   0  0  0  0  0  0  0  0  0  0  0  0
    2.7909   10.3970   -3.3264 C   0  0  0  0  0  0  0  0  0  0  0  0
    4.4510    7.0448   -1.1760 N   0  0  0  0  0  0  0  0  0  0  0  0
    4.8637    2.4057   -0.6936 C   0  0  0  0  0  0  0  0  0  0  0  0
    6.1635    2.2018   -0.2970 O   0  0  0  0  0  0  0  0  0  0  0  0
    6.5094    2.9595    0.8662 C   0  0  0  0  0  0  0  0  0  0  0  0
    4.0572    1.2637   -0.7515 C   0  0  0  0  0  0  0  0  0  0  0  0
    0.2729   -0.8468   -1.3123 H   0  0  0  0  0  0  0  0  0  0  0  0
    0.4396    0.5681   -2.3592 H   0  0  0  0  0  0  0  0  0  0  0  0
    0.0929    0.7599   -0.5970 H   0  0  0  0  0  0  0  0  0  0  0  0
    1.0992    2.7336   -1.5760 H   0  0  0  0  0  0  0  0  0  0  0  0
    2.5076    4.7209   -1.5364 H   0  0  0  0  0  0  0  0  0  0  0  0
    6.0409    6.9895   -3.2506 H   0  0  0  0  0  0  0  0  0  0  0  0
    5.2022    7.3947   -4.7432 H   0  0  0  0  0  0  0  0  0  0  0  0
    6.9165    7.8084   -4.5129 H   0  0  0  0  0  0  0  0  0  0  0  0
    6.7867    6.8494   -6.8521 H   0  0  0  0  0  0  0  0  0  0  0  0
    7.4836    4.8984   -8.1736 H   0  0  0  0  0  0  0  0  0  0  0  0
    7.7318    2.6953   -7.1003 H   0  0  0  0  0  0  0  0  0  0  0  0
    7.4850    1.2606   -5.2749 H   0  0  0  0  0  0  0  0  0  0  0  0
    6.3576    1.7000   -4.0013 H   0  0  0  0  0  0  0  0  0  0  0  0
    8.0995    2.0528   -3.8199 H   0  0  0  0  0  0  0  0  0  0  0  0
    4.8511    5.2128    1.6105 H   0  0  0  0  0  0  0  0  0  0  0  0
    4.2561    7.4318    2.5611 H   0  0  0  0  0  0  0  0  0  0  0  0
    3.3606   10.0265   -0.7869 H   0  0  0  0  0  0  0  0  0  0  0  0
    2.7844    7.0482   -2.8374 H   0  0  0  0  0  0  0  0  0  0  0  0
    1.9300    7.0861   -5.0685 H   0  0  0  0  0  0  0  0  0  0  0  0
    1.5488   10.8967   -7.7516 H   0  0  0  0  0  0  0  0  0  0  0  0
    0.1787   10.7160   -6.6229 H   0  0  0  0  0  0  0  0  0  0  0  0
   -0.5412   10.4133   -8.9750 H   0  0  0  0  0  0  0  0  0  0  0  0
   -0.8428    8.9792   -7.9838 H   0  0  0  0  0  0  0  0  0  0  0  0
   -0.6466    9.0111  -10.9986 H   0  0  0  0  0  0  0  0  0  0  0  0
   -0.9205    7.5425  -10.0353 H   0  0  0  0  0  0  0  0  0  0  0  0
    0.4408    7.6424  -11.1722 H   0  0  0  0  0  0  0  0  0  0  0  0
    2.0098    7.0831   -9.3572 H   0  0  0  0  0  0  0  0  0  0  0  0
    0.6691    7.0089   -8.2066 H   0  0  0  0  0  0  0  0  0  0  0  0
    3.1366    8.8355   -8.0138 H   0  0  0  0  0  0  0  0  0  0  0  0
    2.8036    7.3922   -7.0607 H   0  0  0  0  0  0  0  0  0  0  0  0
    2.9350   13.5401   -5.5433 H   0  0  0  0  0  0  0  0  0  0  0  0
    3.9457   12.5109   -4.5286 H   0  0  0  0  0  0  0  0  0  0  0  0
    2.3595   13.1298   -3.9242 H   0  0  0  0  0  0  0  0  0  0  0  0
    3.0195   11.3130   -2.7922 H   0  0  0  0  0  0  0  0  0  0  0  0
    7.2304    2.3875    1.4547 H   0  0  0  0  0  0  0  0  0  0  0  0
    5.6464    3.1591    1.5120 H   0  0  0  0  0  0  0  0  0  0  0  0
    6.9956    3.8950    0.5757 H   0  0  0  0  0  0  0  0  0  0  0  0
    4.4880    0.2907   -0.5261 H   0  0  0  0  0  0  0  0  0  0  0  0
  1  2  1  0  0  0  0
  1 45  1  0  0  0  0
  1 46  1  0  0  0  0
  1 47  1  0  0  0  0
  2  3  1  0  0  0  0
  3  4  1  0  0  0  0
  3 44  2  0  0  0  0
  4  5  2  0  0  0  0
  4 48  1  0  0  0  0
  5  6  1  0  0  0  0
  5 49  1  0  0  0  0
  6  7  1  0  0  0  0
  6 41  2  0  0  0  0
  7  8  1  0  0  0  0
  7 19  1  0  0  0  0
  8  9  2  0  0  0  0
  8 10  1  0  0  0  0
 10 11  1  0  0  0  0
 11 12  1  0  0  0  0
 11 17  2  0  0  0  0
 12 13  1  0  0  0  0
 12 14  2  0  0  0  0
 13 50  1  0  0  0  0
 13 51  1  0  0  0  0
 13 52  1  0  0  0  0
 14 15  1  0  0  0  0
 14 53  1  0  0  0  0
 15 16  2  0  0  0  0
 15 54  1  0  0  0  0
 16 17  1  0  0  0  0
 16 55  1  0  0  0  0
 17 18  1  0  0  0  0
 18 56  1  0  0  0  0
 18 57  1  0  0  0  0
 18 58  1  0  0  0  0
 19 20  1  0  0  0  0
 19 40  2  0  0  0  0
 20 21  2  0  0  0  0
 20 59  1  0  0  0  0
 21 22  1  0  0  0  0
 21 60  1  0  0  0  0
 22 23  2  0  0  0  0
 23 24  1  0  0  0  0
 23 40  1  0  0  0  0
 24 25  1  0  0  0  0
 24 61  1  0  0  0  0
 25 26  1  0  0  0  0
 25 39  2  0  0  0  0
 26 27  2  0  0  0  0
 26 62  1  0  0  0  0
 27 28  1  0  0  0  0
 27 63  1  0  0  0  0
 28 29  1  0  0  0  0
 28 36  2  0  0  0  0
 29 30  1  0  0  0  0
 29 35  1  0  0  0  0
 30 31  1  0  0  0  0
 30 64  1  0  0  0  0
 30 65  1  0  0  0  0
 31 32  1  0  0  0  0
 31 66  1  0  0  0  0
 31 67  1  0  0  0  0
 32 33  1  0  0  0  0
 32 34  1  0  0  0  0
 33 68  1  0  0  0  0
 33 69  1  0  0  0  0
 33 70  1  0  0  0  0
 34 35  1  0  0  0  0
 34 71  1  0  0  0  0
 34 72  1  0  0  0  0
 35 73  1  0  0  0  0
 35 74  1  0  0  0  0
 36 37  1  0  0  0  0
 36 39  1  0  0  0  0
 37 38  1  0  0  0  0
 38 75  1  0  0  0  0
 38 76  1  0  0  0  0
 38 77  1  0  0  0  0
 39 78  1  0  0  0  0
 41 42  1  0  0  0  0
 41 44  1  0  0  0  0
 42 43  1  0  0  0  0
 43 79  1  0  0  0  0
 43 80  1  0  0  0  0
 43 81  1  0  0  0  0
 44 82  1  0  0  0  0
M  END
$$$$
