CHEMBL3612324
 OpenBabel04072215363D

 42 45  0  0  0  0  0  0  0  0999 V2000
   -2.7126    0.4784    2.6439 N   0  0  0  0  0  0  0  0  0  0  0  0
   -1.6111    0.3692    2.2950 C   0  0  0  0  0  0  0  0  0  0  0  0
   -0.2452    0.2119    1.8765 C   0  0  0  0  0  0  0  0  0  0  0  0
    0.3212   -1.0572    1.8515 C   0  0  0  0  0  0  0  0  0  0  0  0
    1.6558   -1.2178    1.4732 C   0  0  0  0  0  0  0  0  0  0  0  0
    2.4607   -0.1334    1.1084 C   0  0  0  0  0  0  0  0  0  0  0  0
    3.8323   -0.2606    0.7514 N   0  0  0  0  0  0  0  0  0  0  0  0
    4.5252   -1.4626    0.6743 C   0  0  0  0  0  0  0  0  0  0  0  0
    4.0322   -2.5688    0.8737 O   0  0  0  0  0  0  0  0  0  0  0  0
    5.8753   -1.3069    0.3698 N   0  0  0  0  0  0  0  0  0  0  0  0
    6.6863   -2.4748    0.2779 C   0  0  0  0  0  0  0  0  0  0  0  0
    6.3286   -3.5348   -0.5650 C   0  0  0  0  0  0  0  0  0  0  0  0
    7.0896   -4.7116   -0.5994 C   0  0  0  0  0  0  0  0  0  0  0  0
    8.2233   -4.8434    0.2069 C   0  0  0  0  0  0  0  0  0  0  0  0
    9.1576   -6.3672    0.2224 S   0  0  0  0  0  0  0  0  0  0  0  0
   10.4672   -6.0224   -0.9350 C   0  0  0  0  0  0  0  0  0  0  0  0
   10.1999   -5.8666   -2.2956 C   0  0  0  0  0  0  0  0  0  0  0  0
   11.2447   -5.6187   -3.1643 C   0  0  0  0  0  0  0  0  0  0  0  0
   12.5359   -5.5101   -2.8121 N   0  0  0  0  0  0  0  0  0  0  0  0
   12.8051   -5.6788   -1.4900 C   0  0  0  0  0  0  0  0  0  0  0  0
   14.1100   -5.5841   -0.9225 C   0  0  0  0  0  0  0  0  0  0  0  0
   14.1100   -5.8073    0.4335 C   0  0  0  0  0  0  0  0  0  0  0  0
   12.5421   -6.1354    1.0251 S   0  0  0  0  0  0  0  0  0  0  0  0
   11.8182   -5.9475   -0.5339 C   0  0  0  0  0  0  0  0  0  0  0  0
    8.5702   -3.7891    1.0601 C   0  0  0  0  0  0  0  0  0  0  0  0
    7.8215   -2.6002    1.0794 C   0  0  0  0  0  0  0  0  0  0  0  0
    1.8727    1.1443    1.1153 C   0  0  0  0  0  0  0  0  0  0  0  0
    0.5275    1.3136    1.5017 C   0  0  0  0  0  0  0  0  0  0  0  0
   -0.2539   -1.9407    2.1323 H   0  0  0  0  0  0  0  0  0  0  0  0
    2.0314   -2.2345    1.4802 H   0  0  0  0  0  0  0  0  0  0  0  0
    4.3213    0.5740    0.4731 H   0  0  0  0  0  0  0  0  0  0  0  0
    6.3095   -0.4969    0.7881 H   0  0  0  0  0  0  0  0  0  0  0  0
    5.4411   -3.4616   -1.1903 H   0  0  0  0  0  0  0  0  0  0  0  0
    6.7668   -5.5277   -1.2415 H   0  0  0  0  0  0  0  0  0  0  0  0
    9.1891   -5.9416   -2.6816 H   0  0  0  0  0  0  0  0  0  0  0  0
   11.0546   -5.4911   -4.2277 H   0  0  0  0  0  0  0  0  0  0  0  0
   14.9998   -5.3574   -1.4955 H   0  0  0  0  0  0  0  0  0  0  0  0
   14.9584   -5.7936    1.1046 H   0  0  0  0  0  0  0  0  0  0  0  0
    9.4089   -3.8987    1.7443 H   0  0  0  0  0  0  0  0  0  0  0  0
    8.0927   -1.8223    1.7868 H   0  0  0  0  0  0  0  0  0  0  0  0
    2.4382    2.0272    0.8312 H   0  0  0  0  0  0  0  0  0  0  0  0
    0.0866    2.3108    1.5005 H   0  0  0  0  0  0  0  0  0  0  0  0
  1  2  3  0  0  0  0
  2  3  1  0  0  0  0
  3  4  1  0  0  0  0
  3 28  2  0  0  0  0
  4  5  2  0  0  0  0
  4 29  1  0  0  0  0
  5  6  1  0  0  0  0
  5 30  1  0  0  0  0
  6  7  1  0  0  0  0
  6 27  2  0  0  0  0
  7  8  1  0  0  0  0
  7 31  1  0  0  0  0
  8  9  2  0  0  0  0
  8 10  1  0  0  0  0
 10 11  1  0  0  0  0
 10 32  1  0  0  0  0
 11 12  1  0  0  0  0
 11 26  2  0  0  0  0
 12 13  2  0  0  0  0
 12 33  1  0  0  0  0
 13 14  1  0  0  0  0
 13 34  1  0  0  0  0
 14 15  1  0  0  0  0
 14 25  2  0  0  0  0
 15 16  1  0  0  0  0
 16 17  1  0  0  0  0
 16 24  2  0  0  0  0
 17 18  2  0  0  0  0
 17 35  1  0  0  0  0
 18 19  1  0  0  0  0
 18 36  1  0  0  0  0
 19 20  2  0  0  0  0
 20 21  1  0  0  0  0
 20 24  1  0  0  0  0
 21 22  2  0  0  0  0
 21 37  1  0  0  0  0
 22 23  1  0  0  0  0
 22 38  1  0  0  0  0
 23 24  1  0  0  0  0
 25 26  1  0  0  0  0
 25 39  1  0  0  0  0
 26 40  1  0  0  0  0
 27 28  1  0  0  0  0
 27 41  1  0  0  0  0
 28 42  1  0  0  0  0
M  END
$$$$
