CHEMBL387604
 OpenBabel04072215373D

 52 55  0  0  0  0  0  0  0  0999 V2000
    2.7588    5.6039    9.5581 C   0  0  0  0  0  0  0  0  0  0  0  0
    3.8787    5.1825    8.7742 O   0  0  0  0  0  0  0  0  0  0  0  0
    3.9308    3.8297    8.6109 C   0  0  0  0  0  0  0  0  0  0  0  0
    3.0803    3.0748    9.0589 O   0  0  0  0  0  0  0  0  0  0  0  0
    5.0746    3.5223    7.9207 N   0  0  0  0  0  0  0  0  0  0  0  0
    5.4363    2.2233    7.6892 C   0  0  0  0  0  0  0  0  0  0  0  0
    4.7513    1.1427    7.9760 N   0  0  0  0  0  0  0  0  0  0  0  0
    5.5582    0.0957    7.6671 C   0  0  0  0  0  0  0  0  0  0  0  0
    5.2425   -1.2034    7.8433 N   0  0  0  0  0  0  0  0  0  0  0  0
    6.2429   -2.0586    7.5516 C   0  0  0  0  0  0  0  0  0  0  0  0
    7.5273   -1.6954    7.1378 C   0  0  0  0  0  0  0  0  0  0  0  0
    8.5556   -2.5911    6.9621 O   0  0  0  0  0  0  0  0  0  0  0  0
    8.6526   -3.6569    7.8281 C   0  0  0  0  0  0  0  0  0  0  0  0
    9.1430   -4.8392    7.2873 C   0  0  0  0  0  0  0  0  0  0  0  0
    9.2464   -5.9843    8.0825 C   0  0  0  0  0  0  0  0  0  0  0  0
    8.8737   -5.9633    9.4341 C   0  0  0  0  0  0  0  0  0  0  0  0
    8.9235   -7.0976   10.2768 N   0  0  0  0  0  0  0  0  0  0  0  0
    9.4905   -8.3079    9.9423 C   0  0  0  0  0  0  0  0  0  0  0  0
   10.0949   -8.5349    8.8968 O   0  0  0  0  0  0  0  0  0  0  0  0
    9.2940   -9.2816   10.9162 N   0  0  0  0  0  0  0  0  0  0  0  0
    9.8098  -10.5778   10.6476 C   0  0  0  0  0  0  0  0  0  0  0  0
   11.1343  -10.7399   10.2227 C   0  0  0  0  0  0  0  0  0  0  0  0
   11.5772  -11.9665    9.7102 C   0  0  0  0  0  0  0  0  0  0  0  0
   12.9799  -12.1093    9.1717 C   0  0  0  0  0  0  0  0  0  0  0  0
   13.7454  -10.9935    9.3223 F   0  0  0  0  0  0  0  0  0  0  0  0
   13.6654  -13.1126    9.7880 F   0  0  0  0  0  0  0  0  0  0  0  0
   13.0033  -12.4051    7.8431 F   0  0  0  0  0  0  0  0  0  0  0  0
   10.6748  -13.0428    9.6616 C   0  0  0  0  0  0  0  0  0  0  0  0
    9.3736  -12.9028   10.1563 C   0  0  0  0  0  0  0  0  0  0  0  0
    8.9552  -11.6776   10.6661 C   0  0  0  0  0  0  0  0  0  0  0  0
    7.6875  -11.5325   11.0808 F   0  0  0  0  0  0  0  0  0  0  0  0
    8.4066   -4.7605    9.9800 C   0  0  0  0  0  0  0  0  0  0  0  0
    8.3269   -3.6085    9.1871 C   0  0  0  0  0  0  0  0  0  0  0  0
    7.8085   -0.3555    6.8614 C   0  0  0  0  0  0  0  0  0  0  0  0
    6.7787    0.5311    7.1690 C   0  0  0  0  0  0  0  0  0  0  0  0
    6.6457    1.8954    7.1223 N   0  0  0  0  0  0  0  0  0  0  0  0
    2.7416    6.6963    9.5730 H   0  0  0  0  0  0  0  0  0  0  0  0
    2.8634    5.2445   10.5881 H   0  0  0  0  0  0  0  0  0  0  0  0
    1.8186    5.2507    9.1204 H   0  0  0  0  0  0  0  0  0  0  0  0
    5.6671    4.2960    7.6697 H   0  0  0  0  0  0  0  0  0  0  0  0
    5.9787   -3.1023    7.7010 H   0  0  0  0  0  0  0  0  0  0  0  0
    9.4375   -4.8893    6.2421 H   0  0  0  0  0  0  0  0  0  0  0  0
    9.6152   -6.8777    7.5975 H   0  0  0  0  0  0  0  0  0  0  0  0
    8.6471   -6.9785   11.2392 H   0  0  0  0  0  0  0  0  0  0  0  0
    8.3644   -9.2705   11.3210 H   0  0  0  0  0  0  0  0  0  0  0  0
   11.8095   -9.8842   10.2280 H   0  0  0  0  0  0  0  0  0  0  0  0
   10.9825  -13.9895    9.2196 H   0  0  0  0  0  0  0  0  0  0  0  0
    8.6719  -13.7295   10.1051 H   0  0  0  0  0  0  0  0  0  0  0  0
    8.1025   -4.6995   11.0176 H   0  0  0  0  0  0  0  0  0  0  0  0
    7.9850   -2.6848    9.6472 H   0  0  0  0  0  0  0  0  0  0  0  0
    8.7726   -0.0369    6.4866 H   0  0  0  0  0  0  0  0  0  0  0  0
    7.3422    2.5482    6.7969 H   0  0  0  0  0  0  0  0  0  0  0  0
  1  2  1  0  0  0  0
  1 37  1  0  0  0  0
  1 38  1  0  0  0  0
  1 39  1  0  0  0  0
  2  3  1  0  0  0  0
  3  4  2  0  0  0  0
  3  5  1  0  0  0  0
  5  6  1  0  0  0  0
  5 40  1  0  0  0  0
  6  7  2  0  0  0  0
  6 36  1  0  0  0  0
  7  8  1  0  0  0  0
  8  9  1  0  0  0  0
  8 35  2  0  0  0  0
  9 10  2  0  0  0  0
 10 11  1  0  0  0  0
 10 41  1  0  0  0  0
 11 12  1  0  0  0  0
 11 34  2  0  0  0  0
 12 13  1  0  0  0  0
 13 14  1  0  0  0  0
 13 33  2  0  0  0  0
 14 15  2  0  0  0  0
 14 42  1  0  0  0  0
 15 16  1  0  0  0  0
 15 43  1  0  0  0  0
 16 17  1  0  0  0  0
 16 32  2  0  0  0  0
 17 18  1  0  0  0  0
 17 44  1  0  0  0  0
 18 19  2  0  0  0  0
 18 20  1  0  0  0  0
 20 21  1  0  0  0  0
 20 45  1  0  0  0  0
 21 22  1  0  0  0  0
 21 30  2  0  0  0  0
 22 23  2  0  0  0  0
 22 46  1  0  0  0  0
 23 24  1  0  0  0  0
 23 28  1  0  0  0  0
 24 25  1  0  0  0  0
 24 26  1  0  0  0  0
 24 27  1  0  0  0  0
 28 29  2  0  0  0  0
 28 47  1  0  0  0  0
 29 30  1  0  0  0  0
 29 48  1  0  0  0  0
 30 31  1  0  0  0  0
 32 33  1  0  0  0  0
 32 49  1  0  0  0  0
 33 50  1  0  0  0  0
 34 35  1  0  0  0  0
 34 51  1  0  0  0  0
 35 36  1  0  0  0  0
 36 52  1  0  0  0  0
M  END
$$$$
