CHEMBL209919
 OpenBabel04072215363D

 72 77  0  0  0  0  0  0  0  0999 V2000
    2.1087    1.1866    3.8686 C   0  0  0  0  0  0  0  0  0  0  0  0
    2.4931    0.3868    2.6577 C   0  0  0  0  0  0  0  0  0  0  0  0
    3.1421    1.0094    1.5847 C   0  0  0  0  0  0  0  0  0  0  0  0
    3.5134    0.2706    0.4640 C   0  0  0  0  0  0  0  0  0  0  0  0
    4.2089    0.8893   -0.7160 C   0  0  0  0  0  0  0  0  0  0  0  0
    3.2380   -1.1003    0.4310 C   0  0  0  0  0  0  0  0  0  0  0  0
    2.5827   -1.7588    1.4830 C   0  0  0  0  0  0  0  0  0  0  0  0
    2.3089   -3.1433    1.4640 N   0  0  0  0  0  0  0  0  0  0  0  0
    2.6065   -3.9858    0.4329 C   0  0  0  0  0  0  0  0  0  0  0  0
    3.0945   -3.6882   -0.6541 O   0  0  0  0  0  0  0  0  0  0  0  0
    2.2592   -5.2999    0.6873 N   0  0  0  0  0  0  0  0  0  0  0  0
    2.6136   -6.2426   -0.3477 C   0  0  0  0  0  0  0  0  0  0  0  0
    2.1937   -7.6064    0.0529 C   0  0  0  0  0  0  0  0  0  0  0  0
    2.9443   -8.5627    0.7006 C   0  0  0  0  0  0  0  0  0  0  0  0
    2.2252   -9.7808    0.8514 C   0  0  0  0  0  0  0  0  0  0  0  0
    0.9714   -9.7320    0.2646 C   0  0  0  0  0  0  0  0  0  0  0  0
    0.1465  -10.9782    0.0215 C   0  0  0  0  0  0  0  0  0  0  0  0
    0.5978  -12.1582    0.4961 N   0  0  0  0  0  0  0  0  0  0  0  0
    0.4584  -12.9619   -0.5751 N   0  0  0  0  0  0  0  0  0  0  0  0
   -0.0412  -12.2881   -1.6472 C   0  0  0  0  0  0  0  0  0  0  0  0
   -0.7334  -11.2101   -1.0944 C   0  0  0  0  0  0  0  0  0  0  0  0
   -1.3077  -10.3389   -2.1877 C   0  0  0  0  0  0  0  0  0  0  0  0
   -0.2080  -10.6117   -3.2191 C   0  0  0  0  0  0  0  0  0  0  0  0
    0.1745   -9.7429   -4.2353 C   0  0  0  0  0  0  0  0  0  0  0  0
    1.4642   -9.8597   -4.7781 C   0  0  0  0  0  0  0  0  0  0  0  0
    1.9604   -8.8279   -5.7797 C   0  0  0  0  0  0  0  0  0  0  0  0
    1.8621   -9.0776   -7.2164 N   0  0  0  0  0  0  0  0  0  0  0  0
    0.5371   -9.3466   -7.7766 C   0  0  0  0  0  0  0  0  0  0  0  0
    0.0996  -10.8286   -7.7665 C   0  0  0  0  0  0  0  0  0  0  0  0
    1.1122  -11.7972   -8.2245 N   0  0  0  0  0  0  0  0  0  0  0  0
    0.7516  -13.1493   -7.7854 C   0  0  0  0  0  0  0  0  0  0  0  0
    2.4782  -11.4748   -7.7763 C   0  0  0  0  0  0  0  0  0  0  0  0
    2.8487   -9.9796   -7.8135 C   0  0  0  0  0  0  0  0  0  0  0  0
    2.3373  -10.8285   -4.2217 C   0  0  0  0  0  0  0  0  0  0  0  0
    1.9000  -11.7784   -3.2726 C   0  0  0  0  0  0  0  0  0  0  0  0
    0.5870  -11.7248   -2.8476 C   0  0  0  0  0  0  0  0  0  0  0  0
    0.6367   -8.1795   -0.3451 S   0  0  0  0  0  0  0  0  0  0  0  0
    2.2133   -0.9918    2.5981 C   0  0  0  0  0  0  0  0  0  0  0  0
    2.3947    2.2394    3.7592 H   0  0  0  0  0  0  0  0  0  0  0  0
    2.6181    0.7958    4.7550 H   0  0  0  0  0  0  0  0  0  0  0  0
    1.0264    1.1493    4.0219 H   0  0  0  0  0  0  0  0  0  0  0  0
    3.3624    2.0744    1.6225 H   0  0  0  0  0  0  0  0  0  0  0  0
    4.3095    1.9742   -0.5945 H   0  0  0  0  0  0  0  0  0  0  0  0
    3.6405    0.7022   -1.6275 H   0  0  0  0  0  0  0  0  0  0  0  0
    5.2116    0.4639   -0.8205 H   0  0  0  0  0  0  0  0  0  0  0  0
    3.5544   -1.6318   -0.4612 H   0  0  0  0  0  0  0  0  0  0  0  0
    1.7789   -3.5073    2.2397 H   0  0  0  0  0  0  0  0  0  0  0  0
    2.3388   -5.6133    1.6446 H   0  0  0  0  0  0  0  0  0  0  0  0
    3.6998   -6.2058   -0.4924 H   0  0  0  0  0  0  0  0  0  0  0  0
    2.1479   -5.9324   -1.2920 H   0  0  0  0  0  0  0  0  0  0  0  0
    3.9727   -8.4111    1.0095 H   0  0  0  0  0  0  0  0  0  0  0  0
    2.6538  -10.6852    1.2678 H   0  0  0  0  0  0  0  0  0  0  0  0
    0.5424  -13.9652   -0.4456 H   0  0  0  0  0  0  0  0  0  0  0  0
   -1.4016   -9.2901   -1.9131 H   0  0  0  0  0  0  0  0  0  0  0  0
   -2.2665  -10.7342   -2.5394 H   0  0  0  0  0  0  0  0  0  0  0  0
   -0.4646   -8.9083   -4.5104 H   0  0  0  0  0  0  0  0  0  0  0  0
    3.0014   -8.5784   -5.5341 H   0  0  0  0  0  0  0  0  0  0  0  0
    1.4254   -7.8885   -5.5818 H   0  0  0  0  0  0  0  0  0  0  0  0
    0.5570   -9.0155   -8.8254 H   0  0  0  0  0  0  0  0  0  0  0  0
   -0.2275   -8.7221   -7.2994 H   0  0  0  0  0  0  0  0  0  0  0  0
   -0.7651  -10.9184   -8.4365 H   0  0  0  0  0  0  0  0  0  0  0  0
   -0.2557  -11.0824   -6.7623 H   0  0  0  0  0  0  0  0  0  0  0  0
   -0.2830  -13.3895   -8.0555 H   0  0  0  0  0  0  0  0  0  0  0  0
    0.8500  -13.2701   -6.6995 H   0  0  0  0  0  0  0  0  0  0  0  0
    1.3912  -13.8926   -8.2730 H   0  0  0  0  0  0  0  0  0  0  0  0
    3.1793  -12.0073   -8.4324 H   0  0  0  0  0  0  0  0  0  0  0  0
    2.6569  -11.8475   -6.7630 H   0  0  0  0  0  0  0  0  0  0  0  0
    2.9621   -9.6894   -8.8678 H   0  0  0  0  0  0  0  0  0  0  0  0
    3.8404   -9.8248   -7.3716 H   0  0  0  0  0  0  0  0  0  0  0  0
    3.3963  -10.7963   -4.4742 H   0  0  0  0  0  0  0  0  0  0  0  0
    2.6204  -12.4308   -2.7883 H   0  0  0  0  0  0  0  0  0  0  0  0
    1.7098   -1.4649    3.4372 H   0  0  0  0  0  0  0  0  0  0  0  0
  1  2  1  0  0  0  0
  1 39  1  0  0  0  0
  1 40  1  0  0  0  0
  1 41  1  0  0  0  0
  2  3  1  0  0  0  0
  2 38  2  0  0  0  0
  3  4  2  0  0  0  0
  3 42  1  0  0  0  0
  4  5  1  0  0  0  0
  4  6  1  0  0  0  0
  5 43  1  0  0  0  0
  5 44  1  0  0  0  0
  5 45  1  0  0  0  0
  6  7  2  0  0  0  0
  6 46  1  0  0  0  0
  7  8  1  0  0  0  0
  7 38  1  0  0  0  0
  8  9  1  0  0  0  0
  8 47  1  0  0  0  0
  9 10  2  0  0  0  0
  9 11  1  0  0  0  0
 11 12  1  0  0  0  0
 11 48  1  0  0  0  0
 12 13  1  0  0  0  0
 12 49  1  0  0  0  0
 12 50  1  0  0  0  0
 13 14  2  0  0  0  0
 13 37  1  0  0  0  0
 14 15  1  0  0  0  0
 14 51  1  0  0  0  0
 15 16  2  0  0  0  0
 15 52  1  0  0  0  0
 16 17  1  0  0  0  0
 16 37  1  0  0  0  0
 17 18  2  0  0  0  0
 17 21  1  0  0  0  0
 18 19  1  0  0  0  0
 19 20  1  0  0  0  0
 19 53  1  0  0  0  0
 20 21  2  0  0  0  0
 20 36  1  0  0  0  0
 21 22  1  0  0  0  0
 22 23  1  0  0  0  0
 22 54  1  0  0  0  0
 22 55  1  0  0  0  0
 23 24  1  0  0  0  0
 23 36  2  0  0  0  0
 24 25  2  0  0  0  0
 24 56  1  0  0  0  0
 25 26  1  0  0  0  0
 25 34  1  0  0  0  0
 26 27  1  0  0  0  0
 26 57  1  0  0  0  0
 26 58  1  0  0  0  0
 27 28  1  0  0  0  0
 27 33  1  0  0  0  0
 28 29  1  0  0  0  0
 28 59  1  0  0  0  0
 28 60  1  0  0  0  0
 29 30  1  0  0  0  0
 29 61  1  0  0  0  0
 29 62  1  0  0  0  0
 30 31  1  0  0  0  0
 30 32  1  0  0  0  0
 31 63  1  0  0  0  0
 31 64  1  0  0  0  0
 31 65  1  0  0  0  0
 32 33  1  0  0  0  0
 32 66  1  0  0  0  0
 32 67  1  0  0  0  0
 33 68  1  0  0  0  0
 33 69  1  0  0  0  0
 34 35  2  0  0  0  0
 34 70  1  0  0  0  0
 35 36  1  0  0  0  0
 35 71  1  0  0  0  0
 38 72  1  0  0  0  0
M  END
$$$$
