CHEMBL382218
 OpenBabel04072215373D

 49 52  0  0  0  0  0  0  0  0999 V2000
   -5.2586   -2.6555   -6.6198 C   0  0  0  0  0  0  0  0  0  0  0  0
   -5.2620   -2.1070   -5.2188 C   0  0  0  0  0  0  0  0  0  0  0  0
   -4.8555   -0.7812   -5.0201 C   0  0  0  0  0  0  0  0  0  0  0  0
   -4.8406   -0.2069   -3.7437 C   0  0  0  0  0  0  0  0  0  0  0  0
   -5.2175   -0.9361   -2.6161 C   0  0  0  0  0  0  0  0  0  0  0  0
   -5.2607   -0.4133   -1.3081 N   0  0  0  0  0  0  0  0  0  0  0  0
   -5.0089    0.8379   -0.8717 C   0  0  0  0  0  0  0  0  0  0  0  0
   -4.6370    1.2186    0.3318 N   0  0  0  0  0  0  0  0  0  0  0  0
   -4.5244    2.5945    0.3024 N   0  0  0  0  0  0  0  0  0  0  0  0
   -4.8772    2.9769   -0.9068 C   0  0  0  0  0  0  0  0  0  0  0  0
   -4.9682    4.3017   -1.5213 C   0  0  0  0  0  0  0  0  0  0  0  0
   -5.4542    4.4119   -2.8420 C   0  0  0  0  0  0  0  0  0  0  0  0
   -5.5365    5.6431   -3.4849 C   0  0  0  0  0  0  0  0  0  0  0  0
   -5.1214    6.7552   -2.7920 C   0  0  0  0  0  0  0  0  0  0  0  0
   -4.6583    6.7039   -1.5287 N   0  0  0  0  0  0  0  0  0  0  0  0
   -4.5989    5.4997   -0.8836 C   0  0  0  0  0  0  0  0  0  0  0  0
   -4.0441    5.5794    0.5315 C   0  0  0  0  0  0  0  0  0  0  0  0
   -4.3342    6.9399    1.2014 C   0  0  0  0  0  0  0  0  0  0  0  0
   -3.7577    7.1852    2.5784 C   0  0  0  0  0  0  0  0  0  0  0  0
   -3.4993    8.5086    2.9656 C   0  0  0  0  0  0  0  0  0  0  0  0
   -3.0176    8.7613    4.2411 C   0  0  0  0  0  0  0  0  0  0  0  0
   -2.7857    7.7996    5.1557 N   0  0  0  0  0  0  0  0  0  0  0  0
   -3.0544    6.5320    4.7738 C   0  0  0  0  0  0  0  0  0  0  0  0
   -3.5390    6.1787    3.5193 C   0  0  0  0  0  0  0  0  0  0  0  0
   -5.2042    1.9044   -1.7040 O   0  0  0  0  0  0  0  0  0  0  0  0
   -5.6448   -2.2604   -2.8238 C   0  0  0  0  0  0  0  0  0  0  0  0
   -5.6629   -2.8673   -4.1043 C   0  0  0  0  0  0  0  0  0  0  0  0
   -6.1106   -4.3140   -4.1815 C   0  0  0  0  0  0  0  0  0  0  0  0
   -6.1244   -4.8565   -5.4289 F   0  0  0  0  0  0  0  0  0  0  0  0
   -5.3146   -5.1337   -3.4365 F   0  0  0  0  0  0  0  0  0  0  0  0
   -7.3721   -4.4875   -3.6941 F   0  0  0  0  0  0  0  0  0  0  0  0
   -4.9122   -1.9091   -7.3431 H   0  0  0  0  0  0  0  0  0  0  0  0
   -6.2715   -2.9465   -6.9156 H   0  0  0  0  0  0  0  0  0  0  0  0
   -4.5846   -3.5145   -6.6937 H   0  0  0  0  0  0  0  0  0  0  0  0
   -4.5344   -0.1723   -5.8633 H   0  0  0  0  0  0  0  0  0  0  0  0
   -4.4958    0.8188   -3.6628 H   0  0  0  0  0  0  0  0  0  0  0  0
   -5.1862   -1.1255   -0.5901 H   0  0  0  0  0  0  0  0  0  0  0  0
   -5.7785    3.5296   -3.3914 H   0  0  0  0  0  0  0  0  0  0  0  0
   -5.9091    5.7263   -4.4993 H   0  0  0  0  0  0  0  0  0  0  0  0
   -5.1496    7.7452   -3.2379 H   0  0  0  0  0  0  0  0  0  0  0  0
   -2.9624    5.4029    0.4881 H   0  0  0  0  0  0  0  0  0  0  0  0
   -4.4927    4.8043    1.1560 H   0  0  0  0  0  0  0  0  0  0  0  0
   -5.4215    7.0777    1.2695 H   0  0  0  0  0  0  0  0  0  0  0  0
   -3.9539    7.7395    0.5522 H   0  0  0  0  0  0  0  0  0  0  0  0
   -3.6739    9.3363    2.2858 H   0  0  0  0  0  0  0  0  0  0  0  0
   -2.8050    9.7754    4.5683 H   0  0  0  0  0  0  0  0  0  0  0  0
   -2.8703    5.7778    5.5335 H   0  0  0  0  0  0  0  0  0  0  0  0
   -3.7429    5.1354    3.3085 H   0  0  0  0  0  0  0  0  0  0  0  0
   -5.9750   -2.8536   -1.9695 H   0  0  0  0  0  0  0  0  0  0  0  0
  1  2  1  0  0  0  0
  1 32  1  0  0  0  0
  1 33  1  0  0  0  0
  1 34  1  0  0  0  0
  2  3  1  0  0  0  0
  2 27  2  0  0  0  0
  3  4  2  0  0  0  0
  3 35  1  0  0  0  0
  4  5  1  0  0  0  0
  4 36  1  0  0  0  0
  5  6  1  0  0  0  0
  5 26  2  0  0  0  0
  6  7  1  0  0  0  0
  6 37  1  0  0  0  0
  7  8  2  0  0  0  0
  7 25  1  0  0  0  0
  8  9  1  0  0  0  0
  9 10  2  0  0  0  0
 10 11  1  0  0  0  0
 10 25  1  0  0  0  0
 11 12  1  0  0  0  0
 11 16  2  0  0  0  0
 12 13  2  0  0  0  0
 12 38  1  0  0  0  0
 13 14  1  0  0  0  0
 13 39  1  0  0  0  0
 14 15  2  0  0  0  0
 14 40  1  0  0  0  0
 15 16  1  0  0  0  0
 16 17  1  0  0  0  0
 17 18  1  0  0  0  0
 17 41  1  0  0  0  0
 17 42  1  0  0  0  0
 18 19  1  0  0  0  0
 18 43  1  0  0  0  0
 18 44  1  0  0  0  0
 19 20  1  0  0  0  0
 19 24  2  0  0  0  0
 20 21  2  0  0  0  0
 20 45  1  0  0  0  0
 21 22  1  0  0  0  0
 21 46  1  0  0  0  0
 22 23  2  0  0  0  0
 23 24  1  0  0  0  0
 23 47  1  0  0  0  0
 24 48  1  0  0  0  0
 26 27  1  0  0  0  0
 26 49  1  0  0  0  0
 27 28  1  0  0  0  0
 28 29  1  0  0  0  0
 28 30  1  0  0  0  0
 28 31  1  0  0  0  0
M  END
$$$$
