CHEMBL598797
 OpenBabel04072215383D

 58 60  0  0  0  0  0  0  0  0999 V2000
   -3.2540    3.4879    1.9864 C   0  0  0  0  0  0  0  0  0  0  0  0
   -2.1130    3.1067    2.0410 C   0  0  0  0  0  0  0  0  0  0  0  0
   -0.7594    2.6605    2.1277 C   0  0  0  0  0  0  0  0  0  0  0  0
   -0.2932    2.0988    3.3167 C   0  0  0  0  0  0  0  0  0  0  0  0
    1.0279    1.6734    3.4060 C   0  0  0  0  0  0  0  0  0  0  0  0
    1.8751    1.8161    2.3053 C   0  0  0  0  0  0  0  0  0  0  0  0
    1.4321    2.3991    1.1064 C   0  0  0  0  0  0  0  0  0  0  0  0
    2.2589    2.4640   -0.0368 N   0  0  0  0  0  0  0  0  0  0  0  0
    3.6711    2.5490   -0.0344 C   0  0  0  0  0  0  0  0  0  0  0  0
    4.2650    3.1652    1.0088 N   0  0  0  0  0  0  0  0  0  0  0  0
    5.5961    3.1801    1.0241 C   0  0  0  0  0  0  0  0  0  0  0  0
    6.3881    2.6211    0.1109 N   0  0  0  0  0  0  0  0  0  0  0  0
    5.7838    2.0190   -0.9172 C   0  0  0  0  0  0  0  0  0  0  0  0
    6.5772    1.3863   -1.8522 C   0  0  0  0  0  0  0  0  0  0  0  0
    6.0978    0.7007   -2.9933 C   0  0  0  0  0  0  0  0  0  0  0  0
    7.2023    0.2289   -3.6244 O   0  0  0  0  0  0  0  0  0  0  0  0
    7.3096   -0.4548   -4.8439 C   0  0  0  0  0  0  0  0  0  0  0  0
    4.7124    0.6751   -3.2026 C   0  0  0  0  0  0  0  0  0  0  0  0
    3.9466    0.1516   -4.2213 O   0  0  0  0  0  0  0  0  0  0  0  0
    4.3643   -1.1076   -4.7012 C   0  0  0  0  0  0  0  0  0  0  0  0
    3.4005   -1.8077   -5.6578 C   0  0  0  0  0  0  0  0  0  0  0  0
    4.1347   -3.0562   -6.1768 C   0  0  0  0  0  0  0  0  0  0  0  0
    3.3772   -3.8251   -7.2471 C   0  0  0  0  0  0  0  0  0  0  0  0
    4.1751   -5.0579   -7.6912 C   0  0  0  0  0  0  0  0  0  0  0  0
    3.4062   -5.8391   -8.7499 C   0  0  0  0  0  0  0  0  0  0  0  0
    4.1246   -7.0895   -9.2073 C   0  0  0  0  0  0  0  0  0  0  0  0
    5.2293   -7.4508   -8.8143 O   0  0  0  0  0  0  0  0  0  0  0  0
    3.4009   -7.8082  -10.1301 N   0  0  0  0  0  0  0  0  0  0  0  0
    4.0290   -8.9502  -10.6728 O   0  0  0  0  0  0  0  0  0  0  0  0
    3.8879    1.3144   -2.2455 C   0  0  0  0  0  0  0  0  0  0  0  0
    4.4069    1.9696   -1.0890 C   0  0  0  0  0  0  0  0  0  0  0  0
    0.0936    2.7971    1.0254 C   0  0  0  0  0  0  0  0  0  0  0  0
   -4.2578    3.8319    1.9457 H   0  0  0  0  0  0  0  0  0  0  0  0
   -0.9544    1.9835    4.1726 H   0  0  0  0  0  0  0  0  0  0  0  0
    1.3999    1.2249    4.3235 H   0  0  0  0  0  0  0  0  0  0  0  0
    2.8984    1.4591    2.3951 H   0  0  0  0  0  0  0  0  0  0  0  0
    1.8754    3.0193   -0.7928 H   0  0  0  0  0  0  0  0  0  0  0  0
    6.0779    3.6820    1.8556 H   0  0  0  0  0  0  0  0  0  0  0  0
    7.6554    1.4184   -1.6871 H   0  0  0  0  0  0  0  0  0  0  0  0
    8.3739   -0.5307   -5.0881 H   0  0  0  0  0  0  0  0  0  0  0  0
    6.8412    0.0955   -5.6635 H   0  0  0  0  0  0  0  0  0  0  0  0
    6.9675   -1.4886   -4.7363 H   0  0  0  0  0  0  0  0  0  0  0  0
    4.6287   -1.7761   -3.8739 H   0  0  0  0  0  0  0  0  0  0  0  0
    5.1971   -0.9116   -5.3493 H   0  0  0  0  0  0  0  0  0  0  0  0
    3.1498   -1.1358   -6.4887 H   0  0  0  0  0  0  0  0  0  0  0  0
    2.4595   -2.0656   -5.1622 H   0  0  0  0  0  0  0  0  0  0  0  0
    4.3494   -3.7200   -5.3299 H   0  0  0  0  0  0  0  0  0  0  0  0
    5.1075   -2.7579   -6.5924 H   0  0  0  0  0  0  0  0  0  0  0  0
    3.1986   -3.1744   -8.1112 H   0  0  0  0  0  0  0  0  0  0  0  0
    2.4017   -4.1345   -6.8571 H   0  0  0  0  0  0  0  0  0  0  0  0
    4.3801   -5.7025   -6.8267 H   0  0  0  0  0  0  0  0  0  0  0  0
    5.1519   -4.7520   -8.0890 H   0  0  0  0  0  0  0  0  0  0  0  0
    3.2386   -5.2031   -9.6268 H   0  0  0  0  0  0  0  0  0  0  0  0
    2.4310   -6.1376   -8.3486 H   0  0  0  0  0  0  0  0  0  0  0  0
    2.5944   -7.4465  -10.6271 H   0  0  0  0  0  0  0  0  0  0  0  0
    4.8823   -8.9716  -10.1853 H   0  0  0  0  0  0  0  0  0  0  0  0
    2.8071    1.2793   -2.3850 H   0  0  0  0  0  0  0  0  0  0  0  0
   -0.2950    3.2246    0.1055 H   0  0  0  0  0  0  0  0  0  0  0  0
  1  2  3  0  0  0  0
  1 33  1  0  0  0  0
  2  3  1  0  0  0  0
  3  4  1  0  0  0  0
  3 32  2  0  0  0  0
  4  5  2  0  0  0  0
  4 34  1  0  0  0  0
  5  6  1  0  0  0  0
  5 35  1  0  0  0  0
  6  7  2  0  0  0  0
  6 36  1  0  0  0  0
  7  8  1  0  0  0  0
  7 32  1  0  0  0  0
  8  9  1  0  0  0  0
  8 37  1  0  0  0  0
  9 10  1  0  0  0  0
  9 31  2  0  0  0  0
 10 11  2  0  0  0  0
 11 12  1  0  0  0  0
 11 38  1  0  0  0  0
 12 13  2  0  0  0  0
 13 14  1  0  0  0  0
 13 31  1  0  0  0  0
 14 15  2  0  0  0  0
 14 39  1  0  0  0  0
 15 16  1  0  0  0  0
 15 18  1  0  0  0  0
 16 17  1  0  0  0  0
 17 40  1  0  0  0  0
 17 41  1  0  0  0  0
 17 42  1  0  0  0  0
 18 19  1  0  0  0  0
 18 30  2  0  0  0  0
 19 20  1  0  0  0  0
 20 21  1  0  0  0  0
 20 43  1  0  0  0  0
 20 44  1  0  0  0  0
 21 22  1  0  0  0  0
 21 45  1  0  0  0  0
 21 46  1  0  0  0  0
 22 23  1  0  0  0  0
 22 47  1  0  0  0  0
 22 48  1  0  0  0  0
 23 24  1  0  0  0  0
 23 49  1  0  0  0  0
 23 50  1  0  0  0  0
 24 25  1  0  0  0  0
 24 51  1  0  0  0  0
 24 52  1  0  0  0  0
 25 26  1  0  0  0  0
 25 53  1  0  0  0  0
 25 54  1  0  0  0  0
 26 27  2  0  0  0  0
 26 28  1  0  0  0  0
 28 29  1  0  0  0  0
 28 55  1  0  0  0  0
 29 56  1  0  0  0  0
 30 31  1  0  0  0  0
 30 57  1  0  0  0  0
 32 58  1  0  0  0  0
M  END
$$$$
