CHEMBL464211
 OpenBabel04072215383D

 62 67  0  0  0  0  0  0  0  0999 V2000
    9.0292    1.0121   -6.1909 C   0  0  0  0  0  0  0  0  0  0  0  0
    8.5717    0.3872   -4.8886 C   0  0  0  0  0  0  0  0  0  0  0  0
    7.2578   -0.2024   -5.0100 N   0  0  0  0  0  0  0  0  0  0  0  0
    6.0699    0.4170   -4.7517 C   0  0  0  0  0  0  0  0  0  0  0  0
    5.0641   -0.4225   -4.8507 N   0  0  0  0  0  0  0  0  0  0  0  0
    5.6360   -1.6333   -5.1644 C   0  0  0  0  0  0  0  0  0  0  0  0
    4.8814   -2.9113   -5.1783 C   0  0  0  0  0  0  0  0  0  0  0  0
    3.5412   -2.9802   -4.8895 C   0  0  0  0  0  0  0  0  0  0  0  0
    3.1239   -4.3207   -4.6631 C   0  0  0  0  0  0  0  0  0  0  0  0
    1.8885   -4.6490   -4.1961 N   0  0  0  0  0  0  0  0  0  0  0  0
    1.7186   -5.9316   -3.8511 C   0  0  0  0  0  0  0  0  0  0  0  0
    2.6806   -6.9114   -3.9744 C   0  0  0  0  0  0  0  0  0  0  0  0
    3.9304   -6.5929   -4.5149 C   0  0  0  0  0  0  0  0  0  0  0  0
    4.8747   -7.5952   -4.3391 O   0  0  0  0  0  0  0  0  0  0  0  0
    5.9403   -7.8053   -5.1757 C   0  0  0  0  0  0  0  0  0  0  0  0
    7.1491   -8.0279   -4.5195 C   0  0  0  0  0  0  0  0  0  0  0  0
    8.2069   -8.6726   -5.1697 C   0  0  0  0  0  0  0  0  0  0  0  0
    8.0803   -9.1251   -6.4858 C   0  0  0  0  0  0  0  0  0  0  0  0
    9.0514   -9.9598   -7.1069 N   0  0  0  0  0  0  0  0  0  0  0  0
   10.1057  -10.5998   -6.4725 C   0  0  0  0  0  0  0  0  0  0  0  0
   10.4071  -10.4740   -5.2824 O   0  0  0  0  0  0  0  0  0  0  0  0
   10.8521  -11.4603   -7.2737 N   0  0  0  0  0  0  0  0  0  0  0  0
   11.9316  -12.2290   -6.6803 C   0  0  0  0  0  0  0  0  0  0  0  0
   12.4315  -13.0981   -7.8125 C   0  0  0  0  0  0  0  0  0  0  0  0
   12.0817  -12.3373   -8.9912 N   0  0  0  0  0  0  0  0  0  0  0  0
   12.6255  -12.5800  -10.2746 C   0  0  0  0  0  0  0  0  0  0  0  0
   12.4415  -11.6555  -11.3114 C   0  0  0  0  0  0  0  0  0  0  0  0
   12.9521  -11.8951  -12.5899 C   0  0  0  0  0  0  0  0  0  0  0  0
   13.6532  -13.0645  -12.8388 C   0  0  0  0  0  0  0  0  0  0  0  0
   14.1159  -13.3095  -14.0712 F   0  0  0  0  0  0  0  0  0  0  0  0
   13.8805  -13.9829  -11.8237 C   0  0  0  0  0  0  0  0  0  0  0  0
   13.3804  -13.7350  -10.5393 C   0  0  0  0  0  0  0  0  0  0  0  0
   11.0259  -11.4394   -8.6762 C   0  0  0  0  0  0  0  0  0  0  0  0
   10.3160  -10.8036   -9.4414 O   0  0  0  0  0  0  0  0  0  0  0  0
    6.9086   -8.7847   -7.1831 C   0  0  0  0  0  0  0  0  0  0  0  0
    5.8431   -8.1379   -6.5234 C   0  0  0  0  0  0  0  0  0  0  0  0
    4.6970   -7.9394   -7.1911 F   0  0  0  0  0  0  0  0  0  0  0  0
    4.1575   -5.2494   -4.8557 C   0  0  0  0  0  0  0  0  0  0  0  0
    5.5699   -4.4487   -5.4187 S   0  0  0  0  0  0  0  0  0  0  0  0
    6.9963   -1.5055   -5.3201 C   0  0  0  0  0  0  0  0  0  0  0  0
   10.0282    1.4416   -6.0747 H   0  0  0  0  0  0  0  0  0  0  0  0
    8.3451    1.8071   -6.5053 H   0  0  0  0  0  0  0  0  0  0  0  0
    9.0656    0.2666   -6.9925 H   0  0  0  0  0  0  0  0  0  0  0  0
    8.5324    1.1321   -4.0865 H   0  0  0  0  0  0  0  0  0  0  0  0
    9.2631   -0.4034   -4.5751 H   0  0  0  0  0  0  0  0  0  0  0  0
    5.9928    1.4610   -4.4776 H   0  0  0  0  0  0  0  0  0  0  0  0
    2.9178   -2.1129   -4.7085 H   0  0  0  0  0  0  0  0  0  0  0  0
    0.7518   -6.1587   -3.4084 H   0  0  0  0  0  0  0  0  0  0  0  0
    2.4827   -7.9123   -3.6052 H   0  0  0  0  0  0  0  0  0  0  0  0
    7.2512   -7.7735   -3.4677 H   0  0  0  0  0  0  0  0  0  0  0  0
    9.1037   -8.8490   -4.5856 H   0  0  0  0  0  0  0  0  0  0  0  0
    8.9014  -10.2187   -8.0805 H   0  0  0  0  0  0  0  0  0  0  0  0
   11.5951  -12.7997   -5.8086 H   0  0  0  0  0  0  0  0  0  0  0  0
   12.7048  -11.5205   -6.3592 H   0  0  0  0  0  0  0  0  0  0  0  0
   11.8858  -14.0498   -7.8458 H   0  0  0  0  0  0  0  0  0  0  0  0
   13.5055  -13.2865   -7.7345 H   0  0  0  0  0  0  0  0  0  0  0  0
   11.9168  -10.7184  -11.1449 H   0  0  0  0  0  0  0  0  0  0  0  0
   12.7998  -11.1743  -13.3865 H   0  0  0  0  0  0  0  0  0  0  0  0
   14.4360  -14.8902  -12.0402 H   0  0  0  0  0  0  0  0  0  0  0  0
   13.5705  -14.4807   -9.7730 H   0  0  0  0  0  0  0  0  0  0  0  0
    6.7641   -9.0830   -8.2175 H   0  0  0  0  0  0  0  0  0  0  0  0
    7.7744   -2.2216   -5.5438 H   0  0  0  0  0  0  0  0  0  0  0  0
  1  2  1  0  0  0  0
  1 41  1  0  0  0  0
  1 42  1  0  0  0  0
  1 43  1  0  0  0  0
  2  3  1  0  0  0  0
  2 44  1  0  0  0  0
  2 45  1  0  0  0  0
  3  4  1  0  0  0  0
  3 40  1  0  0  0  0
  4  5  2  0  0  0  0
  4 46  1  0  0  0  0
  5  6  1  0  0  0  0
  6  7  1  0  0  0  0
  6 40  2  0  0  0  0
  7  8  2  0  0  0  0
  7 39  1  0  0  0  0
  8  9  1  0  0  0  0
  8 47  1  0  0  0  0
  9 10  1  0  0  0  0
  9 38  2  0  0  0  0
 10 11  2  0  0  0  0
 11 12  1  0  0  0  0
 11 48  1  0  0  0  0
 12 13  2  0  0  0  0
 12 49  1  0  0  0  0
 13 14  1  0  0  0  0
 13 38  1  0  0  0  0
 14 15  1  0  0  0  0
 15 16  1  0  0  0  0
 15 36  2  0  0  0  0
 16 17  2  0  0  0  0
 16 50  1  0  0  0  0
 17 18  1  0  0  0  0
 17 51  1  0  0  0  0
 18 19  1  0  0  0  0
 18 35  2  0  0  0  0
 19 20  1  0  0  0  0
 19 52  1  0  0  0  0
 20 21  2  0  0  0  0
 20 22  1  0  0  0  0
 22 23  1  0  0  0  0
 22 33  1  0  0  0  0
 23 24  1  0  0  0  0
 23 53  1  0  0  0  0
 23 54  1  0  0  0  0
 24 25  1  0  0  0  0
 24 55  1  0  0  0  0
 24 56  1  0  0  0  0
 25 26  1  0  0  0  0
 25 33  1  0  0  0  0
 26 27  1  0  0  0  0
 26 32  2  0  0  0  0
 27 28  2  0  0  0  0
 27 57  1  0  0  0  0
 28 29  1  0  0  0  0
 28 58  1  0  0  0  0
 29 30  1  0  0  0  0
 29 31  2  0  0  0  0
 31 32  1  0  0  0  0
 31 59  1  0  0  0  0
 32 60  1  0  0  0  0
 33 34  2  0  0  0  0
 35 36  1  0  0  0  0
 35 61  1  0  0  0  0
 36 37  1  0  0  0  0
 38 39  1  0  0  0  0
 40 62  1  0  0  0  0
M  END
$$$$
