CHEMBL3109351
 OpenBabel04072215363D

 58 62  0  0  1  0  0  0  0  0999 V2000
    1.3709   -5.4795   -1.3873 C   0  0  0  0  0  0  0  0  0  0  0  0
    2.7590   -5.1894   -1.3213 O   0  0  0  0  0  0  0  0  0  0  0  0
    3.1378   -4.1968   -2.2751 C   0  0  0  0  0  0  0  0  0  0  0  0
    4.6319   -3.9484   -2.1332 C   0  0  0  0  0  0  0  0  0  0  0  0
    5.0479   -2.9434   -3.0548 O   0  0  0  0  0  0  0  0  0  0  0  0
    6.4002   -2.6562   -3.1295 C   0  0  0  0  0  0  0  0  0  0  0  0
    7.3466   -3.2382   -2.1809 C   0  0  0  0  0  0  0  0  0  0  0  0
    8.6497   -2.9335   -2.2717 C   0  0  0  0  0  0  0  0  0  0  0  0
    9.0915   -2.0685   -3.2736 N   0  0  0  0  0  0  0  0  0  0  0  0
   10.3571   -1.5811   -3.5578 C   0  0  0  0  0  0  0  0  0  0  0  0
   11.5864   -1.8434   -2.8155 C   0  0  0  0  0  0  0  0  0  0  0  0
   12.5873   -0.8863   -2.7779 C   0  0  0  0  0  0  0  0  0  0  0  0
   13.7657   -1.1887   -2.1194 C   0  0  0  0  0  0  0  0  0  0  0  0
   13.9195   -2.4344   -1.5104 C   0  0  0  0  0  0  0  0  0  0  0  0
   15.1327   -2.7290   -0.8739 C   0  0  0  0  0  0  0  0  0  0  0  0
   15.3133   -3.9511   -0.2503 C   0  0  0  0  0  0  0  0  0  0  0  0
   14.2827   -4.8793   -0.2485 C   0  0  0  0  0  0  0  0  0  0  0  0
   13.0634   -4.6091   -0.8998 C   0  0  0  0  0  0  0  0  0  0  0  0
   12.0147   -5.5135   -0.9071 O   0  0  0  0  0  0  0  0  0  0  0  0
   12.3298   -6.8978   -0.6908 C   0  0  2  0  0  0  0  0  0  0  0  0
   13.0197   -7.5258   -1.8994 C   0  0  0  0  0  0  0  0  0  0  0  0
   12.7900   -8.9699   -1.7798 N   0  0  0  0  0  0  0  0  0  0  0  0
   11.4324   -9.0898   -1.2158 C   0  0  0  0  0  0  0  0  0  0  0  0
   11.0516   -7.7436   -0.5727 C   0  0  1  0  0  0  0  0  0  0  0  0
   10.6644   -7.9876    0.7878 O   0  0  0  0  0  0  0  0  0  0  0  0
   10.2492   -6.8156    1.4754 C   0  0  0  0  0  0  0  0  0  0  0  0
   12.8546   -3.3678   -1.5533 C   0  0  0  0  0  0  0  0  0  0  0  0
   11.7024   -3.0538   -2.2121 N   0  0  0  0  0  0  0  0  0  0  0  0
   10.1572   -0.7627   -4.6616 C   0  0  0  0  0  0  0  0  0  0  0  0
    8.8453   -0.7085   -5.0435 N   0  0  0  0  0  0  0  0  0  0  0  0
    8.2175   -1.4940   -4.1971 C   0  0  0  0  0  0  0  0  0  0  0  0
    6.8344   -1.8167   -4.0887 C   0  0  0  0  0  0  0  0  0  0  0  0
    1.1453   -6.2426   -0.6377 H   0  0  0  0  0  0  0  0  0  0  0  0
    1.1093   -5.8698   -2.3751 H   0  0  0  0  0  0  0  0  0  0  0  0
    0.7832   -4.5843   -1.1642 H   0  0  0  0  0  0  0  0  0  0  0  0
    2.5829   -3.2682   -2.0969 H   0  0  0  0  0  0  0  0  0  0  0  0
    2.9088   -4.5398   -3.2909 H   0  0  0  0  0  0  0  0  0  0  0  0
    5.1641   -4.8889   -2.3231 H   0  0  0  0  0  0  0  0  0  0  0  0
    4.8370   -3.6256   -1.1051 H   0  0  0  0  0  0  0  0  0  0  0  0
    7.0272   -3.9105   -1.3958 H   0  0  0  0  0  0  0  0  0  0  0  0
    9.3828   -3.3363   -1.5875 H   0  0  0  0  0  0  0  0  0  0  0  0
   12.4667    0.0832   -3.2493 H   0  0  0  0  0  0  0  0  0  0  0  0
   14.5598   -0.4466   -2.0921 H   0  0  0  0  0  0  0  0  0  0  0  0
   15.9458   -2.0065   -0.8655 H   0  0  0  0  0  0  0  0  0  0  0  0
   16.2570   -4.1781    0.2433 H   0  0  0  0  0  0  0  0  0  0  0  0
   14.4656   -5.8078    0.2799 H   0  0  0  0  0  0  0  0  0  0  0  0
   12.8963   -7.0417    0.2364 H   0  0  0  0  0  0  0  0  0  0  0  0
   14.0915   -7.3053   -1.9197 H   0  0  0  0  0  0  0  0  0  0  0  0
   12.5960   -7.1496   -2.8383 H   0  0  0  0  0  0  0  0  0  0  0  0
   13.4483   -9.3536   -1.0996 H   0  0  0  0  0  0  0  0  0  0  0  0
   11.4005   -9.9197   -0.5001 H   0  0  0  0  0  0  0  0  0  0  0  0
   10.7325   -9.3298   -2.0235 H   0  0  0  0  0  0  0  0  0  0  0  0
   10.2096   -7.2929   -1.1125 H   0  0  0  0  0  0  0  0  0  0  0  0
    9.7465   -7.1246    2.3964 H   0  0  0  0  0  0  0  0  0  0  0  0
    9.5480   -6.2297    0.8747 H   0  0  0  0  0  0  0  0  0  0  0  0
   11.1177   -6.2107    1.7497 H   0  0  0  0  0  0  0  0  0  0  0  0
   10.9040   -0.1950   -5.2013 H   0  0  0  0  0  0  0  0  0  0  0  0
    6.1472   -1.3650   -4.7954 H   0  0  0  0  0  0  0  0  0  0  0  0
  1  2  1  0  0  0  0
  1 33  1  0  0  0  0
  1 34  1  0  0  0  0
  1 35  1  0  0  0  0
  2  3  1  0  0  0  0
  3  4  1  0  0  0  0
  3 36  1  0  0  0  0
  3 37  1  0  0  0  0
  4  5  1  0  0  0  0
  4 38  1  0  0  0  0
  4 39  1  0  0  0  0
  5  6  1  0  0  0  0
  6  7  1  0  0  0  0
  6 32  2  0  0  0  0
  7  8  2  0  0  0  0
  7 40  1  0  0  0  0
  8  9  1  0  0  0  0
  8 41  1  0  0  0  0
  9 10  1  0  0  0  0
  9 31  1  0  0  0  0
 10 11  1  0  0  0  0
 10 29  2  0  0  0  0
 11 12  1  0  0  0  0
 11 28  2  0  0  0  0
 12 13  2  0  0  0  0
 12 42  1  0  0  0  0
 13 14  1  0  0  0  0
 13 43  1  0  0  0  0
 14 15  1  0  0  0  0
 14 27  2  0  0  0  0
 15 16  2  0  0  0  0
 15 44  1  0  0  0  0
 16 17  1  0  0  0  0
 16 45  1  0  0  0  0
 17 18  2  0  0  0  0
 17 46  1  0  0  0  0
 18 19  1  0  0  0  0
 18 27  1  0  0  0  0
 19 20  1  0  0  0  0
 20 21  1  0  0  0  0
 20 24  1  0  0  0  0
 20 47  1  1  0  0  0
 21 22  1  0  0  0  0
 21 48  1  0  0  0  0
 21 49  1  0  0  0  0
 22 23  1  0  0  0  0
 22 50  1  0  0  0  0
 23 24  1  0  0  0  0
 23 51  1  0  0  0  0
 23 52  1  0  0  0  0
 24 25  1  0  0  0  0
 24 53  1  6  0  0  0
 25 26  1  0  0  0  0
 26 54  1  0  0  0  0
 26 55  1  0  0  0  0
 26 56  1  0  0  0  0
 27 28  1  0  0  0  0
 29 30  1  0  0  0  0
 29 57  1  0  0  0  0
 30 31  2  0  0  0  0
 31 32  1  0  0  0  0
 32 58  1  0  0  0  0
M  END
$$$$
