CHEMBL3827098
 OpenBabel04072215373D

 55 59  0  0  0  0  0  0  0  0999 V2000
   12.4450    0.6108    5.1986 C   0  0  0  0  0  0  0  0  0  0  0  0
   12.1405    1.4960    4.0760 N   0  0  0  0  0  0  0  0  0  0  0  0
   13.3180    1.6477    3.2183 C   0  0  0  0  0  0  0  0  0  0  0  0
   10.9642    0.9914    3.3393 C   0  0  0  0  0  0  0  0  0  0  0  0
   10.5327    1.9291    2.2091 C   0  0  0  0  0  0  0  0  0  0  0  0
    9.2468    1.5505    1.7040 O   0  0  0  0  0  0  0  0  0  0  0  0
    8.8911    2.2055    0.5530 C   0  0  0  0  0  0  0  0  0  0  0  0
    9.5211    3.3493    0.0575 C   0  0  0  0  0  0  0  0  0  0  0  0
    9.2850    3.7530   -1.2550 C   0  0  0  0  0  0  0  0  0  0  0  0
    8.4602    2.9768   -2.0671 C   0  0  0  0  0  0  0  0  0  0  0  0
    8.9252    2.7181   -3.4116 N   0  0  0  0  0  0  0  0  0  0  0  0
    8.0660    2.0541   -4.3120 C   0  0  0  0  0  0  0  0  0  0  0  0
    8.3437    0.7891   -4.6758 C   0  0  0  0  0  0  0  0  0  0  0  0
    9.2084   -0.0232   -3.8717 C   0  0  0  0  0  0  0  0  0  0  0  0
    8.9821   -1.3851   -3.6678 C   0  0  0  0  0  0  0  0  0  0  0  0
    9.7844   -2.0784   -2.7670 C   0  0  0  0  0  0  0  0  0  0  0  0
   10.8279   -1.4131   -2.1169 C   0  0  0  0  0  0  0  0  0  0  0  0
   11.5974   -2.0731   -1.2024 O   0  0  0  0  0  0  0  0  0  0  0  0
   11.0879   -0.0605   -2.3375 C   0  0  0  0  0  0  0  0  0  0  0  0
   10.2436    0.6339   -3.1978 C   0  0  0  0  0  0  0  0  0  0  0  0
   10.2525    2.1317   -3.2941 C   0  0  0  0  0  0  0  0  0  0  0  0
   11.2963    2.7699   -3.1486 O   0  0  0  0  0  0  0  0  0  0  0  0
    8.1197    0.6651   -6.1248 C   0  0  0  0  0  0  0  0  0  0  0  0
    8.2180   -0.3408   -6.8045 O   0  0  0  0  0  0  0  0  0  0  0  0
    7.7888    2.0032   -6.5759 C   0  0  0  0  0  0  0  0  0  0  0  0
    7.8871    2.5731   -7.8196 C   0  0  0  0  0  0  0  0  0  0  0  0
    7.4096    3.8714   -7.9131 C   0  0  0  0  0  0  0  0  0  0  0  0
    7.6828    4.6207   -9.0185 O   0  0  0  0  0  0  0  0  0  0  0  0
    6.7187    4.4849   -6.8572 C   0  0  0  0  0  0  0  0  0  0  0  0
    6.7860    3.9288   -5.5795 C   0  0  0  0  0  0  0  0  0  0  0  0
    7.4707    2.7370   -5.4481 C   0  0  0  0  0  0  0  0  0  0  0  0
    7.5982    2.0368   -1.4806 C   0  0  0  0  0  0  0  0  0  0  0  0
    7.8638    1.6135   -0.1788 C   0  0  0  0  0  0  0  0  0  0  0  0
   13.2701    1.0180    5.7932 H   0  0  0  0  0  0  0  0  0  0  0  0
   12.7193   -0.3964    4.8661 H   0  0  0  0  0  0  0  0  0  0  0  0
   11.5839    0.5333    5.8714 H   0  0  0  0  0  0  0  0  0  0  0  0
   14.1854    1.9693    3.8058 H   0  0  0  0  0  0  0  0  0  0  0  0
   13.1634    2.4329    2.4703 H   0  0  0  0  0  0  0  0  0  0  0  0
   13.5766    0.7177    2.7003 H   0  0  0  0  0  0  0  0  0  0  0  0
   10.1164    0.8924    4.0296 H   0  0  0  0  0  0  0  0  0  0  0  0
   11.1443   -0.0141    2.9350 H   0  0  0  0  0  0  0  0  0  0  0  0
   11.2802    1.8802    1.4056 H   0  0  0  0  0  0  0  0  0  0  0  0
   10.4615    2.9484    2.6046 H   0  0  0  0  0  0  0  0  0  0  0  0
   10.2962    3.8714    0.6091 H   0  0  0  0  0  0  0  0  0  0  0  0
    9.9241    4.5241   -1.6831 H   0  0  0  0  0  0  0  0  0  0  0  0
    8.1553   -1.8846   -4.1683 H   0  0  0  0  0  0  0  0  0  0  0  0
    9.5655   -3.1224   -2.5692 H   0  0  0  0  0  0  0  0  0  0  0  0
   11.2453   -2.9727   -1.0935 H   0  0  0  0  0  0  0  0  0  0  0  0
   11.8808    0.4459   -1.7970 H   0  0  0  0  0  0  0  0  0  0  0  0
    8.3785    2.0571   -8.6340 H   0  0  0  0  0  0  0  0  0  0  0  0
    8.6247    4.4662   -9.2220 H   0  0  0  0  0  0  0  0  0  0  0  0
    6.2186    5.4352   -7.0194 H   0  0  0  0  0  0  0  0  0  0  0  0
    6.3368    4.4342   -4.7272 H   0  0  0  0  0  0  0  0  0  0  0  0
    6.8949    1.4564   -2.0713 H   0  0  0  0  0  0  0  0  0  0  0  0
    7.3546    0.7342    0.2070 H   0  0  0  0  0  0  0  0  0  0  0  0
  1  2  1  0  0  0  0
  1 34  1  0  0  0  0
  1 35  1  0  0  0  0
  1 36  1  0  0  0  0
  2  3  1  0  0  0  0
  2  4  1  0  0  0  0
  3 37  1  0  0  0  0
  3 38  1  0  0  0  0
  3 39  1  0  0  0  0
  4  5  1  0  0  0  0
  4 40  1  0  0  0  0
  4 41  1  0  0  0  0
  5  6  1  0  0  0  0
  5 42  1  0  0  0  0
  5 43  1  0  0  0  0
  6  7  1  0  0  0  0
  7  8  1  0  0  0  0
  7 33  2  0  0  0  0
  8  9  2  0  0  0  0
  8 44  1  0  0  0  0
  9 10  1  0  0  0  0
  9 45  1  0  0  0  0
 10 11  1  0  0  0  0
 10 32  2  0  0  0  0
 11 12  1  0  0  0  0
 11 21  1  0  0  0  0
 12 13  2  0  0  0  0
 12 31  1  0  0  0  0
 13 14  1  0  0  0  0
 13 23  1  0  0  0  0
 14 15  1  0  0  0  0
 14 20  2  0  0  0  0
 15 16  2  0  0  0  0
 15 46  1  0  0  0  0
 16 17  1  0  0  0  0
 16 47  1  0  0  0  0
 17 18  1  0  0  0  0
 17 19  2  0  0  0  0
 18 48  1  0  0  0  0
 19 20  1  0  0  0  0
 19 49  1  0  0  0  0
 20 21  1  0  0  0  0
 21 22  2  0  0  0  0
 23 24  2  0  0  0  0
 23 25  1  0  0  0  0
 25 26  1  0  0  0  0
 25 31  2  0  0  0  0
 26 27  2  0  0  0  0
 26 50  1  0  0  0  0
 27 28  1  0  0  0  0
 27 29  1  0  0  0  0
 28 51  1  0  0  0  0
 29 30  2  0  0  0  0
 29 52  1  0  0  0  0
 30 31  1  0  0  0  0
 30 53  1  0  0  0  0
 32 33  1  0  0  0  0
 32 54  1  0  0  0  0
 33 55  1  0  0  0  0
M  END
$$$$
