CHEMBL3909401
 OpenBabel04072215373D

 67 71  0  0  0  0  0  0  0  0999 V2000
    3.9405    5.8866   -0.8352 N   0  0  0  0  0  0  0  0  0  0  0  0
    5.0333    5.2076   -0.3574 C   0  0  0  0  0  0  0  0  0  0  0  0
    6.1927    5.5720   -0.3557 O   0  0  0  0  0  0  0  0  0  0  0  0
    4.7136    3.9327    0.3304 C   0  0  0  0  0  0  0  0  0  0  0  0
    3.3407    3.3977   -0.1503 C   0  0  0  0  0  0  0  0  0  0  0  0
    2.1894    4.0674    0.3741 C   0  0  0  0  0  0  0  0  0  0  0  0
    1.1174    4.4411   -0.4563 C   0  0  0  0  0  0  0  0  0  0  0  0
    1.0648    3.9848   -1.7563 C   0  0  0  0  0  0  0  0  0  0  0  0
    2.0554    3.1245   -2.2027 C   0  0  0  0  0  0  0  0  0  0  0  0
    3.2120    2.8272   -1.4457 C   0  0  0  0  0  0  0  0  0  0  0  0
    4.3703    2.0736   -2.0913 C   0  0  0  0  0  0  0  0  0  0  0  0
    3.9970    1.2254   -3.3266 C   0  0  0  0  0  0  0  0  0  0  0  0
    3.7020    1.9712   -4.6237 C   0  0  0  0  0  0  0  0  0  0  0  0
    4.0543    3.2987   -4.6715 N   0  0  0  0  0  0  0  0  0  0  0  0
    3.6588    4.0606   -5.7041 C   0  0  0  0  0  0  0  0  0  0  0  0
    3.8477    5.4856   -5.6329 N   0  0  0  0  0  0  0  0  0  0  0  0
    4.4522    6.3051   -4.6482 C   0  0  0  0  0  0  0  0  0  0  0  0
    5.3704    5.8304   -3.7401 C   0  0  0  0  0  0  0  0  0  0  0  0
    5.9330    6.6478   -2.6956 C   0  0  0  0  0  0  0  0  0  0  0  0
    5.3572    7.8647   -2.2718 C   0  0  0  0  0  0  0  0  0  0  0  0
    5.3709    8.5206   -0.7431 C   0  0  0  0  0  0  0  0  0  0  0  0
    5.5783    7.9273    0.7758 C   0  0  0  0  0  0  0  0  0  0  0  0
    4.3696    7.3962    1.6187 C   0  0  0  0  0  0  0  0  0  0  0  0
    3.1045    8.0947    1.4781 N   0  0  0  0  0  0  0  0  0  0  0  0
    2.9081    8.7662    0.2009 C   0  0  0  0  0  0  0  0  0  0  0  0
    4.1380    9.4381   -0.4462 C   0  0  0  0  0  0  0  0  0  0  0  0
    4.6088    8.4240   -3.3261 C   0  0  0  0  0  0  0  0  0  0  0  0
    4.1855    7.6723   -4.4953 C   0  0  0  0  0  0  0  0  0  0  0  0
    2.9871    3.5628   -6.7455 N   0  0  0  0  0  0  0  0  0  0  0  0
    2.6932    2.2119   -6.7232 C   0  0  0  0  0  0  0  0  0  0  0  0
    3.0011    1.3679   -5.6552 C   0  0  0  0  0  0  0  0  0  0  0  0
    2.5140   -0.0502   -5.6878 C   0  0  0  0  0  0  0  0  0  0  0  0
    2.7882   -0.7959   -4.5825 F   0  0  0  0  0  0  0  0  0  0  0  0
    1.1592   -0.1338   -5.8426 F   0  0  0  0  0  0  0  0  0  0  0  0
    3.0386   -0.7625   -6.7285 F   0  0  0  0  0  0  0  0  0  0  0  0
    5.1782    3.8157    1.7726 C   0  0  0  0  0  0  0  0  0  0  0  0
    5.9554    3.1276    0.6948 C   0  0  0  0  0  0  0  0  0  0  0  0
    3.9774    6.6909   -1.4212 H   0  0  0  0  0  0  0  0  0  0  0  0
    3.0903    5.9209   -0.3008 H   0  0  0  0  0  0  0  0  0  0  0  0
    2.2786    4.6106    1.3179 H   0  0  0  0  0  0  0  0  0  0  0  0
    0.3986    5.1911   -0.1333 H   0  0  0  0  0  0  0  0  0  0  0  0
    0.2909    4.3105   -2.4475 H   0  0  0  0  0  0  0  0  0  0  0  0
    1.9300    2.7778   -3.2184 H   0  0  0  0  0  0  0  0  0  0  0  0
    4.7406    1.3728   -1.3321 H   0  0  0  0  0  0  0  0  0  0  0  0
    5.1963    2.7534   -2.3339 H   0  0  0  0  0  0  0  0  0  0  0  0
    3.1059    0.6561   -3.0334 H   0  0  0  0  0  0  0  0  0  0  0  0
    4.7937    0.4975   -3.5221 H   0  0  0  0  0  0  0  0  0  0  0  0
    3.3132    5.9413   -6.3518 H   0  0  0  0  0  0  0  0  0  0  0  0
    5.6795    4.7881   -3.7849 H   0  0  0  0  0  0  0  0  0  0  0  0
    6.7423    6.1574   -2.1691 H   0  0  0  0  0  0  0  0  0  0  0  0
    6.2520    9.1679   -0.8445 H   0  0  0  0  0  0  0  0  0  0  0  0
    5.8811    8.8045    1.3746 H   0  0  0  0  0  0  0  0  0  0  0  0
    6.4474    7.2782    0.9049 H   0  0  0  0  0  0  0  0  0  0  0  0
    4.6377    7.4048    2.6884 H   0  0  0  0  0  0  0  0  0  0  0  0
    4.1544    6.3399    1.4906 H   0  0  0  0  0  0  0  0  0  0  0  0
    2.9618    8.7278    2.2645 H   0  0  0  0  0  0  0  0  0  0  0  0
    2.1607    9.5466    0.3905 H   0  0  0  0  0  0  0  0  0  0  0  0
    2.4248    8.0775   -0.4980 H   0  0  0  0  0  0  0  0  0  0  0  0
    4.4730   10.2029    0.2700 H   0  0  0  0  0  0  0  0  0  0  0  0
    3.8162    9.9921   -1.3250 H   0  0  0  0  0  0  0  0  0  0  0  0
    4.3294    9.4729   -3.2834 H   0  0  0  0  0  0  0  0  0  0  0  0
    3.6227    8.2076   -5.2597 H   0  0  0  0  0  0  0  0  0  0  0  0
    2.1539    1.8414   -7.5779 H   0  0  0  0  0  0  0  0  0  0  0  0
    4.6267    3.1996    2.4625 H   0  0  0  0  0  0  0  0  0  0  0  0
    5.6481    4.6869    2.2308 H   0  0  0  0  0  0  0  0  0  0  0  0
    5.9604    2.0572    0.6267 H   0  0  0  0  0  0  0  0  0  0  0  0
    6.9381    3.5632    0.4735 H   0  0  0  0  0  0  0  0  0  0  0  0
  1  2  1  0  0  0  0
  1 38  1  0  0  0  0
  1 39  1  0  0  0  0
  2  3  2  0  0  0  0
  2  4  1  0  0  0  0
  4  5  1  0  0  0  0
  4 36  1  0  0  0  0
  4 37  1  0  0  0  0
  5  6  1  0  0  0  0
  5 10  2  0  0  0  0
  6  7  2  0  0  0  0
  6 40  1  0  0  0  0
  7  8  1  0  0  0  0
  7 41  1  0  0  0  0
  8  9  2  0  0  0  0
  8 42  1  0  0  0  0
  9 10  1  0  0  0  0
  9 43  1  0  0  0  0
 10 11  1  0  0  0  0
 11 12  1  0  0  0  0
 11 44  1  0  0  0  0
 11 45  1  0  0  0  0
 12 13  1  0  0  0  0
 12 46  1  0  0  0  0
 12 47  1  0  0  0  0
 13 14  1  0  0  0  0
 13 31  2  0  0  0  0
 14 15  2  0  0  0  0
 15 16  1  0  0  0  0
 15 29  1  0  0  0  0
 16 17  1  0  0  0  0
 16 48  1  0  0  0  0
 17 18  1  0  0  0  0
 17 28  2  0  0  0  0
 18 19  2  0  0  0  0
 18 49  1  0  0  0  0
 19 20  1  0  0  0  0
 19 50  1  0  0  0  0
 20 21  1  0  0  0  0
 20 27  2  0  0  0  0
 21 22  1  0  0  0  0
 21 26  1  0  0  0  0
 21 51  1  0  0  0  0
 22 23  1  0  0  0  0
 22 52  1  0  0  0  0
 22 53  1  0  0  0  0
 23 24  1  0  0  0  0
 23 54  1  0  0  0  0
 23 55  1  0  0  0  0
 24 25  1  0  0  0  0
 24 56  1  0  0  0  0
 25 26  1  0  0  0  0
 25 57  1  0  0  0  0
 25 58  1  0  0  0  0
 26 59  1  0  0  0  0
 26 60  1  0  0  0  0
 27 28  1  0  0  0  0
 27 61  1  0  0  0  0
 28 62  1  0  0  0  0
 29 30  2  0  0  0  0
 30 31  1  0  0  0  0
 30 63  1  0  0  0  0
 31 32  1  0  0  0  0
 32 33  1  0  0  0  0
 32 34  1  0  0  0  0
 32 35  1  0  0  0  0
 36 37  1  0  0  0  0
 36 64  1  0  0  0  0
 36 65  1  0  0  0  0
 37 66  1  0  0  0  0
 37 67  1  0  0  0  0
M  END
$$$$
