CHEMBL3093581
 OpenBabel04072215363D

 61 66  0  0  0  0  0  0  0  0999 V2000
    1.1429    0.3098   -0.8198 O   0  0  0  0  0  0  0  0  0  0  0  0
    2.2468    0.0904   -0.3228 C   0  0  0  0  0  0  0  0  0  0  0  0
    2.7940   -1.1646   -0.1217 N   0  0  0  0  0  0  0  0  0  0  0  0
    2.1850   -2.4028   -0.4083 C   0  0  0  0  0  0  0  0  0  0  0  0
    1.0312   -2.5271   -1.1864 C   0  0  0  0  0  0  0  0  0  0  0  0
    0.4203   -3.7696   -1.3664 C   0  0  0  0  0  0  0  0  0  0  0  0
    0.9520   -4.9075   -0.7666 C   0  0  0  0  0  0  0  0  0  0  0  0
    0.2702   -6.0719   -1.0065 O   0  0  0  0  0  0  0  0  0  0  0  0
    0.0663   -7.0410   -0.0348 C   0  0  0  0  0  0  0  0  0  0  0  0
    0.1559   -6.7455    1.3958 C   0  0  0  0  0  0  0  0  0  0  0  0
    0.0038   -7.7115    2.3234 C   0  0  0  0  0  0  0  0  0  0  0  0
   -0.3108   -9.0341    1.9183 C   0  0  0  0  0  0  0  0  0  0  0  0
   -0.5033  -10.1310    2.6125 N   0  0  0  0  0  0  0  0  0  0  0  0
   -0.8319  -11.0919    1.7042 C   0  0  0  0  0  0  0  0  0  0  0  0
   -1.1197  -12.3928    2.0384 N   0  0  0  0  0  0  0  0  0  0  0  0
   -1.0304  -12.8916    3.3195 C   0  0  0  0  0  0  0  0  0  0  0  0
   -0.6650  -12.3140    4.3325 O   0  0  0  0  0  0  0  0  0  0  0  0
   -1.4732  -14.3193    3.4143 C   0  0  0  0  0  0  0  0  0  0  0  0
   -2.6858  -14.6484    4.2562 C   0  0  0  0  0  0  0  0  0  0  0  0
   -1.3248  -15.0913    4.7070 C   0  0  0  0  0  0  0  0  0  0  0  0
   -0.8549  -10.5782    0.4273 C   0  0  0  0  0  0  0  0  0  0  0  0
   -0.4908   -9.2610    0.5597 N   0  0  0  0  0  0  0  0  0  0  0  0
   -0.3002   -8.2809   -0.4076 C   0  0  0  0  0  0  0  0  0  0  0  0
    2.1538   -4.7994   -0.0658 C   0  0  0  0  0  0  0  0  0  0  0  0
    2.7440   -5.8831    0.4584 F   0  0  0  0  0  0  0  0  0  0  0  0
    2.7633   -3.5578    0.1258 C   0  0  0  0  0  0  0  0  0  0  0  0
    3.0632    1.2363    0.1896 C   0  0  0  0  0  0  0  0  0  0  0  0
    2.4990    2.4578    0.1605 C   0  0  0  0  0  0  0  0  0  0  0  0
    3.1490    3.6012    0.7420 C   0  0  0  0  0  0  0  0  0  0  0  0
    4.3427    3.4622    1.3264 C   0  0  0  0  0  0  0  0  0  0  0  0
    5.0071    2.2443    1.3322 N   0  0  0  0  0  0  0  0  0  0  0  0
    6.3131    2.1414    1.8907 C   0  0  0  0  0  0  0  0  0  0  0  0
    7.3736    1.6734    1.1048 C   0  0  0  0  0  0  0  0  0  0  0  0
    8.6557    1.5712    1.6429 C   0  0  0  0  0  0  0  0  0  0  0  0
    8.8778    1.9059    2.9774 C   0  0  0  0  0  0  0  0  0  0  0  0
    7.8246    2.3673    3.7678 C   0  0  0  0  0  0  0  0  0  0  0  0
    6.5474    2.5079    3.2211 C   0  0  0  0  0  0  0  0  0  0  0  0
    4.4320    1.0859    0.7756 C   0  0  0  0  0  0  0  0  0  0  0  0
    4.9550   -0.0318    0.7843 O   0  0  0  0  0  0  0  0  0  0  0  0
    3.6923   -1.1978    0.3634 H   0  0  0  0  0  0  0  0  0  0  0  0
    0.5873   -1.6715   -1.6877 H   0  0  0  0  0  0  0  0  0  0  0  0
   -0.4790   -3.8378   -1.9731 H   0  0  0  0  0  0  0  0  0  0  0  0
    0.3523   -5.7320    1.7271 H   0  0  0  0  0  0  0  0  0  0  0  0
    0.0980   -7.5067    3.3845 H   0  0  0  0  0  0  0  0  0  0  0  0
   -1.4166  -13.0001    1.2914 H   0  0  0  0  0  0  0  0  0  0  0  0
   -1.3331  -14.9035    2.5103 H   0  0  0  0  0  0  0  0  0  0  0  0
   -3.3731  -15.4009    3.8909 H   0  0  0  0  0  0  0  0  0  0  0  0
   -3.1569  -13.8445    4.8132 H   0  0  0  0  0  0  0  0  0  0  0  0
   -1.0840  -16.1456    4.6466 H   0  0  0  0  0  0  0  0  0  0  0  0
   -0.8833  -14.5864    5.5606 H   0  0  0  0  0  0  0  0  0  0  0  0
   -1.0741  -11.0117   -0.5369 H   0  0  0  0  0  0  0  0  0  0  0  0
   -0.4380   -8.5646   -1.4431 H   0  0  0  0  0  0  0  0  0  0  0  0
    3.6716   -3.5138    0.7199 H   0  0  0  0  0  0  0  0  0  0  0  0
    1.5099    2.6169   -0.2633 H   0  0  0  0  0  0  0  0  0  0  0  0
    2.6426    4.5609    0.7073 H   0  0  0  0  0  0  0  0  0  0  0  0
    4.8530    4.3122    1.7705 H   0  0  0  0  0  0  0  0  0  0  0  0
    7.2111    1.4086    0.0630 H   0  0  0  0  0  0  0  0  0  0  0  0
    9.4765    1.2224    1.0220 H   0  0  0  0  0  0  0  0  0  0  0  0
    9.8722    1.7994    3.4034 H   0  0  0  0  0  0  0  0  0  0  0  0
    7.9968    2.6040    4.8146 H   0  0  0  0  0  0  0  0  0  0  0  0
    5.7311    2.8436    3.8549 H   0  0  0  0  0  0  0  0  0  0  0  0
  1  2  2  0  0  0  0
  2  3  1  0  0  0  0
  2 27  1  0  0  0  0
  3  4  1  0  0  0  0
  3 40  1  0  0  0  0
  4  5  1  0  0  0  0
  4 26  2  0  0  0  0
  5  6  2  0  0  0  0
  5 41  1  0  0  0  0
  6  7  1  0  0  0  0
  6 42  1  0  0  0  0
  7  8  1  0  0  0  0
  7 24  2  0  0  0  0
  8  9  1  0  0  0  0
  9 10  1  0  0  0  0
  9 23  2  0  0  0  0
 10 11  2  0  0  0  0
 10 43  1  0  0  0  0
 11 12  1  0  0  0  0
 11 44  1  0  0  0  0
 12 13  2  0  0  0  0
 12 22  1  0  0  0  0
 13 14  1  0  0  0  0
 14 15  1  0  0  0  0
 14 21  2  0  0  0  0
 15 16  1  0  0  0  0
 15 45  1  0  0  0  0
 16 17  2  0  0  0  0
 16 18  1  0  0  0  0
 18 19  1  0  0  0  0
 18 20  1  0  0  0  0
 18 46  1  0  0  0  0
 19 20  1  0  0  0  0
 19 47  1  0  0  0  0
 19 48  1  0  0  0  0
 20 49  1  0  0  0  0
 20 50  1  0  0  0  0
 21 22  1  0  0  0  0
 21 51  1  0  0  0  0
 22 23  1  0  0  0  0
 23 52  1  0  0  0  0
 24 25  1  0  0  0  0
 24 26  1  0  0  0  0
 26 53  1  0  0  0  0
 27 28  2  0  0  0  0
 27 38  1  0  0  0  0
 28 29  1  0  0  0  0
 28 54  1  0  0  0  0
 29 30  2  0  0  0  0
 29 55  1  0  0  0  0
 30 31  1  0  0  0  0
 30 56  1  0  0  0  0
 31 32  1  0  0  0  0
 31 38  1  0  0  0  0
 32 33  1  0  0  0  0
 32 37  2  0  0  0  0
 33 34  2  0  0  0  0
 33 57  1  0  0  0  0
 34 35  1  0  0  0  0
 34 58  1  0  0  0  0
 35 36  2  0  0  0  0
 35 59  1  0  0  0  0
 36 37  1  0  0  0  0
 36 60  1  0  0  0  0
 37 61  1  0  0  0  0
 38 39  2  0  0  0  0
M  END
$$$$
