CHEMBL4082724
 OpenBabel04072215383D

 88 94  0  0  0  0  0  0  0  0999 V2000
    2.7369   -0.1717    1.0844 C   0  0  0  0  0  0  0  0  0  0  0  0
    2.4709    0.2747   -0.2439 O   0  0  0  0  0  0  0  0  0  0  0  0
    3.2460   -0.2205   -1.2608 C   0  0  0  0  0  0  0  0  0  0  0  0
    4.4703   -0.8904   -1.0579 C   0  0  0  0  0  0  0  0  0  0  0  0
    5.1906   -1.4742   -2.1351 C   0  0  0  0  0  0  0  0  0  0  0  0
    6.3415   -2.2972   -2.0199 C   0  0  0  0  0  0  0  0  0  0  0  0
    6.7852   -2.6399   -0.7543 O   0  0  0  0  0  0  0  0  0  0  0  0
    7.3510   -3.8851   -0.5527 C   0  0  0  0  0  0  0  0  0  0  0  0
    8.4493   -3.9319    0.3053 C   0  0  0  0  0  0  0  0  0  0  0  0
    9.0704   -5.1552    0.6005 C   0  0  0  0  0  0  0  0  0  0  0  0
    8.5944   -6.3541    0.0573 C   0  0  0  0  0  0  0  0  0  0  0  0
    9.1408   -7.6143    0.3839 N   0  0  0  0  0  0  0  0  0  0  0  0
   10.3461   -7.8457    1.0189 C   0  0  0  0  0  0  0  0  0  0  0  0
   11.2481   -7.0434    1.1978 O   0  0  0  0  0  0  0  0  0  0  0  0
   10.5365   -9.2898    1.4739 C   0  0  0  0  0  0  0  0  0  0  0  0
    9.9875  -10.2072    0.7243 N   0  0  0  0  0  0  0  0  0  0  0  0
   10.1207  -11.5519    1.1076 C   0  0  0  0  0  0  0  0  0  0  0  0
    9.4482  -12.5020    0.3294 C   0  0  0  0  0  0  0  0  0  0  0  0
    9.4707  -13.8544    0.6688 C   0  0  0  0  0  0  0  0  0  0  0  0
   10.1723  -14.2693    1.7949 C   0  0  0  0  0  0  0  0  0  0  0  0
   10.8655  -13.3344    2.5688 C   0  0  0  0  0  0  0  0  0  0  0  0
   10.8636  -11.9680    2.2292 C   0  0  0  0  0  0  0  0  0  0  0  0
   11.5041  -10.9675    3.0181 N   0  0  0  0  0  0  0  0  0  0  0  0
   12.2505  -11.3435    4.1691 C   0  0  0  0  0  0  0  0  0  0  0  0
   11.8420  -10.9126    5.4397 C   0  0  0  0  0  0  0  0  0  0  0  0
   12.5831  -11.2535    6.5730 C   0  0  0  0  0  0  0  0  0  0  0  0
   13.7466  -12.0002    6.4330 C   0  0  0  0  0  0  0  0  0  0  0  0
   14.4630  -12.3163    7.5197 F   0  0  0  0  0  0  0  0  0  0  0  0
   14.1816  -12.4171    5.1799 C   0  0  0  0  0  0  0  0  0  0  0  0
   13.4324  -12.0924    4.0450 C   0  0  0  0  0  0  0  0  0  0  0  0
   11.2977   -9.6126    2.7494 C   0  0  0  0  0  0  0  0  0  0  0  0
   11.6790   -8.6856    3.4541 O   0  0  0  0  0  0  0  0  0  0  0  0
    7.4874   -6.3088   -0.7942 C   0  0  0  0  0  0  0  0  0  0  0  0
    6.8705   -5.0861   -1.0852 C   0  0  0  0  0  0  0  0  0  0  0  0
    5.8034   -5.1018   -1.8975 F   0  0  0  0  0  0  0  0  0  0  0  0
    7.0080   -2.7338   -3.1650 C   0  0  0  0  0  0  0  0  0  0  0  0
    6.4527   -2.4383   -4.3885 C   0  0  0  0  0  0  0  0  0  0  0  0
    5.3337   -1.7111   -4.5393 N   0  0  0  0  0  0  0  0  0  0  0  0
    4.7290   -1.2441   -3.4388 C   0  0  0  0  0  0  0  0  0  0  0  0
    3.5693   -0.5232   -3.6304 C   0  0  0  0  0  0  0  0  0  0  0  0
    2.7715   -0.0562   -2.5750 C   0  0  0  0  0  0  0  0  0  0  0  0
    1.5248    0.5255   -2.8004 O   0  0  0  0  0  0  0  0  0  0  0  0
    1.0088    0.2596   -4.1186 C   0  0  0  0  0  0  0  0  0  0  0  0
   -0.4680    0.6026   -4.3431 C   0  0  0  0  0  0  0  0  0  0  0  0
   -0.8769    0.0413   -5.7282 C   0  0  0  0  0  0  0  0  0  0  0  0
   -2.2959    0.1667   -6.0798 N   0  0  0  0  0  0  0  0  0  0  0  0
   -2.7352    1.5635   -6.2403 C   0  0  0  0  0  0  0  0  0  0  0  0
   -4.2398    1.6409   -6.6005 C   0  0  0  0  0  0  0  0  0  0  0  0
   -4.6442    0.8829   -7.8019 N   0  0  0  0  0  0  0  0  0  0  0  0
   -4.2475    1.5613   -9.0318 C   0  0  0  0  0  0  0  0  0  0  0  0
   -4.0903   -0.4836   -7.7237 C   0  0  0  0  0  0  0  0  0  0  0  0
   -2.5931   -0.5670   -7.3339 C   0  0  0  0  0  0  0  0  0  0  0  0
    3.3455    0.5704    1.6118 H   0  0  0  0  0  0  0  0  0  0  0  0
    3.2084   -1.1577    1.1430 H   0  0  0  0  0  0  0  0  0  0  0  0
    1.7795   -0.2609    1.6069 H   0  0  0  0  0  0  0  0  0  0  0  0
    4.8938   -0.9870   -0.0624 H   0  0  0  0  0  0  0  0  0  0  0  0
    8.8303   -3.0182    0.7553 H   0  0  0  0  0  0  0  0  0  0  0  0
    9.9092   -5.1420    1.2926 H   0  0  0  0  0  0  0  0  0  0  0  0
    8.6444   -8.4500    0.0874 H   0  0  0  0  0  0  0  0  0  0  0  0
    8.8868  -12.1822   -0.5452 H   0  0  0  0  0  0  0  0  0  0  0  0
    8.9254  -14.5795    0.0692 H   0  0  0  0  0  0  0  0  0  0  0  0
   10.1689  -15.3187    2.0854 H   0  0  0  0  0  0  0  0  0  0  0  0
   11.3726  -13.7043    3.4566 H   0  0  0  0  0  0  0  0  0  0  0  0
   10.9385  -10.3189    5.5567 H   0  0  0  0  0  0  0  0  0  0  0  0
   12.2637  -10.9322    7.5592 H   0  0  0  0  0  0  0  0  0  0  0  0
   15.1077  -12.9772    5.0951 H   0  0  0  0  0  0  0  0  0  0  0  0
   13.7948  -12.3963    3.0660 H   0  0  0  0  0  0  0  0  0  0  0  0
    7.0867   -7.2088   -1.2511 H   0  0  0  0  0  0  0  0  0  0  0  0
    7.9163   -3.3204   -3.1189 H   0  0  0  0  0  0  0  0  0  0  0  0
    6.8933   -2.8014   -5.3112 H   0  0  0  0  0  0  0  0  0  0  0  0
    3.2858   -0.3744   -4.6667 H   0  0  0  0  0  0  0  0  0  0  0  0
    1.1174   -0.8130   -4.3241 H   0  0  0  0  0  0  0  0  0  0  0  0
    1.5861    0.8459   -4.8451 H   0  0  0  0  0  0  0  0  0  0  0  0
   -0.5997    1.6895   -4.2992 H   0  0  0  0  0  0  0  0  0  0  0  0
   -1.0846    0.1713   -3.5474 H   0  0  0  0  0  0  0  0  0  0  0  0
   -0.6379   -1.0313   -5.7187 H   0  0  0  0  0  0  0  0  0  0  0  0
   -0.2476    0.4915   -6.5079 H   0  0  0  0  0  0  0  0  0  0  0  0
   -2.1415    2.0710   -7.0122 H   0  0  0  0  0  0  0  0  0  0  0  0
   -2.5923    2.1136   -5.3049 H   0  0  0  0  0  0  0  0  0  0  0  0
   -4.5405    2.6912   -6.6976 H   0  0  0  0  0  0  0  0  0  0  0  0
   -4.8158    1.2487   -5.7515 H   0  0  0  0  0  0  0  0  0  0  0  0
   -4.6828    2.5665   -9.0703 H   0  0  0  0  0  0  0  0  0  0  0  0
   -4.6390    1.0245   -9.9035 H   0  0  0  0  0  0  0  0  0  0  0  0
   -3.1633    1.6544   -9.1465 H   0  0  0  0  0  0  0  0  0  0  0  0
   -4.2557   -1.0144   -8.6702 H   0  0  0  0  0  0  0  0  0  0  0  0
   -4.6710   -1.0369   -6.9738 H   0  0  0  0  0  0  0  0  0  0  0  0
   -1.9802   -0.1816   -8.1603 H   0  0  0  0  0  0  0  0  0  0  0  0
   -2.3365   -1.6267   -7.2131 H   0  0  0  0  0  0  0  0  0  0  0  0
  1  2  1  0  0  0  0
  1 53  1  0  0  0  0
  1 54  1  0  0  0  0
  1 55  1  0  0  0  0
  2  3  1  0  0  0  0
  3  4  1  0  0  0  0
  3 41  2  0  0  0  0
  4  5  2  0  0  0  0
  4 56  1  0  0  0  0
  5  6  1  0  0  0  0
  5 39  1  0  0  0  0
  6  7  1  0  0  0  0
  6 36  2  0  0  0  0
  7  8  1  0  0  0  0
  8  9  1  0  0  0  0
  8 34  2  0  0  0  0
  9 10  2  0  0  0  0
  9 57  1  0  0  0  0
 10 11  1  0  0  0  0
 10 58  1  0  0  0  0
 11 12  1  0  0  0  0
 11 33  2  0  0  0  0
 12 13  1  0  0  0  0
 12 59  1  0  0  0  0
 13 14  2  0  0  0  0
 13 15  1  0  0  0  0
 15 16  2  0  0  0  0
 15 31  1  0  0  0  0
 16 17  1  0  0  0  0
 17 18  1  0  0  0  0
 17 22  2  0  0  0  0
 18 19  2  0  0  0  0
 18 60  1  0  0  0  0
 19 20  1  0  0  0  0
 19 61  1  0  0  0  0
 20 21  2  0  0  0  0
 20 62  1  0  0  0  0
 21 22  1  0  0  0  0
 21 63  1  0  0  0  0
 22 23  1  0  0  0  0
 23 24  1  0  0  0  0
 23 31  1  0  0  0  0
 24 25  1  0  0  0  0
 24 30  2  0  0  0  0
 25 26  2  0  0  0  0
 25 64  1  0  0  0  0
 26 27  1  0  0  0  0
 26 65  1  0  0  0  0
 27 28  1  0  0  0  0
 27 29  2  0  0  0  0
 29 30  1  0  0  0  0
 29 66  1  0  0  0  0
 30 67  1  0  0  0  0
 31 32  2  0  0  0  0
 33 34  1  0  0  0  0
 33 68  1  0  0  0  0
 34 35  1  0  0  0  0
 36 37  1  0  0  0  0
 36 69  1  0  0  0  0
 37 38  2  0  0  0  0
 37 70  1  0  0  0  0
 38 39  1  0  0  0  0
 39 40  2  0  0  0  0
 40 41  1  0  0  0  0
 40 71  1  0  0  0  0
 41 42  1  0  0  0  0
 42 43  1  0  0  0  0
 43 44  1  0  0  0  0
 43 72  1  0  0  0  0
 43 73  1  0  0  0  0
 44 45  1  0  0  0  0
 44 74  1  0  0  0  0
 44 75  1  0  0  0  0
 45 46  1  0  0  0  0
 45 76  1  0  0  0  0
 45 77  1  0  0  0  0
 46 47  1  0  0  0  0
 46 52  1  0  0  0  0
 47 48  1  0  0  0  0
 47 78  1  0  0  0  0
 47 79  1  0  0  0  0
 48 49  1  0  0  0  0
 48 80  1  0  0  0  0
 48 81  1  0  0  0  0
 49 50  1  0  0  0  0
 49 51  1  0  0  0  0
 50 82  1  0  0  0  0
 50 83  1  0  0  0  0
 50 84  1  0  0  0  0
 51 52  1  0  0  0  0
 51 85  1  0  0  0  0
 51 86  1  0  0  0  0
 52 87  1  0  0  0  0
 52 88  1  0  0  0  0
M  END
$$$$
