CHEMBL260531
 OpenBabel04072215363D

 56 59  0  0  0  0  0  0  0  0999 V2000
    0.9213   -0.3792    2.0813 C   0  0  0  0  0  0  0  0  0  0  0  0
    2.3108   -0.0785    2.1109 O   0  0  0  0  0  0  0  0  0  0  0  0
    3.0669   -1.0032    1.3209 C   0  0  0  0  0  0  0  0  0  0  0  0
    4.5362   -0.5862    1.3359 C   0  0  0  0  0  0  0  0  0  0  0  0
    5.1032   -0.6149    2.6747 N   0  0  0  0  0  0  0  0  0  0  0  0
    6.4529   -0.3688    2.8603 C   0  0  0  0  0  0  0  0  0  0  0  0
    7.2286   -0.2375    1.9206 O   0  0  0  0  0  0  0  0  0  0  0  0
    6.9246   -0.2870    4.2817 C   0  0  0  0  0  0  0  0  0  0  0  0
    6.3234   -1.1512    5.2139 C   0  0  0  0  0  0  0  0  0  0  0  0
    6.7487   -1.1672    6.5375 C   0  0  0  0  0  0  0  0  0  0  0  0
    7.7846   -0.3290    6.9425 C   0  0  0  0  0  0  0  0  0  0  0  0
    8.4118    0.5432    6.0386 C   0  0  0  0  0  0  0  0  0  0  0  0
    9.4642    1.3709    6.4815 C   0  0  0  0  0  0  0  0  0  0  0  0
   10.1160    2.2425    5.6096 C   0  0  0  0  0  0  0  0  0  0  0  0
   11.1404    3.0059    6.1361 O   0  0  0  0  0  0  0  0  0  0  0  0
   12.2480    3.2803    5.3508 C   0  0  0  0  0  0  0  0  0  0  0  0
   12.7367    2.3532    4.4290 C   0  0  0  0  0  0  0  0  0  0  0  0
   13.8004    2.7244    3.6367 C   0  0  0  0  0  0  0  0  0  0  0  0
   14.4270    3.9078    3.7446 N   0  0  0  0  0  0  0  0  0  0  0  0
   13.9970    4.7715    4.6750 C   0  0  0  0  0  0  0  0  0  0  0  0
   14.6694    5.9759    4.7681 C   0  0  0  0  0  0  0  0  0  0  0  0
   14.3101    6.9885    5.6727 C   0  0  0  0  0  0  0  0  0  0  0  0
   14.9821    8.1895    5.7114 O   0  0  0  0  0  0  0  0  0  0  0  0
   15.6861    8.5495    4.5162 C   0  0  0  0  0  0  0  0  0  0  0  0
   13.2550    6.7412    6.5647 C   0  0  0  0  0  0  0  0  0  0  0  0
   12.7592    7.6966    7.6166 C   0  0  0  0  0  0  0  0  0  0  0  0
   13.3610    8.9154    7.7448 N   0  0  0  0  0  0  0  0  0  0  0  0
   11.8287    7.4050    8.3552 O   0  0  0  0  0  0  0  0  0  0  0  0
   12.5691    5.5108    6.4851 C   0  0  0  0  0  0  0  0  0  0  0  0
   12.9111    4.5189    5.5305 C   0  0  0  0  0  0  0  0  0  0  0  0
    9.6783    2.3330    4.2919 C   0  0  0  0  0  0  0  0  0  0  0  0
    8.6484    1.5027    3.8342 C   0  0  0  0  0  0  0  0  0  0  0  0
    7.9867    0.5815    4.6830 C   0  0  0  0  0  0  0  0  0  0  0  0
    0.3939    0.3710    2.6766 H   0  0  0  0  0  0  0  0  0  0  0  0
    0.7371   -1.3655    2.5172 H   0  0  0  0  0  0  0  0  0  0  0  0
    0.5392   -0.3420    1.0563 H   0  0  0  0  0  0  0  0  0  0  0  0
    2.6957   -0.9916    0.2896 H   0  0  0  0  0  0  0  0  0  0  0  0
    2.9505   -2.0111    1.7354 H   0  0  0  0  0  0  0  0  0  0  0  0
    4.6460    0.4380    0.9629 H   0  0  0  0  0  0  0  0  0  0  0  0
    5.1245   -1.2528    0.6957 H   0  0  0  0  0  0  0  0  0  0  0  0
    4.4629   -0.4246    3.4371 H   0  0  0  0  0  0  0  0  0  0  0  0
    5.5401   -1.8416    4.9104 H   0  0  0  0  0  0  0  0  0  0  0  0
    6.2847   -1.8431    7.2518 H   0  0  0  0  0  0  0  0  0  0  0  0
    8.1075   -0.3681    7.9818 H   0  0  0  0  0  0  0  0  0  0  0  0
    9.7900    1.3332    7.5195 H   0  0  0  0  0  0  0  0  0  0  0  0
   12.2881    1.3762    4.2941 H   0  0  0  0  0  0  0  0  0  0  0  0
   14.1840    2.0640    2.8640 H   0  0  0  0  0  0  0  0  0  0  0  0
   15.5089    6.0920    4.0897 H   0  0  0  0  0  0  0  0  0  0  0  0
   16.1211    9.5428    4.6570 H   0  0  0  0  0  0  0  0  0  0  0  0
   15.0009    8.5967    3.6617 H   0  0  0  0  0  0  0  0  0  0  0  0
   16.5209    7.8699    4.3119 H   0  0  0  0  0  0  0  0  0  0  0  0
   14.1494    9.1887    7.1756 H   0  0  0  0  0  0  0  0  0  0  0  0
   13.0209    9.5408    8.4607 H   0  0  0  0  0  0  0  0  0  0  0  0
   11.7479    5.3138    7.1751 H   0  0  0  0  0  0  0  0  0  0  0  0
   10.1358    3.0282    3.5934 H   0  0  0  0  0  0  0  0  0  0  0  0
    8.3700    1.5911    2.7857 H   0  0  0  0  0  0  0  0  0  0  0  0
  1  2  1  0  0  0  0
  1 34  1  0  0  0  0
  1 35  1  0  0  0  0
  1 36  1  0  0  0  0
  2  3  1  0  0  0  0
  3  4  1  0  0  0  0
  3 37  1  0  0  0  0
  3 38  1  0  0  0  0
  4  5  1  0  0  0  0
  4 39  1  0  0  0  0
  4 40  1  0  0  0  0
  5  6  1  0  0  0  0
  5 41  1  0  0  0  0
  6  7  2  0  0  0  0
  6  8  1  0  0  0  0
  8  9  1  0  0  0  0
  8 33  2  0  0  0  0
  9 10  2  0  0  0  0
  9 42  1  0  0  0  0
 10 11  1  0  0  0  0
 10 43  1  0  0  0  0
 11 12  2  0  0  0  0
 11 44  1  0  0  0  0
 12 13  1  0  0  0  0
 12 33  1  0  0  0  0
 13 14  2  0  0  0  0
 13 45  1  0  0  0  0
 14 15  1  0  0  0  0
 14 31  1  0  0  0  0
 15 16  1  0  0  0  0
 16 17  1  0  0  0  0
 16 30  2  0  0  0  0
 17 18  2  0  0  0  0
 17 46  1  0  0  0  0
 18 19  1  0  0  0  0
 18 47  1  0  0  0  0
 19 20  2  0  0  0  0
 20 21  1  0  0  0  0
 20 30  1  0  0  0  0
 21 22  2  0  0  0  0
 21 48  1  0  0  0  0
 22 23  1  0  0  0  0
 22 25  1  0  0  0  0
 23 24  1  0  0  0  0
 24 49  1  0  0  0  0
 24 50  1  0  0  0  0
 24 51  1  0  0  0  0
 25 26  1  0  0  0  0
 25 29  2  0  0  0  0
 26 27  1  0  0  0  0
 26 28  2  0  0  0  0
 27 52  1  0  0  0  0
 27 53  1  0  0  0  0
 29 30  1  0  0  0  0
 29 54  1  0  0  0  0
 31 32  2  0  0  0  0
 31 55  1  0  0  0  0
 32 33  1  0  0  0  0
 32 56  1  0  0  0  0
M  END
$$$$
