CHEMBL1087524
 OpenBabel04072215363D

 57 61  0  0  0  0  0  0  0  0999 V2000
    2.5004    0.1470    0.0085 C   0  0  0  0  0  0  0  0  0  0  0  0
    0.9906    0.0751    0.0566 C   0  0  0  0  0  0  0  0  0  0  0  0
    0.2655    1.2632   -0.1104 C   0  0  0  0  0  0  0  0  0  0  0  0
   -1.1276    1.2442   -0.1238 C   0  0  0  0  0  0  0  0  0  0  0  0
   -1.8144    0.0299   -0.0607 C   0  0  0  0  0  0  0  0  0  0  0  0
   -3.3095    0.0534   -0.0468 C   0  0  0  0  0  0  0  0  0  0  0  0
   -3.8399    1.0790    0.3691 O   0  0  0  0  0  0  0  0  0  0  0  0
   -3.9679   -1.0943   -0.4746 N   0  0  0  0  0  0  0  0  0  0  0  0
   -5.3671   -1.3150   -0.4317 C   0  0  0  0  0  0  0  0  0  0  0  0
   -6.2967   -0.3069   -0.1857 C   0  0  0  0  0  0  0  0  0  0  0  0
   -7.6548   -0.6007   -0.0744 C   0  0  0  0  0  0  0  0  0  0  0  0
   -8.1007   -1.9176   -0.1786 C   0  0  0  0  0  0  0  0  0  0  0  0
   -7.1935   -2.9497   -0.4377 C   0  0  0  0  0  0  0  0  0  0  0  0
   -7.6565   -4.3857   -0.4749 C   0  0  0  0  0  0  0  0  0  0  0  0
   -9.0050   -4.5258   -0.3187 F   0  0  0  0  0  0  0  0  0  0  0  0
   -7.3527   -5.0087   -1.6478 F   0  0  0  0  0  0  0  0  0  0  0  0
   -7.1027   -5.1509    0.5050 F   0  0  0  0  0  0  0  0  0  0  0  0
   -5.8339   -2.6276   -0.6123 C   0  0  0  0  0  0  0  0  0  0  0  0
   -1.0877   -1.1520    0.0936 C   0  0  0  0  0  0  0  0  0  0  0  0
    0.2986   -1.1467    0.2530 C   0  0  0  0  0  0  0  0  0  0  0  0
    1.0254   -2.2985    0.5950 N   0  0  0  0  0  0  0  0  0  0  0  0
    0.7069   -3.4646    1.2263 C   0  0  0  0  0  0  0  0  0  0  0  0
    1.6931   -4.1251    1.8041 N   0  0  0  0  0  0  0  0  0  0  0  0
    1.7957   -5.2379    1.0163 C   0  0  0  0  0  0  0  0  0  0  0  0
    2.8785   -6.1083    0.8631 C   0  0  0  0  0  0  0  0  0  0  0  0
    2.7884   -7.1069   -0.1092 C   0  0  0  0  0  0  0  0  0  0  0  0
    1.6219   -7.2740   -0.8624 C   0  0  0  0  0  0  0  0  0  0  0  0
    0.5042   -6.4519   -0.6758 C   0  0  0  0  0  0  0  0  0  0  0  0
    0.6443   -5.4177    0.2474 C   0  0  0  0  0  0  0  0  0  0  0  0
   -0.1915   -4.4157    0.7431 N   0  0  0  0  0  0  0  0  0  0  0  0
   -1.6012   -4.5188    0.9071 C   0  0  0  0  0  0  0  0  0  0  0  0
   -2.2525   -3.7448    1.8520 C   0  0  0  0  0  0  0  0  0  0  0  0
   -3.6181   -3.9077    1.9369 C   0  0  0  0  0  0  0  0  0  0  0  0
   -4.3875   -3.0792    2.7418 N   0  0  0  0  0  0  0  0  0  0  0  0
   -4.2894   -4.7824    1.1825 N   0  0  0  0  0  0  0  0  0  0  0  0
   -3.5739   -5.5137    0.3241 C   0  0  0  0  0  0  0  0  0  0  0  0
   -2.2564   -5.4172    0.1364 N   0  0  0  0  0  0  0  0  0  0  0  0
    2.8543    1.1784   -0.0935 H   0  0  0  0  0  0  0  0  0  0  0  0
    2.8721   -0.4131   -0.8577 H   0  0  0  0  0  0  0  0  0  0  0  0
    2.9474   -0.2549    0.9226 H   0  0  0  0  0  0  0  0  0  0  0  0
    0.7822    2.2160   -0.2077 H   0  0  0  0  0  0  0  0  0  0  0  0
   -1.6743    2.1821   -0.1926 H   0  0  0  0  0  0  0  0  0  0  0  0
   -3.4153   -1.8909   -0.7540 H   0  0  0  0  0  0  0  0  0  0  0  0
   -5.9935    0.7296   -0.0797 H   0  0  0  0  0  0  0  0  0  0  0  0
   -8.3624    0.2019    0.1137 H   0  0  0  0  0  0  0  0  0  0  0  0
   -9.1618   -2.1299   -0.0497 H   0  0  0  0  0  0  0  0  0  0  0  0
   -5.1340   -3.4274   -0.8308 H   0  0  0  0  0  0  0  0  0  0  0  0
   -1.6124   -2.0865    0.1130 H   0  0  0  0  0  0  0  0  0  0  0  0
    2.0051   -2.0882    0.7632 H   0  0  0  0  0  0  0  0  0  0  0  0
    3.7809   -5.9582    1.4437 H   0  0  0  0  0  0  0  0  0  0  0  0
    3.6438   -7.7522   -0.2875 H   0  0  0  0  0  0  0  0  0  0  0  0
    1.5803   -8.0590   -1.6133 H   0  0  0  0  0  0  0  0  0  0  0  0
   -0.4041   -6.5928   -1.2515 H   0  0  0  0  0  0  0  0  0  0  0  0
   -1.7453   -3.0222    2.4788 H   0  0  0  0  0  0  0  0  0  0  0  0
   -4.0771   -3.0375    3.7040 H   0  0  0  0  0  0  0  0  0  0  0  0
   -5.3624   -3.3626    2.6667 H   0  0  0  0  0  0  0  0  0  0  0  0
   -4.1179   -6.2191   -0.2949 H   0  0  0  0  0  0  0  0  0  0  0  0
  1  2  1  0  0  0  0
  1 38  1  0  0  0  0
  1 39  1  0  0  0  0
  1 40  1  0  0  0  0
  2  3  1  0  0  0  0
  2 20  2  0  0  0  0
  3  4  2  0  0  0  0
  3 41  1  0  0  0  0
  4  5  1  0  0  0  0
  4 42  1  0  0  0  0
  5  6  1  0  0  0  0
  5 19  2  0  0  0  0
  6  7  2  0  0  0  0
  6  8  1  0  0  0  0
  8  9  1  0  0  0  0
  8 43  1  0  0  0  0
  9 10  1  0  0  0  0
  9 18  2  0  0  0  0
 10 11  2  0  0  0  0
 10 44  1  0  0  0  0
 11 12  1  0  0  0  0
 11 45  1  0  0  0  0
 12 13  2  0  0  0  0
 12 46  1  0  0  0  0
 13 14  1  0  0  0  0
 13 18  1  0  0  0  0
 14 15  1  0  0  0  0
 14 16  1  0  0  0  0
 14 17  1  0  0  0  0
 18 47  1  0  0  0  0
 19 20  1  0  0  0  0
 19 48  1  0  0  0  0
 20 21  1  0  0  0  0
 21 22  1  0  0  0  0
 21 49  1  0  0  0  0
 22 23  2  0  0  0  0
 22 30  1  0  0  0  0
 23 24  1  0  0  0  0
 24 25  1  0  0  0  0
 24 29  2  0  0  0  0
 25 26  2  0  0  0  0
 25 50  1  0  0  0  0
 26 27  1  0  0  0  0
 26 51  1  0  0  0  0
 27 28  2  0  0  0  0
 27 52  1  0  0  0  0
 28 29  1  0  0  0  0
 28 53  1  0  0  0  0
 29 30  1  0  0  0  0
 30 31  1  0  0  0  0
 31 32  1  0  0  0  0
 31 37  2  0  0  0  0
 32 33  2  0  0  0  0
 32 54  1  0  0  0  0
 33 34  1  0  0  0  0
 33 35  1  0  0  0  0
 34 55  1  0  0  0  0
 34 56  1  0  0  0  0
 35 36  2  0  0  0  0
 36 37  1  0  0  0  0
 36 57  1  0  0  0  0
M  END
$$$$
