CHEMBL1095957
 OpenBabel04072215363D

 44 45  0  0  0  0  0  0  0  0999 V2000
    0.2070    0.9499   -2.1797 Cl  0  0  0  0  0  0  0  0  0  0  0  0
    3.3246    0.7450    0.9687 N   0  0  0  0  0  0  0  0  0  0  0  0
    2.7339   -0.5571    0.6635 C   0  0  0  0  0  0  0  0  0  0  0  0
    3.1020   -0.9825   -0.7624 C   0  0  0  0  0  0  0  0  0  0  0  0
    4.5941   -0.9952   -0.9071 C   0  0  0  0  0  0  0  0  0  0  0  0
    5.4697   -1.7893   -0.1759 C   0  0  0  0  0  0  0  0  0  0  0  0
    6.7435   -1.5111   -0.5214 N   0  0  0  0  0  0  0  0  0  0  0  0
    6.6797   -0.5535   -1.4609 C   0  0  0  0  0  0  0  0  0  0  0  0
    7.7476    0.0596   -2.0972 C   0  0  0  0  0  0  0  0  0  0  0  0
    7.4712    1.0497   -3.0456 C   0  0  0  0  0  0  0  0  0  0  0  0
    6.1258    1.4210   -3.3528 C   0  0  0  0  0  0  0  0  0  0  0  0
    5.8436    2.3813   -4.2799 O   0  0  0  0  0  0  0  0  0  0  0  0
    6.8125    3.0691   -4.9919 C   0  0  0  0  0  0  0  0  0  0  0  0
    6.1946    4.0607   -5.9815 C   0  0  0  0  0  0  0  0  0  0  0  0
    7.2843    4.7958   -6.7341 C   0  0  0  0  0  0  0  0  0  0  0  0
    8.1938    4.0896   -7.5442 C   0  0  0  0  0  0  0  0  0  0  0  0
    9.2131    4.7630   -8.2223 C   0  0  0  0  0  0  0  0  0  0  0  0
    9.3370    6.1538   -8.1072 C   0  0  0  0  0  0  0  0  0  0  0  0
   10.3186    6.8144   -8.7541 O   0  0  0  0  0  0  0  0  0  0  0  0
    8.4322    6.8640   -7.3115 C   0  0  0  0  0  0  0  0  0  0  0  0
    7.4124    6.1914   -6.6251 C   0  0  0  0  0  0  0  0  0  0  0  0
    5.0635    0.7751   -2.6799 C   0  0  0  0  0  0  0  0  0  0  0  0
    5.3807   -0.2107   -1.7350 C   0  0  0  0  0  0  0  0  0  0  0  0
    0.2556   -0.3933   -1.8809 H   0  0  0  0  0  0  0  0  0  0  0  0
    3.2135    0.9481    1.9870 H   0  0  0  0  0  0  0  0  0  0  0  0
    2.8338    1.4853    0.4166 H   0  0  0  0  0  0  0  0  0  0  0  0
    1.6289   -0.5126    0.7806 H   0  0  0  0  0  0  0  0  0  0  0  0
    3.1261   -1.3109    1.3815 H   0  0  0  0  0  0  0  0  0  0  0  0
    2.6636   -0.2670   -1.4825 H   0  0  0  0  0  0  0  0  0  0  0  0
    2.6904   -1.9932   -0.9761 H   0  0  0  0  0  0  0  0  0  0  0  0
    5.1917   -2.5179    0.5758 H   0  0  0  0  0  0  0  0  0  0  0  0
    7.6050   -1.9469   -0.1248 H   0  0  0  0  0  0  0  0  0  0  0  0
    8.7678   -0.2151   -1.8650 H   0  0  0  0  0  0  0  0  0  0  0  0
    8.3095    1.5241   -3.5352 H   0  0  0  0  0  0  0  0  0  0  0  0
    7.4291    2.3350   -5.5533 H   0  0  0  0  0  0  0  0  0  0  0  0
    7.4593    3.6314   -4.2821 H   0  0  0  0  0  0  0  0  0  0  0  0
    5.5602    4.7782   -5.4160 H   0  0  0  0  0  0  0  0  0  0  0  0
    5.5474    3.5217   -6.7061 H   0  0  0  0  0  0  0  0  0  0  0  0
    8.1192    3.0149   -7.6497 H   0  0  0  0  0  0  0  0  0  0  0  0
    9.9077    4.2015   -8.8354 H   0  0  0  0  0  0  0  0  0  0  0  0
   10.9655    6.3579   -9.3112 H   0  0  0  0  0  0  0  0  0  0  0  0
    8.5221    7.9396   -7.2197 H   0  0  0  0  0  0  0  0  0  0  0  0
    6.7264    6.7625   -6.0142 H   0  0  0  0  0  0  0  0  0  0  0  0
    4.0352    1.0397   -2.8910 H   0  0  0  0  0  0  0  0  0  0  0  0
  1 24  1  0  0  0  0
  2  3  1  0  0  0  0
  2 25  1  0  0  0  0
  2 26  1  0  0  0  0
  3  4  1  0  0  0  0
  3 27  1  0  0  0  0
  3 28  1  0  0  0  0
  4  5  1  0  0  0  0
  4 29  1  0  0  0  0
  4 30  1  0  0  0  0
  5  6  2  0  0  0  0
  5 23  1  0  0  0  0
  6  7  1  0  0  0  0
  6 31  1  0  0  0  0
  7  8  1  0  0  0  0
  7 32  1  0  0  0  0
  8  9  1  0  0  0  0
  8 23  2  0  0  0  0
  9 10  2  0  0  0  0
  9 33  1  0  0  0  0
 10 11  1  0  0  0  0
 10 34  1  0  0  0  0
 11 12  1  0  0  0  0
 11 22  2  0  0  0  0
 12 13  1  0  0  0  0
 13 14  1  0  0  0  0
 13 35  1  0  0  0  0
 13 36  1  0  0  0  0
 14 15  1  0  0  0  0
 14 37  1  0  0  0  0
 14 38  1  0  0  0  0
 15 16  1  0  0  0  0
 15 21  2  0  0  0  0
 16 17  2  0  0  0  0
 16 39  1  0  0  0  0
 17 18  1  0  0  0  0
 17 40  1  0  0  0  0
 18 19  1  0  0  0  0
 18 20  2  0  0  0  0
 19 41  1  0  0  0  0
 20 21  1  0  0  0  0
 20 42  1  0  0  0  0
 21 43  1  0  0  0  0
 22 23  1  0  0  0  0
 22 44  1  0  0  0  0
M  END
$$$$
