CHEMBL3694691
 OpenBabel04072215373D

 49 52  0  0  0  0  0  0  0  0999 V2000
   -2.8517    0.1396    1.3984 N   0  0  0  0  0  0  0  0  0  0  0  0
   -1.7641    0.0768    0.9950 C   0  0  0  0  0  0  0  0  0  0  0  0
   -0.4251    0.0248    0.5046 C   0  0  0  0  0  0  0  0  0  0  0  0
    0.1029   -1.1800    0.0496 C   0  0  0  0  0  0  0  0  0  0  0  0
    1.4190   -1.2626   -0.4085 C   0  0  0  0  0  0  0  0  0  0  0  0
    1.9825   -2.4772   -0.8947 N   0  0  0  0  0  0  0  0  0  0  0  0
    1.3544   -3.7003   -0.9255 C   0  0  0  0  0  0  0  0  0  0  0  0
    0.2462   -3.9666   -0.4871 O   0  0  0  0  0  0  0  0  0  0  0  0
    2.0799   -4.6634   -1.5896 N   0  0  0  0  0  0  0  0  0  0  0  0
    1.5088   -6.0219   -1.6675 C   0  0  0  0  0  0  0  0  0  0  0  0
    1.6169   -6.8833   -0.3988 C   0  0  0  0  0  0  0  0  0  0  0  0
    2.3796   -6.2971    0.5523 F   0  0  0  0  0  0  0  0  0  0  0  0
    0.4122   -7.1638    0.1381 F   0  0  0  0  0  0  0  0  0  0  0  0
    2.2087   -8.0673   -0.6987 F   0  0  0  0  0  0  0  0  0  0  0  0
    2.2077   -0.0937   -0.4014 C   0  0  0  0  0  0  0  0  0  0  0  0
    1.6810    1.1406    0.0236 C   0  0  0  0  0  0  0  0  0  0  0  0
    2.4482    2.3936    0.0599 C   0  0  0  0  0  0  0  0  0  0  0  0
    2.3526    3.4315    0.9810 C   0  0  0  0  0  0  0  0  0  0  0  0
    3.1643    4.4835    0.6730 N   0  0  0  0  0  0  0  0  0  0  0  0
    3.7619    4.1316   -0.4402 C   0  0  0  0  0  0  0  0  0  0  0  0
    4.6852    4.8593   -1.2410 C   0  0  0  0  0  0  0  0  0  0  0  0
    5.1386    4.3616   -2.4167 C   0  0  0  0  0  0  0  0  0  0  0  0
    6.0381    5.1845   -3.2726 C   0  0  0  0  0  0  0  0  0  0  0  0
    5.9442    6.5625   -3.3229 C   0  0  0  0  0  0  0  0  0  0  0  0
    6.7883    7.2033   -4.1949 C   0  0  0  0  0  0  0  0  0  0  0  0
    7.6664    6.5605   -4.9800 N   0  0  0  0  0  0  0  0  0  0  0  0
    7.6996    5.2088   -4.8928 C   0  0  0  0  0  0  0  0  0  0  0  0
    8.6749    4.4408   -5.7951 C   0  0  0  0  0  0  0  0  0  0  0  0
    9.3979    5.2386   -6.6388 F   0  0  0  0  0  0  0  0  0  0  0  0
    9.6034    3.7234   -5.0930 F   0  0  0  0  0  0  0  0  0  0  0  0
    8.0492    3.5344   -6.6071 F   0  0  0  0  0  0  0  0  0  0  0  0
    6.9003    4.4983   -4.0551 N   0  0  0  0  0  0  0  0  0  0  0  0
    4.7106    3.0116   -2.8183 C   0  0  0  0  0  0  0  0  0  0  0  0
    3.8343    2.3217   -2.0688 C   0  0  0  0  0  0  0  0  0  0  0  0
    3.3595    2.8707   -0.8777 N   0  0  0  0  0  0  0  0  0  0  0  0
    0.3544    1.1780    0.4831 C   0  0  0  0  0  0  0  0  0  0  0  0
   -0.5549   -2.0469    0.0674 H   0  0  0  0  0  0  0  0  0  0  0  0
    2.9195   -2.4301   -1.2619 H   0  0  0  0  0  0  0  0  0  0  0  0
    3.0854   -4.5846   -1.5830 H   0  0  0  0  0  0  0  0  0  0  0  0
    2.0161   -6.5196   -2.4989 H   0  0  0  0  0  0  0  0  0  0  0  0
    0.4511   -5.9341   -1.9449 H   0  0  0  0  0  0  0  0  0  0  0  0
    3.2475   -0.1580   -0.7084 H   0  0  0  0  0  0  0  0  0  0  0  0
    1.7173    3.4746    1.8582 H   0  0  0  0  0  0  0  0  0  0  0  0
    4.9722    5.8330   -0.8601 H   0  0  0  0  0  0  0  0  0  0  0  0
    5.2346    7.1294   -2.7351 H   0  0  0  0  0  0  0  0  0  0  0  0
    6.7728    8.2849   -4.2968 H   0  0  0  0  0  0  0  0  0  0  0  0
    5.1048    2.5977   -3.7419 H   0  0  0  0  0  0  0  0  0  0  0  0
    3.4758    1.3480   -2.3671 H   0  0  0  0  0  0  0  0  0  0  0  0
   -0.0844    2.1117    0.8279 H   0  0  0  0  0  0  0  0  0  0  0  0
  1  2  3  0  0  0  0
  2  3  1  0  0  0  0
  3  4  1  0  0  0  0
  3 36  2  0  0  0  0
  4  5  2  0  0  0  0
  4 37  1  0  0  0  0
  5  6  1  0  0  0  0
  5 15  1  0  0  0  0
  6  7  1  0  0  0  0
  6 38  1  0  0  0  0
  7  8  2  0  0  0  0
  7  9  1  0  0  0  0
  9 10  1  0  0  0  0
  9 39  1  0  0  0  0
 10 11  1  0  0  0  0
 10 40  1  0  0  0  0
 10 41  1  0  0  0  0
 11 12  1  0  0  0  0
 11 13  1  0  0  0  0
 11 14  1  0  0  0  0
 15 16  2  0  0  0  0
 15 42  1  0  0  0  0
 16 17  1  0  0  0  0
 16 36  1  0  0  0  0
 17 18  2  0  0  0  0
 17 35  1  0  0  0  0
 18 19  1  0  0  0  0
 18 43  1  0  0  0  0
 19 20  2  0  0  0  0
 20 21  1  0  0  0  0
 20 35  1  0  0  0  0
 21 22  2  0  0  0  0
 21 44  1  0  0  0  0
 22 23  1  0  0  0  0
 22 33  1  0  0  0  0
 23 24  1  0  0  0  0
 23 32  2  0  0  0  0
 24 25  2  0  0  0  0
 24 45  1  0  0  0  0
 25 26  1  0  0  0  0
 25 46  1  0  0  0  0
 26 27  2  0  0  0  0
 27 28  1  0  0  0  0
 27 32  1  0  0  0  0
 28 29  1  0  0  0  0
 28 30  1  0  0  0  0
 28 31  1  0  0  0  0
 33 34  2  0  0  0  0
 33 47  1  0  0  0  0
 34 35  1  0  0  0  0
 34 48  1  0  0  0  0
 36 49  1  0  0  0  0
M  END
$$$$
