CHEMBL3934657
 OpenBabel04072215373D

 55 58  0  0  0  0  0  0  0  0999 V2000
    2.0011    1.6310    0.2592 C   0  0  0  0  0  0  0  0  0  0  0  0
    2.5310    0.3049   -0.0854 N   0  0  0  0  0  0  0  0  0  0  0  0
    3.2654    0.1829   -1.2767 C   0  0  0  0  0  0  0  0  0  0  0  0
    2.9419    0.9275   -2.4135 C   0  0  0  0  0  0  0  0  0  0  0  0
    3.6554    0.7864   -3.6049 C   0  0  0  0  0  0  0  0  0  0  0  0
    4.7103   -0.1218   -3.7075 C   0  0  0  0  0  0  0  0  0  0  0  0
    5.4274   -0.3344   -4.9120 N   0  0  0  0  0  0  0  0  0  0  0  0
    5.0426    0.1341   -6.1529 C   0  0  0  0  0  0  0  0  0  0  0  0
    4.0218    0.7788   -6.3734 O   0  0  0  0  0  0  0  0  0  0  0  0
    5.9134   -0.2456   -7.1625 N   0  0  0  0  0  0  0  0  0  0  0  0
    5.6505    0.1496   -8.4956 C   0  0  0  0  0  0  0  0  0  0  0  0
    5.6874   -0.8155   -9.5003 C   0  0  0  0  0  0  0  0  0  0  0  0
    5.3327   -0.4728  -10.8057 C   0  0  0  0  0  0  0  0  0  0  0  0
    4.9842    0.8425  -11.1196 C   0  0  0  0  0  0  0  0  0  0  0  0
    4.9776    1.8338  -10.1286 C   0  0  0  0  0  0  0  0  0  0  0  0
    4.6099    3.2610  -10.4509 C   0  0  0  0  0  0  0  0  0  0  0  0
    4.2962    3.4553  -11.7640 F   0  0  0  0  0  0  0  0  0  0  0  0
    3.5344    3.7065   -9.7453 F   0  0  0  0  0  0  0  0  0  0  0  0
    5.6217    4.1335  -10.1828 F   0  0  0  0  0  0  0  0  0  0  0  0
    5.3112    1.4725   -8.8136 C   0  0  0  0  0  0  0  0  0  0  0  0
    5.0562   -0.8503   -2.5713 C   0  0  0  0  0  0  0  0  0  0  0  0
    6.0600   -1.7418   -2.6280 F   0  0  0  0  0  0  0  0  0  0  0  0
    4.3535   -0.7023   -1.3725 C   0  0  0  0  0  0  0  0  0  0  0  0
    1.9786   -0.7367    0.7024 C   0  0  0  0  0  0  0  0  0  0  0  0
    1.8984   -2.0360    0.2126 C   0  0  0  0  0  0  0  0  0  0  0  0
    1.3437   -3.0010    1.0276 C   0  0  0  0  0  0  0  0  0  0  0  0
    1.2566   -4.3111    0.5276 N   0  0  0  0  0  0  0  0  0  0  0  0
    0.7157   -5.3664    1.2304 C   0  0  0  0  0  0  0  0  0  0  0  0
    0.2390   -5.3494    2.3554 O   0  0  0  0  0  0  0  0  0  0  0  0
    0.7604   -6.6656    0.4837 C   0  0  0  0  0  0  0  0  0  0  0  0
   -0.0502   -7.8441    0.9818 C   0  0  0  0  0  0  0  0  0  0  0  0
    1.4433   -7.8534    1.1250 C   0  0  0  0  0  0  0  0  0  0  0  0
    0.9003   -2.7161    2.2522 N   0  0  0  0  0  0  0  0  0  0  0  0
    1.0008   -1.4475    2.6488 C   0  0  0  0  0  0  0  0  0  0  0  0
    1.5081   -0.4425    1.9287 N   0  0  0  0  0  0  0  0  0  0  0  0
    2.4869    2.4385   -0.3020 H   0  0  0  0  0  0  0  0  0  0  0  0
    2.1745    1.8719    1.3142 H   0  0  0  0  0  0  0  0  0  0  0  0
    0.9247    1.6844    0.0535 H   0  0  0  0  0  0  0  0  0  0  0  0
    2.1017    1.6206   -2.4091 H   0  0  0  0  0  0  0  0  0  0  0  0
    3.3487    1.4159   -4.4312 H   0  0  0  0  0  0  0  0  0  0  0  0
    6.2437   -0.9304   -4.8474 H   0  0  0  0  0  0  0  0  0  0  0  0
    6.3291   -1.1567   -7.0388 H   0  0  0  0  0  0  0  0  0  0  0  0
    5.9175   -1.8513   -9.2698 H   0  0  0  0  0  0  0  0  0  0  0  0
    5.3067   -1.2378  -11.5779 H   0  0  0  0  0  0  0  0  0  0  0  0
    4.7082    1.0899  -12.1438 H   0  0  0  0  0  0  0  0  0  0  0  0
    5.2931    2.2334   -8.0331 H   0  0  0  0  0  0  0  0  0  0  0  0
    4.6647   -1.2848   -0.5100 H   0  0  0  0  0  0  0  0  0  0  0  0
    2.2249   -2.2784   -0.7874 H   0  0  0  0  0  0  0  0  0  0  0  0
    1.6206   -4.4852   -0.3953 H   0  0  0  0  0  0  0  0  0  0  0  0
    0.8462   -6.5835   -0.5958 H   0  0  0  0  0  0  0  0  0  0  0  0
   -0.4997   -8.5053    0.2516 H   0  0  0  0  0  0  0  0  0  0  0  0
   -0.6437   -7.7154    1.8823 H   0  0  0  0  0  0  0  0  0  0  0  0
    2.0072   -8.5291    0.4943 H   0  0  0  0  0  0  0  0  0  0  0  0
    1.8499   -7.7320    2.1244 H   0  0  0  0  0  0  0  0  0  0  0  0
    0.6389   -1.2170    3.6427 H   0  0  0  0  0  0  0  0  0  0  0  0
  1  2  1  0  0  0  0
  1 36  1  0  0  0  0
  1 37  1  0  0  0  0
  1 38  1  0  0  0  0
  2  3  1  0  0  0  0
  2 24  1  0  0  0  0
  3  4  1  0  0  0  0
  3 23  2  0  0  0  0
  4  5  2  0  0  0  0
  4 39  1  0  0  0  0
  5  6  1  0  0  0  0
  5 40  1  0  0  0  0
  6  7  1  0  0  0  0
  6 21  2  0  0  0  0
  7  8  1  0  0  0  0
  7 41  1  0  0  0  0
  8  9  2  0  0  0  0
  8 10  1  0  0  0  0
 10 11  1  0  0  0  0
 10 42  1  0  0  0  0
 11 12  1  0  0  0  0
 11 20  2  0  0  0  0
 12 13  2  0  0  0  0
 12 43  1  0  0  0  0
 13 14  1  0  0  0  0
 13 44  1  0  0  0  0
 14 15  2  0  0  0  0
 14 45  1  0  0  0  0
 15 16  1  0  0  0  0
 15 20  1  0  0  0  0
 16 17  1  0  0  0  0
 16 18  1  0  0  0  0
 16 19  1  0  0  0  0
 20 46  1  0  0  0  0
 21 22  1  0  0  0  0
 21 23  1  0  0  0  0
 23 47  1  0  0  0  0
 24 25  1  0  0  0  0
 24 35  2  0  0  0  0
 25 26  2  0  0  0  0
 25 48  1  0  0  0  0
 26 27  1  0  0  0  0
 26 33  1  0  0  0  0
 27 28  1  0  0  0  0
 27 49  1  0  0  0  0
 28 29  2  0  0  0  0
 28 30  1  0  0  0  0
 30 31  1  0  0  0  0
 30 32  1  0  0  0  0
 30 50  1  0  0  0  0
 31 32  1  0  0  0  0
 31 51  1  0  0  0  0
 31 52  1  0  0  0  0
 32 53  1  0  0  0  0
 32 54  1  0  0  0  0
 33 34  2  0  0  0  0
 34 35  1  0  0  0  0
 34 55  1  0  0  0  0
M  END
$$$$
