CHEMBL1290471
 OpenBabel04072215363D

 46 49  0  0  0  0  0  0  0  0999 V2000
    2.8512    4.0694    1.5039 C   0  0  0  0  0  0  0  0  0  0  0  0
    1.5986    3.3904    1.0247 C   0  0  0  0  0  0  0  0  0  0  0  0
    1.6495    2.4697   -0.0243 C   0  0  0  0  0  0  0  0  0  0  0  0
    0.4898    1.8231   -0.4670 C   0  0  0  0  0  0  0  0  0  0  0  0
   -0.7498    2.1012    0.1432 C   0  0  0  0  0  0  0  0  0  0  0  0
   -1.9621    1.5214   -0.1825 N   0  0  0  0  0  0  0  0  0  0  0  0
   -2.9085    2.0113    0.5755 C   0  0  0  0  0  0  0  0  0  0  0  0
   -4.2434    1.6957    0.5871 N   0  0  0  0  0  0  0  0  0  0  0  0
   -4.7449    0.6417   -0.1465 C   0  0  0  0  0  0  0  0  0  0  0  0
   -4.0742   -0.1728   -0.7859 O   0  0  0  0  0  0  0  0  0  0  0  0
   -6.2468    0.4168   -0.0472 C   0  0  0  0  0  0  0  0  0  0  0  0
   -7.0723    1.6590   -0.0425 C   0  0  0  0  0  0  0  0  0  0  0  0
   -8.0335    2.0516   -0.9565 C   0  0  0  0  0  0  0  0  0  0  0  0
   -8.7634    3.5287   -0.4474 S   0  0  0  0  0  0  0  0  0  0  0  0
   -7.7213    3.5479    0.8953 C   0  0  0  0  0  0  0  0  0  0  0  0
   -7.8074    4.6376    1.7241 N   0  0  0  0  0  0  0  0  0  0  0  0
   -6.8082    4.8522    2.6398 C   0  0  0  0  0  0  0  0  0  0  0  0
   -5.8149    4.1337    2.7441 O   0  0  0  0  0  0  0  0  0  0  0  0
   -7.0362    5.9646    3.4308 N   0  0  0  0  0  0  0  0  0  0  0  0
   -6.1093    6.4442    4.3959 C   0  0  0  0  0  0  0  0  0  0  0  0
   -4.7426    6.1393    4.3443 C   0  0  0  0  0  0  0  0  0  0  0  0
   -3.8742    6.5249    5.3663 C   0  0  0  0  0  0  0  0  0  0  0  0
   -4.3626    7.2561    6.4419 C   0  0  0  0  0  0  0  0  0  0  0  0
   -5.7064    7.6215    6.4701 C   0  0  0  0  0  0  0  0  0  0  0  0
   -6.3029    8.5456    7.7947 Cl  0  0  0  0  0  0  0  0  0  0  0  0
   -6.5816    7.2313    5.4492 C   0  0  0  0  0  0  0  0  0  0  0  0
   -6.9210    2.5228    1.0212 N   0  0  0  0  0  0  0  0  0  0  0  0
   -2.4344    3.2067    1.6966 S   0  0  0  0  0  0  0  0  0  0  0  0
   -0.7940    3.0383    1.1770 C   0  0  0  0  0  0  0  0  0  0  0  0
    0.3672    3.6863    1.6384 C   0  0  0  0  0  0  0  0  0  0  0  0
    3.7270    3.7510    0.9282 H   0  0  0  0  0  0  0  0  0  0  0  0
    3.0353    3.8255    2.5544 H   0  0  0  0  0  0  0  0  0  0  0  0
    2.7575    5.1548    1.3952 H   0  0  0  0  0  0  0  0  0  0  0  0
    2.5951    2.2382   -0.5111 H   0  0  0  0  0  0  0  0  0  0  0  0
    0.5325    1.1028   -1.2785 H   0  0  0  0  0  0  0  0  0  0  0  0
   -4.8592    2.2529    1.1799 H   0  0  0  0  0  0  0  0  0  0  0  0
   -6.4408   -0.1552    0.8676 H   0  0  0  0  0  0  0  0  0  0  0  0
   -6.5449   -0.2102   -0.8969 H   0  0  0  0  0  0  0  0  0  0  0  0
   -8.3496    1.5519   -1.8630 H   0  0  0  0  0  0  0  0  0  0  0  0
   -8.4596    5.3640    1.4796 H   0  0  0  0  0  0  0  0  0  0  0  0
   -7.9960    6.2466    3.5459 H   0  0  0  0  0  0  0  0  0  0  0  0
   -4.3146    5.5846    3.5122 H   0  0  0  0  0  0  0  0  0  0  0  0
   -2.8281    6.2372    5.3189 H   0  0  0  0  0  0  0  0  0  0  0  0
   -3.6911    7.5360    7.2493 H   0  0  0  0  0  0  0  0  0  0  0  0
   -7.6267    7.5150    5.5092 H   0  0  0  0  0  0  0  0  0  0  0  0
    0.3108    4.4008    2.4546 H   0  0  0  0  0  0  0  0  0  0  0  0
  1  2  1  0  0  0  0
  1 31  1  0  0  0  0
  1 32  1  0  0  0  0
  1 33  1  0  0  0  0
  2  3  1  0  0  0  0
  2 30  2  0  0  0  0
  3  4  2  0  0  0  0
  3 34  1  0  0  0  0
  4  5  1  0  0  0  0
  4 35  1  0  0  0  0
  5  6  1  0  0  0  0
  5 29  2  0  0  0  0
  6  7  2  0  0  0  0
  7  8  1  0  0  0  0
  7 28  1  0  0  0  0
  8  9  1  0  0  0  0
  8 36  1  0  0  0  0
  9 10  2  0  0  0  0
  9 11  1  0  0  0  0
 11 12  1  0  0  0  0
 11 37  1  0  0  0  0
 11 38  1  0  0  0  0
 12 13  2  0  0  0  0
 12 27  1  0  0  0  0
 13 14  1  0  0  0  0
 13 39  1  0  0  0  0
 14 15  1  0  0  0  0
 15 16  1  0  0  0  0
 15 27  2  0  0  0  0
 16 17  1  0  0  0  0
 16 40  1  0  0  0  0
 17 18  2  0  0  0  0
 17 19  1  0  0  0  0
 19 20  1  0  0  0  0
 19 41  1  0  0  0  0
 20 21  1  0  0  0  0
 20 26  2  0  0  0  0
 21 22  2  0  0  0  0
 21 42  1  0  0  0  0
 22 23  1  0  0  0  0
 22 43  1  0  0  0  0
 23 24  2  0  0  0  0
 23 44  1  0  0  0  0
 24 25  1  0  0  0  0
 24 26  1  0  0  0  0
 26 45  1  0  0  0  0
 28 29  1  0  0  0  0
 29 30  1  0  0  0  0
 30 46  1  0  0  0  0
M  END
$$$$
