CHEMBL3774430
 OpenBabel04072215373D

 41 44  0  0  0  0  0  0  0  0999 V2000
    3.4704   -0.4674   -1.1118 C   0  0  0  0  0  0  0  0  0  0  0  0
    2.5869   -0.3252    0.0007 O   0  0  0  0  0  0  0  0  0  0  0  0
    3.0829    0.3770    1.0642 C   0  0  0  0  0  0  0  0  0  0  0  0
    4.0148    1.4160    0.9035 C   0  0  0  0  0  0  0  0  0  0  0  0
    4.6169    2.0617    1.9813 C   0  0  0  0  0  0  0  0  0  0  0  0
    5.5567    2.9708    1.7192 N   0  0  0  0  0  0  0  0  0  0  0  0
    6.1450    3.5370    2.7692 C   0  0  0  0  0  0  0  0  0  0  0  0
    5.8958    3.2607    4.0521 N   0  0  0  0  0  0  0  0  0  0  0  0
    4.9469    2.3434    4.3362 C   0  0  0  0  0  0  0  0  0  0  0  0
    4.7543    2.0167    5.6964 N   0  0  0  0  0  0  0  0  0  0  0  0
    4.5119    0.6267    6.1313 C   0  0  0  0  0  0  0  0  0  0  0  0
    4.8323    0.4825    7.6208 C   0  0  0  0  0  0  0  0  0  0  0  0
    5.2954    1.8451    7.9780 C   0  0  0  0  0  0  0  0  0  0  0  0
    5.7122    2.3144    9.2098 C   0  0  0  0  0  0  0  0  0  0  0  0
    5.7161    1.5389   10.3278 O   0  0  0  0  0  0  0  0  0  0  0  0
    6.1418    3.6289    9.3209 C   0  0  0  0  0  0  0  0  0  0  0  0
    6.1400    4.4622    8.1967 C   0  0  0  0  0  0  0  0  0  0  0  0
    5.6972    3.9847    6.9568 C   0  0  0  0  0  0  0  0  0  0  0  0
    5.2690    2.6683    6.8474 C   0  0  0  0  0  0  0  0  0  0  0  0
    4.2266    1.7247    3.2818 C   0  0  0  0  0  0  0  0  0  0  0  0
    3.1556    0.8167    3.4122 C   0  0  0  0  0  0  0  0  0  0  0  0
    2.6249    0.0911    2.3451 C   0  0  0  0  0  0  0  0  0  0  0  0
    1.7308   -0.8400    2.7849 O   0  0  0  0  0  0  0  0  0  0  0  0
    1.1685   -1.7679    1.8755 C   0  0  0  0  0  0  0  0  0  0  0  0
    3.2832   -1.4446   -1.5655 H   0  0  0  0  0  0  0  0  0  0  0  0
    4.5303   -0.4426   -0.8318 H   0  0  0  0  0  0  0  0  0  0  0  0
    3.2517    0.3073   -1.8526 H   0  0  0  0  0  0  0  0  0  0  0  0
    4.3161    1.7360   -0.0916 H   0  0  0  0  0  0  0  0  0  0  0  0
    6.9032    4.2846    2.5670 H   0  0  0  0  0  0  0  0  0  0  0  0
    5.0937   -0.0949    5.5426 H   0  0  0  0  0  0  0  0  0  0  0  0
    3.4521    0.3668    6.0484 H   0  0  0  0  0  0  0  0  0  0  0  0
    5.6083   -0.2727    7.7853 H   0  0  0  0  0  0  0  0  0  0  0  0
    3.9360    0.2096    8.1867 H   0  0  0  0  0  0  0  0  0  0  0  0
    5.3377    0.6722   10.1090 H   0  0  0  0  0  0  0  0  0  0  0  0
    6.4758    4.0102   10.2828 H   0  0  0  0  0  0  0  0  0  0  0  0
    6.4803    5.4909    8.2867 H   0  0  0  0  0  0  0  0  0  0  0  0
    5.6885    4.6504    6.0998 H   0  0  0  0  0  0  0  0  0  0  0  0
    2.6884    0.6443    4.3724 H   0  0  0  0  0  0  0  0  0  0  0  0
    0.6853   -2.5470    2.4753 H   0  0  0  0  0  0  0  0  0  0  0  0
    1.9233   -2.2669    1.2627 H   0  0  0  0  0  0  0  0  0  0  0  0
    0.3967   -1.2834    1.2731 H   0  0  0  0  0  0  0  0  0  0  0  0
  1  2  1  0  0  0  0
  1 25  1  0  0  0  0
  1 26  1  0  0  0  0
  1 27  1  0  0  0  0
  2  3  1  0  0  0  0
  3  4  1  0  0  0  0
  3 22  2  0  0  0  0
  4  5  2  0  0  0  0
  4 28  1  0  0  0  0
  5  6  1  0  0  0  0
  5 20  1  0  0  0  0
  6  7  2  0  0  0  0
  7  8  1  0  0  0  0
  7 29  1  0  0  0  0
  8  9  2  0  0  0  0
  9 10  1  0  0  0  0
  9 20  1  0  0  0  0
 10 11  1  0  0  0  0
 10 19  1  0  0  0  0
 11 12  1  0  0  0  0
 11 30  1  0  0  0  0
 11 31  1  0  0  0  0
 12 13  1  0  0  0  0
 12 32  1  0  0  0  0
 12 33  1  0  0  0  0
 13 14  1  0  0  0  0
 13 19  2  0  0  0  0
 14 15  1  0  0  0  0
 14 16  2  0  0  0  0
 15 34  1  0  0  0  0
 16 17  1  0  0  0  0
 16 35  1  0  0  0  0
 17 18  2  0  0  0  0
 17 36  1  0  0  0  0
 18 19  1  0  0  0  0
 18 37  1  0  0  0  0
 20 21  2  0  0  0  0
 21 22  1  0  0  0  0
 21 38  1  0  0  0  0
 22 23  1  0  0  0  0
 23 24  1  0  0  0  0
 24 39  1  0  0  0  0
 24 40  1  0  0  0  0
 24 41  1  0  0  0  0
M  END
$$$$
