CHEMBL2430256
 OpenBabel04072215363D

 60 63  0  0  0  0  0  0  0  0999 V2000
    4.8858   -0.5576    2.3613 C   0  0  0  0  0  0  0  0  0  0  0  0
    4.4672    0.5787    1.4340 C   0  0  0  0  0  0  0  0  0  0  0  0
    4.8402    0.3980    0.0188 N   0  0  0  0  0  0  0  0  0  0  0  0
    4.3659   -0.8699   -0.5665 C   0  0  0  0  0  0  0  0  0  0  0  0
    2.8530   -1.0315   -0.7068 C   0  0  0  0  0  0  0  0  0  0  0  0
    4.4066    1.5512   -0.8058 C   0  0  0  0  0  0  0  0  0  0  0  0
    4.9944    2.9043   -0.3823 C   0  0  0  0  0  0  0  0  0  0  0  0
    6.4407    2.9243   -0.4060 N   0  0  0  0  0  0  0  0  0  0  0  0
    7.0942    4.0805   -0.0520 C   0  0  0  0  0  0  0  0  0  0  0  0
    6.4752    5.1017    0.2425 O   0  0  0  0  0  0  0  0  0  0  0  0
    8.5574    4.0139    0.0207 C   0  0  0  0  0  0  0  0  0  0  0  0
    9.4548    3.2791   -0.7492 C   0  0  0  0  0  0  0  0  0  0  0  0
    9.2429    2.3384   -1.8829 C   0  0  0  0  0  0  0  0  0  0  0  0
   10.7403    3.6073   -0.3289 N   0  0  0  0  0  0  0  0  0  0  0  0
   10.6914    4.5488    0.6701 C   0  0  0  0  0  0  0  0  0  0  0  0
    9.3535    4.8027    0.9030 C   0  0  0  0  0  0  0  0  0  0  0  0
    8.8297    5.7668    1.9050 C   0  0  0  0  0  0  0  0  0  0  0  0
    9.8858    6.4586    2.7431 C   0  0  0  0  0  0  0  0  0  0  0  0
   11.3579    6.1881    2.4317 C   0  0  0  0  0  0  0  0  0  0  0  0
   11.7779    5.1864    1.3611 C   0  0  0  0  0  0  0  0  0  0  0  0
   13.1166    5.0142    1.1698 C   0  0  0  0  0  0  0  0  0  0  0  0
   13.7971    4.0923    0.1693 C   0  0  0  0  0  0  0  0  0  0  0  0
   13.2959    3.3458   -0.6473 O   0  0  0  0  0  0  0  0  0  0  0  0
   15.1588    4.2593    0.3639 N   0  0  0  0  0  0  0  0  0  0  0  0
   15.4317    5.1756    1.3686 C   0  0  0  0  0  0  0  0  0  0  0  0
   16.7040    5.5425    1.7933 C   0  0  0  0  0  0  0  0  0  0  0  0
   16.8118    6.4806    2.8194 C   0  0  0  0  0  0  0  0  0  0  0  0
   15.6592    7.0249    3.3802 C   0  0  0  0  0  0  0  0  0  0  0  0
   14.3956    6.6363    2.9268 C   0  0  0  0  0  0  0  0  0  0  0  0
   13.3707    7.2372    3.5395 F   0  0  0  0  0  0  0  0  0  0  0  0
   14.2491    5.6920    1.9094 C   0  0  0  0  0  0  0  0  0  0  0  0
    4.7863   -0.2354    3.4039 H   0  0  0  0  0  0  0  0  0  0  0  0
    5.9313   -0.8393    2.2000 H   0  0  0  0  0  0  0  0  0  0  0  0
    4.2549   -1.4414    2.2295 H   0  0  0  0  0  0  0  0  0  0  0  0
    4.9744    1.4680    1.8226 H   0  0  0  0  0  0  0  0  0  0  0  0
    3.3906    0.7559    1.5419 H   0  0  0  0  0  0  0  0  0  0  0  0
    4.7631   -1.7133    0.0092 H   0  0  0  0  0  0  0  0  0  0  0  0
    4.8167   -0.9858   -1.5611 H   0  0  0  0  0  0  0  0  0  0  0  0
    2.3197   -0.7702    0.2113 H   0  0  0  0  0  0  0  0  0  0  0  0
    2.6105   -2.0731   -0.9418 H   0  0  0  0  0  0  0  0  0  0  0  0
    2.4624   -0.4132   -1.5217 H   0  0  0  0  0  0  0  0  0  0  0  0
    3.3138    1.6431   -0.8006 H   0  0  0  0  0  0  0  0  0  0  0  0
    4.7145    1.3726   -1.8444 H   0  0  0  0  0  0  0  0  0  0  0  0
    4.6580    3.1932    0.6200 H   0  0  0  0  0  0  0  0  0  0  0  0
    4.6373    3.6873   -1.0619 H   0  0  0  0  0  0  0  0  0  0  0  0
    6.9354    2.0464   -0.3066 H   0  0  0  0  0  0  0  0  0  0  0  0
    8.1898    2.2695   -2.1705 H   0  0  0  0  0  0  0  0  0  0  0  0
    9.5822    1.3315   -1.6207 H   0  0  0  0  0  0  0  0  0  0  0  0
    9.7892    2.6748   -2.7688 H   0  0  0  0  0  0  0  0  0  0  0  0
   11.5919    3.2330   -0.7358 H   0  0  0  0  0  0  0  0  0  0  0  0
    8.1409    5.2406    2.5776 H   0  0  0  0  0  0  0  0  0  0  0  0
    8.2426    6.5361    1.3904 H   0  0  0  0  0  0  0  0  0  0  0  0
    9.7092    6.2213    3.8009 H   0  0  0  0  0  0  0  0  0  0  0  0
    9.7199    7.5435    2.6868 H   0  0  0  0  0  0  0  0  0  0  0  0
   11.7889    5.8404    3.3778 H   0  0  0  0  0  0  0  0  0  0  0  0
   11.7750    7.1588    2.1396 H   0  0  0  0  0  0  0  0  0  0  0  0
   15.8479    3.7585   -0.1758 H   0  0  0  0  0  0  0  0  0  0  0  0
   17.5976    5.1184    1.3509 H   0  0  0  0  0  0  0  0  0  0  0  0
   17.7856    6.7949    3.1872 H   0  0  0  0  0  0  0  0  0  0  0  0
   15.7216    7.7606    4.1791 H   0  0  0  0  0  0  0  0  0  0  0  0
  1  2  1  0  0  0  0
  1 32  1  0  0  0  0
  1 33  1  0  0  0  0
  1 34  1  0  0  0  0
  2  3  1  0  0  0  0
  2 35  1  0  0  0  0
  2 36  1  0  0  0  0
  3  4  1  0  0  0  0
  3  6  1  0  0  0  0
  4  5  1  0  0  0  0
  4 37  1  0  0  0  0
  4 38  1  0  0  0  0
  5 39  1  0  0  0  0
  5 40  1  0  0  0  0
  5 41  1  0  0  0  0
  6  7  1  0  0  0  0
  6 42  1  0  0  0  0
  6 43  1  0  0  0  0
  7  8  1  0  0  0  0
  7 44  1  0  0  0  0
  7 45  1  0  0  0  0
  8  9  1  0  0  0  0
  8 46  1  0  0  0  0
  9 10  2  0  0  0  0
  9 11  1  0  0  0  0
 11 12  2  0  0  0  0
 11 16  1  0  0  0  0
 12 13  1  0  0  0  0
 12 14  1  0  0  0  0
 13 47  1  0  0  0  0
 13 48  1  0  0  0  0
 13 49  1  0  0  0  0
 14 15  1  0  0  0  0
 14 50  1  0  0  0  0
 15 16  2  0  0  0  0
 15 20  1  0  0  0  0
 16 17  1  0  0  0  0
 17 18  1  0  0  0  0
 17 51  1  0  0  0  0
 17 52  1  0  0  0  0
 18 19  1  0  0  0  0
 18 53  1  0  0  0  0
 18 54  1  0  0  0  0
 19 20  1  0  0  0  0
 19 55  1  0  0  0  0
 19 56  1  0  0  0  0
 20 21  2  0  0  0  0
 21 22  1  0  0  0  0
 21 31  1  0  0  0  0
 22 23  2  0  0  0  0
 22 24  1  0  0  0  0
 24 25  1  0  0  0  0
 24 57  1  0  0  0  0
 25 26  1  0  0  0  0
 25 31  2  0  0  0  0
 26 27  2  0  0  0  0
 26 58  1  0  0  0  0
 27 28  1  0  0  0  0
 27 59  1  0  0  0  0
 28 29  2  0  0  0  0
 28 60  1  0  0  0  0
 29 30  1  0  0  0  0
 29 31  1  0  0  0  0
M  END
$$$$
