CHEMBL3895731
 OpenBabel04072215373D

 46 50  0  0  0  0  0  0  0  0999 V2000
    6.8868    3.0224   -1.9011 C   0  0  0  0  0  0  0  0  0  0  0  0
    6.2458    1.9150   -1.2826 O   0  0  0  0  0  0  0  0  0  0  0  0
    5.0312    2.1388   -0.6904 C   0  0  0  0  0  0  0  0  0  0  0  0
    4.3903    3.3816   -0.6279 C   0  0  0  0  0  0  0  0  0  0  0  0
    3.1285    3.5374   -0.0205 C   0  0  0  0  0  0  0  0  0  0  0  0
    2.4495    4.8533    0.0188 C   0  0  0  0  0  0  0  0  0  0  0  0
    1.6255    5.1998    1.1035 C   0  0  0  0  0  0  0  0  0  0  0  0
    0.9416    6.4185    1.1619 C   0  0  0  0  0  0  0  0  0  0  0  0
    1.1149    7.3526    0.1271 C   0  0  0  0  0  0  0  0  0  0  0  0
    0.6487    8.6728   -0.1620 C   0  0  0  0  0  0  0  0  0  0  0  0
   -0.2055    9.5238    0.6666 C   0  0  0  0  0  0  0  0  0  0  0  0
   -1.1065   10.4129    0.0747 C   0  0  0  0  0  0  0  0  0  0  0  0
   -1.9138   11.2342    0.8656 C   0  0  0  0  0  0  0  0  0  0  0  0
   -1.8377   11.1803    2.2670 C   0  0  0  0  0  0  0  0  0  0  0  0
   -2.6290   12.0041    3.0773 C   0  0  0  0  0  0  0  0  0  0  0  0
   -2.5360   11.9396    4.4697 C   0  0  0  0  0  0  0  0  0  0  0  0
   -1.6541   11.0438    5.0684 C   0  0  0  0  0  0  0  0  0  0  0  0
   -0.8567   10.2184    4.2774 C   0  0  0  0  0  0  0  0  0  0  0  0
   -0.9354   10.2793    2.8776 C   0  0  0  0  0  0  0  0  0  0  0  0
   -0.1227    9.4734    2.0669 C   0  0  0  0  0  0  0  0  0  0  0  0
    1.1106    9.0941   -1.3524 N   0  0  0  0  0  0  0  0  0  0  0  0
    1.8846    8.0870   -1.7827 N   0  0  0  0  0  0  0  0  0  0  0  0
    1.9290    7.0110   -0.9422 C   0  0  0  0  0  0  0  0  0  0  0  0
    2.5982    5.7840   -1.0324 C   0  0  0  0  0  0  0  0  0  0  0  0
    2.5342    2.3940    0.5445 C   0  0  0  0  0  0  0  0  0  0  0  0
    3.1666    1.1512    0.5087 C   0  0  0  0  0  0  0  0  0  0  0  0
    4.4043    1.0294   -0.1133 C   0  0  0  0  0  0  0  0  0  0  0  0
    5.0197   -0.1924   -0.1645 O   0  0  0  0  0  0  0  0  0  0  0  0
    7.8362    2.6721   -2.3168 H   0  0  0  0  0  0  0  0  0  0  0  0
    7.1142    3.8059   -1.1706 H   0  0  0  0  0  0  0  0  0  0  0  0
    6.2862    3.4159   -2.7284 H   0  0  0  0  0  0  0  0  0  0  0  0
    4.8736    4.2594   -1.0451 H   0  0  0  0  0  0  0  0  0  0  0  0
    1.4994    4.5191    1.9432 H   0  0  0  0  0  0  0  0  0  0  0  0
    0.2906    6.6230    2.0060 H   0  0  0  0  0  0  0  0  0  0  0  0
   -1.1803   10.4732   -1.0099 H   0  0  0  0  0  0  0  0  0  0  0  0
   -2.6003   11.9202    0.3767 H   0  0  0  0  0  0  0  0  0  0  0  0
   -3.3233   12.7124    2.6279 H   0  0  0  0  0  0  0  0  0  0  0  0
   -3.1515   12.5899    5.0842 H   0  0  0  0  0  0  0  0  0  0  0  0
   -1.5814   10.9938    6.1531 H   0  0  0  0  0  0  0  0  0  0  0  0
   -0.1718    9.5271    4.7611 H   0  0  0  0  0  0  0  0  0  0  0  0
    0.5993    8.8176    2.5443 H   0  0  0  0  0  0  0  0  0  0  0  0
    2.3633    8.1979   -2.6693 H   0  0  0  0  0  0  0  0  0  0  0  0
    3.2051    5.5612   -1.9045 H   0  0  0  0  0  0  0  0  0  0  0  0
    1.5555    2.4533    1.0162 H   0  0  0  0  0  0  0  0  0  0  0  0
    2.6761    0.2973    0.9648 H   0  0  0  0  0  0  0  0  0  0  0  0
    4.4452   -0.8523    0.2537 H   0  0  0  0  0  0  0  0  0  0  0  0
  1  2  1  0  0  0  0
  1 29  1  0  0  0  0
  1 30  1  0  0  0  0
  1 31  1  0  0  0  0
  2  3  1  0  0  0  0
  3  4  1  0  0  0  0
  3 27  2  0  0  0  0
  4  5  2  0  0  0  0
  4 32  1  0  0  0  0
  5  6  1  0  0  0  0
  5 25  1  0  0  0  0
  6  7  1  0  0  0  0
  6 24  2  0  0  0  0
  7  8  2  0  0  0  0
  7 33  1  0  0  0  0
  8  9  1  0  0  0  0
  8 34  1  0  0  0  0
  9 10  1  0  0  0  0
  9 23  2  0  0  0  0
 10 11  1  0  0  0  0
 10 21  2  0  0  0  0
 11 12  1  0  0  0  0
 11 20  2  0  0  0  0
 12 13  2  0  0  0  0
 12 35  1  0  0  0  0
 13 14  1  0  0  0  0
 13 36  1  0  0  0  0
 14 15  1  0  0  0  0
 14 19  2  0  0  0  0
 15 16  2  0  0  0  0
 15 37  1  0  0  0  0
 16 17  1  0  0  0  0
 16 38  1  0  0  0  0
 17 18  2  0  0  0  0
 17 39  1  0  0  0  0
 18 19  1  0  0  0  0
 18 40  1  0  0  0  0
 19 20  1  0  0  0  0
 20 41  1  0  0  0  0
 21 22  1  0  0  0  0
 22 23  1  0  0  0  0
 22 42  1  0  0  0  0
 23 24  1  0  0  0  0
 24 43  1  0  0  0  0
 25 26  2  0  0  0  0
 25 44  1  0  0  0  0
 26 27  1  0  0  0  0
 26 45  1  0  0  0  0
 27 28  1  0  0  0  0
 28 46  1  0  0  0  0
M  END
$$$$
