CHEMBL316671
 OpenBabel04072215363D

 56 60  0  0  0  0  0  0  0  0999 V2000
   -2.2153   -0.7752    0.0565 C   0  0  0  0  0  0  0  0  0  0  0  0
   -2.2144    0.6146    0.0679 C   0  0  0  0  0  0  0  0  0  0  0  0
   -1.0156    1.3338    0.0918 C   0  0  0  0  0  0  0  0  0  0  0  0
    0.1935    0.6175    0.0791 C   0  0  0  0  0  0  0  0  0  0  0  0
    0.2212   -0.7847    0.0464 C   0  0  0  0  0  0  0  0  0  0  0  0
   -1.0096   -1.4802    0.0623 C   0  0  0  0  0  0  0  0  0  0  0  0
    1.5961   -1.1900   -0.0003 C   0  0  0  0  0  0  0  0  0  0  0  0
    2.1954   -2.5133   -0.0877 C   0  0  0  0  0  0  0  0  0  0  0  0
    1.5703   -3.5558   -0.7651 C   0  0  0  0  0  0  0  0  0  0  0  0
    2.0751   -4.8081   -0.8773 N   0  0  0  0  0  0  0  0  0  0  0  0
    3.2820   -5.0238   -0.3029 C   0  0  0  0  0  0  0  0  0  0  0  0
    4.0153   -4.0562    0.3780 C   0  0  0  0  0  0  0  0  0  0  0  0
    5.3367   -4.3570    0.9225 C   0  0  0  0  0  0  0  0  0  0  0  0
    6.2997   -5.2774    0.3914 C   0  0  0  0  0  0  0  0  0  0  0  0
    7.4603   -5.3236    1.1331 C   0  0  0  0  0  0  0  0  0  0  0  0
    7.4077   -4.2639    2.4702 S   0  0  0  0  0  0  0  0  0  0  0  0
    5.8276   -3.7440    2.0616 C   0  0  0  0  0  0  0  0  0  0  0  0
    3.4445   -2.7861    0.4860 C   0  0  0  0  0  0  0  0  0  0  0  0
    2.3506   -0.0350    0.0162 C   0  0  0  0  0  0  0  0  0  0  0  0
    1.5071    1.0425    0.0915 N   0  0  0  0  0  0  0  0  0  0  0  0
    1.9791    2.4178    0.1059 C   0  0  0  0  0  0  0  0  0  0  0  0
    2.1814    2.9941    1.5086 C   0  0  0  0  0  0  0  0  0  0  0  0
    3.2808    2.3139    2.3445 C   0  0  0  0  0  0  0  0  0  0  0  0
    4.6187    2.2873    1.7212 N   0  0  0  0  0  0  0  0  0  0  0  0
    5.1650    3.6411    1.5303 C   0  0  0  0  0  0  0  0  0  0  0  0
    6.5366    3.6010    0.8552 C   0  0  0  0  0  0  0  0  0  0  0  0
    7.5207    2.7575    1.6529 C   0  0  0  0  0  0  0  0  0  0  0  0
    6.9322    1.3780    1.9197 C   0  0  0  0  0  0  0  0  0  0  0  0
    5.5382    1.4761    2.5458 C   0  0  0  0  0  0  0  0  0  0  0  0
   -3.1549   -1.3220    0.0426 H   0  0  0  0  0  0  0  0  0  0  0  0
   -3.1626    1.1473    0.0572 H   0  0  0  0  0  0  0  0  0  0  0  0
   -1.0334    2.4183    0.1098 H   0  0  0  0  0  0  0  0  0  0  0  0
   -1.0346   -2.5660    0.0727 H   0  0  0  0  0  0  0  0  0  0  0  0
    0.6232   -3.4158   -1.2753 H   0  0  0  0  0  0  0  0  0  0  0  0
    3.6475   -6.0411   -0.4139 H   0  0  0  0  0  0  0  0  0  0  0  0
    6.1592   -5.8717   -0.5032 H   0  0  0  0  0  0  0  0  0  0  0  0
    8.3387   -5.9274    0.9496 H   0  0  0  0  0  0  0  0  0  0  0  0
    5.3454   -3.0091    2.6925 H   0  0  0  0  0  0  0  0  0  0  0  0
    3.9770   -1.9929    1.0023 H   0  0  0  0  0  0  0  0  0  0  0  0
    3.4223    0.1193   -0.0188 H   0  0  0  0  0  0  0  0  0  0  0  0
    1.2463    3.0212   -0.4417 H   0  0  0  0  0  0  0  0  0  0  0  0
    2.9068    2.4572   -0.4775 H   0  0  0  0  0  0  0  0  0  0  0  0
    1.2391    2.9317    2.0668 H   0  0  0  0  0  0  0  0  0  0  0  0
    2.4010    4.0643    1.4159 H   0  0  0  0  0  0  0  0  0  0  0  0
    2.9579    1.2852    2.5487 H   0  0  0  0  0  0  0  0  0  0  0  0
    3.3321    2.8141    3.3211 H   0  0  0  0  0  0  0  0  0  0  0  0
    5.2393    4.1694    2.4898 H   0  0  0  0  0  0  0  0  0  0  0  0
    4.5094    4.2302    0.8817 H   0  0  0  0  0  0  0  0  0  0  0  0
    6.9243    4.6201    0.7467 H   0  0  0  0  0  0  0  0  0  0  0  0
    6.4354    3.1878   -0.1565 H   0  0  0  0  0  0  0  0  0  0  0  0
    7.7428    3.2548    2.6051 H   0  0  0  0  0  0  0  0  0  0  0  0
    8.4669    2.6671    1.1082 H   0  0  0  0  0  0  0  0  0  0  0  0
    7.5996    0.8171    2.5842 H   0  0  0  0  0  0  0  0  0  0  0  0
    6.8734    0.8172    0.9785 H   0  0  0  0  0  0  0  0  0  0  0  0
    5.6236    1.8956    3.5574 H   0  0  0  0  0  0  0  0  0  0  0  0
    5.1444    0.4573    2.6492 H   0  0  0  0  0  0  0  0  0  0  0  0
  1  2  1  0  0  0  0
  1  6  2  0  0  0  0
  1 30  1  0  0  0  0
  2  3  2  0  0  0  0
  2 31  1  0  0  0  0
  3  4  1  0  0  0  0
  3 32  1  0  0  0  0
  4  5  2  0  0  0  0
  4 20  1  0  0  0  0
  5  6  1  0  0  0  0
  5  7  1  0  0  0  0
  6 33  1  0  0  0  0
  7  8  1  0  0  0  0
  7 19  2  0  0  0  0
  8  9  1  0  0  0  0
  8 18  2  0  0  0  0
  9 10  2  0  0  0  0
  9 34  1  0  0  0  0
 10 11  1  0  0  0  0
 11 12  2  0  0  0  0
 11 35  1  0  0  0  0
 12 13  1  0  0  0  0
 12 18  1  0  0  0  0
 13 14  1  0  0  0  0
 13 17  2  0  0  0  0
 14 15  2  0  0  0  0
 14 36  1  0  0  0  0
 15 16  1  0  0  0  0
 15 37  1  0  0  0  0
 16 17  1  0  0  0  0
 17 38  1  0  0  0  0
 18 39  1  0  0  0  0
 19 20  1  0  0  0  0
 19 40  1  0  0  0  0
 20 21  1  0  0  0  0
 21 22  1  0  0  0  0
 21 41  1  0  0  0  0
 21 42  1  0  0  0  0
 22 23  1  0  0  0  0
 22 43  1  0  0  0  0
 22 44  1  0  0  0  0
 23 24  1  0  0  0  0
 23 45  1  0  0  0  0
 23 46  1  0  0  0  0
 24 25  1  0  0  0  0
 24 29  1  0  0  0  0
 25 26  1  0  0  0  0
 25 47  1  0  0  0  0
 25 48  1  0  0  0  0
 26 27  1  0  0  0  0
 26 49  1  0  0  0  0
 26 50  1  0  0  0  0
 27 28  1  0  0  0  0
 27 51  1  0  0  0  0
 27 52  1  0  0  0  0
 28 29  1  0  0  0  0
 28 53  1  0  0  0  0
 28 54  1  0  0  0  0
 29 55  1  0  0  0  0
 29 56  1  0  0  0  0
M  END
$$$$
