CHEMBL3918638
 OpenBabel04072215373D

 63 66  0  0  0  0  0  0  0  0999 V2000
    7.8544   -2.0286   -1.2989 H   0  0  0  0  0  0  0  0  0  0  0  0
    6.8977   -1.6208   -0.9065 C   0  0  0  0  0  0  0  0  0  0  0  0
    6.1228   -1.7112   -1.6956 H   0  0  0  0  0  0  0  0  0  0  0  0
    6.6099   -2.2040   -0.0075 H   0  0  0  0  0  0  0  0  0  0  0  0
    7.0751   -0.3000   -0.5568 O   0  0  0  0  0  0  0  0  0  0  0  0
    6.1377    0.5244   -0.0051 C   0  0  0  0  0  0  0  0  0  0  0  0
    4.8196    0.1509    0.1980 C   0  0  0  0  0  0  0  0  0  0  0  0
    3.9154    1.0474    0.7886 C   0  0  0  0  0  0  0  0  0  0  0  0
    2.6461    0.6421    0.9889 O   0  0  0  0  0  0  0  0  0  0  0  0
    1.6932    1.4206    1.6089 C   0  0  0  0  0  0  0  0  0  0  0  0
    2.0589    1.7223    2.6166 H   0  0  0  0  0  0  0  0  0  0  0  0
    1.4952    2.3270    0.9965 H   0  0  0  0  0  0  0  0  0  0  0  0
    0.7644    0.8381    1.7273 H   0  0  0  0  0  0  0  0  0  0  0  0
    4.3383    2.3336    1.1657 C   0  0  0  0  0  0  0  0  0  0  0  0
    5.6442    2.7640    0.9974 C   0  0  0  0  0  0  0  0  0  0  0  0
    6.0679    4.1111    1.3883 N   0  0  0  0  0  0  0  0  0  0  0  0
    5.2682    5.2614    2.0076 C   0  0  0  0  0  0  0  0  0  0  0  0
    5.9709    6.4470    1.8473 C   0  0  0  0  0  0  0  0  0  0  0  0
    5.7076    7.5827    2.4104 C   0  0  0  0  0  0  0  0  0  0  0  0
    4.6389    7.7757    3.1451 C   0  0  0  0  0  0  0  0  0  0  0  0
    4.6955    8.9390    3.7355 N   0  0  0  0  0  0  0  0  0  0  0  0
    3.7061    9.4588    4.3646 C   0  0  0  0  0  0  0  0  0  0  0  0
    2.4393    8.9002    4.3050 C   0  0  0  0  0  0  0  0  0  0  0  0
    1.4632   10.1373    4.6449 C   0  0  0  0  0  0  0  0  0  0  0  0
    1.9216   11.4213    4.2112 C   0  0  0  0  0  0  0  0  0  0  0  0
    1.1555   12.4127    4.6171 N   0  0  0  0  0  0  0  0  0  0  0  0
    0.1465   11.9143    5.2741 N   0  0  0  0  0  0  0  0  0  0  0  0
   -0.8113   12.8704    5.8485 C   0  0  0  0  0  0  0  0  0  0  0  0
    0.2408   10.5264    5.2991 C   0  0  0  0  0  0  0  0  0  0  0  0
    2.3974    7.5047    3.8811 N   0  0  0  0  0  0  0  0  0  0  0  0
    3.5785    6.8863    3.2924 C   0  0  0  0  0  0  0  0  0  0  0  0
    3.9293    5.4833    2.7503 C   0  0  0  0  0  0  0  0  0  0  0  0
    7.5256    4.3867    1.0679 C   0  0  0  0  0  0  0  0  0  0  0  0
    8.1101    3.6733    0.5289 H   0  0  0  0  0  0  0  0  0  0  0  0
    7.6201    5.1616    0.2871 H   0  0  0  0  0  0  0  0  0  0  0  0
    8.3804    4.6476    2.3284 C   0  0  0  0  0  0  0  0  0  0  0  0
    9.4001    4.9651    2.0091 H   0  0  0  0  0  0  0  0  0  0  0  0
    7.9536    5.4665    2.9225 H   0  0  0  0  0  0  0  0  0  0  0  0
    8.4750    3.4254    3.1356 N   0  0  0  0  0  0  0  0  0  0  0  0
    9.3046    3.5904    4.3449 C   0  0  0  0  0  0  0  0  0  0  0  0
    8.6916    4.6091    5.3217 C   0  0  0  0  0  0  0  0  0  0  0  0
    9.4236    2.2349    5.0515 C   0  0  0  0  0  0  0  0  0  0  0  0
    6.5376    1.7922    0.3896 C   0  0  0  0  0  0  0  0  0  0  0  0
    4.4783   -0.8340   -0.0945 H   0  0  0  0  0  0  0  0  0  0  0  0
    3.6499    3.0349    1.5936 H   0  0  0  0  0  0  0  0  0  0  0  0
    6.8586    6.5950    1.3164 H   0  0  0  0  0  0  0  0  0  0  0  0
    6.4074    8.3948    2.2759 H   0  0  0  0  0  0  0  0  0  0  0  0
    3.9580   10.4103    4.7827 H   0  0  0  0  0  0  0  0  0  0  0  0
    2.8061   11.6598    3.6336 H   0  0  0  0  0  0  0  0  0  0  0  0
   -0.4454   13.9217    5.6658 H   0  0  0  0  0  0  0  0  0  0  0  0
   -0.8840   12.7813    6.9511 H   0  0  0  0  0  0  0  0  0  0  0  0
   -1.7976   12.8071    5.3556 H   0  0  0  0  0  0  0  0  0  0  0  0
   -0.4880    9.8990    5.7963 H   0  0  0  0  0  0  0  0  0  0  0  0
    3.2261    4.6700    2.9266 H   0  0  0  0  0  0  0  0  0  0  0  0
    8.9281    2.6944    2.5346 H   0  0  0  0  0  0  0  0  0  0  0  0
   10.3315    3.9240    4.0676 H   0  0  0  0  0  0  0  0  0  0  0  0
    7.6481    4.3203    5.5702 H   0  0  0  0  0  0  0  0  0  0  0  0
    8.6962    5.6351    4.9043 H   0  0  0  0  0  0  0  0  0  0  0  0
    9.2915    4.6557    6.2538 H   0  0  0  0  0  0  0  0  0  0  0  0
    8.4167    1.8584    5.3335 H   0  0  0  0  0  0  0  0  0  0  0  0
   10.0438    2.3300    5.9682 H   0  0  0  0  0  0  0  0  0  0  0  0
    9.9078    1.4914    4.3831 H   0  0  0  0  0  0  0  0  0  0  0  0
    7.5792    1.9008    0.1704 H   0  0  0  0  0  0  0  0  0  0  0  0
  1  2  1  0  0  0  0
  2  3  1  0  0  0  0
  2  4  1  0  0  0  0
  2  5  1  0  0  0  0
  5  6  1  0  0  0  0
  6  7  1  0  0  0  0
  6 43  2  0  0  0  0
  7  8  2  0  0  0  0
  7 44  1  0  0  0  0
  8  9  1  0  0  0  0
  8 14  1  0  0  0  0
  9 10  1  0  0  0  0
 10 11  1  0  0  0  0
 10 12  1  0  0  0  0
 10 13  1  0  0  0  0
 14 15  2  0  0  0  0
 14 45  1  0  0  0  0
 15 16  1  0  0  0  0
 15 43  1  0  0  0  0
 16 17  1  0  0  0  0
 16 33  1  0  0  0  0
 17 18  1  0  0  0  0
 17 32  2  0  0  0  0
 18 19  2  0  0  0  0
 18 46  1  0  0  0  0
 19 20  1  0  0  0  0
 19 47  1  0  0  0  0
 20 21  1  0  0  0  0
 20 31  2  0  0  0  0
 21 22  2  0  0  0  0
 22 23  1  0  0  0  0
 22 48  1  0  0  0  0
 23 24  1  0  0  0  0
 23 30  2  0  0  0  0
 24 25  1  0  0  0  0
 24 29  2  0  0  0  0
 25 26  2  0  0  0  0
 25 49  1  0  0  0  0
 26 27  1  0  0  0  0
 27 28  1  0  0  0  0
 27 29  1  0  0  0  0
 28 50  1  0  0  0  0
 28 51  1  0  0  0  0
 28 52  1  0  0  0  0
 29 53  1  0  0  0  0
 30 31  1  0  0  0  0
 31 32  1  0  0  0  0
 32 54  1  0  0  0  0
 33 34  1  0  0  0  0
 33 35  1  0  0  0  0
 33 36  1  0  0  0  0
 36 37  1  0  0  0  0
 36 38  1  0  0  0  0
 36 39  1  0  0  0  0
 39 40  1  0  0  0  0
 39 55  1  0  0  0  0
 40 41  1  0  0  0  0
 40 42  1  0  0  0  0
 40 56  1  0  0  0  0
 41 57  1  0  0  0  0
 41 58  1  0  0  0  0
 41 59  1  0  0  0  0
 42 60  1  0  0  0  0
 42 61  1  0  0  0  0
 42 62  1  0  0  0  0
 43 63  1  0  0  0  0
M  ISO  8   1   2   3   2   4   2  11   2  12   2  13   2  34   2  35   2
M  ISO  2  37   2  38   2
M  END
$$$$
