CHEMBL220951
 OpenBabel04072215363D

 47 49  0  0  0  0  0  0  0  0999 V2000
    0.8096    0.2541    2.4949 C   0  0  0  0  0  0  0  0  0  0  0  0
    2.1940    0.5163    2.3085 O   0  0  0  0  0  0  0  0  0  0  0  0
    2.8965   -0.6323    1.8392 C   0  0  0  0  0  0  0  0  0  0  0  0
    4.3700   -0.2844    1.6623 C   0  0  0  0  0  0  0  0  0  0  0  0
    5.0159    0.1527    2.9707 C   0  0  0  0  0  0  0  0  0  0  0  0
    6.3935    0.4778    2.7326 O   0  0  0  0  0  0  0  0  0  0  0  0
    6.9527    0.8634    3.9578 N   0  0  0  0  0  0  0  0  0  0  0  0
    8.1917    1.2186    3.7997 C   0  0  0  0  0  0  0  0  0  0  0  0
    8.9985    1.6537    4.9544 C   0  0  0  0  0  0  0  0  0  0  0  0
    8.6732    1.2867    6.2564 C   0  0  0  0  0  0  0  0  0  0  0  0
    7.6788    0.3573    6.5563 N   0  0  0  0  0  0  0  0  0  0  0  0
    9.3762    1.6958    7.3282 N   0  0  0  0  0  0  0  0  0  0  0  0
   10.4020    2.5181    7.0902 C   0  0  0  0  0  0  0  0  0  0  0  0
   10.7957    2.9428    5.8895 N   0  0  0  0  0  0  0  0  0  0  0  0
   10.1051    2.4731    4.8263 C   0  0  0  0  0  0  0  0  0  0  0  0
   10.5299    2.8593    3.5546 O   0  0  0  0  0  0  0  0  0  0  0  0
   11.8457    3.2719    3.4176 C   0  0  0  0  0  0  0  0  0  0  0  0
   12.9082    2.5966    4.0344 C   0  0  0  0  0  0  0  0  0  0  0  0
   14.2277    3.0343    3.9100 C   0  0  0  0  0  0  0  0  0  0  0  0
   14.4667    4.1269    3.0695 C   0  0  0  0  0  0  0  0  0  0  0  0
   15.6534    4.7306    2.7305 N   0  0  0  0  0  0  0  0  0  0  0  0
   15.4502    5.6569    1.7394 C   0  0  0  0  0  0  0  0  0  0  0  0
   16.5820    6.3124    1.0397 C   0  0  0  0  0  0  0  0  0  0  0  0
   14.0838    5.7710    1.5630 C   0  0  0  0  0  0  0  0  0  0  0  0
   13.4520    4.7848    2.3773 C   0  0  0  0  0  0  0  0  0  0  0  0
   12.1137    4.3588    2.5749 C   0  0  0  0  0  0  0  0  0  0  0  0
   11.1121    4.9746    1.9365 F   0  0  0  0  0  0  0  0  0  0  0  0
    0.3316    1.1703    2.8526 H   0  0  0  0  0  0  0  0  0  0  0  0
    0.6652   -0.5297    3.2447 H   0  0  0  0  0  0  0  0  0  0  0  0
    0.3430   -0.0369    1.5491 H   0  0  0  0  0  0  0  0  0  0  0  0
    2.4778   -0.9431    0.8746 H   0  0  0  0  0  0  0  0  0  0  0  0
    2.7815   -1.4543    2.5533 H   0  0  0  0  0  0  0  0  0  0  0  0
    4.4772    0.5272    0.9311 H   0  0  0  0  0  0  0  0  0  0  0  0
    4.9105   -1.1459    1.2532 H   0  0  0  0  0  0  0  0  0  0  0  0
    4.9601   -0.6582    3.7075 H   0  0  0  0  0  0  0  0  0  0  0  0
    4.5113    1.0359    3.3783 H   0  0  0  0  0  0  0  0  0  0  0  0
    8.6660    1.2199    2.8026 H   0  0  0  0  0  0  0  0  0  0  0  0
    6.8413    0.5125    5.9935 H   0  0  0  0  0  0  0  0  0  0  0  0
    7.5183    0.3378    7.5575 H   0  0  0  0  0  0  0  0  0  0  0  0
   10.9792    2.8490    7.9480 H   0  0  0  0  0  0  0  0  0  0  0  0
   12.7197    1.7207    4.6524 H   0  0  0  0  0  0  0  0  0  0  0  0
   15.0344    2.5318    4.4332 H   0  0  0  0  0  0  0  0  0  0  0  0
   16.5560    4.4662    3.1024 H   0  0  0  0  0  0  0  0  0  0  0  0
   17.5453    6.0254    1.4758 H   0  0  0  0  0  0  0  0  0  0  0  0
   16.4974    7.4019    1.0861 H   0  0  0  0  0  0  0  0  0  0  0  0
   16.5930    6.0094   -0.0130 H   0  0  0  0  0  0  0  0  0  0  0  0
   13.5882    6.4361    0.8700 H   0  0  0  0  0  0  0  0  0  0  0  0
  1  2  1  0  0  0  0
  1 28  1  0  0  0  0
  1 29  1  0  0  0  0
  1 30  1  0  0  0  0
  2  3  1  0  0  0  0
  3  4  1  0  0  0  0
  3 31  1  0  0  0  0
  3 32  1  0  0  0  0
  4  5  1  0  0  0  0
  4 33  1  0  0  0  0
  4 34  1  0  0  0  0
  5  6  1  0  0  0  0
  5 35  1  0  0  0  0
  5 36  1  0  0  0  0
  6  7  1  0  0  0  0
  7  8  2  0  0  0  0
  8  9  1  0  0  0  0
  8 37  1  0  0  0  0
  9 10  1  0  0  0  0
  9 15  2  0  0  0  0
 10 11  1  0  0  0  0
 10 12  2  0  0  0  0
 11 38  1  0  0  0  0
 11 39  1  0  0  0  0
 12 13  1  0  0  0  0
 13 14  2  0  0  0  0
 13 40  1  0  0  0  0
 14 15  1  0  0  0  0
 15 16  1  0  0  0  0
 16 17  1  0  0  0  0
 17 18  1  0  0  0  0
 17 26  2  0  0  0  0
 18 19  2  0  0  0  0
 18 41  1  0  0  0  0
 19 20  1  0  0  0  0
 19 42  1  0  0  0  0
 20 21  1  0  0  0  0
 20 25  2  0  0  0  0
 21 22  1  0  0  0  0
 21 43  1  0  0  0  0
 22 23  1  0  0  0  0
 22 24  2  0  0  0  0
 23 44  1  0  0  0  0
 23 45  1  0  0  0  0
 23 46  1  0  0  0  0
 24 25  1  0  0  0  0
 24 47  1  0  0  0  0
 25 26  1  0  0  0  0
 26 27  1  0  0  0  0
M  END
$$$$
