CHEMBL3671505
 OpenBabel04072215373D

 47 49  0  0  0  0  0  0  0  0999 V2000
    2.6227   -2.1902    0.9362 C   0  0  0  0  0  0  0  0  0  0  0  0
    3.2740   -1.1509    0.3977 C   0  0  0  0  0  0  0  0  0  0  0  0
    4.1416   -1.3631   -0.7913 C   0  0  0  0  0  0  0  0  0  0  0  0
    4.3695   -2.4853   -1.2275 O   0  0  0  0  0  0  0  0  0  0  0  0
    4.5745   -0.1749   -1.3539 N   0  0  0  0  0  0  0  0  0  0  0  0
    5.2999   -0.1678   -2.5663 C   0  0  0  0  0  0  0  0  0  0  0  0
    6.3946   -1.0341   -2.6502 C   0  0  0  0  0  0  0  0  0  0  0  0
    7.1116   -1.2185   -3.8479 C   0  0  0  0  0  0  0  0  0  0  0  0
    8.2187   -2.0733   -3.9792 C   0  0  0  0  0  0  0  0  0  0  0  0
    8.6506   -2.8089   -2.8521 N   0  0  0  0  0  0  0  0  0  0  0  0
    9.9470   -3.2325   -2.5149 C   0  0  0  0  0  0  0  0  0  0  0  0
   11.0873   -2.5267   -2.9218 C   0  0  0  0  0  0  0  0  0  0  0  0
   12.3511   -2.8714   -2.4370 C   0  0  0  0  0  0  0  0  0  0  0  0
   12.4908   -3.9287   -1.5437 C   0  0  0  0  0  0  0  0  0  0  0  0
   14.1901   -4.3221   -0.8147 Br  0  0  0  0  0  0  0  0  0  0  0  0
   11.3824   -4.6726   -1.1558 C   0  0  0  0  0  0  0  0  0  0  0  0
   10.1267   -4.3118   -1.6373 C   0  0  0  0  0  0  0  0  0  0  0  0
    9.0546   -5.0121   -1.2332 F   0  0  0  0  0  0  0  0  0  0  0  0
    8.8801   -2.2037   -5.1418 N   0  0  0  0  0  0  0  0  0  0  0  0
    8.4035   -1.5053   -6.1775 C   0  0  0  0  0  0  0  0  0  0  0  0
    7.3629   -0.6607   -6.1582 N   0  0  0  0  0  0  0  0  0  0  0  0
    6.7303   -0.5115   -4.9894 C   0  0  0  0  0  0  0  0  0  0  0  0
    5.6675    0.3829   -4.8858 C   0  0  0  0  0  0  0  0  0  0  0  0
    4.9707    0.6091   -3.6844 C   0  0  0  0  0  0  0  0  0  0  0  0
    3.9560    1.5254   -3.8184 O   0  0  0  0  0  0  0  0  0  0  0  0
    3.6420    2.2903   -2.6648 C   0  0  0  0  0  0  0  0  0  0  0  0
    3.1164    3.6732   -3.0208 C   0  0  0  0  0  0  0  0  0  0  0  0
    2.8962    4.3477   -1.7795 O   0  0  0  0  0  0  0  0  0  0  0  0
    2.4738    5.6897   -1.9556 C   0  0  0  0  0  0  0  0  0  0  0  0
    1.9911   -2.0655    1.8085 H   0  0  0  0  0  0  0  0  0  0  0  0
    2.7054   -3.1910    0.5178 H   0  0  0  0  0  0  0  0  0  0  0  0
    3.1868   -0.1592    0.8204 H   0  0  0  0  0  0  0  0  0  0  0  0
    4.1067    0.6608   -1.0494 H   0  0  0  0  0  0  0  0  0  0  0  0
    6.7053   -1.5710   -1.7551 H   0  0  0  0  0  0  0  0  0  0  0  0
    7.9165   -3.4166   -2.4920 H   0  0  0  0  0  0  0  0  0  0  0  0
   10.9924   -1.6782   -3.5877 H   0  0  0  0  0  0  0  0  0  0  0  0
   13.2151   -2.2833   -2.7460 H   0  0  0  0  0  0  0  0  0  0  0  0
   11.4689   -5.5090   -0.4711 H   0  0  0  0  0  0  0  0  0  0  0  0
    8.9093   -1.6372   -7.1284 H   0  0  0  0  0  0  0  0  0  0  0  0
    5.3652    0.9255   -5.7806 H   0  0  0  0  0  0  0  0  0  0  0  0
    4.5217    2.4334   -2.0249 H   0  0  0  0  0  0  0  0  0  0  0  0
    2.8598    1.7723   -2.0975 H   0  0  0  0  0  0  0  0  0  0  0  0
    2.1807    3.5997   -3.5868 H   0  0  0  0  0  0  0  0  0  0  0  0
    3.8492    4.2133   -3.6311 H   0  0  0  0  0  0  0  0  0  0  0  0
    2.3210    6.1253   -0.9639 H   0  0  0  0  0  0  0  0  0  0  0  0
    1.5291    5.7247   -2.5038 H   0  0  0  0  0  0  0  0  0  0  0  0
    3.2428    6.2680   -2.4753 H   0  0  0  0  0  0  0  0  0  0  0  0
  1  2  2  0  0  0  0
  1 30  1  0  0  0  0
  1 31  1  0  0  0  0
  2  3  1  0  0  0  0
  2 32  1  0  0  0  0
  3  4  2  0  0  0  0
  3  5  1  0  0  0  0
  5  6  1  0  0  0  0
  5 33  1  0  0  0  0
  6  7  1  0  0  0  0
  6 24  2  0  0  0  0
  7  8  2  0  0  0  0
  7 34  1  0  0  0  0
  8  9  1  0  0  0  0
  8 22  1  0  0  0  0
  9 10  1  0  0  0  0
  9 19  2  0  0  0  0
 10 11  1  0  0  0  0
 10 35  1  0  0  0  0
 11 12  1  0  0  0  0
 11 17  2  0  0  0  0
 12 13  2  0  0  0  0
 12 36  1  0  0  0  0
 13 14  1  0  0  0  0
 13 37  1  0  0  0  0
 14 15  1  0  0  0  0
 14 16  2  0  0  0  0
 16 17  1  0  0  0  0
 16 38  1  0  0  0  0
 17 18  1  0  0  0  0
 19 20  1  0  0  0  0
 20 21  2  0  0  0  0
 20 39  1  0  0  0  0
 21 22  1  0  0  0  0
 22 23  2  0  0  0  0
 23 24  1  0  0  0  0
 23 40  1  0  0  0  0
 24 25  1  0  0  0  0
 25 26  1  0  0  0  0
 26 27  1  0  0  0  0
 26 41  1  0  0  0  0
 26 42  1  0  0  0  0
 27 28  1  0  0  0  0
 27 43  1  0  0  0  0
 27 44  1  0  0  0  0
 28 29  1  0  0  0  0
 29 45  1  0  0  0  0
 29 46  1  0  0  0  0
 29 47  1  0  0  0  0
M  END
$$$$
