CHEMBL1075628
 OpenBabel04072215353D

 83 88  0  0  0  0  0  0  0  0999 V2000
    2.5567    0.4040   -0.2875 C   0  0  0  0  0  0  0  0  0  0  0  0
    1.0599    0.2523   -0.2655 C   0  0  0  0  0  0  0  0  0  0  0  0
    0.3296    1.3733    0.1670 C   0  0  0  0  0  0  0  0  0  0  0  0
   -1.0588    1.3524    0.2388 C   0  0  0  0  0  0  0  0  0  0  0  0
   -1.7683    0.2041   -0.0915 C   0  0  0  0  0  0  0  0  0  0  0  0
   -3.1857    0.1610   -0.0984 N   0  0  0  0  0  0  0  0  0  0  0  0
   -4.0178    1.2741   -0.0965 C   0  0  0  0  0  0  0  0  0  0  0  0
   -3.6395    2.4417   -0.0966 O   0  0  0  0  0  0  0  0  0  0  0  0
   -5.4619    0.9888   -0.1563 C   0  0  0  0  0  0  0  0  0  0  0  0
   -6.4582    1.9853   -0.1206 C   0  0  0  0  0  0  0  0  0  0  0  0
   -7.6571    1.3670   -0.4072 C   0  0  0  0  0  0  0  0  0  0  0  0
   -8.9984    1.9827   -0.6824 C   0  0  0  0  0  0  0  0  0  0  0  0
   -8.9935    3.4535   -0.7762 N   0  0  0  0  0  0  0  0  0  0  0  0
   -8.2280    3.9757   -1.9278 C   0  0  0  0  0  0  0  0  0  0  0  0
   -8.2339    5.5205   -1.9201 C   0  0  0  0  0  0  0  0  0  0  0  0
   -9.5798    6.1211   -2.0094 N   0  0  0  0  0  0  0  0  0  0  0  0
  -10.1327    5.9724   -3.3531 C   0  0  0  0  0  0  0  0  0  0  0  0
  -10.4453    5.5094   -0.9801 C   0  0  0  0  0  0  0  0  0  0  0  0
  -10.3820    3.9629   -0.8904 C   0  0  0  0  0  0  0  0  0  0  0  0
   -7.3623    0.0094   -0.3856 N   0  0  0  0  0  0  0  0  0  0  0  0
   -8.2752   -1.1558   -0.4573 C   0  0  0  0  0  0  0  0  0  0  0  0
   -8.9898   -1.2149   -1.8198 C   0  0  0  0  0  0  0  0  0  0  0  0
   -7.4956   -2.4896   -0.3017 C   0  0  0  0  0  0  0  0  0  0  0  0
   -9.3146   -1.1298    0.6823 C   0  0  0  0  0  0  0  0  0  0  0  0
   -6.0162   -0.2245   -0.3053 N   0  0  0  0  0  0  0  0  0  0  0  0
   -1.0380   -0.9399   -0.4517 C   0  0  0  0  0  0  0  0  0  0  0  0
    0.3776   -0.9402   -0.5992 C   0  0  0  0  0  0  0  0  0  0  0  0
    1.1024   -2.0841   -1.0595 N   0  0  0  0  0  0  0  0  0  0  0  0
    0.5448   -3.2246   -1.5516 C   0  0  0  0  0  0  0  0  0  0  0  0
   -0.5678   -3.7860   -1.1365 N   0  0  0  0  0  0  0  0  0  0  0  0
   -0.9349   -4.6164   -2.1339 C   0  0  0  0  0  0  0  0  0  0  0  0
   -2.1532   -5.2974   -2.2504 C   0  0  0  0  0  0  0  0  0  0  0  0
   -2.6233   -5.2596   -3.5536 C   0  0  0  0  0  0  0  0  0  0  0  0
   -1.7269   -5.3458   -4.6210 C   0  0  0  0  0  0  0  0  0  0  0  0
   -0.3461   -5.1920   -4.4181 C   0  0  0  0  0  0  0  0  0  0  0  0
   -0.0023   -4.6394   -3.1658 C   0  0  0  0  0  0  0  0  0  0  0  0
    1.1001   -4.0009   -2.5915 N   0  0  0  0  0  0  0  0  0  0  0  0
    2.4773   -4.1135   -2.9013 C   0  0  0  0  0  0  0  0  0  0  0  0
    2.9668   -5.0158   -3.8320 C   0  0  0  0  0  0  0  0  0  0  0  0
    4.3233   -5.1931   -3.9121 C   0  0  0  0  0  0  0  0  0  0  0  0
    4.8911   -6.0566   -4.8374 N   0  0  0  0  0  0  0  0  0  0  0  0
    5.1897   -4.5092   -3.1453 N   0  0  0  0  0  0  0  0  0  0  0  0
    4.6491   -3.6497   -2.2822 C   0  0  0  0  0  0  0  0  0  0  0  0
    3.3426   -3.3932   -2.1376 N   0  0  0  0  0  0  0  0  0  0  0  0
    2.8318    1.4563   -0.4227 H   0  0  0  0  0  0  0  0  0  0  0  0
    3.0176   -0.1364   -1.1172 H   0  0  0  0  0  0  0  0  0  0  0  0
    2.9776    0.0605    0.6622 H   0  0  0  0  0  0  0  0  0  0  0  0
    0.8405    2.2947    0.4416 H   0  0  0  0  0  0  0  0  0  0  0  0
   -1.5515    2.2580    0.5766 H   0  0  0  0  0  0  0  0  0  0  0  0
   -3.6531   -0.7305   -0.2441 H   0  0  0  0  0  0  0  0  0  0  0  0
   -6.2828    3.0471   -0.0118 H   0  0  0  0  0  0  0  0  0  0  0  0
   -9.6569    1.7144    0.1494 H   0  0  0  0  0  0  0  0  0  0  0  0
   -9.4214    1.5762   -1.6033 H   0  0  0  0  0  0  0  0  0  0  0  0
   -8.6325    3.5909   -2.8726 H   0  0  0  0  0  0  0  0  0  0  0  0
   -7.1810    3.6691   -1.9025 H   0  0  0  0  0  0  0  0  0  0  0  0
   -7.5988    5.8978   -2.7313 H   0  0  0  0  0  0  0  0  0  0  0  0
   -7.7628    5.8736   -0.9919 H   0  0  0  0  0  0  0  0  0  0  0  0
   -9.4619    6.4278   -4.0907 H   0  0  0  0  0  0  0  0  0  0  0  0
  -11.0877    6.5019   -3.4325 H   0  0  0  0  0  0  0  0  0  0  0  0
  -10.2965    4.9302   -3.6441 H   0  0  0  0  0  0  0  0  0  0  0  0
  -11.4857    5.8272   -1.1242 H   0  0  0  0  0  0  0  0  0  0  0  0
  -10.1451    5.9192   -0.0062 H   0  0  0  0  0  0  0  0  0  0  0  0
  -10.8716    3.5322   -1.7748 H   0  0  0  0  0  0  0  0  0  0  0  0
  -10.9659    3.6497   -0.0166 H   0  0  0  0  0  0  0  0  0  0  0  0
   -8.2713   -1.1716   -2.6459 H   0  0  0  0  0  0  0  0  0  0  0  0
   -9.7028   -0.4001   -1.9555 H   0  0  0  0  0  0  0  0  0  0  0  0
   -9.5665   -2.1416   -1.9225 H   0  0  0  0  0  0  0  0  0  0  0  0
   -6.7853   -2.6365   -1.1238 H   0  0  0  0  0  0  0  0  0  0  0  0
   -8.1759   -3.3493   -0.3019 H   0  0  0  0  0  0  0  0  0  0  0  0
   -6.9345   -2.5192    0.6401 H   0  0  0  0  0  0  0  0  0  0  0  0
   -9.9940   -0.2782    0.6173 H   0  0  0  0  0  0  0  0  0  0  0  0
   -8.8281   -1.0934    1.6637 H   0  0  0  0  0  0  0  0  0  0  0  0
   -9.9460   -2.0266    0.6567 H   0  0  0  0  0  0  0  0  0  0  0  0
   -1.6071   -1.8413   -0.6598 H   0  0  0  0  0  0  0  0  0  0  0  0
    2.0684   -1.9016   -1.3183 H   0  0  0  0  0  0  0  0  0  0  0  0
   -2.0520   -6.3284   -1.8643 H   0  0  0  0  0  0  0  0  0  0  0  0
   -3.6745   -5.0478   -3.7206 H   0  0  0  0  0  0  0  0  0  0  0  0
   -2.1227   -5.4385   -5.6271 H   0  0  0  0  0  0  0  0  0  0  0  0
    0.3294   -5.2451   -5.2593 H   0  0  0  0  0  0  0  0  0  0  0  0
    2.3144   -5.6239   -4.4695 H   0  0  0  0  0  0  0  0  0  0  0  0
    4.5090   -6.9977   -4.7659 H   0  0  0  0  0  0  0  0  0  0  0  0
    5.8969   -6.0554   -4.6809 H   0  0  0  0  0  0  0  0  0  0  0  0
    5.3394   -3.1103   -1.6354 H   0  0  0  0  0  0  0  0  0  0  0  0
  1  2  1  0  0  0  0
  1 45  1  0  0  0  0
  1 46  1  0  0  0  0
  1 47  1  0  0  0  0
  2  3  1  0  0  0  0
  2 27  2  0  0  0  0
  3  4  2  0  0  0  0
  3 48  1  0  0  0  0
  4  5  1  0  0  0  0
  4 49  1  0  0  0  0
  5  6  1  0  0  0  0
  5 26  2  0  0  0  0
  6  7  1  0  0  0  0
  6 50  1  0  0  0  0
  7  8  2  0  0  0  0
  7  9  1  0  0  0  0
  9 10  1  0  0  0  0
  9 25  2  0  0  0  0
 10 11  2  0  0  0  0
 10 51  1  0  0  0  0
 11 12  1  0  0  0  0
 11 20  1  0  0  0  0
 12 13  1  0  0  0  0
 12 52  1  0  0  0  0
 12 53  1  0  0  0  0
 13 14  1  0  0  0  0
 13 19  1  0  0  0  0
 14 15  1  0  0  0  0
 14 54  1  0  0  0  0
 14 55  1  0  0  0  0
 15 16  1  0  0  0  0
 15 56  1  0  0  0  0
 15 57  1  0  0  0  0
 16 17  1  0  0  0  0
 16 18  1  0  0  0  0
 17 58  1  0  0  0  0
 17 59  1  0  0  0  0
 17 60  1  0  0  0  0
 18 19  1  0  0  0  0
 18 61  1  0  0  0  0
 18 62  1  0  0  0  0
 19 63  1  0  0  0  0
 19 64  1  0  0  0  0
 20 21  1  0  0  0  0
 20 25  1  0  0  0  0
 21 22  1  0  0  0  0
 21 23  1  0  0  0  0
 21 24  1  0  0  0  0
 22 65  1  0  0  0  0
 22 66  1  0  0  0  0
 22 67  1  0  0  0  0
 23 68  1  0  0  0  0
 23 69  1  0  0  0  0
 23 70  1  0  0  0  0
 24 71  1  0  0  0  0
 24 72  1  0  0  0  0
 24 73  1  0  0  0  0
 26 27  1  0  0  0  0
 26 74  1  0  0  0  0
 27 28  1  0  0  0  0
 28 29  1  0  0  0  0
 28 75  1  0  0  0  0
 29 30  2  0  0  0  0
 29 37  1  0  0  0  0
 30 31  1  0  0  0  0
 31 32  1  0  0  0  0
 31 36  2  0  0  0  0
 32 33  2  0  0  0  0
 32 76  1  0  0  0  0
 33 34  1  0  0  0  0
 33 77  1  0  0  0  0
 34 35  2  0  0  0  0
 34 78  1  0  0  0  0
 35 36  1  0  0  0  0
 35 79  1  0  0  0  0
 36 37  1  0  0  0  0
 37 38  1  0  0  0  0
 38 39  1  0  0  0  0
 38 44  2  0  0  0  0
 39 40  2  0  0  0  0
 39 80  1  0  0  0  0
 40 41  1  0  0  0  0
 40 42  1  0  0  0  0
 41 81  1  0  0  0  0
 41 82  1  0  0  0  0
 42 43  2  0  0  0  0
 43 44  1  0  0  0  0
 43 83  1  0  0  0  0
M  END
$$$$
