CHEMBL1271532
 OpenBabel04072215363D

 51 55  0  0  0  0  0  0  0  0999 V2000
    1.3060   -0.1162    0.0357 C   0  0  0  0  0  0  0  0  0  0  0  0
    0.4517   -1.2189    0.0776 C   0  0  0  0  0  0  0  0  0  0  0  0
   -0.9345   -1.0405    0.0559 C   0  0  0  0  0  0  0  0  0  0  0  0
   -1.8170   -2.2025    0.0732 C   0  0  0  0  0  0  0  0  0  0  0  0
   -2.2514   -2.8973   -1.1784 C   0  0  0  0  0  0  0  0  0  0  0  0
   -2.9816   -3.9701   -1.2515 N   0  0  0  0  0  0  0  0  0  0  0  0
   -3.3905   -4.5007   -0.0517 C   0  0  0  0  0  0  0  0  0  0  0  0
   -4.1188   -5.6265    0.2743 C   0  0  0  0  0  0  0  0  0  0  0  0
   -4.6802   -6.6469   -0.5947 C   0  0  0  0  0  0  0  0  0  0  0  0
   -4.5528   -6.7164   -1.9973 C   0  0  0  0  0  0  0  0  0  0  0  0
   -5.1749   -7.7827   -2.5128 N   0  0  0  0  0  0  0  0  0  0  0  0
   -5.6969   -8.3934   -1.4341 N   0  0  0  0  0  0  0  0  0  0  0  0
   -5.4268   -7.7520   -0.2592 C   0  0  0  0  0  0  0  0  0  0  0  0
   -4.2119   -5.6076    1.6769 C   0  0  0  0  0  0  0  0  0  0  0  0
   -3.5838   -4.5681    2.2285 N   0  0  0  0  0  0  0  0  0  0  0  0
   -3.0633   -3.8956    1.1696 N   0  0  0  0  0  0  0  0  0  0  0  0
   -2.2720   -2.7537    1.2109 C   0  0  0  0  0  0  0  0  0  0  0  0
   -1.4557    0.2575    0.0308 C   0  0  0  0  0  0  0  0  0  0  0  0
   -0.5967    1.3618   -0.0217 C   0  0  0  0  0  0  0  0  0  0  0  0
    0.7840    1.1760   -0.0620 C   0  0  0  0  0  0  0  0  0  0  0  0
    1.5392    2.3163   -0.2158 O   0  0  0  0  0  0  0  0  0  0  0  0
    2.8117    2.0853   -0.8400 C   0  0  0  0  0  0  0  0  0  0  0  0
    3.2906    3.3312   -1.6038 C   0  0  0  0  0  0  0  0  0  0  0  0
    4.5988    3.1444   -2.2672 N   0  0  0  0  0  0  0  0  0  0  0  0
    5.0411    4.3731   -2.9675 C   0  0  0  0  0  0  0  0  0  0  0  0
    4.3150    4.6279   -4.3008 C   0  0  0  0  0  0  0  0  0  0  0  0
    4.4522    3.5127   -5.1897 O   0  0  0  0  0  0  0  0  0  0  0  0
    3.9582    2.3131   -4.5845 C   0  0  0  0  0  0  0  0  0  0  0  0
    4.6524    2.0313   -3.2419 C   0  0  0  0  0  0  0  0  0  0  0  0
    2.3760   -0.2960    0.0671 H   0  0  0  0  0  0  0  0  0  0  0  0
    0.8813   -2.2202    0.1158 H   0  0  0  0  0  0  0  0  0  0  0  0
   -1.9052   -2.4365   -2.1199 H   0  0  0  0  0  0  0  0  0  0  0  0
   -4.0333   -6.0410   -2.6646 H   0  0  0  0  0  0  0  0  0  0  0  0
   -6.2245   -9.2467   -1.5782 H   0  0  0  0  0  0  0  0  0  0  0  0
   -5.7842   -8.1385    0.6833 H   0  0  0  0  0  0  0  0  0  0  0  0
   -4.7080   -6.3144    2.3307 H   0  0  0  0  0  0  0  0  0  0  0  0
   -2.0449   -2.3754    2.1974 H   0  0  0  0  0  0  0  0  0  0  0  0
   -2.5318    0.4217    0.0374 H   0  0  0  0  0  0  0  0  0  0  0  0
   -1.0122    2.3660   -0.0573 H   0  0  0  0  0  0  0  0  0  0  0  0
    2.7108    1.2697   -1.5618 H   0  0  0  0  0  0  0  0  0  0  0  0
    3.5407    1.8126   -0.0692 H   0  0  0  0  0  0  0  0  0  0  0  0
    3.3791    4.1493   -0.8755 H   0  0  0  0  0  0  0  0  0  0  0  0
    2.5110    3.6446   -2.3078 H   0  0  0  0  0  0  0  0  0  0  0  0
    6.1115    4.2523   -3.1822 H   0  0  0  0  0  0  0  0  0  0  0  0
    4.9579    5.2471   -2.3127 H   0  0  0  0  0  0  0  0  0  0  0  0
    4.7569    5.4964   -4.7994 H   0  0  0  0  0  0  0  0  0  0  0  0
    3.2505    4.8411   -4.1522 H   0  0  0  0  0  0  0  0  0  0  0  0
    4.1672    1.4916   -5.2776 H   0  0  0  0  0  0  0  0  0  0  0  0
    2.8702    2.3834   -4.4732 H   0  0  0  0  0  0  0  0  0  0  0  0
    5.7150    1.8428   -3.4451 H   0  0  0  0  0  0  0  0  0  0  0  0
    4.2825    1.0932   -2.8196 H   0  0  0  0  0  0  0  0  0  0  0  0
  1  2  1  0  0  0  0
  1 20  2  0  0  0  0
  1 30  1  0  0  0  0
  2  3  2  0  0  0  0
  2 31  1  0  0  0  0
  3  4  1  0  0  0  0
  3 18  1  0  0  0  0
  4  5  1  0  0  0  0
  4 17  2  0  0  0  0
  5  6  2  0  0  0  0
  5 32  1  0  0  0  0
  6  7  1  0  0  0  0
  7  8  2  0  0  0  0
  7 16  1  0  0  0  0
  8  9  1  0  0  0  0
  8 14  1  0  0  0  0
  9 10  1  0  0  0  0
  9 13  2  0  0  0  0
 10 11  2  0  0  0  0
 10 33  1  0  0  0  0
 11 12  1  0  0  0  0
 12 13  1  0  0  0  0
 12 34  1  0  0  0  0
 13 35  1  0  0  0  0
 14 15  2  0  0  0  0
 14 36  1  0  0  0  0
 15 16  1  0  0  0  0
 16 17  1  0  0  0  0
 17 37  1  0  0  0  0
 18 19  2  0  0  0  0
 18 38  1  0  0  0  0
 19 20  1  0  0  0  0
 19 39  1  0  0  0  0
 20 21  1  0  0  0  0
 21 22  1  0  0  0  0
 22 23  1  0  0  0  0
 22 40  1  0  0  0  0
 22 41  1  0  0  0  0
 23 24  1  0  0  0  0
 23 42  1  0  0  0  0
 23 43  1  0  0  0  0
 24 25  1  0  0  0  0
 24 29  1  0  0  0  0
 25 26  1  0  0  0  0
 25 44  1  0  0  0  0
 25 45  1  0  0  0  0
 26 27  1  0  0  0  0
 26 46  1  0  0  0  0
 26 47  1  0  0  0  0
 27 28  1  0  0  0  0
 28 29  1  0  0  0  0
 28 48  1  0  0  0  0
 28 49  1  0  0  0  0
 29 50  1  0  0  0  0
 29 51  1  0  0  0  0
M  END
$$$$
