CHEMBL44915
 OpenBabel04072215383D

 45 48  0  0  0  0  0  0  0  0999 V2000
   -0.7175    1.1656    4.6324 C   0  0  0  0  0  0  0  0  0  0  0  0
   -1.5830    1.0489    3.4094 C   0  0  0  0  0  0  0  0  0  0  0  0
   -1.3016    1.8054    2.2791 C   0  0  0  0  0  0  0  0  0  0  0  0
   -2.0861    1.7519    1.1181 C   0  0  0  0  0  0  0  0  0  0  0  0
   -1.7744    2.5464    0.0096 N   0  0  0  0  0  0  0  0  0  0  0  0
   -1.0871    3.7585    0.0353 C   0  0  0  0  0  0  0  0  0  0  0  0
   -1.2236    4.5685    1.0981 N   0  0  0  0  0  0  0  0  0  0  0  0
   -0.4856    5.6858    1.1384 C   0  0  0  0  0  0  0  0  0  0  0  0
    0.4129    6.0257    0.1659 C   0  0  0  0  0  0  0  0  0  0  0  0
    0.4487    5.1786   -0.9216 C   0  0  0  0  0  0  0  0  0  0  0  0
    1.2640    5.5213   -2.0372 N   0  0  0  0  0  0  0  0  0  0  0  0
    2.4613    6.2097   -1.9739 C   0  0  0  0  0  0  0  0  0  0  0  0
    2.9672    6.1907   -3.2481 C   0  0  0  0  0  0  0  0  0  0  0  0
    2.0945    5.5889   -4.1047 N   0  0  0  0  0  0  0  0  0  0  0  0
    1.0339    5.2372   -3.3862 C   0  0  0  0  0  0  0  0  0  0  0  0
   -0.2126    4.7070   -3.9779 C   0  0  0  0  0  0  0  0  0  0  0  0
   -0.1497    3.9403   -5.1490 C   0  0  0  0  0  0  0  0  0  0  0  0
   -1.3100    3.3951   -5.7098 C   0  0  0  0  0  0  0  0  0  0  0  0
   -2.5468    3.5974   -5.1004 C   0  0  0  0  0  0  0  0  0  0  0  0
   -2.6330    4.3918   -3.9648 C   0  0  0  0  0  0  0  0  0  0  0  0
   -1.4814    4.9745   -3.4371 C   0  0  0  0  0  0  0  0  0  0  0  0
   -0.3060    4.0587   -1.0021 N   0  0  0  0  0  0  0  0  0  0  0  0
   -3.1602    0.8553    1.0941 C   0  0  0  0  0  0  0  0  0  0  0  0
   -3.4621    0.0656    2.2198 C   0  0  0  0  0  0  0  0  0  0  0  0
   -4.6209   -0.8991    2.2091 C   0  0  0  0  0  0  0  0  0  0  0  0
   -5.3064   -0.9188    1.0321 F   0  0  0  0  0  0  0  0  0  0  0  0
   -4.2331   -2.1850    2.4343 F   0  0  0  0  0  0  0  0  0  0  0  0
   -5.5428   -0.6157    3.1716 F   0  0  0  0  0  0  0  0  0  0  0  0
   -2.6706    0.1728    3.3758 C   0  0  0  0  0  0  0  0  0  0  0  0
    0.0567    1.9279    4.5006 H   0  0  0  0  0  0  0  0  0  0  0  0
   -0.2185    0.2132    4.8390 H   0  0  0  0  0  0  0  0  0  0  0  0
   -1.3232    1.4557    5.4957 H   0  0  0  0  0  0  0  0  0  0  0  0
   -0.4285    2.4622    2.3012 H   0  0  0  0  0  0  0  0  0  0  0  0
   -2.3444    2.4679   -0.8166 H   0  0  0  0  0  0  0  0  0  0  0  0
   -0.6607    6.3179    2.0016 H   0  0  0  0  0  0  0  0  0  0  0  0
    0.9763    6.9458    0.2357 H   0  0  0  0  0  0  0  0  0  0  0  0
    2.8839    6.5688   -1.0496 H   0  0  0  0  0  0  0  0  0  0  0  0
    3.9193    6.5799   -3.5913 H   0  0  0  0  0  0  0  0  0  0  0  0
    0.8084    3.7668   -5.6338 H   0  0  0  0  0  0  0  0  0  0  0  0
   -1.2452    2.8056   -6.6213 H   0  0  0  0  0  0  0  0  0  0  0  0
   -3.4429    3.1491   -5.5201 H   0  0  0  0  0  0  0  0  0  0  0  0
   -3.5926    4.5605   -3.4824 H   0  0  0  0  0  0  0  0  0  0  0  0
   -1.5963    5.6201   -2.5725 H   0  0  0  0  0  0  0  0  0  0  0  0
   -3.7709    0.7669    0.1962 H   0  0  0  0  0  0  0  0  0  0  0  0
   -2.9036   -0.4291    4.2531 H   0  0  0  0  0  0  0  0  0  0  0  0
  1  2  1  0  0  0  0
  1 30  1  0  0  0  0
  1 31  1  0  0  0  0
  1 32  1  0  0  0  0
  2  3  1  0  0  0  0
  2 29  2  0  0  0  0
  3  4  2  0  0  0  0
  3 33  1  0  0  0  0
  4  5  1  0  0  0  0
  4 23  1  0  0  0  0
  5  6  1  0  0  0  0
  5 34  1  0  0  0  0
  6  7  1  0  0  0  0
  6 22  2  0  0  0  0
  7  8  2  0  0  0  0
  8  9  1  0  0  0  0
  8 35  1  0  0  0  0
  9 10  2  0  0  0  0
  9 36  1  0  0  0  0
 10 11  1  0  0  0  0
 10 22  1  0  0  0  0
 11 12  1  0  0  0  0
 11 15  1  0  0  0  0
 12 13  2  0  0  0  0
 12 37  1  0  0  0  0
 13 14  1  0  0  0  0
 13 38  1  0  0  0  0
 14 15  2  0  0  0  0
 15 16  1  0  0  0  0
 16 17  1  0  0  0  0
 16 21  2  0  0  0  0
 17 18  2  0  0  0  0
 17 39  1  0  0  0  0
 18 19  1  0  0  0  0
 18 40  1  0  0  0  0
 19 20  2  0  0  0  0
 19 41  1  0  0  0  0
 20 21  1  0  0  0  0
 20 42  1  0  0  0  0
 21 43  1  0  0  0  0
 23 24  2  0  0  0  0
 23 44  1  0  0  0  0
 24 25  1  0  0  0  0
 24 29  1  0  0  0  0
 25 26  1  0  0  0  0
 25 27  1  0  0  0  0
 25 28  1  0  0  0  0
 29 45  1  0  0  0  0
M  END
$$$$
