CHEMBL4473129
 OpenBabel04072215383D

 45 48  0  0  0  0  0  0  0  0999 V2000
    4.6492    0.3697   -0.8385 O   0  0  0  0  0  0  0  0  0  0  0  0
    3.4724    0.1098   -0.7045 C   0  0  0  0  0  0  0  0  0  0  0  0
    2.8139   -1.0950   -0.8445 N   0  0  0  0  0  0  0  0  0  0  0  0
    1.4500   -0.9393   -0.6060 C   0  0  0  0  0  0  0  0  0  0  0  0
    0.4724   -1.9114   -0.6545 C   0  0  0  0  0  0  0  0  0  0  0  0
   -0.8431   -1.5139   -0.3791 C   0  0  0  0  0  0  0  0  0  0  0  0
   -1.1420   -0.1707   -0.0663 C   0  0  0  0  0  0  0  0  0  0  0  0
   -2.9346    0.3168    0.2920 Br  0  0  0  0  0  0  0  0  0  0  0  0
   -0.1447    0.8038   -0.0184 C   0  0  0  0  0  0  0  0  0  0  0  0
    1.1404    0.3845   -0.2930 C   0  0  0  0  0  0  0  0  0  0  0  0
    2.3947    1.1303   -0.3310 C   0  0  0  0  0  0  0  0  0  0  0  0
    2.5187    2.3955   -0.0934 N   0  0  0  0  0  0  0  0  0  0  0  0
    3.7725    2.9420   -0.1781 N   0  0  0  0  0  0  0  0  0  0  0  0
    3.9436    4.2973    0.0866 C   0  0  0  0  0  0  0  0  0  0  0  0
    3.0502    5.0601    0.4455 O   0  0  0  0  0  0  0  0  0  0  0  0
    5.3264    4.8400   -0.0722 C   0  0  0  0  0  0  0  0  0  0  0  0
    6.2443    4.2716   -0.9518 C   0  0  0  0  0  0  0  0  0  0  0  0
    7.5195    4.8326   -1.0974 C   0  0  0  0  0  0  0  0  0  0  0  0
    7.9124    5.9696   -0.3809 C   0  0  0  0  0  0  0  0  0  0  0  0
    9.2021    6.5586   -0.4949 N   0  0  0  0  0  0  0  0  0  0  0  0
   10.2246    6.1006   -1.3142 C   0  0  0  0  0  0  0  0  0  0  0  0
   10.1515    5.1476   -2.0882 O   0  0  0  0  0  0  0  0  0  0  0  0
   11.5369    6.8108   -1.2765 C   0  0  0  0  0  0  0  0  0  0  0  0
   12.0139    7.5152   -0.1653 C   0  0  0  0  0  0  0  0  0  0  0  0
   13.3155    8.0402   -0.1814 C   0  0  0  0  0  0  0  0  0  0  0  0
   14.1361    7.8612   -1.2977 C   0  0  0  0  0  0  0  0  0  0  0  0
   15.7462    8.4660   -1.2890 Cl  0  0  0  0  0  0  0  0  0  0  0  0
   13.6668    7.1751   -2.4115 C   0  0  0  0  0  0  0  0  0  0  0  0
   12.3723    6.6554   -2.3991 C   0  0  0  0  0  0  0  0  0  0  0  0
    6.9820    6.5496    0.4891 C   0  0  0  0  0  0  0  0  0  0  0  0
    5.6990    5.9920    0.6381 C   0  0  0  0  0  0  0  0  0  0  0  0
    3.2762   -1.9581   -1.0906 H   0  0  0  0  0  0  0  0  0  0  0  0
    0.6977   -2.9450   -0.8945 H   0  0  0  0  0  0  0  0  0  0  0  0
   -1.6405   -2.2547   -0.4099 H   0  0  0  0  0  0  0  0  0  0  0  0
   -0.3541    1.8416    0.2189 H   0  0  0  0  0  0  0  0  0  0  0  0
    4.5604    2.3282   -0.3861 H   0  0  0  0  0  0  0  0  0  0  0  0
    5.9930    3.4126   -1.5674 H   0  0  0  0  0  0  0  0  0  0  0  0
    8.1789    4.3469   -1.8074 H   0  0  0  0  0  0  0  0  0  0  0  0
    9.3573    7.3990    0.0461 H   0  0  0  0  0  0  0  0  0  0  0  0
   11.4224    7.6252    0.7379 H   0  0  0  0  0  0  0  0  0  0  0  0
   13.6981    8.5652    0.6910 H   0  0  0  0  0  0  0  0  0  0  0  0
   14.3005    7.0178   -3.2805 H   0  0  0  0  0  0  0  0  0  0  0  0
   12.0213    6.0964   -3.2664 H   0  0  0  0  0  0  0  0  0  0  0  0
    7.2267    7.4417    1.0603 H   0  0  0  0  0  0  0  0  0  0  0  0
    4.9851    6.4642    1.3116 H   0  0  0  0  0  0  0  0  0  0  0  0
  1  2  2  0  0  0  0
  2  3  1  0  0  0  0
  2 11  1  0  0  0  0
  3  4  1  0  0  0  0
  3 32  1  0  0  0  0
  4  5  1  0  0  0  0
  4 10  2  0  0  0  0
  5  6  2  0  0  0  0
  5 33  1  0  0  0  0
  6  7  1  0  0  0  0
  6 34  1  0  0  0  0
  7  8  1  0  0  0  0
  7  9  2  0  0  0  0
  9 10  1  0  0  0  0
  9 35  1  0  0  0  0
 10 11  1  0  0  0  0
 11 12  2  0  0  0  0
 12 13  1  0  0  0  0
 13 14  1  0  0  0  0
 13 36  1  0  0  0  0
 14 15  2  0  0  0  0
 14 16  1  0  0  0  0
 16 17  1  0  0  0  0
 16 31  2  0  0  0  0
 17 18  2  0  0  0  0
 17 37  1  0  0  0  0
 18 19  1  0  0  0  0
 18 38  1  0  0  0  0
 19 20  1  0  0  0  0
 19 30  2  0  0  0  0
 20 21  1  0  0  0  0
 20 39  1  0  0  0  0
 21 22  2  0  0  0  0
 21 23  1  0  0  0  0
 23 24  1  0  0  0  0
 23 29  2  0  0  0  0
 24 25  2  0  0  0  0
 24 40  1  0  0  0  0
 25 26  1  0  0  0  0
 25 41  1  0  0  0  0
 26 27  1  0  0  0  0
 26 28  2  0  0  0  0
 28 29  1  0  0  0  0
 28 42  1  0  0  0  0
 29 43  1  0  0  0  0
 30 31  1  0  0  0  0
 30 44  1  0  0  0  0
 31 45  1  0  0  0  0
M  END
$$$$
