CHEMBL3690433
 OpenBabel04072215373D

 65 67  0  0  1  0  0  0  0  0999 V2000
    8.0021   -3.3036    1.4045 C   0  0  0  0  0  0  0  0  0  0  0  0
    6.8199   -2.8068    2.1002 N   0  0  0  0  0  0  0  0  0  0  0  0
    5.6544   -3.6754    2.0980 C   0  0  0  0  0  0  0  0  0  0  0  0
    6.9417   -1.5480    2.6866 C   0  0  0  0  0  0  0  0  0  0  0  0
    8.0334   -0.9631    2.6048 O   0  0  0  0  0  0  0  0  0  0  0  0
    5.7451   -0.8480    3.4364 C   0  0  0  0  0  0  0  0  0  0  0  0
    4.4820   -0.6603    2.5870 C   0  0  0  0  0  0  0  0  0  0  0  0
    5.4156   -1.5955    4.7374 C   0  0  0  0  0  0  0  0  0  0  0  0
    6.1649    0.5161    3.9040 N   0  0  0  0  0  0  0  0  0  0  0  0
    6.5684    1.3501    3.0035 C   0  0  0  0  0  0  0  0  0  0  0  0
    7.0473    2.7433    3.3448 C   0  0  3  0  0  0  0  0  0  0  0  0
    6.5109    3.3048    4.6461 C   0  0  0  0  0  0  0  0  0  0  0  0
    6.2899    4.5647    4.8445 N   0  0  0  0  0  0  0  0  0  0  0  0
    8.5608    2.7917    3.3359 C   0  0  0  0  0  0  0  0  0  0  0  0
    9.3164    1.9018    4.2231 C   0  0  0  0  0  0  0  0  0  0  0  0
   10.6594    1.9324    4.2187 C   0  0  0  0  0  0  0  0  0  0  0  0
   11.3356    2.8296    3.3873 N   0  0  0  0  0  0  0  0  0  0  0  0
   12.6918    3.0923    3.2178 C   0  0  0  0  0  0  0  0  0  0  0  0
   13.8359    2.5024    3.9323 C   0  0  0  0  0  0  0  0  0  0  0  0
   15.0405    2.3233    3.2330 C   0  0  0  0  0  0  0  0  0  0  0  0
   16.1657    1.8061    3.8636 C   0  0  0  0  0  0  0  0  0  0  0  0
   16.1115    1.4640    5.2109 C   0  0  0  0  0  0  0  0  0  0  0  0
   14.9441    1.6599    5.9516 C   0  0  0  0  0  0  0  0  0  0  0  0
   14.8626    1.3725    7.3355 N   0  0  0  0  0  0  0  0  0  0  0  0
   15.9000    0.9570    8.1331 C   0  0  0  0  0  0  0  0  0  0  0  0
   17.0675    0.8021    7.8125 O   0  0  0  0  0  0  0  0  0  0  0  0
   15.5073    0.6948    9.4314 N   0  0  0  0  0  0  0  0  0  0  0  0
   16.5478    0.2502   10.3678 C   0  0  0  0  0  0  0  0  0  0  0  0
   17.2287   -1.0953   10.0431 C   0  0  0  0  0  0  0  0  0  0  0  0
   16.6755   -1.7399    8.9944 F   0  0  0  0  0  0  0  0  0  0  0  0
   18.5505   -0.9448    9.8013 F   0  0  0  0  0  0  0  0  0  0  0  0
   17.1179   -1.9276   11.1116 F   0  0  0  0  0  0  0  0  0  0  0  0
   13.8087    2.1747    5.3018 C   0  0  0  0  0  0  0  0  0  0  0  0
   12.7180    4.0234    2.1856 C   0  0  0  0  0  0  0  0  0  0  0  0
   11.4698    4.3705    1.7564 N   0  0  0  0  0  0  0  0  0  0  0  0
   10.6524    3.6596    2.4982 C   0  0  0  0  0  0  0  0  0  0  0  0
    9.2303    3.6191    2.4997 C   0  0  0  0  0  0  0  0  0  0  0  0
    7.8325   -4.2910    0.9659 H   0  0  0  0  0  0  0  0  0  0  0  0
    8.8349   -3.3677    2.1111 H   0  0  0  0  0  0  0  0  0  0  0  0
    8.2664   -2.6028    0.6050 H   0  0  0  0  0  0  0  0  0  0  0  0
    5.8754   -4.6284    1.6062 H   0  0  0  0  0  0  0  0  0  0  0  0
    4.8459   -3.2042    1.5442 H   0  0  0  0  0  0  0  0  0  0  0  0
    5.3499   -3.8997    3.1173 H   0  0  0  0  0  0  0  0  0  0  0  0
    3.9610   -1.5954    2.3830 H   0  0  0  0  0  0  0  0  0  0  0  0
    4.7153   -0.1953    1.6226 H   0  0  0  0  0  0  0  0  0  0  0  0
    3.7624   -0.0097    3.0983 H   0  0  0  0  0  0  0  0  0  0  0  0
    4.9664   -2.5734    4.5698 H   0  0  0  0  0  0  0  0  0  0  0  0
    4.7074   -1.0248    5.3503 H   0  0  0  0  0  0  0  0  0  0  0  0
    6.3198   -1.7445    5.3399 H   0  0  0  0  0  0  0  0  0  0  0  0
    6.6138    1.0847    1.9310 H   0  0  0  0  0  0  0  0  0  0  0  0
    6.6568    3.3877    2.5453 H   0  0  0  0  0  0  0  0  0  0  0  0
    6.3337    2.6007    5.4768 H   0  0  0  0  0  0  0  0  0  0  0  0
    6.5268    5.1208    4.0159 H   0  0  0  0  0  0  0  0  0  0  0  0
    8.7814    1.1906    4.8503 H   0  0  0  0  0  0  0  0  0  0  0  0
   11.2455    1.2600    4.8313 H   0  0  0  0  0  0  0  0  0  0  0  0
   15.1201    2.5863    2.1809 H   0  0  0  0  0  0  0  0  0  0  0  0
   17.0935    1.6687    3.3101 H   0  0  0  0  0  0  0  0  0  0  0  0
   17.0125    1.0481    5.6456 H   0  0  0  0  0  0  0  0  0  0  0  0
   13.9623    1.4787    7.7722 H   0  0  0  0  0  0  0  0  0  0  0  0
   14.7237    1.2101    9.8000 H   0  0  0  0  0  0  0  0  0  0  0  0
   16.0782    0.1963   11.3496 H   0  0  0  0  0  0  0  0  0  0  0  0
   17.3049    1.0402   10.4130 H   0  0  0  0  0  0  0  0  0  0  0  0
   12.9091    2.3600    5.8816 H   0  0  0  0  0  0  0  0  0  0  0  0
   13.5927    4.4746    1.7354 H   0  0  0  0  0  0  0  0  0  0  0  0
    8.7187    4.2789    1.8093 H   0  0  0  0  0  0  0  0  0  0  0  0
  1  2  1  0  0  0  0
  1 38  1  0  0  0  0
  1 39  1  0  0  0  0
  1 40  1  0  0  0  0
  2  3  1  0  0  0  0
  2  4  1  0  0  0  0
  3 41  1  0  0  0  0
  3 42  1  0  0  0  0
  3 43  1  0  0  0  0
  4  5  2  0  0  0  0
  4  6  1  0  0  0  0
  6  7  1  0  0  0  0
  6  8  1  0  0  0  0
  6  9  1  0  0  0  0
  7 44  1  0  0  0  0
  7 45  1  0  0  0  0
  7 46  1  0  0  0  0
  8 47  1  0  0  0  0
  8 48  1  0  0  0  0
  8 49  1  0  0  0  0
  9 10  2  0  0  0  0
 10 11  1  0  0  0  0
 10 50  1  0  0  0  0
 11 12  1  0  0  0  0
 11 14  1  0  0  0  0
 11 51  1  0  0  0  0
 12 13  2  0  0  0  0
 12 52  1  0  0  0  0
 13 53  1  0  0  0  0
 14 15  1  0  0  0  0
 14 37  2  0  0  0  0
 15 16  2  0  0  0  0
 15 54  1  0  0  0  0
 16 17  1  0  0  0  0
 16 55  1  0  0  0  0
 17 18  1  0  0  0  0
 17 36  1  0  0  0  0
 18 19  1  0  0  0  0
 18 34  2  0  0  0  0
 19 20  1  0  0  0  0
 19 33  2  0  0  0  0
 20 21  2  0  0  0  0
 20 56  1  0  0  0  0
 21 22  1  0  0  0  0
 21 57  1  0  0  0  0
 22 23  2  0  0  0  0
 22 58  1  0  0  0  0
 23 24  1  0  0  0  0
 23 33  1  0  0  0  0
 24 25  1  0  0  0  0
 24 59  1  0  0  0  0
 25 26  2  0  0  0  0
 25 27  1  0  0  0  0
 27 28  1  0  0  0  0
 27 60  1  0  0  0  0
 28 29  1  0  0  0  0
 28 61  1  0  0  0  0
 28 62  1  0  0  0  0
 29 30  1  0  0  0  0
 29 31  1  0  0  0  0
 29 32  1  0  0  0  0
 33 63  1  0  0  0  0
 34 35  1  0  0  0  0
 34 64  1  0  0  0  0
 35 36  2  0  0  0  0
 36 37  1  0  0  0  0
 37 65  1  0  0  0  0
M  END
$$$$
