CHEMBL1940174
 OpenBabel04072215363D

 58 63  0  0  1  0  0  0  0  0999 V2000
    0.9900    0.2820   -0.0678 C   0  0  0  0  0  0  0  0  0  0  0  0
    2.5353    0.2523   -0.0157 C   0  0  0  0  0  0  0  0  0  0  0  0
    3.1372    0.2091   -1.4381 C   0  0  0  0  0  0  0  0  0  0  0  0
    2.9640   -1.0071    0.7389 C   0  0  0  0  0  0  0  0  0  0  0  0
    2.4836   -2.2323    0.2870 C   0  0  0  0  0  0  0  0  0  0  0  0
    2.8276   -3.3980    0.9367 C   0  0  0  0  0  0  0  0  0  0  0  0
    3.7507   -3.4229    1.9839 C   0  0  0  0  0  0  0  0  0  0  0  0
    4.3221   -4.7458    2.4635 C   0  0  3  0  0  0  0  0  0  0  0  0
    3.2158   -5.6869    2.9373 C   0  0  0  0  0  0  0  0  0  0  0  0
    2.6290   -5.2767    4.2894 C   0  0  0  0  0  0  0  0  0  0  0  0
    3.6172   -4.9584    5.3377 N   0  0  3  0  0  0  0  0  0  0  0  0
    2.9644   -4.4073    6.5517 C   0  0  0  0  0  0  0  0  0  0  0  0
    3.7407   -3.9873    7.7739 C   0  0  0  0  0  0  0  0  0  0  0  0
    2.8885   -5.2182    7.8250 C   0  0  0  0  0  0  0  0  0  0  0  0
    4.8177   -4.2237    4.9144 C   0  0  0  0  0  0  0  0  0  0  0  0
    5.3908   -4.6435    3.5574 C   0  0  0  0  0  0  0  0  0  0  0  0
    4.2092   -2.2008    2.4709 C   0  0  0  0  0  0  0  0  0  0  0  0
    3.8071   -1.0043    1.8704 C   0  0  0  0  0  0  0  0  0  0  0  0
    4.3179    0.2548    2.4647 C   0  0  0  0  0  0  0  0  0  0  0  0
    5.0665    0.2482    3.4357 O   0  0  0  0  0  0  0  0  0  0  0  0
    3.8520    1.4641    1.8266 C   0  0  0  0  0  0  0  0  0  0  0  0
    3.0455    1.4599    0.7075 C   0  0  0  0  0  0  0  0  0  0  0  0
    2.7935    2.7598    0.3611 N   0  0  0  0  0  0  0  0  0  0  0  0
    3.4211    3.6040    1.2485 C   0  0  0  0  0  0  0  0  0  0  0  0
    3.4529    4.9971    1.3015 C   0  0  0  0  0  0  0  0  0  0  0  0
    4.1927    5.5849    2.3395 C   0  0  0  0  0  0  0  0  0  0  0  0
    4.2581    7.0015    2.4242 C   0  0  0  0  0  0  0  0  0  0  0  0
    4.2996    8.1726    2.4880 N   0  0  0  0  0  0  0  0  0  0  0  0
    4.8629    4.8072    3.2884 C   0  0  0  0  0  0  0  0  0  0  0  0
    4.8165    3.4169    3.2187 C   0  0  0  0  0  0  0  0  0  0  0  0
    4.0910    2.8086    2.1821 C   0  0  0  0  0  0  0  0  0  0  0  0
    0.5682   -0.5886   -0.5846 H   0  0  0  0  0  0  0  0  0  0  0  0
    0.6121    1.1648   -0.5911 H   0  0  0  0  0  0  0  0  0  0  0  0
    0.5664    0.2816    0.9453 H   0  0  0  0  0  0  0  0  0  0  0  0
    2.8268   -0.6818   -1.9975 H   0  0  0  0  0  0  0  0  0  0  0  0
    4.2348    0.1953   -1.4031 H   0  0  0  0  0  0  0  0  0  0  0  0
    2.8382    1.0806   -2.0303 H   0  0  0  0  0  0  0  0  0  0  0  0
    1.8532   -2.3095   -0.5960 H   0  0  0  0  0  0  0  0  0  0  0  0
    2.3822   -4.3024    0.5338 H   0  0  0  0  0  0  0  0  0  0  0  0
    4.8141   -5.1999    1.5888 H   0  0  0  0  0  0  0  0  0  0  0  0
    3.6219   -6.7018    3.0127 H   0  0  0  0  0  0  0  0  0  0  0  0
    2.4154   -5.7344    2.1914 H   0  0  0  0  0  0  0  0  0  0  0  0
    2.0211   -6.1175    4.6470 H   0  0  0  0  0  0  0  0  0  0  0  0
    1.9050   -4.4625    4.1336 H   0  0  0  0  0  0  0  0  0  0  0  0
    2.0800   -3.8042    6.3390 H   0  0  0  0  0  0  0  0  0  0  0  0
    3.3974   -3.1074    8.3077 H   0  0  0  0  0  0  0  0  0  0  0  0
    4.8110   -4.1308    7.8353 H   0  0  0  0  0  0  0  0  0  0  0  0
    1.9708   -5.1744    8.4008 H   0  0  0  0  0  0  0  0  0  0  0  0
    3.4061   -6.1688    7.9139 H   0  0  0  0  0  0  0  0  0  0  0  0
    5.6033   -4.3947    5.6582 H   0  0  0  0  0  0  0  0  0  0  0  0
    4.6723   -3.1366    4.9236 H   0  0  0  0  0  0  0  0  0  0  0  0
    5.8746   -5.6231    3.6720 H   0  0  0  0  0  0  0  0  0  0  0  0
    6.1889   -3.9482    3.2566 H   0  0  0  0  0  0  0  0  0  0  0  0
    4.9099   -2.1611    3.2919 H   0  0  0  0  0  0  0  0  0  0  0  0
    2.2307    3.0625   -0.4239 H   0  0  0  0  0  0  0  0  0  0  0  0
    2.9309    5.6034    0.5666 H   0  0  0  0  0  0  0  0  0  0  0  0
    5.4310    5.2716    4.0912 H   0  0  0  0  0  0  0  0  0  0  0  0
    5.3356    2.8051    3.9546 H   0  0  0  0  0  0  0  0  0  0  0  0
  1  2  1  0  0  0  0
  1 32  1  0  0  0  0
  1 33  1  0  0  0  0
  1 34  1  0  0  0  0
  2  3  1  0  0  0  0
  2  4  1  0  0  0  0
  2 22  1  0  0  0  0
  3 35  1  0  0  0  0
  3 36  1  0  0  0  0
  3 37  1  0  0  0  0
  4  5  1  0  0  0  0
  4 18  2  0  0  0  0
  5  6  2  0  0  0  0
  5 38  1  0  0  0  0
  6  7  1  0  0  0  0
  6 39  1  0  0  0  0
  7  8  1  0  0  0  0
  7 17  2  0  0  0  0
  8  9  1  0  0  0  0
  8 16  1  0  0  0  0
  8 40  1  0  0  0  0
  9 10  1  0  0  0  0
  9 41  1  0  0  0  0
  9 42  1  0  0  0  0
 10 11  1  0  0  0  0
 10 43  1  0  0  0  0
 10 44  1  0  0  0  0
 11 12  1  0  0  0  0
 11 15  1  0  0  0  0
 12 13  1  0  0  0  0
 12 14  1  0  0  0  0
 12 45  1  0  0  0  0
 13 14  1  0  0  0  0
 13 46  1  0  0  0  0
 13 47  1  0  0  0  0
 14 48  1  0  0  0  0
 14 49  1  0  0  0  0
 15 16  1  0  0  0  0
 15 50  1  0  0  0  0
 15 51  1  0  0  0  0
 16 52  1  0  0  0  0
 16 53  1  0  0  0  0
 17 18  1  0  0  0  0
 17 54  1  0  0  0  0
 18 19  1  0  0  0  0
 19 20  2  0  0  0  0
 19 21  1  0  0  0  0
 21 22  2  0  0  0  0
 21 31  1  0  0  0  0
 22 23  1  0  0  0  0
 23 24  1  0  0  0  0
 23 55  1  0  0  0  0
 24 25  1  0  0  0  0
 24 31  2  0  0  0  0
 25 26  2  0  0  0  0
 25 56  1  0  0  0  0
 26 27  1  0  0  0  0
 26 29  1  0  0  0  0
 27 28  3  0  0  0  0
 29 30  2  0  0  0  0
 29 57  1  0  0  0  0
 30 31  1  0  0  0  0
 30 58  1  0  0  0  0
M  END
$$$$
