CHEMBL199561
 OpenBabel04072215363D

 59 61  0  0  1  0  0  0  0  0999 V2000
    3.4951    0.2418    3.0956 C   0  0  0  0  0  0  0  0  0  0  0  0
    4.3965   -0.5086    2.1222 C   0  0  0  0  0  0  0  0  0  0  0  0
    5.2278    0.1506    1.2808 C   0  0  0  0  0  0  0  0  0  0  0  0
    4.5765    0.8395    0.0546 C   0  0  0  0  0  0  0  0  0  0  0  0
    3.1469    0.3218   -0.0668 C   0  0  2  0  0  0  0  0  0  0  0  0
    3.1290   -1.2302    0.0616 C   0  0  1  0  0  0  0  0  0  0  0  0
    3.6717   -1.6731    1.4549 C   0  0  0  0  0  0  0  0  0  0  0  0
    1.7276   -1.7226   -0.1065 C   0  0  0  0  0  0  0  0  0  0  0  0
    1.4006   -3.0691   -0.1649 C   0  0  0  0  0  0  0  0  0  0  0  0
    2.3476   -4.0216   -0.4270 O   0  0  0  0  0  0  0  0  0  0  0  0
    0.0765   -3.4812   -0.1287 C   0  0  0  0  0  0  0  0  0  0  0  0
   -0.9436   -2.5146   -0.0323 C   0  0  0  0  0  0  0  0  0  0  0  0
   -2.3496   -2.7769   -0.5893 C   0  0  0  0  0  0  0  0  0  0  0  0
   -2.6895   -4.2736   -0.7138 C   0  0  0  0  0  0  0  0  0  0  0  0
   -3.4403   -2.1092    0.2683 C   0  0  0  0  0  0  0  0  0  0  0  0
   -2.2301   -2.1242   -2.0086 C   0  0  0  0  0  0  0  0  0  0  0  0
   -3.4641   -2.1309   -2.8980 C   0  0  0  0  0  0  0  0  0  0  0  0
   -3.1205   -1.4101   -4.1995 C   0  0  0  0  0  0  0  0  0  0  0  0
   -4.3280   -1.4029   -5.1110 C   0  0  0  0  0  0  0  0  0  0  0  0
   -3.9042   -0.5115   -6.7837 Br  0  0  0  0  0  0  0  0  0  0  0  0
   -0.5936   -1.1683    0.1350 C   0  0  0  0  0  0  0  0  0  0  0  0
    0.7017   -0.7845   -0.1096 C   0  0  0  0  0  0  0  0  0  0  0  0
    0.8565    0.5268   -0.5080 O   0  0  0  0  0  0  0  0  0  0  0  0
    2.1486    0.8128   -1.1228 C   0  0  0  0  0  0  0  0  0  0  0  0
    2.1919    0.1919   -2.5328 C   0  0  0  0  0  0  0  0  0  0  0  0
    2.1914    2.3374   -1.2820 C   0  0  0  0  0  0  0  0  0  0  0  0
    3.6764    1.3236    3.0610 H   0  0  0  0  0  0  0  0  0  0  0  0
    2.4314    0.0926    2.8765 H   0  0  0  0  0  0  0  0  0  0  0  0
    3.6615   -0.1063    4.1194 H   0  0  0  0  0  0  0  0  0  0  0  0
    6.0339   -0.4741    0.8710 H   0  0  0  0  0  0  0  0  0  0  0  0
    5.1488    0.6055   -0.8509 H   0  0  0  0  0  0  0  0  0  0  0  0
    4.6071    1.9239    0.2071 H   0  0  0  0  0  0  0  0  0  0  0  0
    2.6707    0.7281    0.8421 H   0  0  0  0  0  0  0  0  0  0  0  0
    3.7686   -1.6603   -0.7358 H   0  0  0  0  0  0  0  0  0  0  0  0
    4.3401   -2.5355    1.3564 H   0  0  0  0  0  0  0  0  0  0  0  0
    2.8508   -2.0143    2.1062 H   0  0  0  0  0  0  0  0  0  0  0  0
    2.8243   -3.7164   -1.2175 H   0  0  0  0  0  0  0  0  0  0  0  0
   -0.1416   -4.5319   -0.2943 H   0  0  0  0  0  0  0  0  0  0  0  0
   -2.5620   -4.7878    0.2470 H   0  0  0  0  0  0  0  0  0  0  0  0
   -2.0543   -4.7753   -1.4517 H   0  0  0  0  0  0  0  0  0  0  0  0
   -3.7265   -4.4242   -1.0332 H   0  0  0  0  0  0  0  0  0  0  0  0
   -3.3767   -1.0165    0.2600 H   0  0  0  0  0  0  0  0  0  0  0  0
   -4.4446   -2.3635   -0.0919 H   0  0  0  0  0  0  0  0  0  0  0  0
   -3.3704   -2.4339    1.3142 H   0  0  0  0  0  0  0  0  0  0  0  0
   -1.9357   -1.0705   -1.9143 H   0  0  0  0  0  0  0  0  0  0  0  0
   -1.4046   -2.6053   -2.5528 H   0  0  0  0  0  0  0  0  0  0  0  0
   -4.2794   -1.6089   -2.3925 H   0  0  0  0  0  0  0  0  0  0  0  0
   -3.7704   -3.1531   -3.0992 H   0  0  0  0  0  0  0  0  0  0  0  0
   -2.2702   -1.9027   -4.6950 H   0  0  0  0  0  0  0  0  0  0  0  0
   -2.7953   -0.3788   -3.9950 H   0  0  0  0  0  0  0  0  0  0  0  0
   -4.6432   -2.4189   -5.3611 H   0  0  0  0  0  0  0  0  0  0  0  0
   -5.1623   -0.8586   -4.6609 H   0  0  0  0  0  0  0  0  0  0  0  0
   -1.3494   -0.3836    0.1786 H   0  0  0  0  0  0  0  0  0  0  0  0
    1.2017    0.2570   -3.0038 H   0  0  0  0  0  0  0  0  0  0  0  0
    2.9096    0.6997   -3.1853 H   0  0  0  0  0  0  0  0  0  0  0  0
    2.4525   -0.8695   -2.5364 H   0  0  0  0  0  0  0  0  0  0  0  0
    2.0926    2.8394   -0.3126 H   0  0  0  0  0  0  0  0  0  0  0  0
    3.1235    2.6663   -1.7543 H   0  0  0  0  0  0  0  0  0  0  0  0
    1.3530    2.6855   -1.8962 H   0  0  0  0  0  0  0  0  0  0  0  0
  1  2  1  0  0  0  0
  1 27  1  0  0  0  0
  1 28  1  0  0  0  0
  1 29  1  0  0  0  0
  2  3  2  3  0  0  0
  2  7  1  0  0  0  0
  3  4  1  0  0  0  0
  3 30  1  0  0  0  0
  4  5  1  0  0  0  0
  4 31  1  0  0  0  0
  4 32  1  0  0  0  0
  5  6  1  0  0  0  0
  5 24  1  0  0  0  0
  5 33  1  1  0  0  0
  6  7  1  0  0  0  0
  6  8  1  0  0  0  0
  6 34  1  6  0  0  0
  7 35  1  0  0  0  0
  7 36  1  0  0  0  0
  8  9  1  0  0  0  0
  8 22  2  0  0  0  0
  9 10  1  0  0  0  0
  9 11  2  0  0  0  0
 10 37  1  0  0  0  0
 11 12  1  0  0  0  0
 11 38  1  0  0  0  0
 12 13  1  0  0  0  0
 12 21  2  0  0  0  0
 13 14  1  0  0  0  0
 13 15  1  0  0  0  0
 13 16  1  0  0  0  0
 14 39  1  0  0  0  0
 14 40  1  0  0  0  0
 14 41  1  0  0  0  0
 15 42  1  0  0  0  0
 15 43  1  0  0  0  0
 15 44  1  0  0  0  0
 16 17  1  0  0  0  0
 16 45  1  0  0  0  0
 16 46  1  0  0  0  0
 17 18  1  0  0  0  0
 17 47  1  0  0  0  0
 17 48  1  0  0  0  0
 18 19  1  0  0  0  0
 18 49  1  0  0  0  0
 18 50  1  0  0  0  0
 19 20  1  0  0  0  0
 19 51  1  0  0  0  0
 19 52  1  0  0  0  0
 21 22  1  0  0  0  0
 21 53  1  0  0  0  0
 22 23  1  0  0  0  0
 23 24  1  0  0  0  0
 24 25  1  0  0  0  0
 24 26  1  0  0  0  0
 25 54  1  0  0  0  0
 25 55  1  0  0  0  0
 25 56  1  0  0  0  0
 26 57  1  0  0  0  0
 26 58  1  0  0  0  0
 26 59  1  0  0  0  0
M  END
$$$$
