CHEMBL3690436
 OpenBabel04072215373D

 64 68  0  0  0  0  0  0  0  0999 V2000
    1.1856   -0.3131    0.3308 C   0  0  0  0  0  0  0  0  0  0  0  0
    2.6557   -0.0628   -0.0598 C   0  0  0  0  0  0  0  0  0  0  0  0
    2.7987    1.4844   -0.1622 C   0  0  0  0  0  0  0  0  0  0  0  0
    3.6217   -0.5330    1.0547 C   0  0  0  0  0  0  0  0  0  0  0  0
    4.2565    0.2943    1.7256 O   0  0  0  0  0  0  0  0  0  0  0  0
    3.7481   -1.8526    1.3735 N   0  0  0  0  0  0  0  0  0  0  0  0
    4.5407   -2.4591    2.4346 C   0  0  0  0  0  0  0  0  0  0  0  0
    3.5637   -3.6347    2.3453 C   0  0  0  0  0  0  0  0  0  0  0  0
    3.1515   -3.1047    0.9659 C   0  0  0  0  0  0  0  0  0  0  0  0
    2.9692   -0.6927   -1.3601 N   0  0  0  0  0  0  0  0  0  0  0  0
    3.5724   -0.1031   -2.4449 C   0  0  0  0  0  0  0  0  0  0  0  0
    3.4954   -0.9924   -3.4947 C   0  0  0  0  0  0  0  0  0  0  0  0
    3.9308   -0.7241   -4.8363 C   0  0  0  0  0  0  0  0  0  0  0  0
    3.1485   -1.2167   -5.9812 C   0  0  0  0  0  0  0  0  0  0  0  0
    3.4189   -0.7795   -7.2246 C   0  0  0  0  0  0  0  0  0  0  0  0
    4.5688   -0.0230   -7.4474 N   0  0  0  0  0  0  0  0  0  0  0  0
    5.2193    0.3215   -8.6244 C   0  0  0  0  0  0  0  0  0  0  0  0
    4.9137   -0.1093   -9.9945 C   0  0  0  0  0  0  0  0  0  0  0  0
    5.1960    0.7636  -11.0542 C   0  0  0  0  0  0  0  0  0  0  0  0
    5.0422    0.3563  -12.3704 C   0  0  0  0  0  0  0  0  0  0  0  0
    4.5873   -0.9282  -12.6558 C   0  0  0  0  0  0  0  0  0  0  0  0
    4.2961   -1.8408  -11.6363 C   0  0  0  0  0  0  0  0  0  0  0  0
    3.8866   -3.1694  -11.8856 N   0  0  0  0  0  0  0  0  0  0  0  0
    3.7143   -3.7574  -13.1187 C   0  0  0  0  0  0  0  0  0  0  0  0
    3.8054   -3.2208  -14.2231 O   0  0  0  0  0  0  0  0  0  0  0  0
    3.4581   -5.1086  -13.0303 N   0  0  0  0  0  0  0  0  0  0  0  0
    3.2534   -5.8678  -14.2747 C   0  0  0  0  0  0  0  0  0  0  0  0
    1.8721   -5.7292  -14.9334 C   0  0  0  0  0  0  0  0  0  0  0  0
    0.9990   -5.0604  -14.1453 F   0  0  0  0  0  0  0  0  0  0  0  0
    1.9280   -5.1065  -16.1281 F   0  0  0  0  0  0  0  0  0  0  0  0
    1.3394   -6.9598  -15.1463 F   0  0  0  0  0  0  0  0  0  0  0  0
    4.4638   -1.4143  -10.3028 C   0  0  0  0  0  0  0  0  0  0  0  0
    6.3163    1.0556   -8.1937 C   0  0  0  0  0  0  0  0  0  0  0  0
    6.3868    1.1385   -6.8333 N   0  0  0  0  0  0  0  0  0  0  0  0
    5.3670    0.4333   -6.4028 C   0  0  0  0  0  0  0  0  0  0  0  0
    4.9914    0.0839   -5.0781 C   0  0  0  0  0  0  0  0  0  0  0  0
    2.8474   -2.1104   -2.9457 C   0  0  0  0  0  0  0  0  0  0  0  0
    2.4960   -1.9266   -1.6681 N   0  0  0  0  0  0  0  0  0  0  0  0
    0.9258    0.2231    1.2508 H   0  0  0  0  0  0  0  0  0  0  0  0
    0.9574   -1.3653    0.5060 H   0  0  0  0  0  0  0  0  0  0  0  0
    0.5095    0.0318   -0.4615 H   0  0  0  0  0  0  0  0  0  0  0  0
    2.5073    1.9755    0.7743 H   0  0  0  0  0  0  0  0  0  0  0  0
    2.1728    1.8977   -0.9605 H   0  0  0  0  0  0  0  0  0  0  0  0
    3.8373    1.7822   -0.3580 H   0  0  0  0  0  0  0  0  0  0  0  0
    4.5284   -1.9158    3.3822 H   0  0  0  0  0  0  0  0  0  0  0  0
    5.5682   -2.6797    2.1299 H   0  0  0  0  0  0  0  0  0  0  0  0
    2.7613   -3.5987    3.0915 H   0  0  0  0  0  0  0  0  0  0  0  0
    4.0131   -4.6309    2.3510 H   0  0  0  0  0  0  0  0  0  0  0  0
    2.0747   -3.0995    0.8085 H   0  0  0  0  0  0  0  0  0  0  0  0
    3.6689   -3.5777    0.1269 H   0  0  0  0  0  0  0  0  0  0  0  0
    3.9551    0.9056   -2.4118 H   0  0  0  0  0  0  0  0  0  0  0  0
    2.3426   -1.9226   -5.8139 H   0  0  0  0  0  0  0  0  0  0  0  0
    2.8072   -1.0329   -8.0801 H   0  0  0  0  0  0  0  0  0  0  0  0
    5.5770    1.7667  -10.8593 H   0  0  0  0  0  0  0  0  0  0  0  0
    5.3031    1.0301  -13.1865 H   0  0  0  0  0  0  0  0  0  0  0  0
    4.4989   -1.1937  -13.7062 H   0  0  0  0  0  0  0  0  0  0  0  0
    3.7879   -3.7631  -11.0807 H   0  0  0  0  0  0  0  0  0  0  0  0
    2.9434   -5.4200  -12.2197 H   0  0  0  0  0  0  0  0  0  0  0  0
    3.4378   -6.9171  -14.0251 H   0  0  0  0  0  0  0  0  0  0  0  0
    4.0242   -5.5692  -14.9960 H   0  0  0  0  0  0  0  0  0  0  0  0
    4.2908   -2.1265   -9.4987 H   0  0  0  0  0  0  0  0  0  0  0  0
    7.1008    1.4800   -8.8088 H   0  0  0  0  0  0  0  0  0  0  0  0
    5.5894    0.5059   -4.2772 H   0  0  0  0  0  0  0  0  0  0  0  0
    2.5848   -3.0440   -3.4237 H   0  0  0  0  0  0  0  0  0  0  0  0
  1  2  1  0  0  0  0
  1 39  1  0  0  0  0
  1 40  1  0  0  0  0
  1 41  1  0  0  0  0
  2  3  1  0  0  0  0
  2  4  1  0  0  0  0
  2 10  1  0  0  0  0
  3 42  1  0  0  0  0
  3 43  1  0  0  0  0
  3 44  1  0  0  0  0
  4  5  2  0  0  0  0
  4  6  1  0  0  0  0
  6  7  1  0  0  0  0
  6  9  1  0  0  0  0
  7  8  1  0  0  0  0
  7 45  1  0  0  0  0
  7 46  1  0  0  0  0
  8  9  1  0  0  0  0
  8 47  1  0  0  0  0
  8 48  1  0  0  0  0
  9 49  1  0  0  0  0
  9 50  1  0  0  0  0
 10 11  1  0  0  0  0
 10 38  1  0  0  0  0
 11 12  2  0  0  0  0
 11 51  1  0  0  0  0
 12 13  1  0  0  0  0
 12 37  1  0  0  0  0
 13 14  1  0  0  0  0
 13 36  2  0  0  0  0
 14 15  2  0  0  0  0
 14 52  1  0  0  0  0
 15 16  1  0  0  0  0
 15 53  1  0  0  0  0
 16 17  1  0  0  0  0
 16 35  1  0  0  0  0
 17 18  1  0  0  0  0
 17 33  2  0  0  0  0
 18 19  1  0  0  0  0
 18 32  2  0  0  0  0
 19 20  2  0  0  0  0
 19 54  1  0  0  0  0
 20 21  1  0  0  0  0
 20 55  1  0  0  0  0
 21 22  2  0  0  0  0
 21 56  1  0  0  0  0
 22 23  1  0  0  0  0
 22 32  1  0  0  0  0
 23 24  1  0  0  0  0
 23 57  1  0  0  0  0
 24 25  2  0  0  0  0
 24 26  1  0  0  0  0
 26 27  1  0  0  0  0
 26 58  1  0  0  0  0
 27 28  1  0  0  0  0
 27 59  1  0  0  0  0
 27 60  1  0  0  0  0
 28 29  1  0  0  0  0
 28 30  1  0  0  0  0
 28 31  1  0  0  0  0
 32 61  1  0  0  0  0
 33 34  1  0  0  0  0
 33 62  1  0  0  0  0
 34 35  2  0  0  0  0
 35 36  1  0  0  0  0
 36 63  1  0  0  0  0
 37 38  2  0  0  0  0
 37 64  1  0  0  0  0
M  END
$$$$
