CHEMBL1946170
 OpenBabel04072215363D

 48 50  0  0  0  0  0  0  0  0999 V2000
    1.8323    1.1155   -4.5098 C   0  0  0  0  0  0  0  0  0  0  0  0
    3.2014    0.9404   -4.1057 N   0  0  0  0  0  0  0  0  0  0  0  0
    3.5349    0.2038   -2.9890 C   0  0  0  0  0  0  0  0  0  0  0  0
    2.7105   -0.3650   -2.2818 O   0  0  0  0  0  0  0  0  0  0  0  0
    5.0018    0.1245   -2.6917 C   0  0  0  0  0  0  0  0  0  0  0  0
    5.4319   -0.6517   -1.6231 C   0  0  0  0  0  0  0  0  0  0  0  0
    6.8013   -0.8223   -1.4500 C   0  0  0  0  0  0  0  0  0  0  0  0
    7.3513   -1.6326   -0.4748 O   0  0  0  0  0  0  0  0  0  0  0  0
    6.7588   -2.8497   -0.1973 C   0  0  0  0  0  0  0  0  0  0  0  0
    6.0369   -3.5831   -1.1394 C   0  0  0  0  0  0  0  0  0  0  0  0
    5.3654   -4.7484   -0.7682 C   0  0  0  0  0  0  0  0  0  0  0  0
    5.4513   -5.2422    0.5332 C   0  0  0  0  0  0  0  0  0  0  0  0
    4.7196   -6.3761    0.9715 N   0  0  0  0  0  0  0  0  0  0  0  0
    3.6632   -6.9531    0.2833 C   0  0  0  0  0  0  0  0  0  0  0  0
    3.2478   -6.5789   -0.8092 O   0  0  0  0  0  0  0  0  0  0  0  0
    3.0614   -7.9802    0.9899 N   0  0  0  0  0  0  0  0  0  0  0  0
    1.9529   -8.6680    0.4398 C   0  0  0  0  0  0  0  0  0  0  0  0
    0.8285   -8.8628    1.2355 C   0  0  0  0  0  0  0  0  0  0  0  0
   -0.3021   -9.4792    0.6963 C   0  0  0  0  0  0  0  0  0  0  0  0
   -0.3048   -9.9565   -0.6222 C   0  0  0  0  0  0  0  0  0  0  0  0
   -1.7589  -10.7172   -1.1541 Cl  0  0  0  0  0  0  0  0  0  0  0  0
    0.8274   -9.8070   -1.4284 C   0  0  0  0  0  0  0  0  0  0  0  0
    0.9382  -10.3082   -2.8461 C   0  0  0  0  0  0  0  0  0  0  0  0
   -0.1033  -11.0489   -3.3090 F   0  0  0  0  0  0  0  0  0  0  0  0
    1.0901   -9.2937   -3.7438 F   0  0  0  0  0  0  0  0  0  0  0  0
    2.0359  -11.1053   -3.0112 F   0  0  0  0  0  0  0  0  0  0  0  0
    1.9475   -9.1371   -0.8811 C   0  0  0  0  0  0  0  0  0  0  0  0
    6.2843   -4.5664    1.4349 C   0  0  0  0  0  0  0  0  0  0  0  0
    6.4371   -5.0431    2.6807 F   0  0  0  0  0  0  0  0  0  0  0  0
    6.9257   -3.3721    1.0845 C   0  0  0  0  0  0  0  0  0  0  0  0
    7.6860   -0.1273   -2.2687 C   0  0  0  0  0  0  0  0  0  0  0  0
    7.1629    0.6628   -3.2830 C   0  0  0  0  0  0  0  0  0  0  0  0
    5.8434    0.7906   -3.5331 N   0  0  0  0  0  0  0  0  0  0  0  0
    1.8016    1.7363   -5.4076 H   0  0  0  0  0  0  0  0  0  0  0  0
    1.2794    1.5999   -3.6999 H   0  0  0  0  0  0  0  0  0  0  0  0
    1.3852    0.1383   -4.7131 H   0  0  0  0  0  0  0  0  0  0  0  0
    3.9646    1.3552   -4.6328 H   0  0  0  0  0  0  0  0  0  0  0  0
    4.7043   -1.1418   -0.9876 H   0  0  0  0  0  0  0  0  0  0  0  0
    5.9361   -3.2513   -2.1694 H   0  0  0  0  0  0  0  0  0  0  0  0
    4.7831   -5.2391   -1.5370 H   0  0  0  0  0  0  0  0  0  0  0  0
    4.9341   -6.7117    1.9013 H   0  0  0  0  0  0  0  0  0  0  0  0
    3.0577   -7.8527    1.9915 H   0  0  0  0  0  0  0  0  0  0  0  0
    0.7883   -8.4817    2.2517 H   0  0  0  0  0  0  0  0  0  0  0  0
   -1.1945   -9.5748    1.3117 H   0  0  0  0  0  0  0  0  0  0  0  0
    2.8299   -8.9910   -1.5068 H   0  0  0  0  0  0  0  0  0  0  0  0
    7.5404   -2.8556    1.8182 H   0  0  0  0  0  0  0  0  0  0  0  0
    8.7585   -0.2082   -2.1307 H   0  0  0  0  0  0  0  0  0  0  0  0
    7.8183    1.2171   -3.9498 H   0  0  0  0  0  0  0  0  0  0  0  0
  1  2  1  0  0  0  0
  1 34  1  0  0  0  0
  1 35  1  0  0  0  0
  1 36  1  0  0  0  0
  2  3  1  0  0  0  0
  2 37  1  0  0  0  0
  3  4  2  0  0  0  0
  3  5  1  0  0  0  0
  5  6  1  0  0  0  0
  5 33  2  0  0  0  0
  6  7  2  0  0  0  0
  6 38  1  0  0  0  0
  7  8  1  0  0  0  0
  7 31  1  0  0  0  0
  8  9  1  0  0  0  0
  9 10  1  0  0  0  0
  9 30  2  0  0  0  0
 10 11  2  0  0  0  0
 10 39  1  0  0  0  0
 11 12  1  0  0  0  0
 11 40  1  0  0  0  0
 12 13  1  0  0  0  0
 12 28  2  0  0  0  0
 13 14  1  0  0  0  0
 13 41  1  0  0  0  0
 14 15  2  0  0  0  0
 14 16  1  0  0  0  0
 16 17  1  0  0  0  0
 16 42  1  0  0  0  0
 17 18  1  0  0  0  0
 17 27  2  0  0  0  0
 18 19  2  0  0  0  0
 18 43  1  0  0  0  0
 19 20  1  0  0  0  0
 19 44  1  0  0  0  0
 20 21  1  0  0  0  0
 20 22  2  0  0  0  0
 22 23  1  0  0  0  0
 22 27  1  0  0  0  0
 23 24  1  0  0  0  0
 23 25  1  0  0  0  0
 23 26  1  0  0  0  0
 27 45  1  0  0  0  0
 28 29  1  0  0  0  0
 28 30  1  0  0  0  0
 30 46  1  0  0  0  0
 31 32  2  0  0  0  0
 31 47  1  0  0  0  0
 32 33  1  0  0  0  0
 32 48  1  0  0  0  0
M  END
$$$$
