CHEMBL315753
 OpenBabel04072215363D

 45 48  0  0  0  0  0  0  0  0999 V2000
    5.0832    0.4083   -2.3698 O   0  0  0  0  0  0  0  0  0  0  0  0
    4.9097    0.7413   -1.2071 C   0  0  0  0  0  0  0  0  0  0  0  0
    4.1438    1.8023   -0.8697 O   0  0  0  0  0  0  0  0  0  0  0  0
    5.5700    0.0655   -0.0381 C   0  0  0  0  0  0  0  0  0  0  0  0
    4.5591   -0.5631    0.9103 C   0  0  0  0  0  0  0  0  0  0  0  0
    5.2178   -1.3145    2.0268 C   0  0  0  0  0  0  0  0  0  0  0  0
    6.0438   -0.7926    3.0176 C   0  0  0  0  0  0  0  0  0  0  0  0
    6.5981    0.4843    3.2736 C   0  0  0  0  0  0  0  0  0  0  0  0
    5.9972    1.4215    4.0210 C   0  0  0  0  0  0  0  0  0  0  0  0
    4.6648    1.3153    4.7226 C   0  0  0  0  0  0  0  0  0  0  0  0
    3.8590    0.4074    4.7074 O   0  0  0  0  0  0  0  0  0  0  0  0
    4.5289    2.5089    5.4124 N   0  0  0  0  0  0  0  0  0  0  0  0
    5.6145    3.3491    5.2013 C   0  0  0  0  0  0  0  0  0  0  0  0
    5.7910    4.6084    5.7371 C   0  0  0  0  0  0  0  0  0  0  0  0
    6.9535    5.2955    5.3871 C   0  0  0  0  0  0  0  0  0  0  0  0
    7.8946    4.7152    4.5164 C   0  0  0  0  0  0  0  0  0  0  0  0
    7.6955    3.4313    3.9878 C   0  0  0  0  0  0  0  0  0  0  0  0
    6.5443    2.7493    4.3452 C   0  0  0  0  0  0  0  0  0  0  0  0
    6.3860   -1.8167    3.8712 N   0  0  0  0  0  0  0  0  0  0  0  0
    5.8416   -2.9840    3.4199 C   0  0  0  0  0  0  0  0  0  0  0  0
    5.1253   -2.7193    2.2719 C   0  0  0  0  0  0  0  0  0  0  0  0
    4.4479   -3.8014    1.4922 C   0  0  0  0  0  0  0  0  0  0  0  0
    4.3418   -5.1087    2.3033 C   0  0  0  0  0  0  0  0  0  0  0  0
    5.6305   -5.4232    3.0857 C   0  0  0  0  0  0  0  0  0  0  0  0
    5.9808   -4.3072    4.0854 C   0  0  0  0  0  0  0  0  0  0  0  0
    4.1148    1.9922    0.0871 H   0  0  0  0  0  0  0  0  0  0  0  0
    6.2050    0.8033    0.4631 H   0  0  0  0  0  0  0  0  0  0  0  0
    6.2396   -0.7091   -0.4319 H   0  0  0  0  0  0  0  0  0  0  0  0
    3.8924   -1.2279    0.3470 H   0  0  0  0  0  0  0  0  0  0  0  0
    3.9077    0.2052    1.3463 H   0  0  0  0  0  0  0  0  0  0  0  0
    7.5712    0.6838    2.8326 H   0  0  0  0  0  0  0  0  0  0  0  0
    3.7217    2.7117    5.9807 H   0  0  0  0  0  0  0  0  0  0  0  0
    5.0625    5.0497    6.4075 H   0  0  0  0  0  0  0  0  0  0  0  0
    7.1331    6.2905    5.7900 H   0  0  0  0  0  0  0  0  0  0  0  0
    8.7904    5.2761    4.2539 H   0  0  0  0  0  0  0  0  0  0  0  0
    8.4328    3.0011    3.3186 H   0  0  0  0  0  0  0  0  0  0  0  0
    6.9552   -1.7207    4.7011 H   0  0  0  0  0  0  0  0  0  0  0  0
    5.0366   -3.9910    0.5860 H   0  0  0  0  0  0  0  0  0  0  0  0
    3.4476   -3.4878    1.1750 H   0  0  0  0  0  0  0  0  0  0  0  0
    4.1066   -5.9383    1.6263 H   0  0  0  0  0  0  0  0  0  0  0  0
    3.5076   -5.0304    3.0123 H   0  0  0  0  0  0  0  0  0  0  0  0
    6.4569   -5.5502    2.3742 H   0  0  0  0  0  0  0  0  0  0  0  0
    5.5207   -6.3731    3.6212 H   0  0  0  0  0  0  0  0  0  0  0  0
    6.9960   -4.4532    4.4689 H   0  0  0  0  0  0  0  0  0  0  0  0
    5.2917   -4.3525    4.9376 H   0  0  0  0  0  0  0  0  0  0  0  0
  1  2  2  0  0  0  0
  2  3  1  0  0  0  0
  2  4  1  0  0  0  0
  3 26  1  0  0  0  0
  4  5  1  0  0  0  0
  4 27  1  0  0  0  0
  4 28  1  0  0  0  0
  5  6  1  0  0  0  0
  5 29  1  0  0  0  0
  5 30  1  0  0  0  0
  6  7  2  0  0  0  0
  6 21  1  0  0  0  0
  7  8  1  0  0  0  0
  7 19  1  0  0  0  0
  8  9  2  0  0  0  0
  8 31  1  0  0  0  0
  9 10  1  0  0  0  0
  9 18  1  0  0  0  0
 10 11  2  0  0  0  0
 10 12  1  0  0  0  0
 12 13  1  0  0  0  0
 12 32  1  0  0  0  0
 13 14  1  0  0  0  0
 13 18  2  0  0  0  0
 14 15  2  0  0  0  0
 14 33  1  0  0  0  0
 15 16  1  0  0  0  0
 15 34  1  0  0  0  0
 16 17  2  0  0  0  0
 16 35  1  0  0  0  0
 17 18  1  0  0  0  0
 17 36  1  0  0  0  0
 19 20  1  0  0  0  0
 19 37  1  0  0  0  0
 20 21  2  0  0  0  0
 20 25  1  0  0  0  0
 21 22  1  0  0  0  0
 22 23  1  0  0  0  0
 22 38  1  0  0  0  0
 22 39  1  0  0  0  0
 23 24  1  0  0  0  0
 23 40  1  0  0  0  0
 23 41  1  0  0  0  0
 24 25  1  0  0  0  0
 24 42  1  0  0  0  0
 24 43  1  0  0  0  0
 25 44  1  0  0  0  0
 25 45  1  0  0  0  0
M  END
$$$$
