CHEMBL205710
 OpenBabel04072215363D

 50 53  0  0  1  0  0  0  0  0999 V2000
    5.1158    0.4446   -2.6974 C   0  0  0  0  0  0  0  0  0  0  0  0
    5.6789    0.7010   -1.4199 O   0  0  0  0  0  0  0  0  0  0  0  0
    6.1858   -0.4956   -0.8239 C   0  0  0  0  0  0  0  0  0  0  0  0
    6.7776   -0.1745    0.5530 C   0  0  1  0  0  0  0  0  0  0  0  0
    5.7690    0.3166    1.4443 O   0  0  0  0  0  0  0  0  0  0  0  0
    7.4411   -1.4047    1.1761 C   0  0  0  0  0  0  0  0  0  0  0  0
    6.5178   -2.5065    1.2496 O   0  0  0  0  0  0  0  0  0  0  0  0
    7.0548   -3.6096    1.8281 C   0  0  0  0  0  0  0  0  0  0  0  0
    8.0582   -3.6190    2.7742 C   0  0  0  0  0  0  0  0  0  0  0  0
    8.3246   -4.9148    3.0855 N   0  0  0  0  0  0  0  0  0  0  0  0
    9.2819   -5.3174    3.9390 N   0  0  0  0  0  0  0  0  0  0  0  0
    9.3751   -6.6009    4.0713 C   0  0  0  0  0  0  0  0  0  0  0  0
    8.6182   -7.5469    3.4357 N   0  0  0  0  0  0  0  0  0  0  0  0
    7.7133   -7.1245    2.6111 C   0  0  0  0  0  0  0  0  0  0  0  0
    6.9059   -7.9386    1.8448 O   0  0  0  0  0  0  0  0  0  0  0  0
    7.3306   -9.2566    1.5845 C   0  0  0  0  0  0  0  0  0  0  0  0
    8.6541   -9.5369    1.2446 C   0  0  0  0  0  0  0  0  0  0  0  0
    9.0519  -10.8392    0.9318 C   0  0  0  0  0  0  0  0  0  0  0  0
    8.0681  -11.8368    0.9385 C   0  0  0  0  0  0  0  0  0  0  0  0
    8.1690  -13.1801    0.6654 N   0  0  0  0  0  0  0  0  0  0  0  0
    6.9426  -13.7841    0.7761 C   0  0  0  0  0  0  0  0  0  0  0  0
    6.7457  -15.2348    0.5390 C   0  0  0  0  0  0  0  0  0  0  0  0
    6.0322  -12.8065    1.1237 C   0  0  0  0  0  0  0  0  0  0  0  0
    6.7296  -11.5736    1.2391 C   0  0  0  0  0  0  0  0  0  0  0  0
    6.3550  -10.2578    1.5641 C   0  0  0  0  0  0  0  0  0  0  0  0
    5.0784   -9.9594    1.8407 F   0  0  0  0  0  0  0  0  0  0  0  0
    7.4975   -5.7387    2.3828 C   0  0  0  0  0  0  0  0  0  0  0  0
    6.6685   -4.9634    1.5799 C   0  0  0  0  0  0  0  0  0  0  0  0
    5.6185   -5.4144    0.6241 C   0  0  0  0  0  0  0  0  0  0  0  0
    4.6911    1.3752   -3.0819 H   0  0  0  0  0  0  0  0  0  0  0  0
    4.3182   -0.3016   -2.6253 H   0  0  0  0  0  0  0  0  0  0  0  0
    5.8913    0.1010   -3.3884 H   0  0  0  0  0  0  0  0  0  0  0  0
    6.9655   -0.9113   -1.4726 H   0  0  0  0  0  0  0  0  0  0  0  0
    5.3651   -1.2152   -0.7302 H   0  0  0  0  0  0  0  0  0  0  0  0
    7.5187    0.6275    0.4576 H   0  0  0  0  0  0  0  0  0  0  0  0
    5.0863   -0.3698    1.5149 H   0  0  0  0  0  0  0  0  0  0  0  0
    7.7730   -1.1210    2.1809 H   0  0  0  0  0  0  0  0  0  0  0  0
    8.3015   -1.7049    0.5648 H   0  0  0  0  0  0  0  0  0  0  0  0
    8.6192   -2.8309    3.2495 H   0  0  0  0  0  0  0  0  0  0  0  0
   10.1503   -6.9885    4.7534 H   0  0  0  0  0  0  0  0  0  0  0  0
    9.4016   -8.7440    1.2181 H   0  0  0  0  0  0  0  0  0  0  0  0
   10.0875  -11.0585    0.6889 H   0  0  0  0  0  0  0  0  0  0  0  0
    9.0291  -13.6508    0.4187 H   0  0  0  0  0  0  0  0  0  0  0  0
    7.6829  -15.7333    0.2724 H   0  0  0  0  0  0  0  0  0  0  0  0
    6.0316  -15.3942   -0.2756 H   0  0  0  0  0  0  0  0  0  0  0  0
    6.3512  -15.7135    1.4412 H   0  0  0  0  0  0  0  0  0  0  0  0
    4.9725  -12.9571    1.2879 H   0  0  0  0  0  0  0  0  0  0  0  0
    5.6262   -6.4959    0.4666 H   0  0  0  0  0  0  0  0  0  0  0  0
    5.7682   -4.9516   -0.3566 H   0  0  0  0  0  0  0  0  0  0  0  0
    4.6236   -5.1423    0.9896 H   0  0  0  0  0  0  0  0  0  0  0  0
  1  2  1  0  0  0  0
  1 30  1  0  0  0  0
  1 31  1  0  0  0  0
  1 32  1  0  0  0  0
  2  3  1  0  0  0  0
  3  4  1  0  0  0  0
  3 33  1  0  0  0  0
  3 34  1  0  0  0  0
  4  5  1  0  0  0  0
  4  6  1  0  0  0  0
  4 35  1  6  0  0  0
  5 36  1  0  0  0  0
  6  7  1  0  0  0  0
  6 37  1  0  0  0  0
  6 38  1  0  0  0  0
  7  8  1  0  0  0  0
  8  9  2  0  0  0  0
  8 28  1  0  0  0  0
  9 10  1  0  0  0  0
  9 39  1  0  0  0  0
 10 11  1  0  0  0  0
 10 27  1  0  0  0  0
 11 12  2  0  0  0  0
 12 13  1  0  0  0  0
 12 40  1  0  0  0  0
 13 14  2  0  0  0  0
 14 15  1  0  0  0  0
 14 27  1  0  0  0  0
 15 16  1  0  0  0  0
 16 17  1  0  0  0  0
 16 25  2  0  0  0  0
 17 18  2  0  0  0  0
 17 41  1  0  0  0  0
 18 19  1  0  0  0  0
 18 42  1  0  0  0  0
 19 20  1  0  0  0  0
 19 24  2  0  0  0  0
 20 21  1  0  0  0  0
 20 43  1  0  0  0  0
 21 22  1  0  0  0  0
 21 23  2  0  0  0  0
 22 44  1  0  0  0  0
 22 45  1  0  0  0  0
 22 46  1  0  0  0  0
 23 24  1  0  0  0  0
 23 47  1  0  0  0  0
 24 25  1  0  0  0  0
 25 26  1  0  0  0  0
 27 28  2  0  0  0  0
 28 29  1  0  0  0  0
 29 48  1  0  0  0  0
 29 49  1  0  0  0  0
 29 50  1  0  0  0  0
M  END
$$$$
