CHEMBL3353358
 OpenBabel04072215363D

 68 74  0  0  1  0  0  0  0  0999 V2000
    6.9986   -5.0108    5.2749 C   0  0  0  0  0  0  0  0  0  0  0  0
    7.1857   -4.6734    6.6427 O   0  0  0  0  0  0  0  0  0  0  0  0
    6.5537   -3.5533    7.1106 C   0  0  0  0  0  0  0  0  0  0  0  0
    6.7806   -3.3084    8.4812 C   0  0  0  0  0  0  0  0  0  0  0  0
    6.2198   -2.2065    9.1220 C   0  0  0  0  0  0  0  0  0  0  0  0
    5.4026   -1.3995    8.3637 C   0  0  0  0  0  0  0  0  0  0  0  0
    5.1041   -1.6408    7.0100 C   0  0  0  0  0  0  0  0  0  0  0  0
    5.7319   -2.6968    6.3630 C   0  0  0  0  0  0  0  0  0  0  0  0
    4.1494   -0.5734    6.5653 C   0  0  1  0  0  0  0  0  0  0  0  0
    4.0604   -0.0595    5.1657 C   0  0  0  0  0  0  0  0  0  0  0  0
    2.8705   -0.7878    5.7872 C   0  0  1  0  0  0  0  0  0  0  0  0
    2.3835   -2.0180    5.0534 C   0  0  0  0  0  0  0  0  0  0  0  0
    1.9735   -1.8501    3.7140 C   0  0  0  0  0  0  0  0  0  0  0  0
    1.4584   -2.8887    2.9360 C   0  0  0  0  0  0  0  0  0  0  0  0
    1.3171   -4.1565    3.5101 C   0  0  0  0  0  0  0  0  0  0  0  0
    0.8732   -5.4322    3.0550 C   0  0  0  0  0  0  0  0  0  0  0  0
    0.5025   -5.7283    1.6865 C   0  0  0  0  0  0  0  0  0  0  0  0
    0.1259   -6.9415    1.2539 C   0  0  0  0  0  0  0  0  0  0  0  0
   -0.1196   -7.4123   -0.1252 C   0  0  0  0  0  0  0  0  0  0  0  0
    0.2255   -8.7450   -0.3700 C   0  0  0  0  0  0  0  0  0  0  0  0
    0.0050   -9.3367   -1.6154 C   0  0  0  0  0  0  0  0  0  0  0  0
    0.4063  -10.6024   -1.7828 F   0  0  0  0  0  0  0  0  0  0  0  0
   -0.5768   -8.6435   -2.6722 C   0  0  0  0  0  0  0  0  0  0  0  0
   -0.6698   -9.2937   -4.0287 C   0  0  0  0  0  0  0  0  0  0  0  0
   -1.7839  -10.1817   -4.3588 N   0  0  0  0  0  0  0  0  0  0  0  0
   -3.0878   -9.5655   -4.5923 C   0  0  0  0  0  0  0  0  0  0  0  0
   -3.9785   -9.5223   -3.3462 C   0  0  0  0  0  0  0  0  0  0  0  0
   -4.1468  -10.8270   -2.7782 O   0  0  0  0  0  0  0  0  0  0  0  0
   -2.8854  -11.4204   -2.4424 C   0  0  0  0  0  0  0  0  0  0  0  0
   -1.9149  -11.4496   -3.6363 C   0  0  0  0  0  0  0  0  0  0  0  0
   -0.9144   -7.3079   -2.4270 C   0  0  0  0  0  0  0  0  0  0  0  0
   -1.4455   -6.5701   -3.4172 F   0  0  0  0  0  0  0  0  0  0  0  0
   -0.6952   -6.6862   -1.1751 C   0  0  0  0  0  0  0  0  0  0  0  0
    0.9089   -6.3274    4.0527 N   0  0  0  0  0  0  0  0  0  0  0  0
    1.3776   -5.6349    5.1136 N   0  0  0  0  0  0  0  0  0  0  0  0
    1.6759   -4.3216    4.8443 C   0  0  0  0  0  0  0  0  0  0  0  0
    2.2041   -3.2848    5.6413 C   0  0  0  0  0  0  0  0  0  0  0  0
    4.0716    0.3649    7.7551 C   0  0  0  0  0  0  0  0  0  0  0  0
    3.4727    1.4268    7.7770 O   0  0  0  0  0  0  0  0  0  0  0  0
    4.7837   -0.2216    8.7811 N   0  0  0  0  0  0  0  0  0  0  0  0
    7.3413   -6.0412    5.1393 H   0  0  0  0  0  0  0  0  0  0  0  0
    7.6097   -4.3621    4.6399 H   0  0  0  0  0  0  0  0  0  0  0  0
    5.9461   -4.9807    4.9770 H   0  0  0  0  0  0  0  0  0  0  0  0
    7.4151   -3.9894    9.0455 H   0  0  0  0  0  0  0  0  0  0  0  0
    6.4189   -2.0042   10.1673 H   0  0  0  0  0  0  0  0  0  0  0  0
    5.5715   -2.8318    5.3000 H   0  0  0  0  0  0  0  0  0  0  0  0
    4.6318   -0.5612    4.3925 H   0  0  0  0  0  0  0  0  0  0  0  0
    3.9613    1.0087    5.0072 H   0  0  0  0  0  0  0  0  0  0  0  0
    2.0457   -0.1472    6.1072 H   0  0  0  0  0  0  0  0  0  0  0  0
    2.0472   -0.8630    3.2609 H   0  0  0  0  0  0  0  0  0  0  0  0
    1.1623   -2.7037    1.9101 H   0  0  0  0  0  0  0  0  0  0  0  0
    0.6093   -4.9174    0.9705 H   0  0  0  0  0  0  0  0  0  0  0  0
    0.0578   -7.7321    2.0028 H   0  0  0  0  0  0  0  0  0  0  0  0
    0.7010   -9.3463    0.3989 H   0  0  0  0  0  0  0  0  0  0  0  0
    0.2573   -9.8653   -4.1802 H   0  0  0  0  0  0  0  0  0  0  0  0
   -0.6058   -8.5158   -4.8001 H   0  0  0  0  0  0  0  0  0  0  0  0
   -3.5970  -10.1890   -5.3411 H   0  0  0  0  0  0  0  0  0  0  0  0
   -2.9918   -8.5730   -5.0438 H   0  0  0  0  0  0  0  0  0  0  0  0
   -4.9746   -9.1673   -3.6308 H   0  0  0  0  0  0  0  0  0  0  0  0
   -3.5869   -8.8379   -2.5871 H   0  0  0  0  0  0  0  0  0  0  0  0
   -3.0971  -12.4496   -2.1303 H   0  0  0  0  0  0  0  0  0  0  0  0
   -2.4600  -10.8995   -1.5797 H   0  0  0  0  0  0  0  0  0  0  0  0
   -2.3218  -12.1719   -4.3580 H   0  0  0  0  0  0  0  0  0  0  0  0
   -0.9440  -11.8599   -3.3396 H   0  0  0  0  0  0  0  0  0  0  0  0
   -0.9793   -5.6457   -1.0555 H   0  0  0  0  0  0  0  0  0  0  0  0
    1.4827   -6.1254    5.9990 H   0  0  0  0  0  0  0  0  0  0  0  0
    2.4559   -3.4521    6.6875 H   0  0  0  0  0  0  0  0  0  0  0  0
    4.8819    0.2062    9.6883 H   0  0  0  0  0  0  0  0  0  0  0  0
  1  2  1  0  0  0  0
  1 41  1  0  0  0  0
  1 42  1  0  0  0  0
  1 43  1  0  0  0  0
  2  3  1  0  0  0  0
  3  4  1  0  0  0  0
  3  8  2  0  0  0  0
  4  5  2  0  0  0  0
  4 44  1  0  0  0  0
  5  6  1  0  0  0  0
  5 45  1  0  0  0  0
  6  7  2  0  0  0  0
  6 40  1  0  0  0  0
  7  8  1  0  0  0  0
  8 46  1  0  0  0  0
  9  7  1  1  0  0  0
  9 10  1  0  0  0  0
  9 11  1  0  0  0  0
  9 38  1  0  0  0  0
 10 11  1  0  0  0  0
 10 47  1  0  0  0  0
 10 48  1  0  0  0  0
 11 12  1  0  0  0  0
 11 49  1  1  0  0  0
 12 13  1  0  0  0  0
 12 37  2  0  0  0  0
 13 14  2  0  0  0  0
 13 50  1  0  0  0  0
 14 15  1  0  0  0  0
 14 51  1  0  0  0  0
 15 16  1  0  0  0  0
 15 36  2  0  0  0  0
 16 17  1  0  0  0  0
 16 34  2  0  0  0  0
 17 18  2  0  0  0  0
 17 52  1  0  0  0  0
 18 19  1  0  0  0  0
 18 53  1  0  0  0  0
 19 20  1  0  0  0  0
 19 33  2  0  0  0  0
 20 21  2  0  0  0  0
 20 54  1  0  0  0  0
 21 22  1  0  0  0  0
 21 23  1  0  0  0  0
 23 24  1  0  0  0  0
 23 31  2  0  0  0  0
 24 25  1  0  0  0  0
 24 55  1  0  0  0  0
 24 56  1  0  0  0  0
 25 26  1  0  0  0  0
 25 30  1  0  0  0  0
 26 27  1  0  0  0  0
 26 57  1  0  0  0  0
 26 58  1  0  0  0  0
 27 28  1  0  0  0  0
 27 59  1  0  0  0  0
 27 60  1  0  0  0  0
 28 29  1  0  0  0  0
 29 30  1  0  0  0  0
 29 61  1  0  0  0  0
 29 62  1  0  0  0  0
 30 63  1  0  0  0  0
 30 64  1  0  0  0  0
 31 32  1  0  0  0  0
 31 33  1  0  0  0  0
 33 65  1  0  0  0  0
 34 35  1  0  0  0  0
 35 36  1  0  0  0  0
 35 66  1  0  0  0  0
 36 37  1  0  0  0  0
 37 67  1  0  0  0  0
 38 39  2  0  0  0  0
 38 40  1  0  0  0  0
 40 68  1  0  0  0  0
M  END
$$$$
