CHEMBL3323601
 OpenBabel04072215363D

 42 46  0  0  0  0  0  0  0  0999 V2000
    2.1934    0.1595   -0.0460 F   0  0  0  0  0  0  0  0  0  0  0  0
    0.8533    0.1225   -0.0456 C   0  0  0  0  0  0  0  0  0  0  0  0
    0.1690    0.2010   -1.2517 C   0  0  0  0  0  0  0  0  0  0  0  0
   -1.2274    0.1645   -1.2532 C   0  0  0  0  0  0  0  0  0  0  0  0
   -1.9354    0.0490   -0.0462 C   0  0  0  0  0  0  0  0  0  0  0  0
   -3.3957    0.0063   -0.0131 C   0  0  0  0  0  0  0  0  0  0  0  0
   -4.1413   -0.5833    0.9046 N   0  0  0  0  0  0  0  0  0  0  0  0
   -5.4438   -0.3623    0.5352 C   0  0  0  0  0  0  0  0  0  0  0  0
   -6.6367   -0.7738    1.1424 C   0  0  0  0  0  0  0  0  0  0  0  0
   -7.8520   -0.3901    0.5549 C   0  0  0  0  0  0  0  0  0  0  0  0
   -7.8892    0.3746   -0.6214 C   0  0  0  0  0  0  0  0  0  0  0  0
   -9.1496    0.7629   -1.1355 N   0  0  0  0  0  0  0  0  0  0  0  0
   -9.4990    1.0003   -2.4930 C   0  0  0  0  0  0  0  0  0  0  0  0
   -8.8895    0.2396   -3.4979 C   0  0  0  0  0  0  0  0  0  0  0  0
   -9.2903    0.4087   -4.8051 C   0  0  0  0  0  0  0  0  0  0  0  0
  -10.2670    1.2524   -5.1809 N   0  0  0  0  0  0  0  0  0  0  0  0
  -10.8839    1.9678   -4.2284 C   0  0  0  0  0  0  0  0  0  0  0  0
  -11.9191    2.8019   -4.6268 C   0  0  0  0  0  0  0  0  0  0  0  0
  -12.6236    3.5932   -3.7193 C   0  0  0  0  0  0  0  0  0  0  0  0
  -12.2772    3.5684   -2.3779 C   0  0  0  0  0  0  0  0  0  0  0  0
  -11.2446    2.7340   -1.9488 C   0  0  0  0  0  0  0  0  0  0  0  0
  -10.5386    1.9015   -2.8570 C   0  0  0  0  0  0  0  0  0  0  0  0
   -6.6943    0.8049   -1.2183 C   0  0  0  0  0  0  0  0  0  0  0  0
   -5.5023    0.4028   -0.6194 C   0  0  0  0  0  0  0  0  0  0  0  0
   -4.1934    0.6260   -0.9456 N   0  0  0  0  0  0  0  0  0  0  0  0
   -1.2204   -0.0372    1.1581 C   0  0  0  0  0  0  0  0  0  0  0  0
    0.1748    0.0044    1.1593 C   0  0  0  0  0  0  0  0  0  0  0  0
    0.7238    0.2809   -2.1811 H   0  0  0  0  0  0  0  0  0  0  0  0
   -1.7442    0.2025   -2.2068 H   0  0  0  0  0  0  0  0  0  0  0  0
   -6.6123   -1.3760    2.0436 H   0  0  0  0  0  0  0  0  0  0  0  0
   -8.7816   -0.7168    1.0163 H   0  0  0  0  0  0  0  0  0  0  0  0
   -9.5975    1.3941   -0.4814 H   0  0  0  0  0  0  0  0  0  0  0  0
   -8.1267   -0.4959   -3.2676 H   0  0  0  0  0  0  0  0  0  0  0  0
   -8.8327   -0.1619   -5.6079 H   0  0  0  0  0  0  0  0  0  0  0  0
  -12.1906    2.8302   -5.6798 H   0  0  0  0  0  0  0  0  0  0  0  0
  -13.4361    4.2253   -4.0671 H   0  0  0  0  0  0  0  0  0  0  0  0
  -12.8094    4.1916   -1.6637 H   0  0  0  0  0  0  0  0  0  0  0  0
  -11.0002    2.7515   -0.8918 H   0  0  0  0  0  0  0  0  0  0  0  0
   -6.6936    1.4326   -2.1021 H   0  0  0  0  0  0  0  0  0  0  0  0
   -3.8672    1.1718   -1.7280 H   0  0  0  0  0  0  0  0  0  0  0  0
   -1.7560   -0.1322    2.1022 H   0  0  0  0  0  0  0  0  0  0  0  0
    0.7293   -0.0591    2.0899 H   0  0  0  0  0  0  0  0  0  0  0  0
  1  2  1  0  0  0  0
  2  3  1  0  0  0  0
  2 27  2  0  0  0  0
  3  4  2  0  0  0  0
  3 28  1  0  0  0  0
  4  5  1  0  0  0  0
  4 29  1  0  0  0  0
  5  6  1  0  0  0  0
  5 26  2  0  0  0  0
  6  7  2  0  0  0  0
  6 25  1  0  0  0  0
  7  8  1  0  0  0  0
  8  9  1  0  0  0  0
  8 24  2  0  0  0  0
  9 10  2  0  0  0  0
  9 30  1  0  0  0  0
 10 11  1  0  0  0  0
 10 31  1  0  0  0  0
 11 12  1  0  0  0  0
 11 23  2  0  0  0  0
 12 13  1  0  0  0  0
 12 32  1  0  0  0  0
 13 14  1  0  0  0  0
 13 22  2  0  0  0  0
 14 15  2  0  0  0  0
 14 33  1  0  0  0  0
 15 16  1  0  0  0  0
 15 34  1  0  0  0  0
 16 17  2  0  0  0  0
 17 18  1  0  0  0  0
 17 22  1  0  0  0  0
 18 19  2  0  0  0  0
 18 35  1  0  0  0  0
 19 20  1  0  0  0  0
 19 36  1  0  0  0  0
 20 21  2  0  0  0  0
 20 37  1  0  0  0  0
 21 22  1  0  0  0  0
 21 38  1  0  0  0  0
 23 24  1  0  0  0  0
 23 39  1  0  0  0  0
 24 25  1  0  0  0  0
 25 40  1  0  0  0  0
 26 27  1  0  0  0  0
 26 41  1  0  0  0  0
 27 42  1  0  0  0  0
M  END
$$$$
