CHEMBL475704
 OpenBabel04072215383D

 39 41  0  0  0  0  0  0  0  0999 V2000
    1.2802   -0.7010    0.6898 O   0  0  0  0  0  0  0  0  0  0  0  0
    2.2035   -0.1540    0.0856 C   0  0  0  0  0  0  0  0  0  0  0  0
    2.5870   -0.4639   -1.2106 N   0  0  0  0  0  0  0  0  0  0  0  0
    1.9176   -1.3899   -2.0387 C   0  0  0  0  0  0  0  0  0  0  0  0
    0.5951   -1.7725   -1.7952 C   0  0  0  0  0  0  0  0  0  0  0  0
   -0.0159   -2.7758   -2.5430 C   0  0  0  0  0  0  0  0  0  0  0  0
    0.6790   -3.4113   -3.5738 C   0  0  0  0  0  0  0  0  0  0  0  0
    0.0406   -4.5553   -4.3213 C   0  0  0  0  0  0  0  0  0  0  0  0
   -1.2051   -4.8730   -3.8656 F   0  0  0  0  0  0  0  0  0  0  0  0
   -0.1043   -4.2992   -5.6497 F   0  0  0  0  0  0  0  0  0  0  0  0
    0.7678   -5.7034   -4.2350 F   0  0  0  0  0  0  0  0  0  0  0  0
    1.9789   -2.9722   -3.8770 C   0  0  0  0  0  0  0  0  0  0  0  0
    2.5909   -1.9580   -3.1225 C   0  0  0  0  0  0  0  0  0  0  0  0
    2.9996    0.8934    0.7501 C   0  0  0  0  0  0  0  0  0  0  0  0
    3.9928    1.5207    0.1078 N   0  0  0  0  0  0  0  0  0  0  0  0
    4.6238    2.6832    1.1116 S   0  0  0  0  0  0  0  0  0  0  0  0
    3.5873    2.3797    2.4349 C   0  0  0  0  0  0  0  0  0  0  0  0
    2.7465    1.3410    2.1076 C   0  0  0  0  0  0  0  0  0  0  0  0
    1.8244    0.7676    2.9347 N   0  0  0  0  0  0  0  0  0  0  0  0
    1.0907    1.4700    3.9720 C   0  0  0  0  0  0  0  0  0  0  0  0
    1.3173    0.7989    5.3005 C   0  0  0  0  0  0  0  0  0  0  0  0
    2.6035    0.7201    5.8446 C   0  0  0  0  0  0  0  0  0  0  0  0
    2.7733    0.1140    7.0785 C   0  0  0  0  0  0  0  0  0  0  0  0
    1.7619   -0.4073    7.8032 N   0  0  0  0  0  0  0  0  0  0  0  0
    0.5282   -0.3281    7.2616 C   0  0  0  0  0  0  0  0  0  0  0  0
    0.2572    0.2570    6.0330 C   0  0  0  0  0  0  0  0  0  0  0  0
    3.4841   -0.0817   -1.5073 H   0  0  0  0  0  0  0  0  0  0  0  0
   -0.0007   -1.3033   -1.0190 H   0  0  0  0  0  0  0  0  0  0  0  0
   -1.0349   -3.0670   -2.2922 H   0  0  0  0  0  0  0  0  0  0  0  0
    2.5321   -3.4406   -4.6903 H   0  0  0  0  0  0  0  0  0  0  0  0
    3.6093   -1.6636   -3.3651 H   0  0  0  0  0  0  0  0  0  0  0  0
    3.6668    2.9364    3.3567 H   0  0  0  0  0  0  0  0  0  0  0  0
    1.2967   -0.0330    2.5621 H   0  0  0  0  0  0  0  0  0  0  0  0
    0.0251    1.4433    3.7111 H   0  0  0  0  0  0  0  0  0  0  0  0
    1.3615    2.5289    4.0452 H   0  0  0  0  0  0  0  0  0  0  0  0
    3.4625    1.1114    5.3106 H   0  0  0  0  0  0  0  0  0  0  0  0
    3.7589    0.0297    7.5276 H   0  0  0  0  0  0  0  0  0  0  0  0
   -0.2666   -0.7629    7.8623 H   0  0  0  0  0  0  0  0  0  0  0  0
   -0.7622    0.2817    5.6629 H   0  0  0  0  0  0  0  0  0  0  0  0
  1  2  2  0  0  0  0
  2  3  1  0  0  0  0
  2 14  1  0  0  0  0
  3  4  1  0  0  0  0
  3 27  1  0  0  0  0
  4  5  1  0  0  0  0
  4 13  2  0  0  0  0
  5  6  2  0  0  0  0
  5 28  1  0  0  0  0
  6  7  1  0  0  0  0
  6 29  1  0  0  0  0
  7  8  1  0  0  0  0
  7 12  2  0  0  0  0
  8  9  1  0  0  0  0
  8 10  1  0  0  0  0
  8 11  1  0  0  0  0
 12 13  1  0  0  0  0
 12 30  1  0  0  0  0
 13 31  1  0  0  0  0
 14 15  2  0  0  0  0
 14 18  1  0  0  0  0
 15 16  1  0  0  0  0
 16 17  1  0  0  0  0
 17 18  2  0  0  0  0
 17 32  1  0  0  0  0
 18 19  1  0  0  0  0
 19 20  1  0  0  0  0
 19 33  1  0  0  0  0
 20 21  1  0  0  0  0
 20 34  1  0  0  0  0
 20 35  1  0  0  0  0
 21 22  1  0  0  0  0
 21 26  2  0  0  0  0
 22 23  2  0  0  0  0
 22 36  1  0  0  0  0
 23 24  1  0  0  0  0
 23 37  1  0  0  0  0
 24 25  2  0  0  0  0
 25 26  1  0  0  0  0
 25 38  1  0  0  0  0
 26 39  1  0  0  0  0
M  END
$$$$
