CHEMBL200723
 OpenBabel04072215363D

 58 61  0  0  0  0  0  0  0  0999 V2000
    6.8507    6.3473   -5.4538 C   0  0  0  0  0  0  0  0  0  0  0  0
    5.6472    6.4249   -4.7018 O   0  0  0  0  0  0  0  0  0  0  0  0
    5.6550    5.9527   -3.4040 C   0  0  0  0  0  0  0  0  0  0  0  0
    6.6952    5.3709   -2.7890 C   0  0  0  0  0  0  0  0  0  0  0  0
    6.6236    4.8910   -1.3988 C   0  0  0  0  0  0  0  0  0  0  0  0
    7.5628    4.2771   -0.8981 O   0  0  0  0  0  0  0  0  0  0  0  0
    5.3994    5.1937   -0.6013 C   0  0  0  0  0  0  0  0  0  0  0  0
    5.4620    4.8406    0.7430 N   0  0  0  0  0  0  0  0  0  0  0  0
    5.1423    5.7552    1.7900 C   0  0  0  0  0  0  0  0  0  0  0  0
    4.9015    7.0391    1.4687 N   0  0  0  0  0  0  0  0  0  0  0  0
    4.5784    7.8536    2.4775 C   0  0  0  0  0  0  0  0  0  0  0  0
    4.4428    7.5011    3.7602 N   0  0  0  0  0  0  0  0  0  0  0  0
    4.6707    6.2178    4.0673 C   0  0  0  0  0  0  0  0  0  0  0  0
    4.5239    5.7797    5.3752 C   0  0  0  0  0  0  0  0  0  0  0  0
    4.7937    4.4564    5.8094 C   0  0  0  0  0  0  0  0  0  0  0  0
    4.5707    4.3692    7.1593 O   0  0  0  0  0  0  0  0  0  0  0  0
    5.2300    3.3513    7.8801 C   0  0  0  0  0  0  0  0  0  0  0  0
    5.3929    3.6688    9.3742 C   0  0  0  0  0  0  0  0  0  0  0  0
    6.2056    4.9348    9.6469 C   0  0  0  0  0  0  0  0  0  0  0  0
    7.6609    4.7807    9.2026 C   0  0  0  0  0  0  0  0  0  0  0  0
    8.3106    3.6021    9.7955 N   0  0  0  0  0  0  0  0  0  0  0  0
    9.6613    3.4538    9.2453 C   0  0  0  0  0  0  0  0  0  0  0  0
    7.5553    2.3568    9.6128 C   0  0  0  0  0  0  0  0  0  0  0  0
    6.0945    2.4880   10.0633 C   0  0  0  0  0  0  0  0  0  0  0  0
    5.2497    3.5307    4.8664 C   0  0  0  0  0  0  0  0  0  0  0  0
    5.7466    2.2644    4.9453 O   0  0  0  0  0  0  0  0  0  0  0  0
    5.2820    1.2513    5.8092 C   0  0  0  0  0  0  0  0  0  0  0  0
    5.3545    3.9603    3.5310 C   0  0  0  0  0  0  0  0  0  0  0  0
    5.0626    5.2853    3.1132 C   0  0  0  0  0  0  0  0  0  0  0  0
    4.3519    5.7437   -1.2265 C   0  0  0  0  0  0  0  0  0  0  0  0
    4.3699    6.1130   -2.6516 C   0  0  0  0  0  0  0  0  0  0  0  0
    3.3505    6.5469   -3.1791 O   0  0  0  0  0  0  0  0  0  0  0  0
    6.6478    6.7314   -6.4575 H   0  0  0  0  0  0  0  0  0  0  0  0
    7.1861    5.3101   -5.5525 H   0  0  0  0  0  0  0  0  0  0  0  0
    7.6307    6.9697   -5.0028 H   0  0  0  0  0  0  0  0  0  0  0  0
    7.6521    5.2084   -3.2641 H   0  0  0  0  0  0  0  0  0  0  0  0
    6.3560    4.3845    0.9466 H   0  0  0  0  0  0  0  0  0  0  0  0
    4.4099    8.8960    2.2300 H   0  0  0  0  0  0  0  0  0  0  0  0
    4.2070    6.5143    6.1167 H   0  0  0  0  0  0  0  0  0  0  0  0
    6.2091    3.1745    7.4339 H   0  0  0  0  0  0  0  0  0  0  0  0
    4.5968    2.4643    7.8332 H   0  0  0  0  0  0  0  0  0  0  0  0
    4.3932    3.8071    9.8098 H   0  0  0  0  0  0  0  0  0  0  0  0
    6.1820    5.1474   10.7246 H   0  0  0  0  0  0  0  0  0  0  0  0
    5.7529    5.8006    9.1507 H   0  0  0  0  0  0  0  0  0  0  0  0
    8.2045    5.6808    9.5155 H   0  0  0  0  0  0  0  0  0  0  0  0
    7.7081    4.7476    8.1073 H   0  0  0  0  0  0  0  0  0  0  0  0
   10.2536    4.3586    9.4202 H   0  0  0  0  0  0  0  0  0  0  0  0
    9.6448    3.2582    8.1646 H   0  0  0  0  0  0  0  0  0  0  0  0
   10.1882    2.6289    9.7338 H   0  0  0  0  0  0  0  0  0  0  0  0
    8.0212    1.5565   10.2009 H   0  0  0  0  0  0  0  0  0  0  0  0
    7.5943    2.0263    8.5673 H   0  0  0  0  0  0  0  0  0  0  0  0
    6.0594    2.6226   11.1509 H   0  0  0  0  0  0  0  0  0  0  0  0
    5.5620    1.5531    9.8464 H   0  0  0  0  0  0  0  0  0  0  0  0
    5.4443    0.2881    5.3152 H   0  0  0  0  0  0  0  0  0  0  0  0
    4.2210    1.3286    6.0552 H   0  0  0  0  0  0  0  0  0  0  0  0
    5.9208    1.2117    6.6978 H   0  0  0  0  0  0  0  0  0  0  0  0
    5.6762    3.2332    2.7886 H   0  0  0  0  0  0  0  0  0  0  0  0
    3.4282    5.9563   -0.7005 H   0  0  0  0  0  0  0  0  0  0  0  0
  1  2  1  0  0  0  0
  1 33  1  0  0  0  0
  1 34  1  0  0  0  0
  1 35  1  0  0  0  0
  2  3  1  0  0  0  0
  3  4  2  0  0  0  0
  3 31  1  0  0  0  0
  4  5  1  0  0  0  0
  4 36  1  0  0  0  0
  5  6  2  0  0  0  0
  5  7  1  0  0  0  0
  7  8  1  0  0  0  0
  7 30  2  0  0  0  0
  8  9  1  0  0  0  0
  8 37  1  0  0  0  0
  9 10  1  0  0  0  0
  9 29  2  0  0  0  0
 10 11  2  0  0  0  0
 11 12  1  0  0  0  0
 11 38  1  0  0  0  0
 12 13  2  0  0  0  0
 13 14  1  0  0  0  0
 13 29  1  0  0  0  0
 14 15  2  0  0  0  0
 14 39  1  0  0  0  0
 15 16  1  0  0  0  0
 15 25  1  0  0  0  0
 16 17  1  0  0  0  0
 17 18  1  0  0  0  0
 17 40  1  0  0  0  0
 17 41  1  0  0  0  0
 18 19  1  0  0  0  0
 18 24  1  0  0  0  0
 18 42  1  0  0  0  0
 19 20  1  0  0  0  0
 19 43  1  0  0  0  0
 19 44  1  0  0  0  0
 20 21  1  0  0  0  0
 20 45  1  0  0  0  0
 20 46  1  0  0  0  0
 21 22  1  0  0  0  0
 21 23  1  0  0  0  0
 22 47  1  0  0  0  0
 22 48  1  0  0  0  0
 22 49  1  0  0  0  0
 23 24  1  0  0  0  0
 23 50  1  0  0  0  0
 23 51  1  0  0  0  0
 24 52  1  0  0  0  0
 24 53  1  0  0  0  0
 25 26  1  0  0  0  0
 25 28  2  0  0  0  0
 26 27  1  0  0  0  0
 27 54  1  0  0  0  0
 27 55  1  0  0  0  0
 27 56  1  0  0  0  0
 28 29  1  0  0  0  0
 28 57  1  0  0  0  0
 30 31  1  0  0  0  0
 30 58  1  0  0  0  0
 31 32  2  0  0  0  0
M  END
$$$$
