CHEMBL485246
 OpenBabel04072215383D

 34 37  0  0  0  0  0  0  0  0999 V2000
    1.1121    0.0291   -0.3940 N   0  0  0  0  0  0  0  0  0  0  0  0
    2.4866   -0.0222   -0.2581 C   0  0  0  0  0  0  0  0  0  0  0  0
    3.1425    1.1504   -0.2814 N   0  0  0  0  0  0  0  0  0  0  0  0
    4.4864    1.1463   -0.1739 C   0  0  0  0  0  0  0  0  0  0  0  0
    5.2933    0.0926   -0.0322 N   0  0  0  0  0  0  0  0  0  0  0  0
    4.6238   -1.0721   -0.0110 C   0  0  0  0  0  0  0  0  0  0  0  0
    5.2070   -2.3012    0.1083 N   0  0  0  0  0  0  0  0  0  0  0  0
    4.2116   -3.1567    0.0616 C   0  0  0  0  0  0  0  0  0  0  0  0
    3.0000   -2.5264   -0.0444 N   0  0  0  0  0  0  0  0  0  0  0  0
    1.6872   -3.1506   -0.0820 C   0  0  0  0  0  0  0  0  0  0  0  0
    1.6854   -4.6581    0.0733 C   0  0  0  0  0  0  0  0  0  0  0  0
    1.6718   -5.3726   -0.9301 O   0  0  0  0  0  0  0  0  0  0  0  0
    1.7255   -5.2357    1.4230 C   0  0  0  0  0  0  0  0  0  0  0  0
    1.7986   -4.5249    2.6103 C   0  0  0  0  0  0  0  0  0  0  0  0
    1.8362   -5.4148    3.6508 N   0  0  0  0  0  0  0  0  0  0  0  0
    1.7921   -6.7024    3.1773 C   0  0  0  0  0  0  0  0  0  0  0  0
    1.8176   -7.9128    3.8772 C   0  0  0  0  0  0  0  0  0  0  0  0
    1.7653   -9.0944    3.1363 C   0  0  0  0  0  0  0  0  0  0  0  0
    1.6828   -9.0626    1.7477 C   0  0  0  0  0  0  0  0  0  0  0  0
    1.6553   -7.8410    1.0613 C   0  0  0  0  0  0  0  0  0  0  0  0
    1.7156   -6.6283    1.7842 C   0  0  0  0  0  0  0  0  0  0  0  0
    3.2434   -1.1733   -0.1102 C   0  0  0  0  0  0  0  0  0  0  0  0
    0.7881    0.9862   -0.2851 H   0  0  0  0  0  0  0  0  0  0  0  0
    0.5591   -0.6676    0.0735 H   0  0  0  0  0  0  0  0  0  0  0  0
    4.9699    2.1178   -0.2062 H   0  0  0  0  0  0  0  0  0  0  0  0
    4.3314   -4.2332    0.1037 H   0  0  0  0  0  0  0  0  0  0  0  0
    1.2367   -2.8956   -1.0476 H   0  0  0  0  0  0  0  0  0  0  0  0
    1.0759   -2.6959    0.7039 H   0  0  0  0  0  0  0  0  0  0  0  0
    1.8414   -3.4645    2.8209 H   0  0  0  0  0  0  0  0  0  0  0  0
    1.9005   -5.1706    4.6297 H   0  0  0  0  0  0  0  0  0  0  0  0
    1.8836   -7.9417    4.9614 H   0  0  0  0  0  0  0  0  0  0  0  0
    1.7920  -10.0526    3.6529 H   0  0  0  0  0  0  0  0  0  0  0  0
    1.6427   -9.9944    1.1880 H   0  0  0  0  0  0  0  0  0  0  0  0
    1.5928   -7.8359   -0.0244 H   0  0  0  0  0  0  0  0  0  0  0  0
  1  2  1  0  0  0  0
  1 23  1  0  0  0  0
  1 24  1  0  0  0  0
  2  3  1  0  0  0  0
  2 22  2  0  0  0  0
  3  4  2  0  0  0  0
  4  5  1  0  0  0  0
  4 25  1  0  0  0  0
  5  6  2  0  0  0  0
  6  7  1  0  0  0  0
  6 22  1  0  0  0  0
  7  8  2  0  0  0  0
  8  9  1  0  0  0  0
  8 26  1  0  0  0  0
  9 10  1  0  0  0  0
  9 22  1  0  0  0  0
 10 11  1  0  0  0  0
 10 27  1  0  0  0  0
 10 28  1  0  0  0  0
 11 12  2  0  0  0  0
 11 13  1  0  0  0  0
 13 14  2  0  0  0  0
 13 21  1  0  0  0  0
 14 15  1  0  0  0  0
 14 29  1  0  0  0  0
 15 16  1  0  0  0  0
 15 30  1  0  0  0  0
 16 17  1  0  0  0  0
 16 21  2  0  0  0  0
 17 18  2  0  0  0  0
 17 31  1  0  0  0  0
 18 19  1  0  0  0  0
 18 32  1  0  0  0  0
 19 20  2  0  0  0  0
 19 33  1  0  0  0  0
 20 21  1  0  0  0  0
 20 34  1  0  0  0  0
M  END
$$$$
