CHEMBL247468
 OpenBabel04072215363D

 74 79  0  0  0  0  0  0  0  0999 V2000
    1.5119   -0.2508    0.0094 C   0  0  0  0  0  0  0  0  0  0  0  0
    0.7906    0.0535    1.1584 C   0  0  0  0  0  0  0  0  0  0  0  0
   -0.5578    0.4014    1.0635 C   0  0  0  0  0  0  0  0  0  0  0  0
   -1.2506    0.2750   -0.1461 C   0  0  0  0  0  0  0  0  0  0  0  0
   -2.6976    0.4915   -0.2078 C   0  0  0  0  0  0  0  0  0  0  0  0
   -3.3279    1.1752   -1.2438 C   0  0  0  0  0  0  0  0  0  0  0  0
   -2.8787    1.9228   -2.4145 C   0  0  0  0  0  0  0  0  0  0  0  0
   -3.6174    1.9122   -3.6023 C   0  0  0  0  0  0  0  0  0  0  0  0
   -3.1747    2.6093   -4.7157 C   0  0  0  0  0  0  0  0  0  0  0  0
   -1.9867    3.3497   -4.6818 C   0  0  0  0  0  0  0  0  0  0  0  0
   -1.5230    4.1175   -5.7376 O   0  0  0  0  0  0  0  0  0  0  0  0
   -2.6198    4.7007   -6.4531 C   0  0  0  0  0  0  0  0  0  0  0  0
   -2.2312    5.7055   -7.5522 C   0  0  0  0  0  0  0  0  0  0  0  0
   -3.4398    6.1339   -8.2875 N   0  0  0  0  0  0  0  0  0  0  0  0
   -3.1676    7.0351   -9.4081 C   0  0  0  0  0  0  0  0  0  0  0  0
   -3.3757    8.4339   -8.8616 C   0  0  0  0  0  0  0  0  0  0  0  0
   -4.4816    8.2704   -7.8401 C   0  0  0  0  0  0  0  0  0  0  0  0
   -4.4643    6.7976   -7.4674 C   0  0  0  0  0  0  0  0  0  0  0  0
   -1.2154    3.3388   -3.5257 C   0  0  0  0  0  0  0  0  0  0  0  0
   -1.6758    2.6568   -2.3962 C   0  0  0  0  0  0  0  0  0  0  0  0
   -4.6815    1.1223   -1.0833 O   0  0  0  0  0  0  0  0  0  0  0  0
   -4.9455    0.4613    0.0735 C   0  0  0  0  0  0  0  0  0  0  0  0
   -6.1911    0.2648    0.5163 N   0  0  0  0  0  0  0  0  0  0  0  0
   -6.2037   -0.3948    1.6739 C   0  0  0  0  0  0  0  0  0  0  0  0
   -5.1424   -0.8374    2.3754 N   0  0  0  0  0  0  0  0  0  0  0  0
   -3.8986   -0.6141    1.9041 C   0  0  0  0  0  0  0  0  0  0  0  0
   -2.8036   -0.9749    2.6710 N   0  0  0  0  0  0  0  0  0  0  0  0
   -2.8766   -2.1107    3.5789 C   0  0  0  0  0  0  0  0  0  0  0  0
   -1.8135   -1.8983    4.6901 C   0  0  0  0  0  0  0  0  0  0  0  0
   -1.6922   -2.9983    5.6676 N   0  0  0  0  0  0  0  0  0  0  0  0
   -0.6953   -2.6580    6.7103 C   0  0  0  0  0  0  0  0  0  0  0  0
    0.7830   -2.7327    6.2498 C   0  0  0  0  0  0  0  0  0  0  0  0
    1.1389   -3.9944    5.5741 N   0  0  0  0  0  0  0  0  0  0  0  0
    0.1568   -4.2926    4.5180 C   0  0  0  0  0  0  0  0  0  0  0  0
   -1.2940   -4.2771    5.0455 C   0  0  0  0  0  0  0  0  0  0  0  0
   -3.7571    0.0629    0.6783 C   0  0  0  0  0  0  0  0  0  0  0  0
   -0.5107   -0.0614   -1.2907 C   0  0  0  0  0  0  0  0  0  0  0  0
    0.8706   -0.2572   -1.2247 C   0  0  0  0  0  0  0  0  0  0  0  0
    2.5755   -0.4626    0.0739 H   0  0  0  0  0  0  0  0  0  0  0  0
    1.2797    0.0432    2.1294 H   0  0  0  0  0  0  0  0  0  0  0  0
   -1.0629    0.7537    1.9596 H   0  0  0  0  0  0  0  0  0  0  0  0
   -4.5552    1.3506   -3.6593 H   0  0  0  0  0  0  0  0  0  0  0  0
   -3.7954    2.5590   -5.6053 H   0  0  0  0  0  0  0  0  0  0  0  0
   -3.2516    5.1998   -5.7126 H   0  0  0  0  0  0  0  0  0  0  0  0
   -3.1800    3.9089   -6.9586 H   0  0  0  0  0  0  0  0  0  0  0  0
   -1.5544    5.1883   -8.2468 H   0  0  0  0  0  0  0  0  0  0  0  0
   -1.6635    6.5478   -7.1398 H   0  0  0  0  0  0  0  0  0  0  0  0
   -3.9110    6.8372  -10.1910 H   0  0  0  0  0  0  0  0  0  0  0  0
   -2.1803    6.9019   -9.8617 H   0  0  0  0  0  0  0  0  0  0  0  0
   -3.6528    9.1496   -9.6415 H   0  0  0  0  0  0  0  0  0  0  0  0
   -2.4649    8.7947   -8.3714 H   0  0  0  0  0  0  0  0  0  0  0  0
   -5.4543    8.5366   -8.2685 H   0  0  0  0  0  0  0  0  0  0  0  0
   -4.3101    8.9118   -6.9690 H   0  0  0  0  0  0  0  0  0  0  0  0
   -5.4359    6.3455   -7.6993 H   0  0  0  0  0  0  0  0  0  0  0  0
   -4.3339    6.7012   -6.3872 H   0  0  0  0  0  0  0  0  0  0  0  0
   -0.2738    3.8779   -3.4810 H   0  0  0  0  0  0  0  0  0  0  0  0
   -1.0714    2.6937   -1.4929 H   0  0  0  0  0  0  0  0  0  0  0  0
   -7.1769   -0.5947    2.1069 H   0  0  0  0  0  0  0  0  0  0  0  0
   -1.9625   -1.0263    2.1127 H   0  0  0  0  0  0  0  0  0  0  0  0
   -2.6306   -2.9967    2.9869 H   0  0  0  0  0  0  0  0  0  0  0  0
   -3.8604   -2.2514    4.0291 H   0  0  0  0  0  0  0  0  0  0  0  0
   -2.0880   -0.9810    5.2302 H   0  0  0  0  0  0  0  0  0  0  0  0
   -0.8460   -1.6789    4.2179 H   0  0  0  0  0  0  0  0  0  0  0  0
   -0.8339   -3.3602    7.5431 H   0  0  0  0  0  0  0  0  0  0  0  0
   -0.9012   -1.6646    7.1285 H   0  0  0  0  0  0  0  0  0  0  0  0
    1.4332   -2.6172    7.1248 H   0  0  0  0  0  0  0  0  0  0  0  0
    1.0136   -1.8937    5.5832 H   0  0  0  0  0  0  0  0  0  0  0  0
    1.0820   -4.7424    6.2663 H   0  0  0  0  0  0  0  0  0  0  0  0
    0.3767   -5.2829    4.1045 H   0  0  0  0  0  0  0  0  0  0  0  0
    0.2781   -3.5823    3.6914 H   0  0  0  0  0  0  0  0  0  0  0  0
   -1.4004   -5.0655    5.8028 H   0  0  0  0  0  0  0  0  0  0  0  0
   -1.9878   -4.5645    4.2497 H   0  0  0  0  0  0  0  0  0  0  0  0
   -0.9858   -0.1302   -2.2693 H   0  0  0  0  0  0  0  0  0  0  0  0
    1.4401   -0.4209   -2.1364 H   0  0  0  0  0  0  0  0  0  0  0  0
  1  2  1  0  0  0  0
  1 38  2  0  0  0  0
  1 39  1  0  0  0  0
  2  3  2  0  0  0  0
  2 40  1  0  0  0  0
  3  4  1  0  0  0  0
  3 41  1  0  0  0  0
  4  5  1  0  0  0  0
  4 37  2  0  0  0  0
  5  6  2  0  0  0  0
  5 36  1  0  0  0  0
  6  7  1  0  0  0  0
  6 21  1  0  0  0  0
  7  8  1  0  0  0  0
  7 20  2  0  0  0  0
  8  9  2  0  0  0  0
  8 42  1  0  0  0  0
  9 10  1  0  0  0  0
  9 43  1  0  0  0  0
 10 11  1  0  0  0  0
 10 19  2  0  0  0  0
 11 12  1  0  0  0  0
 12 13  1  0  0  0  0
 12 44  1  0  0  0  0
 12 45  1  0  0  0  0
 13 14  1  0  0  0  0
 13 46  1  0  0  0  0
 13 47  1  0  0  0  0
 14 15  1  0  0  0  0
 14 18  1  0  0  0  0
 15 16  1  0  0  0  0
 15 48  1  0  0  0  0
 15 49  1  0  0  0  0
 16 17  1  0  0  0  0
 16 50  1  0  0  0  0
 16 51  1  0  0  0  0
 17 18  1  0  0  0  0
 17 52  1  0  0  0  0
 17 53  1  0  0  0  0
 18 54  1  0  0  0  0
 18 55  1  0  0  0  0
 19 20  1  0  0  0  0
 19 56  1  0  0  0  0
 20 57  1  0  0  0  0
 21 22  1  0  0  0  0
 22 23  1  0  0  0  0
 22 36  2  0  0  0  0
 23 24  2  0  0  0  0
 24 25  1  0  0  0  0
 24 58  1  0  0  0  0
 25 26  2  0  0  0  0
 26 27  1  0  0  0  0
 26 36  1  0  0  0  0
 27 28  1  0  0  0  0
 27 59  1  0  0  0  0
 28 29  1  0  0  0  0
 28 60  1  0  0  0  0
 28 61  1  0  0  0  0
 29 30  1  0  0  0  0
 29 62  1  0  0  0  0
 29 63  1  0  0  0  0
 30 31  1  0  0  0  0
 30 35  1  0  0  0  0
 31 32  1  0  0  0  0
 31 64  1  0  0  0  0
 31 65  1  0  0  0  0
 32 33  1  0  0  0  0
 32 66  1  0  0  0  0
 32 67  1  0  0  0  0
 33 34  1  0  0  0  0
 33 68  1  0  0  0  0
 34 35  1  0  0  0  0
 34 69  1  0  0  0  0
 34 70  1  0  0  0  0
 35 71  1  0  0  0  0
 35 72  1  0  0  0  0
 37 38  1  0  0  0  0
 37 73  1  0  0  0  0
 38 74  1  0  0  0  0
M  END
$$$$
