CHEMBL71985
 OpenBabel04072215383D

 47 50  0  0  0  0  0  0  0  0999 V2000
    1.7206    0.7471    1.1158 C   0  0  0  0  0  0  0  0  0  0  0  0
    2.4385   -0.1223    0.0767 C   0  0  0  0  0  0  0  0  0  0  0  0
    3.5698    0.6809   -0.5723 C   0  0  0  0  0  0  0  0  0  0  0  0
    2.9106   -1.3856    0.6475 N   0  0  0  0  0  0  0  0  0  0  0  0
    3.8052   -1.4900    1.6808 C   0  0  0  0  0  0  0  0  0  0  0  0
    3.9695   -2.8289    1.9962 C   0  0  0  0  0  0  0  0  0  0  0  0
    4.8355   -3.2661    3.0808 C   0  0  0  0  0  0  0  0  0  0  0  0
    4.9987   -2.4657    4.2134 C   0  0  0  0  0  0  0  0  0  0  0  0
    5.8102   -2.8904    5.2602 C   0  0  0  0  0  0  0  0  0  0  0  0
    6.3678   -4.1725    5.2434 C   0  0  0  0  0  0  0  0  0  0  0  0
    7.1025   -4.7206    6.2728 O   0  0  0  0  0  0  0  0  0  0  0  0
    6.8142   -4.3380    7.5598 C   0  0  0  0  0  0  0  0  0  0  0  0
    5.5287   -4.0025    7.9960 C   0  0  0  0  0  0  0  0  0  0  0  0
    5.3352   -3.5096    9.2818 C   0  0  0  0  0  0  0  0  0  0  0  0
    6.4160   -3.4466   10.1694 C   0  0  0  0  0  0  0  0  0  0  0  0
    6.2185   -2.9389   11.4807 C   0  0  0  0  0  0  0  0  0  0  0  0
    6.0617   -2.5031   12.5466 N   0  0  0  0  0  0  0  0  0  0  0  0
    7.6835   -3.8672    9.7549 C   0  0  0  0  0  0  0  0  0  0  0  0
    7.8904   -4.3151    8.4497 C   0  0  0  0  0  0  0  0  0  0  0  0
    6.2267   -4.9706    4.1159 C   0  0  0  0  0  0  0  0  0  0  0  0
    5.5124   -4.4908    3.0213 C   0  0  0  0  0  0  0  0  0  0  0  0
    3.1339   -3.5788    1.1062 C   0  0  0  0  0  0  0  0  0  0  0  0
    2.8040   -4.9328    0.8963 C   0  0  0  0  0  0  0  0  0  0  0  0
    3.2828   -5.9970    1.6427 N   0  0  0  0  0  0  0  0  0  0  0  0
    1.9529   -5.2488   -0.1010 N   0  0  0  0  0  0  0  0  0  0  0  0
    1.4445   -4.2477   -0.8457 C   0  0  0  0  0  0  0  0  0  0  0  0
    1.6553   -2.9274   -0.7271 N   0  0  0  0  0  0  0  0  0  0  0  0
    2.5111   -2.6475    0.2693 C   0  0  0  0  0  0  0  0  0  0  0  0
    1.3871    1.6894    0.6651 H   0  0  0  0  0  0  0  0  0  0  0  0
    2.3755    1.0018    1.9572 H   0  0  0  0  0  0  0  0  0  0  0  0
    0.8404    0.2375    1.5191 H   0  0  0  0  0  0  0  0  0  0  0  0
    1.7139   -0.3748   -0.7059 H   0  0  0  0  0  0  0  0  0  0  0  0
    4.3345    0.9671    0.1585 H   0  0  0  0  0  0  0  0  0  0  0  0
    3.1763    1.6056   -1.0126 H   0  0  0  0  0  0  0  0  0  0  0  0
    4.0576    0.1107   -1.3669 H   0  0  0  0  0  0  0  0  0  0  0  0
    4.2518   -0.6039    2.1135 H   0  0  0  0  0  0  0  0  0  0  0  0
    4.4970   -1.5052    4.3013 H   0  0  0  0  0  0  0  0  0  0  0  0
    5.9521   -2.2189    6.1016 H   0  0  0  0  0  0  0  0  0  0  0  0
    4.6749   -4.0683    7.3283 H   0  0  0  0  0  0  0  0  0  0  0  0
    4.3437   -3.1699    9.5756 H   0  0  0  0  0  0  0  0  0  0  0  0
    8.5317   -3.8395   10.4407 H   0  0  0  0  0  0  0  0  0  0  0  0
    8.8776   -4.6239    8.1244 H   0  0  0  0  0  0  0  0  0  0  0  0
    6.6696   -5.9621    4.0821 H   0  0  0  0  0  0  0  0  0  0  0  0
    5.4830   -5.1037    2.1251 H   0  0  0  0  0  0  0  0  0  0  0  0
    3.4982   -5.7868    2.6097 H   0  0  0  0  0  0  0  0  0  0  0  0
    2.7712   -6.8581    1.4783 H   0  0  0  0  0  0  0  0  0  0  0  0
    0.7690   -4.5551   -1.6381 H   0  0  0  0  0  0  0  0  0  0  0  0
  1  2  1  0  0  0  0
  1 29  1  0  0  0  0
  1 30  1  0  0  0  0
  1 31  1  0  0  0  0
  2  3  1  0  0  0  0
  2  4  1  0  0  0  0
  2 32  1  0  0  0  0
  3 33  1  0  0  0  0
  3 34  1  0  0  0  0
  3 35  1  0  0  0  0
  4  5  1  0  0  0  0
  4 28  1  0  0  0  0
  5  6  2  0  0  0  0
  5 36  1  0  0  0  0
  6  7  1  0  0  0  0
  6 22  1  0  0  0  0
  7  8  1  0  0  0  0
  7 21  2  0  0  0  0
  8  9  2  0  0  0  0
  8 37  1  0  0  0  0
  9 10  1  0  0  0  0
  9 38  1  0  0  0  0
 10 11  1  0  0  0  0
 10 20  2  0  0  0  0
 11 12  1  0  0  0  0
 12 13  1  0  0  0  0
 12 19  2  0  0  0  0
 13 14  2  0  0  0  0
 13 39  1  0  0  0  0
 14 15  1  0  0  0  0
 14 40  1  0  0  0  0
 15 16  1  0  0  0  0
 15 18  2  0  0  0  0
 16 17  3  0  0  0  0
 18 19  1  0  0  0  0
 18 41  1  0  0  0  0
 19 42  1  0  0  0  0
 20 21  1  0  0  0  0
 20 43  1  0  0  0  0
 21 44  1  0  0  0  0
 22 23  1  0  0  0  0
 22 28  2  0  0  0  0
 23 24  1  0  0  0  0
 23 25  2  0  0  0  0
 24 45  1  0  0  0  0
 24 46  1  0  0  0  0
 25 26  1  0  0  0  0
 26 27  2  0  0  0  0
 26 47  1  0  0  0  0
 27 28  1  0  0  0  0
M  END
$$$$
