CHEMBL3966560
 OpenBabel04072215373D

 69 73  0  0  1  0  0  0  0  0999 V2000
    0.6950   -0.9395   -0.4254 C   0  0  0  0  0  0  0  0  0  0  0  0
    2.0396   -0.9343    0.0396 O   0  0  0  0  0  0  0  0  0  0  0  0
    2.9420   -1.6875   -0.6652 C   0  0  0  0  0  0  0  0  0  0  0  0
    2.7805   -2.1562   -1.9419 C   0  0  0  0  0  0  0  0  0  0  0  0
    3.8371   -2.8561   -2.5254 C   0  0  0  0  0  0  0  0  0  0  0  0
    3.7658   -3.3203   -3.8175 O   0  0  0  0  0  0  0  0  0  0  0  0
    3.1109   -2.4015   -4.6942 C   0  0  0  0  0  0  0  0  0  0  0  0
    5.0408   -3.1207   -1.8246 C   0  0  0  0  0  0  0  0  0  0  0  0
    5.2840   -2.6109   -0.5435 C   0  0  0  0  0  0  0  0  0  0  0  0
    6.5139   -2.8075    0.1431 N   0  0  0  0  0  0  0  0  0  0  0  0
    7.0029   -1.9537    1.3534 C   0  0  0  0  0  0  0  0  0  0  0  0
    6.0189   -1.0458    2.0987 C   0  0  3  0  0  0  0  0  0  0  0  0
    5.1490   -1.8898    2.8783 O   0  0  0  0  0  0  0  0  0  0  0  0
    6.5467    0.0878    3.0180 C   0  0  0  0  0  0  0  0  0  0  0  0
    5.4095    0.8421    3.6319 N   0  0  0  0  0  0  0  0  0  0  0  0
    4.4404    1.4156    2.6571 C   0  0  0  0  0  0  0  0  0  0  0  0
    4.9889    2.6181    1.8713 C   0  0  0  0  0  0  0  0  0  0  0  0
    5.4310    3.6577    2.7536 O   0  0  0  0  0  0  0  0  0  0  0  0
    6.3915    3.1674    3.6973 C   0  0  0  0  0  0  0  0  0  0  0  0
    5.8503    1.9640    4.4886 C   0  0  0  0  0  0  0  0  0  0  0  0
    7.6325   -3.6786   -0.2111 C   0  0  0  0  0  0  0  0  0  0  0  0
    8.1002   -4.5046    0.8125 C   0  0  0  0  0  0  0  0  0  0  0  0
    9.4200   -4.9403    0.8364 C   0  0  0  0  0  0  0  0  0  0  0  0
   10.2449   -4.7076   -0.2490 C   0  0  0  0  0  0  0  0  0  0  0  0
   11.5378   -4.9932   -0.0304 N   0  0  0  0  0  0  0  0  0  0  0  0
   12.3510   -4.9429   -1.0889 C   0  0  0  0  0  0  0  0  0  0  0  0
   11.8792   -4.7132   -2.3685 C   0  0  0  0  0  0  0  0  0  0  0  0
   12.7687   -5.1115   -3.4509 C   0  0  0  0  0  0  0  0  0  0  0  0
   12.8424   -6.3584   -4.1308 C   0  0  0  0  0  0  0  0  0  0  0  0
   13.9591   -6.4953   -4.8560 N   0  0  0  0  0  0  0  0  0  0  0  0
   14.6147   -5.3426   -4.6411 N   0  0  0  0  0  0  0  0  0  0  0  0
   15.7889   -5.0146   -5.4158 C   0  0  0  0  0  0  0  0  0  0  0  0
   14.0122   -4.5510   -3.7002 C   0  0  0  0  0  0  0  0  0  0  0  0
   10.5832   -4.2988   -2.5874 N   0  0  0  0  0  0  0  0  0  0  0  0
    9.7412   -4.2155   -1.4722 C   0  0  0  0  0  0  0  0  0  0  0  0
    8.4160   -3.6379   -1.4020 C   0  0  0  0  0  0  0  0  0  0  0  0
    4.1513   -1.9572   -0.0008 C   0  0  0  0  0  0  0  0  0  0  0  0
    0.0886   -0.3737    0.2896 H   0  0  0  0  0  0  0  0  0  0  0  0
    0.3031   -1.9604   -0.4635 H   0  0  0  0  0  0  0  0  0  0  0  0
    0.6020   -0.4431   -1.3974 H   0  0  0  0  0  0  0  0  0  0  0  0
    1.8546   -1.9943   -2.4764 H   0  0  0  0  0  0  0  0  0  0  0  0
    3.3648   -2.6698   -5.7204 H   0  0  0  0  0  0  0  0  0  0  0  0
    3.4525   -1.3715   -4.5233 H   0  0  0  0  0  0  0  0  0  0  0  0
    2.0226   -2.4645   -4.5890 H   0  0  0  0  0  0  0  0  0  0  0  0
    5.7805   -3.7325   -2.3268 H   0  0  0  0  0  0  0  0  0  0  0  0
    7.8511   -1.3524    1.0047 H   0  0  0  0  0  0  0  0  0  0  0  0
    7.3822   -2.6281    2.1315 H   0  0  0  0  0  0  0  0  0  0  0  0
    5.4979   -0.4969    1.3204 H   0  0  0  0  0  0  0  0  0  0  0  0
    5.3226   -1.7243    3.8215 H   0  0  0  0  0  0  0  0  0  0  0  0
    7.2159    0.7427    2.4532 H   0  0  0  0  0  0  0  0  0  0  0  0
    7.1235   -0.3591    3.8386 H   0  0  0  0  0  0  0  0  0  0  0  0
    3.5651    1.7533    3.2291 H   0  0  0  0  0  0  0  0  0  0  0  0
    4.0362    0.6664    1.9727 H   0  0  0  0  0  0  0  0  0  0  0  0
    4.1954    3.0391    1.2448 H   0  0  0  0  0  0  0  0  0  0  0  0
    5.8130    2.3304    1.2083 H   0  0  0  0  0  0  0  0  0  0  0  0
    6.6152    3.9881    4.3861 H   0  0  0  0  0  0  0  0  0  0  0  0
    7.3185    2.9185    3.1699 H   0  0  0  0  0  0  0  0  0  0  0  0
    4.9695    2.3025    5.0550 H   0  0  0  0  0  0  0  0  0  0  0  0
    6.5758    1.6243    5.2334 H   0  0  0  0  0  0  0  0  0  0  0  0
    7.4836   -4.7002    1.6878 H   0  0  0  0  0  0  0  0  0  0  0  0
    9.7986   -5.4388    1.7057 H   0  0  0  0  0  0  0  0  0  0  0  0
   13.3956   -5.1565   -0.8918 H   0  0  0  0  0  0  0  0  0  0  0  0
   12.1540   -7.1938   -4.0872 H   0  0  0  0  0  0  0  0  0  0  0  0
   16.0110   -5.8232   -6.1179 H   0  0  0  0  0  0  0  0  0  0  0  0
   16.6354   -4.8562   -4.7433 H   0  0  0  0  0  0  0  0  0  0  0  0
   15.5658   -4.0997   -5.9708 H   0  0  0  0  0  0  0  0  0  0  0  0
   14.5094   -3.6759   -3.3058 H   0  0  0  0  0  0  0  0  0  0  0  0
    8.0505   -3.1012   -2.2742 H   0  0  0  0  0  0  0  0  0  0  0  0
    4.0851   -1.6678    1.0316 H   0  0  0  0  0  0  0  0  0  0  0  0
  1  2  1  0  0  0  0
  1 38  1  0  0  0  0
  1 39  1  0  0  0  0
  1 40  1  0  0  0  0
  2  3  1  0  0  0  0
  3  4  1  0  0  0  0
  3 37  2  0  0  0  0
  4  5  2  0  0  0  0
  4 41  1  0  0  0  0
  5  6  1  0  0  0  0
  5  8  1  0  0  0  0
  6  7  1  0  0  0  0
  7 42  1  0  0  0  0
  7 43  1  0  0  0  0
  7 44  1  0  0  0  0
  8  9  2  0  0  0  0
  8 45  1  0  0  0  0
  9 10  1  0  0  0  0
  9 37  1  0  0  0  0
 10 11  1  0  0  0  0
 10 21  1  0  0  0  0
 11 12  1  0  0  0  0
 11 46  1  0  0  0  0
 11 47  1  0  0  0  0
 12 13  1  0  0  0  0
 12 14  1  0  0  0  0
 12 48  1  0  0  0  0
 13 49  1  0  0  0  0
 14 15  1  0  0  0  0
 14 50  1  0  0  0  0
 14 51  1  0  0  0  0
 15 16  1  0  0  0  0
 15 20  1  0  0  0  0
 16 17  1  0  0  0  0
 16 52  1  0  0  0  0
 16 53  1  0  0  0  0
 17 18  1  0  0  0  0
 17 54  1  0  0  0  0
 17 55  1  0  0  0  0
 18 19  1  0  0  0  0
 19 20  1  0  0  0  0
 19 56  1  0  0  0  0
 19 57  1  0  0  0  0
 20 58  1  0  0  0  0
 20 59  1  0  0  0  0
 21 22  1  0  0  0  0
 21 36  2  0  0  0  0
 22 23  2  0  0  0  0
 22 60  1  0  0  0  0
 23 24  1  0  0  0  0
 23 61  1  0  0  0  0
 24 25  1  0  0  0  0
 24 35  2  0  0  0  0
 25 26  2  0  0  0  0
 26 27  1  0  0  0  0
 26 62  1  0  0  0  0
 27 28  1  0  0  0  0
 27 34  2  0  0  0  0
 28 29  1  0  0  0  0
 28 33  2  0  0  0  0
 29 30  2  0  0  0  0
 29 63  1  0  0  0  0
 30 31  1  0  0  0  0
 31 32  1  0  0  0  0
 31 33  1  0  0  0  0
 32 64  1  0  0  0  0
 32 65  1  0  0  0  0
 32 66  1  0  0  0  0
 33 67  1  0  0  0  0
 34 35  1  0  0  0  0
 35 36  1  0  0  0  0
 36 68  1  0  0  0  0
 37 69  1  0  0  0  0
M  END
$$$$
