CHEMBL1086675
 OpenBabel04072215363D

 65 70  0  0  0  0  0  0  0  0999 V2000
    0.8063   -0.7442    0.2774 C   0  0  0  0  0  0  0  0  0  0  0  0
    2.2751   -0.3557    0.2517 C   0  0  0  0  0  0  0  0  0  0  0  0
    3.0216   -1.0450   -0.8964 C   0  0  0  0  0  0  0  0  0  0  0  0
    4.4935   -0.7325   -0.9120 C   0  0  0  0  0  0  0  0  0  0  0  0
    5.2500   -0.0826   -1.8936 C   0  0  0  0  0  0  0  0  0  0  0  0
    4.7772    0.4363   -3.1857 C   0  0  0  0  0  0  0  0  0  0  0  0
    3.6467    0.8987   -3.2912 O   0  0  0  0  0  0  0  0  0  0  0  0
    5.6753    0.2998   -4.2426 N   0  0  0  0  0  0  0  0  0  0  0  0
    5.4059    0.5996   -5.6095 C   0  0  0  0  0  0  0  0  0  0  0  0
    4.3550    1.4105   -6.0451 C   0  0  0  0  0  0  0  0  0  0  0  0
    4.0796    1.5676   -7.4188 C   0  0  0  0  0  0  0  0  0  0  0  0
    4.8367    0.9111   -8.3974 C   0  0  0  0  0  0  0  0  0  0  0  0
    4.3761    1.0958   -9.6887 O   0  0  0  0  0  0  0  0  0  0  0  0
    4.9945    0.4964  -10.7657 C   0  0  0  0  0  0  0  0  0  0  0  0
    6.3156    0.7914  -11.1020 C   0  0  0  0  0  0  0  0  0  0  0  0
    6.8857    0.1743  -12.2003 C   0  0  0  0  0  0  0  0  0  0  0  0
    6.2508   -0.6810  -13.0213 N   0  0  0  0  0  0  0  0  0  0  0  0
    4.9351   -0.8964  -12.7558 C   0  0  0  0  0  0  0  0  0  0  0  0
    4.0875   -1.7533  -13.5162 C   0  0  0  0  0  0  0  0  0  0  0  0
    2.7876   -1.7414  -13.0666 C   0  0  0  0  0  0  0  0  0  0  0  0
    1.7068   -2.5674  -13.6850 C   0  0  0  0  0  0  0  0  0  0  0  0
    0.3599   -2.4943  -13.4038 C   0  0  0  0  0  0  0  0  0  0  0  0
   -0.2134   -3.4811  -14.1556 N   0  0  0  0  0  0  0  0  0  0  0  0
   -1.6105   -3.8297  -14.1878 C   0  0  0  0  0  0  0  0  0  0  0  0
    0.7767   -4.0995  -14.8611 C   0  0  0  0  0  0  0  0  0  0  0  0
    1.9472   -3.5493  -14.6214 N   0  0  0  0  0  0  0  0  0  0  0  0
    2.5934   -0.7080  -11.7204 S   0  0  0  0  0  0  0  0  0  0  0  0
    4.2700   -0.3054  -11.6762 C   0  0  0  0  0  0  0  0  0  0  0  0
    5.9143    0.1424   -7.9549 C   0  0  0  0  0  0  0  0  0  0  0  0
    6.7004   -0.5300   -8.8062 F   0  0  0  0  0  0  0  0  0  0  0  0
    6.2164    0.0135   -6.5866 C   0  0  0  0  0  0  0  0  0  0  0  0
    6.5226    0.0468   -1.3010 C   0  0  0  0  0  0  0  0  0  0  0  0
    6.5767   -0.4253   -0.0574 N   0  0  0  0  0  0  0  0  0  0  0  0
    5.3571   -0.9860    0.1569 N   0  0  0  0  0  0  0  0  0  0  0  0
    5.1164   -1.6848    1.3774 C   0  0  0  0  0  0  0  0  0  0  0  0
    5.6553   -1.1775    2.5717 C   0  0  0  0  0  0  0  0  0  0  0  0
    5.3858   -1.8111    3.7889 C   0  0  0  0  0  0  0  0  0  0  0  0
    4.6111   -2.9705    3.8194 C   0  0  0  0  0  0  0  0  0  0  0  0
    4.0958   -3.4936    2.6339 C   0  0  0  0  0  0  0  0  0  0  0  0
    4.3424   -2.8517    1.4158 C   0  0  0  0  0  0  0  0  0  0  0  0
    0.3129   -0.2886    1.1420 H   0  0  0  0  0  0  0  0  0  0  0  0
    0.6895   -1.8302    0.3578 H   0  0  0  0  0  0  0  0  0  0  0  0
    0.2950   -0.4050   -0.6277 H   0  0  0  0  0  0  0  0  0  0  0  0
    2.7005   -0.6175    1.2240 H   0  0  0  0  0  0  0  0  0  0  0  0
    2.3692    0.7326    0.1609 H   0  0  0  0  0  0  0  0  0  0  0  0
    2.5623   -0.7270   -1.8383 H   0  0  0  0  0  0  0  0  0  0  0  0
    2.8697   -2.1282   -0.8698 H   0  0  0  0  0  0  0  0  0  0  0  0
    6.5040   -0.2520   -4.0597 H   0  0  0  0  0  0  0  0  0  0  0  0
    3.7179    1.9394   -5.3406 H   0  0  0  0  0  0  0  0  0  0  0  0
    3.2397    2.1930   -7.7181 H   0  0  0  0  0  0  0  0  0  0  0  0
    6.9034    1.4692  -10.4983 H   0  0  0  0  0  0  0  0  0  0  0  0
    7.9224    0.3608  -12.4536 H   0  0  0  0  0  0  0  0  0  0  0  0
    4.4229   -2.3385  -14.3644 H   0  0  0  0  0  0  0  0  0  0  0  0
   -0.2128   -1.8499  -12.7529 H   0  0  0  0  0  0  0  0  0  0  0  0
   -2.1874   -3.0724  -13.6509 H   0  0  0  0  0  0  0  0  0  0  0  0
   -1.7334   -4.8034  -13.7069 H   0  0  0  0  0  0  0  0  0  0  0  0
   -1.9384   -3.8731  -15.2296 H   0  0  0  0  0  0  0  0  0  0  0  0
    0.5966   -4.9383  -15.5218 H   0  0  0  0  0  0  0  0  0  0  0  0
    7.0690   -0.6027   -6.3170 H   0  0  0  0  0  0  0  0  0  0  0  0
    7.4092    0.5170   -1.7061 H   0  0  0  0  0  0  0  0  0  0  0  0
    6.2423   -0.2607    2.5710 H   0  0  0  0  0  0  0  0  0  0  0  0
    5.7756   -1.3963    4.7158 H   0  0  0  0  0  0  0  0  0  0  0  0
    4.4157   -3.4689    4.7660 H   0  0  0  0  0  0  0  0  0  0  0  0
    3.5019   -4.4048    2.6580 H   0  0  0  0  0  0  0  0  0  0  0  0
    3.9544   -3.3067    0.5097 H   0  0  0  0  0  0  0  0  0  0  0  0
  1  2  1  0  0  0  0
  1 41  1  0  0  0  0
  1 42  1  0  0  0  0
  1 43  1  0  0  0  0
  2  3  1  0  0  0  0
  2 44  1  0  0  0  0
  2 45  1  0  0  0  0
  3  4  1  0  0  0  0
  3 46  1  0  0  0  0
  3 47  1  0  0  0  0
  4  5  2  0  0  0  0
  4 34  1  0  0  0  0
  5  6  1  0  0  0  0
  5 32  1  0  0  0  0
  6  7  2  0  0  0  0
  6  8  1  0  0  0  0
  8  9  1  0  0  0  0
  8 48  1  0  0  0  0
  9 10  1  0  0  0  0
  9 31  2  0  0  0  0
 10 11  2  0  0  0  0
 10 49  1  0  0  0  0
 11 12  1  0  0  0  0
 11 50  1  0  0  0  0
 12 13  1  0  0  0  0
 12 29  2  0  0  0  0
 13 14  1  0  0  0  0
 14 15  1  0  0  0  0
 14 28  2  0  0  0  0
 15 16  2  0  0  0  0
 15 51  1  0  0  0  0
 16 17  1  0  0  0  0
 16 52  1  0  0  0  0
 17 18  2  0  0  0  0
 18 19  1  0  0  0  0
 18 28  1  0  0  0  0
 19 20  2  0  0  0  0
 19 53  1  0  0  0  0
 20 21  1  0  0  0  0
 20 27  1  0  0  0  0
 21 22  2  0  0  0  0
 21 26  1  0  0  0  0
 22 23  1  0  0  0  0
 22 54  1  0  0  0  0
 23 24  1  0  0  0  0
 23 25  1  0  0  0  0
 24 55  1  0  0  0  0
 24 56  1  0  0  0  0
 24 57  1  0  0  0  0
 25 26  2  0  0  0  0
 25 58  1  0  0  0  0
 27 28  1  0  0  0  0
 29 30  1  0  0  0  0
 29 31  1  0  0  0  0
 31 59  1  0  0  0  0
 32 33  2  0  0  0  0
 32 60  1  0  0  0  0
 33 34  1  0  0  0  0
 34 35  1  0  0  0  0
 35 36  1  0  0  0  0
 35 40  2  0  0  0  0
 36 37  2  0  0  0  0
 36 61  1  0  0  0  0
 37 38  1  0  0  0  0
 37 62  1  0  0  0  0
 38 39  2  0  0  0  0
 38 63  1  0  0  0  0
 39 40  1  0  0  0  0
 39 64  1  0  0  0  0
 40 65  1  0  0  0  0
M  END
$$$$
