CHEMBL245174
 OpenBabel04072215363D

 37 39  0  0  0  0  0  0  0  0999 V2000
   -3.0949   -0.4268    0.8720 N   0  0  0  0  0  0  0  0  0  0  0  0
   -1.9639   -0.2801    0.6560 C   0  0  0  0  0  0  0  0  0  0  0  0
   -0.5778   -0.1290    0.3841 C   0  0  0  0  0  0  0  0  0  0  0  0
    0.2767   -1.1958    0.5658 C   0  0  0  0  0  0  0  0  0  0  0  0
    1.6098   -1.1510    0.3585 N   0  0  0  0  0  0  0  0  0  0  0  0
    2.1187    0.0342   -0.0043 C   0  0  0  0  0  0  0  0  0  0  0  0
    3.4952    0.1176   -0.1833 N   0  0  0  0  0  0  0  0  0  0  0  0
    4.3144    1.2452   -0.0305 C   0  0  0  0  0  0  0  0  0  0  0  0
    3.9529    2.3179    0.7958 C   0  0  0  0  0  0  0  0  0  0  0  0
    4.7138    3.4869    0.8484 C   0  0  0  0  0  0  0  0  0  0  0  0
    5.8490    3.6201    0.0472 C   0  0  0  0  0  0  0  0  0  0  0  0
    6.6187    4.9185    0.0181 C   0  0  0  0  0  0  0  0  0  0  0  0
    7.7178    5.0057    1.0739 C   0  0  0  0  0  0  0  0  0  0  0  0
    8.7235    4.0201    0.8655 O   0  0  0  0  0  0  0  0  0  0  0  0
    6.2411    2.5380   -0.7529 C   0  0  0  0  0  0  0  0  0  0  0  0
    5.4855    1.3602   -0.7845 C   0  0  0  0  0  0  0  0  0  0  0  0
    1.3569    1.1150   -0.2212 N   0  0  0  0  0  0  0  0  0  0  0  0
    0.0202    1.0380   -0.0447 C   0  0  0  0  0  0  0  0  0  0  0  0
   -0.7014    2.2865   -0.3781 C   0  0  0  0  0  0  0  0  0  0  0  0
   -1.9837    2.4784   -0.8713 C   0  0  0  0  0  0  0  0  0  0  0  0
   -2.3126    3.8527   -1.0703 C   0  0  0  0  0  0  0  0  0  0  0  0
   -1.2655    4.6825   -0.7512 C   0  0  0  0  0  0  0  0  0  0  0  0
    0.0892    3.8123   -0.1870 S   0  0  0  0  0  0  0  0  0  0  0  0
   -0.0919   -2.1630    0.9054 H   0  0  0  0  0  0  0  0  0  0  0  0
    3.9447   -0.7841   -0.1466 H   0  0  0  0  0  0  0  0  0  0  0  0
    3.0573    2.2585    1.4100 H   0  0  0  0  0  0  0  0  0  0  0  0
    4.3843    4.2994    1.4914 H   0  0  0  0  0  0  0  0  0  0  0  0
    5.9169    5.7506    0.1584 H   0  0  0  0  0  0  0  0  0  0  0  0
    7.0509    5.0473   -0.9818 H   0  0  0  0  0  0  0  0  0  0  0  0
    7.3223    4.8953    2.0888 H   0  0  0  0  0  0  0  0  0  0  0  0
    8.2046    5.9842    1.0069 H   0  0  0  0  0  0  0  0  0  0  0  0
    8.3063    3.1568    1.0384 H   0  0  0  0  0  0  0  0  0  0  0  0
    7.1224    2.6194   -1.3868 H   0  0  0  0  0  0  0  0  0  0  0  0
    5.7881    0.5572   -1.4518 H   0  0  0  0  0  0  0  0  0  0  0  0
   -2.6772    1.6784   -1.0990 H   0  0  0  0  0  0  0  0  0  0  0  0
   -3.2657    4.2083   -1.4424 H   0  0  0  0  0  0  0  0  0  0  0  0
   -1.2302    5.7614   -0.8223 H   0  0  0  0  0  0  0  0  0  0  0  0
  1  2  3  0  0  0  0
  2  3  1  0  0  0  0
  3  4  1  0  0  0  0
  3 18  2  0  0  0  0
  4  5  2  0  0  0  0
  4 24  1  0  0  0  0
  5  6  1  0  0  0  0
  6  7  1  0  0  0  0
  6 17  2  0  0  0  0
  7  8  1  0  0  0  0
  7 25  1  0  0  0  0
  8  9  1  0  0  0  0
  8 16  2  0  0  0  0
  9 10  2  0  0  0  0
  9 26  1  0  0  0  0
 10 11  1  0  0  0  0
 10 27  1  0  0  0  0
 11 12  1  0  0  0  0
 11 15  2  0  0  0  0
 12 13  1  0  0  0  0
 12 28  1  0  0  0  0
 12 29  1  0  0  0  0
 13 14  1  0  0  0  0
 13 30  1  0  0  0  0
 13 31  1  0  0  0  0
 14 32  1  0  0  0  0
 15 16  1  0  0  0  0
 15 33  1  0  0  0  0
 16 34  1  0  0  0  0
 17 18  1  0  0  0  0
 18 19  1  0  0  0  0
 19 20  2  0  0  0  0
 19 23  1  0  0  0  0
 20 21  1  0  0  0  0
 20 35  1  0  0  0  0
 21 22  2  0  0  0  0
 21 36  1  0  0  0  0
 22 23  1  0  0  0  0
 22 37  1  0  0  0  0
M  END
$$$$
