CHEMBL2143592
 OpenBabel04072215363D

 48 51  0  0  0  0  0  0  0  0999 V2000
    8.1652   -0.4769    3.1527 N   0  0  0  0  0  0  0  0  0  0  0  0
    7.0192   -1.1463    2.7162 C   0  0  0  0  0  0  0  0  0  0  0  0
    6.0440   -1.2465    3.6415 N   0  0  0  0  0  0  0  0  0  0  0  0
    4.8673   -1.7792    3.2529 C   0  0  0  0  0  0  0  0  0  0  0  0
    4.6122   -2.2252    1.9747 C   0  0  0  0  0  0  0  0  0  0  0  0
    5.6550   -2.2008    1.0470 C   0  0  0  0  0  0  0  0  0  0  0  0
    5.5173   -2.7031   -0.2290 O   0  0  0  0  0  0  0  0  0  0  0  0
    4.7042   -3.7941   -0.4352 C   0  0  0  0  0  0  0  0  0  0  0  0
    3.9711   -3.7883   -1.6173 C   0  0  0  0  0  0  0  0  0  0  0  0
    3.1390   -4.8663   -1.9285 C   0  0  0  0  0  0  0  0  0  0  0  0
    3.0348   -5.9652   -1.0679 C   0  0  0  0  0  0  0  0  0  0  0  0
    2.2683   -7.1101   -1.3729 N   0  0  0  0  0  0  0  0  0  0  0  0
    1.8503   -7.4775   -2.6364 C   0  0  0  0  0  0  0  0  0  0  0  0
    2.0638   -6.8436   -3.6682 O   0  0  0  0  0  0  0  0  0  0  0  0
    1.1292   -8.7762   -2.7153 C   0  0  0  0  0  0  0  0  0  0  0  0
    0.8261   -9.2530   -3.9367 C   0  0  0  0  0  0  0  0  0  0  0  0
    0.1401  -10.4192   -4.1467 N   0  0  0  0  0  0  0  0  0  0  0  0
   -0.4055  -11.1072   -3.0974 C   0  0  0  0  0  0  0  0  0  0  0  0
   -0.2001  -10.7755   -1.8146 C   0  0  0  0  0  0  0  0  0  0  0  0
   -0.8662  -11.5171   -0.7422 C   0  0  0  0  0  0  0  0  0  0  0  0
   -0.2610  -12.6405   -0.1644 C   0  0  0  0  0  0  0  0  0  0  0  0
   -0.9396  -13.3734    0.8109 C   0  0  0  0  0  0  0  0  0  0  0  0
   -2.2152  -12.9813    1.2031 C   0  0  0  0  0  0  0  0  0  0  0  0
   -2.8690  -13.6952    2.1282 F   0  0  0  0  0  0  0  0  0  0  0  0
   -2.8251  -11.8638    0.6470 C   0  0  0  0  0  0  0  0  0  0  0  0
   -2.1506  -11.1297   -0.3295 C   0  0  0  0  0  0  0  0  0  0  0  0
    0.6952   -9.5958   -1.5434 C   0  0  0  0  0  0  0  0  0  0  0  0
    1.0617   -9.3086   -0.4040 O   0  0  0  0  0  0  0  0  0  0  0  0
    3.7409   -5.9547    0.1329 C   0  0  0  0  0  0  0  0  0  0  0  0
    4.6030   -4.8968    0.4183 C   0  0  0  0  0  0  0  0  0  0  0  0
    5.3332   -4.9682    1.5414 F   0  0  0  0  0  0  0  0  0  0  0  0
    6.8691   -1.6077    1.4029 C   0  0  0  0  0  0  0  0  0  0  0  0
    8.1600   -1.4586    0.2586 Cl  0  0  0  0  0  0  0  0  0  0  0  0
    8.0732   -0.3388    4.1551 H   0  0  0  0  0  0  0  0  0  0  0  0
    9.0162   -0.9557    2.8844 H   0  0  0  0  0  0  0  0  0  0  0  0
    4.1058   -1.8435    4.0249 H   0  0  0  0  0  0  0  0  0  0  0  0
    3.6314   -2.6132    1.7249 H   0  0  0  0  0  0  0  0  0  0  0  0
    4.0436   -2.9499   -2.3068 H   0  0  0  0  0  0  0  0  0  0  0  0
    2.5714   -4.8119   -2.8537 H   0  0  0  0  0  0  0  0  0  0  0  0
    2.1265   -7.7941   -0.6233 H   0  0  0  0  0  0  0  0  0  0  0  0
    1.1099   -8.7357   -4.8514 H   0  0  0  0  0  0  0  0  0  0  0  0
   -0.1316  -10.6639   -5.0962 H   0  0  0  0  0  0  0  0  0  0  0  0
   -1.0393  -11.9439   -3.3916 H   0  0  0  0  0  0  0  0  0  0  0  0
    0.7356  -12.9515   -0.4708 H   0  0  0  0  0  0  0  0  0  0  0  0
   -0.4842  -14.2470    1.2657 H   0  0  0  0  0  0  0  0  0  0  0  0
   -3.8201  -11.5748    0.9705 H   0  0  0  0  0  0  0  0  0  0  0  0
   -2.6329  -10.2584   -0.7682 H   0  0  0  0  0  0  0  0  0  0  0  0
    3.6783   -6.7775    0.8384 H   0  0  0  0  0  0  0  0  0  0  0  0
  1  2  1  0  0  0  0
  1 34  1  0  0  0  0
  1 35  1  0  0  0  0
  2  3  1  0  0  0  0
  2 32  2  0  0  0  0
  3  4  2  0  0  0  0
  4  5  1  0  0  0  0
  4 36  1  0  0  0  0
  5  6  2  0  0  0  0
  5 37  1  0  0  0  0
  6  7  1  0  0  0  0
  6 32  1  0  0  0  0
  7  8  1  0  0  0  0
  8  9  1  0  0  0  0
  8 30  2  0  0  0  0
  9 10  2  0  0  0  0
  9 38  1  0  0  0  0
 10 11  1  0  0  0  0
 10 39  1  0  0  0  0
 11 12  1  0  0  0  0
 11 29  2  0  0  0  0
 12 13  1  0  0  0  0
 12 40  1  0  0  0  0
 13 14  2  0  0  0  0
 13 15  1  0  0  0  0
 15 16  2  0  0  0  0
 15 27  1  0  0  0  0
 16 17  1  0  0  0  0
 16 41  1  0  0  0  0
 17 18  1  0  0  0  0
 17 42  1  0  0  0  0
 18 19  2  0  0  0  0
 18 43  1  0  0  0  0
 19 20  1  0  0  0  0
 19 27  1  0  0  0  0
 20 21  1  0  0  0  0
 20 26  2  0  0  0  0
 21 22  2  0  0  0  0
 21 44  1  0  0  0  0
 22 23  1  0  0  0  0
 22 45  1  0  0  0  0
 23 24  1  0  0  0  0
 23 25  2  0  0  0  0
 25 26  1  0  0  0  0
 25 46  1  0  0  0  0
 26 47  1  0  0  0  0
 27 28  2  0  0  0  0
 29 30  1  0  0  0  0
 29 48  1  0  0  0  0
 30 31  1  0  0  0  0
 32 33  1  0  0  0  0
M  END
$$$$
