CHEMBL3696092
 OpenBabel04072215373D

 41 43  0  0  0  0  0  0  0  0999 V2000
    2.2118   -0.4556   -0.6964 N   0  0  0  0  0  0  0  0  0  0  0  0
    3.4662   -0.3506   -0.1670 C   0  0  0  0  0  0  0  0  0  0  0  0
    4.3921    0.0424   -0.8723 O   0  0  0  0  0  0  0  0  0  0  0  0
    3.6202   -0.6902    1.2420 C   0  0  0  0  0  0  0  0  0  0  0  0
    2.9468   -1.7321    2.0152 C   0  0  0  0  0  0  0  0  0  0  0  0
    2.0210   -2.7686    1.5160 C   0  0  0  0  0  0  0  0  0  0  0  0
    2.2000   -3.3197    0.2396 C   0  0  0  0  0  0  0  0  0  0  0  0
    1.3004   -4.2518   -0.2612 C   0  0  0  0  0  0  0  0  0  0  0  0
    0.2675   -4.7170    0.5456 C   0  0  0  0  0  0  0  0  0  0  0  0
    0.1321   -4.2812    1.8675 C   0  0  0  0  0  0  0  0  0  0  0  0
   -0.8129   -4.8499    2.7618 N   0  0  0  0  0  0  0  0  0  0  0  0
   -1.4240   -6.0770    2.5648 C   0  0  0  0  0  0  0  0  0  0  0  0
   -1.2151   -6.8404    1.6234 O   0  0  0  0  0  0  0  0  0  0  0  0
   -2.3911   -6.5526    3.5925 C   0  0  0  0  0  0  0  0  0  0  0  0
   -3.1542   -5.6904    4.3826 C   0  0  0  0  0  0  0  0  0  0  0  0
   -4.1318   -6.2190    5.2334 C   0  0  0  0  0  0  0  0  0  0  0  0
   -4.3608   -7.5989    5.2847 C   0  0  0  0  0  0  0  0  0  0  0  0
   -3.6068   -8.4743    4.4940 C   0  0  0  0  0  0  0  0  0  0  0  0
   -3.8603   -9.9622    4.4786 C   0  0  0  0  0  0  0  0  0  0  0  0
   -4.9226  -10.3407    5.2423 F   0  0  0  0  0  0  0  0  0  0  0  0
   -4.1170  -10.4335    3.2262 F   0  0  0  0  0  0  0  0  0  0  0  0
   -2.7960  -10.6775    4.9368 F   0  0  0  0  0  0  0  0  0  0  0  0
   -2.6111   -7.9382    3.6665 C   0  0  0  0  0  0  0  0  0  0  0  0
    0.9801   -3.2644    2.3291 C   0  0  0  0  0  0  0  0  0  0  0  0
    3.2492   -1.7476    3.3187 N   0  0  0  0  0  0  0  0  0  0  0  0
    4.4144   -0.6305    3.6370 S   0  0  0  0  0  0  0  0  0  0  0  0
    4.5441   -0.0295    2.0441 C   0  0  0  0  0  0  0  0  0  0  0  0
    5.4177    0.9475    1.6993 N   0  0  0  0  0  0  0  0  0  0  0  0
    2.1024   -0.2635   -1.6827 H   0  0  0  0  0  0  0  0  0  0  0  0
    1.4033   -0.7532   -0.1692 H   0  0  0  0  0  0  0  0  0  0  0  0
    3.0380   -3.0322   -0.3902 H   0  0  0  0  0  0  0  0  0  0  0  0
    1.4137   -4.6409   -1.2698 H   0  0  0  0  0  0  0  0  0  0  0  0
   -0.4116   -5.4451    0.1126 H   0  0  0  0  0  0  0  0  0  0  0  0
   -0.8791   -4.4262    3.6796 H   0  0  0  0  0  0  0  0  0  0  0  0
   -3.0431   -4.6123    4.3167 H   0  0  0  0  0  0  0  0  0  0  0  0
   -4.7436   -5.5513    5.8369 H   0  0  0  0  0  0  0  0  0  0  0  0
   -5.1469   -7.9854    5.9312 H   0  0  0  0  0  0  0  0  0  0  0  0
   -2.0199   -8.6112    3.0415 H   0  0  0  0  0  0  0  0  0  0  0  0
    0.8723   -2.8841    3.3427 H   0  0  0  0  0  0  0  0  0  0  0  0
    6.2140    1.1349    2.3017 H   0  0  0  0  0  0  0  0  0  0  0  0
    5.6326    1.0643    0.7054 H   0  0  0  0  0  0  0  0  0  0  0  0
  1  2  1  0  0  0  0
  1 29  1  0  0  0  0
  1 30  1  0  0  0  0
  2  3  2  0  0  0  0
  2  4  1  0  0  0  0
  4  5  1  0  0  0  0
  4 27  2  0  0  0  0
  5  6  1  0  0  0  0
  5 25  2  0  0  0  0
  6  7  1  0  0  0  0
  6 24  2  0  0  0  0
  7  8  2  0  0  0  0
  7 31  1  0  0  0  0
  8  9  1  0  0  0  0
  8 32  1  0  0  0  0
  9 10  2  0  0  0  0
  9 33  1  0  0  0  0
 10 11  1  0  0  0  0
 10 24  1  0  0  0  0
 11 12  1  0  0  0  0
 11 34  1  0  0  0  0
 12 13  2  0  0  0  0
 12 14  1  0  0  0  0
 14 15  1  0  0  0  0
 14 23  2  0  0  0  0
 15 16  2  0  0  0  0
 15 35  1  0  0  0  0
 16 17  1  0  0  0  0
 16 36  1  0  0  0  0
 17 18  2  0  0  0  0
 17 37  1  0  0  0  0
 18 19  1  0  0  0  0
 18 23  1  0  0  0  0
 19 20  1  0  0  0  0
 19 21  1  0  0  0  0
 19 22  1  0  0  0  0
 23 38  1  0  0  0  0
 24 39  1  0  0  0  0
 25 26  1  0  0  0  0
 26 27  1  0  0  0  0
 27 28  1  0  0  0  0
 28 40  1  0  0  0  0
 28 41  1  0  0  0  0
M  END
$$$$
