CHEMBL3739627
 OpenBabel04072215373D

 53 57  0  0  0  0  0  0  0  0999 V2000
    1.9518   -0.2528    0.6870 O   0  0  0  0  0  0  0  0  0  0  0  0
    2.5973   -0.4600   -0.3459 C   0  0  0  0  0  0  0  0  0  0  0  0
    2.9880   -1.7108   -0.7695 N   0  0  0  0  0  0  0  0  0  0  0  0
    2.5119   -2.9233   -0.1637 C   0  0  0  0  0  0  0  0  0  0  0  0
    1.3516   -2.9662    0.6271 C   0  0  0  0  0  0  0  0  0  0  0  0
    0.9400   -4.1478    1.2554 C   0  0  0  0  0  0  0  0  0  0  0  0
    1.6791   -5.3122    1.0727 C   0  0  0  0  0  0  0  0  0  0  0  0
    2.8109   -5.2868    0.2562 C   0  0  0  0  0  0  0  0  0  0  0  0
    3.2182   -4.0974   -0.3707 C   0  0  0  0  0  0  0  0  0  0  0  0
    2.9312    0.7626   -1.1289 C   0  0  0  0  0  0  0  0  0  0  0  0
    1.9089    1.7426   -1.0336 C   0  0  0  0  0  0  0  0  0  0  0  0
    2.0883    3.0133   -1.5504 C   0  0  0  0  0  0  0  0  0  0  0  0
    3.3747    3.4000   -1.8226 C   0  0  0  0  0  0  0  0  0  0  0  0
    4.4111    2.5124   -1.5457 C   0  0  0  0  0  0  0  0  0  0  0  0
    5.7142    2.9331   -1.4764 C   0  0  0  0  0  0  0  0  0  0  0  0
    6.2812    2.7785   -2.7000 C   0  0  0  0  0  0  0  0  0  0  0  0
    6.1806    3.9591   -3.4145 O   0  0  0  0  0  0  0  0  0  0  0  0
    7.1570    4.3245   -4.2965 C   0  0  0  0  0  0  0  0  0  0  0  0
    6.9117    5.4481   -5.0390 C   0  0  0  0  0  0  0  0  0  0  0  0
    7.8063    5.6598   -6.0502 C   0  0  0  0  0  0  0  0  0  0  0  0
    8.8799    4.8708   -6.2652 N   0  0  0  0  0  0  0  0  0  0  0  0
    9.0732    3.8519   -5.4080 C   0  0  0  0  0  0  0  0  0  0  0  0
   10.1833    3.0421   -5.5979 N   0  0  0  0  0  0  0  0  0  0  0  0
   10.7340    2.0311   -4.7960 C   0  0  0  0  0  0  0  0  0  0  0  0
   10.3173    1.7544   -3.4840 C   0  0  0  0  0  0  0  0  0  0  0  0
   10.8769    0.7114   -2.7391 C   0  0  0  0  0  0  0  0  0  0  0  0
   11.8741   -0.0775   -3.2926 C   0  0  0  0  0  0  0  0  0  0  0  0
   12.2915    0.1630   -4.5992 C   0  0  0  0  0  0  0  0  0  0  0  0
   11.7276    1.2071   -5.3393 C   0  0  0  0  0  0  0  0  0  0  0  0
    8.2270    3.5523   -4.4296 N   0  0  0  0  0  0  0  0  0  0  0  0
    6.1409    1.4897   -3.2342 C   0  0  0  0  0  0  0  0  0  0  0  0
    5.1997    0.5928   -2.6006 C   0  0  0  0  0  0  0  0  0  0  0  0
    4.1924    1.1508   -1.7037 C   0  0  0  0  0  0  0  0  0  0  0  0
    3.7163   -1.7855   -1.4641 H   0  0  0  0  0  0  0  0  0  0  0  0
    0.7206   -2.0929    0.7824 H   0  0  0  0  0  0  0  0  0  0  0  0
    0.0465   -4.1542    1.8712 H   0  0  0  0  0  0  0  0  0  0  0  0
    1.3744   -6.2301    1.5678 H   0  0  0  0  0  0  0  0  0  0  0  0
    3.3878   -6.1979    0.1168 H   0  0  0  0  0  0  0  0  0  0  0  0
    4.1121   -4.1124   -0.9840 H   0  0  0  0  0  0  0  0  0  0  0  0
    0.9679    1.5167   -0.5354 H   0  0  0  0  0  0  0  0  0  0  0  0
    1.2716    3.7217   -1.6189 H   0  0  0  0  0  0  0  0  0  0  0  0
    3.5940    4.3964   -2.1923 H   0  0  0  0  0  0  0  0  0  0  0  0
    6.2843    2.3573   -0.7161 H   0  0  0  0  0  0  0  0  0  0  0  0
    6.0502    6.0786   -4.8683 H   0  0  0  0  0  0  0  0  0  0  0  0
    7.6683    6.4750   -6.7533 H   0  0  0  0  0  0  0  0  0  0  0  0
   10.6343    3.2568   -6.4718 H   0  0  0  0  0  0  0  0  0  0  0  0
    9.5508    2.3468   -2.9962 H   0  0  0  0  0  0  0  0  0  0  0  0
   10.5274    0.5284   -1.7263 H   0  0  0  0  0  0  0  0  0  0  0  0
   12.3056   -0.8957   -2.7190 H   0  0  0  0  0  0  0  0  0  0  0  0
   13.0671   -0.4591   -5.0410 H   0  0  0  0  0  0  0  0  0  0  0  0
   12.0744    1.3679   -6.3569 H   0  0  0  0  0  0  0  0  0  0  0  0
    6.6157    1.2332   -4.1795 H   0  0  0  0  0  0  0  0  0  0  0  0
    5.0921   -0.4107   -3.0165 H   0  0  0  0  0  0  0  0  0  0  0  0
  1  2  2  0  0  0  0
  2  3  1  0  0  0  0
  2 10  1  0  0  0  0
  3  4  1  0  0  0  0
  3 34  1  0  0  0  0
  4  5  1  0  0  0  0
  4  9  2  0  0  0  0
  5  6  2  0  0  0  0
  5 35  1  0  0  0  0
  6  7  1  0  0  0  0
  6 36  1  0  0  0  0
  7  8  2  0  0  0  0
  7 37  1  0  0  0  0
  8  9  1  0  0  0  0
  8 38  1  0  0  0  0
  9 39  1  0  0  0  0
 10 11  1  0  0  0  0
 10 33  2  0  0  0  0
 11 12  2  0  0  0  0
 11 40  1  0  0  0  0
 12 13  1  0  0  0  0
 12 41  1  0  0  0  0
 13 14  2  0  0  0  0
 13 42  1  0  0  0  0
 14 15  1  0  0  0  0
 14 33  1  0  0  0  0
 15 16  2  0  0  0  0
 15 43  1  0  0  0  0
 16 17  1  0  0  0  0
 16 31  1  0  0  0  0
 17 18  1  0  0  0  0
 18 19  1  0  0  0  0
 18 30  2  0  0  0  0
 19 20  2  0  0  0  0
 19 44  1  0  0  0  0
 20 21  1  0  0  0  0
 20 45  1  0  0  0  0
 21 22  2  0  0  0  0
 22 23  1  0  0  0  0
 22 30  1  0  0  0  0
 23 24  1  0  0  0  0
 23 46  1  0  0  0  0
 24 25  1  0  0  0  0
 24 29  2  0  0  0  0
 25 26  2  0  0  0  0
 25 47  1  0  0  0  0
 26 27  1  0  0  0  0
 26 48  1  0  0  0  0
 27 28  2  0  0  0  0
 27 49  1  0  0  0  0
 28 29  1  0  0  0  0
 28 50  1  0  0  0  0
 29 51  1  0  0  0  0
 31 32  2  0  0  0  0
 31 52  1  0  0  0  0
 32 33  1  0  0  0  0
 32 53  1  0  0  0  0
M  END
$$$$
