CHEMBL402042
 OpenBabel04072215373D

 55 59  0  0  0  0  0  0  0  0999 V2000
    3.6143   -0.8121   -1.1014 O   0  0  0  0  0  0  0  0  0  0  0  0
    2.9966   -1.8333   -1.3979 C   0  0  0  0  0  0  0  0  0  0  0  0
    1.8430   -1.8301   -2.3870 C   0  0  0  0  0  0  0  0  0  0  0  0
    0.5014   -2.2604   -1.8387 C   0  0  0  0  0  0  0  0  0  0  0  0
    0.1063   -1.9805   -0.5231 C   0  0  0  0  0  0  0  0  0  0  0  0
   -1.1664   -2.3383   -0.0717 C   0  0  0  0  0  0  0  0  0  0  0  0
   -2.0683   -2.9597   -0.9318 C   0  0  0  0  0  0  0  0  0  0  0  0
   -1.6980   -3.2255   -2.2470 C   0  0  0  0  0  0  0  0  0  0  0  0
   -0.4236   -2.8766   -2.6979 C   0  0  0  0  0  0  0  0  0  0  0  0
    3.2852   -3.0885   -0.8751 N   0  0  0  0  0  0  0  0  0  0  0  0
    4.3982   -3.4964   -0.1727 C   0  0  0  0  0  0  0  0  0  0  0  0
    4.4806   -5.1157    0.2435 S   0  0  0  0  0  0  0  0  0  0  0  0
    5.3105   -2.5140    0.1254 N   0  0  0  0  0  0  0  0  0  0  0  0
    6.7057   -2.6181    0.2958 C   0  0  0  0  0  0  0  0  0  0  0  0
    7.3599   -1.6098    1.0121 C   0  0  0  0  0  0  0  0  0  0  0  0
    8.7514   -1.6302    1.1589 C   0  0  0  0  0  0  0  0  0  0  0  0
    9.4997   -2.6751    0.6069 C   0  0  0  0  0  0  0  0  0  0  0  0
   10.8661   -2.7909    0.7268 O   0  0  0  0  0  0  0  0  0  0  0  0
   11.4794   -2.3861    1.8881 C   0  0  0  0  0  0  0  0  0  0  0  0
   10.9041   -2.5263    3.1510 C   0  0  0  0  0  0  0  0  0  0  0  0
   11.5758   -2.0341    4.2524 C   0  0  0  0  0  0  0  0  0  0  0  0
   12.7972   -1.4746    4.2265 N   0  0  0  0  0  0  0  0  0  0  0  0
   13.4038   -1.4404    3.0096 C   0  0  0  0  0  0  0  0  0  0  0  0
   14.7338   -0.9861    2.7806 C   0  0  0  0  0  0  0  0  0  0  0  0
   15.1394   -1.1233    1.4659 C   0  0  0  0  0  0  0  0  0  0  0  0
   16.4614   -0.8500    0.8816 C   0  0  0  0  0  0  0  0  0  0  0  0
   17.2973    0.1374    1.4175 C   0  0  0  0  0  0  0  0  0  0  0  0
   18.5695    0.3484    0.8850 C   0  0  0  0  0  0  0  0  0  0  0  0
   18.9770   -0.4380   -0.1781 C   0  0  0  0  0  0  0  0  0  0  0  0
   18.2103   -1.3989   -0.7303 N   0  0  0  0  0  0  0  0  0  0  0  0
   16.9790   -1.5819   -0.1887 C   0  0  0  0  0  0  0  0  0  0  0  0
   13.8380   -1.6789    0.4930 S   0  0  0  0  0  0  0  0  0  0  0  0
   12.7869   -1.8767    1.8389 C   0  0  0  0  0  0  0  0  0  0  0  0
    8.8465   -3.6359   -0.1619 C   0  0  0  0  0  0  0  0  0  0  0  0
    9.5512   -4.5924   -0.7868 F   0  0  0  0  0  0  0  0  0  0  0  0
    7.4639   -3.6154   -0.3185 C   0  0  0  0  0  0  0  0  0  0  0  0
    2.1356   -2.4853   -3.2162 H   0  0  0  0  0  0  0  0  0  0  0  0
    1.7425   -0.8185   -2.7976 H   0  0  0  0  0  0  0  0  0  0  0  0
    0.7750   -1.4684    0.1668 H   0  0  0  0  0  0  0  0  0  0  0  0
   -1.4599   -2.1169    0.9516 H   0  0  0  0  0  0  0  0  0  0  0  0
   -3.0637   -3.2232   -0.5813 H   0  0  0  0  0  0  0  0  0  0  0  0
   -2.4082   -3.6931   -2.9259 H   0  0  0  0  0  0  0  0  0  0  0  0
   -0.1656   -3.0753   -3.7369 H   0  0  0  0  0  0  0  0  0  0  0  0
    2.6521   -3.8440   -1.1083 H   0  0  0  0  0  0  0  0  0  0  0  0
    4.9163   -1.5781    0.2220 H   0  0  0  0  0  0  0  0  0  0  0  0
    6.7947   -0.8136    1.4926 H   0  0  0  0  0  0  0  0  0  0  0  0
    9.2334   -0.8291    1.7139 H   0  0  0  0  0  0  0  0  0  0  0  0
    9.9339   -2.9933    3.2865 H   0  0  0  0  0  0  0  0  0  0  0  0
   11.1171   -2.0811    5.2378 H   0  0  0  0  0  0  0  0  0  0  0  0
   15.3737   -0.6300    3.5771 H   0  0  0  0  0  0  0  0  0  0  0  0
   16.9702    0.7535    2.2511 H   0  0  0  0  0  0  0  0  0  0  0  0
   19.2273    1.1073    1.2937 H   0  0  0  0  0  0  0  0  0  0  0  0
   19.9594   -0.3146   -0.6247 H   0  0  0  0  0  0  0  0  0  0  0  0
   16.4146   -2.3846   -0.6564 H   0  0  0  0  0  0  0  0  0  0  0  0
    7.0187   -4.3588   -0.9691 H   0  0  0  0  0  0  0  0  0  0  0  0
  1  2  2  0  0  0  0
  2  3  1  0  0  0  0
  2 10  1  0  0  0  0
  3  4  1  0  0  0  0
  3 37  1  0  0  0  0
  3 38  1  0  0  0  0
  4  5  1  0  0  0  0
  4  9  2  0  0  0  0
  5  6  2  0  0  0  0
  5 39  1  0  0  0  0
  6  7  1  0  0  0  0
  6 40  1  0  0  0  0
  7  8  2  0  0  0  0
  7 41  1  0  0  0  0
  8  9  1  0  0  0  0
  8 42  1  0  0  0  0
  9 43  1  0  0  0  0
 10 11  1  0  0  0  0
 10 44  1  0  0  0  0
 11 12  2  0  0  0  0
 11 13  1  0  0  0  0
 13 14  1  0  0  0  0
 13 45  1  0  0  0  0
 14 15  1  0  0  0  0
 14 36  2  0  0  0  0
 15 16  2  0  0  0  0
 15 46  1  0  0  0  0
 16 17  1  0  0  0  0
 16 47  1  0  0  0  0
 17 18  1  0  0  0  0
 17 34  2  0  0  0  0
 18 19  1  0  0  0  0
 19 20  1  0  0  0  0
 19 33  2  0  0  0  0
 20 21  2  0  0  0  0
 20 48  1  0  0  0  0
 21 22  1  0  0  0  0
 21 49  1  0  0  0  0
 22 23  2  0  0  0  0
 23 24  1  0  0  0  0
 23 33  1  0  0  0  0
 24 25  2  0  0  0  0
 24 50  1  0  0  0  0
 25 26  1  0  0  0  0
 25 32  1  0  0  0  0
 26 27  1  0  0  0  0
 26 31  2  0  0  0  0
 27 28  2  0  0  0  0
 27 51  1  0  0  0  0
 28 29  1  0  0  0  0
 28 52  1  0  0  0  0
 29 30  2  0  0  0  0
 29 53  1  0  0  0  0
 30 31  1  0  0  0  0
 31 54  1  0  0  0  0
 32 33  1  0  0  0  0
 34 35  1  0  0  0  0
 34 36  1  0  0  0  0
 36 55  1  0  0  0  0
M  END
$$$$
