CHEMBL3676360
 OpenBabel04072215373D

 58 60  0  0  0  0  0  0  0  0999 V2000
    3.5100    2.6344   -2.8747 C   0  0  0  0  0  0  0  0  0  0  0  0
    3.5613    2.5845   -1.5385 C   0  0  0  0  0  0  0  0  0  0  0  0
    3.7484    1.2710   -0.8645 C   0  0  0  0  0  0  0  0  0  0  0  0
    3.3352    0.2230   -1.3460 O   0  0  0  0  0  0  0  0  0  0  0  0
    4.4566    1.2652    0.3184 N   0  0  0  0  0  0  0  0  0  0  0  0
    5.2797    2.3335    0.7172 C   0  0  0  0  0  0  0  0  0  0  0  0
    6.4085    2.6170   -0.0538 C   0  0  0  0  0  0  0  0  0  0  0  0
    7.0999    3.8338    0.1176 C   0  0  0  0  0  0  0  0  0  0  0  0
    8.1969    4.2398   -0.6580 C   0  0  0  0  0  0  0  0  0  0  0  0
    8.6539    3.4177   -1.7287 N   0  0  0  0  0  0  0  0  0  0  0  0
    9.9093    3.6179   -2.3560 C   0  0  0  0  0  0  0  0  0  0  0  0
   11.0760    3.7117   -1.5862 C   0  0  0  0  0  0  0  0  0  0  0  0
   12.2981    4.0349   -2.1788 C   0  0  0  0  0  0  0  0  0  0  0  0
   13.6742    4.1762   -1.1446 Cl  0  0  0  0  0  0  0  0  0  0  0  0
   12.3663    4.2477   -3.5606 C   0  0  0  0  0  0  0  0  0  0  0  0
   13.8280    4.7281   -4.3464 Cl  0  0  0  0  0  0  0  0  0  0  0  0
   11.2233    4.0937   -4.3484 C   0  0  0  0  0  0  0  0  0  0  0  0
   10.0115    3.7725   -3.7430 C   0  0  0  0  0  0  0  0  0  0  0  0
    8.9136    3.6500   -4.5052 F   0  0  0  0  0  0  0  0  0  0  0  0
    8.8265    5.4084   -0.4420 N   0  0  0  0  0  0  0  0  0  0  0  0
    8.3407    6.1860    0.5301 C   0  0  0  0  0  0  0  0  0  0  0  0
    7.2921    5.9069    1.3108 N   0  0  0  0  0  0  0  0  0  0  0  0
    6.6839    4.7351    1.1086 C   0  0  0  0  0  0  0  0  0  0  0  0
    5.5956    4.3980    1.9075 C   0  0  0  0  0  0  0  0  0  0  0  0
    4.8983    3.1956    1.7509 C   0  0  0  0  0  0  0  0  0  0  0  0
    3.8501    3.0145    2.6205 O   0  0  0  0  0  0  0  0  0  0  0  0
    3.6084    1.6565    3.0122 C   0  0  0  0  0  0  0  0  0  0  0  0
    3.0948    1.5912    4.4532 C   0  0  0  0  0  0  0  0  0  0  0  0
    2.9577    0.2158    4.9138 N   0  0  0  0  0  0  0  0  0  0  0  0
    4.0621   -0.5467    5.2465 C   0  0  0  0  0  0  0  0  0  0  0  0
    5.1921   -0.0747    5.3557 O   0  0  0  0  0  0  0  0  0  0  0  0
    3.7689   -2.0348    5.4712 C   0  0  0  0  0  0  0  0  0  0  0  0
    2.7494   -2.5564    4.5194 N   0  0  0  0  0  0  0  0  0  0  0  0
    3.2493   -2.5258    3.1380 C   0  0  0  0  0  0  0  0  0  0  0  0
    2.4383   -3.9501    4.8725 C   0  0  0  0  0  0  0  0  0  0  0  0
    3.4342    3.5837   -3.3948 H   0  0  0  0  0  0  0  0  0  0  0  0
    3.5580    1.7315   -3.4778 H   0  0  0  0  0  0  0  0  0  0  0  0
    3.5286    3.4877   -0.9413 H   0  0  0  0  0  0  0  0  0  0  0  0
    4.8160    0.3313    0.4873 H   0  0  0  0  0  0  0  0  0  0  0  0
    6.7205    1.9157   -0.8252 H   0  0  0  0  0  0  0  0  0  0  0  0
    7.9110    3.3373   -2.4223 H   0  0  0  0  0  0  0  0  0  0  0  0
   11.0169    3.5632   -0.5101 H   0  0  0  0  0  0  0  0  0  0  0  0
   11.2596    4.2434   -5.4231 H   0  0  0  0  0  0  0  0  0  0  0  0
    8.8430    7.1331    0.6964 H   0  0  0  0  0  0  0  0  0  0  0  0
    5.2756    5.1011    2.6748 H   0  0  0  0  0  0  0  0  0  0  0  0
    4.5205    1.0517    2.9423 H   0  0  0  0  0  0  0  0  0  0  0  0
    2.8443    1.2315    2.3504 H   0  0  0  0  0  0  0  0  0  0  0  0
    2.1179    2.0734    4.5390 H   0  0  0  0  0  0  0  0  0  0  0  0
    3.7832    2.1217    5.1217 H   0  0  0  0  0  0  0  0  0  0  0  0
    2.1245   -0.3157    4.6760 H   0  0  0  0  0  0  0  0  0  0  0  0
    3.4047   -2.1277    6.5021 H   0  0  0  0  0  0  0  0  0  0  0  0
    4.7088   -2.5931    5.3847 H   0  0  0  0  0  0  0  0  0  0  0  0
    3.4812   -1.5059    2.8151 H   0  0  0  0  0  0  0  0  0  0  0  0
    2.4779   -2.8930    2.4518 H   0  0  0  0  0  0  0  0  0  0  0  0
    4.1488   -3.1380    3.0084 H   0  0  0  0  0  0  0  0  0  0  0  0
    2.0685   -4.0211    5.9011 H   0  0  0  0  0  0  0  0  0  0  0  0
    3.3126   -4.6053    4.7797 H   0  0  0  0  0  0  0  0  0  0  0  0
    1.6452   -4.3403    4.2249 H   0  0  0  0  0  0  0  0  0  0  0  0
  1  2  2  0  0  0  0
  1 36  1  0  0  0  0
  1 37  1  0  0  0  0
  2  3  1  0  0  0  0
  2 38  1  0  0  0  0
  3  4  2  0  0  0  0
  3  5  1  0  0  0  0
  5  6  1  0  0  0  0
  5 39  1  0  0  0  0
  6  7  1  0  0  0  0
  6 25  2  0  0  0  0
  7  8  2  0  0  0  0
  7 40  1  0  0  0  0
  8  9  1  0  0  0  0
  8 23  1  0  0  0  0
  9 10  1  0  0  0  0
  9 20  2  0  0  0  0
 10 11  1  0  0  0  0
 10 41  1  0  0  0  0
 11 12  1  0  0  0  0
 11 18  2  0  0  0  0
 12 13  2  0  0  0  0
 12 42  1  0  0  0  0
 13 14  1  0  0  0  0
 13 15  1  0  0  0  0
 15 16  1  0  0  0  0
 15 17  2  0  0  0  0
 17 18  1  0  0  0  0
 17 43  1  0  0  0  0
 18 19  1  0  0  0  0
 20 21  1  0  0  0  0
 21 22  2  0  0  0  0
 21 44  1  0  0  0  0
 22 23  1  0  0  0  0
 23 24  2  0  0  0  0
 24 25  1  0  0  0  0
 24 45  1  0  0  0  0
 25 26  1  0  0  0  0
 26 27  1  0  0  0  0
 27 28  1  0  0  0  0
 27 46  1  0  0  0  0
 27 47  1  0  0  0  0
 28 29  1  0  0  0  0
 28 48  1  0  0  0  0
 28 49  1  0  0  0  0
 29 30  1  0  0  0  0
 29 50  1  0  0  0  0
 30 31  2  0  0  0  0
 30 32  1  0  0  0  0
 32 33  1  0  0  0  0
 32 51  1  0  0  0  0
 32 52  1  0  0  0  0
 33 34  1  0  0  0  0
 33 35  1  0  0  0  0
 34 53  1  0  0  0  0
 34 54  1  0  0  0  0
 34 55  1  0  0  0  0
 35 56  1  0  0  0  0
 35 57  1  0  0  0  0
 35 58  1  0  0  0  0
M  END
$$$$
