CHEMBL3893285
 OpenBabel04072215373D

 72 76  0  0  0  0  0  0  0  0999 V2000
    0.8566    1.1042    2.5075 C   0  0  0  0  0  0  0  0  0  0  0  0
    1.6432    1.5340    1.3475 N   0  0  0  0  0  0  0  0  0  0  0  0
    2.5903    0.4770    0.9650 C   0  0  0  0  0  0  0  0  0  0  0  0
    3.4205    0.8872   -0.2495 C   0  0  0  0  0  0  0  0  0  0  0  0
    2.5486    1.2547   -1.4523 C   0  0  0  0  0  0  0  0  0  0  0  0
    1.8347    0.1036   -2.0312 N   0  0  0  0  0  0  0  0  0  0  0  0
    2.4963   -0.9743   -2.6145 C   0  0  0  0  0  0  0  0  0  0  0  0
    1.8910   -2.2432   -2.5659 C   0  0  0  0  0  0  0  0  0  0  0  0
    2.4863   -3.3931   -3.1083 C   0  0  0  0  0  0  0  0  0  0  0  0
    1.9222   -4.6948   -2.9532 N   0  0  0  0  0  0  0  0  0  0  0  0
    0.9009   -5.0136   -2.0666 C   0  0  0  0  0  0  0  0  0  0  0  0
    0.3616   -4.2152   -1.3074 O   0  0  0  0  0  0  0  0  0  0  0  0
    0.5599   -6.3660   -2.0738 N   0  0  0  0  0  0  0  0  0  0  0  0
   -0.4905   -6.8042   -1.2184 C   0  0  0  0  0  0  0  0  0  0  0  0
   -1.7177   -6.1284   -1.2010 C   0  0  0  0  0  0  0  0  0  0  0  0
   -2.7162   -6.4711   -0.2835 C   0  0  0  0  0  0  0  0  0  0  0  0
   -2.5303   -7.5427    0.5920 C   0  0  0  0  0  0  0  0  0  0  0  0
   -3.4779   -7.9439    1.5206 O   0  0  0  0  0  0  0  0  0  0  0  0
   -4.8240   -7.9013    1.1864 C   0  0  0  0  0  0  0  0  0  0  0  0
   -5.2873   -8.0460   -0.1146 C   0  0  0  0  0  0  0  0  0  0  0  0
   -6.6384   -7.9156   -0.3380 C   0  0  0  0  0  0  0  0  0  0  0  0
   -7.5298   -7.7221    0.6500 N   0  0  0  0  0  0  0  0  0  0  0  0
   -7.1058   -7.6716    1.9231 C   0  0  0  0  0  0  0  0  0  0  0  0
   -8.0624   -7.5368    2.9493 N   0  0  0  0  0  0  0  0  0  0  0  0
   -9.4265   -7.4607    2.7116 C   0  0  0  0  0  0  0  0  0  0  0  0
   -9.9926   -7.4817    1.6287 O   0  0  0  0  0  0  0  0  0  0  0  0
  -10.3237   -7.3518    3.9047 C   0  0  0  0  0  0  0  0  0  0  0  0
   -9.9241   -7.0937    5.3311 C   0  0  0  0  0  0  0  0  0  0  0  0
  -10.3618   -8.4707    4.9195 C   0  0  0  0  0  0  0  0  0  0  0  0
   -5.7469   -7.7487    2.2368 C   0  0  0  0  0  0  0  0  0  0  0  0
   -1.3005   -8.2091    0.5736 C   0  0  0  0  0  0  0  0  0  0  0  0
   -1.0566   -9.1892    1.4568 F   0  0  0  0  0  0  0  0  0  0  0  0
   -0.2904   -7.8660   -0.3372 C   0  0  0  0  0  0  0  0  0  0  0  0
    3.6757   -3.2410   -3.8204 C   0  0  0  0  0  0  0  0  0  0  0  0
    4.2665   -1.9675   -3.9589 C   0  0  0  0  0  0  0  0  0  0  0  0
    5.4993   -1.7350   -4.7941 C   0  0  0  0  0  0  0  0  0  0  0  0
    5.9934   -2.8670   -5.3688 F   0  0  0  0  0  0  0  0  0  0  0  0
    5.2686   -0.8676   -5.8194 F   0  0  0  0  0  0  0  0  0  0  0  0
    6.5259   -1.1986   -4.0779 F   0  0  0  0  0  0  0  0  0  0  0  0
    3.6759   -0.8552   -3.3288 C   0  0  0  0  0  0  0  0  0  0  0  0
    1.5262    2.3119   -1.0174 C   0  0  0  0  0  0  0  0  0  0  0  0
    0.7518    1.8943    0.2367 C   0  0  0  0  0  0  0  0  0  0  0  0
    1.5112    0.8693    3.3544 H   0  0  0  0  0  0  0  0  0  0  0  0
    0.2500    0.2174    2.2879 H   0  0  0  0  0  0  0  0  0  0  0  0
    0.1870    1.9052    2.8392 H   0  0  0  0  0  0  0  0  0  0  0  0
    2.0700   -0.4673    0.7612 H   0  0  0  0  0  0  0  0  0  0  0  0
    3.2788    0.2914    1.7996 H   0  0  0  0  0  0  0  0  0  0  0  0
    4.1341    0.0926   -0.4937 H   0  0  0  0  0  0  0  0  0  0  0  0
    4.0236    1.7653    0.0243 H   0  0  0  0  0  0  0  0  0  0  0  0
    3.1782    1.7057   -2.2282 H   0  0  0  0  0  0  0  0  0  0  0  0
    1.0397   -0.1979   -1.4681 H   0  0  0  0  0  0  0  0  0  0  0  0
    0.9215   -2.3009   -2.0886 H   0  0  0  0  0  0  0  0  0  0  0  0
    2.3431   -5.4469   -3.4770 H   0  0  0  0  0  0  0  0  0  0  0  0
    1.3337   -7.0011   -2.2031 H   0  0  0  0  0  0  0  0  0  0  0  0
   -1.9025   -5.3074   -1.8912 H   0  0  0  0  0  0  0  0  0  0  0  0
   -3.6316   -5.8850   -0.2722 H   0  0  0  0  0  0  0  0  0  0  0  0
   -4.6298   -8.2309   -0.9567 H   0  0  0  0  0  0  0  0  0  0  0  0
   -7.0564   -7.9486   -1.3374 H   0  0  0  0  0  0  0  0  0  0  0  0
   -7.7337   -7.5276    3.8985 H   0  0  0  0  0  0  0  0  0  0  0  0
  -11.2931   -6.9396    3.6238 H   0  0  0  0  0  0  0  0  0  0  0  0
  -10.6152   -6.5123    5.9365 H   0  0  0  0  0  0  0  0  0  0  0  0
   -8.8889   -6.9331    5.5928 H   0  0  0  0  0  0  0  0  0  0  0  0
  -11.3415   -8.8209    5.2283 H   0  0  0  0  0  0  0  0  0  0  0  0
   -9.6153   -9.2535    4.8616 H   0  0  0  0  0  0  0  0  0  0  0  0
   -5.3986   -7.6901    3.2538 H   0  0  0  0  0  0  0  0  0  0  0  0
    0.6587   -8.3887   -0.2837 H   0  0  0  0  0  0  0  0  0  0  0  0
    4.1634   -4.1025   -4.2751 H   0  0  0  0  0  0  0  0  0  0  0  0
    4.1461    0.1223   -3.4479 H   0  0  0  0  0  0  0  0  0  0  0  0
    0.8193    2.5172   -1.8307 H   0  0  0  0  0  0  0  0  0  0  0  0
    2.0547    3.2522   -0.8110 H   0  0  0  0  0  0  0  0  0  0  0  0
    0.0761    1.0637   -0.0032 H   0  0  0  0  0  0  0  0  0  0  0  0
    0.1194    2.7383    0.5387 H   0  0  0  0  0  0  0  0  0  0  0  0
  1  2  1  0  0  0  0
  1 43  1  0  0  0  0
  1 44  1  0  0  0  0
  1 45  1  0  0  0  0
  2  3  1  0  0  0  0
  2 42  1  0  0  0  0
  3  4  1  0  0  0  0
  3 46  1  0  0  0  0
  3 47  1  0  0  0  0
  4  5  1  0  0  0  0
  4 48  1  0  0  0  0
  4 49  1  0  0  0  0
  5  6  1  0  0  0  0
  5 41  1  0  0  0  0
  5 50  1  0  0  0  0
  6  7  1  0  0  0  0
  6 51  1  0  0  0  0
  7  8  1  0  0  0  0
  7 40  2  0  0  0  0
  8  9  2  0  0  0  0
  8 52  1  0  0  0  0
  9 10  1  0  0  0  0
  9 34  1  0  0  0  0
 10 11  1  0  0  0  0
 10 53  1  0  0  0  0
 11 12  2  0  0  0  0
 11 13  1  0  0  0  0
 13 14  1  0  0  0  0
 13 54  1  0  0  0  0
 14 15  1  0  0  0  0
 14 33  2  0  0  0  0
 15 16  2  0  0  0  0
 15 55  1  0  0  0  0
 16 17  1  0  0  0  0
 16 56  1  0  0  0  0
 17 18  1  0  0  0  0
 17 31  2  0  0  0  0
 18 19  1  0  0  0  0
 19 20  1  0  0  0  0
 19 30  2  0  0  0  0
 20 21  2  0  0  0  0
 20 57  1  0  0  0  0
 21 22  1  0  0  0  0
 21 58  1  0  0  0  0
 22 23  2  0  0  0  0
 23 24  1  0  0  0  0
 23 30  1  0  0  0  0
 24 25  1  0  0  0  0
 24 59  1  0  0  0  0
 25 26  2  0  0  0  0
 25 27  1  0  0  0  0
 27 28  1  0  0  0  0
 27 29  1  0  0  0  0
 27 60  1  0  0  0  0
 28 29  1  0  0  0  0
 28 61  1  0  0  0  0
 28 62  1  0  0  0  0
 29 63  1  0  0  0  0
 29 64  1  0  0  0  0
 30 65  1  0  0  0  0
 31 32  1  0  0  0  0
 31 33  1  0  0  0  0
 33 66  1  0  0  0  0
 34 35  2  0  0  0  0
 34 67  1  0  0  0  0
 35 36  1  0  0  0  0
 35 40  1  0  0  0  0
 36 37  1  0  0  0  0
 36 38  1  0  0  0  0
 36 39  1  0  0  0  0
 40 68  1  0  0  0  0
 41 42  1  0  0  0  0
 41 69  1  0  0  0  0
 41 70  1  0  0  0  0
 42 71  1  0  0  0  0
 42 72  1  0  0  0  0
M  END
$$$$
