CHEMBL3694717
 OpenBabel04072215373D

 39 42  0  0  0  0  0  0  0  0999 V2000
   -1.7961   -0.4472    1.3440 C   0  0  0  0  0  0  0  0  0  0  0  0
   -0.5808   -0.2220    0.5465 C   0  0  0  0  0  0  0  0  0  0  0  0
   -0.1683   -0.8284   -0.5397 N   0  0  0  0  0  0  0  0  0  0  0  0
    1.0196   -0.2269   -0.8814 N   0  0  0  0  0  0  0  0  0  0  0  0
    1.2801    0.7208    0.0127 C   0  0  0  0  0  0  0  0  0  0  0  0
    2.4276    1.5845    0.0151 C   0  0  0  0  0  0  0  0  0  0  0  0
    3.4565    1.5071   -1.0268 C   0  0  0  0  0  0  0  0  0  0  0  0
    4.5176    2.3271   -0.9931 C   0  0  0  0  0  0  0  0  0  0  0  0
    4.6276    3.2829    0.0189 N   0  0  0  0  0  0  0  0  0  0  0  0
    5.5737    4.2841    0.2384 C   0  0  0  0  0  0  0  0  0  0  0  0
    6.7007    4.6371   -0.6404 C   0  0  0  0  0  0  0  0  0  0  0  0
    6.5926    4.5394   -2.0336 C   0  0  0  0  0  0  0  0  0  0  0  0
    7.6858    4.7871   -2.8597 C   0  0  0  0  0  0  0  0  0  0  0  0
    8.8864    5.2284   -2.3130 C   0  0  0  0  0  0  0  0  0  0  0  0
    8.9955    5.4520   -0.9412 C   0  0  0  0  0  0  0  0  0  0  0  0
   10.1407    6.0238   -0.3461 N   0  0  0  0  0  0  0  0  0  0  0  0
   11.2400    6.5312   -0.9896 C   0  0  0  0  0  0  0  0  0  0  0  0
   12.1374    7.0774   -0.1202 N   0  0  0  0  0  0  0  0  0  0  0  0
   11.4786    6.5644   -2.1889 O   0  0  0  0  0  0  0  0  0  0  0  0
    7.9102    5.1225   -0.1083 C   0  0  0  0  0  0  0  0  0  0  0  0
    5.1879    4.8344    1.4534 C   0  0  0  0  0  0  0  0  0  0  0  0
    4.0364    4.2739    1.9398 N   0  0  0  0  0  0  0  0  0  0  0  0
    3.6967    3.3650    1.0542 C   0  0  0  0  0  0  0  0  0  0  0  0
    2.5725    2.4845    1.0169 C   0  0  0  0  0  0  0  0  0  0  0  0
    0.2671    0.7632    0.9612 O   0  0  0  0  0  0  0  0  0  0  0  0
   -2.3556   -1.3058    0.9608 H   0  0  0  0  0  0  0  0  0  0  0  0
   -2.4462    0.4314    1.3031 H   0  0  0  0  0  0  0  0  0  0  0  0
   -1.5406   -0.6442    2.3892 H   0  0  0  0  0  0  0  0  0  0  0  0
    3.3414    0.7687   -1.8162 H   0  0  0  0  0  0  0  0  0  0  0  0
    5.3002    2.2622   -1.7349 H   0  0  0  0  0  0  0  0  0  0  0  0
    5.6529    4.2750   -2.5093 H   0  0  0  0  0  0  0  0  0  0  0  0
    7.5980    4.6565   -3.9352 H   0  0  0  0  0  0  0  0  0  0  0  0
    9.7105    5.4178   -2.9934 H   0  0  0  0  0  0  0  0  0  0  0  0
   10.0847    6.2370    0.6384 H   0  0  0  0  0  0  0  0  0  0  0  0
   12.3025    6.5892    0.7467 H   0  0  0  0  0  0  0  0  0  0  0  0
   12.9820    7.3847   -0.5894 H   0  0  0  0  0  0  0  0  0  0  0  0
    8.0062    5.2507    0.9672 H   0  0  0  0  0  0  0  0  0  0  0  0
    5.6752    5.6360    1.9946 H   0  0  0  0  0  0  0  0  0  0  0  0
    1.8526    2.5784    1.8237 H   0  0  0  0  0  0  0  0  0  0  0  0
  1  2  1  0  0  0  0
  1 26  1  0  0  0  0
  1 27  1  0  0  0  0
  1 28  1  0  0  0  0
  2  3  2  0  0  0  0
  2 25  1  0  0  0  0
  3  4  1  0  0  0  0
  4  5  2  0  0  0  0
  5  6  1  0  0  0  0
  5 25  1  0  0  0  0
  6  7  1  0  0  0  0
  6 24  2  0  0  0  0
  7  8  2  0  0  0  0
  7 29  1  0  0  0  0
  8  9  1  0  0  0  0
  8 30  1  0  0  0  0
  9 10  1  0  0  0  0
  9 23  1  0  0  0  0
 10 11  1  0  0  0  0
 10 21  2  0  0  0  0
 11 12  1  0  0  0  0
 11 20  2  0  0  0  0
 12 13  2  0  0  0  0
 12 31  1  0  0  0  0
 13 14  1  0  0  0  0
 13 32  1  0  0  0  0
 14 15  2  0  0  0  0
 14 33  1  0  0  0  0
 15 16  1  0  0  0  0
 15 20  1  0  0  0  0
 16 17  1  0  0  0  0
 16 34  1  0  0  0  0
 17 18  1  0  0  0  0
 17 19  2  0  0  0  0
 18 35  1  0  0  0  0
 18 36  1  0  0  0  0
 20 37  1  0  0  0  0
 21 22  1  0  0  0  0
 21 38  1  0  0  0  0
 22 23  2  0  0  0  0
 23 24  1  0  0  0  0
 24 39  1  0  0  0  0
M  END
$$$$
