CHEMBL4460897
 OpenBabel04072215383D

 51 54  0  0  0  0  0  0  0  0999 V2000
  -12.1229    5.8464    3.3924 C   0  0  0  0  0  0  0  0  0  0  0  0
  -11.4714    4.7782    2.5649 C   0  0  0  0  0  0  0  0  0  0  0  0
  -10.6921    5.1166    1.4559 C   0  0  0  0  0  0  0  0  0  0  0  0
  -10.0569    4.1250    0.7041 C   0  0  0  0  0  0  0  0  0  0  0  0
  -10.1897    2.7739    1.0543 C   0  0  0  0  0  0  0  0  0  0  0  0
   -9.5018    1.7627    0.3243 N   0  0  0  0  0  0  0  0  0  0  0  0
   -8.6081    1.9422   -0.7079 C   0  0  0  0  0  0  0  0  0  0  0  0
   -8.1135    0.7143   -1.0618 C   0  0  0  0  0  0  0  0  0  0  0  0
   -7.1519    0.4218   -2.0186 N   0  0  0  0  0  0  0  0  0  0  0  0
   -6.5075    1.3766   -2.7889 C   0  0  0  0  0  0  0  0  0  0  0  0
   -6.7017    2.5882   -2.7545 O   0  0  0  0  0  0  0  0  0  0  0  0
   -5.5086    0.8727   -3.7730 C   0  0  0  0  0  0  0  0  0  0  0  0
   -4.7480   -0.2829   -3.5603 C   0  0  0  0  0  0  0  0  0  0  0  0
   -3.8233   -0.6926   -4.5256 C   0  0  0  0  0  0  0  0  0  0  0  0
   -3.6622    0.0431   -5.7012 C   0  0  0  0  0  0  0  0  0  0  0  0
   -4.3990    1.2078   -5.9009 C   0  0  0  0  0  0  0  0  0  0  0  0
   -4.2186    1.9445   -7.1010 N   0  0  0  0  0  0  0  0  0  0  0  0
   -5.1297    1.5337   -8.4628 S   0  0  0  0  0  0  0  0  0  0  0  0
   -4.8250    2.5206   -9.4771 O   0  0  0  0  0  0  0  0  0  0  0  0
   -4.9793    0.1177   -8.7176 O   0  0  0  0  0  0  0  0  0  0  0  0
   -6.8056    1.8346   -7.9403 C   0  0  0  0  0  0  0  0  0  0  0  0
   -7.2033    3.1487   -7.6617 C   0  0  0  0  0  0  0  0  0  0  0  0
   -8.4975    3.3918   -7.1979 C   0  0  0  0  0  0  0  0  0  0  0  0
   -9.3893    2.3296   -7.0407 C   0  0  0  0  0  0  0  0  0  0  0  0
  -10.9767    2.6303   -6.4510 Cl  0  0  0  0  0  0  0  0  0  0  0  0
   -9.0028    1.0257   -7.3566 C   0  0  0  0  0  0  0  0  0  0  0  0
   -7.7054    0.7728   -7.8099 C   0  0  0  0  0  0  0  0  0  0  0  0
   -5.3111    1.6300   -4.9382 C   0  0  0  0  0  0  0  0  0  0  0  0
   -8.8094   -0.1777   -0.2223 C   0  0  0  0  0  0  0  0  0  0  0  0
   -9.6449    0.4403    0.6173 N   0  0  0  0  0  0  0  0  0  0  0  0
  -10.9853    2.4286    2.1554 C   0  0  0  0  0  0  0  0  0  0  0  0
  -11.6159    3.4273    2.9075 C   0  0  0  0  0  0  0  0  0  0  0  0
  -11.9907    6.8361    2.9409 H   0  0  0  0  0  0  0  0  0  0  0  0
  -11.6795    5.8708    4.3927 H   0  0  0  0  0  0  0  0  0  0  0  0
  -13.1982    5.6620    3.4755 H   0  0  0  0  0  0  0  0  0  0  0  0
  -10.5652    6.1582    1.1682 H   0  0  0  0  0  0  0  0  0  0  0  0
   -9.4656    4.4480   -0.1471 H   0  0  0  0  0  0  0  0  0  0  0  0
   -8.3769    2.9249   -1.0873 H   0  0  0  0  0  0  0  0  0  0  0  0
   -6.9516   -0.5586   -2.1614 H   0  0  0  0  0  0  0  0  0  0  0  0
   -4.8301   -0.8564   -2.6416 H   0  0  0  0  0  0  0  0  0  0  0  0
   -3.2175   -1.5811   -4.3610 H   0  0  0  0  0  0  0  0  0  0  0  0
   -2.9426   -0.2822   -6.4497 H   0  0  0  0  0  0  0  0  0  0  0  0
   -4.0321    2.9432   -7.0306 H   0  0  0  0  0  0  0  0  0  0  0  0
   -6.5134    3.9794   -7.7918 H   0  0  0  0  0  0  0  0  0  0  0  0
   -8.8050    4.4070   -6.9573 H   0  0  0  0  0  0  0  0  0  0  0  0
   -9.7071    0.2043   -7.2485 H   0  0  0  0  0  0  0  0  0  0  0  0
   -7.4086   -0.2452   -8.0536 H   0  0  0  0  0  0  0  0  0  0  0  0
   -5.8841    2.5430   -5.0824 H   0  0  0  0  0  0  0  0  0  0  0  0
   -8.7378   -1.2562   -0.1746 H   0  0  0  0  0  0  0  0  0  0  0  0
  -11.1095    1.3890    2.4526 H   0  0  0  0  0  0  0  0  0  0  0  0
  -12.2149    3.1440    3.7705 H   0  0  0  0  0  0  0  0  0  0  0  0
  1  2  1  0  0  0  0
  1 33  1  0  0  0  0
  1 34  1  0  0  0  0
  1 35  1  0  0  0  0
  2  3  1  0  0  0  0
  2 32  2  0  0  0  0
  3  4  2  0  0  0  0
  3 36  1  0  0  0  0
  4  5  1  0  0  0  0
  4 37  1  0  0  0  0
  5  6  1  0  0  0  0
  5 31  2  0  0  0  0
  6  7  1  0  0  0  0
  6 30  1  0  0  0  0
  7  8  2  0  0  0  0
  7 38  1  0  0  0  0
  8  9  1  0  0  0  0
  8 29  1  0  0  0  0
  9 10  1  0  0  0  0
  9 39  1  0  0  0  0
 10 11  2  0  0  0  0
 10 12  1  0  0  0  0
 12 13  1  0  0  0  0
 12 28  2  0  0  0  0
 13 14  2  0  0  0  0
 13 40  1  0  0  0  0
 14 15  1  0  0  0  0
 14 41  1  0  0  0  0
 15 16  2  0  0  0  0
 15 42  1  0  0  0  0
 16 17  1  0  0  0  0
 16 28  1  0  0  0  0
 17 18  1  0  0  0  0
 17 43  1  0  0  0  0
 18 19  2  0  0  0  0
 18 20  2  0  0  0  0
 18 21  1  0  0  0  0
 21 22  1  0  0  0  0
 21 27  2  0  0  0  0
 22 23  2  0  0  0  0
 22 44  1  0  0  0  0
 23 24  1  0  0  0  0
 23 45  1  0  0  0  0
 24 25  1  0  0  0  0
 24 26  2  0  0  0  0
 26 27  1  0  0  0  0
 26 46  1  0  0  0  0
 27 47  1  0  0  0  0
 28 48  1  0  0  0  0
 29 30  2  0  0  0  0
 29 49  1  0  0  0  0
 31 32  1  0  0  0  0
 31 50  1  0  0  0  0
 32 51  1  0  0  0  0
M  END
$$$$
