CHEMBL409103
 OpenBabel04072215383D

 55 58  0  0  0  0  0  0  0  0999 V2000
    3.2681   -2.2581   -1.9994 C   0  0  0  0  0  0  0  0  0  0  0  0
    2.7273   -0.8965   -2.4098 C   0  0  0  0  0  0  0  0  0  0  0  0
    3.1853    0.2233   -1.4749 C   0  0  0  0  0  0  0  0  0  0  0  0
    4.6246    0.4072   -1.4740 N   0  0  0  0  0  0  0  0  0  0  0  0
    5.2471    1.1600   -2.4531 C   0  0  0  0  0  0  0  0  0  0  0  0
    4.6150    1.7073   -3.3494 O   0  0  0  0  0  0  0  0  0  0  0  0
    6.7441    1.2695   -2.3713 C   0  0  0  0  0  0  0  0  0  0  0  0
    7.4677    0.1478   -1.9302 C   0  0  0  0  0  0  0  0  0  0  0  0
    8.8585    0.1884   -1.8692 C   0  0  0  0  0  0  0  0  0  0  0  0
    9.5417    1.3362   -2.2531 C   0  0  0  0  0  0  0  0  0  0  0  0
    8.8506    2.4756   -2.7066 C   0  0  0  0  0  0  0  0  0  0  0  0
    9.5659    3.6328   -3.1031 C   0  0  0  0  0  0  0  0  0  0  0  0
    8.9139    4.7650   -3.5706 C   0  0  0  0  0  0  0  0  0  0  0  0
    9.6911    5.8462   -3.9487 O   0  0  0  0  0  0  0  0  0  0  0  0
    9.2597    6.6595   -4.9892 C   0  0  0  0  0  0  0  0  0  0  0  0
    8.5619    6.1271   -6.0713 C   0  0  0  0  0  0  0  0  0  0  0  0
    8.0653    6.9990   -7.0093 C   0  0  0  0  0  0  0  0  0  0  0  0
    8.2563    8.3329   -6.9641 N   0  0  0  0  0  0  0  0  0  0  0  0
    8.9989    8.8396   -5.9638 C   0  0  0  0  0  0  0  0  0  0  0  0
    9.1992   10.2207   -5.9112 C   0  0  0  0  0  0  0  0  0  0  0  0
    9.9479   10.8870   -4.9099 C   0  0  0  0  0  0  0  0  0  0  0  0
    9.7690   12.2356   -5.0214 O   0  0  0  0  0  0  0  0  0  0  0  0
   10.8207   13.1645   -4.8624 C   0  0  0  0  0  0  0  0  0  0  0  0
   10.5598   10.1035   -3.9311 C   0  0  0  0  0  0  0  0  0  0  0  0
   11.3205   10.3722   -2.8376 O   0  0  0  0  0  0  0  0  0  0  0  0
   11.6883   11.6558   -2.4020 C   0  0  0  0  0  0  0  0  0  0  0  0
   10.3442    8.6997   -3.9759 C   0  0  0  0  0  0  0  0  0  0  0  0
    9.5531    8.0505   -4.9529 C   0  0  0  0  0  0  0  0  0  0  0  0
    7.5183    4.7702   -3.6035 C   0  0  0  0  0  0  0  0  0  0  0  0
    6.7978    3.6318   -3.2345 C   0  0  0  0  0  0  0  0  0  0  0  0
    7.4329    2.4527   -2.7792 C   0  0  0  0  0  0  0  0  0  0  0  0
    2.8903   -3.0344   -2.6723 H   0  0  0  0  0  0  0  0  0  0  0  0
    2.9572   -2.5106   -0.9809 H   0  0  0  0  0  0  0  0  0  0  0  0
    4.3614   -2.2805   -2.0423 H   0  0  0  0  0  0  0  0  0  0  0  0
    1.6314   -0.9351   -2.4028 H   0  0  0  0  0  0  0  0  0  0  0  0
    3.0328   -0.6841   -3.4410 H   0  0  0  0  0  0  0  0  0  0  0  0
    2.8808    0.0154   -0.4447 H   0  0  0  0  0  0  0  0  0  0  0  0
    2.7147    1.1642   -1.7809 H   0  0  0  0  0  0  0  0  0  0  0  0
    5.1564    0.0251   -0.7041 H   0  0  0  0  0  0  0  0  0  0  0  0
    6.9608   -0.7776   -1.6652 H   0  0  0  0  0  0  0  0  0  0  0  0
    9.4176   -0.6913   -1.5347 H   0  0  0  0  0  0  0  0  0  0  0  0
   10.6310    1.3364   -2.2096 H   0  0  0  0  0  0  0  0  0  0  0  0
   10.6605    3.6479   -3.0488 H   0  0  0  0  0  0  0  0  0  0  0  0
    8.3614    5.0652   -6.1643 H   0  0  0  0  0  0  0  0  0  0  0  0
    7.4552    6.6404   -7.8319 H   0  0  0  0  0  0  0  0  0  0  0  0
    8.7165   10.8184   -6.6862 H   0  0  0  0  0  0  0  0  0  0  0  0
   10.5872   14.0456   -5.4723 H   0  0  0  0  0  0  0  0  0  0  0  0
   11.7971   12.7863   -5.1718 H   0  0  0  0  0  0  0  0  0  0  0  0
   10.8233   13.5417   -3.8402 H   0  0  0  0  0  0  0  0  0  0  0  0
   12.1400   11.5424   -1.4103 H   0  0  0  0  0  0  0  0  0  0  0  0
   10.8243   12.3069   -2.2693 H   0  0  0  0  0  0  0  0  0  0  0  0
   12.4653   12.0779   -3.0465 H   0  0  0  0  0  0  0  0  0  0  0  0
   10.8049    8.0935   -3.1948 H   0  0  0  0  0  0  0  0  0  0  0  0
    6.9547    5.6305   -3.9539 H   0  0  0  0  0  0  0  0  0  0  0  0
    5.7131    3.6854   -3.3215 H   0  0  0  0  0  0  0  0  0  0  0  0
  1  2  1  0  0  0  0
  1 32  1  0  0  0  0
  1 33  1  0  0  0  0
  1 34  1  0  0  0  0
  2  3  1  0  0  0  0
  2 35  1  0  0  0  0
  2 36  1  0  0  0  0
  3  4  1  0  0  0  0
  3 37  1  0  0  0  0
  3 38  1  0  0  0  0
  4  5  1  0  0  0  0
  4 39  1  0  0  0  0
  5  6  2  0  0  0  0
  5  7  1  0  0  0  0
  7  8  1  0  0  0  0
  7 31  2  0  0  0  0
  8  9  2  0  0  0  0
  8 40  1  0  0  0  0
  9 10  1  0  0  0  0
  9 41  1  0  0  0  0
 10 11  2  0  0  0  0
 10 42  1  0  0  0  0
 11 12  1  0  0  0  0
 11 31  1  0  0  0  0
 12 13  2  0  0  0  0
 12 43  1  0  0  0  0
 13 14  1  0  0  0  0
 13 29  1  0  0  0  0
 14 15  1  0  0  0  0
 15 16  1  0  0  0  0
 15 28  2  0  0  0  0
 16 17  2  0  0  0  0
 16 44  1  0  0  0  0
 17 18  1  0  0  0  0
 17 45  1  0  0  0  0
 18 19  2  0  0  0  0
 19 20  1  0  0  0  0
 19 28  1  0  0  0  0
 20 21  2  0  0  0  0
 20 46  1  0  0  0  0
 21 22  1  0  0  0  0
 21 24  1  0  0  0  0
 22 23  1  0  0  0  0
 23 47  1  0  0  0  0
 23 48  1  0  0  0  0
 23 49  1  0  0  0  0
 24 25  1  0  0  0  0
 24 27  2  0  0  0  0
 25 26  1  0  0  0  0
 26 50  1  0  0  0  0
 26 51  1  0  0  0  0
 26 52  1  0  0  0  0
 27 28  1  0  0  0  0
 27 53  1  0  0  0  0
 29 30  2  0  0  0  0
 29 54  1  0  0  0  0
 30 31  1  0  0  0  0
 30 55  1  0  0  0  0
M  END
$$$$
