CHEMBL523571
 OpenBabel04072215383D

 35 38  0  0  0  0  0  0  0  0999 V2000
   -1.5706    2.3914    0.0122 C   0  0  0  0  0  0  0  0  0  0  0  0
   -1.0786    1.0213    0.0258 N   0  0  0  0  0  0  0  0  0  0  0  0
   -2.0105   -0.0045    0.0400 C   0  0  0  0  0  0  0  0  0  0  0  0
   -3.2257    0.2155    0.0654 O   0  0  0  0  0  0  0  0  0  0  0  0
   -1.5171   -1.4232    0.0041 C   0  0  0  0  0  0  0  0  0  0  0  0
   -2.4437   -2.5117   -0.0391 C   0  0  0  0  0  0  0  0  0  0  0  0
   -2.2314   -3.8181   -0.1195 N   0  0  0  0  0  0  0  0  0  0  0  0
   -3.4834   -4.4002   -0.1469 C   0  0  0  0  0  0  0  0  0  0  0  0
   -3.8527   -5.7473   -0.2397 C   0  0  0  0  0  0  0  0  0  0  0  0
   -5.2164   -6.0734   -0.2486 C   0  0  0  0  0  0  0  0  0  0  0  0
   -6.1934   -5.0787   -0.1616 C   0  0  0  0  0  0  0  0  0  0  0  0
   -5.8451   -3.7272   -0.0697 C   0  0  0  0  0  0  0  0  0  0  0  0
   -4.4796   -3.4366   -0.0704 C   0  0  0  0  0  0  0  0  0  0  0  0
   -3.7971   -2.2556   -0.0106 N   0  0  0  0  0  0  0  0  0  0  0  0
   -0.1908   -1.6650    0.0004 C   0  0  0  0  0  0  0  0  0  0  0  0
    0.3615   -2.9385   -0.0462 O   0  0  0  0  0  0  0  0  0  0  0  0
    0.7815   -0.5594    0.0203 C   0  0  0  0  0  0  0  0  0  0  0  0
    2.1659   -0.8051    0.0168 C   0  0  0  0  0  0  0  0  0  0  0  0
    3.0828    0.2466    0.0112 C   0  0  0  0  0  0  0  0  0  0  0  0
    2.6274    1.5586    0.0130 C   0  0  0  0  0  0  0  0  0  0  0  0
    1.2565    1.8182    0.0202 C   0  0  0  0  0  0  0  0  0  0  0  0
    0.3226    0.7685    0.0229 C   0  0  0  0  0  0  0  0  0  0  0  0
   -2.6636    2.4371    0.0071 H   0  0  0  0  0  0  0  0  0  0  0  0
   -1.2171    2.8938   -0.8934 H   0  0  0  0  0  0  0  0  0  0  0  0
   -1.2216    2.9132    0.9079 H   0  0  0  0  0  0  0  0  0  0  0  0
   -3.0947   -6.5194   -0.3063 H   0  0  0  0  0  0  0  0  0  0  0  0
   -5.5169   -7.1152   -0.3261 H   0  0  0  0  0  0  0  0  0  0  0  0
   -7.2456   -5.3565   -0.1675 H   0  0  0  0  0  0  0  0  0  0  0  0
   -6.5995   -2.9501   -0.0045 H   0  0  0  0  0  0  0  0  0  0  0  0
   -4.2040   -1.3272    0.0322 H   0  0  0  0  0  0  0  0  0  0  0  0
   -0.3772   -3.5856   -0.1122 H   0  0  0  0  0  0  0  0  0  0  0  0
    2.5429   -1.8263    0.0117 H   0  0  0  0  0  0  0  0  0  0  0  0
    4.1496    0.0387    0.0006 H   0  0  0  0  0  0  0  0  0  0  0  0
    3.3358    2.3829    0.0072 H   0  0  0  0  0  0  0  0  0  0  0  0
    0.9454    2.8581    0.0198 H   0  0  0  0  0  0  0  0  0  0  0  0
  1  2  1  0  0  0  0
  1 23  1  0  0  0  0
  1 24  1  0  0  0  0
  1 25  1  0  0  0  0
  2  3  1  0  0  0  0
  2 22  1  0  0  0  0
  3  4  2  0  0  0  0
  3  5  1  0  0  0  0
  5  6  1  0  0  0  0
  5 15  2  0  0  0  0
  6  7  2  0  0  0  0
  6 14  1  0  0  0  0
  7  8  1  0  0  0  0
  8  9  1  0  0  0  0
  8 13  2  0  0  0  0
  9 10  2  0  0  0  0
  9 26  1  0  0  0  0
 10 11  1  0  0  0  0
 10 27  1  0  0  0  0
 11 12  2  0  0  0  0
 11 28  1  0  0  0  0
 12 13  1  0  0  0  0
 12 29  1  0  0  0  0
 13 14  1  0  0  0  0
 14 30  1  0  0  0  0
 15 16  1  0  0  0  0
 15 17  1  0  0  0  0
 16 31  1  0  0  0  0
 17 18  1  0  0  0  0
 17 22  2  0  0  0  0
 18 19  2  0  0  0  0
 18 32  1  0  0  0  0
 19 20  1  0  0  0  0
 19 33  1  0  0  0  0
 20 21  2  0  0  0  0
 20 34  1  0  0  0  0
 21 22  1  0  0  0  0
 21 35  1  0  0  0  0
M  END
$$$$
