CHEMBL3969741
 OpenBabel04072215373D

 55 58  0  0  0  0  0  0  0  0999 V2000
    2.5577    0.0115   -0.1302 C   0  0  0  0  0  0  0  0  0  0  0  0
    1.0546    0.0228   -0.0998 C   0  0  0  0  0  0  0  0  0  0  0  0
    0.4179    1.2777   -0.1197 C   0  0  0  0  0  0  0  0  0  0  0  0
   -0.9689    1.4156   -0.0735 C   0  0  0  0  0  0  0  0  0  0  0  0
   -1.6138    2.6792    0.0186 N   0  0  0  0  0  0  0  0  0  0  0  0
   -0.9761    3.8782    0.2754 C   0  0  0  0  0  0  0  0  0  0  0  0
    0.2343    4.0272    0.4374 O   0  0  0  0  0  0  0  0  0  0  0  0
   -1.8648    4.9381    0.3896 N   0  0  0  0  0  0  0  0  0  0  0  0
   -1.3695    6.2409    0.6425 C   0  0  0  0  0  0  0  0  0  0  0  0
   -1.9244    6.9817    1.6833 C   0  0  0  0  0  0  0  0  0  0  0  0
   -1.3859    8.2282    2.0052 C   0  0  0  0  0  0  0  0  0  0  0  0
   -0.3346    8.7528    1.2543 C   0  0  0  0  0  0  0  0  0  0  0  0
    0.1455    9.9561    1.5943 F   0  0  0  0  0  0  0  0  0  0  0  0
    0.2033    8.0546    0.1794 C   0  0  0  0  0  0  0  0  0  0  0  0
    1.3033    8.6356   -0.6581 C   0  0  0  0  0  0  0  0  0  0  0  0
    1.6641    9.9069   -0.3331 F   0  0  0  0  0  0  0  0  0  0  0  0
    2.4501    7.9023   -0.6043 F   0  0  0  0  0  0  0  0  0  0  0  0
    0.9630    8.6851   -1.9793 F   0  0  0  0  0  0  0  0  0  0  0  0
   -0.3141    6.7798   -0.1111 C   0  0  0  0  0  0  0  0  0  0  0  0
   -1.7437    0.2560   -0.1015 C   0  0  0  0  0  0  0  0  0  0  0  0
   -1.1292   -1.0033   -0.0846 C   0  0  0  0  0  0  0  0  0  0  0  0
    0.2671   -1.1283   -0.0087 C   0  0  0  0  0  0  0  0  0  0  0  0
    0.8872   -2.3630    0.1110 O   0  0  0  0  0  0  0  0  0  0  0  0
    0.3023   -3.3227    0.9270 C   0  0  0  0  0  0  0  0  0  0  0  0
   -0.3721   -3.0017    2.1004 C   0  0  0  0  0  0  0  0  0  0  0  0
   -0.9745   -4.0246    2.7973 C   0  0  0  0  0  0  0  0  0  0  0  0
   -0.8954   -5.3132    2.4296 N   0  0  0  0  0  0  0  0  0  0  0  0
   -0.1834   -5.6434    1.3385 C   0  0  0  0  0  0  0  0  0  0  0  0
   -0.0666   -6.9989    0.9869 N   0  0  0  0  0  0  0  0  0  0  0  0
   -0.6550   -8.0302    1.7035 C   0  0  0  0  0  0  0  0  0  0  0  0
   -1.3576   -7.9339    2.7023 O   0  0  0  0  0  0  0  0  0  0  0  0
   -0.3754   -9.4026    1.1672 C   0  0  0  0  0  0  0  0  0  0  0  0
   -1.4254  -10.4845    1.3210 C   0  0  0  0  0  0  0  0  0  0  0  0
   -0.1709  -10.5486    2.1397 C   0  0  0  0  0  0  0  0  0  0  0  0
    0.4369   -4.6668    0.5566 C   0  0  0  0  0  0  0  0  0  0  0  0
    2.9460    0.9893   -0.4544 H   0  0  0  0  0  0  0  0  0  0  0  0
    2.9316   -0.7213   -0.8480 H   0  0  0  0  0  0  0  0  0  0  0  0
    2.9628   -0.1862    0.8653 H   0  0  0  0  0  0  0  0  0  0  0  0
    1.0594    2.1535   -0.1821 H   0  0  0  0  0  0  0  0  0  0  0  0
   -2.6148    2.6892   -0.0513 H   0  0  0  0  0  0  0  0  0  0  0  0
   -2.7376    4.6983    0.8367 H   0  0  0  0  0  0  0  0  0  0  0  0
   -2.7242    6.5766    2.2953 H   0  0  0  0  0  0  0  0  0  0  0  0
   -1.7687    8.7927    2.8502 H   0  0  0  0  0  0  0  0  0  0  0  0
    0.1162    6.2068   -0.9333 H   0  0  0  0  0  0  0  0  0  0  0  0
   -2.8294    0.3061   -0.0904 H   0  0  0  0  0  0  0  0  0  0  0  0
   -1.7604   -1.8888   -0.0977 H   0  0  0  0  0  0  0  0  0  0  0  0
   -0.4624   -1.9830    2.4619 H   0  0  0  0  0  0  0  0  0  0  0  0
   -1.5623   -3.8395    3.6895 H   0  0  0  0  0  0  0  0  0  0  0  0
    0.4828   -7.2285    0.1747 H   0  0  0  0  0  0  0  0  0  0  0  0
    0.2131   -9.4438    0.2571 H   0  0  0  0  0  0  0  0  0  0  0  0
   -1.5511  -11.2078    0.5260 H   0  0  0  0  0  0  0  0  0  0  0  0
   -2.3497  -10.2375    1.8423 H   0  0  0  0  0  0  0  0  0  0  0  0
    0.5525  -11.3166    1.8942 H   0  0  0  0  0  0  0  0  0  0  0  0
   -0.2532  -10.3437    3.2031 H   0  0  0  0  0  0  0  0  0  0  0  0
    1.0052   -4.9291   -0.3294 H   0  0  0  0  0  0  0  0  0  0  0  0
  1  2  1  0  0  0  0
  1 36  1  0  0  0  0
  1 37  1  0  0  0  0
  1 38  1  0  0  0  0
  2  3  1  0  0  0  0
  2 22  2  0  0  0  0
  3  4  2  0  0  0  0
  3 39  1  0  0  0  0
  4  5  1  0  0  0  0
  4 20  1  0  0  0  0
  5  6  1  0  0  0  0
  5 40  1  0  0  0  0
  6  7  2  0  0  0  0
  6  8  1  0  0  0  0
  8  9  1  0  0  0  0
  8 41  1  0  0  0  0
  9 10  1  0  0  0  0
  9 19  2  0  0  0  0
 10 11  2  0  0  0  0
 10 42  1  0  0  0  0
 11 12  1  0  0  0  0
 11 43  1  0  0  0  0
 12 13  1  0  0  0  0
 12 14  2  0  0  0  0
 14 15  1  0  0  0  0
 14 19  1  0  0  0  0
 15 16  1  0  0  0  0
 15 17  1  0  0  0  0
 15 18  1  0  0  0  0
 19 44  1  0  0  0  0
 20 21  2  0  0  0  0
 20 45  1  0  0  0  0
 21 22  1  0  0  0  0
 21 46  1  0  0  0  0
 22 23  1  0  0  0  0
 23 24  1  0  0  0  0
 24 25  1  0  0  0  0
 24 35  2  0  0  0  0
 25 26  2  0  0  0  0
 25 47  1  0  0  0  0
 26 27  1  0  0  0  0
 26 48  1  0  0  0  0
 27 28  2  0  0  0  0
 28 29  1  0  0  0  0
 28 35  1  0  0  0  0
 29 30  1  0  0  0  0
 29 49  1  0  0  0  0
 30 31  2  0  0  0  0
 30 32  1  0  0  0  0
 32 33  1  0  0  0  0
 32 34  1  0  0  0  0
 32 50  1  0  0  0  0
 33 34  1  0  0  0  0
 33 51  1  0  0  0  0
 33 52  1  0  0  0  0
 34 53  1  0  0  0  0
 34 54  1  0  0  0  0
 35 55  1  0  0  0  0
M  END
$$$$
