CHEMBL462348
 OpenBabel04072215383D

 60 64  0  0  0  0  0  0  0  0999 V2000
    1.4745    2.2919   -1.4562 C   0  0  0  0  0  0  0  0  0  0  0  0
    2.0427    3.3564   -0.6867 O   0  0  0  0  0  0  0  0  0  0  0  0
    2.3867    3.0599    0.6074 C   0  0  0  0  0  0  0  0  0  0  0  0
    2.2077    1.8064    1.1800 C   0  0  0  0  0  0  0  0  0  0  0  0
    2.7422    1.4894    2.4407 C   0  0  0  0  0  0  0  0  0  0  0  0
    3.4469    2.4311    3.1940 C   0  0  0  0  0  0  0  0  0  0  0  0
    3.9396    2.1544    4.6246 C   0  0  0  0  0  0  0  0  0  0  0  0
    3.6921    1.0585    5.1189 O   0  0  0  0  0  0  0  0  0  0  0  0
    4.7773    3.1141    5.2351 N   0  0  0  0  0  0  0  0  0  0  0  0
    5.4219    2.8929    6.4812 C   0  0  0  0  0  0  0  0  0  0  0  0
    5.4840    1.5598    6.7455 N   0  0  0  0  0  0  0  0  0  0  0  0
    4.7851    1.4294    7.8704 N   0  0  0  0  0  0  0  0  0  0  0  0
    4.3042    0.2163    8.4912 C   0  0  0  0  0  0  0  0  0  0  0  0
    4.4967    2.6082    8.4535 C   0  0  0  0  0  0  0  0  0  0  0  0
    3.7681    2.6773    9.6337 C   0  0  0  0  0  0  0  0  0  0  0  0
    3.6565    3.7546   10.4009 C   0  0  0  0  0  0  0  0  0  0  0  0
    2.9843    3.4014   11.6717 O   0  0  0  0  0  0  0  0  0  0  0  0
    3.1717    4.0229   13.0018 C   0  0  0  0  0  0  0  0  0  0  0  0
    3.3471    4.7391   14.6096 C   0  0  0  0  0  0  0  0  0  0  0  0
    2.7122    4.6293   15.8438 C   0  0  0  0  0  0  0  0  0  0  0  0
    2.2510    3.8989   15.0027 N   0  0  0  0  0  0  0  0  0  0  0  0
    1.4986    3.0305   14.5421 C   0  0  0  0  0  0  0  0  0  0  0  0
    0.6724    2.4585   15.3773 C   0  0  0  0  0  0  0  0  0  0  0  0
   -0.2157    1.6612   14.8287 C   0  0  0  0  0  0  0  0  0  0  0  0
   -1.1795    1.1614   15.6551 O   0  0  0  0  0  0  0  0  0  0  0  0
   -0.7919    0.9837   17.0098 C   0  0  0  0  0  0  0  0  0  0  0  0
   -0.1517    1.4512   13.4432 C   0  0  0  0  0  0  0  0  0  0  0  0
   -1.0123    0.6014   12.7932 O   0  0  0  0  0  0  0  0  0  0  0  0
   -1.4744   -0.5002   13.5946 C   0  0  0  0  0  0  0  0  0  0  0  0
    0.8394    2.1590   12.6444 C   0  0  0  0  0  0  0  0  0  0  0  0
    1.8479    3.0549   13.2317 C   0  0  0  0  0  0  0  0  0  0  0  0
    4.2251    4.9397    9.7535 C   0  0  0  0  0  0  0  0  0  0  0  0
    4.9663    4.8857    8.4165 C   0  0  0  0  0  0  0  0  0  0  0  0
    5.0701    3.6200    7.7448 C   0  0  0  0  0  0  0  0  0  0  0  0
    3.6549    3.6895    2.5922 C   0  0  0  0  0  0  0  0  0  0  0  0
    3.0727    4.0246    1.3414 C   0  0  0  0  0  0  0  0  0  0  0  0
    1.3828    2.6214   -2.4971 H   0  0  0  0  0  0  0  0  0  0  0  0
    0.4735    2.0769   -1.0749 H   0  0  0  0  0  0  0  0  0  0  0  0
    2.0767    1.3763   -1.4830 H   0  0  0  0  0  0  0  0  0  0  0  0
    1.7055    1.0143    0.6410 H   0  0  0  0  0  0  0  0  0  0  0  0
    2.6186    0.4658    2.7694 H   0  0  0  0  0  0  0  0  0  0  0  0
    4.2587    3.9536    5.4247 H   0  0  0  0  0  0  0  0  0  0  0  0
    4.5593   -0.6764    7.9463 H   0  0  0  0  0  0  0  0  0  0  0  0
    3.2075    0.3014    8.5807 H   0  0  0  0  0  0  0  0  0  0  0  0
    4.7065    0.1885    9.5164 H   0  0  0  0  0  0  0  0  0  0  0  0
    3.3026    1.7952    9.9951 H   0  0  0  0  0  0  0  0  0  0  0  0
    4.0806    5.5330   14.9701 H   0  0  0  0  0  0  0  0  0  0  0  0
    2.0716    4.3764   16.6850 H   0  0  0  0  0  0  0  0  0  0  0  0
    0.7736    2.7397   16.4153 H   0  0  0  0  0  0  0  0  0  0  0  0
   -1.6501    0.5762   17.5282 H   0  0  0  0  0  0  0  0  0  0  0  0
   -0.5169    1.9401   17.4800 H   0  0  0  0  0  0  0  0  0  0  0  0
    0.0341    0.2628   17.0848 H   0  0  0  0  0  0  0  0  0  0  0  0
   -2.0343   -1.2041   12.9814 H   0  0  0  0  0  0  0  0  0  0  0  0
   -2.1783   -0.1214   14.3437 H   0  0  0  0  0  0  0  0  0  0  0  0
   -0.6556   -1.0783   14.0611 H   0  0  0  0  0  0  0  0  0  0  0  0
    0.7981    2.0670   11.5566 H   0  0  0  0  0  0  0  0  0  0  0  0
    4.1568    5.9736   10.1304 H   0  0  0  0  0  0  0  0  0  0  0  0
    5.5043    5.7694    8.0248 H   0  0  0  0  0  0  0  0  0  0  0  0
    4.2994    4.4238    3.0682 H   0  0  0  0  0  0  0  0  0  0  0  0
    3.1315    5.0460    0.9670 H   0  0  0  0  0  0  0  0  0  0  0  0
  1  2  1  0  0  0  0
  1 37  1  0  0  0  0
  1 38  1  0  0  0  0
  1 39  1  0  0  0  0
  2  3  1  0  0  0  0
  3  4  1  0  0  0  0
  3 36  2  0  0  0  0
  4  5  2  0  0  0  0
  4 40  1  0  0  0  0
  5  6  1  0  0  0  0
  5 41  1  0  0  0  0
  6  7  1  0  0  0  0
  6 35  2  0  0  0  0
  7  8  2  0  0  0  0
  7  9  1  0  0  0  0
  9 10  1  0  0  0  0
  9 42  1  0  0  0  0
 10 11  2  0  0  0  0
 10 34  1  0  0  0  0
 11 12  1  0  0  0  0
 12 13  1  0  0  0  0
 12 14  1  0  0  0  0
 13 43  1  0  0  0  0
 13 44  1  0  0  0  0
 13 45  1  0  0  0  0
 14 15  1  0  0  0  0
 14 34  2  0  0  0  0
 15 16  2  0  0  0  0
 15 46  1  0  0  0  0
 16 17  1  0  0  0  0
 16 32  1  0  0  0  0
 17 18  1  0  0  0  0
 18 19  1  0  0  0  0
 18 31  2  0  0  0  0
 19 20  2  0  0  0  0
 19 47  1  0  0  0  0
 20 21  1  0  0  0  0
 20 48  1  0  0  0  0
 21 22  2  0  0  0  0
 22 23  1  0  0  0  0
 22 31  1  0  0  0  0
 23 24  2  0  0  0  0
 23 49  1  0  0  0  0
 24 25  1  0  0  0  0
 24 27  1  0  0  0  0
 25 26  1  0  0  0  0
 26 50  1  0  0  0  0
 26 51  1  0  0  0  0
 26 52  1  0  0  0  0
 27 28  1  0  0  0  0
 27 30  2  0  0  0  0
 28 29  1  0  0  0  0
 29 53  1  0  0  0  0
 29 54  1  0  0  0  0
 29 55  1  0  0  0  0
 30 31  1  0  0  0  0
 30 56  1  0  0  0  0
 32 33  2  0  0  0  0
 32 57  1  0  0  0  0
 33 34  1  0  0  0  0
 33 58  1  0  0  0  0
 35 36  1  0  0  0  0
 35 59  1  0  0  0  0
 36 60  1  0  0  0  0
M  END
$$$$
