CHEMBL3648107
 OpenBabel04072215373D

 51 52  0  0  1  0  0  0  0  0999 V2000
    4.0755    0.7918    0.8071 C   0  0  0  0  0  0  0  0  0  0  0  0
    3.9199   -0.6910    0.4437 C   0  0  1  0  0  0  0  0  0  0  0  0
    2.6053   -1.1936    0.8967 N   0  0  0  0  0  0  0  0  0  0  0  0
    2.3209   -1.1899    2.2789 C   0  0  0  0  0  0  0  0  0  0  0  0
    3.3328   -1.2487    3.1804 N   0  0  0  0  0  0  0  0  0  0  0  0
    3.0115   -1.2730    4.4842 C   0  0  0  0  0  0  0  0  0  0  0  0
    4.0342   -1.4549    5.4208 N   0  0  0  0  0  0  0  0  0  0  0  0
    3.9360   -1.6120    6.8133 C   0  0  0  0  0  0  0  0  0  0  0  0
    2.7637   -2.0792    7.4326 C   0  0  0  0  0  0  0  0  0  0  0  0
    2.5818   -2.0293    8.8147 C   0  0  0  0  0  0  0  0  0  0  0  0
    3.5990   -1.5205    9.6147 C   0  0  0  0  0  0  0  0  0  0  0  0
    3.3621   -1.4134   11.3807 S   0  0  3  0  0  0  0  0  0  0  0  0
    2.3833   -2.5377   11.7674 N   0  0  0  0  0  0  0  0  0  0  0  0
    4.6850   -1.2763   11.9630 O   0  0  0  0  0  0  0  0  0  0  0  0
    2.5330    0.1452   11.5928 C   0  0  0  0  0  0  0  0  0  0  0  0
    2.2826    0.4208   13.0630 C   0  0  0  0  0  0  0  0  0  0  0  0
    1.6366    1.6831   13.2216 O   0  0  0  0  0  0  0  0  0  0  0  0
    4.8065   -1.1134    9.0391 C   0  0  0  0  0  0  0  0  0  0  0  0
    4.9674   -1.1564    7.6449 C   0  0  0  0  0  0  0  0  0  0  0  0
    1.7532   -1.1398    4.9289 N   0  0  0  0  0  0  0  0  0  0  0  0
    0.7659   -1.1192    4.0283 C   0  0  0  0  0  0  0  0  0  0  0  0
    0.9899   -1.1975    2.6831 C   0  0  0  0  0  0  0  0  0  0  0  0
   -0.4781   -1.2751    1.4967 Br  0  0  0  0  0  0  0  0  0  0  0  0
    4.0484   -0.9325   -1.1085 C   0  0  0  0  0  0  0  0  0  0  0  0
    3.0351   -0.1406   -1.9512 C   0  0  0  0  0  0  0  0  0  0  0  0
    5.4634   -0.6152   -1.6096 C   0  0  0  0  0  0  0  0  0  0  0  0
    3.8385   -2.3358   -1.3675 O   0  0  0  0  0  0  0  0  0  0  0  0
    4.1261    0.9354    1.8906 H   0  0  0  0  0  0  0  0  0  0  0  0
    3.2292    1.3869    0.4469 H   0  0  0  0  0  0  0  0  0  0  0  0
    4.9944    1.2154    0.3932 H   0  0  0  0  0  0  0  0  0  0  0  0
    4.7050   -1.2789    0.9360 H   0  0  0  0  0  0  0  0  0  0  0  0
    2.4634   -2.1550    0.5875 H   0  0  0  0  0  0  0  0  0  0  0  0
    4.9479   -1.4509    4.9941 H   0  0  0  0  0  0  0  0  0  0  0  0
    1.9523   -2.4905    6.8357 H   0  0  0  0  0  0  0  0  0  0  0  0
    1.6402   -2.3728    9.2360 H   0  0  0  0  0  0  0  0  0  0  0  0
    2.8129   -3.4562   11.6331 H   0  0  0  0  0  0  0  0  0  0  0  0
    1.5910    0.1306   11.0344 H   0  0  0  0  0  0  0  0  0  0  0  0
    3.1621    0.9306   11.1614 H   0  0  0  0  0  0  0  0  0  0  0  0
    3.2130    0.4326   13.6409 H   0  0  0  0  0  0  0  0  0  0  0  0
    1.6314   -0.3417   13.5017 H   0  0  0  0  0  0  0  0  0  0  0  0
    2.3108    2.3770   13.1208 H   0  0  0  0  0  0  0  0  0  0  0  0
    5.6179   -0.7365    9.6576 H   0  0  0  0  0  0  0  0  0  0  0  0
    5.8965   -0.7907    7.2129 H   0  0  0  0  0  0  0  0  0  0  0  0
   -0.2342   -1.0468    4.4511 H   0  0  0  0  0  0  0  0  0  0  0  0
    3.1460    0.9405   -1.8260 H   0  0  0  0  0  0  0  0  0  0  0  0
    2.0042   -0.4174   -1.7059 H   0  0  0  0  0  0  0  0  0  0  0  0
    3.1640   -0.3667   -3.0170 H   0  0  0  0  0  0  0  0  0  0  0  0
    5.6828    0.4565   -1.5812 H   0  0  0  0  0  0  0  0  0  0  0  0
    5.5940   -0.9548   -2.6442 H   0  0  0  0  0  0  0  0  0  0  0  0
    6.2172   -1.1420   -1.0146 H   0  0  0  0  0  0  0  0  0  0  0  0
    2.8784   -2.4809   -1.4191 H   0  0  0  0  0  0  0  0  0  0  0  0
  1  2  1  0  0  0  0
  1 28  1  0  0  0  0
  1 29  1  0  0  0  0
  1 30  1  0  0  0  0
  2  3  1  0  0  0  0
  2 24  1  0  0  0  0
  2 31  1  1  0  0  0
  3  4  1  0  0  0  0
  3 32  1  0  0  0  0
  4  5  1  0  0  0  0
  4 22  2  0  0  0  0
  5  6  2  0  0  0  0
  6  7  1  0  0  0  0
  6 20  1  0  0  0  0
  7  8  1  0  0  0  0
  7 33  1  0  0  0  0
  8  9  1  0  0  0  0
  8 19  2  0  0  0  0
  9 10  2  0  0  0  0
  9 34  1  0  0  0  0
 10 11  1  0  0  0  0
 10 35  1  0  0  0  0
 11 12  1  0  0  0  0
 11 18  2  0  0  0  0
 12 13  2  0  0  0  0
 12 14  2  0  0  0  0
 12 15  1  0  0  0  0
 13 36  1  0  0  0  0
 15 16  1  0  0  0  0
 15 37  1  0  0  0  0
 15 38  1  0  0  0  0
 16 17  1  0  0  0  0
 16 39  1  0  0  0  0
 16 40  1  0  0  0  0
 17 41  1  0  0  0  0
 18 19  1  0  0  0  0
 18 42  1  0  0  0  0
 19 43  1  0  0  0  0
 20 21  2  0  0  0  0
 21 22  1  0  0  0  0
 21 44  1  0  0  0  0
 22 23  1  0  0  0  0
 24 25  1  0  0  0  0
 24 26  1  0  0  0  0
 24 27  1  0  0  0  0
 25 45  1  0  0  0  0
 25 46  1  0  0  0  0
 25 47  1  0  0  0  0
 26 48  1  0  0  0  0
 26 49  1  0  0  0  0
 26 50  1  0  0  0  0
 27 51  1  0  0  0  0
M  END
$$$$
