CHEMBL410711
 OpenBabel04072215383D

 46 49  0  0  0  0  0  0  0  0999 V2000
    1.1249    0.3667   -0.6609 O   0  0  0  0  0  0  0  0  0  0  0  0
    2.2281    0.1614   -0.1747 C   0  0  0  0  0  0  0  0  0  0  0  0
    2.8014   -1.1015   -0.0689 N   0  0  0  0  0  0  0  0  0  0  0  0
    2.1941   -2.2977   -0.5046 C   0  0  0  0  0  0  0  0  0  0  0  0
    1.1508   -2.3383   -1.4348 C   0  0  0  0  0  0  0  0  0  0  0  0
    0.4884   -3.5359   -1.7278 C   0  0  0  0  0  0  0  0  0  0  0  0
    0.8331   -4.7216   -1.0742 C   0  0  0  0  0  0  0  0  0  0  0  0
   -0.0447   -5.9053   -1.0783 C   0  0  0  0  0  0  0  0  0  0  0  0
    0.4784   -7.2162   -1.1599 C   0  0  0  0  0  0  0  0  0  0  0  0
   -0.2792   -8.3470   -0.7906 C   0  0  0  0  0  0  0  0  0  0  0  0
   -1.5540   -8.1907   -0.2566 C   0  0  0  0  0  0  0  0  0  0  0  0
   -2.0585   -6.9058   -0.2116 C   0  0  0  0  0  0  0  0  0  0  0  0
   -1.3804   -5.7935   -0.7093 C   0  0  0  0  0  0  0  0  0  0  0  0
   -2.2574   -4.5990   -0.5301 C   0  0  0  0  0  0  0  0  0  0  0  0
   -3.1344   -5.0104    0.5314 N   0  0  0  0  0  0  0  0  0  0  0  0
   -3.0997   -6.3878    0.6812 C   0  0  0  0  0  0  0  0  0  0  0  0
   -3.6632   -7.0331    1.5509 O   0  0  0  0  0  0  0  0  0  0  0  0
    1.9506   -4.6906   -0.2179 C   0  0  0  0  0  0  0  0  0  0  0  0
    2.6341   -3.4973    0.0523 C   0  0  0  0  0  0  0  0  0  0  0  0
    3.0419    1.1501    0.3487 N   0  0  0  0  0  0  0  0  0  0  0  0
    2.7192    2.5231    0.4711 C   0  0  0  0  0  0  0  0  0  0  0  0
    1.5016    3.0840    0.0588 C   0  0  0  0  0  0  0  0  0  0  0  0
    1.2491    4.4522    0.2193 C   0  0  0  0  0  0  0  0  0  0  0  0
    2.2037    5.2726    0.7990 C   0  0  0  0  0  0  0  0  0  0  0  0
    3.4247    4.7394    1.2279 C   0  0  0  0  0  0  0  0  0  0  0  0
    4.4639    5.6123    1.8878 C   0  0  0  0  0  0  0  0  0  0  0  0
    4.0915    6.9148    2.0044 F   0  0  0  0  0  0  0  0  0  0  0  0
    4.7611    5.1924    3.1504 F   0  0  0  0  0  0  0  0  0  0  0  0
    5.6434    5.6158    1.2104 F   0  0  0  0  0  0  0  0  0  0  0  0
    3.6753    3.3645    1.0512 C   0  0  0  0  0  0  0  0  0  0  0  0
    3.5495   -1.1947    0.6031 H   0  0  0  0  0  0  0  0  0  0  0  0
    0.7956   -1.4396   -1.9304 H   0  0  0  0  0  0  0  0  0  0  0  0
   -0.3562   -3.5033   -2.4132 H   0  0  0  0  0  0  0  0  0  0  0  0
    1.5230   -7.3645   -1.4309 H   0  0  0  0  0  0  0  0  0  0  0  0
    0.1773   -9.3344   -0.8177 H   0  0  0  0  0  0  0  0  0  0  0  0
   -2.0993   -9.0209    0.1804 H   0  0  0  0  0  0  0  0  0  0  0  0
   -2.8818   -4.4641   -1.4221 H   0  0  0  0  0  0  0  0  0  0  0  0
   -1.7675   -3.6640   -0.2677 H   0  0  0  0  0  0  0  0  0  0  0  0
   -3.1538   -4.5003    1.4073 H   0  0  0  0  0  0  0  0  0  0  0  0
    2.2522   -5.5881    0.3206 H   0  0  0  0  0  0  0  0  0  0  0  0
    3.4548   -3.5205    0.7639 H   0  0  0  0  0  0  0  0  0  0  0  0
    3.9689    0.8750    0.6414 H   0  0  0  0  0  0  0  0  0  0  0  0
    0.7199    2.4887   -0.3895 H   0  0  0  0  0  0  0  0  0  0  0  0
    0.2953    4.8576   -0.1157 H   0  0  0  0  0  0  0  0  0  0  0  0
    1.9887    6.3346    0.9182 H   0  0  0  0  0  0  0  0  0  0  0  0
    4.6298    2.9590    1.3870 H   0  0  0  0  0  0  0  0  0  0  0  0
  1  2  2  0  0  0  0
  2  3  1  0  0  0  0
  2 20  1  0  0  0  0
  3  4  1  0  0  0  0
  3 31  1  0  0  0  0
  4  5  1  0  0  0  0
  4 19  2  0  0  0  0
  5  6  2  0  0  0  0
  5 32  1  0  0  0  0
  6  7  1  0  0  0  0
  6 33  1  0  0  0  0
  7  8  1  0  0  0  0
  7 18  2  0  0  0  0
  8  9  1  0  0  0  0
  8 13  2  0  0  0  0
  9 10  2  0  0  0  0
  9 34  1  0  0  0  0
 10 11  1  0  0  0  0
 10 35  1  0  0  0  0
 11 12  2  0  0  0  0
 11 36  1  0  0  0  0
 12 13  1  0  0  0  0
 12 16  1  0  0  0  0
 13 14  1  0  0  0  0
 14 15  1  0  0  0  0
 14 37  1  0  0  0  0
 14 38  1  0  0  0  0
 15 16  1  0  0  0  0
 15 39  1  0  0  0  0
 16 17  2  0  0  0  0
 18 19  1  0  0  0  0
 18 40  1  0  0  0  0
 19 41  1  0  0  0  0
 20 21  1  0  0  0  0
 20 42  1  0  0  0  0
 21 22  1  0  0  0  0
 21 30  2  0  0  0  0
 22 23  2  0  0  0  0
 22 43  1  0  0  0  0
 23 24  1  0  0  0  0
 23 44  1  0  0  0  0
 24 25  2  0  0  0  0
 24 45  1  0  0  0  0
 25 26  1  0  0  0  0
 25 30  1  0  0  0  0
 26 27  1  0  0  0  0
 26 28  1  0  0  0  0
 26 29  1  0  0  0  0
 30 46  1  0  0  0  0
M  END
$$$$
