CHEMBL3921689
 OpenBabel04072215373D

 53 57  0  0  1  0  0  0  0  0999 V2000
   -3.8255   -2.3115    3.7297 C   0  0  0  0  0  0  0  0  0  0  0  0
   -2.5900   -1.9782    3.0987 O   0  0  0  0  0  0  0  0  0  0  0  0
   -1.4726   -2.6351    3.5522 C   0  0  0  0  0  0  0  0  0  0  0  0
   -1.5169   -3.6564    4.4995 C   0  0  0  0  0  0  0  0  0  0  0  0
   -0.3404   -4.2877    4.9482 C   0  0  0  0  0  0  0  0  0  0  0  0
   -0.3191   -5.3399    5.8736 C   0  0  0  0  0  0  0  0  0  0  0  0
   -1.5498   -5.8819    6.3482 N   0  0  0  0  0  0  0  0  0  0  0  0
   -1.6357   -6.7001    7.4960 C   0  0  0  0  0  0  0  0  0  0  0  0
   -1.0281   -6.2895    8.6897 C   0  0  0  0  0  0  0  0  0  0  0  0
   -0.9595   -7.1419    9.7886 C   0  0  0  0  0  0  0  0  0  0  0  0
   -1.5189   -8.4173    9.7124 C   0  0  0  0  0  0  0  0  0  0  0  0
   -1.2666   -9.5668   11.2015 Br  0  0  0  0  0  0  0  0  0  0  0  0
   -2.2007   -8.8093    8.5543 C   0  0  0  0  0  0  0  0  0  0  0  0
   -2.9474  -10.3607    8.3963 Cl  0  0  0  0  0  0  0  0  0  0  0  0
   -2.2709   -7.9447    7.4540 C   0  0  0  0  0  0  0  0  0  0  0  0
    0.8333   -5.8748    6.3154 N   0  0  0  0  0  0  0  0  0  0  0  0
    1.9606   -5.3717    5.8094 C   0  0  0  0  0  0  0  0  0  0  0  0
    2.0568   -4.3872    4.9053 N   0  0  0  0  0  0  0  0  0  0  0  0
    0.9039   -3.8529    4.4801 C   0  0  0  0  0  0  0  0  0  0  0  0
    0.9399   -2.8365    3.5323 C   0  0  0  0  0  0  0  0  0  0  0  0
   -0.2272   -2.2395    3.0357 C   0  0  0  0  0  0  0  0  0  0  0  0
   -0.2439   -1.3346    2.0047 O   0  0  0  0  0  0  0  0  0  0  0  0
    0.8869   -0.4650    1.8280 C   0  0  1  0  0  0  0  0  0  0  0  0
    1.9282   -1.0709    0.8876 C   0  0  0  0  0  0  0  0  0  0  0  0
    1.4937   -0.8084   -0.4586 O   0  0  0  0  0  0  0  0  0  0  0  0
    0.7642    0.4244   -0.4252 C   0  0  2  0  0  0  0  0  0  0  0  0
    1.6757    1.5697   -0.8606 C   0  0  1  0  0  0  0  0  0  0  0  0
    1.4718    1.9781   -2.2062 O   0  0  0  0  0  0  0  0  0  0  0  0
    1.8898    0.9779   -3.1240 C   0  0  0  0  0  0  0  0  0  0  0  0
    1.7299    1.4873   -4.3686 F   0  0  0  0  0  0  0  0  0  0  0  0
    3.2139    0.7582   -2.9538 F   0  0  0  0  0  0  0  0  0  0  0  0
    1.2900    2.6550    0.1248 C   0  0  0  0  0  0  0  0  0  0  0  0
    1.0868    1.9566    1.3644 O   0  0  0  0  0  0  0  0  0  0  0  0
    0.4027    0.7360    1.0230 C   0  0  2  0  0  0  0  0  0  0  0  0
   -4.6011   -1.6439    3.3454 H   0  0  0  0  0  0  0  0  0  0  0  0
   -3.7767   -2.1652    4.8156 H   0  0  0  0  0  0  0  0  0  0  0  0
   -4.1175   -3.3396    3.4873 H   0  0  0  0  0  0  0  0  0  0  0  0
   -2.4592   -3.9799    4.9260 H   0  0  0  0  0  0  0  0  0  0  0  0
   -2.0634   -6.2638    5.5570 H   0  0  0  0  0  0  0  0  0  0  0  0
   -0.5637   -5.3069    8.7475 H   0  0  0  0  0  0  0  0  0  0  0  0
   -0.4366   -6.8079   10.6807 H   0  0  0  0  0  0  0  0  0  0  0  0
   -2.7794   -8.2713    6.5508 H   0  0  0  0  0  0  0  0  0  0  0  0
    2.8911   -5.8025    6.1630 H   0  0  0  0  0  0  0  0  0  0  0  0
    1.9198   -2.5436    3.1730 H   0  0  0  0  0  0  0  0  0  0  0  0
    1.3080   -0.1713    2.7962 H   0  0  0  0  0  0  0  0  0  0  0  0
    2.0552   -2.1502    0.9877 H   0  0  0  0  0  0  0  0  0  0  0  0
    2.9014   -0.5842    1.0226 H   0  0  0  0  0  0  0  0  0  0  0  0
   -0.1183    0.3149   -1.0634 H   0  0  0  0  0  0  0  0  0  0  0  0
    2.7338    1.3164   -0.7097 H   0  0  0  0  0  0  0  0  0  0  0  0
    1.3223    0.0466   -3.0399 H   0  0  0  0  0  0  0  0  0  0  0  0
    0.3654    3.1695   -0.1644 H   0  0  0  0  0  0  0  0  0  0  0  0
    2.0733    3.4086    0.2483 H   0  0  0  0  0  0  0  0  0  0  0  0
   -0.6731    0.9169    1.1294 H   0  0  0  0  0  0  0  0  0  0  0  0
  1  2  1  0  0  0  0
  1 35  1  0  0  0  0
  1 36  1  0  0  0  0
  1 37  1  0  0  0  0
  2  3  1  0  0  0  0
  3  4  1  0  0  0  0
  3 21  2  0  0  0  0
  4  5  2  0  0  0  0
  4 38  1  0  0  0  0
  5  6  1  0  0  0  0
  5 19  1  0  0  0  0
  6  7  1  0  0  0  0
  6 16  2  0  0  0  0
  7  8  1  0  0  0  0
  7 39  1  0  0  0  0
  8  9  1  0  0  0  0
  8 15  2  0  0  0  0
  9 10  2  0  0  0  0
  9 40  1  0  0  0  0
 10 11  1  0  0  0  0
 10 41  1  0  0  0  0
 11 12  1  0  0  0  0
 11 13  2  0  0  0  0
 13 14  1  0  0  0  0
 13 15  1  0  0  0  0
 15 42  1  0  0  0  0
 16 17  1  0  0  0  0
 17 18  2  0  0  0  0
 17 43  1  0  0  0  0
 18 19  1  0  0  0  0
 19 20  2  0  0  0  0
 20 21  1  0  0  0  0
 20 44  1  0  0  0  0
 21 22  1  0  0  0  0
 23 24  1  0  0  0  0
 23 34  1  0  0  0  0
 23 22  1  0  0  0  0
 23 45  1  1  0  0  0
 24 25  1  0  0  0  0
 24 46  1  0  0  0  0
 24 47  1  0  0  0  0
 25 26  1  0  0  0  0
 26 27  1  0  0  0  0
 26 34  1  0  0  0  0
 26 48  1  6  0  0  0
 27 28  1  0  0  0  0
 27 32  1  0  0  0  0
 27 49  1  1  0  0  0
 28 29  1  0  0  0  0
 29 30  1  0  0  0  0
 29 31  1  0  0  0  0
 29 50  1  0  0  0  0
 32 33  1  0  0  0  0
 32 51  1  0  0  0  0
 32 52  1  0  0  0  0
 33 34  1  0  0  0  0
 34 53  1  1  0  0  0
M  END
$$$$
