CHEMBL2011292
 OpenBabel04072215363D

 40 43  0  0  0  0  0  0  0  0999 V2000
    1.2444    0.2331    0.1888 N   0  0  0  0  0  0  0  0  0  0  0  0
    2.5914    0.0031    0.1599 C   0  0  0  0  0  0  0  0  0  0  0  0
    3.2844   -1.1958    0.1250 C   0  0  0  0  0  0  0  0  0  0  0  0
    2.6602   -2.5166    0.1663 C   0  0  0  0  0  0  0  0  0  0  0  0
    3.1270   -3.5522   -0.6661 C   0  0  0  0  0  0  0  0  0  0  0  0
    2.6817   -4.8643   -0.4937 C   0  0  0  0  0  0  0  0  0  0  0  0
    1.7002   -5.1314    0.4493 C   0  0  0  0  0  0  0  0  0  0  0  0
    1.2798   -6.3902    0.6259 F   0  0  0  0  0  0  0  0  0  0  0  0
    1.1584   -4.1121    1.2225 C   0  0  0  0  0  0  0  0  0  0  0  0
    1.6501   -2.8106    1.0951 C   0  0  0  0  0  0  0  0  0  0  0  0
    4.6681   -0.8261   -0.0132 C   0  0  0  0  0  0  0  0  0  0  0  0
    5.8419   -1.7143   -0.0868 C   0  0  0  0  0  0  0  0  0  0  0  0
    6.9254   -1.3944   -0.9050 C   0  0  0  0  0  0  0  0  0  0  0  0
    7.9128   -2.3505   -1.0915 C   0  0  0  0  0  0  0  0  0  0  0  0
    7.8925   -3.5816   -0.5397 N   0  0  0  0  0  0  0  0  0  0  0  0
    6.8707   -3.8477    0.2929 C   0  0  0  0  0  0  0  0  0  0  0  0
    5.8660   -2.9416    0.5854 C   0  0  0  0  0  0  0  0  0  0  0  0
    4.7954    0.5012   -0.1712 N   0  0  0  0  0  0  0  0  0  0  0  0
    3.5589    1.0150    0.0664 N   0  0  0  0  0  0  0  0  0  0  0  0
    3.3662    2.4277    0.1375 C   0  0  0  0  0  0  0  0  0  0  0  0
    4.2271    3.2823   -0.5644 C   0  0  0  0  0  0  0  0  0  0  0  0
    4.0031    4.6628   -0.5560 C   0  0  0  0  0  0  0  0  0  0  0  0
    2.9447    5.2005    0.1863 C   0  0  0  0  0  0  0  0  0  0  0  0
    2.1182    4.3572    0.9264 C   0  0  0  0  0  0  0  0  0  0  0  0
    2.3239    2.9783    0.9016 C   0  0  0  0  0  0  0  0  0  0  0  0
    0.6182   -0.5381   -0.0358 H   0  0  0  0  0  0  0  0  0  0  0  0
    0.8814    1.1116   -0.1798 H   0  0  0  0  0  0  0  0  0  0  0  0
    3.8920   -3.3609   -1.4171 H   0  0  0  0  0  0  0  0  0  0  0  0
    3.1117   -5.6753   -1.0735 H   0  0  0  0  0  0  0  0  0  0  0  0
    0.3783   -4.3410    1.9417 H   0  0  0  0  0  0  0  0  0  0  0  0
    1.2581   -2.0347    1.7495 H   0  0  0  0  0  0  0  0  0  0  0  0
    6.9918   -0.4346   -1.4073 H   0  0  0  0  0  0  0  0  0  0  0  0
    8.7666   -2.1442   -1.7325 H   0  0  0  0  0  0  0  0  0  0  0  0
    6.8580   -4.8494    0.7148 H   0  0  0  0  0  0  0  0  0  0  0  0
    5.0865   -3.2294    1.2831 H   0  0  0  0  0  0  0  0  0  0  0  0
    5.0443    2.8843   -1.1621 H   0  0  0  0  0  0  0  0  0  0  0  0
    4.6447    5.3223   -1.1350 H   0  0  0  0  0  0  0  0  0  0  0  0
    2.7788    6.2746    0.1932 H   0  0  0  0  0  0  0  0  0  0  0  0
    1.3139    4.7785    1.5237 H   0  0  0  0  0  0  0  0  0  0  0  0
    1.6888    2.3519    1.5221 H   0  0  0  0  0  0  0  0  0  0  0  0
  1  2  1  0  0  0  0
  1 26  1  0  0  0  0
  1 27  1  0  0  0  0
  2  3  2  0  0  0  0
  2 19  1  0  0  0  0
  3  4  1  0  0  0  0
  3 11  1  0  0  0  0
  4  5  1  0  0  0  0
  4 10  2  0  0  0  0
  5  6  2  0  0  0  0
  5 28  1  0  0  0  0
  6  7  1  0  0  0  0
  6 29  1  0  0  0  0
  7  8  1  0  0  0  0
  7  9  2  0  0  0  0
  9 10  1  0  0  0  0
  9 30  1  0  0  0  0
 10 31  1  0  0  0  0
 11 12  1  0  0  0  0
 11 18  2  0  0  0  0
 12 13  1  0  0  0  0
 12 17  2  0  0  0  0
 13 14  2  0  0  0  0
 13 32  1  0  0  0  0
 14 15  1  0  0  0  0
 14 33  1  0  0  0  0
 15 16  2  0  0  0  0
 16 17  1  0  0  0  0
 16 34  1  0  0  0  0
 17 35  1  0  0  0  0
 18 19  1  0  0  0  0
 19 20  1  0  0  0  0
 20 21  1  0  0  0  0
 20 25  2  0  0  0  0
 21 22  2  0  0  0  0
 21 36  1  0  0  0  0
 22 23  1  0  0  0  0
 22 37  1  0  0  0  0
 23 24  2  0  0  0  0
 23 38  1  0  0  0  0
 24 25  1  0  0  0  0
 24 39  1  0  0  0  0
 25 40  1  0  0  0  0
M  END
$$$$
