CHEMBL3914322
 OpenBabel04072215373D

 66 69  0  0  1  0  0  0  0  0999 V2000
   -0.4083   -4.4539   -3.5213 C   0  0  0  0  0  0  0  0  0  0  0  0
   -0.0942   -2.9889   -3.8523 C   0  0  1  0  0  0  0  0  0  0  0  0
    1.3592   -2.7553   -3.8677 N   0  0  0  0  0  0  0  0  0  0  0  0
    2.0051   -2.9243   -2.6341 C   0  0  0  0  0  0  0  0  0  0  0  0
    1.3309   -2.7535   -1.4693 N   0  0  0  0  0  0  0  0  0  0  0  0
    1.9747   -2.9892   -0.3073 C   0  0  0  0  0  0  0  0  0  0  0  0
    3.2481   -3.3737   -0.1213 N   0  0  0  0  0  0  0  0  0  0  0  0
    3.8802   -3.5133   -1.2960 C   0  0  0  0  0  0  0  0  0  0  0  0
    5.1813   -3.9117   -1.4288 N   0  0  0  0  0  0  0  0  0  0  0  0
    5.5293   -3.9751   -2.7623 C   0  0  0  0  0  0  0  0  0  0  0  0
    6.8528   -4.3837   -3.2296 C   0  0  0  0  0  0  0  0  0  0  0  0
    6.9964   -5.0029   -4.4765 C   0  0  0  0  0  0  0  0  0  0  0  0
    8.2597   -5.3432   -4.9709 C   0  0  0  0  0  0  0  0  0  0  0  0
    9.4018   -5.0644   -4.2214 C   0  0  0  0  0  0  0  0  0  0  0  0
   10.6835   -5.3531   -4.6030 O   0  0  0  0  0  0  0  0  0  0  0  0
   10.9191   -5.3189   -6.0109 C   0  0  0  0  0  0  0  0  0  0  0  0
   12.3951   -5.6166   -6.2611 C   0  0  0  0  0  0  0  0  0  0  0  0
   12.7011   -5.5944   -7.7562 C   0  0  0  0  0  0  0  0  0  0  0  0
   14.1692   -5.9034   -8.0451 C   0  0  0  0  0  0  0  0  0  0  0  0
   14.4358   -5.8708   -9.5497 C   0  0  0  0  0  0  0  0  0  0  0  0
   15.8947   -6.1744   -9.8779 C   0  0  0  0  0  0  0  0  0  0  0  0
   16.1483   -6.1302  -11.3699 C   0  0  0  0  0  0  0  0  0  0  0  0
   15.2917   -5.8892  -12.2175 O   0  0  0  0  0  0  0  0  0  0  0  0
   17.4538   -6.3768  -11.7133 N   0  0  0  0  0  0  0  0  0  0  0  0
   17.7443   -6.3880  -13.0954 O   0  0  0  0  0  0  0  0  0  0  0  0
    9.2668   -4.4819   -2.9625 C   0  0  0  0  0  0  0  0  0  0  0  0
    8.0049   -4.1387   -2.4687 C   0  0  0  0  0  0  0  0  0  0  0  0
    4.4003   -3.5963   -3.4783 C   0  0  0  0  0  0  0  0  0  0  0  0
    3.3543   -3.3081   -2.5596 C   0  0  0  0  0  0  0  0  0  0  0  0
   -0.6485   -2.6225   -5.2290 C   0  0  0  0  0  0  0  0  0  0  0  0
   -1.6008   -1.5952   -5.3625 C   0  0  0  0  0  0  0  0  0  0  0  0
   -2.0719   -1.2187   -6.6259 C   0  0  0  0  0  0  0  0  0  0  0  0
   -1.6013   -1.8733   -7.7563 C   0  0  0  0  0  0  0  0  0  0  0  0
   -2.0348   -1.4956   -8.9656 F   0  0  0  0  0  0  0  0  0  0  0  0
   -0.6830   -2.9102   -7.6502 C   0  0  0  0  0  0  0  0  0  0  0  0
   -0.2089   -3.2845   -6.3914 C   0  0  0  0  0  0  0  0  0  0  0  0
   -0.2152   -4.6709   -2.4643 H   0  0  0  0  0  0  0  0  0  0  0  0
    0.2134   -5.1449   -4.1041 H   0  0  0  0  0  0  0  0  0  0  0  0
   -1.4582   -4.6945   -3.7145 H   0  0  0  0  0  0  0  0  0  0  0  0
   -0.5777   -2.3413   -3.1084 H   0  0  0  0  0  0  0  0  0  0  0  0
    1.5503   -1.8008   -4.1704 H   0  0  0  0  0  0  0  0  0  0  0  0
    1.3841   -2.8580    0.5945 H   0  0  0  0  0  0  0  0  0  0  0  0
    5.7712   -4.1566   -0.6453 H   0  0  0  0  0  0  0  0  0  0  0  0
    6.1217   -5.2387   -5.0792 H   0  0  0  0  0  0  0  0  0  0  0  0
    8.3107   -5.8319   -5.9369 H   0  0  0  0  0  0  0  0  0  0  0  0
   10.6678   -4.3253   -6.4038 H   0  0  0  0  0  0  0  0  0  0  0  0
   10.3244   -6.0823   -6.5229 H   0  0  0  0  0  0  0  0  0  0  0  0
   12.6439   -6.5966   -5.8351 H   0  0  0  0  0  0  0  0  0  0  0  0
   13.0168   -4.8869   -5.7283 H   0  0  0  0  0  0  0  0  0  0  0  0
   12.4466   -4.6089   -8.1653 H   0  0  0  0  0  0  0  0  0  0  0  0
   12.0665   -6.3279   -8.2693 H   0  0  0  0  0  0  0  0  0  0  0  0
   14.4257   -6.8913   -7.6444 H   0  0  0  0  0  0  0  0  0  0  0  0
   14.8080   -5.1698   -7.5391 H   0  0  0  0  0  0  0  0  0  0  0  0
   14.1682   -4.8838   -9.9480 H   0  0  0  0  0  0  0  0  0  0  0  0
   13.7871   -6.5985  -10.0539 H   0  0  0  0  0  0  0  0  0  0  0  0
   16.1648   -7.1702   -9.5086 H   0  0  0  0  0  0  0  0  0  0  0  0
   16.5486   -5.4381   -9.3962 H   0  0  0  0  0  0  0  0  0  0  0  0
   18.1716   -6.7149  -11.0828 H   0  0  0  0  0  0  0  0  0  0  0  0
   16.8737   -6.1598  -13.4916 H   0  0  0  0  0  0  0  0  0  0  0  0
   10.1540   -4.2673   -2.3698 H   0  0  0  0  0  0  0  0  0  0  0  0
    7.9441   -3.6536   -1.4995 H   0  0  0  0  0  0  0  0  0  0  0  0
    4.3254   -3.5375   -4.5562 H   0  0  0  0  0  0  0  0  0  0  0  0
   -1.9787   -1.0749   -4.4847 H   0  0  0  0  0  0  0  0  0  0  0  0
   -2.7934   -0.4162   -6.7324 H   0  0  0  0  0  0  0  0  0  0  0  0
   -0.3343   -3.4122   -8.5468 H   0  0  0  0  0  0  0  0  0  0  0  0
    0.5209   -4.0887   -6.3167 H   0  0  0  0  0  0  0  0  0  0  0  0
  1  2  1  0  0  0  0
  1 37  1  0  0  0  0
  1 38  1  0  0  0  0
  1 39  1  0  0  0  0
  2  3  1  0  0  0  0
  2 30  1  0  0  0  0
  2 40  1  1  0  0  0
  3  4  1  0  0  0  0
  3 41  1  0  0  0  0
  4  5  1  0  0  0  0
  4 29  2  0  0  0  0
  5  6  2  0  0  0  0
  6  7  1  0  0  0  0
  6 42  1  0  0  0  0
  7  8  2  0  0  0  0
  8  9  1  0  0  0  0
  8 29  1  0  0  0  0
  9 10  1  0  0  0  0
  9 43  1  0  0  0  0
 10 11  1  0  0  0  0
 10 28  2  0  0  0  0
 11 12  1  0  0  0  0
 11 27  2  0  0  0  0
 12 13  2  0  0  0  0
 12 44  1  0  0  0  0
 13 14  1  0  0  0  0
 13 45  1  0  0  0  0
 14 15  1  0  0  0  0
 14 26  2  0  0  0  0
 15 16  1  0  0  0  0
 16 17  1  0  0  0  0
 16 46  1  0  0  0  0
 16 47  1  0  0  0  0
 17 18  1  0  0  0  0
 17 48  1  0  0  0  0
 17 49  1  0  0  0  0
 18 19  1  0  0  0  0
 18 50  1  0  0  0  0
 18 51  1  0  0  0  0
 19 20  1  0  0  0  0
 19 52  1  0  0  0  0
 19 53  1  0  0  0  0
 20 21  1  0  0  0  0
 20 54  1  0  0  0  0
 20 55  1  0  0  0  0
 21 22  1  0  0  0  0
 21 56  1  0  0  0  0
 21 57  1  0  0  0  0
 22 23  2  0  0  0  0
 22 24  1  0  0  0  0
 24 25  1  0  0  0  0
 24 58  1  0  0  0  0
 25 59  1  0  0  0  0
 26 27  1  0  0  0  0
 26 60  1  0  0  0  0
 27 61  1  0  0  0  0
 28 29  1  0  0  0  0
 28 62  1  0  0  0  0
 30 31  1  0  0  0  0
 30 36  2  0  0  0  0
 31 32  2  0  0  0  0
 31 63  1  0  0  0  0
 32 33  1  0  0  0  0
 32 64  1  0  0  0  0
 33 34  1  0  0  0  0
 33 35  2  0  0  0  0
 35 36  1  0  0  0  0
 35 65  1  0  0  0  0
 36 66  1  0  0  0  0
M  END
$$$$
