CHEMBL25425
 OpenBabel04072215363D

 57 60  0  0  0  0  0  0  0  0999 V2000
    2.4596   -1.0784    0.5987 C   0  0  0  0  0  0  0  0  0  0  0  0
    2.3415    0.0827   -0.2357 O   0  0  0  0  0  0  0  0  0  0  0  0
    3.1476    0.1390   -1.3439 C   0  0  0  0  0  0  0  0  0  0  0  0
    4.3704   -0.5315   -1.3836 C   0  0  0  0  0  0  0  0  0  0  0  0
    5.0896   -0.6758   -2.5700 C   0  0  0  0  0  0  0  0  0  0  0  0
    6.1230   -1.6098   -2.7738 C   0  0  0  0  0  0  0  0  0  0  0  0
    6.4230   -2.5603   -1.7570 N   0  0  0  0  0  0  0  0  0  0  0  0
    7.1416   -3.7593   -1.9639 C   0  0  0  0  0  0  0  0  0  0  0  0
    6.8741   -4.5782   -3.0693 C   0  0  0  0  0  0  0  0  0  0  0  0
    7.6705   -5.6902   -3.3340 C   0  0  0  0  0  0  0  0  0  0  0  0
    8.7311   -6.0035   -2.4925 C   0  0  0  0  0  0  0  0  0  0  0  0
    9.7641   -7.3266   -2.8739 Cl  0  0  0  0  0  0  0  0  0  0  0  0
    8.9726   -5.2457   -1.3482 C   0  0  0  0  0  0  0  0  0  0  0  0
    8.1671   -4.1361   -1.0946 C   0  0  0  0  0  0  0  0  0  0  0  0
    8.4092   -3.3962    0.0017 F   0  0  0  0  0  0  0  0  0  0  0  0
    6.7633   -1.7113   -3.9524 N   0  0  0  0  0  0  0  0  0  0  0  0
    6.3565   -0.8898   -4.9296 C   0  0  0  0  0  0  0  0  0  0  0  0
    5.3648   -0.0120   -4.8617 N   0  0  0  0  0  0  0  0  0  0  0  0
    4.7210    0.0580   -3.6923 C   0  0  0  0  0  0  0  0  0  0  0  0
    3.6008    0.8629   -3.6025 C   0  0  0  0  0  0  0  0  0  0  0  0
    2.7377    0.8656   -2.4823 C   0  0  0  0  0  0  0  0  0  0  0  0
    1.5120    1.5212   -2.5039 O   0  0  0  0  0  0  0  0  0  0  0  0
    1.0708    1.8681   -3.8435 C   0  0  0  0  0  0  0  0  0  0  0  0
   -0.4002    2.2657   -3.9662 C   0  0  0  0  0  0  0  0  0  0  0  0
   -0.8397    2.4639   -5.4535 C   0  0  0  0  0  0  0  0  0  0  0  0
   -2.3276    2.8410   -5.5655 C   0  0  0  0  0  0  0  0  0  0  0  0
   -3.2359    1.6634   -5.2186 C   0  0  0  0  0  0  0  0  0  0  0  0
   -2.9882    0.4926   -6.0701 N   0  0  0  0  0  0  0  0  0  0  0  0
   -3.8016   -0.6377   -5.6054 C   0  0  0  0  0  0  0  0  0  0  0  0
   -1.5748    0.0971   -6.1196 C   0  0  0  0  0  0  0  0  0  0  0  0
   -0.6210    1.2638   -6.3949 C   0  0  0  0  0  0  0  0  0  0  0  0
    2.6719   -0.7616    1.6258 H   0  0  0  0  0  0  0  0  0  0  0  0
    3.2263   -1.8127    0.3196 H   0  0  0  0  0  0  0  0  0  0  0  0
    1.5135   -1.6237    0.5826 H   0  0  0  0  0  0  0  0  0  0  0  0
    4.7763   -0.9929   -0.4895 H   0  0  0  0  0  0  0  0  0  0  0  0
    6.6747   -2.1024   -0.8898 H   0  0  0  0  0  0  0  0  0  0  0  0
    6.0554   -4.3352   -3.7445 H   0  0  0  0  0  0  0  0  0  0  0  0
    7.4695   -6.2931   -4.2224 H   0  0  0  0  0  0  0  0  0  0  0  0
    9.7853   -5.4856   -0.6758 H   0  0  0  0  0  0  0  0  0  0  0  0
    6.8817   -0.9675   -5.8716 H   0  0  0  0  0  0  0  0  0  0  0  0
    3.3740    1.4497   -4.4917 H   0  0  0  0  0  0  0  0  0  0  0  0
    1.2090    0.9739   -4.4647 H   0  0  0  0  0  0  0  0  0  0  0  0
    1.6770    2.6977   -4.2110 H   0  0  0  0  0  0  0  0  0  0  0  0
   -0.5520    3.2106   -3.4275 H   0  0  0  0  0  0  0  0  0  0  0  0
   -1.0235    1.5280   -3.4513 H   0  0  0  0  0  0  0  0  0  0  0  0
   -0.2492    3.3004   -5.8518 H   0  0  0  0  0  0  0  0  0  0  0  0
   -2.5360    3.1615   -6.5974 H   0  0  0  0  0  0  0  0  0  0  0  0
   -2.5541    3.6994   -4.9245 H   0  0  0  0  0  0  0  0  0  0  0  0
   -4.2759    1.9868   -5.3500 H   0  0  0  0  0  0  0  0  0  0  0  0
   -3.1168    1.4072   -4.1595 H   0  0  0  0  0  0  0  0  0  0  0  0
   -4.8681   -0.3915   -5.6420 H   0  0  0  0  0  0  0  0  0  0  0  0
   -3.5515   -0.9197   -4.5748 H   0  0  0  0  0  0  0  0  0  0  0  0
   -3.6540   -1.5161   -6.2428 H   0  0  0  0  0  0  0  0  0  0  0  0
   -1.4512   -0.6285   -6.9351 H   0  0  0  0  0  0  0  0  0  0  0  0
   -1.2702   -0.4048   -5.1943 H   0  0  0  0  0  0  0  0  0  0  0  0
   -0.7778    1.6025   -7.4288 H   0  0  0  0  0  0  0  0  0  0  0  0
    0.4119    0.9081   -6.3673 H   0  0  0  0  0  0  0  0  0  0  0  0
  1  2  1  0  0  0  0
  1 32  1  0  0  0  0
  1 33  1  0  0  0  0
  1 34  1  0  0  0  0
  2  3  1  0  0  0  0
  3  4  1  0  0  0  0
  3 21  2  0  0  0  0
  4  5  2  0  0  0  0
  4 35  1  0  0  0  0
  5  6  1  0  0  0  0
  5 19  1  0  0  0  0
  6  7  1  0  0  0  0
  6 16  2  0  0  0  0
  7  8  1  0  0  0  0
  7 36  1  0  0  0  0
  8  9  1  0  0  0  0
  8 14  2  0  0  0  0
  9 10  2  0  0  0  0
  9 37  1  0  0  0  0
 10 11  1  0  0  0  0
 10 38  1  0  0  0  0
 11 12  1  0  0  0  0
 11 13  2  0  0  0  0
 13 14  1  0  0  0  0
 13 39  1  0  0  0  0
 14 15  1  0  0  0  0
 16 17  1  0  0  0  0
 17 18  2  0  0  0  0
 17 40  1  0  0  0  0
 18 19  1  0  0  0  0
 19 20  2  0  0  0  0
 20 21  1  0  0  0  0
 20 41  1  0  0  0  0
 21 22  1  0  0  0  0
 22 23  1  0  0  0  0
 23 24  1  0  0  0  0
 23 42  1  0  0  0  0
 23 43  1  0  0  0  0
 24 25  1  0  0  0  0
 24 44  1  0  0  0  0
 24 45  1  0  0  0  0
 25 26  1  0  0  0  0
 25 31  1  0  0  0  0
 25 46  1  0  0  0  0
 26 27  1  0  0  0  0
 26 47  1  0  0  0  0
 26 48  1  0  0  0  0
 27 28  1  0  0  0  0
 27 49  1  0  0  0  0
 27 50  1  0  0  0  0
 28 29  1  0  0  0  0
 28 30  1  0  0  0  0
 29 51  1  0  0  0  0
 29 52  1  0  0  0  0
 29 53  1  0  0  0  0
 30 31  1  0  0  0  0
 30 54  1  0  0  0  0
 30 55  1  0  0  0  0
 31 56  1  0  0  0  0
 31 57  1  0  0  0  0
M  END
$$$$
