CHEMBL2016908
 OpenBabel04072215363D

 52 56  0  0  0  0  0  0  0  0999 V2000
    1.0520   -0.4803   -0.1331 O   0  0  0  0  0  0  0  0  0  0  0  0
    2.2146   -0.0830   -0.0034 C   0  0  0  0  0  0  0  0  0  0  0  0
    2.8527    0.7683   -1.1144 C   0  0  0  0  0  0  0  0  0  0  0  0
    3.6044   -0.0946   -2.0538 N   0  0  0  0  0  0  0  0  0  0  0  0
    4.2893    0.7132   -3.0861 C   0  0  0  0  0  0  0  0  0  0  0  0
    3.3292    1.3704   -4.0933 C   0  0  0  0  0  0  0  0  0  0  0  0
    2.4874    0.4011   -4.7293 O   0  0  0  0  0  0  0  0  0  0  0  0
    1.7601   -0.3730   -3.7644 C   0  0  0  0  0  0  0  0  0  0  0  0
    2.7128   -1.0492   -2.7633 C   0  0  0  0  0  0  0  0  0  0  0  0
    2.9992   -0.4300    1.1000 N   0  0  0  0  0  0  0  0  0  0  0  0
    2.3390   -1.3067    2.0941 C   0  0  0  0  0  0  0  0  0  0  0  0
    3.2316   -1.9622    3.1658 C   0  0  0  0  0  0  0  0  0  0  0  0
    4.3903   -1.1086    3.4702 C   0  0  0  0  0  0  0  0  0  0  0  0
    5.2635   -1.2936    4.5009 N   0  0  0  0  0  0  0  0  0  0  0  0
    6.1488   -0.3117    4.4004 C   0  0  0  0  0  0  0  0  0  0  0  0
    7.2517    0.0129    5.2365 C   0  0  0  0  0  0  0  0  0  0  0  0
    7.5711   -0.8430    6.2232 C   0  0  0  0  0  0  0  0  0  0  0  0
    8.6017   -0.5147    7.2030 C   0  0  0  0  0  0  0  0  0  0  0  0
    8.9157   -1.3704    8.2579 C   0  0  0  0  0  0  0  0  0  0  0  0
    8.3141   -2.5647    8.3638 F   0  0  0  0  0  0  0  0  0  0  0  0
    9.8418   -0.9989    9.2278 C   0  0  0  0  0  0  0  0  0  0  0  0
   10.4732    0.2426    9.1425 C   0  0  0  0  0  0  0  0  0  0  0  0
   10.1907    1.1009    8.0766 C   0  0  0  0  0  0  0  0  0  0  0  0
    9.2584    0.7163    7.1120 C   0  0  0  0  0  0  0  0  0  0  0  0
    8.9588    1.5777    6.0478 N   0  0  0  0  0  0  0  0  0  0  0  0
    8.0193    1.2957    5.0837 C   0  0  0  0  0  0  0  0  0  0  0  0
    7.8156    2.0744    4.1522 O   0  0  0  0  0  0  0  0  0  0  0  0
    5.8553    0.4870    3.3129 N   0  0  0  0  0  0  0  0  0  0  0  0
    4.7435   -0.0267    2.7145 C   0  0  0  0  0  0  0  0  0  0  0  0
    4.0669    0.4867    1.5210 C   0  0  0  0  0  0  0  0  0  0  0  0
    3.5122    1.5274   -0.6847 H   0  0  0  0  0  0  0  0  0  0  0  0
    2.0473    1.3332   -1.5962 H   0  0  0  0  0  0  0  0  0  0  0  0
    4.9631    0.0418   -3.6353 H   0  0  0  0  0  0  0  0  0  0  0  0
    4.9299    1.4689   -2.6172 H   0  0  0  0  0  0  0  0  0  0  0  0
    3.9075    1.8682   -4.8779 H   0  0  0  0  0  0  0  0  0  0  0  0
    2.7045    2.1341   -3.6168 H   0  0  0  0  0  0  0  0  0  0  0  0
    1.1994   -1.1374   -4.3114 H   0  0  0  0  0  0  0  0  0  0  0  0
    1.0265    0.2692   -3.2641 H   0  0  0  0  0  0  0  0  0  0  0  0
    3.3564   -1.7466   -3.3154 H   0  0  0  0  0  0  0  0  0  0  0  0
    2.1503   -1.6733   -2.0618 H   0  0  0  0  0  0  0  0  0  0  0  0
    1.8242   -2.1097    1.5489 H   0  0  0  0  0  0  0  0  0  0  0  0
    1.5563   -0.7073    2.5750 H   0  0  0  0  0  0  0  0  0  0  0  0
    3.5881   -2.9363    2.8131 H   0  0  0  0  0  0  0  0  0  0  0  0
    2.6365   -2.1409    4.0688 H   0  0  0  0  0  0  0  0  0  0  0  0
    7.0314   -1.7791    6.3555 H   0  0  0  0  0  0  0  0  0  0  0  0
   10.0542   -1.6768   10.0488 H   0  0  0  0  0  0  0  0  0  0  0  0
   11.1827    0.5424    9.9098 H   0  0  0  0  0  0  0  0  0  0  0  0
   10.6890    2.0646    8.0210 H   0  0  0  0  0  0  0  0  0  0  0  0
    9.4488    2.4563    5.9465 H   0  0  0  0  0  0  0  0  0  0  0  0
    6.3798    1.3151    3.0463 H   0  0  0  0  0  0  0  0  0  0  0  0
    4.7889    0.5983    0.7069 H   0  0  0  0  0  0  0  0  0  0  0  0
    3.6109    1.4620    1.7287 H   0  0  0  0  0  0  0  0  0  0  0  0
  1  2  2  0  0  0  0
  2  3  1  0  0  0  0
  2 10  1  0  0  0  0
  3  4  1  0  0  0  0
  3 31  1  0  0  0  0
  3 32  1  0  0  0  0
  4  5  1  0  0  0  0
  4  9  1  0  0  0  0
  5  6  1  0  0  0  0
  5 33  1  0  0  0  0
  5 34  1  0  0  0  0
  6  7  1  0  0  0  0
  6 35  1  0  0  0  0
  6 36  1  0  0  0  0
  7  8  1  0  0  0  0
  8  9  1  0  0  0  0
  8 37  1  0  0  0  0
  8 38  1  0  0  0  0
  9 39  1  0  0  0  0
  9 40  1  0  0  0  0
 10 11  1  0  0  0  0
 10 30  1  0  0  0  0
 11 12  1  0  0  0  0
 11 41  1  0  0  0  0
 11 42  1  0  0  0  0
 12 13  1  0  0  0  0
 12 43  1  0  0  0  0
 12 44  1  0  0  0  0
 13 14  1  0  0  0  0
 13 29  2  0  0  0  0
 14 15  2  0  0  0  0
 15 16  1  0  0  0  0
 15 28  1  0  0  0  0
 16 17  2  0  0  0  0
 16 26  1  0  0  0  0
 17 18  1  0  0  0  0
 17 45  1  0  0  0  0
 18 19  1  0  0  0  0
 18 24  2  0  0  0  0
 19 20  1  0  0  0  0
 19 21  2  0  0  0  0
 21 22  1  0  0  0  0
 21 46  1  0  0  0  0
 22 23  2  0  0  0  0
 22 47  1  0  0  0  0
 23 24  1  0  0  0  0
 23 48  1  0  0  0  0
 24 25  1  0  0  0  0
 25 26  1  0  0  0  0
 25 49  1  0  0  0  0
 26 27  2  0  0  0  0
 28 29  1  0  0  0  0
 28 50  1  0  0  0  0
 29 30  1  0  0  0  0
 30 51  1  0  0  0  0
 30 52  1  0  0  0  0
M  END
$$$$
