CHEMBL3671552
 OpenBabel04072215373D

 53 55  0  0  1  0  0  0  0  0999 V2000
    3.5057    0.9186   -3.9914 C   0  0  0  0  0  0  0  0  0  0  0  0
    3.4977    1.5490   -2.8073 C   0  0  0  0  0  0  0  0  0  0  0  0
    3.7117    0.7487   -1.5744 C   0  0  0  0  0  0  0  0  0  0  0  0
    3.2690   -0.3898   -1.4497 O   0  0  0  0  0  0  0  0  0  0  0  0
    4.4883    1.3136   -0.5913 N   0  0  0  0  0  0  0  0  0  0  0  0
    5.2465    2.4780   -0.7804 C   0  0  0  0  0  0  0  0  0  0  0  0
    6.3622    2.3908   -1.6065 C   0  0  0  0  0  0  0  0  0  0  0  0
    6.9772    3.5585   -2.0960 C   0  0  0  0  0  0  0  0  0  0  0  0
    8.0420    3.5571   -3.0140 C   0  0  0  0  0  0  0  0  0  0  0  0
    8.4838    2.3235   -3.5456 N   0  0  0  0  0  0  0  0  0  0  0  0
    9.7812    1.9684   -3.9622 C   0  0  0  0  0  0  0  0  0  0  0  0
   10.9215    2.5495   -3.3974 C   0  0  0  0  0  0  0  0  0  0  0  0
   12.1930    2.0380   -3.6705 C   0  0  0  0  0  0  0  0  0  0  0  0
   12.3340    0.9430   -4.5218 C   0  0  0  0  0  0  0  0  0  0  0  0
   14.0430    0.1855   -4.7939 Br  0  0  0  0  0  0  0  0  0  0  0  0
   11.2218    0.3789   -5.1370 C   0  0  0  0  0  0  0  0  0  0  0  0
    9.9602    0.8909   -4.8448 C   0  0  0  0  0  0  0  0  0  0  0  0
    8.8828    0.3187   -5.4073 F   0  0  0  0  0  0  0  0  0  0  0  0
    8.6212    4.6940   -3.4352 N   0  0  0  0  0  0  0  0  0  0  0  0
    8.1040    5.8333   -2.9680 C   0  0  0  0  0  0  0  0  0  0  0  0
    7.0760    5.9496   -2.1150 N   0  0  0  0  0  0  0  0  0  0  0  0
    6.5200    4.8139   -1.6804 C   0  0  0  0  0  0  0  0  0  0  0  0
    5.4380    4.8746   -0.7988 C   0  0  0  0  0  0  0  0  0  0  0  0
    4.7961    3.7236   -0.3288 C   0  0  0  0  0  0  0  0  0  0  0  0
    3.7119    3.9338    0.4922 O   0  0  0  0  0  0  0  0  0  0  0  0
    3.6120    3.0000    1.5791 C   0  0  0  0  0  0  0  0  0  0  0  0
    2.5635    3.4280    2.6294 C   0  0  1  0  0  0  0  0  0  0  0  0
    1.1940    3.6130    1.9697 C   0  0  0  0  0  0  0  0  0  0  0  0
    2.4495    2.4254    3.6978 N   0  0  0  0  0  0  0  0  0  0  0  0
    3.4987    2.0926    4.5223 C   0  0  0  0  0  0  0  0  0  0  0  0
    3.2189    0.9474    5.4587 C   0  0  0  0  0  0  0  0  0  0  0  0
    4.5973    2.6346    4.4759 O   0  0  0  0  0  0  0  0  0  0  0  0
    3.4370    1.4756   -4.9181 H   0  0  0  0  0  0  0  0  0  0  0  0
    3.6195   -0.1591   -4.0599 H   0  0  0  0  0  0  0  0  0  0  0  0
    3.4204    2.6250   -2.7413 H   0  0  0  0  0  0  0  0  0  0  0  0
    4.8799    0.5952    0.0096 H   0  0  0  0  0  0  0  0  0  0  0  0
    6.7168    1.4115   -1.9233 H   0  0  0  0  0  0  0  0  0  0  0  0
    7.7560    1.8703   -4.0902 H   0  0  0  0  0  0  0  0  0  0  0  0
   10.8272    3.3815   -2.7036 H   0  0  0  0  0  0  0  0  0  0  0  0
   13.0585    2.4854   -3.1892 H   0  0  0  0  0  0  0  0  0  0  0  0
   11.3114   -0.4669   -5.8099 H   0  0  0  0  0  0  0  0  0  0  0  0
    8.5550    6.7550   -3.3230 H   0  0  0  0  0  0  0  0  0  0  0  0
    5.0767    5.8516   -0.4847 H   0  0  0  0  0  0  0  0  0  0  0  0
    4.5959    2.8851    2.0475 H   0  0  0  0  0  0  0  0  0  0  0  0
    3.2778    2.0272    1.2122 H   0  0  0  0  0  0  0  0  0  0  0  0
    2.8680    4.3763    3.0872 H   0  0  0  0  0  0  0  0  0  0  0  0
    0.8641    2.6837    1.4888 H   0  0  0  0  0  0  0  0  0  0  0  0
    1.2163    4.3989    1.2090 H   0  0  0  0  0  0  0  0  0  0  0  0
    0.4344    3.8806    2.7122 H   0  0  0  0  0  0  0  0  0  0  0  0
    1.5530    1.9791    3.8457 H   0  0  0  0  0  0  0  0  0  0  0  0
    2.1632    0.6646    5.4541 H   0  0  0  0  0  0  0  0  0  0  0  0
    3.4981    1.2384    6.4745 H   0  0  0  0  0  0  0  0  0  0  0  0
    3.8112    0.0841    5.1488 H   0  0  0  0  0  0  0  0  0  0  0  0
  1  2  2  0  0  0  0
  1 33  1  0  0  0  0
  1 34  1  0  0  0  0
  2  3  1  0  0  0  0
  2 35  1  0  0  0  0
  3  4  2  0  0  0  0
  3  5  1  0  0  0  0
  5  6  1  0  0  0  0
  5 36  1  0  0  0  0
  6  7  1  0  0  0  0
  6 24  2  0  0  0  0
  7  8  2  0  0  0  0
  7 37  1  0  0  0  0
  8  9  1  0  0  0  0
  8 22  1  0  0  0  0
  9 10  1  0  0  0  0
  9 19  2  0  0  0  0
 10 11  1  0  0  0  0
 10 38  1  0  0  0  0
 11 12  1  0  0  0  0
 11 17  2  0  0  0  0
 12 13  2  0  0  0  0
 12 39  1  0  0  0  0
 13 14  1  0  0  0  0
 13 40  1  0  0  0  0
 14 15  1  0  0  0  0
 14 16  2  0  0  0  0
 16 17  1  0  0  0  0
 16 41  1  0  0  0  0
 17 18  1  0  0  0  0
 19 20  1  0  0  0  0
 20 21  2  0  0  0  0
 20 42  1  0  0  0  0
 21 22  1  0  0  0  0
 22 23  2  0  0  0  0
 23 24  1  0  0  0  0
 23 43  1  0  0  0  0
 24 25  1  0  0  0  0
 25 26  1  0  0  0  0
 26 27  1  0  0  0  0
 26 44  1  0  0  0  0
 26 45  1  0  0  0  0
 27 28  1  0  0  0  0
 27 29  1  0  0  0  0
 27 46  1  1  0  0  0
 28 47  1  0  0  0  0
 28 48  1  0  0  0  0
 28 49  1  0  0  0  0
 29 30  1  0  0  0  0
 29 50  1  0  0  0  0
 30 31  1  0  0  0  0
 30 32  2  0  0  0  0
 31 51  1  0  0  0  0
 31 52  1  0  0  0  0
 31 53  1  0  0  0  0
M  END
$$$$
