CHEMBL3671546
 OpenBabel04072215373D

 53 55  0  0  0  0  0  0  0  0999 V2000
    1.6703    1.3745    1.0442 C   0  0  0  0  0  0  0  0  0  0  0  0
    2.7894    0.7985    0.5715 C   0  0  0  0  0  0  0  0  0  0  0  0
    3.2968    1.0853   -0.8076 C   0  0  0  0  0  0  0  0  0  0  0  0
    3.4928   -0.1790    1.4745 C   0  0  0  0  0  0  0  0  0  0  0  0
    3.2436   -0.2337    2.6744 O   0  0  0  0  0  0  0  0  0  0  0  0
    4.4279   -0.9697    0.8322 N   0  0  0  0  0  0  0  0  0  0  0  0
    5.2125   -1.8826    1.5676 C   0  0  0  0  0  0  0  0  0  0  0  0
    6.4076   -1.3986    2.1000 C   0  0  0  0  0  0  0  0  0  0  0  0
    7.2232   -2.2276    2.8975 C   0  0  0  0  0  0  0  0  0  0  0  0
    8.3702   -1.7943    3.5848 C   0  0  0  0  0  0  0  0  0  0  0  0
    8.7305   -0.4209    3.5626 N   0  0  0  0  0  0  0  0  0  0  0  0
    9.5308    0.1890    4.5546 C   0  0  0  0  0  0  0  0  0  0  0  0
    9.3438   -0.1124    5.9121 C   0  0  0  0  0  0  0  0  0  0  0  0
   10.1971    0.4086    6.8874 C   0  0  0  0  0  0  0  0  0  0  0  0
   11.2300    1.2601    6.5099 C   0  0  0  0  0  0  0  0  0  0  0  0
   12.4358    1.8938    7.8199 Br  0  0  0  0  0  0  0  0  0  0  0  0
   11.3922    1.6314    5.1781 C   0  0  0  0  0  0  0  0  0  0  0  0
   10.5348    1.1025    4.2147 C   0  0  0  0  0  0  0  0  0  0  0  0
   10.7035    1.4504    2.9292 F   0  0  0  0  0  0  0  0  0  0  0  0
    9.1188   -2.6368    4.3128 N   0  0  0  0  0  0  0  0  0  0  0  0
    8.7029   -3.8967    4.4040 C   0  0  0  0  0  0  0  0  0  0  0  0
    7.5976   -4.4041    3.8424 N   0  0  0  0  0  0  0  0  0  0  0  0
    6.8615   -3.5662    3.1089 C   0  0  0  0  0  0  0  0  0  0  0  0
    5.6840   -4.0343    2.5414 C   0  0  0  0  0  0  0  0  0  0  0  0
    4.8594   -3.2229    1.7568 C   0  0  0  0  0  0  0  0  0  0  0  0
    3.7737   -3.8876    1.2197 O   0  0  0  0  0  0  0  0  0  0  0  0
    3.3688   -3.4204   -0.0681 C   0  0  0  0  0  0  0  0  0  0  0  0
    2.8400   -4.5601   -0.9442 C   0  0  0  0  0  0  0  0  0  0  0  0
    2.4415   -4.0891   -2.2663 N   0  0  0  0  0  0  0  0  0  0  0  0
    3.3421   -3.5172   -3.1379 C   0  0  0  0  0  0  0  0  0  0  0  0
    2.7430   -3.0126   -4.4220 C   0  0  0  0  0  0  0  0  0  0  0  0
    4.5380   -3.3837   -2.8967 O   0  0  0  0  0  0  0  0  0  0  0  0
    1.0873    2.0660    0.4446 H   0  0  0  0  0  0  0  0  0  0  0  0
    1.2945    1.1589    2.0420 H   0  0  0  0  0  0  0  0  0  0  0  0
    2.6918    1.8447   -1.3154 H   0  0  0  0  0  0  0  0  0  0  0  0
    3.2728    0.1818   -1.4254 H   0  0  0  0  0  0  0  0  0  0  0  0
    4.3233    1.4644   -0.7699 H   0  0  0  0  0  0  0  0  0  0  0  0
    4.9124   -0.5168    0.0685 H   0  0  0  0  0  0  0  0  0  0  0  0
    6.6771   -0.3566    1.9421 H   0  0  0  0  0  0  0  0  0  0  0  0
    8.9664   -0.1116    2.6235 H   0  0  0  0  0  0  0  0  0  0  0  0
    8.5434   -0.7843    6.2140 H   0  0  0  0  0  0  0  0  0  0  0  0
   10.0503    0.1225    7.9251 H   0  0  0  0  0  0  0  0  0  0  0  0
   12.1848    2.3061    4.8717 H   0  0  0  0  0  0  0  0  0  0  0  0
    9.3066   -4.5727    5.0004 H   0  0  0  0  0  0  0  0  0  0  0  0
    5.4061   -5.0763    2.7117 H   0  0  0  0  0  0  0  0  0  0  0  0
    4.2117   -2.9655   -0.5935 H   0  0  0  0  0  0  0  0  0  0  0  0
    2.5744   -2.6776    0.0614 H   0  0  0  0  0  0  0  0  0  0  0  0
    1.9652   -5.0264   -0.4779 H   0  0  0  0  0  0  0  0  0  0  0  0
    3.5995   -5.3406   -1.0644 H   0  0  0  0  0  0  0  0  0  0  0  0
    1.4950   -4.2702   -2.5749 H   0  0  0  0  0  0  0  0  0  0  0  0
    1.6540   -3.0967   -4.4238 H   0  0  0  0  0  0  0  0  0  0  0  0
    3.1514   -3.5870   -5.2562 H   0  0  0  0  0  0  0  0  0  0  0  0
    3.0060   -1.9565   -4.5390 H   0  0  0  0  0  0  0  0  0  0  0  0
  1  2  2  0  0  0  0
  1 33  1  0  0  0  0
  1 34  1  0  0  0  0
  2  3  1  0  0  0  0
  2  4  1  0  0  0  0
  3 35  1  0  0  0  0
  3 36  1  0  0  0  0
  3 37  1  0  0  0  0
  4  5  2  0  0  0  0
  4  6  1  0  0  0  0
  6  7  1  0  0  0  0
  6 38  1  0  0  0  0
  7  8  1  0  0  0  0
  7 25  2  0  0  0  0
  8  9  2  0  0  0  0
  8 39  1  0  0  0  0
  9 10  1  0  0  0  0
  9 23  1  0  0  0  0
 10 11  1  0  0  0  0
 10 20  2  0  0  0  0
 11 12  1  0  0  0  0
 11 40  1  0  0  0  0
 12 13  1  0  0  0  0
 12 18  2  0  0  0  0
 13 14  2  0  0  0  0
 13 41  1  0  0  0  0
 14 15  1  0  0  0  0
 14 42  1  0  0  0  0
 15 16  1  0  0  0  0
 15 17  2  0  0  0  0
 17 18  1  0  0  0  0
 17 43  1  0  0  0  0
 18 19  1  0  0  0  0
 20 21  1  0  0  0  0
 21 22  2  0  0  0  0
 21 44  1  0  0  0  0
 22 23  1  0  0  0  0
 23 24  2  0  0  0  0
 24 25  1  0  0  0  0
 24 45  1  0  0  0  0
 25 26  1  0  0  0  0
 26 27  1  0  0  0  0
 27 28  1  0  0  0  0
 27 46  1  0  0  0  0
 27 47  1  0  0  0  0
 28 29  1  0  0  0  0
 28 48  1  0  0  0  0
 28 49  1  0  0  0  0
 29 30  1  0  0  0  0
 29 50  1  0  0  0  0
 30 31  1  0  0  0  0
 30 32  2  0  0  0  0
 31 51  1  0  0  0  0
 31 52  1  0  0  0  0
 31 53  1  0  0  0  0
M  END
$$$$
