CHEMBL3921817
 OpenBabel04072215373D

 79 81  0  0  0  0  0  0  0  0999 V2000
    0.4422   -1.0242   -1.1525 C   0  0  0  0  0  0  0  0  0  0  0  0
    1.8486   -1.1936   -0.9623 O   0  0  0  0  0  0  0  0  0  0  0  0
    2.7120   -0.7930   -1.9443 C   0  0  0  0  0  0  0  0  0  0  0  0
    2.4383    0.1772   -2.8923 C   0  0  0  0  0  0  0  0  0  0  0  0
    3.3617    0.4084   -3.9075 C   0  0  0  0  0  0  0  0  0  0  0  0
    3.1649    1.2649   -4.9608 O   0  0  0  0  0  0  0  0  0  0  0  0
    1.9601    2.0275   -4.9617 C   0  0  0  0  0  0  0  0  0  0  0  0
    4.6023   -0.2637   -3.9064 C   0  0  0  0  0  0  0  0  0  0  0  0
    4.9903   -1.1256   -2.8668 C   0  0  0  0  0  0  0  0  0  0  0  0
    6.2738   -1.7418   -2.8423 N   0  0  0  0  0  0  0  0  0  0  0  0
    6.8161   -2.2199   -1.5033 C   0  0  0  0  0  0  0  0  0  0  0  0
    6.3937   -3.6144   -0.9288 C   0  0  0  0  0  0  0  0  0  0  0  0
    6.7486   -4.9009   -1.5438 N   0  0  0  0  0  0  0  0  0  0  0  0
    8.1643   -5.2395   -1.7013 C   0  0  0  0  0  0  0  0  0  0  0  0
    8.9974   -5.2343   -0.4194 C   0  0  0  0  0  0  0  0  0  0  0  0
    8.2635   -6.6306   -2.3462 C   0  0  0  0  0  0  0  0  0  0  0  0
    7.4014   -1.5305   -3.7110 C   0  0  0  0  0  0  0  0  0  0  0  0
    8.0630   -2.6822   -4.1208 C   0  0  0  0  0  0  0  0  0  0  0  0
    9.4069   -2.6344   -4.4431 C   0  0  0  0  0  0  0  0  0  0  0  0
   10.0738   -1.4409   -4.5717 C   0  0  0  0  0  0  0  0  0  0  0  0
   11.3949   -1.5576   -4.7263 N   0  0  0  0  0  0  0  0  0  0  0  0
   12.0530   -0.4471   -5.0828 C   0  0  0  0  0  0  0  0  0  0  0  0
   11.3959    0.7365   -5.3504 C   0  0  0  0  0  0  0  0  0  0  0  0
   12.0689    1.6166   -6.3044 C   0  0  0  0  0  0  0  0  0  0  0  0
   12.6447    2.9013   -6.2238 C   0  0  0  0  0  0  0  0  0  0  0  0
   13.2559    3.2716   -7.3621 N   0  0  0  0  0  0  0  0  0  0  0  0
   13.0721    2.2169   -8.1795 N   0  0  0  0  0  0  0  0  0  0  0  0
   13.3530    2.3151   -9.6035 C   0  0  0  0  0  0  0  0  0  0  0  0
   12.0816    2.5437  -10.4285 C   0  0  0  0  0  0  0  0  0  0  0  0
   11.2884    3.7940  -10.0416 C   0  0  0  0  0  0  0  0  0  0  0  0
   12.0675    5.0116  -10.2352 N   0  0  0  0  0  0  0  0  0  0  0  0
   12.4890    1.1576   -7.5463 C   0  0  0  0  0  0  0  0  0  0  0  0
   10.0709    0.9111   -5.0191 N   0  0  0  0  0  0  0  0  0  0  0  0
    9.3750   -0.2082   -4.5469 C   0  0  0  0  0  0  0  0  0  0  0  0
    8.0246   -0.2851   -4.0243 C   0  0  0  0  0  0  0  0  0  0  0  0
    3.9869   -1.3916   -1.9118 C   0  0  0  0  0  0  0  0  0  0  0  0
    1.4548    1.6365    1.1101 O   0  0  0  0  0  0  0  0  0  0  0  0
    2.5426    1.0884    0.9677 C   0  0  0  0  0  0  0  0  0  0  0  0
    3.4802    1.6061    0.1140 O   0  0  0  0  0  0  0  0  0  0  0  0
    3.0155   -0.1727    1.7080 C   0  0  0  0  0  0  0  0  0  0  0  0
    4.2345   -0.5811    1.2361 F   0  0  0  0  0  0  0  0  0  0  0  0
    3.1846    0.0413    3.0415 F   0  0  0  0  0  0  0  0  0  0  0  0
    2.1774   -1.2361    1.5965 F   0  0  0  0  0  0  0  0  0  0  0  0
    0.0583   -0.3464   -0.3830 H   0  0  0  0  0  0  0  0  0  0  0  0
   -0.0388   -1.9971   -1.0045 H   0  0  0  0  0  0  0  0  0  0  0  0
    0.1388   -0.6613   -2.1374 H   0  0  0  0  0  0  0  0  0  0  0  0
    1.5138    0.7360   -2.8408 H   0  0  0  0  0  0  0  0  0  0  0  0
    1.9006    2.5620   -5.9142 H   0  0  0  0  0  0  0  0  0  0  0  0
    1.9741    2.7704   -4.1569 H   0  0  0  0  0  0  0  0  0  0  0  0
    1.0701    1.3916   -4.8936 H   0  0  0  0  0  0  0  0  0  0  0  0
    5.2682   -0.0860   -4.7455 H   0  0  0  0  0  0  0  0  0  0  0  0
    6.5627   -1.4583   -0.7531 H   0  0  0  0  0  0  0  0  0  0  0  0
    7.9159   -2.2202   -1.5088 H   0  0  0  0  0  0  0  0  0  0  0  0
    5.3107   -3.6528   -0.8042 H   0  0  0  0  0  0  0  0  0  0  0  0
    6.7706   -3.6415    0.1028 H   0  0  0  0  0  0  0  0  0  0  0  0
    6.2459   -5.0105   -2.4239 H   0  0  0  0  0  0  0  0  0  0  0  0
    8.6293   -4.5334   -2.3848 H   0  0  0  0  0  0  0  0  0  0  0  0
    8.6725   -6.0073    0.2844 H   0  0  0  0  0  0  0  0  0  0  0  0
    8.9695   -4.2648    0.0848 H   0  0  0  0  0  0  0  0  0  0  0  0
   10.0489   -5.4333   -0.6647 H   0  0  0  0  0  0  0  0  0  0  0  0
    7.9202   -7.4187   -1.6651 H   0  0  0  0  0  0  0  0  0  0  0  0
    9.3023   -6.8550   -2.6154 H   0  0  0  0  0  0  0  0  0  0  0  0
    7.6693   -6.6951   -3.2645 H   0  0  0  0  0  0  0  0  0  0  0  0
    7.5656   -3.6368   -4.0280 H   0  0  0  0  0  0  0  0  0  0  0  0
    9.9535   -3.5590   -4.5837 H   0  0  0  0  0  0  0  0  0  0  0  0
   13.1144   -0.5749   -5.2616 H   0  0  0  0  0  0  0  0  0  0  0  0
   12.6696    3.5849   -5.3860 H   0  0  0  0  0  0  0  0  0  0  0  0
   13.8287    1.3749   -9.9097 H   0  0  0  0  0  0  0  0  0  0  0  0
   14.0870    3.1131   -9.7597 H   0  0  0  0  0  0  0  0  0  0  0  0
   11.4200    1.6741  -10.3211 H   0  0  0  0  0  0  0  0  0  0  0  0
   12.3488    2.5957  -11.4917 H   0  0  0  0  0  0  0  0  0  0  0  0
   10.9454    3.7360   -9.0032 H   0  0  0  0  0  0  0  0  0  0  0  0
   10.3891    3.8491  -10.6648 H   0  0  0  0  0  0  0  0  0  0  0  0
   12.8265    5.0288   -9.5480 H   0  0  0  0  0  0  0  0  0  0  0  0
   11.4853    5.8119   -9.9845 H   0  0  0  0  0  0  0  0  0  0  0  0
   12.3777    0.2021   -8.0428 H   0  0  0  0  0  0  0  0  0  0  0  0
    7.5097    0.6555   -3.8243 H   0  0  0  0  0  0  0  0  0  0  0  0
    4.1443   -2.1063   -1.1157 H   0  0  0  0  0  0  0  0  0  0  0  0
    4.2719    1.0288    0.0322 H   0  0  0  0  0  0  0  0  0  0  0  0
  1  2  1  0  0  0  0
  1 44  1  0  0  0  0
  1 45  1  0  0  0  0
  1 46  1  0  0  0  0
  2  3  1  0  0  0  0
  3  4  1  0  0  0  0
  3 36  2  0  0  0  0
  4  5  2  0  0  0  0
  4 47  1  0  0  0  0
  5  6  1  0  0  0  0
  5  8  1  0  0  0  0
  6  7  1  0  0  0  0
  7 48  1  0  0  0  0
  7 49  1  0  0  0  0
  7 50  1  0  0  0  0
  8  9  2  0  0  0  0
  8 51  1  0  0  0  0
  9 10  1  0  0  0  0
  9 36  1  0  0  0  0
 10 11  1  0  0  0  0
 10 17  1  0  0  0  0
 11 12  1  0  0  0  0
 11 52  1  0  0  0  0
 11 53  1  0  0  0  0
 12 13  1  0  0  0  0
 12 54  1  0  0  0  0
 12 55  1  0  0  0  0
 13 14  1  0  0  0  0
 13 56  1  0  0  0  0
 14 15  1  0  0  0  0
 14 16  1  0  0  0  0
 14 57  1  0  0  0  0
 15 58  1  0  0  0  0
 15 59  1  0  0  0  0
 15 60  1  0  0  0  0
 16 61  1  0  0  0  0
 16 62  1  0  0  0  0
 16 63  1  0  0  0  0
 17 18  1  0  0  0  0
 17 35  2  0  0  0  0
 18 19  2  0  0  0  0
 18 64  1  0  0  0  0
 19 20  1  0  0  0  0
 19 65  1  0  0  0  0
 20 21  1  0  0  0  0
 20 34  2  0  0  0  0
 21 22  2  0  0  0  0
 22 23  1  0  0  0  0
 22 66  1  0  0  0  0
 23 24  1  0  0  0  0
 23 33  2  0  0  0  0
 24 25  1  0  0  0  0
 24 32  2  0  0  0  0
 25 26  2  0  0  0  0
 25 67  1  0  0  0  0
 26 27  1  0  0  0  0
 27 28  1  0  0  0  0
 27 32  1  0  0  0  0
 28 29  1  0  0  0  0
 28 68  1  0  0  0  0
 28 69  1  0  0  0  0
 29 30  1  0  0  0  0
 29 70  1  0  0  0  0
 29 71  1  0  0  0  0
 30 31  1  0  0  0  0
 30 72  1  0  0  0  0
 30 73  1  0  0  0  0
 31 74  1  0  0  0  0
 31 75  1  0  0  0  0
 32 76  1  0  0  0  0
 33 34  1  0  0  0  0
 34 35  1  0  0  0  0
 35 77  1  0  0  0  0
 36 78  1  0  0  0  0
 37 38  2  0  0  0  0
 38 39  1  0  0  0  0
 38 40  1  0  0  0  0
 39 79  1  0  0  0  0
 40 41  1  0  0  0  0
 40 42  1  0  0  0  0
 40 43  1  0  0  0  0
M  END
$$$$
