CHEMBL3948032
 OpenBabel04072215373D

 47 50  0  0  0  0  0  0  0  0999 V2000
    1.3922   -0.0322   -0.0722 N   0  0  0  0  0  0  0  0  0  0  0  0
    2.7190    0.0479   -0.0332 C   0  0  0  0  0  0  0  0  0  0  0  0
    3.4821    1.1840    0.0007 C   0  0  0  0  0  0  0  0  0  0  0  0
    4.7778    0.7364    0.0213 N   0  0  0  0  0  0  0  0  0  0  0  0
    5.9076    1.5183    0.0485 N   0  0  0  0  0  0  0  0  0  0  0  0
    6.9914    0.8079    0.0514 C   0  0  0  0  0  0  0  0  0  0  0  0
    8.1948    1.6179    0.0690 C   0  0  0  0  0  0  0  0  0  0  0  0
    9.2413    2.2149    0.0531 C   0  0  0  0  0  0  0  0  0  0  0  0
   10.5026    2.9121   -0.0150 C   0  0  0  0  0  0  0  0  0  0  0  0
   10.5358    4.3040   -0.0116 C   0  0  0  0  0  0  0  0  0  0  0  0
   11.7546    4.9886   -0.1446 C   0  0  0  0  0  0  0  0  0  0  0  0
   12.9686    4.3022   -0.2769 C   0  0  0  0  0  0  0  0  0  0  0  0
   14.2153    4.9649   -0.4550 N   0  0  0  0  0  0  0  0  0  0  0  0
   14.4503    6.2882   -0.1248 C   0  0  0  0  0  0  0  0  0  0  0  0
   13.6634    6.9958    0.4959 O   0  0  0  0  0  0  0  0  0  0  0  0
   15.6835    6.7543   -0.5816 N   0  0  0  0  0  0  0  0  0  0  0  0
   16.0185    8.1149   -0.3203 C   0  0  0  0  0  0  0  0  0  0  0  0
   15.8934    8.6477    0.9693 C   0  0  0  0  0  0  0  0  0  0  0  0
   16.0017   10.0297    1.1936 C   0  0  0  0  0  0  0  0  0  0  0  0
   15.7626   10.6084    2.5682 C   0  0  0  0  0  0  0  0  0  0  0  0
   15.5111    9.6720    3.5243 F   0  0  0  0  0  0  0  0  0  0  0  0
   16.8313   11.3218    3.0212 F   0  0  0  0  0  0  0  0  0  0  0  0
   14.7053   11.4661    2.5948 F   0  0  0  0  0  0  0  0  0  0  0  0
   16.2800   10.8725    0.1050 C   0  0  0  0  0  0  0  0  0  0  0  0
   16.4762   10.3377   -1.1720 C   0  0  0  0  0  0  0  0  0  0  0  0
   16.3627    8.9629   -1.3736 C   0  0  0  0  0  0  0  0  0  0  0  0
   16.4930    8.4705   -2.6148 F   0  0  0  0  0  0  0  0  0  0  0  0
   12.9329    2.9034   -0.2679 C   0  0  0  0  0  0  0  0  0  0  0  0
   11.7101    2.2146   -0.1287 C   0  0  0  0  0  0  0  0  0  0  0  0
    7.0858   -0.6726    0.0279 C   0  0  0  0  0  0  0  0  0  0  0  0
    5.9365   -1.3576    0.0061 C   0  0  0  0  0  0  0  0  0  0  0  0
    4.7136   -0.6529   -0.0014 C   0  0  0  0  0  0  0  0  0  0  0  0
    3.4700   -1.0821   -0.0312 N   0  0  0  0  0  0  0  0  0  0  0  0
    0.7786    0.7658    0.0264 H   0  0  0  0  0  0  0  0  0  0  0  0
    0.9481   -0.9413   -0.0011 H   0  0  0  0  0  0  0  0  0  0  0  0
    3.2444    2.2343    0.0033 H   0  0  0  0  0  0  0  0  0  0  0  0
    9.6181    4.8802    0.0812 H   0  0  0  0  0  0  0  0  0  0  0  0
   11.7136    6.0740   -0.1649 H   0  0  0  0  0  0  0  0  0  0  0  0
   15.0322    4.3912   -0.6091 H   0  0  0  0  0  0  0  0  0  0  0  0
   15.9237    6.4295   -1.5115 H   0  0  0  0  0  0  0  0  0  0  0  0
   15.6544    7.9867    1.8023 H   0  0  0  0  0  0  0  0  0  0  0  0
   16.3241   11.9518    0.2497 H   0  0  0  0  0  0  0  0  0  0  0  0
   16.6722   10.9919   -2.0167 H   0  0  0  0  0  0  0  0  0  0  0  0
   13.8484    2.3238   -0.3545 H   0  0  0  0  0  0  0  0  0  0  0  0
   11.7136    1.1271   -0.1163 H   0  0  0  0  0  0  0  0  0  0  0  0
    8.0587   -1.1429    0.0296 H   0  0  0  0  0  0  0  0  0  0  0  0
    5.9127   -2.4413   -0.0112 H   0  0  0  0  0  0  0  0  0  0  0  0
  1  2  1  0  0  0  0
  1 34  1  0  0  0  0
  1 35  1  0  0  0  0
  2  3  2  0  0  0  0
  2 33  1  0  0  0  0
  3  4  1  0  0  0  0
  3 36  1  0  0  0  0
  4  5  1  0  0  0  0
  4 32  1  0  0  0  0
  5  6  2  0  0  0  0
  6  7  1  0  0  0  0
  6 30  1  0  0  0  0
  7  8  3  0  0  0  0
  8  9  1  0  0  0  0
  9 10  1  0  0  0  0
  9 29  2  0  0  0  0
 10 11  2  0  0  0  0
 10 37  1  0  0  0  0
 11 12  1  0  0  0  0
 11 38  1  0  0  0  0
 12 13  1  0  0  0  0
 12 28  2  0  0  0  0
 13 14  1  0  0  0  0
 13 39  1  0  0  0  0
 14 15  2  0  0  0  0
 14 16  1  0  0  0  0
 16 17  1  0  0  0  0
 16 40  1  0  0  0  0
 17 18  1  0  0  0  0
 17 26  2  0  0  0  0
 18 19  2  0  0  0  0
 18 41  1  0  0  0  0
 19 20  1  0  0  0  0
 19 24  1  0  0  0  0
 20 21  1  0  0  0  0
 20 22  1  0  0  0  0
 20 23  1  0  0  0  0
 24 25  2  0  0  0  0
 24 42  1  0  0  0  0
 25 26  1  0  0  0  0
 25 43  1  0  0  0  0
 26 27  1  0  0  0  0
 28 29  1  0  0  0  0
 28 44  1  0  0  0  0
 29 45  1  0  0  0  0
 30 31  2  0  0  0  0
 30 46  1  0  0  0  0
 31 32  1  0  0  0  0
 31 47  1  0  0  0  0
 32 33  2  0  0  0  0
M  END
$$$$
