CHEMBL4282338
 OpenBabel04072215383D

 50 52  0  0  1  0  0  0  0  0999 V2000
   22.0423   -3.6511    8.9696 C   0  0  0  0  0  0  0  0  0  0  0  0
   21.4714   -2.4459    9.7044 C   0  0  1  0  0  0  0  0  0  0  0  0
   22.2447   -1.2987    9.3385 O   0  0  0  0  0  0  0  0  0  0  0  0
   19.9636   -2.2178    9.4215 C   0  0  1  0  0  0  0  0  0  0  0  0
   19.4805   -0.9861   10.1921 C   0  0  0  0  0  0  0  0  0  0  0  0
   19.7959   -1.9696    8.0134 O   0  0  0  0  0  0  0  0  0  0  0  0
   18.6254   -2.4011    7.4194 C   0  0  0  0  0  0  0  0  0  0  0  0
   17.9120   -3.3966    7.9998 N   0  0  0  0  0  0  0  0  0  0  0  0
   16.8466   -3.8555    7.3160 C   0  0  0  0  0  0  0  0  0  0  0  0
   16.1691   -4.9910    7.7639 N   0  0  0  0  0  0  0  0  0  0  0  0
   15.5008   -5.9298    6.9502 C   0  0  0  0  0  0  0  0  0  0  0  0
   15.8819   -6.1481    5.6134 C   0  0  0  0  0  0  0  0  0  0  0  0
   15.1332   -6.9566    4.7560 C   0  0  0  0  0  0  0  0  0  0  0  0
   13.9732   -7.5606    5.2304 C   0  0  0  0  0  0  0  0  0  0  0  0
   12.9700   -8.5210    4.1141 S   0  0  2  0  0  0  0  0  0  0  0  0
   12.5314   -9.7798    4.8799 N   0  0  0  0  0  0  0  0  0  0  0  0
   13.6445   -8.5479    2.8317 O   0  0  0  0  0  0  0  0  0  0  0  0
   11.4631   -7.5104    3.9206 C   0  0  0  0  0  0  0  0  0  0  0  0
   10.4885   -8.0696    2.9133 C   0  0  0  0  0  0  0  0  0  0  0  0
   11.2856   -6.8376    2.5851 C   0  0  0  0  0  0  0  0  0  0  0  0
   13.5965   -7.4039    6.5692 C   0  0  0  0  0  0  0  0  0  0  0  0
   14.3651   -6.5970    7.4246 C   0  0  0  0  0  0  0  0  0  0  0  0
   16.4151   -3.2922    6.1776 N   0  0  0  0  0  0  0  0  0  0  0  0
   17.1438   -2.3099    5.6432 C   0  0  0  0  0  0  0  0  0  0  0  0
   18.3077   -1.8489    6.1993 C   0  0  0  0  0  0  0  0  0  0  0  0
   19.1076   -0.8657    5.4343 C   0  0  0  0  0  0  0  0  0  0  0  0
   20.2727   -0.4670    6.0061 F   0  0  0  0  0  0  0  0  0  0  0  0
   19.4518   -1.3561    4.2065 F   0  0  0  0  0  0  0  0  0  0  0  0
   18.4076    0.2758    5.1757 F   0  0  0  0  0  0  0  0  0  0  0  0
   23.1203   -3.7288    9.1525 H   0  0  0  0  0  0  0  0  0  0  0  0
   21.9176   -3.5573    7.8861 H   0  0  0  0  0  0  0  0  0  0  0  0
   21.5657   -4.5779    9.3015 H   0  0  0  0  0  0  0  0  0  0  0  0
   21.6161   -2.5957   10.7809 H   0  0  0  0  0  0  0  0  0  0  0  0
   22.0458   -1.1088    8.4017 H   0  0  0  0  0  0  0  0  0  0  0  0
   19.4200   -3.1067    9.7599 H   0  0  0  0  0  0  0  0  0  0  0  0
   19.9757   -0.0738    9.8390 H   0  0  0  0  0  0  0  0  0  0  0  0
   19.6759   -1.0913   11.2646 H   0  0  0  0  0  0  0  0  0  0  0  0
   18.4065   -0.8328   10.0496 H   0  0  0  0  0  0  0  0  0  0  0  0
   16.4329   -5.2835    8.6908 H   0  0  0  0  0  0  0  0  0  0  0  0
   16.7767   -5.6745    5.2144 H   0  0  0  0  0  0  0  0  0  0  0  0
   15.4568   -7.0848    3.7258 H   0  0  0  0  0  0  0  0  0  0  0  0
   12.0889  -10.4376    4.2369 H   0  0  0  0  0  0  0  0  0  0  0  0
   11.0662   -7.0374    4.8067 H   0  0  0  0  0  0  0  0  0  0  0  0
    9.4290   -7.9477    3.1114 H   0  0  0  0  0  0  0  0  0  0  0  0
   10.7315   -8.9797    2.3758 H   0  0  0  0  0  0  0  0  0  0  0  0
   10.7628   -5.8876    2.5616 H   0  0  0  0  0  0  0  0  0  0  0  0
   12.0503   -6.9247    1.8208 H   0  0  0  0  0  0  0  0  0  0  0  0
   12.7035   -7.8931    6.9513 H   0  0  0  0  0  0  0  0  0  0  0  0
   14.0363   -6.4530    8.4507 H   0  0  0  0  0  0  0  0  0  0  0  0
   16.7619   -1.9227    4.7006 H   0  0  0  0  0  0  0  0  0  0  0  0
  1  2  1  0  0  0  0
  1 30  1  0  0  0  0
  1 31  1  0  0  0  0
  1 32  1  0  0  0  0
  2  3  1  0  0  0  0
  2  4  1  0  0  0  0
  2 33  1  1  0  0  0
  3 34  1  0  0  0  0
  4  5  1  0  0  0  0
  4  6  1  0  0  0  0
  4 35  1  1  0  0  0
  5 36  1  0  0  0  0
  5 37  1  0  0  0  0
  5 38  1  0  0  0  0
  6  7  1  0  0  0  0
  7  8  1  0  0  0  0
  7 25  2  0  0  0  0
  8  9  2  0  0  0  0
  9 10  1  0  0  0  0
  9 23  1  0  0  0  0
 10 11  1  0  0  0  0
 10 39  1  0  0  0  0
 11 12  1  0  0  0  0
 11 22  2  0  0  0  0
 12 13  2  0  0  0  0
 12 40  1  0  0  0  0
 13 14  1  0  0  0  0
 13 41  1  0  0  0  0
 14 21  2  0  0  0  0
 15 17  2  6  0  0  0
 15 18  1  0  0  0  0
 15 16  2  0  0  0  0
 15 14  1  0  0  0  0
 16 42  1  0  0  0  0
 18 19  1  0  0  0  0
 18 20  1  0  0  0  0
 18 43  1  0  0  0  0
 19 20  1  0  0  0  0
 19 44  1  0  0  0  0
 19 45  1  0  0  0  0
 20 46  1  0  0  0  0
 20 47  1  0  0  0  0
 21 22  1  0  0  0  0
 21 48  1  0  0  0  0
 22 49  1  0  0  0  0
 23 24  2  0  0  0  0
 24 25  1  0  0  0  0
 24 50  1  0  0  0  0
 25 26  1  0  0  0  0
 26 27  1  0  0  0  0
 26 28  1  0  0  0  0
 26 29  1  0  0  0  0
M  END
$$$$
