CHEMBL425387
 OpenBabel04072215383D

 55 58  0  0  0  0  0  0  0  0999 V2000
    2.5498   -0.3789   -0.2539 C   0  0  0  0  0  0  0  0  0  0  0  0
    1.0728   -0.2428   -0.4730 C   0  0  0  0  0  0  0  0  0  0  0  0
    0.5464    0.9718   -0.9242 C   0  0  0  0  0  0  0  0  0  0  0  0
   -0.8179    1.1015   -1.1349 C   0  0  0  0  0  0  0  0  0  0  0  0
   -1.6631    0.0201   -0.8980 C   0  0  0  0  0  0  0  0  0  0  0  0
   -1.1707   -1.2090   -0.4314 C   0  0  0  0  0  0  0  0  0  0  0  0
   -2.0032   -2.3326   -0.1650 N   0  0  0  0  0  0  0  0  0  0  0  0
   -3.3856   -2.3129   -0.2003 C   0  0  0  0  0  0  0  0  0  0  0  0
   -4.0430   -1.2954   -0.3921 O   0  0  0  0  0  0  0  0  0  0  0  0
   -3.9688   -3.5587    0.0049 N   0  0  0  0  0  0  0  0  0  0  0  0
   -5.3671   -3.7733   -0.1436 C   0  0  0  0  0  0  0  0  0  0  0  0
   -6.1587   -2.9068   -0.8919 C   0  0  0  0  0  0  0  0  0  0  0  0
   -7.5488   -2.9804   -0.8586 C   0  0  0  0  0  0  0  0  0  0  0  0
   -8.2102   -4.0194   -0.2106 C   0  0  0  0  0  0  0  0  0  0  0  0
   -9.6898   -4.0597   -0.1471 C   0  0  0  0  0  0  0  0  0  0  0  0
  -10.5063   -3.6315   -1.2090 C   0  0  0  0  0  0  0  0  0  0  0  0
  -10.2256   -2.9968   -2.5630 C   0  0  0  0  0  0  0  0  0  0  0  0
   -9.2589   -3.7266   -3.3950 N   0  0  0  0  0  0  0  0  0  0  0  0
   -9.7943   -5.0151   -3.8310 C   0  0  0  0  0  0  0  0  0  0  0  0
   -8.8895   -2.9172   -4.5596 C   0  0  0  0  0  0  0  0  0  0  0  0
  -12.1743   -3.8439   -0.8518 S   0  0  0  0  0  0  0  0  0  0  0  0
  -11.8571   -4.3592    0.7215 C   0  0  0  0  0  0  0  0  0  0  0  0
  -12.8963   -4.6164    1.5321 N   0  0  0  0  0  0  0  0  0  0  0  0
  -12.5141   -4.9851    2.7489 C   0  0  0  0  0  0  0  0  0  0  0  0
  -11.2608   -5.1159    3.1934 N   0  0  0  0  0  0  0  0  0  0  0  0
  -10.2406   -4.8461    2.3549 C   0  0  0  0  0  0  0  0  0  0  0  0
   -8.9859   -4.9645    2.9413 N   0  0  0  0  0  0  0  0  0  0  0  0
  -10.5056   -4.4430    1.0226 C   0  0  0  0  0  0  0  0  0  0  0  0
   -7.4019   -4.9939    0.3989 C   0  0  0  0  0  0  0  0  0  0  0  0
   -5.9976   -4.8506    0.4772 C   0  0  0  0  0  0  0  0  0  0  0  0
    0.2089   -1.3301   -0.2318 C   0  0  0  0  0  0  0  0  0  0  0  0
    3.0685    0.5638   -0.4606 H   0  0  0  0  0  0  0  0  0  0  0  0
    2.9627   -1.1413   -0.9209 H   0  0  0  0  0  0  0  0  0  0  0  0
    2.7528   -0.6493    0.7861 H   0  0  0  0  0  0  0  0  0  0  0  0
    1.1920    1.8252   -1.1157 H   0  0  0  0  0  0  0  0  0  0  0  0
   -1.2366    2.0389   -1.4899 H   0  0  0  0  0  0  0  0  0  0  0  0
   -2.7124    0.1881   -1.0987 H   0  0  0  0  0  0  0  0  0  0  0  0
   -1.5482   -3.1954    0.0908 H   0  0  0  0  0  0  0  0  0  0  0  0
   -3.4591   -4.2249    0.5643 H   0  0  0  0  0  0  0  0  0  0  0  0
   -5.7289   -2.1189   -1.5024 H   0  0  0  0  0  0  0  0  0  0  0  0
   -8.0765   -2.1833   -1.3639 H   0  0  0  0  0  0  0  0  0  0  0  0
   -9.8676   -1.9771   -2.3663 H   0  0  0  0  0  0  0  0  0  0  0  0
  -11.1561   -2.8506   -3.1302 H   0  0  0  0  0  0  0  0  0  0  0  0
  -10.0063   -5.6647   -2.9757 H   0  0  0  0  0  0  0  0  0  0  0  0
   -9.0570   -5.5459   -4.4432 H   0  0  0  0  0  0  0  0  0  0  0  0
  -10.7127   -4.9022   -4.4183 H   0  0  0  0  0  0  0  0  0  0  0  0
   -8.4448   -1.9650   -4.2470 H   0  0  0  0  0  0  0  0  0  0  0  0
   -9.7503   -2.6977   -5.2025 H   0  0  0  0  0  0  0  0  0  0  0  0
   -8.1314   -3.4298   -5.1621 H   0  0  0  0  0  0  0  0  0  0  0  0
  -13.3046   -5.1919    3.4626 H   0  0  0  0  0  0  0  0  0  0  0  0
   -9.0955   -5.0605    3.9455 H   0  0  0  0  0  0  0  0  0  0  0  0
   -8.3346   -4.2456    2.6503 H   0  0  0  0  0  0  0  0  0  0  0  0
   -7.8553   -5.8644    0.8710 H   0  0  0  0  0  0  0  0  0  0  0  0
   -5.4331   -5.5777    1.0543 H   0  0  0  0  0  0  0  0  0  0  0  0
    0.6284   -2.2697    0.1165 H   0  0  0  0  0  0  0  0  0  0  0  0
  1  2  1  0  0  0  0
  1 32  1  0  0  0  0
  1 33  1  0  0  0  0
  1 34  1  0  0  0  0
  2  3  1  0  0  0  0
  2 31  2  0  0  0  0
  3  4  2  0  0  0  0
  3 35  1  0  0  0  0
  4  5  1  0  0  0  0
  4 36  1  0  0  0  0
  5  6  2  0  0  0  0
  5 37  1  0  0  0  0
  6  7  1  0  0  0  0
  6 31  1  0  0  0  0
  7  8  1  0  0  0  0
  7 38  1  0  0  0  0
  8  9  2  0  0  0  0
  8 10  1  0  0  0  0
 10 11  1  0  0  0  0
 10 39  1  0  0  0  0
 11 12  1  0  0  0  0
 11 30  2  0  0  0  0
 12 13  2  0  0  0  0
 12 40  1  0  0  0  0
 13 14  1  0  0  0  0
 13 41  1  0  0  0  0
 14 15  1  0  0  0  0
 14 29  2  0  0  0  0
 15 16  2  0  0  0  0
 15 28  1  0  0  0  0
 16 17  1  0  0  0  0
 16 21  1  0  0  0  0
 17 18  1  0  0  0  0
 17 42  1  0  0  0  0
 17 43  1  0  0  0  0
 18 19  1  0  0  0  0
 18 20  1  0  0  0  0
 19 44  1  0  0  0  0
 19 45  1  0  0  0  0
 19 46  1  0  0  0  0
 20 47  1  0  0  0  0
 20 48  1  0  0  0  0
 20 49  1  0  0  0  0
 21 22  1  0  0  0  0
 22 23  1  0  0  0  0
 22 28  2  0  0  0  0
 23 24  2  0  0  0  0
 24 25  1  0  0  0  0
 24 50  1  0  0  0  0
 25 26  2  0  0  0  0
 26 27  1  0  0  0  0
 26 28  1  0  0  0  0
 27 51  1  0  0  0  0
 27 52  1  0  0  0  0
 29 30  1  0  0  0  0
 29 53  1  0  0  0  0
 30 54  1  0  0  0  0
 31 55  1  0  0  0  0
M  END
$$$$
