CHEMBL4584893
 OpenBabel04072215383D

 49 52  0  0  0  0  0  0  0  0999 V2000
    2.2856    0.8318    8.9700 C   0  0  0  0  0  0  0  0  0  0  0  0
    3.5910    0.9783    8.4271 O   0  0  0  0  0  0  0  0  0  0  0  0
    3.9939    0.0379    7.5207 C   0  0  0  0  0  0  0  0  0  0  0  0
    3.0947   -0.6562    6.6937 C   0  0  0  0  0  0  0  0  0  0  0  0
    3.5443   -1.5736    5.7280 C   0  0  0  0  0  0  0  0  0  0  0  0
    4.9083   -1.8230    5.5554 C   0  0  0  0  0  0  0  0  0  0  0  0
    5.4153   -2.7378    4.4533 C   0  0  0  0  0  0  0  0  0  0  0  0
    4.8238   -4.1526    4.4166 C   0  0  0  0  0  0  0  0  0  0  0  0
    3.8297   -4.4228    3.7472 O   0  0  0  0  0  0  0  0  0  0  0  0
    5.5006   -5.0542    5.2258 N   0  0  0  0  0  0  0  0  0  0  0  0
    5.1024   -6.3945    5.4284 C   0  0  0  0  0  0  0  0  0  0  0  0
    5.0346   -6.8049    6.7726 C   0  0  0  0  0  0  0  0  0  0  0  0
    4.6640   -8.0991    7.1330 C   0  0  0  0  0  0  0  0  0  0  0  0
    4.4223   -8.9654    6.0801 C   0  0  0  0  0  0  0  0  0  0  0  0
    4.0623  -10.2616    6.2037 O   0  0  0  0  0  0  0  0  0  0  0  0
    3.9173  -10.7116    4.9183 C   0  0  0  0  0  0  0  0  0  0  0  0
    3.4256  -12.0968    4.8351 C   0  0  0  0  0  0  0  0  0  0  0  0
    2.7632  -12.6641    5.9462 C   0  0  0  0  0  0  0  0  0  0  0  0
    2.2447  -13.9613    5.9119 C   0  0  0  0  0  0  0  0  0  0  0  0
    2.3892  -14.7232    4.7611 C   0  0  0  0  0  0  0  0  0  0  0  0
    1.7298  -16.3113    4.7067 Cl  0  0  0  0  0  0  0  0  0  0  0  0
    3.0588  -14.1982    3.6544 C   0  0  0  0  0  0  0  0  0  0  0  0
    3.5721  -12.8886    3.6888 C   0  0  0  0  0  0  0  0  0  0  0  0
    4.2063   -9.8003    3.9965 N   0  0  0  0  0  0  0  0  0  0  0  0
    4.4955   -8.6565    4.7324 C   0  0  0  0  0  0  0  0  0  0  0  0
    4.8262   -7.3169    4.3867 C   0  0  0  0  0  0  0  0  0  0  0  0
    5.8077   -1.0937    6.3525 C   0  0  0  0  0  0  0  0  0  0  0  0
    5.3672   -0.1860    7.3392 C   0  0  0  0  0  0  0  0  0  0  0  0
    6.3968    0.4421    7.9980 O   0  0  0  0  0  0  0  0  0  0  0  0
    6.1629    0.8157    9.3508 C   0  0  0  0  0  0  0  0  0  0  0  0
    2.1863    1.5404    9.8014 H   0  0  0  0  0  0  0  0  0  0  0  0
    2.1314   -0.1749    9.3739 H   0  0  0  0  0  0  0  0  0  0  0  0
    1.5158    1.0862    8.2351 H   0  0  0  0  0  0  0  0  0  0  0  0
    2.0265   -0.4668    6.7449 H   0  0  0  0  0  0  0  0  0  0  0  0
    2.8108   -2.0573    5.0842 H   0  0  0  0  0  0  0  0  0  0  0  0
    6.5072   -2.8280    4.5173 H   0  0  0  0  0  0  0  0  0  0  0  0
    5.2095   -2.2635    3.4864 H   0  0  0  0  0  0  0  0  0  0  0  0
    5.9893   -4.6189    6.0001 H   0  0  0  0  0  0  0  0  0  0  0  0
    5.2171   -6.0885    7.5718 H   0  0  0  0  0  0  0  0  0  0  0  0
    4.5596   -8.4128    8.1612 H   0  0  0  0  0  0  0  0  0  0  0  0
    2.6299  -12.0859    6.8596 H   0  0  0  0  0  0  0  0  0  0  0  0
    1.7279  -14.3579    6.7828 H   0  0  0  0  0  0  0  0  0  0  0  0
    3.1784  -14.8046    2.7596 H   0  0  0  0  0  0  0  0  0  0  0  0
    4.0891  -12.4996    2.8139 H   0  0  0  0  0  0  0  0  0  0  0  0
    4.9002   -7.0299    3.3432 H   0  0  0  0  0  0  0  0  0  0  0  0
    6.8812   -1.2014    6.2067 H   0  0  0  0  0  0  0  0  0  0  0  0
    7.1378    0.9768    9.8229 H   0  0  0  0  0  0  0  0  0  0  0  0
    5.6548    0.0230    9.9101 H   0  0  0  0  0  0  0  0  0  0  0  0
    5.6202    1.7635    9.4145 H   0  0  0  0  0  0  0  0  0  0  0  0
  1  2  1  0  0  0  0
  1 31  1  0  0  0  0
  1 32  1  0  0  0  0
  1 33  1  0  0  0  0
  2  3  1  0  0  0  0
  3  4  1  0  0  0  0
  3 28  2  0  0  0  0
  4  5  2  0  0  0  0
  4 34  1  0  0  0  0
  5  6  1  0  0  0  0
  5 35  1  0  0  0  0
  6  7  1  0  0  0  0
  6 27  2  0  0  0  0
  7  8  1  0  0  0  0
  7 36  1  0  0  0  0
  7 37  1  0  0  0  0
  8  9  2  0  0  0  0
  8 10  1  0  0  0  0
 10 11  1  0  0  0  0
 10 38  1  0  0  0  0
 11 12  1  0  0  0  0
 11 26  2  0  0  0  0
 12 13  2  0  0  0  0
 12 39  1  0  0  0  0
 13 14  1  0  0  0  0
 13 40  1  0  0  0  0
 14 15  1  0  0  0  0
 14 25  2  0  0  0  0
 15 16  1  0  0  0  0
 16 17  1  0  0  0  0
 16 24  2  0  0  0  0
 17 18  1  0  0  0  0
 17 23  2  0  0  0  0
 18 19  2  0  0  0  0
 18 41  1  0  0  0  0
 19 20  1  0  0  0  0
 19 42  1  0  0  0  0
 20 21  1  0  0  0  0
 20 22  2  0  0  0  0
 22 23  1  0  0  0  0
 22 43  1  0  0  0  0
 23 44  1  0  0  0  0
 24 25  1  0  0  0  0
 25 26  1  0  0  0  0
 26 45  1  0  0  0  0
 27 28  1  0  0  0  0
 27 46  1  0  0  0  0
 28 29  1  0  0  0  0
 29 30  1  0  0  0  0
 30 47  1  0  0  0  0
 30 48  1  0  0  0  0
 30 49  1  0  0  0  0
M  END
$$$$
