CHEMBL4073263
 OpenBabel04072215383D

 56 60  0  0  0  0  0  0  0  0999 V2000
    9.9624    4.9212   -0.9743 C   0  0  0  0  0  0  0  0  0  0  0  0
    9.9775    5.3661    0.3867 O   0  0  0  0  0  0  0  0  0  0  0  0
    8.8992    4.9765    1.1404 C   0  0  0  0  0  0  0  0  0  0  0  0
    8.2187    3.7801    0.8558 C   0  0  0  0  0  0  0  0  0  0  0  0
    7.0673    3.3989    1.5196 C   0  0  0  0  0  0  0  0  0  0  0  0
    6.4409    2.2952    1.0995 N   0  0  0  0  0  0  0  0  0  0  0  0
    5.2835    1.9976    1.6940 C   0  0  0  0  0  0  0  0  0  0  0  0
    4.7187    2.6896    2.6796 N   0  0  0  0  0  0  0  0  0  0  0  0
    5.4159    3.7505    3.1435 C   0  0  0  0  0  0  0  0  0  0  0  0
    4.9129    4.4421    4.2550 O   0  0  0  0  0  0  0  0  0  0  0  0
    4.0114    3.7487    5.0477 C   0  0  0  0  0  0  0  0  0  0  0  0
    4.3003    2.4370    5.4309 C   0  0  0  0  0  0  0  0  0  0  0  0
    3.3357    1.6601    6.0442 C   0  0  0  0  0  0  0  0  0  0  0  0
    2.0877    2.1954    6.3531 C   0  0  0  0  0  0  0  0  0  0  0  0
    1.0658    1.3643    6.8574 N   0  0  0  0  0  0  0  0  0  0  0  0
    1.0714    0.0206    7.1223 C   0  0  0  0  0  0  0  0  0  0  0  0
    2.0146   -0.7590    6.9792 O   0  0  0  0  0  0  0  0  0  0  0  0
   -0.0835   -0.4896    7.6635 N   0  0  0  0  0  0  0  0  0  0  0  0
   -1.2821    0.1677    7.8455 C   0  0  0  0  0  0  0  0  0  0  0  0
   -2.3736   -0.3257    8.5928 C   0  0  0  0  0  0  0  0  0  0  0  0
   -3.3160    0.6801    8.5207 C   0  0  0  0  0  0  0  0  0  0  0  0
   -4.6552    0.8955    9.0784 C   0  0  0  0  0  0  0  0  0  0  0  0
   -2.8320    1.6884    7.7494 O   0  0  0  0  0  0  0  0  0  0  0  0
   -1.5611    1.3728    7.3343 N   0  0  0  0  0  0  0  0  0  0  0  0
    1.8323    3.5953    6.1382 C   0  0  0  0  0  0  0  0  0  0  0  0
    0.6481    4.2658    6.5603 C   0  0  0  0  0  0  0  0  0  0  0  0
    0.4449    5.6349    6.3493 C   0  0  0  0  0  0  0  0  0  0  0  0
    1.4113    6.3774    5.6936 C   0  0  0  0  0  0  0  0  0  0  0  0
    2.5769    5.7531    5.2496 C   0  0  0  0  0  0  0  0  0  0  0  0
    2.8157    4.3755    5.4717 C   0  0  0  0  0  0  0  0  0  0  0  0
    6.6088    4.1927    2.5701 C   0  0  0  0  0  0  0  0  0  0  0  0
    7.3440    5.3388    2.9478 C   0  0  0  0  0  0  0  0  0  0  0  0
    8.4695    5.7572    2.2208 C   0  0  0  0  0  0  0  0  0  0  0  0
    8.9671    6.9347    2.7004 O   0  0  0  0  0  0  0  0  0  0  0  0
    9.9519    7.6543    1.9780 C   0  0  0  0  0  0  0  0  0  0  0  0
   10.6128    5.5776   -1.5588 H   0  0  0  0  0  0  0  0  0  0  0  0
    8.9602    4.9758   -1.4188 H   0  0  0  0  0  0  0  0  0  0  0  0
   10.3602    3.9031   -1.0452 H   0  0  0  0  0  0  0  0  0  0  0  0
    8.5651    3.1145    0.0696 H   0  0  0  0  0  0  0  0  0  0  0  0
    4.7614    1.1123    1.3494 H   0  0  0  0  0  0  0  0  0  0  0  0
    5.2489    1.9766    5.1712 H   0  0  0  0  0  0  0  0  0  0  0  0
    3.5789    0.6202    6.2257 H   0  0  0  0  0  0  0  0  0  0  0  0
    0.1548    1.7917    6.9600 H   0  0  0  0  0  0  0  0  0  0  0  0
   -0.0089   -1.4467    7.9693 H   0  0  0  0  0  0  0  0  0  0  0  0
   -2.4549   -1.2482    9.1399 H   0  0  0  0  0  0  0  0  0  0  0  0
   -4.9012    0.1307    9.8198 H   0  0  0  0  0  0  0  0  0  0  0  0
   -5.4057    0.8655    8.2830 H   0  0  0  0  0  0  0  0  0  0  0  0
   -4.7096    1.8746    9.5659 H   0  0  0  0  0  0  0  0  0  0  0  0
   -0.1368    3.7415    7.0957 H   0  0  0  0  0  0  0  0  0  0  0  0
   -0.4656    6.1086    6.7043 H   0  0  0  0  0  0  0  0  0  0  0  0
    1.2657    7.4435    5.5350 H   0  0  0  0  0  0  0  0  0  0  0  0
    3.3225    6.3627    4.7430 H   0  0  0  0  0  0  0  0  0  0  0  0
    7.0101    5.9420    3.7908 H   0  0  0  0  0  0  0  0  0  0  0  0
    9.8435    8.7088    2.2558 H   0  0  0  0  0  0  0  0  0  0  0  0
    9.8264    7.6137    0.8943 H   0  0  0  0  0  0  0  0  0  0  0  0
   10.9510    7.3322    2.2850 H   0  0  0  0  0  0  0  0  0  0  0  0
  1  2  1  0  0  0  0
  1 36  1  0  0  0  0
  1 37  1  0  0  0  0
  1 38  1  0  0  0  0
  2  3  1  0  0  0  0
  3  4  1  0  0  0  0
  3 33  2  0  0  0  0
  4  5  2  0  0  0  0
  4 39  1  0  0  0  0
  5  6  1  0  0  0  0
  5 31  1  0  0  0  0
  6  7  2  0  0  0  0
  7  8  1  0  0  0  0
  7 40  1  0  0  0  0
  8  9  2  0  0  0  0
  9 10  1  0  0  0  0
  9 31  1  0  0  0  0
 10 11  1  0  0  0  0
 11 12  1  0  0  0  0
 11 30  2  0  0  0  0
 12 13  2  0  0  0  0
 12 41  1  0  0  0  0
 13 14  1  0  0  0  0
 13 42  1  0  0  0  0
 14 15  1  0  0  0  0
 14 25  2  0  0  0  0
 15 16  1  0  0  0  0
 15 43  1  0  0  0  0
 16 17  2  0  0  0  0
 16 18  1  0  0  0  0
 18 19  1  0  0  0  0
 18 44  1  0  0  0  0
 19 20  1  0  0  0  0
 19 24  2  0  0  0  0
 20 21  2  0  0  0  0
 20 45  1  0  0  0  0
 21 22  1  0  0  0  0
 21 23  1  0  0  0  0
 22 46  1  0  0  0  0
 22 47  1  0  0  0  0
 22 48  1  0  0  0  0
 23 24  1  0  0  0  0
 25 26  1  0  0  0  0
 25 30  1  0  0  0  0
 26 27  2  0  0  0  0
 26 49  1  0  0  0  0
 27 28  1  0  0  0  0
 27 50  1  0  0  0  0
 28 29  2  0  0  0  0
 28 51  1  0  0  0  0
 29 30  1  0  0  0  0
 29 52  1  0  0  0  0
 31 32  2  0  0  0  0
 32 33  1  0  0  0  0
 32 53  1  0  0  0  0
 33 34  1  0  0  0  0
 34 35  1  0  0  0  0
 35 54  1  0  0  0  0
 35 55  1  0  0  0  0
 35 56  1  0  0  0  0
M  END
$$$$
