CHEMBL220874
 OpenBabel04072215363D

 45 47  0  0  0  0  0  0  0  0999 V2000
    1.0287   -0.0978    0.1058 C   0  0  0  0  0  0  0  0  0  0  0  0
    2.5311   -0.1444    0.0206 C   0  0  0  0  0  0  0  0  0  0  0  0
    3.2386    1.0651    0.0061 C   0  0  0  0  0  0  0  0  0  0  0  0
    4.6243    1.0692   -0.1234 C   0  0  0  0  0  0  0  0  0  0  0  0
    5.3358   -0.1331   -0.2345 C   0  0  0  0  0  0  0  0  0  0  0  0
    6.8143   -0.0168   -0.3686 C   0  0  0  0  0  0  0  0  0  0  0  0
    7.3440    0.9420    0.1861 O   0  0  0  0  0  0  0  0  0  0  0  0
    7.4539   -0.9367   -1.1919 N   0  0  0  0  0  0  0  0  0  0  0  0
    8.8324   -0.8786   -1.5321 C   0  0  0  0  0  0  0  0  0  0  0  0
    9.7628   -0.1432   -0.7908 C   0  0  0  0  0  0  0  0  0  0  0  0
   11.0886   -0.0211   -1.2087 C   0  0  0  0  0  0  0  0  0  0  0  0
   11.5038   -0.6277   -2.3874 C   0  0  0  0  0  0  0  0  0  0  0  0
   10.6013   -1.3887   -3.1434 C   0  0  0  0  0  0  0  0  0  0  0  0
   11.0329   -1.9781   -4.4641 C   0  0  0  0  0  0  0  0  0  0  0  0
   12.3047   -1.6404   -4.8223 F   0  0  0  0  0  0  0  0  0  0  0  0
   10.9907   -3.3378   -4.4759 F   0  0  0  0  0  0  0  0  0  0  0  0
   10.2406   -1.5692   -5.4945 F   0  0  0  0  0  0  0  0  0  0  0  0
    9.2741   -1.5441   -2.6844 C   0  0  0  0  0  0  0  0  0  0  0  0
    4.6471   -1.3510   -0.1844 C   0  0  0  0  0  0  0  0  0  0  0  0
    3.2434   -1.3592   -0.0699 C   0  0  0  0  0  0  0  0  0  0  0  0
    2.5474   -2.6184   -0.0801 C   0  0  0  0  0  0  0  0  0  0  0  0
    1.9425   -3.6625   -0.1293 C   0  0  0  0  0  0  0  0  0  0  0  0
    1.2442   -4.9081   -0.2371 C   0  0  0  0  0  0  0  0  0  0  0  0
    1.8848   -6.1078    0.0458 C   0  0  0  0  0  0  0  0  0  0  0  0
    1.1907   -7.3089   -0.1157 C   0  0  0  0  0  0  0  0  0  0  0  0
   -0.1193   -7.2829   -0.5772 C   0  0  0  0  0  0  0  0  0  0  0  0
   -0.8323   -8.4666   -0.7273 N   0  0  0  0  0  0  0  0  0  0  0  0
   -0.7708   -6.1357   -0.8382 N   0  0  0  0  0  0  0  0  0  0  0  0
   -0.0805   -4.9746   -0.6545 C   0  0  0  0  0  0  0  0  0  0  0  0
    0.6667    0.9333    0.1891 H   0  0  0  0  0  0  0  0  0  0  0  0
    0.6720   -0.6417    0.9853 H   0  0  0  0  0  0  0  0  0  0  0  0
    0.5894   -0.5253   -0.8007 H   0  0  0  0  0  0  0  0  0  0  0  0
    2.7174    2.0173    0.0856 H   0  0  0  0  0  0  0  0  0  0  0  0
    5.1529    2.0217   -0.1431 H   0  0  0  0  0  0  0  0  0  0  0  0
    6.8710   -1.5453   -1.7520 H   0  0  0  0  0  0  0  0  0  0  0  0
    9.4859    0.3606    0.1300 H   0  0  0  0  0  0  0  0  0  0  0  0
   11.7837    0.5747   -0.6220 H   0  0  0  0  0  0  0  0  0  0  0  0
   12.5307   -0.4873   -2.7217 H   0  0  0  0  0  0  0  0  0  0  0  0
    8.5820   -2.1408   -3.2757 H   0  0  0  0  0  0  0  0  0  0  0  0
    5.1909   -2.2919   -0.2114 H   0  0  0  0  0  0  0  0  0  0  0  0
    2.9138   -6.1216    0.3894 H   0  0  0  0  0  0  0  0  0  0  0  0
    1.6719   -8.2535    0.1119 H   0  0  0  0  0  0  0  0  0  0  0  0
   -0.3189   -9.1745   -1.2384 H   0  0  0  0  0  0  0  0  0  0  0  0
   -1.7230   -8.2422   -1.1646 H   0  0  0  0  0  0  0  0  0  0  0  0
   -0.6542   -4.0766   -0.8655 H   0  0  0  0  0  0  0  0  0  0  0  0
  1  2  1  0  0  0  0
  1 30  1  0  0  0  0
  1 31  1  0  0  0  0
  1 32  1  0  0  0  0
  2  3  1  0  0  0  0
  2 20  2  0  0  0  0
  3  4  2  0  0  0  0
  3 33  1  0  0  0  0
  4  5  1  0  0  0  0
  4 34  1  0  0  0  0
  5  6  1  0  0  0  0
  5 19  2  0  0  0  0
  6  7  2  0  0  0  0
  6  8  1  0  0  0  0
  8  9  1  0  0  0  0
  8 35  1  0  0  0  0
  9 10  1  0  0  0  0
  9 18  2  0  0  0  0
 10 11  2  0  0  0  0
 10 36  1  0  0  0  0
 11 12  1  0  0  0  0
 11 37  1  0  0  0  0
 12 13  2  0  0  0  0
 12 38  1  0  0  0  0
 13 14  1  0  0  0  0
 13 18  1  0  0  0  0
 14 15  1  0  0  0  0
 14 16  1  0  0  0  0
 14 17  1  0  0  0  0
 18 39  1  0  0  0  0
 19 20  1  0  0  0  0
 19 40  1  0  0  0  0
 20 21  1  0  0  0  0
 21 22  3  0  0  0  0
 22 23  1  0  0  0  0
 23 24  1  0  0  0  0
 23 29  2  0  0  0  0
 24 25  2  0  0  0  0
 24 41  1  0  0  0  0
 25 26  1  0  0  0  0
 25 42  1  0  0  0  0
 26 27  1  0  0  0  0
 26 28  2  0  0  0  0
 27 43  1  0  0  0  0
 27 44  1  0  0  0  0
 28 29  1  0  0  0  0
 29 45  1  0  0  0  0
M  END
$$$$
