CHEMBL1991095
 OpenBabel04072215363D

 17 18  0  0  0  0  0  0  0  0999 V2000
    0.9370   -0.0773    0.0077 N   0  0  0  0  0  0  0  0  0  0  0  0
    2.1980   -0.0773    0.0077 C   0  0  0  0  0  0  0  0  0  0  0  0
    3.7180   -0.0773    0.0077 C   0  0  0  0  0  0  0  0  0  0  0  0
    4.4906    1.1885   -0.0442 C   0  0  0  0  0  0  0  0  0  0  0  0
    5.7870    1.2904   -0.0476 N   0  0  0  0  0  0  0  0  0  0  0  0
    6.4793    0.1089    0.0016 C   0  0  0  0  0  0  0  0  0  0  0  0
    7.8193   -0.1931    0.0123 C   0  0  0  0  0  0  0  0  0  0  0  0
    9.2749    0.9780   -0.0185 Br  0  0  0  0  0  0  0  0  0  0  0  0
    7.9146   -1.5864    0.0480 C   0  0  0  0  0  0  0  0  0  0  0  0
    6.7186   -2.1744    0.0624 N   0  0  0  0  0  0  0  0  0  0  0  0
    5.8317   -1.1324    0.0604 N   0  0  0  0  0  0  0  0  0  0  0  0
    4.4170   -1.2291    0.0785 C   0  0  0  0  0  0  0  0  0  0  0  0
    3.8745   -2.5107    0.1726 N   0  0  0  0  0  0  0  0  0  0  0  0
    3.8905    2.1138   -0.0772 H   0  0  0  0  0  0  0  0  0  0  0  0
    8.8031   -2.2075    0.0578 H   0  0  0  0  0  0  0  0  0  0  0  0
    4.5511   -3.2406   -0.0721 H   0  0  0  0  0  0  0  0  0  0  0  0
    2.9493   -2.6537   -0.2231 H   0  0  0  0  0  0  0  0  0  0  0  0
  1  2  3  0  0  0  0
  2  3  1  0  0  0  0
  3  4  1  0  0  0  0
  3 12  2  0  0  0  0
  4  5  2  0  0  0  0
  4 14  1  0  0  0  0
  5  6  1  0  0  0  0
  6  7  2  0  0  0  0
  6 11  1  0  0  0  0
  7  8  1  0  0  0  0
  7  9  1  0  0  0  0
  9 10  2  0  0  0  0
  9 15  1  0  0  0  0
 10 11  1  0  0  0  0
 11 12  1  0  0  0  0
 12 13  1  0  0  0  0
 13 16  1  0  0  0  0
 13 17  1  0  0  0  0
M  END
$$$$
