CHEMBL4789458
 OpenBabel04072215383D

 54 58  0  0  0  0  0  0  0  0999 V2000
    1.1436    0.2211   -0.2010 O   0  0  0  0  0  0  0  0  0  0  0  0
    2.3436   -0.0103   -0.1278 C   0  0  0  0  0  0  0  0  0  0  0  0
    2.9283   -1.0732    0.5109 N   0  0  0  0  0  0  0  0  0  0  0  0
    2.3024   -2.0798    1.2679 C   0  0  0  0  0  0  0  0  0  0  0  0
    0.9209   -2.1789    1.4473 C   0  0  0  0  0  0  0  0  0  0  0  0
    0.3735   -3.2093    2.2214 C   0  0  0  0  0  0  0  0  0  0  0  0
    1.2036   -4.1476    2.8284 C   0  0  0  0  0  0  0  0  0  0  0  0
    2.5831   -4.0513    2.6711 C   0  0  0  0  0  0  0  0  0  0  0  0
    3.1284   -3.0220    1.8958 C   0  0  0  0  0  0  0  0  0  0  0  0
    3.1919    0.9266   -0.6183 N   0  0  0  0  0  0  0  0  0  0  0  0
    4.5724    0.9248   -0.7464 C   0  0  0  0  0  0  0  0  0  0  0  0
    5.1028    2.1151   -1.0054 N   0  0  0  0  0  0  0  0  0  0  0  0
    6.4377    2.1468   -1.0963 C   0  0  0  0  0  0  0  0  0  0  0  0
    7.2195    3.7170   -1.4674 S   0  0  0  0  0  0  0  0  0  0  0  0
    7.4287    3.4707   -3.1878 C   0  0  0  0  0  0  0  0  0  0  0  0
    6.4608    3.7071   -4.1357 C   0  0  0  0  0  0  0  0  0  0  0  0
    6.9965    3.3379   -5.3387 N   0  0  0  0  0  0  0  0  0  0  0  0
    8.0637    2.4988   -5.1102 C   0  0  0  0  0  0  0  0  0  0  0  0
    8.6691    1.5417   -5.9285 C   0  0  0  0  0  0  0  0  0  0  0  0
    9.8091    0.9070   -5.4286 C   0  0  0  0  0  0  0  0  0  0  0  0
   10.3783    1.3022   -4.2185 C   0  0  0  0  0  0  0  0  0  0  0  0
    9.7434    2.2474   -3.4034 C   0  0  0  0  0  0  0  0  0  0  0  0
    8.5041    2.7770   -3.8154 C   0  0  0  0  0  0  0  0  0  0  0  0
    7.2258    1.0234   -0.9990 C   0  0  0  0  0  0  0  0  0  0  0  0
    6.6003   -0.1902   -0.8504 C   0  0  0  0  0  0  0  0  0  0  0  0
    7.3361   -1.3687   -0.8196 N   0  0  0  0  0  0  0  0  0  0  0  0
    6.5954   -2.6424   -0.7371 C   0  0  0  0  0  0  0  0  0  0  0  0
    7.5512   -3.7084   -0.1716 C   0  0  0  0  0  0  0  0  0  0  0  0
    8.7284   -3.8563   -0.9862 O   0  0  0  0  0  0  0  0  0  0  0  0
    9.4287   -2.6068   -1.0964 C   0  0  0  0  0  0  0  0  0  0  0  0
    8.5283   -1.5089   -1.6850 C   0  0  0  0  0  0  0  0  0  0  0  0
    5.2686   -0.2271   -0.6470 N   0  0  0  0  0  0  0  0  0  0  0  0
    3.9401   -1.1200    0.4197 H   0  0  0  0  0  0  0  0  0  0  0  0
    0.2345   -1.4692    0.9974 H   0  0  0  0  0  0  0  0  0  0  0  0
   -0.7048   -3.2729    2.3459 H   0  0  0  0  0  0  0  0  0  0  0  0
    0.7745   -4.9482    3.4253 H   0  0  0  0  0  0  0  0  0  0  0  0
    3.2352   -4.7741    3.1537 H   0  0  0  0  0  0  0  0  0  0  0  0
    4.2086   -2.9587    1.8050 H   0  0  0  0  0  0  0  0  0  0  0  0
    2.7507    1.7961   -0.8932 H   0  0  0  0  0  0  0  0  0  0  0  0
    5.4559    4.1014   -4.0621 H   0  0  0  0  0  0  0  0  0  0  0  0
    6.6166    3.5636   -6.2476 H   0  0  0  0  0  0  0  0  0  0  0  0
    8.2421    1.2594   -6.8854 H   0  0  0  0  0  0  0  0  0  0  0  0
   10.2686    0.1062   -6.0040 H   0  0  0  0  0  0  0  0  0  0  0  0
   11.3084    0.8468   -3.8876 H   0  0  0  0  0  0  0  0  0  0  0  0
   10.1763    2.5266   -2.4475 H   0  0  0  0  0  0  0  0  0  0  0  0
    8.2980    1.1111   -1.0576 H   0  0  0  0  0  0  0  0  0  0  0  0
    6.2576   -2.9335   -1.7416 H   0  0  0  0  0  0  0  0  0  0  0  0
    5.7220   -2.5807   -0.0825 H   0  0  0  0  0  0  0  0  0  0  0  0
    7.0515   -4.6801   -0.1301 H   0  0  0  0  0  0  0  0  0  0  0  0
    7.8584   -3.4420    0.8473 H   0  0  0  0  0  0  0  0  0  0  0  0
   10.2986   -2.7650   -1.7419 H   0  0  0  0  0  0  0  0  0  0  0  0
    9.7968   -2.3126   -0.1054 H   0  0  0  0  0  0  0  0  0  0  0  0
    8.2094   -1.7910   -2.6970 H   0  0  0  0  0  0  0  0  0  0  0  0
    9.1254   -0.5982   -1.7662 H   0  0  0  0  0  0  0  0  0  0  0  0
  1  2  2  0  0  0  0
  2  3  1  0  0  0  0
  2 10  1  0  0  0  0
  3  4  1  0  0  0  0
  3 33  1  0  0  0  0
  4  5  1  0  0  0  0
  4  9  2  0  0  0  0
  5  6  2  0  0  0  0
  5 34  1  0  0  0  0
  6  7  1  0  0  0  0
  6 35  1  0  0  0  0
  7  8  2  0  0  0  0
  7 36  1  0  0  0  0
  8  9  1  0  0  0  0
  8 37  1  0  0  0  0
  9 38  1  0  0  0  0
 10 11  1  0  0  0  0
 10 39  1  0  0  0  0
 11 12  1  0  0  0  0
 11 32  2  0  0  0  0
 12 13  2  0  0  0  0
 13 14  1  0  0  0  0
 13 24  1  0  0  0  0
 14 15  1  0  0  0  0
 15 16  2  0  0  0  0
 15 23  1  0  0  0  0
 16 17  1  0  0  0  0
 16 40  1  0  0  0  0
 17 18  1  0  0  0  0
 17 41  1  0  0  0  0
 18 19  1  0  0  0  0
 18 23  2  0  0  0  0
 19 20  2  0  0  0  0
 19 42  1  0  0  0  0
 20 21  1  0  0  0  0
 20 43  1  0  0  0  0
 21 22  2  0  0  0  0
 21 44  1  0  0  0  0
 22 23  1  0  0  0  0
 22 45  1  0  0  0  0
 24 25  2  0  0  0  0
 24 46  1  0  0  0  0
 25 26  1  0  0  0  0
 25 32  1  0  0  0  0
 26 27  1  0  0  0  0
 26 31  1  0  0  0  0
 27 28  1  0  0  0  0
 27 47  1  0  0  0  0
 27 48  1  0  0  0  0
 28 29  1  0  0  0  0
 28 49  1  0  0  0  0
 28 50  1  0  0  0  0
 29 30  1  0  0  0  0
 30 31  1  0  0  0  0
 30 51  1  0  0  0  0
 30 52  1  0  0  0  0
 31 53  1  0  0  0  0
 31 54  1  0  0  0  0
M  END
$$$$
