CHEMBL2004892
 OpenBabel04072215363D

 35 37  0  0  0  0  0  0  0  0999 V2000
    2.8889   -0.8544   -0.7145 C   0  0  0  0  0  0  0  0  0  0  0  0
    2.8072    0.0008    0.8472 S   0  0  0  0  0  0  0  0  0  0  0  0
    1.4071    0.2087    1.1534 O   0  0  0  0  0  0  0  0  0  0  0  0
    3.6882   -0.6469    1.7920 O   0  0  0  0  0  0  0  0  0  0  0  0
    3.4073    1.5270    0.4528 N   0  0  0  0  0  0  0  0  0  0  0  0
    4.8020    1.7684    0.6253 C   0  0  0  0  0  0  0  0  0  0  0  0
    5.6816    1.4208   -0.3877 C   0  0  0  0  0  0  0  0  0  0  0  0
    7.0440    1.7017   -0.2501 C   0  0  0  0  0  0  0  0  0  0  0  0
    7.5696    2.3617    0.8844 C   0  0  0  0  0  0  0  0  0  0  0  0
    9.0026    2.7763    0.9019 C   0  0  0  0  0  0  0  0  0  0  0  0
    9.6128    3.1448   -0.3174 C   0  0  0  0  0  0  0  0  0  0  0  0
   10.9739    3.4225   -0.4439 C   0  0  0  0  0  0  0  0  0  0  0  0
   11.7292    3.3807    0.7227 C   0  0  0  0  0  0  0  0  0  0  0  0
   13.0714    3.5352    0.9238 N   0  0  0  0  0  0  0  0  0  0  0  0
   13.4359    3.5354    2.2114 N   0  0  0  0  0  0  0  0  0  0  0  0
   12.2993    3.2958    2.8602 C   0  0  0  0  0  0  0  0  0  0  0  0
   12.2646    3.2551    4.2027 N   0  0  0  0  0  0  0  0  0  0  0  0
   11.1867    3.1342    1.9790 C   0  0  0  0  0  0  0  0  0  0  0  0
    9.8029    2.8158    2.0701 C   0  0  0  0  0  0  0  0  0  0  0  0
    6.6671    2.6332    1.9261 C   0  0  0  0  0  0  0  0  0  0  0  0
    5.2961    2.3324    1.8005 C   0  0  0  0  0  0  0  0  0  0  0  0
    2.5098   -1.8677   -0.5608 H   0  0  0  0  0  0  0  0  0  0  0  0
    3.9253   -0.9066   -1.0461 H   0  0  0  0  0  0  0  0  0  0  0  0
    2.2653   -0.3335   -1.4433 H   0  0  0  0  0  0  0  0  0  0  0  0
    2.7894    2.2418    0.8428 H   0  0  0  0  0  0  0  0  0  0  0  0
    5.3259    0.9710   -1.3091 H   0  0  0  0  0  0  0  0  0  0  0  0
    7.6976    1.4086   -1.0684 H   0  0  0  0  0  0  0  0  0  0  0  0
    9.0152    3.2092   -1.2265 H   0  0  0  0  0  0  0  0  0  0  0  0
   11.4117    3.6549   -1.4082 H   0  0  0  0  0  0  0  0  0  0  0  0
   13.7906    3.6437    0.2188 H   0  0  0  0  0  0  0  0  0  0  0  0
   11.4165    3.5224    4.6867 H   0  0  0  0  0  0  0  0  0  0  0  0
   13.1008    3.6155    4.6492 H   0  0  0  0  0  0  0  0  0  0  0  0
    9.3877    2.5648    3.0416 H   0  0  0  0  0  0  0  0  0  0  0  0
    7.0068    3.1117    2.8412 H   0  0  0  0  0  0  0  0  0  0  0  0
    4.6239    2.5599    2.6247 H   0  0  0  0  0  0  0  0  0  0  0  0
  1  2  1  0  0  0  0
  1 22  1  0  0  0  0
  1 23  1  0  0  0  0
  1 24  1  0  0  0  0
  2  3  2  0  0  0  0
  2  4  2  0  0  0  0
  2  5  1  0  0  0  0
  5  6  1  0  0  0  0
  5 25  1  0  0  0  0
  6  7  1  0  0  0  0
  6 21  2  0  0  0  0
  7  8  2  0  0  0  0
  7 26  1  0  0  0  0
  8  9  1  0  0  0  0
  8 27  1  0  0  0  0
  9 10  1  0  0  0  0
  9 20  2  0  0  0  0
 10 11  1  0  0  0  0
 10 19  2  0  0  0  0
 11 12  2  0  0  0  0
 11 28  1  0  0  0  0
 12 13  1  0  0  0  0
 12 29  1  0  0  0  0
 13 14  1  0  0  0  0
 13 18  2  0  0  0  0
 14 15  1  0  0  0  0
 14 30  1  0  0  0  0
 15 16  2  0  0  0  0
 16 17  1  0  0  0  0
 16 18  1  0  0  0  0
 17 31  1  0  0  0  0
 17 32  1  0  0  0  0
 18 19  1  0  0  0  0
 19 33  1  0  0  0  0
 20 21  1  0  0  0  0
 20 34  1  0  0  0  0
 21 35  1  0  0  0  0
M  END
$$$$
