CHEMBL194150
 OpenBabel04072215363D

 47 50  0  0  0  0  0  0  0  0999 V2000
    1.4096    0.9181    0.4032 C   0  0  0  0  0  0  0  0  0  0  0  0
    2.4841    0.2019   -0.1932 O   0  0  0  0  0  0  0  0  0  0  0  0
    3.1764   -0.6532    0.6171 C   0  0  0  0  0  0  0  0  0  0  0  0
    2.8466   -0.9849    1.9286 C   0  0  0  0  0  0  0  0  0  0  0  0
    3.6158   -1.9177    2.6330 C   0  0  0  0  0  0  0  0  0  0  0  0
    4.7727   -2.4717    2.0735 C   0  0  0  0  0  0  0  0  0  0  0  0
    5.5804   -3.4175    2.8401 C   0  0  0  0  0  0  0  0  0  0  0  0
    6.0949   -4.6065    2.3259 C   0  0  0  0  0  0  0  0  0  0  0  0
    6.0262   -5.3168    1.0498 C   0  0  0  0  0  0  0  0  0  0  0  0
    7.1392   -6.0114    0.5510 C   0  0  0  0  0  0  0  0  0  0  0  0
    7.0694   -6.6902   -0.6704 C   0  0  0  0  0  0  0  0  0  0  0  0
    5.8930   -6.6634   -1.4186 C   0  0  0  0  0  0  0  0  0  0  0  0
    4.7956   -5.9506   -0.9457 C   0  0  0  0  0  0  0  0  0  0  0  0
    3.6144   -5.8706   -1.7376 N   0  0  0  0  0  0  0  0  0  0  0  0
    2.3553   -6.9432   -1.3802 S   0  0  0  0  0  0  0  0  0  0  0  0
    2.6596   -8.2292   -2.5674 C   0  0  0  0  0  0  0  0  0  0  0  0
    2.5143   -7.4761   -0.0451 O   0  0  0  0  0  0  0  0  0  0  0  0
    1.1448   -6.2572   -1.7747 O   0  0  0  0  0  0  0  0  0  0  0  0
    4.8468   -5.3140    0.2939 C   0  0  0  0  0  0  0  0  0  0  0  0
    6.7892   -5.2697    3.2939 O   0  0  0  0  0  0  0  0  0  0  0  0
    6.6861   -4.5607    4.4441 C   0  0  0  0  0  0  0  0  0  0  0  0
    7.2143   -4.9928    5.5937 N   0  0  0  0  0  0  0  0  0  0  0  0
    6.9572   -4.1510    6.5972 C   0  0  0  0  0  0  0  0  0  0  0  0
    6.2899   -2.9864    6.5404 N   0  0  0  0  0  0  0  0  0  0  0  0
    5.7978   -2.5734    5.3547 C   0  0  0  0  0  0  0  0  0  0  0  0
    5.1385   -1.3676    5.3749 N   0  0  0  0  0  0  0  0  0  0  0  0
    5.9629   -3.3946    4.2278 C   0  0  0  0  0  0  0  0  0  0  0  0
    5.1112   -2.1124    0.7619 C   0  0  0  0  0  0  0  0  0  0  0  0
    4.2993   -1.2384    0.0313 C   0  0  0  0  0  0  0  0  0  0  0  0
    0.9333    1.5196   -0.3767 H   0  0  0  0  0  0  0  0  0  0  0  0
    1.7798    1.6000    1.1766 H   0  0  0  0  0  0  0  0  0  0  0  0
    0.6482    0.2407    0.8052 H   0  0  0  0  0  0  0  0  0  0  0  0
    1.9873   -0.5538    2.4316 H   0  0  0  0  0  0  0  0  0  0  0  0
    3.2886   -2.2069    3.6301 H   0  0  0  0  0  0  0  0  0  0  0  0
    8.0713   -6.0279    1.1131 H   0  0  0  0  0  0  0  0  0  0  0  0
    7.9378   -7.2318   -1.0389 H   0  0  0  0  0  0  0  0  0  0  0  0
    5.8492   -7.1793   -2.3729 H   0  0  0  0  0  0  0  0  0  0  0  0
    3.2212   -4.9289   -1.8172 H   0  0  0  0  0  0  0  0  0  0  0  0
    3.6136   -8.7066   -2.3399 H   0  0  0  0  0  0  0  0  0  0  0  0
    2.6654   -7.7924   -3.5679 H   0  0  0  0  0  0  0  0  0  0  0  0
    1.8508   -8.9581   -2.4861 H   0  0  0  0  0  0  0  0  0  0  0  0
    3.9567   -4.8155    0.6698 H   0  0  0  0  0  0  0  0  0  0  0  0
    7.3252   -4.4400    7.5777 H   0  0  0  0  0  0  0  0  0  0  0  0
    5.0567   -0.9183    6.2752 H   0  0  0  0  0  0  0  0  0  0  0  0
    4.8713   -0.8814    4.5344 H   0  0  0  0  0  0  0  0  0  0  0  0
    5.9946   -2.5226    0.2768 H   0  0  0  0  0  0  0  0  0  0  0  0
    4.5497   -1.0075   -1.0016 H   0  0  0  0  0  0  0  0  0  0  0  0
  1  2  1  0  0  0  0
  1 30  1  0  0  0  0
  1 31  1  0  0  0  0
  1 32  1  0  0  0  0
  2  3  1  0  0  0  0
  3  4  1  0  0  0  0
  3 29  2  0  0  0  0
  4  5  2  0  0  0  0
  4 33  1  0  0  0  0
  5  6  1  0  0  0  0
  5 34  1  0  0  0  0
  6  7  1  0  0  0  0
  6 28  2  0  0  0  0
  7  8  2  0  0  0  0
  7 27  1  0  0  0  0
  8  9  1  0  0  0  0
  8 20  1  0  0  0  0
  9 10  1  0  0  0  0
  9 19  2  0  0  0  0
 10 11  2  0  0  0  0
 10 35  1  0  0  0  0
 11 12  1  0  0  0  0
 11 36  1  0  0  0  0
 12 13  2  0  0  0  0
 12 37  1  0  0  0  0
 13 14  1  0  0  0  0
 13 19  1  0  0  0  0
 14 15  1  0  0  0  0
 14 38  1  0  0  0  0
 15 16  1  0  0  0  0
 15 17  2  0  0  0  0
 15 18  2  0  0  0  0
 16 39  1  0  0  0  0
 16 40  1  0  0  0  0
 16 41  1  0  0  0  0
 19 42  1  0  0  0  0
 20 21  1  0  0  0  0
 21 22  1  0  0  0  0
 21 27  2  0  0  0  0
 22 23  2  0  0  0  0
 23 24  1  0  0  0  0
 23 43  1  0  0  0  0
 24 25  2  0  0  0  0
 25 26  1  0  0  0  0
 25 27  1  0  0  0  0
 26 44  1  0  0  0  0
 26 45  1  0  0  0  0
 28 29  1  0  0  0  0
 28 46  1  0  0  0  0
 29 47  1  0  0  0  0
M  END
$$$$
