CHEMBL3900906
 OpenBabel04072215373D

 66 69  0  0  1  0  0  0  0  0999 V2000
    2.2901    0.0225   -6.5205 C   0  0  0  0  0  0  0  0  0  0  0  0
    1.2414   -0.0235   -5.4117 C   0  0  3  0  0  0  0  0  0  0  0  0
    0.4935   -1.3486   -5.3244 C   0  0  0  0  0  0  0  0  0  0  0  0
   -0.4775   -1.4103   -4.3625 N   0  0  0  0  0  0  0  0  0  0  0  0
    0.6568   -2.2876   -6.0968 O   0  0  0  0  0  0  0  0  0  0  0  0
    1.7666    0.5398   -4.0875 C   0  0  0  0  0  0  0  0  0  0  0  0
    1.5257    1.9300   -3.9149 C   0  0  0  0  0  0  0  0  0  0  0  0
    1.8316    2.5998   -2.7354 C   0  0  0  0  0  0  0  0  0  0  0  0
    2.3940    1.8978   -1.6901 C   0  0  0  0  0  0  0  0  0  0  0  0
    2.6974    0.5469   -1.8540 C   0  0  0  0  0  0  0  0  0  0  0  0
    2.4163   -0.1705   -3.0424 C   0  0  0  0  0  0  0  0  0  0  0  0
    2.9105   -1.6260   -3.1436 C   0  0  0  0  0  0  0  0  0  0  0  0
    3.0482   -2.3391   -1.7743 C   0  0  0  0  0  0  0  0  0  0  0  0
    3.5023   -3.7773   -1.7231 C   0  0  0  0  0  0  0  0  0  0  0  0
    2.5227   -4.6430   -1.3709 N   0  0  0  0  0  0  0  0  0  0  0  0
    2.8468   -5.9172   -1.1044 C   0  0  0  0  0  0  0  0  0  0  0  0
    1.8047   -6.7444   -0.6975 N   0  0  0  0  0  0  0  0  0  0  0  0
    1.8073   -8.0816   -0.5764 C   0  0  0  0  0  0  0  0  0  0  0  0
    2.8951   -8.9764   -0.5055 C   0  0  0  0  0  0  0  0  0  0  0  0
    2.4737  -10.2453   -0.4347 N   0  0  0  0  0  0  0  0  0  0  0  0
    1.1283  -10.1572   -0.4897 N   0  0  0  0  0  0  0  0  0  0  0  0
    0.2893  -11.3526   -0.4276 C   0  0  0  0  0  0  0  0  0  0  0  0
    1.0706  -12.6606   -0.2641 C   0  0  0  0  0  0  0  0  0  0  0  0
    1.8047  -13.0534   -1.5480 C   0  0  0  0  0  0  0  0  0  0  0  0
    0.9332  -13.0877   -2.7330 N   0  0  0  0  0  0  0  0  0  0  0  0
    1.7673  -13.2728   -3.9310 C   0  0  0  0  0  0  0  0  0  0  0  0
    0.1222  -11.8755   -2.8993 C   0  0  0  0  0  0  0  0  0  0  0  0
   -0.6421  -11.4875   -1.6360 C   0  0  0  0  0  0  0  0  0  0  0  0
    0.6812   -8.8632   -0.5211 C   0  0  0  0  0  0  0  0  0  0  0  0
    4.0938   -6.3864   -1.2095 N   0  0  0  0  0  0  0  0  0  0  0  0
    5.0494   -5.5188   -1.5649 C   0  0  0  0  0  0  0  0  0  0  0  0
    4.8232   -4.1820   -1.8178 C   0  0  0  0  0  0  0  0  0  0  0  0
    6.0201   -3.3304   -2.0597 C   0  0  0  0  0  0  0  0  0  0  0  0
    5.7634   -2.0090   -2.2364 F   0  0  0  0  0  0  0  0  0  0  0  0
    6.9048   -3.3951   -1.0240 F   0  0  0  0  0  0  0  0  0  0  0  0
    6.7192   -3.7253   -3.1591 F   0  0  0  0  0  0  0  0  0  0  0  0
    1.9152   -0.4419   -7.4396 H   0  0  0  0  0  0  0  0  0  0  0  0
    3.2097   -0.4906   -6.2333 H   0  0  0  0  0  0  0  0  0  0  0  0
    2.5391    1.0624   -6.7658 H   0  0  0  0  0  0  0  0  0  0  0  0
    0.4403    0.6539   -5.7510 H   0  0  0  0  0  0  0  0  0  0  0  0
   -0.5226   -0.7343   -3.6108 H   0  0  0  0  0  0  0  0  0  0  0  0
   -0.9711   -2.2868   -4.2538 H   0  0  0  0  0  0  0  0  0  0  0  0
    1.0823    2.5132   -4.7224 H   0  0  0  0  0  0  0  0  0  0  0  0
    1.6277    3.6625   -2.6351 H   0  0  0  0  0  0  0  0  0  0  0  0
    2.6209    2.3933   -0.7498 H   0  0  0  0  0  0  0  0  0  0  0  0
    3.1734    0.0779   -0.9982 H   0  0  0  0  0  0  0  0  0  0  0  0
    3.8810   -1.6065   -3.6531 H   0  0  0  0  0  0  0  0  0  0  0  0
    2.2449   -2.2235   -3.7691 H   0  0  0  0  0  0  0  0  0  0  0  0
    2.0639   -2.2878   -1.2853 H   0  0  0  0  0  0  0  0  0  0  0  0
    3.7299   -1.8042   -1.1081 H   0  0  0  0  0  0  0  0  0  0  0  0
    0.9481   -6.2077   -0.7023 H   0  0  0  0  0  0  0  0  0  0  0  0
    3.9511   -8.7809   -0.5060 H   0  0  0  0  0  0  0  0  0  0  0  0
   -0.3205  -11.2008    0.4723 H   0  0  0  0  0  0  0  0  0  0  0  0
    0.3682  -13.4591    0.0069 H   0  0  0  0  0  0  0  0  0  0  0  0
    1.7873  -12.5872    0.5631 H   0  0  0  0  0  0  0  0  0  0  0  0
    2.2236  -14.0561   -1.3941 H   0  0  0  0  0  0  0  0  0  0  0  0
    2.6600  -12.3894   -1.7155 H   0  0  0  0  0  0  0  0  0  0  0  0
    2.3556  -14.1936   -3.8580 H   0  0  0  0  0  0  0  0  0  0  0  0
    2.4649  -12.4354   -4.0746 H   0  0  0  0  0  0  0  0  0  0  0  0
    1.1473  -13.3546   -4.8285 H   0  0  0  0  0  0  0  0  0  0  0  0
   -0.6176  -12.0612   -3.6894 H   0  0  0  0  0  0  0  0  0  0  0  0
    0.7340  -11.0265   -3.2294 H   0  0  0  0  0  0  0  0  0  0  0  0
   -1.3956  -12.2560   -1.4182 H   0  0  0  0  0  0  0  0  0  0  0  0
   -1.1953  -10.5593   -1.8205 H   0  0  0  0  0  0  0  0  0  0  0  0
   -0.3715   -8.6224   -0.5415 H   0  0  0  0  0  0  0  0  0  0  0  0
    6.0501   -5.9456   -1.6010 H   0  0  0  0  0  0  0  0  0  0  0  0
  1  2  1  0  0  0  0
  1 37  1  0  0  0  0
  1 38  1  0  0  0  0
  1 39  1  0  0  0  0
  2  3  1  0  0  0  0
  2  6  1  0  0  0  0
  2 40  1  0  0  0  0
  3  4  1  0  0  0  0
  3  5  2  0  0  0  0
  4 41  1  0  0  0  0
  4 42  1  0  0  0  0
  6  7  1  0  0  0  0
  6 11  2  0  0  0  0
  7  8  2  0  0  0  0
  7 43  1  0  0  0  0
  8  9  1  0  0  0  0
  8 44  1  0  0  0  0
  9 10  2  0  0  0  0
  9 45  1  0  0  0  0
 10 11  1  0  0  0  0
 10 46  1  0  0  0  0
 11 12  1  0  0  0  0
 12 13  1  0  0  0  0
 12 47  1  0  0  0  0
 12 48  1  0  0  0  0
 13 14  1  0  0  0  0
 13 49  1  0  0  0  0
 13 50  1  0  0  0  0
 14 15  1  0  0  0  0
 14 32  2  0  0  0  0
 15 16  2  0  0  0  0
 16 17  1  0  0  0  0
 16 30  1  0  0  0  0
 17 18  1  0  0  0  0
 17 51  1  0  0  0  0
 18 19  1  0  0  0  0
 18 29  2  0  0  0  0
 19 20  2  0  0  0  0
 19 52  1  0  0  0  0
 20 21  1  0  0  0  0
 21 22  1  0  0  0  0
 21 29  1  0  0  0  0
 22 23  1  0  0  0  0
 22 28  1  0  0  0  0
 22 53  1  0  0  0  0
 23 24  1  0  0  0  0
 23 54  1  0  0  0  0
 23 55  1  0  0  0  0
 24 25  1  0  0  0  0
 24 56  1  0  0  0  0
 24 57  1  0  0  0  0
 25 26  1  0  0  0  0
 25 27  1  0  0  0  0
 26 58  1  0  0  0  0
 26 59  1  0  0  0  0
 26 60  1  0  0  0  0
 27 28  1  0  0  0  0
 27 61  1  0  0  0  0
 27 62  1  0  0  0  0
 28 63  1  0  0  0  0
 28 64  1  0  0  0  0
 29 65  1  0  0  0  0
 30 31  2  0  0  0  0
 31 32  1  0  0  0  0
 31 66  1  0  0  0  0
 32 33  1  0  0  0  0
 33 34  1  0  0  0  0
 33 35  1  0  0  0  0
 33 36  1  0  0  0  0
M  END
$$$$
