CHEMBL1242659
 OpenBabel04072215363D

 52 55  0  0  0  0  0  0  0  0999 V2000
    0.7810   -0.1212    2.1137 C   0  0  0  0  0  0  0  0  0  0  0  0
    2.2118   -0.3603    2.5608 C   0  0  0  0  0  0  0  0  0  0  0  0
    3.0340   -0.4556    1.3989 O   0  0  0  0  0  0  0  0  0  0  0  0
    4.3727   -0.6772    1.5816 C   0  0  0  0  0  0  0  0  0  0  0  0
    4.9771   -0.8096    2.8383 C   0  0  0  0  0  0  0  0  0  0  0  0
    6.3434   -1.0993    2.9525 C   0  0  0  0  0  0  0  0  0  0  0  0
    7.1423   -1.2458    1.8134 C   0  0  0  0  0  0  0  0  0  0  0  0
    8.5643   -1.5751    1.9373 C   0  0  0  0  0  0  0  0  0  0  0  0
    9.2736   -1.0674    2.9637 N   0  0  0  0  0  0  0  0  0  0  0  0
   10.5323   -1.5124    2.7552 N   0  0  0  0  0  0  0  0  0  0  0  0
   11.6184   -1.0863    3.6366 C   0  0  0  0  0  0  0  0  0  0  0  0
   11.3578   -1.4843    5.0984 C   0  0  0  0  0  0  0  0  0  0  0  0
   12.4666   -0.9909    6.0263 C   0  0  0  0  0  0  0  0  0  0  0  0
   12.6850    0.5123    5.8874 C   0  0  0  0  0  0  0  0  0  0  0  0
   12.9864    0.8961    4.4424 C   0  0  0  0  0  0  0  0  0  0  0  0
   11.8880    0.4206    3.4940 C   0  0  0  0  0  0  0  0  0  0  0  0
   10.6452   -2.3271    1.6626 C   0  0  0  0  0  0  0  0  0  0  0  0
   11.7665   -2.9223    1.2189 N   0  0  0  0  0  0  0  0  0  0  0  0
   11.5308   -3.6474    0.1158 C   0  0  0  0  0  0  0  0  0  0  0  0
   10.3628   -3.8235   -0.5241 N   0  0  0  0  0  0  0  0  0  0  0  0
    9.2607   -3.2058   -0.0472 C   0  0  0  0  0  0  0  0  0  0  0  0
    8.0944   -3.4409   -0.7572 N   0  0  0  0  0  0  0  0  0  0  0  0
    9.3801   -2.4038    1.1003 C   0  0  0  0  0  0  0  0  0  0  0  0
    6.5480   -1.0591    0.5643 C   0  0  0  0  0  0  0  0  0  0  0  0
    5.1775   -0.8001    0.4377 C   0  0  0  0  0  0  0  0  0  0  0  0
    4.7476   -0.7900   -0.8646 O   0  0  0  0  0  0  0  0  0  0  0  0
    3.8159    0.2304   -1.1964 C   0  0  0  0  0  0  0  0  0  0  0  0
    0.1117   -0.0541    2.9763 H   0  0  0  0  0  0  0  0  0  0  0  0
    0.4390   -0.9323    1.4627 H   0  0  0  0  0  0  0  0  0  0  0  0
    0.7067    0.8062    1.5364 H   0  0  0  0  0  0  0  0  0  0  0  0
    2.2535   -1.2945    3.1322 H   0  0  0  0  0  0  0  0  0  0  0  0
    2.5321    0.4813    3.1860 H   0  0  0  0  0  0  0  0  0  0  0  0
    4.4132   -0.7113    3.7598 H   0  0  0  0  0  0  0  0  0  0  0  0
    6.7790   -1.2135    3.9441 H   0  0  0  0  0  0  0  0  0  0  0  0
   12.5178   -1.6196    3.3041 H   0  0  0  0  0  0  0  0  0  0  0  0
   11.2751   -2.5753    5.1786 H   0  0  0  0  0  0  0  0  0  0  0  0
   10.4003   -1.0735    5.4423 H   0  0  0  0  0  0  0  0  0  0  0  0
   13.4003   -1.5185    5.7957 H   0  0  0  0  0  0  0  0  0  0  0  0
   12.2121   -1.2316    7.0647 H   0  0  0  0  0  0  0  0  0  0  0  0
   13.5120    0.8273    6.5336 H   0  0  0  0  0  0  0  0  0  0  0  0
   11.7901    1.0464    6.2300 H   0  0  0  0  0  0  0  0  0  0  0  0
   13.9459    0.4583    4.1408 H   0  0  0  0  0  0  0  0  0  0  0  0
   13.0939    1.9839    4.3650 H   0  0  0  0  0  0  0  0  0  0  0  0
   12.1756    0.6520    2.4608 H   0  0  0  0  0  0  0  0  0  0  0  0
   10.9728    0.9917    3.6961 H   0  0  0  0  0  0  0  0  0  0  0  0
   12.3880   -4.1593   -0.3130 H   0  0  0  0  0  0  0  0  0  0  0  0
    8.2064   -4.2018   -1.4167 H   0  0  0  0  0  0  0  0  0  0  0  0
    7.2302   -3.4323   -0.2306 H   0  0  0  0  0  0  0  0  0  0  0  0
    7.1444   -1.1054   -0.3442 H   0  0  0  0  0  0  0  0  0  0  0  0
    3.8913    0.3993   -2.2756 H   0  0  0  0  0  0  0  0  0  0  0  0
    4.0424    1.1770   -0.6949 H   0  0  0  0  0  0  0  0  0  0  0  0
    2.7929   -0.0969   -0.9927 H   0  0  0  0  0  0  0  0  0  0  0  0
  1  2  1  0  0  0  0
  1 28  1  0  0  0  0
  1 29  1  0  0  0  0
  1 30  1  0  0  0  0
  2  3  1  0  0  0  0
  2 31  1  0  0  0  0
  2 32  1  0  0  0  0
  3  4  1  0  0  0  0
  4  5  1  0  0  0  0
  4 25  2  0  0  0  0
  5  6  2  0  0  0  0
  5 33  1  0  0  0  0
  6  7  1  0  0  0  0
  6 34  1  0  0  0  0
  7  8  1  0  0  0  0
  7 24  2  0  0  0  0
  8  9  2  0  0  0  0
  8 23  1  0  0  0  0
  9 10  1  0  0  0  0
 10 11  1  0  0  0  0
 10 17  1  0  0  0  0
 11 12  1  0  0  0  0
 11 16  1  0  0  0  0
 11 35  1  0  0  0  0
 12 13  1  0  0  0  0
 12 36  1  0  0  0  0
 12 37  1  0  0  0  0
 13 14  1  0  0  0  0
 13 38  1  0  0  0  0
 13 39  1  0  0  0  0
 14 15  1  0  0  0  0
 14 40  1  0  0  0  0
 14 41  1  0  0  0  0
 15 16  1  0  0  0  0
 15 42  1  0  0  0  0
 15 43  1  0  0  0  0
 16 44  1  0  0  0  0
 16 45  1  0  0  0  0
 17 18  1  0  0  0  0
 17 23  2  0  0  0  0
 18 19  2  0  0  0  0
 19 20  1  0  0  0  0
 19 46  1  0  0  0  0
 20 21  2  0  0  0  0
 21 22  1  0  0  0  0
 21 23  1  0  0  0  0
 22 47  1  0  0  0  0
 22 48  1  0  0  0  0
 24 25  1  0  0  0  0
 24 49  1  0  0  0  0
 25 26  1  0  0  0  0
 26 27  1  0  0  0  0
 27 50  1  0  0  0  0
 27 51  1  0  0  0  0
 27 52  1  0  0  0  0
M  END
$$$$
