CHEMBL3906608
 OpenBabel04072215373D

 54 57  0  0  0  0  0  0  0  0999 V2000
    2.5359    0.0551   -0.2520 C   0  0  0  0  0  0  0  0  0  0  0  0
    1.0370    0.0550   -0.1468 C   0  0  0  0  0  0  0  0  0  0  0  0
    0.3889    1.3001   -0.0885 C   0  0  0  0  0  0  0  0  0  0  0  0
   -1.0010    1.4109   -0.0104 C   0  0  0  0  0  0  0  0  0  0  0  0
   -1.6514    2.6663   -0.0216 N   0  0  0  0  0  0  0  0  0  0  0  0
   -1.1107    3.8126   -0.5831 C   0  0  0  0  0  0  0  0  0  0  0  0
   -0.0989    3.8468   -1.2744 O   0  0  0  0  0  0  0  0  0  0  0  0
   -1.8250    4.9478   -0.2212 N   0  0  0  0  0  0  0  0  0  0  0  0
   -1.4213    6.2268   -0.6695 C   0  0  0  0  0  0  0  0  0  0  0  0
   -1.3517    7.2720    0.2522 C   0  0  0  0  0  0  0  0  0  0  0  0
   -0.8853    8.5236   -0.1540 C   0  0  0  0  0  0  0  0  0  0  0  0
   -0.5439    8.7449   -1.4870 C   0  0  0  0  0  0  0  0  0  0  0  0
   -0.1085    9.9619   -1.8364 F   0  0  0  0  0  0  0  0  0  0  0  0
   -0.6499    7.7337   -2.4346 C   0  0  0  0  0  0  0  0  0  0  0  0
   -0.3267    7.9811   -3.8778 C   0  0  0  0  0  0  0  0  0  0  0  0
   -0.0037    9.2682   -4.1833 F   0  0  0  0  0  0  0  0  0  0  0  0
    0.7164    7.2254   -4.3207 F   0  0  0  0  0  0  0  0  0  0  0  0
   -1.3764    7.6706   -4.6936 F   0  0  0  0  0  0  0  0  0  0  0  0
   -1.0774    6.4620   -2.0086 C   0  0  0  0  0  0  0  0  0  0  0  0
   -1.7566    0.2454    0.1093 C   0  0  0  0  0  0  0  0  0  0  0  0
   -1.1263   -1.0071    0.0881 C   0  0  0  0  0  0  0  0  0  0  0  0
    0.2639   -1.1201   -0.0788 C   0  0  0  0  0  0  0  0  0  0  0  0
    0.8941   -2.3569   -0.0937 O   0  0  0  0  0  0  0  0  0  0  0  0
    0.2857   -3.3922   -0.8117 C   0  0  0  0  0  0  0  0  0  0  0  0
    0.5514   -4.6946   -0.4217 C   0  0  0  0  0  0  0  0  0  0  0  0
   -0.0590   -5.6899   -1.1655 C   0  0  0  0  0  0  0  0  0  0  0  0
    0.2193   -7.0428   -0.8759 N   0  0  0  0  0  0  0  0  0  0  0  0
   -0.3711   -8.1090   -1.5327 C   0  0  0  0  0  0  0  0  0  0  0  0
   -1.3340   -8.0655   -2.2853 O   0  0  0  0  0  0  0  0  0  0  0  0
    0.2171   -9.4633   -1.2857 C   0  0  0  0  0  0  0  0  0  0  0  0
    0.2441  -10.0524    0.1036 C   0  0  0  0  0  0  0  0  0  0  0  0
    1.5321   -9.7522   -0.6097 C   0  0  0  0  0  0  0  0  0  0  0  0
   -0.8688   -5.4002   -2.1907 N   0  0  0  0  0  0  0  0  0  0  0  0
   -1.0459   -4.1141   -2.4966 C   0  0  0  0  0  0  0  0  0  0  0  0
   -0.4892   -3.0811   -1.8648 N   0  0  0  0  0  0  0  0  0  0  0  0
    2.8940    1.0263   -0.6200 H   0  0  0  0  0  0  0  0  0  0  0  0
    2.8909   -0.6959   -0.9622 H   0  0  0  0  0  0  0  0  0  0  0  0
    2.9881   -0.1121    0.7299 H   0  0  0  0  0  0  0  0  0  0  0  0
    1.0041    2.1957   -0.1040 H   0  0  0  0  0  0  0  0  0  0  0  0
   -2.6577    2.6663    0.0866 H   0  0  0  0  0  0  0  0  0  0  0  0
   -2.2176    4.8972    0.7092 H   0  0  0  0  0  0  0  0  0  0  0  0
   -1.5924    7.1123    1.2994 H   0  0  0  0  0  0  0  0  0  0  0  0
   -0.7726    9.3305    0.5647 H   0  0  0  0  0  0  0  0  0  0  0  0
   -1.1467    5.6545   -2.7385 H   0  0  0  0  0  0  0  0  0  0  0  0
   -2.8389    0.2813    0.1865 H   0  0  0  0  0  0  0  0  0  0  0  0
   -1.7426   -1.8985    0.1696 H   0  0  0  0  0  0  0  0  0  0  0  0
    1.1936   -4.9037    0.4216 H   0  0  0  0  0  0  0  0  0  0  0  0
    0.9144   -7.2391   -0.1756 H   0  0  0  0  0  0  0  0  0  0  0  0
   -0.0420  -10.1543   -2.0879 H   0  0  0  0  0  0  0  0  0  0  0  0
   -0.0574  -11.0906    0.2051 H   0  0  0  0  0  0  0  0  0  0  0  0
   -0.0436   -9.4285    0.9396 H   0  0  0  0  0  0  0  0  0  0  0  0
    2.1071  -10.5950   -0.9838 H   0  0  0  0  0  0  0  0  0  0  0  0
    2.1547   -8.9480   -0.2445 H   0  0  0  0  0  0  0  0  0  0  0  0
   -1.7004   -3.8950   -3.3323 H   0  0  0  0  0  0  0  0  0  0  0  0
  1  2  1  0  0  0  0
  1 36  1  0  0  0  0
  1 37  1  0  0  0  0
  1 38  1  0  0  0  0
  2  3  1  0  0  0  0
  2 22  2  0  0  0  0
  3  4  2  0  0  0  0
  3 39  1  0  0  0  0
  4  5  1  0  0  0  0
  4 20  1  0  0  0  0
  5  6  1  0  0  0  0
  5 40  1  0  0  0  0
  6  7  2  0  0  0  0
  6  8  1  0  0  0  0
  8  9  1  0  0  0  0
  8 41  1  0  0  0  0
  9 10  1  0  0  0  0
  9 19  2  0  0  0  0
 10 11  2  0  0  0  0
 10 42  1  0  0  0  0
 11 12  1  0  0  0  0
 11 43  1  0  0  0  0
 12 13  1  0  0  0  0
 12 14  2  0  0  0  0
 14 15  1  0  0  0  0
 14 19  1  0  0  0  0
 15 16  1  0  0  0  0
 15 17  1  0  0  0  0
 15 18  1  0  0  0  0
 19 44  1  0  0  0  0
 20 21  2  0  0  0  0
 20 45  1  0  0  0  0
 21 22  1  0  0  0  0
 21 46  1  0  0  0  0
 22 23  1  0  0  0  0
 23 24  1  0  0  0  0
 24 25  1  0  0  0  0
 24 35  2  0  0  0  0
 25 26  2  0  0  0  0
 25 47  1  0  0  0  0
 26 27  1  0  0  0  0
 26 33  1  0  0  0  0
 27 28  1  0  0  0  0
 27 48  1  0  0  0  0
 28 29  2  0  0  0  0
 28 30  1  0  0  0  0
 30 31  1  0  0  0  0
 30 32  1  0  0  0  0
 30 49  1  0  0  0  0
 31 32  1  0  0  0  0
 31 50  1  0  0  0  0
 31 51  1  0  0  0  0
 32 52  1  0  0  0  0
 32 53  1  0  0  0  0
 33 34  2  0  0  0  0
 34 35  1  0  0  0  0
 34 54  1  0  0  0  0
M  END
$$$$
