CHEMBL219774
 OpenBabel04072215363D

 67 70  0  0  0  0  0  0  0  0999 V2000
    0.7693   -0.1777   -1.0339 C   0  0  0  0  0  0  0  0  0  0  0  0
    2.2850   -0.0555   -1.1560 C   0  0  0  0  0  0  0  0  0  0  0  0
    2.8165    1.3017   -0.9291 N   0  0  0  0  0  0  0  0  0  0  0  0
    2.4049    1.8978    0.3505 C   0  0  0  0  0  0  0  0  0  0  0  0
    2.9703    1.2503    1.6101 C   0  0  0  0  0  0  0  0  0  0  0  0
    4.2778    1.2930   -1.1550 C   0  0  0  0  0  0  0  0  0  0  0  0
    4.9561    2.6677   -1.0794 C   0  0  0  0  0  0  0  0  0  0  0  0
    6.3497    2.5131   -1.3599 O   0  0  0  0  0  0  0  0  0  0  0  0
    7.0128    3.6470   -1.7970 C   0  0  0  0  0  0  0  0  0  0  0  0
    8.1225    3.4019   -2.6004 C   0  0  0  0  0  0  0  0  0  0  0  0
    8.8963    4.4481   -3.1007 C   0  0  0  0  0  0  0  0  0  0  0  0
    8.6108    5.8028   -2.8077 C   0  0  0  0  0  0  0  0  0  0  0  0
    9.4610    6.8787   -3.3565 C   0  0  0  0  0  0  0  0  0  0  0  0
    8.8977    8.0278   -3.9107 C   0  0  0  0  0  0  0  0  0  0  0  0
    9.6832    9.1068   -4.3234 C   0  0  0  0  0  0  0  0  0  0  0  0
   11.0770    9.0373   -4.3042 C   0  0  0  0  0  0  0  0  0  0  0  0
   11.9029   10.0906   -4.7659 N   0  0  0  0  0  0  0  0  0  0  0  0
   11.4632   11.3734   -5.0555 C   0  0  0  0  0  0  0  0  0  0  0  0
   10.3371   11.7990   -4.8000 O   0  0  0  0  0  0  0  0  0  0  0  0
   12.4283   12.1306   -5.7134 N   0  0  0  0  0  0  0  0  0  0  0  0
   12.1358   13.4647   -6.1006 C   0  0  0  0  0  0  0  0  0  0  0  0
   11.4689   14.3518   -5.2537 C   0  0  0  0  0  0  0  0  0  0  0  0
   11.1170   15.6264   -5.6879 C   0  0  0  0  0  0  0  0  0  0  0  0
   11.4318   16.0255   -6.9840 C   0  0  0  0  0  0  0  0  0  0  0  0
   12.1253   15.1639   -7.8430 C   0  0  0  0  0  0  0  0  0  0  0  0
   12.4197   15.5716   -9.2549 C   0  0  0  0  0  0  0  0  0  0  0  0
   12.4932   13.8831   -7.3889 C   0  0  0  0  0  0  0  0  0  0  0  0
   11.6657    7.8570   -3.8526 C   0  0  0  0  0  0  0  0  0  0  0  0
   10.8681    6.7992   -3.3693 C   0  0  0  0  0  0  0  0  0  0  0  0
    7.4816    6.0698   -1.9642 C   0  0  0  0  0  0  0  0  0  0  0  0
    6.8013    7.2114   -1.4094 C   0  0  0  0  0  0  0  0  0  0  0  0
    7.0899    8.5077   -1.5822 N   0  0  0  0  0  0  0  0  0  0  0  0
    5.7683    6.8755   -0.6483 N   0  0  0  0  0  0  0  0  0  0  0  0
    5.7786    5.5458   -0.6728 N   0  0  0  0  0  0  0  0  0  0  0  0
    6.7327    4.9848   -1.4769 C   0  0  0  0  0  0  0  0  0  0  0  0
    0.4417   -1.1437   -1.4321 H   0  0  0  0  0  0  0  0  0  0  0  0
    0.2572    0.6083   -1.5982 H   0  0  0  0  0  0  0  0  0  0  0  0
    0.4444   -0.1297    0.0105 H   0  0  0  0  0  0  0  0  0  0  0  0
    2.5452   -0.3595   -2.1776 H   0  0  0  0  0  0  0  0  0  0  0  0
    2.7563   -0.7821   -0.4832 H   0  0  0  0  0  0  0  0  0  0  0  0
    1.3112    1.9102    0.4173 H   0  0  0  0  0  0  0  0  0  0  0  0
    2.6693    2.9634    0.3551 H   0  0  0  0  0  0  0  0  0  0  0  0
    2.8487    0.1637    1.6062 H   0  0  0  0  0  0  0  0  0  0  0  0
    2.4455    1.6353    2.4908 H   0  0  0  0  0  0  0  0  0  0  0  0
    4.0332    1.4797    1.7324 H   0  0  0  0  0  0  0  0  0  0  0  0
    4.4801    0.8957   -2.1593 H   0  0  0  0  0  0  0  0  0  0  0  0
    4.7806    0.6049   -0.4626 H   0  0  0  0  0  0  0  0  0  0  0  0
    4.8637    3.0575   -0.0623 H   0  0  0  0  0  0  0  0  0  0  0  0
    4.4783    3.3447   -1.7979 H   0  0  0  0  0  0  0  0  0  0  0  0
    8.3829    2.3765   -2.8574 H   0  0  0  0  0  0  0  0  0  0  0  0
    9.7348    4.1991   -3.7503 H   0  0  0  0  0  0  0  0  0  0  0  0
    7.8169    8.1255   -4.0014 H   0  0  0  0  0  0  0  0  0  0  0  0
    9.1480    9.9874   -4.6619 H   0  0  0  0  0  0  0  0  0  0  0  0
   12.9026    9.9489   -4.7356 H   0  0  0  0  0  0  0  0  0  0  0  0
   13.0304   11.6038   -6.3195 H   0  0  0  0  0  0  0  0  0  0  0  0
   11.1961   14.0498   -4.2417 H   0  0  0  0  0  0  0  0  0  0  0  0
   10.5774   16.2955   -5.0236 H   0  0  0  0  0  0  0  0  0  0  0  0
   11.1218   17.0119   -7.3225 H   0  0  0  0  0  0  0  0  0  0  0  0
   12.1801   16.6269   -9.4225 H   0  0  0  0  0  0  0  0  0  0  0  0
   11.8246   14.9744   -9.9537 H   0  0  0  0  0  0  0  0  0  0  0  0
   13.4824   15.4325   -9.4726 H   0  0  0  0  0  0  0  0  0  0  0  0
   12.9885   13.2017   -8.0705 H   0  0  0  0  0  0  0  0  0  0  0  0
   12.7458    7.7369   -3.8474 H   0  0  0  0  0  0  0  0  0  0  0  0
   11.3676    5.9087   -2.9916 H   0  0  0  0  0  0  0  0  0  0  0  0
    8.0381    8.8138   -1.7621 H   0  0  0  0  0  0  0  0  0  0  0  0
    6.5554    9.1609   -1.0207 H   0  0  0  0  0  0  0  0  0  0  0  0
    5.0821    5.0759   -0.1133 H   0  0  0  0  0  0  0  0  0  0  0  0
  1  2  1  0  0  0  0
  1 36  1  0  0  0  0
  1 37  1  0  0  0  0
  1 38  1  0  0  0  0
  2  3  1  0  0  0  0
  2 39  1  0  0  0  0
  2 40  1  0  0  0  0
  3  4  1  0  0  0  0
  3  6  1  0  0  0  0
  4  5  1  0  0  0  0
  4 41  1  0  0  0  0
  4 42  1  0  0  0  0
  5 43  1  0  0  0  0
  5 44  1  0  0  0  0
  5 45  1  0  0  0  0
  6  7  1  0  0  0  0
  6 46  1  0  0  0  0
  6 47  1  0  0  0  0
  7  8  1  0  0  0  0
  7 48  1  0  0  0  0
  7 49  1  0  0  0  0
  8  9  1  0  0  0  0
  9 10  1  0  0  0  0
  9 35  2  0  0  0  0
 10 11  2  0  0  0  0
 10 50  1  0  0  0  0
 11 12  1  0  0  0  0
 11 51  1  0  0  0  0
 12 13  1  0  0  0  0
 12 30  2  0  0  0  0
 13 14  1  0  0  0  0
 13 29  2  0  0  0  0
 14 15  2  0  0  0  0
 14 52  1  0  0  0  0
 15 16  1  0  0  0  0
 15 53  1  0  0  0  0
 16 17  1  0  0  0  0
 16 28  2  0  0  0  0
 17 18  1  0  0  0  0
 17 54  1  0  0  0  0
 18 19  2  0  0  0  0
 18 20  1  0  0  0  0
 20 21  1  0  0  0  0
 20 55  1  0  0  0  0
 21 22  1  0  0  0  0
 21 27  2  0  0  0  0
 22 23  2  0  0  0  0
 22 56  1  0  0  0  0
 23 24  1  0  0  0  0
 23 57  1  0  0  0  0
 24 25  2  0  0  0  0
 24 58  1  0  0  0  0
 25 26  1  0  0  0  0
 25 27  1  0  0  0  0
 26 59  1  0  0  0  0
 26 60  1  0  0  0  0
 26 61  1  0  0  0  0
 27 62  1  0  0  0  0
 28 29  1  0  0  0  0
 28 63  1  0  0  0  0
 29 64  1  0  0  0  0
 30 31  1  0  0  0  0
 30 35  1  0  0  0  0
 31 32  1  0  0  0  0
 31 33  2  0  0  0  0
 32 65  1  0  0  0  0
 32 66  1  0  0  0  0
 33 34  1  0  0  0  0
 34 35  1  0  0  0  0
 34 67  1  0  0  0  0
M  END
$$$$
