CHEMBL3972694
 OpenBabel04072215373D

 54 57  0  0  0  0  0  0  0  0999 V2000
    4.0639  -10.5814   -1.7250 C   0  0  0  0  0  0  0  0  0  0  0  0
    3.9066   -9.1625   -1.9305 N   0  0  0  0  0  0  0  0  0  0  0  0
    4.2710   -8.1658   -1.0729 C   0  0  0  0  0  0  0  0  0  0  0  0
    3.9794   -6.9779   -1.7117 C   0  0  0  0  0  0  0  0  0  0  0  0
    4.2255   -5.6561   -1.1643 C   0  0  0  0  0  0  0  0  0  0  0  0
    3.4061   -4.5834   -1.5142 C   0  0  0  0  0  0  0  0  0  0  0  0
    3.6614   -3.3126   -0.9946 C   0  0  0  0  0  0  0  0  0  0  0  0
    4.7233   -3.0870   -0.1296 C   0  0  0  0  0  0  0  0  0  0  0  0
    4.9495   -1.8524    0.3373 N   0  0  0  0  0  0  0  0  0  0  0  0
    6.0042   -1.7214    1.1817 C   0  0  0  0  0  0  0  0  0  0  0  0
    6.8342   -2.7704    1.5955 C   0  0  0  0  0  0  0  0  0  0  0  0
    7.8618   -2.5425    2.5319 N   0  0  0  0  0  0  0  0  0  0  0  0
    9.1105   -3.3555    2.5348 C   0  0  0  0  0  0  0  0  0  0  0  0
    9.3398   -4.4824    1.5094 C   0  0  0  0  0  0  0  0  0  0  0  0
    9.4437   -4.0358    0.1160 N   0  0  0  0  0  0  0  0  0  0  0  0
    7.7496   -1.6733    3.6681 C   0  0  0  0  0  0  0  0  0  0  0  0
    8.8594   -1.0088    4.2107 C   0  0  0  0  0  0  0  0  0  0  0  0
    8.7146   -0.1512    5.2983 C   0  0  0  0  0  0  0  0  0  0  0  0
    9.7952    0.4703    5.7902 F   0  0  0  0  0  0  0  0  0  0  0  0
    7.4758    0.0780    5.8760 C   0  0  0  0  0  0  0  0  0  0  0  0
    6.3588   -0.5845    5.3806 C   0  0  0  0  0  0  0  0  0  0  0  0
    5.1801   -0.2780    6.0056 O   0  0  0  0  0  0  0  0  0  0  0  0
    4.1523   -1.2757    5.9453 C   0  0  0  0  0  0  0  0  0  0  0  0
    2.9522   -0.7659    6.7397 C   0  0  0  0  0  0  0  0  0  0  0  0
    2.4067    0.3994    6.1235 O   0  0  0  0  0  0  0  0  0  0  0  0
    6.4992   -1.4518    4.2884 C   0  0  0  0  0  0  0  0  0  0  0  0
    6.5957   -4.0004    1.0903 N   0  0  0  0  0  0  0  0  0  0  0  0
    5.5557   -4.1658    0.2406 C   0  0  0  0  0  0  0  0  0  0  0  0
    5.2949   -5.4244   -0.2865 C   0  0  0  0  0  0  0  0  0  0  0  0
    3.4148   -7.3838   -2.9432 C   0  0  0  0  0  0  0  0  0  0  0  0
    3.3713   -8.7125   -3.0789 N   0  0  0  0  0  0  0  0  0  0  0  0
    4.4255  -10.7626   -0.7097 H   0  0  0  0  0  0  0  0  0  0  0  0
    4.7908  -10.9526   -2.4519 H   0  0  0  0  0  0  0  0  0  0  0  0
    3.0942  -11.0640   -1.8669 H   0  0  0  0  0  0  0  0  0  0  0  0
    4.6972   -8.3842   -0.1040 H   0  0  0  0  0  0  0  0  0  0  0  0
    2.5569   -4.7167   -2.1819 H   0  0  0  0  0  0  0  0  0  0  0  0
    3.0171   -2.4789   -1.2679 H   0  0  0  0  0  0  0  0  0  0  0  0
    6.1721   -0.7063    1.5294 H   0  0  0  0  0  0  0  0  0  0  0  0
    9.2179   -3.8139    3.5271 H   0  0  0  0  0  0  0  0  0  0  0  0
    9.9620   -2.6743    2.4051 H   0  0  0  0  0  0  0  0  0  0  0  0
    8.5937   -5.2757    1.6100 H   0  0  0  0  0  0  0  0  0  0  0  0
   10.3014   -4.9500    1.7590 H   0  0  0  0  0  0  0  0  0  0  0  0
    8.5056   -3.7428   -0.1711 H   0  0  0  0  0  0  0  0  0  0  0  0
    9.6561   -4.8421   -0.4710 H   0  0  0  0  0  0  0  0  0  0  0  0
    9.8553   -1.1069    3.7931 H   0  0  0  0  0  0  0  0  0  0  0  0
    7.3925    0.7632    6.7126 H   0  0  0  0  0  0  0  0  0  0  0  0
    4.5185   -2.2080    6.3896 H   0  0  0  0  0  0  0  0  0  0  0  0
    3.8384   -1.4355    4.9084 H   0  0  0  0  0  0  0  0  0  0  0  0
    3.2363   -0.4980    7.7623 H   0  0  0  0  0  0  0  0  0  0  0  0
    2.1673   -1.5262    6.7752 H   0  0  0  0  0  0  0  0  0  0  0  0
    3.1416    1.0366    6.0475 H   0  0  0  0  0  0  0  0  0  0  0  0
    5.6292   -1.9729    3.9030 H   0  0  0  0  0  0  0  0  0  0  0  0
    5.9616   -6.2379   -0.0047 H   0  0  0  0  0  0  0  0  0  0  0  0
    3.0438   -6.7682   -3.7529 H   0  0  0  0  0  0  0  0  0  0  0  0
  1  2  1  0  0  0  0
  1 32  1  0  0  0  0
  1 33  1  0  0  0  0
  1 34  1  0  0  0  0
  2  3  1  0  0  0  0
  2 31  1  0  0  0  0
  3  4  2  0  0  0  0
  3 35  1  0  0  0  0
  4  5  1  0  0  0  0
  4 30  1  0  0  0  0
  5  6  1  0  0  0  0
  5 29  2  0  0  0  0
  6  7  2  0  0  0  0
  6 36  1  0  0  0  0
  7  8  1  0  0  0  0
  7 37  1  0  0  0  0
  8  9  1  0  0  0  0
  8 28  2  0  0  0  0
  9 10  2  0  0  0  0
 10 11  1  0  0  0  0
 10 38  1  0  0  0  0
 11 12  1  0  0  0  0
 11 27  2  0  0  0  0
 12 13  1  0  0  0  0
 12 16  1  0  0  0  0
 13 14  1  0  0  0  0
 13 39  1  0  0  0  0
 13 40  1  0  0  0  0
 14 15  1  0  0  0  0
 14 41  1  0  0  0  0
 14 42  1  0  0  0  0
 15 43  1  0  0  0  0
 15 44  1  0  0  0  0
 16 17  1  0  0  0  0
 16 26  2  0  0  0  0
 17 18  2  0  0  0  0
 17 45  1  0  0  0  0
 18 19  1  0  0  0  0
 18 20  1  0  0  0  0
 20 21  2  0  0  0  0
 20 46  1  0  0  0  0
 21 22  1  0  0  0  0
 21 26  1  0  0  0  0
 22 23  1  0  0  0  0
 23 24  1  0  0  0  0
 23 47  1  0  0  0  0
 23 48  1  0  0  0  0
 24 25  1  0  0  0  0
 24 49  1  0  0  0  0
 24 50  1  0  0  0  0
 25 51  1  0  0  0  0
 26 52  1  0  0  0  0
 27 28  1  0  0  0  0
 28 29  1  0  0  0  0
 29 53  1  0  0  0  0
 30 31  2  0  0  0  0
 30 54  1  0  0  0  0
M  END
$$$$
