CHEMBL595615
 OpenBabel04072215383D

 71 76  0  0  0  0  0  0  0  0999 V2000
    2.5951   -1.0887   -0.7686 C   0  0  0  0  0  0  0  0  0  0  0  0
    2.3650   -0.0645    0.1922 O   0  0  0  0  0  0  0  0  0  0  0  0
    3.1350    1.0644    0.1512 C   0  0  0  0  0  0  0  0  0  0  0  0
    4.2801    1.1598   -0.6380 C   0  0  0  0  0  0  0  0  0  0  0  0
    4.9548    2.3849   -0.8116 C   0  0  0  0  0  0  0  0  0  0  0  0
    6.0296    2.5696   -1.6994 C   0  0  0  0  0  0  0  0  0  0  0  0
    6.4623    1.4770   -2.5130 N   0  0  0  0  0  0  0  0  0  0  0  0
    7.2445    1.5624   -3.6864 C   0  0  0  0  0  0  0  0  0  0  0  0
    8.1574    0.5554   -4.0288 C   0  0  0  0  0  0  0  0  0  0  0  0
    8.9976    0.6841   -5.1561 C   0  0  0  0  0  0  0  0  0  0  0  0
    8.9229    1.8107   -5.9911 C   0  0  0  0  0  0  0  0  0  0  0  0
    9.9078    2.0354   -7.0848 C   0  0  0  0  0  0  0  0  0  0  0  0
   10.8599    1.1963   -7.4555 N   0  0  0  0  0  0  0  0  0  0  0  0
   11.6901    1.8003   -8.4066 C   0  0  0  0  0  0  0  0  0  0  0  0
   12.8378    1.2517   -9.0167 C   0  0  0  0  0  0  0  0  0  0  0  0
   13.6017    2.0126   -9.9167 C   0  0  0  0  0  0  0  0  0  0  0  0
   13.2323    3.3166  -10.2273 C   0  0  0  0  0  0  0  0  0  0  0  0
   12.0895    3.8790   -9.6631 C   0  0  0  0  0  0  0  0  0  0  0  0
   11.3423    3.1044   -8.7622 C   0  0  0  0  0  0  0  0  0  0  0  0
    9.9151    3.5416   -7.9334 S   0  0  0  0  0  0  0  0  0  0  0  0
    7.9128    2.7448   -5.7024 C   0  0  0  0  0  0  0  0  0  0  0  0
    7.0916    2.6210   -4.5786 C   0  0  0  0  0  0  0  0  0  0  0  0
    6.6313    3.7650   -1.8282 N   0  0  0  0  0  0  0  0  0  0  0  0
    6.1583    4.7656   -1.0778 C   0  0  0  0  0  0  0  0  0  0  0  0
    5.1247    4.7025   -0.2298 N   0  0  0  0  0  0  0  0  0  0  0  0
    4.5203    3.5181   -0.1088 C   0  0  0  0  0  0  0  0  0  0  0  0
    3.4268    3.3935    0.7428 C   0  0  0  0  0  0  0  0  0  0  0  0
    2.7435    2.1794    0.9091 C   0  0  0  0  0  0  0  0  0  0  0  0
    1.7206    2.2288    1.8355 O   0  0  0  0  0  0  0  0  0  0  0  0
    1.4408    0.9772    2.4735 C   0  0  0  0  0  0  0  0  0  0  0  0
    0.8897    1.1739    3.8850 C   0  0  0  0  0  0  0  0  0  0  0  0
    0.7073   -0.1860    4.5849 C   0  0  0  0  0  0  0  0  0  0  0  0
    1.9334   -0.9999    4.6351 N   0  0  0  0  0  0  0  0  0  0  0  0
    2.9977   -0.3869    5.4509 C   0  0  0  0  0  0  0  0  0  0  0  0
    4.2653   -1.2706    5.5241 C   0  0  0  0  0  0  0  0  0  0  0  0
    4.0356   -2.6491    5.9965 N   0  0  0  0  0  0  0  0  0  0  0  0
    3.7606   -2.6851    7.4306 C   0  0  0  0  0  0  0  0  0  0  0  0
    2.9338   -3.2428    5.2133 C   0  0  0  0  0  0  0  0  0  0  0  0
    1.6563   -2.3714    5.1017 C   0  0  0  0  0  0  0  0  0  0  0  0
    3.2939   -1.8238   -0.3584 H   0  0  0  0  0  0  0  0  0  0  0  0
    2.9477   -0.7172   -1.7355 H   0  0  0  0  0  0  0  0  0  0  0  0
    1.6408   -1.5865   -0.9598 H   0  0  0  0  0  0  0  0  0  0  0  0
    4.6605    0.2872   -1.1536 H   0  0  0  0  0  0  0  0  0  0  0  0
    6.7262    0.6951   -1.9249 H   0  0  0  0  0  0  0  0  0  0  0  0
    8.2592   -0.3282   -3.4029 H   0  0  0  0  0  0  0  0  0  0  0  0
    9.7356   -0.0922   -5.3557 H   0  0  0  0  0  0  0  0  0  0  0  0
   13.1414    0.2301   -8.7782 H   0  0  0  0  0  0  0  0  0  0  0  0
   14.4922    1.5852  -10.3716 H   0  0  0  0  0  0  0  0  0  0  0  0
   13.8368    3.9080  -10.9125 H   0  0  0  0  0  0  0  0  0  0  0  0
   11.7910    4.8966   -9.9017 H   0  0  0  0  0  0  0  0  0  0  0  0
    7.7509    3.6182   -6.3246 H   0  0  0  0  0  0  0  0  0  0  0  0
    6.3427    3.3888   -4.3983 H   0  0  0  0  0  0  0  0  0  0  0  0
    6.6630    5.7216   -1.1674 H   0  0  0  0  0  0  0  0  0  0  0  0
    3.0917    4.2692    1.2961 H   0  0  0  0  0  0  0  0  0  0  0  0
    2.3585    0.3875    2.5556 H   0  0  0  0  0  0  0  0  0  0  0  0
    0.6926    0.4412    1.8784 H   0  0  0  0  0  0  0  0  0  0  0  0
   -0.0752    1.6937    3.8362 H   0  0  0  0  0  0  0  0  0  0  0  0
    1.5459    1.8344    4.4630 H   0  0  0  0  0  0  0  0  0  0  0  0
   -0.0553   -0.7383    4.0199 H   0  0  0  0  0  0  0  0  0  0  0  0
    0.3019   -0.0312    5.5926 H   0  0  0  0  0  0  0  0  0  0  0  0
    2.6316   -0.1787    6.4636 H   0  0  0  0  0  0  0  0  0  0  0  0
    3.3022    0.5699    5.0130 H   0  0  0  0  0  0  0  0  0  0  0  0
    5.0210   -0.7777    6.1484 H   0  0  0  0  0  0  0  0  0  0  0  0
    4.7087   -1.3280    4.5206 H   0  0  0  0  0  0  0  0  0  0  0  0
    4.5911   -2.2397    7.9897 H   0  0  0  0  0  0  0  0  0  0  0  0
    3.6768   -3.7221    7.7735 H   0  0  0  0  0  0  0  0  0  0  0  0
    2.8428   -2.1591    7.7114 H   0  0  0  0  0  0  0  0  0  0  0  0
    2.6712   -4.2275    5.6199 H   0  0  0  0  0  0  0  0  0  0  0  0
    3.3119   -3.4368    4.2002 H   0  0  0  0  0  0  0  0  0  0  0  0
    1.1465   -2.3483    6.0729 H   0  0  0  0  0  0  0  0  0  0  0  0
    0.9801   -2.8633    4.3914 H   0  0  0  0  0  0  0  0  0  0  0  0
  1  2  1  0  0  0  0
  1 40  1  0  0  0  0
  1 41  1  0  0  0  0
  1 42  1  0  0  0  0
  2  3  1  0  0  0  0
  3  4  1  0  0  0  0
  3 28  2  0  0  0  0
  4  5  2  0  0  0  0
  4 43  1  0  0  0  0
  5  6  1  0  0  0  0
  5 26  1  0  0  0  0
  6  7  1  0  0  0  0
  6 23  2  0  0  0  0
  7  8  1  0  0  0  0
  7 44  1  0  0  0  0
  8  9  1  0  0  0  0
  8 22  2  0  0  0  0
  9 10  2  0  0  0  0
  9 45  1  0  0  0  0
 10 11  1  0  0  0  0
 10 46  1  0  0  0  0
 11 12  1  0  0  0  0
 11 21  2  0  0  0  0
 12 13  2  0  0  0  0
 12 20  1  0  0  0  0
 13 14  1  0  0  0  0
 14 15  1  0  0  0  0
 14 19  2  0  0  0  0
 15 16  2  0  0  0  0
 15 47  1  0  0  0  0
 16 17  1  0  0  0  0
 16 48  1  0  0  0  0
 17 18  2  0  0  0  0
 17 49  1  0  0  0  0
 18 19  1  0  0  0  0
 18 50  1  0  0  0  0
 19 20  1  0  0  0  0
 21 22  1  0  0  0  0
 21 51  1  0  0  0  0
 22 52  1  0  0  0  0
 23 24  1  0  0  0  0
 24 25  2  0  0  0  0
 24 53  1  0  0  0  0
 25 26  1  0  0  0  0
 26 27  2  0  0  0  0
 27 28  1  0  0  0  0
 27 54  1  0  0  0  0
 28 29  1  0  0  0  0
 29 30  1  0  0  0  0
 30 31  1  0  0  0  0
 30 55  1  0  0  0  0
 30 56  1  0  0  0  0
 31 32  1  0  0  0  0
 31 57  1  0  0  0  0
 31 58  1  0  0  0  0
 32 33  1  0  0  0  0
 32 59  1  0  0  0  0
 32 60  1  0  0  0  0
 33 34  1  0  0  0  0
 33 39  1  0  0  0  0
 34 35  1  0  0  0  0
 34 61  1  0  0  0  0
 34 62  1  0  0  0  0
 35 36  1  0  0  0  0
 35 63  1  0  0  0  0
 35 64  1  0  0  0  0
 36 37  1  0  0  0  0
 36 38  1  0  0  0  0
 37 65  1  0  0  0  0
 37 66  1  0  0  0  0
 37 67  1  0  0  0  0
 38 39  1  0  0  0  0
 38 68  1  0  0  0  0
 38 69  1  0  0  0  0
 39 70  1  0  0  0  0
 39 71  1  0  0  0  0
M  END
$$$$
