CHEMBL223892
 OpenBabel04072215363D

 40 42  0  0  0  0  0  0  0  0999 V2000
    1.0991    0.6279   -0.9272 C   0  0  0  0  0  0  0  0  0  0  0  0
    2.6061    0.7488   -0.8405 C   0  0  0  0  0  0  0  0  0  0  0  0
    2.9557    1.5631    0.2851 O   0  0  0  0  0  0  0  0  0  0  0  0
    4.3529    1.6594    0.3266 N   0  0  0  0  0  0  0  0  0  0  0  0
    4.7291    2.4089    1.3183 C   0  0  0  0  0  0  0  0  0  0  0  0
    6.1613    2.6614    1.5562 C   0  0  0  0  0  0  0  0  0  0  0  0
    7.1040    2.5499    0.5386 C   0  0  0  0  0  0  0  0  0  0  0  0
    6.7537    2.3799   -0.8003 N   0  0  0  0  0  0  0  0  0  0  0  0
    8.4216    2.7264    0.7398 N   0  0  0  0  0  0  0  0  0  0  0  0
    8.8027    2.9920    1.9915 C   0  0  0  0  0  0  0  0  0  0  0  0
    7.9903    3.1184    3.0423 N   0  0  0  0  0  0  0  0  0  0  0  0
    6.6652    2.9889    2.8009 C   0  0  0  0  0  0  0  0  0  0  0  0
    5.7911    3.1828    3.8693 O   0  0  0  0  0  0  0  0  0  0  0  0
    6.2492    3.9417    4.9357 C   0  0  0  0  0  0  0  0  0  0  0  0
    6.9650    5.1312    4.7511 C   0  0  0  0  0  0  0  0  0  0  0  0
    7.4539    5.8644    5.8360 C   0  0  0  0  0  0  0  0  0  0  0  0
    7.1199    5.4220    7.1177 C   0  0  0  0  0  0  0  0  0  0  0  0
    7.4261    5.9661    8.3429 N   0  0  0  0  0  0  0  0  0  0  0  0
    6.7542    5.3029    9.3387 C   0  0  0  0  0  0  0  0  0  0  0  0
    6.7461    5.8008   10.7358 C   0  0  0  0  0  0  0  0  0  0  0  0
    6.1446    4.2069    8.7573 C   0  0  0  0  0  0  0  0  0  0  0  0
    6.3451    4.2841    7.3471 C   0  0  0  0  0  0  0  0  0  0  0  0
    5.9213    3.5251    6.2335 C   0  0  0  0  0  0  0  0  0  0  0  0
    5.1852    2.4170    6.4170 F   0  0  0  0  0  0  0  0  0  0  0  0
    0.8054    0.0277   -1.7921 H   0  0  0  0  0  0  0  0  0  0  0  0
    0.6384    1.6179   -1.0072 H   0  0  0  0  0  0  0  0  0  0  0  0
    0.6971    0.1589   -0.0230 H   0  0  0  0  0  0  0  0  0  0  0  0
    3.0001    1.1976   -1.7563 H   0  0  0  0  0  0  0  0  0  0  0  0
    3.0513   -0.2486   -0.7138 H   0  0  0  0  0  0  0  0  0  0  0  0
    3.9932    2.8542    2.0113 H   0  0  0  0  0  0  0  0  0  0  0  0
    6.0087    1.6901   -0.9074 H   0  0  0  0  0  0  0  0  0  0  0  0
    7.5841    2.1952   -1.3519 H   0  0  0  0  0  0  0  0  0  0  0  0
    9.8621    3.1396    2.1666 H   0  0  0  0  0  0  0  0  0  0  0  0
    7.1854    5.4927    3.7502 H   0  0  0  0  0  0  0  0  0  0  0  0
    8.0516    6.7563    5.6788 H   0  0  0  0  0  0  0  0  0  0  0  0
    7.9975    6.7900    8.4739 H   0  0  0  0  0  0  0  0  0  0  0  0
    7.4089    6.6631   10.8607 H   0  0  0  0  0  0  0  0  0  0  0  0
    7.0620    5.0209   11.4363 H   0  0  0  0  0  0  0  0  0  0  0  0
    5.7324    6.1220   11.0086 H   0  0  0  0  0  0  0  0  0  0  0  0
    5.5553    3.4631    9.2791 H   0  0  0  0  0  0  0  0  0  0  0  0
  1  2  1  0  0  0  0
  1 25  1  0  0  0  0
  1 26  1  0  0  0  0
  1 27  1  0  0  0  0
  2  3  1  0  0  0  0
  2 28  1  0  0  0  0
  2 29  1  0  0  0  0
  3  4  1  0  0  0  0
  4  5  2  0  0  0  0
  5  6  1  0  0  0  0
  5 30  1  0  0  0  0
  6  7  1  0  0  0  0
  6 12  2  0  0  0  0
  7  8  1  0  0  0  0
  7  9  2  0  0  0  0
  8 31  1  0  0  0  0
  8 32  1  0  0  0  0
  9 10  1  0  0  0  0
 10 11  2  0  0  0  0
 10 33  1  0  0  0  0
 11 12  1  0  0  0  0
 12 13  1  0  0  0  0
 13 14  1  0  0  0  0
 14 15  1  0  0  0  0
 14 23  2  0  0  0  0
 15 16  2  0  0  0  0
 15 34  1  0  0  0  0
 16 17  1  0  0  0  0
 16 35  1  0  0  0  0
 17 18  1  0  0  0  0
 17 22  2  0  0  0  0
 18 19  1  0  0  0  0
 18 36  1  0  0  0  0
 19 20  1  0  0  0  0
 19 21  2  0  0  0  0
 20 37  1  0  0  0  0
 20 38  1  0  0  0  0
 20 39  1  0  0  0  0
 21 22  1  0  0  0  0
 21 40  1  0  0  0  0
 22 23  1  0  0  0  0
 23 24  1  0  0  0  0
M  END
$$$$
