CHEMBL3904168
 OpenBabel04072215373D

 61 65  0  0  0  0  0  0  0  0999 V2000
    1.2536    1.8890   -0.0961 C   0  0  0  0  0  0  0  0  0  0  0  0
    2.5723    1.8563   -0.3394 C   0  0  0  0  0  0  0  0  0  0  0  0
    3.5937    0.9430    0.3299 C   0  0  0  0  0  0  0  0  0  0  0  0
    4.3170    1.6372    1.3983 N   0  0  0  0  0  0  0  0  0  0  0  0
    3.5618    1.9348    2.4860 N   0  0  0  0  0  0  0  0  0  0  0  0
    4.0719    3.0869    2.9080 C   0  0  0  0  0  0  0  0  0  0  0  0
    3.3131    3.9161    3.8657 C   0  0  0  0  0  0  0  0  0  0  0  0
    5.3306    3.3160    2.3200 C   0  0  0  0  0  0  0  0  0  0  0  0
    5.5677    2.2448    1.4572 C   0  0  0  0  0  0  0  0  0  0  0  0
    6.8164    1.9176    0.7523 C   0  0  0  0  0  0  0  0  0  0  0  0
    6.8303    1.2263   -0.2597 O   0  0  0  0  0  0  0  0  0  0  0  0
    7.9691    2.4501    1.3802 N   0  0  0  0  0  0  0  0  0  0  0  0
    9.3442    2.4024    1.0074 C   0  0  0  0  0  0  0  0  0  0  0  0
    9.8192    1.7734   -0.1421 C   0  0  0  0  0  0  0  0  0  0  0  0
   11.2019    1.7599   -0.4267 C   0  0  0  0  0  0  0  0  0  0  0  0
   12.1351    2.3952    0.4098 C   0  0  0  0  0  0  0  0  0  0  0  0
   11.6901    3.0634    1.5468 C   0  0  0  0  0  0  0  0  0  0  0  0
   12.6321    3.7144    2.5234 C   0  0  0  0  0  0  0  0  0  0  0  0
   12.2596    3.7695    3.6997 O   0  0  0  0  0  0  0  0  0  0  0  0
   13.9901    4.2872    2.2119 C   0  0  0  0  0  0  0  0  0  0  0  0
   14.2921    4.9175    1.0032 C   0  0  0  0  0  0  0  0  0  0  0  0
   15.5599    5.5112    0.7817 C   0  0  0  0  0  0  0  0  0  0  0  0
   16.5694    5.4505    1.7709 C   0  0  0  0  0  0  0  0  0  0  0  0
   17.9561    5.8158    1.9172 C   0  0  0  0  0  0  0  0  0  0  0  0
   18.8856    6.3289    0.9439 C   0  0  0  0  0  0  0  0  0  0  0  0
   18.6855    6.5298   -0.3683 C   0  0  0  0  0  0  0  0  0  0  0  0
   19.6861    6.9938   -1.3380 C   0  0  0  0  0  0  0  0  0  0  0  0
   21.0358    6.6569   -1.2740 C   0  0  0  0  0  0  0  0  0  0  0  0
   21.8869    7.0907   -2.2904 C   0  0  0  0  0  0  0  0  0  0  0  0
   21.3701    7.8376   -3.3416 C   0  0  0  0  0  0  0  0  0  0  0  0
   20.0143    8.1128   -3.3367 C   0  0  0  0  0  0  0  0  0  0  0  0
   19.1654    7.7003   -2.3690 N   0  0  0  0  0  0  0  0  0  0  0  0
   18.3868    5.5534    3.1618 N   0  0  0  0  0  0  0  0  0  0  0  0
   17.3295    5.0082    3.7791 N   0  0  0  0  0  0  0  0  0  0  0  0
   16.2218    4.8690    2.9876 C   0  0  0  0  0  0  0  0  0  0  0  0
   14.9578    4.2975    3.2410 C   0  0  0  0  0  0  0  0  0  0  0  0
   10.2966    3.0344    1.8447 C   0  0  0  0  0  0  0  0  0  0  0  0
    0.6014    2.5991   -0.6008 H   0  0  0  0  0  0  0  0  0  0  0  0
    0.7774    1.2529    0.6542 H   0  0  0  0  0  0  0  0  0  0  0  0
    2.9688    2.5582   -1.0676 H   0  0  0  0  0  0  0  0  0  0  0  0
    4.2964    0.5447   -0.4003 H   0  0  0  0  0  0  0  0  0  0  0  0
    3.0739    0.0976    0.8045 H   0  0  0  0  0  0  0  0  0  0  0  0
    2.2429    3.6833    3.8158 H   0  0  0  0  0  0  0  0  0  0  0  0
    3.4304    4.9764    3.6246 H   0  0  0  0  0  0  0  0  0  0  0  0
    3.6562    3.7412    4.8884 H   0  0  0  0  0  0  0  0  0  0  0  0
    5.9878    4.1518    2.5064 H   0  0  0  0  0  0  0  0  0  0  0  0
    7.7980    2.9252    2.2575 H   0  0  0  0  0  0  0  0  0  0  0  0
    9.1486    1.2635   -0.8283 H   0  0  0  0  0  0  0  0  0  0  0  0
   11.5537    1.2295   -1.3106 H   0  0  0  0  0  0  0  0  0  0  0  0
   13.1936    2.3197    0.1731 H   0  0  0  0  0  0  0  0  0  0  0  0
   13.5479    4.9982    0.2159 H   0  0  0  0  0  0  0  0  0  0  0  0
   15.7379    6.0308   -0.1546 H   0  0  0  0  0  0  0  0  0  0  0  0
   19.8763    6.5383    1.3486 H   0  0  0  0  0  0  0  0  0  0  0  0
   17.7198    6.3607   -0.8231 H   0  0  0  0  0  0  0  0  0  0  0  0
   21.4306    6.0501   -0.4663 H   0  0  0  0  0  0  0  0  0  0  0  0
   22.9441    6.8392   -2.2667 H   0  0  0  0  0  0  0  0  0  0  0  0
   22.0045    8.1903   -4.1472 H   0  0  0  0  0  0  0  0  0  0  0  0
   19.5568    8.6863   -4.1379 H   0  0  0  0  0  0  0  0  0  0  0  0
   17.4378    4.7302    4.7482 H   0  0  0  0  0  0  0  0  0  0  0  0
   14.7340    3.8726    4.2171 H   0  0  0  0  0  0  0  0  0  0  0  0
    9.9664    3.5065    2.7670 H   0  0  0  0  0  0  0  0  0  0  0  0
  1  2  2  0  0  0  0
  1 38  1  0  0  0  0
  1 39  1  0  0  0  0
  2  3  1  0  0  0  0
  2 40  1  0  0  0  0
  3  4  1  0  0  0  0
  3 41  1  0  0  0  0
  3 42  1  0  0  0  0
  4  5  1  0  0  0  0
  4  9  1  0  0  0  0
  5  6  2  0  0  0  0
  6  7  1  0  0  0  0
  6  8  1  0  0  0  0
  7 43  1  0  0  0  0
  7 44  1  0  0  0  0
  7 45  1  0  0  0  0
  8  9  2  0  0  0  0
  8 46  1  0  0  0  0
  9 10  1  0  0  0  0
 10 11  2  0  0  0  0
 10 12  1  0  0  0  0
 12 13  1  0  0  0  0
 12 47  1  0  0  0  0
 13 14  1  0  0  0  0
 13 37  2  0  0  0  0
 14 15  2  0  0  0  0
 14 48  1  0  0  0  0
 15 16  1  0  0  0  0
 15 49  1  0  0  0  0
 16 17  2  0  0  0  0
 16 50  1  0  0  0  0
 17 18  1  0  0  0  0
 17 37  1  0  0  0  0
 18 19  2  0  0  0  0
 18 20  1  0  0  0  0
 20 21  1  0  0  0  0
 20 36  2  0  0  0  0
 21 22  2  0  0  0  0
 21 51  1  0  0  0  0
 22 23  1  0  0  0  0
 22 52  1  0  0  0  0
 23 24  1  0  0  0  0
 23 35  2  0  0  0  0
 24 25  1  0  0  0  0
 24 33  2  0  0  0  0
 25 26  2  0  0  0  0
 25 53  1  0  0  0  0
 26 27  1  0  0  0  0
 26 54  1  0  0  0  0
 27 28  1  0  0  0  0
 27 32  2  0  0  0  0
 28 29  2  0  0  0  0
 28 55  1  0  0  0  0
 29 30  1  0  0  0  0
 29 56  1  0  0  0  0
 30 31  2  0  0  0  0
 30 57  1  0  0  0  0
 31 32  1  0  0  0  0
 31 58  1  0  0  0  0
 33 34  1  0  0  0  0
 34 35  1  0  0  0  0
 34 59  1  0  0  0  0
 35 36  1  0  0  0  0
 36 60  1  0  0  0  0
 37 61  1  0  0  0  0
M  END
$$$$
