CHEMBL247797
 OpenBabel04072215363D

 53 55  0  0  0  0  0  0  0  0999 V2000
    6.3373   -2.6789   -0.3517 C   0  0  0  0  0  0  0  0  0  0  0  0
    6.6364   -1.3118   -0.0028 N   0  0  0  0  0  0  0  0  0  0  0  0
    6.4078   -0.3233   -0.9332 C   0  0  0  0  0  0  0  0  0  0  0  0
    5.9564   -0.5553   -2.0486 O   0  0  0  0  0  0  0  0  0  0  0  0
    6.7910    0.9118   -0.4596 N   0  0  0  0  0  0  0  0  0  0  0  0
    6.6893    2.0402   -1.2800 C   0  0  0  0  0  0  0  0  0  0  0  0
    5.5245    2.3119   -1.9872 C   0  0  0  0  0  0  0  0  0  0  0  0
    5.5354    3.3419   -2.9196 C   0  0  0  0  0  0  0  0  0  0  0  0
    6.7184    4.0458   -3.1403 C   0  0  0  0  0  0  0  0  0  0  0  0
    6.8490    5.0178   -4.2720 C   0  0  0  0  0  0  0  0  0  0  0  0
    6.7053    6.3857   -3.8168 N   0  0  0  0  0  0  0  0  0  0  0  0
    7.1580    7.4682   -4.5115 C   0  0  0  0  0  0  0  0  0  0  0  0
    7.3994    8.7661   -4.0748 C   0  0  0  0  0  0  0  0  0  0  0  0
    7.2523    9.3961   -2.7739 C   0  0  0  0  0  0  0  0  0  0  0  0
    7.0063   10.5988   -2.7207 O   0  0  0  0  0  0  0  0  0  0  0  0
    7.4976    8.5826   -1.6815 N   0  0  0  0  0  0  0  0  0  0  0  0
    7.5114    9.0105   -0.3281 C   0  0  0  0  0  0  0  0  0  0  0  0
    6.9470   10.2175    0.1009 C   0  0  0  0  0  0  0  0  0  0  0  0
    7.0456   10.6321    1.4356 C   0  0  0  0  0  0  0  0  0  0  0  0
    7.6932    9.8345    2.3772 C   0  0  0  0  0  0  0  0  0  0  0  0
    7.9316   10.3695    4.0578 S   0  0  0  0  0  0  0  0  0  0  0  0
    6.2372   10.5516    4.6382 C   0  0  0  0  0  0  0  0  0  0  0  0
    5.3007   10.2517    3.7090 F   0  0  0  0  0  0  0  0  0  0  0  0
    6.0118    9.7441    5.7039 F   0  0  0  0  0  0  0  0  0  0  0  0
    6.0015   11.8223    5.0478 F   0  0  0  0  0  0  0  0  0  0  0  0
    8.2449    8.6164    1.9589 C   0  0  0  0  0  0  0  0  0  0  0  0
    8.1411    8.2016    0.6221 C   0  0  0  0  0  0  0  0  0  0  0  0
    7.8516    9.4537   -5.2241 C   0  0  0  0  0  0  0  0  0  0  0  0
    7.9046    8.6827   -6.3050 N   0  0  0  0  0  0  0  0  0  0  0  0
    7.4118    7.5051   -5.8804 N   0  0  0  0  0  0  0  0  0  0  0  0
    7.1023    6.5308   -6.9023 C   0  0  0  0  0  0  0  0  0  0  0  0
    7.8034    3.7559   -2.3192 C   0  0  0  0  0  0  0  0  0  0  0  0
    7.8017    2.7959   -1.3674 N   0  0  0  0  0  0  0  0  0  0  0  0
    6.4140   -3.2987    0.5436 H   0  0  0  0  0  0  0  0  0  0  0  0
    7.0607   -3.0145   -1.1007 H   0  0  0  0  0  0  0  0  0  0  0  0
    5.3291   -2.7467   -0.7705 H   0  0  0  0  0  0  0  0  0  0  0  0
    6.4978   -1.0308    0.9577 H   0  0  0  0  0  0  0  0  0  0  0  0
    7.6585    0.8949    0.0563 H   0  0  0  0  0  0  0  0  0  0  0  0
    4.6338    1.7070   -1.8510 H   0  0  0  0  0  0  0  0  0  0  0  0
    4.6435    3.5389   -3.5092 H   0  0  0  0  0  0  0  0  0  0  0  0
    6.0946    4.7822   -5.0314 H   0  0  0  0  0  0  0  0  0  0  0  0
    7.8335    4.8657   -4.7312 H   0  0  0  0  0  0  0  0  0  0  0  0
    6.2044    6.5017   -2.9351 H   0  0  0  0  0  0  0  0  0  0  0  0
    7.8771    7.6668   -1.8876 H   0  0  0  0  0  0  0  0  0  0  0  0
    6.4175   10.8744   -0.5829 H   0  0  0  0  0  0  0  0  0  0  0  0
    6.6167   11.5929    1.7123 H   0  0  0  0  0  0  0  0  0  0  0  0
    8.7780    7.9871    2.6674 H   0  0  0  0  0  0  0  0  0  0  0  0
    8.6005    7.2579    0.3373 H   0  0  0  0  0  0  0  0  0  0  0  0
    8.1574   10.4900   -5.2973 H   0  0  0  0  0  0  0  0  0  0  0  0
    7.1911    6.9964   -7.8893 H   0  0  0  0  0  0  0  0  0  0  0  0
    6.0734    6.1906   -6.7718 H   0  0  0  0  0  0  0  0  0  0  0  0
    7.8170    5.7094   -6.8310 H   0  0  0  0  0  0  0  0  0  0  0  0
    8.7515    4.2746   -2.4395 H   0  0  0  0  0  0  0  0  0  0  0  0
  1  2  1  0  0  0  0
  1 34  1  0  0  0  0
  1 35  1  0  0  0  0
  1 36  1  0  0  0  0
  2  3  1  0  0  0  0
  2 37  1  0  0  0  0
  3  4  2  0  0  0  0
  3  5  1  0  0  0  0
  5  6  1  0  0  0  0
  5 38  1  0  0  0  0
  6  7  1  0  0  0  0
  6 33  2  0  0  0  0
  7  8  2  0  0  0  0
  7 39  1  0  0  0  0
  8  9  1  0  0  0  0
  8 40  1  0  0  0  0
  9 10  1  0  0  0  0
  9 32  2  0  0  0  0
 10 11  1  0  0  0  0
 10 41  1  0  0  0  0
 10 42  1  0  0  0  0
 11 12  1  0  0  0  0
 11 43  1  0  0  0  0
 12 13  2  0  0  0  0
 12 30  1  0  0  0  0
 13 14  1  0  0  0  0
 13 28  1  0  0  0  0
 14 15  2  0  0  0  0
 14 16  1  0  0  0  0
 16 17  1  0  0  0  0
 16 44  1  0  0  0  0
 17 18  1  0  0  0  0
 17 27  2  0  0  0  0
 18 19  2  0  0  0  0
 18 45  1  0  0  0  0
 19 20  1  0  0  0  0
 19 46  1  0  0  0  0
 20 21  1  0  0  0  0
 20 26  2  0  0  0  0
 21 22  1  0  0  0  0
 22 23  1  0  0  0  0
 22 24  1  0  0  0  0
 22 25  1  0  0  0  0
 26 27  1  0  0  0  0
 26 47  1  0  0  0  0
 27 48  1  0  0  0  0
 28 29  2  0  0  0  0
 28 49  1  0  0  0  0
 29 30  1  0  0  0  0
 30 31  1  0  0  0  0
 31 50  1  0  0  0  0
 31 51  1  0  0  0  0
 31 52  1  0  0  0  0
 32 33  1  0  0  0  0
 32 53  1  0  0  0  0
M  END
$$$$
