CHEMBL1975927
 OpenBabel04072215363D

 52 55  0  0  0  0  0  0  0  0999 V2000
    3.0437   -0.7243    0.7511 C   0  0  0  0  0  0  0  0  0  0  0  0
    2.9802    0.6662    0.4569 O   0  0  0  0  0  0  0  0  0  0  0  0
    3.5491    1.0723   -0.7186 C   0  0  0  0  0  0  0  0  0  0  0  0
    4.1296    0.2401   -1.6724 C   0  0  0  0  0  0  0  0  0  0  0  0
    4.6789    0.7817   -2.8403 C   0  0  0  0  0  0  0  0  0  0  0  0
    4.6775    2.1691   -3.0561 C   0  0  0  0  0  0  0  0  0  0  0  0
    5.2700    2.6976   -4.2410 N   0  0  0  0  0  0  0  0  0  0  0  0
    5.3956    1.9906   -5.4302 C   0  0  0  0  0  0  0  0  0  0  0  0
    6.0005    2.7833   -6.3740 C   0  0  0  0  0  0  0  0  0  0  0  0
    6.2749    4.0202   -5.7569 C   0  0  0  0  0  0  0  0  0  0  0  0
    6.8767    5.1983   -6.1591 C   0  0  0  0  0  0  0  0  0  0  0  0
    6.9978    6.2119   -5.2842 N   0  0  0  0  0  0  0  0  0  0  0  0
    6.5759    6.0580   -4.0109 C   0  0  0  0  0  0  0  0  0  0  0  0
    6.8016    7.1162   -3.1254 N   0  0  0  0  0  0  0  0  0  0  0  0
    6.9934    8.4724   -3.4328 C   0  0  0  0  0  0  0  0  0  0  0  0
    6.3756    9.0540   -4.5455 C   0  0  0  0  0  0  0  0  0  0  0  0
    6.6158   10.3786   -4.9405 C   0  0  0  0  0  0  0  0  0  0  0  0
    5.9702   10.9425   -6.0120 O   0  0  0  0  0  0  0  0  0  0  0  0
    5.0339   10.1507   -6.7328 C   0  0  0  0  0  0  0  0  0  0  0  0
    7.5442   11.1563   -4.2183 C   0  0  0  0  0  0  0  0  0  0  0  0
    7.9503   12.4264   -4.5392 O   0  0  0  0  0  0  0  0  0  0  0  0
    7.4974   13.0511   -5.7294 C   0  0  0  0  0  0  0  0  0  0  0  0
    8.1508   10.5897   -3.0724 C   0  0  0  0  0  0  0  0  0  0  0  0
    9.0887   11.1806   -2.2548 O   0  0  0  0  0  0  0  0  0  0  0  0
    9.0248   12.5937   -2.1029 C   0  0  0  0  0  0  0  0  0  0  0  0
    7.8732    9.2610   -2.6975 C   0  0  0  0  0  0  0  0  0  0  0  0
    5.9896    4.9491   -3.5242 N   0  0  0  0  0  0  0  0  0  0  0  0
    5.8303    3.9624   -4.4385 C   0  0  0  0  0  0  0  0  0  0  0  0
    4.0877    3.0037   -2.1042 C   0  0  0  0  0  0  0  0  0  0  0  0
    3.5161    2.4499   -0.9504 C   0  0  0  0  0  0  0  0  0  0  0  0
    2.5583   -0.8853    1.7182 H   0  0  0  0  0  0  0  0  0  0  0  0
    4.0816   -1.0638    0.8386 H   0  0  0  0  0  0  0  0  0  0  0  0
    2.4985   -1.3113    0.0042 H   0  0  0  0  0  0  0  0  0  0  0  0
    4.1861   -0.8354   -1.5383 H   0  0  0  0  0  0  0  0  0  0  0  0
    5.1490    0.0949   -3.5392 H   0  0  0  0  0  0  0  0  0  0  0  0
    4.9999    0.9888   -5.5300 H   0  0  0  0  0  0  0  0  0  0  0  0
    6.2176    2.4986   -7.3956 H   0  0  0  0  0  0  0  0  0  0  0  0
    7.2748    5.3663   -7.1520 H   0  0  0  0  0  0  0  0  0  0  0  0
    6.6691    6.8564   -2.1604 H   0  0  0  0  0  0  0  0  0  0  0  0
    5.6832    8.4331   -5.1039 H   0  0  0  0  0  0  0  0  0  0  0  0
    4.6110   10.7741   -7.5258 H   0  0  0  0  0  0  0  0  0  0  0  0
    4.2071    9.8302   -6.0898 H   0  0  0  0  0  0  0  0  0  0  0  0
    5.5247    9.2959   -7.2097 H   0  0  0  0  0  0  0  0  0  0  0  0
    8.0392   13.9968   -5.8324 H   0  0  0  0  0  0  0  0  0  0  0  0
    6.4337   13.2986   -5.6581 H   0  0  0  0  0  0  0  0  0  0  0  0
    7.7289   12.4563   -6.6187 H   0  0  0  0  0  0  0  0  0  0  0  0
    9.5699   12.8531   -1.1897 H   0  0  0  0  0  0  0  0  0  0  0  0
    7.9955   12.9485   -1.9822 H   0  0  0  0  0  0  0  0  0  0  0  0
    9.5354   13.1006   -2.9273 H   0  0  0  0  0  0  0  0  0  0  0  0
    8.3960    8.8397   -1.8419 H   0  0  0  0  0  0  0  0  0  0  0  0
    4.0222    4.0791   -2.2474 H   0  0  0  0  0  0  0  0  0  0  0  0
    3.0430    3.1039   -0.2213 H   0  0  0  0  0  0  0  0  0  0  0  0
  1  2  1  0  0  0  0
  1 31  1  0  0  0  0
  1 32  1  0  0  0  0
  1 33  1  0  0  0  0
  2  3  1  0  0  0  0
  3  4  1  0  0  0  0
  3 30  2  0  0  0  0
  4  5  2  0  0  0  0
  4 34  1  0  0  0  0
  5  6  1  0  0  0  0
  5 35  1  0  0  0  0
  6  7  1  0  0  0  0
  6 29  2  0  0  0  0
  7  8  1  0  0  0  0
  7 28  1  0  0  0  0
  8  9  2  0  0  0  0
  8 36  1  0  0  0  0
  9 10  1  0  0  0  0
  9 37  1  0  0  0  0
 10 11  1  0  0  0  0
 10 28  2  0  0  0  0
 11 12  2  0  0  0  0
 11 38  1  0  0  0  0
 12 13  1  0  0  0  0
 13 14  1  0  0  0  0
 13 27  2  0  0  0  0
 14 15  1  0  0  0  0
 14 39  1  0  0  0  0
 15 16  1  0  0  0  0
 15 26  2  0  0  0  0
 16 17  2  0  0  0  0
 16 40  1  0  0  0  0
 17 18  1  0  0  0  0
 17 20  1  0  0  0  0
 18 19  1  0  0  0  0
 19 41  1  0  0  0  0
 19 42  1  0  0  0  0
 19 43  1  0  0  0  0
 20 21  1  0  0  0  0
 20 23  2  0  0  0  0
 21 22  1  0  0  0  0
 22 44  1  0  0  0  0
 22 45  1  0  0  0  0
 22 46  1  0  0  0  0
 23 24  1  0  0  0  0
 23 26  1  0  0  0  0
 24 25  1  0  0  0  0
 25 47  1  0  0  0  0
 25 48  1  0  0  0  0
 25 49  1  0  0  0  0
 26 50  1  0  0  0  0
 27 28  1  0  0  0  0
 29 30  1  0  0  0  0
 29 51  1  0  0  0  0
 30 52  1  0  0  0  0
M  END
$$$$
