CHEMBL1254669
 OpenBabel04072215363D

 44 47  0  0  0  0  0  0  0  0999 V2000
    0.6049   -0.3436    0.3773 C   0  0  0  0  0  0  0  0  0  0  0  0
    1.9732   -0.2240    0.8300 N   0  0  0  0  0  0  0  0  0  0  0  0
    2.5217    0.9199    1.3578 C   0  0  0  0  0  0  0  0  0  0  0  0
    3.8262    0.6425    1.7060 C   0  0  0  0  0  0  0  0  0  0  0  0
    4.0727   -0.7077    1.3697 C   0  0  0  0  0  0  0  0  0  0  0  0
    5.2037   -1.4244    1.5334 N   0  0  0  0  0  0  0  0  0  0  0  0
    5.1111   -2.6742    1.0655 C   0  0  0  0  0  0  0  0  0  0  0  0
    4.0558   -3.2541    0.4708 N   0  0  0  0  0  0  0  0  0  0  0  0
    2.9105   -2.5416    0.3590 C   0  0  0  0  0  0  0  0  0  0  0  0
    1.7872   -3.1022   -0.2455 O   0  0  0  0  0  0  0  0  0  0  0  0
    1.5869   -4.4622   -0.1323 C   0  0  0  0  0  0  0  0  0  0  0  0
    2.0100   -5.2021    0.9660 C   0  0  0  0  0  0  0  0  0  0  0  0
    1.7890   -6.5740    1.0181 C   0  0  0  0  0  0  0  0  0  0  0  0
    1.1020   -7.2510    0.0067 C   0  0  0  0  0  0  0  0  0  0  0  0
    0.8684   -8.6534    0.0446 N   0  0  0  0  0  0  0  0  0  0  0  0
    1.2614   -9.4921    1.0726 C   0  0  0  0  0  0  0  0  0  0  0  0
    1.8433   -9.1289    2.0947 O   0  0  0  0  0  0  0  0  0  0  0  0
    0.9557  -10.8315    0.8526 N   0  0  0  0  0  0  0  0  0  0  0  0
    1.3777  -11.7490    1.8666 C   0  0  0  0  0  0  0  0  0  0  0  0
    0.9494  -11.5628    3.1907 C   0  0  0  0  0  0  0  0  0  0  0  0
    1.4990  -12.3166    4.2292 C   0  0  0  0  0  0  0  0  0  0  0  0
    2.4751  -13.2706    3.9527 C   0  0  0  0  0  0  0  0  0  0  0  0
    2.8730  -13.4987    2.6328 C   0  0  0  0  0  0  0  0  0  0  0  0
    2.3122  -12.7539    1.5888 C   0  0  0  0  0  0  0  0  0  0  0  0
    2.8810  -13.0226   -0.0200 Cl  0  0  0  0  0  0  0  0  0  0  0  0
    0.6251   -6.4943   -1.0719 C   0  0  0  0  0  0  0  0  0  0  0  0
    0.8673   -5.1086   -1.1374 C   0  0  0  0  0  0  0  0  0  0  0  0
    2.9140   -1.2267    0.8023 C   0  0  0  0  0  0  0  0  0  0  0  0
    0.0937    0.6139    0.5066 H   0  0  0  0  0  0  0  0  0  0  0  0
    0.1079   -1.1096    0.9782 H   0  0  0  0  0  0  0  0  0  0  0  0
    0.6120   -0.6170   -0.6801 H   0  0  0  0  0  0  0  0  0  0  0  0
    1.9469    1.8328    1.4480 H   0  0  0  0  0  0  0  0  0  0  0  0
    4.5316    1.3314    2.1493 H   0  0  0  0  0  0  0  0  0  0  0  0
    5.9933   -3.2962    1.1831 H   0  0  0  0  0  0  0  0  0  0  0  0
    2.5382   -4.7442    1.7979 H   0  0  0  0  0  0  0  0  0  0  0  0
    2.1872   -7.0754    1.8915 H   0  0  0  0  0  0  0  0  0  0  0  0
    0.3253   -9.0581   -0.7042 H   0  0  0  0  0  0  0  0  0  0  0  0
    1.1565  -11.1340   -0.0933 H   0  0  0  0  0  0  0  0  0  0  0  0
    0.2230  -10.7880    3.4274 H   0  0  0  0  0  0  0  0  0  0  0  0
    1.1909  -12.1281    5.2551 H   0  0  0  0  0  0  0  0  0  0  0  0
    2.9368  -13.8239    4.7673 H   0  0  0  0  0  0  0  0  0  0  0  0
    3.6482  -14.2334    2.4316 H   0  0  0  0  0  0  0  0  0  0  0  0
    0.0681   -6.9639   -1.8784 H   0  0  0  0  0  0  0  0  0  0  0  0
    0.4971   -4.5356   -1.9844 H   0  0  0  0  0  0  0  0  0  0  0  0
  1  2  1  0  0  0  0
  1 29  1  0  0  0  0
  1 30  1  0  0  0  0
  1 31  1  0  0  0  0
  2  3  1  0  0  0  0
  2 28  1  0  0  0  0
  3  4  2  0  0  0  0
  3 32  1  0  0  0  0
  4  5  1  0  0  0  0
  4 33  1  0  0  0  0
  5  6  1  0  0  0  0
  5 28  2  0  0  0  0
  6  7  2  0  0  0  0
  7  8  1  0  0  0  0
  7 34  1  0  0  0  0
  8  9  2  0  0  0  0
  9 10  1  0  0  0  0
  9 28  1  0  0  0  0
 10 11  1  0  0  0  0
 11 12  1  0  0  0  0
 11 27  2  0  0  0  0
 12 13  2  0  0  0  0
 12 35  1  0  0  0  0
 13 14  1  0  0  0  0
 13 36  1  0  0  0  0
 14 15  1  0  0  0  0
 14 26  2  0  0  0  0
 15 16  1  0  0  0  0
 15 37  1  0  0  0  0
 16 17  2  0  0  0  0
 16 18  1  0  0  0  0
 18 19  1  0  0  0  0
 18 38  1  0  0  0  0
 19 20  1  0  0  0  0
 19 24  2  0  0  0  0
 20 21  2  0  0  0  0
 20 39  1  0  0  0  0
 21 22  1  0  0  0  0
 21 40  1  0  0  0  0
 22 23  2  0  0  0  0
 22 41  1  0  0  0  0
 23 24  1  0  0  0  0
 23 42  1  0  0  0  0
 24 25  1  0  0  0  0
 26 27  1  0  0  0  0
 26 43  1  0  0  0  0
 27 44  1  0  0  0  0
M  END
$$$$
