CHEMBL365866
 OpenBabel04072215373D

 65 68  0  0  0  0  0  0  0  0999 V2000
    1.2359    0.0392    0.0124 C   0  0  0  0  0  0  0  0  0  0  0  0
    2.7019   -0.0167   -0.0011 N   0  0  0  0  0  0  0  0  0  0  0  0
    3.3356   -0.6158   -1.1001 C   0  0  0  0  0  0  0  0  0  0  0  0
    2.8592   -0.4399   -2.3986 C   0  0  0  0  0  0  0  0  0  0  0  0
    3.4963   -1.0309   -3.4923 C   0  0  0  0  0  0  0  0  0  0  0  0
    4.6321   -1.8229   -3.3305 C   0  0  0  0  0  0  0  0  0  0  0  0
    5.2847   -2.4714   -4.4054 N   0  0  0  0  0  0  0  0  0  0  0  0
    4.9015   -2.4084   -5.7252 C   0  0  0  0  0  0  0  0  0  0  0  0
    3.9961   -1.7216   -6.1858 O   0  0  0  0  0  0  0  0  0  0  0  0
    5.6186   -3.2680   -6.5347 N   0  0  0  0  0  0  0  0  0  0  0  0
    5.2730   -3.2975   -7.9404 C   0  0  0  0  0  0  0  0  0  0  0  0
    5.6747   -4.5735   -8.6618 C   0  0  0  0  0  0  0  0  0  0  0  0
    5.6144   -4.1876  -10.1406 C   0  0  0  0  0  0  0  0  0  0  0  0
    5.7123   -2.6597  -10.1936 C   0  0  0  0  0  0  0  0  0  0  0  0
    5.9656   -2.2133   -8.7599 C   0  0  0  0  0  0  0  0  0  0  0  0
    5.1313   -2.0034   -2.0379 C   0  0  0  0  0  0  0  0  0  0  0  0
    4.4867   -1.4083   -0.9414 C   0  0  0  0  0  0  0  0  0  0  0  0
    3.3066    0.6434    1.0925 C   0  0  0  0  0  0  0  0  0  0  0  0
    4.5869    1.1488    0.9963 C   0  0  0  0  0  0  0  0  0  0  0  0
    5.0953    1.7738    2.1080 C   0  0  0  0  0  0  0  0  0  0  0  0
    4.4242    1.8967    3.2637 N   0  0  0  0  0  0  0  0  0  0  0  0
    3.1902    1.3812    3.2862 C   0  0  0  0  0  0  0  0  0  0  0  0
    2.4964    1.4695    4.4976 N   0  0  0  0  0  0  0  0  0  0  0  0
    1.5768    0.5271    4.9964 C   0  0  0  0  0  0  0  0  0  0  0  0
    1.6074   -0.8210    4.6243 C   0  0  0  0  0  0  0  0  0  0  0  0
    0.6601   -1.7184    5.1114 C   0  0  0  0  0  0  0  0  0  0  0  0
   -0.3288   -1.2799    5.9881 C   0  0  0  0  0  0  0  0  0  0  0  0
   -0.3584    0.0523    6.4214 C   0  0  0  0  0  0  0  0  0  0  0  0
   -1.4601    0.5613    7.3134 C   0  0  0  0  0  0  0  0  0  0  0  0
   -1.4598   -0.2157    8.9282 S   0  0  0  0  0  0  0  0  0  0  0  0
    0.1572    0.1065    9.5891 C   0  0  0  0  0  0  0  0  0  0  0  0
   -2.4004    0.5275    9.7514 O   0  0  0  0  0  0  0  0  0  0  0  0
   -1.6119   -1.6502    8.7871 O   0  0  0  0  0  0  0  0  0  0  0  0
    0.6084    0.9440    5.9207 C   0  0  0  0  0  0  0  0  0  0  0  0
    2.6072    0.7919    2.2312 N   0  0  0  0  0  0  0  0  0  0  0  0
    0.7734   -0.5004   -0.8227 H   0  0  0  0  0  0  0  0  0  0  0  0
    0.8913    1.0796   -0.0447 H   0  0  0  0  0  0  0  0  0  0  0  0
    0.8240   -0.4202    0.9184 H   0  0  0  0  0  0  0  0  0  0  0  0
    1.9904    0.1829   -2.5969 H   0  0  0  0  0  0  0  0  0  0  0  0
    3.0540   -0.8435   -4.4621 H   0  0  0  0  0  0  0  0  0  0  0  0
    6.0476   -3.0861   -4.1793 H   0  0  0  0  0  0  0  0  0  0  0  0
    6.5752   -3.4615   -6.2742 H   0  0  0  0  0  0  0  0  0  0  0  0
    4.1848   -3.1792   -8.0375 H   0  0  0  0  0  0  0  0  0  0  0  0
    5.0025   -5.4058   -8.4278 H   0  0  0  0  0  0  0  0  0  0  0  0
    6.6915   -4.8803   -8.3907 H   0  0  0  0  0  0  0  0  0  0  0  0
    4.6668   -4.5129  -10.5859 H   0  0  0  0  0  0  0  0  0  0  0  0
    6.4226   -4.6640  -10.7035 H   0  0  0  0  0  0  0  0  0  0  0  0
    4.7625   -2.2425  -10.5507 H   0  0  0  0  0  0  0  0  0  0  0  0
    6.4975   -2.3176  -10.8739 H   0  0  0  0  0  0  0  0  0  0  0  0
    5.5701   -1.2122   -8.5618 H   0  0  0  0  0  0  0  0  0  0  0  0
    7.0429   -2.1936   -8.5534 H   0  0  0  0  0  0  0  0  0  0  0  0
    6.0149   -2.6084   -1.8549 H   0  0  0  0  0  0  0  0  0  0  0  0
    4.8794   -1.5945    0.0564 H   0  0  0  0  0  0  0  0  0  0  0  0
    5.1647    1.0904    0.0840 H   0  0  0  0  0  0  0  0  0  0  0  0
    6.0913    2.2055    2.0961 H   0  0  0  0  0  0  0  0  0  0  0  0
    3.1469    1.8144    5.1916 H   0  0  0  0  0  0  0  0  0  0  0  0
    2.3621   -1.1885    3.9328 H   0  0  0  0  0  0  0  0  0  0  0  0
    0.6843   -2.7560    4.7882 H   0  0  0  0  0  0  0  0  0  0  0  0
   -1.0818   -1.9946    6.3179 H   0  0  0  0  0  0  0  0  0  0  0  0
   -2.4374    0.3805    6.8543 H   0  0  0  0  0  0  0  0  0  0  0  0
   -1.3636    1.6386    7.4885 H   0  0  0  0  0  0  0  0  0  0  0  0
    0.3386    1.1828    9.5667 H   0  0  0  0  0  0  0  0  0  0  0  0
    0.9057   -0.4317    9.0074 H   0  0  0  0  0  0  0  0  0  0  0  0
    0.1690   -0.2467   10.6231 H   0  0  0  0  0  0  0  0  0  0  0  0
    0.5764    1.9959    6.1995 H   0  0  0  0  0  0  0  0  0  0  0  0
  1  2  1  0  0  0  0
  1 36  1  0  0  0  0
  1 37  1  0  0  0  0
  1 38  1  0  0  0  0
  2  3  1  0  0  0  0
  2 18  1  0  0  0  0
  3  4  1  0  0  0  0
  3 17  2  0  0  0  0
  4  5  2  0  0  0  0
  4 39  1  0  0  0  0
  5  6  1  0  0  0  0
  5 40  1  0  0  0  0
  6  7  1  0  0  0  0
  6 16  2  0  0  0  0
  7  8  1  0  0  0  0
  7 41  1  0  0  0  0
  8  9  2  0  0  0  0
  8 10  1  0  0  0  0
 10 11  1  0  0  0  0
 10 42  1  0  0  0  0
 11 12  1  0  0  0  0
 11 15  1  0  0  0  0
 11 43  1  0  0  0  0
 12 13  1  0  0  0  0
 12 44  1  0  0  0  0
 12 45  1  0  0  0  0
 13 14  1  0  0  0  0
 13 46  1  0  0  0  0
 13 47  1  0  0  0  0
 14 15  1  0  0  0  0
 14 48  1  0  0  0  0
 14 49  1  0  0  0  0
 15 50  1  0  0  0  0
 15 51  1  0  0  0  0
 16 17  1  0  0  0  0
 16 52  1  0  0  0  0
 17 53  1  0  0  0  0
 18 19  1  0  0  0  0
 18 35  2  0  0  0  0
 19 20  2  0  0  0  0
 19 54  1  0  0  0  0
 20 21  1  0  0  0  0
 20 55  1  0  0  0  0
 21 22  2  0  0  0  0
 22 23  1  0  0  0  0
 22 35  1  0  0  0  0
 23 24  1  0  0  0  0
 23 56  1  0  0  0  0
 24 25  1  0  0  0  0
 24 34  2  0  0  0  0
 25 26  2  0  0  0  0
 25 57  1  0  0  0  0
 26 27  1  0  0  0  0
 26 58  1  0  0  0  0
 27 28  2  0  0  0  0
 27 59  1  0  0  0  0
 28 29  1  0  0  0  0
 28 34  1  0  0  0  0
 29 30  1  0  0  0  0
 29 60  1  0  0  0  0
 29 61  1  0  0  0  0
 30 31  1  0  0  0  0
 30 32  2  0  0  0  0
 30 33  2  0  0  0  0
 31 62  1  0  0  0  0
 31 63  1  0  0  0  0
 31 64  1  0  0  0  0
 34 65  1  0  0  0  0
M  END
$$$$
