CHEMBL2349010
 OpenBabel04072215363D

 53 57  0  0  0  0  0  0  0  0999 V2000
   -2.0891   -0.6777   -0.6253 C   0  0  0  0  0  0  0  0  0  0  0  0
   -0.7339   -0.2585   -0.1451 C   0  0  0  0  0  0  0  0  0  0  0  0
   -0.4252    1.0938    0.2239 C   0  0  0  0  0  0  0  0  0  0  0  0
    0.8749    1.2474    0.6412 C   0  0  0  0  0  0  0  0  0  0  0  0
    1.7360   -0.2185    0.5872 S   0  0  0  0  0  0  0  0  0  0  0  0
    0.3716   -1.0967   -0.0011 C   0  0  0  0  0  0  0  0  0  0  0  0
    0.4705   -2.5441   -0.2747 C   0  0  0  0  0  0  0  0  0  0  0  0
   -0.4538   -3.1595   -0.7978 O   0  0  0  0  0  0  0  0  0  0  0  0
    1.6569   -3.1196    0.1500 N   0  0  0  0  0  0  0  0  0  0  0  0
    1.9963   -4.4457    0.0409 C   0  0  0  0  0  0  0  0  0  0  0  0
    3.0742   -5.0170    0.6780 C   0  0  0  0  0  0  0  0  0  0  0  0
    2.9911   -6.3541    0.3999 N   0  0  0  0  0  0  0  0  0  0  0  0
    3.7576   -7.3254    0.9665 N   0  0  0  0  0  0  0  0  0  0  0  0
    3.3985   -8.5128    0.5939 C   0  0  0  0  0  0  0  0  0  0  0  0
    3.9210   -9.6897    1.1324 O   0  0  0  0  0  0  0  0  0  0  0  0
    4.4624   -9.6535    2.4429 C   0  0  0  0  0  0  0  0  0  0  0  0
    3.8632   -8.8708    3.4320 C   0  0  0  0  0  0  0  0  0  0  0  0
    4.4228   -8.8240    4.6978 C   0  0  0  0  0  0  0  0  0  0  0  0
    5.5246   -9.6225    4.9954 C   0  0  0  0  0  0  0  0  0  0  0  0
    6.0588  -10.5176    4.0581 C   0  0  0  0  0  0  0  0  0  0  0  0
    7.0864  -11.4426    4.4093 N   0  0  0  0  0  0  0  0  0  0  0  0
    7.3971  -11.7898    5.7232 C   0  0  0  0  0  0  0  0  0  0  0  0
    6.8019  -11.3947    6.7246 O   0  0  0  0  0  0  0  0  0  0  0  0
    8.5058  -12.7519    5.9762 C   0  0  0  0  0  0  0  0  0  0  0  0
    9.6009  -12.9236    5.1214 C   0  0  0  0  0  0  0  0  0  0  0  0
   10.6574  -13.7646    5.5028 C   0  0  0  0  0  0  0  0  0  0  0  0
   10.6236  -14.4311    6.7313 C   0  0  0  0  0  0  0  0  0  0  0  0
    9.5310  -14.2627    7.5699 C   0  0  0  0  0  0  0  0  0  0  0  0
    9.5013  -14.8904    8.7537 F   0  0  0  0  0  0  0  0  0  0  0  0
    8.4793  -13.4370    7.2055 C   0  0  0  0  0  0  0  0  0  0  0  0
    5.5430  -10.4986    2.7504 C   0  0  0  0  0  0  0  0  0  0  0  0
    2.3696   -8.8560   -0.4164 C   0  0  0  0  0  0  0  0  0  0  0  0
    1.6606   -7.8330   -0.9185 C   0  0  0  0  0  0  0  0  0  0  0  0
    1.9283   -6.5180   -0.4707 C   0  0  0  0  0  0  0  0  0  0  0  0
    1.3160   -5.3740   -0.6948 N   0  0  0  0  0  0  0  0  0  0  0  0
   -2.7983    0.1551   -0.5653 H   0  0  0  0  0  0  0  0  0  0  0  0
   -2.4863   -1.4921   -0.0115 H   0  0  0  0  0  0  0  0  0  0  0  0
   -2.0452   -1.0026   -1.6695 H   0  0  0  0  0  0  0  0  0  0  0  0
   -1.1335    1.9151    0.1909 H   0  0  0  0  0  0  0  0  0  0  0  0
    1.3587    2.1552    0.9723 H   0  0  0  0  0  0  0  0  0  0  0  0
    2.2951   -2.5277    0.6619 H   0  0  0  0  0  0  0  0  0  0  0  0
    3.8307   -4.6318    1.3436 H   0  0  0  0  0  0  0  0  0  0  0  0
    2.9780   -8.2763    3.2309 H   0  0  0  0  0  0  0  0  0  0  0  0
    4.0031   -8.1767    5.4622 H   0  0  0  0  0  0  0  0  0  0  0  0
    5.9422   -9.5240    5.9925 H   0  0  0  0  0  0  0  0  0  0  0  0
    7.4761  -11.9992    3.6608 H   0  0  0  0  0  0  0  0  0  0  0  0
    9.6784  -12.3793    4.1850 H   0  0  0  0  0  0  0  0  0  0  0  0
   11.5238  -13.8845    4.8563 H   0  0  0  0  0  0  0  0  0  0  0  0
   11.4454  -15.0664    7.0483 H   0  0  0  0  0  0  0  0  0  0  0  0
    7.6502  -13.3105    7.8982 H   0  0  0  0  0  0  0  0  0  0  0  0
    5.9427  -11.1498    1.9802 H   0  0  0  0  0  0  0  0  0  0  0  0
    2.2055   -9.8866   -0.6971 H   0  0  0  0  0  0  0  0  0  0  0  0
    0.8736   -7.9798   -1.6497 H   0  0  0  0  0  0  0  0  0  0  0  0
  1  2  1  0  0  0  0
  1 36  1  0  0  0  0
  1 37  1  0  0  0  0
  1 38  1  0  0  0  0
  2  3  1  0  0  0  0
  2  6  2  0  0  0  0
  3  4  2  0  0  0  0
  3 39  1  0  0  0  0
  4  5  1  0  0  0  0
  4 40  1  0  0  0  0
  5  6  1  0  0  0  0
  6  7  1  0  0  0  0
  7  8  2  0  0  0  0
  7  9  1  0  0  0  0
  9 10  1  0  0  0  0
  9 41  1  0  0  0  0
 10 11  2  0  0  0  0
 10 35  1  0  0  0  0
 11 12  1  0  0  0  0
 11 42  1  0  0  0  0
 12 13  1  0  0  0  0
 12 34  1  0  0  0  0
 13 14  2  0  0  0  0
 14 15  1  0  0  0  0
 14 32  1  0  0  0  0
 15 16  1  0  0  0  0
 16 17  1  0  0  0  0
 16 31  2  0  0  0  0
 17 18  2  0  0  0  0
 17 43  1  0  0  0  0
 18 19  1  0  0  0  0
 18 44  1  0  0  0  0
 19 20  2  0  0  0  0
 19 45  1  0  0  0  0
 20 21  1  0  0  0  0
 20 31  1  0  0  0  0
 21 22  1  0  0  0  0
 21 46  1  0  0  0  0
 22 23  2  0  0  0  0
 22 24  1  0  0  0  0
 24 25  1  0  0  0  0
 24 30  2  0  0  0  0
 25 26  2  0  0  0  0
 25 47  1  0  0  0  0
 26 27  1  0  0  0  0
 26 48  1  0  0  0  0
 27 28  2  0  0  0  0
 27 49  1  0  0  0  0
 28 29  1  0  0  0  0
 28 30  1  0  0  0  0
 30 50  1  0  0  0  0
 31 51  1  0  0  0  0
 32 33  2  0  0  0  0
 32 52  1  0  0  0  0
 33 34  1  0  0  0  0
 33 53  1  0  0  0  0
 34 35  2  0  0  0  0
M  END
$$$$
