CHEMBL2016894
 OpenBabel04072215363D

 37 40  0  0  0  0  0  0  0  0999 V2000
    0.8539   -0.1513    0.0517 C   0  0  0  0  0  0  0  0  0  0  0  0
    2.3049   -0.1526   -0.0486 N   0  0  0  0  0  0  0  0  0  0  0  0
    2.8706    1.1419   -0.4787 C   0  0  0  0  0  0  0  0  0  0  0  0
    3.7412    1.2732   -1.7543 C   0  0  0  0  0  0  0  0  0  0  0  0
    4.1404   -0.0379   -2.2789 C   0  0  0  0  0  0  0  0  0  0  0  0
    4.9541   -0.2425   -3.3542 N   0  0  0  0  0  0  0  0  0  0  0  0
    5.0218   -1.5592   -3.5067 C   0  0  0  0  0  0  0  0  0  0  0  0
    5.7464   -2.3355   -4.4542 C   0  0  0  0  0  0  0  0  0  0  0  0
    6.5945   -1.6993   -5.2846 C   0  0  0  0  0  0  0  0  0  0  0  0
    7.3851   -2.4336   -6.2690 C   0  0  0  0  0  0  0  0  0  0  0  0
    8.2929   -1.7798   -7.1048 C   0  0  0  0  0  0  0  0  0  0  0  0
    9.0412   -2.5099   -8.0297 C   0  0  0  0  0  0  0  0  0  0  0  0
    8.8765   -3.8944   -8.1259 C   0  0  0  0  0  0  0  0  0  0  0  0
    7.9705   -4.5540   -7.2952 C   0  0  0  0  0  0  0  0  0  0  0  0
    7.2323   -3.8207   -6.3665 C   0  0  0  0  0  0  0  0  0  0  0  0
    6.3375   -4.4726   -5.5098 N   0  0  0  0  0  0  0  0  0  0  0  0
    5.6001   -3.8271   -4.5498 C   0  0  0  0  0  0  0  0  0  0  0  0
    4.8551   -4.4604   -3.7996 O   0  0  0  0  0  0  0  0  0  0  0  0
    4.2526   -2.1866   -2.5467 N   0  0  0  0  0  0  0  0  0  0  0  0
    3.7073   -1.2179   -1.7492 C   0  0  0  0  0  0  0  0  0  0  0  0
    2.8462   -1.4107   -0.5741 C   0  0  0  0  0  0  0  0  0  0  0  0
    0.4988    0.7202    0.6125 H   0  0  0  0  0  0  0  0  0  0  0  0
    0.5047   -1.0305    0.6054 H   0  0  0  0  0  0  0  0  0  0  0  0
    0.3808   -0.1479   -0.9335 H   0  0  0  0  0  0  0  0  0  0  0  0
    3.4776    1.5000    0.3641 H   0  0  0  0  0  0  0  0  0  0  0  0
    2.0745    1.8943   -0.5656 H   0  0  0  0  0  0  0  0  0  0  0  0
    4.6328    1.8703   -1.5281 H   0  0  0  0  0  0  0  0  0  0  0  0
    3.1771    1.8051   -2.5284 H   0  0  0  0  0  0  0  0  0  0  0  0
    6.7178   -0.6209   -5.2374 H   0  0  0  0  0  0  0  0  0  0  0  0
    8.4301   -0.7030   -7.0407 H   0  0  0  0  0  0  0  0  0  0  0  0
    9.7515   -2.0016   -8.6755 H   0  0  0  0  0  0  0  0  0  0  0  0
    9.4614   -4.4590   -8.8484 H   0  0  0  0  0  0  0  0  0  0  0  0
    7.8559   -5.6303   -7.3772 H   0  0  0  0  0  0  0  0  0  0  0  0
    6.2228   -5.4755   -5.5626 H   0  0  0  0  0  0  0  0  0  0  0  0
    4.1286   -3.1918   -2.4709 H   0  0  0  0  0  0  0  0  0  0  0  0
    3.4286   -1.8877    0.2234 H   0  0  0  0  0  0  0  0  0  0  0  0
    2.0438   -2.1133   -0.8344 H   0  0  0  0  0  0  0  0  0  0  0  0
  1  2  1  0  0  0  0
  1 22  1  0  0  0  0
  1 23  1  0  0  0  0
  1 24  1  0  0  0  0
  2  3  1  0  0  0  0
  2 21  1  0  0  0  0
  3  4  1  0  0  0  0
  3 25  1  0  0  0  0
  3 26  1  0  0  0  0
  4  5  1  0  0  0  0
  4 27  1  0  0  0  0
  4 28  1  0  0  0  0
  5  6  1  0  0  0  0
  5 20  2  0  0  0  0
  6  7  2  0  0  0  0
  7  8  1  0  0  0  0
  7 19  1  0  0  0  0
  8  9  2  0  0  0  0
  8 17  1  0  0  0  0
  9 10  1  0  0  0  0
  9 29  1  0  0  0  0
 10 11  1  0  0  0  0
 10 15  2  0  0  0  0
 11 12  2  0  0  0  0
 11 30  1  0  0  0  0
 12 13  1  0  0  0  0
 12 31  1  0  0  0  0
 13 14  2  0  0  0  0
 13 32  1  0  0  0  0
 14 15  1  0  0  0  0
 14 33  1  0  0  0  0
 15 16  1  0  0  0  0
 16 17  1  0  0  0  0
 16 34  1  0  0  0  0
 17 18  2  0  0  0  0
 19 20  1  0  0  0  0
 19 35  1  0  0  0  0
 20 21  1  0  0  0  0
 21 36  1  0  0  0  0
 21 37  1  0  0  0  0
M  END
$$$$
