CHEMBL3660307
 OpenBabel04072215373D

 48 51  0  0  0  0  0  0  0  0999 V2000
    2.8192    0.7580   -2.2525 C   0  0  0  0  0  0  0  0  0  0  0  0
    1.4086    0.4827   -1.8158 C   0  0  0  0  0  0  0  0  0  0  0  0
    0.9052   -0.8202   -1.8810 C   0  0  0  0  0  0  0  0  0  0  0  0
   -0.3871   -1.0854   -1.4466 C   0  0  0  0  0  0  0  0  0  0  0  0
   -1.1898   -0.0545   -0.9639 C   0  0  0  0  0  0  0  0  0  0  0  0
   -2.3651   -0.4277   -0.4451 F   0  0  0  0  0  0  0  0  0  0  0  0
   -0.7429    1.2757   -0.9414 C   0  0  0  0  0  0  0  0  0  0  0  0
   -1.5292    2.3949   -0.5446 N   0  0  0  0  0  0  0  0  0  0  0  0
   -2.9113    2.4233   -0.4542 C   0  0  0  0  0  0  0  0  0  0  0  0
   -3.6590    1.4903   -0.7180 O   0  0  0  0  0  0  0  0  0  0  0  0
   -3.3946    3.6824   -0.1039 N   0  0  0  0  0  0  0  0  0  0  0  0
   -4.7924    3.8493    0.0630 C   0  0  0  0  0  0  0  0  0  0  0  0
   -5.5189    2.9987    0.8972 C   0  0  0  0  0  0  0  0  0  0  0  0
   -6.9134    3.0902    0.9626 C   0  0  0  0  0  0  0  0  0  0  0  0
   -7.6323    4.0060    0.1716 C   0  0  0  0  0  0  0  0  0  0  0  0
   -9.1195    3.9995    0.1567 C   0  0  0  0  0  0  0  0  0  0  0  0
   -9.8792    5.1483   -0.0934 C   0  0  0  0  0  0  0  0  0  0  0  0
  -11.2672    5.0665   -0.0886 C   0  0  0  0  0  0  0  0  0  0  0  0
  -11.9618    3.9359    0.1595 N   0  0  0  0  0  0  0  0  0  0  0  0
  -11.2314    2.8250    0.4021 C   0  0  0  0  0  0  0  0  0  0  0  0
  -12.0098    1.6247    0.6986 C   0  0  0  0  0  0  0  0  0  0  0  0
  -11.6314    0.3360    1.0422 C   0  0  0  0  0  0  0  0  0  0  0  0
  -12.8019   -0.4386    1.2257 C   0  0  0  0  0  0  0  0  0  0  0  0
  -13.8762    0.3899    0.9974 C   0  0  0  0  0  0  0  0  0  0  0  0
  -13.3881    1.6304    0.6869 N   0  0  0  0  0  0  0  0  0  0  0  0
   -9.8398    2.8159    0.3911 C   0  0  0  0  0  0  0  0  0  0  0  0
   -6.8733    4.8866   -0.6222 C   0  0  0  0  0  0  0  0  0  0  0  0
   -5.4687    4.8334   -0.6536 C   0  0  0  0  0  0  0  0  0  0  0  0
    0.5817    1.5235   -1.3440 C   0  0  0  0  0  0  0  0  0  0  0  0
    3.3220   -0.1598   -2.5766 H   0  0  0  0  0  0  0  0  0  0  0  0
    3.3977    1.1756   -1.4234 H   0  0  0  0  0  0  0  0  0  0  0  0
    2.8277    1.4568   -3.0949 H   0  0  0  0  0  0  0  0  0  0  0  0
    1.5175   -1.6394   -2.2511 H   0  0  0  0  0  0  0  0  0  0  0  0
   -0.7826   -2.0965   -1.4603 H   0  0  0  0  0  0  0  0  0  0  0  0
   -1.0507    3.2744   -0.4276 H   0  0  0  0  0  0  0  0  0  0  0  0
   -2.9177    4.4404   -0.5675 H   0  0  0  0  0  0  0  0  0  0  0  0
   -5.0120    2.2354    1.4836 H   0  0  0  0  0  0  0  0  0  0  0  0
   -7.4267    2.4022    1.6304 H   0  0  0  0  0  0  0  0  0  0  0  0
   -9.4130    6.1093   -0.2814 H   0  0  0  0  0  0  0  0  0  0  0  0
  -11.8743    5.9457   -0.2865 H   0  0  0  0  0  0  0  0  0  0  0  0
  -10.6153   -0.0195    1.1521 H   0  0  0  0  0  0  0  0  0  0  0  0
  -12.8514   -1.4856    1.4962 H   0  0  0  0  0  0  0  0  0  0  0  0
  -14.9411    0.2029    1.0314 H   0  0  0  0  0  0  0  0  0  0  0  0
  -13.9351    2.4568    0.4756 H   0  0  0  0  0  0  0  0  0  0  0  0
   -9.3199    1.8791    0.5577 H   0  0  0  0  0  0  0  0  0  0  0  0
   -7.3668    5.6021   -1.2761 H   0  0  0  0  0  0  0  0  0  0  0  0
   -4.9324    5.5053   -1.3177 H   0  0  0  0  0  0  0  0  0  0  0  0
    0.9819    2.5348   -1.3192 H   0  0  0  0  0  0  0  0  0  0  0  0
  1  2  1  0  0  0  0
  1 30  1  0  0  0  0
  1 31  1  0  0  0  0
  1 32  1  0  0  0  0
  2  3  1  0  0  0  0
  2 29  2  0  0  0  0
  3  4  2  0  0  0  0
  3 33  1  0  0  0  0
  4  5  1  0  0  0  0
  4 34  1  0  0  0  0
  5  6  1  0  0  0  0
  5  7  2  0  0  0  0
  7  8  1  0  0  0  0
  7 29  1  0  0  0  0
  8  9  1  0  0  0  0
  8 35  1  0  0  0  0
  9 10  2  0  0  0  0
  9 11  1  0  0  0  0
 11 12  1  0  0  0  0
 11 36  1  0  0  0  0
 12 13  1  0  0  0  0
 12 28  2  0  0  0  0
 13 14  2  0  0  0  0
 13 37  1  0  0  0  0
 14 15  1  0  0  0  0
 14 38  1  0  0  0  0
 15 16  1  0  0  0  0
 15 27  2  0  0  0  0
 16 17  1  0  0  0  0
 16 26  2  0  0  0  0
 17 18  2  0  0  0  0
 17 39  1  0  0  0  0
 18 19  1  0  0  0  0
 18 40  1  0  0  0  0
 19 20  2  0  0  0  0
 20 21  1  0  0  0  0
 20 26  1  0  0  0  0
 21 22  2  0  0  0  0
 21 25  1  0  0  0  0
 22 23  1  0  0  0  0
 22 41  1  0  0  0  0
 23 24  2  0  0  0  0
 23 42  1  0  0  0  0
 24 25  1  0  0  0  0
 24 43  1  0  0  0  0
 25 44  1  0  0  0  0
 26 45  1  0  0  0  0
 27 28  1  0  0  0  0
 27 46  1  0  0  0  0
 28 47  1  0  0  0  0
 29 48  1  0  0  0  0
M  END
$$$$
