CHEMBL4642920
 OpenBabel04072215383D

 68 72  0  0  0  0  0  0  0  0999 V2000
    1.9137    4.2560    1.6976 C   0  0  0  0  0  0  0  0  0  0  0  0
    3.1044    3.4791    1.5311 O   0  0  0  0  0  0  0  0  0  0  0  0
    3.9961    3.6275    2.5432 C   0  0  0  0  0  0  0  0  0  0  0  0
    3.8270    4.3056    3.5452 O   0  0  0  0  0  0  0  0  0  0  0  0
    5.2600    2.9005    2.2565 C   0  0  0  0  0  0  0  0  0  0  0  0
    5.4363    2.0822    1.1192 C   0  0  0  0  0  0  0  0  0  0  0  0
    6.6692    1.4553    0.8570 C   0  0  0  0  0  0  0  0  0  0  0  0
    7.7216    1.6622    1.7321 C   0  0  0  0  0  0  0  0  0  0  0  0
    7.5208    2.4820    2.8551 C   0  0  0  0  0  0  0  0  0  0  0  0
    6.3186    3.0926    3.1503 C   0  0  0  0  0  0  0  0  0  0  0  0
    8.6945    2.6238    3.5852 N   0  0  0  0  0  0  0  0  0  0  0  0
    9.7325    1.9332    2.9922 C   0  0  0  0  0  0  0  0  0  0  0  0
   10.9111    1.9867    3.2905 O   0  0  0  0  0  0  0  0  0  0  0  0
    9.1126    1.1974    1.8251 C   0  0  0  0  0  0  0  0  0  0  0  0
    9.8487    0.3051    1.1277 C   0  0  0  0  0  0  0  0  0  0  0  0
   11.1646   -0.0648    1.4630 N   0  0  0  0  0  0  0  0  0  0  0  0
   11.4648   -1.2576    2.1994 C   0  0  0  0  0  0  0  0  0  0  0  0
   12.6304   -1.3104    2.9660 C   0  0  0  0  0  0  0  0  0  0  0  0
   12.9972   -2.4799    3.6507 C   0  0  0  0  0  0  0  0  0  0  0  0
   12.2103   -3.6410    3.5899 C   0  0  0  0  0  0  0  0  0  0  0  0
   12.6344   -4.8061    4.3065 N   0  0  0  0  0  0  0  0  0  0  0  0
   12.5862   -6.0951    3.7923 C   0  0  0  0  0  0  0  0  0  0  0  0
   12.9933   -6.9961    4.7453 C   0  0  0  0  0  0  0  0  0  0  0  0
   13.3814   -6.2461    5.8681 C   0  0  0  0  0  0  0  0  0  0  0  0
   13.1810   -4.9004    5.5902 C   0  0  0  0  0  0  0  0  0  0  0  0
   13.4310   -3.7649    6.5408 C   0  0  0  0  0  0  0  0  0  0  0  0
   12.2642   -2.9016    6.7452 N   0  0  0  0  0  0  0  0  0  0  0  0
   11.1722   -3.5900    7.4316 C   0  0  0  0  0  0  0  0  0  0  0  0
   12.6431   -1.6998    7.4886 C   0  0  0  0  0  0  0  0  0  0  0  0
   11.0433   -3.6218    2.8062 C   0  0  0  0  0  0  0  0  0  0  0  0
   10.0440   -4.7420    2.6580 C   0  0  0  0  0  0  0  0  0  0  0  0
   10.7166   -2.4336    2.1126 C   0  0  0  0  0  0  0  0  0  0  0  0
    9.3899   -0.1705   -0.2000 C   0  0  0  0  0  0  0  0  0  0  0  0
    9.8351    0.5230   -1.3387 C   0  0  0  0  0  0  0  0  0  0  0  0
    9.4966    0.0839   -2.6210 C   0  0  0  0  0  0  0  0  0  0  0  0
    8.7326   -1.0687   -2.7808 C   0  0  0  0  0  0  0  0  0  0  0  0
    8.2670   -1.7558   -1.6617 C   0  0  0  0  0  0  0  0  0  0  0  0
    8.5659   -1.2882   -0.3795 C   0  0  0  0  0  0  0  0  0  0  0  0
    1.1866    3.9247    0.9510 H   0  0  0  0  0  0  0  0  0  0  0  0
    2.1384    5.3117    1.5227 H   0  0  0  0  0  0  0  0  0  0  0  0
    1.4767    4.1143    2.6910 H   0  0  0  0  0  0  0  0  0  0  0  0
    4.6167    1.9306    0.4180 H   0  0  0  0  0  0  0  0  0  0  0  0
    6.7751    0.8406   -0.0296 H   0  0  0  0  0  0  0  0  0  0  0  0
    6.2052    3.7130    4.0334 H   0  0  0  0  0  0  0  0  0  0  0  0
    8.8271    3.2315    4.3788 H   0  0  0  0  0  0  0  0  0  0  0  0
   11.5966    0.6977    2.0048 H   0  0  0  0  0  0  0  0  0  0  0  0
   13.2695   -0.4350    3.0523 H   0  0  0  0  0  0  0  0  0  0  0  0
   13.9320   -2.4620    4.1989 H   0  0  0  0  0  0  0  0  0  0  0  0
   12.2733   -6.2661    2.7720 H   0  0  0  0  0  0  0  0  0  0  0  0
   13.0278   -8.0706    4.6305 H   0  0  0  0  0  0  0  0  0  0  0  0
   13.7627   -6.6397    6.8029 H   0  0  0  0  0  0  0  0  0  0  0  0
   14.2799   -3.1881    6.1533 H   0  0  0  0  0  0  0  0  0  0  0  0
   13.7739   -4.1638    7.5050 H   0  0  0  0  0  0  0  0  0  0  0  0
   10.8782   -4.5091    6.9145 H   0  0  0  0  0  0  0  0  0  0  0  0
   10.2808   -2.9527    7.4459 H   0  0  0  0  0  0  0  0  0  0  0  0
   11.4297   -3.8463    8.4655 H   0  0  0  0  0  0  0  0  0  0  0  0
   13.4574   -1.1672    6.9841 H   0  0  0  0  0  0  0  0  0  0  0  0
   12.9679   -1.9317    8.5098 H   0  0  0  0  0  0  0  0  0  0  0  0
   11.8007   -1.0016    7.5432 H   0  0  0  0  0  0  0  0  0  0  0  0
   10.1767   -5.5590    3.3665 H   0  0  0  0  0  0  0  0  0  0  0  0
   10.0865   -5.1443    1.6396 H   0  0  0  0  0  0  0  0  0  0  0  0
    9.0317   -4.3615    2.8388 H   0  0  0  0  0  0  0  0  0  0  0  0
    9.8261   -2.4535    1.5061 H   0  0  0  0  0  0  0  0  0  0  0  0
   10.4594    1.4058   -1.2274 H   0  0  0  0  0  0  0  0  0  0  0  0
    9.8504    0.6308   -3.4904 H   0  0  0  0  0  0  0  0  0  0  0  0
    8.5023   -1.4338   -3.7784 H   0  0  0  0  0  0  0  0  0  0  0  0
    7.6817   -2.6625   -1.7853 H   0  0  0  0  0  0  0  0  0  0  0  0
    8.1647   -1.8243    0.4762 H   0  0  0  0  0  0  0  0  0  0  0  0
  1  2  1  0  0  0  0
  1 39  1  0  0  0  0
  1 40  1  0  0  0  0
  1 41  1  0  0  0  0
  2  3  1  0  0  0  0
  3  4  2  0  0  0  0
  3  5  1  0  0  0  0
  5  6  1  0  0  0  0
  5 10  2  0  0  0  0
  6  7  2  0  0  0  0
  6 42  1  0  0  0  0
  7  8  1  0  0  0  0
  7 43  1  0  0  0  0
  8  9  2  0  0  0  0
  8 14  1  0  0  0  0
  9 10  1  0  0  0  0
  9 11  1  0  0  0  0
 10 44  1  0  0  0  0
 11 12  1  0  0  0  0
 11 45  1  0  0  0  0
 12 13  2  0  0  0  0
 12 14  1  0  0  0  0
 14 15  2  0  0  0  0
 15 16  1  0  0  0  0
 15 33  1  0  0  0  0
 16 17  1  0  0  0  0
 16 46  1  0  0  0  0
 17 18  1  0  0  0  0
 17 32  2  0  0  0  0
 18 19  2  0  0  0  0
 18 47  1  0  0  0  0
 19 20  1  0  0  0  0
 19 48  1  0  0  0  0
 20 21  1  0  0  0  0
 20 30  2  0  0  0  0
 21 22  1  0  0  0  0
 21 25  1  0  0  0  0
 22 23  2  0  0  0  0
 22 49  1  0  0  0  0
 23 24  1  0  0  0  0
 23 50  1  0  0  0  0
 24 25  2  0  0  0  0
 24 51  1  0  0  0  0
 25 26  1  0  0  0  0
 26 27  1  0  0  0  0
 26 52  1  0  0  0  0
 26 53  1  0  0  0  0
 27 28  1  0  0  0  0
 27 29  1  0  0  0  0
 28 54  1  0  0  0  0
 28 55  1  0  0  0  0
 28 56  1  0  0  0  0
 29 57  1  0  0  0  0
 29 58  1  0  0  0  0
 29 59  1  0  0  0  0
 30 31  1  0  0  0  0
 30 32  1  0  0  0  0
 31 60  1  0  0  0  0
 31 61  1  0  0  0  0
 31 62  1  0  0  0  0
 32 63  1  0  0  0  0
 33 34  1  0  0  0  0
 33 38  2  0  0  0  0
 34 35  2  0  0  0  0
 34 64  1  0  0  0  0
 35 36  1  0  0  0  0
 35 65  1  0  0  0  0
 36 37  2  0  0  0  0
 36 66  1  0  0  0  0
 37 38  1  0  0  0  0
 37 67  1  0  0  0  0
 38 68  1  0  0  0  0
M  END
$$$$
