CHEMBL3671562
 OpenBabel04072215373D

 54 57  0  0  0  0  0  0  0  0999 V2000
    3.1820   -3.8474    0.8202 C   0  0  0  0  0  0  0  0  0  0  0  0
    3.3197   -3.0792   -0.2676 C   0  0  0  0  0  0  0  0  0  0  0  0
    3.4884   -1.6073   -0.1180 C   0  0  0  0  0  0  0  0  0  0  0  0
    2.9697   -0.9833    0.8035 O   0  0  0  0  0  0  0  0  0  0  0  0
    4.3378   -0.9699   -1.0026 N   0  0  0  0  0  0  0  0  0  0  0  0
    5.1852   -1.6838   -1.8721 C   0  0  0  0  0  0  0  0  0  0  0  0
    6.2741   -2.3485   -1.3055 C   0  0  0  0  0  0  0  0  0  0  0  0
    6.9190   -3.3842   -2.0032 C   0  0  0  0  0  0  0  0  0  0  0  0
    7.8631   -4.2523   -1.4474 C   0  0  0  0  0  0  0  0  0  0  0  0
    8.1452   -4.1854   -0.0479 N   0  0  0  0  0  0  0  0  0  0  0  0
    8.7442   -5.2526    0.6664 C   0  0  0  0  0  0  0  0  0  0  0  0
    8.3137   -6.5707    0.4639 C   0  0  0  0  0  0  0  0  0  0  0  0
    9.0245   -7.6452    0.9945 C   0  0  0  0  0  0  0  0  0  0  0  0
   10.1571   -7.4044    1.7698 C   0  0  0  0  0  0  0  0  0  0  0  0
   11.2084   -8.8624    2.3509 Br  0  0  0  0  0  0  0  0  0  0  0  0
   10.5378   -6.1012    2.0791 C   0  0  0  0  0  0  0  0  0  0  0  0
    9.8232   -5.0362    1.5315 C   0  0  0  0  0  0  0  0  0  0  0  0
   10.2199   -3.7818    1.7981 F   0  0  0  0  0  0  0  0  0  0  0  0
    8.4494   -5.2257   -2.1686 N   0  0  0  0  0  0  0  0  0  0  0  0
    8.0450   -5.3706   -3.4275 C   0  0  0  0  0  0  0  0  0  0  0  0
    7.1014   -4.6510   -4.0417 N   0  0  0  0  0  0  0  0  0  0  0  0
    6.5377   -3.6695   -3.3321 C   0  0  0  0  0  0  0  0  0  0  0  0
    5.5083   -2.9250   -3.9079 C   0  0  0  0  0  0  0  0  0  0  0  0
    4.8361   -1.9163   -3.2080 C   0  0  0  0  0  0  0  0  0  0  0  0
    3.8495   -1.2693   -3.9173 O   0  0  0  0  0  0  0  0  0  0  0  0
    3.6432    0.1059   -3.5532 C   0  0  0  0  0  0  0  0  0  0  0  0
    3.2386    0.9568   -4.7629 C   0  0  0  0  0  0  0  0  0  0  0  0
    3.1284    2.3702   -4.4244 N   0  0  0  0  0  0  0  0  0  0  0  0
    4.2255    3.2063   -4.3379 C   0  0  0  0  0  0  0  0  0  0  0  0
    5.3545    2.8081   -4.6171 O   0  0  0  0  0  0  0  0  0  0  0  0
    3.9572    4.5737   -3.8950 C   0  0  0  0  0  0  0  0  0  0  0  0
    4.8634    5.6181   -3.8097 C   0  0  0  0  0  0  0  0  0  0  0  0
    4.2625    6.8372   -3.3784 C   0  0  0  0  0  0  0  0  0  0  0  0
    2.9211    6.6810   -3.1141 C   0  0  0  0  0  0  0  0  0  0  0  0
    2.3979    5.0762   -3.3807 S   0  0  0  0  0  0  0  0  0  0  0  0
    3.1507   -4.9282    0.7320 H   0  0  0  0  0  0  0  0  0  0  0  0
    3.1250   -3.4200    1.8175 H   0  0  0  0  0  0  0  0  0  0  0  0
    3.3985   -3.5240   -1.2509 H   0  0  0  0  0  0  0  0  0  0  0  0
    4.7507   -0.1811   -0.5156 H   0  0  0  0  0  0  0  0  0  0  0  0
    6.5483   -2.1317   -0.2758 H   0  0  0  0  0  0  0  0  0  0  0  0
    8.5169   -3.2802    0.2194 H   0  0  0  0  0  0  0  0  0  0  0  0
    7.4466   -6.7678   -0.1648 H   0  0  0  0  0  0  0  0  0  0  0  0
    8.7077   -8.6585    0.7610 H   0  0  0  0  0  0  0  0  0  0  0  0
   11.4037   -5.9010    2.7020 H   0  0  0  0  0  0  0  0  0  0  0  0
    8.5190   -6.1582   -4.0031 H   0  0  0  0  0  0  0  0  0  0  0  0
    5.2027   -3.1636   -4.9221 H   0  0  0  0  0  0  0  0  0  0  0  0
    4.5529    0.5442   -3.1263 H   0  0  0  0  0  0  0  0  0  0  0  0
    2.8366    0.1495   -2.8121 H   0  0  0  0  0  0  0  0  0  0  0  0
    2.2665    0.6346   -5.1523 H   0  0  0  0  0  0  0  0  0  0  0  0
    3.9674    0.8385   -5.5719 H   0  0  0  0  0  0  0  0  0  0  0  0
    2.2266    2.7484   -4.1603 H   0  0  0  0  0  0  0  0  0  0  0  0
    5.9114    5.5122   -4.0690 H   0  0  0  0  0  0  0  0  0  0  0  0
    4.7858    7.7798   -3.2697 H   0  0  0  0  0  0  0  0  0  0  0  0
    2.2206    7.4329   -2.7751 H   0  0  0  0  0  0  0  0  0  0  0  0
  1  2  2  0  0  0  0
  1 36  1  0  0  0  0
  1 37  1  0  0  0  0
  2  3  1  0  0  0  0
  2 38  1  0  0  0  0
  3  4  2  0  0  0  0
  3  5  1  0  0  0  0
  5  6  1  0  0  0  0
  5 39  1  0  0  0  0
  6  7  1  0  0  0  0
  6 24  2  0  0  0  0
  7  8  2  0  0  0  0
  7 40  1  0  0  0  0
  8  9  1  0  0  0  0
  8 22  1  0  0  0  0
  9 10  1  0  0  0  0
  9 19  2  0  0  0  0
 10 11  1  0  0  0  0
 10 41  1  0  0  0  0
 11 12  1  0  0  0  0
 11 17  2  0  0  0  0
 12 13  2  0  0  0  0
 12 42  1  0  0  0  0
 13 14  1  0  0  0  0
 13 43  1  0  0  0  0
 14 15  1  0  0  0  0
 14 16  2  0  0  0  0
 16 17  1  0  0  0  0
 16 44  1  0  0  0  0
 17 18  1  0  0  0  0
 19 20  1  0  0  0  0
 20 21  2  0  0  0  0
 20 45  1  0  0  0  0
 21 22  1  0  0  0  0
 22 23  2  0  0  0  0
 23 24  1  0  0  0  0
 23 46  1  0  0  0  0
 24 25  1  0  0  0  0
 25 26  1  0  0  0  0
 26 27  1  0  0  0  0
 26 47  1  0  0  0  0
 26 48  1  0  0  0  0
 27 28  1  0  0  0  0
 27 49  1  0  0  0  0
 27 50  1  0  0  0  0
 28 29  1  0  0  0  0
 28 51  1  0  0  0  0
 29 30  2  0  0  0  0
 29 31  1  0  0  0  0
 31 32  2  0  0  0  0
 31 35  1  0  0  0  0
 32 33  1  0  0  0  0
 32 52  1  0  0  0  0
 33 34  2  0  0  0  0
 33 53  1  0  0  0  0
 34 35  1  0  0  0  0
 34 54  1  0  0  0  0
M  END
$$$$
