CHEMBL3907215
 OpenBabel04072215373D

 55 58  0  0  1  0  0  0  0  0999 V2000
    2.7239   -1.2566   -0.5880 C   0  0  0  0  0  0  0  0  0  0  0  0
    2.5467   -0.0706    0.1741 O   0  0  0  0  0  0  0  0  0  0  0  0
    3.1649    1.0836   -0.2111 C   0  0  0  0  0  0  0  0  0  0  0  0
    4.2570    1.0697   -1.0766 C   0  0  0  0  0  0  0  0  0  0  0  0
    4.8251    2.2644   -1.5537 C   0  0  0  0  0  0  0  0  0  0  0  0
    5.8752    2.3024   -2.4802 C   0  0  0  0  0  0  0  0  0  0  0  0
    6.3679    1.0756   -3.0198 N   0  0  0  0  0  0  0  0  0  0  0  0
    7.5958    0.9307   -3.6960 C   0  0  0  0  0  0  0  0  0  0  0  0
    7.7235    0.0506   -4.7710 C   0  0  0  0  0  0  0  0  0  0  0  0
    8.9316   -0.0322   -5.4694 C   0  0  0  0  0  0  0  0  0  0  0  0
   10.0276    0.7528   -5.0914 C   0  0  0  0  0  0  0  0  0  0  0  0
   11.4555    0.6476   -6.0552 Cl  0  0  0  0  0  0  0  0  0  0  0  0
    9.9406    1.5938   -3.9788 C   0  0  0  0  0  0  0  0  0  0  0  0
   11.0340    2.4998   -3.4944 C   0  0  0  0  0  0  0  0  0  0  0  0
    8.7287    1.6367   -3.2753 C   0  0  0  0  0  0  0  0  0  0  0  0
    6.4166    3.4622   -2.8846 N   0  0  0  0  0  0  0  0  0  0  0  0
    5.9000    4.5832   -2.3731 C   0  0  0  0  0  0  0  0  0  0  0  0
    4.8850    4.6580   -1.5026 N   0  0  0  0  0  0  0  0  0  0  0  0
    4.3560    3.4996   -1.0948 C   0  0  0  0  0  0  0  0  0  0  0  0
    3.3095    3.5029   -0.1766 C   0  0  0  0  0  0  0  0  0  0  0  0
    2.7087    2.3207    0.2842 C   0  0  0  0  0  0  0  0  0  0  0  0
    1.7018    2.5434    1.2065 O   0  0  0  0  0  0  0  0  0  0  0  0
    1.2266    1.3778    1.8788 C   0  0  0  0  0  0  0  0  0  0  0  0
    0.3075    1.6584    3.0752 C   0  0  3  0  0  0  0  0  0  0  0  0
    1.0086    2.3773    4.2446 C   0  0  0  0  0  0  0  0  0  0  0  0
    2.0496    1.5327    4.8698 N   0  0  0  0  0  0  0  0  0  0  0  0
    2.6550    2.2181    6.0093 C   0  0  0  0  0  0  0  0  0  0  0  0
    1.4538    0.2487    5.2889 C   0  0  0  0  0  0  0  0  0  0  0  0
    0.7033   -0.4474    4.1429 C   0  0  0  0  0  0  0  0  0  0  0  0
   -0.2787    0.4179    3.5482 O   0  0  0  0  0  0  0  0  0  0  0  0
    3.4845   -1.8817   -0.1114 H   0  0  0  0  0  0  0  0  0  0  0  0
    2.9709   -1.0788   -1.6387 H   0  0  0  0  0  0  0  0  0  0  0  0
    1.7745   -1.7993   -0.5746 H   0  0  0  0  0  0  0  0  0  0  0  0
    4.6992    0.1266   -1.3767 H   0  0  0  0  0  0  0  0  0  0  0  0
    5.6094    0.5833   -3.4774 H   0  0  0  0  0  0  0  0  0  0  0  0
    6.8815   -0.5526   -5.1017 H   0  0  0  0  0  0  0  0  0  0  0  0
    9.0053   -0.6951   -6.3279 H   0  0  0  0  0  0  0  0  0  0  0  0
   11.9399    2.4529   -4.1002 H   0  0  0  0  0  0  0  0  0  0  0  0
   11.3029    2.2418   -2.4646 H   0  0  0  0  0  0  0  0  0  0  0  0
   10.6791    3.5371   -3.5138 H   0  0  0  0  0  0  0  0  0  0  0  0
    8.6568    2.2724   -2.3933 H   0  0  0  0  0  0  0  0  0  0  0  0
    6.3459    5.5163   -2.6972 H   0  0  0  0  0  0  0  0  0  0  0  0
    2.9544    4.4612    0.1975 H   0  0  0  0  0  0  0  0  0  0  0  0
    2.0858    0.8070    2.2417 H   0  0  0  0  0  0  0  0  0  0  0  0
    0.6416    0.7776    1.1716 H   0  0  0  0  0  0  0  0  0  0  0  0
   -0.5227    2.2900    2.7385 H   0  0  0  0  0  0  0  0  0  0  0  0
    0.2480    2.6286    4.9975 H   0  0  0  0  0  0  0  0  0  0  0  0
    1.4462    3.3166    3.8885 H   0  0  0  0  0  0  0  0  0  0  0  0
    3.1110    3.1623    5.6921 H   0  0  0  0  0  0  0  0  0  0  0  0
    3.4567    1.6081    6.4395 H   0  0  0  0  0  0  0  0  0  0  0  0
    1.9262    2.4360    6.7984 H   0  0  0  0  0  0  0  0  0  0  0  0
    0.7460    0.4143    6.1115 H   0  0  0  0  0  0  0  0  0  0  0  0
    2.2407   -0.4229    5.6517 H   0  0  0  0  0  0  0  0  0  0  0  0
    0.1804   -1.3268    4.5238 H   0  0  0  0  0  0  0  0  0  0  0  0
    1.3976   -0.8153    3.3747 H   0  0  0  0  0  0  0  0  0  0  0  0
  1  2  1  0  0  0  0
  1 31  1  0  0  0  0
  1 32  1  0  0  0  0
  1 33  1  0  0  0  0
  2  3  1  0  0  0  0
  3  4  1  0  0  0  0
  3 21  2  0  0  0  0
  4  5  2  0  0  0  0
  4 34  1  0  0  0  0
  5  6  1  0  0  0  0
  5 19  1  0  0  0  0
  6  7  1  0  0  0  0
  6 16  2  0  0  0  0
  7  8  1  0  0  0  0
  7 35  1  0  0  0  0
  8  9  1  0  0  0  0
  8 15  2  0  0  0  0
  9 10  2  0  0  0  0
  9 36  1  0  0  0  0
 10 11  1  0  0  0  0
 10 37  1  0  0  0  0
 11 12  1  0  0  0  0
 11 13  2  0  0  0  0
 13 14  1  0  0  0  0
 13 15  1  0  0  0  0
 14 38  1  0  0  0  0
 14 39  1  0  0  0  0
 14 40  1  0  0  0  0
 15 41  1  0  0  0  0
 16 17  1  0  0  0  0
 17 18  2  0  0  0  0
 17 42  1  0  0  0  0
 18 19  1  0  0  0  0
 19 20  2  0  0  0  0
 20 21  1  0  0  0  0
 20 43  1  0  0  0  0
 21 22  1  0  0  0  0
 22 23  1  0  0  0  0
 23 24  1  0  0  0  0
 23 44  1  0  0  0  0
 23 45  1  0  0  0  0
 24 25  1  0  0  0  0
 24 30  1  0  0  0  0
 24 46  1  0  0  0  0
 25 26  1  0  0  0  0
 25 47  1  0  0  0  0
 25 48  1  0  0  0  0
 26 27  1  0  0  0  0
 26 28  1  0  0  0  0
 27 49  1  0  0  0  0
 27 50  1  0  0  0  0
 27 51  1  0  0  0  0
 28 29  1  0  0  0  0
 28 52  1  0  0  0  0
 28 53  1  0  0  0  0
 29 30  1  0  0  0  0
 29 54  1  0  0  0  0
 29 55  1  0  0  0  0
M  END
$$$$
