CHEMBL4748292
 OpenBabel04072215383D

 46 47  0  0  1  0  0  0  0  0999 V2000
   22.1623   -4.4840    9.3767 C   0  0  0  0  0  0  0  0  0  0  0  0
   21.5789   -3.7186    8.2033 C   0  0  0  0  0  0  0  0  0  0  0  0
   21.5407   -1.9622    8.5124 S   0  0  3  0  0  0  0  0  0  0  0  0
   20.6337   -1.7062    9.7344 N   0  0  0  0  0  0  0  0  0  0  0  0
   22.9017   -1.4706    8.4181 O   0  0  0  0  0  0  0  0  0  0  0  0
   20.6679   -1.3276    7.0915 C   0  0  0  0  0  0  0  0  0  0  0  0
   19.2822   -1.1596    7.1432 C   0  0  0  0  0  0  0  0  0  0  0  0
   18.6075   -0.6210    6.0482 C   0  0  0  0  0  0  0  0  0  0  0  0
   19.2944   -0.2809    4.8794 C   0  0  0  0  0  0  0  0  0  0  0  0
   18.6249    0.2313    3.7693 N   0  0  0  0  0  0  0  0  0  0  0  0
   17.6688    1.2348    3.6822 C   0  0  0  0  0  0  0  0  0  0  0  0
   17.1148    1.4055    2.4713 N   0  0  0  0  0  0  0  0  0  0  0  0
   16.3660    2.5149    2.2902 C   0  0  0  0  0  0  0  0  0  0  0  0
   16.1536    3.4566    3.2669 C   0  0  0  0  0  0  0  0  0  0  0  0
   15.2769    5.0729    2.8759 Br  0  0  0  0  0  0  0  0  0  0  0  0
   16.6514    3.1222    4.5053 C   0  0  0  0  0  0  0  0  0  0  0  0
   16.4288    3.9708    5.5741 O   0  0  0  0  0  0  0  0  0  0  0  0
   16.0925    3.2564    6.7841 C   0  0  2  0  0  0  0  0  0  0  0  0
   14.5867    3.4097    7.0040 C   0  0  0  0  0  0  0  0  0  0  0  0
   16.8919    3.8411    7.9660 C   0  0  1  0  0  0  0  0  0  0  0  0
   18.3986    3.7349    7.7782 C   0  0  0  0  0  0  0  0  0  0  0  0
   16.5650    5.2237    8.1735 O   0  0  0  0  0  0  0  0  0  0  0  0
   17.4230    2.0392    4.7279 N   0  0  0  0  0  0  0  0  0  0  0  0
   20.6868   -0.4510    4.8426 C   0  0  0  0  0  0  0  0  0  0  0  0
   21.3794   -0.9586    5.9487 C   0  0  0  0  0  0  0  0  0  0  0  0
   22.2209   -5.5518    9.1460 H   0  0  0  0  0  0  0  0  0  0  0  0
   21.5422   -4.3674   10.2715 H   0  0  0  0  0  0  0  0  0  0  0  0
   23.1686   -4.1288    9.6203 H   0  0  0  0  0  0  0  0  0  0  0  0
   20.5566   -4.0530    8.0019 H   0  0  0  0  0  0  0  0  0  0  0  0
   22.1872   -3.8804    7.3076 H   0  0  0  0  0  0  0  0  0  0  0  0
   21.1354   -1.8921   10.6034 H   0  0  0  0  0  0  0  0  0  0  0  0
   18.7174   -1.4310    8.0320 H   0  0  0  0  0  0  0  0  0  0  0  0
   17.5295   -0.4925    6.1025 H   0  0  0  0  0  0  0  0  0  0  0  0
   18.7806   -0.2148    2.8788 H   0  0  0  0  0  0  0  0  0  0  0  0
   15.9560    2.6250    1.2905 H   0  0  0  0  0  0  0  0  0  0  0  0
   16.3149    2.1841    6.7305 H   0  0  0  0  0  0  0  0  0  0  0  0
   14.2964    4.4617    7.0961 H   0  0  0  0  0  0  0  0  0  0  0  0
   14.2675    2.8774    7.9052 H   0  0  0  0  0  0  0  0  0  0  0  0
   14.0323    3.0066    6.1496 H   0  0  0  0  0  0  0  0  0  0  0  0
   16.6131    3.3119    8.8858 H   0  0  0  0  0  0  0  0  0  0  0  0
   18.7316    4.2846    6.8921 H   0  0  0  0  0  0  0  0  0  0  0  0
   18.7102    2.6907    7.6845 H   0  0  0  0  0  0  0  0  0  0  0  0
   18.9198    4.1797    8.6333 H   0  0  0  0  0  0  0  0  0  0  0  0
   16.7355    5.6769    7.3291 H   0  0  0  0  0  0  0  0  0  0  0  0
   21.2487   -0.1420    3.9627 H   0  0  0  0  0  0  0  0  0  0  0  0
   22.4631   -1.0460    5.9109 H   0  0  0  0  0  0  0  0  0  0  0  0
  1  2  1  0  0  0  0
  1 26  1  0  0  0  0
  1 27  1  0  0  0  0
  1 28  1  0  0  0  0
  2  3  1  0  0  0  0
  2 29  1  0  0  0  0
  2 30  1  0  0  0  0
  3  4  2  0  0  0  0
  3  5  2  0  0  0  0
  3  6  1  0  0  0  0
  4 31  1  0  0  0  0
  6  7  1  0  0  0  0
  6 25  2  0  0  0  0
  7  8  2  0  0  0  0
  7 32  1  0  0  0  0
  8  9  1  0  0  0  0
  8 33  1  0  0  0  0
  9 10  1  0  0  0  0
  9 24  2  0  0  0  0
 10 11  1  0  0  0  0
 10 34  1  0  0  0  0
 11 12  1  0  0  0  0
 11 23  2  0  0  0  0
 12 13  2  0  0  0  0
 13 14  1  0  0  0  0
 13 35  1  0  0  0  0
 14 15  1  0  0  0  0
 14 16  2  0  0  0  0
 16 17  1  0  0  0  0
 16 23  1  0  0  0  0
 18 20  1  0  0  0  0
 18 19  1  0  0  0  0
 18 17  1  0  0  0  0
 18 36  1  6  0  0  0
 19 37  1  0  0  0  0
 19 38  1  0  0  0  0
 19 39  1  0  0  0  0
 20 21  1  0  0  0  0
 20 22  1  0  0  0  0
 20 40  1  1  0  0  0
 21 41  1  0  0  0  0
 21 42  1  0  0  0  0
 21 43  1  0  0  0  0
 22 44  1  0  0  0  0
 24 25  1  0  0  0  0
 24 45  1  0  0  0  0
 25 46  1  0  0  0  0
M  END
$$$$
