CHEMBL489329
 OpenBabel04072215383D

 42 45  0  0  0  0  0  0  0  0999 V2000
    3.8021    0.8733   -3.9918 Cl  0  0  0  0  0  0  0  0  0  0  0  0
    2.6535    0.0736   -2.9894 C   0  0  0  0  0  0  0  0  0  0  0  0
    1.3028    0.4037   -3.0887 C   0  0  0  0  0  0  0  0  0  0  0  0
    0.3713   -0.2509   -2.2864 C   0  0  0  0  0  0  0  0  0  0  0  0
    0.7903   -1.2365   -1.3872 C   0  0  0  0  0  0  0  0  0  0  0  0
    2.1539   -1.5677   -1.2868 C   0  0  0  0  0  0  0  0  0  0  0  0
    2.5659   -2.5920   -0.3992 N   0  0  0  0  0  0  0  0  0  0  0  0
    3.8378   -3.0415   -0.1297 C   0  0  0  0  0  0  0  0  0  0  0  0
    3.6627   -4.1406    0.6777 C   0  0  0  0  0  0  0  0  0  0  0  0
    4.6746   -5.0307    1.2316 C   0  0  0  0  0  0  0  0  0  0  0  0
    4.4099   -5.5260    2.5279 C   0  0  0  0  0  0  0  0  0  0  0  0
    5.2656   -6.4279    3.1535 C   0  0  0  0  0  0  0  0  0  0  0  0
    6.4138   -6.8391    2.4986 C   0  0  0  0  0  0  0  0  0  0  0  0
    6.7018   -6.3488    1.2220 C   0  0  0  0  0  0  0  0  0  0  0  0
    5.8330   -5.4728    0.5359 C   0  0  0  0  0  0  0  0  0  0  0  0
    6.1868   -4.9764   -0.7418 N   0  0  0  0  0  0  0  0  0  0  0  0
    6.9499   -5.8534   -1.6302 C   0  0  0  0  0  0  0  0  0  0  0  0
    7.2539   -5.1475   -2.9227 C   0  0  0  0  0  0  0  0  0  0  0  0
    8.1264   -4.0547   -2.9699 C   0  0  0  0  0  0  0  0  0  0  0  0
    8.4261   -3.4607   -4.1923 C   0  0  0  0  0  0  0  0  0  0  0  0
    7.8363   -3.9779   -5.3331 C   0  0  0  0  0  0  0  0  0  0  0  0
    6.9862   -5.0271   -5.3284 N   0  0  0  0  0  0  0  0  0  0  0  0
    6.7172   -5.5877   -4.1275 C   0  0  0  0  0  0  0  0  0  0  0  0
    2.3261   -4.2755    0.9517 N   0  0  0  0  0  0  0  0  0  0  0  0
    1.6697   -3.3234    0.3065 N   0  0  0  0  0  0  0  0  0  0  0  0
    3.0861   -0.9016   -2.0919 C   0  0  0  0  0  0  0  0  0  0  0  0
    0.9711    1.1657   -3.7902 H   0  0  0  0  0  0  0  0  0  0  0  0
   -0.6851    0.0034   -2.3606 H   0  0  0  0  0  0  0  0  0  0  0  0
    0.0405   -1.7386   -0.7769 H   0  0  0  0  0  0  0  0  0  0  0  0
    4.7252   -2.5719   -0.5240 H   0  0  0  0  0  0  0  0  0  0  0  0
    3.5160   -5.2050    3.0626 H   0  0  0  0  0  0  0  0  0  0  0  0
    5.0358   -6.7992    4.1481 H   0  0  0  0  0  0  0  0  0  0  0  0
    7.0956   -7.5369    2.9774 H   0  0  0  0  0  0  0  0  0  0  0  0
    7.6356   -6.6785    0.7784 H   0  0  0  0  0  0  0  0  0  0  0  0
    5.3690   -4.6220   -1.2297 H   0  0  0  0  0  0  0  0  0  0  0  0
    6.3754   -6.7679   -1.8230 H   0  0  0  0  0  0  0  0  0  0  0  0
    7.9130   -6.1465   -1.1989 H   0  0  0  0  0  0  0  0  0  0  0  0
    8.5792   -3.6750   -2.0564 H   0  0  0  0  0  0  0  0  0  0  0  0
    9.1069   -2.6191   -4.2544 H   0  0  0  0  0  0  0  0  0  0  0  0
    8.0395   -3.5511   -6.3112 H   0  0  0  0  0  0  0  0  0  0  0  0
    6.0401   -6.4370   -4.1703 H   0  0  0  0  0  0  0  0  0  0  0  0
    4.1458   -1.1356   -2.0579 H   0  0  0  0  0  0  0  0  0  0  0  0
  1  2  1  0  0  0  0
  2  3  1  0  0  0  0
  2 26  2  0  0  0  0
  3  4  2  0  0  0  0
  3 27  1  0  0  0  0
  4  5  1  0  0  0  0
  4 28  1  0  0  0  0
  5  6  2  0  0  0  0
  5 29  1  0  0  0  0
  6  7  1  0  0  0  0
  6 26  1  0  0  0  0
  7  8  1  0  0  0  0
  7 25  1  0  0  0  0
  8  9  2  0  0  0  0
  8 30  1  0  0  0  0
  9 10  1  0  0  0  0
  9 24  1  0  0  0  0
 10 11  1  0  0  0  0
 10 15  2  0  0  0  0
 11 12  2  0  0  0  0
 11 31  1  0  0  0  0
 12 13  1  0  0  0  0
 12 32  1  0  0  0  0
 13 14  2  0  0  0  0
 13 33  1  0  0  0  0
 14 15  1  0  0  0  0
 14 34  1  0  0  0  0
 15 16  1  0  0  0  0
 16 17  1  0  0  0  0
 16 35  1  0  0  0  0
 17 18  1  0  0  0  0
 17 36  1  0  0  0  0
 17 37  1  0  0  0  0
 18 19  1  0  0  0  0
 18 23  2  0  0  0  0
 19 20  2  0  0  0  0
 19 38  1  0  0  0  0
 20 21  1  0  0  0  0
 20 39  1  0  0  0  0
 21 22  2  0  0  0  0
 21 40  1  0  0  0  0
 22 23  1  0  0  0  0
 23 41  1  0  0  0  0
 24 25  2  0  0  0  0
 26 42  1  0  0  0  0
M  END
$$$$
