CHEMBL45405
 OpenBabel04072215383D

 45 48  0  0  0  0  0  0  0  0999 V2000
   -2.4412   -5.4836   -3.6352 C   0  0  0  0  0  0  0  0  0  0  0  0
   -2.4706   -4.6500   -2.3905 C   0  0  0  0  0  0  0  0  0  0  0  0
   -3.6613   -4.1815   -1.8389 C   0  0  0  0  0  0  0  0  0  0  0  0
   -3.6421   -3.4129   -0.6695 C   0  0  0  0  0  0  0  0  0  0  0  0
   -4.9213   -2.8943   -0.0809 C   0  0  0  0  0  0  0  0  0  0  0  0
   -2.4109   -3.1404   -0.0446 C   0  0  0  0  0  0  0  0  0  0  0  0
   -1.1983   -3.6255   -0.5629 C   0  0  0  0  0  0  0  0  0  0  0  0
    0.0052   -3.3690    0.1140 N   0  0  0  0  0  0  0  0  0  0  0  0
    1.2664   -3.9497   -0.0220 C   0  0  0  0  0  0  0  0  0  0  0  0
    1.5729   -4.7259   -1.0685 N   0  0  0  0  0  0  0  0  0  0  0  0
    2.7782   -5.3099   -1.1049 C   0  0  0  0  0  0  0  0  0  0  0  0
    3.7154   -5.1502   -0.1226 C   0  0  0  0  0  0  0  0  0  0  0  0
    3.3159   -4.3732    0.9404 C   0  0  0  0  0  0  0  0  0  0  0  0
    4.1599   -4.2888    2.0832 N   0  0  0  0  0  0  0  0  0  0  0  0
    5.5375   -4.3426    2.0647 C   0  0  0  0  0  0  0  0  0  0  0  0
    5.9385   -4.0935    3.3513 C   0  0  0  0  0  0  0  0  0  0  0  0
    4.8572   -3.9741    4.1755 N   0  0  0  0  0  0  0  0  0  0  0  0
    3.7810   -4.1509    3.4214 C   0  0  0  0  0  0  0  0  0  0  0  0
    2.4209   -4.2525    3.9805 C   0  0  0  0  0  0  0  0  0  0  0  0
    1.4312   -5.0884    3.4468 C   0  0  0  0  0  0  0  0  0  0  0  0
    0.1400   -5.0951    3.9638 C   0  0  0  0  0  0  0  0  0  0  0  0
   -0.1404   -4.3177    5.0789 C   0  0  0  0  0  0  0  0  0  0  0  0
    0.8377   -3.5481    5.6850 N   0  3  0  0  0  0  0  0  0  0  0  0
    0.5646   -2.8704    6.7228 O   0  5  0  0  0  0  0  0  0  0  0  0
    2.1047   -3.5221    5.1292 C   0  0  0  0  0  0  0  0  0  0  0  0
    2.1162   -3.7505    0.9922 N   0  0  0  0  0  0  0  0  0  0  0  0
   -1.2607   -4.3507   -1.7552 C   0  0  0  0  0  0  0  0  0  0  0  0
   -3.4459   -5.6484   -4.0334 H   0  0  0  0  0  0  0  0  0  0  0  0
   -1.9986   -6.4624   -3.4176 H   0  0  0  0  0  0  0  0  0  0  0  0
   -1.8439   -4.9875   -4.4071 H   0  0  0  0  0  0  0  0  0  0  0  0
   -4.6071   -4.4138   -2.3236 H   0  0  0  0  0  0  0  0  0  0  0  0
   -5.7867   -3.1786   -0.6895 H   0  0  0  0  0  0  0  0  0  0  0  0
   -4.8970   -1.8015   -0.0271 H   0  0  0  0  0  0  0  0  0  0  0  0
   -5.0694   -3.3045    0.9225 H   0  0  0  0  0  0  0  0  0  0  0  0
   -2.4101   -2.5481    0.8703 H   0  0  0  0  0  0  0  0  0  0  0  0
   -0.0644   -2.8966    1.0062 H   0  0  0  0  0  0  0  0  0  0  0  0
    2.9506   -5.9552   -1.9605 H   0  0  0  0  0  0  0  0  0  0  0  0
    4.6522   -5.6890   -0.1683 H   0  0  0  0  0  0  0  0  0  0  0  0
    6.1097   -4.4603    1.1551 H   0  0  0  0  0  0  0  0  0  0  0  0
    6.9496   -3.9927    3.7253 H   0  0  0  0  0  0  0  0  0  0  0  0
    1.6392   -5.7350    2.5973 H   0  0  0  0  0  0  0  0  0  0  0  0
   -0.6359   -5.6996    3.5014 H   0  0  0  0  0  0  0  0  0  0  0  0
   -1.1015   -4.2536    5.5648 H   0  0  0  0  0  0  0  0  0  0  0  0
    2.7938   -2.8888    5.6681 H   0  0  0  0  0  0  0  0  0  0  0  0
   -0.3538   -4.7149   -2.2268 H   0  0  0  0  0  0  0  0  0  0  0  0
  1  2  1  0  0  0  0
  1 28  1  0  0  0  0
  1 29  1  0  0  0  0
  1 30  1  0  0  0  0
  2  3  1  0  0  0  0
  2 27  2  0  0  0  0
  3  4  2  0  0  0  0
  3 31  1  0  0  0  0
  4  5  1  0  0  0  0
  4  6  1  0  0  0  0
  5 32  1  0  0  0  0
  5 33  1  0  0  0  0
  5 34  1  0  0  0  0
  6  7  2  0  0  0  0
  6 35  1  0  0  0  0
  7  8  1  0  0  0  0
  7 27  1  0  0  0  0
  8  9  1  0  0  0  0
  8 36  1  0  0  0  0
  9 10  1  0  0  0  0
  9 26  2  0  0  0  0
 10 11  2  0  0  0  0
 11 12  1  0  0  0  0
 11 37  1  0  0  0  0
 12 13  2  0  0  0  0
 12 38  1  0  0  0  0
 13 14  1  0  0  0  0
 13 26  1  0  0  0  0
 14 15  1  0  0  0  0
 14 18  1  0  0  0  0
 15 16  2  0  0  0  0
 15 39  1  0  0  0  0
 16 17  1  0  0  0  0
 16 40  1  0  0  0  0
 17 18  2  0  0  0  0
 18 19  1  0  0  0  0
 19 20  1  0  0  0  0
 19 25  2  0  0  0  0
 20 21  2  0  0  0  0
 20 41  1  0  0  0  0
 21 22  1  0  0  0  0
 21 42  1  0  0  0  0
 22 23  2  0  0  0  0
 22 43  1  0  0  0  0
 23 24  1  0  0  0  0
 23 25  1  0  0  0  0
 25 44  1  0  0  0  0
 27 45  1  0  0  0  0
M  CHG  2  23   1  24  -1
M  END
$$$$
