CHEMBL1241945
 OpenBabel04072215363D

 35 37  0  0  0  0  0  0  0  0999 V2000
    3.6219    0.7327    0.5523 C   0  0  0  0  0  0  0  0  0  0  0  0
    2.4528   -0.0677   -0.0217 C   0  0  0  0  0  0  0  0  0  0  0  0
    1.6939    0.7377   -1.0765 C   0  0  0  0  0  0  0  0  0  0  0  0
    2.8761   -1.3600   -0.5490 N   0  0  0  0  0  0  0  0  0  0  0  0
    3.7576   -1.4272   -1.5697 N   0  0  0  0  0  0  0  0  0  0  0  0
    3.8260   -2.7383   -1.8739 C   0  0  0  0  0  0  0  0  0  0  0  0
    4.6402   -3.1736   -3.0176 C   0  0  0  0  0  0  0  0  0  0  0  0
    4.2650   -4.2754   -3.8016 C   0  0  0  0  0  0  0  0  0  0  0  0
    5.0526   -4.7064   -4.8752 C   0  0  0  0  0  0  0  0  0  0  0  0
    6.1988   -3.9980   -5.2099 C   0  0  0  0  0  0  0  0  0  0  0  0
    6.9732   -4.3862   -6.2651 O   0  0  0  0  0  0  0  0  0  0  0  0
    6.5579   -2.8722   -4.4718 C   0  0  0  0  0  0  0  0  0  0  0  0
    7.6456   -2.1628   -4.8079 F   0  0  0  0  0  0  0  0  0  0  0  0
    5.7950   -2.4625   -3.3792 C   0  0  0  0  0  0  0  0  0  0  0  0
    3.0267   -3.5177   -0.9710 C   0  0  0  0  0  0  0  0  0  0  0  0
    2.6993   -4.8611   -0.7224 C   0  0  0  0  0  0  0  0  0  0  0  0
    3.2215   -5.9607   -1.3912 N   0  0  0  0  0  0  0  0  0  0  0  0
    1.8172   -5.1475    0.2567 N   0  0  0  0  0  0  0  0  0  0  0  0
    1.2930   -4.1362    0.9700 C   0  0  0  0  0  0  0  0  0  0  0  0
    1.5416   -2.8260    0.8429 N   0  0  0  0  0  0  0  0  0  0  0  0
    2.4183   -2.5835   -0.1484 C   0  0  0  0  0  0  0  0  0  0  0  0
    3.2628    1.6604    1.0118 H   0  0  0  0  0  0  0  0  0  0  0  0
    4.3493    1.0005   -0.2209 H   0  0  0  0  0  0  0  0  0  0  0  0
    4.1475    0.1586    1.3235 H   0  0  0  0  0  0  0  0  0  0  0  0
    1.7589   -0.2726    0.8031 H   0  0  0  0  0  0  0  0  0  0  0  0
    2.3277    0.9730   -1.9385 H   0  0  0  0  0  0  0  0  0  0  0  0
    1.3306    1.6819   -0.6569 H   0  0  0  0  0  0  0  0  0  0  0  0
    0.8278    0.1768   -1.4440 H   0  0  0  0  0  0  0  0  0  0  0  0
    3.3373   -4.8080   -3.6026 H   0  0  0  0  0  0  0  0  0  0  0  0
    4.7430   -5.5834   -5.4361 H   0  0  0  0  0  0  0  0  0  0  0  0
    6.5640   -5.1484   -6.6998 H   0  0  0  0  0  0  0  0  0  0  0  0
    6.1047   -1.5795   -2.8279 H   0  0  0  0  0  0  0  0  0  0  0  0
    4.2020   -5.8755   -1.6254 H   0  0  0  0  0  0  0  0  0  0  0  0
    2.9746   -6.8088   -0.8887 H   0  0  0  0  0  0  0  0  0  0  0  0
    0.5825   -4.4164    1.7412 H   0  0  0  0  0  0  0  0  0  0  0  0
  1  2  1  0  0  0  0
  1 22  1  0  0  0  0
  1 23  1  0  0  0  0
  1 24  1  0  0  0  0
  2  3  1  0  0  0  0
  2  4  1  0  0  0  0
  2 25  1  0  0  0  0
  3 26  1  0  0  0  0
  3 27  1  0  0  0  0
  3 28  1  0  0  0  0
  4  5  1  0  0  0  0
  4 21  1  0  0  0  0
  5  6  2  0  0  0  0
  6  7  1  0  0  0  0
  6 15  1  0  0  0  0
  7  8  1  0  0  0  0
  7 14  2  0  0  0  0
  8  9  2  0  0  0  0
  8 29  1  0  0  0  0
  9 10  1  0  0  0  0
  9 30  1  0  0  0  0
 10 11  1  0  0  0  0
 10 12  2  0  0  0  0
 11 31  1  0  0  0  0
 12 13  1  0  0  0  0
 12 14  1  0  0  0  0
 14 32  1  0  0  0  0
 15 16  1  0  0  0  0
 15 21  2  0  0  0  0
 16 17  1  0  0  0  0
 16 18  2  0  0  0  0
 17 33  1  0  0  0  0
 17 34  1  0  0  0  0
 18 19  1  0  0  0  0
 19 20  2  0  0  0  0
 19 35  1  0  0  0  0
 20 21  1  0  0  0  0
M  END
$$$$
