CHEMBL3690464
 OpenBabel04072215373D

 50 53  0  0  0  0  0  0  0  0999 V2000
    5.1248   -2.2688    2.1915 C   0  0  0  0  0  0  0  0  0  0  0  0
    3.8125   -1.7903    2.4733 O   0  0  0  0  0  0  0  0  0  0  0  0
    3.7251   -0.4130    2.4507 C   0  0  0  0  0  0  0  0  0  0  0  0
    2.4792    0.1339    2.6992 C   0  0  0  0  0  0  0  0  0  0  0  0
    2.3622    1.5181    2.7225 C   0  0  0  0  0  0  0  0  0  0  0  0
    3.4946    2.3015    2.5160 C   0  0  0  0  0  0  0  0  0  0  0  0
    4.7155    1.6721    2.2828 C   0  0  0  0  0  0  0  0  0  0  0  0
    6.0022    2.4116    2.2135 C   0  0  0  0  0  0  0  0  0  0  0  0
    7.2391    1.7840    2.7027 C   0  0  0  0  0  0  0  0  0  0  0  0
    8.3954    2.4605    2.6902 C   0  0  0  0  0  0  0  0  0  0  0  0
    8.4292    3.7528    2.1725 N   0  0  0  0  0  0  0  0  0  0  0  0
    9.4886    4.6308    1.9937 C   0  0  0  0  0  0  0  0  0  0  0  0
   10.9121    4.3566    2.2232 C   0  0  0  0  0  0  0  0  0  0  0  0
   11.7319    5.3825    2.7076 C   0  0  0  0  0  0  0  0  0  0  0  0
   13.0988    5.1799    2.8624 C   0  0  0  0  0  0  0  0  0  0  0  0
   13.6595    3.9368    2.5743 C   0  0  0  0  0  0  0  0  0  0  0  0
   12.8667    2.8780    2.1302 C   0  0  0  0  0  0  0  0  0  0  0  0
   13.3717    1.5769    1.8855 N   0  0  0  0  0  0  0  0  0  0  0  0
   14.6678    1.1612    2.0692 C   0  0  0  0  0  0  0  0  0  0  0  0
   15.6031    1.8333    2.4889 O   0  0  0  0  0  0  0  0  0  0  0  0
   14.8744   -0.1438    1.6851 N   0  0  0  0  0  0  0  0  0  0  0  0
   16.2326   -0.6905    1.8235 C   0  0  0  0  0  0  0  0  0  0  0  0
   16.6638   -1.0915    3.2432 C   0  0  0  0  0  0  0  0  0  0  0  0
   15.6307   -1.0601    4.1163 F   0  0  0  0  0  0  0  0  0  0  0  0
   17.1291   -2.3669    3.2369 F   0  0  0  0  0  0  0  0  0  0  0  0
   17.6511   -0.3096    3.7257 F   0  0  0  0  0  0  0  0  0  0  0  0
   11.4998    3.1120    1.9192 C   0  0  0  0  0  0  0  0  0  0  0  0
    8.8766    5.8006    1.5644 C   0  0  0  0  0  0  0  0  0  0  0  0
    7.5287    5.6483    1.3862 N   0  0  0  0  0  0  0  0  0  0  0  0
    7.2823    4.4023    1.7222 C   0  0  0  0  0  0  0  0  0  0  0  0
    6.0571    3.6747    1.7267 C   0  0  0  0  0  0  0  0  0  0  0  0
    4.8336    0.3223    2.2378 N   0  0  0  0  0  0  0  0  0  0  0  0
    5.1179   -3.3563    2.3121 H   0  0  0  0  0  0  0  0  0  0  0  0
    5.8651   -1.8672    2.8933 H   0  0  0  0  0  0  0  0  0  0  0  0
    5.4061   -2.0468    1.1562 H   0  0  0  0  0  0  0  0  0  0  0  0
    1.6239   -0.5047    2.8858 H   0  0  0  0  0  0  0  0  0  0  0  0
    1.4039    1.9856    2.9289 H   0  0  0  0  0  0  0  0  0  0  0  0
    3.4147    3.3812    2.5846 H   0  0  0  0  0  0  0  0  0  0  0  0
    7.1895    0.7691    3.0865 H   0  0  0  0  0  0  0  0  0  0  0  0
    9.3074    2.0349    3.0820 H   0  0  0  0  0  0  0  0  0  0  0  0
   11.3188    6.3560    2.9618 H   0  0  0  0  0  0  0  0  0  0  0  0
   13.7364    5.9888    3.2087 H   0  0  0  0  0  0  0  0  0  0  0  0
   14.7318    3.8381    2.7021 H   0  0  0  0  0  0  0  0  0  0  0  0
   12.7179    0.8854    1.5526 H   0  0  0  0  0  0  0  0  0  0  0  0
   14.1075   -0.7871    1.8194 H   0  0  0  0  0  0  0  0  0  0  0  0
   16.9434    0.0493    1.4341 H   0  0  0  0  0  0  0  0  0  0  0  0
   16.2814   -1.5603    1.1615 H   0  0  0  0  0  0  0  0  0  0  0  0
   10.8899    2.3193    1.4953 H   0  0  0  0  0  0  0  0  0  0  0  0
    9.3548    6.7471    1.3435 H   0  0  0  0  0  0  0  0  0  0  0  0
    5.1902    4.1937    1.3344 H   0  0  0  0  0  0  0  0  0  0  0  0
  1  2  1  0  0  0  0
  1 33  1  0  0  0  0
  1 34  1  0  0  0  0
  1 35  1  0  0  0  0
  2  3  1  0  0  0  0
  3  4  1  0  0  0  0
  3 32  2  0  0  0  0
  4  5  2  0  0  0  0
  4 36  1  0  0  0  0
  5  6  1  0  0  0  0
  5 37  1  0  0  0  0
  6  7  2  0  0  0  0
  6 38  1  0  0  0  0
  7  8  1  0  0  0  0
  7 32  1  0  0  0  0
  8  9  1  0  0  0  0
  8 31  2  0  0  0  0
  9 10  2  0  0  0  0
  9 39  1  0  0  0  0
 10 11  1  0  0  0  0
 10 40  1  0  0  0  0
 11 12  1  0  0  0  0
 11 30  1  0  0  0  0
 12 13  1  0  0  0  0
 12 28  2  0  0  0  0
 13 14  1  0  0  0  0
 13 27  2  0  0  0  0
 14 15  2  0  0  0  0
 14 41  1  0  0  0  0
 15 16  1  0  0  0  0
 15 42  1  0  0  0  0
 16 17  2  0  0  0  0
 16 43  1  0  0  0  0
 17 18  1  0  0  0  0
 17 27  1  0  0  0  0
 18 19  1  0  0  0  0
 18 44  1  0  0  0  0
 19 20  2  0  0  0  0
 19 21  1  0  0  0  0
 21 22  1  0  0  0  0
 21 45  1  0  0  0  0
 22 23  1  0  0  0  0
 22 46  1  0  0  0  0
 22 47  1  0  0  0  0
 23 24  1  0  0  0  0
 23 25  1  0  0  0  0
 23 26  1  0  0  0  0
 27 48  1  0  0  0  0
 28 29  1  0  0  0  0
 28 49  1  0  0  0  0
 29 30  2  0  0  0  0
 30 31  1  0  0  0  0
 31 50  1  0  0  0  0
M  END
$$$$
