CHEMBL3965160
 OpenBabel04072215373D

 63 67  0  0  1  0  0  0  0  0999 V2000
    0.3852    1.7144   -0.2508 C   0  0  0  0  0  0  0  0  0  0  0  0
    1.6417    1.0367   -0.2868 O   0  0  0  0  0  0  0  0  0  0  0  0
    2.5680    1.4270    0.6451 C   0  0  0  0  0  0  0  0  0  0  0  0
    3.7861    1.8399    0.0947 C   0  0  0  0  0  0  0  0  0  0  0  0
    4.9023    2.1847    0.8972 C   0  0  0  0  0  0  0  0  0  0  0  0
    6.1611    2.5724    0.4097 C   0  0  0  0  0  0  0  0  0  0  0  0
    6.3623    2.6988   -0.9962 N   0  0  0  0  0  0  0  0  0  0  0  0
    7.6365    2.7807   -1.6034 C   0  0  0  0  0  0  0  0  0  0  0  0
    8.6347    1.8511   -1.2788 C   0  0  0  0  0  0  0  0  0  0  0  0
    9.9260    1.9699   -1.7934 C   0  0  0  0  0  0  0  0  0  0  0  0
   10.2376    3.0233   -2.6515 C   0  0  0  0  0  0  0  0  0  0  0  0
   11.8690    3.1515   -3.2048 Cl  0  0  0  0  0  0  0  0  0  0  0  0
    9.2413    3.9352   -3.0183 C   0  0  0  0  0  0  0  0  0  0  0  0
    9.5546    5.2598   -4.0857 Cl  0  0  0  0  0  0  0  0  0  0  0  0
    7.9430    3.8071   -2.5038 C   0  0  0  0  0  0  0  0  0  0  0  0
    7.1959    2.8261    1.2303 N   0  0  0  0  0  0  0  0  0  0  0  0
    6.9691    2.7187    2.5383 C   0  0  0  0  0  0  0  0  0  0  0  0
    5.8048    2.3881    3.1090 N   0  0  0  0  0  0  0  0  0  0  0  0
    4.7823    2.1137    2.2926 C   0  0  0  0  0  0  0  0  0  0  0  0
    3.5550    1.7056    2.8297 C   0  0  0  0  0  0  0  0  0  0  0  0
    2.4593    1.3311    2.0333 C   0  0  0  0  0  0  0  0  0  0  0  0
    1.3654    0.9131    2.7487 O   0  0  0  0  0  0  0  0  0  0  0  0
    0.7030   -0.2540    2.2467 C   0  0  0  0  0  0  0  0  0  0  0  0
   -0.5372   -0.6066    3.0777 C   0  0  3  0  0  0  0  0  0  0  0  0
   -0.1791   -1.2698    4.2843 O   0  0  0  0  0  0  0  0  0  0  0  0
   -0.0624   -0.3442    5.3580 C   0  0  0  0  0  0  0  0  0  0  0  0
   -1.4049    0.3400    5.6065 C   0  0  0  0  0  0  0  0  0  0  0  0
   -2.0055    0.9072    4.3981 N   0  0  0  0  0  0  0  0  0  0  0  0
   -3.1122    1.8559    4.5428 C   0  0  0  0  0  0  0  0  0  0  0  0
   -2.6607    3.2258    5.0568 C   0  0  0  0  0  0  0  0  0  0  0  0
   -1.5118    3.4392    5.4440 O   0  0  0  0  0  0  0  0  0  0  0  0
   -3.6704    4.3210    5.1633 C   0  0  0  0  0  0  0  0  0  0  0  0
   -5.0063    4.1779    4.7609 C   0  0  0  0  0  0  0  0  0  0  0  0
   -5.8926    5.2586    4.8767 C   0  0  0  0  0  0  0  0  0  0  0  0
   -5.4575    6.4774    5.3958 C   0  0  0  0  0  0  0  0  0  0  0  0
   -4.1330    6.6258    5.8059 C   0  0  0  0  0  0  0  0  0  0  0  0
   -3.2460    5.5497    5.6949 C   0  0  0  0  0  0  0  0  0  0  0  0
   -1.5220    0.5905    3.1375 C   0  0  0  0  0  0  0  0  0  0  0  0
   -1.9069    1.1647    2.1165 O   0  0  0  0  0  0  0  0  0  0  0  0
    0.3016    2.3617   -1.1257 H   0  0  0  0  0  0  0  0  0  0  0  0
    0.2100    2.2922    0.6610 H   0  0  0  0  0  0  0  0  0  0  0  0
   -0.3999    0.9549   -0.3525 H   0  0  0  0  0  0  0  0  0  0  0  0
    3.8773    1.8551   -0.9903 H   0  0  0  0  0  0  0  0  0  0  0  0
    5.6974    3.3669   -1.3721 H   0  0  0  0  0  0  0  0  0  0  0  0
    8.4088    1.0339   -0.5965 H   0  0  0  0  0  0  0  0  0  0  0  0
   10.6828    1.2466   -1.5015 H   0  0  0  0  0  0  0  0  0  0  0  0
    7.1864    4.5359   -2.7818 H   0  0  0  0  0  0  0  0  0  0  0  0
    7.8092    2.9165    3.1954 H   0  0  0  0  0  0  0  0  0  0  0  0
    3.4775    1.6443    3.9148 H   0  0  0  0  0  0  0  0  0  0  0  0
    1.4074   -1.0936    2.2315 H   0  0  0  0  0  0  0  0  0  0  0  0
    0.3409   -0.0976    1.2432 H   0  0  0  0  0  0  0  0  0  0  0  0
   -1.0808   -1.3683    2.5026 H   0  0  0  0  0  0  0  0  0  0  0  0
    0.7293    0.3792    5.1409 H   0  0  0  0  0  0  0  0  0  0  0  0
    0.2405   -0.9058    6.2469 H   0  0  0  0  0  0  0  0  0  0  0  0
   -1.2585    1.1318    6.3471 H   0  0  0  0  0  0  0  0  0  0  0  0
   -2.1287   -0.3750    6.0108 H   0  0  0  0  0  0  0  0  0  0  0  0
   -3.8366    1.4208    5.2414 H   0  0  0  0  0  0  0  0  0  0  0  0
   -3.5963    1.9973    3.5715 H   0  0  0  0  0  0  0  0  0  0  0  0
   -5.3851    3.2480    4.3486 H   0  0  0  0  0  0  0  0  0  0  0  0
   -6.9262    5.1494    4.5546 H   0  0  0  0  0  0  0  0  0  0  0  0
   -6.1447    7.3156    5.4729 H   0  0  0  0  0  0  0  0  0  0  0  0
   -3.7896    7.5726    6.2124 H   0  0  0  0  0  0  0  0  0  0  0  0
   -2.2123    5.6872    6.0137 H   0  0  0  0  0  0  0  0  0  0  0  0
  1  2  1  0  0  0  0
  1 40  1  0  0  0  0
  1 41  1  0  0  0  0
  1 42  1  0  0  0  0
  2  3  1  0  0  0  0
  3  4  1  0  0  0  0
  3 21  2  0  0  0  0
  4  5  2  0  0  0  0
  4 43  1  0  0  0  0
  5  6  1  0  0  0  0
  5 19  1  0  0  0  0
  6  7  1  0  0  0  0
  6 16  2  0  0  0  0
  7  8  1  0  0  0  0
  7 44  1  0  0  0  0
  8  9  1  0  0  0  0
  8 15  2  0  0  0  0
  9 10  2  0  0  0  0
  9 45  1  0  0  0  0
 10 11  1  0  0  0  0
 10 46  1  0  0  0  0
 11 12  1  0  0  0  0
 11 13  2  0  0  0  0
 13 14  1  0  0  0  0
 13 15  1  0  0  0  0
 15 47  1  0  0  0  0
 16 17  1  0  0  0  0
 17 18  2  0  0  0  0
 17 48  1  0  0  0  0
 18 19  1  0  0  0  0
 19 20  2  0  0  0  0
 20 21  1  0  0  0  0
 20 49  1  0  0  0  0
 21 22  1  0  0  0  0
 22 23  1  0  0  0  0
 23 24  1  0  0  0  0
 23 50  1  0  0  0  0
 23 51  1  0  0  0  0
 24 25  1  0  0  0  0
 24 38  1  0  0  0  0
 24 52  1  0  0  0  0
 25 26  1  0  0  0  0
 26 27  1  0  0  0  0
 26 53  1  0  0  0  0
 26 54  1  0  0  0  0
 27 28  1  0  0  0  0
 27 55  1  0  0  0  0
 27 56  1  0  0  0  0
 28 29  1  0  0  0  0
 28 38  1  0  0  0  0
 29 30  1  0  0  0  0
 29 57  1  0  0  0  0
 29 58  1  0  0  0  0
 30 31  2  0  0  0  0
 30 32  1  0  0  0  0
 32 33  1  0  0  0  0
 32 37  2  0  0  0  0
 33 34  2  0  0  0  0
 33 59  1  0  0  0  0
 34 35  1  0  0  0  0
 34 60  1  0  0  0  0
 35 36  2  0  0  0  0
 35 61  1  0  0  0  0
 36 37  1  0  0  0  0
 36 62  1  0  0  0  0
 37 63  1  0  0  0  0
 38 39  2  0  0  0  0
M  END
$$$$
