CHEMBL290352
 OpenBabel04072215363D

 76 83  0  0  1  0  0  0  0  0999 V2000
    6.3446    1.0940    1.9547 C   0  0  0  0  0  0  0  0  0  0  0  0
    6.9951    0.1536    0.9539 C   0  0  0  0  0  0  0  0  0  0  0  0
    5.8812   -0.4963   -0.3255 S   0  0  0  0  0  0  0  0  0  0  0  0
    5.4283    1.0287   -1.1699 C   0  0  0  0  0  0  0  0  0  0  0  0
    6.5625    1.8751   -1.7232 C   0  0  0  0  0  0  0  0  0  0  0  0
    7.3409    1.5256   -2.8334 C   0  0  0  0  0  0  0  0  0  0  0  0
    8.1142    2.4811   -3.5606 C   0  0  0  0  0  0  0  0  0  0  0  0
    7.8701    3.8505   -3.3066 C   0  0  0  0  0  0  0  0  0  0  0  0
    6.9588    4.1473   -2.2243 C   0  0  0  0  0  0  0  0  0  0  0  0
    6.6429    3.1795   -1.2544 C   0  0  0  0  0  0  0  0  0  0  0  0
    6.1573    5.2346   -2.6706 C   0  0  0  0  0  0  0  0  0  0  0  0
    4.7840    5.0736   -2.3340 C   0  0  0  0  0  0  0  0  0  0  0  0
    4.0053    5.4545   -3.4364 C   0  0  0  0  0  0  0  0  0  0  0  0
    4.5968    5.2227   -4.7393 C   0  0  0  0  0  0  0  0  0  0  0  0
    4.7530    3.9299   -5.4938 C   0  0  0  0  0  0  0  0  0  0  0  0
    4.6038    2.5045   -5.3223 C   0  0  0  0  0  0  0  0  0  0  0  0
    4.9187    1.6102   -6.3812 C   0  0  0  0  0  0  0  0  0  0  0  0
    5.2575    0.1183   -6.3153 C   0  0  0  0  0  0  0  0  0  0  0  0
    5.0047   -0.8133   -4.8002 S   0  0  0  0  0  0  0  0  0  0  0  0
    3.1989   -0.9129   -4.7592 C   0  0  0  0  0  0  0  0  0  0  0  0
    2.5878   -1.7245   -5.8879 C   0  0  0  0  0  0  0  0  0  0  0  0
    5.2061    2.1481   -7.6656 C   0  0  0  0  0  0  0  0  0  0  0  0
    5.5439    3.4818   -7.8165 C   0  0  0  0  0  0  0  0  0  0  0  0
    5.5539    4.2683   -6.6545 C   0  0  0  0  0  0  0  0  0  0  0  0
    6.4665    5.2442   -6.2618 N   0  0  0  0  0  0  0  0  0  0  0  0
    5.9293    5.5991   -5.0456 C   0  0  0  0  0  0  0  0  0  0  0  0
    6.7675    5.5209   -3.8919 C   0  0  0  0  0  0  0  0  0  0  0  0
    7.9975    5.0052   -4.0969 N   0  0  0  0  0  0  0  0  0  0  0  0
    8.9742    5.7088   -4.8925 C   0  0  1  0  0  0  0  0  0  0  0  0
    9.8437    4.8560   -5.7492 C   0  0  0  0  0  0  0  0  0  0  0  0
    8.9290    4.5713   -6.9487 C   0  0  2  0  0  0  0  0  0  0  0  0
    8.4900    3.2138   -6.8467 O   0  0  0  0  0  0  0  0  0  0  0  0
    9.8171    4.7193   -8.2008 C   0  0  0  0  0  0  0  0  0  0  0  0
   10.1286    3.7905   -8.9290 O   0  0  0  0  0  0  0  0  0  0  0  0
   10.3051    5.9908   -8.3291 O   0  0  0  0  0  0  0  0  0  0  0  0
   11.2927    6.1613   -9.3507 C   0  0  0  0  0  0  0  0  0  0  0  0
    7.7549    5.6350   -6.8546 C   0  0  1  0  0  0  0  0  0  0  0  0
    7.4336    6.3467   -8.1853 C   0  0  0  0  0  0  0  0  0  0  0  0
    8.3104    6.5658   -5.8830 O   0  0  0  0  0  0  0  0  0  0  0  0
    3.4569    6.8023   -3.0009 C   0  0  0  0  0  0  0  0  0  0  0  0
    3.5073    6.6658   -1.5449 N   0  0  0  0  0  0  0  0  0  0  0  0
    4.2731    5.6045   -1.1021 C   0  0  0  0  0  0  0  0  0  0  0  0
    4.4927    5.3663    0.0767 O   0  0  0  0  0  0  0  0  0  0  0  0
    7.0905    1.3987    2.6973 H   0  0  0  0  0  0  0  0  0  0  0  0
    5.5213    0.6127    2.4920 H   0  0  0  0  0  0  0  0  0  0  0  0
    5.9665    2.0092    1.4922 H   0  0  0  0  0  0  0  0  0  0  0  0
    7.3839   -0.7158    1.4920 H   0  0  0  0  0  0  0  0  0  0  0  0
    7.8460    0.6366    0.4673 H   0  0  0  0  0  0  0  0  0  0  0  0
    4.8085    1.6168   -0.4768 H   0  0  0  0  0  0  0  0  0  0  0  0
    4.7380    0.7896   -1.9882 H   0  0  0  0  0  0  0  0  0  0  0  0
    7.2699    0.5090   -3.2196 H   0  0  0  0  0  0  0  0  0  0  0  0
    8.6003    2.1550   -4.4754 H   0  0  0  0  0  0  0  0  0  0  0  0
    6.0146    3.4735   -0.4153 H   0  0  0  0  0  0  0  0  0  0  0  0
    4.4340    2.1193   -4.3206 H   0  0  0  0  0  0  0  0  0  0  0  0
    4.7885   -0.4177   -7.1493 H   0  0  0  0  0  0  0  0  0  0  0  0
    6.3405    0.0349   -6.5018 H   0  0  0  0  0  0  0  0  0  0  0  0
    2.7951    0.1010   -4.7472 H   0  0  0  0  0  0  0  0  0  0  0  0
    2.9353   -1.3826   -3.8064 H   0  0  0  0  0  0  0  0  0  0  0  0
    2.8385   -1.3324   -6.8772 H   0  0  0  0  0  0  0  0  0  0  0  0
    1.4968   -1.6941   -5.8001 H   0  0  0  0  0  0  0  0  0  0  0  0
    2.8927   -2.7755   -5.8430 H   0  0  0  0  0  0  0  0  0  0  0  0
    5.3779    1.4799   -8.5086 H   0  0  0  0  0  0  0  0  0  0  0  0
    6.0142    3.7969   -8.7400 H   0  0  0  0  0  0  0  0  0  0  0  0
    9.5190    6.3674   -4.2119 H   0  0  0  0  0  0  0  0  0  0  0  0
   10.2229    3.9686   -5.2402 H   0  0  0  0  0  0  0  0  0  0  0  0
   10.7025    5.4749   -6.0297 H   0  0  0  0  0  0  0  0  0  0  0  0
    9.2793    2.6393   -6.8741 H   0  0  0  0  0  0  0  0  0  0  0  0
   11.7814    7.1270   -9.1888 H   0  0  0  0  0  0  0  0  0  0  0  0
   10.8168    6.1682  -10.3347 H   0  0  0  0  0  0  0  0  0  0  0  0
   12.0580    5.3807   -9.2929 H   0  0  0  0  0  0  0  0  0  0  0  0
    7.6538    5.7117   -9.0532 H   0  0  0  0  0  0  0  0  0  0  0  0
    7.9824    7.2862   -8.2893 H   0  0  0  0  0  0  0  0  0  0  0  0
    6.3678    6.5927   -8.2924 H   0  0  0  0  0  0  0  0  0  0  0  0
    2.4540    7.0593   -3.3258 H   0  0  0  0  0  0  0  0  0  0  0  0
    4.1779    7.5934   -3.2646 H   0  0  0  0  0  0  0  0  0  0  0  0
    3.3990    7.4327   -0.8926 H   0  0  0  0  0  0  0  0  0  0  0  0
  1  2  1  0  0  0  0
  1 44  1  0  0  0  0
  1 45  1  0  0  0  0
  1 46  1  0  0  0  0
  2  3  1  0  0  0  0
  2 47  1  0  0  0  0
  2 48  1  0  0  0  0
  3  4  1  0  0  0  0
  4  5  1  0  0  0  0
  4 49  1  0  0  0  0
  4 50  1  0  0  0  0
  5  6  1  0  0  0  0
  5 10  2  0  0  0  0
  6  7  2  0  0  0  0
  6 51  1  0  0  0  0
  7  8  1  0  0  0  0
  7 52  1  0  0  0  0
  8  9  2  0  0  0  0
  8 28  1  0  0  0  0
  9 10  1  0  0  0  0
  9 11  1  0  0  0  0
 10 53  1  0  0  0  0
 11 12  1  0  0  0  0
 11 27  2  0  0  0  0
 12 13  2  0  0  0  0
 12 42  1  0  0  0  0
 13 14  1  0  0  0  0
 13 40  1  0  0  0  0
 14 15  1  0  0  0  0
 14 26  2  0  0  0  0
 15 16  1  0  0  0  0
 15 24  2  0  0  0  0
 16 17  2  0  0  0  0
 16 54  1  0  0  0  0
 17 22  1  0  0  0  0
 17 18  1  0  0  0  0
 18 19  1  0  0  0  0
 18 55  1  0  0  0  0
 18 56  1  0  0  0  0
 19 20  1  0  0  0  0
 20 21  1  0  0  0  0
 20 57  1  0  0  0  0
 20 58  1  0  0  0  0
 21 59  1  0  0  0  0
 21 60  1  0  0  0  0
 21 61  1  0  0  0  0
 22 23  2  0  0  0  0
 22 62  1  0  0  0  0
 23 24  1  0  0  0  0
 23 63  1  0  0  0  0
 24 25  1  0  0  0  0
 25 26  1  0  0  0  0
 25 37  1  0  0  0  0
 26 27  1  0  0  0  0
 27 28  1  0  0  0  0
 28 29  1  0  0  0  0
 29 30  1  0  0  0  0
 29 39  1  0  0  0  0
 29 64  1  1  0  0  0
 30 31  1  0  0  0  0
 30 65  1  0  0  0  0
 30 66  1  0  0  0  0
 31 37  1  0  0  0  0
 31 33  1  6  0  0  0
 31 32  1  0  0  0  0
 32 67  1  0  0  0  0
 33 34  2  0  0  0  0
 33 35  1  0  0  0  0
 35 36  1  0  0  0  0
 36 68  1  0  0  0  0
 36 69  1  0  0  0  0
 36 70  1  0  0  0  0
 37 39  1  0  0  0  0
 37 38  1  6  0  0  0
 38 71  1  0  0  0  0
 38 72  1  0  0  0  0
 38 73  1  0  0  0  0
 40 41  1  0  0  0  0
 40 74  1  0  0  0  0
 40 75  1  0  0  0  0
 41 42  1  0  0  0  0
 41 76  1  0  0  0  0
 42 43  2  0  0  0  0
M  END
$$$$
