CHEMBL2032030
 OpenBabel04072215363D

 73 77  0  0  1  0  0  0  0  0999 V2000
    3.8299    8.1703    6.9427 C   0  0  0  0  0  0  0  0  0  0  0  0
    4.9011    7.8586    6.0557 O   0  0  0  0  0  0  0  0  0  0  0  0
    5.4160    6.5945    6.1548 C   0  0  0  0  0  0  0  0  0  0  0  0
    5.0064    5.6361    7.0691 C   0  0  0  0  0  0  0  0  0  0  0  0
    5.6050    4.3815    7.0670 C   0  0  0  0  0  0  0  0  0  0  0  0
    6.5558    4.0199    6.0885 C   0  0  0  0  0  0  0  0  0  0  0  0
    7.0654    2.7138    5.9169 C   0  0  0  0  0  0  0  0  0  0  0  0
    6.6665    1.5990    6.6446 O   0  0  0  0  0  0  0  0  0  0  0  0
    5.3218    1.2879    6.7535 C   0  0  0  0  0  0  0  0  0  0  0  0
    4.3308    1.7868    5.9227 C   0  0  0  0  0  0  0  0  0  0  0  0
    2.9813    1.5633    6.2260 C   0  0  0  0  0  0  0  0  0  0  0  0
    2.5874    0.7632    7.3069 C   0  0  0  0  0  0  0  0  0  0  0  0
    1.2250    0.5092    7.6259 N   0  0  0  0  0  0  0  0  0  0  0  0
    0.1456    1.1339    7.0285 C   0  0  0  0  0  0  0  0  0  0  0  0
    0.2397    2.1099    6.2886 O   0  0  0  0  0  0  0  0  0  0  0  0
   -1.1944    0.5767    7.3167 C   0  0  0  0  0  0  0  0  0  0  0  0
   -2.3132    0.7221    6.5680 C   0  0  0  0  0  0  0  0  0  0  0  0
   -2.3741    1.5013    5.2892 C   0  0  0  0  0  0  0  0  0  0  0  0
   -3.4090    0.0162    7.1016 N   0  0  0  0  0  0  0  0  0  0  0  0
   -4.8768    0.2222    6.9404 C   0  0  0  0  0  0  0  0  0  0  0  0
   -5.3572    1.4447    6.1197 C   0  0  3  0  0  0  0  0  0  0  0  0
   -5.0383    1.3203    4.7264 O   0  0  0  0  0  0  0  0  0  0  0  0
   -6.8818    1.7137    6.1375 C   0  0  0  0  0  0  0  0  0  0  0  0
   -7.6819    0.6209    5.4186 C   0  0  0  0  0  0  0  0  0  0  0  0
   -7.4431    1.9697    7.5319 C   0  0  0  0  0  0  0  0  0  0  0  0
   -2.9623   -0.4818    8.3618 N   0  0  0  0  0  0  0  0  0  0  0  0
   -3.6614   -1.4263    9.1407 C   0  0  0  0  0  0  0  0  0  0  0  0
   -3.6987   -1.2548   10.5315 C   0  0  0  0  0  0  0  0  0  0  0  0
   -4.4207   -2.1371   11.3396 C   0  0  0  0  0  0  0  0  0  0  0  0
   -5.0743   -3.2258   10.7679 C   0  0  0  0  0  0  0  0  0  0  0  0
   -5.0202   -3.4214    9.3879 C   0  0  0  0  0  0  0  0  0  0  0  0
   -4.3317   -2.5146    8.5729 C   0  0  0  0  0  0  0  0  0  0  0  0
   -1.5885   -0.2368    8.4863 C   0  0  0  0  0  0  0  0  0  0  0  0
   -0.7946   -0.6204    9.3333 O   0  0  0  0  0  0  0  0  0  0  0  0
    3.5910    0.1739    8.0798 C   0  0  0  0  0  0  0  0  0  0  0  0
    4.9454    0.4496    7.8085 C   0  0  0  0  0  0  0  0  0  0  0  0
    5.8769   -0.0965    8.6006 F   0  0  0  0  0  0  0  0  0  0  0  0
    8.0562    2.4700    4.9684 C   0  0  0  0  0  0  0  0  0  0  0  0
    8.4776    3.5275    4.1906 C   0  0  0  0  0  0  0  0  0  0  0  0
    7.9636    4.7728    4.2748 N   0  0  0  0  0  0  0  0  0  0  0  0
    7.0107    5.0124    5.1939 C   0  0  0  0  0  0  0  0  0  0  0  0
    6.4357    6.2786    5.2525 C   0  0  0  0  0  0  0  0  0  0  0  0
    3.5474    9.2147    6.7842 H   0  0  0  0  0  0  0  0  0  0  0  0
    4.1401    8.0685    7.9886 H   0  0  0  0  0  0  0  0  0  0  0  0
    2.9524    7.5486    6.7313 H   0  0  0  0  0  0  0  0  0  0  0  0
    4.2158    5.8153    7.7886 H   0  0  0  0  0  0  0  0  0  0  0  0
    5.2793    3.6673    7.8176 H   0  0  0  0  0  0  0  0  0  0  0  0
    4.5582    2.4227    5.0704 H   0  0  0  0  0  0  0  0  0  0  0  0
    2.2653    2.0539    5.5748 H   0  0  0  0  0  0  0  0  0  0  0  0
    1.0278   -0.1629    8.3671 H   0  0  0  0  0  0  0  0  0  0  0  0
   -1.4123    1.8326    4.9023 H   0  0  0  0  0  0  0  0  0  0  0  0
   -2.9571    2.4159    5.4265 H   0  0  0  0  0  0  0  0  0  0  0  0
   -2.7786    0.8848    4.4849 H   0  0  0  0  0  0  0  0  0  0  0  0
   -5.3260    0.2950    7.9363 H   0  0  0  0  0  0  0  0  0  0  0  0
   -5.2671   -0.6872    6.4693 H   0  0  0  0  0  0  0  0  0  0  0  0
   -4.8598    2.3433    6.5025 H   0  0  0  0  0  0  0  0  0  0  0  0
   -4.8641    0.3836    4.5307 H   0  0  0  0  0  0  0  0  0  0  0  0
   -7.0400    2.6331    5.5543 H   0  0  0  0  0  0  0  0  0  0  0  0
   -7.5972   -0.3424    5.9293 H   0  0  0  0  0  0  0  0  0  0  0  0
   -7.3380    0.4893    4.3866 H   0  0  0  0  0  0  0  0  0  0  0  0
   -8.7419    0.8900    5.3680 H   0  0  0  0  0  0  0  0  0  0  0  0
   -7.4226    1.0701    8.1533 H   0  0  0  0  0  0  0  0  0  0  0  0
   -8.4861    2.2994    7.4647 H   0  0  0  0  0  0  0  0  0  0  0  0
   -6.8791    2.7584    8.0400 H   0  0  0  0  0  0  0  0  0  0  0  0
   -3.1990   -0.4058   10.9927 H   0  0  0  0  0  0  0  0  0  0  0  0
   -4.4702   -1.9736   12.4136 H   0  0  0  0  0  0  0  0  0  0  0  0
   -5.6181   -3.9258   11.3990 H   0  0  0  0  0  0  0  0  0  0  0  0
   -5.5065   -4.2894    8.9487 H   0  0  0  0  0  0  0  0  0  0  0  0
   -4.2785   -2.6985    7.5039 H   0  0  0  0  0  0  0  0  0  0  0  0
    3.3559   -0.4795    8.9144 H   0  0  0  0  0  0  0  0  0  0  0  0
    8.4935    1.4854    4.8443 H   0  0  0  0  0  0  0  0  0  0  0  0
    9.2564    3.4023    3.4444 H   0  0  0  0  0  0  0  0  0  0  0  0
    6.7759    7.0356    4.5503 H   0  0  0  0  0  0  0  0  0  0  0  0
  1  2  1  0  0  0  0
  1 43  1  0  0  0  0
  1 44  1  0  0  0  0
  1 45  1  0  0  0  0
  2  3  1  0  0  0  0
  3  4  1  0  0  0  0
  3 42  2  0  0  0  0
  4  5  2  0  0  0  0
  4 46  1  0  0  0  0
  5  6  1  0  0  0  0
  5 47  1  0  0  0  0
  6  7  1  0  0  0  0
  6 41  2  0  0  0  0
  7  8  1  0  0  0  0
  7 38  2  0  0  0  0
  8  9  1  0  0  0  0
  9 10  1  0  0  0  0
  9 36  2  0  0  0  0
 10 11  2  0  0  0  0
 10 48  1  0  0  0  0
 11 12  1  0  0  0  0
 11 49  1  0  0  0  0
 12 13  1  0  0  0  0
 12 35  2  0  0  0  0
 13 14  1  0  0  0  0
 13 50  1  0  0  0  0
 14 15  2  0  0  0  0
 14 16  1  0  0  0  0
 16 17  2  0  0  0  0
 16 33  1  0  0  0  0
 17 18  1  0  0  0  0
 17 19  1  0  0  0  0
 18 51  1  0  0  0  0
 18 52  1  0  0  0  0
 18 53  1  0  0  0  0
 19 20  1  0  0  0  0
 19 26  1  0  0  0  0
 20 21  1  0  0  0  0
 20 54  1  0  0  0  0
 20 55  1  0  0  0  0
 21 22  1  0  0  0  0
 21 23  1  0  0  0  0
 21 56  1  0  0  0  0
 22 57  1  0  0  0  0
 23 24  1  0  0  0  0
 23 25  1  0  0  0  0
 23 58  1  0  0  0  0
 24 59  1  0  0  0  0
 24 60  1  0  0  0  0
 24 61  1  0  0  0  0
 25 62  1  0  0  0  0
 25 63  1  0  0  0  0
 25 64  1  0  0  0  0
 26 27  1  0  0  0  0
 26 33  1  0  0  0  0
 27 28  1  0  0  0  0
 27 32  2  0  0  0  0
 28 29  2  0  0  0  0
 28 65  1  0  0  0  0
 29 30  1  0  0  0  0
 29 66  1  0  0  0  0
 30 31  2  0  0  0  0
 30 67  1  0  0  0  0
 31 32  1  0  0  0  0
 31 68  1  0  0  0  0
 32 69  1  0  0  0  0
 33 34  2  0  0  0  0
 35 36  1  0  0  0  0
 35 70  1  0  0  0  0
 36 37  1  0  0  0  0
 38 39  1  0  0  0  0
 38 71  1  0  0  0  0
 39 40  2  0  0  0  0
 39 72  1  0  0  0  0
 40 41  1  0  0  0  0
 41 42  1  0  0  0  0
 42 73  1  0  0  0  0
M  END
$$$$
