CHEMBL241465
 OpenBabel04072215363D

 50 53  0  0  0  0  0  0  0  0999 V2000
    2.1237    0.0587   -0.0036 C   0  0  0  0  0  0  0  0  0  0  0  0
    0.6860   -0.0682    0.0204 N   0  0  0  0  0  0  0  0  0  0  0  0
   -0.1890    0.9815   -0.0133 C   0  0  0  0  0  0  0  0  0  0  0  0
   -1.4320    0.5678   -0.0795 N   0  0  0  0  0  0  0  0  0  0  0  0
   -1.3524   -0.7899   -0.0421 C   0  0  0  0  0  0  0  0  0  0  0  0
   -2.4511   -1.5606   -0.0449 N   0  0  0  0  0  0  0  0  0  0  0  0
   -3.7041   -1.0575   -0.5874 C   0  0  0  0  0  0  0  0  0  0  0  0
   -4.7999   -2.1204   -0.4707 C   0  0  0  0  0  0  0  0  0  0  0  0
   -6.0937   -1.6946   -1.1217 C   0  0  0  0  0  0  0  0  0  0  0  0
   -7.0621   -0.9819   -0.3783 C   0  0  0  0  0  0  0  0  0  0  0  0
   -8.2704   -0.5877   -0.9609 C   0  0  0  0  0  0  0  0  0  0  0  0
   -8.4833   -0.9147   -2.2817 C   0  0  0  0  0  0  0  0  0  0  0  0
   -7.5441   -1.5972   -3.0171 C   0  0  0  0  0  0  0  0  0  0  0  0
   -6.3406   -1.9947   -2.4718 C   0  0  0  0  0  0  0  0  0  0  0  0
   -7.9505   -1.8230   -4.2956 O   0  0  0  0  0  0  0  0  0  0  0  0
   -9.2691   -1.2370   -4.2676 C   0  0  0  0  0  0  0  0  0  0  0  0
   -9.5985   -0.6248   -3.0036 O   0  0  0  0  0  0  0  0  0  0  0  0
   -0.0476   -1.2381   -0.0184 C   0  0  0  0  0  0  0  0  0  0  0  0
    0.4890   -2.5782   -0.0475 C   0  0  0  0  0  0  0  0  0  0  0  0
    1.5810   -2.8407    0.4478 O   0  0  0  0  0  0  0  0  0  0  0  0
   -0.3050   -3.4849   -0.7433 N   0  0  0  0  0  0  0  0  0  0  0  0
   -0.0826   -4.8721   -0.8886 C   0  0  0  0  0  0  0  0  0  0  0  0
    0.8003   -5.5768   -0.0654 C   0  0  0  0  0  0  0  0  0  0  0  0
    1.0268   -6.9394   -0.2593 C   0  0  0  0  0  0  0  0  0  0  0  0
    0.3602   -7.6204   -1.2761 C   0  0  0  0  0  0  0  0  0  0  0  0
   -0.5640   -6.9492   -2.0922 C   0  0  0  0  0  0  0  0  0  0  0  0
   -1.2991   -7.6927   -3.1780 C   0  0  0  0  0  0  0  0  0  0  0  0
   -0.9720   -9.0150   -3.2524 F   0  0  0  0  0  0  0  0  0  0  0  0
   -2.6521   -7.6577   -3.0074 F   0  0  0  0  0  0  0  0  0  0  0  0
   -1.0659   -7.1817   -4.4165 F   0  0  0  0  0  0  0  0  0  0  0  0
   -0.7826   -5.5708   -1.8807 C   0  0  0  0  0  0  0  0  0  0  0  0
    2.3930    1.1190   -0.0753 H   0  0  0  0  0  0  0  0  0  0  0  0
    2.5078   -0.4676   -0.8804 H   0  0  0  0  0  0  0  0  0  0  0  0
    2.5322   -0.3580    0.9186 H   0  0  0  0  0  0  0  0  0  0  0  0
    0.1306    2.0160    0.0008 H   0  0  0  0  0  0  0  0  0  0  0  0
   -2.4383   -2.5117    0.3092 H   0  0  0  0  0  0  0  0  0  0  0  0
   -3.5480   -0.8091   -1.6448 H   0  0  0  0  0  0  0  0  0  0  0  0
   -4.0127   -0.1403   -0.0717 H   0  0  0  0  0  0  0  0  0  0  0  0
   -4.9810   -2.3581    0.5857 H   0  0  0  0  0  0  0  0  0  0  0  0
   -4.4610   -3.0610   -0.9255 H   0  0  0  0  0  0  0  0  0  0  0  0
   -6.8760   -0.7381    0.6667 H   0  0  0  0  0  0  0  0  0  0  0  0
   -9.0185   -0.0471   -0.3925 H   0  0  0  0  0  0  0  0  0  0  0  0
   -5.6193   -2.5320   -3.0782 H   0  0  0  0  0  0  0  0  0  0  0  0
  -10.0053   -2.0219   -4.4780 H   0  0  0  0  0  0  0  0  0  0  0  0
   -9.3333   -0.4766   -5.0543 H   0  0  0  0  0  0  0  0  0  0  0  0
   -1.0505   -3.0722   -1.2917 H   0  0  0  0  0  0  0  0  0  0  0  0
    1.3210   -5.0929    0.7541 H   0  0  0  0  0  0  0  0  0  0  0  0
    1.7268   -7.4661    0.3816 H   0  0  0  0  0  0  0  0  0  0  0  0
    0.5630   -8.6791   -1.4256 H   0  0  0  0  0  0  0  0  0  0  0  0
   -1.4916   -5.0489   -2.5267 H   0  0  0  0  0  0  0  0  0  0  0  0
  1  2  1  0  0  0  0
  1 32  1  0  0  0  0
  1 33  1  0  0  0  0
  1 34  1  0  0  0  0
  2  3  1  0  0  0  0
  2 18  1  0  0  0  0
  3  4  2  0  0  0  0
  3 35  1  0  0  0  0
  4  5  1  0  0  0  0
  5  6  1  0  0  0  0
  5 18  2  0  0  0  0
  6  7  1  0  0  0  0
  6 36  1  0  0  0  0
  7  8  1  0  0  0  0
  7 37  1  0  0  0  0
  7 38  1  0  0  0  0
  8  9  1  0  0  0  0
  8 39  1  0  0  0  0
  8 40  1  0  0  0  0
  9 10  1  0  0  0  0
  9 14  2  0  0  0  0
 10 11  2  0  0  0  0
 10 41  1  0  0  0  0
 11 12  1  0  0  0  0
 11 42  1  0  0  0  0
 12 13  2  0  0  0  0
 12 17  1  0  0  0  0
 13 14  1  0  0  0  0
 13 15  1  0  0  0  0
 14 43  1  0  0  0  0
 15 16  1  0  0  0  0
 16 17  1  0  0  0  0
 16 44  1  0  0  0  0
 16 45  1  0  0  0  0
 18 19  1  0  0  0  0
 19 20  2  0  0  0  0
 19 21  1  0  0  0  0
 21 22  1  0  0  0  0
 21 46  1  0  0  0  0
 22 23  1  0  0  0  0
 22 31  2  0  0  0  0
 23 24  2  0  0  0  0
 23 47  1  0  0  0  0
 24 25  1  0  0  0  0
 24 48  1  0  0  0  0
 25 26  2  0  0  0  0
 25 49  1  0  0  0  0
 26 27  1  0  0  0  0
 26 31  1  0  0  0  0
 27 28  1  0  0  0  0
 27 29  1  0  0  0  0
 27 30  1  0  0  0  0
 31 50  1  0  0  0  0
M  END
$$$$
