CHEMBL247585
 OpenBabel04072215363D

 41 45  0  0  0  0  0  0  0  0999 V2000
    1.2017   -0.0332   -0.8060 O   0  0  0  0  0  0  0  0  0  0  0  0
    2.3324   -0.1115   -0.3339 C   0  0  0  0  0  0  0  0  0  0  0  0
    2.9067   -1.2414    0.2305 N   0  0  0  0  0  0  0  0  0  0  0  0
    2.2942   -2.5201    0.2707 C   0  0  0  0  0  0  0  0  0  0  0  0
    1.2130   -2.8662   -0.5615 C   0  0  0  0  0  0  0  0  0  0  0  0
    0.5721   -4.1204   -0.4903 C   0  0  0  0  0  0  0  0  0  0  0  0
    0.9988   -5.0832    0.4142 C   0  0  0  0  0  0  0  0  0  0  0  0
    2.0751   -4.7533    1.2064 C   0  0  0  0  0  0  0  0  0  0  0  0
    2.7471   -3.4956    1.1534 C   0  0  0  0  0  0  0  0  0  0  0  0
    3.8971   -3.4043    2.1712 C   0  0  0  0  0  0  0  0  0  0  0  0
    3.7562   -4.7578    2.7796 C   0  0  0  0  0  0  0  0  0  0  0  0
    2.7200   -5.5125    2.2182 C   0  0  0  0  0  0  0  0  0  0  0  0
    2.5753   -6.7202    2.7414 N   0  0  0  0  0  0  0  0  0  0  0  0
    3.5623   -6.7370    3.6722 N   0  0  0  0  0  0  0  0  0  0  0  0
    4.3063   -5.5737    3.7345 C   0  0  0  0  0  0  0  0  0  0  0  0
    5.4452   -5.3079    4.6516 C   0  0  0  0  0  0  0  0  0  0  0  0
    6.1616   -4.0783    4.7449 C   0  0  0  0  0  0  0  0  0  0  0  0
    7.1704   -4.1293    5.6821 C   0  0  0  0  0  0  0  0  0  0  0  0
    7.2590   -5.6546    6.4474 S   0  0  0  0  0  0  0  0  0  0  0  0
    5.9398   -6.2497    5.5297 C   0  0  0  0  0  0  0  0  0  0  0  0
    3.1350    1.1372   -0.3072 C   0  0  0  0  0  0  0  0  0  0  0  0
    2.4430    2.3464   -0.1406 C   0  0  0  0  0  0  0  0  0  0  0  0
    3.1174    3.5631   -0.2205 C   0  0  0  0  0  0  0  0  0  0  0  0
    4.4868    3.5771   -0.4747 C   0  0  0  0  0  0  0  0  0  0  0  0
    5.1835    2.3767   -0.6371 C   0  0  0  0  0  0  0  0  0  0  0  0
    4.5119    1.1519   -0.5525 C   0  0  0  0  0  0  0  0  0  0  0  0
    3.7446   -1.1088    0.7797 H   0  0  0  0  0  0  0  0  0  0  0  0
    0.8344   -2.1718   -1.3076 H   0  0  0  0  0  0  0  0  0  0  0  0
   -0.2693   -4.3251   -1.1479 H   0  0  0  0  0  0  0  0  0  0  0  0
    0.5084   -6.0465    0.4970 H   0  0  0  0  0  0  0  0  0  0  0  0
    3.7125   -2.6097    2.8981 H   0  0  0  0  0  0  0  0  0  0  0  0
    4.8579   -3.2852    1.6638 H   0  0  0  0  0  0  0  0  0  0  0  0
    3.6686   -7.5725    4.2352 H   0  0  0  0  0  0  0  0  0  0  0  0
    5.9555   -3.1892    4.1648 H   0  0  0  0  0  0  0  0  0  0  0  0
    7.8604   -3.3428    5.9551 H   0  0  0  0  0  0  0  0  0  0  0  0
    5.6140   -7.2672    5.6910 H   0  0  0  0  0  0  0  0  0  0  0  0
    1.3672    2.3387    0.0281 H   0  0  0  0  0  0  0  0  0  0  0  0
    2.5681    4.4945   -0.1083 H   0  0  0  0  0  0  0  0  0  0  0  0
    5.0075    4.5278   -0.5655 H   0  0  0  0  0  0  0  0  0  0  0  0
    6.2480    2.4017   -0.8591 H   0  0  0  0  0  0  0  0  0  0  0  0
    5.0608    0.2328   -0.7357 H   0  0  0  0  0  0  0  0  0  0  0  0
  1  2  2  0  0  0  0
  2  3  1  0  0  0  0
  2 21  1  0  0  0  0
  3  4  1  0  0  0  0
  3 27  1  0  0  0  0
  4  5  1  0  0  0  0
  4  9  2  0  0  0  0
  5  6  2  0  0  0  0
  5 28  1  0  0  0  0
  6  7  1  0  0  0  0
  6 29  1  0  0  0  0
  7  8  2  0  0  0  0
  7 30  1  0  0  0  0
  8  9  1  0  0  0  0
  8 12  1  0  0  0  0
  9 10  1  0  0  0  0
 10 11  1  0  0  0  0
 10 31  1  0  0  0  0
 10 32  1  0  0  0  0
 11 12  1  0  0  0  0
 11 15  2  0  0  0  0
 12 13  2  0  0  0  0
 13 14  1  0  0  0  0
 14 15  1  0  0  0  0
 14 33  1  0  0  0  0
 15 16  1  0  0  0  0
 16 17  1  0  0  0  0
 16 20  2  0  0  0  0
 17 18  2  0  0  0  0
 17 34  1  0  0  0  0
 18 19  1  0  0  0  0
 18 35  1  0  0  0  0
 19 20  1  0  0  0  0
 20 36  1  0  0  0  0
 21 22  1  0  0  0  0
 21 26  2  0  0  0  0
 22 23  2  0  0  0  0
 22 37  1  0  0  0  0
 23 24  1  0  0  0  0
 23 38  1  0  0  0  0
 24 25  2  0  0  0  0
 24 39  1  0  0  0  0
 25 26  1  0  0  0  0
 25 40  1  0  0  0  0
 26 41  1  0  0  0  0
M  END
$$$$
