CHEMBL2016921
 OpenBabel04072215363D

 58 62  0  0  0  0  0  0  0  0999 V2000
   -0.1294   -2.2129   -0.4039 C   0  0  0  0  0  0  0  0  0  0  0  0
    1.0190   -2.7145    0.2668 O   0  0  0  0  0  0  0  0  0  0  0  0
    2.1403   -2.8998   -0.4925 C   0  0  0  0  0  0  0  0  0  0  0  0
    2.2421   -2.6890   -1.8703 C   0  0  0  0  0  0  0  0  0  0  0  0
    3.4554   -2.8994   -2.5312 C   0  0  0  0  0  0  0  0  0  0  0  0
    4.5629   -3.3275   -1.8081 C   0  0  0  0  0  0  0  0  0  0  0  0
    5.7881   -3.5224   -2.4546 N   0  0  0  0  0  0  0  0  0  0  0  0
    6.9236   -3.9360   -1.8104 C   0  0  0  0  0  0  0  0  0  0  0  0
    7.9833   -4.0551   -2.4264 O   0  0  0  0  0  0  0  0  0  0  0  0
    6.8091   -4.2327   -0.3395 C   0  0  0  0  0  0  0  0  0  0  0  0
    7.9041   -4.7288    0.4157 C   0  0  0  0  0  0  0  0  0  0  0  0
    7.9773   -5.1491    1.6727 N   0  0  0  0  0  0  0  0  0  0  0  0
    9.2783   -5.5266    1.8585 C   0  0  0  0  0  0  0  0  0  0  0  0
   10.0031   -5.3283    0.7247 C   0  0  0  0  0  0  0  0  0  0  0  0
    9.1355   -4.8250   -0.1907 N   0  0  0  0  0  0  0  0  0  0  0  0
   11.4206   -5.5561    0.5017 C   0  0  0  0  0  0  0  0  0  0  0  0
   12.0762   -6.1159    1.6824 N   0  0  0  0  0  0  0  0  0  0  0  0
   13.4410   -6.4198    1.6392 C   0  0  0  0  0  0  0  0  0  0  0  0
   14.0504   -6.8201    2.6357 O   0  0  0  0  0  0  0  0  0  0  0  0
   14.1673   -6.3305    0.2775 C   0  0  0  0  0  0  0  0  0  0  0  0
   14.1433   -4.9692   -0.3074 N   0  0  0  0  0  0  0  0  0  0  0  0
   14.9218   -4.0254    0.5075 C   0  0  0  0  0  0  0  0  0  0  0  0
   14.8887   -2.6146   -0.0841 C   0  0  0  0  0  0  0  0  0  0  0  0
   15.3718   -2.6132   -1.5283 C   0  0  0  0  0  0  0  0  0  0  0  0
   14.5613   -3.6104   -2.3453 C   0  0  0  0  0  0  0  0  0  0  0  0
   14.5917   -5.0004   -1.7056 C   0  0  0  0  0  0  0  0  0  0  0  0
   11.3612   -6.3763    2.9563 C   0  0  0  0  0  0  0  0  0  0  0  0
    9.8513   -6.0717    3.0940 C   0  0  0  0  0  0  0  0  0  0  0  0
    5.6390   -4.0390    0.2920 C   0  0  0  0  0  0  0  0  0  0  0  0
    4.4677   -3.5601   -0.4323 C   0  0  0  0  0  0  0  0  0  0  0  0
    3.2564   -3.3415    0.2218 C   0  0  0  0  0  0  0  0  0  0  0  0
   -0.9178   -2.0729    0.3410 H   0  0  0  0  0  0  0  0  0  0  0  0
   -0.4916   -2.9319   -1.1458 H   0  0  0  0  0  0  0  0  0  0  0  0
    0.0735   -1.2389   -0.8617 H   0  0  0  0  0  0  0  0  0  0  0  0
    1.3944   -2.3583   -2.4607 H   0  0  0  0  0  0  0  0  0  0  0  0
    3.5180   -2.7275   -3.6015 H   0  0  0  0  0  0  0  0  0  0  0  0
    5.8702   -3.3340   -3.4468 H   0  0  0  0  0  0  0  0  0  0  0  0
    9.3332   -4.5643   -1.1526 H   0  0  0  0  0  0  0  0  0  0  0  0
   11.8768   -4.5906    0.2718 H   0  0  0  0  0  0  0  0  0  0  0  0
   11.5627   -6.2442   -0.3373 H   0  0  0  0  0  0  0  0  0  0  0  0
   13.6682   -7.0467   -0.3876 H   0  0  0  0  0  0  0  0  0  0  0  0
   15.1980   -6.6825    0.4057 H   0  0  0  0  0  0  0  0  0  0  0  0
   15.9620   -4.3607    0.6015 H   0  0  0  0  0  0  0  0  0  0  0  0
   14.5019   -3.9671    1.5185 H   0  0  0  0  0  0  0  0  0  0  0  0
   15.5153   -1.9469    0.5175 H   0  0  0  0  0  0  0  0  0  0  0  0
   13.8656   -2.2187   -0.0402 H   0  0  0  0  0  0  0  0  0  0  0  0
   16.4336   -2.8868   -1.5619 H   0  0  0  0  0  0  0  0  0  0  0  0
   15.2817   -1.6094   -1.9571 H   0  0  0  0  0  0  0  0  0  0  0  0
   14.9579   -3.6629   -3.3656 H   0  0  0  0  0  0  0  0  0  0  0  0
   13.5236   -3.2604   -2.4246 H   0  0  0  0  0  0  0  0  0  0  0  0
   15.6029   -5.4184   -1.7815 H   0  0  0  0  0  0  0  0  0  0  0  0
   13.9243   -5.6484   -2.2878 H   0  0  0  0  0  0  0  0  0  0  0  0
   11.9017   -5.8457    3.7515 H   0  0  0  0  0  0  0  0  0  0  0  0
   11.5113   -7.4429    3.1739 H   0  0  0  0  0  0  0  0  0  0  0  0
    9.6921   -5.3697    3.9209 H   0  0  0  0  0  0  0  0  0  0  0  0
    9.3206   -6.9928    3.3639 H   0  0  0  0  0  0  0  0  0  0  0  0
    5.5350   -4.2465    1.3540 H   0  0  0  0  0  0  0  0  0  0  0  0
    3.1701   -3.5100    1.2930 H   0  0  0  0  0  0  0  0  0  0  0  0
  1  2  1  0  0  0  0
  1 32  1  0  0  0  0
  1 33  1  0  0  0  0
  1 34  1  0  0  0  0
  2  3  1  0  0  0  0
  3  4  1  0  0  0  0
  3 31  2  0  0  0  0
  4  5  2  0  0  0  0
  4 35  1  0  0  0  0
  5  6  1  0  0  0  0
  5 36  1  0  0  0  0
  6  7  1  0  0  0  0
  6 30  2  0  0  0  0
  7  8  1  0  0  0  0
  7 37  1  0  0  0  0
  8  9  2  0  0  0  0
  8 10  1  0  0  0  0
 10 11  1  0  0  0  0
 10 29  2  0  0  0  0
 11 12  2  0  0  0  0
 11 15  1  0  0  0  0
 12 13  1  0  0  0  0
 13 14  2  0  0  0  0
 13 28  1  0  0  0  0
 14 15  1  0  0  0  0
 14 16  1  0  0  0  0
 15 38  1  0  0  0  0
 16 17  1  0  0  0  0
 16 39  1  0  0  0  0
 16 40  1  0  0  0  0
 17 18  1  0  0  0  0
 17 27  1  0  0  0  0
 18 19  2  0  0  0  0
 18 20  1  0  0  0  0
 20 21  1  0  0  0  0
 20 41  1  0  0  0  0
 20 42  1  0  0  0  0
 21 22  1  0  0  0  0
 21 26  1  0  0  0  0
 22 23  1  0  0  0  0
 22 43  1  0  0  0  0
 22 44  1  0  0  0  0
 23 24  1  0  0  0  0
 23 45  1  0  0  0  0
 23 46  1  0  0  0  0
 24 25  1  0  0  0  0
 24 47  1  0  0  0  0
 24 48  1  0  0  0  0
 25 26  1  0  0  0  0
 25 49  1  0  0  0  0
 25 50  1  0  0  0  0
 26 51  1  0  0  0  0
 26 52  1  0  0  0  0
 27 28  1  0  0  0  0
 27 53  1  0  0  0  0
 27 54  1  0  0  0  0
 28 55  1  0  0  0  0
 28 56  1  0  0  0  0
 29 30  1  0  0  0  0
 29 57  1  0  0  0  0
 30 31  1  0  0  0  0
 31 58  1  0  0  0  0
M  END
$$$$
