CHEMBL500153
 OpenBabel04072215383D

 51 54  0  0  0  0  0  0  0  0999 V2000
    0.7067   -1.5259   -1.4886 N   0  0  0  0  0  0  0  0  0  0  0  0
    1.7208   -1.3239   -0.5747 C   0  0  0  0  0  0  0  0  0  0  0  0
    2.1355   -2.3780    0.1295 N   0  0  0  0  0  0  0  0  0  0  0  0
    3.1093   -2.1545    1.0285 C   0  0  0  0  0  0  0  0  0  0  0  0
    3.6689   -0.9196    1.2457 C   0  0  0  0  0  0  0  0  0  0  0  0
    3.1612    0.1067    0.4812 C   0  0  0  0  0  0  0  0  0  0  0  0
    3.7087    1.4647    0.6120 C   0  0  0  0  0  0  0  0  0  0  0  0
    3.2316    2.5080   -0.0817 C   0  0  0  0  0  0  0  0  0  0  0  0
    3.8338    3.7819    0.0173 C   0  0  0  0  0  0  0  0  0  0  0  0
    3.5971    4.9136    0.7831 C   0  0  0  0  0  0  0  0  0  0  0  0
    2.5371    5.1019    1.7606 C   0  0  0  0  0  0  0  0  0  0  0  0
    2.7713    5.8814    2.9011 C   0  0  0  0  0  0  0  0  0  0  0  0
    1.7435    6.1288    3.8159 C   0  0  0  0  0  0  0  0  0  0  0  0
    0.4714    5.6023    3.5967 C   0  0  0  0  0  0  0  0  0  0  0  0
    0.2278    4.8203    2.4706 C   0  0  0  0  0  0  0  0  0  0  0  0
    1.2548    4.5731    1.5579 C   0  0  0  0  0  0  0  0  0  0  0  0
    4.5199    5.8944    0.4960 N   0  0  0  0  0  0  0  0  0  0  0  0
    5.2606    5.4065   -0.4722 C   0  0  0  0  0  0  0  0  0  0  0  0
    4.8746    4.1386   -0.8166 N   0  0  0  0  0  0  0  0  0  0  0  0
    5.5706    3.3127   -1.7926 C   0  0  0  0  0  0  0  0  0  0  0  0
    4.6851    2.7757   -2.9347 C   0  0  0  0  0  0  0  0  0  0  0  0
    5.4209    1.9403   -3.9075 N   0  0  0  0  0  0  0  0  0  0  0  0
    4.5327    1.5040   -5.0032 C   0  0  0  0  0  0  0  0  0  0  0  0
    3.9134    0.2008   -4.5328 C   0  0  0  0  0  0  0  0  0  0  0  0
    5.0292   -0.4539   -3.7473 C   0  0  0  0  0  0  0  0  0  0  0  0
    5.9386    0.6902   -3.3176 C   0  0  0  0  0  0  0  0  0  0  0  0
    2.1848   -0.0818   -0.4307 N   0  0  0  0  0  0  0  0  0  0  0  0
    0.1796   -2.3472   -1.2245 H   0  0  0  0  0  0  0  0  0  0  0  0
    0.1887   -0.6681   -1.6151 H   0  0  0  0  0  0  0  0  0  0  0  0
    3.4395   -3.0281    1.5850 H   0  0  0  0  0  0  0  0  0  0  0  0
    4.4559   -0.7783    1.9727 H   0  0  0  0  0  0  0  0  0  0  0  0
    4.5450    1.5934    1.2940 H   0  0  0  0  0  0  0  0  0  0  0  0
    2.3811    2.3973   -0.7510 H   0  0  0  0  0  0  0  0  0  0  0  0
    3.7566    6.3108    3.0723 H   0  0  0  0  0  0  0  0  0  0  0  0
    1.9338    6.7451    4.6903 H   0  0  0  0  0  0  0  0  0  0  0  0
   -0.3334    5.8113    4.2960 H   0  0  0  0  0  0  0  0  0  0  0  0
   -0.7640    4.4157    2.2888 H   0  0  0  0  0  0  0  0  0  0  0  0
    1.0295    3.9886    0.6710 H   0  0  0  0  0  0  0  0  0  0  0  0
    6.0850    5.9211   -0.9490 H   0  0  0  0  0  0  0  0  0  0  0  0
    6.0377    2.5119   -1.2119 H   0  0  0  0  0  0  0  0  0  0  0  0
    6.3822    3.9163   -2.2175 H   0  0  0  0  0  0  0  0  0  0  0  0
    4.2687    3.6450   -3.4620 H   0  0  0  0  0  0  0  0  0  0  0  0
    3.8303    2.2173   -2.5465 H   0  0  0  0  0  0  0  0  0  0  0  0
    5.1449    1.3206   -5.8947 H   0  0  0  0  0  0  0  0  0  0  0  0
    3.7766    2.2466   -5.2806 H   0  0  0  0  0  0  0  0  0  0  0  0
    3.5749   -0.4268   -5.3627 H   0  0  0  0  0  0  0  0  0  0  0  0
    3.0540    0.3895   -3.8789 H   0  0  0  0  0  0  0  0  0  0  0  0
    5.5841   -1.1539   -4.3823 H   0  0  0  0  0  0  0  0  0  0  0  0
    4.6377   -1.0115   -2.8902 H   0  0  0  0  0  0  0  0  0  0  0  0
    6.9504    0.5191   -3.7034 H   0  0  0  0  0  0  0  0  0  0  0  0
    6.0260    0.7083   -2.2281 H   0  0  0  0  0  0  0  0  0  0  0  0
  1  2  1  0  0  0  0
  1 28  1  0  0  0  0
  1 29  1  0  0  0  0
  2  3  1  0  0  0  0
  2 27  2  0  0  0  0
  3  4  2  0  0  0  0
  4  5  1  0  0  0  0
  4 30  1  0  0  0  0
  5  6  2  0  0  0  0
  5 31  1  0  0  0  0
  6  7  1  0  0  0  0
  6 27  1  0  0  0  0
  7  8  2  0  0  0  0
  7 32  1  0  0  0  0
  8  9  1  0  0  0  0
  8 33  1  0  0  0  0
  9 10  2  0  0  0  0
  9 19  1  0  0  0  0
 10 11  1  0  0  0  0
 10 17  1  0  0  0  0
 11 12  1  0  0  0  0
 11 16  2  0  0  0  0
 12 13  2  0  0  0  0
 12 34  1  0  0  0  0
 13 14  1  0  0  0  0
 13 35  1  0  0  0  0
 14 15  2  0  0  0  0
 14 36  1  0  0  0  0
 15 16  1  0  0  0  0
 15 37  1  0  0  0  0
 16 38  1  0  0  0  0
 17 18  2  0  0  0  0
 18 19  1  0  0  0  0
 18 39  1  0  0  0  0
 19 20  1  0  0  0  0
 20 21  1  0  0  0  0
 20 40  1  0  0  0  0
 20 41  1  0  0  0  0
 21 22  1  0  0  0  0
 21 42  1  0  0  0  0
 21 43  1  0  0  0  0
 22 23  1  0  0  0  0
 22 26  1  0  0  0  0
 23 24  1  0  0  0  0
 23 44  1  0  0  0  0
 23 45  1  0  0  0  0
 24 25  1  0  0  0  0
 24 46  1  0  0  0  0
 24 47  1  0  0  0  0
 25 26  1  0  0  0  0
 25 48  1  0  0  0  0
 25 49  1  0  0  0  0
 26 50  1  0  0  0  0
 26 51  1  0  0  0  0
M  END
$$$$
