CHEMBL250213
 OpenBabel04072215363D

 62 66  0  0  0  0  0  0  0  0999 V2000
   -1.0452    1.5285    1.1172 C   0  0  0  0  0  0  0  0  0  0  0  0
   -0.2105    1.7312    2.3551 C   0  0  0  0  0  0  0  0  0  0  0  0
   -0.5878    1.1042    3.5570 C   0  0  0  0  0  0  0  0  0  0  0  0
    0.1748    1.2215    4.7340 C   0  0  0  0  0  0  0  0  0  0  0  0
   -0.2444    0.5444    5.9921 C   0  0  0  0  0  0  0  0  0  0  0  0
   -0.8282   -0.7415    5.9015 C   0  0  0  0  0  0  0  0  0  0  0  0
   -1.3161   -1.4025    7.0266 C   0  0  0  0  0  0  0  0  0  0  0  0
   -1.9283   -2.6157    6.9261 O   0  0  0  0  0  0  0  0  0  0  0  0
   -1.2029   -0.8401    8.2853 C   0  0  0  0  0  0  0  0  0  0  0  0
   -0.5987    0.4051    8.4198 C   0  0  0  0  0  0  0  0  0  0  0  0
   -0.1386    1.1016    7.2909 C   0  0  0  0  0  0  0  0  0  0  0  0
    0.4837    2.6876    7.6144 Cl  0  0  0  0  0  0  0  0  0  0  0  0
    1.3375    1.9864    4.6389 C   0  0  0  0  0  0  0  0  0  0  0  0
    1.6873    2.6659    3.4792 C   0  0  0  0  0  0  0  0  0  0  0  0
    2.7600    3.4514    3.4882 N   0  0  0  0  0  0  0  0  0  0  0  0
    3.0677    4.1469    2.3715 N   0  0  0  0  0  0  0  0  0  0  0  0
    2.3036    4.0284    1.2640 C   0  0  0  0  0  0  0  0  0  0  0  0
    2.6126    4.7788    0.1318 N   0  0  0  0  0  0  0  0  0  0  0  0
    3.2852    6.0042    0.0989 C   0  0  0  0  0  0  0  0  0  0  0  0
    4.0630    6.3206   -1.0103 C   0  0  0  0  0  0  0  0  0  0  0  0
    4.8360    7.4818   -1.0218 C   0  0  0  0  0  0  0  0  0  0  0  0
    4.8149    8.3855    0.0543 C   0  0  0  0  0  0  0  0  0  0  0  0
    5.6497    9.6499    0.0788 C   0  0  0  0  0  0  0  0  0  0  0  0
    5.8883   10.2131   -1.3187 C   0  0  0  0  0  0  0  0  0  0  0  0
    6.7272   11.4878   -1.3424 C   0  0  0  0  0  0  0  0  0  0  0  0
    6.8980   11.9888   -2.7208 N   0  0  0  0  0  0  0  0  0  0  0  0
    7.5879   11.0544   -3.6287 C   0  0  0  0  0  0  0  0  0  0  0  0
    9.0566   11.2752   -3.3534 C   0  0  0  0  0  0  0  0  0  0  0  0
    9.1265   12.7836   -3.2179 C   0  0  0  0  0  0  0  0  0  0  0  0
    7.7390   13.2035   -2.7329 C   0  0  0  0  0  0  0  0  0  0  0  0
    4.0289    8.0723    1.1632 C   0  0  0  0  0  0  0  0  0  0  0  0
    3.2777    6.8966    1.1824 C   0  0  0  0  0  0  0  0  0  0  0  0
    1.2503    3.2123    1.1896 N   0  0  0  0  0  0  0  0  0  0  0  0
    0.9180    2.5477    2.3131 C   0  0  0  0  0  0  0  0  0  0  0  0
   -1.8695    0.8312    1.2990 H   0  0  0  0  0  0  0  0  0  0  0  0
   -0.4330    1.1067    0.3137 H   0  0  0  0  0  0  0  0  0  0  0  0
   -1.4768    2.4784    0.7872 H   0  0  0  0  0  0  0  0  0  0  0  0
   -1.5049    0.5182    3.5631 H   0  0  0  0  0  0  0  0  0  0  0  0
   -0.9105   -1.2284    4.9332 H   0  0  0  0  0  0  0  0  0  0  0  0
   -1.9415   -2.8898    5.9940 H   0  0  0  0  0  0  0  0  0  0  0  0
   -1.5890   -1.3611    9.1561 H   0  0  0  0  0  0  0  0  0  0  0  0
   -0.5078    0.8444    9.4109 H   0  0  0  0  0  0  0  0  0  0  0  0
    2.0126    2.0908    5.4866 H   0  0  0  0  0  0  0  0  0  0  0  0
    2.0355    4.5492   -0.6572 H   0  0  0  0  0  0  0  0  0  0  0  0
    4.1198    5.6386   -1.8541 H   0  0  0  0  0  0  0  0  0  0  0  0
    5.4619    7.6472   -1.8934 H   0  0  0  0  0  0  0  0  0  0  0  0
    6.6068    9.4208    0.5643 H   0  0  0  0  0  0  0  0  0  0  0  0
    5.1452   10.4089    0.6900 H   0  0  0  0  0  0  0  0  0  0  0  0
    4.9253   10.3912   -1.8154 H   0  0  0  0  0  0  0  0  0  0  0  0
    6.4178    9.4472   -1.8859 H   0  0  0  0  0  0  0  0  0  0  0  0
    7.6918   11.3092   -0.8509 H   0  0  0  0  0  0  0  0  0  0  0  0
    6.2049   12.2533   -0.7543 H   0  0  0  0  0  0  0  0  0  0  0  0
    7.3510   11.3397   -4.6610 H   0  0  0  0  0  0  0  0  0  0  0  0
    7.3020   10.0036   -3.5433 H   0  0  0  0  0  0  0  0  0  0  0  0
    9.6962   10.8941   -4.1548 H   0  0  0  0  0  0  0  0  0  0  0  0
    9.3595   10.7910   -2.4178 H   0  0  0  0  0  0  0  0  0  0  0  0
    9.3264   13.2314   -4.1988 H   0  0  0  0  0  0  0  0  0  0  0  0
    9.9204   13.0902   -2.5313 H   0  0  0  0  0  0  0  0  0  0  0  0
    7.3067   13.9248   -3.4354 H   0  0  0  0  0  0  0  0  0  0  0  0
    7.7886   13.7026   -1.7588 H   0  0  0  0  0  0  0  0  0  0  0  0
    3.9980    8.7313    2.0286 H   0  0  0  0  0  0  0  0  0  0  0  0
    2.6784    6.6888    2.0660 H   0  0  0  0  0  0  0  0  0  0  0  0
  1  2  1  0  0  0  0
  1 35  1  0  0  0  0
  1 36  1  0  0  0  0
  1 37  1  0  0  0  0
  2  3  1  0  0  0  0
  2 34  2  0  0  0  0
  3  4  2  0  0  0  0
  3 38  1  0  0  0  0
  4  5  1  0  0  0  0
  4 13  1  0  0  0  0
  5  6  1  0  0  0  0
  5 11  2  0  0  0  0
  6  7  2  0  0  0  0
  6 39  1  0  0  0  0
  7  8  1  0  0  0  0
  7  9  1  0  0  0  0
  8 40  1  0  0  0  0
  9 10  2  0  0  0  0
  9 41  1  0  0  0  0
 10 11  1  0  0  0  0
 10 42  1  0  0  0  0
 11 12  1  0  0  0  0
 13 14  2  0  0  0  0
 13 43  1  0  0  0  0
 14 15  1  0  0  0  0
 14 34  1  0  0  0  0
 15 16  2  0  0  0  0
 16 17  1  0  0  0  0
 17 18  1  0  0  0  0
 17 33  2  0  0  0  0
 18 19  1  0  0  0  0
 18 44  1  0  0  0  0
 19 20  1  0  0  0  0
 19 32  2  0  0  0  0
 20 21  2  0  0  0  0
 20 45  1  0  0  0  0
 21 22  1  0  0  0  0
 21 46  1  0  0  0  0
 22 23  1  0  0  0  0
 22 31  2  0  0  0  0
 23 24  1  0  0  0  0
 23 47  1  0  0  0  0
 23 48  1  0  0  0  0
 24 25  1  0  0  0  0
 24 49  1  0  0  0  0
 24 50  1  0  0  0  0
 25 26  1  0  0  0  0
 25 51  1  0  0  0  0
 25 52  1  0  0  0  0
 26 27  1  0  0  0  0
 26 30  1  0  0  0  0
 27 28  1  0  0  0  0
 27 53  1  0  0  0  0
 27 54  1  0  0  0  0
 28 29  1  0  0  0  0
 28 55  1  0  0  0  0
 28 56  1  0  0  0  0
 29 30  1  0  0  0  0
 29 57  1  0  0  0  0
 29 58  1  0  0  0  0
 30 59  1  0  0  0  0
 30 60  1  0  0  0  0
 31 32  1  0  0  0  0
 31 61  1  0  0  0  0
 32 62  1  0  0  0  0
 33 34  1  0  0  0  0
M  END
$$$$
