CHEMBL4074755
 OpenBabel04072215383D

 51 53  0  0  0  0  0  0  0  0999 V2000
    4.9015    0.0534    5.5333 C   0  0  0  0  0  0  0  0  0  0  0  0
    4.9158    1.2417    4.5843 C   0  0  0  0  0  0  0  0  0  0  0  0
    5.7263    0.9318    3.3254 C   0  0  0  0  0  0  0  0  0  0  0  0
    5.7492    2.1182    2.3634 C   0  0  0  0  0  0  0  0  0  0  0  0
    6.5659    1.8071    1.1061 C   0  0  0  0  0  0  0  0  0  0  0  0
    6.5796    2.9922    0.1367 C   0  0  0  0  0  0  0  0  0  0  0  0
    7.1740    4.1821    0.7131 N   0  0  0  0  0  0  0  0  0  0  0  0
    8.5332    4.3736    0.5779 C   0  0  0  0  0  0  0  0  0  0  0  0
    9.2096    3.5417   -0.0177 O   0  0  0  0  0  0  0  0  0  0  0  0
    8.9951    5.5130    1.1905 N   0  0  0  0  0  0  0  0  0  0  0  0
   10.3523    5.8929    1.1708 C   0  0  0  0  0  0  0  0  0  0  0  0
   11.2361    5.3929    0.2293 C   0  0  0  0  0  0  0  0  0  0  0  0
   12.5651    5.7948    0.2390 C   0  0  0  0  0  0  0  0  0  0  0  0
   13.1145    6.5979    1.2129 C   0  0  0  0  0  0  0  0  0  0  0  0
   14.5630    6.8931    1.2407 C   0  0  0  0  0  0  0  0  0  0  0  0
   15.0525    8.1432    1.6604 C   0  0  0  0  0  0  0  0  0  0  0  0
   16.4191    8.3743    1.7238 C   0  0  0  0  0  0  0  0  0  0  0  0
   17.3812    7.4828    1.4166 N   0  0  0  0  0  0  0  0  0  0  0  0
   16.8804    6.3028    1.0063 C   0  0  0  0  0  0  0  0  0  0  0  0
   17.6215    5.2233    0.6347 N   0  0  0  0  0  0  0  0  0  0  0  0
   16.8949    4.1544    0.2764 N   0  0  0  0  0  0  0  0  0  0  0  0
   15.6233    4.5385    0.4294 C   0  0  0  0  0  0  0  0  0  0  0  0
   14.5464    3.5863    0.1379 C   0  0  0  0  0  0  0  0  0  0  0  0
   15.5439    5.9252    0.8878 C   0  0  0  0  0  0  0  0  0  0  0  0
   12.2054    7.1401    2.1372 C   0  0  0  0  0  0  0  0  0  0  0  0
   10.8389    6.8018    2.1101 C   0  0  0  0  0  0  0  0  0  0  0  0
    4.3187    0.2872    6.4295 H   0  0  0  0  0  0  0  0  0  0  0  0
    5.9171   -0.2089    5.8469 H   0  0  0  0  0  0  0  0  0  0  0  0
    4.4531   -0.8234    5.0551 H   0  0  0  0  0  0  0  0  0  0  0  0
    5.3416    2.1103    5.1006 H   0  0  0  0  0  0  0  0  0  0  0  0
    3.8852    1.4989    4.3130 H   0  0  0  0  0  0  0  0  0  0  0  0
    5.2965    0.0589    2.8198 H   0  0  0  0  0  0  0  0  0  0  0  0
    6.7533    0.6703    3.6076 H   0  0  0  0  0  0  0  0  0  0  0  0
    6.1768    2.9896    2.8722 H   0  0  0  0  0  0  0  0  0  0  0  0
    4.7241    2.3820    2.0764 H   0  0  0  0  0  0  0  0  0  0  0  0
    6.1385    0.9332    0.5977 H   0  0  0  0  0  0  0  0  0  0  0  0
    7.5920    1.5368    1.3865 H   0  0  0  0  0  0  0  0  0  0  0  0
    5.5633    3.2380   -0.1847 H   0  0  0  0  0  0  0  0  0  0  0  0
    7.1457    2.7117   -0.7606 H   0  0  0  0  0  0  0  0  0  0  0  0
    6.5885    4.9456    1.0201 H   0  0  0  0  0  0  0  0  0  0  0  0
    8.4031    5.9485    1.8732 H   0  0  0  0  0  0  0  0  0  0  0  0
   10.9324    4.7083   -0.5569 H   0  0  0  0  0  0  0  0  0  0  0  0
   13.1727    5.4623   -0.5792 H   0  0  0  0  0  0  0  0  0  0  0  0
   14.3707    8.9413    1.9311 H   0  0  0  0  0  0  0  0  0  0  0  0
   16.7899    9.3415    2.0680 H   0  0  0  0  0  0  0  0  0  0  0  0
   18.6304    5.1611    0.6096 H   0  0  0  0  0  0  0  0  0  0  0  0
   14.9334    2.6202   -0.2433 H   0  0  0  0  0  0  0  0  0  0  0  0
   13.9295    3.8891   -0.6954 H   0  0  0  0  0  0  0  0  0  0  0  0
   13.9324    3.4012    1.0258 H   0  0  0  0  0  0  0  0  0  0  0  0
   12.5614    7.8280    2.9066 H   0  0  0  0  0  0  0  0  0  0  0  0
   10.1904    7.2382    2.8619 H   0  0  0  0  0  0  0  0  0  0  0  0
  1  2  1  0  0  0  0
  1 27  1  0  0  0  0
  1 28  1  0  0  0  0
  1 29  1  0  0  0  0
  2  3  1  0  0  0  0
  2 30  1  0  0  0  0
  2 31  1  0  0  0  0
  3  4  1  0  0  0  0
  3 32  1  0  0  0  0
  3 33  1  0  0  0  0
  4  5  1  0  0  0  0
  4 34  1  0  0  0  0
  4 35  1  0  0  0  0
  5  6  1  0  0  0  0
  5 36  1  0  0  0  0
  5 37  1  0  0  0  0
  6  7  1  0  0  0  0
  6 38  1  0  0  0  0
  6 39  1  0  0  0  0
  7  8  1  0  0  0  0
  7 40  1  0  0  0  0
  8  9  2  0  0  0  0
  8 10  1  0  0  0  0
 10 11  1  0  0  0  0
 10 41  1  0  0  0  0
 11 12  1  0  0  0  0
 11 26  2  0  0  0  0
 12 13  2  0  0  0  0
 12 42  1  0  0  0  0
 13 14  1  0  0  0  0
 13 43  1  0  0  0  0
 14 15  1  0  0  0  0
 14 25  2  0  0  0  0
 15 16  1  0  0  0  0
 15 24  2  0  0  0  0
 16 17  2  0  0  0  0
 16 44  1  0  0  0  0
 17 18  1  0  0  0  0
 17 45  1  0  0  0  0
 18 19  2  0  0  0  0
 19 20  1  0  0  0  0
 19 24  1  0  0  0  0
 20 21  1  0  0  0  0
 20 46  1  0  0  0  0
 21 22  2  0  0  0  0
 22 23  1  0  0  0  0
 22 24  1  0  0  0  0
 23 47  1  0  0  0  0
 23 48  1  0  0  0  0
 23 49  1  0  0  0  0
 25 26  1  0  0  0  0
 25 50  1  0  0  0  0
 26 51  1  0  0  0  0
M  END
$$$$
