CHEMBL3919270
 OpenBabel04072215373D

 59 63  0  0  0  0  0  0  0  0999 V2000
    0.2279    1.6043   -3.9960 C   0  0  0  0  0  0  0  0  0  0  0  0
    1.4947    2.2439   -4.1559 O   0  0  0  0  0  0  0  0  0  0  0  0
    2.4439    1.9571   -3.2061 C   0  0  0  0  0  0  0  0  0  0  0  0
    2.1509    1.6173   -1.8824 C   0  0  0  0  0  0  0  0  0  0  0  0
    3.1921    1.2906   -1.0183 C   0  0  0  0  0  0  0  0  0  0  0  0
    3.0357    0.9087    0.2886 O   0  0  0  0  0  0  0  0  0  0  0  0
    1.9264    1.4874    0.9651 C   0  0  0  0  0  0  0  0  0  0  0  0
    4.5141    1.2561   -1.4808 C   0  0  0  0  0  0  0  0  0  0  0  0
    4.8423    1.5795   -2.8038 C   0  0  0  0  0  0  0  0  0  0  0  0
    6.1126    1.3010   -3.3649 N   0  0  0  0  0  0  0  0  0  0  0  0
    6.7911    0.0504   -2.8581 C   0  0  0  0  0  0  0  0  0  0  0  0
    6.0252   -1.2679   -2.8425 C   0  0  0  0  0  0  0  0  0  0  0  0
    5.1607   -1.6971   -3.8646 C   0  0  0  0  0  0  0  0  0  0  0  0
    4.5746   -2.9711   -3.8177 C   0  0  0  0  0  0  0  0  0  0  0  0
    4.8571   -3.8487   -2.7674 C   0  0  0  0  0  0  0  0  0  0  0  0
    5.7460   -3.4537   -1.7755 C   0  0  0  0  0  0  0  0  0  0  0  0
    6.1515   -4.5399   -0.5027 Cl  0  0  0  0  0  0  0  0  0  0  0  0
    6.3319   -2.1893   -1.8181 C   0  0  0  0  0  0  0  0  0  0  0  0
    7.1781    2.2211   -3.7238 C   0  0  0  0  0  0  0  0  0  0  0  0
    7.9192    1.8186   -4.8324 C   0  0  0  0  0  0  0  0  0  0  0  0
    9.2568    2.1481   -4.9217 C   0  0  0  0  0  0  0  0  0  0  0  0
    9.8417    3.0114   -4.0362 C   0  0  0  0  0  0  0  0  0  0  0  0
   11.1789    3.0609   -4.1193 N   0  0  0  0  0  0  0  0  0  0  0  0
   11.7818    4.0260   -3.4259 C   0  0  0  0  0  0  0  0  0  0  0  0
   11.0694    4.9923   -2.7445 C   0  0  0  0  0  0  0  0  0  0  0  0
   11.7897    6.2303   -2.4732 C   0  0  0  0  0  0  0  0  0  0  0  0
   11.7702    7.4509   -3.2004 C   0  0  0  0  0  0  0  0  0  0  0  0
   12.7440    8.2942   -2.8348 N   0  0  0  0  0  0  0  0  0  0  0  0
   13.3976    7.6178   -1.8764 N   0  0  0  0  0  0  0  0  0  0  0  0
   14.3542    8.2907   -1.0282 C   0  0  0  0  0  0  0  0  0  0  0  0
   12.9676    6.3242   -1.7478 C   0  0  0  0  0  0  0  0  0  0  0  0
    9.7119    4.8629   -2.5350 N   0  0  0  0  0  0  0  0  0  0  0  0
    9.0642    3.7733   -3.1462 C   0  0  0  0  0  0  0  0  0  0  0  0
    7.7124    3.2926   -2.9489 C   0  0  0  0  0  0  0  0  0  0  0  0
    3.7826    1.9820   -3.6428 C   0  0  0  0  0  0  0  0  0  0  0  0
   -0.2877    1.6321   -4.9625 H   0  0  0  0  0  0  0  0  0  0  0  0
   -0.3945    2.1434   -3.2739 H   0  0  0  0  0  0  0  0  0  0  0  0
    0.3277    0.5503   -3.7113 H   0  0  0  0  0  0  0  0  0  0  0  0
    1.1232    1.5853   -1.5427 H   0  0  0  0  0  0  0  0  0  0  0  0
    2.0778    1.3344    2.0379 H   0  0  0  0  0  0  0  0  0  0  0  0
    0.9944    0.9881    0.6834 H   0  0  0  0  0  0  0  0  0  0  0  0
    1.8654    2.5665    0.7870 H   0  0  0  0  0  0  0  0  0  0  0  0
    5.2828    0.9362   -0.7855 H   0  0  0  0  0  0  0  0  0  0  0  0
    7.1751    0.2581   -1.8497 H   0  0  0  0  0  0  0  0  0  0  0  0
    7.6712   -0.1891   -3.4662 H   0  0  0  0  0  0  0  0  0  0  0  0
    4.9438   -1.0478   -4.7114 H   0  0  0  0  0  0  0  0  0  0  0  0
    3.8997   -3.2925   -4.6100 H   0  0  0  0  0  0  0  0  0  0  0  0
    4.3991   -4.8331   -2.7361 H   0  0  0  0  0  0  0  0  0  0  0  0
    7.0568   -1.9204   -1.0510 H   0  0  0  0  0  0  0  0  0  0  0  0
    7.5064    1.0951   -5.5321 H   0  0  0  0  0  0  0  0  0  0  0  0
    9.8714    1.6687   -5.6811 H   0  0  0  0  0  0  0  0  0  0  0  0
   12.8642    4.0508   -3.5071 H   0  0  0  0  0  0  0  0  0  0  0  0
   11.1165    7.7430   -4.0131 H   0  0  0  0  0  0  0  0  0  0  0  0
   14.4483    9.3377   -1.3288 H   0  0  0  0  0  0  0  0  0  0  0  0
   15.3215    7.7880   -1.0964 H   0  0  0  0  0  0  0  0  0  0  0  0
   13.9687    8.2388   -0.0061 H   0  0  0  0  0  0  0  0  0  0  0  0
   13.5158    5.6133   -1.1453 H   0  0  0  0  0  0  0  0  0  0  0  0
    7.1185    3.7219   -2.1420 H   0  0  0  0  0  0  0  0  0  0  0  0
    3.9836    2.2188   -4.6842 H   0  0  0  0  0  0  0  0  0  0  0  0
  1  2  1  0  0  0  0
  1 36  1  0  0  0  0
  1 37  1  0  0  0  0
  1 38  1  0  0  0  0
  2  3  1  0  0  0  0
  3  4  1  0  0  0  0
  3 35  2  0  0  0  0
  4  5  2  0  0  0  0
  4 39  1  0  0  0  0
  5  6  1  0  0  0  0
  5  8  1  0  0  0  0
  6  7  1  0  0  0  0
  7 40  1  0  0  0  0
  7 41  1  0  0  0  0
  7 42  1  0  0  0  0
  8  9  2  0  0  0  0
  8 43  1  0  0  0  0
  9 10  1  0  0  0  0
  9 35  1  0  0  0  0
 10 11  1  0  0  0  0
 10 19  1  0  0  0  0
 11 12  1  0  0  0  0
 11 44  1  0  0  0  0
 11 45  1  0  0  0  0
 12 13  1  0  0  0  0
 12 18  2  0  0  0  0
 13 14  2  0  0  0  0
 13 46  1  0  0  0  0
 14 15  1  0  0  0  0
 14 47  1  0  0  0  0
 15 16  2  0  0  0  0
 15 48  1  0  0  0  0
 16 17  1  0  0  0  0
 16 18  1  0  0  0  0
 18 49  1  0  0  0  0
 19 20  1  0  0  0  0
 19 34  2  0  0  0  0
 20 21  2  0  0  0  0
 20 50  1  0  0  0  0
 21 22  1  0  0  0  0
 21 51  1  0  0  0  0
 22 23  1  0  0  0  0
 22 33  2  0  0  0  0
 23 24  2  0  0  0  0
 24 25  1  0  0  0  0
 24 52  1  0  0  0  0
 25 26  1  0  0  0  0
 25 32  2  0  0  0  0
 26 27  1  0  0  0  0
 26 31  2  0  0  0  0
 27 28  2  0  0  0  0
 27 53  1  0  0  0  0
 28 29  1  0  0  0  0
 29 30  1  0  0  0  0
 29 31  1  0  0  0  0
 30 54  1  0  0  0  0
 30 55  1  0  0  0  0
 30 56  1  0  0  0  0
 31 57  1  0  0  0  0
 32 33  1  0  0  0  0
 33 34  1  0  0  0  0
 34 58  1  0  0  0  0
 35 59  1  0  0  0  0
M  END
$$$$
