CHEMBL3907600
 OpenBabel04072215373D

 63 67  0  0  0  0  0  0  0  0999 V2000
    1.2643   -0.8760   -0.8815 C   0  0  0  0  0  0  0  0  0  0  0  0
    2.4881   -1.6300   -0.9588 N   0  0  0  0  0  0  0  0  0  0  0  0
    2.5214   -2.8775   -1.5452 C   0  0  0  0  0  0  0  0  0  0  0  0
    1.5120   -3.4599   -1.9372 O   0  0  0  0  0  0  0  0  0  0  0  0
    3.8874   -3.5142   -1.6160 C   0  0  0  0  0  0  0  0  0  0  0  0
    4.7901   -2.7523   -2.4550 N   0  0  0  0  0  0  0  0  0  0  0  0
    4.9864   -2.9070   -3.7940 C   0  0  0  0  0  0  0  0  0  0  0  0
    6.0120   -2.0501   -4.1438 C   0  0  0  0  0  0  0  0  0  0  0  0
    6.5655   -1.9449   -5.4778 C   0  0  0  0  0  0  0  0  0  0  0  0
    7.8826   -1.5825   -5.6990 C   0  0  0  0  0  0  0  0  0  0  0  0
    8.4255   -1.5382   -6.9402 N   0  0  0  0  0  0  0  0  0  0  0  0
    7.6065   -1.8765   -7.9642 C   0  0  0  0  0  0  0  0  0  0  0  0
    8.0990   -1.9011   -9.2549 C   0  0  0  0  0  0  0  0  0  0  0  0
    7.2922   -2.2941  -10.3308 C   0  0  0  0  0  0  0  0  0  0  0  0
    5.9407   -2.6310  -10.1728 C   0  0  0  0  0  0  0  0  0  0  0  0
    5.1271   -3.0302  -11.2851 N   0  0  0  0  0  0  0  0  0  0  0  0
    4.0329   -3.9992  -10.9718 C   0  0  0  0  0  0  0  0  0  0  0  0
    2.6817   -3.3320  -10.8886 C   0  0  0  0  0  0  0  0  0  0  0  0
    1.4117   -4.1549  -10.7688 C   0  0  0  0  0  0  0  0  0  0  0  0
    1.6992   -3.4074  -12.0359 C   0  0  0  0  0  0  0  0  0  0  0  0
    5.3971   -2.7652  -12.6657 C   0  0  0  0  0  0  0  0  0  0  0  0
    5.0578   -3.6581  -13.6955 C   0  0  0  0  0  0  0  0  0  0  0  0
    5.3937   -3.4305  -15.0366 C   0  0  0  0  0  0  0  0  0  0  0  0
    5.1031   -4.2742  -16.0778 O   0  0  0  0  0  0  0  0  0  0  0  0
    4.3619   -5.4474  -15.7603 C   0  0  0  0  0  0  0  0  0  0  0  0
    6.0961   -2.2805  -15.3835 C   0  0  0  0  0  0  0  0  0  0  0  0
    6.4171   -1.3482  -14.4032 C   0  0  0  0  0  0  0  0  0  0  0  0
    7.1169   -0.1913  -14.6250 O   0  0  0  0  0  0  0  0  0  0  0  0
    6.9612    0.3690  -15.9250 C   0  0  0  0  0  0  0  0  0  0  0  0
    6.0613   -1.5905  -13.0681 C   0  0  0  0  0  0  0  0  0  0  0  0
    5.4540   -2.5683   -8.8496 C   0  0  0  0  0  0  0  0  0  0  0  0
    6.2570   -2.2305   -7.7541 C   0  0  0  0  0  0  0  0  0  0  0  0
    5.7331   -2.2681   -6.5064 N   0  0  0  0  0  0  0  0  0  0  0  0
    6.3451   -1.4069   -2.9319 C   0  0  0  0  0  0  0  0  0  0  0  0
    5.5983   -1.8217   -1.9022 N   0  0  0  0  0  0  0  0  0  0  0  0
    1.4938    0.1355   -0.5380 H   0  0  0  0  0  0  0  0  0  0  0  0
    0.5891   -1.3673   -0.1756 H   0  0  0  0  0  0  0  0  0  0  0  0
    0.7921   -0.8380   -1.8669 H   0  0  0  0  0  0  0  0  0  0  0  0
    3.3681   -1.1775   -0.7212 H   0  0  0  0  0  0  0  0  0  0  0  0
    3.8055   -4.5223   -2.0356 H   0  0  0  0  0  0  0  0  0  0  0  0
    4.3194   -3.5909   -0.6121 H   0  0  0  0  0  0  0  0  0  0  0  0
    4.4112   -3.6096   -4.3831 H   0  0  0  0  0  0  0  0  0  0  0  0
    8.5643   -1.3426   -4.8933 H   0  0  0  0  0  0  0  0  0  0  0  0
    9.1346   -1.6331   -9.4295 H   0  0  0  0  0  0  0  0  0  0  0  0
    7.7735   -2.3482  -11.3050 H   0  0  0  0  0  0  0  0  0  0  0  0
    4.2344   -4.5311  -10.0366 H   0  0  0  0  0  0  0  0  0  0  0  0
    3.9836   -4.8246  -11.6877 H   0  0  0  0  0  0  0  0  0  0  0  0
    2.7084   -2.4277  -10.2920 H   0  0  0  0  0  0  0  0  0  0  0  0
    0.6063   -3.7793  -10.1454 H   0  0  0  0  0  0  0  0  0  0  0  0
    1.4647   -5.2386  -10.8023 H   0  0  0  0  0  0  0  0  0  0  0  0
    1.1074   -2.5238  -12.2536 H   0  0  0  0  0  0  0  0  0  0  0  0
    1.9358   -3.9990  -12.9135 H   0  0  0  0  0  0  0  0  0  0  0  0
    4.5553   -4.5833  -13.4638 H   0  0  0  0  0  0  0  0  0  0  0  0
    4.1696   -5.9925  -16.6898 H   0  0  0  0  0  0  0  0  0  0  0  0
    3.3912   -5.1971  -15.3177 H   0  0  0  0  0  0  0  0  0  0  0  0
    4.9366   -6.1077  -15.1015 H   0  0  0  0  0  0  0  0  0  0  0  0
    6.3903   -2.1454  -16.4185 H   0  0  0  0  0  0  0  0  0  0  0  0
    7.3866    1.3770  -15.9084 H   0  0  0  0  0  0  0  0  0  0  0  0
    5.9023    0.4566  -16.1915 H   0  0  0  0  0  0  0  0  0  0  0  0
    7.5094   -0.2095  -16.6755 H   0  0  0  0  0  0  0  0  0  0  0  0
    6.3167   -0.8259  -12.3376 H   0  0  0  0  0  0  0  0  0  0  0  0
    4.4144   -2.7868   -8.6346 H   0  0  0  0  0  0  0  0  0  0  0  0
    7.0985   -0.6511   -2.7497 H   0  0  0  0  0  0  0  0  0  0  0  0
  1  2  1  0  0  0  0
  1 36  1  0  0  0  0
  1 37  1  0  0  0  0
  1 38  1  0  0  0  0
  2  3  1  0  0  0  0
  2 39  1  0  0  0  0
  3  4  2  0  0  0  0
  3  5  1  0  0  0  0
  5  6  1  0  0  0  0
  5 40  1  0  0  0  0
  5 41  1  0  0  0  0
  6  7  1  0  0  0  0
  6 35  1  0  0  0  0
  7  8  2  0  0  0  0
  7 42  1  0  0  0  0
  8  9  1  0  0  0  0
  8 34  1  0  0  0  0
  9 10  1  0  0  0  0
  9 33  2  0  0  0  0
 10 11  2  0  0  0  0
 10 43  1  0  0  0  0
 11 12  1  0  0  0  0
 12 13  1  0  0  0  0
 12 32  2  0  0  0  0
 13 14  2  0  0  0  0
 13 44  1  0  0  0  0
 14 15  1  0  0  0  0
 14 45  1  0  0  0  0
 15 16  1  0  0  0  0
 15 31  2  0  0  0  0
 16 17  1  0  0  0  0
 16 21  1  0  0  0  0
 17 18  1  0  0  0  0
 17 46  1  0  0  0  0
 17 47  1  0  0  0  0
 18 19  1  0  0  0  0
 18 20  1  0  0  0  0
 18 48  1  0  0  0  0
 19 20  1  0  0  0  0
 19 49  1  0  0  0  0
 19 50  1  0  0  0  0
 20 51  1  0  0  0  0
 20 52  1  0  0  0  0
 21 22  1  0  0  0  0
 21 30  2  0  0  0  0
 22 23  2  0  0  0  0
 22 53  1  0  0  0  0
 23 24  1  0  0  0  0
 23 26  1  0  0  0  0
 24 25  1  0  0  0  0
 25 54  1  0  0  0  0
 25 55  1  0  0  0  0
 25 56  1  0  0  0  0
 26 27  2  0  0  0  0
 26 57  1  0  0  0  0
 27 28  1  0  0  0  0
 27 30  1  0  0  0  0
 28 29  1  0  0  0  0
 29 58  1  0  0  0  0
 29 59  1  0  0  0  0
 29 60  1  0  0  0  0
 30 61  1  0  0  0  0
 31 32  1  0  0  0  0
 31 62  1  0  0  0  0
 32 33  1  0  0  0  0
 34 35  2  0  0  0  0
 34 63  1  0  0  0  0
M  END
$$$$
