CHEMBL3656102
 OpenBabel04072215373D

 62 65  0  0  0  0  0  0  0  0999 V2000
    2.9264    2.6650   -3.3296 C   0  0  0  0  0  0  0  0  0  0  0  0
    1.5039    2.2169   -3.1552 C   0  0  0  0  0  0  0  0  0  0  0  0
    0.9965    1.2060   -3.9764 C   0  0  0  0  0  0  0  0  0  0  0  0
   -0.3065    0.7618   -3.8083 C   0  0  0  0  0  0  0  0  0  0  0  0
   -1.1203    1.3371   -2.8312 C   0  0  0  0  0  0  0  0  0  0  0  0
   -2.3118    0.7497   -2.6511 F   0  0  0  0  0  0  0  0  0  0  0  0
   -0.6696    2.3957   -2.0248 C   0  0  0  0  0  0  0  0  0  0  0  0
   -1.4687    3.0791   -1.0612 N   0  0  0  0  0  0  0  0  0  0  0  0
   -2.8530    3.0936   -1.0347 C   0  0  0  0  0  0  0  0  0  0  0  0
   -3.5709    2.5434   -1.8667 O   0  0  0  0  0  0  0  0  0  0  0  0
   -3.3841    3.8549   -0.0062 N   0  0  0  0  0  0  0  0  0  0  0  0
   -4.7960    3.8681    0.1535 C   0  0  0  0  0  0  0  0  0  0  0  0
   -5.5027    2.6643    0.2485 C   0  0  0  0  0  0  0  0  0  0  0  0
   -6.8978    2.6588    0.2807 C   0  0  0  0  0  0  0  0  0  0  0  0
   -7.6037    3.8626    0.2841 C   0  0  0  0  0  0  0  0  0  0  0  0
   -8.9796    3.9499    0.3247 O   0  0  0  0  0  0  0  0  0  0  0  0
   -9.6999    2.9902    1.0051 C   0  0  0  0  0  0  0  0  0  0  0  0
   -9.2713    2.3846    2.1806 C   0  0  0  0  0  0  0  0  0  0  0  0
  -10.0681    1.4009    2.7343 C   0  0  0  0  0  0  0  0  0  0  0  0
  -11.2650    1.0215    2.2306 N   0  0  0  0  0  0  0  0  0  0  0  0
  -11.6908    1.6712    1.1213 C   0  0  0  0  0  0  0  0  0  0  0  0
  -12.9987    1.2485    0.6304 C   0  0  0  0  0  0  0  0  0  0  0  0
  -13.7643    1.6911   -0.4333 C   0  0  0  0  0  0  0  0  0  0  0  0
  -14.9964    0.9641   -0.4657 C   0  0  0  0  0  0  0  0  0  0  0  0
  -16.1337    1.0977   -1.3762 C   0  0  0  0  0  0  0  0  0  0  0  0
  -17.1733    0.4596   -1.2443 O   0  0  0  0  0  0  0  0  0  0  0  0
  -15.9585    2.0115   -2.3937 N   0  0  0  0  0  0  0  0  0  0  0  0
  -16.9829    2.2635   -3.3867 C   0  0  0  0  0  0  0  0  0  0  0  0
  -17.9859    3.2946   -2.9108 C   0  0  0  0  0  0  0  0  0  0  0  0
  -19.0413    3.4770   -3.9678 C   0  0  0  0  0  0  0  0  0  0  0  0
  -18.9354    4.2652   -4.8954 O   0  0  0  0  0  0  0  0  0  0  0  0
  -20.0963    2.6482   -3.8286 O   0  0  0  0  0  0  0  0  0  0  0  0
  -14.9186    0.0647    0.5826 C   0  0  0  0  0  0  0  0  0  0  0  0
  -13.7213    0.2359    1.2297 N   0  0  0  0  0  0  0  0  0  0  0  0
  -10.9470    2.6606    0.4860 C   0  0  0  0  0  0  0  0  0  0  0  0
   -6.9010    5.0681    0.1820 C   0  0  0  0  0  0  0  0  0  0  0  0
   -5.4978    5.0761    0.1427 C   0  0  0  0  0  0  0  0  0  0  0  0
    0.6679    2.8051   -2.1803 C   0  0  0  0  0  0  0  0  0  0  0  0
    3.4284    2.0925   -4.1188 H   0  0  0  0  0  0  0  0  0  0  0  0
    3.4905    2.5135   -2.4048 H   0  0  0  0  0  0  0  0  0  0  0  0
    2.9623    3.7213   -3.6155 H   0  0  0  0  0  0  0  0  0  0  0  0
    1.6172    0.7421   -4.7409 H   0  0  0  0  0  0  0  0  0  0  0  0
   -0.7063   -0.0415   -4.4178 H   0  0  0  0  0  0  0  0  0  0  0  0
   -0.9988    3.7007   -0.4286 H   0  0  0  0  0  0  0  0  0  0  0  0
   -2.9165    4.7391    0.1256 H   0  0  0  0  0  0  0  0  0  0  0  0
   -4.9725    1.7153    0.2643 H   0  0  0  0  0  0  0  0  0  0  0  0
   -7.4109    1.7014    0.2914 H   0  0  0  0  0  0  0  0  0  0  0  0
   -8.3297    2.6454    2.6485 H   0  0  0  0  0  0  0  0  0  0  0  0
   -9.7477    0.8640    3.6248 H   0  0  0  0  0  0  0  0  0  0  0  0
  -13.4651    2.4794   -1.1101 H   0  0  0  0  0  0  0  0  0  0  0  0
  -15.1010    2.5394   -2.4499 H   0  0  0  0  0  0  0  0  0  0  0  0
  -17.4853    1.3167   -3.6250 H   0  0  0  0  0  0  0  0  0  0  0  0
  -16.4756    2.6044   -4.2967 H   0  0  0  0  0  0  0  0  0  0  0  0
  -17.5023    4.2604   -2.7307 H   0  0  0  0  0  0  0  0  0  0  0  0
  -18.4583    3.0118   -1.9630 H   0  0  0  0  0  0  0  0  0  0  0  0
  -20.0378    2.0500   -3.0595 H   0  0  0  0  0  0  0  0  0  0  0  0
  -15.6236   -0.6845    0.9194 H   0  0  0  0  0  0  0  0  0  0  0  0
  -13.3896   -0.2808    2.0374 H   0  0  0  0  0  0  0  0  0  0  0  0
  -11.3157    3.1626   -0.4000 H   0  0  0  0  0  0  0  0  0  0  0  0
   -7.4475    6.0050    0.1071 H   0  0  0  0  0  0  0  0  0  0  0  0
   -4.9795    6.0221    0.0238 H   0  0  0  0  0  0  0  0  0  0  0  0
    1.0691    3.6047   -1.5645 H   0  0  0  0  0  0  0  0  0  0  0  0
  1  2  1  0  0  0  0
  1 39  1  0  0  0  0
  1 40  1  0  0  0  0
  1 41  1  0  0  0  0
  2  3  1  0  0  0  0
  2 38  2  0  0  0  0
  3  4  2  0  0  0  0
  3 42  1  0  0  0  0
  4  5  1  0  0  0  0
  4 43  1  0  0  0  0
  5  6  1  0  0  0  0
  5  7  2  0  0  0  0
  7  8  1  0  0  0  0
  7 38  1  0  0  0  0
  8  9  1  0  0  0  0
  8 44  1  0  0  0  0
  9 10  2  0  0  0  0
  9 11  1  0  0  0  0
 11 12  1  0  0  0  0
 11 45  1  0  0  0  0
 12 13  1  0  0  0  0
 12 37  2  0  0  0  0
 13 14  2  0  0  0  0
 13 46  1  0  0  0  0
 14 15  1  0  0  0  0
 14 47  1  0  0  0  0
 15 16  1  0  0  0  0
 15 36  2  0  0  0  0
 16 17  1  0  0  0  0
 17 18  1  0  0  0  0
 17 35  2  0  0  0  0
 18 19  2  0  0  0  0
 18 48  1  0  0  0  0
 19 20  1  0  0  0  0
 19 49  1  0  0  0  0
 20 21  2  0  0  0  0
 21 22  1  0  0  0  0
 21 35  1  0  0  0  0
 22 23  2  0  0  0  0
 22 34  1  0  0  0  0
 23 24  1  0  0  0  0
 23 50  1  0  0  0  0
 24 25  1  0  0  0  0
 24 33  2  0  0  0  0
 25 26  2  0  0  0  0
 25 27  1  0  0  0  0
 27 28  1  0  0  0  0
 27 51  1  0  0  0  0
 28 29  1  0  0  0  0
 28 52  1  0  0  0  0
 28 53  1  0  0  0  0
 29 30  1  0  0  0  0
 29 54  1  0  0  0  0
 29 55  1  0  0  0  0
 30 31  2  0  0  0  0
 30 32  1  0  0  0  0
 32 56  1  0  0  0  0
 33 34  1  0  0  0  0
 33 57  1  0  0  0  0
 34 58  1  0  0  0  0
 35 59  1  0  0  0  0
 36 37  1  0  0  0  0
 36 60  1  0  0  0  0
 37 61  1  0  0  0  0
 38 62  1  0  0  0  0
M  END
$$$$
