CHEMBL3628804
 OpenBabel04072215373D

 41 43  0  0  0  0  0  0  0  0999 V2000
    2.0659    4.3435   -0.0851 C   0  0  0  0  0  0  0  0  0  0  0  0
    1.8549    3.8128   -1.4926 C   0  0  0  0  0  0  0  0  0  0  0  0
    2.7939    2.7468   -1.7225 O   0  0  0  0  0  0  0  0  0  0  0  0
    3.9972    3.1781   -2.1901 C   0  0  0  0  0  0  0  0  0  0  0  0
    4.1807    4.3078   -2.6196 O   0  0  0  0  0  0  0  0  0  0  0  0
    4.9287    2.1831   -2.0642 N   0  0  0  0  0  0  0  0  0  0  0  0
    6.3251    2.3322   -2.2130 C   0  0  0  0  0  0  0  0  0  0  0  0
    6.9104    3.6072   -2.2548 C   0  0  0  0  0  0  0  0  0  0  0  0
    8.2856    3.7754   -2.3996 C   0  0  0  0  0  0  0  0  0  0  0  0
    9.1129    2.6654   -2.4664 C   0  0  0  0  0  0  0  0  0  0  0  0
   10.4506    2.9245   -2.6627 O   0  0  0  0  0  0  0  0  0  0  0  0
   11.3708    2.0718   -2.0705 C   0  0  0  0  0  0  0  0  0  0  0  0
   11.0620    1.5414   -0.8694 N   0  0  0  0  0  0  0  0  0  0  0  0
   11.9558    0.6865   -0.3793 C   0  0  0  0  0  0  0  0  0  0  0  0
   13.1085    0.3259   -0.9600 N   0  0  0  0  0  0  0  0  0  0  0  0
   13.4050    0.9041   -2.1331 C   0  0  0  0  0  0  0  0  0  0  0  0
   14.5915    0.5608   -2.7645 C   0  0  0  0  0  0  0  0  0  0  0  0
   14.9749    1.1349   -3.9809 C   0  0  0  0  0  0  0  0  0  0  0  0
   14.1595    2.0838   -4.5872 C   0  0  0  0  0  0  0  0  0  0  0  0
   12.9540    2.4333   -3.9815 C   0  0  0  0  0  0  0  0  0  0  0  0
   12.5669    1.8338   -2.7544 C   0  0  0  0  0  0  0  0  0  0  0  0
    8.5501    1.3850   -2.4227 C   0  0  0  0  0  0  0  0  0  0  0  0
    7.1574    1.2002   -2.2967 C   0  0  0  0  0  0  0  0  0  0  0  0
    6.6261   -0.2077   -2.2891 C   0  0  0  0  0  0  0  0  0  0  0  0
    1.4078    5.1908    0.1227 H   0  0  0  0  0  0  0  0  0  0  0  0
    3.1040    4.6606    0.0653 H   0  0  0  0  0  0  0  0  0  0  0  0
    1.8705    3.5534    0.6471 H   0  0  0  0  0  0  0  0  0  0  0  0
    1.9503    4.6184   -2.2321 H   0  0  0  0  0  0  0  0  0  0  0  0
    0.8449    3.4069   -1.6010 H   0  0  0  0  0  0  0  0  0  0  0  0
    4.5531    1.2753   -1.8222 H   0  0  0  0  0  0  0  0  0  0  0  0
    6.3204    4.5126   -2.1572 H   0  0  0  0  0  0  0  0  0  0  0  0
    8.6989    4.7785   -2.4496 H   0  0  0  0  0  0  0  0  0  0  0  0
   11.7268    0.2321    0.5781 H   0  0  0  0  0  0  0  0  0  0  0  0
   15.2383   -0.1773   -2.2975 H   0  0  0  0  0  0  0  0  0  0  0  0
   15.9116    0.8382   -4.4467 H   0  0  0  0  0  0  0  0  0  0  0  0
   14.4602    2.5442   -5.5247 H   0  0  0  0  0  0  0  0  0  0  0  0
   12.3177    3.1772   -4.4582 H   0  0  0  0  0  0  0  0  0  0  0  0
    9.1970    0.5139   -2.4935 H   0  0  0  0  0  0  0  0  0  0  0  0
    7.4049   -0.9288   -2.5643 H   0  0  0  0  0  0  0  0  0  0  0  0
    5.8231   -0.3176   -3.0249 H   0  0  0  0  0  0  0  0  0  0  0  0
    6.2556   -0.4778   -1.2957 H   0  0  0  0  0  0  0  0  0  0  0  0
  1  2  1  0  0  0  0
  1 25  1  0  0  0  0
  1 26  1  0  0  0  0
  1 27  1  0  0  0  0
  2  3  1  0  0  0  0
  2 28  1  0  0  0  0
  2 29  1  0  0  0  0
  3  4  1  0  0  0  0
  4  5  2  0  0  0  0
  4  6  1  0  0  0  0
  6  7  1  0  0  0  0
  6 30  1  0  0  0  0
  7  8  1  0  0  0  0
  7 23  2  0  0  0  0
  8  9  2  0  0  0  0
  8 31  1  0  0  0  0
  9 10  1  0  0  0  0
  9 32  1  0  0  0  0
 10 11  1  0  0  0  0
 10 22  2  0  0  0  0
 11 12  1  0  0  0  0
 12 13  1  0  0  0  0
 12 21  2  0  0  0  0
 13 14  2  0  0  0  0
 14 15  1  0  0  0  0
 14 33  1  0  0  0  0
 15 16  2  0  0  0  0
 16 17  1  0  0  0  0
 16 21  1  0  0  0  0
 17 18  2  0  0  0  0
 17 34  1  0  0  0  0
 18 19  1  0  0  0  0
 18 35  1  0  0  0  0
 19 20  2  0  0  0  0
 19 36  1  0  0  0  0
 20 21  1  0  0  0  0
 20 37  1  0  0  0  0
 22 23  1  0  0  0  0
 22 38  1  0  0  0  0
 23 24  1  0  0  0  0
 24 39  1  0  0  0  0
 24 40  1  0  0  0  0
 24 41  1  0  0  0  0
M  END
$$$$
