CHEMBL1242199
 OpenBabel04072215363D

 39 42  0  0  0  0  0  0  0  0999 V2000
    0.9985    0.2535   -0.0478 N   0  0  0  0  0  0  0  0  0  0  0  0
    2.3783    0.0845   -0.0801 C   0  0  0  0  0  0  0  0  0  0  0  0
    3.1036    1.2212   -0.0780 N   0  0  0  0  0  0  0  0  0  0  0  0
    4.4462    1.1326   -0.0697 C   0  0  0  0  0  0  0  0  0  0  0  0
    5.1965    0.0228   -0.0483 N   0  0  0  0  0  0  0  0  0  0  0  0
    4.4372   -1.0869   -0.0587 C   0  0  0  0  0  0  0  0  0  0  0  0
    3.0509   -1.1495   -0.0906 C   0  0  0  0  0  0  0  0  0  0  0  0
    2.7514   -2.5522   -0.1337 C   0  0  0  0  0  0  0  0  0  0  0  0
    1.4549   -3.2317   -0.2433 C   0  0  0  0  0  0  0  0  0  0  0  0
    0.3927   -2.6563   -0.9559 C   0  0  0  0  0  0  0  0  0  0  0  0
   -0.8477   -3.2899   -1.0040 C   0  0  0  0  0  0  0  0  0  0  0  0
   -1.9113   -2.7047   -1.6251 O   0  0  0  0  0  0  0  0  0  0  0  0
   -1.0373   -4.5304   -0.4155 C   0  0  0  0  0  0  0  0  0  0  0  0
    0.0284   -5.1292    0.2419 C   0  0  0  0  0  0  0  0  0  0  0  0
   -0.1339   -6.3388    0.7924 F   0  0  0  0  0  0  0  0  0  0  0  0
    1.2621   -4.4907    0.3436 C   0  0  0  0  0  0  0  0  0  0  0  0
    3.8790   -3.2857   -0.0588 N   0  0  0  0  0  0  0  0  0  0  0  0
    4.8798   -2.3801   -0.0449 N   0  0  0  0  0  0  0  0  0  0  0  0
    6.2610   -2.8158   -0.0455 C   0  0  0  0  0  0  0  0  0  0  0  0
    6.6274   -3.7135   -1.2293 C   0  0  0  0  0  0  0  0  0  0  0  0
    7.8724   -4.4758   -0.7818 C   0  0  0  0  0  0  0  0  0  0  0  0
    7.9565   -4.3247    0.7362 C   0  0  0  0  0  0  0  0  0  0  0  0
    6.6549   -3.6596    1.1662 C   0  0  0  0  0  0  0  0  0  0  0  0
    0.7916    1.2251    0.1634 H   0  0  0  0  0  0  0  0  0  0  0  0
    0.5248   -0.4137    0.5492 H   0  0  0  0  0  0  0  0  0  0  0  0
    4.9858    2.0749   -0.0724 H   0  0  0  0  0  0  0  0  0  0  0  0
    0.5335   -1.7213   -1.4890 H   0  0  0  0  0  0  0  0  0  0  0  0
   -1.6566   -1.8116   -1.9148 H   0  0  0  0  0  0  0  0  0  0  0  0
   -1.9964   -5.0334   -0.4705 H   0  0  0  0  0  0  0  0  0  0  0  0
    2.0689   -4.9902    0.8737 H   0  0  0  0  0  0  0  0  0  0  0  0
    6.8979   -1.9221   -0.0734 H   0  0  0  0  0  0  0  0  0  0  0  0
    6.8099   -3.1326   -2.1395 H   0  0  0  0  0  0  0  0  0  0  0  0
    5.8287   -4.4289   -1.4587 H   0  0  0  0  0  0  0  0  0  0  0  0
    8.7723   -4.0658   -1.2534 H   0  0  0  0  0  0  0  0  0  0  0  0
    7.8043   -5.5295   -1.0736 H   0  0  0  0  0  0  0  0  0  0  0  0
    8.8100   -3.6872    0.9954 H   0  0  0  0  0  0  0  0  0  0  0  0
    8.1038   -5.2877    1.2354 H   0  0  0  0  0  0  0  0  0  0  0  0
    6.7861   -3.0531    2.0684 H   0  0  0  0  0  0  0  0  0  0  0  0
    5.9023   -4.4254    1.3883 H   0  0  0  0  0  0  0  0  0  0  0  0
  1  2  1  0  0  0  0
  1 24  1  0  0  0  0
  1 25  1  0  0  0  0
  2  3  1  0  0  0  0
  2  7  2  0  0  0  0
  3  4  2  0  0  0  0
  4  5  1  0  0  0  0
  4 26  1  0  0  0  0
  5  6  2  0  0  0  0
  6  7  1  0  0  0  0
  6 18  1  0  0  0  0
  7  8  1  0  0  0  0
  8  9  1  0  0  0  0
  8 17  2  0  0  0  0
  9 10  1  0  0  0  0
  9 16  2  0  0  0  0
 10 11  2  0  0  0  0
 10 27  1  0  0  0  0
 11 12  1  0  0  0  0
 11 13  1  0  0  0  0
 12 28  1  0  0  0  0
 13 14  2  0  0  0  0
 13 29  1  0  0  0  0
 14 15  1  0  0  0  0
 14 16  1  0  0  0  0
 16 30  1  0  0  0  0
 17 18  1  0  0  0  0
 18 19  1  0  0  0  0
 19 20  1  0  0  0  0
 19 23  1  0  0  0  0
 19 31  1  0  0  0  0
 20 21  1  0  0  0  0
 20 32  1  0  0  0  0
 20 33  1  0  0  0  0
 21 22  1  0  0  0  0
 21 34  1  0  0  0  0
 21 35  1  0  0  0  0
 22 23  1  0  0  0  0
 22 36  1  0  0  0  0
 22 37  1  0  0  0  0
 23 38  1  0  0  0  0
 23 39  1  0  0  0  0
M  END
$$$$
