CHEMBL3979996
 OpenBabel04072215373D

 61 66  0  0  0  0  0  0  0  0999 V2000
    0.6321    0.5298   -0.8750 C   0  0  0  0  0  0  0  0  0  0  0  0
    1.9805    0.0638   -0.9850 O   0  0  0  0  0  0  0  0  0  0  0  0
    2.8998    0.9846   -1.4216 C   0  0  0  0  0  0  0  0  0  0  0  0
    2.7711    2.3527   -1.2303 C   0  0  0  0  0  0  0  0  0  0  0  0
    3.7487    3.2344   -1.7580 C   0  0  0  0  0  0  0  0  0  0  0  0
    3.6116    4.7207   -1.5511 C   0  0  0  0  0  0  0  0  0  0  0  0
    4.8929    5.3713   -1.5991 O   0  0  0  0  0  0  0  0  0  0  0  0
    5.0323    6.0583   -0.3589 C   0  0  0  0  0  0  0  0  0  0  0  0
    3.6290    6.1876    0.1645 C   0  0  0  0  0  0  0  0  0  0  0  0
    2.9865    5.0037   -0.2894 O   0  0  0  0  0  0  0  0  0  0  0  0
    4.8056    2.6982   -2.5090 C   0  0  0  0  0  0  0  0  0  0  0  0
    5.0319    1.3216   -2.6297 C   0  0  0  0  0  0  0  0  0  0  0  0
    6.1518    0.8316   -3.3565 N   0  0  0  0  0  0  0  0  0  0  0  0
    6.6118   -0.5584   -3.0229 C   0  0  0  0  0  0  0  0  0  0  0  0
    5.9421   -1.7576   -3.6707 C   0  0  0  0  0  0  0  0  0  0  0  0
    6.0060   -2.1031   -5.1484 C   0  0  0  0  0  0  0  0  0  0  0  0
    4.6914   -1.7499   -4.5176 C   0  0  0  0  0  0  0  0  0  0  0  0
    7.2676    1.5553   -3.9123 C   0  0  0  0  0  0  0  0  0  0  0  0
    7.7234    1.0780   -5.1347 C   0  0  0  0  0  0  0  0  0  0  0  0
    9.0431    1.2334   -5.4847 C   0  0  0  0  0  0  0  0  0  0  0  0
    9.8811    2.0269   -4.7478 C   0  0  0  0  0  0  0  0  0  0  0  0
   11.1733    1.9147   -5.0645 N   0  0  0  0  0  0  0  0  0  0  0  0
   11.9921    2.8299   -4.5399 C   0  0  0  0  0  0  0  0  0  0  0  0
   11.5133    3.8959   -3.8087 C   0  0  0  0  0  0  0  0  0  0  0  0
   12.3726    5.0710   -3.7754 C   0  0  0  0  0  0  0  0  0  0  0  0
   12.3113    6.2462   -4.5698 C   0  0  0  0  0  0  0  0  0  0  0  0
   13.3976    7.0184   -4.4409 N   0  0  0  0  0  0  0  0  0  0  0  0
   14.1583    6.3389   -3.5666 N   0  0  0  0  0  0  0  0  0  0  0  0
   15.2721    6.9817   -2.9107 C   0  0  0  0  0  0  0  0  0  0  0  0
   13.6678    5.0934   -3.2846 C   0  0  0  0  0  0  0  0  0  0  0  0
   10.2178    3.9191   -3.3426 N   0  0  0  0  0  0  0  0  0  0  0  0
    9.3733    2.8970   -3.7594 C   0  0  0  0  0  0  0  0  0  0  0  0
    8.0512    2.5674   -3.2938 C   0  0  0  0  0  0  0  0  0  0  0  0
    4.0472    0.4806   -2.0647 C   0  0  0  0  0  0  0  0  0  0  0  0
   -0.0062   -0.3172   -0.6197 H   0  0  0  0  0  0  0  0  0  0  0  0
    0.2798    0.9399   -1.8306 H   0  0  0  0  0  0  0  0  0  0  0  0
    0.5226    1.2699   -0.0743 H   0  0  0  0  0  0  0  0  0  0  0  0
    1.9416    2.7739   -0.6820 H   0  0  0  0  0  0  0  0  0  0  0  0
    2.9950    5.1423   -2.3495 H   0  0  0  0  0  0  0  0  0  0  0  0
    5.5122    7.0271   -0.5205 H   0  0  0  0  0  0  0  0  0  0  0  0
    5.6603    5.4577    0.3077 H   0  0  0  0  0  0  0  0  0  0  0  0
    3.1114    7.0438   -0.2798 H   0  0  0  0  0  0  0  0  0  0  0  0
    3.5797    6.2638    1.2537 H   0  0  0  0  0  0  0  0  0  0  0  0
    5.4713    3.3981   -3.0001 H   0  0  0  0  0  0  0  0  0  0  0  0
    6.5555   -0.6844   -1.9346 H   0  0  0  0  0  0  0  0  0  0  0  0
    7.6839   -0.6793   -3.2348 H   0  0  0  0  0  0  0  0  0  0  0  0
    6.0948   -2.6183   -3.0206 H   0  0  0  0  0  0  0  0  0  0  0  0
    6.1660   -3.1418   -5.4259 H   0  0  0  0  0  0  0  0  0  0  0  0
    6.3852   -1.4179   -5.8895 H   0  0  0  0  0  0  0  0  0  0  0  0
    3.9795   -2.5540   -4.3567 H   0  0  0  0  0  0  0  0  0  0  0  0
    4.2389   -0.8090   -4.8020 H   0  0  0  0  0  0  0  0  0  0  0  0
    7.0861    0.4568   -5.7481 H   0  0  0  0  0  0  0  0  0  0  0  0
    9.4471    0.6846   -6.3276 H   0  0  0  0  0  0  0  0  0  0  0  0
   13.0367    2.7248   -4.8104 H   0  0  0  0  0  0  0  0  0  0  0  0
   11.5408    6.5541   -5.2658 H   0  0  0  0  0  0  0  0  0  0  0  0
   15.3748    8.0087   -3.2708 H   0  0  0  0  0  0  0  0  0  0  0  0
   16.1861    6.4158   -3.1032 H   0  0  0  0  0  0  0  0  0  0  0  0
   15.0482    6.9922   -1.8402 H   0  0  0  0  0  0  0  0  0  0  0  0
   14.2569    4.3696   -2.7394 H   0  0  0  0  0  0  0  0  0  0  0  0
    7.6944    3.0667   -2.3942 H   0  0  0  0  0  0  0  0  0  0  0  0
    4.1122   -0.6031   -2.1456 H   0  0  0  0  0  0  0  0  0  0  0  0
  1  2  1  0  0  0  0
  1 35  1  0  0  0  0
  1 36  1  0  0  0  0
  1 37  1  0  0  0  0
  2  3  1  0  0  0  0
  3  4  1  0  0  0  0
  3 34  2  0  0  0  0
  4  5  2  0  0  0  0
  4 38  1  0  0  0  0
  5  6  1  0  0  0  0
  5 11  1  0  0  0  0
  6  7  1  0  0  0  0
  6 10  1  0  0  0  0
  6 39  1  0  0  0  0
  7  8  1  0  0  0  0
  8  9  1  0  0  0  0
  8 40  1  0  0  0  0
  8 41  1  0  0  0  0
  9 10  1  0  0  0  0
  9 42  1  0  0  0  0
  9 43  1  0  0  0  0
 11 12  2  0  0  0  0
 11 44  1  0  0  0  0
 12 13  1  0  0  0  0
 12 34  1  0  0  0  0
 13 14  1  0  0  0  0
 13 18  1  0  0  0  0
 14 15  1  0  0  0  0
 14 45  1  0  0  0  0
 14 46  1  0  0  0  0
 15 16  1  0  0  0  0
 15 17  1  0  0  0  0
 15 47  1  0  0  0  0
 16 17  1  0  0  0  0
 16 48  1  0  0  0  0
 16 49  1  0  0  0  0
 17 50  1  0  0  0  0
 17 51  1  0  0  0  0
 18 19  1  0  0  0  0
 18 33  2  0  0  0  0
 19 20  2  0  0  0  0
 19 52  1  0  0  0  0
 20 21  1  0  0  0  0
 20 53  1  0  0  0  0
 21 22  1  0  0  0  0
 21 32  2  0  0  0  0
 22 23  2  0  0  0  0
 23 24  1  0  0  0  0
 23 54  1  0  0  0  0
 24 25  1  0  0  0  0
 24 31  2  0  0  0  0
 25 26  1  0  0  0  0
 25 30  2  0  0  0  0
 26 27  2  0  0  0  0
 26 55  1  0  0  0  0
 27 28  1  0  0  0  0
 28 29  1  0  0  0  0
 28 30  1  0  0  0  0
 29 56  1  0  0  0  0
 29 57  1  0  0  0  0
 29 58  1  0  0  0  0
 30 59  1  0  0  0  0
 31 32  1  0  0  0  0
 32 33  1  0  0  0  0
 33 60  1  0  0  0  0
 34 61  1  0  0  0  0
M  END
$$$$
