CHEMBL192417
 OpenBabel04072215363D

 33 35  0  0  0  0  0  0  0  0999 V2000
    2.7416   -2.8180   -1.3165 C   0  0  0  0  0  0  0  0  0  0  0  0
    1.3337   -2.3629   -1.5622 C   0  0  0  0  0  0  0  0  0  0  0  0
    1.0041   -1.7175   -2.7565 C   0  0  0  0  0  0  0  0  0  0  0  0
   -0.3011   -1.3048   -2.9846 C   0  0  0  0  0  0  0  0  0  0  0  0
   -1.2866   -1.5424   -2.0261 C   0  0  0  0  0  0  0  0  0  0  0  0
   -1.0027   -2.2036   -0.8224 C   0  0  0  0  0  0  0  0  0  0  0  0
   -1.9869   -2.5093    0.1430 N   0  0  0  0  0  0  0  0  0  0  0  0
   -3.3216   -2.4025   -0.0084 C   0  0  0  0  0  0  0  0  0  0  0  0
   -4.0274   -1.8843   -0.9895 N   0  0  0  0  0  0  0  0  0  0  0  0
   -5.3234   -2.0955   -0.6333 C   0  0  0  0  0  0  0  0  0  0  0  0
   -5.3848   -2.7470    0.5771 C   0  0  0  0  0  0  0  0  0  0  0  0
   -6.4792   -3.2326    1.4049 C   0  0  0  0  0  0  0  0  0  0  0  0
   -7.8050   -3.0878    0.9568 C   0  0  0  0  0  0  0  0  0  0  0  0
   -8.8800   -3.5398    1.7232 C   0  0  0  0  0  0  0  0  0  0  0  0
   -8.6468   -4.1461    2.9522 C   0  0  0  0  0  0  0  0  0  0  0  0
   -7.3386   -4.3014    3.4118 C   0  0  0  0  0  0  0  0  0  0  0  0
   -6.2607   -3.8481    2.6431 C   0  0  0  0  0  0  0  0  0  0  0  0
   -4.0904   -2.9386    0.9972 O   0  0  0  0  0  0  0  0  0  0  0  0
    0.3281   -2.6005   -0.6041 C   0  0  0  0  0  0  0  0  0  0  0  0
    3.4069   -2.5127   -2.1318 H   0  0  0  0  0  0  0  0  0  0  0  0
    2.7788   -3.9095   -1.2452 H   0  0  0  0  0  0  0  0  0  0  0  0
    3.1273   -2.3780   -0.3917 H   0  0  0  0  0  0  0  0  0  0  0  0
    1.7583   -1.5325   -3.5172 H   0  0  0  0  0  0  0  0  0  0  0  0
   -0.5658   -0.8019   -3.9115 H   0  0  0  0  0  0  0  0  0  0  0  0
   -2.2872   -1.1930   -2.2556 H   0  0  0  0  0  0  0  0  0  0  0  0
   -1.6540   -2.9625    0.9808 H   0  0  0  0  0  0  0  0  0  0  0  0
   -6.1406   -1.7749   -1.2670 H   0  0  0  0  0  0  0  0  0  0  0  0
   -8.0217   -2.6213   -0.0010 H   0  0  0  0  0  0  0  0  0  0  0  0
   -9.8964   -3.4173    1.3576 H   0  0  0  0  0  0  0  0  0  0  0  0
   -9.4814   -4.4979    3.5520 H   0  0  0  0  0  0  0  0  0  0  0  0
   -7.1562   -4.7772    4.3727 H   0  0  0  0  0  0  0  0  0  0  0  0
   -5.2505   -3.9814    3.0230 H   0  0  0  0  0  0  0  0  0  0  0  0
    0.5947   -3.1167    0.3155 H   0  0  0  0  0  0  0  0  0  0  0  0
  1  2  1  0  0  0  0
  1 20  1  0  0  0  0
  1 21  1  0  0  0  0
  1 22  1  0  0  0  0
  2  3  1  0  0  0  0
  2 19  2  0  0  0  0
  3  4  2  0  0  0  0
  3 23  1  0  0  0  0
  4  5  1  0  0  0  0
  4 24  1  0  0  0  0
  5  6  2  0  0  0  0
  5 25  1  0  0  0  0
  6  7  1  0  0  0  0
  6 19  1  0  0  0  0
  7  8  1  0  0  0  0
  7 26  1  0  0  0  0
  8  9  2  0  0  0  0
  8 18  1  0  0  0  0
  9 10  1  0  0  0  0
 10 11  2  0  0  0  0
 10 27  1  0  0  0  0
 11 12  1  0  0  0  0
 11 18  1  0  0  0  0
 12 13  1  0  0  0  0
 12 17  2  0  0  0  0
 13 14  2  0  0  0  0
 13 28  1  0  0  0  0
 14 15  1  0  0  0  0
 14 29  1  0  0  0  0
 15 16  2  0  0  0  0
 15 30  1  0  0  0  0
 16 17  1  0  0  0  0
 16 31  1  0  0  0  0
 17 32  1  0  0  0  0
 19 33  1  0  0  0  0
M  END
$$$$
