CHEMBL1241391
 OpenBabel04072215363D

 32 34  0  0  0  0  0  0  0  0999 V2000
    0.9941    0.1203   -0.0050 C   0  0  0  0  0  0  0  0  0  0  0  0
    2.5203    0.1675    0.1006 C   0  0  0  0  0  0  0  0  0  0  0  0
    3.1540    0.3686   -1.2771 C   0  0  0  0  0  0  0  0  0  0  0  0
    2.9497    1.1952    1.0457 N   0  0  0  0  0  0  0  0  0  0  0  0
    2.6399    2.4870    0.8088 N   0  0  0  0  0  0  0  0  0  0  0  0
    3.1403    3.1544    1.8679 C   0  0  0  0  0  0  0  0  0  0  0  0
    2.9779    4.5962    1.9638 C   0  0  0  0  0  0  0  0  0  0  0  0
    1.8649    5.2484    1.4704 C   0  0  0  0  0  0  0  0  0  0  0  0
    1.6282    6.5711    1.6342 N   0  0  0  0  0  0  0  0  0  0  0  0
    2.5653    7.2511    2.3113 C   0  0  0  0  0  0  0  0  0  0  0  0
    3.7065    6.7430    2.7968 N   0  0  0  0  0  0  0  0  0  0  0  0
    3.8965    5.4247    2.5757 C   0  0  0  0  0  0  0  0  0  0  0  0
    3.7439    2.2584    2.8077 C   0  0  0  0  0  0  0  0  0  0  0  0
    4.3698    2.3046    4.0613 C   0  0  0  0  0  0  0  0  0  0  0  0
    4.5605    3.4505    4.8194 N   0  0  0  0  0  0  0  0  0  0  0  0
    4.8259    1.1579    4.6017 N   0  0  0  0  0  0  0  0  0  0  0  0
    4.6494    0.0104    3.9233 C   0  0  0  0  0  0  0  0  0  0  0  0
    4.0482   -0.1654    2.7349 N   0  0  0  0  0  0  0  0  0  0  0  0
    3.6217    1.0018    2.2224 C   0  0  0  0  0  0  0  0  0  0  0  0
    0.6737   -0.6790   -0.6821 H   0  0  0  0  0  0  0  0  0  0  0  0
    0.5864    1.0637   -0.3856 H   0  0  0  0  0  0  0  0  0  0  0  0
    0.5412   -0.0651    0.9751 H   0  0  0  0  0  0  0  0  0  0  0  0
    2.8635   -0.7967    0.4943 H   0  0  0  0  0  0  0  0  0  0  0  0
    2.8653    1.3284   -1.7196 H   0  0  0  0  0  0  0  0  0  0  0  0
    2.8434   -0.4237   -1.9673 H   0  0  0  0  0  0  0  0  0  0  0  0
    4.2473    0.3479   -1.2114 H   0  0  0  0  0  0  0  0  0  0  0  0
    1.0940    4.7137    0.9196 H   0  0  0  0  0  0  0  0  0  0  0  0
    2.3877    8.3069    2.4804 H   0  0  0  0  0  0  0  0  0  0  0  0
    4.8503    5.0507    2.9385 H   0  0  0  0  0  0  0  0  0  0  0  0
    3.8298    4.1498    4.7731 H   0  0  0  0  0  0  0  0  0  0  0  0
    4.8582    3.2143    5.7625 H   0  0  0  0  0  0  0  0  0  0  0  0
    5.0374   -0.8858    4.4030 H   0  0  0  0  0  0  0  0  0  0  0  0
  1  2  1  0  0  0  0
  1 20  1  0  0  0  0
  1 21  1  0  0  0  0
  1 22  1  0  0  0  0
  2  3  1  0  0  0  0
  2  4  1  0  0  0  0
  2 23  1  0  0  0  0
  3 24  1  0  0  0  0
  3 25  1  0  0  0  0
  3 26  1  0  0  0  0
  4  5  1  0  0  0  0
  4 19  1  0  0  0  0
  5  6  2  0  0  0  0
  6  7  1  0  0  0  0
  6 13  1  0  0  0  0
  7  8  1  0  0  0  0
  7 12  2  0  0  0  0
  8  9  2  0  0  0  0
  8 27  1  0  0  0  0
  9 10  1  0  0  0  0
 10 11  2  0  0  0  0
 10 28  1  0  0  0  0
 11 12  1  0  0  0  0
 12 29  1  0  0  0  0
 13 14  1  0  0  0  0
 13 19  2  0  0  0  0
 14 15  1  0  0  0  0
 14 16  2  0  0  0  0
 15 30  1  0  0  0  0
 15 31  1  0  0  0  0
 16 17  1  0  0  0  0
 17 18  2  0  0  0  0
 17 32  1  0  0  0  0
 18 19  1  0  0  0  0
M  END
$$$$
