CHEMBL397323
 OpenBabel04072215373D

 38 40  0  0  0  0  0  0  0  0999 V2000
    2.3004   -1.2425   -0.1374 O   0  0  0  0  0  0  0  0  0  0  0  0
    2.2360   -0.0204   -0.0376 C   0  0  0  0  0  0  0  0  0  0  0  0
    1.4576    0.6534    0.8996 N   0  0  0  0  0  0  0  0  0  0  0  0
    0.5590    0.0711    1.8208 C   0  0  0  0  0  0  0  0  0  0  0  0
    0.5635   -1.2879    2.1394 C   0  0  0  0  0  0  0  0  0  0  0  0
   -0.4285   -1.8353    2.9587 C   0  0  0  0  0  0  0  0  0  0  0  0
   -1.4278   -1.0195    3.4744 C   0  0  0  0  0  0  0  0  0  0  0  0
   -2.6981   -1.7104    4.4046 Cl  0  0  0  0  0  0  0  0  0  0  0  0
   -1.4106    0.3512    3.2248 C   0  0  0  0  0  0  0  0  0  0  0  0
   -0.4101    0.8987    2.4132 C   0  0  0  0  0  0  0  0  0  0  0  0
    2.9603    0.8462   -0.9487 C   0  0  0  0  0  0  0  0  0  0  0  0
    2.7486    2.1810   -1.2660 C   0  0  0  0  0  0  0  0  0  0  0  0
    3.6887    2.4915   -2.2574 C   0  0  0  0  0  0  0  0  0  0  0  0
    4.4568    1.4555   -2.5638 N   0  0  0  0  0  0  0  0  0  0  0  0
    4.0081    0.4528   -1.7716 N   0  0  0  0  0  0  0  0  0  0  0  0
    4.6074   -0.8699   -1.9256 C   0  0  0  0  0  0  0  0  0  0  0  0
    6.0612   -0.8354   -2.4294 C   0  0  0  0  0  0  0  0  0  0  0  0
    6.6502   -2.2058   -2.6645 C   0  0  0  0  0  0  0  0  0  0  0  0
    6.6096   -2.7838   -3.9378 C   0  0  0  0  0  0  0  0  0  0  0  0
    7.1519   -4.0480   -4.1172 C   0  0  0  0  0  0  0  0  0  0  0  0
    7.7260   -4.7653   -3.1293 N   0  0  0  0  0  0  0  0  0  0  0  0
    7.7656   -4.1877   -1.9098 C   0  0  0  0  0  0  0  0  0  0  0  0
    7.2506   -2.9283   -1.6306 C   0  0  0  0  0  0  0  0  0  0  0  0
    1.4389    1.6606    0.8429 H   0  0  0  0  0  0  0  0  0  0  0  0
    1.3304   -1.9574    1.7624 H   0  0  0  0  0  0  0  0  0  0  0  0
   -0.4167   -2.9012    3.1685 H   0  0  0  0  0  0  0  0  0  0  0  0
   -2.1853    0.9905    3.6378 H   0  0  0  0  0  0  0  0  0  0  0  0
   -0.4303    1.9685    2.2180 H   0  0  0  0  0  0  0  0  0  0  0  0
    1.9874    2.8405   -0.8757 H   0  0  0  0  0  0  0  0  0  0  0  0
    3.8296    3.4273   -2.7850 H   0  0  0  0  0  0  0  0  0  0  0  0
    3.9647   -1.4131   -2.6284 H   0  0  0  0  0  0  0  0  0  0  0  0
    4.5722   -1.3750   -0.9560 H   0  0  0  0  0  0  0  0  0  0  0  0
    6.6936   -0.2868   -1.7173 H   0  0  0  0  0  0  0  0  0  0  0  0
    6.1271   -0.2748   -3.3713 H   0  0  0  0  0  0  0  0  0  0  0  0
    6.1738   -2.2602   -4.7825 H   0  0  0  0  0  0  0  0  0  0  0  0
    7.1362   -4.5298   -5.0907 H   0  0  0  0  0  0  0  0  0  0  0  0
    8.2379   -4.7840   -1.1343 H   0  0  0  0  0  0  0  0  0  0  0  0
    7.3303   -2.5249   -0.6269 H   0  0  0  0  0  0  0  0  0  0  0  0
  1  2  2  0  0  0  0
  2  3  1  0  0  0  0
  2 11  1  0  0  0  0
  3  4  1  0  0  0  0
  3 24  1  0  0  0  0
  4  5  1  0  0  0  0
  4 10  2  0  0  0  0
  5  6  2  0  0  0  0
  5 25  1  0  0  0  0
  6  7  1  0  0  0  0
  6 26  1  0  0  0  0
  7  8  1  0  0  0  0
  7  9  2  0  0  0  0
  9 10  1  0  0  0  0
  9 27  1  0  0  0  0
 10 28  1  0  0  0  0
 11 12  2  0  0  0  0
 11 15  1  0  0  0  0
 12 13  1  0  0  0  0
 12 29  1  0  0  0  0
 13 14  2  0  0  0  0
 13 30  1  0  0  0  0
 14 15  1  0  0  0  0
 15 16  1  0  0  0  0
 16 17  1  0  0  0  0
 16 31  1  0  0  0  0
 16 32  1  0  0  0  0
 17 18  1  0  0  0  0
 17 33  1  0  0  0  0
 17 34  1  0  0  0  0
 18 19  1  0  0  0  0
 18 23  2  0  0  0  0
 19 20  2  0  0  0  0
 19 35  1  0  0  0  0
 20 21  1  0  0  0  0
 20 36  1  0  0  0  0
 21 22  2  0  0  0  0
 22 23  1  0  0  0  0
 22 37  1  0  0  0  0
 23 38  1  0  0  0  0
M  END
$$$$
