CHEMBL1966836
 OpenBabel04072215363D

 48 51  0  0  0  0  0  0  0  0999 V2000
    2.3104   -4.7922   -1.3735 C   0  0  0  0  0  0  0  0  0  0  0  0
    3.5764   -4.1351   -1.1779 N   0  0  0  0  0  0  0  0  0  0  0  0
    4.6850   -4.6258   -1.7545 N   0  0  0  0  0  0  0  0  0  0  0  0
    5.6414   -3.7992   -1.3470 C   0  0  0  0  0  0  0  0  0  0  0  0
    6.9165   -4.0203   -1.7118 N   0  0  0  0  0  0  0  0  0  0  0  0
    5.1548   -2.7307   -0.5216 C   0  0  0  0  0  0  0  0  0  0  0  0
    5.6287   -1.5697    0.1609 C   0  0  0  0  0  0  0  0  0  0  0  0
    7.0326   -1.1193    0.0849 C   0  0  0  0  0  0  0  0  0  0  0  0
    7.7500   -1.2055   -1.1100 C   0  0  0  0  0  0  0  0  0  0  0  0
    9.1060   -0.8910   -1.1790 C   0  0  0  0  0  0  0  0  0  0  0  0
    9.7748   -0.3374   -0.0901 C   0  0  0  0  0  0  0  0  0  0  0  0
   11.1346    0.0474   -0.1606 N   0  0  0  0  0  0  0  0  0  0  0  0
   11.7878    0.3115   -1.3572 C   0  0  0  0  0  0  0  0  0  0  0  0
   11.2420    0.3775   -2.4513 O   0  0  0  0  0  0  0  0  0  0  0  0
   13.1564    0.4562   -1.1843 N   0  0  0  0  0  0  0  0  0  0  0  0
   13.9831    0.7905   -2.2835 C   0  0  0  0  0  0  0  0  0  0  0  0
   13.5833    1.7398   -3.2324 C   0  0  0  0  0  0  0  0  0  0  0  0
   14.3849    2.0182   -4.3370 C   0  0  0  0  0  0  0  0  0  0  0  0
   15.5825    1.3341   -4.5055 C   0  0  0  0  0  0  0  0  0  0  0  0
   16.3205    1.6062   -5.5885 F   0  0  0  0  0  0  0  0  0  0  0  0
   16.0029    0.3815   -3.5805 C   0  0  0  0  0  0  0  0  0  0  0  0
   17.2489   -0.4187   -3.8105 C   0  0  0  0  0  0  0  0  0  0  0  0
   17.9698   -0.0752   -4.9105 F   0  0  0  0  0  0  0  0  0  0  0  0
   18.1123   -0.3323   -2.7596 F   0  0  0  0  0  0  0  0  0  0  0  0
   16.9773   -1.7488   -3.9476 F   0  0  0  0  0  0  0  0  0  0  0  0
   15.2066    0.1362   -2.4426 C   0  0  0  0  0  0  0  0  0  0  0  0
    9.0674   -0.1728    1.1021 C   0  0  0  0  0  0  0  0  0  0  0  0
    7.7161   -0.5647    1.1868 C   0  0  0  0  0  0  0  0  0  0  0  0
    4.6653   -0.8556    0.9006 C   0  0  0  0  0  0  0  0  0  0  0  0
    3.3444   -1.2801    0.9310 C   0  0  0  0  0  0  0  0  0  0  0  0
    2.8540   -2.3530    0.2837 N   0  0  0  0  0  0  0  0  0  0  0  0
    3.7930   -3.0206   -0.4175 C   0  0  0  0  0  0  0  0  0  0  0  0
    2.4439   -5.6466   -2.0491 H   0  0  0  0  0  0  0  0  0  0  0  0
    1.6122   -4.0809   -1.8156 H   0  0  0  0  0  0  0  0  0  0  0  0
    1.9500   -5.1433   -0.4050 H   0  0  0  0  0  0  0  0  0  0  0  0
    7.0956   -4.8888   -2.1992 H   0  0  0  0  0  0  0  0  0  0  0  0
    7.6795   -3.7193   -1.1193 H   0  0  0  0  0  0  0  0  0  0  0  0
    7.2698   -1.5476   -2.0251 H   0  0  0  0  0  0  0  0  0  0  0  0
    9.6098   -1.0964   -2.1195 H   0  0  0  0  0  0  0  0  0  0  0  0
   11.5618    0.4233    0.6754 H   0  0  0  0  0  0  0  0  0  0  0  0
   13.5539   -0.1361   -0.4687 H   0  0  0  0  0  0  0  0  0  0  0  0
   12.6357    2.2658   -3.1303 H   0  0  0  0  0  0  0  0  0  0  0  0
   14.0683    2.7479   -5.0762 H   0  0  0  0  0  0  0  0  0  0  0  0
   15.5217   -0.6226   -1.7289 H   0  0  0  0  0  0  0  0  0  0  0  0
    9.5388    0.2715    1.9742 H   0  0  0  0  0  0  0  0  0  0  0  0
    7.2036   -0.4263    2.1371 H   0  0  0  0  0  0  0  0  0  0  0  0
    4.9337    0.0477    1.4410 H   0  0  0  0  0  0  0  0  0  0  0  0
    2.6074   -0.7256    1.5072 H   0  0  0  0  0  0  0  0  0  0  0  0
  1  2  1  0  0  0  0
  1 33  1  0  0  0  0
  1 34  1  0  0  0  0
  1 35  1  0  0  0  0
  2  3  1  0  0  0  0
  2 32  1  0  0  0  0
  3  4  2  0  0  0  0
  4  5  1  0  0  0  0
  4  6  1  0  0  0  0
  5 36  1  0  0  0  0
  5 37  1  0  0  0  0
  6  7  1  0  0  0  0
  6 32  2  0  0  0  0
  7  8  1  0  0  0  0
  7 29  2  0  0  0  0
  8  9  1  0  0  0  0
  8 28  2  0  0  0  0
  9 10  2  0  0  0  0
  9 38  1  0  0  0  0
 10 11  1  0  0  0  0
 10 39  1  0  0  0  0
 11 12  1  0  0  0  0
 11 27  2  0  0  0  0
 12 13  1  0  0  0  0
 12 40  1  0  0  0  0
 13 14  2  0  0  0  0
 13 15  1  0  0  0  0
 15 16  1  0  0  0  0
 15 41  1  0  0  0  0
 16 17  1  0  0  0  0
 16 26  2  0  0  0  0
 17 18  2  0  0  0  0
 17 42  1  0  0  0  0
 18 19  1  0  0  0  0
 18 43  1  0  0  0  0
 19 20  1  0  0  0  0
 19 21  2  0  0  0  0
 21 22  1  0  0  0  0
 21 26  1  0  0  0  0
 22 23  1  0  0  0  0
 22 24  1  0  0  0  0
 22 25  1  0  0  0  0
 26 44  1  0  0  0  0
 27 28  1  0  0  0  0
 27 45  1  0  0  0  0
 28 46  1  0  0  0  0
 29 30  1  0  0  0  0
 29 47  1  0  0  0  0
 30 31  2  0  0  0  0
 30 48  1  0  0  0  0
 31 32  1  0  0  0  0
M  END
$$$$
