CHEMBL212987
 OpenBabel04072215363D

 75 80  0  0  0  0  0  0  0  0999 V2000
   -1.8786   -0.0866    9.0309 C   0  0  0  0  0  0  0  0  0  0  0  0
   -3.0526   -1.0201    8.8880 C   0  0  0  0  0  0  0  0  0  0  0  0
   -3.8713   -1.3350    9.9639 C   0  0  0  0  0  0  0  0  0  0  0  0
   -4.9308   -2.2214    9.7835 C   0  0  0  0  0  0  0  0  0  0  0  0
   -5.1718   -2.8321    8.5381 C   0  0  0  0  0  0  0  0  0  0  0  0
   -4.3531   -2.5660    7.4216 C   0  0  0  0  0  0  0  0  0  0  0  0
   -4.4768   -3.2532    6.1220 N   0  0  0  0  0  0  0  0  0  0  0  0
   -3.2515   -3.2951    5.3558 C   0  0  0  0  0  0  0  0  0  0  0  0
   -5.6876   -3.8634    5.6745 C   0  0  0  0  0  0  0  0  0  0  0  0
   -6.7124   -3.8228    6.3628 O   0  0  0  0  0  0  0  0  0  0  0  0
   -5.7804   -4.5014    4.4064 N   0  0  0  0  0  0  0  0  0  0  0  0
   -4.8182   -4.6522    3.3148 C   0  0  0  0  0  0  0  0  0  0  0  0
   -7.1495   -5.0371    4.1028 C   0  0  0  0  0  0  0  0  0  0  0  0
   -7.3561   -5.6999    2.7394 C   0  0  0  0  0  0  0  0  0  0  0  0
   -7.4692   -5.0612    1.5361 C   0  0  0  0  0  0  0  0  0  0  0  0
   -7.5774   -5.9567    0.4712 C   0  0  0  0  0  0  0  0  0  0  0  0
   -7.9601   -7.2412    0.8420 C   0  0  0  0  0  0  0  0  0  0  0  0
   -8.5222   -8.2300   -0.0754 C   0  0  0  0  0  0  0  0  0  0  0  0
   -8.3763   -9.6090   -0.1059 N   0  0  0  0  0  0  0  0  0  0  0  0
   -8.4764  -10.1543   -1.3769 N   0  0  0  0  0  0  0  0  0  0  0  0
   -8.9024   -9.1304   -2.1303 C   0  0  0  0  0  0  0  0  0  0  0  0
   -9.0919   -7.9705   -1.3095 C   0  0  0  0  0  0  0  0  0  0  0  0
   -9.0800   -6.7628   -2.1628 C   0  0  0  0  0  0  0  0  0  0  0  0
   -7.9798   -7.3634   -3.0551 C   0  0  0  0  0  0  0  0  0  0  0  0
   -6.5912   -7.4248   -2.7537 C   0  0  0  0  0  0  0  0  0  0  0  0
   -5.7952   -8.3823   -3.4126 C   0  0  0  0  0  0  0  0  0  0  0  0
   -4.5431   -9.0182   -2.8217 C   0  0  0  0  0  0  0  0  0  0  0  0
   -3.2805   -8.6311   -3.4515 N   0  0  0  0  0  0  0  0  0  0  0  0
   -2.9690   -7.2236   -3.1649 C   0  0  0  0  0  0  0  0  0  0  0  0
   -1.6206   -6.8064   -3.7836 C   0  0  0  0  0  0  0  0  0  0  0  0
   -0.4650   -7.6213   -3.3605 N   0  0  0  0  0  0  0  0  0  0  0  0
   -0.0728   -7.3272   -1.9852 C   0  0  0  0  0  0  0  0  0  0  0  0
   -0.7929   -9.0504   -3.5461 C   0  0  0  0  0  0  0  0  0  0  0  0
   -2.1678   -9.4887   -2.9769 C   0  0  0  0  0  0  0  0  0  0  0  0
   -6.3629   -9.0015   -4.5172 C   0  0  0  0  0  0  0  0  0  0  0  0
   -7.7368   -9.2034   -4.4910 C   0  0  0  0  0  0  0  0  0  0  0  0
   -8.4831   -8.6025   -3.4987 C   0  0  0  0  0  0  0  0  0  0  0  0
   -7.6130   -7.4144    2.5204 S   0  0  0  0  0  0  0  0  0  0  0  0
   -3.3201   -1.6157    7.6420 C   0  0  0  0  0  0  0  0  0  0  0  0
   -1.8192    0.3462   10.0334 H   0  0  0  0  0  0  0  0  0  0  0  0
   -1.9657    0.7365    8.3131 H   0  0  0  0  0  0  0  0  0  0  0  0
   -0.9459   -0.6266    8.8432 H   0  0  0  0  0  0  0  0  0  0  0  0
   -3.6977   -0.8921   10.9459 H   0  0  0  0  0  0  0  0  0  0  0  0
   -5.5748   -2.4625   10.6249 H   0  0  0  0  0  0  0  0  0  0  0  0
   -5.9791   -3.5487    8.4801 H   0  0  0  0  0  0  0  0  0  0  0  0
   -2.3560   -2.9546    5.8833 H   0  0  0  0  0  0  0  0  0  0  0  0
   -3.3764   -2.6490    4.4799 H   0  0  0  0  0  0  0  0  0  0  0  0
   -3.0195   -4.3347    5.1264 H   0  0  0  0  0  0  0  0  0  0  0  0
   -3.8275   -4.2435    3.4386 H   0  0  0  0  0  0  0  0  0  0  0  0
   -5.1972   -4.1570    2.4413 H   0  0  0  0  0  0  0  0  0  0  0  0
   -4.6811   -5.7270    3.1181 H   0  0  0  0  0  0  0  0  0  0  0  0
   -7.8263   -4.1751    4.1256 H   0  0  0  0  0  0  0  0  0  0  0  0
   -7.4531   -5.7165    4.9069 H   0  0  0  0  0  0  0  0  0  0  0  0
   -7.3904   -3.9745    1.4075 H   0  0  0  0  0  0  0  0  0  0  0  0
   -7.5020   -5.6007   -0.5471 H   0  0  0  0  0  0  0  0  0  0  0  0
   -8.0268  -10.2062    0.6310 H   0  0  0  0  0  0  0  0  0  0  0  0
   -8.8894   -5.7859   -1.7429 H   0  0  0  0  0  0  0  0  0  0  0  0
  -10.0207   -6.6859   -2.7260 H   0  0  0  0  0  0  0  0  0  0  0  0
   -6.2183   -6.9934   -1.8281 H   0  0  0  0  0  0  0  0  0  0  0  0
   -4.6722  -10.1057   -2.9549 H   0  0  0  0  0  0  0  0  0  0  0  0
   -4.5204   -8.8796   -1.7320 H   0  0  0  0  0  0  0  0  0  0  0  0
   -2.9572   -7.0448   -2.0816 H   0  0  0  0  0  0  0  0  0  0  0  0
   -3.7447   -6.5796   -3.5917 H   0  0  0  0  0  0  0  0  0  0  0  0
   -1.4369   -5.7475   -3.5705 H   0  0  0  0  0  0  0  0  0  0  0  0
   -1.7040   -6.8790   -4.8769 H   0  0  0  0  0  0  0  0  0  0  0  0
    0.1499   -6.2598   -1.8732 H   0  0  0  0  0  0  0  0  0  0  0  0
    0.8478   -7.8633   -1.7307 H   0  0  0  0  0  0  0  0  0  0  0  0
   -0.8361   -7.5924   -1.2469 H   0  0  0  0  0  0  0  0  0  0  0  0
    0.0032   -9.6777   -3.1246 H   0  0  0  0  0  0  0  0  0  0  0  0
   -0.7860   -9.2575   -4.6248 H   0  0  0  0  0  0  0  0  0  0  0  0
   -2.1168   -9.4891   -1.8792 H   0  0  0  0  0  0  0  0  0  0  0  0
   -2.3424  -10.5283   -3.2855 H   0  0  0  0  0  0  0  0  0  0  0  0
   -5.7373   -9.3970   -5.3115 H   0  0  0  0  0  0  0  0  0  0  0  0
   -8.2312   -9.5420   -5.3983 H   0  0  0  0  0  0  0  0  0  0  0  0
   -2.6886   -1.2833    6.8206 H   0  0  0  0  0  0  0  0  0  0  0  0
  1  2  1  0  0  0  0
  1 40  1  0  0  0  0
  1 41  1  0  0  0  0
  1 42  1  0  0  0  0
  2  3  1  0  0  0  0
  2 39  2  0  0  0  0
  3  4  2  0  0  0  0
  3 43  1  0  0  0  0
  4  5  1  0  0  0  0
  4 44  1  0  0  0  0
  5  6  2  0  0  0  0
  5 45  1  0  0  0  0
  6  7  1  0  0  0  0
  6 39  1  0  0  0  0
  7  8  1  0  0  0  0
  7  9  1  0  0  0  0
  8 46  1  0  0  0  0
  8 47  1  0  0  0  0
  8 48  1  0  0  0  0
  9 10  2  0  0  0  0
  9 11  1  0  0  0  0
 11 12  1  0  0  0  0
 11 13  1  0  0  0  0
 12 49  1  0  0  0  0
 12 50  1  0  0  0  0
 12 51  1  0  0  0  0
 13 14  1  0  0  0  0
 13 52  1  0  0  0  0
 13 53  1  0  0  0  0
 14 15  2  0  0  0  0
 14 38  1  0  0  0  0
 15 16  1  0  0  0  0
 15 54  1  0  0  0  0
 16 17  2  0  0  0  0
 16 55  1  0  0  0  0
 17 18  1  0  0  0  0
 17 38  1  0  0  0  0
 18 19  1  0  0  0  0
 18 22  2  0  0  0  0
 19 20  1  0  0  0  0
 19 56  1  0  0  0  0
 20 21  2  0  0  0  0
 21 22  1  0  0  0  0
 21 37  1  0  0  0  0
 22 23  1  0  0  0  0
 23 24  1  0  0  0  0
 23 57  1  0  0  0  0
 23 58  1  0  0  0  0
 24 25  1  0  0  0  0
 24 37  2  0  0  0  0
 25 26  2  0  0  0  0
 25 59  1  0  0  0  0
 26 27  1  0  0  0  0
 26 35  1  0  0  0  0
 27 28  1  0  0  0  0
 27 60  1  0  0  0  0
 27 61  1  0  0  0  0
 28 29  1  0  0  0  0
 28 34  1  0  0  0  0
 29 30  1  0  0  0  0
 29 62  1  0  0  0  0
 29 63  1  0  0  0  0
 30 31  1  0  0  0  0
 30 64  1  0  0  0  0
 30 65  1  0  0  0  0
 31 32  1  0  0  0  0
 31 33  1  0  0  0  0
 32 66  1  0  0  0  0
 32 67  1  0  0  0  0
 32 68  1  0  0  0  0
 33 34  1  0  0  0  0
 33 69  1  0  0  0  0
 33 70  1  0  0  0  0
 34 71  1  0  0  0  0
 34 72  1  0  0  0  0
 35 36  2  0  0  0  0
 35 73  1  0  0  0  0
 36 37  1  0  0  0  0
 36 74  1  0  0  0  0
 39 75  1  0  0  0  0
M  END
$$$$
