CHEMBL4107173
 OpenBabel04072215383D

 76 80  0  0  1  0  0  0  0  0999 V2000
    5.6598    1.4534    0.3526 C   0  0  0  0  0  0  0  0  0  0  0  0
    4.6917    0.8708   -0.5203 O   0  0  0  0  0  0  0  0  0  0  0  0
    4.3597   -0.4173   -0.1990 C   0  0  0  0  0  0  0  0  0  0  0  0
    4.8181   -1.0304    0.7512 O   0  0  0  0  0  0  0  0  0  0  0  0
    3.2654   -0.9395   -1.1396 C   0  0  2  0  0  0  0  0  0  0  0  0
    2.8599   -2.3756   -0.8007 C   0  0  0  0  0  0  0  0  0  0  0  0
    2.4449   -2.9520   -2.1342 C   0  0  1  0  0  0  0  0  0  0  0  0
    1.0994   -2.5907   -2.4398 O   0  0  0  0  0  0  0  0  0  0  0  0
    3.4261   -2.3049   -3.1011 C   0  0  0  0  0  0  0  0  0  0  0  0
    3.7234   -0.9612   -2.5651 N   0  0  0  0  0  0  0  0  0  0  0  0
    3.1383    0.1464   -3.3320 C   0  0  0  0  0  0  0  0  0  0  0  0
    3.6355    0.2247   -4.7786 C   0  0  0  0  0  0  0  0  0  0  0  0
    2.9681    1.3847   -5.5054 C   0  0  0  0  0  0  0  0  0  0  0  0
    3.3969    1.4521   -6.8809 N   0  0  0  0  0  0  0  0  0  0  0  0
    2.9537    2.4393   -7.7332 C   0  0  0  0  0  0  0  0  0  0  0  0
    2.1652    3.3048   -7.3601 O   0  0  0  0  0  0  0  0  0  0  0  0
    3.4843    2.3804   -9.0848 C   0  0  0  0  0  0  0  0  0  0  0  0
    3.2189    3.2613  -10.1133 C   0  0  0  0  0  0  0  0  0  0  0  0
    3.9126    2.9386  -11.3123 C   0  0  0  0  0  0  0  0  0  0  0  0
    3.8389    3.6488  -12.4688 N   0  0  0  0  0  0  0  0  0  0  0  0
    4.5878    3.1886  -13.4865 C   0  0  0  0  0  0  0  0  0  0  0  0
    5.3808    2.0613  -13.4423 C   0  0  0  0  0  0  0  0  0  0  0  0
    5.3892    1.2908  -12.2795 C   0  0  0  0  0  0  0  0  0  0  0  0
    6.0856    0.1084  -12.1623 O   0  0  0  0  0  0  0  0  0  0  0  0
    6.0900   -0.7587  -13.2297 C   0  0  0  0  0  0  0  0  0  0  0  0
    7.2109   -1.5662  -13.3497 C   0  0  0  0  0  0  0  0  0  0  0  0
    7.3301   -2.4257  -14.4422 C   0  0  0  0  0  0  0  0  0  0  0  0
    6.3325   -2.5026  -15.4248 C   0  0  0  0  0  0  0  0  0  0  0  0
    6.4161   -3.3418  -16.5631 N   0  0  0  0  0  0  0  0  0  0  0  0
    7.4189   -4.2578  -16.7918 C   0  0  0  0  0  0  0  0  0  0  0  0
    8.3561   -4.4701  -16.0275 O   0  0  0  0  0  0  0  0  0  0  0  0
    7.2845   -4.9287  -17.9985 N   0  0  0  0  0  0  0  0  0  0  0  0
    8.3026   -5.8786  -18.2983 C   0  0  0  0  0  0  0  0  0  0  0  0
    8.6101   -6.8967  -17.3850 C   0  0  0  0  0  0  0  0  0  0  0  0
    9.7645   -7.6720  -17.5425 C   0  0  0  0  0  0  0  0  0  0  0  0
   10.1312   -8.7011  -16.5142 C   0  0  0  0  0  0  0  0  0  0  0  0
   10.6058   -7.4206  -18.6339 C   0  0  0  0  0  0  0  0  0  0  0  0
   10.2670   -6.4493  -19.5823 C   0  0  0  0  0  0  0  0  0  0  0  0
    9.1059   -5.6994  -19.4208 C   0  0  0  0  0  0  0  0  0  0  0  0
    8.8215   -4.7243  -20.2982 F   0  0  0  0  0  0  0  0  0  0  0  0
    5.1890   -1.7173  -15.2715 C   0  0  0  0  0  0  0  0  0  0  0  0
    5.0540   -0.8792  -14.1599 C   0  0  0  0  0  0  0  0  0  0  0  0
    4.6752    1.7814  -11.1785 C   0  0  0  0  0  0  0  0  0  0  0  0
    4.5581    1.1460   -9.5886 S   0  0  0  0  0  0  0  0  0  0  0  0
    5.8692    2.4659   -0.0035 H   0  0  0  0  0  0  0  0  0  0  0  0
    6.5921    0.8803    0.3365 H   0  0  0  0  0  0  0  0  0  0  0  0
    5.2637    1.5211    1.3707 H   0  0  0  0  0  0  0  0  0  0  0  0
    2.3827   -0.2984   -1.0085 H   0  0  0  0  0  0  0  0  0  0  0  0
    2.0454   -2.3940   -0.0690 H   0  0  0  0  0  0  0  0  0  0  0  0
    3.7037   -2.9507   -0.4015 H   0  0  0  0  0  0  0  0  0  0  0  0
    2.5089   -4.0435   -2.1527 H   0  0  0  0  0  0  0  0  0  0  0  0
    1.0595   -1.6287   -2.5662 H   0  0  0  0  0  0  0  0  0  0  0  0
    3.0350   -2.3118   -4.1211 H   0  0  0  0  0  0  0  0  0  0  0  0
    4.3672   -2.8678   -3.0995 H   0  0  0  0  0  0  0  0  0  0  0  0
    3.4027    1.0925   -2.8429 H   0  0  0  0  0  0  0  0  0  0  0  0
    2.0437    0.0860   -3.3282 H   0  0  0  0  0  0  0  0  0  0  0  0
    3.4107   -0.6938   -5.3314 H   0  0  0  0  0  0  0  0  0  0  0  0
    4.7260    0.3430   -4.8001 H   0  0  0  0  0  0  0  0  0  0  0  0
    3.2066    2.3404   -5.0251 H   0  0  0  0  0  0  0  0  0  0  0  0
    1.8780    1.2706   -5.5025 H   0  0  0  0  0  0  0  0  0  0  0  0
    4.0178    0.7441   -7.2536 H   0  0  0  0  0  0  0  0  0  0  0  0
    2.5563    4.1107  -10.0107 H   0  0  0  0  0  0  0  0  0  0  0  0
    4.5218    3.7736  -14.4011 H   0  0  0  0  0  0  0  0  0  0  0  0
    5.9499    1.7689  -14.3184 H   0  0  0  0  0  0  0  0  0  0  0  0
    8.0051   -1.5310  -12.6085 H   0  0  0  0  0  0  0  0  0  0  0  0
    8.2384   -3.0167  -14.4849 H   0  0  0  0  0  0  0  0  0  0  0  0
    5.6270   -3.3591  -17.1924 H   0  0  0  0  0  0  0  0  0  0  0  0
    7.0374   -4.3225  -18.7719 H   0  0  0  0  0  0  0  0  0  0  0  0
    7.9795   -7.0387  -16.5094 H   0  0  0  0  0  0  0  0  0  0  0  0
    9.3184   -8.8569  -15.7960 H   0  0  0  0  0  0  0  0  0  0  0  0
   11.0176   -8.3824  -15.9564 H   0  0  0  0  0  0  0  0  0  0  0  0
   10.3325   -9.6621  -16.9971 H   0  0  0  0  0  0  0  0  0  0  0  0
   11.5395   -7.9691  -18.7389 H   0  0  0  0  0  0  0  0  0  0  0  0
   10.9269   -6.2435  -20.4181 H   0  0  0  0  0  0  0  0  0  0  0  0
    4.3874   -1.7404  -16.0036 H   0  0  0  0  0  0  0  0  0  0  0  0
    4.1374   -0.3048  -14.0491 H   0  0  0  0  0  0  0  0  0  0  0  0
  1  2  1  0  0  0  0
  1 45  1  0  0  0  0
  1 46  1  0  0  0  0
  1 47  1  0  0  0  0
  2  3  1  0  0  0  0
  3  4  2  0  0  0  0
  5  6  1  0  0  0  0
  5 10  1  0  0  0  0
  5  3  1  0  0  0  0
  5 48  1  1  0  0  0
  6  7  1  0  0  0  0
  6 49  1  0  0  0  0
  6 50  1  0  0  0  0
  7  8  1  0  0  0  0
  7  9  1  0  0  0  0
  7 51  1  6  0  0  0
  8 52  1  0  0  0  0
  9 10  1  0  0  0  0
  9 53  1  0  0  0  0
  9 54  1  0  0  0  0
 10 11  1  0  0  0  0
 11 12  1  0  0  0  0
 11 55  1  0  0  0  0
 11 56  1  0  0  0  0
 12 13  1  0  0  0  0
 12 57  1  0  0  0  0
 12 58  1  0  0  0  0
 13 14  1  0  0  0  0
 13 59  1  0  0  0  0
 13 60  1  0  0  0  0
 14 15  1  0  0  0  0
 14 61  1  0  0  0  0
 15 16  2  0  0  0  0
 15 17  1  0  0  0  0
 17 18  2  0  0  0  0
 17 44  1  0  0  0  0
 18 19  1  0  0  0  0
 18 62  1  0  0  0  0
 19 20  1  0  0  0  0
 19 43  2  0  0  0  0
 20 21  2  0  0  0  0
 21 22  1  0  0  0  0
 21 63  1  0  0  0  0
 22 23  2  0  0  0  0
 22 64  1  0  0  0  0
 23 24  1  0  0  0  0
 23 43  1  0  0  0  0
 24 25  1  0  0  0  0
 25 26  1  0  0  0  0
 25 42  2  0  0  0  0
 26 27  2  0  0  0  0
 26 65  1  0  0  0  0
 27 28  1  0  0  0  0
 27 66  1  0  0  0  0
 28 29  1  0  0  0  0
 28 41  2  0  0  0  0
 29 30  1  0  0  0  0
 29 67  1  0  0  0  0
 30 31  2  0  0  0  0
 30 32  1  0  0  0  0
 32 33  1  0  0  0  0
 32 68  1  0  0  0  0
 33 34  1  0  0  0  0
 33 39  2  0  0  0  0
 34 35  2  0  0  0  0
 34 69  1  0  0  0  0
 35 36  1  0  0  0  0
 35 37  1  0  0  0  0
 36 70  1  0  0  0  0
 36 71  1  0  0  0  0
 36 72  1  0  0  0  0
 37 38  2  0  0  0  0
 37 73  1  0  0  0  0
 38 39  1  0  0  0  0
 38 74  1  0  0  0  0
 39 40  1  0  0  0  0
 41 42  1  0  0  0  0
 41 75  1  0  0  0  0
 42 76  1  0  0  0  0
 43 44  1  0  0  0  0
M  END
$$$$
