CHEMBL3671492
 OpenBabel04072215373D

 51 53  0  0  0  0  0  0  0  0999 V2000
    3.1363   -2.6465   -0.1258 C   0  0  0  0  0  0  0  0  0  0  0  0
    3.3568   -1.3423   -0.2822 C   0  0  0  0  0  0  0  0  0  0  0  0
    4.1669   -0.8866   -1.4423 C   0  0  0  0  0  0  0  0  0  0  0  0
    4.3572   -1.6073   -2.4153 O   0  0  0  0  0  0  0  0  0  0  0  0
    4.6175    0.4107   -1.2967 N   0  0  0  0  0  0  0  0  0  0  0  0
    5.2566    1.0724   -2.3611 C   0  0  0  0  0  0  0  0  0  0  0  0
    6.3418    0.4015   -2.9236 C   0  0  0  0  0  0  0  0  0  0  0  0
    6.9756    0.8583   -4.0872 C   0  0  0  0  0  0  0  0  0  0  0  0
    8.0473    0.1837   -4.6924 C   0  0  0  0  0  0  0  0  0  0  0  0
    8.4734   -1.0494   -4.1504 N   0  0  0  0  0  0  0  0  0  0  0  0
    9.7611   -1.6129   -4.1209 C   0  0  0  0  0  0  0  0  0  0  0  0
   10.9161   -0.8236   -4.1322 C   0  0  0  0  0  0  0  0  0  0  0  0
   12.1722   -1.3926   -3.8985 C   0  0  0  0  0  0  0  0  0  0  0  0
   12.2826   -2.7628   -3.6653 C   0  0  0  0  0  0  0  0  0  0  0  0
   13.9657   -3.5056   -3.2323 Br  0  0  0  0  0  0  0  0  0  0  0  0
   11.1575   -3.5781   -3.7073 C   0  0  0  0  0  0  0  0  0  0  0  0
    9.9126   -2.9950   -3.9261 C   0  0  0  0  0  0  0  0  0  0  0  0
    8.8238   -3.7813   -3.9225 F   0  0  0  0  0  0  0  0  0  0  0  0
    8.6584    0.6684   -5.7832 N   0  0  0  0  0  0  0  0  0  0  0  0
    8.1526    1.8003   -6.2876 C   0  0  0  0  0  0  0  0  0  0  0  0
    7.1284    2.5143   -5.7927 N   0  0  0  0  0  0  0  0  0  0  0  0
    6.5470    2.0470   -4.6837 C   0  0  0  0  0  0  0  0  0  0  0  0
    5.4936    2.7442   -4.0895 C   0  0  0  0  0  0  0  0  0  0  0  0
    4.8525    2.2988   -2.9115 C   0  0  0  0  0  0  0  0  0  0  0  0
    3.7916    3.0917   -2.5025 O   0  0  0  0  0  0  0  0  0  0  0  0
    3.6956    3.2180   -1.0878 C   0  0  0  0  0  0  0  0  0  0  0  0
    2.7374    4.3071   -0.5870 C   0  0  0  0  0  0  0  0  0  0  0  0
    2.6920    4.2721    0.8962 N   0  0  0  0  0  0  0  0  0  0  0  0
    3.9570    4.7048    1.4977 C   0  0  0  0  0  0  0  0  0  0  0  0
    1.5919    5.0816    1.4164 C   0  0  0  0  0  0  0  0  0  0  0  0
    2.5320   -3.0213    0.6944 H   0  0  0  0  0  0  0  0  0  0  0  0
    3.5489   -3.3824   -0.8160 H   0  0  0  0  0  0  0  0  0  0  0  0
    2.9344   -0.6075    0.3896 H   0  0  0  0  0  0  0  0  0  0  0  0
    4.3198    0.9264   -0.4876 H   0  0  0  0  0  0  0  0  0  0  0  0
    6.7035   -0.5022   -2.4337 H   0  0  0  0  0  0  0  0  0  0  0  0
    7.7261   -1.7411   -4.1517 H   0  0  0  0  0  0  0  0  0  0  0  0
   10.8433    0.2515   -4.2767 H   0  0  0  0  0  0  0  0  0  0  0  0
   13.0489   -0.7507   -3.8718 H   0  0  0  0  0  0  0  0  0  0  0  0
   11.2236   -4.6483   -3.5438 H   0  0  0  0  0  0  0  0  0  0  0  0
    8.6206    2.1776   -7.1906 H   0  0  0  0  0  0  0  0  0  0  0  0
    5.1427    3.6604   -4.5622 H   0  0  0  0  0  0  0  0  0  0  0  0
    4.7015    3.3922   -0.6942 H   0  0  0  0  0  0  0  0  0  0  0  0
    3.2581    2.3055   -0.6903 H   0  0  0  0  0  0  0  0  0  0  0  0
    1.7409    4.0782   -0.9906 H   0  0  0  0  0  0  0  0  0  0  0  0
    3.0086    5.2949   -0.9758 H   0  0  0  0  0  0  0  0  0  0  0  0
    4.7632    3.9965    1.2824 H   0  0  0  0  0  0  0  0  0  0  0  0
    3.8820    4.7262    2.5904 H   0  0  0  0  0  0  0  0  0  0  0  0
    4.2605    5.6971    1.1484 H   0  0  0  0  0  0  0  0  0  0  0  0
    0.6292    4.7011    1.0593 H   0  0  0  0  0  0  0  0  0  0  0  0
    1.6841    6.1356    1.1358 H   0  0  0  0  0  0  0  0  0  0  0  0
    1.5595    5.0173    2.5111 H   0  0  0  0  0  0  0  0  0  0  0  0
  1  2  2  0  0  0  0
  1 31  1  0  0  0  0
  1 32  1  0  0  0  0
  2  3  1  0  0  0  0
  2 33  1  0  0  0  0
  3  4  2  0  0  0  0
  3  5  1  0  0  0  0
  5  6  1  0  0  0  0
  5 34  1  0  0  0  0
  6  7  1  0  0  0  0
  6 24  2  0  0  0  0
  7  8  2  0  0  0  0
  7 35  1  0  0  0  0
  8  9  1  0  0  0  0
  8 22  1  0  0  0  0
  9 10  1  0  0  0  0
  9 19  2  0  0  0  0
 10 11  1  0  0  0  0
 10 36  1  0  0  0  0
 11 12  1  0  0  0  0
 11 17  2  0  0  0  0
 12 13  2  0  0  0  0
 12 37  1  0  0  0  0
 13 14  1  0  0  0  0
 13 38  1  0  0  0  0
 14 15  1  0  0  0  0
 14 16  2  0  0  0  0
 16 17  1  0  0  0  0
 16 39  1  0  0  0  0
 17 18  1  0  0  0  0
 19 20  1  0  0  0  0
 20 21  2  0  0  0  0
 20 40  1  0  0  0  0
 21 22  1  0  0  0  0
 22 23  2  0  0  0  0
 23 24  1  0  0  0  0
 23 41  1  0  0  0  0
 24 25  1  0  0  0  0
 25 26  1  0  0  0  0
 26 27  1  0  0  0  0
 26 42  1  0  0  0  0
 26 43  1  0  0  0  0
 27 28  1  0  0  0  0
 27 44  1  0  0  0  0
 27 45  1  0  0  0  0
 28 29  1  0  0  0  0
 28 30  1  0  0  0  0
 29 46  1  0  0  0  0
 29 47  1  0  0  0  0
 29 48  1  0  0  0  0
 30 49  1  0  0  0  0
 30 50  1  0  0  0  0
 30 51  1  0  0  0  0
M  END
$$$$
