CHEMBL2000345
 OpenBabel04072215363D

 38 40  0  0  0  0  0  0  0  0999 V2000
    0.3424    1.2605   -0.3956 C   0  0  0  0  0  0  0  0  0  0  0  0
    1.6589    0.8922   -0.7873 O   0  0  0  0  0  0  0  0  0  0  0  0
    2.6809    1.6922   -0.3511 C   0  0  0  0  0  0  0  0  0  0  0  0
    3.7880    1.7131   -1.2189 C   0  0  0  0  0  0  0  0  0  0  0  0
    4.9698    2.4164   -0.9202 C   0  0  0  0  0  0  0  0  0  0  0  0
    6.1150    2.4544   -1.8756 C   0  0  0  0  0  0  0  0  0  0  0  0
    6.5796    1.5032   -2.7169 C   0  0  0  0  0  0  0  0  0  0  0  0
    5.9770    0.2158   -2.8334 C   0  0  0  0  0  0  0  0  0  0  0  0
    5.5474   -0.8459   -3.0330 N   0  0  0  0  0  0  0  0  0  0  0  0
    7.7467    1.7922   -3.5052 C   0  0  0  0  0  0  0  0  0  0  0  0
    8.5271    2.8605   -3.5565 N   0  0  0  0  0  0  0  0  0  0  0  0
    9.5460    2.5561   -4.4349 C   0  0  0  0  0  0  0  0  0  0  0  0
   10.6648    3.3085   -4.8315 C   0  0  0  0  0  0  0  0  0  0  0  0
   11.5871    2.7433   -5.7354 C   0  0  0  0  0  0  0  0  0  0  0  0
   12.8083    3.5016   -6.1646 C   0  0  0  0  0  0  0  0  0  0  0  0
   11.3697    1.4514   -6.2403 C   0  0  0  0  0  0  0  0  0  0  0  0
   10.2563    0.6934   -5.8651 C   0  0  0  0  0  0  0  0  0  0  0  0
    9.3767    1.2833   -4.9583 C   0  0  0  0  0  0  0  0  0  0  0  0
    8.2246    0.8291   -4.3759 N   0  0  0  0  0  0  0  0  0  0  0  0
    4.9901    3.1364    0.2916 C   0  0  0  0  0  0  0  0  0  0  0  0
    6.5007    4.1447    0.8730 Br  0  0  0  0  0  0  0  0  0  0  0  0
    3.8884    3.1307    1.1621 C   0  0  0  0  0  0  0  0  0  0  0  0
    2.7408    2.4060    0.8448 C   0  0  0  0  0  0  0  0  0  0  0  0
    1.7015    2.3963    1.7302 O   0  0  0  0  0  0  0  0  0  0  0  0
   -0.3553    0.6566   -0.9847 H   0  0  0  0  0  0  0  0  0  0  0  0
    0.1420    2.3134   -0.6193 H   0  0  0  0  0  0  0  0  0  0  0  0
    0.1487    1.0237    0.6537 H   0  0  0  0  0  0  0  0  0  0  0  0
    3.6777    1.1648   -2.1508 H   0  0  0  0  0  0  0  0  0  0  0  0
    6.6537    3.4041   -1.8631 H   0  0  0  0  0  0  0  0  0  0  0  0
   10.8082    4.3046   -4.4267 H   0  0  0  0  0  0  0  0  0  0  0  0
   12.8661    4.4815   -5.6788 H   0  0  0  0  0  0  0  0  0  0  0  0
   12.7928    3.6603   -7.2476 H   0  0  0  0  0  0  0  0  0  0  0  0
   13.7108    2.9413   -5.8976 H   0  0  0  0  0  0  0  0  0  0  0  0
   12.0844    1.0186   -6.9389 H   0  0  0  0  0  0  0  0  0  0  0  0
   10.0984   -0.3061   -6.2561 H   0  0  0  0  0  0  0  0  0  0  0  0
    7.8219   -0.0834   -4.5411 H   0  0  0  0  0  0  0  0  0  0  0  0
    3.9382    3.6899    2.0929 H   0  0  0  0  0  0  0  0  0  0  0  0
    1.9439    2.8922    2.5291 H   0  0  0  0  0  0  0  0  0  0  0  0
  1  2  1  0  0  0  0
  1 25  1  0  0  0  0
  1 26  1  0  0  0  0
  1 27  1  0  0  0  0
  2  3  1  0  0  0  0
  3  4  1  0  0  0  0
  3 23  2  0  0  0  0
  4  5  2  0  0  0  0
  4 28  1  0  0  0  0
  5  6  1  0  0  0  0
  5 20  1  0  0  0  0
  6  7  2  3  0  0  0
  6 29  1  0  0  0  0
  7  8  1  0  0  0  0
  7 10  1  0  0  0  0
  8  9  3  0  0  0  0
 10 11  2  0  0  0  0
 10 19  1  0  0  0  0
 11 12  1  0  0  0  0
 12 13  1  0  0  0  0
 12 18  2  0  0  0  0
 13 14  2  0  0  0  0
 13 30  1  0  0  0  0
 14 15  1  0  0  0  0
 14 16  1  0  0  0  0
 15 31  1  0  0  0  0
 15 32  1  0  0  0  0
 15 33  1  0  0  0  0
 16 17  2  0  0  0  0
 16 34  1  0  0  0  0
 17 18  1  0  0  0  0
 17 35  1  0  0  0  0
 18 19  1  0  0  0  0
 19 36  1  0  0  0  0
 20 21  1  0  0  0  0
 20 22  2  0  0  0  0
 22 23  1  0  0  0  0
 22 37  1  0  0  0  0
 23 24  1  0  0  0  0
 24 38  1  0  0  0  0
M  END
$$$$
