CHEMBL4788196
 OpenBabel04072215383D

 65 70  0  0  0  0  0  0  0  0999 V2000
   10.5212   -2.1072   -1.2362 C   0  0  0  0  0  0  0  0  0  0  0  0
    9.6444   -3.1460   -1.6873 O   0  0  0  0  0  0  0  0  0  0  0  0
    8.8214   -2.8136   -2.7320 C   0  0  0  0  0  0  0  0  0  0  0  0
    9.2362   -1.9012   -3.7174 C   0  0  0  0  0  0  0  0  0  0  0  0
    8.3904   -1.4367   -4.7130 C   0  0  0  0  0  0  0  0  0  0  0  0
    8.8457   -0.4848   -5.5360 N   0  0  0  0  0  0  0  0  0  0  0  0
    7.9906   -0.0129   -6.4521 C   0  0  0  0  0  0  0  0  0  0  0  0
    6.7342   -0.4142   -6.6369 N   0  0  0  0  0  0  0  0  0  0  0  0
    6.2948   -1.3452   -5.7664 C   0  0  0  0  0  0  0  0  0  0  0  0
    4.9597   -1.7228   -5.8566 O   0  0  0  0  0  0  0  0  0  0  0  0
    4.0279   -0.7412   -6.1373 C   0  0  0  0  0  0  0  0  0  0  0  0
    2.9054   -1.1355   -6.8707 C   0  0  0  0  0  0  0  0  0  0  0  0
    1.8430   -0.2399   -7.0908 C   0  0  0  0  0  0  0  0  0  0  0  0
    1.8723    1.0633   -6.5710 C   0  0  0  0  0  0  0  0  0  0  0  0
    0.7372    1.8969   -6.6820 N   0  0  0  0  0  0  0  0  0  0  0  0
    0.2620    2.8559   -5.7550 C   0  0  0  0  0  0  0  0  0  0  0  0
    1.0173    3.1260   -4.6582 N   0  0  0  0  0  0  0  0  0  0  0  0
    0.6257    4.0780   -3.7889 C   0  0  0  0  0  0  0  0  0  0  0  0
   -0.5211    4.8185   -3.9446 C   0  0  0  0  0  0  0  0  0  0  0  0
   -1.3238    4.5507   -5.0470 C   0  0  0  0  0  0  0  0  0  0  0  0
   -2.5265    5.2421   -5.2185 N   0  0  0  0  0  0  0  0  0  0  0  0
   -3.4231    4.9454   -6.2214 C   0  0  0  0  0  0  0  0  0  0  0  0
   -4.7229    5.7213   -6.1841 C   0  0  0  0  0  0  0  0  0  0  0  0
   -3.1674    4.0044   -7.1579 C   0  0  0  0  0  0  0  0  0  0  0  0
   -4.1359    3.6666   -8.2160 C   0  0  0  0  0  0  0  0  0  0  0  0
   -4.1254    4.3587   -9.4359 C   0  0  0  0  0  0  0  0  0  0  0  0
   -5.0594    4.0482  -10.4266 C   0  0  0  0  0  0  0  0  0  0  0  0
   -5.9989    3.0495  -10.1963 C   0  0  0  0  0  0  0  0  0  0  0  0
   -6.8948    2.7543  -11.1472 F   0  0  0  0  0  0  0  0  0  0  0  0
   -6.0231    2.3527   -8.9938 C   0  0  0  0  0  0  0  0  0  0  0  0
   -5.0907    2.6603   -8.0013 C   0  0  0  0  0  0  0  0  0  0  0  0
   -1.8656    3.2496   -7.0809 C   0  0  0  0  0  0  0  0  0  0  0  0
   -1.5886    2.3694   -7.8868 O   0  0  0  0  0  0  0  0  0  0  0  0
   -0.9341    3.5576   -5.9629 C   0  0  0  0  0  0  0  0  0  0  0  0
    3.0341    1.4621   -5.8994 C   0  0  0  0  0  0  0  0  0  0  0  0
    4.0774    0.5682   -5.6575 C   0  0  0  0  0  0  0  0  0  0  0  0
    5.0998    0.9964   -4.9004 F   0  0  0  0  0  0  0  0  0  0  0  0
    7.0960   -1.9474   -4.7852 C   0  0  0  0  0  0  0  0  0  0  0  0
    6.7080   -2.9700   -3.8822 C   0  0  0  0  0  0  0  0  0  0  0  0
    7.5537   -3.3964   -2.8454 C   0  0  0  0  0  0  0  0  0  0  0  0
    6.9697   -4.3513   -2.0598 O   0  0  0  0  0  0  0  0  0  0  0  0
    7.5483   -4.6757   -0.8048 C   0  0  0  0  0  0  0  0  0  0  0  0
   10.5873   -2.1647   -0.1460 H   0  0  0  0  0  0  0  0  0  0  0  0
   10.1701   -1.0960   -1.4768 H   0  0  0  0  0  0  0  0  0  0  0  0
   11.5208   -2.2679   -1.6521 H   0  0  0  0  0  0  0  0  0  0  0  0
   10.2473   -1.5012   -3.7059 H   0  0  0  0  0  0  0  0  0  0  0  0
    8.3510    0.7838   -7.0930 H   0  0  0  0  0  0  0  0  0  0  0  0
    2.8398   -2.1501   -7.2548 H   0  0  0  0  0  0  0  0  0  0  0  0
    0.9724   -0.5882   -7.6424 H   0  0  0  0  0  0  0  0  0  0  0  0
   -0.0244    1.5155   -7.2475 H   0  0  0  0  0  0  0  0  0  0  0  0
    1.2867    4.2256   -2.9406 H   0  0  0  0  0  0  0  0  0  0  0  0
   -0.7865    5.5714   -3.2109 H   0  0  0  0  0  0  0  0  0  0  0  0
   -2.7678    5.9703   -4.5550 H   0  0  0  0  0  0  0  0  0  0  0  0
   -4.7672    6.3870   -5.3129 H   0  0  0  0  0  0  0  0  0  0  0  0
   -5.5807    5.0457   -6.1031 H   0  0  0  0  0  0  0  0  0  0  0  0
   -4.8328    6.3476   -7.0734 H   0  0  0  0  0  0  0  0  0  0  0  0
   -3.3877    5.1356   -9.6227 H   0  0  0  0  0  0  0  0  0  0  0  0
   -5.0568    4.5739  -11.3761 H   0  0  0  0  0  0  0  0  0  0  0  0
   -6.7623    1.5734   -8.8390 H   0  0  0  0  0  0  0  0  0  0  0  0
   -5.1095    2.1098   -7.0633 H   0  0  0  0  0  0  0  0  0  0  0  0
    3.1388    2.4733   -5.5213 H   0  0  0  0  0  0  0  0  0  0  0  0
    5.7195   -3.4186   -3.9673 H   0  0  0  0  0  0  0  0  0  0  0  0
    6.7915   -5.2249   -0.2333 H   0  0  0  0  0  0  0  0  0  0  0  0
    7.7990   -3.7864   -0.2191 H   0  0  0  0  0  0  0  0  0  0  0  0
    8.4090   -5.3395   -0.9311 H   0  0  0  0  0  0  0  0  0  0  0  0
  1  2  1  0  0  0  0
  1 43  1  0  0  0  0
  1 44  1  0  0  0  0
  1 45  1  0  0  0  0
  2  3  1  0  0  0  0
  3  4  1  0  0  0  0
  3 40  2  0  0  0  0
  4  5  2  0  0  0  0
  4 46  1  0  0  0  0
  5  6  1  0  0  0  0
  5 38  1  0  0  0  0
  6  7  2  0  0  0  0
  7  8  1  0  0  0  0
  7 47  1  0  0  0  0
  8  9  2  0  0  0  0
  9 10  1  0  0  0  0
  9 38  1  0  0  0  0
 10 11  1  0  0  0  0
 11 12  1  0  0  0  0
 11 36  2  0  0  0  0
 12 13  2  0  0  0  0
 12 48  1  0  0  0  0
 13 14  1  0  0  0  0
 13 49  1  0  0  0  0
 14 15  1  0  0  0  0
 14 35  2  0  0  0  0
 15 16  1  0  0  0  0
 15 50  1  0  0  0  0
 16 17  1  0  0  0  0
 16 34  2  0  0  0  0
 17 18  2  0  0  0  0
 18 19  1  0  0  0  0
 18 51  1  0  0  0  0
 19 20  2  0  0  0  0
 19 52  1  0  0  0  0
 20 21  1  0  0  0  0
 20 34  1  0  0  0  0
 21 22  1  0  0  0  0
 21 53  1  0  0  0  0
 22 23  1  0  0  0  0
 22 24  2  0  0  0  0
 23 54  1  0  0  0  0
 23 55  1  0  0  0  0
 23 56  1  0  0  0  0
 24 25  1  0  0  0  0
 24 32  1  0  0  0  0
 25 26  1  0  0  0  0
 25 31  2  0  0  0  0
 26 27  2  0  0  0  0
 26 57  1  0  0  0  0
 27 28  1  0  0  0  0
 27 58  1  0  0  0  0
 28 29  1  0  0  0  0
 28 30  2  0  0  0  0
 30 31  1  0  0  0  0
 30 59  1  0  0  0  0
 31 60  1  0  0  0  0
 32 33  2  0  0  0  0
 32 34  1  0  0  0  0
 35 36  1  0  0  0  0
 35 61  1  0  0  0  0
 36 37  1  0  0  0  0
 38 39  2  0  0  0  0
 39 40  1  0  0  0  0
 39 62  1  0  0  0  0
 40 41  1  0  0  0  0
 41 42  1  0  0  0  0
 42 63  1  0  0  0  0
 42 64  1  0  0  0  0
 42 65  1  0  0  0  0
M  END
$$$$
