CHEMBL409867
 OpenBabel04072215383D

 57 61  0  0  0  0  0  0  0  0999 V2000
   10.7196    1.5494   -3.3047 C   0  0  0  0  0  0  0  0  0  0  0  0
    9.5952    1.5671   -4.1855 O   0  0  0  0  0  0  0  0  0  0  0  0
    8.6209    2.4980   -3.9113 C   0  0  0  0  0  0  0  0  0  0  0  0
    8.9253    3.7275   -3.3149 C   0  0  0  0  0  0  0  0  0  0  0  0
    7.9651    4.6841   -3.0356 C   0  0  0  0  0  0  0  0  0  0  0  0
    8.3856    5.8002   -2.4255 N   0  0  0  0  0  0  0  0  0  0  0  0
    7.4833    6.7581   -2.1514 C   0  0  0  0  0  0  0  0  0  0  0  0
    6.1473    6.6534   -2.4597 C   0  0  0  0  0  0  0  0  0  0  0  0
    5.6973    5.4638   -3.0343 C   0  0  0  0  0  0  0  0  0  0  0  0
    4.3533    5.2673   -3.3027 O   0  0  0  0  0  0  0  0  0  0  0  0
    3.4168    5.7731   -2.4204 C   0  0  0  0  0  0  0  0  0  0  0  0
    2.2374    6.2667   -2.9680 C   0  0  0  0  0  0  0  0  0  0  0  0
    1.2157    6.7509   -2.1354 C   0  0  0  0  0  0  0  0  0  0  0  0
    1.3338    6.7329   -0.7365 C   0  0  0  0  0  0  0  0  0  0  0  0
    2.5525    6.2678   -0.2042 C   0  0  0  0  0  0  0  0  0  0  0  0
    3.5683    5.7713   -1.0331 C   0  0  0  0  0  0  0  0  0  0  0  0
    2.8555    6.2494    1.1367 O   0  0  0  0  0  0  0  0  0  0  0  0
    1.6946    6.2776    1.9628 C   0  0  0  0  0  0  0  0  0  0  0  0
    0.7341    7.3743    1.5374 C   0  0  0  0  0  0  0  0  0  0  0  0
    0.2689    7.1468    0.1620 N   0  0  0  0  0  0  0  0  0  0  0  0
   -1.0686    7.1760   -0.2509 C   0  0  0  0  0  0  0  0  0  0  0  0
   -1.4158    6.8448   -1.3834 O   0  0  0  0  0  0  0  0  0  0  0  0
   -1.9966    7.5587    0.7081 N   0  0  0  0  0  0  0  0  0  0  0  0
   -3.4064    7.5378    0.5538 C   0  0  0  0  0  0  0  0  0  0  0  0
   -4.0691    6.9060   -0.5055 C   0  0  0  0  0  0  0  0  0  0  0  0
   -5.4545    7.0206   -0.6609 C   0  0  0  0  0  0  0  0  0  0  0  0
   -6.1952    7.7433    0.2651 C   0  0  0  0  0  0  0  0  0  0  0  0
   -7.8902    7.9315    0.0460 Cl  0  0  0  0  0  0  0  0  0  0  0  0
   -5.5651    8.3197    1.3651 C   0  0  0  0  0  0  0  0  0  0  0  0
   -4.1758    8.2109    1.5126 C   0  0  0  0  0  0  0  0  0  0  0  0
    6.6231    4.4460   -3.3846 C   0  0  0  0  0  0  0  0  0  0  0  0
    6.3084    3.2216   -4.0328 C   0  0  0  0  0  0  0  0  0  0  0  0
    7.2924    2.2388   -4.2843 C   0  0  0  0  0  0  0  0  0  0  0  0
    6.8211    0.9472   -4.8840 C   0  0  0  0  0  0  0  0  0  0  0  0
    7.7330   -0.0488   -5.0888 N   0  0  0  0  0  0  0  0  0  0  0  0
    5.6431    0.7649   -5.1635 O   0  0  0  0  0  0  0  0  0  0  0  0
   11.3683    0.7222   -3.6080 H   0  0  0  0  0  0  0  0  0  0  0  0
   10.3990    1.3693   -2.2731 H   0  0  0  0  0  0  0  0  0  0  0  0
   11.3174    2.4625   -3.3802 H   0  0  0  0  0  0  0  0  0  0  0  0
    9.9450    3.9864   -3.0478 H   0  0  0  0  0  0  0  0  0  0  0  0
    7.8766    7.6358   -1.6484 H   0  0  0  0  0  0  0  0  0  0  0  0
    5.4769    7.4707   -2.2225 H   0  0  0  0  0  0  0  0  0  0  0  0
    2.0970    6.2807   -4.0464 H   0  0  0  0  0  0  0  0  0  0  0  0
    0.3371    7.1550   -2.6307 H   0  0  0  0  0  0  0  0  0  0  0  0
    4.4682    5.3739   -0.5727 H   0  0  0  0  0  0  0  0  0  0  0  0
    2.0300    6.4608    2.9891 H   0  0  0  0  0  0  0  0  0  0  0  0
    1.2150    5.2917    1.9412 H   0  0  0  0  0  0  0  0  0  0  0  0
    1.2303    8.3531    1.5468 H   0  0  0  0  0  0  0  0  0  0  0  0
   -0.0878    7.4058    2.2544 H   0  0  0  0  0  0  0  0  0  0  0  0
   -1.6598    8.1007    1.4822 H   0  0  0  0  0  0  0  0  0  0  0  0
   -3.5368    6.3186   -1.2475 H   0  0  0  0  0  0  0  0  0  0  0  0
   -5.9351    6.5524   -1.5162 H   0  0  0  0  0  0  0  0  0  0  0  0
   -6.1466    8.8683    2.1011 H   0  0  0  0  0  0  0  0  0  0  0  0
   -3.7104    8.6796    2.3753 H   0  0  0  0  0  0  0  0  0  0  0  0
    5.2781    3.0300   -4.3353 H   0  0  0  0  0  0  0  0  0  0  0  0
    8.7185    0.0834   -4.8961 H   0  0  0  0  0  0  0  0  0  0  0  0
    7.4103   -0.9354   -5.4508 H   0  0  0  0  0  0  0  0  0  0  0  0
  1  2  1  0  0  0  0
  1 37  1  0  0  0  0
  1 38  1  0  0  0  0
  1 39  1  0  0  0  0
  2  3  1  0  0  0  0
  3  4  1  0  0  0  0
  3 33  2  0  0  0  0
  4  5  2  0  0  0  0
  4 40  1  0  0  0  0
  5  6  1  0  0  0  0
  5 31  1  0  0  0  0
  6  7  2  0  0  0  0
  7  8  1  0  0  0  0
  7 41  1  0  0  0  0
  8  9  2  0  0  0  0
  8 42  1  0  0  0  0
  9 10  1  0  0  0  0
  9 31  1  0  0  0  0
 10 11  1  0  0  0  0
 11 12  1  0  0  0  0
 11 16  2  0  0  0  0
 12 13  2  0  0  0  0
 12 43  1  0  0  0  0
 13 14  1  0  0  0  0
 13 44  1  0  0  0  0
 14 15  2  0  0  0  0
 14 20  1  0  0  0  0
 15 16  1  0  0  0  0
 15 17  1  0  0  0  0
 16 45  1  0  0  0  0
 17 18  1  0  0  0  0
 18 19  1  0  0  0  0
 18 46  1  0  0  0  0
 18 47  1  0  0  0  0
 19 20  1  0  0  0  0
 19 48  1  0  0  0  0
 19 49  1  0  0  0  0
 20 21  1  0  0  0  0
 21 22  2  0  0  0  0
 21 23  1  0  0  0  0
 23 24  1  0  0  0  0
 23 50  1  0  0  0  0
 24 25  1  0  0  0  0
 24 30  2  0  0  0  0
 25 26  2  0  0  0  0
 25 51  1  0  0  0  0
 26 27  1  0  0  0  0
 26 52  1  0  0  0  0
 27 28  1  0  0  0  0
 27 29  2  0  0  0  0
 29 30  1  0  0  0  0
 29 53  1  0  0  0  0
 30 54  1  0  0  0  0
 31 32  2  0  0  0  0
 32 33  1  0  0  0  0
 32 55  1  0  0  0  0
 33 34  1  0  0  0  0
 34 35  1  0  0  0  0
 34 36  2  0  0  0  0
 35 56  1  0  0  0  0
 35 57  1  0  0  0  0
M  END
$$$$
