CHEMBL3590224
 OpenBabel04072215363D

 62 66  0  0  0  0  0  0  0  0999 V2000
    6.0669   -3.6771    1.4786 C   0  0  0  0  0  0  0  0  0  0  0  0
    5.2418   -2.7181    0.7380 N   0  0  0  0  0  0  0  0  0  0  0  0
    3.9314   -2.5834    1.3696 C   0  0  0  0  0  0  0  0  0  0  0  0
    5.9092   -1.3966    0.6514 C   0  0  0  0  0  0  0  0  0  0  0  0
    7.2311   -1.4893   -0.1278 C   0  0  0  0  0  0  0  0  0  0  0  0
    8.2933   -1.2098    0.4369 O   0  0  0  0  0  0  0  0  0  0  0  0
    7.1863   -1.9056   -1.4503 N   0  0  0  0  0  0  0  0  0  0  0  0
    8.4198   -2.2503   -2.1454 C   0  0  0  0  0  0  0  0  0  0  0  0
    8.5747   -1.4048   -3.4052 C   0  0  0  0  0  0  0  0  0  0  0  0
    7.3397   -1.5137   -4.3201 C   0  0  0  0  0  0  0  0  0  0  0  0
    7.2827   -2.8374   -5.0300 C   0  0  0  0  0  0  0  0  0  0  0  0
    8.1854   -3.3905   -5.9095 C   0  0  0  0  0  0  0  0  0  0  0  0
    7.6933   -4.6298   -6.2164 N   0  0  0  0  0  0  0  0  0  0  0  0
    8.3083   -5.5520   -7.1416 C   0  0  0  0  0  0  0  0  0  0  0  0
    6.5083   -4.8030   -5.5323 C   0  0  0  0  0  0  0  0  0  0  0  0
    5.6566   -5.9914   -5.5685 C   0  0  0  0  0  0  0  0  0  0  0  0
    4.2842   -5.8901   -5.3876 C   0  0  0  0  0  0  0  0  0  0  0  0
    3.4514   -6.9620   -5.4318 N   0  0  0  0  0  0  0  0  0  0  0  0
    4.0256   -8.1627   -5.6554 C   0  0  0  0  0  0  0  0  0  0  0  0
    3.1643   -9.2473   -5.5277 N   0  0  0  0  0  0  0  0  0  0  0  0
    5.4163   -8.2690   -5.8233 C   0  0  0  0  0  0  0  0  0  0  0  0
    5.9867   -9.5363   -6.0927 N   0  0  0  0  0  0  0  0  0  0  0  0
    5.3295  -10.4781   -6.8276 N   0  0  0  0  0  0  0  0  0  0  0  0
    6.1557  -11.4921   -7.0400 N   0  0  0  0  0  0  0  0  0  0  0  0
    7.3215  -11.2337   -6.3775 C   0  0  0  0  0  0  0  0  0  0  0  0
    8.4750  -12.0178   -6.2340 C   0  0  0  0  0  0  0  0  0  0  0  0
    9.5120  -11.5409   -5.4231 C   0  0  0  0  0  0  0  0  0  0  0  0
    9.4105  -10.3019   -4.7868 C   0  0  0  0  0  0  0  0  0  0  0  0
    8.2825   -9.4898   -4.9521 C   0  0  0  0  0  0  0  0  0  0  0  0
    7.2518   -9.9898   -5.7607 C   0  0  0  0  0  0  0  0  0  0  0  0
    6.2561   -7.1869   -5.7704 N   0  0  0  0  0  0  0  0  0  0  0  0
    6.2297   -3.7045   -4.8504 N   0  0  0  0  0  0  0  0  0  0  0  0
    6.0638   -1.2127   -3.5104 C   0  0  0  0  0  0  0  0  0  0  0  0
    5.9674   -2.0616   -2.2412 C   0  0  0  0  0  0  0  0  0  0  0  0
    5.5748   -4.6554    1.5105 H   0  0  0  0  0  0  0  0  0  0  0  0
    6.2585   -3.3504    2.5056 H   0  0  0  0  0  0  0  0  0  0  0  0
    7.0294   -3.8417    0.9815 H   0  0  0  0  0  0  0  0  0  0  0  0
    3.4217   -3.5528    1.4058 H   0  0  0  0  0  0  0  0  0  0  0  0
    3.2899   -1.9160    0.7836 H   0  0  0  0  0  0  0  0  0  0  0  0
    4.0007   -2.1907    2.3903 H   0  0  0  0  0  0  0  0  0  0  0  0
    6.1236   -1.0003    1.6515 H   0  0  0  0  0  0  0  0  0  0  0  0
    5.2722   -0.6579    0.1488 H   0  0  0  0  0  0  0  0  0  0  0  0
    8.3725   -3.3180   -2.3933 H   0  0  0  0  0  0  0  0  0  0  0  0
    9.2918   -2.1158   -1.4976 H   0  0  0  0  0  0  0  0  0  0  0  0
    9.4888   -1.6953   -3.9354 H   0  0  0  0  0  0  0  0  0  0  0  0
    8.6999   -0.3553   -3.1078 H   0  0  0  0  0  0  0  0  0  0  0  0
    7.4276   -0.7443   -5.0989 H   0  0  0  0  0  0  0  0  0  0  0  0
    9.1189   -3.0161   -6.3163 H   0  0  0  0  0  0  0  0  0  0  0  0
    9.1620   -5.0654   -7.6209 H   0  0  0  0  0  0  0  0  0  0  0  0
    7.5746   -5.8242   -7.9047 H   0  0  0  0  0  0  0  0  0  0  0  0
    8.6529   -6.4259   -6.5876 H   0  0  0  0  0  0  0  0  0  0  0  0
    3.8066   -4.9319   -5.2022 H   0  0  0  0  0  0  0  0  0  0  0  0
    2.2074   -8.9114   -5.4749 H   0  0  0  0  0  0  0  0  0  0  0  0
    3.3087   -9.9618   -6.2398 H   0  0  0  0  0  0  0  0  0  0  0  0
    8.5428  -12.9862   -6.7182 H   0  0  0  0  0  0  0  0  0  0  0  0
   10.3993  -12.1526   -5.2744 H   0  0  0  0  0  0  0  0  0  0  0  0
   10.2179   -9.9662   -4.1381 H   0  0  0  0  0  0  0  0  0  0  0  0
    8.1976   -8.5367   -4.4382 H   0  0  0  0  0  0  0  0  0  0  0  0
    5.1648   -1.3519   -4.1227 H   0  0  0  0  0  0  0  0  0  0  0  0
    6.0840   -0.1549   -3.2156 H   0  0  0  0  0  0  0  0  0  0  0  0
    5.8474   -3.1270   -2.4584 H   0  0  0  0  0  0  0  0  0  0  0  0
    5.0781   -1.7467   -1.6933 H   0  0  0  0  0  0  0  0  0  0  0  0
  1  2  1  0  0  0  0
  1 35  1  0  0  0  0
  1 36  1  0  0  0  0
  1 37  1  0  0  0  0
  2  3  1  0  0  0  0
  2  4  1  0  0  0  0
  3 38  1  0  0  0  0
  3 39  1  0  0  0  0
  3 40  1  0  0  0  0
  4  5  1  0  0  0  0
  4 41  1  0  0  0  0
  4 42  1  0  0  0  0
  5  6  2  0  0  0  0
  5  7  1  0  0  0  0
  7  8  1  0  0  0  0
  7 34  1  0  0  0  0
  8  9  1  0  0  0  0
  8 43  1  0  0  0  0
  8 44  1  0  0  0  0
  9 10  1  0  0  0  0
  9 45  1  0  0  0  0
  9 46  1  0  0  0  0
 10 11  1  0  0  0  0
 10 33  1  0  0  0  0
 10 47  1  0  0  0  0
 11 12  2  0  0  0  0
 11 32  1  0  0  0  0
 12 13  1  0  0  0  0
 12 48  1  0  0  0  0
 13 14  1  0  0  0  0
 13 15  1  0  0  0  0
 14 49  1  0  0  0  0
 14 50  1  0  0  0  0
 14 51  1  0  0  0  0
 15 16  1  0  0  0  0
 15 32  2  0  0  0  0
 16 17  1  0  0  0  0
 16 31  2  0  0  0  0
 17 18  2  0  0  0  0
 17 52  1  0  0  0  0
 18 19  1  0  0  0  0
 19 20  1  0  0  0  0
 19 21  2  0  0  0  0
 20 53  1  0  0  0  0
 20 54  1  0  0  0  0
 21 22  1  0  0  0  0
 21 31  1  0  0  0  0
 22 23  1  0  0  0  0
 22 30  1  0  0  0  0
 23 24  2  0  0  0  0
 24 25  1  0  0  0  0
 25 26  1  0  0  0  0
 25 30  2  0  0  0  0
 26 27  2  0  0  0  0
 26 55  1  0  0  0  0
 27 28  1  0  0  0  0
 27 56  1  0  0  0  0
 28 29  2  0  0  0  0
 28 57  1  0  0  0  0
 29 30  1  0  0  0  0
 29 58  1  0  0  0  0
 33 34  1  0  0  0  0
 33 59  1  0  0  0  0
 33 60  1  0  0  0  0
 34 61  1  0  0  0  0
 34 62  1  0  0  0  0
M  END
$$$$
