CHEMBL3702617
 OpenBabel04072215373D

 63 66  0  0  1  0  0  0  0  0999 V2000
    1.1881   -0.3553   -0.3577 C   0  0  0  0  0  0  0  0  0  0  0  0
    2.4300    0.3897    0.1736 C   0  0  0  0  0  0  0  0  0  0  0  0
    3.5916    0.1449   -0.8152 C   0  0  0  0  0  0  0  0  0  0  0  0
    2.1240    1.9030    0.1453 C   0  0  0  0  0  0  0  0  0  0  0  0
    2.8396   -0.0712    1.6278 C   0  0  3  0  0  0  0  0  0  0  0  0
    3.2014   -1.5736    1.7015 C   0  0  0  0  0  0  0  0  0  0  0  0
    3.5505   -2.0388    3.1123 C   0  0  0  0  0  0  0  0  0  0  0  0
    2.4090   -1.7323    4.0778 C   0  0  3  0  0  0  0  0  0  0  0  0
    2.7093   -2.2318    5.4087 N   0  0  0  0  0  0  0  0  0  0  0  0
    2.3769   -3.5168    5.7806 C   0  0  0  0  0  0  0  0  0  0  0  0
    1.8037   -4.3141    5.0451 O   0  0  0  0  0  0  0  0  0  0  0  0
    2.6772   -3.8902    7.1867 C   0  0  0  0  0  0  0  0  0  0  0  0
    3.7958   -3.4073    7.8623 C   0  0  0  0  0  0  0  0  0  0  0  0
    3.9707   -3.7453    9.2002 C   0  0  0  0  0  0  0  0  0  0  0  0
    3.0346   -4.5579    9.8556 C   0  0  0  0  0  0  0  0  0  0  0  0
    1.9075   -5.0738    9.1975 C   0  0  0  0  0  0  0  0  0  0  0  0
    0.9582   -5.8283    9.8600 N   0  0  0  0  0  0  0  0  0  0  0  0
    1.2688   -6.6991   10.9961 C   0  0  0  0  0  0  0  0  0  0  0  0
    0.4283   -6.2894   12.2040 C   0  0  0  0  0  0  0  0  0  0  0  0
   -1.0178   -6.0687   11.8380 C   0  0  0  0  0  0  0  0  0  0  0  0
   -1.9090   -6.0370   12.8556 N   0  0  0  0  0  0  0  0  0  0  0  0
   -3.1862   -5.7984   12.5391 C   0  0  0  0  0  0  0  0  0  0  0  0
   -4.1094   -5.7717   13.5620 N   0  0  0  0  0  0  0  0  0  0  0  0
   -3.6352   -5.5403   11.3089 N   0  0  0  0  0  0  0  0  0  0  0  0
   -2.7225   -5.5760   10.3225 C   0  0  0  0  0  0  0  0  0  0  0  0
   -1.3853   -5.8413   10.5242 C   0  0  0  0  0  0  0  0  0  0  0  0
   -0.4232   -5.9058    9.3786 C   0  0  0  0  0  0  0  0  0  0  0  0
    1.7713   -4.7384    7.8426 C   0  0  0  0  0  0  0  0  0  0  0  0
    2.1393   -0.2291    4.0981 C   0  0  0  0  0  0  0  0  0  0  0  0
    1.7851    0.2875    2.7025 C   0  0  0  0  0  0  0  0  0  0  0  0
    0.9500   -0.0376   -1.3797 H   0  0  0  0  0  0  0  0  0  0  0  0
    0.3024   -0.1588    0.2539 H   0  0  0  0  0  0  0  0  0  0  0  0
    1.3421   -1.4378   -0.3944 H   0  0  0  0  0  0  0  0  0  0  0  0
    3.3514    0.5381   -1.8103 H   0  0  0  0  0  0  0  0  0  0  0  0
    3.8063   -0.9206   -0.9421 H   0  0  0  0  0  0  0  0  0  0  0  0
    4.5084    0.6408   -0.4776 H   0  0  0  0  0  0  0  0  0  0  0  0
    1.9044    2.2411   -0.8745 H   0  0  0  0  0  0  0  0  0  0  0  0
    2.9769    2.4853    0.5105 H   0  0  0  0  0  0  0  0  0  0  0  0
    1.2503    2.1566    0.7536 H   0  0  0  0  0  0  0  0  0  0  0  0
    3.7519    0.4828    1.8946 H   0  0  0  0  0  0  0  0  0  0  0  0
    4.0566   -1.7924    1.0544 H   0  0  0  0  0  0  0  0  0  0  0  0
    2.3646   -2.1842    1.3454 H   0  0  0  0  0  0  0  0  0  0  0  0
    4.4746   -1.5508    3.4475 H   0  0  0  0  0  0  0  0  0  0  0  0
    3.7565   -3.1163    3.0966 H   0  0  0  0  0  0  0  0  0  0  0  0
    1.5023   -2.2427    3.7279 H   0  0  0  0  0  0  0  0  0  0  0  0
    3.1537   -1.6111    6.0714 H   0  0  0  0  0  0  0  0  0  0  0  0
    4.5325   -2.7870    7.3660 H   0  0  0  0  0  0  0  0  0  0  0  0
    4.8332   -3.3732    9.7444 H   0  0  0  0  0  0  0  0  0  0  0  0
    3.1862   -4.7416   10.9154 H   0  0  0  0  0  0  0  0  0  0  0  0
    2.3319   -6.7041   11.2661 H   0  0  0  0  0  0  0  0  0  0  0  0
    1.0340   -7.7352   10.7156 H   0  0  0  0  0  0  0  0  0  0  0  0
    0.8183   -5.3540   12.6233 H   0  0  0  0  0  0  0  0  0  0  0  0
    0.5007   -7.0599   12.9801 H   0  0  0  0  0  0  0  0  0  0  0  0
   -3.6451   -5.5365   14.4289 H   0  0  0  0  0  0  0  0  0  0  0  0
   -4.8966   -5.2035   13.2854 H   0  0  0  0  0  0  0  0  0  0  0  0
   -3.1161   -5.3712    9.3303 H   0  0  0  0  0  0  0  0  0  0  0  0
   -0.6654   -5.0735    8.7084 H   0  0  0  0  0  0  0  0  0  0  0  0
   -0.5677   -6.8458    8.8319 H   0  0  0  0  0  0  0  0  0  0  0  0
    0.9404   -5.1309    7.2585 H   0  0  0  0  0  0  0  0  0  0  0  0
    3.0153    0.3102    4.4808 H   0  0  0  0  0  0  0  0  0  0  0  0
    1.3144   -0.0064    4.7864 H   0  0  0  0  0  0  0  0  0  0  0  0
    1.6701    1.3743    2.7716 H   0  0  0  0  0  0  0  0  0  0  0  0
    0.8074   -0.1208    2.4237 H   0  0  0  0  0  0  0  0  0  0  0  0
  1  2  1  0  0  0  0
  1 31  1  0  0  0  0
  1 32  1  0  0  0  0
  1 33  1  0  0  0  0
  2  3  1  0  0  0  0
  2  4  1  0  0  0  0
  2  5  1  0  0  0  0
  3 34  1  0  0  0  0
  3 35  1  0  0  0  0
  3 36  1  0  0  0  0
  4 37  1  0  0  0  0
  4 38  1  0  0  0  0
  4 39  1  0  0  0  0
  5  6  1  0  0  0  0
  5 30  1  0  0  0  0
  5 40  1  0  0  0  0
  6  7  1  0  0  0  0
  6 41  1  0  0  0  0
  6 42  1  0  0  0  0
  7  8  1  0  0  0  0
  7 43  1  0  0  0  0
  7 44  1  0  0  0  0
  8  9  1  0  0  0  0
  8 29  1  0  0  0  0
  8 45  1  0  0  0  0
  9 10  1  0  0  0  0
  9 46  1  0  0  0  0
 10 11  2  0  0  0  0
 10 12  1  0  0  0  0
 12 13  1  0  0  0  0
 12 28  2  0  0  0  0
 13 14  2  0  0  0  0
 13 47  1  0  0  0  0
 14 15  1  0  0  0  0
 14 48  1  0  0  0  0
 15 16  2  0  0  0  0
 15 49  1  0  0  0  0
 16 17  1  0  0  0  0
 16 28  1  0  0  0  0
 17 18  1  0  0  0  0
 17 27  1  0  0  0  0
 18 19  1  0  0  0  0
 18 50  1  0  0  0  0
 18 51  1  0  0  0  0
 19 20  1  0  0  0  0
 19 52  1  0  0  0  0
 19 53  1  0  0  0  0
 20 21  1  0  0  0  0
 20 26  2  0  0  0  0
 21 22  2  0  0  0  0
 22 23  1  0  0  0  0
 22 24  1  0  0  0  0
 23 54  1  0  0  0  0
 23 55  1  0  0  0  0
 24 25  2  0  0  0  0
 25 26  1  0  0  0  0
 25 56  1  0  0  0  0
 26 27  1  0  0  0  0
 27 57  1  0  0  0  0
 27 58  1  0  0  0  0
 28 59  1  0  0  0  0
 29 30  1  0  0  0  0
 29 60  1  0  0  0  0
 29 61  1  0  0  0  0
 30 62  1  0  0  0  0
 30 63  1  0  0  0  0
M  END
$$$$
