CHEMBL365784
 OpenBabel04072215373D

 48 51  0  0  0  0  0  0  0  0999 V2000
    0.1886   -1.7077    0.1495 C   0  0  0  0  0  0  0  0  0  0  0  0
    1.5314   -2.1161    0.3992 O   0  0  0  0  0  0  0  0  0  0  0  0
    2.2819   -2.4186   -0.7038 C   0  0  0  0  0  0  0  0  0  0  0  0
    1.8421   -2.3247   -2.0181 C   0  0  0  0  0  0  0  0  0  0  0  0
    2.6888   -2.6829   -3.0677 C   0  0  0  0  0  0  0  0  0  0  0  0
    3.9920   -3.1277   -2.8335 C   0  0  0  0  0  0  0  0  0  0  0  0
    4.8673   -3.5255   -3.8746 N   0  0  0  0  0  0  0  0  0  0  0  0
    4.6116   -3.3913   -5.2287 C   0  0  0  0  0  0  0  0  0  0  0  0
    3.6399   -2.8010   -5.6873 O   0  0  0  0  0  0  0  0  0  0  0  0
    5.5502   -4.0414   -6.0150 N   0  0  0  0  0  0  0  0  0  0  0  0
    5.4214   -4.0222   -7.4261 C   0  0  0  0  0  0  0  0  0  0  0  0
    4.9560   -2.8852   -8.0898 C   0  0  0  0  0  0  0  0  0  0  0  0
    4.5988   -2.9418   -9.4357 C   0  0  0  0  0  0  0  0  0  0  0  0
    4.7969   -4.1059  -10.1853 C   0  0  0  0  0  0  0  0  0  0  0  0
    4.3567   -4.1776  -11.5920 C   0  0  0  0  0  0  0  0  0  0  0  0
    4.5802   -3.1224  -12.4817 C   0  0  0  0  0  0  0  0  0  0  0  0
    5.2653   -1.7964  -12.3243 C   0  0  0  0  0  0  0  0  0  0  0  0
    3.9245   -3.4404  -14.0321 S   0  0  0  0  0  0  0  0  0  0  0  0
    3.3771   -4.9731  -13.5730 C   0  0  0  0  0  0  0  0  0  0  0  0
    2.7468   -5.7355  -14.4829 N   0  0  0  0  0  0  0  0  0  0  0  0
    2.3658   -6.9062  -13.9867 C   0  0  0  0  0  0  0  0  0  0  0  0
    2.5253   -7.3434  -12.7352 N   0  0  0  0  0  0  0  0  0  0  0  0
    3.1443   -6.5455  -11.8412 C   0  0  0  0  0  0  0  0  0  0  0  0
    3.2146   -7.0768  -10.5571 N   0  0  0  0  0  0  0  0  0  0  0  0
    3.6347   -5.2798  -12.2421 C   0  0  0  0  0  0  0  0  0  0  0  0
    5.3878   -5.2043   -9.5399 C   0  0  0  0  0  0  0  0  0  0  0  0
    5.6814   -5.1738   -8.1663 C   0  0  0  0  0  0  0  0  0  0  0  0
    4.4377   -3.2116   -1.5137 C   0  0  0  0  0  0  0  0  0  0  0  0
    3.5846   -2.8570   -0.4578 C   0  0  0  0  0  0  0  0  0  0  0  0
   -0.2938   -1.5198    1.1135 H   0  0  0  0  0  0  0  0  0  0  0  0
   -0.3789   -2.4967   -0.3572 H   0  0  0  0  0  0  0  0  0  0  0  0
    0.1612   -0.7739   -0.4236 H   0  0  0  0  0  0  0  0  0  0  0  0
    0.8446   -1.9864   -2.2776 H   0  0  0  0  0  0  0  0  0  0  0  0
    2.2703   -2.5991   -4.0637 H   0  0  0  0  0  0  0  0  0  0  0  0
    5.8054   -3.8013   -3.6136 H   0  0  0  0  0  0  0  0  0  0  0  0
    5.9557   -4.8711   -5.6061 H   0  0  0  0  0  0  0  0  0  0  0  0
    4.8084   -1.9503   -7.5551 H   0  0  0  0  0  0  0  0  0  0  0  0
    4.1401   -2.0571   -9.8697 H   0  0  0  0  0  0  0  0  0  0  0  0
    5.8446   -1.7187  -11.4033 H   0  0  0  0  0  0  0  0  0  0  0  0
    4.5263   -0.9872  -12.3357 H   0  0  0  0  0  0  0  0  0  0  0  0
    5.9708   -1.6259  -13.1486 H   0  0  0  0  0  0  0  0  0  0  0  0
    1.8637   -7.5798  -14.6716 H   0  0  0  0  0  0  0  0  0  0  0  0
    2.6116   -7.8907  -10.5024 H   0  0  0  0  0  0  0  0  0  0  0  0
    3.0669   -6.3886   -9.8281 H   0  0  0  0  0  0  0  0  0  0  0  0
    5.5793   -6.1262  -10.0865 H   0  0  0  0  0  0  0  0  0  0  0  0
    6.0366   -6.0815   -7.6842 H   0  0  0  0  0  0  0  0  0  0  0  0
    5.4421   -3.5502   -1.2808 H   0  0  0  0  0  0  0  0  0  0  0  0
    3.9388   -2.9296    0.5682 H   0  0  0  0  0  0  0  0  0  0  0  0
  1  2  1  0  0  0  0
  1 30  1  0  0  0  0
  1 31  1  0  0  0  0
  1 32  1  0  0  0  0
  2  3  1  0  0  0  0
  3  4  1  0  0  0  0
  3 29  2  0  0  0  0
  4  5  2  0  0  0  0
  4 33  1  0  0  0  0
  5  6  1  0  0  0  0
  5 34  1  0  0  0  0
  6  7  1  0  0  0  0
  6 28  2  0  0  0  0
  7  8  1  0  0  0  0
  7 35  1  0  0  0  0
  8  9  2  0  0  0  0
  8 10  1  0  0  0  0
 10 11  1  0  0  0  0
 10 36  1  0  0  0  0
 11 12  1  0  0  0  0
 11 27  2  0  0  0  0
 12 13  2  0  0  0  0
 12 37  1  0  0  0  0
 13 14  1  0  0  0  0
 13 38  1  0  0  0  0
 14 15  1  0  0  0  0
 14 26  2  0  0  0  0
 15 16  2  0  0  0  0
 15 25  1  0  0  0  0
 16 17  1  0  0  0  0
 16 18  1  0  0  0  0
 17 39  1  0  0  0  0
 17 40  1  0  0  0  0
 17 41  1  0  0  0  0
 18 19  1  0  0  0  0
 19 20  1  0  0  0  0
 19 25  2  0  0  0  0
 20 21  2  0  0  0  0
 21 22  1  0  0  0  0
 21 42  1  0  0  0  0
 22 23  2  0  0  0  0
 23 24  1  0  0  0  0
 23 25  1  0  0  0  0
 24 43  1  0  0  0  0
 24 44  1  0  0  0  0
 26 27  1  0  0  0  0
 26 45  1  0  0  0  0
 27 46  1  0  0  0  0
 28 29  1  0  0  0  0
 28 47  1  0  0  0  0
 29 48  1  0  0  0  0
M  END
$$$$
