CHEMBL3819410
 OpenBabel04072215373D

 49 52  0  0  0  0  0  0  0  0999 V2000
    0.5610    1.2169    0.6214 C   0  0  0  0  0  0  0  0  0  0  0  0
    1.9297    1.4675    0.3245 O   0  0  0  0  0  0  0  0  0  0  0  0
    2.8689    1.0360    1.2264 C   0  0  0  0  0  0  0  0  0  0  0  0
    2.5265    0.5040    2.4778 C   0  0  0  0  0  0  0  0  0  0  0  0
    3.4934   -0.0003    3.3562 C   0  0  0  0  0  0  0  0  0  0  0  0
    3.1449   -0.5906    4.5833 N   0  0  0  0  0  0  0  0  0  0  0  0
    2.0432   -1.4149    4.8245 C   0  0  0  0  0  0  0  0  0  0  0  0
    1.4324   -2.0157    3.7999 N   0  0  0  0  0  0  0  0  0  0  0  0
    0.3675   -2.7944    4.0541 C   0  0  0  0  0  0  0  0  0  0  0  0
   -0.1227   -2.9916    5.3156 C   0  0  0  0  0  0  0  0  0  0  0  0
    0.5676   -2.3564    6.3254 C   0  0  0  0  0  0  0  0  0  0  0  0
    0.0464   -2.4374    7.6560 N   0  0  0  0  0  0  0  0  0  0  0  0
   -1.1925   -2.9585    7.8996 N   0  0  0  0  0  0  0  0  0  0  0  0
   -1.5350   -2.4222    9.0716 C   0  0  0  0  0  0  0  0  0  0  0  0
   -0.4872   -1.6813    9.6575 C   0  0  0  0  0  0  0  0  0  0  0  0
   -0.3315   -0.8799   10.8003 C   0  0  0  0  0  0  0  0  0  0  0  0
    0.9445   -0.3524   11.0668 C   0  0  0  0  0  0  0  0  0  0  0  0
    1.1040    0.6207   12.1549 N   0  3  0  0  0  0  0  0  0  0  0  0
    0.0756    1.0290   12.7146 O   0  0  0  0  0  0  0  0  0  0  0  0
    2.2511    0.9968   12.4299 O   0  5  0  0  0  0  0  0  0  0  0  0
    2.0558   -0.6900   10.2843 C   0  0  0  0  0  0  0  0  0  0  0  0
    1.8957   -1.4540    9.1262 C   0  0  0  0  0  0  0  0  0  0  0  0
    0.5948   -1.8747    8.8026 C   0  0  0  0  0  0  0  0  0  0  0  0
    1.6519   -1.5677    6.0979 N   0  0  0  0  0  0  0  0  0  0  0  0
    4.8367    0.1052    3.0056 C   0  0  0  0  0  0  0  0  0  0  0  0
    5.2073    0.6057    1.7502 C   0  0  0  0  0  0  0  0  0  0  0  0
    6.5181    0.6748    1.3400 O   0  0  0  0  0  0  0  0  0  0  0  0
    7.3505   -0.3910    1.7898 C   0  0  0  0  0  0  0  0  0  0  0  0
    4.2265    1.1006    0.8638 C   0  0  0  0  0  0  0  0  0  0  0  0
    4.7057    1.5305   -0.3542 O   0  0  0  0  0  0  0  0  0  0  0  0
    4.0287    2.6244   -0.9574 C   0  0  0  0  0  0  0  0  0  0  0  0
   -0.0354    1.5416   -0.2372 H   0  0  0  0  0  0  0  0  0  0  0  0
    0.2355    1.8012    1.4884 H   0  0  0  0  0  0  0  0  0  0  0  0
    0.3725    0.1476    0.7691 H   0  0  0  0  0  0  0  0  0  0  0  0
    1.4888    0.4495    2.7883 H   0  0  0  0  0  0  0  0  0  0  0  0
    3.3538   -0.0379    5.4032 H   0  0  0  0  0  0  0  0  0  0  0  0
   -0.1010   -3.2460    3.1866 H   0  0  0  0  0  0  0  0  0  0  0  0
   -1.0042   -3.5964    5.4833 H   0  0  0  0  0  0  0  0  0  0  0  0
   -2.5327   -2.5951    9.4557 H   0  0  0  0  0  0  0  0  0  0  0  0
   -1.1894   -0.6517   11.4282 H   0  0  0  0  0  0  0  0  0  0  0  0
    3.0515   -0.3262   10.5319 H   0  0  0  0  0  0  0  0  0  0  0  0
    2.7422   -1.6791    8.4833 H   0  0  0  0  0  0  0  0  0  0  0  0
    5.5876   -0.2519    3.7026 H   0  0  0  0  0  0  0  0  0  0  0  0
    8.2393   -0.4144    1.1526 H   0  0  0  0  0  0  0  0  0  0  0  0
    6.8538   -1.3639    1.7049 H   0  0  0  0  0  0  0  0  0  0  0  0
    7.6821   -0.2105    2.8170 H   0  0  0  0  0  0  0  0  0  0  0  0
    4.7217    3.0920   -1.6641 H   0  0  0  0  0  0  0  0  0  0  0  0
    3.7381    3.3869   -0.2268 H   0  0  0  0  0  0  0  0  0  0  0  0
    3.1699    2.2765   -1.5400 H   0  0  0  0  0  0  0  0  0  0  0  0
  1  2  1  0  0  0  0
  1 32  1  0  0  0  0
  1 33  1  0  0  0  0
  1 34  1  0  0  0  0
  2  3  1  0  0  0  0
  3  4  1  0  0  0  0
  3 29  2  0  0  0  0
  4  5  2  0  0  0  0
  4 35  1  0  0  0  0
  5  6  1  0  0  0  0
  5 25  1  0  0  0  0
  6  7  1  0  0  0  0
  6 36  1  0  0  0  0
  7  8  1  0  0  0  0
  7 24  2  0  0  0  0
  8  9  2  0  0  0  0
  9 10  1  0  0  0  0
  9 37  1  0  0  0  0
 10 11  2  0  0  0  0
 10 38  1  0  0  0  0
 11 12  1  0  0  0  0
 11 24  1  0  0  0  0
 12 13  1  0  0  0  0
 12 23  1  0  0  0  0
 13 14  2  0  0  0  0
 14 15  1  0  0  0  0
 14 39  1  0  0  0  0
 15 16  1  0  0  0  0
 15 23  2  0  0  0  0
 16 17  2  0  0  0  0
 16 40  1  0  0  0  0
 17 18  1  0  0  0  0
 17 21  1  0  0  0  0
 18 19  2  0  0  0  0
 18 20  1  0  0  0  0
 21 22  2  0  0  0  0
 21 41  1  0  0  0  0
 22 23  1  0  0  0  0
 22 42  1  0  0  0  0
 25 26  2  0  0  0  0
 25 43  1  0  0  0  0
 26 27  1  0  0  0  0
 26 29  1  0  0  0  0
 27 28  1  0  0  0  0
 28 44  1  0  0  0  0
 28 45  1  0  0  0  0
 28 46  1  0  0  0  0
 29 30  1  0  0  0  0
 30 31  1  0  0  0  0
 31 47  1  0  0  0  0
 31 48  1  0  0  0  0
 31 49  1  0  0  0  0
M  CHG  2  18   1  20  -1
M  END
$$$$
