CHEMBL3577123
 OpenBabel04072215363D

 57 59  0  0  0  0  0  0  0  0999 V2000
    2.1188   -0.7673   -1.2481 C   0  0  0  0  0  0  0  0  0  0  0  0
    3.1847   -0.1859   -0.4631 N   0  0  0  0  0  0  0  0  0  0  0  0
    3.7254   -1.0366    0.4906 C   0  0  0  0  0  0  0  0  0  0  0  0
    3.7302   -2.3555    0.2695 N   0  0  0  0  0  0  0  0  0  0  0  0
    4.2428   -3.1227    1.2388 C   0  0  0  0  0  0  0  0  0  0  0  0
    4.7457   -2.6085    2.4139 C   0  0  0  0  0  0  0  0  0  0  0  0
    5.2634   -3.4134    3.4396 C   0  0  0  0  0  0  0  0  0  0  0  0
    5.8207   -2.8476    4.5928 C   0  0  0  0  0  0  0  0  0  0  0  0
    6.4134   -3.7202    5.6420 C   0  0  0  0  0  0  0  0  0  0  0  0
    7.1109   -4.8753    5.2046 C   0  0  0  0  0  0  0  0  0  0  0  0
    7.5857   -5.8707    6.0634 C   0  0  0  0  0  0  0  0  0  0  0  0
    8.2064   -7.0586    5.5965 N   0  0  0  0  0  0  0  0  0  0  0  0
    8.7402   -7.2183    4.3406 C   0  0  0  0  0  0  0  0  0  0  0  0
    8.8534   -6.3266    3.5062 O   0  0  0  0  0  0  0  0  0  0  0  0
    9.1284   -8.5146    4.0597 N   0  0  0  0  0  0  0  0  0  0  0  0
    9.8271   -8.7146    2.8014 C   0  0  0  0  0  0  0  0  0  0  0  0
    9.7799  -10.1412    2.2568 C   0  0  0  0  0  0  0  0  0  0  0  0
   10.3948  -10.2787    0.8290 C   0  0  0  0  0  0  0  0  0  0  0  0
   11.8856   -9.8958    0.8303 C   0  0  0  0  0  0  0  0  0  0  0  0
   10.2690  -11.7419    0.3671 C   0  0  0  0  0  0  0  0  0  0  0  0
    9.6532   -9.3939   -0.1930 C   0  0  0  0  0  0  0  0  0  0  0  0
    7.3903   -5.6893    7.4245 C   0  0  0  0  0  0  0  0  0  0  0  0
    7.8112   -6.6229    8.2914 F   0  0  0  0  0  0  0  0  0  0  0  0
    6.7750   -4.5360    7.9119 C   0  0  0  0  0  0  0  0  0  0  0  0
    6.2732   -3.5454    7.0375 C   0  0  0  0  0  0  0  0  0  0  0  0
    5.5932   -2.3539    7.6575 C   0  0  0  0  0  0  0  0  0  0  0  0
    5.7904   -1.4594    4.6108 C   0  0  0  0  0  0  0  0  0  0  0  0
    5.2422   -0.6668    3.6434 N   0  0  0  0  0  0  0  0  0  0  0  0
    4.7254   -1.2288    2.5450 C   0  0  0  0  0  0  0  0  0  0  0  0
    4.2019   -0.4554    1.5969 N   0  0  0  0  0  0  0  0  0  0  0  0
    1.7171   -0.0121   -1.9304 H   0  0  0  0  0  0  0  0  0  0  0  0
    1.2961   -1.1170   -0.6143 H   0  0  0  0  0  0  0  0  0  0  0  0
    2.4785   -1.5997   -1.8639 H   0  0  0  0  0  0  0  0  0  0  0  0
    2.9652    0.6813    0.0152 H   0  0  0  0  0  0  0  0  0  0  0  0
    4.2446   -4.1867    1.0284 H   0  0  0  0  0  0  0  0  0  0  0  0
    5.2357   -4.4943    3.3132 H   0  0  0  0  0  0  0  0  0  0  0  0
    7.2488   -5.0007    4.1328 H   0  0  0  0  0  0  0  0  0  0  0  0
    8.3976   -7.7666    6.2909 H   0  0  0  0  0  0  0  0  0  0  0  0
    9.3865   -9.1029    4.8368 H   0  0  0  0  0  0  0  0  0  0  0  0
   10.8594   -8.3942    2.9712 H   0  0  0  0  0  0  0  0  0  0  0  0
    9.3852   -8.0388    2.0658 H   0  0  0  0  0  0  0  0  0  0  0  0
    8.7362  -10.4819    2.2353 H   0  0  0  0  0  0  0  0  0  0  0  0
   10.3033  -10.8093    2.9533 H   0  0  0  0  0  0  0  0  0  0  0  0
   12.4548  -10.5291    1.5196 H   0  0  0  0  0  0  0  0  0  0  0  0
   12.0400   -8.8529    1.1253 H   0  0  0  0  0  0  0  0  0  0  0  0
   12.3231  -10.0127   -0.1679 H   0  0  0  0  0  0  0  0  0  0  0  0
   10.8190  -12.4175    1.0306 H   0  0  0  0  0  0  0  0  0  0  0  0
   10.6711  -11.8707   -0.6450 H   0  0  0  0  0  0  0  0  0  0  0  0
    9.2217  -12.0629    0.3493 H   0  0  0  0  0  0  0  0  0  0  0  0
    9.7787   -8.3266    0.0149 H   0  0  0  0  0  0  0  0  0  0  0  0
    8.5801   -9.6142   -0.2001 H   0  0  0  0  0  0  0  0  0  0  0  0
   10.0343   -9.5586   -1.2075 H   0  0  0  0  0  0  0  0  0  0  0  0
    6.6728   -4.4281    8.9892 H   0  0  0  0  0  0  0  0  0  0  0  0
    5.4639   -2.4824    8.7377 H   0  0  0  0  0  0  0  0  0  0  0  0
    4.5972   -2.2078    7.2296 H   0  0  0  0  0  0  0  0  0  0  0  0
    6.2009   -1.4546    7.5202 H   0  0  0  0  0  0  0  0  0  0  0  0
    6.2354   -0.8886    5.4197 H   0  0  0  0  0  0  0  0  0  0  0  0
  1  2  1  0  0  0  0
  1 31  1  0  0  0  0
  1 32  1  0  0  0  0
  1 33  1  0  0  0  0
  2  3  1  0  0  0  0
  2 34  1  0  0  0  0
  3  4  1  0  0  0  0
  3 30  2  0  0  0  0
  4  5  2  0  0  0  0
  5  6  1  0  0  0  0
  5 35  1  0  0  0  0
  6  7  1  0  0  0  0
  6 29  2  0  0  0  0
  7  8  2  0  0  0  0
  7 36  1  0  0  0  0
  8  9  1  0  0  0  0
  8 27  1  0  0  0  0
  9 10  1  0  0  0  0
  9 25  2  0  0  0  0
 10 11  2  0  0  0  0
 10 37  1  0  0  0  0
 11 12  1  0  0  0  0
 11 22  1  0  0  0  0
 12 13  1  0  0  0  0
 12 38  1  0  0  0  0
 13 14  2  0  0  0  0
 13 15  1  0  0  0  0
 15 16  1  0  0  0  0
 15 39  1  0  0  0  0
 16 17  1  0  0  0  0
 16 40  1  0  0  0  0
 16 41  1  0  0  0  0
 17 18  1  0  0  0  0
 17 42  1  0  0  0  0
 17 43  1  0  0  0  0
 18 19  1  0  0  0  0
 18 20  1  0  0  0  0
 18 21  1  0  0  0  0
 19 44  1  0  0  0  0
 19 45  1  0  0  0  0
 19 46  1  0  0  0  0
 20 47  1  0  0  0  0
 20 48  1  0  0  0  0
 20 49  1  0  0  0  0
 21 50  1  0  0  0  0
 21 51  1  0  0  0  0
 21 52  1  0  0  0  0
 22 23  1  0  0  0  0
 22 24  2  0  0  0  0
 24 25  1  0  0  0  0
 24 53  1  0  0  0  0
 25 26  1  0  0  0  0
 26 54  1  0  0  0  0
 26 55  1  0  0  0  0
 26 56  1  0  0  0  0
 27 28  2  0  0  0  0
 27 57  1  0  0  0  0
 28 29  1  0  0  0  0
 29 30  1  0  0  0  0
M  END
$$$$
