CHEMBL3982666
 OpenBabel04072215373D

 61 65  0  0  1  0  0  0  0  0999 V2000
    1.2051   -0.3076   -0.4262 C   0  0  0  0  0  0  0  0  0  0  0  0
    2.6174   -0.3196   -0.3524 O   0  0  0  0  0  0  0  0  0  0  0  0
    3.1991   -1.2134    0.4990 C   0  0  0  0  0  0  0  0  0  0  0  0
    4.3164   -0.6796    1.1549 C   0  0  0  0  0  0  0  0  0  0  0  0
    5.1276   -1.4783    1.9930 C   0  0  0  0  0  0  0  0  0  0  0  0
    6.2549   -1.0467    2.7075 C   0  0  0  0  0  0  0  0  0  0  0  0
    6.6104    0.3300    2.7011 N   0  0  0  0  0  0  0  0  0  0  0  0
    7.8956    0.7821    3.0701 C   0  0  0  0  0  0  0  0  0  0  0  0
    9.0335    0.1791    2.5143 C   0  0  0  0  0  0  0  0  0  0  0  0
   10.3140    0.5319    2.9332 C   0  0  0  0  0  0  0  0  0  0  0  0
   10.4762    1.5111    3.9107 C   0  0  0  0  0  0  0  0  0  0  0  0
   12.0858    1.8696    4.4244 Cl  0  0  0  0  0  0  0  0  0  0  0  0
    9.3510    2.1508    4.4455 C   0  0  0  0  0  0  0  0  0  0  0  0
    9.4804    3.3778    5.6569 Cl  0  0  0  0  0  0  0  0  0  0  0  0
    8.0648    1.7924    4.0198 C   0  0  0  0  0  0  0  0  0  0  0  0
    7.0207   -1.8964    3.4199 N   0  0  0  0  0  0  0  0  0  0  0  0
    6.6545   -3.1785    3.4339 C   0  0  0  0  0  0  0  0  0  0  0  0
    5.5887   -3.6885    2.8197 N   0  0  0  0  0  0  0  0  0  0  0  0
    4.8458   -2.8380    2.1134 C   0  0  0  0  0  0  0  0  0  0  0  0
    3.7372   -3.3496    1.4701 C   0  0  0  0  0  0  0  0  0  0  0  0
    2.8692   -2.5644    0.6962 C   0  0  0  0  0  0  0  0  0  0  0  0
    1.7358   -3.1019    0.1218 O   0  0  0  0  0  0  0  0  0  0  0  0
    1.2746   -4.3040    0.7711 C   0  0  0  0  0  0  0  0  0  0  0  0
   -0.1778   -4.6408    0.4403 C   0  0  3  0  0  0  0  0  0  0  0  0
   -1.0705   -3.4404    0.7620 C   0  0  0  0  0  0  0  0  0  0  0  0
   -2.4925   -3.7707    0.6762 N   0  0  0  0  0  0  0  0  0  0  0  0
   -3.4907   -2.9890    0.1022 C   0  0  0  0  0  0  0  0  0  0  0  0
   -4.6530   -3.3831    0.0035 O   0  0  0  0  0  0  0  0  0  0  0  0
   -3.1872   -1.6637   -0.4956 C   0  0  0  0  0  0  0  0  0  0  0  0
   -3.7992   -1.3378   -1.7144 C   0  0  0  0  0  0  0  0  0  0  0  0
   -3.5329   -0.1111   -2.3173 C   0  0  0  0  0  0  0  0  0  0  0  0
   -4.1277    0.1988   -3.4757 F   0  0  0  0  0  0  0  0  0  0  0  0
   -2.6624    0.8036   -1.7358 C   0  0  0  0  0  0  0  0  0  0  0  0
   -2.0961    0.5095   -0.4997 C   0  0  0  0  0  0  0  0  0  0  0  0
   -2.3826   -0.7055    0.1247 C   0  0  0  0  0  0  0  0  0  0  0  0
   -1.8463   -0.9204    1.3340 F   0  0  0  0  0  0  0  0  0  0  0  0
   -2.8584   -4.9948    1.3946 C   0  0  0  0  0  0  0  0  0  0  0  0
   -1.9255   -6.1478    1.0173 C   0  0  0  0  0  0  0  0  0  0  0  0
   -0.5498   -5.7921    1.2288 O   0  0  0  0  0  0  0  0  0  0  0  0
    0.8902    0.7367   -0.3318 H   0  0  0  0  0  0  0  0  0  0  0  0
    0.7114   -0.8673    0.3703 H   0  0  0  0  0  0  0  0  0  0  0  0
    0.8901   -0.6647   -1.4109 H   0  0  0  0  0  0  0  0  0  0  0  0
    4.5687    0.3669    0.9891 H   0  0  0  0  0  0  0  0  0  0  0  0
    5.8559    0.8736    3.1084 H   0  0  0  0  0  0  0  0  0  0  0  0
    8.9182   -0.6056    1.7687 H   0  0  0  0  0  0  0  0  0  0  0  0
   11.1720    0.0216    2.5044 H   0  0  0  0  0  0  0  0  0  0  0  0
    7.2003    2.2769    4.4645 H   0  0  0  0  0  0  0  0  0  0  0  0
    7.2754   -3.8685    3.9925 H   0  0  0  0  0  0  0  0  0  0  0  0
    3.5820   -4.4181    1.5824 H   0  0  0  0  0  0  0  0  0  0  0  0
    1.3411   -4.2017    1.8645 H   0  0  0  0  0  0  0  0  0  0  0  0
    1.8992   -5.1513    0.4630 H   0  0  0  0  0  0  0  0  0  0  0  0
   -0.2700   -4.8962   -0.6210 H   0  0  0  0  0  0  0  0  0  0  0  0
   -0.8155   -2.6411    0.0705 H   0  0  0  0  0  0  0  0  0  0  0  0
   -0.8966   -3.1055    1.7922 H   0  0  0  0  0  0  0  0  0  0  0  0
   -4.4890   -2.0272   -2.1944 H   0  0  0  0  0  0  0  0  0  0  0  0
   -2.4503    1.7437   -2.2361 H   0  0  0  0  0  0  0  0  0  0  0  0
   -1.4343    1.2194   -0.0125 H   0  0  0  0  0  0  0  0  0  0  0  0
   -3.8998   -5.2752    1.2136 H   0  0  0  0  0  0  0  0  0  0  0  0
   -2.7520   -4.7686    2.4627 H   0  0  0  0  0  0  0  0  0  0  0  0
   -2.0581   -6.4368   -0.0308 H   0  0  0  0  0  0  0  0  0  0  0  0
   -2.1434   -7.0250    1.6361 H   0  0  0  0  0  0  0  0  0  0  0  0
  1  2  1  0  0  0  0
  1 40  1  0  0  0  0
  1 41  1  0  0  0  0
  1 42  1  0  0  0  0
  2  3  1  0  0  0  0
  3  4  1  0  0  0  0
  3 21  2  0  0  0  0
  4  5  2  0  0  0  0
  4 43  1  0  0  0  0
  5  6  1  0  0  0  0
  5 19  1  0  0  0  0
  6  7  1  0  0  0  0
  6 16  2  0  0  0  0
  7  8  1  0  0  0  0
  7 44  1  0  0  0  0
  8  9  1  0  0  0  0
  8 15  2  0  0  0  0
  9 10  2  0  0  0  0
  9 45  1  0  0  0  0
 10 11  1  0  0  0  0
 10 46  1  0  0  0  0
 11 12  1  0  0  0  0
 11 13  2  0  0  0  0
 13 14  1  0  0  0  0
 13 15  1  0  0  0  0
 15 47  1  0  0  0  0
 16 17  1  0  0  0  0
 17 18  2  0  0  0  0
 17 48  1  0  0  0  0
 18 19  1  0  0  0  0
 19 20  2  0  0  0  0
 20 21  1  0  0  0  0
 20 49  1  0  0  0  0
 21 22  1  0  0  0  0
 22 23  1  0  0  0  0
 23 24  1  0  0  0  0
 23 50  1  0  0  0  0
 23 51  1  0  0  0  0
 24 25  1  0  0  0  0
 24 39  1  0  0  0  0
 24 52  1  0  0  0  0
 25 26  1  0  0  0  0
 25 53  1  0  0  0  0
 25 54  1  0  0  0  0
 26 27  1  0  0  0  0
 26 37  1  0  0  0  0
 27 28  2  0  0  0  0
 27 29  1  0  0  0  0
 29 30  1  0  0  0  0
 29 35  2  0  0  0  0
 30 31  2  0  0  0  0
 30 55  1  0  0  0  0
 31 32  1  0  0  0  0
 31 33  1  0  0  0  0
 33 34  2  0  0  0  0
 33 56  1  0  0  0  0
 34 35  1  0  0  0  0
 34 57  1  0  0  0  0
 35 36  1  0  0  0  0
 37 38  1  0  0  0  0
 37 58  1  0  0  0  0
 37 59  1  0  0  0  0
 38 39  1  0  0  0  0
 38 60  1  0  0  0  0
 38 61  1  0  0  0  0
M  END
$$$$
