CHEMBL3604467
 OpenBabel04072215363D

 41 42  0  0  1  0  0  0  0  0999 V2000
    3.9339   -0.6952   -2.2652 C   0  0  0  0  0  0  0  0  0  0  0  0
    4.1663   -0.3692   -0.7949 C   0  0  1  0  0  0  0  0  0  0  0  0
    5.4160   -0.9584   -0.3969 O   0  0  0  0  0  0  0  0  0  0  0  0
    4.2022    1.1570   -0.4952 C   0  0  1  0  0  0  0  0  0  0  0  0
    2.8575    1.8219   -0.7978 C   0  0  0  0  0  0  0  0  0  0  0  0
    4.4832    1.3378    0.9339 N   0  0  0  0  0  0  0  0  0  0  0  0
    5.1548    2.4925    1.3647 C   0  0  0  0  0  0  0  0  0  0  0  0
    5.9516    3.1631    0.4987 N   0  0  0  0  0  0  0  0  0  0  0  0
    6.6465    4.2114    0.9743 C   0  0  0  0  0  0  0  0  0  0  0  0
    7.5905    4.8119    0.1417 N   0  0  0  0  0  0  0  0  0  0  0  0
    8.7655    5.4765    0.5444 C   0  0  0  0  0  0  0  0  0  0  0  0
    9.4036    5.1856    1.7617 C   0  0  0  0  0  0  0  0  0  0  0  0
   10.5004    5.9254    2.2037 C   0  0  0  0  0  0  0  0  0  0  0  0
   10.9848    6.9832    1.4324 C   0  0  0  0  0  0  0  0  0  0  0  0
   12.3434    7.9912    2.0699 S   0  3  3  0  0  0  0  0  0  0  0  0
   13.4896    7.0550    1.3261 N   0  0  0  0  0  0  0  0  0  0  0  0
   12.2412    9.4004    1.3963 O   0  5  0  0  0  0  0  0  0  0  0  0
   10.3799    7.2635    0.2026 C   0  0  0  0  0  0  0  0  0  0  0  0
    9.2908    6.5047   -0.2459 C   0  0  0  0  0  0  0  0  0  0  0  0
    6.5086    4.6897    2.2219 N   0  0  0  0  0  0  0  0  0  0  0  0
    5.6995    4.0198    3.0556 C   0  0  0  0  0  0  0  0  0  0  0  0
    5.0350    2.8795    2.6943 C   0  0  0  0  0  0  0  0  0  0  0  0
    4.0054    1.9534    3.9772 Br  0  0  0  0  0  0  0  0  0  0  0  0
    4.0804   -1.7650   -2.4494 H   0  0  0  0  0  0  0  0  0  0  0  0
    4.6506   -0.1644   -2.9013 H   0  0  0  0  0  0  0  0  0  0  0  0
    2.9222   -0.4302   -2.5839 H   0  0  0  0  0  0  0  0  0  0  0  0
    3.3908   -0.8538   -0.1898 H   0  0  0  0  0  0  0  0  0  0  0  0
    6.1102   -0.5840   -0.9680 H   0  0  0  0  0  0  0  0  0  0  0  0
    4.9912    1.6018   -1.1127 H   0  0  0  0  0  0  0  0  0  0  0  0
    2.0652    1.4164   -0.1568 H   0  0  0  0  0  0  0  0  0  0  0  0
    2.5569    1.6807   -1.8393 H   0  0  0  0  0  0  0  0  0  0  0  0
    2.9046    2.9006   -0.6128 H   0  0  0  0  0  0  0  0  0  0  0  0
    4.9421    0.5172    1.3381 H   0  0  0  0  0  0  0  0  0  0  0  0
    7.6110    4.3870   -0.7743 H   0  0  0  0  0  0  0  0  0  0  0  0
    9.0401    4.3796    2.3944 H   0  0  0  0  0  0  0  0  0  0  0  0
   10.9492    5.6876    3.1647 H   0  0  0  0  0  0  0  0  0  0  0  0
   13.7407    6.1791    1.7716 H   0  0  0  0  0  0  0  0  0  0  0  0
   14.3503    7.5422    1.0932 H   0  0  0  0  0  0  0  0  0  0  0  0
   10.7424    8.0935   -0.4004 H   0  0  0  0  0  0  0  0  0  0  0  0
    8.8173    6.7669   -1.1869 H   0  0  0  0  0  0  0  0  0  0  0  0
    5.6237    4.4426    4.0518 H   0  0  0  0  0  0  0  0  0  0  0  0
  1  2  1  0  0  0  0
  1 24  1  0  0  0  0
  1 25  1  0  0  0  0
  1 26  1  0  0  0  0
  2  3  1  0  0  0  0
  2  4  1  0  0  0  0
  2 27  1  1  0  0  0
  3 28  1  0  0  0  0
  4  5  1  0  0  0  0
  4  6  1  0  0  0  0
  4 29  1  6  0  0  0
  5 30  1  0  0  0  0
  5 31  1  0  0  0  0
  5 32  1  0  0  0  0
  6  7  1  0  0  0  0
  6 33  1  0  0  0  0
  7  8  1  0  0  0  0
  7 22  2  0  0  0  0
  8  9  2  0  0  0  0
  9 10  1  0  0  0  0
  9 20  1  0  0  0  0
 10 11  1  0  0  0  0
 10 34  1  0  0  0  0
 11 12  1  0  0  0  0
 11 19  2  0  0  0  0
 12 13  2  0  0  0  0
 12 35  1  0  0  0  0
 13 14  1  0  0  0  0
 13 36  1  0  0  0  0
 14 15  1  0  0  0  0
 14 18  2  0  0  0  0
 15 16  1  0  0  0  0
 15 17  1  0  0  0  0
 16 37  1  0  0  0  0
 16 38  1  0  0  0  0
 18 19  1  0  0  0  0
 18 39  1  0  0  0  0
 19 40  1  0  0  0  0
 20 21  2  0  0  0  0
 21 22  1  0  0  0  0
 21 41  1  0  0  0  0
 22 23  1  0  0  0  0
M  CHG  2  15   1  17  -1
M  END
$$$$
