CHEMBL3287309
 OpenBabel04072215363D

 67 71  0  0  0  0  0  0  0  0999 V2000
    5.4875    2.6343   -4.4123 C   0  0  0  0  0  0  0  0  0  0  0  0
    5.0222    3.2631   -6.0110 S   0  0  0  0  0  0  0  0  0  0  0  0
    5.0771    2.1706   -6.9647 O   0  0  0  0  0  0  0  0  0  0  0  0
    3.7779    3.9912   -5.8228 O   0  0  0  0  0  0  0  0  0  0  0  0
    6.2703    4.4757   -6.4234 C   0  0  0  0  0  0  0  0  0  0  0  0
    7.6390    3.8606   -6.5043 C   0  0  0  0  0  0  0  0  0  0  0  0
    8.1060    3.2780   -7.6883 C   0  0  0  0  0  0  0  0  0  0  0  0
    9.3980    2.7547   -7.7569 C   0  0  0  0  0  0  0  0  0  0  0  0
   10.2297    2.7925   -6.6370 C   0  0  0  0  0  0  0  0  0  0  0  0
    9.7671    3.3201   -5.4306 C   0  0  0  0  0  0  0  0  0  0  0  0
   10.6300    3.3718   -4.3219 N   0  0  0  0  0  0  0  0  0  0  0  0
   10.2186    3.3520   -2.9858 C   0  0  0  0  0  0  0  0  0  0  0  0
    9.1942    2.5696   -2.6037 N   0  0  0  0  0  0  0  0  0  0  0  0
    8.8863    2.5459   -1.2957 C   0  0  0  0  0  0  0  0  0  0  0  0
    9.5547    3.2809   -0.3524 C   0  0  0  0  0  0  0  0  0  0  0  0
   10.5773    4.0545   -0.8429 C   0  0  0  0  0  0  0  0  0  0  0  0
   11.2965    4.8142    0.0748 O   0  0  0  0  0  0  0  0  0  0  0  0
   12.6253    5.0486   -0.2072 C   0  0  0  0  0  0  0  0  0  0  0  0
   13.4561    4.0868   -0.7838 C   0  0  0  0  0  0  0  0  0  0  0  0
   14.7986    4.3677   -1.0405 C   0  0  0  0  0  0  0  0  0  0  0  0
   15.3534    5.5930   -0.6778 C   0  0  0  0  0  0  0  0  0  0  0  0
   16.7270    5.9028   -0.8664 N   0  0  0  0  0  0  0  0  0  0  0  0
   17.6805    5.0614   -1.4059 C   0  0  0  0  0  0  0  0  0  0  0  0
   17.5141    3.9378   -1.8599 O   0  0  0  0  0  0  0  0  0  0  0  0
   19.0750    5.6001   -1.3933 C   0  0  0  0  0  0  0  0  0  0  0  0
   19.7576    5.5291   -0.0680 C   0  0  0  0  0  0  0  0  0  0  0  0
   19.5262    6.4339    0.7242 O   0  0  0  0  0  0  0  0  0  0  0  0
   20.5921    4.4415    0.1293 N   0  0  0  0  0  0  0  0  0  0  0  0
   21.2888    4.1650    1.3281 C   0  0  0  0  0  0  0  0  0  0  0  0
   20.9417    4.7561    2.5501 C   0  0  0  0  0  0  0  0  0  0  0  0
   21.7013    4.5315    3.6990 C   0  0  0  0  0  0  0  0  0  0  0  0
   22.8063    3.6989    3.6327 C   0  0  0  0  0  0  0  0  0  0  0  0
   23.5578    3.5128    4.7255 F   0  0  0  0  0  0  0  0  0  0  0  0
   23.1410    3.0569    2.4460 C   0  0  0  0  0  0  0  0  0  0  0  0
   22.3725    3.2763    1.2942 C   0  0  0  0  0  0  0  0  0  0  0  0
   19.3934    6.8250   -2.2541 C   0  0  0  0  0  0  0  0  0  0  0  0
   19.8684    5.4772   -2.6938 C   0  0  0  0  0  0  0  0  0  0  0  0
   14.5142    6.5423   -0.0760 C   0  0  0  0  0  0  0  0  0  0  0  0
   15.0103    7.7372    0.2818 F   0  0  0  0  0  0  0  0  0  0  0  0
   13.1618    6.2794    0.1668 C   0  0  0  0  0  0  0  0  0  0  0  0
   10.9081    4.1257   -2.1471 N   0  0  0  0  0  0  0  0  0  0  0  0
    8.4849    3.8833   -5.3885 C   0  0  0  0  0  0  0  0  0  0  0  0
    4.7141    1.9331   -4.0900 H   0  0  0  0  0  0  0  0  0  0  0  0
    5.5429    3.4681   -3.7092 H   0  0  0  0  0  0  0  0  0  0  0  0
    6.4418    2.1133   -4.4824 H   0  0  0  0  0  0  0  0  0  0  0  0
    6.2320    5.2639   -5.6637 H   0  0  0  0  0  0  0  0  0  0  0  0
    5.9893    4.9248   -7.3812 H   0  0  0  0  0  0  0  0  0  0  0  0
    7.4681    3.2297   -8.5697 H   0  0  0  0  0  0  0  0  0  0  0  0
    9.7557    2.3097   -8.6819 H   0  0  0  0  0  0  0  0  0  0  0  0
   11.2327    2.3746   -6.7002 H   0  0  0  0  0  0  0  0  0  0  0  0
   11.3182    4.1133   -4.4009 H   0  0  0  0  0  0  0  0  0  0  0  0
    8.0677    1.8846   -1.0274 H   0  0  0  0  0  0  0  0  0  0  0  0
    9.3060    3.2370    0.6973 H   0  0  0  0  0  0  0  0  0  0  0  0
   13.0758    3.1072   -1.0620 H   0  0  0  0  0  0  0  0  0  0  0  0
   15.3768    3.5876   -1.5212 H   0  0  0  0  0  0  0  0  0  0  0  0
   17.0308    6.7999   -0.4962 H   0  0  0  0  0  0  0  0  0  0  0  0
   20.7833    3.8449   -0.6694 H   0  0  0  0  0  0  0  0  0  0  0  0
   20.0686    5.3945    2.6437 H   0  0  0  0  0  0  0  0  0  0  0  0
   21.4350    5.0127    4.6344 H   0  0  0  0  0  0  0  0  0  0  0  0
   24.0080    2.4037    2.4242 H   0  0  0  0  0  0  0  0  0  0  0  0
   22.6626    2.7758    0.3743 H   0  0  0  0  0  0  0  0  0  0  0  0
   20.1408    7.5255   -1.8932 H   0  0  0  0  0  0  0  0  0  0  0  0
   18.5859    7.2944   -2.8038 H   0  0  0  0  0  0  0  0  0  0  0  0
   20.9301    5.2710   -2.6506 H   0  0  0  0  0  0  0  0  0  0  0  0
   19.3715    5.0276   -3.5494 H   0  0  0  0  0  0  0  0  0  0  0  0
   12.5410    7.0368    0.6325 H   0  0  0  0  0  0  0  0  0  0  0  0
    8.1404    4.3436   -4.4645 H   0  0  0  0  0  0  0  0  0  0  0  0
  1  2  1  0  0  0  0
  1 43  1  0  0  0  0
  1 44  1  0  0  0  0
  1 45  1  0  0  0  0
  2  3  2  0  0  0  0
  2  4  2  0  0  0  0
  2  5  1  0  0  0  0
  5  6  1  0  0  0  0
  5 46  1  0  0  0  0
  5 47  1  0  0  0  0
  6  7  1  0  0  0  0
  6 42  2  0  0  0  0
  7  8  2  0  0  0  0
  7 48  1  0  0  0  0
  8  9  1  0  0  0  0
  8 49  1  0  0  0  0
  9 10  2  0  0  0  0
  9 50  1  0  0  0  0
 10 11  1  0  0  0  0
 10 42  1  0  0  0  0
 11 12  1  0  0  0  0
 11 51  1  0  0  0  0
 12 13  1  0  0  0  0
 12 41  2  0  0  0  0
 13 14  2  0  0  0  0
 14 15  1  0  0  0  0
 14 52  1  0  0  0  0
 15 16  2  0  0  0  0
 15 53  1  0  0  0  0
 16 17  1  0  0  0  0
 16 41  1  0  0  0  0
 17 18  1  0  0  0  0
 18 19  1  0  0  0  0
 18 40  2  0  0  0  0
 19 20  2  0  0  0  0
 19 54  1  0  0  0  0
 20 21  1  0  0  0  0
 20 55  1  0  0  0  0
 21 22  1  0  0  0  0
 21 38  2  0  0  0  0
 22 23  1  0  0  0  0
 22 56  1  0  0  0  0
 23 24  2  0  0  0  0
 23 25  1  0  0  0  0
 25 26  1  0  0  0  0
 25 36  1  0  0  0  0
 25 37  1  0  0  0  0
 26 27  2  0  0  0  0
 26 28  1  0  0  0  0
 28 29  1  0  0  0  0
 28 57  1  0  0  0  0
 29 30  1  0  0  0  0
 29 35  2  0  0  0  0
 30 31  2  0  0  0  0
 30 58  1  0  0  0  0
 31 32  1  0  0  0  0
 31 59  1  0  0  0  0
 32 33  1  0  0  0  0
 32 34  2  0  0  0  0
 34 35  1  0  0  0  0
 34 60  1  0  0  0  0
 35 61  1  0  0  0  0
 36 37  1  0  0  0  0
 36 62  1  0  0  0  0
 36 63  1  0  0  0  0
 37 64  1  0  0  0  0
 37 65  1  0  0  0  0
 38 39  1  0  0  0  0
 38 40  1  0  0  0  0
 40 66  1  0  0  0  0
 42 67  1  0  0  0  0
M  END
$$$$
