CHEMBL3671506
 OpenBabel04072215373D

 51 53  0  0  0  0  0  0  0  0999 V2000
    3.2148    1.3292   -2.3401 C   0  0  0  0  0  0  0  0  0  0  0  0
    3.3587    0.9070   -1.0777 C   0  0  0  0  0  0  0  0  0  0  0  0
    4.2062    1.6760   -0.1300 C   0  0  0  0  0  0  0  0  0  0  0  0
    4.5044    2.8464   -0.3357 O   0  0  0  0  0  0  0  0  0  0  0  0
    4.5610    0.9338    0.9801 N   0  0  0  0  0  0  0  0  0  0  0  0
    5.2593    1.4986    2.0641 C   0  0  0  0  0  0  0  0  0  0  0  0
    6.4425    2.1691    1.7610 C   0  0  0  0  0  0  0  0  0  0  0  0
    7.1529    2.8904    2.7384 C   0  0  0  0  0  0  0  0  0  0  0  0
    8.3319    3.6045    2.4801 C   0  0  0  0  0  0  0  0  0  0  0  0
    8.8305    3.6540    1.1596 N   0  0  0  0  0  0  0  0  0  0  0  0
   10.1629    3.7974    0.7327 C   0  0  0  0  0  0  0  0  0  0  0  0
   11.2309    3.3018    1.4894 C   0  0  0  0  0  0  0  0  0  0  0  0
   12.5234    3.2650    0.9618 C   0  0  0  0  0  0  0  0  0  0  0  0
   12.7621    3.7534   -0.3208 C   0  0  0  0  0  0  0  0  0  0  0  0
   14.4832    3.5721   -1.0806 Br  0  0  0  0  0  0  0  0  0  0  0  0
   11.7354    4.3331   -1.0584 C   0  0  0  0  0  0  0  0  0  0  0  0
   10.4487    4.3456   -0.5268 C   0  0  0  0  0  0  0  0  0  0  0  0
    9.4538    4.8761   -1.2563 F   0  0  0  0  0  0  0  0  0  0  0  0
    9.0109    4.2249    3.4594 N   0  0  0  0  0  0  0  0  0  0  0  0
    8.4711    4.1810    4.6821 C   0  0  0  0  0  0  0  0  0  0  0  0
    7.3397    3.5559    5.0317 N   0  0  0  0  0  0  0  0  0  0  0  0
    6.6898    2.9093    4.0590 C   0  0  0  0  0  0  0  0  0  0  0  0
    5.5207    2.2129    4.3554 C   0  0  0  0  0  0  0  0  0  0  0  0
    4.8113    1.4725    3.3909 C   0  0  0  0  0  0  0  0  0  0  0  0
    3.6525    0.9100    3.8659 O   0  0  0  0  0  0  0  0  0  0  0  0
    3.3248   -0.3745    3.3431 C   0  0  0  0  0  0  0  0  0  0  0  0
    2.1510   -0.9795    4.1102 C   0  0  0  0  0  0  0  0  0  0  0  0
    0.9687   -0.1121    3.9852 N   0  0  0  0  0  0  0  0  0  0  0  0
   -0.4997   -0.6565    4.5689 S   0  0  0  0  0  0  0  0  0  0  0  0
   -0.2262   -0.5959    6.3265 C   0  0  0  0  0  0  0  0  0  0  0  0
   -1.4690    0.3409    4.2043 O   0  0  0  0  0  0  0  0  0  0  0  0
   -0.6440   -2.0359    4.1577 O   0  0  0  0  0  0  0  0  0  0  0  0
    2.5686    0.8056   -3.0355 H   0  0  0  0  0  0  0  0  0  0  0  0
    3.7307    2.2146   -2.7041 H   0  0  0  0  0  0  0  0  0  0  0  0
    2.8240    0.0386   -0.7165 H   0  0  0  0  0  0  0  0  0  0  0  0
    4.3468   -0.0498    1.0089 H   0  0  0  0  0  0  0  0  0  0  0  0
    6.8251    2.1210    0.7434 H   0  0  0  0  0  0  0  0  0  0  0  0
    8.1418    3.9982    0.4948 H   0  0  0  0  0  0  0  0  0  0  0  0
   11.0549    2.8890    2.4785 H   0  0  0  0  0  0  0  0  0  0  0  0
   13.3225    2.8233    1.5508 H   0  0  0  0  0  0  0  0  0  0  0  0
   11.9089    4.7447   -2.0470 H   0  0  0  0  0  0  0  0  0  0  0  0
    9.0140    4.6929    5.4701 H   0  0  0  0  0  0  0  0  0  0  0  0
    5.1442    2.2534    5.3770 H   0  0  0  0  0  0  0  0  0  0  0  0
    4.1927   -1.0401    3.4142 H   0  0  0  0  0  0  0  0  0  0  0  0
    2.9896   -0.2852    2.3098 H   0  0  0  0  0  0  0  0  0  0  0  0
    2.4091   -1.0884    5.1671 H   0  0  0  0  0  0  0  0  0  0  0  0
    1.9390   -1.9645    3.6825 H   0  0  0  0  0  0  0  0  0  0  0  0
    0.8701    0.4639    3.1479 H   0  0  0  0  0  0  0  0  0  0  0  0
    0.0779    0.4153    6.6031 H   0  0  0  0  0  0  0  0  0  0  0  0
    0.5455   -1.3226    6.5883 H   0  0  0  0  0  0  0  0  0  0  0  0
   -1.1614   -0.8587    6.8231 H   0  0  0  0  0  0  0  0  0  0  0  0
  1  2  2  0  0  0  0
  1 33  1  0  0  0  0
  1 34  1  0  0  0  0
  2  3  1  0  0  0  0
  2 35  1  0  0  0  0
  3  4  2  0  0  0  0
  3  5  1  0  0  0  0
  5  6  1  0  0  0  0
  5 36  1  0  0  0  0
  6  7  1  0  0  0  0
  6 24  2  0  0  0  0
  7  8  2  0  0  0  0
  7 37  1  0  0  0  0
  8  9  1  0  0  0  0
  8 22  1  0  0  0  0
  9 10  1  0  0  0  0
  9 19  2  0  0  0  0
 10 11  1  0  0  0  0
 10 38  1  0  0  0  0
 11 12  1  0  0  0  0
 11 17  2  0  0  0  0
 12 13  2  0  0  0  0
 12 39  1  0  0  0  0
 13 14  1  0  0  0  0
 13 40  1  0  0  0  0
 14 15  1  0  0  0  0
 14 16  2  0  0  0  0
 16 17  1  0  0  0  0
 16 41  1  0  0  0  0
 17 18  1  0  0  0  0
 19 20  1  0  0  0  0
 20 21  2  0  0  0  0
 20 42  1  0  0  0  0
 21 22  1  0  0  0  0
 22 23  2  0  0  0  0
 23 24  1  0  0  0  0
 23 43  1  0  0  0  0
 24 25  1  0  0  0  0
 25 26  1  0  0  0  0
 26 27  1  0  0  0  0
 26 44  1  0  0  0  0
 26 45  1  0  0  0  0
 27 28  1  0  0  0  0
 27 46  1  0  0  0  0
 27 47  1  0  0  0  0
 28 29  1  0  0  0  0
 28 48  1  0  0  0  0
 29 30  1  0  0  0  0
 29 31  2  0  0  0  0
 29 32  2  0  0  0  0
 30 49  1  0  0  0  0
 30 50  1  0  0  0  0
 30 51  1  0  0  0  0
M  END
$$$$
