CHEMBL4173465
 OpenBabel04072215383D

 52 56  0  0  0  0  0  0  0  0999 V2000
    4.5580    7.4324   -0.1740 C   0  0  0  0  0  0  0  0  0  0  0  0
    5.7728    7.0181    0.4355 O   0  0  0  0  0  0  0  0  0  0  0  0
    5.6839    6.2750    1.5790 C   0  0  0  0  0  0  0  0  0  0  0  0
    4.5177    5.8718    2.2311 C   0  0  0  0  0  0  0  0  0  0  0  0
    4.5934    5.1087    3.4077 C   0  0  0  0  0  0  0  0  0  0  0  0
    5.8350    4.7333    3.9495 C   0  0  0  0  0  0  0  0  0  0  0  0
    5.9625    3.9803    5.2613 C   0  0  0  0  0  0  0  0  0  0  0  0
    5.0765    2.8551    5.2979 N   0  0  0  0  0  0  0  0  0  0  0  0
    4.6674    2.1809    6.3887 C   0  0  0  0  0  0  0  0  0  0  0  0
    4.1091    0.9971    6.3022 N   0  0  0  0  0  0  0  0  0  0  0  0
    3.0033    1.1155    7.0955 C   0  0  0  0  0  0  0  0  0  0  0  0
    1.8581    0.3235    7.1059 C   0  0  0  0  0  0  0  0  0  0  0  0
    0.7236    0.8468    7.7330 C   0  0  0  0  0  0  0  0  0  0  0  0
   -0.5194    0.2633    7.6145 O   0  0  0  0  0  0  0  0  0  0  0  0
   -0.8554   -0.2926    6.3840 C   0  0  0  0  0  0  0  0  0  0  0  0
   -0.3175    0.1751    5.2273 N   0  0  0  0  0  0  0  0  0  0  0  0
   -0.6499   -0.4467    4.0767 C   0  0  0  0  0  0  0  0  0  0  0  0
   -1.4906   -1.4796    3.9118 N   0  0  0  0  0  0  0  0  0  0  0  0
   -2.0368   -1.8617    5.0797 C   0  0  0  0  0  0  0  0  0  0  0  0
   -1.7775   -1.3290    6.3229 C   0  0  0  0  0  0  0  0  0  0  0  0
   -2.5808   -2.0688    7.2090 C   0  0  0  0  0  0  0  0  0  0  0  0
   -3.3108   -3.0040    6.5867 N   0  0  0  0  0  0  0  0  0  0  0  0
   -2.9513   -2.8579    5.2858 N   0  0  0  0  0  0  0  0  0  0  0  0
   -3.5293   -3.7046    4.2725 C   0  0  0  0  0  0  0  0  0  0  0  0
    0.8061    1.9996    8.5272 C   0  0  0  0  0  0  0  0  0  0  0  0
    2.0059    2.7117    8.6669 C   0  0  0  0  0  0  0  0  0  0  0  0
    3.0665    2.2664    7.8767 C   0  0  0  0  0  0  0  0  0  0  0  0
    4.3270    2.7448    7.5985 N   0  0  0  0  0  0  0  0  0  0  0  0
    5.1543    3.5154    8.4864 C   0  0  0  0  0  0  0  0  0  0  0  0
    6.9950    5.1470    3.2856 C   0  0  0  0  0  0  0  0  0  0  0  0
    6.9191    5.9048    2.1161 C   0  0  0  0  0  0  0  0  0  0  0  0
    4.8157    7.9300   -1.1152 H   0  0  0  0  0  0  0  0  0  0  0  0
    4.0334    8.1581    0.4550 H   0  0  0  0  0  0  0  0  0  0  0  0
    3.9184    6.5790   -0.4174 H   0  0  0  0  0  0  0  0  0  0  0  0
    3.5354    6.1385    1.8521 H   0  0  0  0  0  0  0  0  0  0  0  0
    3.6688    4.8084    3.9022 H   0  0  0  0  0  0  0  0  0  0  0  0
    5.7770    4.6941    6.0666 H   0  0  0  0  0  0  0  0  0  0  0  0
    6.9832    3.5974    5.3706 H   0  0  0  0  0  0  0  0  0  0  0  0
    5.0302    2.3173    4.4367 H   0  0  0  0  0  0  0  0  0  0  0  0
    1.8342   -0.5739    6.5011 H   0  0  0  0  0  0  0  0  0  0  0  0
   -0.1466   -0.0839    3.1827 H   0  0  0  0  0  0  0  0  0  0  0  0
   -2.6692   -1.9575    8.2814 H   0  0  0  0  0  0  0  0  0  0  0  0
   -4.2153   -4.4135    4.7405 H   0  0  0  0  0  0  0  0  0  0  0  0
   -2.7183   -4.2429    3.7760 H   0  0  0  0  0  0  0  0  0  0  0  0
   -4.0657   -3.0726    3.5642 H   0  0  0  0  0  0  0  0  0  0  0  0
   -0.0902    2.3759    9.0161 H   0  0  0  0  0  0  0  0  0  0  0  0
    2.0611    3.6253    9.2485 H   0  0  0  0  0  0  0  0  0  0  0  0
    4.7633    3.4347    9.5077 H   0  0  0  0  0  0  0  0  0  0  0  0
    5.1564    4.5591    8.1789 H   0  0  0  0  0  0  0  0  0  0  0  0
    6.1669    3.0982    8.4763 H   0  0  0  0  0  0  0  0  0  0  0  0
    7.9761    4.8864    3.6764 H   0  0  0  0  0  0  0  0  0  0  0  0
    7.8330    6.2172    1.6191 H   0  0  0  0  0  0  0  0  0  0  0  0
  1  2  1  0  0  0  0
  1 32  1  0  0  0  0
  1 33  1  0  0  0  0
  1 34  1  0  0  0  0
  2  3  1  0  0  0  0
  3  4  1  0  0  0  0
  3 31  2  0  0  0  0
  4  5  2  0  0  0  0
  4 35  1  0  0  0  0
  5  6  1  0  0  0  0
  5 36  1  0  0  0  0
  6  7  1  0  0  0  0
  6 30  2  0  0  0  0
  7  8  1  0  0  0  0
  7 37  1  0  0  0  0
  7 38  1  0  0  0  0
  8  9  1  0  0  0  0
  8 39  1  0  0  0  0
  9 10  2  0  0  0  0
  9 28  1  0  0  0  0
 10 11  1  0  0  0  0
 11 12  1  0  0  0  0
 11 27  2  0  0  0  0
 12 13  2  0  0  0  0
 12 40  1  0  0  0  0
 13 14  1  0  0  0  0
 13 25  1  0  0  0  0
 14 15  1  0  0  0  0
 15 16  1  0  0  0  0
 15 20  2  0  0  0  0
 16 17  2  0  0  0  0
 17 18  1  0  0  0  0
 17 41  1  0  0  0  0
 18 19  2  0  0  0  0
 19 20  1  0  0  0  0
 19 23  1  0  0  0  0
 20 21  1  0  0  0  0
 21 22  2  0  0  0  0
 21 42  1  0  0  0  0
 22 23  1  0  0  0  0
 23 24  1  0  0  0  0
 24 43  1  0  0  0  0
 24 44  1  0  0  0  0
 24 45  1  0  0  0  0
 25 26  2  0  0  0  0
 25 46  1  0  0  0  0
 26 27  1  0  0  0  0
 26 47  1  0  0  0  0
 27 28  1  0  0  0  0
 28 29  1  0  0  0  0
 29 48  1  0  0  0  0
 29 49  1  0  0  0  0
 29 50  1  0  0  0  0
 30 31  1  0  0  0  0
 30 51  1  0  0  0  0
 31 52  1  0  0  0  0
M  END
$$$$
