CHEMBL393862
 OpenBabel04072215373D

 47 51  0  0  0  0  0  0  0  0999 V2000
   -0.8878    1.3177    0.5474 O   0  0  0  0  0  0  0  0  0  0  0  0
    0.2387    0.8491    0.6831 C   0  0  0  0  0  0  0  0  0  0  0  0
    0.7477    0.5646    1.8999 O   0  0  0  0  0  0  0  0  0  0  0  0
    1.2029    0.5375   -0.4466 C   0  0  0  0  0  0  0  0  0  0  0  0
    2.0777    1.7473   -0.7820 C   0  0  0  0  0  0  0  0  0  0  0  0
    1.3153    2.8335   -1.5446 C   0  0  0  0  0  0  0  0  0  0  0  0
    0.6526    2.2676   -2.7186 N   0  0  0  0  0  0  0  0  0  0  0  0
    0.9303    2.8075   -3.9802 C   0  0  0  0  0  0  0  0  0  0  0  0
    1.7628    3.7050   -4.1397 O   0  0  0  0  0  0  0  0  0  0  0  0
    0.2692    2.2582   -5.2023 C   0  0  0  0  0  0  0  0  0  0  0  0
   -1.0688    1.8215   -5.2062 C   0  0  0  0  0  0  0  0  0  0  0  0
   -1.6218    1.1082   -6.2843 C   0  0  0  0  0  0  0  0  0  0  0  0
   -0.9017    0.9418   -7.4591 C   0  0  0  0  0  0  0  0  0  0  0  0
    0.3554    1.5035   -7.5034 C   0  0  0  0  0  0  0  0  0  0  0  0
    0.9683    2.1564   -6.3989 C   0  0  0  0  0  0  0  0  0  0  0  0
    2.3662    2.7093   -6.7292 C   0  0  0  0  0  0  0  0  0  0  0  0
    2.4173    2.2830   -8.1565 C   0  0  0  0  0  0  0  0  0  0  0  0
    1.2756    1.5938   -8.5789 C   0  0  0  0  0  0  0  0  0  0  0  0
    1.2834    1.2458   -9.8563 N   0  0  0  0  0  0  0  0  0  0  0  0
    2.4788    1.7440  -10.2663 N   0  0  0  0  0  0  0  0  0  0  0  0
    3.2019    2.3780   -9.2748 C   0  0  0  0  0  0  0  0  0  0  0  0
    4.5266    3.0306   -9.4251 C   0  0  0  0  0  0  0  0  0  0  0  0
    5.2747    3.6298   -8.3692 C   0  0  0  0  0  0  0  0  0  0  0  0
    6.4730    4.1492   -8.8082 C   0  0  0  0  0  0  0  0  0  0  0  0
    6.6909    3.9297  -10.4889 S   0  0  0  0  0  0  0  0  0  0  0  0
    5.1843    3.1267  -10.6328 C   0  0  0  0  0  0  0  0  0  0  0  0
   -0.2543    1.1573   -2.4158 C   0  0  0  0  0  0  0  0  0  0  0  0
    0.4513    0.0374   -1.6787 C   0  0  0  0  0  0  0  0  0  0  0  0
    1.6446    0.1818    1.8812 H   0  0  0  0  0  0  0  0  0  0  0  0
    1.8379   -0.2981   -0.1237 H   0  0  0  0  0  0  0  0  0  0  0  0
    2.9126    1.4053   -1.4092 H   0  0  0  0  0  0  0  0  0  0  0  0
    2.5112    2.1666    0.1309 H   0  0  0  0  0  0  0  0  0  0  0  0
    2.0108    3.6329   -1.8209 H   0  0  0  0  0  0  0  0  0  0  0  0
    0.5454    3.2868   -0.9093 H   0  0  0  0  0  0  0  0  0  0  0  0
   -1.7070    2.0013   -4.3445 H   0  0  0  0  0  0  0  0  0  0  0  0
   -2.6216    0.6911   -6.1918 H   0  0  0  0  0  0  0  0  0  0  0  0
   -1.3206    0.4279   -8.3165 H   0  0  0  0  0  0  0  0  0  0  0  0
    3.1425    2.2311   -6.1281 H   0  0  0  0  0  0  0  0  0  0  0  0
    2.3865    3.7998   -6.6476 H   0  0  0  0  0  0  0  0  0  0  0  0
    2.7333    1.6250  -11.2394 H   0  0  0  0  0  0  0  0  0  0  0  0
    4.9675    3.6786   -7.3323 H   0  0  0  0  0  0  0  0  0  0  0  0
    7.2307    4.6480   -8.2200 H   0  0  0  0  0  0  0  0  0  0  0  0
    4.8704    2.7772  -11.6062 H   0  0  0  0  0  0  0  0  0  0  0  0
   -0.6497    0.6709   -3.2966 H   0  0  0  0  0  0  0  0  0  0  0  0
   -1.1013    1.5732   -1.8593 H   0  0  0  0  0  0  0  0  0  0  0  0
    1.1683   -0.4229   -2.3718 H   0  0  0  0  0  0  0  0  0  0  0  0
   -0.2806   -0.7352   -1.4159 H   0  0  0  0  0  0  0  0  0  0  0  0
  1  2  2  0  0  0  0
  2  3  1  0  0  0  0
  2  4  1  0  0  0  0
  3 29  1  0  0  0  0
  4  5  1  0  0  0  0
  4 28  1  0  0  0  0
  4 30  1  0  0  0  0
  5  6  1  0  0  0  0
  5 31  1  0  0  0  0
  5 32  1  0  0  0  0
  6  7  1  0  0  0  0
  6 33  1  0  0  0  0
  6 34  1  0  0  0  0
  7  8  1  0  0  0  0
  7 27  1  0  0  0  0
  8  9  2  0  0  0  0
  8 10  1  0  0  0  0
 10 11  1  0  0  0  0
 10 15  2  0  0  0  0
 11 12  2  0  0  0  0
 11 35  1  0  0  0  0
 12 13  1  0  0  0  0
 12 36  1  0  0  0  0
 13 14  2  0  0  0  0
 13 37  1  0  0  0  0
 14 15  1  0  0  0  0
 14 18  1  0  0  0  0
 15 16  1  0  0  0  0
 16 17  1  0  0  0  0
 16 38  1  0  0  0  0
 16 39  1  0  0  0  0
 17 18  1  0  0  0  0
 17 21  2  0  0  0  0
 18 19  2  0  0  0  0
 19 20  1  0  0  0  0
 20 21  1  0  0  0  0
 20 40  1  0  0  0  0
 21 22  1  0  0  0  0
 22 23  1  0  0  0  0
 22 26  2  0  0  0  0
 23 24  2  0  0  0  0
 23 41  1  0  0  0  0
 24 25  1  0  0  0  0
 24 42  1  0  0  0  0
 25 26  1  0  0  0  0
 26 43  1  0  0  0  0
 27 28  1  0  0  0  0
 27 44  1  0  0  0  0
 27 45  1  0  0  0  0
 28 46  1  0  0  0  0
 28 47  1  0  0  0  0
M  END
$$$$
