CHEMBL2204531
 OpenBabel04072215363D

 60 63  0  0  0  0  0  0  0  0999 V2000
    7.9242    9.2450   -4.5413 C   0  0  0  0  0  0  0  0  0  0  0  0
    8.7302    7.9792   -4.4164 C   0  0  0  0  0  0  0  0  0  0  0  0
    9.5244    7.6682   -5.2973 O   0  0  0  0  0  0  0  0  0  0  0  0
    8.4474    7.2756   -3.2633 N   0  0  0  0  0  0  0  0  0  0  0  0
    9.1093    6.1110   -2.9757 C   0  0  0  0  0  0  0  0  0  0  0  0
   10.1982    5.6497   -3.5379 N   0  0  0  0  0  0  0  0  0  0  0  0
   10.4714    4.3988   -3.0354 C   0  0  0  0  0  0  0  0  0  0  0  0
   11.5206    3.5548   -3.4027 C   0  0  0  0  0  0  0  0  0  0  0  0
   11.5693    2.2950   -2.8079 C   0  0  0  0  0  0  0  0  0  0  0  0
   10.5918    1.8965   -1.8836 C   0  0  0  0  0  0  0  0  0  0  0  0
   10.6341    0.5509   -1.4384 N   0  0  0  0  0  0  0  0  0  0  0  0
    9.3406   -0.0186   -1.0445 C   0  0  0  0  0  0  0  0  0  0  0  0
   11.7590   -0.1806   -0.9791 C   0  0  0  0  0  0  0  0  0  0  0  0
   11.8336   -1.5630   -1.2114 C   0  0  0  0  0  0  0  0  0  0  0  0
   12.8634   -2.3256   -0.6728 C   0  0  0  0  0  0  0  0  0  0  0  0
   13.8540   -1.7181    0.0894 C   0  0  0  0  0  0  0  0  0  0  0  0
   14.7156   -2.5444    0.6923 F   0  0  0  0  0  0  0  0  0  0  0  0
   13.8799   -0.3310    0.2798 C   0  0  0  0  0  0  0  0  0  0  0  0
   14.8910    0.3640    1.0073 N   0  0  0  0  0  0  0  0  0  0  0  0
   16.1382   -0.1330    1.3766 C   0  0  0  0  0  0  0  0  0  0  0  0
   16.6243   -1.2069    1.0382 O   0  0  0  0  0  0  0  0  0  0  0  0
   17.0449    0.8012    2.1079 C   0  0  0  0  0  0  0  0  0  0  0  0
   18.4175    0.7084    1.8260 C   0  0  0  0  0  0  0  0  0  0  0  0
   19.3120    1.6248    2.3694 C   0  0  0  0  0  0  0  0  0  0  0  0
   18.8196    2.7112    3.0880 C   0  0  0  0  0  0  0  0  0  0  0  0
   17.4498    2.8297    3.3563 C   0  0  0  0  0  0  0  0  0  0  0  0
   17.1130    3.9850    4.0049 O   0  0  0  0  0  0  0  0  0  0  0  0
   15.9188    4.7549    3.6620 C   0  0  0  0  0  0  0  0  0  0  0  0
   15.1680    4.9131    4.9886 C   0  0  0  0  0  0  0  0  0  0  0  0
   16.3754    6.1460    3.1846 C   0  0  0  0  0  0  0  0  0  0  0  0
   15.0407    4.2270    2.5864 C   0  0  0  0  0  0  0  0  0  0  0  0
   14.3821    3.8097    1.7226 N   0  0  0  0  0  0  0  0  0  0  0  0
   16.5987    1.7675    3.0133 C   0  0  0  0  0  0  0  0  0  0  0  0
   15.1350    1.4833    3.9090 Cl  0  0  0  0  0  0  0  0  0  0  0  0
   12.8112    0.4259   -0.2535 C   0  0  0  0  0  0  0  0  0  0  0  0
    9.5801    2.7146   -1.4931 N   0  0  0  0  0  0  0  0  0  0  0  0
    9.5767    3.9295   -2.0820 C   0  0  0  0  0  0  0  0  0  0  0  0
    8.4065    5.1386   -1.7562 S   0  0  0  0  0  0  0  0  0  0  0  0
    8.0440    9.6464   -5.5532 H   0  0  0  0  0  0  0  0  0  0  0  0
    8.2869    9.9849   -3.8238 H   0  0  0  0  0  0  0  0  0  0  0  0
    6.8627    9.0442   -4.3762 H   0  0  0  0  0  0  0  0  0  0  0  0
    7.6660    7.5263   -2.6764 H   0  0  0  0  0  0  0  0  0  0  0  0
   12.2395    3.8613   -4.1530 H   0  0  0  0  0  0  0  0  0  0  0  0
   12.3386    1.5960   -3.1241 H   0  0  0  0  0  0  0  0  0  0  0  0
    8.4792    0.5931   -1.3349 H   0  0  0  0  0  0  0  0  0  0  0  0
    9.2938   -0.1739    0.0393 H   0  0  0  0  0  0  0  0  0  0  0  0
    9.1778   -0.9838   -1.5394 H   0  0  0  0  0  0  0  0  0  0  0  0
   11.0829   -2.0671   -1.8130 H   0  0  0  0  0  0  0  0  0  0  0  0
   12.8942   -3.4008   -0.8167 H   0  0  0  0  0  0  0  0  0  0  0  0
   14.6980    1.3443    1.1823 H   0  0  0  0  0  0  0  0  0  0  0  0
   18.7939   -0.0949    1.1926 H   0  0  0  0  0  0  0  0  0  0  0  0
   20.3803    1.5133    2.1972 H   0  0  0  0  0  0  0  0  0  0  0  0
   19.5151    3.4635    3.4561 H   0  0  0  0  0  0  0  0  0  0  0  0
   15.7323    5.5620    5.6713 H   0  0  0  0  0  0  0  0  0  0  0  0
   15.0763    3.9541    5.5105 H   0  0  0  0  0  0  0  0  0  0  0  0
   14.1678    5.3364    4.8614 H   0  0  0  0  0  0  0  0  0  0  0  0
   17.0432    6.6270    3.9057 H   0  0  0  0  0  0  0  0  0  0  0  0
   15.5148    6.8066    3.0133 H   0  0  0  0  0  0  0  0  0  0  0  0
   16.9266    6.0731    2.2388 H   0  0  0  0  0  0  0  0  0  0  0  0
   12.7766    1.4990   -0.0731 H   0  0  0  0  0  0  0  0  0  0  0  0
  1  2  1  0  0  0  0
  1 39  1  0  0  0  0
  1 40  1  0  0  0  0
  1 41  1  0  0  0  0
  2  3  2  0  0  0  0
  2  4  1  0  0  0  0
  4  5  1  0  0  0  0
  4 42  1  0  0  0  0
  5  6  2  0  0  0  0
  5 38  1  0  0  0  0
  6  7  1  0  0  0  0
  7  8  1  0  0  0  0
  7 37  2  0  0  0  0
  8  9  2  0  0  0  0
  8 43  1  0  0  0  0
  9 10  1  0  0  0  0
  9 44  1  0  0  0  0
 10 11  1  0  0  0  0
 10 36  2  0  0  0  0
 11 12  1  0  0  0  0
 11 13  1  0  0  0  0
 12 45  1  0  0  0  0
 12 46  1  0  0  0  0
 12 47  1  0  0  0  0
 13 14  1  0  0  0  0
 13 35  2  0  0  0  0
 14 15  2  0  0  0  0
 14 48  1  0  0  0  0
 15 16  1  0  0  0  0
 15 49  1  0  0  0  0
 16 17  1  0  0  0  0
 16 18  2  0  0  0  0
 18 19  1  0  0  0  0
 18 35  1  0  0  0  0
 19 20  1  0  0  0  0
 19 50  1  0  0  0  0
 20 21  2  0  0  0  0
 20 22  1  0  0  0  0
 22 23  1  0  0  0  0
 22 33  2  0  0  0  0
 23 24  2  0  0  0  0
 23 51  1  0  0  0  0
 24 25  1  0  0  0  0
 24 52  1  0  0  0  0
 25 26  2  0  0  0  0
 25 53  1  0  0  0  0
 26 27  1  0  0  0  0
 26 33  1  0  0  0  0
 27 28  1  0  0  0  0
 28 29  1  0  0  0  0
 28 30  1  0  0  0  0
 28 31  1  0  0  0  0
 29 54  1  0  0  0  0
 29 55  1  0  0  0  0
 29 56  1  0  0  0  0
 30 57  1  0  0  0  0
 30 58  1  0  0  0  0
 30 59  1  0  0  0  0
 31 32  3  0  0  0  0
 33 34  1  0  0  0  0
 35 60  1  0  0  0  0
 36 37  1  0  0  0  0
 37 38  1  0  0  0  0
M  END
$$$$
