CHEMBL115480
 OpenBabel04072215363D

 58 62  0  0  0  0  0  0  0  0999 V2000
    1.1025    0.0510    0.2912 O   0  0  0  0  0  0  0  0  0  0  0  0
    2.3315    0.0006    0.1253 C   0  0  0  0  0  0  0  0  0  0  0  0
    3.1055    1.2579    0.0035 C   0  0  0  0  0  0  0  0  0  0  0  0
    4.4426    1.2684   -0.1811 C   0  0  0  0  0  0  0  0  0  0  0  0
    5.1581    2.5329   -0.3565 C   0  0  0  0  0  0  0  0  0  0  0  0
    6.4549    2.6051   -1.1447 C   0  0  0  0  0  0  0  0  0  0  0  0
    7.2985    3.6032   -1.1695 N   0  0  0  0  0  0  0  0  0  0  0  0
    6.8340    4.7629   -0.5761 C   0  0  0  0  0  0  0  0  0  0  0  0
    7.1524    6.1209   -0.7574 C   0  0  0  0  0  0  0  0  0  0  0  0
    7.0927    7.1294    0.3680 C   0  0  0  0  0  0  0  0  0  0  0  0
    7.2321    6.7948    1.7248 C   0  0  0  0  0  0  0  0  0  0  0  0
    6.8766    7.7242    2.7181 C   0  0  0  0  0  0  0  0  0  0  0  0
    6.3873    8.9873    2.3730 C   0  0  0  0  0  0  0  0  0  0  0  0
    6.3011    9.3507    1.0369 C   0  0  0  0  0  0  0  0  0  0  0  0
    6.6788    8.4395    0.0512 C   0  0  0  0  0  0  0  0  0  0  0  0
    6.1398    6.3012   -1.7586 C   0  0  0  0  0  0  0  0  0  0  0  0
    4.9833    5.7729   -1.3127 N   0  0  0  0  0  0  0  0  0  0  0  0
    5.4362    4.8567   -0.3917 N   0  0  0  0  0  0  0  0  0  0  0  0
    4.7192    3.7481    0.0177 C   0  0  0  0  0  0  0  0  0  0  0  0
    5.1095   -0.0302   -0.2529 C   0  0  0  0  0  0  0  0  0  0  0  0
    4.4331   -1.1649   -0.1536 C   0  0  0  0  0  0  0  0  0  0  0  0
    3.0609   -1.1784    0.0122 N   0  0  0  0  0  0  0  0  0  0  0  0
    2.3544   -2.4667    0.0170 C   0  0  0  0  0  0  0  0  0  0  0  0
    1.8271   -2.8663   -1.3598 C   0  0  0  0  0  0  0  0  0  0  0  0
    2.9102   -3.1197   -2.4205 C   0  0  0  0  0  0  0  0  0  0  0  0
    3.9303   -4.1184   -2.0442 N   0  0  0  0  0  0  0  0  0  0  0  0
    3.3451   -5.4535   -1.8366 C   0  0  0  0  0  0  0  0  0  0  0  0
    4.4072   -6.4699   -1.4163 C   0  0  0  0  0  0  0  0  0  0  0  0
    5.5364   -6.5424   -2.4340 C   0  0  0  0  0  0  0  0  0  0  0  0
    6.0958   -5.1495   -2.6931 C   0  0  0  0  0  0  0  0  0  0  0  0
    4.9851   -4.1687   -3.0741 C   0  0  0  0  0  0  0  0  0  0  0  0
    2.4931    2.1507    0.0547 H   0  0  0  0  0  0  0  0  0  0  0  0
    6.6698    1.7288   -1.7802 H   0  0  0  0  0  0  0  0  0  0  0  0
    7.5646    5.8064    2.0313 H   0  0  0  0  0  0  0  0  0  0  0  0
    6.9448    7.4564    3.7689 H   0  0  0  0  0  0  0  0  0  0  0  0
    6.0633    9.6855    3.1412 H   0  0  0  0  0  0  0  0  0  0  0  0
    5.9071   10.3215    0.7489 H   0  0  0  0  0  0  0  0  0  0  0  0
    6.5594    8.7467   -0.9847 H   0  0  0  0  0  0  0  0  0  0  0  0
    6.1191    7.0146   -2.5699 H   0  0  0  0  0  0  0  0  0  0  0  0
    3.7890    3.9579    0.5257 H   0  0  0  0  0  0  0  0  0  0  0  0
    6.1880   -0.0619   -0.3656 H   0  0  0  0  0  0  0  0  0  0  0  0
    4.9298   -2.1294   -0.2231 H   0  0  0  0  0  0  0  0  0  0  0  0
    1.5050   -2.3790    0.7033 H   0  0  0  0  0  0  0  0  0  0  0  0
    3.0118   -3.2360    0.4398 H   0  0  0  0  0  0  0  0  0  0  0  0
    1.1567   -2.0832   -1.7365 H   0  0  0  0  0  0  0  0  0  0  0  0
    1.2044   -3.7611   -1.2472 H   0  0  0  0  0  0  0  0  0  0  0  0
    3.4061   -2.1627   -2.6274 H   0  0  0  0  0  0  0  0  0  0  0  0
    2.4202   -3.4135   -3.3585 H   0  0  0  0  0  0  0  0  0  0  0  0
    2.8356   -5.8005   -2.7448 H   0  0  0  0  0  0  0  0  0  0  0  0
    2.6011   -5.4241   -1.0341 H   0  0  0  0  0  0  0  0  0  0  0  0
    3.9472   -7.4576   -1.3002 H   0  0  0  0  0  0  0  0  0  0  0  0
    4.8146   -6.1898   -0.4363 H   0  0  0  0  0  0  0  0  0  0  0  0
    5.1588   -6.9684   -3.3717 H   0  0  0  0  0  0  0  0  0  0  0  0
    6.3280   -7.2073   -2.0721 H   0  0  0  0  0  0  0  0  0  0  0  0
    6.8433   -5.1949   -3.4932 H   0  0  0  0  0  0  0  0  0  0  0  0
    6.6111   -4.7889   -1.7937 H   0  0  0  0  0  0  0  0  0  0  0  0
    4.5651   -4.4512   -4.0487 H   0  0  0  0  0  0  0  0  0  0  0  0
    5.4383   -3.1764   -3.1909 H   0  0  0  0  0  0  0  0  0  0  0  0
  1  2  2  0  0  0  0
  2  3  1  0  0  0  0
  2 22  1  0  0  0  0
  3  4  2  0  0  0  0
  3 32  1  0  0  0  0
  4  5  1  0  0  0  0
  4 20  1  0  0  0  0
  5  6  1  0  0  0  0
  5 19  2  0  0  0  0
  6  7  2  0  0  0  0
  6 33  1  0  0  0  0
  7  8  1  0  0  0  0
  8  9  2  0  0  0  0
  8 18  1  0  0  0  0
  9 10  1  0  0  0  0
  9 16  1  0  0  0  0
 10 11  1  0  0  0  0
 10 15  2  0  0  0  0
 11 12  2  0  0  0  0
 11 34  1  0  0  0  0
 12 13  1  0  0  0  0
 12 35  1  0  0  0  0
 13 14  2  0  0  0  0
 13 36  1  0  0  0  0
 14 15  1  0  0  0  0
 14 37  1  0  0  0  0
 15 38  1  0  0  0  0
 16 17  2  0  0  0  0
 16 39  1  0  0  0  0
 17 18  1  0  0  0  0
 18 19  1  0  0  0  0
 19 40  1  0  0  0  0
 20 21  2  0  0  0  0
 20 41  1  0  0  0  0
 21 22  1  0  0  0  0
 21 42  1  0  0  0  0
 22 23  1  0  0  0  0
 23 24  1  0  0  0  0
 23 43  1  0  0  0  0
 23 44  1  0  0  0  0
 24 25  1  0  0  0  0
 24 45  1  0  0  0  0
 24 46  1  0  0  0  0
 25 26  1  0  0  0  0
 25 47  1  0  0  0  0
 25 48  1  0  0  0  0
 26 27  1  0  0  0  0
 26 31  1  0  0  0  0
 27 28  1  0  0  0  0
 27 49  1  0  0  0  0
 27 50  1  0  0  0  0
 28 29  1  0  0  0  0
 28 51  1  0  0  0  0
 28 52  1  0  0  0  0
 29 30  1  0  0  0  0
 29 53  1  0  0  0  0
 29 54  1  0  0  0  0
 30 31  1  0  0  0  0
 30 55  1  0  0  0  0
 30 56  1  0  0  0  0
 31 57  1  0  0  0  0
 31 58  1  0  0  0  0
M  END
$$$$
