CHEMBL213507
 OpenBabel04072215363D

 69 74  0  0  0  0  0  0  0  0999 V2000
  -13.4733   -1.4784    7.3533 C   0  0  0  0  0  0  0  0  0  0  0  0
  -12.3385   -1.3772    6.3749 C   0  0  0  0  0  0  0  0  0  0  0  0
  -12.1650   -0.2193    5.6161 C   0  0  0  0  0  0  0  0  0  0  0  0
  -11.1105   -0.1357    4.7116 C   0  0  0  0  0  0  0  0  0  0  0  0
  -10.2200   -1.1992    4.5579 C   0  0  0  0  0  0  0  0  0  0  0  0
  -10.3658   -2.3703    5.3098 C   0  0  0  0  0  0  0  0  0  0  0  0
   -9.4906   -3.4724    5.2117 N   0  0  0  0  0  0  0  0  0  0  0  0
   -8.3353   -3.5614    4.4623 C   0  0  0  0  0  0  0  0  0  0  0  0
   -7.8539   -2.6918    3.7461 O   0  0  0  0  0  0  0  0  0  0  0  0
   -7.7214   -4.7875    4.6434 N   0  0  0  0  0  0  0  0  0  0  0  0
   -6.5137   -5.1169    3.9119 C   0  0  0  0  0  0  0  0  0  0  0  0
   -6.9115   -5.7430    2.6144 C   0  0  0  0  0  0  0  0  0  0  0  0
   -7.0056   -5.0813    1.4225 C   0  0  0  0  0  0  0  0  0  0  0  0
   -7.4081   -5.9344    0.3792 C   0  0  0  0  0  0  0  0  0  0  0  0
   -7.8164   -7.1772    0.7948 C   0  0  0  0  0  0  0  0  0  0  0  0
   -8.4941   -8.1983   -0.1060 C   0  0  0  0  0  0  0  0  0  0  0  0
   -8.4093   -9.5385   -0.0122 N   0  0  0  0  0  0  0  0  0  0  0  0
   -8.6659   -9.9808   -1.2913 N   0  0  0  0  0  0  0  0  0  0  0  0
   -9.0791   -8.9929   -2.1508 C   0  0  0  0  0  0  0  0  0  0  0  0
   -9.1062   -7.8530   -1.3335 C   0  0  0  0  0  0  0  0  0  0  0  0
   -9.0151   -6.6351   -2.1686 C   0  0  0  0  0  0  0  0  0  0  0  0
   -7.9645   -7.2961   -3.0729 C   0  0  0  0  0  0  0  0  0  0  0  0
   -6.5710   -7.3454   -2.8427 C   0  0  0  0  0  0  0  0  0  0  0  0
   -5.8175   -8.3574   -3.4665 C   0  0  0  0  0  0  0  0  0  0  0  0
   -4.5143   -8.8968   -2.8904 C   0  0  0  0  0  0  0  0  0  0  0  0
   -3.4424   -9.0427   -3.8800 N   0  0  0  0  0  0  0  0  0  0  0  0
   -2.8920   -7.7253   -4.2311 C   0  0  0  0  0  0  0  0  0  0  0  0
   -1.7364   -7.8522   -5.2475 C   0  0  0  0  0  0  0  0  0  0  0  0
   -0.6221   -8.7192   -4.8157 N   0  0  0  0  0  0  0  0  0  0  0  0
    0.1793   -8.0851   -3.7719 C   0  0  0  0  0  0  0  0  0  0  0  0
   -1.1682  -10.0174   -4.3697 C   0  0  0  0  0  0  0  0  0  0  0  0
   -2.3633   -9.9267   -3.3853 C   0  0  0  0  0  0  0  0  0  0  0  0
   -6.4398   -9.1020   -4.4711 C   0  0  0  0  0  0  0  0  0  0  0  0
   -7.8198   -9.2597   -4.4187 C   0  0  0  0  0  0  0  0  0  0  0  0
   -8.5204   -8.5309   -3.4837 C   0  0  0  0  0  0  0  0  0  0  0  0
   -7.3228   -7.4047    2.4404 S   0  0  0  0  0  0  0  0  0  0  0  0
  -11.4385   -2.4509    6.2154 C   0  0  0  0  0  0  0  0  0  0  0  0
  -14.0670   -0.5574    7.3684 H   0  0  0  0  0  0  0  0  0  0  0  0
  -13.0858   -1.6421    8.3642 H   0  0  0  0  0  0  0  0  0  0  0  0
  -14.1401   -2.3022    7.0783 H   0  0  0  0  0  0  0  0  0  0  0  0
  -12.8539    0.6332    5.7217 H   0  0  0  0  0  0  0  0  0  0  0  0
  -10.9754    0.7601    4.1168 H   0  0  0  0  0  0  0  0  0  0  0  0
   -9.4196   -1.0809    3.8342 H   0  0  0  0  0  0  0  0  0  0  0  0
   -9.6733   -4.2433    5.8336 H   0  0  0  0  0  0  0  0  0  0  0  0
   -8.3319   -5.5682    4.8274 H   0  0  0  0  0  0  0  0  0  0  0  0
   -5.9050   -5.7875    4.5240 H   0  0  0  0  0  0  0  0  0  0  0  0
   -5.9289   -4.2012    3.7381 H   0  0  0  0  0  0  0  0  0  0  0  0
   -6.7750   -4.0290    1.2999 H   0  0  0  0  0  0  0  0  0  0  0  0
   -7.4087   -5.5450   -0.6175 H   0  0  0  0  0  0  0  0  0  0  0  0
   -8.4475  -10.9451   -1.5172 H   0  0  0  0  0  0  0  0  0  0  0  0
   -8.7836   -5.6740   -1.7393 H   0  0  0  0  0  0  0  0  0  0  0  0
   -9.9523   -6.4972   -2.7236 H   0  0  0  0  0  0  0  0  0  0  0  0
   -6.1324   -6.8003   -2.0097 H   0  0  0  0  0  0  0  0  0  0  0  0
   -4.7719   -9.8977   -2.5032 H   0  0  0  0  0  0  0  0  0  0  0  0
   -4.1887   -8.3250   -2.0124 H   0  0  0  0  0  0  0  0  0  0  0  0
   -2.5398   -7.2028   -3.3329 H   0  0  0  0  0  0  0  0  0  0  0  0
   -3.6707   -7.1072   -4.6840 H   0  0  0  0  0  0  0  0  0  0  0  0
   -1.3640   -6.8519   -5.4989 H   0  0  0  0  0  0  0  0  0  0  0  0
   -2.1410   -8.2608   -6.1839 H   0  0  0  0  0  0  0  0  0  0  0  0
    0.5568   -7.1158   -4.1167 H   0  0  0  0  0  0  0  0  0  0  0  0
    1.0591   -8.6982   -3.5476 H   0  0  0  0  0  0  0  0  0  0  0  0
   -0.3684   -7.9225   -2.8387 H   0  0  0  0  0  0  0  0  0  0  0  0
   -0.3712  -10.6306   -3.9293 H   0  0  0  0  0  0  0  0  0  0  0  0
   -1.4966  -10.5651   -5.2634 H   0  0  0  0  0  0  0  0  0  0  0  0
   -1.9999   -9.5870   -2.4063 H   0  0  0  0  0  0  0  0  0  0  0  0
   -2.7565  -10.9420   -3.2451 H   0  0  0  0  0  0  0  0  0  0  0  0
   -5.8427   -9.6468   -5.1962 H   0  0  0  0  0  0  0  0  0  0  0  0
   -8.3419   -9.8129   -5.1901 H   0  0  0  0  0  0  0  0  0  0  0  0
  -11.5787   -3.3481    6.8162 H   0  0  0  0  0  0  0  0  0  0  0  0
  1  2  1  0  0  0  0
  1 38  1  0  0  0  0
  1 39  1  0  0  0  0
  1 40  1  0  0  0  0
  2  3  1  0  0  0  0
  2 37  2  0  0  0  0
  3  4  2  0  0  0  0
  3 41  1  0  0  0  0
  4  5  1  0  0  0  0
  4 42  1  0  0  0  0
  5  6  2  0  0  0  0
  5 43  1  0  0  0  0
  6  7  1  0  0  0  0
  6 37  1  0  0  0  0
  7  8  1  0  0  0  0
  7 44  1  0  0  0  0
  8  9  2  0  0  0  0
  8 10  1  0  0  0  0
 10 11  1  0  0  0  0
 10 45  1  0  0  0  0
 11 12  1  0  0  0  0
 11 46  1  0  0  0  0
 11 47  1  0  0  0  0
 12 13  2  0  0  0  0
 12 36  1  0  0  0  0
 13 14  1  0  0  0  0
 13 48  1  0  0  0  0
 14 15  2  0  0  0  0
 14 49  1  0  0  0  0
 15 16  1  0  0  0  0
 15 36  1  0  0  0  0
 16 17  2  0  0  0  0
 16 20  1  0  0  0  0
 17 18  1  0  0  0  0
 18 19  1  0  0  0  0
 18 50  1  0  0  0  0
 19 20  2  0  0  0  0
 19 35  1  0  0  0  0
 20 21  1  0  0  0  0
 21 22  1  0  0  0  0
 21 51  1  0  0  0  0
 21 52  1  0  0  0  0
 22 23  1  0  0  0  0
 22 35  2  0  0  0  0
 23 24  2  0  0  0  0
 23 53  1  0  0  0  0
 24 25  1  0  0  0  0
 24 33  1  0  0  0  0
 25 26  1  0  0  0  0
 25 54  1  0  0  0  0
 25 55  1  0  0  0  0
 26 27  1  0  0  0  0
 26 32  1  0  0  0  0
 27 28  1  0  0  0  0
 27 56  1  0  0  0  0
 27 57  1  0  0  0  0
 28 29  1  0  0  0  0
 28 58  1  0  0  0  0
 28 59  1  0  0  0  0
 29 30  1  0  0  0  0
 29 31  1  0  0  0  0
 30 60  1  0  0  0  0
 30 61  1  0  0  0  0
 30 62  1  0  0  0  0
 31 32  1  0  0  0  0
 31 63  1  0  0  0  0
 31 64  1  0  0  0  0
 32 65  1  0  0  0  0
 32 66  1  0  0  0  0
 33 34  2  0  0  0  0
 33 67  1  0  0  0  0
 34 35  1  0  0  0  0
 34 68  1  0  0  0  0
 37 69  1  0  0  0  0
M  END
$$$$
