CHEMBL1079422
 OpenBabel04072215353D

 54 58  0  0  0  0  0  0  0  0999 V2000
    2.4782    0.1821   -0.4629 C   0  0  0  0  0  0  0  0  0  0  0  0
    1.0215    0.1190   -0.0943 C   0  0  0  0  0  0  0  0  0  0  0  0
    0.3285    1.3324    0.0292 C   0  0  0  0  0  0  0  0  0  0  0  0
   -1.0544    1.3577    0.1923 C   0  0  0  0  0  0  0  0  0  0  0  0
   -1.7839    0.1752    0.1747 C   0  0  0  0  0  0  0  0  0  0  0  0
   -3.1987    0.1276    0.1838 N   0  0  0  0  0  0  0  0  0  0  0  0
   -4.0535    1.2163    0.1921 C   0  0  0  0  0  0  0  0  0  0  0  0
   -3.7332    2.3996    0.2426 O   0  0  0  0  0  0  0  0  0  0  0  0
   -5.5113    0.9137    0.1590 C   0  0  0  0  0  0  0  0  0  0  0  0
   -6.3706    1.8109    0.8116 C   0  0  0  0  0  0  0  0  0  0  0  0
   -7.7487    1.6172    0.7891 C   0  0  0  0  0  0  0  0  0  0  0  0
   -8.2881    0.5322    0.0965 C   0  0  0  0  0  0  0  0  0  0  0  0
   -7.4347   -0.3487   -0.5697 C   0  0  0  0  0  0  0  0  0  0  0  0
   -8.1056   -1.6686   -1.4492 Cl  0  0  0  0  0  0  0  0  0  0  0  0
   -6.0466   -0.1691   -0.5471 C   0  0  0  0  0  0  0  0  0  0  0  0
   -1.0806   -1.0367    0.1442 C   0  0  0  0  0  0  0  0  0  0  0  0
    0.3290   -1.0944    0.1029 C   0  0  0  0  0  0  0  0  0  0  0  0
    1.0453   -2.3145    0.2390 N   0  0  0  0  0  0  0  0  0  0  0  0
    0.5656   -3.4690    0.7920 C   0  0  0  0  0  0  0  0  0  0  0  0
   -0.6940   -3.8115    0.9613 N   0  0  0  0  0  0  0  0  0  0  0  0
   -0.6973   -5.0775    1.4545 C   0  0  0  0  0  0  0  0  0  0  0  0
   -1.8022   -5.8798    1.7766 C   0  0  0  0  0  0  0  0  0  0  0  0
   -1.5853   -7.1650    2.2761 C   0  0  0  0  0  0  0  0  0  0  0  0
   -0.2898   -7.6244    2.4943 C   0  0  0  0  0  0  0  0  0  0  0  0
    0.8233   -6.8233    2.2058 C   0  0  0  0  0  0  0  0  0  0  0  0
    0.5960   -5.5565    1.6336 C   0  0  0  0  0  0  0  0  0  0  0  0
    1.4144   -4.5151    1.1886 N   0  0  0  0  0  0  0  0  0  0  0  0
    2.8416   -4.5028    1.1213 C   0  0  0  0  0  0  0  0  0  0  0  0
    3.5219   -5.6827    0.8911 C   0  0  0  0  0  0  0  0  0  0  0  0
    4.8931   -5.6037    0.7994 C   0  0  0  0  0  0  0  0  0  0  0  0
    5.6305   -6.7225    0.4223 N   0  0  0  0  0  0  0  0  0  0  0  0
    5.5623   -4.4599    0.9618 N   0  0  0  0  0  0  0  0  0  0  0  0
    4.8208   -3.3652    1.1780 C   0  0  0  0  0  0  0  0  0  0  0  0
    3.4802   -3.3133    1.2281 N   0  0  0  0  0  0  0  0  0  0  0  0
    2.7705    1.2032   -0.7379 H   0  0  0  0  0  0  0  0  0  0  0  0
    2.6658   -0.4381   -1.3468 H   0  0  0  0  0  0  0  0  0  0  0  0
    3.1140   -0.1412    0.3639 H   0  0  0  0  0  0  0  0  0  0  0  0
    0.8576    2.2813   -0.0199 H   0  0  0  0  0  0  0  0  0  0  0  0
   -1.5293    2.3267    0.2942 H   0  0  0  0  0  0  0  0  0  0  0  0
   -3.6001   -0.8018    0.1921 H   0  0  0  0  0  0  0  0  0  0  0  0
   -5.9607    2.6764    1.3314 H   0  0  0  0  0  0  0  0  0  0  0  0
   -8.4032    2.3232    1.2958 H   0  0  0  0  0  0  0  0  0  0  0  0
   -9.3663    0.3851    0.0750 H   0  0  0  0  0  0  0  0  0  0  0  0
   -5.4068   -0.8441   -1.1137 H   0  0  0  0  0  0  0  0  0  0  0  0
   -1.6517   -1.9584    0.1471 H   0  0  0  0  0  0  0  0  0  0  0  0
    2.0539   -2.1789    0.2999 H   0  0  0  0  0  0  0  0  0  0  0  0
   -2.8067   -5.4982    1.6286 H   0  0  0  0  0  0  0  0  0  0  0  0
   -2.4361   -7.8012    2.5071 H   0  0  0  0  0  0  0  0  0  0  0  0
   -0.1402   -8.6220    2.9032 H   0  0  0  0  0  0  0  0  0  0  0  0
    1.8159   -7.1952    2.4339 H   0  0  0  0  0  0  0  0  0  0  0  0
    3.0268   -6.6210    0.6882 H   0  0  0  0  0  0  0  0  0  0  0  0
    5.4199   -7.5517    0.9637 H   0  0  0  0  0  0  0  0  0  0  0  0
    6.6183   -6.4830    0.4416 H   0  0  0  0  0  0  0  0  0  0  0  0
    5.3585   -2.4330    1.3192 H   0  0  0  0  0  0  0  0  0  0  0  0
  1  2  1  0  0  0  0
  1 35  1  0  0  0  0
  1 36  1  0  0  0  0
  1 37  1  0  0  0  0
  2  3  1  0  0  0  0
  2 17  2  0  0  0  0
  3  4  2  0  0  0  0
  3 38  1  0  0  0  0
  4  5  1  0  0  0  0
  4 39  1  0  0  0  0
  5  6  1  0  0  0  0
  5 16  2  0  0  0  0
  6  7  1  0  0  0  0
  6 40  1  0  0  0  0
  7  8  2  0  0  0  0
  7  9  1  0  0  0  0
  9 10  1  0  0  0  0
  9 15  2  0  0  0  0
 10 11  2  0  0  0  0
 10 41  1  0  0  0  0
 11 12  1  0  0  0  0
 11 42  1  0  0  0  0
 12 13  2  0  0  0  0
 12 43  1  0  0  0  0
 13 14  1  0  0  0  0
 13 15  1  0  0  0  0
 15 44  1  0  0  0  0
 16 17  1  0  0  0  0
 16 45  1  0  0  0  0
 17 18  1  0  0  0  0
 18 19  1  0  0  0  0
 18 46  1  0  0  0  0
 19 20  2  0  0  0  0
 19 27  1  0  0  0  0
 20 21  1  0  0  0  0
 21 22  1  0  0  0  0
 21 26  2  0  0  0  0
 22 23  2  0  0  0  0
 22 47  1  0  0  0  0
 23 24  1  0  0  0  0
 23 48  1  0  0  0  0
 24 25  2  0  0  0  0
 24 49  1  0  0  0  0
 25 26  1  0  0  0  0
 25 50  1  0  0  0  0
 26 27  1  0  0  0  0
 27 28  1  0  0  0  0
 28 29  1  0  0  0  0
 28 34  2  0  0  0  0
 29 30  2  0  0  0  0
 29 51  1  0  0  0  0
 30 31  1  0  0  0  0
 30 32  1  0  0  0  0
 31 52  1  0  0  0  0
 31 53  1  0  0  0  0
 32 33  2  0  0  0  0
 33 34  1  0  0  0  0
 33 54  1  0  0  0  0
M  END
$$$$
