CHEMBL1093100
 OpenBabel04072215363D

 38 41  0  0  0  0  0  0  0  0999 V2000
   -8.0114   -3.4256   -2.6597 C   0  0  0  0  0  0  0  0  0  0  0  0
   -6.9343   -2.5386   -2.1097 C   0  0  0  0  0  0  0  0  0  0  0  0
   -7.1315   -1.1608   -1.9799 C   0  0  0  0  0  0  0  0  0  0  0  0
   -6.1318   -0.3446   -1.4375 C   0  0  0  0  0  0  0  0  0  0  0  0
   -4.9182   -0.8910   -1.0114 C   0  0  0  0  0  0  0  0  0  0  0  0
   -3.5991    0.0383   -0.2388 S   0  0  0  0  0  0  0  0  0  0  0  0
   -4.2113    1.6967   -0.1159 C   0  0  0  0  0  0  0  0  0  0  0  0
   -3.8843    2.5937   -1.1513 C   0  0  0  0  0  0  0  0  0  0  0  0
   -4.3367    3.9060   -1.1365 C   0  0  0  0  0  0  0  0  0  0  0  0
   -5.1301    4.3657   -0.0897 C   0  0  0  0  0  0  0  0  0  0  0  0
   -5.4520    3.4692    0.9378 C   0  0  0  0  0  0  0  0  0  0  0  0
   -6.2289    3.6870    2.0483 N   0  0  0  0  0  0  0  0  0  0  0  0
   -6.3300    2.5508    2.7878 C   0  0  0  0  0  0  0  0  0  0  0  0
   -7.0753    2.4578    3.8963 N   0  0  0  0  0  0  0  0  0  0  0  0
   -7.0402    1.2385    4.4324 C   0  0  0  0  0  0  0  0  0  0  0  0
   -7.8271    1.0154    5.5468 N   0  0  0  0  0  0  0  0  0  0  0  0
   -6.2923    0.2134    4.0114 N   0  0  0  0  0  0  0  0  0  0  0  0
   -5.5217    0.3522    2.9093 C   0  0  0  0  0  0  0  0  0  0  0  0
   -4.7516   -0.7494    2.5800 N   0  0  0  0  0  0  0  0  0  0  0  0
   -5.5525    1.5650    2.1999 C   0  0  0  0  0  0  0  0  0  0  0  0
   -5.0076    2.1347    0.9813 C   0  0  0  0  0  0  0  0  0  0  0  0
   -4.7172   -2.2699   -1.1632 C   0  0  0  0  0  0  0  0  0  0  0  0
   -5.7137   -3.0864   -1.7066 C   0  0  0  0  0  0  0  0  0  0  0  0
   -8.9095   -2.8545   -2.9167 H   0  0  0  0  0  0  0  0  0  0  0  0
   -8.2953   -4.1776   -1.9158 H   0  0  0  0  0  0  0  0  0  0  0  0
   -7.6613   -3.9297   -3.5662 H   0  0  0  0  0  0  0  0  0  0  0  0
   -8.0705   -0.7076   -2.2906 H   0  0  0  0  0  0  0  0  0  0  0  0
   -6.3378    0.7179   -1.3515 H   0  0  0  0  0  0  0  0  0  0  0  0
   -3.2723    2.2586   -1.9870 H   0  0  0  0  0  0  0  0  0  0  0  0
   -4.0729    4.5776   -1.9505 H   0  0  0  0  0  0  0  0  0  0  0  0
   -5.4896    5.3910   -0.0802 H   0  0  0  0  0  0  0  0  0  0  0  0
   -6.6929    4.5510    2.2845 H   0  0  0  0  0  0  0  0  0  0  0  0
   -7.9898    1.8841    6.0344 H   0  0  0  0  0  0  0  0  0  0  0  0
   -7.4435    0.2456    6.0771 H   0  0  0  0  0  0  0  0  0  0  0  0
   -5.1211   -1.5976    2.9905 H   0  0  0  0  0  0  0  0  0  0  0  0
   -4.4636   -0.7984    1.6115 H   0  0  0  0  0  0  0  0  0  0  0  0
   -3.7813   -2.7291   -0.8504 H   0  0  0  0  0  0  0  0  0  0  0  0
   -5.5327   -4.1548   -1.8041 H   0  0  0  0  0  0  0  0  0  0  0  0
  1  2  1  0  0  0  0
  1 24  1  0  0  0  0
  1 25  1  0  0  0  0
  1 26  1  0  0  0  0
  2  3  1  0  0  0  0
  2 23  2  0  0  0  0
  3  4  2  0  0  0  0
  3 27  1  0  0  0  0
  4  5  1  0  0  0  0
  4 28  1  0  0  0  0
  5  6  1  0  0  0  0
  5 22  2  0  0  0  0
  6  7  1  0  0  0  0
  7  8  1  0  0  0  0
  7 21  2  0  0  0  0
  8  9  2  0  0  0  0
  8 29  1  0  0  0  0
  9 10  1  0  0  0  0
  9 30  1  0  0  0  0
 10 11  2  0  0  0  0
 10 31  1  0  0  0  0
 11 12  1  0  0  0  0
 11 21  1  0  0  0  0
 12 13  1  0  0  0  0
 12 32  1  0  0  0  0
 13 14  1  0  0  0  0
 13 20  2  0  0  0  0
 14 15  2  0  0  0  0
 15 16  1  0  0  0  0
 15 17  1  0  0  0  0
 16 33  1  0  0  0  0
 16 34  1  0  0  0  0
 17 18  2  0  0  0  0
 18 19  1  0  0  0  0
 18 20  1  0  0  0  0
 19 35  1  0  0  0  0
 19 36  1  0  0  0  0
 20 21  1  0  0  0  0
 22 23  1  0  0  0  0
 22 37  1  0  0  0  0
 23 38  1  0  0  0  0
M  END
$$$$
