CHEMBL429516
 OpenBabel04072215383D

 50 53  0  0  0  0  0  0  0  0999 V2000
    4.0929    1.5145    3.0702 N   0  0  0  0  0  0  0  0  0  0  0  0
    4.6571    1.2864    1.8037 C   0  0  0  0  0  0  0  0  0  0  0  0
    5.4798    0.2304    1.7074 N   0  0  0  0  0  0  0  0  0  0  0  0
    5.9625   -0.0132    0.4844 C   0  0  0  0  0  0  0  0  0  0  0  0
    5.7019    0.6825   -0.6313 N   0  0  0  0  0  0  0  0  0  0  0  0
    4.8639    1.7287   -0.5031 C   0  0  0  0  0  0  0  0  0  0  0  0
    4.2913    2.0929    0.7224 C   0  0  0  0  0  0  0  0  0  0  0  0
    3.4604    3.2263    0.9478 N   0  0  0  0  0  0  0  0  0  0  0  0
    2.5000    3.4769    0.1116 C   0  0  0  0  0  0  0  0  0  0  0  0
    1.6363    4.6719    0.3348 C   0  0  0  0  0  0  0  0  0  0  0  0
    1.0951    5.3485   -0.7533 C   0  0  0  0  0  0  0  0  0  0  0  0
    0.2657    6.4508   -0.5541 C   0  0  0  0  0  0  0  0  0  0  0  0
   -0.0462    6.9055    0.7297 C   0  0  0  0  0  0  0  0  0  0  0  0
   -0.8975    8.0133    0.9571 N   0  0  0  0  0  0  0  0  0  0  0  0
   -1.6304    8.6778   -0.0105 C   0  0  0  0  0  0  0  0  0  0  0  0
   -1.7185    8.3454   -1.1880 O   0  0  0  0  0  0  0  0  0  0  0  0
   -2.2395    9.8234    0.4845 N   0  0  0  0  0  0  0  0  0  0  0  0
   -3.0117   10.6415   -0.3753 C   0  0  0  0  0  0  0  0  0  0  0  0
   -2.7811   12.0169   -0.3784 C   0  0  0  0  0  0  0  0  0  0  0  0
   -3.4683   12.8311   -1.2799 C   0  0  0  0  0  0  0  0  0  0  0  0
   -4.4203   12.2802   -2.1363 C   0  0  0  0  0  0  0  0  0  0  0  0
   -5.0613   13.0993   -2.9794 F   0  0  0  0  0  0  0  0  0  0  0  0
   -4.7032   10.9187   -2.1203 C   0  0  0  0  0  0  0  0  0  0  0  0
   -5.7560   10.3298   -3.0114 C   0  0  0  0  0  0  0  0  0  0  0  0
   -6.4348   11.2298   -3.7741 F   0  0  0  0  0  0  0  0  0  0  0  0
   -5.2525    9.4133   -3.8850 F   0  0  0  0  0  0  0  0  0  0  0  0
   -6.7128    9.6674   -2.2980 F   0  0  0  0  0  0  0  0  0  0  0  0
   -3.9760   10.0983   -1.2386 C   0  0  0  0  0  0  0  0  0  0  0  0
    0.5275    6.2473    1.8239 C   0  0  0  0  0  0  0  0  0  0  0  0
    1.3694    5.1373    1.6285 C   0  0  0  0  0  0  0  0  0  0  0  0
    2.2067    2.5895   -1.0867 C   0  0  0  0  0  0  0  0  0  0  0  0
    3.3022    2.7424   -2.1292 C   0  0  0  0  0  0  0  0  0  0  0  0
    4.6568    2.4227   -1.6922 N   0  0  0  0  0  0  0  0  0  0  0  0
    4.5901    0.9555    3.7528 H   0  0  0  0  0  0  0  0  0  0  0  0
    4.0803    2.5133    3.2556 H   0  0  0  0  0  0  0  0  0  0  0  0
    6.6315   -0.8616    0.3836 H   0  0  0  0  0  0  0  0  0  0  0  0
    1.3084    5.0565   -1.7762 H   0  0  0  0  0  0  0  0  0  0  0  0
   -0.1148    6.9319   -1.4473 H   0  0  0  0  0  0  0  0  0  0  0  0
   -1.0927    8.2533    1.9201 H   0  0  0  0  0  0  0  0  0  0  0  0
   -1.6996   10.3009    1.1920 H   0  0  0  0  0  0  0  0  0  0  0  0
   -2.0241   12.4592    0.2625 H   0  0  0  0  0  0  0  0  0  0  0  0
   -3.2589   13.8955   -1.3323 H   0  0  0  0  0  0  0  0  0  0  0  0
   -4.1708    9.0253   -1.2315 H   0  0  0  0  0  0  0  0  0  0  0  0
    0.3315    6.5774    2.8418 H   0  0  0  0  0  0  0  0  0  0  0  0
    1.8039    4.6320    2.4892 H   0  0  0  0  0  0  0  0  0  0  0  0
    1.2367    2.8338   -1.5312 H   0  0  0  0  0  0  0  0  0  0  0  0
    2.1142    1.5500   -0.7502 H   0  0  0  0  0  0  0  0  0  0  0  0
    3.3169    3.7707   -2.5094 H   0  0  0  0  0  0  0  0  0  0  0  0
    3.0560    2.1023   -2.9853 H   0  0  0  0  0  0  0  0  0  0  0  0
    5.1922    1.9243   -2.4014 H   0  0  0  0  0  0  0  0  0  0  0  0
  1  2  1  0  0  0  0
  1 34  1  0  0  0  0
  1 35  1  0  0  0  0
  2  3  1  0  0  0  0
  2  7  2  0  0  0  0
  3  4  2  0  0  0  0
  4  5  1  0  0  0  0
  4 36  1  0  0  0  0
  5  6  2  0  0  0  0
  6  7  1  0  0  0  0
  6 33  1  0  0  0  0
  7  8  1  0  0  0  0
  8  9  2  0  0  0  0
  9 10  1  0  0  0  0
  9 31  1  0  0  0  0
 10 11  1  0  0  0  0
 10 30  2  0  0  0  0
 11 12  2  0  0  0  0
 11 37  1  0  0  0  0
 12 13  1  0  0  0  0
 12 38  1  0  0  0  0
 13 14  1  0  0  0  0
 13 29  2  0  0  0  0
 14 15  1  0  0  0  0
 14 39  1  0  0  0  0
 15 16  2  0  0  0  0
 15 17  1  0  0  0  0
 17 18  1  0  0  0  0
 17 40  1  0  0  0  0
 18 19  1  0  0  0  0
 18 28  2  0  0  0  0
 19 20  2  0  0  0  0
 19 41  1  0  0  0  0
 20 21  1  0  0  0  0
 20 42  1  0  0  0  0
 21 22  1  0  0  0  0
 21 23  2  0  0  0  0
 23 24  1  0  0  0  0
 23 28  1  0  0  0  0
 24 25  1  0  0  0  0
 24 26  1  0  0  0  0
 24 27  1  0  0  0  0
 28 43  1  0  0  0  0
 29 30  1  0  0  0  0
 29 44  1  0  0  0  0
 30 45  1  0  0  0  0
 31 32  1  0  0  0  0
 31 46  1  0  0  0  0
 31 47  1  0  0  0  0
 32 33  1  0  0  0  0
 32 48  1  0  0  0  0
 32 49  1  0  0  0  0
 33 50  1  0  0  0  0
M  END
$$$$
