CHEMBL3893827
 OpenBabel04072215373D

 58 62  0  0  1  0  0  0  0  0999 V2000
    3.7678   -1.5692   -1.1330 N   0  0  0  0  0  0  0  0  0  0  0  0
    2.5263   -1.5862   -0.5864 C   0  0  0  0  0  0  0  0  0  0  0  0
    1.5245   -1.2958   -1.2180 O   0  0  0  0  0  0  0  0  0  0  0  0
    2.4565   -2.0039    0.8592 C   0  0  0  0  0  0  0  0  0  0  0  0
    2.4140   -0.8682    1.8986 C   0  0  0  0  0  0  0  0  0  0  0  0
    1.1737   -0.2364    2.1340 C   0  0  0  0  0  0  0  0  0  0  0  0
    0.9926    0.6797    3.1689 C   0  0  0  0  0  0  0  0  0  0  0  0
    2.0552    0.9915    4.0040 C   0  0  0  0  0  0  0  0  0  0  0  0
    3.3152    0.4599    3.7445 C   0  0  0  0  0  0  0  0  0  0  0  0
    3.5220   -0.4324    2.6751 C   0  0  0  0  0  0  0  0  0  0  0  0
    4.9561   -0.8461    2.3869 C   0  0  0  0  0  0  0  0  0  0  0  0
    5.6896    0.1710    1.4925 C   0  0  0  0  0  0  0  0  0  0  0  0
    7.1497   -0.0572    1.1374 C   0  0  0  0  0  0  0  0  0  0  0  0
    7.8714    1.1041    1.0259 N   0  0  0  0  0  0  0  0  0  0  0  0
    9.1629    1.0390    0.6497 C   0  0  0  0  0  0  0  0  0  0  0  0
    9.8845    2.2338    0.6141 N   0  0  0  0  0  0  0  0  0  0  0  0
   11.2284    2.3664    0.6451 C   0  0  0  0  0  0  0  0  0  0  0  0
   12.2470    1.4625    0.2662 C   0  0  0  0  0  0  0  0  0  0  0  0
   13.4661    1.9187    0.5634 N   0  0  0  0  0  0  0  0  0  0  0  0
   13.2256    3.1154    1.1410 N   0  0  0  0  0  0  0  0  0  0  0  0
   14.3398    3.8251    1.7479 C   0  0  3  0  0  0  0  0  0  0  0  0
   14.5113    3.4701    3.2203 C   0  0  0  0  0  0  0  0  0  0  0  0
   13.6643    4.5099    3.9286 C   0  0  0  0  0  0  0  0  0  0  0  0
   13.8029    5.7414    3.1416 N   0  0  0  0  0  0  0  0  0  0  0  0
   14.1771    5.3439    1.7681 C   0  0  0  0  0  0  0  0  0  0  0  0
   11.8986    3.4523    1.1454 C   0  0  0  0  0  0  0  0  0  0  0  0
    9.7781   -0.1152    0.3719 N   0  0  0  0  0  0  0  0  0  0  0  0
    9.0587   -1.2398    0.4757 C   0  0  0  0  0  0  0  0  0  0  0  0
    7.7312   -1.2771    0.8427 C   0  0  0  0  0  0  0  0  0  0  0  0
    6.9639   -2.8111    0.8274 Cl  0  0  0  0  0  0  0  0  0  0  0  0
    3.0202   -3.3582    1.3053 C   0  0  0  0  0  0  0  0  0  0  0  0
    1.5489   -3.2219    1.1249 C   0  0  0  0  0  0  0  0  0  0  0  0
    3.8518   -1.2970   -2.1029 H   0  0  0  0  0  0  0  0  0  0  0  0
    4.5977   -1.8251   -0.6154 H   0  0  0  0  0  0  0  0  0  0  0  0
    0.3231   -0.4827    1.4974 H   0  0  0  0  0  0  0  0  0  0  0  0
    0.0169    1.1300    3.3302 H   0  0  0  0  0  0  0  0  0  0  0  0
    1.9101    1.6647    4.8442 H   0  0  0  0  0  0  0  0  0  0  0  0
    4.1468    0.7466    4.3855 H   0  0  0  0  0  0  0  0  0  0  0  0
    4.9334   -1.8268    1.9267 H   0  0  0  0  0  0  0  0  0  0  0  0
    5.4981   -0.9770    3.3321 H   0  0  0  0  0  0  0  0  0  0  0  0
    5.6289    1.1481    1.9909 H   0  0  0  0  0  0  0  0  0  0  0  0
    5.1448    0.2917    0.5472 H   0  0  0  0  0  0  0  0  0  0  0  0
    9.2808    2.9812    0.9323 H   0  0  0  0  0  0  0  0  0  0  0  0
   12.1536    0.4885   -0.1914 H   0  0  0  0  0  0  0  0  0  0  0  0
   15.2331    3.5417    1.1786 H   0  0  0  0  0  0  0  0  0  0  0  0
   15.5635    3.5976    3.5099 H   0  0  0  0  0  0  0  0  0  0  0  0
   14.2103    2.4510    3.4718 H   0  0  0  0  0  0  0  0  0  0  0  0
   13.9825    4.6601    4.9642 H   0  0  0  0  0  0  0  0  0  0  0  0
   12.6120    4.2053    3.9479 H   0  0  0  0  0  0  0  0  0  0  0  0
   14.5516    6.3097    3.5354 H   0  0  0  0  0  0  0  0  0  0  0  0
   15.1358    5.8155    1.5232 H   0  0  0  0  0  0  0  0  0  0  0  0
   13.4452    5.7162    1.0456 H   0  0  0  0  0  0  0  0  0  0  0  0
   11.5463    4.3828    1.5673 H   0  0  0  0  0  0  0  0  0  0  0  0
    9.6097   -2.1447    0.2323 H   0  0  0  0  0  0  0  0  0  0  0  0
    3.3645   -3.4795    2.3280 H   0  0  0  0  0  0  0  0  0  0  0  0
    3.5696   -3.9558    0.5890 H   0  0  0  0  0  0  0  0  0  0  0  0
    0.9233   -3.2303    2.0094 H   0  0  0  0  0  0  0  0  0  0  0  0
    1.1031   -3.7334    0.2766 H   0  0  0  0  0  0  0  0  0  0  0  0
  1  2  1  0  0  0  0
  1 33  1  0  0  0  0
  1 34  1  0  0  0  0
  2  3  2  0  0  0  0
  2  4  1  0  0  0  0
  4  5  1  0  0  0  0
  4 31  1  0  0  0  0
  4 32  1  0  0  0  0
  5  6  1  0  0  0  0
  5 10  2  0  0  0  0
  6  7  2  0  0  0  0
  6 35  1  0  0  0  0
  7  8  1  0  0  0  0
  7 36  1  0  0  0  0
  8  9  2  0  0  0  0
  8 37  1  0  0  0  0
  9 10  1  0  0  0  0
  9 38  1  0  0  0  0
 10 11  1  0  0  0  0
 11 12  1  0  0  0  0
 11 39  1  0  0  0  0
 11 40  1  0  0  0  0
 12 13  1  0  0  0  0
 12 41  1  0  0  0  0
 12 42  1  0  0  0  0
 13 14  1  0  0  0  0
 13 29  2  0  0  0  0
 14 15  2  0  0  0  0
 15 16  1  0  0  0  0
 15 27  1  0  0  0  0
 16 17  1  0  0  0  0
 16 43  1  0  0  0  0
 17 18  1  0  0  0  0
 17 26  2  0  0  0  0
 18 19  2  0  0  0  0
 18 44  1  0  0  0  0
 19 20  1  0  0  0  0
 20 21  1  0  0  0  0
 20 26  1  0  0  0  0
 21 22  1  0  0  0  0
 21 25  1  0  0  0  0
 21 45  1  0  0  0  0
 22 23  1  0  0  0  0
 22 46  1  0  0  0  0
 22 47  1  0  0  0  0
 23 24  1  0  0  0  0
 23 48  1  0  0  0  0
 23 49  1  0  0  0  0
 24 25  1  0  0  0  0
 24 50  1  0  0  0  0
 25 51  1  0  0  0  0
 25 52  1  0  0  0  0
 26 53  1  0  0  0  0
 27 28  2  0  0  0  0
 28 29  1  0  0  0  0
 28 54  1  0  0  0  0
 29 30  1  0  0  0  0
 31 32  1  0  0  0  0
 31 55  1  0  0  0  0
 31 56  1  0  0  0  0
 32 57  1  0  0  0  0
 32 58  1  0  0  0  0
M  END
$$$$
