CHEMBL3966200
 OpenBabel04072215373D

 66 69  0  0  0  0  0  0  0  0999 V2000
    0.2145    3.0916   -2.1865 C   0  0  0  0  0  0  0  0  0  0  0  0
    1.4601    3.0731   -2.8922 O   0  0  0  0  0  0  0  0  0  0  0  0
    2.5364    2.5141   -2.2443 C   0  0  0  0  0  0  0  0  0  0  0  0
    2.4831    1.9938   -0.9523 C   0  0  0  0  0  0  0  0  0  0  0  0
    3.6125    1.4054   -0.3907 C   0  0  0  0  0  0  0  0  0  0  0  0
    3.6707    0.8327    0.8533 O   0  0  0  0  0  0  0  0  0  0  0  0
    2.5049    0.9356    1.6653 C   0  0  0  0  0  0  0  0  0  0  0  0
    4.8034    1.3360   -1.1303 C   0  0  0  0  0  0  0  0  0  0  0  0
    4.9023    1.8330   -2.4403 C   0  0  0  0  0  0  0  0  0  0  0  0
    6.0206    1.5735   -3.2782 N   0  0  0  0  0  0  0  0  0  0  0  0
    6.7044    0.2324   -3.0766 C   0  0  0  0  0  0  0  0  0  0  0  0
    5.8685   -1.0615   -3.0707 C   0  0  0  0  0  0  0  0  0  0  0  0
    5.3491   -1.6059   -4.4139 C   0  0  0  0  0  0  0  0  0  0  0  0
    4.7999   -2.9535   -4.1540 N   0  0  0  0  0  0  0  0  0  0  0  0
    4.1978   -3.5981   -5.3382 C   0  0  0  0  0  0  0  0  0  0  0  0
    3.5364   -4.9749   -5.0606 C   0  0  0  0  0  0  0  0  0  0  0  0
    4.4732   -6.0571   -4.5604 C   0  0  0  0  0  0  0  0  0  0  0  0
    2.5307   -4.8145   -4.1548 F   0  0  0  0  0  0  0  0  0  0  0  0
    2.9424   -5.4164   -6.2044 F   0  0  0  0  0  0  0  0  0  0  0  0
    7.0571    2.4956   -3.7200 C   0  0  0  0  0  0  0  0  0  0  0  0
    7.6140    2.1632   -4.9547 C   0  0  0  0  0  0  0  0  0  0  0  0
    8.9333    2.4604   -5.2175 C   0  0  0  0  0  0  0  0  0  0  0  0
    9.6696    3.2642   -4.3901 C   0  0  0  0  0  0  0  0  0  0  0  0
   10.9710    3.2716   -4.6804 N   0  0  0  0  0  0  0  0  0  0  0  0
   11.7173    4.2187   -4.0787 C   0  0  0  0  0  0  0  0  0  0  0  0
   11.1591    5.1593   -3.2464 C   0  0  0  0  0  0  0  0  0  0  0  0
   11.9752    6.3692   -3.0755 C   0  0  0  0  0  0  0  0  0  0  0  0
   11.9210    7.5942   -3.7938 C   0  0  0  0  0  0  0  0  0  0  0  0
   13.0030    8.3635   -3.6144 N   0  0  0  0  0  0  0  0  0  0  0  0
   13.7759    7.6334   -2.7948 N   0  0  0  0  0  0  0  0  0  0  0  0
   14.9537    8.2127   -2.1891 C   0  0  0  0  0  0  0  0  0  0  0  0
   13.2721    6.3782   -2.5703 C   0  0  0  0  0  0  0  0  0  0  0  0
    9.8438    5.0494   -2.8250 N   0  0  0  0  0  0  0  0  0  0  0  0
    9.0610    4.0029   -3.3477 C   0  0  0  0  0  0  0  0  0  0  0  0
    7.7334    3.5154   -2.9764 C   0  0  0  0  0  0  0  0  0  0  0  0
    3.7468    2.4462   -2.9729 C   0  0  0  0  0  0  0  0  0  0  0  0
   -0.5496    3.5270   -2.8388 H   0  0  0  0  0  0  0  0  0  0  0  0
    0.2781    3.7197   -1.2905 H   0  0  0  0  0  0  0  0  0  0  0  0
   -0.1187    2.0791   -1.9284 H   0  0  0  0  0  0  0  0  0  0  0  0
    1.5603    2.0297   -0.3879 H   0  0  0  0  0  0  0  0  0  0  0  0
    2.7350    0.4987    2.6413 H   0  0  0  0  0  0  0  0  0  0  0  0
    1.6721    0.3684    1.2347 H   0  0  0  0  0  0  0  0  0  0  0  0
    2.2260    1.9824    1.8282 H   0  0  0  0  0  0  0  0  0  0  0  0
    5.6492    0.8373   -0.6677 H   0  0  0  0  0  0  0  0  0  0  0  0
    7.2614    0.2852   -2.1327 H   0  0  0  0  0  0  0  0  0  0  0  0
    7.4723    0.0579   -3.8413 H   0  0  0  0  0  0  0  0  0  0  0  0
    5.0447   -1.0067   -2.3557 H   0  0  0  0  0  0  0  0  0  0  0  0
    6.5525   -1.8303   -2.6785 H   0  0  0  0  0  0  0  0  0  0  0  0
    6.1683   -1.6852   -5.1388 H   0  0  0  0  0  0  0  0  0  0  0  0
    4.5788   -0.9447   -4.8243 H   0  0  0  0  0  0  0  0  0  0  0  0
    4.0783   -2.8832   -3.4322 H   0  0  0  0  0  0  0  0  0  0  0  0
    4.9521   -3.7275   -6.1221 H   0  0  0  0  0  0  0  0  0  0  0  0
    3.4168   -2.9432   -5.7430 H   0  0  0  0  0  0  0  0  0  0  0  0
    4.9086   -5.8003   -3.5910 H   0  0  0  0  0  0  0  0  0  0  0  0
    5.2744   -6.2525   -5.2794 H   0  0  0  0  0  0  0  0  0  0  0  0
    3.9213   -6.9961   -4.4287 H   0  0  0  0  0  0  0  0  0  0  0  0
    7.0852    1.4872   -5.6233 H   0  0  0  0  0  0  0  0  0  0  0  0
    9.4116    2.0105   -6.0768 H   0  0  0  0  0  0  0  0  0  0  0  0
   12.7725    4.1942   -4.3212 H   0  0  0  0  0  0  0  0  0  0  0  0
   11.1646    7.9359   -4.4872 H   0  0  0  0  0  0  0  0  0  0  0  0
   15.0856    9.2428   -2.5329 H   0  0  0  0  0  0  0  0  0  0  0  0
   15.8319    7.6157   -2.4474 H   0  0  0  0  0  0  0  0  0  0  0  0
   14.7958    8.2080   -1.1072 H   0  0  0  0  0  0  0  0  0  0  0  0
   13.8753    5.6230   -2.0833 H   0  0  0  0  0  0  0  0  0  0  0  0
    7.2887    3.9042   -2.0607 H   0  0  0  0  0  0  0  0  0  0  0  0
    3.7555    2.8114   -3.9977 H   0  0  0  0  0  0  0  0  0  0  0  0
  1  2  1  0  0  0  0
  1 37  1  0  0  0  0
  1 38  1  0  0  0  0
  1 39  1  0  0  0  0
  2  3  1  0  0  0  0
  3  4  1  0  0  0  0
  3 36  2  0  0  0  0
  4  5  2  0  0  0  0
  4 40  1  0  0  0  0
  5  6  1  0  0  0  0
  5  8  1  0  0  0  0
  6  7  1  0  0  0  0
  7 41  1  0  0  0  0
  7 42  1  0  0  0  0
  7 43  1  0  0  0  0
  8  9  2  0  0  0  0
  8 44  1  0  0  0  0
  9 10  1  0  0  0  0
  9 36  1  0  0  0  0
 10 11  1  0  0  0  0
 10 20  1  0  0  0  0
 11 12  1  0  0  0  0
 11 45  1  0  0  0  0
 11 46  1  0  0  0  0
 12 13  1  0  0  0  0
 12 47  1  0  0  0  0
 12 48  1  0  0  0  0
 13 14  1  0  0  0  0
 13 49  1  0  0  0  0
 13 50  1  0  0  0  0
 14 15  1  0  0  0  0
 14 51  1  0  0  0  0
 15 16  1  0  0  0  0
 15 52  1  0  0  0  0
 15 53  1  0  0  0  0
 16 17  1  0  0  0  0
 16 18  1  0  0  0  0
 16 19  1  0  0  0  0
 17 54  1  0  0  0  0
 17 55  1  0  0  0  0
 17 56  1  0  0  0  0
 20 21  1  0  0  0  0
 20 35  2  0  0  0  0
 21 22  2  0  0  0  0
 21 57  1  0  0  0  0
 22 23  1  0  0  0  0
 22 58  1  0  0  0  0
 23 24  1  0  0  0  0
 23 34  2  0  0  0  0
 24 25  2  0  0  0  0
 25 26  1  0  0  0  0
 25 59  1  0  0  0  0
 26 27  1  0  0  0  0
 26 33  2  0  0  0  0
 27 28  1  0  0  0  0
 27 32  2  0  0  0  0
 28 29  2  0  0  0  0
 28 60  1  0  0  0  0
 29 30  1  0  0  0  0
 30 31  1  0  0  0  0
 30 32  1  0  0  0  0
 31 61  1  0  0  0  0
 31 62  1  0  0  0  0
 31 63  1  0  0  0  0
 32 64  1  0  0  0  0
 33 34  1  0  0  0  0
 34 35  1  0  0  0  0
 35 65  1  0  0  0  0
 36 66  1  0  0  0  0
M  END
$$$$
