CHEMBL3947700
 OpenBabel04072215373D

 63 67  0  0  1  0  0  0  0  0999 V2000
    2.8688    4.8756    0.9676 C   0  0  0  0  0  0  0  0  0  0  0  0
    3.0222    4.4836   -0.3983 O   0  0  0  0  0  0  0  0  0  0  0  0
    3.3256    3.1600   -0.5818 C   0  0  0  0  0  0  0  0  0  0  0  0
    4.4345    2.8926   -1.3910 C   0  0  0  0  0  0  0  0  0  0  0  0
    4.8534    1.5533   -1.6393 C   0  0  0  0  0  0  0  0  0  0  0  0
    5.9816    1.1415   -2.3686 C   0  0  0  0  0  0  0  0  0  0  0  0
    6.8090    2.1162   -2.9900 N   0  0  0  0  0  0  0  0  0  0  0  0
    7.8925    1.8711   -3.8638 C   0  0  0  0  0  0  0  0  0  0  0  0
    7.9447    0.7520   -4.7060 C   0  0  0  0  0  0  0  0  0  0  0  0
    9.0364    0.5214   -5.5442 C   0  0  0  0  0  0  0  0  0  0  0  0
   10.0796    1.4418   -5.5950 C   0  0  0  0  0  0  0  0  0  0  0  0
   11.4124    1.0890   -6.6330 Cl  0  0  0  0  0  0  0  0  0  0  0  0
   10.0115    2.6029   -4.8200 C   0  0  0  0  0  0  0  0  0  0  0  0
   11.2444    3.8135   -4.8600 Cl  0  0  0  0  0  0  0  0  0  0  0  0
    8.9193    2.8179   -3.9686 C   0  0  0  0  0  0  0  0  0  0  0  0
    6.2999   -0.1610   -2.5145 N   0  0  0  0  0  0  0  0  0  0  0  0
    5.4900   -1.0630   -1.9662 C   0  0  0  0  0  0  0  0  0  0  0  0
    4.3879   -0.7898   -1.2791 N   0  0  0  0  0  0  0  0  0  0  0  0
    4.0957    0.4997   -1.1239 C   0  0  0  0  0  0  0  0  0  0  0  0
    2.9616    0.7821   -0.4028 C   0  0  0  0  0  0  0  0  0  0  0  0
    2.5706    2.0893   -0.1006 C   0  0  0  0  0  0  0  0  0  0  0  0
    1.4124    2.3304    0.5863 O   0  0  0  0  0  0  0  0  0  0  0  0
    1.1294    1.3547    1.5988 C   0  0  0  0  0  0  0  0  0  0  0  0
   -0.0509    1.8075    2.4366 C   0  0  3  0  0  0  0  0  0  0  0  0
   -1.2955    2.0821    1.5734 C   0  0  0  0  0  0  0  0  0  0  0  0
   -2.3916    2.5549    2.4335 N   0  0  0  0  0  0  0  0  0  0  0  0
   -3.6435    1.9366    2.3728 C   0  0  0  0  0  0  0  0  0  0  0  0
   -3.8215    0.9514    1.6570 O   0  0  0  0  0  0  0  0  0  0  0  0
   -4.7102    2.4235    3.2279 C   0  0  0  0  0  0  0  0  0  0  0  0
   -5.6503    1.6219    3.9481 C   0  0  0  0  0  0  0  0  0  0  0  0
   -5.8105    0.1473    4.0041 C   0  0  0  0  0  0  0  0  0  0  0  0
   -6.4741    2.3787    4.6817 N   0  0  0  0  0  0  0  0  0  0  0  0
   -6.1421    3.6808    4.4011 O   0  0  0  0  0  0  0  0  0  0  0  0
   -5.1247    3.7182    3.5009 C   0  0  0  0  0  0  0  0  0  0  0  0
   -4.7538    5.0863    3.0705 C   0  0  0  0  0  0  0  0  0  0  0  0
   -1.9964    3.6445    3.3148 C   0  0  0  0  0  0  0  0  0  0  0  0
   -0.6887    3.3844    4.0521 C   0  0  0  0  0  0  0  0  0  0  0  0
    0.3455    2.9903    3.1586 O   0  0  0  0  0  0  0  0  0  0  0  0
    2.6040    5.9384    0.9787 H   0  0  0  0  0  0  0  0  0  0  0  0
    3.8088    4.7588    1.5178 H   0  0  0  0  0  0  0  0  0  0  0  0
    2.0625    4.3517    1.4813 H   0  0  0  0  0  0  0  0  0  0  0  0
    4.9775    3.7309   -1.8212 H   0  0  0  0  0  0  0  0  0  0  0  0
    7.0138    2.8571   -2.3276 H   0  0  0  0  0  0  0  0  0  0  0  0
    7.1350    0.0268   -4.7159 H   0  0  0  0  0  0  0  0  0  0  0  0
    9.0581   -0.3823   -6.1481 H   0  0  0  0  0  0  0  0  0  0  0  0
    8.8821    3.7272   -3.3738 H   0  0  0  0  0  0  0  0  0  0  0  0
    5.7492   -2.1073   -2.0907 H   0  0  0  0  0  0  0  0  0  0  0  0
    2.3702   -0.0716   -0.0908 H   0  0  0  0  0  0  0  0  0  0  0  0
    2.0087    1.2382    2.2472 H   0  0  0  0  0  0  0  0  0  0  0  0
    0.8575    0.3962    1.1473 H   0  0  0  0  0  0  0  0  0  0  0  0
   -0.2725    1.0210    3.1694 H   0  0  0  0  0  0  0  0  0  0  0  0
   -1.5758    1.1837    1.0112 H   0  0  0  0  0  0  0  0  0  0  0  0
   -1.1036    2.8831    0.8488 H   0  0  0  0  0  0  0  0  0  0  0  0
   -5.1123   -0.3830    3.3535 H   0  0  0  0  0  0  0  0  0  0  0  0
   -6.8248   -0.1313    3.6976 H   0  0  0  0  0  0  0  0  0  0  0  0
   -5.6554   -0.2144    5.0257 H   0  0  0  0  0  0  0  0  0  0  0  0
   -5.5222    5.8066    3.3659 H   0  0  0  0  0  0  0  0  0  0  0  0
   -4.6278    5.1380    1.9865 H   0  0  0  0  0  0  0  0  0  0  0  0
   -3.8352    5.4395    3.5449 H   0  0  0  0  0  0  0  0  0  0  0  0
   -2.7344    3.8159    4.0917 H   0  0  0  0  0  0  0  0  0  0  0  0
   -1.8926    4.5263    2.6761 H   0  0  0  0  0  0  0  0  0  0  0  0
   -0.8252    2.6054    4.8097 H   0  0  0  0  0  0  0  0  0  0  0  0
   -0.3719    4.2992    4.5619 H   0  0  0  0  0  0  0  0  0  0  0  0
  1  2  1  0  0  0  0
  1 39  1  0  0  0  0
  1 40  1  0  0  0  0
  1 41  1  0  0  0  0
  2  3  1  0  0  0  0
  3  4  1  0  0  0  0
  3 21  2  0  0  0  0
  4  5  2  0  0  0  0
  4 42  1  0  0  0  0
  5  6  1  0  0  0  0
  5 19  1  0  0  0  0
  6  7  1  0  0  0  0
  6 16  2  0  0  0  0
  7  8  1  0  0  0  0
  7 43  1  0  0  0  0
  8  9  1  0  0  0  0
  8 15  2  0  0  0  0
  9 10  2  0  0  0  0
  9 44  1  0  0  0  0
 10 11  1  0  0  0  0
 10 45  1  0  0  0  0
 11 12  1  0  0  0  0
 11 13  2  0  0  0  0
 13 14  1  0  0  0  0
 13 15  1  0  0  0  0
 15 46  1  0  0  0  0
 16 17  1  0  0  0  0
 17 18  2  0  0  0  0
 17 47  1  0  0  0  0
 18 19  1  0  0  0  0
 19 20  2  0  0  0  0
 20 21  1  0  0  0  0
 20 48  1  0  0  0  0
 21 22  1  0  0  0  0
 22 23  1  0  0  0  0
 23 24  1  0  0  0  0
 23 49  1  0  0  0  0
 23 50  1  0  0  0  0
 24 25  1  0  0  0  0
 24 38  1  0  0  0  0
 24 51  1  0  0  0  0
 25 26  1  0  0  0  0
 25 52  1  0  0  0  0
 25 53  1  0  0  0  0
 26 27  1  0  0  0  0
 26 36  1  0  0  0  0
 27 28  2  0  0  0  0
 27 29  1  0  0  0  0
 29 30  1  0  0  0  0
 29 34  2  0  0  0  0
 30 31  1  0  0  0  0
 30 32  2  0  0  0  0
 31 54  1  0  0  0  0
 31 55  1  0  0  0  0
 31 56  1  0  0  0  0
 32 33  1  0  0  0  0
 33 34  1  0  0  0  0
 34 35  1  0  0  0  0
 35 57  1  0  0  0  0
 35 58  1  0  0  0  0
 35 59  1  0  0  0  0
 36 37  1  0  0  0  0
 36 60  1  0  0  0  0
 36 61  1  0  0  0  0
 37 38  1  0  0  0  0
 37 62  1  0  0  0  0
 37 63  1  0  0  0  0
M  END
$$$$
