CHEMBL1094475
 OpenBabel04072215363D

 43 46  0  0  0  0  0  0  0  0999 V2000
   -2.3530    0.7289   -3.4370 C   0  0  0  0  0  0  0  0  0  0  0  0
   -1.3255    0.6036   -2.8499 C   0  0  0  0  0  0  0  0  0  0  0  0
   -0.1058    0.4150   -2.1156 C   0  0  0  0  0  0  0  0  0  0  0  0
    0.4610   -0.8588   -2.0457 C   0  0  0  0  0  0  0  0  0  0  0  0
    1.6207   -1.0569   -1.3060 C   0  0  0  0  0  0  0  0  0  0  0  0
    2.2096    0.0190   -0.6438 C   0  0  0  0  0  0  0  0  0  0  0  0
    1.6735    1.3141   -0.7332 C   0  0  0  0  0  0  0  0  0  0  0  0
    2.3038    2.4196   -0.1268 N   0  0  0  0  0  0  0  0  0  0  0  0
    3.6954    2.5425    0.0244 C   0  0  0  0  0  0  0  0  0  0  0  0
    4.5187    1.9506   -0.8756 N   0  0  0  0  0  0  0  0  0  0  0  0
    5.8440    2.0227   -0.7307 C   0  0  0  0  0  0  0  0  0  0  0  0
    6.5665    1.3305   -1.6694 N   0  0  0  0  0  0  0  0  0  0  0  0
    6.4995    2.6717    0.2430 N   0  0  0  0  0  0  0  0  0  0  0  0
    5.6682    3.2771    1.1083 C   0  0  0  0  0  0  0  0  0  0  0  0
    6.0419    4.0312    2.1991 N   0  0  0  0  0  0  0  0  0  0  0  0
    4.9248    4.6617    2.7253 C   0  0  0  0  0  0  0  0  0  0  0  0
    4.9481    5.8023    3.7025 C   0  0  0  0  0  0  0  0  0  0  0  0
    4.9212    7.1988    3.0861 C   0  0  0  0  0  0  0  0  0  0  0  0
    3.6749    7.8110    2.8242 C   0  0  0  0  0  0  0  0  0  0  0  0
    3.5993    9.0715    2.2219 C   0  0  0  0  0  0  0  0  0  0  0  0
    4.7686    9.7517    1.8980 C   0  0  0  0  0  0  0  0  0  0  0  0
    4.6806   11.2793    1.1120 Cl  0  0  0  0  0  0  0  0  0  0  0  0
    6.0087    9.2035    2.2072 C   0  0  0  0  0  0  0  0  0  0  0  0
    6.0844    7.9370    2.7990 C   0  0  0  0  0  0  0  0  0  0  0  0
    7.6606    7.3487    3.1903 Cl  0  0  0  0  0  0  0  0  0  0  0  0
    3.8298    4.0102    2.1849 C   0  0  0  0  0  0  0  0  0  0  0  0
    4.2845    3.2590    1.0713 C   0  0  0  0  0  0  0  0  0  0  0  0
    0.4924    1.4960   -1.4577 C   0  0  0  0  0  0  0  0  0  0  0  0
   -3.2829    0.8298   -3.9601 H   0  0  0  0  0  0  0  0  0  0  0  0
    0.0054   -1.6991   -2.5627 H   0  0  0  0  0  0  0  0  0  0  0  0
    2.0741   -2.0417   -1.2423 H   0  0  0  0  0  0  0  0  0  0  0  0
    3.1153   -0.1679   -0.0707 H   0  0  0  0  0  0  0  0  0  0  0  0
    1.7829    2.8204    0.6424 H   0  0  0  0  0  0  0  0  0  0  0  0
    6.0287    1.0499   -2.4767 H   0  0  0  0  0  0  0  0  0  0  0  0
    7.5493    1.5295   -1.7332 H   0  0  0  0  0  0  0  0  0  0  0  0
    7.0080    4.1614    2.4749 H   0  0  0  0  0  0  0  0  0  0  0  0
    5.7876    5.6906    4.3878 H   0  0  0  0  0  0  0  0  0  0  0  0
    4.0480    5.7271    4.3257 H   0  0  0  0  0  0  0  0  0  0  0  0
    2.7472    7.3082    3.0939 H   0  0  0  0  0  0  0  0  0  0  0  0
    2.6287    9.5096    2.0007 H   0  0  0  0  0  0  0  0  0  0  0  0
    6.9172    9.7568    1.9828 H   0  0  0  0  0  0  0  0  0  0  0  0
    2.8031    4.1745    2.4761 H   0  0  0  0  0  0  0  0  0  0  0  0
    0.0569    2.4872   -1.5488 H   0  0  0  0  0  0  0  0  0  0  0  0
  1  2  3  0  0  0  0
  1 29  1  0  0  0  0
  2  3  1  0  0  0  0
  3  4  1  0  0  0  0
  3 28  2  0  0  0  0
  4  5  2  0  0  0  0
  4 30  1  0  0  0  0
  5  6  1  0  0  0  0
  5 31  1  0  0  0  0
  6  7  2  0  0  0  0
  6 32  1  0  0  0  0
  7  8  1  0  0  0  0
  7 28  1  0  0  0  0
  8  9  1  0  0  0  0
  8 33  1  0  0  0  0
  9 10  1  0  0  0  0
  9 27  2  0  0  0  0
 10 11  2  0  0  0  0
 11 12  1  0  0  0  0
 11 13  1  0  0  0  0
 12 34  1  0  0  0  0
 12 35  1  0  0  0  0
 13 14  2  0  0  0  0
 14 15  1  0  0  0  0
 14 27  1  0  0  0  0
 15 16  1  0  0  0  0
 15 36  1  0  0  0  0
 16 17  1  0  0  0  0
 16 26  2  0  0  0  0
 17 18  1  0  0  0  0
 17 37  1  0  0  0  0
 17 38  1  0  0  0  0
 18 19  1  0  0  0  0
 18 24  2  0  0  0  0
 19 20  2  0  0  0  0
 19 39  1  0  0  0  0
 20 21  1  0  0  0  0
 20 40  1  0  0  0  0
 21 22  1  0  0  0  0
 21 23  2  0  0  0  0
 23 24  1  0  0  0  0
 23 41  1  0  0  0  0
 24 25  1  0  0  0  0
 26 27  1  0  0  0  0
 26 42  1  0  0  0  0
 28 43  1  0  0  0  0
M  END
$$$$
