CHEMBL270057
 OpenBabel04072215363D

 60 64  0  0  0  0  0  0  0  0999 V2000
   10.6033   -1.8600    1.1173 C   0  0  0  0  0  0  0  0  0  0  0  0
    9.7315   -2.6062    1.9741 O   0  0  0  0  0  0  0  0  0  0  0  0
    8.8609   -3.4544    1.3412 C   0  0  0  0  0  0  0  0  0  0  0  0
    9.2086   -4.0752    0.1312 C   0  0  0  0  0  0  0  0  0  0  0  0
    8.3206   -4.8493   -0.5951 C   0  0  0  0  0  0  0  0  0  0  0  0
    8.7313   -5.3263   -1.7811 N   0  0  0  0  0  0  0  0  0  0  0  0
    7.8693   -6.0598   -2.5112 C   0  0  0  0  0  0  0  0  0  0  0  0
    6.5818   -6.3358   -2.1160 C   0  0  0  0  0  0  0  0  0  0  0  0
    6.1387   -5.7931   -0.9062 C   0  0  0  0  0  0  0  0  0  0  0  0
    4.8346   -5.9673   -0.4825 O   0  0  0  0  0  0  0  0  0  0  0  0
    3.8165   -5.9051   -1.4138 C   0  0  0  0  0  0  0  0  0  0  0  0
    2.7221   -6.7337   -1.1928 C   0  0  0  0  0  0  0  0  0  0  0  0
    1.6249   -6.7102   -2.0683 C   0  0  0  0  0  0  0  0  0  0  0  0
    1.5796   -5.8441   -3.1734 C   0  0  0  0  0  0  0  0  0  0  0  0
    2.7093   -5.0296   -3.3909 C   0  0  0  0  0  0  0  0  0  0  0  0
    3.8016   -5.0426   -2.5108 C   0  0  0  0  0  0  0  0  0  0  0  0
    2.8469   -4.1650   -4.4521 O   0  0  0  0  0  0  0  0  0  0  0  0
    1.5948   -3.8118   -5.0362 C   0  0  0  0  0  0  0  0  0  0  0  0
    0.7514   -5.0419   -5.3219 C   0  0  0  0  0  0  0  0  0  0  0  0
    0.4423   -5.7504   -4.0708 N   0  0  0  0  0  0  0  0  0  0  0  0
   -0.8362   -6.1785   -3.6846 C   0  0  0  0  0  0  0  0  0  0  0  0
   -1.0729   -6.6367   -2.5696 O   0  0  0  0  0  0  0  0  0  0  0  0
   -1.8450   -6.0139   -4.6288 N   0  0  0  0  0  0  0  0  0  0  0  0
   -3.2286   -6.2643   -4.4120 C   0  0  0  0  0  0  0  0  0  0  0  0
   -3.7913   -6.4562   -3.1464 C   0  0  0  0  0  0  0  0  0  0  0  0
   -5.1358   -6.8016   -3.0011 C   0  0  0  0  0  0  0  0  0  0  0  0
   -5.9473   -6.9336   -4.1219 C   0  0  0  0  0  0  0  0  0  0  0  0
   -5.4260   -6.6915   -5.3963 C   0  0  0  0  0  0  0  0  0  0  0  0
   -6.2968   -6.8386   -6.6094 C   0  0  0  0  0  0  0  0  0  0  0  0
   -4.0697   -6.3410   -5.5317 C   0  0  0  0  0  0  0  0  0  0  0  0
    7.0321   -5.0707   -0.0822 C   0  0  0  0  0  0  0  0  0  0  0  0
    6.7213   -4.5524    1.1944 C   0  0  0  0  0  0  0  0  0  0  0  0
    7.6160   -3.7418    1.9108 C   0  0  0  0  0  0  0  0  0  0  0  0
    7.0945   -3.3293    3.1060 O   0  0  0  0  0  0  0  0  0  0  0  0
    7.7670   -2.3482    3.8795 C   0  0  0  0  0  0  0  0  0  0  0  0
   10.7495   -0.8661    1.5483 H   0  0  0  0  0  0  0  0  0  0  0  0
   10.2023   -1.7066    0.1046 H   0  0  0  0  0  0  0  0  0  0  0  0
   11.5780   -2.3577    1.0615 H   0  0  0  0  0  0  0  0  0  0  0  0
   10.2000   -3.9442   -0.2933 H   0  0  0  0  0  0  0  0  0  0  0  0
    8.2489   -6.4138   -3.4651 H   0  0  0  0  0  0  0  0  0  0  0  0
    5.9329   -6.9288   -2.7502 H   0  0  0  0  0  0  0  0  0  0  0  0
    2.7100   -7.4061   -0.3379 H   0  0  0  0  0  0  0  0  0  0  0  0
    0.8226   -7.4103   -1.8559 H   0  0  0  0  0  0  0  0  0  0  0  0
    4.6260   -4.3593   -2.6936 H   0  0  0  0  0  0  0  0  0  0  0  0
    1.8094   -3.2849   -5.9723 H   0  0  0  0  0  0  0  0  0  0  0  0
    1.0739   -3.1115   -4.3726 H   0  0  0  0  0  0  0  0  0  0  0  0
    1.2967   -5.7498   -5.9600 H   0  0  0  0  0  0  0  0  0  0  0  0
   -0.1462   -4.7264   -5.8555 H   0  0  0  0  0  0  0  0  0  0  0  0
   -1.5726   -5.9537   -5.5951 H   0  0  0  0  0  0  0  0  0  0  0  0
   -3.2083   -6.3569   -2.2367 H   0  0  0  0  0  0  0  0  0  0  0  0
   -5.5382   -6.9827   -2.0076 H   0  0  0  0  0  0  0  0  0  0  0  0
   -6.9857   -7.2285   -3.9908 H   0  0  0  0  0  0  0  0  0  0  0  0
   -7.3168   -7.1300   -6.3359 H   0  0  0  0  0  0  0  0  0  0  0  0
   -5.8940   -7.6164   -7.2658 H   0  0  0  0  0  0  0  0  0  0  0  0
   -6.3531   -5.8925   -7.1560 H   0  0  0  0  0  0  0  0  0  0  0  0
   -3.6759   -6.1559   -6.5277 H   0  0  0  0  0  0  0  0  0  0  0  0
    5.7505   -4.7698    1.6421 H   0  0  0  0  0  0  0  0  0  0  0  0
    7.0446   -1.9668    4.6103 H   0  0  0  0  0  0  0  0  0  0  0  0
    8.0863   -1.4887    3.2847 H   0  0  0  0  0  0  0  0  0  0  0  0
    8.5963   -2.7917    4.4392 H   0  0  0  0  0  0  0  0  0  0  0  0
  1  2  1  0  0  0  0
  1 36  1  0  0  0  0
  1 37  1  0  0  0  0
  1 38  1  0  0  0  0
  2  3  1  0  0  0  0
  3  4  1  0  0  0  0
  3 33  2  0  0  0  0
  4  5  2  0  0  0  0
  4 39  1  0  0  0  0
  5  6  1  0  0  0  0
  5 31  1  0  0  0  0
  6  7  2  0  0  0  0
  7  8  1  0  0  0  0
  7 40  1  0  0  0  0
  8  9  2  0  0  0  0
  8 41  1  0  0  0  0
  9 10  1  0  0  0  0
  9 31  1  0  0  0  0
 10 11  1  0  0  0  0
 11 12  1  0  0  0  0
 11 16  2  0  0  0  0
 12 13  2  0  0  0  0
 12 42  1  0  0  0  0
 13 14  1  0  0  0  0
 13 43  1  0  0  0  0
 14 15  2  0  0  0  0
 14 20  1  0  0  0  0
 15 16  1  0  0  0  0
 15 17  1  0  0  0  0
 16 44  1  0  0  0  0
 17 18  1  0  0  0  0
 18 19  1  0  0  0  0
 18 45  1  0  0  0  0
 18 46  1  0  0  0  0
 19 20  1  0  0  0  0
 19 47  1  0  0  0  0
 19 48  1  0  0  0  0
 20 21  1  0  0  0  0
 21 22  2  0  0  0  0
 21 23  1  0  0  0  0
 23 24  1  0  0  0  0
 23 49  1  0  0  0  0
 24 25  1  0  0  0  0
 24 30  2  0  0  0  0
 25 26  2  0  0  0  0
 25 50  1  0  0  0  0
 26 27  1  0  0  0  0
 26 51  1  0  0  0  0
 27 28  2  0  0  0  0
 27 52  1  0  0  0  0
 28 29  1  0  0  0  0
 28 30  1  0  0  0  0
 29 53  1  0  0  0  0
 29 54  1  0  0  0  0
 29 55  1  0  0  0  0
 30 56  1  0  0  0  0
 31 32  2  0  0  0  0
 32 33  1  0  0  0  0
 32 57  1  0  0  0  0
 33 34  1  0  0  0  0
 34 35  1  0  0  0  0
 35 58  1  0  0  0  0
 35 59  1  0  0  0  0
 35 60  1  0  0  0  0
M  END
$$$$
