CHEMBL69358
 OpenBabel04072215383D

 63 66  0  0  0  0  0  0  0  0999 V2000
    4.9169   -0.3811   -1.0924 C   0  0  0  0  0  0  0  0  0  0  0  0
    4.5228    0.5502    0.0490 C   0  0  0  0  0  0  0  0  0  0  0  0
    4.9807    1.9426   -0.1043 N   0  0  0  0  0  0  0  0  0  0  0  0
    4.5533    2.5749   -1.3672 C   0  0  0  0  0  0  0  0  0  0  0  0
    3.0508    2.7838   -1.5564 C   0  0  0  0  0  0  0  0  0  0  0  0
    4.5886    2.7744    1.0567 C   0  0  0  0  0  0  0  0  0  0  0  0
    5.1050    2.2868    2.4193 C   0  0  0  0  0  0  0  0  0  0  0  0
    6.5491    2.1836    2.5141 N   0  0  0  0  0  0  0  0  0  0  0  0
    7.0847    1.7800    3.7191 C   0  0  0  0  0  0  0  0  0  0  0  0
    6.3557    1.5580    4.6863 O   0  0  0  0  0  0  0  0  0  0  0  0
    8.5219    1.6325    3.8043 C   0  0  0  0  0  0  0  0  0  0  0  0
    9.2005    1.1641    4.9114 C   0  0  0  0  0  0  0  0  0  0  0  0
   10.5924    1.2438    4.6682 C   0  0  0  0  0  0  0  0  0  0  0  0
   11.6322    0.8614    5.6630 C   0  0  0  0  0  0  0  0  0  0  0  0
   10.7558    1.7516    3.3830 C   0  0  0  0  0  0  0  0  0  0  0  0
   11.9544    2.0498    2.6656 C   0  0  0  0  0  0  0  0  0  0  0  0
   12.1294    2.5538    1.4320 C   0  0  0  0  0  0  0  0  0  0  0  0
   11.1054    2.9345    0.3922 C   0  0  0  0  0  0  0  0  0  0  0  0
    9.8956    2.8166    0.4496 O   0  0  0  0  0  0  0  0  0  0  0  0
   11.8268    3.4497   -0.6609 N   0  0  0  0  0  0  0  0  0  0  0  0
   13.1885    3.4206   -0.4117 C   0  0  0  0  0  0  0  0  0  0  0  0
   14.0872    3.8396   -1.3048 N   0  0  0  0  0  0  0  0  0  0  0  0
   15.3483    3.6713   -0.8997 C   0  0  0  0  0  0  0  0  0  0  0  0
   15.7297    3.1176    0.2671 N   0  0  0  0  0  0  0  0  0  0  0  0
   14.7719    2.6930    1.1267 C   0  0  0  0  0  0  0  0  0  0  0  0
   15.1884    2.0441    2.3077 N   0  0  0  0  0  0  0  0  0  0  0  0
   16.3260    1.2089    2.3870 C   0  0  0  0  0  0  0  0  0  0  0  0
   17.0251    1.0639    3.5924 C   0  0  0  0  0  0  0  0  0  0  0  0
   18.1256    0.2027    3.6742 C   0  0  0  0  0  0  0  0  0  0  0  0
   18.5155   -0.5354    2.5602 C   0  0  0  0  0  0  0  0  0  0  0  0
   19.5754   -1.3507    2.6627 F   0  0  0  0  0  0  0  0  0  0  0  0
   17.8109   -0.4351    1.3686 C   0  0  0  0  0  0  0  0  0  0  0  0
   18.2641   -1.3560   -0.0131 Cl  0  0  0  0  0  0  0  0  0  0  0  0
   16.7146    0.4211    1.2881 C   0  0  0  0  0  0  0  0  0  0  0  0
   13.4428    2.8713    0.8316 C   0  0  0  0  0  0  0  0  0  0  0  0
    9.4865    1.9564    2.8743 N   0  0  0  0  0  0  0  0  0  0  0  0
    4.7533   -1.4212   -0.7903 H   0  0  0  0  0  0  0  0  0  0  0  0
    5.9763   -0.2724   -1.3468 H   0  0  0  0  0  0  0  0  0  0  0  0
    4.3162   -0.2008   -1.9888 H   0  0  0  0  0  0  0  0  0  0  0  0
    4.9858    0.1204    0.9434 H   0  0  0  0  0  0  0  0  0  0  0  0
    3.4380    0.5013    0.2004 H   0  0  0  0  0  0  0  0  0  0  0  0
    4.9411    1.9985   -2.2145 H   0  0  0  0  0  0  0  0  0  0  0  0
    5.0480    3.5510   -1.4552 H   0  0  0  0  0  0  0  0  0  0  0  0
    2.4729    1.8827   -1.3340 H   0  0  0  0  0  0  0  0  0  0  0  0
    2.8423    3.0570   -2.5962 H   0  0  0  0  0  0  0  0  0  0  0  0
    2.6799    3.5975   -0.9247 H   0  0  0  0  0  0  0  0  0  0  0  0
    3.4962    2.8443    1.1260 H   0  0  0  0  0  0  0  0  0  0  0  0
    4.9701    3.7922    0.9054 H   0  0  0  0  0  0  0  0  0  0  0  0
    4.6743    1.3133    2.6804 H   0  0  0  0  0  0  0  0  0  0  0  0
    4.7697    2.9846    3.1968 H   0  0  0  0  0  0  0  0  0  0  0  0
    7.0808    2.1019    1.6565 H   0  0  0  0  0  0  0  0  0  0  0  0
    8.7192    0.8257    5.8232 H   0  0  0  0  0  0  0  0  0  0  0  0
   11.1686    0.5090    6.5924 H   0  0  0  0  0  0  0  0  0  0  0  0
   12.2610    1.7207    5.9131 H   0  0  0  0  0  0  0  0  0  0  0  0
   12.2627    0.0548    5.2791 H   0  0  0  0  0  0  0  0  0  0  0  0
   12.8482    1.8390    3.2457 H   0  0  0  0  0  0  0  0  0  0  0  0
   11.4343    3.7672   -1.5324 H   0  0  0  0  0  0  0  0  0  0  0  0
   16.1383    3.9980   -1.5639 H   0  0  0  0  0  0  0  0  0  0  0  0
   15.0819    2.6653    3.1042 H   0  0  0  0  0  0  0  0  0  0  0  0
   16.7338    1.6272    4.4752 H   0  0  0  0  0  0  0  0  0  0  0  0
   18.6827    0.1005    4.6006 H   0  0  0  0  0  0  0  0  0  0  0  0
   16.1592    0.4771    0.3550 H   0  0  0  0  0  0  0  0  0  0  0  0
    9.2845    2.3326    1.9545 H   0  0  0  0  0  0  0  0  0  0  0  0
  1  2  1  0  0  0  0
  1 37  1  0  0  0  0
  1 38  1  0  0  0  0
  1 39  1  0  0  0  0
  2  3  1  0  0  0  0
  2 40  1  0  0  0  0
  2 41  1  0  0  0  0
  3  4  1  0  0  0  0
  3  6  1  0  0  0  0
  4  5  1  0  0  0  0
  4 42  1  0  0  0  0
  4 43  1  0  0  0  0
  5 44  1  0  0  0  0
  5 45  1  0  0  0  0
  5 46  1  0  0  0  0
  6  7  1  0  0  0  0
  6 47  1  0  0  0  0
  6 48  1  0  0  0  0
  7  8  1  0  0  0  0
  7 49  1  0  0  0  0
  7 50  1  0  0  0  0
  8  9  1  0  0  0  0
  8 51  1  0  0  0  0
  9 10  2  0  0  0  0
  9 11  1  0  0  0  0
 11 12  2  0  0  0  0
 11 36  1  0  0  0  0
 12 13  1  0  0  0  0
 12 52  1  0  0  0  0
 13 14  1  0  0  0  0
 13 15  2  0  0  0  0
 14 53  1  0  0  0  0
 14 54  1  0  0  0  0
 14 55  1  0  0  0  0
 15 16  1  0  0  0  0
 15 36  1  0  0  0  0
 16 17  2  0  0  0  0
 16 56  1  0  0  0  0
 17 18  1  0  0  0  0
 17 35  1  0  0  0  0
 18 19  2  0  0  0  0
 18 20  1  0  0  0  0
 20 21  1  0  0  0  0
 20 57  1  0  0  0  0
 21 22  1  0  0  0  0
 21 35  2  0  0  0  0
 22 23  2  0  0  0  0
 23 24  1  0  0  0  0
 23 58  1  0  0  0  0
 24 25  2  0  0  0  0
 25 26  1  0  0  0  0
 25 35  1  0  0  0  0
 26 27  1  0  0  0  0
 26 59  1  0  0  0  0
 27 28  1  0  0  0  0
 27 34  2  0  0  0  0
 28 29  2  0  0  0  0
 28 60  1  0  0  0  0
 29 30  1  0  0  0  0
 29 61  1  0  0  0  0
 30 31  1  0  0  0  0
 30 32  2  0  0  0  0
 32 33  1  0  0  0  0
 32 34  1  0  0  0  0
 34 62  1  0  0  0  0
 36 63  1  0  0  0  0
M  END
$$$$
