CHEMBL2047252
 OpenBabel04072215363D

 35 38  0  0  0  0  0  0  0  0999 V2000
    1.2618    0.1138   -0.2856 N   0  0  0  0  0  0  0  0  0  0  0  0
    2.6380    0.0910   -0.2155 C   0  0  0  0  0  0  0  0  0  0  0  0
    3.2744    1.2604   -0.1395 N   0  0  0  0  0  0  0  0  0  0  0  0
    4.6088    1.1566   -0.0869 C   0  0  0  0  0  0  0  0  0  0  0  0
    5.3269   -0.0361   -0.0856 C   0  0  0  0  0  0  0  0  0  0  0  0
    4.5767   -1.1831   -0.1475 C   0  0  0  0  0  0  0  0  0  0  0  0
    5.1890   -2.4565   -0.1527 N   0  0  0  0  0  0  0  0  0  0  0  0
    4.6553   -3.6085   -0.7710 C   0  0  0  0  0  0  0  0  0  0  0  0
    4.9641   -4.8856   -0.2813 C   0  0  0  0  0  0  0  0  0  0  0  0
    4.4882   -6.0294   -0.9311 C   0  0  0  0  0  0  0  0  0  0  0  0
    3.7257   -5.9038   -2.0891 C   0  0  0  0  0  0  0  0  0  0  0  0
    3.2895   -7.0150   -2.6988 F   0  0  0  0  0  0  0  0  0  0  0  0
    3.4341   -4.6478   -2.6060 C   0  0  0  0  0  0  0  0  0  0  0  0
    2.5184   -4.4778   -4.0543 Cl  0  0  0  0  0  0  0  0  0  0  0  0
    3.9030   -3.5085   -1.9547 C   0  0  0  0  0  0  0  0  0  0  0  0
    3.2267   -1.1136   -0.1992 N   0  0  0  0  0  0  0  0  0  0  0  0
    6.7464    0.2621   -0.0805 C   0  0  0  0  0  0  0  0  0  0  0  0
    7.8637   -0.5573   -0.1195 C   0  0  0  0  0  0  0  0  0  0  0  0
    9.1318    0.0376   -0.1188 C   0  0  0  0  0  0  0  0  0  0  0  0
    9.2758    1.4346   -0.0897 C   0  0  0  0  0  0  0  0  0  0  0  0
    8.1559    2.2650   -0.0685 C   0  0  0  0  0  0  0  0  0  0  0  0
    6.9062    1.6675   -0.0655 C   0  0  0  0  0  0  0  0  0  0  0  0
    5.5540    2.3485   -0.0694 C   0  0  0  0  0  0  0  0  0  0  0  0
    0.9046    0.9747    0.1013 H   0  0  0  0  0  0  0  0  0  0  0  0
    0.8813   -0.7547    0.0633 H   0  0  0  0  0  0  0  0  0  0  0  0
    5.6219   -2.6303    0.7484 H   0  0  0  0  0  0  0  0  0  0  0  0
    5.5671   -5.0042    0.6154 H   0  0  0  0  0  0  0  0  0  0  0  0
    4.7120   -7.0195   -0.5467 H   0  0  0  0  0  0  0  0  0  0  0  0
    3.6855   -2.5307   -2.3780 H   0  0  0  0  0  0  0  0  0  0  0  0
    7.7793   -1.6376   -0.1674 H   0  0  0  0  0  0  0  0  0  0  0  0
   10.0208   -0.5892   -0.1497 H   0  0  0  0  0  0  0  0  0  0  0  0
   10.2719    1.8724   -0.0934 H   0  0  0  0  0  0  0  0  0  0  0  0
    8.2652    3.3448   -0.0618 H   0  0  0  0  0  0  0  0  0  0  0  0
    5.4209    2.9485   -0.9751 H   0  0  0  0  0  0  0  0  0  0  0  0
    5.4063    2.9411    0.8351 H   0  0  0  0  0  0  0  0  0  0  0  0
  1  2  1  0  0  0  0
  1 24  1  0  0  0  0
  1 25  1  0  0  0  0
  2  3  1  0  0  0  0
  2 16  2  0  0  0  0
  3  4  2  0  0  0  0
  4  5  1  0  0  0  0
  4 23  1  0  0  0  0
  5  6  2  0  0  0  0
  5 17  1  0  0  0  0
  6  7  1  0  0  0  0
  6 16  1  0  0  0  0
  7  8  1  0  0  0  0
  7 26  1  0  0  0  0
  8  9  1  0  0  0  0
  8 15  2  0  0  0  0
  9 10  2  0  0  0  0
  9 27  1  0  0  0  0
 10 11  1  0  0  0  0
 10 28  1  0  0  0  0
 11 12  1  0  0  0  0
 11 13  2  0  0  0  0
 13 14  1  0  0  0  0
 13 15  1  0  0  0  0
 15 29  1  0  0  0  0
 17 18  1  0  0  0  0
 17 22  2  0  0  0  0
 18 19  2  0  0  0  0
 18 30  1  0  0  0  0
 19 20  1  0  0  0  0
 19 31  1  0  0  0  0
 20 21  2  0  0  0  0
 20 32  1  0  0  0  0
 21 22  1  0  0  0  0
 21 33  1  0  0  0  0
 22 23  1  0  0  0  0
 23 34  1  0  0  0  0
 23 35  1  0  0  0  0
M  END
$$$$
