CHEMBL4276790
 OpenBabel04072215383D

 76 81  0  0  0  0  0  0  0  0999 V2000
    1.0846   -0.1226    0.0229 C   0  0  0  0  0  0  0  0  0  0  0  0
    2.5703   -0.0461   -0.0023 C   0  0  0  0  0  0  0  0  0  0  0  0
    3.3917    1.1226    0.0148 C   0  0  0  0  0  0  0  0  0  0  0  0
    2.9536    2.4095    0.0579 O   0  0  0  0  0  0  0  0  0  0  0  0
    4.0362    3.3441    0.0641 C   0  0  0  0  0  0  0  0  0  0  0  0
    3.5256    4.7713    0.0271 C   0  0  0  0  0  0  0  0  0  0  0  0
    4.7278    5.7210    0.0201 C   0  0  0  0  0  0  0  0  0  0  0  0
    4.4274    7.1464   -0.0399 N   0  0  0  0  0  0  0  0  0  0  0  0
    3.6026    7.5207   -1.2025 C   0  0  0  0  0  0  0  0  0  0  0  0
    3.4579    9.0462   -1.2683 C   0  0  0  0  0  0  0  0  0  0  0  0
    2.8578    9.5599   -0.0691 O   0  0  0  0  0  0  0  0  0  0  0  0
    3.6351    9.1880    1.0797 C   0  0  0  0  0  0  0  0  0  0  0  0
    3.7889    7.6625    1.1827 C   0  0  0  0  0  0  0  0  0  0  0  0
    4.7045    0.7241   -0.0145 C   0  0  0  0  0  0  0  0  0  0  0  0
    4.7334   -0.6276   -0.0792 N   0  0  0  0  0  0  0  0  0  0  0  0
    5.8519   -1.3648   -0.1471 N   0  0  0  0  0  0  0  0  0  0  0  0
    5.6404   -2.6417   -0.1945 C   0  0  0  0  0  0  0  0  0  0  0  0
    4.4240   -3.2699   -0.1617 N   0  0  0  0  0  0  0  0  0  0  0  0
    3.3751   -2.5229   -0.0464 C   0  0  0  0  0  0  0  0  0  0  0  0
    2.0989   -2.9969    0.1829 O   0  0  0  0  0  0  0  0  0  0  0  0
    2.0714   -4.2163    0.8725 C   0  0  0  0  0  0  0  0  0  0  0  0
    2.9272   -4.4569    1.9496 C   0  0  0  0  0  0  0  0  0  0  0  0
    2.8838   -5.6775    2.6056 C   0  0  0  0  0  0  0  0  0  0  0  0
    1.9345   -6.6352    2.2506 C   0  0  0  0  0  0  0  0  0  0  0  0
    1.7940   -7.8339    2.9654 N   0  0  0  0  0  0  0  0  0  0  0  0
    2.2624   -8.0535    4.2476 C   0  0  0  0  0  0  0  0  0  0  0  0
    2.8664   -7.2742    4.9698 O   0  0  0  0  0  0  0  0  0  0  0  0
    1.9769   -9.4188    4.7741 C   0  0  0  0  0  0  0  0  0  0  0  0
    3.0772  -10.3709    4.4947 C   0  0  0  0  0  0  0  0  0  0  0  0
    3.1090  -10.8839    3.3867 O   0  0  0  0  0  0  0  0  0  0  0  0
    4.0164  -10.5642    5.4927 N   0  0  0  0  0  0  0  0  0  0  0  0
    5.2397  -11.2063    5.2148 C   0  0  0  0  0  0  0  0  0  0  0  0
    5.9121  -10.9658    4.0074 C   0  0  0  0  0  0  0  0  0  0  0  0
    7.0469  -11.6982    3.6702 C   0  0  0  0  0  0  0  0  0  0  0  0
    7.5057  -12.6703    4.5455 C   0  0  0  0  0  0  0  0  0  0  0  0
    8.5509  -13.4312    4.1958 F   0  0  0  0  0  0  0  0  0  0  0  0
    6.8896  -12.8719    5.7785 C   0  0  0  0  0  0  0  0  0  0  0  0
    5.7690  -12.1114    6.1341 C   0  0  0  0  0  0  0  0  0  0  0  0
    0.5526   -9.9760    4.6646 C   0  0  0  0  0  0  0  0  0  0  0  0
    1.0689   -9.5153    5.9901 C   0  0  0  0  0  0  0  0  0  0  0  0
    1.0732   -6.3931    1.1745 C   0  0  0  0  0  0  0  0  0  0  0  0
    1.1350   -5.1739    0.5027 C   0  0  0  0  0  0  0  0  0  0  0  0
    0.2656   -4.9268   -0.4872 F   0  0  0  0  0  0  0  0  0  0  0  0
    3.4626   -1.1109   -0.0489 C   0  0  0  0  0  0  0  0  0  0  0  0
    0.6226    0.8694    0.0155 H   0  0  0  0  0  0  0  0  0  0  0  0
    0.7411   -0.6464    0.9213 H   0  0  0  0  0  0  0  0  0  0  0  0
    0.7168   -0.6693   -0.8522 H   0  0  0  0  0  0  0  0  0  0  0  0
    4.6646    3.1905   -0.8250 H   0  0  0  0  0  0  0  0  0  0  0  0
    4.6363    3.2076    0.9730 H   0  0  0  0  0  0  0  0  0  0  0  0
    2.8750    4.9508    0.8897 H   0  0  0  0  0  0  0  0  0  0  0  0
    2.9088    4.8976   -0.8691 H   0  0  0  0  0  0  0  0  0  0  0  0
    5.3728    5.4788   -0.8356 H   0  0  0  0  0  0  0  0  0  0  0  0
    5.3528    5.5301    0.9030 H   0  0  0  0  0  0  0  0  0  0  0  0
    2.6006    7.0813   -1.1197 H   0  0  0  0  0  0  0  0  0  0  0  0
    4.0599    7.1575   -2.1296 H   0  0  0  0  0  0  0  0  0  0  0  0
    2.8093    9.3178   -2.1068 H   0  0  0  0  0  0  0  0  0  0  0  0
    4.4302    9.5284   -1.4252 H   0  0  0  0  0  0  0  0  0  0  0  0
    3.1186    9.5678    1.9664 H   0  0  0  0  0  0  0  0  0  0  0  0
    4.6146    9.6787    1.0268 H   0  0  0  0  0  0  0  0  0  0  0  0
    2.7984    7.2113    1.3196 H   0  0  0  0  0  0  0  0  0  0  0  0
    4.3961    7.4224    2.0629 H   0  0  0  0  0  0  0  0  0  0  0  0
    5.6386    1.2675   -0.0051 H   0  0  0  0  0  0  0  0  0  0  0  0
    6.5204   -3.3057   -0.2340 H   0  0  0  0  0  0  0  0  0  0  0  0
    3.6552   -3.7215    2.2797 H   0  0  0  0  0  0  0  0  0  0  0  0
    3.6194   -5.8568    3.3843 H   0  0  0  0  0  0  0  0  0  0  0  0
    1.2333   -8.5639    2.5441 H   0  0  0  0  0  0  0  0  0  0  0  0
    3.7317  -10.4313    6.4508 H   0  0  0  0  0  0  0  0  0  0  0  0
    5.5550  -10.2073    3.3140 H   0  0  0  0  0  0  0  0  0  0  0  0
    7.5528  -11.5309    2.7242 H   0  0  0  0  0  0  0  0  0  0  0  0
    7.2682  -13.6450    6.4398 H   0  0  0  0  0  0  0  0  0  0  0  0
    5.2782  -12.3024    7.0831 H   0  0  0  0  0  0  0  0  0  0  0  0
    0.4361  -11.0434    4.5059 H   0  0  0  0  0  0  0  0  0  0  0  0
   -0.2086   -9.3799    4.1738 H   0  0  0  0  0  0  0  0  0  0  0  0
    1.2633  -10.2622    6.7467 H   0  0  0  0  0  0  0  0  0  0  0  0
    0.6568   -8.5892    6.3834 H   0  0  0  0  0  0  0  0  0  0  0  0
    0.3217   -7.1150    0.8726 H   0  0  0  0  0  0  0  0  0  0  0  0
  1  2  1  0  0  0  0
  1 45  1  0  0  0  0
  1 46  1  0  0  0  0
  1 47  1  0  0  0  0
  2  3  1  0  0  0  0
  2 44  2  0  0  0  0
  3  4  1  0  0  0  0
  3 14  2  0  0  0  0
  4  5  1  0  0  0  0
  5  6  1  0  0  0  0
  5 48  1  0  0  0  0
  5 49  1  0  0  0  0
  6  7  1  0  0  0  0
  6 50  1  0  0  0  0
  6 51  1  0  0  0  0
  7  8  1  0  0  0  0
  7 52  1  0  0  0  0
  7 53  1  0  0  0  0
  8  9  1  0  0  0  0
  8 13  1  0  0  0  0
  9 10  1  0  0  0  0
  9 54  1  0  0  0  0
  9 55  1  0  0  0  0
 10 11  1  0  0  0  0
 10 56  1  0  0  0  0
 10 57  1  0  0  0  0
 11 12  1  0  0  0  0
 12 13  1  0  0  0  0
 12 58  1  0  0  0  0
 12 59  1  0  0  0  0
 13 60  1  0  0  0  0
 13 61  1  0  0  0  0
 14 15  1  0  0  0  0
 14 62  1  0  0  0  0
 15 16  1  0  0  0  0
 15 44  1  0  0  0  0
 16 17  2  0  0  0  0
 17 18  1  0  0  0  0
 17 63  1  0  0  0  0
 18 19  2  0  0  0  0
 19 20  1  0  0  0  0
 19 44  1  0  0  0  0
 20 21  1  0  0  0  0
 21 22  1  0  0  0  0
 21 42  2  0  0  0  0
 22 23  2  0  0  0  0
 22 64  1  0  0  0  0
 23 24  1  0  0  0  0
 23 65  1  0  0  0  0
 24 25  1  0  0  0  0
 24 41  2  0  0  0  0
 25 26  1  0  0  0  0
 25 66  1  0  0  0  0
 26 27  2  0  0  0  0
 26 28  1  0  0  0  0
 28 29  1  0  0  0  0
 28 39  1  0  0  0  0
 28 40  1  0  0  0  0
 29 30  2  0  0  0  0
 29 31  1  0  0  0  0
 31 32  1  0  0  0  0
 31 67  1  0  0  0  0
 32 33  1  0  0  0  0
 32 38  2  0  0  0  0
 33 34  2  0  0  0  0
 33 68  1  0  0  0  0
 34 35  1  0  0  0  0
 34 69  1  0  0  0  0
 35 36  1  0  0  0  0
 35 37  2  0  0  0  0
 37 38  1  0  0  0  0
 37 70  1  0  0  0  0
 38 71  1  0  0  0  0
 39 40  1  0  0  0  0
 39 72  1  0  0  0  0
 39 73  1  0  0  0  0
 40 74  1  0  0  0  0
 40 75  1  0  0  0  0
 41 42  1  0  0  0  0
 41 76  1  0  0  0  0
 42 43  1  0  0  0  0
M  END
$$$$
