CHEMBL4780565
 OpenBabel04072215383D

 53 57  0  0  0  0  0  0  0  0999 V2000
   -2.4120   -3.7683    1.7214 C   0  0  0  0  0  0  0  0  0  0  0  0
   -2.0579   -2.3792    2.1804 C   0  0  0  0  0  0  0  0  0  0  0  0
   -0.9115   -2.2499    2.9999 C   0  0  0  0  0  0  0  0  0  0  0  0
   -0.5112   -1.0089    3.4872 C   0  0  0  0  0  0  0  0  0  0  0  0
    0.8677   -0.8806    4.5062 Cl  0  0  0  0  0  0  0  0  0  0  0  0
   -1.2256    0.1255    3.1502 C   0  0  0  0  0  0  0  0  0  0  0  0
   -2.3499    0.0131    2.3280 C   0  0  0  0  0  0  0  0  0  0  0  0
   -2.8021   -1.2226    1.8380 C   0  0  0  0  0  0  0  0  0  0  0  0
   -3.9770   -1.3189    1.0330 N   0  0  0  0  0  0  0  0  0  0  0  0
   -4.9035   -0.2987    0.8164 C   0  0  0  0  0  0  0  0  0  0  0  0
   -4.8114    0.8376    1.2711 O   0  0  0  0  0  0  0  0  0  0  0  0
   -6.0138   -0.7268    0.1009 N   0  0  0  0  0  0  0  0  0  0  0  0
   -7.0353    0.2337   -0.0429 C   0  0  0  0  0  0  0  0  0  0  0  0
   -8.1130    0.0600    0.7425 N   0  0  0  0  0  0  0  0  0  0  0  0
   -8.9637    1.1004    0.8283 C   0  0  0  0  0  0  0  0  0  0  0  0
  -10.0501    1.0978    1.7458 N   0  0  0  0  0  0  0  0  0  0  0  0
  -10.4800   -0.1388    2.3977 C   0  0  0  0  0  0  0  0  0  0  0  0
  -11.7667   -0.7780    1.9524 C   0  0  0  0  0  0  0  0  0  0  0  0
  -11.6859   -0.1345    3.3033 C   0  0  0  0  0  0  0  0  0  0  0  0
   -8.8143    2.2337    0.0555 C   0  0  0  0  0  0  0  0  0  0  0  0
   -7.7350    2.2677   -0.7987 C   0  0  0  0  0  0  0  0  0  0  0  0
   -7.5564    3.6760   -1.8940 S   0  0  0  0  0  0  0  0  0  0  0  0
   -6.0023    4.3753   -1.4858 C   0  0  0  0  0  0  0  0  0  0  0  0
   -5.1262    3.9323   -0.5190 C   0  0  0  0  0  0  0  0  0  0  0  0
   -4.0151    4.7248   -0.5537 N   0  0  0  0  0  0  0  0  0  0  0  0
   -4.1601    5.7059   -1.5062 C   0  0  0  0  0  0  0  0  0  0  0  0
   -3.2750    6.7267   -1.8732 C   0  0  0  0  0  0  0  0  0  0  0  0
   -3.6795    7.6043   -2.8792 C   0  0  0  0  0  0  0  0  0  0  0  0
   -4.9234    7.4654   -3.4894 C   0  0  0  0  0  0  0  0  0  0  0  0
   -5.7958    6.4321   -3.1140 C   0  0  0  0  0  0  0  0  0  0  0  0
   -5.4114    5.5216   -2.1035 C   0  0  0  0  0  0  0  0  0  0  0  0
   -6.8315    1.2754   -0.8583 N   0  0  0  0  0  0  0  0  0  0  0  0
   -1.8759   -4.5256    2.3083 H   0  0  0  0  0  0  0  0  0  0  0  0
   -2.1351   -3.9047    0.6718 H   0  0  0  0  0  0  0  0  0  0  0  0
   -3.4774   -3.9690    1.8579 H   0  0  0  0  0  0  0  0  0  0  0  0
   -0.3313   -3.1296    3.2720 H   0  0  0  0  0  0  0  0  0  0  0  0
   -0.9262    1.1046    3.5136 H   0  0  0  0  0  0  0  0  0  0  0  0
   -2.8444    0.9463    2.0777 H   0  0  0  0  0  0  0  0  0  0  0  0
   -4.1581   -2.2017    0.5780 H   0  0  0  0  0  0  0  0  0  0  0  0
   -6.3948   -1.5728    0.4922 H   0  0  0  0  0  0  0  0  0  0  0  0
   -9.9571    1.9022    2.3632 H   0  0  0  0  0  0  0  0  0  0  0  0
   -9.6624   -0.7816    2.7147 H   0  0  0  0  0  0  0  0  0  0  0  0
  -11.8030   -1.8579    1.8964 H   0  0  0  0  0  0  0  0  0  0  0  0
  -12.3459   -0.2707    1.1887 H   0  0  0  0  0  0  0  0  0  0  0  0
  -11.6876   -0.7902    4.1665 H   0  0  0  0  0  0  0  0  0  0  0  0
  -12.2210    0.7956    3.4547 H   0  0  0  0  0  0  0  0  0  0  0  0
   -9.5275    3.0460    0.1099 H   0  0  0  0  0  0  0  0  0  0  0  0
   -5.1741    3.1077    0.1782 H   0  0  0  0  0  0  0  0  0  0  0  0
   -3.2034    4.6070    0.0350 H   0  0  0  0  0  0  0  0  0  0  0  0
   -2.3063    6.8337   -1.3970 H   0  0  0  0  0  0  0  0  0  0  0  0
   -3.0123    8.4062   -3.1877 H   0  0  0  0  0  0  0  0  0  0  0  0
   -5.2200    8.1635   -4.2682 H   0  0  0  0  0  0  0  0  0  0  0  0
   -6.7613    6.3386   -3.6027 H   0  0  0  0  0  0  0  0  0  0  0  0
  1  2  1  0  0  0  0
  1 33  1  0  0  0  0
  1 34  1  0  0  0  0
  1 35  1  0  0  0  0
  2  3  1  0  0  0  0
  2  8  2  0  0  0  0
  3  4  2  0  0  0  0
  3 36  1  0  0  0  0
  4  5  1  0  0  0  0
  4  6  1  0  0  0  0
  6  7  2  0  0  0  0
  6 37  1  0  0  0  0
  7  8  1  0  0  0  0
  7 38  1  0  0  0  0
  8  9  1  0  0  0  0
  9 10  1  0  0  0  0
  9 39  1  0  0  0  0
 10 11  2  0  0  0  0
 10 12  1  0  0  0  0
 12 13  1  0  0  0  0
 12 40  1  0  0  0  0
 13 14  1  0  0  0  0
 13 32  2  0  0  0  0
 14 15  2  0  0  0  0
 15 16  1  0  0  0  0
 15 20  1  0  0  0  0
 16 17  1  0  0  0  0
 16 41  1  0  0  0  0
 17 18  1  0  0  0  0
 17 19  1  0  0  0  0
 17 42  1  0  0  0  0
 18 19  1  0  0  0  0
 18 43  1  0  0  0  0
 18 44  1  0  0  0  0
 19 45  1  0  0  0  0
 19 46  1  0  0  0  0
 20 21  2  0  0  0  0
 20 47  1  0  0  0  0
 21 22  1  0  0  0  0
 21 32  1  0  0  0  0
 22 23  1  0  0  0  0
 23 24  2  0  0  0  0
 23 31  1  0  0  0  0
 24 25  1  0  0  0  0
 24 48  1  0  0  0  0
 25 26  1  0  0  0  0
 25 49  1  0  0  0  0
 26 27  1  0  0  0  0
 26 31  2  0  0  0  0
 27 28  2  0  0  0  0
 27 50  1  0  0  0  0
 28 29  1  0  0  0  0
 28 51  1  0  0  0  0
 29 30  2  0  0  0  0
 29 52  1  0  0  0  0
 30 31  1  0  0  0  0
 30 53  1  0  0  0  0
M  END
$$$$
