CHEMBL3944753
 OpenBabel04072215373D

 62 66  0  0  0  0  0  0  0  0999 V2000
    2.9777    2.7540   -3.3306 C   0  0  0  0  0  0  0  0  0  0  0  0
    1.5293    2.3622   -3.2031 C   0  0  0  0  0  0  0  0  0  0  0  0
    0.9987    1.4761   -4.1423 C   0  0  0  0  0  0  0  0  0  0  0  0
   -0.3363    1.0915   -4.0382 C   0  0  0  0  0  0  0  0  0  0  0  0
   -1.1314    1.5746   -3.0140 C   0  0  0  0  0  0  0  0  0  0  0  0
   -2.3528    1.0369   -2.9443 F   0  0  0  0  0  0  0  0  0  0  0  0
   -0.6520    2.4963   -2.0645 C   0  0  0  0  0  0  0  0  0  0  0  0
   -1.4405    3.0631   -1.0050 N   0  0  0  0  0  0  0  0  0  0  0  0
   -2.8293    3.0969   -0.9799 C   0  0  0  0  0  0  0  0  0  0  0  0
   -3.5550    2.6777   -1.8702 O   0  0  0  0  0  0  0  0  0  0  0  0
   -3.3636    3.7453    0.1406 N   0  0  0  0  0  0  0  0  0  0  0  0
   -4.7867    3.8389    0.2287 C   0  0  0  0  0  0  0  0  0  0  0  0
   -5.5490    2.6714    0.2027 C   0  0  0  0  0  0  0  0  0  0  0  0
   -6.9411    2.7279    0.1879 C   0  0  0  0  0  0  0  0  0  0  0  0
   -7.6017    3.9588    0.2763 C   0  0  0  0  0  0  0  0  0  0  0  0
   -8.9754    4.0871    0.3435 O   0  0  0  0  0  0  0  0  0  0  0  0
   -9.7019    3.1023    0.9981 C   0  0  0  0  0  0  0  0  0  0  0  0
   -9.1765    2.3592    2.0541 C   0  0  0  0  0  0  0  0  0  0  0  0
   -9.9200    1.3298    2.5889 C   0  0  0  0  0  0  0  0  0  0  0  0
  -11.1697    1.0115    2.2252 N   0  0  0  0  0  0  0  0  0  0  0  0
  -11.7261    1.7937    1.2573 C   0  0  0  0  0  0  0  0  0  0  0  0
  -13.0506    1.6514    0.7549 C   0  0  0  0  0  0  0  0  0  0  0  0
  -13.3591    2.5858   -0.2167 C   0  0  0  0  0  0  0  0  0  0  0  0
  -14.6256    2.7301   -0.9243 C   0  0  0  0  0  0  0  0  0  0  0  0
  -15.5965    2.0102   -0.7123 O   0  0  0  0  0  0  0  0  0  0  0  0
  -14.6680    3.7460   -1.8604 N   0  0  0  0  0  0  0  0  0  0  0  0
  -15.8540    4.0537   -2.6296 C   0  0  0  0  0  0  0  0  0  0  0  0
  -16.7641    5.0600   -1.9281 C   0  0  0  0  0  0  0  0  0  0  0  0
  -16.0424    6.3876   -1.6841 C   0  0  0  0  0  0  0  0  0  0  0  0
  -16.8856    7.3949   -1.0032 C   0  0  0  0  0  0  0  0  0  0  0  0
  -17.6687    8.2886   -1.6815 N   0  0  0  0  0  0  0  0  0  0  0  0
  -18.2264    9.0661   -0.7634 N   0  0  0  0  0  0  0  0  0  0  0  0
  -17.7516    8.6106    0.4035 N   0  0  0  0  0  0  0  0  0  0  0  0
  -16.9071    7.5693    0.3264 N   0  0  0  0  0  0  0  0  0  0  0  0
  -12.0255    3.6094   -0.5312 S   0  0  0  0  0  0  0  0  0  0  0  0
  -11.0328    2.8344    0.6353 C   0  0  0  0  0  0  0  0  0  0  0  0
   -6.8480    5.1314    0.2832 C   0  0  0  0  0  0  0  0  0  0  0  0
   -5.4409    5.0777    0.2763 C   0  0  0  0  0  0  0  0  0  0  0  0
    0.7070    2.8688   -2.1685 C   0  0  0  0  0  0  0  0  0  0  0  0
    3.4487    2.2499   -4.1860 H   0  0  0  0  0  0  0  0  0  0  0  0
    3.5355    2.4604   -2.4369 H   0  0  0  0  0  0  0  0  0  0  0  0
    3.0748    3.8305   -3.4961 H   0  0  0  0  0  0  0  0  0  0  0  0
    1.6073    1.0663   -4.9369 H   0  0  0  0  0  0  0  0  0  0  0  0
   -0.7500    0.3683   -4.7417 H   0  0  0  0  0  0  0  0  0  0  0  0
   -0.9479    3.5330   -0.2632 H   0  0  0  0  0  0  0  0  0  0  0  0
   -2.8414    4.5414    0.4702 H   0  0  0  0  0  0  0  0  0  0  0  0
   -5.0685    1.6981    0.1743 H   0  0  0  0  0  0  0  0  0  0  0  0
   -7.4882    1.7910    0.1431 H   0  0  0  0  0  0  0  0  0  0  0  0
   -8.1747    2.5348    2.4258 H   0  0  0  0  0  0  0  0  0  0  0  0
   -9.4803    0.6935    3.3543 H   0  0  0  0  0  0  0  0  0  0  0  0
  -13.7499    0.8961    1.1000 H   0  0  0  0  0  0  0  0  0  0  0  0
  -13.8371    4.3108   -1.9790 H   0  0  0  0  0  0  0  0  0  0  0  0
  -16.4025    3.1220   -2.8201 H   0  0  0  0  0  0  0  0  0  0  0  0
  -15.5180    4.4478   -3.5971 H   0  0  0  0  0  0  0  0  0  0  0  0
  -17.1160    4.6449   -0.9753 H   0  0  0  0  0  0  0  0  0  0  0  0
  -17.6553    5.2294   -2.5456 H   0  0  0  0  0  0  0  0  0  0  0  0
  -15.7015    6.7998   -2.6415 H   0  0  0  0  0  0  0  0  0  0  0  0
  -15.1423    6.2158   -1.0820 H   0  0  0  0  0  0  0  0  0  0  0  0
  -18.0094    9.0365    1.2892 H   0  0  0  0  0  0  0  0  0  0  0  0
   -7.3558    6.0949    0.2836 H   0  0  0  0  0  0  0  0  0  0  0  0
   -4.8829    6.0062    0.2276 H   0  0  0  0  0  0  0  0  0  0  0  0
    1.1357    3.5775   -1.4633 H   0  0  0  0  0  0  0  0  0  0  0  0
  1  2  1  0  0  0  0
  1 40  1  0  0  0  0
  1 41  1  0  0  0  0
  1 42  1  0  0  0  0
  2  3  1  0  0  0  0
  2 39  2  0  0  0  0
  3  4  2  0  0  0  0
  3 43  1  0  0  0  0
  4  5  1  0  0  0  0
  4 44  1  0  0  0  0
  5  6  1  0  0  0  0
  5  7  2  0  0  0  0
  7  8  1  0  0  0  0
  7 39  1  0  0  0  0
  8  9  1  0  0  0  0
  8 45  1  0  0  0  0
  9 10  2  0  0  0  0
  9 11  1  0  0  0  0
 11 12  1  0  0  0  0
 11 46  1  0  0  0  0
 12 13  1  0  0  0  0
 12 38  2  0  0  0  0
 13 14  2  0  0  0  0
 13 47  1  0  0  0  0
 14 15  1  0  0  0  0
 14 48  1  0  0  0  0
 15 16  1  0  0  0  0
 15 37  2  0  0  0  0
 16 17  1  0  0  0  0
 17 18  1  0  0  0  0
 17 36  2  0  0  0  0
 18 19  2  0  0  0  0
 18 49  1  0  0  0  0
 19 20  1  0  0  0  0
 19 50  1  0  0  0  0
 20 21  2  0  0  0  0
 21 22  1  0  0  0  0
 21 36  1  0  0  0  0
 22 23  2  0  0  0  0
 22 51  1  0  0  0  0
 23 24  1  0  0  0  0
 23 35  1  0  0  0  0
 24 25  2  0  0  0  0
 24 26  1  0  0  0  0
 26 27  1  0  0  0  0
 26 52  1  0  0  0  0
 27 28  1  0  0  0  0
 27 53  1  0  0  0  0
 27 54  1  0  0  0  0
 28 29  1  0  0  0  0
 28 55  1  0  0  0  0
 28 56  1  0  0  0  0
 29 30  1  0  0  0  0
 29 57  1  0  0  0  0
 29 58  1  0  0  0  0
 30 31  1  0  0  0  0
 30 34  2  0  0  0  0
 31 32  2  0  0  0  0
 32 33  1  0  0  0  0
 33 34  1  0  0  0  0
 33 59  1  0  0  0  0
 35 36  1  0  0  0  0
 37 38  1  0  0  0  0
 37 60  1  0  0  0  0
 38 61  1  0  0  0  0
 39 62  1  0  0  0  0
M  END
$$$$
