CHEMBL2071271
 OpenBabel04072215363D

 46 49  0  0  1  0  0  0  0  0999 V2000
    2.8205    0.9286   -0.3100 N   0  0  0  0  0  0  0  0  0  0  0  0
    4.0701    1.4763   -0.1989 C   0  0  0  0  0  0  0  0  0  0  0  0
    4.3196    2.2568    0.7157 O   0  0  0  0  0  0  0  0  0  0  0  0
    5.0176    1.1346   -1.3319 C   0  0  1  0  0  0  0  0  0  0  0  0
    6.3822    1.8814   -1.2194 C   0  0  2  0  0  0  0  0  0  0  0  0
    7.0852    1.7804   -2.5610 C   0  0  0  0  0  0  0  0  0  0  0  0
    7.4806    0.5054   -2.7086 C   0  0  0  0  0  0  0  0  0  0  0  0
    7.0253   -0.2466   -1.4688 C   0  0  1  0  0  0  0  0  0  0  0  0
    7.2556    0.8801   -0.4599 C   0  0  0  0  0  0  0  0  0  0  0  0
    5.4720   -0.3411   -1.5467 C   0  0  1  0  0  0  0  0  0  0  0  0
    4.9165   -1.4445   -0.7669 N   0  0  0  0  0  0  0  0  0  0  0  0
    5.0224   -1.6394    0.5972 C   0  0  0  0  0  0  0  0  0  0  0  0
    5.1023   -0.5581    1.3813 N   0  0  0  0  0  0  0  0  0  0  0  0
    5.0967   -0.7051    2.7116 C   0  0  0  0  0  0  0  0  0  0  0  0
    4.9219    0.4800    3.4367 N   0  0  0  0  0  0  0  0  0  0  0  0
    4.4362    0.6042    4.6880 C   0  0  0  0  0  0  0  0  0  0  0  0
    4.4517   -0.3110    5.7594 C   0  0  0  0  0  0  0  0  0  0  0  0
    3.8121    0.1590    6.8355 N   0  0  0  0  0  0  0  0  0  0  0  0
    3.3355    1.3502    6.4236 N   0  0  0  0  0  0  0  0  0  0  0  0
    2.4172    2.0553    7.2960 C   0  0  0  0  0  0  0  0  0  0  0  0
    2.5690    3.5465    7.2534 C   0  0  0  0  0  0  0  0  0  0  0  0
    1.6511    4.3101    7.0070 O   0  0  0  0  0  0  0  0  0  0  0  0
    3.8018    4.0036    7.5687 O   0  0  0  0  0  0  0  0  0  0  0  0
    3.7448    1.6917    5.1650 C   0  0  0  0  0  0  0  0  0  0  0  0
    5.1213   -1.8992    3.3156 N   0  0  0  0  0  0  0  0  0  0  0  0
    5.0844   -2.9834    2.5153 C   0  0  0  0  0  0  0  0  0  0  0  0
    5.0016   -2.9113    1.1460 C   0  0  0  0  0  0  0  0  0  0  0  0
    4.8729   -4.3440    0.2037 Cl  0  0  0  0  0  0  0  0  0  0  0  0
    2.2074    1.0845    0.4814 H   0  0  0  0  0  0  0  0  0  0  0  0
    2.6965    0.0623   -0.8134 H   0  0  0  0  0  0  0  0  0  0  0  0
    4.5075    1.4836   -2.2434 H   0  0  0  0  0  0  0  0  0  0  0  0
    6.3691    2.8847   -0.7904 H   0  0  0  0  0  0  0  0  0  0  0  0
    7.2206    2.5892   -3.2637 H   0  0  0  0  0  0  0  0  0  0  0  0
    7.9910    0.0760   -3.5574 H   0  0  0  0  0  0  0  0  0  0  0  0
    7.5705   -1.1703   -1.2716 H   0  0  0  0  0  0  0  0  0  0  0  0
    8.3093    1.1865   -0.3910 H   0  0  0  0  0  0  0  0  0  0  0  0
    6.9107    0.6764    0.5514 H   0  0  0  0  0  0  0  0  0  0  0  0
    5.2097   -0.6022   -2.5835 H   0  0  0  0  0  0  0  0  0  0  0  0
    4.1522   -1.9577   -1.1930 H   0  0  0  0  0  0  0  0  0  0  0  0
    4.8015    1.2259    2.7503 H   0  0  0  0  0  0  0  0  0  0  0  0
    4.8931   -1.2985    5.8004 H   0  0  0  0  0  0  0  0  0  0  0  0
    2.5747    1.7174    8.3246 H   0  0  0  0  0  0  0  0  0  0  0  0
    1.4061    1.7742    6.9837 H   0  0  0  0  0  0  0  0  0  0  0  0
    4.4678    3.3105    7.7595 H   0  0  0  0  0  0  0  0  0  0  0  0
    3.4654    2.6272    4.6974 H   0  0  0  0  0  0  0  0  0  0  0  0
    5.0998   -3.9378    3.0338 H   0  0  0  0  0  0  0  0  0  0  0  0
  1  2  1  0  0  0  0
  1 29  1  0  0  0  0
  1 30  1  0  0  0  0
  2  3  2  0  0  0  0
  2  4  1  0  0  0  0
  4  5  1  0  0  0  0
  4 10  1  0  0  0  0
  4 31  1  6  0  0  0
  5  6  1  0  0  0  0
  5  9  1  0  0  0  0
  5 32  1  1  0  0  0
  6  7  2  0  0  0  0
  6 33  1  0  0  0  0
  7  8  1  0  0  0  0
  7 34  1  0  0  0  0
  8  9  1  0  0  0  0
  8 10  1  0  0  0  0
  8 35  1  1  0  0  0
  9 36  1  0  0  0  0
  9 37  1  0  0  0  0
 10 11  1  0  0  0  0
 10 38  1  6  0  0  0
 11 12  1  0  0  0  0
 11 39  1  0  0  0  0
 12 13  1  0  0  0  0
 12 27  2  0  0  0  0
 13 14  2  0  0  0  0
 14 15  1  0  0  0  0
 14 25  1  0  0  0  0
 15 16  1  0  0  0  0
 15 40  1  0  0  0  0
 16 17  1  0  0  0  0
 16 24  2  0  0  0  0
 17 18  2  0  0  0  0
 17 41  1  0  0  0  0
 18 19  1  0  0  0  0
 19 20  1  0  0  0  0
 19 24  1  0  0  0  0
 20 21  1  0  0  0  0
 20 42  1  0  0  0  0
 20 43  1  0  0  0  0
 21 22  2  0  0  0  0
 21 23  1  0  0  0  0
 23 44  1  0  0  0  0
 24 45  1  0  0  0  0
 25 26  2  0  0  0  0
 26 27  1  0  0  0  0
 26 46  1  0  0  0  0
 27 28  1  0  0  0  0
M  END
$$$$
