CHEMBL4642069
 OpenBabel04072215383D

 43 45  0  0  0  0  0  0  0  0999 V2000
   -0.3314   -2.9512    0.3027 C   0  0  0  0  0  0  0  0  0  0  0  0
   -0.5428   -1.4663    0.2695 C   0  0  0  0  0  0  0  0  0  0  0  0
   -1.7756   -0.9384    0.3007 C   0  0  0  0  0  0  0  0  0  0  0  0
   -2.0413    0.5076    0.2690 C   0  0  0  0  0  0  0  0  0  0  0  0
   -3.1889    0.9356    0.3082 O   0  0  0  0  0  0  0  0  0  0  0  0
   -0.9408    1.3431    0.1938 O   0  0  0  0  0  0  0  0  0  0  0  0
    0.3698    0.8234    0.1633 C   0  0  0  0  0  0  0  0  0  0  0  0
    1.4016    1.7677    0.0999 C   0  0  0  0  0  0  0  0  0  0  0  0
    2.7248    1.3358    0.0801 C   0  0  0  0  0  0  0  0  0  0  0  0
    3.8348    2.1370    0.0428 O   0  0  0  0  0  0  0  0  0  0  0  0
    3.6111    3.5374   -0.0603 C   0  0  0  0  0  0  0  0  0  0  0  0
    4.9409    4.2836   -0.1577 C   0  0  0  0  0  0  0  0  0  0  0  0
    5.4823    4.5499   -1.2306 O   0  0  0  0  0  0  0  0  0  0  0  0
    5.4640    4.6738    1.0736 N   0  0  0  0  0  0  0  0  0  0  0  0
    6.7169    5.3465    1.1198 N   0  0  0  0  0  0  0  0  0  0  0  0
    6.5292    6.8052    1.0778 C   0  0  0  0  0  0  0  0  0  0  0  0
    7.8485    7.5426    1.0497 C   0  0  0  0  0  0  0  0  0  0  0  0
    8.4763    7.8305   -0.1725 C   0  0  0  0  0  0  0  0  0  0  0  0
    9.6822    8.5353   -0.2032 C   0  0  0  0  0  0  0  0  0  0  0  0
   10.2775    8.9534    0.9851 C   0  0  0  0  0  0  0  0  0  0  0  0
    9.6737    8.6580    2.2052 C   0  0  0  0  0  0  0  0  0  0  0  0
    8.4687    7.9519    2.2391 C   0  0  0  0  0  0  0  0  0  0  0  0
    2.9844   -0.0376    0.1129 C   0  0  0  0  0  0  0  0  0  0  0  0
    1.9393   -0.9734    0.1726 C   0  0  0  0  0  0  0  0  0  0  0  0
    0.6063   -0.5519    0.2013 C   0  0  0  0  0  0  0  0  0  0  0  0
   -1.2816   -3.4964    0.3453 H   0  0  0  0  0  0  0  0  0  0  0  0
    0.2476   -3.2433    1.1851 H   0  0  0  0  0  0  0  0  0  0  0  0
    0.1942   -3.2905   -0.5961 H   0  0  0  0  0  0  0  0  0  0  0  0
   -2.6647   -1.5571    0.3522 H   0  0  0  0  0  0  0  0  0  0  0  0
    1.1313    2.8171    0.0711 H   0  0  0  0  0  0  0  0  0  0  0  0
    3.0710    3.9031    0.8220 H   0  0  0  0  0  0  0  0  0  0  0  0
    3.0368    3.7802   -0.9630 H   0  0  0  0  0  0  0  0  0  0  0  0
    5.1364    4.2216    1.9247 H   0  0  0  0  0  0  0  0  0  0  0  0
    7.2345    5.0863    0.2701 H   0  0  0  0  0  0  0  0  0  0  0  0
    5.9540    7.1328    1.9531 H   0  0  0  0  0  0  0  0  0  0  0  0
    5.9434    7.0953    0.1956 H   0  0  0  0  0  0  0  0  0  0  0  0
    8.0214    7.5120   -1.1107 H   0  0  0  0  0  0  0  0  0  0  0  0
   10.1548    8.7606   -1.1561 H   0  0  0  0  0  0  0  0  0  0  0  0
   11.2135    9.5053    0.9597 H   0  0  0  0  0  0  0  0  0  0  0  0
   10.1403    8.9797    3.1331 H   0  0  0  0  0  0  0  0  0  0  0  0
    8.0112    7.7267    3.1999 H   0  0  0  0  0  0  0  0  0  0  0  0
    4.0139   -0.3902    0.0903 H   0  0  0  0  0  0  0  0  0  0  0  0
    2.1978   -2.0290    0.1974 H   0  0  0  0  0  0  0  0  0  0  0  0
  1  2  1  0  0  0  0
  1 26  1  0  0  0  0
  1 27  1  0  0  0  0
  1 28  1  0  0  0  0
  2  3  2  0  0  0  0
  2 25  1  0  0  0  0
  3  4  1  0  0  0  0
  3 29  1  0  0  0  0
  4  5  2  0  0  0  0
  4  6  1  0  0  0  0
  6  7  1  0  0  0  0
  7  8  1  0  0  0  0
  7 25  2  0  0  0  0
  8  9  2  0  0  0  0
  8 30  1  0  0  0  0
  9 10  1  0  0  0  0
  9 23  1  0  0  0  0
 10 11  1  0  0  0  0
 11 12  1  0  0  0  0
 11 31  1  0  0  0  0
 11 32  1  0  0  0  0
 12 13  2  0  0  0  0
 12 14  1  0  0  0  0
 14 15  1  0  0  0  0
 14 33  1  0  0  0  0
 15 16  1  0  0  0  0
 15 34  1  0  0  0  0
 16 17  1  0  0  0  0
 16 35  1  0  0  0  0
 16 36  1  0  0  0  0
 17 18  1  0  0  0  0
 17 22  2  0  0  0  0
 18 19  2  0  0  0  0
 18 37  1  0  0  0  0
 19 20  1  0  0  0  0
 19 38  1  0  0  0  0
 20 21  2  0  0  0  0
 20 39  1  0  0  0  0
 21 22  1  0  0  0  0
 21 40  1  0  0  0  0
 22 41  1  0  0  0  0
 23 24  2  0  0  0  0
 23 42  1  0  0  0  0
 24 25  1  0  0  0  0
 24 43  1  0  0  0  0
M  END
$$$$
