CHEMBL216891
 OpenBabel04072215363D

 66 72  0  0  0  0  0  0  0  0999 V2000
    3.5190    0.2937   -1.3829 C   0  0  0  0  0  0  0  0  0  0  0  0
    3.1171    1.1106   -0.1657 C   0  0  0  0  0  0  0  0  0  0  0  0
    3.7342    0.6356    1.1666 C   0  0  0  0  0  0  0  0  0  0  0  0
    5.1826    0.7534    1.2931 N   0  0  0  0  0  0  0  0  0  0  0  0
    5.8767    1.9843    1.1913 C   0  0  0  0  0  0  0  0  0  0  0  0
    5.4179    3.3022    1.0509 C   0  0  0  0  0  0  0  0  0  0  0  0
    6.3610    4.3297    0.8700 C   0  0  0  0  0  0  0  0  0  0  0  0
    7.7349    4.0912    0.8803 C   0  0  0  0  0  0  0  0  0  0  0  0
    8.7296    5.0923    0.7336 N   0  0  0  0  0  0  0  0  0  0  0  0
    8.5056    6.4375    0.4997 C   0  0  0  0  0  0  0  0  0  0  0  0
    7.3878    6.9202    0.3466 O   0  0  0  0  0  0  0  0  0  0  0  0
    9.6822    7.1666    0.4319 N   0  0  0  0  0  0  0  0  0  0  0  0
    9.7197    8.5770    0.2848 C   0  0  0  0  0  0  0  0  0  0  0  0
    8.6351    9.4030    0.6114 C   0  0  0  0  0  0  0  0  0  0  0  0
    8.6448   10.7750    0.3541 C   0  0  0  0  0  0  0  0  0  0  0  0
    9.7775   11.3482   -0.2183 C   0  0  0  0  0  0  0  0  0  0  0  0
   10.8927   10.5544   -0.4899 C   0  0  0  0  0  0  0  0  0  0  0  0
   10.8719    9.1792   -0.2329 C   0  0  0  0  0  0  0  0  0  0  0  0
    8.1776    2.7763    1.0235 C   0  0  0  0  0  0  0  0  0  0  0  0
    7.2538    1.7189    1.1388 C   0  0  0  0  0  0  0  0  0  0  0  0
    7.2762    0.3379    1.1377 C   0  0  0  0  0  0  0  0  0  0  0  0
    8.3777   -0.3947    0.6733 C   0  0  0  0  0  0  0  0  0  0  0  0
    8.0960   -1.7088    0.2478 C   0  0  0  0  0  0  0  0  0  0  0  0
    6.8361   -2.3192    0.3839 C   0  0  0  0  0  0  0  0  0  0  0  0
    6.0378   -1.7200    1.4110 C   0  0  0  0  0  0  0  0  0  0  0  0
    6.0934   -0.3038    1.3917 C   0  0  0  0  0  0  0  0  0  0  0  0
    6.1076   -2.5810    2.7567 C   0  0  0  0  0  0  0  0  0  0  0  0
    7.1529   -3.7810    2.7307 C   0  0  0  0  0  0  0  0  0  0  0  0
    6.9176   -4.5200    1.4611 C   0  0  0  0  0  0  0  0  0  0  0  0
    6.5220   -5.7835    1.3105 N   0  0  0  0  0  0  0  0  0  0  0  0
    6.0247   -5.7850    0.0469 N   0  0  0  0  0  0  0  0  0  0  0  0
    5.3572   -6.9584   -0.4620 C   0  0  0  0  0  0  0  0  0  0  0  0
    6.0184   -4.5439   -0.5423 C   0  0  0  0  0  0  0  0  0  0  0  0
    6.7625   -3.7551    0.2939 C   0  0  0  0  0  0  0  0  0  0  0  0
    9.3497   -2.2946   -0.1675 C   0  0  0  0  0  0  0  0  0  0  0  0
    9.6692   -3.4137   -0.5552 O   0  0  0  0  0  0  0  0  0  0  0  0
   10.2823   -1.2850    0.0116 N   0  0  0  0  0  0  0  0  0  0  0  0
    9.7741   -0.0224    0.4943 C   0  0  0  0  0  0  0  0  0  0  0  0
    3.0753    0.7292   -2.2868 H   0  0  0  0  0  0  0  0  0  0  0  0
    3.1589   -0.7365   -1.2994 H   0  0  0  0  0  0  0  0  0  0  0  0
    4.6021    0.2816   -1.5195 H   0  0  0  0  0  0  0  0  0  0  0  0
    2.0235    1.0768   -0.0774 H   0  0  0  0  0  0  0  0  0  0  0  0
    3.3608    2.1599   -0.3676 H   0  0  0  0  0  0  0  0  0  0  0  0
    3.4534   -0.4048    1.3551 H   0  0  0  0  0  0  0  0  0  0  0  0
    3.3133    1.2399    1.9796 H   0  0  0  0  0  0  0  0  0  0  0  0
    4.3606    3.5487    1.0353 H   0  0  0  0  0  0  0  0  0  0  0  0
    5.9588    5.3275    0.7167 H   0  0  0  0  0  0  0  0  0  0  0  0
    9.6877    4.8044    0.8272 H   0  0  0  0  0  0  0  0  0  0  0  0
   10.5232    6.6668    0.1872 H   0  0  0  0  0  0  0  0  0  0  0  0
    7.7350    8.9968    1.0771 H   0  0  0  0  0  0  0  0  0  0  0  0
    7.7752   11.3776    0.5844 H   0  0  0  0  0  0  0  0  0  0  0  0
    9.7837   12.4108   -0.4461 H   0  0  0  0  0  0  0  0  0  0  0  0
   11.7825   11.0091   -0.9202 H   0  0  0  0  0  0  0  0  0  0  0  0
   11.7536    8.5917   -0.4716 H   0  0  0  0  0  0  0  0  0  0  0  0
    9.2406    2.5647    1.0239 H   0  0  0  0  0  0  0  0  0  0  0  0
    5.1123   -3.0046    2.9304 H   0  0  0  0  0  0  0  0  0  0  0  0
    6.3649   -1.9262    3.5970 H   0  0  0  0  0  0  0  0  0  0  0  0
    7.0718   -4.4283    3.6077 H   0  0  0  0  0  0  0  0  0  0  0  0
    8.1788   -3.3794    2.7192 H   0  0  0  0  0  0  0  0  0  0  0  0
    5.5789   -7.8131    0.1814 H   0  0  0  0  0  0  0  0  0  0  0  0
    5.7166   -7.1490   -1.4760 H   0  0  0  0  0  0  0  0  0  0  0  0
    4.2819   -6.7605   -0.4681 H   0  0  0  0  0  0  0  0  0  0  0  0
    5.4528   -4.3382   -1.4404 H   0  0  0  0  0  0  0  0  0  0  0  0
   11.2604   -1.4898   -0.1235 H   0  0  0  0  0  0  0  0  0  0  0  0
    9.9138    0.7356   -0.2775 H   0  0  0  0  0  0  0  0  0  0  0  0
   10.2593    0.2417    1.4369 H   0  0  0  0  0  0  0  0  0  0  0  0
  1  2  1  0  0  0  0
  1 39  1  0  0  0  0
  1 40  1  0  0  0  0
  1 41  1  0  0  0  0
  2  3  1  0  0  0  0
  2 42  1  0  0  0  0
  2 43  1  0  0  0  0
  3  4  1  0  0  0  0
  3 44  1  0  0  0  0
  3 45  1  0  0  0  0
  4  5  1  0  0  0  0
  4 26  1  0  0  0  0
  5  6  1  0  0  0  0
  5 20  2  0  0  0  0
  6  7  2  0  0  0  0
  6 46  1  0  0  0  0
  7  8  1  0  0  0  0
  7 47  1  0  0  0  0
  8  9  1  0  0  0  0
  8 19  2  0  0  0  0
  9 10  1  0  0  0  0
  9 48  1  0  0  0  0
 10 11  2  0  0  0  0
 10 12  1  0  0  0  0
 12 13  1  0  0  0  0
 12 49  1  0  0  0  0
 13 14  1  0  0  0  0
 13 18  2  0  0  0  0
 14 15  2  0  0  0  0
 14 50  1  0  0  0  0
 15 16  1  0  0  0  0
 15 51  1  0  0  0  0
 16 17  2  0  0  0  0
 16 52  1  0  0  0  0
 17 18  1  0  0  0  0
 17 53  1  0  0  0  0
 18 54  1  0  0  0  0
 19 20  1  0  0  0  0
 19 55  1  0  0  0  0
 20 21  1  0  0  0  0
 21 22  1  0  0  0  0
 21 26  2  0  0  0  0
 22 23  2  0  0  0  0
 22 38  1  0  0  0  0
 23 24  1  0  0  0  0
 23 35  1  0  0  0  0
 24 25  2  0  0  0  0
 24 34  1  0  0  0  0
 25 26  1  0  0  0  0
 25 27  1  0  0  0  0
 27 28  1  0  0  0  0
 27 56  1  0  0  0  0
 27 57  1  0  0  0  0
 28 29  1  0  0  0  0
 28 58  1  0  0  0  0
 28 59  1  0  0  0  0
 29 30  2  0  0  0  0
 29 34  1  0  0  0  0
 30 31  1  0  0  0  0
 31 32  1  0  0  0  0
 31 33  1  0  0  0  0
 32 60  1  0  0  0  0
 32 61  1  0  0  0  0
 32 62  1  0  0  0  0
 33 34  2  0  0  0  0
 33 63  1  0  0  0  0
 35 36  2  0  0  0  0
 35 37  1  0  0  0  0
 37 38  1  0  0  0  0
 37 64  1  0  0  0  0
 38 65  1  0  0  0  0
 38 66  1  0  0  0  0
M  END
$$$$
