CHEMBL364717
 OpenBabel04072215373D

 39 40  0  0  0  0  0  0  0  0999 V2000
    7.1526    4.2810    0.2802 C   0  0  0  0  0  0  0  0  0  0  0  0
    6.6287    2.8566    0.2069 C   0  0  0  0  0  0  0  0  0  0  0  0
    7.1063    2.1658   -1.0655 C   0  0  0  0  0  0  0  0  0  0  0  0
    6.5807    0.7352   -1.1430 C   0  0  0  0  0  0  0  0  0  0  0  0
    7.0637    0.0585   -2.4177 C   0  0  0  0  0  0  0  0  0  0  0  0
    6.5578   -1.3786   -2.5168 C   0  0  0  0  0  0  0  0  0  0  0  0
    7.0546   -2.0428   -3.7983 C   0  0  0  0  0  0  0  0  0  0  0  0
    8.5793   -2.0917   -3.8562 C   0  0  0  0  0  0  0  0  0  0  0  0
    9.0445   -2.7125   -5.0798 N   0  0  0  0  0  0  0  0  0  0  0  0
    9.3134   -2.0618   -6.2518 C   0  0  0  0  0  0  0  0  0  0  0  0
    9.6201   -3.0683   -7.1328 C   0  0  0  0  0  0  0  0  0  0  0  0
    9.9459   -2.9660   -8.4744 C   0  0  0  0  0  0  0  0  0  0  0  0
   10.0597   -1.8076   -9.2066 N   0  0  0  0  0  0  0  0  0  0  0  0
   10.1679   -4.1664   -9.0668 N   0  0  0  0  0  0  0  0  0  0  0  0
   10.0620   -5.3087   -8.3069 C   0  0  0  0  0  0  0  0  0  0  0  0
    9.7566   -5.4781   -6.9927 N   0  0  0  0  0  0  0  0  0  0  0  0
    9.5265   -4.2813   -6.4040 C   0  0  0  0  0  0  0  0  0  0  0  0
    9.1862   -4.0540   -5.1334 N   0  0  0  0  0  0  0  0  0  0  0  0
    6.8043    4.7675    1.1961 H   0  0  0  0  0  0  0  0  0  0  0  0
    6.8028    4.8695   -0.5740 H   0  0  0  0  0  0  0  0  0  0  0  0
    8.2472    4.2943    0.2807 H   0  0  0  0  0  0  0  0  0  0  0  0
    5.5333    2.8707    0.2353 H   0  0  0  0  0  0  0  0  0  0  0  0
    6.9705    2.2984    1.0858 H   0  0  0  0  0  0  0  0  0  0  0  0
    8.2035    2.1581   -1.0929 H   0  0  0  0  0  0  0  0  0  0  0  0
    6.7668    2.7302   -1.9430 H   0  0  0  0  0  0  0  0  0  0  0  0
    5.4858    0.7389   -1.1226 H   0  0  0  0  0  0  0  0  0  0  0  0
    6.9232    0.1657   -0.2705 H   0  0  0  0  0  0  0  0  0  0  0  0
    8.1577    0.0732   -2.4217 H   0  0  0  0  0  0  0  0  0  0  0  0
    6.7308    0.6254   -3.2941 H   0  0  0  0  0  0  0  0  0  0  0  0
    5.4614   -1.3856   -2.5027 H   0  0  0  0  0  0  0  0  0  0  0  0
    6.8944   -1.9557   -1.6471 H   0  0  0  0  0  0  0  0  0  0  0  0
    6.6674   -1.4938   -4.6664 H   0  0  0  0  0  0  0  0  0  0  0  0
    6.6468   -3.0595   -3.8658 H   0  0  0  0  0  0  0  0  0  0  0  0
    8.9967   -2.6507   -3.0111 H   0  0  0  0  0  0  0  0  0  0  0  0
    9.0111   -1.0880   -3.8385 H   0  0  0  0  0  0  0  0  0  0  0  0
    9.2408   -0.9903   -6.3516 H   0  0  0  0  0  0  0  0  0  0  0  0
    9.8159   -0.9169   -8.8066 H   0  0  0  0  0  0  0  0  0  0  0  0
   10.2272   -1.9043  -10.1943 H   0  0  0  0  0  0  0  0  0  0  0  0
   10.2558   -6.2316   -8.8536 H   0  0  0  0  0  0  0  0  0  0  0  0
  1  2  1  0  0  0  0
  1 19  1  0  0  0  0
  1 20  1  0  0  0  0
  1 21  1  0  0  0  0
  2  3  1  0  0  0  0
  2 22  1  0  0  0  0
  2 23  1  0  0  0  0
  3  4  1  0  0  0  0
  3 24  1  0  0  0  0
  3 25  1  0  0  0  0
  4  5  1  0  0  0  0
  4 26  1  0  0  0  0
  4 27  1  0  0  0  0
  5  6  1  0  0  0  0
  5 28  1  0  0  0  0
  5 29  1  0  0  0  0
  6  7  1  0  0  0  0
  6 30  1  0  0  0  0
  6 31  1  0  0  0  0
  7  8  1  0  0  0  0
  7 32  1  0  0  0  0
  7 33  1  0  0  0  0
  8  9  1  0  0  0  0
  8 34  1  0  0  0  0
  8 35  1  0  0  0  0
  9 10  1  0  0  0  0
  9 18  1  0  0  0  0
 10 11  2  0  0  0  0
 10 36  1  0  0  0  0
 11 12  1  0  0  0  0
 11 17  1  0  0  0  0
 12 13  1  0  0  0  0
 12 14  2  0  0  0  0
 13 37  1  0  0  0  0
 13 38  1  0  0  0  0
 14 15  1  0  0  0  0
 15 16  2  0  0  0  0
 15 39  1  0  0  0  0
 16 17  1  0  0  0  0
 17 18  2  0  0  0  0
M  END
$$$$
