CHEMBL2403373
 OpenBabel04072215363D

 70 75  0  0  0  0  0  0  0  0999 V2000
   -0.4213    3.2532   -3.9979 C   0  0  0  0  0  0  0  0  0  0  0  0
   -0.7531    2.0707   -3.1966 N   0  0  0  0  0  0  0  0  0  0  0  0
   -0.2732    0.8649   -3.8900 C   0  0  0  0  0  0  0  0  0  0  0  0
   -0.5293   -0.3945   -3.0667 C   0  0  0  0  0  0  0  0  0  0  0  0
    0.1617   -0.3031   -1.7049 C   0  0  0  0  0  0  0  0  0  0  0  0
    1.6292   -0.2125   -1.8379 N   0  0  0  0  0  0  0  0  0  0  0  0
    2.3313   -1.2267   -2.5030 C   0  0  0  0  0  0  0  0  0  0  0  0
    3.5198   -0.8576   -3.1752 C   0  0  0  0  0  0  0  0  0  0  0  0
    4.3187   -1.7995   -3.8292 C   0  0  0  0  0  0  0  0  0  0  0  0
    3.9112   -3.1130   -3.7688 C   0  0  0  0  0  0  0  0  0  0  0  0
    2.7539   -3.5101   -3.0962 C   0  0  0  0  0  0  0  0  0  0  0  0
    1.9703   -2.5792   -2.4380 C   0  0  0  0  0  0  0  0  0  0  0  0
    2.6698   -4.9677   -3.2427 C   0  0  0  0  0  0  0  0  0  0  0  0
    1.7083   -5.7386   -2.7117 C   0  0  0  0  0  0  0  0  0  0  0  0
    1.7567   -7.1461   -2.7513 C   0  0  0  0  0  0  0  0  0  0  0  0
    2.2341   -8.0604   -1.8408 C   0  0  0  0  0  0  0  0  0  0  0  0
    2.2070   -9.3262   -2.4720 C   0  0  0  0  0  0  0  0  0  0  0  0
    1.6562   -9.1659   -3.7133 C   0  0  0  0  0  0  0  0  0  0  0  0
    1.3474   -7.8423   -3.8720 N   0  0  0  0  0  0  0  0  0  0  0  0
    1.6316  -10.2207   -4.7511 C   0  0  0  0  0  0  0  0  0  0  0  0
    2.1904  -11.5713   -4.2125 C   0  0  0  0  0  0  0  0  0  0  0  0
    3.0975  -11.5678   -3.0302 N   0  0  0  0  0  0  0  0  0  0  0  0
    3.6484  -12.8071   -2.6877 C   0  0  0  0  0  0  0  0  0  0  0  0
    3.3524  -13.8163   -3.3421 O   0  0  0  0  0  0  0  0  0  0  0  0
    4.5092  -12.9227   -1.5999 N   0  0  0  0  0  0  0  0  0  0  0  0
    5.2517  -11.8869   -0.8706 C   0  0  0  0  0  0  0  0  0  0  0  0
    6.7467  -12.1774   -0.8060 C   0  0  0  0  0  0  0  0  0  0  0  0
    6.9965  -13.4546   -0.2269 O   0  0  0  0  0  0  0  0  0  0  0  0
    6.3682  -14.4746   -1.0192 C   0  0  0  0  0  0  0  0  0  0  0  0
    4.8471  -14.2683   -1.1010 C   0  0  0  0  0  0  0  0  0  0  0  0
    2.9035  -10.5359   -2.0177 C   0  0  0  0  0  0  0  0  0  0  0  0
    3.8724   -5.3918   -4.0557 C   0  0  0  0  0  0  0  0  0  0  0  0
    4.1953   -6.5018   -4.4286 O   0  0  0  0  0  0  0  0  0  0  0  0
    4.5502   -4.2116   -4.3306 N   0  0  0  0  0  0  0  0  0  0  0  0
   -0.3542    0.9523   -0.9951 C   0  0  0  0  0  0  0  0  0  0  0  0
   -0.1610    2.2035   -1.8554 C   0  0  0  0  0  0  0  0  0  0  0  0
   -0.8541    3.1760   -5.0013 H   0  0  0  0  0  0  0  0  0  0  0  0
    0.6626    3.3862   -4.1043 H   0  0  0  0  0  0  0  0  0  0  0  0
   -0.8353    4.1572   -3.5394 H   0  0  0  0  0  0  0  0  0  0  0  0
    0.7952    0.9464   -4.1288 H   0  0  0  0  0  0  0  0  0  0  0  0
   -0.8036    0.7588   -4.8441 H   0  0  0  0  0  0  0  0  0  0  0  0
   -0.1998   -1.2729   -3.6315 H   0  0  0  0  0  0  0  0  0  0  0  0
   -1.6097   -0.5195   -2.9147 H   0  0  0  0  0  0  0  0  0  0  0  0
   -0.0958   -1.1719   -1.0873 H   0  0  0  0  0  0  0  0  0  0  0  0
    2.0770   -0.0389   -0.9374 H   0  0  0  0  0  0  0  0  0  0  0  0
    3.8027    0.1928   -3.2142 H   0  0  0  0  0  0  0  0  0  0  0  0
    5.2121   -1.4990   -4.3639 H   0  0  0  0  0  0  0  0  0  0  0  0
    1.0958   -2.8988   -1.8856 H   0  0  0  0  0  0  0  0  0  0  0  0
    0.9180   -5.2993   -2.1112 H   0  0  0  0  0  0  0  0  0  0  0  0
    2.7015   -7.8244   -0.8928 H   0  0  0  0  0  0  0  0  0  0  0  0
    1.0077   -7.4155   -4.7240 H   0  0  0  0  0  0  0  0  0  0  0  0
    2.2278   -9.8958   -5.6117 H   0  0  0  0  0  0  0  0  0  0  0  0
    0.6068  -10.3735   -5.1110 H   0  0  0  0  0  0  0  0  0  0  0  0
    2.7253  -12.0647   -5.0365 H   0  0  0  0  0  0  0  0  0  0  0  0
    1.3447  -12.2285   -3.9700 H   0  0  0  0  0  0  0  0  0  0  0  0
    4.8161  -11.8336    0.1347 H   0  0  0  0  0  0  0  0  0  0  0  0
    5.2311  -10.9231   -1.3423 H   0  0  0  0  0  0  0  0  0  0  0  0
    7.2364  -11.4101   -0.1968 H   0  0  0  0  0  0  0  0  0  0  0  0
    7.1831  -12.1310   -1.8117 H   0  0  0  0  0  0  0  0  0  0  0  0
    6.5966  -15.4315   -0.5424 H   0  0  0  0  0  0  0  0  0  0  0  0
    6.8196  -14.4737   -2.0180 H   0  0  0  0  0  0  0  0  0  0  0  0
    4.4222  -14.3326   -0.0911 H   0  0  0  0  0  0  0  0  0  0  0  0
    4.3953  -15.0633   -1.6999 H   0  0  0  0  0  0  0  0  0  0  0  0
    3.8732  -10.0952   -1.8438 H   0  0  0  0  0  0  0  0  0  0  0  0
    2.4991  -10.9555   -1.0942 H   0  0  0  0  0  0  0  0  0  0  0  0
    5.4054   -4.1907   -4.8636 H   0  0  0  0  0  0  0  0  0  0  0  0
    0.1531    1.0875   -0.0321 H   0  0  0  0  0  0  0  0  0  0  0  0
   -1.4225    0.8258   -0.7745 H   0  0  0  0  0  0  0  0  0  0  0  0
    0.9102    2.4345   -1.9204 H   0  0  0  0  0  0  0  0  0  0  0  0
   -0.6376    3.0450   -1.3375 H   0  0  0  0  0  0  0  0  0  0  0  0
  1  2  1  0  0  0  0
  1 37  1  0  0  0  0
  1 38  1  0  0  0  0
  1 39  1  0  0  0  0
  2  3  1  0  0  0  0
  2 36  1  0  0  0  0
  3  4  1  0  0  0  0
  3 40  1  0  0  0  0
  3 41  1  0  0  0  0
  4  5  1  0  0  0  0
  4 42  1  0  0  0  0
  4 43  1  0  0  0  0
  5  6  1  0  0  0  0
  5 35  1  0  0  0  0
  5 44  1  0  0  0  0
  6  7  1  0  0  0  0
  6 45  1  0  0  0  0
  7  8  1  0  0  0  0
  7 12  2  0  0  0  0
  8  9  2  0  0  0  0
  8 46  1  0  0  0  0
  9 10  1  0  0  0  0
  9 47  1  0  0  0  0
 10 11  2  0  0  0  0
 10 34  1  0  0  0  0
 11 12  1  0  0  0  0
 11 13  1  0  0  0  0
 12 48  1  0  0  0  0
 13 14  2  0  0  0  0
 13 32  1  0  0  0  0
 14 15  1  0  0  0  0
 14 49  1  0  0  0  0
 15 16  2  0  0  0  0
 15 19  1  0  0  0  0
 16 17  1  0  0  0  0
 16 50  1  0  0  0  0
 17 18  2  0  0  0  0
 17 31  1  0  0  0  0
 18 19  1  0  0  0  0
 18 20  1  0  0  0  0
 19 51  1  0  0  0  0
 20 21  1  0  0  0  0
 20 52  1  0  0  0  0
 20 53  1  0  0  0  0
 21 22  1  0  0  0  0
 21 54  1  0  0  0  0
 21 55  1  0  0  0  0
 22 23  1  0  0  0  0
 22 31  1  0  0  0  0
 23 24  2  0  0  0  0
 23 25  1  0  0  0  0
 25 26  1  0  0  0  0
 25 30  1  0  0  0  0
 26 27  1  0  0  0  0
 26 56  1  0  0  0  0
 26 57  1  0  0  0  0
 27 28  1  0  0  0  0
 27 58  1  0  0  0  0
 27 59  1  0  0  0  0
 28 29  1  0  0  0  0
 29 30  1  0  0  0  0
 29 60  1  0  0  0  0
 29 61  1  0  0  0  0
 30 62  1  0  0  0  0
 30 63  1  0  0  0  0
 31 64  1  0  0  0  0
 31 65  1  0  0  0  0
 32 33  2  0  0  0  0
 32 34  1  0  0  0  0
 34 66  1  0  0  0  0
 35 36  1  0  0  0  0
 35 67  1  0  0  0  0
 35 68  1  0  0  0  0
 36 69  1  0  0  0  0
 36 70  1  0  0  0  0
M  END
$$$$
