CHEMBL98385
 OpenBabel04072215383D

 32 34  0  0  0  0  0  0  0  0999 V2000
    2.7455    1.3989    1.2198 C   0  0  0  0  0  0  0  0  0  0  0  0
    1.3252    1.6059    1.6537 C   0  0  0  0  0  0  0  0  0  0  0  0
    0.9805    1.4761    2.9928 C   0  0  0  0  0  0  0  0  0  0  0  0
   -0.3383    1.6826    3.3560 C   0  0  0  0  0  0  0  0  0  0  0  0
   -1.2665    2.0032    2.3732 C   0  0  0  0  0  0  0  0  0  0  0  0
   -0.8677    2.1153    1.0436 C   0  0  0  0  0  0  0  0  0  0  0  0
   -1.7399    2.4628    0.0120 N   0  0  0  0  0  0  0  0  0  0  0  0
   -3.0849    2.5496    0.0554 C   0  0  0  0  0  0  0  0  0  0  0  0
   -3.8571    2.0565    0.9990 N   0  0  0  0  0  0  0  0  0  0  0  0
   -5.1815    2.3352    0.7505 C   0  0  0  0  0  0  0  0  0  0  0  0
   -5.4442    3.0644   -0.3900 C   0  0  0  0  0  0  0  0  0  0  0  0
   -6.7368    3.5436   -0.8952 C   0  0  0  0  0  0  0  0  0  0  0  0
   -7.7832    3.8100    0.0034 C   0  0  0  0  0  0  0  0  0  0  0  0
   -9.0401    4.2205   -0.4497 C   0  0  0  0  0  0  0  0  0  0  0  0
   -9.2673    4.3776   -1.8133 C   0  0  0  0  0  0  0  0  0  0  0  0
   -8.2401    4.1283   -2.7196 C   0  0  0  0  0  0  0  0  0  0  0  0
   -6.9849    3.7143   -2.2644 C   0  0  0  0  0  0  0  0  0  0  0  0
   -3.9525    3.3578   -1.1987 S   0  0  0  0  0  0  0  0  0  0  0  0
    0.4246    1.9276    0.6876 N   0  0  0  0  0  0  0  0  0  0  0  0
    3.3900    1.1294    2.0639 H   0  0  0  0  0  0  0  0  0  0  0  0
    3.1356    2.3191    0.7751 H   0  0  0  0  0  0  0  0  0  0  0  0
    2.7980    0.5921    0.4827 H   0  0  0  0  0  0  0  0  0  0  0  0
    1.7194    1.2270    3.7457 H   0  0  0  0  0  0  0  0  0  0  0  0
   -0.6527    1.6038    4.3919 H   0  0  0  0  0  0  0  0  0  0  0  0
   -2.2912    2.1831    2.6744 H   0  0  0  0  0  0  0  0  0  0  0  0
   -1.2445    2.5948   -0.8580 H   0  0  0  0  0  0  0  0  0  0  0  0
   -5.9238    1.9743    1.4522 H   0  0  0  0  0  0  0  0  0  0  0  0
   -7.6372    3.7042    1.0780 H   0  0  0  0  0  0  0  0  0  0  0  0
   -9.8391    4.4135    0.2618 H   0  0  0  0  0  0  0  0  0  0  0  0
  -10.2443    4.6917   -2.1701 H   0  0  0  0  0  0  0  0  0  0  0  0
   -8.4151    4.2476   -3.7857 H   0  0  0  0  0  0  0  0  0  0  0  0
   -6.2127    3.5101   -3.0017 H   0  0  0  0  0  0  0  0  0  0  0  0
  1  2  1  0  0  0  0
  1 20  1  0  0  0  0
  1 21  1  0  0  0  0
  1 22  1  0  0  0  0
  2  3  1  0  0  0  0
  2 19  2  0  0  0  0
  3  4  2  0  0  0  0
  3 23  1  0  0  0  0
  4  5  1  0  0  0  0
  4 24  1  0  0  0  0
  5  6  2  0  0  0  0
  5 25  1  0  0  0  0
  6  7  1  0  0  0  0
  6 19  1  0  0  0  0
  7  8  1  0  0  0  0
  7 26  1  0  0  0  0
  8  9  2  0  0  0  0
  8 18  1  0  0  0  0
  9 10  1  0  0  0  0
 10 11  2  0  0  0  0
 10 27  1  0  0  0  0
 11 12  1  0  0  0  0
 11 18  1  0  0  0  0
 12 13  1  0  0  0  0
 12 17  2  0  0  0  0
 13 14  2  0  0  0  0
 13 28  1  0  0  0  0
 14 15  1  0  0  0  0
 14 29  1  0  0  0  0
 15 16  2  0  0  0  0
 15 30  1  0  0  0  0
 16 17  1  0  0  0  0
 16 31  1  0  0  0  0
 17 32  1  0  0  0  0
M  END
$$$$
