CHEMBL498206
 OpenBabel04072215383D

 39 42  0  0  0  0  0  0  0  0999 V2000
    2.8939    1.5003   -0.0100 C   0  0  0  0  0  0  0  0  0  0  0  0
    1.6161    0.7047   -0.0186 C   0  0  0  0  0  0  0  0  0  0  0  0
    0.3898    1.3987   -0.0555 C   0  0  0  0  0  0  0  0  0  0  0  0
   -0.8089    0.6779   -0.0557 C   0  0  0  0  0  0  0  0  0  0  0  0
   -2.1046    1.1296   -0.0954 N   0  0  0  0  0  0  0  0  0  0  0  0
   -2.8739    0.0490   -0.0590 C   0  0  0  0  0  0  0  0  0  0  0  0
   -4.3022   -0.0657   -0.0384 C   0  0  0  0  0  0  0  0  0  0  0  0
   -5.0703    1.0447   -0.1962 C   0  0  0  0  0  0  0  0  0  0  0  0
   -4.5733    2.3192   -0.4840 N   0  0  0  0  0  0  0  0  0  0  0  0
   -6.5472    0.9377   -0.0302 C   0  0  0  0  0  0  0  0  0  0  0  0
   -7.4092    2.0418   -0.1396 C   0  0  0  0  0  0  0  0  0  0  0  0
   -8.7812    1.9120    0.0993 C   0  0  0  0  0  0  0  0  0  0  0  0
   -9.3191    0.6709    0.4264 C   0  0  0  0  0  0  0  0  0  0  0  0
   -8.4888   -0.4448    0.5011 C   0  0  0  0  0  0  0  0  0  0  0  0
   -7.1163   -0.3050    0.2766 C   0  0  0  0  0  0  0  0  0  0  0  0
   -6.3024   -1.4334    0.3656 N   0  0  0  0  0  0  0  0  0  0  0  0
   -4.9475   -1.4006    0.2112 C   0  0  0  0  0  0  0  0  0  0  0  0
   -4.2945   -2.4423    0.2895 O   0  0  0  0  0  0  0  0  0  0  0  0
   -2.0850   -1.0813    0.0063 N   0  0  0  0  0  0  0  0  0  0  0  0
   -0.7678   -0.7052   -0.0028 C   0  0  0  0  0  0  0  0  0  0  0  0
    0.4199   -1.4352    0.0320 C   0  0  0  0  0  0  0  0  0  0  0  0
    1.6272   -0.7082    0.0089 C   0  0  0  0  0  0  0  0  0  0  0  0
    2.9264   -1.4717    0.0054 C   0  0  0  0  0  0  0  0  0  0  0  0
    2.6962    2.5779   -0.0132 H   0  0  0  0  0  0  0  0  0  0  0  0
    3.4913    1.2707   -0.8971 H   0  0  0  0  0  0  0  0  0  0  0  0
    3.4725    1.2774    0.8919 H   0  0  0  0  0  0  0  0  0  0  0  0
    0.3536    2.4829   -0.0870 H   0  0  0  0  0  0  0  0  0  0  0  0
   -3.5435    2.3216   -0.4304 H   0  0  0  0  0  0  0  0  0  0  0  0
   -4.9352    3.0257    0.1497 H   0  0  0  0  0  0  0  0  0  0  0  0
   -7.0285    3.0226   -0.4128 H   0  0  0  0  0  0  0  0  0  0  0  0
   -9.4263    2.7848    0.0300 H   0  0  0  0  0  0  0  0  0  0  0  0
  -10.3842    0.5729    0.6193 H   0  0  0  0  0  0  0  0  0  0  0  0
   -8.9190   -1.4118    0.7464 H   0  0  0  0  0  0  0  0  0  0  0  0
   -6.7072   -2.3416    0.5490 H   0  0  0  0  0  0  0  0  0  0  0  0
   -2.4408   -2.0282    0.0732 H   0  0  0  0  0  0  0  0  0  0  0  0
    0.4100   -2.5200    0.0669 H   0  0  0  0  0  0  0  0  0  0  0  0
    2.7566   -2.5535    0.0188 H   0  0  0  0  0  0  0  0  0  0  0  0
    3.5221   -1.2189    0.8881 H   0  0  0  0  0  0  0  0  0  0  0  0
    3.4953   -1.2407   -0.9007 H   0  0  0  0  0  0  0  0  0  0  0  0
  1  2  1  0  0  0  0
  1 24  1  0  0  0  0
  1 25  1  0  0  0  0
  1 26  1  0  0  0  0
  2  3  1  0  0  0  0
  2 22  2  0  0  0  0
  3  4  2  0  0  0  0
  3 27  1  0  0  0  0
  4  5  1  0  0  0  0
  4 20  1  0  0  0  0
  5  6  2  0  0  0  0
  6  7  1  0  0  0  0
  6 19  1  0  0  0  0
  7  8  2  0  0  0  0
  7 17  1  0  0  0  0
  8  9  1  0  0  0  0
  8 10  1  0  0  0  0
  9 28  1  0  0  0  0
  9 29  1  0  0  0  0
 10 11  1  0  0  0  0
 10 15  2  0  0  0  0
 11 12  2  0  0  0  0
 11 30  1  0  0  0  0
 12 13  1  0  0  0  0
 12 31  1  0  0  0  0
 13 14  2  0  0  0  0
 13 32  1  0  0  0  0
 14 15  1  0  0  0  0
 14 33  1  0  0  0  0
 15 16  1  0  0  0  0
 16 17  1  0  0  0  0
 16 34  1  0  0  0  0
 17 18  2  0  0  0  0
 19 20  1  0  0  0  0
 19 35  1  0  0  0  0
 20 21  2  0  0  0  0
 21 22  1  0  0  0  0
 21 36  1  0  0  0  0
 22 23  1  0  0  0  0
 23 37  1  0  0  0  0
 23 38  1  0  0  0  0
 23 39  1  0  0  0  0
M  END
$$$$
