CHEMBL3221553
 OpenBabel04072215363D

 49 50  0  0  0  0  0  0  0  0999 V2000
    2.5038   -1.6018   -2.6837 C   0  0  0  0  0  0  0  0  0  0  0  0
    2.6046   -0.3306   -2.1544 O   0  0  0  0  0  0  0  0  0  0  0  0
    3.7646    0.3748   -2.1194 C   0  0  0  0  0  0  0  0  0  0  0  0
    4.7775   -0.1122   -2.5993 O   0  0  0  0  0  0  0  0  0  0  0  0
    3.7821    1.5904   -1.4932 N   0  0  0  0  0  0  0  0  0  0  0  0
    4.9183    2.4671   -1.3505 C   0  0  0  0  0  0  0  0  0  0  0  0
    6.0556    2.3660   -2.1866 C   0  0  0  0  0  0  0  0  0  0  0  0
    7.1511    3.2315   -2.0500 C   0  0  0  0  0  0  0  0  0  0  0  0
    8.2472    3.0926   -2.9616 N   0  0  0  0  0  0  0  0  0  0  0  0
    9.2194    4.1063   -3.2438 C   0  0  0  0  0  0  0  0  0  0  0  0
    9.0290    5.3666   -2.7657 N   0  0  0  0  0  0  0  0  0  0  0  0
    9.8921    6.3775   -3.0016 C   0  0  0  0  0  0  0  0  0  0  0  0
   10.9995    6.1573   -3.7429 N   0  0  0  0  0  0  0  0  0  0  0  0
   11.2537    4.9310   -4.2688 C   0  0  0  0  0  0  0  0  0  0  0  0
   12.4008    4.7456   -5.0302 C   0  0  0  0  0  0  0  0  0  0  0  0
   12.7073    3.4918   -5.6107 C   0  0  0  0  0  0  0  0  0  0  0  0
   13.8441    3.3320   -6.3533 O   0  0  0  0  0  0  0  0  0  0  0  0
   14.7781    4.3377   -6.5737 C   0  0  0  0  0  0  0  0  0  0  0  0
   11.8004    2.4172   -5.3937 C   0  0  0  0  0  0  0  0  0  0  0  0
   11.9302    1.1482   -5.8926 O   0  0  0  0  0  0  0  0  0  0  0  0
   12.8914    0.5870   -6.6955 C   0  0  0  0  0  0  0  0  0  0  0  0
   10.6600    2.6148   -4.6183 C   0  0  0  0  0  0  0  0  0  0  0  0
   10.3656    3.8599   -4.0446 C   0  0  0  0  0  0  0  0  0  0  0  0
    7.1249    4.1894   -1.0200 C   0  0  0  0  0  0  0  0  0  0  0  0
    6.0237    4.3162   -0.1984 C   0  0  0  0  0  0  0  0  0  0  0  0
    4.9107    3.4848   -0.3551 C   0  0  0  0  0  0  0  0  0  0  0  0
    3.7478    3.6965    0.5723 C   0  0  0  0  0  0  0  0  0  0  0  0
    0.2232    2.6684    0.6471 Cl  0  0  0  0  0  0  0  0  0  0  0  0
    1.4561   -1.9542   -2.5964 H   0  0  0  0  0  0  0  0  0  0  0  0
    3.1634   -2.2991   -2.1231 H   0  0  0  0  0  0  0  0  0  0  0  0
    2.7946   -1.5984   -3.7566 H   0  0  0  0  0  0  0  0  0  0  0  0
    2.8966    1.8721   -1.0503 H   0  0  0  0  0  0  0  0  0  0  0  0
    6.1078    1.6513   -2.9871 H   0  0  0  0  0  0  0  0  0  0  0  0
    8.2614    2.2242   -3.5118 H   0  0  0  0  0  0  0  0  0  0  0  0
    9.6928    7.3586   -2.5954 H   0  0  0  0  0  0  0  0  0  0  0  0
   13.0508    5.6007   -5.1633 H   0  0  0  0  0  0  0  0  0  0  0  0
   15.6086    3.9508   -7.1954 H   0  0  0  0  0  0  0  0  0  0  0  0
   15.2009    4.6929   -5.6075 H   0  0  0  0  0  0  0  0  0  0  0  0
   14.3098    5.1940   -7.1070 H   0  0  0  0  0  0  0  0  0  0  0  0
   12.5913   -0.4679   -6.8841 H   0  0  0  0  0  0  0  0  0  0  0  0
   13.8720    0.5791   -6.1812 H   0  0  0  0  0  0  0  0  0  0  0  0
   12.9386    1.1078   -7.6724 H   0  0  0  0  0  0  0  0  0  0  0  0
   10.0204    1.7580   -4.4827 H   0  0  0  0  0  0  0  0  0  0  0  0
    7.9503    4.8513   -0.8170 H   0  0  0  0  0  0  0  0  0  0  0  0
    6.0459    5.0762    0.5722 H   0  0  0  0  0  0  0  0  0  0  0  0
    3.9402    4.5217    1.2920 H   0  0  0  0  0  0  0  0  0  0  0  0
    3.5667    2.7725    1.1567 H   0  0  0  0  0  0  0  0  0  0  0  0
    2.8471    3.9712   -0.0140 H   0  0  0  0  0  0  0  0  0  0  0  0
    1.3214    1.9455    1.0492 H   0  0  0  0  0  0  0  0  0  0  0  0
  1  2  1  0  0  0  0
  1 29  1  0  0  0  0
  1 30  1  0  0  0  0
  1 31  1  0  0  0  0
  2  3  1  0  0  0  0
  3  4  2  0  0  0  0
  3  5  1  0  0  0  0
  5  6  1  0  0  0  0
  5 32  1  0  0  0  0
  6  7  1  0  0  0  0
  6 26  2  0  0  0  0
  7  8  2  0  0  0  0
  7 33  1  0  0  0  0
  8  9  1  0  0  0  0
  8 24  1  0  0  0  0
  9 10  1  0  0  0  0
  9 34  1  0  0  0  0
 10 11  1  0  0  0  0
 10 23  2  0  0  0  0
 11 12  2  0  0  0  0
 12 13  1  0  0  0  0
 12 35  1  0  0  0  0
 13 14  2  0  0  0  0
 14 15  1  0  0  0  0
 14 23  1  0  0  0  0
 15 16  2  0  0  0  0
 15 36  1  0  0  0  0
 16 17  1  0  0  0  0
 16 19  1  0  0  0  0
 17 18  1  0  0  0  0
 18 37  1  0  0  0  0
 18 38  1  0  0  0  0
 18 39  1  0  0  0  0
 19 20  1  0  0  0  0
 19 22  2  0  0  0  0
 20 21  1  0  0  0  0
 21 40  1  0  0  0  0
 21 41  1  0  0  0  0
 21 42  1  0  0  0  0
 22 23  1  0  0  0  0
 22 43  1  0  0  0  0
 24 25  2  0  0  0  0
 24 44  1  0  0  0  0
 25 26  1  0  0  0  0
 25 45  1  0  0  0  0
 26 27  1  0  0  0  0
 27 46  1  0  0  0  0
 27 47  1  0  0  0  0
 27 48  1  0  0  0  0
 28 49  1  0  0  0  0
M  END
$$$$
