CHEMBL370006
 OpenBabel04072215373D

 30 32  0  0  0  0  0  0  0  0999 V2000
    0.9438   -0.0302   -0.1135 C   0  0  0  0  0  0  0  0  0  0  0  0
    2.4347    0.1037   -0.0317 C   0  0  0  0  0  0  0  0  0  0  0  0
    3.3265   -1.3554    0.0510 S   0  0  0  0  0  0  0  0  0  0  0  0
    4.8061   -0.5391    0.0349 C   0  0  0  0  0  0  0  0  0  0  0  0
    5.9403   -1.2615    0.0411 N   0  0  0  0  0  0  0  0  0  0  0  0
    7.0272   -0.4982    0.0260 C   0  0  0  0  0  0  0  0  0  0  0  0
    7.0750    0.8383    0.0388 N   0  0  0  0  0  0  0  0  0  0  0  0
    5.9188    1.5318    0.0468 C   0  0  0  0  0  0  0  0  0  0  0  0
    6.0819    2.9083    0.1041 N   0  0  0  0  0  0  0  0  0  0  0  0
    4.6828    0.8419    0.0216 C   0  0  0  0  0  0  0  0  0  0  0  0
    3.2631    1.2317   -0.0200 C   0  0  0  0  0  0  0  0  0  0  0  0
    2.7038    2.5996   -0.1047 C   0  0  0  0  0  0  0  0  0  0  0  0
    3.2943    3.5698   -0.9226 C   0  0  0  0  0  0  0  0  0  0  0  0
    2.7854    4.8763   -0.9886 C   0  0  0  0  0  0  0  0  0  0  0  0
    1.6467    5.2391   -0.2734 C   0  0  0  0  0  0  0  0  0  0  0  0
    1.0441    6.4834   -0.4798 N   0  0  0  0  0  0  0  0  0  0  0  0
    0.9949    4.2540    0.4649 C   0  0  0  0  0  0  0  0  0  0  0  0
    1.5484    2.9726    0.5966 C   0  0  0  0  0  0  0  0  0  0  0  0
    0.6306   -1.0548   -0.3470 H   0  0  0  0  0  0  0  0  0  0  0  0
    0.5353    0.6159   -0.8965 H   0  0  0  0  0  0  0  0  0  0  0  0
    0.4791    0.2245    0.8447 H   0  0  0  0  0  0  0  0  0  0  0  0
    7.9827   -1.0139    0.0097 H   0  0  0  0  0  0  0  0  0  0  0  0
    7.0465    3.1302    0.3241 H   0  0  0  0  0  0  0  0  0  0  0  0
    5.3828    3.3855    0.6663 H   0  0  0  0  0  0  0  0  0  0  0  0
    4.1637    3.3325   -1.5325 H   0  0  0  0  0  0  0  0  0  0  0  0
    3.2871    5.6037   -1.6223 H   0  0  0  0  0  0  0  0  0  0  0  0
    1.6988    7.2259   -0.7065 H   0  0  0  0  0  0  0  0  0  0  0  0
    0.3859    6.7564    0.2419 H   0  0  0  0  0  0  0  0  0  0  0  0
    0.0517    4.4748    0.9578 H   0  0  0  0  0  0  0  0  0  0  0  0
    1.0352    2.2750    1.2496 H   0  0  0  0  0  0  0  0  0  0  0  0
  1  2  1  0  0  0  0
  1 19  1  0  0  0  0
  1 20  1  0  0  0  0
  1 21  1  0  0  0  0
  2  3  1  0  0  0  0
  2 11  2  0  0  0  0
  3  4  1  0  0  0  0
  4  5  1  0  0  0  0
  4 10  2  0  0  0  0
  5  6  2  0  0  0  0
  6  7  1  0  0  0  0
  6 22  1  0  0  0  0
  7  8  2  0  0  0  0
  8  9  1  0  0  0  0
  8 10  1  0  0  0  0
  9 23  1  0  0  0  0
  9 24  1  0  0  0  0
 10 11  1  0  0  0  0
 11 12  1  0  0  0  0
 12 13  1  0  0  0  0
 12 18  2  0  0  0  0
 13 14  2  0  0  0  0
 13 25  1  0  0  0  0
 14 15  1  0  0  0  0
 14 26  1  0  0  0  0
 15 16  1  0  0  0  0
 15 17  2  0  0  0  0
 16 27  1  0  0  0  0
 16 28  1  0  0  0  0
 17 18  1  0  0  0  0
 17 29  1  0  0  0  0
 18 30  1  0  0  0  0
M  END
$$$$
