CHEMBL1992581
 OpenBabel04072215363D

 42 44  0  0  0  0  0  0  0  0999 V2000
    2.1432   -1.3080    0.2815 O   0  0  0  0  0  0  0  0  0  0  0  0
    2.4339   -0.1211    0.1555 C   0  0  0  0  0  0  0  0  0  0  0  0
    3.0602    0.3882   -1.1326 C   0  0  0  0  0  0  0  0  0  0  0  0
    2.0550    0.7676   -2.1924 C   0  0  0  0  0  0  0  0  0  0  0  0
    2.0825    2.0401   -2.7681 C   0  0  0  0  0  0  0  0  0  0  0  0
    1.1814    2.3821   -3.7843 C   0  0  0  0  0  0  0  0  0  0  0  0
    0.2166    1.4753   -4.2580 C   0  0  0  0  0  0  0  0  0  0  0  0
   -0.7477    1.8555   -5.3153 C   0  0  0  0  0  0  0  0  0  0  0  0
   -1.2381    0.9416   -6.2598 C   0  0  0  0  0  0  0  0  0  0  0  0
   -2.1521    1.3418   -7.2353 C   0  0  0  0  0  0  0  0  0  0  0  0
   -2.5556    2.6649   -7.2574 C   0  0  0  0  0  0  0  0  0  0  0  0
   -2.1182    3.5874   -6.3798 N   0  0  0  0  0  0  0  0  0  0  0  0
   -1.2381    3.1600   -5.4385 C   0  0  0  0  0  0  0  0  0  0  0  0
    0.2107    0.1953   -3.6737 C   0  0  0  0  0  0  0  0  0  0  0  0
    1.1177   -0.1561   -2.6661 C   0  0  0  0  0  0  0  0  0  0  0  0
    2.2366    0.8721    1.1056 N   0  0  0  0  0  0  0  0  0  0  0  0
    1.7913    0.6766    2.4308 C   0  0  0  0  0  0  0  0  0  0  0  0
    1.7578   -0.5709    3.0478 C   0  0  0  0  0  0  0  0  0  0  0  0
    1.2873   -0.7161    4.3598 C   0  0  0  0  0  0  0  0  0  0  0  0
    0.8394    0.3855    5.0857 C   0  0  0  0  0  0  0  0  0  0  0  0
    0.1860    0.3195    6.7500 S   0  0  0  0  0  0  0  0  0  0  0  0
    0.2055   -1.4453    7.1355 C   0  0  0  0  0  0  0  0  0  0  0  0
    1.4773   -1.9213    7.1400 F   0  0  0  0  0  0  0  0  0  0  0  0
   -0.2784   -1.6467    8.3885 F   0  0  0  0  0  0  0  0  0  0  0  0
    0.9041    1.6464    4.4748 C   0  0  0  0  0  0  0  0  0  0  0  0
    1.3855    1.7939    3.1658 C   0  0  0  0  0  0  0  0  0  0  0  0
    3.7139   -0.4009   -1.5245 H   0  0  0  0  0  0  0  0  0  0  0  0
    3.7184    1.2333   -0.8992 H   0  0  0  0  0  0  0  0  0  0  0  0
    2.8137    2.7793   -2.4475 H   0  0  0  0  0  0  0  0  0  0  0  0
    1.2627    3.3782   -4.2164 H   0  0  0  0  0  0  0  0  0  0  0  0
   -0.9074   -0.0951   -6.2560 H   0  0  0  0  0  0  0  0  0  0  0  0
   -2.5362    0.6370   -7.9642 H   0  0  0  0  0  0  0  0  0  0  0  0
   -3.2606    3.0261   -7.9997 H   0  0  0  0  0  0  0  0  0  0  0  0
   -0.9382    3.9421   -4.7458 H   0  0  0  0  0  0  0  0  0  0  0  0
   -0.5122   -0.5541   -3.9898 H   0  0  0  0  0  0  0  0  0  0  0  0
    1.0812   -1.1648   -2.2542 H   0  0  0  0  0  0  0  0  0  0  0  0
    2.3088    1.8313    0.7892 H   0  0  0  0  0  0  0  0  0  0  0  0
    2.1101   -1.4655    2.5410 H   0  0  0  0  0  0  0  0  0  0  0  0
    1.3009   -1.7198    4.7735 H   0  0  0  0  0  0  0  0  0  0  0  0
   -0.3985   -2.0326    6.4372 H   0  0  0  0  0  0  0  0  0  0  0  0
    0.5730    2.5342    5.0129 H   0  0  0  0  0  0  0  0  0  0  0  0
    1.4131    2.7903    2.7330 H   0  0  0  0  0  0  0  0  0  0  0  0
  1  2  2  0  0  0  0
  2  3  1  0  0  0  0
  2 16  1  0  0  0  0
  3  4  1  0  0  0  0
  3 27  1  0  0  0  0
  3 28  1  0  0  0  0
  4  5  1  0  0  0  0
  4 15  2  0  0  0  0
  5  6  2  0  0  0  0
  5 29  1  0  0  0  0
  6  7  1  0  0  0  0
  6 30  1  0  0  0  0
  7  8  1  0  0  0  0
  7 14  2  0  0  0  0
  8  9  1  0  0  0  0
  8 13  2  0  0  0  0
  9 10  2  0  0  0  0
  9 31  1  0  0  0  0
 10 11  1  0  0  0  0
 10 32  1  0  0  0  0
 11 12  2  0  0  0  0
 11 33  1  0  0  0  0
 12 13  1  0  0  0  0
 13 34  1  0  0  0  0
 14 15  1  0  0  0  0
 14 35  1  0  0  0  0
 15 36  1  0  0  0  0
 16 17  1  0  0  0  0
 16 37  1  0  0  0  0
 17 18  1  0  0  0  0
 17 26  2  0  0  0  0
 18 19  2  0  0  0  0
 18 38  1  0  0  0  0
 19 20  1  0  0  0  0
 19 39  1  0  0  0  0
 20 21  1  0  0  0  0
 20 25  2  0  0  0  0
 21 22  1  0  0  0  0
 22 23  1  0  0  0  0
 22 24  1  0  0  0  0
 22 40  1  0  0  0  0
 25 26  1  0  0  0  0
 25 41  1  0  0  0  0
 26 42  1  0  0  0  0
M  END
$$$$
