CHEMBL378440
 OpenBabel04072215373D

 68 73  0  0  0  0  0  0  0  0999 V2000
  -13.3715   -5.1821    8.4161 C   0  0  0  0  0  0  0  0  0  0  0  0
  -12.5781   -4.6361    7.2698 C   0  0  0  0  0  0  0  0  0  0  0  0
  -13.1279   -3.6119    6.4922 C   0  0  0  0  0  0  0  0  0  0  0  0
  -12.4284   -3.0716    5.4260 C   0  0  0  0  0  0  0  0  0  0  0  0
  -11.1453   -3.5726    5.1311 C   0  0  0  0  0  0  0  0  0  0  0  0
  -10.5556   -4.5963    5.8824 C   0  0  0  0  0  0  0  0  0  0  0  0
   -9.2585   -5.0799    5.6276 N   0  0  0  0  0  0  0  0  0  0  0  0
   -8.4030   -4.6382    4.6701 C   0  0  0  0  0  0  0  0  0  0  0  0
   -8.5860   -3.7271    3.8460 O   0  0  0  0  0  0  0  0  0  0  0  0
   -7.2308   -5.3359    4.7288 O   0  0  0  0  0  0  0  0  0  0  0  0
   -6.2610   -4.9415    3.7412 C   0  0  0  0  0  0  0  0  0  0  0  0
   -6.6112   -5.5998    2.4499 C   0  0  0  0  0  0  0  0  0  0  0  0
   -6.8880   -4.9481    1.2744 C   0  0  0  0  0  0  0  0  0  0  0  0
   -7.2423   -5.8693    0.2790 C   0  0  0  0  0  0  0  0  0  0  0  0
   -7.5173   -7.1527    0.7484 C   0  0  0  0  0  0  0  0  0  0  0  0
   -8.2694   -8.2275   -0.0611 C   0  0  0  0  0  0  0  0  0  0  0  0
   -8.1096   -9.5594    0.0159 N   0  0  0  0  0  0  0  0  0  0  0  0
   -8.5320  -10.0193   -1.2144 N   0  0  0  0  0  0  0  0  0  0  0  0
   -8.9585   -9.0406   -2.0891 C   0  0  0  0  0  0  0  0  0  0  0  0
   -9.0285   -7.9311   -1.2283 C   0  0  0  0  0  0  0  0  0  0  0  0
   -8.9970   -6.6965   -2.0226 C   0  0  0  0  0  0  0  0  0  0  0  0
   -7.8546   -7.2665   -2.8881 C   0  0  0  0  0  0  0  0  0  0  0  0
   -6.4794   -7.4471   -2.5633 C   0  0  0  0  0  0  0  0  0  0  0  0
   -5.6814   -8.2862   -3.3534 C   0  0  0  0  0  0  0  0  0  0  0  0
   -4.4225   -8.9829   -2.8484 C   0  0  0  0  0  0  0  0  0  0  0  0
   -3.3333   -9.0718   -3.8322 N   0  0  0  0  0  0  0  0  0  0  0  0
   -2.8005   -7.7372   -4.1478 C   0  0  0  0  0  0  0  0  0  0  0  0
   -1.6486   -7.8122   -5.1713 C   0  0  0  0  0  0  0  0  0  0  0  0
   -0.5185   -8.6714   -4.7701 N   0  0  0  0  0  0  0  0  0  0  0  0
    0.2806   -8.0450   -3.7202 C   0  0  0  0  0  0  0  0  0  0  0  0
   -1.0425   -9.9894   -4.3551 C   0  0  0  0  0  0  0  0  0  0  0  0
   -2.2350   -9.9458   -3.3601 C   0  0  0  0  0  0  0  0  0  0  0  0
   -6.2856   -8.7294   -4.5115 C   0  0  0  0  0  0  0  0  0  0  0  0
   -7.6662   -8.9504   -4.4651 C   0  0  0  0  0  0  0  0  0  0  0  0
   -8.3836   -8.4523   -3.3981 C   0  0  0  0  0  0  0  0  0  0  0  0
   -6.7575   -7.3150    2.2748 S   0  0  0  0  0  0  0  0  0  0  0  0
  -11.2901   -5.1107    6.9662 C   0  0  0  0  0  0  0  0  0  0  0  0
  -14.3698   -4.7167    8.4687 H   0  0  0  0  0  0  0  0  0  0  0  0
  -12.8674   -4.9736    9.3642 H   0  0  0  0  0  0  0  0  0  0  0  0
  -13.5177   -6.2592    8.3071 H   0  0  0  0  0  0  0  0  0  0  0  0
  -14.1133   -3.2192    6.7026 H   0  0  0  0  0  0  0  0  0  0  0  0
  -12.8401   -2.2949    4.8115 H   0  0  0  0  0  0  0  0  0  0  0  0
  -10.6387   -3.1315    4.2779 H   0  0  0  0  0  0  0  0  0  0  0  0
   -8.8979   -5.8301    6.1895 H   0  0  0  0  0  0  0  0  0  0  0  0
   -5.2606   -5.2277    4.0685 H   0  0  0  0  0  0  0  0  0  0  0  0
   -6.2481   -3.8448    3.6330 H   0  0  0  0  0  0  0  0  0  0  0  0
   -6.8508   -3.8720    1.1239 H   0  0  0  0  0  0  0  0  0  0  0  0
   -7.3362   -5.5112   -0.7293 H   0  0  0  0  0  0  0  0  0  0  0  0
   -8.7079  -11.0181   -1.2941 H   0  0  0  0  0  0  0  0  0  0  0  0
   -8.9102   -5.7399   -1.5348 H   0  0  0  0  0  0  0  0  0  0  0  0
   -9.9171   -6.6197   -2.6226 H   0  0  0  0  0  0  0  0  0  0  0  0
   -6.1117   -7.2618   -1.5534 H   0  0  0  0  0  0  0  0  0  0  0  0
   -4.7454  -10.0087   -2.6041 H   0  0  0  0  0  0  0  0  0  0  0  0
   -4.0769   -8.5465   -1.9033 H   0  0  0  0  0  0  0  0  0  0  0  0
   -2.4616   -7.2340   -3.2340 H   0  0  0  0  0  0  0  0  0  0  0  0
   -3.5886   -7.1166   -4.5872 H   0  0  0  0  0  0  0  0  0  0  0  0
   -1.2939   -6.7971   -5.3904 H   0  0  0  0  0  0  0  0  0  0  0  0
   -2.0463   -8.1960   -6.1199 H   0  0  0  0  0  0  0  0  0  0  0  0
    0.6516   -7.0699   -4.0571 H   0  0  0  0  0  0  0  0  0  0  0  0
    1.1648   -8.6529   -3.5010 H   0  0  0  0  0  0  0  0  0  0  0  0
   -0.2692   -7.8930   -2.7862 H   0  0  0  0  0  0  0  0  0  0  0  0
   -0.2323  -10.6030   -3.9413 H   0  0  0  0  0  0  0  0  0  0  0  0
   -1.3709  -10.5156   -5.2618 H   0  0  0  0  0  0  0  0  0  0  0  0
   -1.8702   -9.6184   -2.3773 H   0  0  0  0  0  0  0  0  0  0  0  0
   -2.6054  -10.9727   -3.2368 H   0  0  0  0  0  0  0  0  0  0  0  0
   -5.6927   -8.8987   -5.4061 H   0  0  0  0  0  0  0  0  0  0  0  0
   -8.1637   -8.9843   -5.4385 H   0  0  0  0  0  0  0  0  0  0  0  0
  -10.8639   -5.9236    7.5781 H   0  0  0  0  0  0  0  0  0  0  0  0
  1  2  1  0  0  0  0
  1 38  1  0  0  0  0
  1 39  1  0  0  0  0
  1 40  1  0  0  0  0
  2  3  1  0  0  0  0
  2 37  2  0  0  0  0
  3  4  2  0  0  0  0
  3 41  1  0  0  0  0
  4  5  1  0  0  0  0
  4 42  1  0  0  0  0
  5  6  2  0  0  0  0
  5 43  1  0  0  0  0
  6  7  1  0  0  0  0
  6 37  1  0  0  0  0
  7  8  1  0  0  0  0
  7 44  1  0  0  0  0
  8  9  2  0  0  0  0
  8 10  1  0  0  0  0
 10 11  1  0  0  0  0
 11 12  1  0  0  0  0
 11 45  1  0  0  0  0
 11 46  1  0  0  0  0
 12 13  2  0  0  0  0
 12 36  1  0  0  0  0
 13 14  1  0  0  0  0
 13 47  1  0  0  0  0
 14 15  2  0  0  0  0
 14 48  1  0  0  0  0
 15 16  1  0  0  0  0
 15 36  1  0  0  0  0
 16 17  2  0  0  0  0
 16 20  1  0  0  0  0
 17 18  1  0  0  0  0
 18 19  1  0  0  0  0
 18 49  1  0  0  0  0
 19 20  2  0  0  0  0
 19 35  1  0  0  0  0
 20 21  1  0  0  0  0
 21 22  1  0  0  0  0
 21 50  1  0  0  0  0
 21 51  1  0  0  0  0
 22 23  1  0  0  0  0
 22 35  2  0  0  0  0
 23 24  2  0  0  0  0
 23 52  1  0  0  0  0
 24 25  1  0  0  0  0
 24 33  1  0  0  0  0
 25 26  1  0  0  0  0
 25 53  1  0  0  0  0
 25 54  1  0  0  0  0
 26 27  1  0  0  0  0
 26 32  1  0  0  0  0
 27 28  1  0  0  0  0
 27 55  1  0  0  0  0
 27 56  1  0  0  0  0
 28 29  1  0  0  0  0
 28 57  1  0  0  0  0
 28 58  1  0  0  0  0
 29 30  1  0  0  0  0
 29 31  1  0  0  0  0
 30 59  1  0  0  0  0
 30 60  1  0  0  0  0
 30 61  1  0  0  0  0
 31 32  1  0  0  0  0
 31 62  1  0  0  0  0
 31 63  1  0  0  0  0
 32 64  1  0  0  0  0
 32 65  1  0  0  0  0
 33 34  2  0  0  0  0
 33 66  1  0  0  0  0
 34 35  1  0  0  0  0
 34 67  1  0  0  0  0
 37 68  1  0  0  0  0
M  END
$$$$
