CHEMBL261592
 OpenBabel04072215363D

 49 53  0  0  0  0  0  0  0  0999 V2000
    5.1211   -1.9016    4.9084 C   0  0  0  0  0  0  0  0  0  0  0  0
    5.9323   -1.9006    3.6680 C   0  0  0  0  0  0  0  0  0  0  0  0
    5.6239   -2.2905    2.3764 C   0  0  0  0  0  0  0  0  0  0  0  0
    6.7091   -1.9150    1.5388 C   0  0  0  0  0  0  0  0  0  0  0  0
    6.9731   -1.9310    0.1570 C   0  0  0  0  0  0  0  0  0  0  0  0
    8.1768   -1.3766   -0.3135 C   0  0  0  0  0  0  0  0  0  0  0  0
    8.3941   -1.3228   -1.7077 N   0  0  0  0  0  0  0  0  0  0  0  0
    9.4429   -0.7601   -2.4022 C   0  0  0  0  0  0  0  0  0  0  0  0
   10.1924    0.1299   -1.8170 N   0  0  0  0  0  0  0  0  0  0  0  0
   11.2496    0.6955   -2.4632 C   0  0  0  0  0  0  0  0  0  0  0  0
   11.6440    0.4308   -3.6603 N   0  0  0  0  0  0  0  0  0  0  0  0
   10.8816   -0.4698   -4.2910 N   0  0  0  0  0  0  0  0  0  0  0  0
   11.1130   -0.8782   -5.5643 C   0  0  0  0  0  0  0  0  0  0  0  0
   10.0794   -1.6978   -5.9440 C   0  0  0  0  0  0  0  0  0  0  0  0
    9.9527   -2.1903   -7.3524 C   0  0  0  0  0  0  0  0  0  0  0  0
   10.8652   -1.9792   -8.2855 N   0  0  0  0  0  0  0  0  0  0  0  0
   10.3696   -2.4932   -9.4648 N   0  0  0  0  0  0  0  0  0  0  0  0
    9.1850   -2.9757   -9.1803 C   0  0  0  0  0  0  0  0  0  0  0  0
    8.1788   -3.5812  -10.0704 C   0  0  0  0  0  0  0  0  0  0  0  0
    8.8544   -2.8436   -7.8613 O   0  0  0  0  0  0  0  0  0  0  0  0
    9.2364   -1.9154   -4.7902 C   0  0  0  0  0  0  0  0  0  0  0  0
    8.0625   -2.8764   -4.7824 C   0  0  0  0  0  0  0  0  0  0  0  0
    8.2170   -4.0222   -3.7813 C   0  0  0  0  0  0  0  0  0  0  0  0
    6.6989   -2.1918   -4.7147 C   0  0  0  0  0  0  0  0  0  0  0  0
    9.7651   -1.0896   -3.7810 C   0  0  0  0  0  0  0  0  0  0  0  0
    9.0545   -0.8790    0.6586 C   0  0  0  0  0  0  0  0  0  0  0  0
    8.8698   -0.8674    2.0070 N   0  0  0  0  0  0  0  0  0  0  0  0
    7.6830   -1.3773    2.3667 C   0  0  0  0  0  0  0  0  0  0  0  0
    7.2204   -1.4191    3.6513 N   0  0  0  0  0  0  0  0  0  0  0  0
    4.1018   -2.2463    4.7083 H   0  0  0  0  0  0  0  0  0  0  0  0
    5.0557   -0.8862    5.3148 H   0  0  0  0  0  0  0  0  0  0  0  0
    5.5643   -2.5515    5.6681 H   0  0  0  0  0  0  0  0  0  0  0  0
    4.6856   -2.7270    2.0590 H   0  0  0  0  0  0  0  0  0  0  0  0
    6.2308   -2.3341   -0.5222 H   0  0  0  0  0  0  0  0  0  0  0  0
    7.7293   -1.8560   -2.2386 H   0  0  0  0  0  0  0  0  0  0  0  0
   11.8176    1.4462   -1.8824 H   0  0  0  0  0  0  0  0  0  0  0  0
   11.9658   -0.5017   -6.1141 H   0  0  0  0  0  0  0  0  0  0  0  0
    8.6341   -3.8786  -11.0189 H   0  0  0  0  0  0  0  0  0  0  0  0
    7.3838   -2.8596  -10.2837 H   0  0  0  0  0  0  0  0  0  0  0  0
    7.7302   -4.4666   -9.6124 H   0  0  0  0  0  0  0  0  0  0  0  0
    8.0560   -3.3907   -5.7487 H   0  0  0  0  0  0  0  0  0  0  0  0
    8.3195   -3.6921   -2.7482 H   0  0  0  0  0  0  0  0  0  0  0  0
    9.1109   -4.6121   -4.0152 H   0  0  0  0  0  0  0  0  0  0  0  0
    7.3544   -4.6957   -3.8300 H   0  0  0  0  0  0  0  0  0  0  0  0
    6.4978   -1.7168   -3.7540 H   0  0  0  0  0  0  0  0  0  0  0  0
    5.9008   -2.9234   -4.8901 H   0  0  0  0  0  0  0  0  0  0  0  0
    6.6107   -1.4200   -5.4880 H   0  0  0  0  0  0  0  0  0  0  0  0
   10.0101   -0.4429    0.3858 H   0  0  0  0  0  0  0  0  0  0  0  0
    7.7432   -1.0663    4.4395 H   0  0  0  0  0  0  0  0  0  0  0  0
  1  2  1  0  0  0  0
  1 30  1  0  0  0  0
  1 31  1  0  0  0  0
  1 32  1  0  0  0  0
  2  3  2  0  0  0  0
  2 29  1  0  0  0  0
  3  4  1  0  0  0  0
  3 33  1  0  0  0  0
  4  5  1  0  0  0  0
  4 28  2  0  0  0  0
  5  6  2  0  0  0  0
  5 34  1  0  0  0  0
  6  7  1  0  0  0  0
  6 26  1  0  0  0  0
  7  8  1  0  0  0  0
  7 35  1  0  0  0  0
  8  9  2  0  0  0  0
  8 25  1  0  0  0  0
  9 10  1  0  0  0  0
 10 11  2  0  0  0  0
 10 36  1  0  0  0  0
 11 12  1  0  0  0  0
 12 13  1  0  0  0  0
 12 25  1  0  0  0  0
 13 14  2  0  0  0  0
 13 37  1  0  0  0  0
 14 15  1  0  0  0  0
 14 21  1  0  0  0  0
 15 16  2  0  0  0  0
 15 20  1  0  0  0  0
 16 17  1  0  0  0  0
 17 18  2  0  0  0  0
 18 19  1  0  0  0  0
 18 20  1  0  0  0  0
 19 38  1  0  0  0  0
 19 39  1  0  0  0  0
 19 40  1  0  0  0  0
 21 22  1  0  0  0  0
 21 25  2  0  0  0  0
 22 23  1  0  0  0  0
 22 24  1  0  0  0  0
 22 41  1  0  0  0  0
 23 42  1  0  0  0  0
 23 43  1  0  0  0  0
 23 44  1  0  0  0  0
 24 45  1  0  0  0  0
 24 46  1  0  0  0  0
 24 47  1  0  0  0  0
 26 27  2  0  0  0  0
 26 48  1  0  0  0  0
 27 28  1  0  0  0  0
 28 29  1  0  0  0  0
 29 49  1  0  0  0  0
M  END
$$$$
