CHEMBL3977708
 OpenBabel04072215373D

 57 61  0  0  0  0  0  0  0  0999 V2000
    1.6845    0.9142    0.2331 C   0  0  0  0  0  0  0  0  0  0  0  0
    2.4731   -0.1500   -0.2920 O   0  0  0  0  0  0  0  0  0  0  0  0
    3.1714    0.1247   -1.4378 C   0  0  0  0  0  0  0  0  0  0  0  0
    2.8409    1.0982   -2.3645 C   0  0  0  0  0  0  0  0  0  0  0  0
    3.6238    1.2448   -3.5105 C   0  0  0  0  0  0  0  0  0  0  0  0
    3.3184    2.1161   -4.5289 O   0  0  0  0  0  0  0  0  0  0  0  0
    1.9468    2.5103   -4.6169 C   0  0  0  0  0  0  0  0  0  0  0  0
    4.8190    0.5026   -3.6565 C   0  0  0  0  0  0  0  0  0  0  0  0
    5.2267   -0.4358   -2.6928 C   0  0  0  0  0  0  0  0  0  0  0  0
    6.4730   -1.1437   -2.7697 N   0  0  0  0  0  0  0  0  0  0  0  0
    6.9111   -1.8691   -1.4696 C   0  0  0  0  0  0  0  0  0  0  0  0
    7.2067   -0.7152   -0.5253 C   0  0  0  0  0  0  0  0  0  0  0  0
    7.4601    0.2746    0.2847 C   0  0  0  0  0  0  0  0  0  0  0  0
    7.8083    1.3439    1.1588 C   0  0  0  0  0  0  0  0  0  0  0  0
    6.9844    1.7669    2.0933 N   0  0  0  0  0  0  0  0  0  0  0  0
    7.5702    2.8088    2.7867 C   0  0  0  0  0  0  0  0  0  0  0  0
    8.8393    3.1585    2.3791 C   0  0  0  0  0  0  0  0  0  0  0  0
    9.3261    2.1469    1.0840 S   0  0  0  0  0  0  0  0  0  0  0  0
    7.6691   -0.8202   -3.5221 C   0  0  0  0  0  0  0  0  0  0  0  0
    8.3670   -1.9236   -3.9839 C   0  0  0  0  0  0  0  0  0  0  0  0
    9.7122   -1.8242   -4.2613 C   0  0  0  0  0  0  0  0  0  0  0  0
   10.3773   -0.6192   -4.2405 C   0  0  0  0  0  0  0  0  0  0  0  0
   11.7086   -0.7151   -4.3515 N   0  0  0  0  0  0  0  0  0  0  0  0
   12.3763    0.4302   -4.5455 C   0  0  0  0  0  0  0  0  0  0  0  0
   11.7280    1.6358   -4.7212 C   0  0  0  0  0  0  0  0  0  0  0  0
   12.4300    2.5889   -5.5774 C   0  0  0  0  0  0  0  0  0  0  0  0
   13.0802    3.8203   -5.3572 C   0  0  0  0  0  0  0  0  0  0  0  0
   13.7411    4.2627   -6.4393 N   0  0  0  0  0  0  0  0  0  0  0  0
   13.5115    3.3132   -7.3638 N   0  0  0  0  0  0  0  0  0  0  0  0
   13.8340    3.5300   -8.7556 C   0  0  0  0  0  0  0  0  0  0  0  0
   12.8638    2.2285   -6.8519 C   0  0  0  0  0  0  0  0  0  0  0  0
   10.3808    1.7626   -4.4575 N   0  0  0  0  0  0  0  0  0  0  0  0
    9.6670    0.5988   -4.1336 C   0  0  0  0  0  0  0  0  0  0  0  0
    8.2901    0.4580   -3.6871 C   0  0  0  0  0  0  0  0  0  0  0  0
    4.3013   -0.6724   -1.6506 C   0  0  0  0  0  0  0  0  0  0  0  0
    1.4978    0.7039    1.2910 H   0  0  0  0  0  0  0  0  0  0  0  0
    0.7186    0.9561   -0.2796 H   0  0  0  0  0  0  0  0  0  0  0  0
    2.1981    1.8810    0.1787 H   0  0  0  0  0  0  0  0  0  0  0  0
    1.9743    1.7240   -2.1988 H   0  0  0  0  0  0  0  0  0  0  0  0
    1.8127    3.0791   -5.5417 H   0  0  0  0  0  0  0  0  0  0  0  0
    1.6652    3.1698   -3.7883 H   0  0  0  0  0  0  0  0  0  0  0  0
    1.2830    1.6385   -4.6624 H   0  0  0  0  0  0  0  0  0  0  0  0
    5.4144    0.6640   -4.5511 H   0  0  0  0  0  0  0  0  0  0  0  0
    7.8137   -2.4735   -1.6079 H   0  0  0  0  0  0  0  0  0  0  0  0
    6.1346   -2.5444   -1.1017 H   0  0  0  0  0  0  0  0  0  0  0  0
    7.0202    3.2850    3.5892 H   0  0  0  0  0  0  0  0  0  0  0  0
    9.4836    3.9344    2.7661 H   0  0  0  0  0  0  0  0  0  0  0  0
    7.8919   -2.8970   -4.0081 H   0  0  0  0  0  0  0  0  0  0  0  0
   10.2800   -2.7252   -4.4818 H   0  0  0  0  0  0  0  0  0  0  0  0
   13.4469    0.3179   -4.6796 H   0  0  0  0  0  0  0  0  0  0  0  0
   13.1295    4.4112   -4.4539 H   0  0  0  0  0  0  0  0  0  0  0  0
   13.8630    4.6036   -8.9562 H   0  0  0  0  0  0  0  0  0  0  0  0
   13.0451    3.0745   -9.3632 H   0  0  0  0  0  0  0  0  0  0  0  0
   14.7968    3.0674   -8.9851 H   0  0  0  0  0  0  0  0  0  0  0  0
   12.7318    1.3262   -7.4361 H   0  0  0  0  0  0  0  0  0  0  0  0
    7.7546    1.3703   -3.4246 H   0  0  0  0  0  0  0  0  0  0  0  0
    4.4477   -1.4642   -0.9248 H   0  0  0  0  0  0  0  0  0  0  0  0
  1  2  1  0  0  0  0
  1 36  1  0  0  0  0
  1 37  1  0  0  0  0
  1 38  1  0  0  0  0
  2  3  1  0  0  0  0
  3  4  1  0  0  0  0
  3 35  2  0  0  0  0
  4  5  2  0  0  0  0
  4 39  1  0  0  0  0
  5  6  1  0  0  0  0
  5  8  1  0  0  0  0
  6  7  1  0  0  0  0
  7 40  1  0  0  0  0
  7 41  1  0  0  0  0
  7 42  1  0  0  0  0
  8  9  2  0  0  0  0
  8 43  1  0  0  0  0
  9 10  1  0  0  0  0
  9 35  1  0  0  0  0
 10 11  1  0  0  0  0
 10 19  1  0  0  0  0
 11 12  1  0  0  0  0
 11 44  1  0  0  0  0
 11 45  1  0  0  0  0
 12 13  3  0  0  0  0
 13 14  1  0  0  0  0
 14 15  2  0  0  0  0
 14 18  1  0  0  0  0
 15 16  1  0  0  0  0
 16 17  2  0  0  0  0
 16 46  1  0  0  0  0
 17 18  1  0  0  0  0
 17 47  1  0  0  0  0
 19 20  1  0  0  0  0
 19 34  2  0  0  0  0
 20 21  2  0  0  0  0
 20 48  1  0  0  0  0
 21 22  1  0  0  0  0
 21 49  1  0  0  0  0
 22 23  1  0  0  0  0
 22 33  2  0  0  0  0
 23 24  2  0  0  0  0
 24 25  1  0  0  0  0
 24 50  1  0  0  0  0
 25 26  1  0  0  0  0
 25 32  2  0  0  0  0
 26 27  1  0  0  0  0
 26 31  2  0  0  0  0
 27 28  2  0  0  0  0
 27 51  1  0  0  0  0
 28 29  1  0  0  0  0
 29 30  1  0  0  0  0
 29 31  1  0  0  0  0
 30 52  1  0  0  0  0
 30 53  1  0  0  0  0
 30 54  1  0  0  0  0
 31 55  1  0  0  0  0
 32 33  1  0  0  0  0
 33 34  1  0  0  0  0
 34 56  1  0  0  0  0
 35 57  1  0  0  0  0
M  END
$$$$
