CHEMBL1938421
 OpenBabel04072215363D

 36 38  0  0  0  0  0  0  0  0999 V2000
    2.5559    1.7384   -3.3800 C   0  0  0  0  0  0  0  0  0  0  0  0
    1.0979    1.7890   -3.0706 C   0  0  0  0  0  0  0  0  0  0  0  0
    0.0937    1.3134   -3.8887 C   0  0  0  0  0  0  0  0  0  0  0  0
   -1.4623    1.5472   -3.2262 S   0  0  0  0  0  0  0  0  0  0  0  0
   -0.8382    2.2904   -1.8181 C   0  0  0  0  0  0  0  0  0  0  0  0
   -1.6725    2.8099   -0.7362 C   0  0  0  0  0  0  0  0  0  0  0  0
   -1.1806    3.3704    0.2455 O   0  0  0  0  0  0  0  0  0  0  0  0
   -3.1641    2.6675   -0.7964 C   0  0  0  0  0  0  0  0  0  0  0  0
   -3.9393    3.4210    0.0009 C   0  0  0  0  0  0  0  0  0  0  0  0
   -5.4019    3.3530   -0.0510 C   0  0  0  0  0  0  0  0  0  0  0  0
   -6.0799    2.4632    0.7834 C   0  0  0  0  0  0  0  0  0  0  0  0
   -7.4810    2.3754    0.7353 C   0  0  0  0  0  0  0  0  0  0  0  0
   -8.1976    1.4859    1.5585 C   0  0  0  0  0  0  0  0  0  0  0  0
   -9.5930    1.4078    1.4845 C   0  0  0  0  0  0  0  0  0  0  0  0
  -10.3662    0.4552    2.3470 C   0  0  0  0  0  0  0  0  0  0  0  0
  -10.2647    2.2347    0.5824 C   0  0  0  0  0  0  0  0  0  0  0  0
   -9.5505    3.1215   -0.2285 C   0  0  0  0  0  0  0  0  0  0  0  0
   -8.1678    3.2099   -0.1722 C   0  0  0  0  0  0  0  0  0  0  0  0
   -7.5329    4.0748   -0.9781 N   0  0  0  0  0  0  0  0  0  0  0  0
   -6.1842    4.1307   -0.9029 C   0  0  0  0  0  0  0  0  0  0  0  0
   -5.5033    5.2805   -1.9910 Cl  0  0  0  0  0  0  0  0  0  0  0  0
    0.5451    2.3497   -1.8735 C   0  0  0  0  0  0  0  0  0  0  0  0
    2.7437    1.2678   -4.3507 H   0  0  0  0  0  0  0  0  0  0  0  0
    3.0876    1.1631   -2.6152 H   0  0  0  0  0  0  0  0  0  0  0  0
    2.9745    2.7497   -3.4071 H   0  0  0  0  0  0  0  0  0  0  0  0
    0.1988    0.8397   -4.8561 H   0  0  0  0  0  0  0  0  0  0  0  0
   -3.5921    1.9676   -1.5018 H   0  0  0  0  0  0  0  0  0  0  0  0
   -3.5165    4.1415    0.6977 H   0  0  0  0  0  0  0  0  0  0  0  0
   -5.5196    1.8353    1.4735 H   0  0  0  0  0  0  0  0  0  0  0  0
   -7.6623    0.8477    2.2588 H   0  0  0  0  0  0  0  0  0  0  0  0
   -9.7059   -0.1175    3.0065 H   0  0  0  0  0  0  0  0  0  0  0  0
  -10.9162   -0.2567    1.7230 H   0  0  0  0  0  0  0  0  0  0  0  0
  -11.0747    1.0038    2.9760 H   0  0  0  0  0  0  0  0  0  0  0  0
  -11.3490    2.1959    0.5015 H   0  0  0  0  0  0  0  0  0  0  0  0
  -10.0893    3.7606   -0.9253 H   0  0  0  0  0  0  0  0  0  0  0  0
    1.1384    2.7931   -1.0800 H   0  0  0  0  0  0  0  0  0  0  0  0
  1  2  1  0  0  0  0
  1 23  1  0  0  0  0
  1 24  1  0  0  0  0
  1 25  1  0  0  0  0
  2  3  2  0  0  0  0
  2 22  1  0  0  0  0
  3  4  1  0  0  0  0
  3 26  1  0  0  0  0
  4  5  1  0  0  0  0
  5  6  1  0  0  0  0
  5 22  2  0  0  0  0
  6  7  2  0  0  0  0
  6  8  1  0  0  0  0
  8  9  2  0  0  0  0
  8 27  1  0  0  0  0
  9 10  1  0  0  0  0
  9 28  1  0  0  0  0
 10 11  1  0  0  0  0
 10 20  2  0  0  0  0
 11 12  2  0  0  0  0
 11 29  1  0  0  0  0
 12 13  1  0  0  0  0
 12 18  1  0  0  0  0
 13 14  2  0  0  0  0
 13 30  1  0  0  0  0
 14 15  1  0  0  0  0
 14 16  1  0  0  0  0
 15 31  1  0  0  0  0
 15 32  1  0  0  0  0
 15 33  1  0  0  0  0
 16 17  2  0  0  0  0
 16 34  1  0  0  0  0
 17 18  1  0  0  0  0
 17 35  1  0  0  0  0
 18 19  2  0  0  0  0
 19 20  1  0  0  0  0
 20 21  1  0  0  0  0
 22 36  1  0  0  0  0
M  END
$$$$
