CHEMBL1242118
 OpenBabel04072215363D

 39 42  0  0  0  0  0  0  0  0999 V2000
    3.7124   -0.1173    0.7325 C   0  0  0  0  0  0  0  0  0  0  0  0
    2.4469   -0.1387   -0.1284 C   0  0  0  0  0  0  0  0  0  0  0  0
    1.6754    1.1748    0.0286 C   0  0  0  0  0  0  0  0  0  0  0  0
    2.7700   -0.4432   -1.5197 N   0  0  0  0  0  0  0  0  0  0  0  0
    3.1733    0.5351   -2.3487 N   0  0  0  0  0  0  0  0  0  0  0  0
    3.5418   -0.0959   -3.4826 C   0  0  0  0  0  0  0  0  0  0  0  0
    4.2144    0.6992   -4.5232 C   0  0  0  0  0  0  0  0  0  0  0  0
    5.0289    1.7664   -4.0919 C   0  0  0  0  0  0  0  0  0  0  0  0
    5.7592    2.5414   -4.9888 C   0  0  0  0  0  0  0  0  0  0  0  0
    5.7203    2.2338   -6.3396 C   0  0  0  0  0  0  0  0  0  0  0  0
    6.5137    2.9950   -7.1633 O   0  0  0  0  0  0  0  0  0  0  0  0
    6.6365    2.5922   -8.4670 C   0  0  0  0  0  0  0  0  0  0  0  0
    5.9734    1.5858   -9.0411 C   0  0  0  0  0  0  0  0  0  0  0  0
    4.9993    0.8272   -8.2247 C   0  0  0  0  0  0  0  0  0  0  0  0
    4.3382   -0.0759   -8.7132 O   0  0  0  0  0  0  0  0  0  0  0  0
    4.9222    1.1817   -6.7922 C   0  0  0  0  0  0  0  0  0  0  0  0
    4.1313    0.4388   -5.8963 C   0  0  0  0  0  0  0  0  0  0  0  0
    3.3135   -1.5065   -3.3762 C   0  0  0  0  0  0  0  0  0  0  0  0
    3.4921   -2.6781   -4.1278 C   0  0  0  0  0  0  0  0  0  0  0  0
    3.9938   -2.7426   -5.4179 N   0  0  0  0  0  0  0  0  0  0  0  0
    3.1817   -3.8673   -3.5668 N   0  0  0  0  0  0  0  0  0  0  0  0
    2.7275   -3.8904   -2.3015 C   0  0  0  0  0  0  0  0  0  0  0  0
    2.5238   -2.8487   -1.4848 N   0  0  0  0  0  0  0  0  0  0  0  0
    2.8286   -1.6854   -2.0863 C   0  0  0  0  0  0  0  0  0  0  0  0
    3.4673    0.0924    1.7794 H   0  0  0  0  0  0  0  0  0  0  0  0
    4.4177    0.6489    0.3912 H   0  0  0  0  0  0  0  0  0  0  0  0
    4.2295   -1.0823    0.6971 H   0  0  0  0  0  0  0  0  0  0  0  0
    1.7972   -0.9484    0.2251 H   0  0  0  0  0  0  0  0  0  0  0  0
    2.2791    2.0385   -0.2731 H   0  0  0  0  0  0  0  0  0  0  0  0
    1.3821    1.3263    1.0733 H   0  0  0  0  0  0  0  0  0  0  0  0
    0.7660    1.1711   -0.5811 H   0  0  0  0  0  0  0  0  0  0  0  0
    5.1074    1.9929   -3.0293 H   0  0  0  0  0  0  0  0  0  0  0  0
    6.3779    3.3555   -4.6254 H   0  0  0  0  0  0  0  0  0  0  0  0
    7.3618    3.2060   -8.9856 H   0  0  0  0  0  0  0  0  0  0  0  0
    6.1151    1.2946  -10.0687 H   0  0  0  0  0  0  0  0  0  0  0  0
    3.4770   -0.3383   -6.2861 H   0  0  0  0  0  0  0  0  0  0  0  0
    4.7247   -2.0806   -5.6348 H   0  0  0  0  0  0  0  0  0  0  0  0
    4.2015   -3.7035   -5.6684 H   0  0  0  0  0  0  0  0  0  0  0  0
    2.5108   -4.8723   -1.8914 H   0  0  0  0  0  0  0  0  0  0  0  0
  1  2  1  0  0  0  0
  1 25  1  0  0  0  0
  1 26  1  0  0  0  0
  1 27  1  0  0  0  0
  2  3  1  0  0  0  0
  2  4  1  0  0  0  0
  2 28  1  0  0  0  0
  3 29  1  0  0  0  0
  3 30  1  0  0  0  0
  3 31  1  0  0  0  0
  4  5  1  0  0  0  0
  4 24  1  0  0  0  0
  5  6  2  0  0  0  0
  6  7  1  0  0  0  0
  6 18  1  0  0  0  0
  7  8  1  0  0  0  0
  7 17  2  0  0  0  0
  8  9  2  0  0  0  0
  8 32  1  0  0  0  0
  9 10  1  0  0  0  0
  9 33  1  0  0  0  0
 10 11  1  0  0  0  0
 10 16  2  0  0  0  0
 11 12  1  0  0  0  0
 12 13  2  0  0  0  0
 12 34  1  0  0  0  0
 13 14  1  0  0  0  0
 13 35  1  0  0  0  0
 14 15  2  0  0  0  0
 14 16  1  0  0  0  0
 16 17  1  0  0  0  0
 17 36  1  0  0  0  0
 18 19  1  0  0  0  0
 18 24  2  0  0  0  0
 19 20  1  0  0  0  0
 19 21  2  0  0  0  0
 20 37  1  0  0  0  0
 20 38  1  0  0  0  0
 21 22  1  0  0  0  0
 22 23  2  0  0  0  0
 22 39  1  0  0  0  0
 23 24  1  0  0  0  0
M  END
$$$$
