CHEMBL1684800
 OpenBabel04072215363D

 64 67  0  0  0  0  0  0  0  0999 V2000
    4.8937   -3.0174    0.4085 C   0  0  0  0  0  0  0  0  0  0  0  0
    3.6344   -2.3668    0.2892 O   0  0  0  0  0  0  0  0  0  0  0  0
    3.4739   -1.5326   -0.7831 C   0  0  0  0  0  0  0  0  0  0  0  0
    4.4359   -1.2443   -1.7494 C   0  0  0  0  0  0  0  0  0  0  0  0
    4.1410   -0.3624   -2.7950 C   0  0  0  0  0  0  0  0  0  0  0  0
    2.8787    0.2420   -2.8976 C   0  0  0  0  0  0  0  0  0  0  0  0
    2.5816    1.2399   -3.9948 C   0  0  0  0  0  0  0  0  0  0  0  0
    2.7021    0.6706   -5.3318 N   0  0  0  0  0  0  0  0  0  0  0  0
    3.8875    0.7845   -5.9775 N   0  0  0  0  0  0  0  0  0  0  0  0
    3.6317    0.2972   -7.1924 C   0  0  0  0  0  0  0  0  0  0  0  0
    2.2915   -0.1219   -7.3431 C   0  0  0  0  0  0  0  0  0  0  0  0
    1.6305   -0.6477   -8.4395 N   0  0  0  0  0  0  0  0  0  0  0  0
    2.2355   -0.8906   -9.6591 C   0  0  0  0  0  0  0  0  0  0  0  0
    3.4207   -0.6852   -9.9191 O   0  0  0  0  0  0  0  0  0  0  0  0
    1.3351   -1.4278  -10.7272 C   0  0  0  0  0  0  0  0  0  0  0  0
    0.3295   -2.3331  -10.3541 C   0  0  0  0  0  0  0  0  0  0  0  0
   -0.5871   -2.8303  -11.2831 C   0  0  0  0  0  0  0  0  0  0  0  0
   -1.6346   -3.7005  -10.9015 N   0  0  0  0  0  0  0  0  0  0  0  0
   -2.1577   -3.7668   -9.6209 C   0  0  0  0  0  0  0  0  0  0  0  0
   -1.8870   -2.9795   -8.7153 O   0  0  0  0  0  0  0  0  0  0  0  0
   -3.0111   -4.8499   -9.4701 N   0  0  0  0  0  0  0  0  0  0  0  0
   -3.6601   -5.1002   -8.2412 C   0  0  0  0  0  0  0  0  0  0  0  0
   -3.6893   -6.3997   -7.7467 C   0  0  0  0  0  0  0  0  0  0  0  0
   -4.2599   -6.6503   -6.4968 C   0  0  0  0  0  0  0  0  0  0  0  0
   -4.8426   -5.6164   -5.7487 C   0  0  0  0  0  0  0  0  0  0  0  0
   -5.5247   -6.0624   -4.2288 Cl  0  0  0  0  0  0  0  0  0  0  0  0
   -4.8522   -4.3090   -6.2419 C   0  0  0  0  0  0  0  0  0  0  0  0
   -5.4415   -3.1216   -5.5254 C   0  0  0  0  0  0  0  0  0  0  0  0
   -6.0033   -3.3612   -4.3127 F   0  0  0  0  0  0  0  0  0  0  0  0
   -4.5102   -2.1478   -5.3051 F   0  0  0  0  0  0  0  0  0  0  0  0
   -6.4208   -2.5227   -6.2642 F   0  0  0  0  0  0  0  0  0  0  0  0
   -4.2537   -4.0713   -7.4999 C   0  0  0  0  0  0  0  0  0  0  0  0
   -0.4527   -2.4720  -12.6222 C   0  0  0  0  0  0  0  0  0  0  0  0
    0.5720   -1.6013  -13.0182 C   0  0  0  0  0  0  0  0  0  0  0  0
    1.4793   -1.0735  -12.0829 C   0  0  0  0  0  0  0  0  0  0  0  0
    2.5758   -0.1608  -12.5655 C   0  0  0  0  0  0  0  0  0  0  0  0
    1.7016    0.1291   -6.1178 C   0  0  0  0  0  0  0  0  0  0  0  0
    0.4265   -0.0543   -5.6924 N   0  0  0  0  0  0  0  0  0  0  0  0
    1.9182   -0.0503   -1.9202 C   0  0  0  0  0  0  0  0  0  0  0  0
    2.2172   -0.9307   -0.8755 C   0  0  0  0  0  0  0  0  0  0  0  0
    4.8584   -3.6571    1.2955 H   0  0  0  0  0  0  0  0  0  0  0  0
    5.7005   -2.2912    0.5539 H   0  0  0  0  0  0  0  0  0  0  0  0
    5.0900   -3.6595   -0.4567 H   0  0  0  0  0  0  0  0  0  0  0  0
    5.4285   -1.6817   -1.7191 H   0  0  0  0  0  0  0  0  0  0  0  0
    4.9139   -0.1459   -3.5337 H   0  0  0  0  0  0  0  0  0  0  0  0
    3.2785    2.0827   -3.9229 H   0  0  0  0  0  0  0  0  0  0  0  0
    1.5729    1.6536   -3.9011 H   0  0  0  0  0  0  0  0  0  0  0  0
    4.4280    0.2829   -7.9245 H   0  0  0  0  0  0  0  0  0  0  0  0
    0.6403   -0.8142   -8.3132 H   0  0  0  0  0  0  0  0  0  0  0  0
    0.2964   -2.6807   -9.3255 H   0  0  0  0  0  0  0  0  0  0  0  0
   -2.2137   -4.0796  -11.6375 H   0  0  0  0  0  0  0  0  0  0  0  0
   -2.7481   -5.6582  -10.0178 H   0  0  0  0  0  0  0  0  0  0  0  0
   -3.2186   -7.2176   -8.2855 H   0  0  0  0  0  0  0  0  0  0  0  0
   -4.2313   -7.6622   -6.0966 H   0  0  0  0  0  0  0  0  0  0  0  0
   -4.2570   -3.0550   -7.8977 H   0  0  0  0  0  0  0  0  0  0  0  0
   -1.1414   -2.8429  -13.3746 H   0  0  0  0  0  0  0  0  0  0  0  0
    0.6528   -1.3300  -14.0709 H   0  0  0  0  0  0  0  0  0  0  0  0
    2.4951    0.0336  -13.6398 H   0  0  0  0  0  0  0  0  0  0  0  0
    3.5559   -0.6224  -12.4005 H   0  0  0  0  0  0  0  0  0  0  0  0
    2.5283    0.8059  -12.0536 H   0  0  0  0  0  0  0  0  0  0  0  0
   -0.2289   -0.6104   -6.2356 H   0  0  0  0  0  0  0  0  0  0  0  0
    0.1829   -0.0375   -4.7054 H   0  0  0  0  0  0  0  0  0  0  0  0
    0.9354    0.4116   -1.9510 H   0  0  0  0  0  0  0  0  0  0  0  0
    1.4639   -1.1452   -0.1210 H   0  0  0  0  0  0  0  0  0  0  0  0
  1  2  1  0  0  0  0
  1 41  1  0  0  0  0
  1 42  1  0  0  0  0
  1 43  1  0  0  0  0
  2  3  1  0  0  0  0
  3  4  1  0  0  0  0
  3 40  2  0  0  0  0
  4  5  2  0  0  0  0
  4 44  1  0  0  0  0
  5  6  1  0  0  0  0
  5 45  1  0  0  0  0
  6  7  1  0  0  0  0
  6 39  2  0  0  0  0
  7  8  1  0  0  0  0
  7 46  1  0  0  0  0
  7 47  1  0  0  0  0
  8  9  1  0  0  0  0
  8 37  1  0  0  0  0
  9 10  2  0  0  0  0
 10 11  1  0  0  0  0
 10 48  1  0  0  0  0
 11 12  1  0  0  0  0
 11 37  2  0  0  0  0
 12 13  1  0  0  0  0
 12 49  1  0  0  0  0
 13 14  2  0  0  0  0
 13 15  1  0  0  0  0
 15 16  1  0  0  0  0
 15 35  2  0  0  0  0
 16 17  2  0  0  0  0
 16 50  1  0  0  0  0
 17 18  1  0  0  0  0
 17 33  1  0  0  0  0
 18 19  1  0  0  0  0
 18 51  1  0  0  0  0
 19 20  2  0  0  0  0
 19 21  1  0  0  0  0
 21 22  1  0  0  0  0
 21 52  1  0  0  0  0
 22 23  1  0  0  0  0
 22 32  2  0  0  0  0
 23 24  2  0  0  0  0
 23 53  1  0  0  0  0
 24 25  1  0  0  0  0
 24 54  1  0  0  0  0
 25 26  1  0  0  0  0
 25 27  2  0  0  0  0
 27 28  1  0  0  0  0
 27 32  1  0  0  0  0
 28 29  1  0  0  0  0
 28 30  1  0  0  0  0
 28 31  1  0  0  0  0
 32 55  1  0  0  0  0
 33 34  2  0  0  0  0
 33 56  1  0  0  0  0
 34 35  1  0  0  0  0
 34 57  1  0  0  0  0
 35 36  1  0  0  0  0
 36 58  1  0  0  0  0
 36 59  1  0  0  0  0
 36 60  1  0  0  0  0
 37 38  1  0  0  0  0
 38 61  1  0  0  0  0
 38 62  1  0  0  0  0
 39 40  1  0  0  0  0
 39 63  1  0  0  0  0
 40 64  1  0  0  0  0
M  END
$$$$
