CHEMBL509635
 OpenBabel04072215383D

 65 69  0  0  1  0  0  0  0  0999 V2000
    6.2032   -2.4493   -4.4814 C   0  0  0  0  0  0  0  0  0  0  0  0
    5.5131   -2.5368   -3.2392 O   0  0  0  0  0  0  0  0  0  0  0  0
    4.7413   -1.4620   -2.8778 C   0  0  0  0  0  0  0  0  0  0  0  0
    4.2278   -0.5658   -3.8248 C   0  0  0  0  0  0  0  0  0  0  0  0
    3.3790    0.4865   -3.4663 C   0  0  0  0  0  0  0  0  0  0  0  0
    2.8332    1.4165   -4.4662 C   0  0  0  0  0  0  0  0  0  0  0  0
    2.5710    1.2784   -5.7793 C   0  0  0  0  0  0  0  0  0  0  0  0
    2.9019    0.3024   -6.7649 C   0  0  0  0  0  0  0  0  0  0  0  0
    4.0672    0.4727   -7.4866 C   0  0  0  0  0  0  0  0  0  0  0  0
    3.6950    0.3467   -8.8077 N   0  0  0  0  0  0  0  0  0  0  0  0
    4.3063    1.1469   -9.8478 C   0  0  0  0  0  0  0  0  0  0  0  0
    5.4249    0.4804  -10.6338 C   0  0  3  0  0  0  0  0  0  0  0  0
    6.6556    0.0765   -9.8477 C   0  0  0  0  0  0  0  0  0  0  0  0
    7.6389    1.0912  -10.0542 O   0  0  0  0  0  0  0  0  0  0  0  0
    7.1078    1.9882  -11.0274 C   0  0  0  0  0  0  0  0  0  0  0  0
    6.8225    3.3192  -10.3280 C   0  0  0  0  0  0  0  0  0  0  0  0
    8.1011    2.1975  -12.1609 C   0  0  0  0  0  0  0  0  0  0  0  0
    5.9126    1.4325  -11.5877 O   0  0  0  0  0  0  0  0  0  0  0  0
    2.4598   -0.2617   -8.8964 C   0  0  0  0  0  0  0  0  0  0  0  0
    1.6574   -0.5600  -10.0088 C   0  0  0  0  0  0  0  0  0  0  0  0
    0.4165   -1.1582   -9.7805 C   0  0  0  0  0  0  0  0  0  0  0  0
   -0.0068   -1.4563   -8.4886 C   0  0  0  0  0  0  0  0  0  0  0  0
    0.7595   -1.0734   -7.3811 C   0  0  0  0  0  0  0  0  0  0  0  0
    2.0040   -0.4445   -7.5831 C   0  0  0  0  0  0  0  0  0  0  0  0
    1.9862    2.5122   -6.4080 C   0  0  0  0  0  0  0  0  0  0  0  0
    2.0664    3.4374   -5.3430 N   0  0  0  0  0  0  0  0  0  0  0  0
    2.5518    2.8632   -4.1977 C   0  0  0  0  0  0  0  0  0  0  0  0
    2.7910    3.4726   -3.1734 O   0  0  0  0  0  0  0  0  0  0  0  0
    3.0414    0.6239   -2.1102 C   0  0  0  0  0  0  0  0  0  0  0  0
    3.5117   -0.2738   -1.1496 C   0  0  0  0  0  0  0  0  0  0  0  0
    3.1936   -0.1716    0.1840 O   0  0  0  0  0  0  0  0  0  0  0  0
    1.9078    0.3705    0.4767 C   0  0  0  0  0  0  0  0  0  0  0  0
    4.3900   -1.3121   -1.5225 C   0  0  0  0  0  0  0  0  0  0  0  0
    4.7790   -2.1439   -0.5036 O   0  0  0  0  0  0  0  0  0  0  0  0
    6.0907   -2.6836   -0.5920 C   0  0  0  0  0  0  0  0  0  0  0  0
    6.8558   -3.3230   -4.5631 H   0  0  0  0  0  0  0  0  0  0  0  0
    6.8323   -1.5531   -4.5188 H   0  0  0  0  0  0  0  0  0  0  0  0
    5.5112   -2.4832   -5.3289 H   0  0  0  0  0  0  0  0  0  0  0  0
    4.4888   -0.6799   -4.8714 H   0  0  0  0  0  0  0  0  0  0  0  0
    4.9721    1.0123   -7.2296 H   0  0  0  0  0  0  0  0  0  0  0  0
    4.6361    2.0734   -9.3705 H   0  0  0  0  0  0  0  0  0  0  0  0
    3.5174    1.4742  -10.5365 H   0  0  0  0  0  0  0  0  0  0  0  0
    5.0124   -0.3833  -11.1675 H   0  0  0  0  0  0  0  0  0  0  0  0
    7.0660   -0.8628  -10.2329 H   0  0  0  0  0  0  0  0  0  0  0  0
    6.4906   -0.0560   -8.7766 H   0  0  0  0  0  0  0  0  0  0  0  0
    7.7481    3.8749  -10.1427 H   0  0  0  0  0  0  0  0  0  0  0  0
    6.3821    3.1648   -9.3377 H   0  0  0  0  0  0  0  0  0  0  0  0
    6.1369    3.9423  -10.9096 H   0  0  0  0  0  0  0  0  0  0  0  0
    9.0439    2.6167  -11.7956 H   0  0  0  0  0  0  0  0  0  0  0  0
    7.6853    2.8639  -12.9252 H   0  0  0  0  0  0  0  0  0  0  0  0
    8.3335    1.2460  -12.6507 H   0  0  0  0  0  0  0  0  0  0  0  0
    1.9679   -0.3120  -11.0192 H   0  0  0  0  0  0  0  0  0  0  0  0
   -0.2288   -1.3877  -10.6259 H   0  0  0  0  0  0  0  0  0  0  0  0
   -0.9603   -1.9567   -8.3369 H   0  0  0  0  0  0  0  0  0  0  0  0
    0.3969   -1.2656   -6.3750 H   0  0  0  0  0  0  0  0  0  0  0  0
    0.9420    2.3840   -6.7003 H   0  0  0  0  0  0  0  0  0  0  0  0
    2.5724    2.8952   -7.2527 H   0  0  0  0  0  0  0  0  0  0  0  0
    1.9423    4.4370   -5.4175 H   0  0  0  0  0  0  0  0  0  0  0  0
    2.4020    1.4522   -1.8102 H   0  0  0  0  0  0  0  0  0  0  0  0
    1.6778    0.1336    1.5200 H   0  0  0  0  0  0  0  0  0  0  0  0
    1.1289   -0.0749   -0.1487 H   0  0  0  0  0  0  0  0  0  0  0  0
    1.9147    1.4621    0.3805 H   0  0  0  0  0  0  0  0  0  0  0  0
    6.4119   -2.9484    0.4200 H   0  0  0  0  0  0  0  0  0  0  0  0
    6.8137   -1.9625   -0.9889 H   0  0  0  0  0  0  0  0  0  0  0  0
    6.0841   -3.6079   -1.1767 H   0  0  0  0  0  0  0  0  0  0  0  0
  1  2  1  0  0  0  0
  1 36  1  0  0  0  0
  1 37  1  0  0  0  0
  1 38  1  0  0  0  0
  2  3  1  0  0  0  0
  3  4  1  0  0  0  0
  3 33  2  0  0  0  0
  4  5  2  0  0  0  0
  4 39  1  0  0  0  0
  5  6  1  0  0  0  0
  5 29  1  0  0  0  0
  6  7  2  0  0  0  0
  6 27  1  0  0  0  0
  7  8  1  0  0  0  0
  7 25  1  0  0  0  0
  8  9  2  0  0  0  0
  8 24  1  0  0  0  0
  9 10  1  0  0  0  0
  9 40  1  0  0  0  0
 10 11  1  0  0  0  0
 10 19  1  0  0  0  0
 11 12  1  0  0  0  0
 11 41  1  0  0  0  0
 11 42  1  0  0  0  0
 12 13  1  0  0  0  0
 12 18  1  0  0  0  0
 12 43  1  0  0  0  0
 13 14  1  0  0  0  0
 13 44  1  0  0  0  0
 13 45  1  0  0  0  0
 14 15  1  0  0  0  0
 15 16  1  0  0  0  0
 15 17  1  0  0  0  0
 15 18  1  0  0  0  0
 16 46  1  0  0  0  0
 16 47  1  0  0  0  0
 16 48  1  0  0  0  0
 17 49  1  0  0  0  0
 17 50  1  0  0  0  0
 17 51  1  0  0  0  0
 19 20  1  0  0  0  0
 19 24  2  0  0  0  0
 20 21  2  0  0  0  0
 20 52  1  0  0  0  0
 21 22  1  0  0  0  0
 21 53  1  0  0  0  0
 22 23  2  0  0  0  0
 22 54  1  0  0  0  0
 23 24  1  0  0  0  0
 23 55  1  0  0  0  0
 25 26  1  0  0  0  0
 25 56  1  0  0  0  0
 25 57  1  0  0  0  0
 26 27  1  0  0  0  0
 26 58  1  0  0  0  0
 27 28  2  0  0  0  0
 29 30  2  0  0  0  0
 29 59  1  0  0  0  0
 30 31  1  0  0  0  0
 30 33  1  0  0  0  0
 31 32  1  0  0  0  0
 32 60  1  0  0  0  0
 32 61  1  0  0  0  0
 32 62  1  0  0  0  0
 33 34  1  0  0  0  0
 34 35  1  0  0  0  0
 35 63  1  0  0  0  0
 35 64  1  0  0  0  0
 35 65  1  0  0  0  0
M  END
$$$$
