CHEMBL566623
 OpenBabel04072215383D

 58 62  0  0  0  0  0  0  0  0999 V2000
   -2.3947    0.3926   -2.4276 C   0  0  0  0  0  0  0  0  0  0  0  0
   -1.3101    0.6282   -1.5117 N   0  0  0  0  0  0  0  0  0  0  0  0
   -0.9980   -0.1748   -0.4417 C   0  0  0  0  0  0  0  0  0  0  0  0
    0.0928    0.4125    0.1467 C   0  0  0  0  0  0  0  0  0  0  0  0
    0.4507    1.5455   -0.5323 N   0  0  0  0  0  0  0  0  0  0  0  0
   -0.3765    1.6462   -1.5650 C   0  0  0  0  0  0  0  0  0  0  0  0
   -0.2924    2.6987   -2.5808 C   0  0  0  0  0  0  0  0  0  0  0  0
   -1.2610    3.0620   -3.2483 O   0  0  0  0  0  0  0  0  0  0  0  0
    1.0316    3.2992   -2.7305 C   0  0  0  0  0  0  0  0  0  0  0  0
    1.3463    4.6200   -2.9930 C   0  0  0  0  0  0  0  0  0  0  0  0
    2.7545    4.8638   -2.9748 C   0  0  0  0  0  0  0  0  0  0  0  0
    3.3394    6.0829   -3.1273 N   0  0  0  0  0  0  0  0  0  0  0  0
    4.6767    6.1104   -2.9747 C   0  0  0  0  0  0  0  0  0  0  0  0
    5.4712    5.0170   -2.6838 C   0  0  0  0  0  0  0  0  0  0  0  0
    4.8822    3.7529   -2.6128 C   0  0  0  0  0  0  0  0  0  0  0  0
    5.5875    2.5912   -2.3494 O   0  0  0  0  0  0  0  0  0  0  0  0
    6.8317    2.4296   -2.9130 C   0  0  0  0  0  0  0  0  0  0  0  0
    7.1688    2.9535   -4.1580 C   0  0  0  0  0  0  0  0  0  0  0  0
    8.4834    2.8824   -4.6100 C   0  0  0  0  0  0  0  0  0  0  0  0
    9.4691    2.2310   -3.8660 C   0  0  0  0  0  0  0  0  0  0  0  0
   10.8234    2.2227   -4.2692 N   0  0  0  0  0  0  0  0  0  0  0  0
   11.4010    3.1525   -5.1238 C   0  0  0  0  0  0  0  0  0  0  0  0
   10.8212    4.1224   -5.6139 O   0  0  0  0  0  0  0  0  0  0  0  0
   12.8507    2.9374   -5.4794 C   0  0  0  0  0  0  0  0  0  0  0  0
   13.6562    2.2645   -4.4167 C   0  0  0  0  0  0  0  0  0  0  0  0
   13.4653    1.0732   -4.1724 O   0  0  0  0  0  0  0  0  0  0  0  0
   14.4826    3.1074   -3.6876 N   0  0  0  0  0  0  0  0  0  0  0  0
   15.1693    2.5960   -2.5696 C   0  0  0  0  0  0  0  0  0  0  0  0
   15.9211    1.4221   -2.6729 C   0  0  0  0  0  0  0  0  0  0  0  0
   16.4499    0.8297   -1.5298 C   0  0  0  0  0  0  0  0  0  0  0  0
   16.2179    1.4067   -0.2833 C   0  0  0  0  0  0  0  0  0  0  0  0
   15.5110    2.6071   -0.1867 C   0  0  0  0  0  0  0  0  0  0  0  0
   15.0134    3.2248   -1.3352 C   0  0  0  0  0  0  0  0  0  0  0  0
    9.0977    1.5686   -2.6910 C   0  0  0  0  0  0  0  0  0  0  0  0
    7.7869    1.6875   -2.2168 C   0  0  0  0  0  0  0  0  0  0  0  0
    7.4653    1.0970   -1.0544 F   0  0  0  0  0  0  0  0  0  0  0  0
    3.4861    3.6990   -2.7490 C   0  0  0  0  0  0  0  0  0  0  0  0
    2.4527    2.3344   -2.7087 S   0  0  0  0  0  0  0  0  0  0  0  0
   -2.7741   -0.6232   -2.2808 H   0  0  0  0  0  0  0  0  0  0  0  0
   -2.0290    0.4922   -3.4521 H   0  0  0  0  0  0  0  0  0  0  0  0
   -3.1863    1.1156   -2.2179 H   0  0  0  0  0  0  0  0  0  0  0  0
   -1.5560   -1.0674   -0.1961 H   0  0  0  0  0  0  0  0  0  0  0  0
    0.6478    0.0820    1.0152 H   0  0  0  0  0  0  0  0  0  0  0  0
    0.6068    5.4000   -3.1230 H   0  0  0  0  0  0  0  0  0  0  0  0
    5.1277    7.0931   -3.0964 H   0  0  0  0  0  0  0  0  0  0  0  0
    6.5383    5.1554   -2.5463 H   0  0  0  0  0  0  0  0  0  0  0  0
    6.4333    3.4587   -4.7769 H   0  0  0  0  0  0  0  0  0  0  0  0
    8.7064    3.3454   -5.5662 H   0  0  0  0  0  0  0  0  0  0  0  0
   11.4377    1.5572   -3.7990 H   0  0  0  0  0  0  0  0  0  0  0  0
   13.2943    3.9111   -5.7166 H   0  0  0  0  0  0  0  0  0  0  0  0
   12.8983    2.3250   -6.3855 H   0  0  0  0  0  0  0  0  0  0  0  0
   14.2015    4.0807   -3.6416 H   0  0  0  0  0  0  0  0  0  0  0  0
   16.0796    0.9513   -3.6402 H   0  0  0  0  0  0  0  0  0  0  0  0
   17.0108   -0.0972   -1.6127 H   0  0  0  0  0  0  0  0  0  0  0  0
   16.5792    0.9131    0.6149 H   0  0  0  0  0  0  0  0  0  0  0  0
   15.3181    3.0429    0.7901 H   0  0  0  0  0  0  0  0  0  0  0  0
   14.4310    4.1361   -1.2374 H   0  0  0  0  0  0  0  0  0  0  0  0
    9.8133    1.0056   -2.0996 H   0  0  0  0  0  0  0  0  0  0  0  0
  1  2  1  0  0  0  0
  1 39  1  0  0  0  0
  1 40  1  0  0  0  0
  1 41  1  0  0  0  0
  2  3  1  0  0  0  0
  2  6  1  0  0  0  0
  3  4  2  0  0  0  0
  3 42  1  0  0  0  0
  4  5  1  0  0  0  0
  4 43  1  0  0  0  0
  5  6  2  0  0  0  0
  6  7  1  0  0  0  0
  7  8  2  0  0  0  0
  7  9  1  0  0  0  0
  9 10  2  0  0  0  0
  9 38  1  0  0  0  0
 10 11  1  0  0  0  0
 10 44  1  0  0  0  0
 11 12  1  0  0  0  0
 11 37  2  0  0  0  0
 12 13  2  0  0  0  0
 13 14  1  0  0  0  0
 13 45  1  0  0  0  0
 14 15  2  0  0  0  0
 14 46  1  0  0  0  0
 15 16  1  0  0  0  0
 15 37  1  0  0  0  0
 16 17  1  0  0  0  0
 17 18  1  0  0  0  0
 17 35  2  0  0  0  0
 18 19  2  0  0  0  0
 18 47  1  0  0  0  0
 19 20  1  0  0  0  0
 19 48  1  0  0  0  0
 20 21  1  0  0  0  0
 20 34  2  0  0  0  0
 21 22  1  0  0  0  0
 21 49  1  0  0  0  0
 22 23  2  0  0  0  0
 22 24  1  0  0  0  0
 24 25  1  0  0  0  0
 24 50  1  0  0  0  0
 24 51  1  0  0  0  0
 25 26  2  0  0  0  0
 25 27  1  0  0  0  0
 27 28  1  0  0  0  0
 27 52  1  0  0  0  0
 28 29  1  0  0  0  0
 28 33  2  0  0  0  0
 29 30  2  0  0  0  0
 29 53  1  0  0  0  0
 30 31  1  0  0  0  0
 30 54  1  0  0  0  0
 31 32  2  0  0  0  0
 31 55  1  0  0  0  0
 32 33  1  0  0  0  0
 32 56  1  0  0  0  0
 33 57  1  0  0  0  0
 34 35  1  0  0  0  0
 34 58  1  0  0  0  0
 35 36  1  0  0  0  0
 37 38  1  0  0  0  0
M  END
$$$$
