CHEMBL3545376
 OpenBabel04072215363D

 63 66  0  0  0  0  0  0  0  0999 V2000
    0.5959   -4.1460    0.7878 C   0  0  0  0  0  0  0  0  0  0  0  0
    1.9250   -4.2180    1.3040 O   0  0  0  0  0  0  0  0  0  0  0  0
    2.8046   -3.2402    0.9143 C   0  0  0  0  0  0  0  0  0  0  0  0
    2.5105   -2.2321    0.0178 C   0  0  0  0  0  0  0  0  0  0  0  0
    3.4559   -1.2391   -0.2296 C   0  0  0  0  0  0  0  0  0  0  0  0
    3.2563   -0.1859   -1.0835 O   0  0  0  0  0  0  0  0  0  0  0  0
    1.9731   -0.1697   -1.6992 C   0  0  0  0  0  0  0  0  0  0  0  0
    4.6999   -1.2602    0.4141 C   0  0  0  0  0  0  0  0  0  0  0  0
    5.0571   -2.2747    1.3064 C   0  0  0  0  0  0  0  0  0  0  0  0
    6.3040   -2.2369    1.9831 N   0  0  0  0  0  0  0  0  0  0  0  0
    6.8853   -0.8521    2.3420 C   0  0  0  0  0  0  0  0  0  0  0  0
    5.9949    0.1590    3.1192 C   0  0  0  0  0  0  0  0  0  0  0  0
    5.6279   -0.1194    4.5049 N   0  0  0  0  0  0  0  0  0  0  0  0
    6.7693   -0.2421    5.4112 C   0  0  0  0  0  0  0  0  0  0  0  0
    7.6899    0.9844    5.4525 C   0  0  0  0  0  0  0  0  0  0  0  0
    6.1988   -0.4965    6.7985 C   0  0  0  0  0  0  0  0  0  0  0  0
    7.3518   -3.2305    1.9551 C   0  0  0  0  0  0  0  0  0  0  0  0
    8.0320   -3.3605    3.1385 C   0  0  0  0  0  0  0  0  0  0  0  0
    9.1715   -4.0804    3.1380 C   0  0  0  0  0  0  0  0  0  0  0  0
    9.7152   -4.6153    2.0026 C   0  0  0  0  0  0  0  0  0  0  0  0
   10.9718   -4.4322    2.1362 N   0  0  0  0  0  0  0  0  0  0  0  0
   11.5728   -5.5767    2.3428 C   0  0  0  0  0  0  0  0  0  0  0  0
   11.7873   -6.5506    1.4335 C   0  0  0  0  0  0  0  0  0  0  0  0
   13.2107   -6.9194    2.3139 C   0  0  0  0  0  0  0  0  0  0  0  0
   13.9293   -8.1453    2.6488 C   0  0  0  0  0  0  0  0  0  0  0  0
   15.0783   -8.0117    3.3562 N   0  0  0  0  0  0  0  0  0  0  0  0
   15.2340   -6.6923    3.5289 N   0  0  0  0  0  0  0  0  0  0  0  0
   16.4686   -6.1706    4.1436 C   0  0  0  0  0  0  0  0  0  0  0  0
   14.1327   -6.0147    2.9863 C   0  0  0  0  0  0  0  0  0  0  0  0
   10.5489   -6.2077    0.6822 N   0  0  0  0  0  0  0  0  0  0  0  0
    9.2530   -5.1256    0.8537 C   0  0  0  0  0  0  0  0  0  0  0  0
    7.8692   -4.1061    0.8549 C   0  0  0  0  0  0  0  0  0  0  0  0
    4.0891   -3.2929    1.4958 C   0  0  0  0  0  0  0  0  0  0  0  0
   -0.0082   -4.9079    1.2905 H   0  0  0  0  0  0  0  0  0  0  0  0
    0.5983   -4.3700   -0.2838 H   0  0  0  0  0  0  0  0  0  0  0  0
    0.1240   -3.1755    0.9860 H   0  0  0  0  0  0  0  0  0  0  0  0
    1.5557   -2.2321   -0.4921 H   0  0  0  0  0  0  0  0  0  0  0  0
    1.9022    0.7206   -2.3229 H   0  0  0  0  0  0  0  0  0  0  0  0
    1.1760   -0.1180   -0.9465 H   0  0  0  0  0  0  0  0  0  0  0  0
    1.8480   -1.0494   -2.3419 H   0  0  0  0  0  0  0  0  0  0  0  0
    5.4162   -0.4832    0.1686 H   0  0  0  0  0  0  0  0  0  0  0  0
    7.1980   -0.3455    1.4233 H   0  0  0  0  0  0  0  0  0  0  0  0
    7.8096   -0.9343    2.9302 H   0  0  0  0  0  0  0  0  0  0  0  0
    5.0681    0.3143    2.5718 H   0  0  0  0  0  0  0  0  0  0  0  0
    6.5045    1.1344    3.1263 H   0  0  0  0  0  0  0  0  0  0  0  0
    5.0639   -0.9705    4.5197 H   0  0  0  0  0  0  0  0  0  0  0  0
    7.3615   -1.1107    5.1248 H   0  0  0  0  0  0  0  0  0  0  0  0
    7.1339    1.8876    5.7256 H   0  0  0  0  0  0  0  0  0  0  0  0
    8.1883    1.1692    4.4949 H   0  0  0  0  0  0  0  0  0  0  0  0
    8.4881    0.8401    6.1895 H   0  0  0  0  0  0  0  0  0  0  0  0
    5.5975    0.3570    7.1305 H   0  0  0  0  0  0  0  0  0  0  0  0
    7.0047   -0.6537    7.5212 H   0  0  0  0  0  0  0  0  0  0  0  0
    5.5617   -1.3876    6.7997 H   0  0  0  0  0  0  0  0  0  0  0  0
    7.8844   -2.7845    4.0399 H   0  0  0  0  0  0  0  0  0  0  0  0
    9.8236   -4.0932    4.0001 H   0  0  0  0  0  0  0  0  0  0  0  0
   11.8666   -5.6031    3.3857 H   0  0  0  0  0  0  0  0  0  0  0  0
   13.6942   -9.1737    2.4192 H   0  0  0  0  0  0  0  0  0  0  0  0
   17.1360   -6.9821    4.4813 H   0  0  0  0  0  0  0  0  0  0  0  0
   16.2521   -5.5459    5.0190 H   0  0  0  0  0  0  0  0  0  0  0  0
   17.0327   -5.5811    3.4104 H   0  0  0  0  0  0  0  0  0  0  0  0
   14.1208   -4.9422    3.1373 H   0  0  0  0  0  0  0  0  0  0  0  0
    7.3156   -3.9727   -0.0864 H   0  0  0  0  0  0  0  0  0  0  0  0
    4.2744   -4.1782    2.0950 H   0  0  0  0  0  0  0  0  0  0  0  0
  1  2  1  0  0  0  0
  1 34  1  0  0  0  0
  1 35  1  0  0  0  0
  1 36  1  0  0  0  0
  2  3  1  0  0  0  0
  3  4  1  0  0  0  0
  3 33  2  0  0  0  0
  4  5  2  0  0  0  0
  4 37  1  0  0  0  0
  5  6  1  0  0  0  0
  5  8  1  0  0  0  0
  6  7  1  0  0  0  0
  7 38  1  0  0  0  0
  7 39  1  0  0  0  0
  7 40  1  0  0  0  0
  8  9  2  0  0  0  0
  8 41  1  0  0  0  0
  9 10  1  0  0  0  0
  9 33  1  0  0  0  0
 10 11  1  0  0  0  0
 10 17  1  0  0  0  0
 11 12  1  0  0  0  0
 11 42  1  0  0  0  0
 11 43  1  0  0  0  0
 12 13  1  0  0  0  0
 12 44  1  0  0  0  0
 12 45  1  0  0  0  0
 13 14  1  0  0  0  0
 13 46  1  0  0  0  0
 14 15  1  0  0  0  0
 14 16  1  0  0  0  0
 14 47  1  0  0  0  0
 15 48  1  0  0  0  0
 15 49  1  0  0  0  0
 15 50  1  0  0  0  0
 16 51  1  0  0  0  0
 16 52  1  0  0  0  0
 16 53  1  0  0  0  0
 17 18  1  0  0  0  0
 17 32  2  0  0  0  0
 18 19  2  0  0  0  0
 18 54  1  0  0  0  0
 19 20  1  0  0  0  0
 19 55  1  0  0  0  0
 20 21  1  0  0  0  0
 20 31  2  0  0  0  0
 21 22  2  0  0  0  0
 22 23  1  0  0  0  0
 22 56  1  0  0  0  0
 23 24  1  0  0  0  0
 23 30  2  0  0  0  0
 24 25  1  0  0  0  0
 24 29  2  0  0  0  0
 25 26  2  0  0  0  0
 25 57  1  0  0  0  0
 26 27  1  0  0  0  0
 27 28  1  0  0  0  0
 27 29  1  0  0  0  0
 28 58  1  0  0  0  0
 28 59  1  0  0  0  0
 28 60  1  0  0  0  0
 29 61  1  0  0  0  0
 30 31  1  0  0  0  0
 31 32  1  0  0  0  0
 32 62  1  0  0  0  0
 33 63  1  0  0  0  0
M  END
$$$$
