CHEMBL271018
 OpenBabel04072215363D

 53 55  0  0  0  0  0  0  0  0999 V2000
    0.7118    0.3891   -0.1970 C   0  0  0  0  0  0  0  0  0  0  0  0
    2.0762    0.3180   -0.6706 N   0  0  0  0  0  0  0  0  0  0  0  0
    2.8084    1.4828   -0.5183 C   0  0  0  0  0  0  0  0  0  0  0  0
    3.7735    1.6991   -1.4145 N   0  0  0  0  0  0  0  0  0  0  0  0
    4.5201    2.8184   -1.2599 C   0  0  0  0  0  0  0  0  0  0  0  0
    4.3452    3.7410   -0.2510 C   0  0  0  0  0  0  0  0  0  0  0  0
    5.1650    4.9734   -0.0953 C   0  0  0  0  0  0  0  0  0  0  0  0
    4.7966    5.8587    0.6716 O   0  0  0  0  0  0  0  0  0  0  0  0
    6.3003    5.1092   -0.8945 N   0  0  0  0  0  0  0  0  0  0  0  0
    7.0631    6.3041   -0.8971 C   0  0  0  0  0  0  0  0  0  0  0  0
    7.3957    6.9364    0.3139 C   0  0  0  0  0  0  0  0  0  0  0  0
    8.0732    8.1581    0.3112 C   0  0  0  0  0  0  0  0  0  0  0  0
    8.4467    8.9071    1.5483 C   0  0  0  0  0  0  0  0  0  0  0  0
    9.3890    9.6903    1.4637 O   0  0  0  0  0  0  0  0  0  0  0  0
    7.7051    8.6594    2.6940 N   0  0  0  0  0  0  0  0  0  0  0  0
    7.8686    9.3123    3.9396 C   0  0  0  0  0  0  0  0  0  0  0  0
    8.5986   10.4928    4.0990 C   0  0  0  0  0  0  0  0  0  0  0  0
    8.7426   11.0856    5.3554 C   0  0  0  0  0  0  0  0  0  0  0  0
    8.1687   10.4941    6.4759 C   0  0  0  0  0  0  0  0  0  0  0  0
    7.4264    9.3126    6.3458 C   0  0  0  0  0  0  0  0  0  0  0  0
    6.8332    8.6396    7.5580 C   0  0  0  0  0  0  0  0  0  0  0  0
    7.1221    9.2715    8.7308 F   0  0  0  0  0  0  0  0  0  0  0  0
    5.4753    8.5613    7.5023 F   0  0  0  0  0  0  0  0  0  0  0  0
    7.2755    7.3599    7.7096 F   0  0  0  0  0  0  0  0  0  0  0  0
    7.2606    8.7433    5.0664 C   0  0  0  0  0  0  0  0  0  0  0  0
    8.4473    8.7232   -0.9149 C   0  0  0  0  0  0  0  0  0  0  0  0
    8.1487    8.0833   -2.1178 C   0  0  0  0  0  0  0  0  0  0  0  0
    7.4588    6.8646   -2.1258 C   0  0  0  0  0  0  0  0  0  0  0  0
    7.0709    6.2593   -3.4463 C   0  0  0  0  0  0  0  0  0  0  0  0
    3.2963    3.4300    0.5982 C   0  0  0  0  0  0  0  0  0  0  0  0
    3.0288    4.2580    1.6707 O   0  0  0  0  0  0  0  0  0  0  0  0
    1.7270    4.0804    2.2139 C   0  0  0  0  0  0  0  0  0  0  0  0
    2.5402    2.3158    0.4851 N   0  0  0  0  0  0  0  0  0  0  0  0
    0.2058   -0.5597   -0.4019 H   0  0  0  0  0  0  0  0  0  0  0  0
    0.1519    1.1828   -0.7046 H   0  0  0  0  0  0  0  0  0  0  0  0
    0.6664    0.5513    0.8865 H   0  0  0  0  0  0  0  0  0  0  0  0
    2.2047    0.0056   -1.6254 H   0  0  0  0  0  0  0  0  0  0  0  0
    5.2739    2.9187   -2.0312 H   0  0  0  0  0  0  0  0  0  0  0  0
    6.4036    4.5281   -1.7114 H   0  0  0  0  0  0  0  0  0  0  0  0
    7.1403    6.4455    1.2478 H   0  0  0  0  0  0  0  0  0  0  0  0
    7.0014    7.9333    2.6624 H   0  0  0  0  0  0  0  0  0  0  0  0
    9.0562   10.9967    3.2530 H   0  0  0  0  0  0  0  0  0  0  0  0
    9.3127   12.0067    5.4522 H   0  0  0  0  0  0  0  0  0  0  0  0
    8.3093   10.9570    7.4516 H   0  0  0  0  0  0  0  0  0  0  0  0
    6.6807    7.8264    4.9718 H   0  0  0  0  0  0  0  0  0  0  0  0
    8.9681    9.6795   -0.9378 H   0  0  0  0  0  0  0  0  0  0  0  0
    8.4334    8.5665   -3.0501 H   0  0  0  0  0  0  0  0  0  0  0  0
    7.4115    6.8728   -4.2866 H   0  0  0  0  0  0  0  0  0  0  0  0
    5.9803    6.1846   -3.5179 H   0  0  0  0  0  0  0  0  0  0  0  0
    7.5141    5.2652   -3.5585 H   0  0  0  0  0  0  0  0  0  0  0  0
    1.5716    4.8590    2.9657 H   0  0  0  0  0  0  0  0  0  0  0  0
    1.6365    3.1105    2.7134 H   0  0  0  0  0  0  0  0  0  0  0  0
    0.9544    4.1998    1.4446 H   0  0  0  0  0  0  0  0  0  0  0  0
  1  2  1  0  0  0  0
  1 34  1  0  0  0  0
  1 35  1  0  0  0  0
  1 36  1  0  0  0  0
  2  3  1  0  0  0  0
  2 37  1  0  0  0  0
  3  4  1  0  0  0  0
  3 33  2  0  0  0  0
  4  5  2  0  0  0  0
  5  6  1  0  0  0  0
  5 38  1  0  0  0  0
  6  7  1  0  0  0  0
  6 30  2  0  0  0  0
  7  8  2  0  0  0  0
  7  9  1  0  0  0  0
  9 10  1  0  0  0  0
  9 39  1  0  0  0  0
 10 11  1  0  0  0  0
 10 28  2  0  0  0  0
 11 12  2  0  0  0  0
 11 40  1  0  0  0  0
 12 13  1  0  0  0  0
 12 26  1  0  0  0  0
 13 14  2  0  0  0  0
 13 15  1  0  0  0  0
 15 16  1  0  0  0  0
 15 41  1  0  0  0  0
 16 17  1  0  0  0  0
 16 25  2  0  0  0  0
 17 18  2  0  0  0  0
 17 42  1  0  0  0  0
 18 19  1  0  0  0  0
 18 43  1  0  0  0  0
 19 20  2  0  0  0  0
 19 44  1  0  0  0  0
 20 21  1  0  0  0  0
 20 25  1  0  0  0  0
 21 22  1  0  0  0  0
 21 23  1  0  0  0  0
 21 24  1  0  0  0  0
 25 45  1  0  0  0  0
 26 27  2  0  0  0  0
 26 46  1  0  0  0  0
 27 28  1  0  0  0  0
 27 47  1  0  0  0  0
 28 29  1  0  0  0  0
 29 48  1  0  0  0  0
 29 49  1  0  0  0  0
 29 50  1  0  0  0  0
 30 31  1  0  0  0  0
 30 33  1  0  0  0  0
 31 32  1  0  0  0  0
 32 51  1  0  0  0  0
 32 52  1  0  0  0  0
 32 53  1  0  0  0  0
M  END
$$$$
