CHEMBL2000801
 OpenBabel04072215363D

 43 46  0  0  0  0  0  0  0  0999 V2000
    1.2226   -0.5016    0.3990 O   0  0  0  0  0  0  0  0  0  0  0  0
    2.2967   -0.0270    0.0609 C   0  0  0  0  0  0  0  0  0  0  0  0
    2.8445    1.1338    0.5773 N   0  0  0  0  0  0  0  0  0  0  0  0
    2.2619    1.9857    1.5411 C   0  0  0  0  0  0  0  0  0  0  0  0
    1.1093    1.6873    2.2662 C   0  0  0  0  0  0  0  0  0  0  0  0
    0.5818    2.6037    3.1922 C   0  0  0  0  0  0  0  0  0  0  0  0
    1.2045    3.8353    3.4486 C   0  0  0  0  0  0  0  0  0  0  0  0
    0.7374    4.7484    4.5198 C   0  0  0  0  0  0  0  0  0  0  0  0
    0.2316    4.2423    5.7404 C   0  0  0  0  0  0  0  0  0  0  0  0
   -0.0103    5.0623    6.8385 C   0  0  0  0  0  0  0  0  0  0  0  0
    0.2678    6.4234    6.7763 C   0  0  0  0  0  0  0  0  0  0  0  0
    0.6925    6.9533    5.5496 C   0  0  0  0  0  0  0  0  0  0  0  0
    1.0872    8.5862    5.1673 S   0  0  0  0  0  0  0  0  0  0  0  0
    1.3559    8.3383    3.5558 N   0  0  0  0  0  0  0  0  0  0  0  0
    1.1868    7.0443    3.3064 C   0  0  0  0  0  0  0  0  0  0  0  0
    0.8804    6.1658    4.4080 C   0  0  0  0  0  0  0  0  0  0  0  0
    2.3791    4.1049    2.7217 C   0  0  0  0  0  0  0  0  0  0  0  0
    2.8929    3.2065    1.7785 C   0  0  0  0  0  0  0  0  0  0  0  0
    3.1197   -0.5756   -0.9203 N   0  0  0  0  0  0  0  0  0  0  0  0
    2.8161   -1.6553   -1.7782 C   0  0  0  0  0  0  0  0  0  0  0  0
    1.5855   -2.3165   -1.7856 C   0  0  0  0  0  0  0  0  0  0  0  0
    1.3424   -3.3636   -2.6781 C   0  0  0  0  0  0  0  0  0  0  0  0
    2.3257   -3.7525   -3.5763 C   0  0  0  0  0  0  0  0  0  0  0  0
    2.0560   -4.7549   -4.4202 F   0  0  0  0  0  0  0  0  0  0  0  0
    3.5609   -3.1130   -3.6032 C   0  0  0  0  0  0  0  0  0  0  0  0
    4.6143   -3.5157   -4.5910 C   0  0  0  0  0  0  0  0  0  0  0  0
    4.2812   -4.5419   -5.4171 F   0  0  0  0  0  0  0  0  0  0  0  0
    4.9609   -2.4804   -5.4092 F   0  0  0  0  0  0  0  0  0  0  0  0
    5.7723   -3.8947   -3.9779 F   0  0  0  0  0  0  0  0  0  0  0  0
    3.7998   -2.0614   -2.6923 C   0  0  0  0  0  0  0  0  0  0  0  0
    3.6866    1.4744    0.1408 H   0  0  0  0  0  0  0  0  0  0  0  0
    0.5956    0.7374    2.1559 H   0  0  0  0  0  0  0  0  0  0  0  0
   -0.3201    2.3138    3.7284 H   0  0  0  0  0  0  0  0  0  0  0  0
    0.0629    3.1733    5.8613 H   0  0  0  0  0  0  0  0  0  0  0  0
   -0.3804    4.6287    7.7650 H   0  0  0  0  0  0  0  0  0  0  0  0
    0.1408    7.0583    7.6479 H   0  0  0  0  0  0  0  0  0  0  0  0
    1.2970    6.7373    2.2742 H   0  0  0  0  0  0  0  0  0  0  0  0
    2.9449    5.0168    2.9001 H   0  0  0  0  0  0  0  0  0  0  0  0
    3.7991    3.4819    1.2456 H   0  0  0  0  0  0  0  0  0  0  0  0
    4.0451   -0.1809   -1.0023 H   0  0  0  0  0  0  0  0  0  0  0  0
    0.7783   -2.0395   -1.1171 H   0  0  0  0  0  0  0  0  0  0  0  0
    0.3804   -3.8696   -2.6775 H   0  0  0  0  0  0  0  0  0  0  0  0
    4.7688   -1.5639   -2.7150 H   0  0  0  0  0  0  0  0  0  0  0  0
  1  2  2  0  0  0  0
  2  3  1  0  0  0  0
  2 19  1  0  0  0  0
  3  4  1  0  0  0  0
  3 31  1  0  0  0  0
  4  5  1  0  0  0  0
  4 18  2  0  0  0  0
  5  6  2  0  0  0  0
  5 32  1  0  0  0  0
  6  7  1  0  0  0  0
  6 33  1  0  0  0  0
  7  8  1  0  0  0  0
  7 17  2  0  0  0  0
  8  9  1  0  0  0  0
  8 16  2  0  0  0  0
  9 10  2  0  0  0  0
  9 34  1  0  0  0  0
 10 11  1  0  0  0  0
 10 35  1  0  0  0  0
 11 12  2  0  0  0  0
 11 36  1  0  0  0  0
 12 13  1  0  0  0  0
 12 16  1  0  0  0  0
 13 14  1  0  0  0  0
 14 15  2  0  0  0  0
 15 16  1  0  0  0  0
 15 37  1  0  0  0  0
 17 18  1  0  0  0  0
 17 38  1  0  0  0  0
 18 39  1  0  0  0  0
 19 20  1  0  0  0  0
 19 40  1  0  0  0  0
 20 21  1  0  0  0  0
 20 30  2  0  0  0  0
 21 22  2  0  0  0  0
 21 41  1  0  0  0  0
 22 23  1  0  0  0  0
 22 42  1  0  0  0  0
 23 24  1  0  0  0  0
 23 25  2  0  0  0  0
 25 26  1  0  0  0  0
 25 30  1  0  0  0  0
 26 27  1  0  0  0  0
 26 28  1  0  0  0  0
 26 29  1  0  0  0  0
 30 43  1  0  0  0  0
M  END
$$$$
