CHEMBL219493
 OpenBabel04072215363D

 61 66  0  0  0  0  0  0  0  0999 V2000
    3.3613   -1.1105   -0.5359 C   0  0  0  0  0  0  0  0  0  0  0  0
    3.0404    0.2092    0.1494 C   0  0  0  0  0  0  0  0  0  0  0  0
    3.5983    0.3298    1.5775 C   0  0  0  0  0  0  0  0  0  0  0  0
    5.0479    0.4684    1.6714 N   0  0  0  0  0  0  0  0  0  0  0  0
    5.7277    1.7011    1.5342 C   0  0  0  0  0  0  0  0  0  0  0  0
    5.2648    3.0202    1.3648 C   0  0  0  0  0  0  0  0  0  0  0  0
    6.2099    4.0594    1.2053 C   0  0  0  0  0  0  0  0  0  0  0  0
    7.5831    3.8104    1.2255 C   0  0  0  0  0  0  0  0  0  0  0  0
    8.5909    4.7790    1.0787 N   0  0  0  0  0  0  0  0  0  0  0  0
    8.4504    6.1308    0.9175 C   0  0  0  0  0  0  0  0  0  0  0  0
    7.4085    6.7746    0.8899 O   0  0  0  0  0  0  0  0  0  0  0  0
    9.6956    6.6708    0.8025 O   0  0  0  0  0  0  0  0  0  0  0  0
    9.7350    8.1055    0.6963 C   0  0  0  0  0  0  0  0  0  0  0  0
    9.5357    8.5480   -0.7416 C   0  0  0  0  0  0  0  0  0  0  0  0
    8.0243    2.4953    1.3703 C   0  0  0  0  0  0  0  0  0  0  0  0
    7.1037    1.4376    1.4968 C   0  0  0  0  0  0  0  0  0  0  0  0
    7.1408    0.0600    1.4982 C   0  0  0  0  0  0  0  0  0  0  0  0
    8.2498   -0.6697    1.0449 C   0  0  0  0  0  0  0  0  0  0  0  0
    7.9715   -1.9836    0.6225 C   0  0  0  0  0  0  0  0  0  0  0  0
    6.7205   -2.6045    0.7708 C   0  0  0  0  0  0  0  0  0  0  0  0
    5.9134   -1.9964    1.7891 C   0  0  0  0  0  0  0  0  0  0  0  0
    5.9645   -0.5824    1.7630 C   0  0  0  0  0  0  0  0  0  0  0  0
    5.9250   -2.8471    3.1292 C   0  0  0  0  0  0  0  0  0  0  0  0
    6.9667   -4.0459    3.1354 C   0  0  0  0  0  0  0  0  0  0  0  0
    6.7616   -4.7937    1.8655 C   0  0  0  0  0  0  0  0  0  0  0  0
    6.3660   -6.0567    1.7150 N   0  0  0  0  0  0  0  0  0  0  0  0
    5.9107   -6.0702    0.4359 N   0  0  0  0  0  0  0  0  0  0  0  0
    5.2609   -7.2506   -0.0800 C   0  0  0  0  0  0  0  0  0  0  0  0
    5.9287   -4.8352   -0.1669 C   0  0  0  0  0  0  0  0  0  0  0  0
    6.6433   -4.0388    0.6882 C   0  0  0  0  0  0  0  0  0  0  0  0
    9.2218   -2.5677    0.1886 C   0  0  0  0  0  0  0  0  0  0  0  0
    9.5412   -3.6727   -0.2180 O   0  0  0  0  0  0  0  0  0  0  0  0
   10.1573   -1.5556    0.3863 N   0  0  0  0  0  0  0  0  0  0  0  0
    9.6463   -0.2950    0.8693 C   0  0  0  0  0  0  0  0  0  0  0  0
    2.9045   -1.1418   -1.5312 H   0  0  0  0  0  0  0  0  0  0  0  0
    2.9705   -1.9566    0.0381 H   0  0  0  0  0  0  0  0  0  0  0  0
    4.4370   -1.2399   -0.6702 H   0  0  0  0  0  0  0  0  0  0  0  0
    1.9472    0.3026    0.1953 H   0  0  0  0  0  0  0  0  0  0  0  0
    3.3970    1.0347   -0.4779 H   0  0  0  0  0  0  0  0  0  0  0  0
    3.2933   -0.5198    2.1962 H   0  0  0  0  0  0  0  0  0  0  0  0
    3.1658    1.2263    2.0398 H   0  0  0  0  0  0  0  0  0  0  0  0
    4.2068    3.2557    1.3220 H   0  0  0  0  0  0  0  0  0  0  0  0
    5.8306    5.0656    1.0533 H   0  0  0  0  0  0  0  0  0  0  0  0
    9.5499    4.4861    1.0734 H   0  0  0  0  0  0  0  0  0  0  0  0
   10.7241    8.4242    1.0434 H   0  0  0  0  0  0  0  0  0  0  0  0
    8.9994    8.5689    1.3639 H   0  0  0  0  0  0  0  0  0  0  0  0
   10.3204    8.1336   -1.3830 H   0  0  0  0  0  0  0  0  0  0  0  0
    9.5609    9.6389   -0.8168 H   0  0  0  0  0  0  0  0  0  0  0  0
    8.5797    8.1922   -1.1380 H   0  0  0  0  0  0  0  0  0  0  0  0
    9.0874    2.2825    1.3793 H   0  0  0  0  0  0  0  0  0  0  0  0
    4.9218   -3.2633    3.2700 H   0  0  0  0  0  0  0  0  0  0  0  0
    6.1588   -2.1909    3.9751 H   0  0  0  0  0  0  0  0  0  0  0  0
    6.8645   -4.6859    4.0148 H   0  0  0  0  0  0  0  0  0  0  0  0
    7.9927   -3.6439    3.1428 H   0  0  0  0  0  0  0  0  0  0  0  0
    5.4958   -8.1043    0.5603 H   0  0  0  0  0  0  0  0  0  0  0  0
    5.6244   -7.4328   -1.0940 H   0  0  0  0  0  0  0  0  0  0  0  0
    4.1828   -7.0697   -0.0859 H   0  0  0  0  0  0  0  0  0  0  0  0
    5.3973   -4.6395   -1.0883 H   0  0  0  0  0  0  0  0  0  0  0  0
   11.1354   -1.7571    0.2403 H   0  0  0  0  0  0  0  0  0  0  0  0
    9.7887    0.4621    0.0974 H   0  0  0  0  0  0  0  0  0  0  0  0
   10.1299   -0.0320    1.8122 H   0  0  0  0  0  0  0  0  0  0  0  0
  1  2  1  0  0  0  0
  1 35  1  0  0  0  0
  1 36  1  0  0  0  0
  1 37  1  0  0  0  0
  2  3  1  0  0  0  0
  2 38  1  0  0  0  0
  2 39  1  0  0  0  0
  3  4  1  0  0  0  0
  3 40  1  0  0  0  0
  3 41  1  0  0  0  0
  4  5  1  0  0  0  0
  4 22  1  0  0  0  0
  5  6  1  0  0  0  0
  5 16  2  0  0  0  0
  6  7  2  0  0  0  0
  6 42  1  0  0  0  0
  7  8  1  0  0  0  0
  7 43  1  0  0  0  0
  8  9  1  0  0  0  0
  8 15  2  0  0  0  0
  9 10  1  0  0  0  0
  9 44  1  0  0  0  0
 10 11  2  0  0  0  0
 10 12  1  0  0  0  0
 12 13  1  0  0  0  0
 13 14  1  0  0  0  0
 13 45  1  0  0  0  0
 13 46  1  0  0  0  0
 14 47  1  0  0  0  0
 14 48  1  0  0  0  0
 14 49  1  0  0  0  0
 15 16  1  0  0  0  0
 15 50  1  0  0  0  0
 16 17  1  0  0  0  0
 17 18  1  0  0  0  0
 17 22  2  0  0  0  0
 18 19  2  0  0  0  0
 18 34  1  0  0  0  0
 19 20  1  0  0  0  0
 19 31  1  0  0  0  0
 20 21  2  0  0  0  0
 20 30  1  0  0  0  0
 21 22  1  0  0  0  0
 21 23  1  0  0  0  0
 23 24  1  0  0  0  0
 23 51  1  0  0  0  0
 23 52  1  0  0  0  0
 24 25  1  0  0  0  0
 24 53  1  0  0  0  0
 24 54  1  0  0  0  0
 25 26  2  0  0  0  0
 25 30  1  0  0  0  0
 26 27  1  0  0  0  0
 27 28  1  0  0  0  0
 27 29  1  0  0  0  0
 28 55  1  0  0  0  0
 28 56  1  0  0  0  0
 28 57  1  0  0  0  0
 29 30  2  0  0  0  0
 29 58  1  0  0  0  0
 31 32  2  0  0  0  0
 31 33  1  0  0  0  0
 33 34  1  0  0  0  0
 33 59  1  0  0  0  0
 34 60  1  0  0  0  0
 34 61  1  0  0  0  0
M  END
$$$$
