CHEMBL3656081
 OpenBabel04072215373D

 72 75  0  0  0  0  0  0  0  0999 V2000
    3.2237   -6.0548    5.0920 C   0  0  0  0  0  0  0  0  0  0  0  0
    2.9332   -5.5640    3.6843 C   0  0  0  0  0  0  0  0  0  0  0  0
    3.9685   -4.6763    3.1965 N   0  0  0  0  0  0  0  0  0  0  0  0
    3.9452   -3.3219    3.4390 C   0  0  0  0  0  0  0  0  0  0  0  0
    3.0436   -2.7567    4.0509 O   0  0  0  0  0  0  0  0  0  0  0  0
    5.1157   -2.5584    2.8546 C   0  0  0  0  0  0  0  0  0  0  0  0
    6.4474   -2.9675    3.4785 C   0  0  0  0  0  0  0  0  0  0  0  0
    7.6001   -2.1358    2.9196 C   0  0  0  0  0  0  0  0  0  0  0  0
    8.8763   -2.5443    3.4666 N   0  0  0  0  0  0  0  0  0  0  0  0
    9.5789   -3.6002    2.9274 C   0  0  0  0  0  0  0  0  0  0  0  0
    9.1581   -4.2398    1.9676 O   0  0  0  0  0  0  0  0  0  0  0  0
   10.8526   -3.9258    3.5663 C   0  0  0  0  0  0  0  0  0  0  0  0
   11.4665   -3.3725    4.6785 C   0  0  0  0  0  0  0  0  0  0  0  0
   12.6587   -4.0303    4.8917 N   0  0  0  0  0  0  0  0  0  0  0  0
   12.8425   -5.0089    3.9442 C   0  0  0  0  0  0  0  0  0  0  0  0
   14.0180   -5.8774    3.8891 C   0  0  0  0  0  0  0  0  0  0  0  0
   14.1521   -6.8373    2.8961 C   0  0  0  0  0  0  0  0  0  0  0  0
   15.3428   -7.5541    2.7972 C   0  0  0  0  0  0  0  0  0  0  0  0
   15.6063   -8.4744    1.7990 O   0  0  0  0  0  0  0  0  0  0  0  0
   15.0656   -8.2723    0.5437 C   0  0  0  0  0  0  0  0  0  0  0  0
   14.9014   -7.0099   -0.0173 C   0  0  0  0  0  0  0  0  0  0  0  0
   14.2402   -6.8623   -1.2367 C   0  0  0  0  0  0  0  0  0  0  0  0
   13.8015   -7.9686   -1.9685 C   0  0  0  0  0  0  0  0  0  0  0  0
   13.0853   -7.8474   -3.1882 N   0  0  0  0  0  0  0  0  0  0  0  0
   12.7599   -6.6536   -3.8123 C   0  0  0  0  0  0  0  0  0  0  0  0
   13.1264   -5.5435   -3.4491 O   0  0  0  0  0  0  0  0  0  0  0  0
   11.9190   -6.8351   -4.9051 N   0  0  0  0  0  0  0  0  0  0  0  0
   11.4635   -5.6853   -5.6096 C   0  0  0  0  0  0  0  0  0  0  0  0
   12.3487   -4.6857   -6.0347 C   0  0  0  0  0  0  0  0  0  0  0  0
   11.8661   -3.5064   -6.6252 C   0  0  0  0  0  0  0  0  0  0  0  0
   12.8118   -2.4280   -7.0678 C   0  0  0  0  0  0  0  0  0  0  0  0
   10.4841   -3.3342   -6.7723 C   0  0  0  0  0  0  0  0  0  0  0  0
    9.5999   -4.3395   -6.3737 C   0  0  0  0  0  0  0  0  0  0  0  0
   10.0959   -5.5156   -5.8196 C   0  0  0  0  0  0  0  0  0  0  0  0
    9.2371   -6.4630   -5.4113 F   0  0  0  0  0  0  0  0  0  0  0  0
   14.0692   -9.2438   -1.4543 C   0  0  0  0  0  0  0  0  0  0  0  0
   14.6928   -9.3942   -0.1997 C   0  0  0  0  0  0  0  0  0  0  0  0
   16.3169   -7.3670    3.7694 C   0  0  0  0  0  0  0  0  0  0  0  0
   16.0807   -6.4193    4.7560 C   0  0  0  0  0  0  0  0  0  0  0  0
   14.9629   -5.6533    4.8311 N   0  0  0  0  0  0  0  0  0  0  0  0
   11.7376   -4.9460    3.1076 C   0  0  0  0  0  0  0  0  0  0  0  0
    2.4259   -6.7201    5.4354 H   0  0  0  0  0  0  0  0  0  0  0  0
    3.3000   -5.2185    5.7954 H   0  0  0  0  0  0  0  0  0  0  0  0
    4.1678   -6.6066    5.1260 H   0  0  0  0  0  0  0  0  0  0  0  0
    1.9694   -5.0444    3.6603 H   0  0  0  0  0  0  0  0  0  0  0  0
    2.8818   -6.4121    2.9941 H   0  0  0  0  0  0  0  0  0  0  0  0
    4.7597   -5.0819    2.7124 H   0  0  0  0  0  0  0  0  0  0  0  0
    4.9377   -1.4890    3.0261 H   0  0  0  0  0  0  0  0  0  0  0  0
    5.1242   -2.7137    1.7698 H   0  0  0  0  0  0  0  0  0  0  0  0
    6.6390   -4.0348    3.2941 H   0  0  0  0  0  0  0  0  0  0  0  0
    6.4007   -2.8542    4.5665 H   0  0  0  0  0  0  0  0  0  0  0  0
    7.4655   -1.0776    3.1662 H   0  0  0  0  0  0  0  0  0  0  0  0
    7.6363   -2.2264    1.8278 H   0  0  0  0  0  0  0  0  0  0  0  0
    9.2449   -2.0661    4.2753 H   0  0  0  0  0  0  0  0  0  0  0  0
   11.1695   -2.5742    5.3441 H   0  0  0  0  0  0  0  0  0  0  0  0
   13.3260   -3.8420    5.6306 H   0  0  0  0  0  0  0  0  0  0  0  0
   13.3538   -6.9953    2.1815 H   0  0  0  0  0  0  0  0  0  0  0  0
   15.2341   -6.1119    0.4940 H   0  0  0  0  0  0  0  0  0  0  0  0
   14.0764   -5.8427   -1.5674 H   0  0  0  0  0  0  0  0  0  0  0  0
   12.8397   -8.6981   -3.6700 H   0  0  0  0  0  0  0  0  0  0  0  0
   11.2129   -7.5475   -4.7678 H   0  0  0  0  0  0  0  0  0  0  0  0
   13.4181   -4.8123   -5.8845 H   0  0  0  0  0  0  0  0  0  0  0  0
   13.8564   -2.7154   -6.9073 H   0  0  0  0  0  0  0  0  0  0  0  0
   12.6267   -1.5060   -6.5074 H   0  0  0  0  0  0  0  0  0  0  0  0
   12.6816   -2.2315   -8.1370 H   0  0  0  0  0  0  0  0  0  0  0  0
   10.0911   -2.4093   -7.1897 H   0  0  0  0  0  0  0  0  0  0  0  0
    8.5279   -4.2002   -6.4692 H   0  0  0  0  0  0  0  0  0  0  0  0
   13.7791  -10.1378   -2.0001 H   0  0  0  0  0  0  0  0  0  0  0  0
   14.8680  -10.3895    0.2003 H   0  0  0  0  0  0  0  0  0  0  0  0
   17.2394   -7.9362    3.7549 H   0  0  0  0  0  0  0  0  0  0  0  0
   16.8159   -6.2387    5.5361 H   0  0  0  0  0  0  0  0  0  0  0  0
   11.5623   -5.5647    2.2407 H   0  0  0  0  0  0  0  0  0  0  0  0
  1  2  1  0  0  0  0
  1 42  1  0  0  0  0
  1 43  1  0  0  0  0
  1 44  1  0  0  0  0
  2  3  1  0  0  0  0
  2 45  1  0  0  0  0
  2 46  1  0  0  0  0
  3  4  1  0  0  0  0
  3 47  1  0  0  0  0
  4  5  2  0  0  0  0
  4  6  1  0  0  0  0
  6  7  1  0  0  0  0
  6 48  1  0  0  0  0
  6 49  1  0  0  0  0
  7  8  1  0  0  0  0
  7 50  1  0  0  0  0
  7 51  1  0  0  0  0
  8  9  1  0  0  0  0
  8 52  1  0  0  0  0
  8 53  1  0  0  0  0
  9 10  1  0  0  0  0
  9 54  1  0  0  0  0
 10 11  2  0  0  0  0
 10 12  1  0  0  0  0
 12 13  2  0  0  0  0
 12 41  1  0  0  0  0
 13 14  1  0  0  0  0
 13 55  1  0  0  0  0
 14 15  1  0  0  0  0
 14 56  1  0  0  0  0
 15 16  1  0  0  0  0
 15 41  2  0  0  0  0
 16 17  1  0  0  0  0
 16 40  2  0  0  0  0
 17 18  2  0  0  0  0
 17 57  1  0  0  0  0
 18 19  1  0  0  0  0
 18 38  1  0  0  0  0
 19 20  1  0  0  0  0
 20 21  1  0  0  0  0
 20 37  2  0  0  0  0
 21 22  2  0  0  0  0
 21 58  1  0  0  0  0
 22 23  1  0  0  0  0
 22 59  1  0  0  0  0
 23 24  1  0  0  0  0
 23 36  2  0  0  0  0
 24 25  1  0  0  0  0
 24 60  1  0  0  0  0
 25 26  2  0  0  0  0
 25 27  1  0  0  0  0
 27 28  1  0  0  0  0
 27 61  1  0  0  0  0
 28 29  1  0  0  0  0
 28 34  2  0  0  0  0
 29 30  2  0  0  0  0
 29 62  1  0  0  0  0
 30 31  1  0  0  0  0
 30 32  1  0  0  0  0
 31 63  1  0  0  0  0
 31 64  1  0  0  0  0
 31 65  1  0  0  0  0
 32 33  2  0  0  0  0
 32 66  1  0  0  0  0
 33 34  1  0  0  0  0
 33 67  1  0  0  0  0
 34 35  1  0  0  0  0
 36 37  1  0  0  0  0
 36 68  1  0  0  0  0
 37 69  1  0  0  0  0
 38 39  2  0  0  0  0
 38 70  1  0  0  0  0
 39 40  1  0  0  0  0
 39 71  1  0  0  0  0
 41 72  1  0  0  0  0
M  END
$$$$
