CHEMBL3671583
 OpenBabel04072215373D

 53 55  0  0  0  0  0  0  0  0999 V2000
    3.5133    0.7934    3.8085 C   0  0  0  0  0  0  0  0  0  0  0  0
    3.5358   -0.2683    2.9943 C   0  0  0  0  0  0  0  0  0  0  0  0
    3.6504   -0.0513    1.5287 C   0  0  0  0  0  0  0  0  0  0  0  0
    3.1745    0.9350    0.9740 O   0  0  0  0  0  0  0  0  0  0  0  0
    4.3578   -0.9807    0.8047 N   0  0  0  0  0  0  0  0  0  0  0  0
    5.2039   -1.9351    1.3883 C   0  0  0  0  0  0  0  0  0  0  0  0
    6.3798   -1.4745    1.9813 C   0  0  0  0  0  0  0  0  0  0  0  0
    7.1652   -2.3365    2.7695 C   0  0  0  0  0  0  0  0  0  0  0  0
    8.3073   -1.9307    3.4778 C   0  0  0  0  0  0  0  0  0  0  0  0
    8.6666   -0.5497    3.5000 N   0  0  0  0  0  0  0  0  0  0  0  0
    9.9461   -0.0750    3.8811 C   0  0  0  0  0  0  0  0  0  0  0  0
   11.0778   -0.6856    3.3055 C   0  0  0  0  0  0  0  0  0  0  0  0
   12.3720   -0.3299    3.6785 C   0  0  0  0  0  0  0  0  0  0  0  0
   12.5557    0.6621    4.6295 C   0  0  0  0  0  0  0  0  0  0  0  0
   14.3018    1.1027    5.1983 Br  0  0  0  0  0  0  0  0  0  0  0  0
   11.4572    1.3217    5.1767 C   0  0  0  0  0  0  0  0  0  0  0  0
   10.1403    0.9693    4.8049 C   0  0  0  0  0  0  0  0  0  0  0  0
    9.0138    1.7255    5.4570 C   0  0  0  0  0  0  0  0  0  0  0  0
    7.7699    1.3177    5.0662 F   0  0  0  0  0  0  0  0  0  0  0  0
    9.0259    1.6183    6.8148 F   0  0  0  0  0  0  0  0  0  0  0  0
    9.0602    3.0614    5.1910 F   0  0  0  0  0  0  0  0  0  0  0  0
    9.0494   -2.8001    4.1853 N   0  0  0  0  0  0  0  0  0  0  0  0
    8.6274   -4.0669    4.2161 C   0  0  0  0  0  0  0  0  0  0  0  0
    7.5272   -4.5453    3.6228 N   0  0  0  0  0  0  0  0  0  0  0  0
    6.8035   -3.6783    2.9085 C   0  0  0  0  0  0  0  0  0  0  0  0
    5.6380   -4.1259    2.2798 C   0  0  0  0  0  0  0  0  0  0  0  0
    4.8306   -3.2799    1.5104 C   0  0  0  0  0  0  0  0  0  0  0  0
    3.6855   -3.8530    1.0052 O   0  0  0  0  0  0  0  0  0  0  0  0
    3.3271   -3.4243   -0.3148 C   0  0  0  0  0  0  0  0  0  0  0  0
    2.2133   -4.2967   -0.9016 C   0  0  0  0  0  0  0  0  0  0  0  0
    1.7837   -3.7999   -2.2032 N   0  0  0  0  0  0  0  0  0  0  0  0
    2.4759   -4.1072   -3.3523 C   0  0  0  0  0  0  0  0  0  0  0  0
    1.9941   -3.3893   -4.5859 C   0  0  0  0  0  0  0  0  0  0  0  0
    3.4110   -4.8999   -3.3845 O   0  0  0  0  0  0  0  0  0  0  0  0
    3.4910    0.6706    4.8857 H   0  0  0  0  0  0  0  0  0  0  0  0
    3.5355    1.8066    3.4157 H   0  0  0  0  0  0  0  0  0  0  0  0
    3.5308   -1.2791    3.3835 H   0  0  0  0  0  0  0  0  0  0  0  0
    4.6815   -0.5595   -0.0601 H   0  0  0  0  0  0  0  0  0  0  0  0
    6.6667   -0.4314    1.8596 H   0  0  0  0  0  0  0  0  0  0  0  0
    7.8964   -0.0269    3.9189 H   0  0  0  0  0  0  0  0  0  0  0  0
   10.9458   -1.4721    2.5640 H   0  0  0  0  0  0  0  0  0  0  0  0
   13.2162   -0.8474    3.2321 H   0  0  0  0  0  0  0  0  0  0  0  0
   11.6143    2.1086    5.9141 H   0  0  0  0  0  0  0  0  0  0  0  0
    9.2318   -4.7679    4.7823 H   0  0  0  0  0  0  0  0  0  0  0  0
    5.3440   -5.1679    2.4049 H   0  0  0  0  0  0  0  0  0  0  0  0
    4.2046   -3.4450   -0.9726 H   0  0  0  0  0  0  0  0  0  0  0  0
    2.9183   -2.4120   -0.2809 H   0  0  0  0  0  0  0  0  0  0  0  0
    1.3375   -4.2861   -0.2435 H   0  0  0  0  0  0  0  0  0  0  0  0
    2.5436   -5.3369   -0.9908 H   0  0  0  0  0  0  0  0  0  0  0  0
    1.0948   -3.0582   -2.2274 H   0  0  0  0  0  0  0  0  0  0  0  0
    1.3528   -2.5393   -4.3368 H   0  0  0  0  0  0  0  0  0  0  0  0
    1.4367   -4.0856   -5.2174 H   0  0  0  0  0  0  0  0  0  0  0  0
    2.8605   -3.0087   -5.1355 H   0  0  0  0  0  0  0  0  0  0  0  0
  1  2  2  0  0  0  0
  1 35  1  0  0  0  0
  1 36  1  0  0  0  0
  2  3  1  0  0  0  0
  2 37  1  0  0  0  0
  3  4  2  0  0  0  0
  3  5  1  0  0  0  0
  5  6  1  0  0  0  0
  5 38  1  0  0  0  0
  6  7  1  0  0  0  0
  6 27  2  0  0  0  0
  7  8  2  0  0  0  0
  7 39  1  0  0  0  0
  8  9  1  0  0  0  0
  8 25  1  0  0  0  0
  9 10  1  0  0  0  0
  9 22  2  0  0  0  0
 10 11  1  0  0  0  0
 10 40  1  0  0  0  0
 11 12  1  0  0  0  0
 11 17  2  0  0  0  0
 12 13  2  0  0  0  0
 12 41  1  0  0  0  0
 13 14  1  0  0  0  0
 13 42  1  0  0  0  0
 14 15  1  0  0  0  0
 14 16  2  0  0  0  0
 16 17  1  0  0  0  0
 16 43  1  0  0  0  0
 17 18  1  0  0  0  0
 18 19  1  0  0  0  0
 18 20  1  0  0  0  0
 18 21  1  0  0  0  0
 22 23  1  0  0  0  0
 23 24  2  0  0  0  0
 23 44  1  0  0  0  0
 24 25  1  0  0  0  0
 25 26  2  0  0  0  0
 26 27  1  0  0  0  0
 26 45  1  0  0  0  0
 27 28  1  0  0  0  0
 28 29  1  0  0  0  0
 29 30  1  0  0  0  0
 29 46  1  0  0  0  0
 29 47  1  0  0  0  0
 30 31  1  0  0  0  0
 30 48  1  0  0  0  0
 30 49  1  0  0  0  0
 31 32  1  0  0  0  0
 31 50  1  0  0  0  0
 32 33  1  0  0  0  0
 32 34  2  0  0  0  0
 33 51  1  0  0  0  0
 33 52  1  0  0  0  0
 33 53  1  0  0  0  0
M  END
$$$$
