CHEMBL231066
 OpenBabel04072215363D

 40 43  0  0  0  0  0  0  0  0999 V2000
    1.5447   -1.3173    1.9082 F   0  0  0  0  0  0  0  0  0  0  0  0
    0.6336   -2.2509    2.3104 C   0  0  0  0  0  0  0  0  0  0  0  0
    0.9008   -2.4585    3.6307 F   0  0  0  0  0  0  0  0  0  0  0  0
   -0.5725   -1.6264    2.2493 F   0  0  0  0  0  0  0  0  0  0  0  0
    0.6964   -3.5109    1.4929 C   0  0  0  0  0  0  0  0  0  0  0  0
    1.6229   -3.6189    0.4326 C   0  0  0  0  0  0  0  0  0  0  0  0
    1.7465   -4.7905   -0.3335 C   0  0  0  0  0  0  0  0  0  0  0  0
    2.7169   -4.8280   -1.3583 N   0  0  0  0  0  0  0  0  0  0  0  0
    2.9146   -5.8230   -2.2510 C   0  0  0  0  0  0  0  0  0  0  0  0
    2.1179   -6.7885   -2.6531 N   0  0  0  0  0  0  0  0  0  0  0  0
    2.8393   -7.5300   -3.5549 C   0  0  0  0  0  0  0  0  0  0  0  0
    2.4776   -8.6821   -4.2667 C   0  0  0  0  0  0  0  0  0  0  0  0
    3.4296   -9.2734   -5.1078 C   0  0  0  0  0  0  0  0  0  0  0  0
    3.0185  -10.4147   -5.7655 O   0  0  0  0  0  0  0  0  0  0  0  0
    3.9288  -11.4120   -6.0368 C   0  0  0  0  0  0  0  0  0  0  0  0
    5.0084  -11.7382   -5.2193 C   0  0  0  0  0  0  0  0  0  0  0  0
    5.8639  -12.7407   -5.6410 C   0  0  0  0  0  0  0  0  0  0  0  0
    5.6833  -13.4553   -6.7716 N   0  0  0  0  0  0  0  0  0  0  0  0
    4.5900  -13.1615   -7.5080 C   0  0  0  0  0  0  0  0  0  0  0  0
    3.6917  -12.1597   -7.1855 C   0  0  0  0  0  0  0  0  0  0  0  0
    4.6876   -8.6819   -5.2895 C   0  0  0  0  0  0  0  0  0  0  0  0
    5.0705   -7.5444   -4.5702 C   0  0  0  0  0  0  0  0  0  0  0  0
    4.1125   -7.0004   -3.7171 C   0  0  0  0  0  0  0  0  0  0  0  0
    4.1284   -5.9115   -2.8864 N   0  0  0  0  0  0  0  0  0  0  0  0
    0.8745   -5.8438   -0.0516 C   0  0  0  0  0  0  0  0  0  0  0  0
   -0.0561   -5.7552    0.9855 C   0  0  0  0  0  0  0  0  0  0  0  0
   -0.1404   -4.5967    1.7622 C   0  0  0  0  0  0  0  0  0  0  0  0
   -1.2982   -4.5715    3.0394 Cl  0  0  0  0  0  0  0  0  0  0  0  0
    2.2644   -2.7669    0.2067 H   0  0  0  0  0  0  0  0  0  0  0  0
    3.4060   -4.0908   -1.2721 H   0  0  0  0  0  0  0  0  0  0  0  0
    1.4855   -9.1044   -4.1531 H   0  0  0  0  0  0  0  0  0  0  0  0
    5.2012  -11.2235   -4.2859 H   0  0  0  0  0  0  0  0  0  0  0  0
    6.7469  -13.0006   -5.0641 H   0  0  0  0  0  0  0  0  0  0  0  0
    4.4517  -13.7735   -8.3946 H   0  0  0  0  0  0  0  0  0  0  0  0
    2.8312  -11.9642   -7.8146 H   0  0  0  0  0  0  0  0  0  0  0  0
    5.4006   -9.1098   -5.9908 H   0  0  0  0  0  0  0  0  0  0  0  0
    6.0601   -7.1150   -4.6801 H   0  0  0  0  0  0  0  0  0  0  0  0
    4.9145   -5.3025   -2.7302 H   0  0  0  0  0  0  0  0  0  0  0  0
    0.9123   -6.7692   -0.6205 H   0  0  0  0  0  0  0  0  0  0  0  0
   -0.7055   -6.6032    1.1871 H   0  0  0  0  0  0  0  0  0  0  0  0
  1  2  1  0  0  0  0
  2  3  1  0  0  0  0
  2  4  1  0  0  0  0
  2  5  1  0  0  0  0
  5  6  1  0  0  0  0
  5 27  2  0  0  0  0
  6  7  2  0  0  0  0
  6 29  1  0  0  0  0
  7  8  1  0  0  0  0
  7 25  1  0  0  0  0
  8  9  1  0  0  0  0
  8 30  1  0  0  0  0
  9 10  2  0  0  0  0
  9 24  1  0  0  0  0
 10 11  1  0  0  0  0
 11 12  1  0  0  0  0
 11 23  2  0  0  0  0
 12 13  2  0  0  0  0
 12 31  1  0  0  0  0
 13 14  1  0  0  0  0
 13 21  1  0  0  0  0
 14 15  1  0  0  0  0
 15 16  1  0  0  0  0
 15 20  2  0  0  0  0
 16 17  2  0  0  0  0
 16 32  1  0  0  0  0
 17 18  1  0  0  0  0
 17 33  1  0  0  0  0
 18 19  2  0  0  0  0
 19 20  1  0  0  0  0
 19 34  1  0  0  0  0
 20 35  1  0  0  0  0
 21 22  2  0  0  0  0
 21 36  1  0  0  0  0
 22 23  1  0  0  0  0
 22 37  1  0  0  0  0
 23 24  1  0  0  0  0
 24 38  1  0  0  0  0
 25 26  2  0  0  0  0
 25 39  1  0  0  0  0
 26 27  1  0  0  0  0
 26 40  1  0  0  0  0
 27 28  1  0  0  0  0
M  END
$$$$
