CHEMBL457099
 OpenBabel04072215383D

 57 61  0  0  0  0  0  0  0  0999 V2000
    1.8506  -10.2379    4.9988 C   0  0  0  0  0  0  0  0  0  0  0  0
    1.8060  -10.4306    3.5694 N   0  0  0  0  0  0  0  0  0  0  0  0
    2.4028   -9.4459    2.7964 C   0  0  0  0  0  0  0  0  0  0  0  0
    2.8675   -9.8559    1.6133 N   0  0  0  0  0  0  0  0  0  0  0  0
    3.4727   -8.9327    0.8475 C   0  0  0  0  0  0  0  0  0  0  0  0
    3.6523   -7.6230    1.2232 C   0  0  0  0  0  0  0  0  0  0  0  0
    3.1608   -7.2727    2.4623 C   0  0  0  0  0  0  0  0  0  0  0  0
    3.3590   -5.9472    3.0945 C   0  0  0  0  0  0  0  0  0  0  0  0
    3.4595   -5.8886    4.5053 C   0  0  0  0  0  0  0  0  0  0  0  0
    3.6904   -4.6939    5.1801 C   0  0  0  0  0  0  0  0  0  0  0  0
    3.7775   -3.5444    4.4315 C   0  0  0  0  0  0  0  0  0  0  0  0
    3.6585   -3.5285    3.0913 N   0  0  0  0  0  0  0  0  0  0  0  0
    3.4987   -4.7138    2.4356 C   0  0  0  0  0  0  0  0  0  0  0  0
    3.4774   -4.6622    1.0361 O   0  0  0  0  0  0  0  0  0  0  0  0
    4.1257   -3.5967    0.4129 C   0  0  0  0  0  0  0  0  0  0  0  0
    5.3526   -3.1387    0.8848 C   0  0  0  0  0  0  0  0  0  0  0  0
    5.9309   -1.9978    0.3442 C   0  0  0  0  0  0  0  0  0  0  0  0
    5.3235   -1.2894   -0.6985 C   0  0  0  0  0  0  0  0  0  0  0  0
    5.8516   -0.0103   -1.0798 N   0  0  0  0  0  0  0  0  0  0  0  0
    6.5494    0.8146   -0.1990 C   0  0  0  0  0  0  0  0  0  0  0  0
    6.7280    0.5483    0.9861 O   0  0  0  0  0  0  0  0  0  0  0  0
    7.0165    1.9816   -0.7875 N   0  0  0  0  0  0  0  0  0  0  0  0
    7.8730    2.9065   -0.1265 C   0  0  0  0  0  0  0  0  0  0  0  0
    8.6734    2.5414    0.9653 C   0  0  0  0  0  0  0  0  0  0  0  0
    9.4540    3.4826    1.6396 C   0  0  0  0  0  0  0  0  0  0  0  0
    9.4677    4.8040    1.2132 C   0  0  0  0  0  0  0  0  0  0  0  0
    8.7168    5.1758    0.0988 C   0  0  0  0  0  0  0  0  0  0  0  0
    7.9273    4.2269   -0.5779 C   0  0  0  0  0  0  0  0  0  0  0  0
    4.1855   -1.8601   -1.3402 C   0  0  0  0  0  0  0  0  0  0  0  0
    3.6085   -1.3395   -2.5266 C   0  0  0  0  0  0  0  0  0  0  0  0
    2.4932   -1.9290   -3.1286 C   0  0  0  0  0  0  0  0  0  0  0  0
    1.9016   -3.0411   -2.5495 C   0  0  0  0  0  0  0  0  0  0  0  0
    2.4284   -3.5720   -1.3723 C   0  0  0  0  0  0  0  0  0  0  0  0
    3.5734   -3.0219   -0.7580 C   0  0  0  0  0  0  0  0  0  0  0  0
    2.5303   -8.1913    3.2456 N   0  0  0  0  0  0  0  0  0  0  0  0
    1.5656  -11.1713    5.4957 H   0  0  0  0  0  0  0  0  0  0  0  0
    1.1358   -9.4702    5.3126 H   0  0  0  0  0  0  0  0  0  0  0  0
    2.8518   -9.9703    5.3537 H   0  0  0  0  0  0  0  0  0  0  0  0
    2.1590  -11.3171    3.2243 H   0  0  0  0  0  0  0  0  0  0  0  0
    3.8397   -9.2953   -0.1079 H   0  0  0  0  0  0  0  0  0  0  0  0
    4.1891   -6.9418    0.5789 H   0  0  0  0  0  0  0  0  0  0  0  0
    3.3761   -6.8016    5.0939 H   0  0  0  0  0  0  0  0  0  0  0  0
    3.7980   -4.6704    6.2584 H   0  0  0  0  0  0  0  0  0  0  0  0
    3.9638   -2.5796    4.8944 H   0  0  0  0  0  0  0  0  0  0  0  0
    5.8462   -3.6125    1.7283 H   0  0  0  0  0  0  0  0  0  0  0  0
    6.8622   -1.6632    0.7917 H   0  0  0  0  0  0  0  0  0  0  0  0
    5.4468    0.4399   -1.8822 H   0  0  0  0  0  0  0  0  0  0  0  0
    6.5341    2.3162   -1.6066 H   0  0  0  0  0  0  0  0  0  0  0  0
    8.7135    1.5160    1.3203 H   0  0  0  0  0  0  0  0  0  0  0  0
   10.0400    3.1725    2.5010 H   0  0  0  0  0  0  0  0  0  0  0  0
   10.0640    5.5384    1.7492 H   0  0  0  0  0  0  0  0  0  0  0  0
    8.7357    6.2097   -0.2358 H   0  0  0  0  0  0  0  0  0  0  0  0
    7.3430    4.5587   -1.4285 H   0  0  0  0  0  0  0  0  0  0  0  0
    4.0368   -0.4778   -3.0283 H   0  0  0  0  0  0  0  0  0  0  0  0
    2.0913   -1.5183   -4.0515 H   0  0  0  0  0  0  0  0  0  0  0  0
    1.0334   -3.5023   -3.0134 H   0  0  0  0  0  0  0  0  0  0  0  0
    1.9415   -4.4453   -0.9411 H   0  0  0  0  0  0  0  0  0  0  0  0
  1  2  1  0  0  0  0
  1 36  1  0  0  0  0
  1 37  1  0  0  0  0
  1 38  1  0  0  0  0
  2  3  1  0  0  0  0
  2 39  1  0  0  0  0
  3  4  1  0  0  0  0
  3 35  2  0  0  0  0
  4  5  2  0  0  0  0
  5  6  1  0  0  0  0
  5 40  1  0  0  0  0
  6  7  2  0  0  0  0
  6 41  1  0  0  0  0
  7  8  1  0  0  0  0
  7 35  1  0  0  0  0
  8  9  1  0  0  0  0
  8 13  2  0  0  0  0
  9 10  2  0  0  0  0
  9 42  1  0  0  0  0
 10 11  1  0  0  0  0
 10 43  1  0  0  0  0
 11 12  2  0  0  0  0
 11 44  1  0  0  0  0
 12 13  1  0  0  0  0
 13 14  1  0  0  0  0
 14 15  1  0  0  0  0
 15 16  1  0  0  0  0
 15 34  2  0  0  0  0
 16 17  2  0  0  0  0
 16 45  1  0  0  0  0
 17 18  1  0  0  0  0
 17 46  1  0  0  0  0
 18 19  1  0  0  0  0
 18 29  2  0  0  0  0
 19 20  1  0  0  0  0
 19 47  1  0  0  0  0
 20 21  2  0  0  0  0
 20 22  1  0  0  0  0
 22 23  1  0  0  0  0
 22 48  1  0  0  0  0
 23 24  1  0  0  0  0
 23 28  2  0  0  0  0
 24 25  2  0  0  0  0
 24 49  1  0  0  0  0
 25 26  1  0  0  0  0
 25 50  1  0  0  0  0
 26 27  2  0  0  0  0
 26 51  1  0  0  0  0
 27 28  1  0  0  0  0
 27 52  1  0  0  0  0
 28 53  1  0  0  0  0
 29 30  1  0  0  0  0
 29 34  1  0  0  0  0
 30 31  2  0  0  0  0
 30 54  1  0  0  0  0
 31 32  1  0  0  0  0
 31 55  1  0  0  0  0
 32 33  2  0  0  0  0
 32 56  1  0  0  0  0
 33 34  1  0  0  0  0
 33 57  1  0  0  0  0
M  END
$$$$
