CHEMBL3354187
 OpenBabel04072215363D

 60 64  0  0  0  0  0  0  0  0999 V2000
    4.9303    6.7335   -7.7756 C   0  0  0  0  0  0  0  0  0  0  0  0
    3.9415    7.3373   -6.9585 O   0  0  0  0  0  0  0  0  0  0  0  0
    2.8397    6.4830   -6.6267 C   0  0  0  0  0  0  0  0  0  0  0  0
    1.8002    7.3476   -5.9046 C   0  0  0  0  0  0  0  0  0  0  0  0
    2.3047    7.7717   -4.5262 C   0  0  0  0  0  0  0  0  0  0  0  0
    2.6670    6.5815   -3.7691 N   0  0  0  0  0  0  0  0  0  0  0  0
    2.1038    6.3118   -2.5458 C   0  0  0  0  0  0  0  0  0  0  0  0
    2.5525    5.2635   -1.8417 N   0  0  0  0  0  0  0  0  0  0  0  0
    1.9509    4.9923   -0.6730 C   0  0  0  0  0  0  0  0  0  0  0  0
    0.8973    5.7150   -0.1772 C   0  0  0  0  0  0  0  0  0  0  0  0
    0.4972    6.7866   -0.9382 C   0  0  0  0  0  0  0  0  0  0  0  0
   -0.5608    7.5932   -0.4633 N   0  0  0  0  0  0  0  0  0  0  0  0
   -0.8427    8.9003   -0.8957 C   0  0  0  0  0  0  0  0  0  0  0  0
    0.1992    9.8023   -1.0911 C   0  0  0  0  0  0  0  0  0  0  0  0
   -0.1008   11.1146   -1.4466 C   0  0  0  0  0  0  0  0  0  0  0  0
   -1.4372   11.4717   -1.6330 C   0  0  0  0  0  0  0  0  0  0  0  0
   -2.4401   10.5050   -1.4296 C   0  0  0  0  0  0  0  0  0  0  0  0
   -2.1331    9.2461   -1.0371 N   0  0  0  0  0  0  0  0  0  0  0  0
   -1.4500   12.8299   -2.0149 C   0  0  0  0  0  0  0  0  0  0  0  0
   -0.1511   13.3005   -2.0539 C   0  0  0  0  0  0  0  0  0  0  0  0
    0.1996   14.7060   -2.4413 C   0  0  0  0  0  0  0  0  0  0  0  0
    1.4374   15.3552   -2.6318 C   0  0  0  0  0  0  0  0  0  0  0  0
    1.3097   16.6407   -2.9739 N   0  0  0  0  0  0  0  0  0  0  0  0
   -0.0170   16.8189   -3.0145 N   0  0  0  0  0  0  0  0  0  0  0  0
   -0.7242   15.6909   -2.7142 C   0  0  0  0  0  0  0  0  0  0  0  0
    0.6814   12.2466   -1.6711 N   0  0  0  0  0  0  0  0  0  0  0  0
    2.1348   12.3599   -1.4946 C   0  0  0  0  0  0  0  0  0  0  0  0
    2.7871   11.5125   -0.3979 C   0  0  0  0  0  0  0  0  0  0  0  0
    2.8912   12.1733   -2.8108 C   0  0  0  0  0  0  0  0  0  0  0  0
    1.1062    7.0882   -2.1016 N   0  0  0  0  0  0  0  0  0  0  0  0
    3.6739    5.7070   -4.3479 C   0  0  0  0  0  0  0  0  0  0  0  0
    3.2371    5.2868   -5.7523 C   0  0  0  0  0  0  0  0  0  0  0  0
    5.5039    7.5308   -8.2602 H   0  0  0  0  0  0  0  0  0  0  0  0
    4.4911    6.1021   -8.5542 H   0  0  0  0  0  0  0  0  0  0  0  0
    5.6198    6.1521   -7.1570 H   0  0  0  0  0  0  0  0  0  0  0  0
    2.3950    6.1188   -7.5615 H   0  0  0  0  0  0  0  0  0  0  0  0
    0.8658    6.7835   -5.7948 H   0  0  0  0  0  0  0  0  0  0  0  0
    1.5817    8.2452   -6.4954 H   0  0  0  0  0  0  0  0  0  0  0  0
    1.5372    8.3852   -4.0426 H   0  0  0  0  0  0  0  0  0  0  0  0
    3.1880    8.4147   -4.6272 H   0  0  0  0  0  0  0  0  0  0  0  0
    2.3617    4.1486   -0.1255 H   0  0  0  0  0  0  0  0  0  0  0  0
    0.4423    5.4786    0.7741 H   0  0  0  0  0  0  0  0  0  0  0  0
   -1.4292    7.0842   -0.3812 H   0  0  0  0  0  0  0  0  0  0  0  0
    1.2147    9.4534   -0.9389 H   0  0  0  0  0  0  0  0  0  0  0  0
   -3.4943   10.7255   -1.5640 H   0  0  0  0  0  0  0  0  0  0  0  0
   -2.3390   13.4043   -2.2449 H   0  0  0  0  0  0  0  0  0  0  0  0
    2.4456   14.9747   -2.5471 H   0  0  0  0  0  0  0  0  0  0  0  0
   -0.3732   17.7385   -3.2542 H   0  0  0  0  0  0  0  0  0  0  0  0
   -1.8047   15.7027   -2.7132 H   0  0  0  0  0  0  0  0  0  0  0  0
    2.2900   13.3831   -1.1386 H   0  0  0  0  0  0  0  0  0  0  0  0
    2.8491   10.4558   -0.6621 H   0  0  0  0  0  0  0  0  0  0  0  0
    2.2625   11.6173    0.5569 H   0  0  0  0  0  0  0  0  0  0  0  0
    3.8255   11.8295   -0.2487 H   0  0  0  0  0  0  0  0  0  0  0  0
    2.8298   11.1398   -3.1678 H   0  0  0  0  0  0  0  0  0  0  0  0
    3.9501   12.4219   -2.6757 H   0  0  0  0  0  0  0  0  0  0  0  0
    2.5032   12.8183   -3.6056 H   0  0  0  0  0  0  0  0  0  0  0  0
    3.8412    4.7940   -3.7661 H   0  0  0  0  0  0  0  0  0  0  0  0
    4.6360    6.2316   -4.3880 H   0  0  0  0  0  0  0  0  0  0  0  0
    2.3713    4.6172   -5.6648 H   0  0  0  0  0  0  0  0  0  0  0  0
    4.0411    4.7072   -6.2172 H   0  0  0  0  0  0  0  0  0  0  0  0
  1  2  1  0  0  0  0
  1 33  1  0  0  0  0
  1 34  1  0  0  0  0
  1 35  1  0  0  0  0
  2  3  1  0  0  0  0
  3  4  1  0  0  0  0
  3 32  1  0  0  0  0
  3 36  1  0  0  0  0
  4  5  1  0  0  0  0
  4 37  1  0  0  0  0
  4 38  1  0  0  0  0
  5  6  1  0  0  0  0
  5 39  1  0  0  0  0
  5 40  1  0  0  0  0
  6  7  1  0  0  0  0
  6 31  1  0  0  0  0
  7  8  1  0  0  0  0
  7 30  2  0  0  0  0
  8  9  2  0  0  0  0
  9 10  1  0  0  0  0
  9 41  1  0  0  0  0
 10 11  2  0  0  0  0
 10 42  1  0  0  0  0
 11 12  1  0  0  0  0
 11 30  1  0  0  0  0
 12 13  1  0  0  0  0
 12 43  1  0  0  0  0
 13 14  1  0  0  0  0
 13 18  2  0  0  0  0
 14 15  2  0  0  0  0
 14 44  1  0  0  0  0
 15 16  1  0  0  0  0
 15 26  1  0  0  0  0
 16 17  2  0  0  0  0
 16 19  1  0  0  0  0
 17 18  1  0  0  0  0
 17 45  1  0  0  0  0
 19 20  2  0  0  0  0
 19 46  1  0  0  0  0
 20 21  1  0  0  0  0
 20 26  1  0  0  0  0
 21 22  1  0  0  0  0
 21 25  2  0  0  0  0
 22 23  2  0  0  0  0
 22 47  1  0  0  0  0
 23 24  1  0  0  0  0
 24 25  1  0  0  0  0
 24 48  1  0  0  0  0
 25 49  1  0  0  0  0
 26 27  1  0  0  0  0
 27 28  1  0  0  0  0
 27 29  1  0  0  0  0
 27 50  1  0  0  0  0
 28 51  1  0  0  0  0
 28 52  1  0  0  0  0
 28 53  1  0  0  0  0
 29 54  1  0  0  0  0
 29 55  1  0  0  0  0
 29 56  1  0  0  0  0
 31 32  1  0  0  0  0
 31 57  1  0  0  0  0
 31 58  1  0  0  0  0
 32 59  1  0  0  0  0
 32 60  1  0  0  0  0
M  END
$$$$
