CHEMBL3656095
 OpenBabel04072215373D

 67 71  0  0  1  0  0  0  0  0999 V2000
    0.9288  -10.1045   -2.7614 C   0  0  0  0  0  0  0  0  0  0  0  0
   -0.5523   -9.8699   -2.6404 C   0  0  0  0  0  0  0  0  0  0  0  0
   -1.4338  -10.8911   -3.0028 C   0  0  0  0  0  0  0  0  0  0  0  0
   -2.8025  -10.6955   -2.9002 C   0  0  0  0  0  0  0  0  0  0  0  0
   -3.3030   -9.4771   -2.4368 C   0  0  0  0  0  0  0  0  0  0  0  0
   -2.4489   -8.4362   -2.0579 C   0  0  0  0  0  0  0  0  0  0  0  0
   -2.9294   -7.1817   -1.5940 N   0  0  0  0  0  0  0  0  0  0  0  0
   -4.2547   -6.8686   -1.3402 C   0  0  0  0  0  0  0  0  0  0  0  0
   -5.1940   -7.6578   -1.3939 O   0  0  0  0  0  0  0  0  0  0  0  0
   -4.4393   -5.5252   -1.0450 N   0  0  0  0  0  0  0  0  0  0  0  0
   -5.7387   -5.0241   -0.7564 C   0  0  0  0  0  0  0  0  0  0  0  0
   -6.6262   -5.6925    0.0888 C   0  0  0  0  0  0  0  0  0  0  0  0
   -7.9117   -5.1831    0.3116 C   0  0  0  0  0  0  0  0  0  0  0  0
   -8.3262   -4.0065   -0.3218 C   0  0  0  0  0  0  0  0  0  0  0  0
   -9.6042   -3.5844   -0.0252 O   0  0  0  0  0  0  0  0  0  0  0  0
  -10.3379   -2.8852   -0.9568 C   0  0  0  0  0  0  0  0  0  0  0  0
  -10.2905   -3.1235   -2.3266 C   0  0  0  0  0  0  0  0  0  0  0  0
  -11.0745   -2.3368   -3.1499 C   0  0  0  0  0  0  0  0  0  0  0  0
  -11.9182   -1.3858   -2.6989 N   0  0  0  0  0  0  0  0  0  0  0  0
  -11.9986   -1.2198   -1.3544 C   0  0  0  0  0  0  0  0  0  0  0  0
  -12.9689   -0.2131   -0.9444 C   0  0  0  0  0  0  0  0  0  0  0  0
  -13.3676    0.2643    0.2919 C   0  0  0  0  0  0  0  0  0  0  0  0
  -14.3395    1.2968    0.0988 C   0  0  0  0  0  0  0  0  0  0  0  0
  -14.9717    2.0816    1.1622 C   0  0  0  0  0  0  0  0  0  0  0  0
  -15.1941    1.5535    2.2504 O   0  0  0  0  0  0  0  0  0  0  0  0
  -15.2662    3.4309    0.9293 N   0  0  0  0  0  0  0  0  0  0  0  0
  -14.8784    4.2118   -0.2460 C   0  0  0  0  0  0  0  0  0  0  0  0
  -14.1083    5.4739    0.1306 C   0  0  0  0  0  0  0  0  0  0  0  0
  -14.8288    6.2879    1.1945 C   0  0  0  0  0  0  0  0  0  0  0  0
  -15.1734    5.4193    2.4056 C   0  0  3  0  0  0  0  0  0  0  0  0
  -15.9067    6.1992    3.3463 O   0  0  0  0  0  0  0  0  0  0  0  0
  -15.9693    4.1801    1.9697 C   0  0  0  0  0  0  0  0  0  0  0  0
  -14.5887    1.3216   -1.2626 C   0  0  0  0  0  0  0  0  0  0  0  0
  -13.7104    0.4739   -1.8782 N   0  0  0  0  0  0  0  0  0  0  0  0
  -11.2303   -1.9418   -0.4542 C   0  0  0  0  0  0  0  0  0  0  0  0
   -7.4274   -3.3100   -1.1327 C   0  0  0  0  0  0  0  0  0  0  0  0
   -6.1501   -3.8259   -1.3479 C   0  0  0  0  0  0  0  0  0  0  0  0
   -5.3252   -3.1897   -2.1933 F   0  0  0  0  0  0  0  0  0  0  0  0
   -1.0629   -8.6444   -2.1663 C   0  0  0  0  0  0  0  0  0  0  0  0
    1.1396  -11.0941   -3.1657 H   0  0  0  0  0  0  0  0  0  0  0  0
    1.4045  -10.0396   -1.7779 H   0  0  0  0  0  0  0  0  0  0  0  0
    1.3791   -9.3696   -3.4381 H   0  0  0  0  0  0  0  0  0  0  0  0
   -1.0660  -11.8454   -3.3703 H   0  0  0  0  0  0  0  0  0  0  0  0
   -3.4946  -11.4844   -3.1804 H   0  0  0  0  0  0  0  0  0  0  0  0
   -4.3811   -9.3863   -2.3930 H   0  0  0  0  0  0  0  0  0  0  0  0
   -2.2379   -6.5009   -1.3152 H   0  0  0  0  0  0  0  0  0  0  0  0
   -3.8393   -4.8917   -1.5575 H   0  0  0  0  0  0  0  0  0  0  0  0
   -6.3297   -6.6183    0.5814 H   0  0  0  0  0  0  0  0  0  0  0  0
   -8.5945   -5.7124    0.9733 H   0  0  0  0  0  0  0  0  0  0  0  0
   -9.6596   -3.8932   -2.7562 H   0  0  0  0  0  0  0  0  0  0  0  0
  -11.0448   -2.4573   -4.2290 H   0  0  0  0  0  0  0  0  0  0  0  0
  -12.9925   -0.0622    1.2544 H   0  0  0  0  0  0  0  0  0  0  0  0
  -15.8001    4.4644   -0.7823 H   0  0  0  0  0  0  0  0  0  0  0  0
  -14.2341    3.6560   -0.9225 H   0  0  0  0  0  0  0  0  0  0  0  0
  -13.9498    6.0844   -0.7661 H   0  0  0  0  0  0  0  0  0  0  0  0
  -13.1172    5.1895    0.5051 H   0  0  0  0  0  0  0  0  0  0  0  0
  -15.7440    6.7240    0.7744 H   0  0  0  0  0  0  0  0  0  0  0  0
  -14.2068    7.1355    1.5054 H   0  0  0  0  0  0  0  0  0  0  0  0
  -14.2461    5.0985    2.8954 H   0  0  0  0  0  0  0  0  0  0  0  0
  -16.7153    6.5206    2.9131 H   0  0  0  0  0  0  0  0  0  0  0  0
  -16.9410    4.4811    1.5574 H   0  0  0  0  0  0  0  0  0  0  0  0
  -16.1961    3.5625    2.8452 H   0  0  0  0  0  0  0  0  0  0  0  0
  -15.2890    1.8959   -1.8530 H   0  0  0  0  0  0  0  0  0  0  0  0
  -13.6078    0.3265   -2.8749 H   0  0  0  0  0  0  0  0  0  0  0  0
  -11.3192   -1.7842    0.6145 H   0  0  0  0  0  0  0  0  0  0  0  0
   -7.7003   -2.3812   -1.6207 H   0  0  0  0  0  0  0  0  0  0  0  0
   -0.3667   -7.8590   -1.8883 H   0  0  0  0  0  0  0  0  0  0  0  0
  1  2  1  0  0  0  0
  1 40  1  0  0  0  0
  1 41  1  0  0  0  0
  1 42  1  0  0  0  0
  2  3  1  0  0  0  0
  2 39  2  0  0  0  0
  3  4  2  0  0  0  0
  3 43  1  0  0  0  0
  4  5  1  0  0  0  0
  4 44  1  0  0  0  0
  5  6  2  0  0  0  0
  5 45  1  0  0  0  0
  6  7  1  0  0  0  0
  6 39  1  0  0  0  0
  7  8  1  0  0  0  0
  7 46  1  0  0  0  0
  8  9  2  0  0  0  0
  8 10  1  0  0  0  0
 10 11  1  0  0  0  0
 10 47  1  0  0  0  0
 11 12  1  0  0  0  0
 11 37  2  0  0  0  0
 12 13  2  0  0  0  0
 12 48  1  0  0  0  0
 13 14  1  0  0  0  0
 13 49  1  0  0  0  0
 14 15  1  0  0  0  0
 14 36  2  0  0  0  0
 15 16  1  0  0  0  0
 16 17  1  0  0  0  0
 16 35  2  0  0  0  0
 17 18  2  0  0  0  0
 17 50  1  0  0  0  0
 18 19  1  0  0  0  0
 18 51  1  0  0  0  0
 19 20  2  0  0  0  0
 20 21  1  0  0  0  0
 20 35  1  0  0  0  0
 21 22  2  0  0  0  0
 21 34  1  0  0  0  0
 22 23  1  0  0  0  0
 22 52  1  0  0  0  0
 23 24  1  0  0  0  0
 23 33  2  0  0  0  0
 24 25  2  0  0  0  0
 24 26  1  0  0  0  0
 26 27  1  0  0  0  0
 26 32  1  0  0  0  0
 27 28  1  0  0  0  0
 27 53  1  0  0  0  0
 27 54  1  0  0  0  0
 28 29  1  0  0  0  0
 28 55  1  0  0  0  0
 28 56  1  0  0  0  0
 29 30  1  0  0  0  0
 29 57  1  0  0  0  0
 29 58  1  0  0  0  0
 30 31  1  0  0  0  0
 30 32  1  0  0  0  0
 30 59  1  0  0  0  0
 31 60  1  0  0  0  0
 32 61  1  0  0  0  0
 32 62  1  0  0  0  0
 33 34  1  0  0  0  0
 33 63  1  0  0  0  0
 34 64  1  0  0  0  0
 35 65  1  0  0  0  0
 36 37  1  0  0  0  0
 36 66  1  0  0  0  0
 37 38  1  0  0  0  0
 39 67  1  0  0  0  0
M  END
$$$$
