CHEMBL255405
 OpenBabel04072215363D

 55 60  0  0  0  0  0  0  0  0999 V2000
    3.8951   -1.5804   -3.4392 C   0  0  0  0  0  0  0  0  0  0  0  0
    3.3132   -0.7219   -2.3270 C   0  0  0  0  0  0  0  0  0  0  0  0
    3.7934   -1.1180   -0.9190 C   0  0  0  0  0  0  0  0  0  0  0  0
    5.2273   -0.9793   -0.7012 N   0  0  0  0  0  0  0  0  0  0  0  0
    5.9166    0.2484   -0.8094 C   0  0  0  0  0  0  0  0  0  0  0  0
    5.4643    1.5756   -0.9802 C   0  0  0  0  0  0  0  0  0  0  0  0
    6.4181    2.5892   -1.1997 C   0  0  0  0  0  0  0  0  0  0  0  0
    7.7848    2.3042   -1.1860 C   0  0  0  0  0  0  0  0  0  0  0  0
    8.8537    3.3038   -1.4553 C   0  0  0  0  0  0  0  0  0  0  0  0
    8.6196    4.7498   -1.1330 C   0  0  0  0  0  0  0  0  0  0  0  0
    9.9302    2.9274   -1.9193 O   0  0  0  0  0  0  0  0  0  0  0  0
    8.2219    0.9986   -0.9732 C   0  0  0  0  0  0  0  0  0  0  0  0
    7.2892   -0.0353   -0.8256 C   0  0  0  0  0  0  0  0  0  0  0  0
    7.3195   -1.4114   -0.8153 C   0  0  0  0  0  0  0  0  0  0  0  0
    8.4058   -2.1348   -1.3189 C   0  0  0  0  0  0  0  0  0  0  0  0
    8.1041   -3.4236   -1.8011 C   0  0  0  0  0  0  0  0  0  0  0  0
    6.8482   -4.0393   -1.6582 C   0  0  0  0  0  0  0  0  0  0  0  0
    6.0600   -3.4573   -0.6129 C   0  0  0  0  0  0  0  0  0  0  0  0
    6.1280   -2.0403   -0.5765 C   0  0  0  0  0  0  0  0  0  0  0  0
    6.1168   -4.3449    0.7150 C   0  0  0  0  0  0  0  0  0  0  0  0
    7.1661   -5.5334    0.6707 C   0  0  0  0  0  0  0  0  0  0  0  0
    6.9359   -6.2526   -0.6105 C   0  0  0  0  0  0  0  0  0  0  0  0
    6.5530   -7.5172   -0.7784 N   0  0  0  0  0  0  0  0  0  0  0  0
    6.0723   -7.5116   -2.0480 N   0  0  0  0  0  0  0  0  0  0  0  0
    5.4104   -8.6848   -2.5644 C   0  0  0  0  0  0  0  0  0  0  0  0
    6.0740   -6.2673   -2.6328 C   0  0  0  0  0  0  0  0  0  0  0  0
    6.7797   -5.4739   -1.7675 C   0  0  0  0  0  0  0  0  0  0  0  0
    9.3348   -3.9873   -2.2994 C   0  0  0  0  0  0  0  0  0  0  0  0
    9.6249   -5.0575   -2.8045 O   0  0  0  0  0  0  0  0  0  0  0  0
   10.2888   -3.0072   -2.0482 N   0  0  0  0  0  0  0  0  0  0  0  0
    9.8001   -1.7619   -1.5154 C   0  0  0  0  0  0  0  0  0  0  0  0
    3.4606   -1.2947   -4.4026 H   0  0  0  0  0  0  0  0  0  0  0  0
    3.6798   -2.6377   -3.2726 H   0  0  0  0  0  0  0  0  0  0  0  0
    4.9797   -1.4527   -3.5143 H   0  0  0  0  0  0  0  0  0  0  0  0
    2.2195   -0.7989   -2.3604 H   0  0  0  0  0  0  0  0  0  0  0  0
    3.5460    0.3263   -2.5414 H   0  0  0  0  0  0  0  0  0  0  0  0
    3.5045   -2.1543   -0.7022 H   0  0  0  0  0  0  0  0  0  0  0  0
    3.3034   -0.4833   -0.1716 H   0  0  0  0  0  0  0  0  0  0  0  0
    4.4050    1.8128   -1.0140 H   0  0  0  0  0  0  0  0  0  0  0  0
    6.0649    3.5882   -1.4307 H   0  0  0  0  0  0  0  0  0  0  0  0
    7.7448    4.8931   -0.4977 H   0  0  0  0  0  0  0  0  0  0  0  0
    8.5057    5.3122   -2.0619 H   0  0  0  0  0  0  0  0  0  0  0  0
    9.4907    5.1189   -0.5808 H   0  0  0  0  0  0  0  0  0  0  0  0
    9.2846    0.7859   -0.9678 H   0  0  0  0  0  0  0  0  0  0  0  0
    5.1204   -4.7736    0.8683 H   0  0  0  0  0  0  0  0  0  0  0  0
    6.3617   -3.7071    1.5718 H   0  0  0  0  0  0  0  0  0  0  0  0
    7.0870   -6.1943    1.5373 H   0  0  0  0  0  0  0  0  0  0  0  0
    8.1891   -5.1249    0.6655 H   0  0  0  0  0  0  0  0  0  0  0  0
    5.6348   -9.5415   -1.9235 H   0  0  0  0  0  0  0  0  0  0  0  0
    5.7704   -8.8714   -3.5787 H   0  0  0  0  0  0  0  0  0  0  0  0
    4.3343   -8.4920   -2.5679 H   0  0  0  0  0  0  0  0  0  0  0  0
    5.5379   -6.0645   -3.5492 H   0  0  0  0  0  0  0  0  0  0  0  0
   11.2597   -3.1914   -2.2551 H   0  0  0  0  0  0  0  0  0  0  0  0
    9.9303   -0.9875   -2.2706 H   0  0  0  0  0  0  0  0  0  0  0  0
   10.3089   -1.5232   -0.5785 H   0  0  0  0  0  0  0  0  0  0  0  0
  1  2  1  0  0  0  0
  1 32  1  0  0  0  0
  1 33  1  0  0  0  0
  1 34  1  0  0  0  0
  2  3  1  0  0  0  0
  2 35  1  0  0  0  0
  2 36  1  0  0  0  0
  3  4  1  0  0  0  0
  3 37  1  0  0  0  0
  3 38  1  0  0  0  0
  4  5  1  0  0  0  0
  4 19  1  0  0  0  0
  5  6  1  0  0  0  0
  5 13  2  0  0  0  0
  6  7  2  0  0  0  0
  6 39  1  0  0  0  0
  7  8  1  0  0  0  0
  7 40  1  0  0  0  0
  8  9  1  0  0  0  0
  8 12  2  0  0  0  0
  9 10  1  0  0  0  0
  9 11  2  0  0  0  0
 10 41  1  0  0  0  0
 10 42  1  0  0  0  0
 10 43  1  0  0  0  0
 12 13  1  0  0  0  0
 12 44  1  0  0  0  0
 13 14  1  0  0  0  0
 14 15  1  0  0  0  0
 14 19  2  0  0  0  0
 15 16  2  0  0  0  0
 15 31  1  0  0  0  0
 16 17  1  0  0  0  0
 16 28  1  0  0  0  0
 17 18  2  0  0  0  0
 17 27  1  0  0  0  0
 18 19  1  0  0  0  0
 18 20  1  0  0  0  0
 20 21  1  0  0  0  0
 20 45  1  0  0  0  0
 20 46  1  0  0  0  0
 21 22  1  0  0  0  0
 21 47  1  0  0  0  0
 21 48  1  0  0  0  0
 22 23  2  0  0  0  0
 22 27  1  0  0  0  0
 23 24  1  0  0  0  0
 24 25  1  0  0  0  0
 24 26  1  0  0  0  0
 25 49  1  0  0  0  0
 25 50  1  0  0  0  0
 25 51  1  0  0  0  0
 26 27  2  0  0  0  0
 26 52  1  0  0  0  0
 28 29  2  0  0  0  0
 28 30  1  0  0  0  0
 30 31  1  0  0  0  0
 30 53  1  0  0  0  0
 31 54  1  0  0  0  0
 31 55  1  0  0  0  0
M  END
$$$$
