CHEMBL1254840
 OpenBabel04072215363D

 51 54  0  0  0  0  0  0  0  0999 V2000
    0.1808   -0.9032   -0.5631 C   0  0  0  0  0  0  0  0  0  0  0  0
    1.2784   -1.8126   -0.6459 O   0  0  0  0  0  0  0  0  0  0  0  0
    2.1130   -1.6574   -1.7209 C   0  0  0  0  0  0  0  0  0  0  0  0
    1.9334   -0.7366   -2.7472 C   0  0  0  0  0  0  0  0  0  0  0  0
    2.8331   -0.5995   -3.8057 C   0  0  0  0  0  0  0  0  0  0  0  0
    2.6598    0.3603   -4.8395 N   0  0  0  0  0  0  0  0  0  0  0  0
    1.6589    1.3277   -4.8588 C   0  0  0  0  0  0  0  0  0  0  0  0
    0.8298    1.5029   -3.9787 O   0  0  0  0  0  0  0  0  0  0  0  0
    1.6680    2.1019   -6.0129 N   0  0  0  0  0  0  0  0  0  0  0  0
    0.6742    3.1238   -6.1255 C   0  0  0  0  0  0  0  0  0  0  0  0
    0.5310    4.0696   -5.1027 C   0  0  0  0  0  0  0  0  0  0  0  0
   -0.5145    4.9934   -5.1294 C   0  0  0  0  0  0  0  0  0  0  0  0
   -1.4507    4.9659   -6.1632 C   0  0  0  0  0  0  0  0  0  0  0  0
   -2.5194    5.8368   -6.2378 O   0  0  0  0  0  0  0  0  0  0  0  0
   -3.1797    6.1689   -5.0580 C   0  0  0  0  0  0  0  0  0  0  0  0
   -3.1974    5.3045   -4.0200 N   0  0  0  0  0  0  0  0  0  0  0  0
   -3.8381    5.6697   -2.8976 C   0  0  0  0  0  0  0  0  0  0  0  0
   -4.5128    6.8040   -2.6703 N   0  0  0  0  0  0  0  0  0  0  0  0
   -4.5254    7.6407   -3.7280 C   0  0  0  0  0  0  0  0  0  0  0  0
   -5.1505    8.9007   -3.8489 C   0  0  0  0  0  0  0  0  0  0  0  0
   -4.8693    9.3801   -5.1103 C   0  0  0  0  0  0  0  0  0  0  0  0
   -4.0847    8.4520   -5.7527 N   0  0  0  0  0  0  0  0  0  0  0  0
   -3.5534    8.6081   -7.0850 C   0  0  0  0  0  0  0  0  0  0  0  0
   -3.8748    7.3690   -4.9256 C   0  0  0  0  0  0  0  0  0  0  0  0
   -1.2803    4.0692   -7.2231 C   0  0  0  0  0  0  0  0  0  0  0  0
   -0.2145    3.1580   -7.2089 C   0  0  0  0  0  0  0  0  0  0  0  0
   -0.0829    2.0102   -8.4961 Cl  0  0  0  0  0  0  0  0  0  0  0  0
    3.9544   -1.4446   -3.8280 C   0  0  0  0  0  0  0  0  0  0  0  0
    4.1595   -2.3832   -2.7977 C   0  0  0  0  0  0  0  0  0  0  0  0
    5.3878   -3.2630   -2.7542 C   0  0  0  0  0  0  0  0  0  0  0  0
    6.2472   -3.0500   -3.7898 F   0  0  0  0  0  0  0  0  0  0  0  0
    6.1215   -3.0740   -1.6196 F   0  0  0  0  0  0  0  0  0  0  0  0
    5.0865   -4.5898   -2.7846 F   0  0  0  0  0  0  0  0  0  0  0  0
    3.2245   -2.4902   -1.7540 C   0  0  0  0  0  0  0  0  0  0  0  0
   -0.3472   -1.0864    0.3755 H   0  0  0  0  0  0  0  0  0  0  0  0
   -0.5262   -1.0715   -1.3841 H   0  0  0  0  0  0  0  0  0  0  0  0
    0.5236    0.1389   -0.5489 H   0  0  0  0  0  0  0  0  0  0  0  0
    1.0502   -0.1102   -2.7038 H   0  0  0  0  0  0  0  0  0  0  0  0
    3.3719    0.4284   -5.5465 H   0  0  0  0  0  0  0  0  0  0  0  0
    1.8188    1.5621   -6.8556 H   0  0  0  0  0  0  0  0  0  0  0  0
    1.2067    4.0693   -4.2516 H   0  0  0  0  0  0  0  0  0  0  0  0
   -0.6091    5.6988   -4.3062 H   0  0  0  0  0  0  0  0  0  0  0  0
   -3.7953    4.9664   -2.0722 H   0  0  0  0  0  0  0  0  0  0  0  0
   -5.7425    9.3993   -3.0927 H   0  0  0  0  0  0  0  0  0  0  0  0
   -5.1580   10.3048   -5.5936 H   0  0  0  0  0  0  0  0  0  0  0  0
   -3.8863    9.5645   -7.4973 H   0  0  0  0  0  0  0  0  0  0  0  0
   -3.9239    7.7909   -7.7070 H   0  0  0  0  0  0  0  0  0  0  0  0
   -2.4627    8.5952   -7.0246 H   0  0  0  0  0  0  0  0  0  0  0  0
   -1.9978    4.0564   -8.0385 H   0  0  0  0  0  0  0  0  0  0  0  0
    4.6769   -1.3696   -4.6338 H   0  0  0  0  0  0  0  0  0  0  0  0
    3.3718   -3.2122   -0.9540 H   0  0  0  0  0  0  0  0  0  0  0  0
  1  2  1  0  0  0  0
  1 35  1  0  0  0  0
  1 36  1  0  0  0  0
  1 37  1  0  0  0  0
  2  3  1  0  0  0  0
  3  4  1  0  0  0  0
  3 34  2  0  0  0  0
  4  5  2  0  0  0  0
  4 38  1  0  0  0  0
  5  6  1  0  0  0  0
  5 28  1  0  0  0  0
  6  7  1  0  0  0  0
  6 39  1  0  0  0  0
  7  8  2  0  0  0  0
  7  9  1  0  0  0  0
  9 10  1  0  0  0  0
  9 40  1  0  0  0  0
 10 11  1  0  0  0  0
 10 26  2  0  0  0  0
 11 12  2  0  0  0  0
 11 41  1  0  0  0  0
 12 13  1  0  0  0  0
 12 42  1  0  0  0  0
 13 14  1  0  0  0  0
 13 25  2  0  0  0  0
 14 15  1  0  0  0  0
 15 16  1  0  0  0  0
 15 24  2  0  0  0  0
 16 17  2  0  0  0  0
 17 18  1  0  0  0  0
 17 43  1  0  0  0  0
 18 19  2  0  0  0  0
 19 20  1  0  0  0  0
 19 24  1  0  0  0  0
 20 21  2  0  0  0  0
 20 44  1  0  0  0  0
 21 22  1  0  0  0  0
 21 45  1  0  0  0  0
 22 23  1  0  0  0  0
 22 24  1  0  0  0  0
 23 46  1  0  0  0  0
 23 47  1  0  0  0  0
 23 48  1  0  0  0  0
 25 26  1  0  0  0  0
 25 49  1  0  0  0  0
 26 27  1  0  0  0  0
 28 29  2  0  0  0  0
 28 50  1  0  0  0  0
 29 30  1  0  0  0  0
 29 34  1  0  0  0  0
 30 31  1  0  0  0  0
 30 32  1  0  0  0  0
 30 33  1  0  0  0  0
 34 51  1  0  0  0  0
M  END
$$$$
