CHEMBL3639469
 OpenBabel04072215373D

 50 51  0  0  1  0  0  0  0  0999 V2000
   -2.7421   13.2343   -5.3228 C   0  0  0  0  0  0  0  0  0  0  0  0
   -2.6504   11.9637   -4.5236 C   0  0  0  0  0  0  0  0  0  0  0  0
   -1.3774   11.3871   -4.3313 C   0  0  0  0  0  0  0  0  0  0  0  0
   -1.1932   10.2517   -3.5336 C   0  0  0  0  0  0  0  0  0  0  0  0
    0.1050    9.7402   -3.3533 N   0  0  0  0  0  0  0  0  0  0  0  0
    0.5525    8.9587   -2.2888 C   0  0  0  0  0  0  0  0  0  0  0  0
    1.4929    8.0425   -2.5463 N   0  0  0  0  0  0  0  0  0  0  0  0
    1.8738    7.2737   -1.5050 C   0  0  0  0  0  0  0  0  0  0  0  0
    1.3690    7.4014   -0.2279 C   0  0  0  0  0  0  0  0  0  0  0  0
    1.9897    6.2825    1.1581 Br  0  0  0  0  0  0  0  0  0  0  0  0
    0.4420    8.4115   -0.0323 C   0  0  0  0  0  0  0  0  0  0  0  0
   -0.1840    8.6068    1.2198 N   0  0  0  0  0  0  0  0  0  0  0  0
   -0.6838    9.9909    1.4597 C   0  0  2  0  0  0  0  0  0  0  0  0
    0.4530   10.8639    1.9966 C   0  0  0  0  0  0  0  0  0  0  0  0
   -1.9389    9.9335    2.3943 C   0  0  0  0  0  0  0  0  0  0  0  0
   -1.6507    9.3976    3.7996 C   0  0  0  0  0  0  0  0  0  0  0  0
   -2.6150   11.3052    2.4975 C   0  0  0  0  0  0  0  0  0  0  0  0
   -2.8946    9.0384    1.7941 O   0  0  0  0  0  0  0  0  0  0  0  0
    0.0335    9.1611   -1.0667 N   0  0  0  0  0  0  0  0  0  0  0  0
   -2.3175    9.6712   -2.9409 C   0  0  0  0  0  0  0  0  0  0  0  0
   -3.5920   10.2019   -3.1390 C   0  0  0  0  0  0  0  0  0  0  0  0
   -3.7667   11.3363   -3.9387 C   0  0  0  0  0  0  0  0  0  0  0  0
   -5.4275   11.9698   -4.1709 S   0  0  3  0  0  0  0  0  0  0  0  0
   -6.4910   10.5463   -4.1081 C   0  0  0  0  0  0  0  0  0  0  0  0
   -5.7084   12.8280   -2.9218 N   0  0  0  0  0  0  0  0  0  0  0  0
   -5.5276   12.4333   -5.5413 O   0  0  0  0  0  0  0  0  0  0  0  0
   -1.7474   13.6464   -5.5275 H   0  0  0  0  0  0  0  0  0  0  0  0
   -3.2904   14.0020   -4.7676 H   0  0  0  0  0  0  0  0  0  0  0  0
   -3.2187   13.0509   -6.2892 H   0  0  0  0  0  0  0  0  0  0  0  0
   -0.5029   11.8630   -4.7729 H   0  0  0  0  0  0  0  0  0  0  0  0
    0.5550    9.4380   -4.2069 H   0  0  0  0  0  0  0  0  0  0  0  0
    2.6247    6.5265   -1.7465 H   0  0  0  0  0  0  0  0  0  0  0  0
    0.4433    8.3032    1.9633 H   0  0  0  0  0  0  0  0  0  0  0  0
   -1.0409   10.4298    0.5196 H   0  0  0  0  0  0  0  0  0  0  0  0
    0.7852   10.5375    2.9868 H   0  0  0  0  0  0  0  0  0  0  0  0
    0.1460   11.9116    2.0651 H   0  0  0  0  0  0  0  0  0  0  0  0
    1.3264   10.8219    1.3366 H   0  0  0  0  0  0  0  0  0  0  0  0
   -0.9725   10.0480    4.3596 H   0  0  0  0  0  0  0  0  0  0  0  0
   -1.2233    8.3902    3.7635 H   0  0  0  0  0  0  0  0  0  0  0  0
   -2.5813    9.3104    4.3737 H   0  0  0  0  0  0  0  0  0  0  0  0
   -1.9827   12.0364    3.0112 H   0  0  0  0  0  0  0  0  0  0  0  0
   -3.5639   11.2349    3.0414 H   0  0  0  0  0  0  0  0  0  0  0  0
   -2.8591   11.6963    1.5032 H   0  0  0  0  0  0  0  0  0  0  0  0
   -2.3510    8.3429    1.3699 H   0  0  0  0  0  0  0  0  0  0  0  0
   -2.2181    8.7897   -2.3113 H   0  0  0  0  0  0  0  0  0  0  0  0
   -4.4180    9.7166   -2.6315 H   0  0  0  0  0  0  0  0  0  0  0  0
   -6.5048   10.1186   -3.1051 H   0  0  0  0  0  0  0  0  0  0  0  0
   -6.1437    9.8122   -4.8391 H   0  0  0  0  0  0  0  0  0  0  0  0
   -7.5010   10.8675   -4.3747 H   0  0  0  0  0  0  0  0  0  0  0  0
   -5.9830   12.2824   -2.1055 H   0  0  0  0  0  0  0  0  0  0  0  0
  1  2  1  0  0  0  0
  1 27  1  0  0  0  0
  1 28  1  0  0  0  0
  1 29  1  0  0  0  0
  2  3  1  0  0  0  0
  2 22  2  0  0  0  0
  3  4  2  0  0  0  0
  3 30  1  0  0  0  0
  4  5  1  0  0  0  0
  4 20  1  0  0  0  0
  5  6  1  0  0  0  0
  5 31  1  0  0  0  0
  6  7  1  0  0  0  0
  6 19  2  0  0  0  0
  7  8  2  0  0  0  0
  8  9  1  0  0  0  0
  8 32  1  0  0  0  0
  9 10  1  0  0  0  0
  9 11  2  0  0  0  0
 11 12  1  0  0  0  0
 11 19  1  0  0  0  0
 12 33  1  0  0  0  0
 13 15  1  0  0  0  0
 13 14  1  0  0  0  0
 13 12  1  0  0  0  0
 13 34  1  6  0  0  0
 14 35  1  0  0  0  0
 14 36  1  0  0  0  0
 14 37  1  0  0  0  0
 15 16  1  0  0  0  0
 15 17  1  0  0  0  0
 15 18  1  0  0  0  0
 16 38  1  0  0  0  0
 16 39  1  0  0  0  0
 16 40  1  0  0  0  0
 17 41  1  0  0  0  0
 17 42  1  0  0  0  0
 17 43  1  0  0  0  0
 18 44  1  0  0  0  0
 20 21  2  0  0  0  0
 20 45  1  0  0  0  0
 21 22  1  0  0  0  0
 21 46  1  0  0  0  0
 22 23  1  0  0  0  0
 23 24  1  0  0  0  0
 23 25  2  0  0  0  0
 23 26  2  0  0  0  0
 24 47  1  0  0  0  0
 24 48  1  0  0  0  0
 24 49  1  0  0  0  0
 25 50  1  0  0  0  0
M  END
$$$$
