CHEMBL3814773
 OpenBabel04072215373D

 75 79  0  0  1  0  0  0  0  0999 V2000
    2.4366   -0.0344    0.2445 N   0  0  0  0  0  0  0  0  0  0  0  0
    1.0551    0.0715    0.1127 C   0  0  0  0  0  0  0  0  0  0  0  0
    0.4426   -1.1135   -0.0310 N   0  0  0  0  0  0  0  0  0  0  0  0
   -0.8851   -1.1045    0.0163 C   0  0  0  0  0  0  0  0  0  0  0  0
   -1.6508   -0.0213    0.1794 N   0  0  0  0  0  0  0  0  0  0  0  0
   -1.0185    1.1691    0.2043 C   0  0  0  0  0  0  0  0  0  0  0  0
   -1.7856    2.3274    0.1795 O   0  0  0  0  0  0  0  0  0  0  0  0
   -3.1539    2.2272    0.0050 C   0  0  0  0  0  0  0  0  0  0  0  0
   -3.9210    3.0993    0.7829 C   0  0  0  0  0  0  0  0  0  0  0  0
   -5.3163    3.0874    0.6928 C   0  0  0  0  0  0  0  0  0  0  0  0
   -5.9564    2.2448   -0.2190 C   0  0  0  0  0  0  0  0  0  0  0  0
   -7.3548    2.2964   -0.2811 N   0  0  0  0  0  0  0  0  0  0  0  0
   -8.0870    2.3296   -1.4544 C   0  0  0  0  0  0  0  0  0  0  0  0
   -7.6531    2.2649   -2.5966 O   0  0  0  0  0  0  0  0  0  0  0  0
   -9.5572    2.4985   -1.2329 C   0  0  0  0  0  0  0  0  0  0  0  0
  -10.3333    1.2209   -1.3127 C   0  0  0  0  0  0  0  0  0  0  0  0
  -10.7007    0.7103   -0.2641 O   0  0  0  0  0  0  0  0  0  0  0  0
  -10.5378    0.7486   -2.5988 N   0  0  0  0  0  0  0  0  0  0  0  0
  -11.1251   -0.4893   -2.9376 C   0  0  0  0  0  0  0  0  0  0  0  0
  -11.4244   -1.4695   -1.9878 C   0  0  0  0  0  0  0  0  0  0  0  0
  -12.0475   -2.6646   -2.3593 C   0  0  0  0  0  0  0  0  0  0  0  0
  -12.3604   -2.8834   -3.6912 C   0  0  0  0  0  0  0  0  0  0  0  0
  -12.9835   -4.0138   -4.0451 F   0  0  0  0  0  0  0  0  0  0  0  0
  -12.0363   -1.9407   -4.6643 C   0  0  0  0  0  0  0  0  0  0  0  0
  -11.4072   -0.7474   -4.2837 C   0  0  0  0  0  0  0  0  0  0  0  0
  -10.2639    3.7913   -1.6365 C   0  0  0  0  0  0  0  0  0  0  0  0
   -9.9941    3.5438   -0.1897 C   0  0  0  0  0  0  0  0  0  0  0  0
   -5.2051    1.3939   -1.0226 C   0  0  0  0  0  0  0  0  0  0  0  0
   -3.8122    1.4029   -0.9210 C   0  0  0  0  0  0  0  0  0  0  0  0
   -3.1310    0.6164   -1.7680 F   0  0  0  0  0  0  0  0  0  0  0  0
    0.3628    1.2790    0.2382 C   0  0  0  0  0  0  0  0  0  0  0  0
    1.0777    2.5687    0.4027 C   0  0  0  0  0  0  0  0  0  0  0  0
    2.3473    2.6830    0.1449 N   0  0  0  0  0  0  0  0  0  0  0  0
    2.8240    3.9702    0.4558 O   0  0  0  0  0  0  0  0  0  0  0  0
    4.2647    3.9027    0.5191 C   0  0  0  0  0  0  0  0  0  0  0  0
    4.8929    5.2583    0.9080 C   0  0  3  0  0  0  0  0  0  0  0  0
    4.7615    6.1802   -0.1780 O   0  0  0  0  0  0  0  0  0  0  0  0
    4.2445    5.7900    2.2065 C   0  0  0  0  0  0  0  0  0  0  0  0
    4.6534    7.1207    2.7014 N   0  0  0  0  0  0  0  0  0  0  0  0
    6.0752    7.2499    3.0926 C   0  0  0  0  0  0  0  0  0  0  0  0
    6.4691    6.6247    4.4510 C   0  0  0  0  0  0  0  0  0  0  0  0
    5.5596    6.9501    5.5112 O   0  0  0  0  0  0  0  0  0  0  0  0
    4.2100    6.6642    5.1357 C   0  0  0  0  0  0  0  0  0  0  0  0
    3.8332    7.4789    3.8878 C   0  0  0  0  0  0  0  0  0  0  0  0
    2.7353   -0.9609   -0.0303 H   0  0  0  0  0  0  0  0  0  0  0  0
    2.9215    0.7267   -0.2306 H   0  0  0  0  0  0  0  0  0  0  0  0
   -1.4010   -2.0518   -0.1057 H   0  0  0  0  0  0  0  0  0  0  0  0
   -3.4368    3.8035    1.4539 H   0  0  0  0  0  0  0  0  0  0  0  0
   -5.8919    3.7896    1.2912 H   0  0  0  0  0  0  0  0  0  0  0  0
   -7.8375    2.5773    0.5630 H   0  0  0  0  0  0  0  0  0  0  0  0
  -10.2351    1.3454   -3.3637 H   0  0  0  0  0  0  0  0  0  0  0  0
  -11.1686   -1.3533   -0.9380 H   0  0  0  0  0  0  0  0  0  0  0  0
  -12.2855   -3.4163   -1.6133 H   0  0  0  0  0  0  0  0  0  0  0  0
  -12.2741   -2.1436   -5.6979 H   0  0  0  0  0  0  0  0  0  0  0  0
  -11.1602   -0.0264   -5.0590 H   0  0  0  0  0  0  0  0  0  0  0  0
  -11.3059    3.7602   -1.9380 H   0  0  0  0  0  0  0  0  0  0  0  0
   -9.6885    4.5675   -2.1299 H   0  0  0  0  0  0  0  0  0  0  0  0
  -10.8141    3.2762    0.4690 H   0  0  0  0  0  0  0  0  0  0  0  0
   -9.2583    4.1884    0.2801 H   0  0  0  0  0  0  0  0  0  0  0  0
   -5.6793    0.6986   -1.7095 H   0  0  0  0  0  0  0  0  0  0  0  0
    0.4984    3.4284    0.7836 H   0  0  0  0  0  0  0  0  0  0  0  0
    4.6421    3.5796   -0.4574 H   0  0  0  0  0  0  0  0  0  0  0  0
    4.5368    3.1549    1.2750 H   0  0  0  0  0  0  0  0  0  0  0  0
    5.9671    5.1048    1.0591 H   0  0  0  0  0  0  0  0  0  0  0  0
    3.9836    6.7357    0.0042 H   0  0  0  0  0  0  0  0  0  0  0  0
    4.3704    5.0227    2.9759 H   0  0  0  0  0  0  0  0  0  0  0  0
    3.1697    5.8759    2.0036 H   0  0  0  0  0  0  0  0  0  0  0  0
    6.2771    8.3282    3.1677 H   0  0  0  0  0  0  0  0  0  0  0  0
    6.7463    6.8876    2.3060 H   0  0  0  0  0  0  0  0  0  0  0  0
    7.4487    7.0121    4.7548 H   0  0  0  0  0  0  0  0  0  0  0  0
    6.5528    5.5359    4.3769 H   0  0  0  0  0  0  0  0  0  0  0  0
    3.5580    6.9347    5.9713 H   0  0  0  0  0  0  0  0  0  0  0  0
    4.0979    5.5840    4.9867 H   0  0  0  0  0  0  0  0  0  0  0  0
    3.9945    8.5437    4.1017 H   0  0  0  0  0  0  0  0  0  0  0  0
    2.7669    7.3667    3.6623 H   0  0  0  0  0  0  0  0  0  0  0  0
  1  2  1  0  0  0  0
  1 45  1  0  0  0  0
  1 46  1  0  0  0  0
  2  3  1  0  0  0  0
  2 31  2  0  0  0  0
  3  4  2  0  0  0  0
  4  5  1  0  0  0  0
  4 47  1  0  0  0  0
  5  6  2  0  0  0  0
  6  7  1  0  0  0  0
  6 31  1  0  0  0  0
  7  8  1  0  0  0  0
  8  9  1  0  0  0  0
  8 29  2  0  0  0  0
  9 10  2  0  0  0  0
  9 48  1  0  0  0  0
 10 11  1  0  0  0  0
 10 49  1  0  0  0  0
 11 12  1  0  0  0  0
 11 28  2  0  0  0  0
 12 13  1  0  0  0  0
 12 50  1  0  0  0  0
 13 14  2  0  0  0  0
 13 15  1  0  0  0  0
 15 16  1  0  0  0  0
 15 26  1  0  0  0  0
 15 27  1  0  0  0  0
 16 17  2  0  0  0  0
 16 18  1  0  0  0  0
 18 19  1  0  0  0  0
 18 51  1  0  0  0  0
 19 20  1  0  0  0  0
 19 25  2  0  0  0  0
 20 21  2  0  0  0  0
 20 52  1  0  0  0  0
 21 22  1  0  0  0  0
 21 53  1  0  0  0  0
 22 23  1  0  0  0  0
 22 24  2  0  0  0  0
 24 25  1  0  0  0  0
 24 54  1  0  0  0  0
 25 55  1  0  0  0  0
 26 27  1  0  0  0  0
 26 56  1  0  0  0  0
 26 57  1  0  0  0  0
 27 58  1  0  0  0  0
 27 59  1  0  0  0  0
 28 29  1  0  0  0  0
 28 60  1  0  0  0  0
 29 30  1  0  0  0  0
 31 32  1  0  0  0  0
 32 33  2  0  0  0  0
 32 61  1  0  0  0  0
 33 34  1  0  0  0  0
 34 35  1  0  0  0  0
 35 36  1  0  0  0  0
 35 62  1  0  0  0  0
 35 63  1  0  0  0  0
 36 37  1  0  0  0  0
 36 38  1  0  0  0  0
 36 64  1  0  0  0  0
 37 65  1  0  0  0  0
 38 39  1  0  0  0  0
 38 66  1  0  0  0  0
 38 67  1  0  0  0  0
 39 40  1  0  0  0  0
 39 44  1  0  0  0  0
 40 41  1  0  0  0  0
 40 68  1  0  0  0  0
 40 69  1  0  0  0  0
 41 42  1  0  0  0  0
 41 70  1  0  0  0  0
 41 71  1  0  0  0  0
 42 43  1  0  0  0  0
 43 44  1  0  0  0  0
 43 72  1  0  0  0  0
 43 73  1  0  0  0  0
 44 74  1  0  0  0  0
 44 75  1  0  0  0  0
M  END
$$$$
