CHEMBL4086998
 OpenBabel04072215383D

 44 48  0  0  0  0  0  0  0  0999 V2000
    0.7967    1.8797    1.6758 C   0  0  0  0  0  0  0  0  0  0  0  0
    0.0346    0.6747    1.3149 C   0  0  0  0  0  0  0  0  0  0  0  0
   -1.2981    0.3332    1.3124 C   0  0  0  0  0  0  0  0  0  0  0  0
   -1.3364   -0.9901    0.8003 C   0  0  0  0  0  0  0  0  0  0  0  0
   -2.4831   -1.7482    0.6018 N   0  0  0  0  0  0  0  0  0  0  0  0
   -2.3990   -3.0528    0.1683 C   0  0  0  0  0  0  0  0  0  0  0  0
   -1.4192   -3.7359   -0.0884 O   0  0  0  0  0  0  0  0  0  0  0  0
   -3.6435   -3.7015    0.1756 N   0  0  0  0  0  0  0  0  0  0  0  0
   -3.8802   -4.8770    0.8618 C   0  0  0  0  0  0  0  0  0  0  0  0
   -5.1514   -5.3144    0.6124 C   0  0  0  0  0  0  0  0  0  0  0  0
   -5.7260   -4.4022   -0.3245 C   0  0  0  0  0  0  0  0  0  0  0  0
   -6.9545   -4.3878   -0.9899 C   0  0  0  0  0  0  0  0  0  0  0  0
   -7.2042   -3.3809   -1.9234 C   0  0  0  0  0  0  0  0  0  0  0  0
   -8.4633   -3.3387   -2.4598 O   0  0  0  0  0  0  0  0  0  0  0  0
   -8.6137   -2.9894   -3.7952 C   0  0  0  0  0  0  0  0  0  0  0  0
   -7.5802   -3.0981   -4.6570 N   0  0  0  0  0  0  0  0  0  0  0  0
   -7.8901   -3.1162   -5.9639 C   0  0  0  0  0  0  0  0  0  0  0  0
   -9.1286   -3.1496   -6.4772 N   0  0  0  0  0  0  0  0  0  0  0  0
  -10.0983   -3.0433   -5.5576 C   0  0  0  0  0  0  0  0  0  0  0  0
   -9.8966   -2.8380   -4.2129 C   0  0  0  0  0  0  0  0  0  0  0  0
  -11.1854   -2.9626   -3.4933 C   0  0  0  0  0  0  0  0  0  0  0  0
  -11.8593   -4.0188   -4.2807 N   0  0  0  0  0  0  0  0  0  0  0  0
  -11.4953   -3.6222   -5.6865 C   0  0  0  0  0  0  0  0  0  0  0  0
   -6.2366   -2.4219   -2.2115 C   0  0  0  0  0  0  0  0  0  0  0  0
   -4.9949   -2.4379   -1.5708 C   0  0  0  0  0  0  0  0  0  0  0  0
   -4.7665   -3.4129   -0.5973 C   0  0  0  0  0  0  0  0  0  0  0  0
   -0.0933   -1.4087    0.5372 N   0  0  0  0  0  0  0  0  0  0  0  0
    0.7586   -0.3792    0.8610 O   0  0  0  0  0  0  0  0  0  0  0  0
    0.1268    2.6727    2.0193 H   0  0  0  0  0  0  0  0  0  0  0  0
    1.3516    2.2554    0.8106 H   0  0  0  0  0  0  0  0  0  0  0  0
    1.5118    1.6658    2.4762 H   0  0  0  0  0  0  0  0  0  0  0  0
   -2.1163    0.9636    1.6215 H   0  0  0  0  0  0  0  0  0  0  0  0
   -3.3617   -1.3611    0.9126 H   0  0  0  0  0  0  0  0  0  0  0  0
   -3.0944   -5.2969    1.4713 H   0  0  0  0  0  0  0  0  0  0  0  0
   -5.6121   -6.2004    1.0078 H   0  0  0  0  0  0  0  0  0  0  0  0
   -7.7017   -5.1561   -0.7951 H   0  0  0  0  0  0  0  0  0  0  0  0
   -7.0593   -3.1526   -6.6602 H   0  0  0  0  0  0  0  0  0  0  0  0
  -11.7713   -2.0373   -3.5928 H   0  0  0  0  0  0  0  0  0  0  0  0
  -11.0977   -3.1893   -2.4279 H   0  0  0  0  0  0  0  0  0  0  0  0
  -11.3315   -4.8791   -4.0846 H   0  0  0  0  0  0  0  0  0  0  0  0
  -12.2012   -2.8622   -6.0312 H   0  0  0  0  0  0  0  0  0  0  0  0
  -11.5069   -4.4932   -6.3463 H   0  0  0  0  0  0  0  0  0  0  0  0
   -6.4327   -1.6576   -2.9616 H   0  0  0  0  0  0  0  0  0  0  0  0
   -4.2358   -1.7145   -1.8710 H   0  0  0  0  0  0  0  0  0  0  0  0
  1  2  1  0  0  0  0
  1 29  1  0  0  0  0
  1 30  1  0  0  0  0
  1 31  1  0  0  0  0
  2  3  2  0  0  0  0
  2 28  1  0  0  0  0
  3  4  1  0  0  0  0
  3 32  1  0  0  0  0
  4  5  1  0  0  0  0
  4 27  2  0  0  0  0
  5  6  1  0  0  0  0
  5 33  1  0  0  0  0
  6  7  2  0  0  0  0
  6  8  1  0  0  0  0
  8  9  1  0  0  0  0
  8 26  1  0  0  0  0
  9 10  2  0  0  0  0
  9 34  1  0  0  0  0
 10 11  1  0  0  0  0
 10 35  1  0  0  0  0
 11 12  1  0  0  0  0
 11 26  2  0  0  0  0
 12 13  2  0  0  0  0
 12 36  1  0  0  0  0
 13 14  1  0  0  0  0
 13 24  1  0  0  0  0
 14 15  1  0  0  0  0
 15 16  1  0  0  0  0
 15 20  2  0  0  0  0
 16 17  2  0  0  0  0
 17 18  1  0  0  0  0
 17 37  1  0  0  0  0
 18 19  2  0  0  0  0
 19 20  1  0  0  0  0
 19 23  1  0  0  0  0
 20 21  1  0  0  0  0
 21 22  1  0  0  0  0
 21 38  1  0  0  0  0
 21 39  1  0  0  0  0
 22 23  1  0  0  0  0
 22 40  1  0  0  0  0
 23 41  1  0  0  0  0
 23 42  1  0  0  0  0
 24 25  2  0  0  0  0
 24 43  1  0  0  0  0
 25 26  1  0  0  0  0
 25 44  1  0  0  0  0
 27 28  1  0  0  0  0
M  END
$$$$
