CHEMBL1242208
 OpenBabel04072215363D

 39 42  0  0  0  0  0  0  0  0999 V2000
    1.4569    1.0260    0.2586 C   0  0  0  0  0  0  0  0  0  0  0  0
    2.6116    0.0310    0.0605 C   0  0  0  0  0  0  0  0  0  0  0  0
    3.7169    0.6515   -0.7894 C   0  0  0  0  0  0  0  0  0  0  0  0
    3.1196   -0.4400    1.3385 N   0  0  0  0  0  0  0  0  0  0  0  0
    3.6477    0.4313    2.2147 N   0  0  0  0  0  0  0  0  0  0  0  0
    3.9302   -0.3081    3.3123 C   0  0  0  0  0  0  0  0  0  0  0  0
    4.4416    0.3865    4.5054 C   0  0  0  0  0  0  0  0  0  0  0  0
    4.1021    1.7368    4.6905 C   0  0  0  0  0  0  0  0  0  0  0  0
    4.5956    2.4652    5.7712 C   0  0  0  0  0  0  0  0  0  0  0  0
    5.3318    1.8227    6.7678 C   0  0  0  0  0  0  0  0  0  0  0  0
    5.7732    2.5159    7.8927 C   0  0  0  0  0  0  0  0  0  0  0  0
    6.1416    1.7787    9.0010 C   0  0  0  0  0  0  0  0  0  0  0  0
    6.3041    0.4403    8.9887 N   0  0  0  0  0  0  0  0  0  0  0  0
    6.0952   -0.1836    7.8041 C   0  0  0  0  0  0  0  0  0  0  0  0
    5.5692    0.4418    6.6693 C   0  0  0  0  0  0  0  0  0  0  0  0
    5.2284   -0.2374    5.4802 C   0  0  0  0  0  0  0  0  0  0  0  0
    3.5884   -1.6800    3.0995 C   0  0  0  0  0  0  0  0  0  0  0  0
    3.5911   -2.8993    3.7945 C   0  0  0  0  0  0  0  0  0  0  0  0
    3.9588   -3.0810    5.1232 N   0  0  0  0  0  0  0  0  0  0  0  0
    3.1645   -4.0144    3.1643 N   0  0  0  0  0  0  0  0  0  0  0  0
    2.7295   -3.9140    1.8931 C   0  0  0  0  0  0  0  0  0  0  0  0
    2.6513   -2.8045    1.1410 N   0  0  0  0  0  0  0  0  0  0  0  0
    3.0930   -1.7171    1.7969 C   0  0  0  0  0  0  0  0  0  0  0  0
    1.0460    1.3370   -0.7076 H   0  0  0  0  0  0  0  0  0  0  0  0
    1.7796    1.9288    0.7908 H   0  0  0  0  0  0  0  0  0  0  0  0
    0.6461    0.5707    0.8379 H   0  0  0  0  0  0  0  0  0  0  0  0
    2.2149   -0.8336   -0.4735 H   0  0  0  0  0  0  0  0  0  0  0  0
    4.1309    1.5531   -0.3242 H   0  0  0  0  0  0  0  0  0  0  0  0
    3.3320    0.9286   -1.7764 H   0  0  0  0  0  0  0  0  0  0  0  0
    4.5375   -0.0594   -0.9306 H   0  0  0  0  0  0  0  0  0  0  0  0
    3.4407    2.2360    3.9835 H   0  0  0  0  0  0  0  0  0  0  0  0
    4.3186    3.5117    5.8714 H   0  0  0  0  0  0  0  0  0  0  0  0
    5.7904    3.5995    7.9224 H   0  0  0  0  0  0  0  0  0  0  0  0
    6.2948    2.2645    9.9602 H   0  0  0  0  0  0  0  0  0  0  0  0
    6.3155   -1.2477    7.8157 H   0  0  0  0  0  0  0  0  0  0  0  0
    5.5675   -1.2607    5.3484 H   0  0  0  0  0  0  0  0  0  0  0  0
    3.6494   -2.3364    5.7347 H   0  0  0  0  0  0  0  0  0  0  0  0
    3.6699   -4.0074    5.4228 H   0  0  0  0  0  0  0  0  0  0  0  0
    2.4015   -4.8384    1.4311 H   0  0  0  0  0  0  0  0  0  0  0  0
  1  2  1  0  0  0  0
  1 24  1  0  0  0  0
  1 25  1  0  0  0  0
  1 26  1  0  0  0  0
  2  3  1  0  0  0  0
  2  4  1  0  0  0  0
  2 27  1  0  0  0  0
  3 28  1  0  0  0  0
  3 29  1  0  0  0  0
  3 30  1  0  0  0  0
  4  5  1  0  0  0  0
  4 23  1  0  0  0  0
  5  6  2  0  0  0  0
  6  7  1  0  0  0  0
  6 17  1  0  0  0  0
  7  8  1  0  0  0  0
  7 16  2  0  0  0  0
  8  9  2  0  0  0  0
  8 31  1  0  0  0  0
  9 10  1  0  0  0  0
  9 32  1  0  0  0  0
 10 11  1  0  0  0  0
 10 15  2  0  0  0  0
 11 12  2  0  0  0  0
 11 33  1  0  0  0  0
 12 13  1  0  0  0  0
 12 34  1  0  0  0  0
 13 14  2  0  0  0  0
 14 15  1  0  0  0  0
 14 35  1  0  0  0  0
 15 16  1  0  0  0  0
 16 36  1  0  0  0  0
 17 18  1  0  0  0  0
 17 23  2  0  0  0  0
 18 19  1  0  0  0  0
 18 20  2  0  0  0  0
 19 37  1  0  0  0  0
 19 38  1  0  0  0  0
 20 21  1  0  0  0  0
 21 22  2  0  0  0  0
 21 39  1  0  0  0  0
 22 23  1  0  0  0  0
M  END
$$$$
