CHEMBL1956894
 OpenBabel04072215363D

 41 44  0  0  0  0  0  0  0  0999 V2000
    1.3075    0.0365    0.1905 N   0  0  0  0  0  0  0  0  0  0  0  0
    2.6864    0.0241    0.1064 C   0  0  0  0  0  0  0  0  0  0  0  0
    3.2578   -1.1847    0.0697 N   0  0  0  0  0  0  0  0  0  0  0  0
    4.6113   -1.3004    0.0096 C   0  0  0  0  0  0  0  0  0  0  0  0
    5.2022   -2.5732   -0.0135 N   0  0  0  0  0  0  0  0  0  0  0  0
    4.7650   -3.7296    0.6629 C   0  0  0  0  0  0  0  0  0  0  0  0
    3.8830   -3.6740    1.7535 C   0  0  0  0  0  0  0  0  0  0  0  0
    3.4612   -4.8317    2.4048 C   0  0  0  0  0  0  0  0  0  0  0  0
    3.8983   -6.0745    1.9617 C   0  0  0  0  0  0  0  0  0  0  0  0
    4.7598   -6.1482    0.8677 C   0  0  0  0  0  0  0  0  0  0  0  0
    5.3353   -7.8394    0.2477 Br  0  0  0  0  0  0  0  0  0  0  0  0
    5.1955   -4.9877    0.2232 C   0  0  0  0  0  0  0  0  0  0  0  0
    5.3638   -0.1167   -0.0345 C   0  0  0  0  0  0  0  0  0  0  0  0
    6.7434    0.2295   -0.0588 C   0  0  0  0  0  0  0  0  0  0  0  0
    6.8321    1.6061   -0.0348 C   0  0  0  0  0  0  0  0  0  0  0  0
    5.5524    2.1102   -0.0143 N   0  0  0  0  0  0  0  0  0  0  0  0
    5.2103    3.5240    0.0854 C   0  0  0  0  0  0  0  0  0  0  0  0
    5.2259    4.2022   -1.2648 C   0  0  0  0  0  0  0  0  0  0  0  0
    4.2925    3.8546   -2.2526 C   0  0  0  0  0  0  0  0  0  0  0  0
    4.3271    4.4608   -3.5110 C   0  0  0  0  0  0  0  0  0  0  0  0
    5.2864    5.4346   -3.7974 C   0  0  0  0  0  0  0  0  0  0  0  0
    5.2889    6.1206   -5.3828 Cl  0  0  0  0  0  0  0  0  0  0  0  0
    6.2030    5.8140   -2.8123 C   0  0  0  0  0  0  0  0  0  0  0  0
    7.4010    7.0303   -3.0813 Cl  0  0  0  0  0  0  0  0  0  0  0  0
    6.1709    5.1999   -1.5533 C   0  0  0  0  0  0  0  0  0  0  0  0
    4.6499    1.0742   -0.0030 C   0  0  0  0  0  0  0  0  0  0  0  0
    3.3133    1.2007    0.0472 N   0  0  0  0  0  0  0  0  0  0  0  0
    0.9494   -0.8492   -0.1414 H   0  0  0  0  0  0  0  0  0  0  0  0
    0.9369    0.8763   -0.2255 H   0  0  0  0  0  0  0  0  0  0  0  0
    6.2022   -2.5577   -0.1669 H   0  0  0  0  0  0  0  0  0  0  0  0
    3.5272   -2.7129    2.1215 H   0  0  0  0  0  0  0  0  0  0  0  0
    2.7900   -4.7559    3.2554 H   0  0  0  0  0  0  0  0  0  0  0  0
    3.5609   -6.9756    2.4670 H   0  0  0  0  0  0  0  0  0  0  0  0
    5.8522   -5.0630   -0.6389 H   0  0  0  0  0  0  0  0  0  0  0  0
    7.5838   -0.4510   -0.0629 H   0  0  0  0  0  0  0  0  0  0  0  0
    7.6933    2.2612   -0.0195 H   0  0  0  0  0  0  0  0  0  0  0  0
    5.9393    3.9798    0.7658 H   0  0  0  0  0  0  0  0  0  0  0  0
    4.2255    3.6238    0.5559 H   0  0  0  0  0  0  0  0  0  0  0  0
    3.5344    3.0980   -2.0519 H   0  0  0  0  0  0  0  0  0  0  0  0
    3.6034    4.1626   -4.2663 H   0  0  0  0  0  0  0  0  0  0  0  0
    6.8922    5.5029   -0.7962 H   0  0  0  0  0  0  0  0  0  0  0  0
  1  2  1  0  0  0  0
  1 28  1  0  0  0  0
  1 29  1  0  0  0  0
  2  3  1  0  0  0  0
  2 27  2  0  0  0  0
  3  4  2  0  0  0  0
  4  5  1  0  0  0  0
  4 13  1  0  0  0  0
  5  6  1  0  0  0  0
  5 30  1  0  0  0  0
  6  7  1  0  0  0  0
  6 12  2  0  0  0  0
  7  8  2  0  0  0  0
  7 31  1  0  0  0  0
  8  9  1  0  0  0  0
  8 32  1  0  0  0  0
  9 10  2  0  0  0  0
  9 33  1  0  0  0  0
 10 11  1  0  0  0  0
 10 12  1  0  0  0  0
 12 34  1  0  0  0  0
 13 14  1  0  0  0  0
 13 26  2  0  0  0  0
 14 15  2  0  0  0  0
 14 35  1  0  0  0  0
 15 16  1  0  0  0  0
 15 36  1  0  0  0  0
 16 17  1  0  0  0  0
 16 26  1  0  0  0  0
 17 18  1  0  0  0  0
 17 37  1  0  0  0  0
 17 38  1  0  0  0  0
 18 19  1  0  0  0  0
 18 25  2  0  0  0  0
 19 20  2  0  0  0  0
 19 39  1  0  0  0  0
 20 21  1  0  0  0  0
 20 40  1  0  0  0  0
 21 22  1  0  0  0  0
 21 23  2  0  0  0  0
 23 24  1  0  0  0  0
 23 25  1  0  0  0  0
 25 41  1  0  0  0  0
 26 27  1  0  0  0  0
M  END
$$$$
