CHEMBL3754627
 OpenBabel04072215373D

 57 61  0  0  0  0  0  0  0  0999 V2000
    3.6589    1.2954   -1.0240 O   0  0  0  0  0  0  0  0  0  0  0  0
    3.3012    0.2574   -1.5878 C   0  0  0  0  0  0  0  0  0  0  0  0
    3.2580   -1.0604   -0.8105 C   0  0  0  0  0  0  0  0  0  0  0  0
    2.1735   -1.9695   -1.2510 N   0  0  0  0  0  0  0  0  0  0  0  0
    0.8274   -1.3490   -1.0458 C   0  0  0  0  0  0  0  0  0  0  0  0
    0.4458   -1.1132    0.4359 C   0  0  0  0  0  0  0  0  0  0  0  0
    0.4932   -2.4237    1.0875 N   0  0  0  0  0  0  0  0  0  0  0  0
   -0.4948   -2.7355    1.9967 C   0  0  0  0  0  0  0  0  0  0  0  0
   -1.0538   -1.7114    2.6804 N   0  0  0  0  0  0  0  0  0  0  0  0
   -2.0587   -1.9256    3.5731 N   0  0  0  0  0  0  0  0  0  0  0  0
   -2.5585   -3.1636    3.7645 C   0  0  0  0  0  0  0  0  0  0  0  0
   -3.5503   -3.2348    4.8654 C   0  0  0  0  0  0  0  0  0  0  0  0
   -4.3726   -2.1349    5.1809 C   0  0  0  0  0  0  0  0  0  0  0  0
   -5.2929   -2.1933    6.2331 C   0  0  0  0  0  0  0  0  0  0  0  0
   -5.4323   -3.3626    6.9727 C   0  0  0  0  0  0  0  0  0  0  0  0
   -4.6259   -4.4559    6.6973 C   0  0  0  0  0  0  0  0  0  0  0  0
   -3.6672   -4.3679    5.6916 C   0  0  0  0  0  0  0  0  0  0  0  0
   -2.0892   -4.2686    3.0080 C   0  0  0  0  0  0  0  0  0  0  0  0
   -2.6489   -5.5754    3.0406 C   0  0  0  0  0  0  0  0  0  0  0  0
   -2.0910   -6.6633    2.3624 C   0  0  0  0  0  0  0  0  0  0  0  0
   -1.0098   -6.4579    1.5508 C   0  0  0  0  0  0  0  0  0  0  0  0
   -0.5175   -5.1670    1.3984 C   0  0  0  0  0  0  0  0  0  0  0  0
   -0.9991   -4.0489    2.1346 C   0  0  0  0  0  0  0  0  0  0  0  0
    1.8044   -3.0703    1.0555 C   0  0  0  0  0  0  0  0  0  0  0  0
    2.2177   -3.2260   -0.4399 C   0  0  0  0  0  0  0  0  0  0  0  0
    3.0348    0.1594   -2.9451 N   0  0  0  0  0  0  0  0  0  0  0  0
    3.1623    1.2953   -3.7929 C   0  0  0  0  0  0  0  0  0  0  0  0
    4.0236    1.2368   -4.9011 C   0  0  0  0  0  0  0  0  0  0  0  0
    4.8343   -0.2301   -5.3307 Cl  0  0  0  0  0  0  0  0  0  0  0  0
    4.2751    2.3762   -5.6760 C   0  0  0  0  0  0  0  0  0  0  0  0
    3.5960    3.5644   -5.4148 C   0  0  0  0  0  0  0  0  0  0  0  0
    2.6603    3.6092   -4.3838 C   0  0  0  0  0  0  0  0  0  0  0  0
    2.4538    2.4912   -3.5648 C   0  0  0  0  0  0  0  0  0  0  0  0
    1.1890    2.6154   -2.3859 Cl  0  0  0  0  0  0  0  0  0  0  0  0
    3.1805   -0.8075    0.2525 H   0  0  0  0  0  0  0  0  0  0  0  0
    4.2275   -1.5477   -0.9610 H   0  0  0  0  0  0  0  0  0  0  0  0
    0.0851   -2.0359   -1.4797 H   0  0  0  0  0  0  0  0  0  0  0  0
    0.7246   -0.4225   -1.6161 H   0  0  0  0  0  0  0  0  0  0  0  0
   -0.5496   -0.6556    0.4668 H   0  0  0  0  0  0  0  0  0  0  0  0
    1.1379   -0.4157    0.9236 H   0  0  0  0  0  0  0  0  0  0  0  0
   -4.2880   -1.2063    4.6160 H   0  0  0  0  0  0  0  0  0  0  0  0
   -5.8957   -1.3217    6.4736 H   0  0  0  0  0  0  0  0  0  0  0  0
   -6.1570   -3.4174    7.7828 H   0  0  0  0  0  0  0  0  0  0  0  0
   -4.7171   -5.3744    7.2704 H   0  0  0  0  0  0  0  0  0  0  0  0
   -2.9957   -5.2136    5.5706 H   0  0  0  0  0  0  0  0  0  0  0  0
   -3.5637   -5.7782    3.5889 H   0  0  0  0  0  0  0  0  0  0  0  0
   -2.5254   -7.6516    2.4686 H   0  0  0  0  0  0  0  0  0  0  0  0
   -0.5558   -7.2826    1.0009 H   0  0  0  0  0  0  0  0  0  0  0  0
    0.2727   -5.0469    0.6673 H   0  0  0  0  0  0  0  0  0  0  0  0
    1.8255   -4.0456    1.5506 H   0  0  0  0  0  0  0  0  0  0  0  0
    2.5367   -2.4639    1.6006 H   0  0  0  0  0  0  0  0  0  0  0  0
    1.5251   -3.9340   -0.9168 H   0  0  0  0  0  0  0  0  0  0  0  0
    3.2065   -3.6929   -0.5092 H   0  0  0  0  0  0  0  0  0  0  0  0
    3.2397   -0.7529   -3.3413 H   0  0  0  0  0  0  0  0  0  0  0  0
    5.0016    2.3452   -6.4850 H   0  0  0  0  0  0  0  0  0  0  0  0
    3.7763    4.4464   -6.0254 H   0  0  0  0  0  0  0  0  0  0  0  0
    2.0828    4.5174   -4.2245 H   0  0  0  0  0  0  0  0  0  0  0  0
  1  2  2  0  0  0  0
  2  3  1  0  0  0  0
  2 26  1  0  0  0  0
  3  4  1  0  0  0  0
  3 35  1  0  0  0  0
  3 36  1  0  0  0  0
  4  5  1  0  0  0  0
  4 25  1  0  0  0  0
  5  6  1  0  0  0  0
  5 37  1  0  0  0  0
  5 38  1  0  0  0  0
  6  7  1  0  0  0  0
  6 39  1  0  0  0  0
  6 40  1  0  0  0  0
  7  8  1  0  0  0  0
  7 24  1  0  0  0  0
  8  9  1  0  0  0  0
  8 23  2  0  0  0  0
  9 10  2  0  0  0  0
 10 11  1  0  0  0  0
 11 12  1  0  0  0  0
 11 18  2  0  0  0  0
 12 13  1  0  0  0  0
 12 17  2  0  0  0  0
 13 14  2  0  0  0  0
 13 41  1  0  0  0  0
 14 15  1  0  0  0  0
 14 42  1  0  0  0  0
 15 16  2  0  0  0  0
 15 43  1  0  0  0  0
 16 17  1  0  0  0  0
 16 44  1  0  0  0  0
 17 45  1  0  0  0  0
 18 19  1  0  0  0  0
 18 23  1  0  0  0  0
 19 20  2  0  0  0  0
 19 46  1  0  0  0  0
 20 21  1  0  0  0  0
 20 47  1  0  0  0  0
 21 22  2  0  0  0  0
 21 48  1  0  0  0  0
 22 23  1  0  0  0  0
 22 49  1  0  0  0  0
 24 25  1  0  0  0  0
 24 50  1  0  0  0  0
 24 51  1  0  0  0  0
 25 52  1  0  0  0  0
 25 53  1  0  0  0  0
 26 27  1  0  0  0  0
 26 54  1  0  0  0  0
 27 28  1  0  0  0  0
 27 33  2  0  0  0  0
 28 29  1  0  0  0  0
 28 30  2  0  0  0  0
 30 31  1  0  0  0  0
 30 55  1  0  0  0  0
 31 32  2  0  0  0  0
 31 56  1  0  0  0  0
 32 33  1  0  0  0  0
 32 57  1  0  0  0  0
 33 34  1  0  0  0  0
M  END
$$$$
