CHEMBL91250
 OpenBabel04072215383D

 40 43  0  0  0  0  0  0  0  0999 V2000
    1.2103    0.3598    0.1702 C   0  0  0  0  0  0  0  0  0  0  0  0
    2.5583    0.0111   -0.1288 O   0  0  0  0  0  0  0  0  0  0  0  0
    3.1266    0.6859   -1.1770 C   0  0  0  0  0  0  0  0  0  0  0  0
    2.7679    1.9839   -1.5909 C   0  0  0  0  0  0  0  0  0  0  0  0
    3.4183    2.6137   -2.6657 C   0  0  0  0  0  0  0  0  0  0  0  0
    4.4262    1.9281   -3.3187 C   0  0  0  0  0  0  0  0  0  0  0  0
    4.7738    0.6419   -2.8876 C   0  0  0  0  0  0  0  0  0  0  0  0
    4.1593    0.0073   -1.8253 C   0  0  0  0  0  0  0  0  0  0  0  0
    5.7867    0.1175   -3.6805 N   0  0  0  0  0  0  0  0  0  0  0  0
    6.1587    0.9977   -4.6824 C   0  0  0  0  0  0  0  0  0  0  0  0
    6.9741    0.7679   -5.5562 O   0  0  0  0  0  0  0  0  0  0  0  0
    5.3137    2.2320   -4.4559 C   0  0  0  0  0  0  0  0  0  0  0  0
    5.3810    3.3914   -5.1332 C   0  0  0  0  0  0  0  0  0  0  0  0
    6.3193    3.6206   -6.1699 C   0  0  0  0  0  0  0  0  0  0  0  0
    7.6108    4.1207   -6.1846 C   0  0  0  0  0  0  0  0  0  0  0  0
    8.0921    4.0276   -7.5164 C   0  0  0  0  0  0  0  0  0  0  0  0
    7.0596    3.5308   -8.2839 C   0  0  0  0  0  0  0  0  0  0  0  0
    5.9872    3.2907   -7.4663 N   0  0  0  0  0  0  0  0  0  0  0  0
    7.1163    3.2500   -9.7446 C   0  0  0  0  0  0  0  0  0  0  0  0
    8.5883    3.1329  -10.1859 C   0  0  0  0  0  0  0  0  0  0  0  0
    9.4522    4.2723   -9.6112 C   0  0  0  0  0  0  0  0  0  0  0  0
    9.4531    4.2906   -8.0688 C   0  0  0  0  0  0  0  0  0  0  0  0
    0.8615   -0.2984    0.9719 H   0  0  0  0  0  0  0  0  0  0  0  0
    0.5669    0.2010   -0.7020 H   0  0  0  0  0  0  0  0  0  0  0  0
    1.1306    1.3871    0.5376 H   0  0  0  0  0  0  0  0  0  0  0  0
    1.9896    2.5372   -1.0740 H   0  0  0  0  0  0  0  0  0  0  0  0
    3.1260    3.6157   -2.9616 H   0  0  0  0  0  0  0  0  0  0  0  0
    4.4539   -0.9865   -1.5108 H   0  0  0  0  0  0  0  0  0  0  0  0
    6.1970   -0.7978   -3.5863 H   0  0  0  0  0  0  0  0  0  0  0  0
    4.7438    4.2266   -4.8574 H   0  0  0  0  0  0  0  0  0  0  0  0
    8.1676    4.4497   -5.3194 H   0  0  0  0  0  0  0  0  0  0  0  0
    5.1133    2.8749   -7.7579 H   0  0  0  0  0  0  0  0  0  0  0  0
    6.6392    4.0740  -10.2888 H   0  0  0  0  0  0  0  0  0  0  0  0
    6.5788    2.3289   -9.9934 H   0  0  0  0  0  0  0  0  0  0  0  0
    8.6452    3.1363  -11.2804 H   0  0  0  0  0  0  0  0  0  0  0  0
    8.9970    2.1715   -9.8480 H   0  0  0  0  0  0  0  0  0  0  0  0
    9.0689    5.2297   -9.9865 H   0  0  0  0  0  0  0  0  0  0  0  0
   10.4823    4.1783   -9.9749 H   0  0  0  0  0  0  0  0  0  0  0  0
    9.8406    5.2501   -7.7102 H   0  0  0  0  0  0  0  0  0  0  0  0
   10.1299    3.5070   -7.7055 H   0  0  0  0  0  0  0  0  0  0  0  0
  1  2  1  0  0  0  0
  1 23  1  0  0  0  0
  1 24  1  0  0  0  0
  1 25  1  0  0  0  0
  2  3  1  0  0  0  0
  3  4  1  0  0  0  0
  3  8  2  0  0  0  0
  4  5  2  0  0  0  0
  4 26  1  0  0  0  0
  5  6  1  0  0  0  0
  5 27  1  0  0  0  0
  6  7  2  0  0  0  0
  6 12  1  0  0  0  0
  7  8  1  0  0  0  0
  7  9  1  0  0  0  0
  8 28  1  0  0  0  0
  9 10  1  0  0  0  0
  9 29  1  0  0  0  0
 10 11  2  0  0  0  0
 10 12  1  0  0  0  0
 12 13  2  0  0  0  0
 13 14  1  0  0  0  0
 13 30  1  0  0  0  0
 14 15  2  0  0  0  0
 14 18  1  0  0  0  0
 15 16  1  0  0  0  0
 15 31  1  0  0  0  0
 16 17  2  0  0  0  0
 16 22  1  0  0  0  0
 17 18  1  0  0  0  0
 17 19  1  0  0  0  0
 18 32  1  0  0  0  0
 19 20  1  0  0  0  0
 19 33  1  0  0  0  0
 19 34  1  0  0  0  0
 20 21  1  0  0  0  0
 20 35  1  0  0  0  0
 20 36  1  0  0  0  0
 21 22  1  0  0  0  0
 21 37  1  0  0  0  0
 21 38  1  0  0  0  0
 22 39  1  0  0  0  0
 22 40  1  0  0  0  0
M  END
$$$$
