CHEMBL4549103
 OpenBabel04072215383D

 55 58  0  0  0  0  0  0  0  0999 V2000
   10.2269   -3.3951    0.5878 C   0  0  0  0  0  0  0  0  0  0  0  0
    9.6686   -3.7248    1.8534 O   0  0  0  0  0  0  0  0  0  0  0  0
    9.1407   -2.6962    2.5815 C   0  0  0  0  0  0  0  0  0  0  0  0
    9.1386   -1.3477    2.2241 C   0  0  0  0  0  0  0  0  0  0  0  0
    8.5485   -0.3975    3.0701 C   0  0  0  0  0  0  0  0  0  0  0  0
    7.9570   -0.7855    4.2817 C   0  0  0  0  0  0  0  0  0  0  0  0
    7.3377    0.2501    5.1655 C   0  0  0  0  0  0  0  0  0  0  0  0
    7.3636    1.4234    4.7864 O   0  0  0  0  0  0  0  0  0  0  0  0
    6.7129   -0.2117    6.4793 C   0  0  0  0  0  0  0  0  0  0  0  0
    5.9794    1.1646    7.4092 S   0  0  0  0  0  0  0  0  0  0  0  0
    5.4372    0.3187    8.8721 C   0  0  0  0  0  0  0  0  0  0  0  0
    5.5970   -1.0093    8.9701 N   0  0  0  0  0  0  0  0  0  0  0  0
    5.2390   -1.5534   10.1465 C   0  0  0  0  0  0  0  0  0  0  0  0
    4.7339   -0.8302   11.1998 C   0  0  0  0  0  0  0  0  0  0  0  0
    4.5890    0.5296   11.0050 C   0  0  0  0  0  0  0  0  0  0  0  0
    4.1471    1.3088   12.0953 N   0  0  0  0  0  0  0  0  0  0  0  0
    4.3086    2.6877   12.3342 C   0  0  0  0  0  0  0  0  0  0  0  0
    5.1924    3.4904   11.6147 C   0  0  0  0  0  0  0  0  0  0  0  0
    5.4425    4.8183   11.9828 C   0  0  0  0  0  0  0  0  0  0  0  0
    4.8461    5.3957   13.1061 C   0  0  0  0  0  0  0  0  0  0  0  0
    5.1181    6.6877   13.4944 N   0  0  0  0  0  0  0  0  0  0  0  0
    5.4645    7.7527   12.5435 C   0  0  0  0  0  0  0  0  0  0  0  0
    6.8299    8.3592   12.8942 C   0  0  0  0  0  0  0  0  0  0  0  0
    6.8775    8.7995   14.2628 O   0  0  0  0  0  0  0  0  0  0  0  0
    6.6394    7.6911   15.1464 C   0  0  0  0  0  0  0  0  0  0  0  0
    5.2578    7.0562   14.9098 C   0  0  0  0  0  0  0  0  0  0  0  0
    3.9593    4.5861   13.8265 C   0  0  0  0  0  0  0  0  0  0  0  0
    3.6927    3.2603   13.4518 C   0  0  0  0  0  0  0  0  0  0  0  0
    4.9358    1.0982    9.8414 N   0  0  0  0  0  0  0  0  0  0  0  0
    7.9677   -2.1387    4.6336 C   0  0  0  0  0  0  0  0  0  0  0  0
    8.5566   -3.0806    3.7890 C   0  0  0  0  0  0  0  0  0  0  0  0
   10.5440   -4.3267    0.1089 H   0  0  0  0  0  0  0  0  0  0  0  0
   11.1110   -2.7604    0.7057 H   0  0  0  0  0  0  0  0  0  0  0  0
    9.4836   -2.9239   -0.0635 H   0  0  0  0  0  0  0  0  0  0  0  0
    9.5853   -1.0014    1.2978 H   0  0  0  0  0  0  0  0  0  0  0  0
    8.5542    0.6515    2.7692 H   0  0  0  0  0  0  0  0  0  0  0  0
    7.4953   -0.6777    7.0869 H   0  0  0  0  0  0  0  0  0  0  0  0
    5.9195   -0.9317    6.2553 H   0  0  0  0  0  0  0  0  0  0  0  0
    5.3939   -2.6253   10.2312 H   0  0  0  0  0  0  0  0  0  0  0  0
    4.5115   -1.2985   12.1501 H   0  0  0  0  0  0  0  0  0  0  0  0
    3.3138    0.9250   12.5210 H   0  0  0  0  0  0  0  0  0  0  0  0
    5.7302    3.1050   10.7543 H   0  0  0  0  0  0  0  0  0  0  0  0
    6.1653    5.3690   11.3884 H   0  0  0  0  0  0  0  0  0  0  0  0
    4.6950    8.5296   12.6268 H   0  0  0  0  0  0  0  0  0  0  0  0
    5.4590    7.4221   11.4998 H   0  0  0  0  0  0  0  0  0  0  0  0
    7.0188    9.2316   12.2608 H   0  0  0  0  0  0  0  0  0  0  0  0
    7.6394    7.6395   12.7232 H   0  0  0  0  0  0  0  0  0  0  0  0
    6.7035    8.0654   16.1730 H   0  0  0  0  0  0  0  0  0  0  0  0
    7.4385    6.9522   15.0110 H   0  0  0  0  0  0  0  0  0  0  0  0
    4.4716    7.7795   15.1555 H   0  0  0  0  0  0  0  0  0  0  0  0
    5.1532    6.2010   15.5859 H   0  0  0  0  0  0  0  0  0  0  0  0
    3.4409    4.9865   14.6938 H   0  0  0  0  0  0  0  0  0  0  0  0
    3.0039    2.6818   14.0611 H   0  0  0  0  0  0  0  0  0  0  0  0
    7.5248   -2.4961    5.5556 H   0  0  0  0  0  0  0  0  0  0  0  0
    8.5562   -4.1295    4.0751 H   0  0  0  0  0  0  0  0  0  0  0  0
  1  2  1  0  0  0  0
  1 32  1  0  0  0  0
  1 33  1  0  0  0  0
  1 34  1  0  0  0  0
  2  3  1  0  0  0  0
  3  4  1  0  0  0  0
  3 31  2  0  0  0  0
  4  5  2  0  0  0  0
  4 35  1  0  0  0  0
  5  6  1  0  0  0  0
  5 36  1  0  0  0  0
  6  7  1  0  0  0  0
  6 30  2  0  0  0  0
  7  8  2  0  0  0  0
  7  9  1  0  0  0  0
  9 10  1  0  0  0  0
  9 37  1  0  0  0  0
  9 38  1  0  0  0  0
 10 11  1  0  0  0  0
 11 12  1  0  0  0  0
 11 29  2  0  0  0  0
 12 13  2  0  0  0  0
 13 14  1  0  0  0  0
 13 39  1  0  0  0  0
 14 15  2  0  0  0  0
 14 40  1  0  0  0  0
 15 16  1  0  0  0  0
 15 29  1  0  0  0  0
 16 17  1  0  0  0  0
 16 41  1  0  0  0  0
 17 18  1  0  0  0  0
 17 28  2  0  0  0  0
 18 19  2  0  0  0  0
 18 42  1  0  0  0  0
 19 20  1  0  0  0  0
 19 43  1  0  0  0  0
 20 21  1  0  0  0  0
 20 27  2  0  0  0  0
 21 22  1  0  0  0  0
 21 26  1  0  0  0  0
 22 23  1  0  0  0  0
 22 44  1  0  0  0  0
 22 45  1  0  0  0  0
 23 24  1  0  0  0  0
 23 46  1  0  0  0  0
 23 47  1  0  0  0  0
 24 25  1  0  0  0  0
 25 26  1  0  0  0  0
 25 48  1  0  0  0  0
 25 49  1  0  0  0  0
 26 50  1  0  0  0  0
 26 51  1  0  0  0  0
 27 28  1  0  0  0  0
 27 52  1  0  0  0  0
 28 53  1  0  0  0  0
 30 31  1  0  0  0  0
 30 54  1  0  0  0  0
 31 55  1  0  0  0  0
M  END
$$$$
