CHEMBL3922174
 OpenBabel04072215373D

 48 51  0  0  0  0  0  0  0  0999 V2000
    1.0997   -1.6201    0.5340 N   0  0  0  0  0  0  0  0  0  0  0  0
    1.4657   -1.4745   -0.7747 C   0  0  0  0  0  0  0  0  0  0  0  0
    0.8073   -0.8207   -1.5735 O   0  0  0  0  0  0  0  0  0  0  0  0
    2.7220   -2.1869   -1.1846 C   0  0  0  0  0  0  0  0  0  0  0  0
    4.0431   -1.4277   -0.9697 C   0  0  0  0  0  0  0  0  0  0  0  0
    4.6457   -1.4799    0.3073 C   0  0  0  0  0  0  0  0  0  0  0  0
    5.9105   -0.9465    0.5574 C   0  0  0  0  0  0  0  0  0  0  0  0
    6.6217   -0.3517   -0.4733 C   0  0  0  0  0  0  0  0  0  0  0  0
    6.0307   -0.2149   -1.7249 C   0  0  0  0  0  0  0  0  0  0  0  0
    4.7329   -0.7036   -1.9753 C   0  0  0  0  0  0  0  0  0  0  0  0
    4.1281   -0.3895   -3.3302 C   0  0  0  0  0  0  0  0  0  0  0  0
    3.4583    0.9917   -3.3860 C   0  0  0  0  0  0  0  0  0  0  0  0
    3.0471    1.5323   -4.7448 C   0  0  0  0  0  0  0  0  0  0  0  0
    3.1209    2.8994   -4.8340 N   0  0  0  0  0  0  0  0  0  0  0  0
    2.7888    3.5008   -5.9889 C   0  0  0  0  0  0  0  0  0  0  0  0
    2.9257    4.8870   -6.0535 N   0  0  0  0  0  0  0  0  0  0  0  0
    2.9794    5.7304   -7.1723 C   0  0  0  0  0  0  0  0  0  0  0  0
    3.5910    6.9826   -7.0680 C   0  0  0  0  0  0  0  0  0  0  0  0
    3.7380    7.7972   -8.1939 C   0  0  0  0  0  0  0  0  0  0  0  0
    3.2538    7.3436   -9.4071 C   0  0  0  0  0  0  0  0  0  0  0  0
    2.6222    6.1657   -9.5573 N   0  0  0  0  0  0  0  0  0  0  0  0
    2.4989    5.3981   -8.4422 C   0  0  0  0  0  0  0  0  0  0  0  0
    2.3820    2.8205   -7.0652 N   0  0  0  0  0  0  0  0  0  0  0  0
    2.2900    1.4857   -6.9539 C   0  0  0  0  0  0  0  0  0  0  0  0
    2.5972    0.7752   -5.8140 C   0  0  0  0  0  0  0  0  0  0  0  0
    2.3687   -0.9210   -5.8767 Cl  0  0  0  0  0  0  0  0  0  0  0  0
    2.6165   -3.1790   -2.3485 C   0  0  0  0  0  0  0  0  0  0  0  0
    2.7641   -3.7097   -0.9659 C   0  0  0  0  0  0  0  0  0  0  0  0
    0.2543   -1.1637    0.8511 H   0  0  0  0  0  0  0  0  0  0  0  0
    1.6586   -2.1358    1.1940 H   0  0  0  0  0  0  0  0  0  0  0  0
    4.1223   -1.9666    1.1272 H   0  0  0  0  0  0  0  0  0  0  0  0
    6.3445   -1.0170    1.5508 H   0  0  0  0  0  0  0  0  0  0  0  0
    7.6273    0.0218   -0.3015 H   0  0  0  0  0  0  0  0  0  0  0  0
    6.5890    0.2806   -2.5176 H   0  0  0  0  0  0  0  0  0  0  0  0
    3.3980   -1.1559   -3.5656 H   0  0  0  0  0  0  0  0  0  0  0  0
    4.9103   -0.4680   -4.0967 H   0  0  0  0  0  0  0  0  0  0  0  0
    4.1571    1.7216   -2.9515 H   0  0  0  0  0  0  0  0  0  0  0  0
    2.5761    1.0020   -2.7355 H   0  0  0  0  0  0  0  0  0  0  0  0
    3.2850    5.2411   -5.1781 H   0  0  0  0  0  0  0  0  0  0  0  0
    3.9847    7.3285   -6.1164 H   0  0  0  0  0  0  0  0  0  0  0  0
    4.2362    8.7559   -8.1267 H   0  0  0  0  0  0  0  0  0  0  0  0
    3.3644    7.9283  -10.3158 H   0  0  0  0  0  0  0  0  0  0  0  0
    1.9745    4.4665   -8.6303 H   0  0  0  0  0  0  0  0  0  0  0  0
    1.9501    0.9860   -7.8567 H   0  0  0  0  0  0  0  0  0  0  0  0
    3.4593   -3.3093   -3.0183 H   0  0  0  0  0  0  0  0  0  0  0  0
    1.6550   -3.2745   -2.8435 H   0  0  0  0  0  0  0  0  0  0  0  0
    3.7114   -4.1789   -0.7216 H   0  0  0  0  0  0  0  0  0  0  0  0
    1.9038   -4.2128   -0.5407 H   0  0  0  0  0  0  0  0  0  0  0  0
  1  2  1  0  0  0  0
  1 29  1  0  0  0  0
  1 30  1  0  0  0  0
  2  3  2  0  0  0  0
  2  4  1  0  0  0  0
  4  5  1  0  0  0  0
  4 27  1  0  0  0  0
  4 28  1  0  0  0  0
  5  6  1  0  0  0  0
  5 10  2  0  0  0  0
  6  7  2  0  0  0  0
  6 31  1  0  0  0  0
  7  8  1  0  0  0  0
  7 32  1  0  0  0  0
  8  9  2  0  0  0  0
  8 33  1  0  0  0  0
  9 10  1  0  0  0  0
  9 34  1  0  0  0  0
 10 11  1  0  0  0  0
 11 12  1  0  0  0  0
 11 35  1  0  0  0  0
 11 36  1  0  0  0  0
 12 13  1  0  0  0  0
 12 37  1  0  0  0  0
 12 38  1  0  0  0  0
 13 14  1  0  0  0  0
 13 25  2  0  0  0  0
 14 15  2  0  0  0  0
 15 16  1  0  0  0  0
 15 23  1  0  0  0  0
 16 17  1  0  0  0  0
 16 39  1  0  0  0  0
 17 18  1  0  0  0  0
 17 22  2  0  0  0  0
 18 19  2  0  0  0  0
 18 40  1  0  0  0  0
 19 20  1  0  0  0  0
 19 41  1  0  0  0  0
 20 21  2  0  0  0  0
 20 42  1  0  0  0  0
 21 22  1  0  0  0  0
 22 43  1  0  0  0  0
 23 24  2  0  0  0  0
 24 25  1  0  0  0  0
 24 44  1  0  0  0  0
 25 26  1  0  0  0  0
 27 28  1  0  0  0  0
 27 45  1  0  0  0  0
 27 46  1  0  0  0  0
 28 47  1  0  0  0  0
 28 48  1  0  0  0  0
M  END
$$$$
