CHEMBL3397924
 OpenBabel04072215363D

 64 67  0  0  0  0  0  0  0  0999 V2000
    1.5359   -0.2732   -0.2926 C   0  0  0  0  0  0  0  0  0  0  0  0
    2.5961    0.0038    0.6091 O   0  0  0  0  0  0  0  0  0  0  0  0
    3.2245    1.2198    0.5213 C   0  0  0  0  0  0  0  0  0  0  0  0
    2.8742    2.2380   -0.3598 C   0  0  0  0  0  0  0  0  0  0  0  0
    3.6183    3.4157   -0.3923 C   0  0  0  0  0  0  0  0  0  0  0  0
    4.7344    3.6019    0.4458 C   0  0  0  0  0  0  0  0  0  0  0  0
    5.5635    4.8221    0.1692 C   0  0  0  0  0  0  0  0  0  0  0  0
    6.7828    4.7219    0.1230 O   0  0  0  0  0  0  0  0  0  0  0  0
    4.8678    6.0279    0.0248 N   0  0  0  0  0  0  0  0  0  0  0  0
    5.5492    7.2644   -0.0996 C   0  0  0  0  0  0  0  0  0  0  0  0
    6.6654    7.4139   -0.9270 C   0  0  0  0  0  0  0  0  0  0  0  0
    7.3725    8.6229   -0.9672 C   0  0  0  0  0  0  0  0  0  0  0  0
    6.9723    9.7047   -0.1776 C   0  0  0  0  0  0  0  0  0  0  0  0
    7.6289   10.9123   -0.1520 O   0  0  0  0  0  0  0  0  0  0  0  0
    8.3279   11.2592   -1.3555 C   0  0  0  0  0  0  0  0  0  0  0  0
    8.4445   12.7900   -1.4668 C   0  0  0  0  0  0  0  0  0  0  0  0
    9.1420   13.2639   -2.6849 N   0  0  0  0  0  0  0  0  0  0  0  0
    8.4441   12.8624   -3.9185 C   0  0  0  0  0  0  0  0  0  0  0  0
    9.1917   13.3302   -5.1682 C   0  0  0  0  0  0  0  0  0  0  0  0
    9.3950   14.8374   -5.1561 C   0  0  0  0  0  0  0  0  0  0  0  0
   10.0587   15.2639   -3.8533 C   0  0  0  0  0  0  0  0  0  0  0  0
    9.2981   14.7292   -2.6352 C   0  0  0  0  0  0  0  0  0  0  0  0
    5.8529    9.5471    0.6537 C   0  0  0  0  0  0  0  0  0  0  0  0
    5.3451   10.8147    1.7174 Cl  0  0  0  0  0  0  0  0  0  0  0  0
    5.1182    8.3520    0.6629 C   0  0  0  0  0  0  0  0  0  0  0  0
    5.1112    2.6027    1.3975 C   0  0  0  0  0  0  0  0  0  0  0  0
    6.2707    2.7606    2.3300 C   0  0  0  0  0  0  0  0  0  0  0  0
    6.5571    3.9783    2.9887 C   0  0  0  0  0  0  0  0  0  0  0  0
    7.6710    4.1307    3.8208 C   0  0  0  0  0  0  0  0  0  0  0  0
    8.4805    3.0385    4.1149 C   0  0  0  0  0  0  0  0  0  0  0  0
    8.1908    1.8168    3.5319 C   0  0  0  0  0  0  0  0  0  0  0  0
    8.9106    0.6944    3.8459 O   0  0  0  0  0  0  0  0  0  0  0  0
    7.1433    1.6882    2.6297 C   0  0  0  0  0  0  0  0  0  0  0  0
    4.3057    1.4239    1.4052 C   0  0  0  0  0  0  0  0  0  0  0  0
    4.5208    0.3819    2.2898 O   0  0  0  0  0  0  0  0  0  0  0  0
    1.2205   -1.3082   -0.1287 H   0  0  0  0  0  0  0  0  0  0  0  0
    1.8572   -0.1879   -1.3358 H   0  0  0  0  0  0  0  0  0  0  0  0
    0.6774    0.3738   -0.0873 H   0  0  0  0  0  0  0  0  0  0  0  0
    2.0430    2.1322   -1.0508 H   0  0  0  0  0  0  0  0  0  0  0  0
    3.3500    4.1696   -1.1305 H   0  0  0  0  0  0  0  0  0  0  0  0
    3.9118    6.0572    0.3571 H   0  0  0  0  0  0  0  0  0  0  0  0
    6.9996    6.5910   -1.5568 H   0  0  0  0  0  0  0  0  0  0  0  0
    8.2476    8.6792   -1.6084 H   0  0  0  0  0  0  0  0  0  0  0  0
    7.7709   10.8841   -2.2183 H   0  0  0  0  0  0  0  0  0  0  0  0
    9.3285   10.8104   -1.3329 H   0  0  0  0  0  0  0  0  0  0  0  0
    8.9922   13.1429   -0.5785 H   0  0  0  0  0  0  0  0  0  0  0  0
    7.4431   13.2355   -1.3917 H   0  0  0  0  0  0  0  0  0  0  0  0
    7.4184   13.2534   -3.9303 H   0  0  0  0  0  0  0  0  0  0  0  0
    8.3814   11.7724   -3.9894 H   0  0  0  0  0  0  0  0  0  0  0  0
    8.6338   13.0368   -6.0648 H   0  0  0  0  0  0  0  0  0  0  0  0
   10.1665   12.8283   -5.2213 H   0  0  0  0  0  0  0  0  0  0  0  0
    8.4250   15.3393   -5.2591 H   0  0  0  0  0  0  0  0  0  0  0  0
   10.0083   15.1413   -6.0115 H   0  0  0  0  0  0  0  0  0  0  0  0
   10.1106   16.3573   -3.8083 H   0  0  0  0  0  0  0  0  0  0  0  0
   11.0913   14.8930   -3.8321 H   0  0  0  0  0  0  0  0  0  0  0  0
    8.3191   15.2224   -2.5740 H   0  0  0  0  0  0  0  0  0  0  0  0
    9.8615   15.0120   -1.7374 H   0  0  0  0  0  0  0  0  0  0  0  0
    4.2645    8.2564    1.3241 H   0  0  0  0  0  0  0  0  0  0  0  0
    5.9392    4.8561    2.8103 H   0  0  0  0  0  0  0  0  0  0  0  0
    7.9027    5.1065    4.2315 H   0  0  0  0  0  0  0  0  0  0  0  0
    9.3202    3.1552    4.7923 H   0  0  0  0  0  0  0  0  0  0  0  0
    9.5767    0.9273    4.5104 H   0  0  0  0  0  0  0  0  0  0  0  0
    7.0064    0.7171    2.1559 H   0  0  0  0  0  0  0  0  0  0  0  0
    5.0195    0.6935    3.0602 H   0  0  0  0  0  0  0  0  0  0  0  0
  1  2  1  0  0  0  0
  1 36  1  0  0  0  0
  1 37  1  0  0  0  0
  1 38  1  0  0  0  0
  2  3  1  0  0  0  0
  3  4  1  0  0  0  0
  3 34  2  0  0  0  0
  4  5  2  0  0  0  0
  4 39  1  0  0  0  0
  5  6  1  0  0  0  0
  5 40  1  0  0  0  0
  6  7  1  0  0  0  0
  6 26  2  0  0  0  0
  7  8  2  0  0  0  0
  7  9  1  0  0  0  0
  9 10  1  0  0  0  0
  9 41  1  0  0  0  0
 10 11  1  0  0  0  0
 10 25  2  0  0  0  0
 11 12  2  0  0  0  0
 11 42  1  0  0  0  0
 12 13  1  0  0  0  0
 12 43  1  0  0  0  0
 13 14  1  0  0  0  0
 13 23  2  0  0  0  0
 14 15  1  0  0  0  0
 15 16  1  0  0  0  0
 15 44  1  0  0  0  0
 15 45  1  0  0  0  0
 16 17  1  0  0  0  0
 16 46  1  0  0  0  0
 16 47  1  0  0  0  0
 17 18  1  0  0  0  0
 17 22  1  0  0  0  0
 18 19  1  0  0  0  0
 18 48  1  0  0  0  0
 18 49  1  0  0  0  0
 19 20  1  0  0  0  0
 19 50  1  0  0  0  0
 19 51  1  0  0  0  0
 20 21  1  0  0  0  0
 20 52  1  0  0  0  0
 20 53  1  0  0  0  0
 21 22  1  0  0  0  0
 21 54  1  0  0  0  0
 21 55  1  0  0  0  0
 22 56  1  0  0  0  0
 22 57  1  0  0  0  0
 23 24  1  0  0  0  0
 23 25  1  0  0  0  0
 25 58  1  0  0  0  0
 26 27  1  0  0  0  0
 26 34  1  0  0  0  0
 27 28  1  0  0  0  0
 27 33  2  0  0  0  0
 28 29  2  0  0  0  0
 28 59  1  0  0  0  0
 29 30  1  0  0  0  0
 29 60  1  0  0  0  0
 30 31  2  0  0  0  0
 30 61  1  0  0  0  0
 31 32  1  0  0  0  0
 31 33  1  0  0  0  0
 32 62  1  0  0  0  0
 33 63  1  0  0  0  0
 34 35  1  0  0  0  0
 35 64  1  0  0  0  0
M  END
$$$$
