CHEMBL3702604
 OpenBabel04072215373D

 57 60  0  0  0  0  0  0  0  0999 V2000
    3.5576    1.1957   -0.3208 C   0  0  0  0  0  0  0  0  0  0  0  0
    2.4523    0.1096   -0.3090 C   0  0  0  0  0  0  0  0  0  0  0  0
    1.9455    0.0175    1.1449 C   0  0  0  0  0  0  0  0  0  0  0  0
    1.2927    0.5909   -1.2045 C   0  0  0  0  0  0  0  0  0  0  0  0
    2.9571   -1.2521   -0.8181 C   0  0  0  0  0  0  0  0  0  0  0  0
    4.2704   -1.4087   -1.2713 C   0  0  0  0  0  0  0  0  0  0  0  0
    4.7419   -2.6260   -1.7606 C   0  0  0  0  0  0  0  0  0  0  0  0
    3.9218   -3.7491   -1.8221 C   0  0  0  0  0  0  0  0  0  0  0  0
    4.3705   -5.0015   -2.3239 N   0  0  0  0  0  0  0  0  0  0  0  0
    5.6384   -5.2482   -2.8223 C   0  0  0  0  0  0  0  0  0  0  0  0
    6.5633   -4.4333   -2.8719 O   0  0  0  0  0  0  0  0  0  0  0  0
    5.9423   -6.5962   -3.3605 C   0  0  0  0  0  0  0  0  0  0  0  0
    4.9813   -7.4341   -3.9150 C   0  0  0  0  0  0  0  0  0  0  0  0
    5.3906   -8.6132   -4.5371 C   0  0  0  0  0  0  0  0  0  0  0  0
    6.7518   -8.9440   -4.6089 C   0  0  0  0  0  0  0  0  0  0  0  0
    7.7395   -8.1197   -4.0602 C   0  0  0  0  0  0  0  0  0  0  0  0
    9.0863   -8.4097   -4.1991 N   0  0  0  0  0  0  0  0  0  0  0  0
   10.0841   -7.3357   -4.2485 C   0  0  0  0  0  0  0  0  0  0  0  0
   10.8668   -7.2717   -2.9422 C   0  0  0  0  0  0  0  0  0  0  0  0
   11.3451   -8.6316   -2.5117 C   0  0  0  0  0  0  0  0  0  0  0  0
   12.3953   -8.6667   -1.6569 N   0  0  0  0  0  0  0  0  0  0  0  0
   12.8308   -9.8686   -1.2704 C   0  0  0  0  0  0  0  0  0  0  0  0
   13.9175   -9.9241   -0.4239 N   0  0  0  0  0  0  0  0  0  0  0  0
   12.2735  -11.0305   -1.6269 N   0  0  0  0  0  0  0  0  0  0  0  0
   11.2254  -10.9551   -2.4685 C   0  0  0  0  0  0  0  0  0  0  0  0
   10.7058   -9.7748   -2.9568 C   0  0  0  0  0  0  0  0  0  0  0  0
    9.5896   -9.7637   -3.9609 C   0  0  0  0  0  0  0  0  0  0  0  0
    7.3003   -6.9552   -3.4244 C   0  0  0  0  0  0  0  0  0  0  0  0
    2.6114   -3.6250   -1.3630 C   0  0  0  0  0  0  0  0  0  0  0  0
    2.1340   -2.3920   -0.8712 C   0  0  0  0  0  0  0  0  0  0  0  0
    3.2048    2.1360    0.1130 H   0  0  0  0  0  0  0  0  0  0  0  0
    3.9005    1.4170   -1.3390 H   0  0  0  0  0  0  0  0  0  0  0  0
    4.4285    0.8805    0.2699 H   0  0  0  0  0  0  0  0  0  0  0  0
    1.6646    1.0106    1.5238 H   0  0  0  0  0  0  0  0  0  0  0  0
    2.7181   -0.3813    1.8122 H   0  0  0  0  0  0  0  0  0  0  0  0
    1.0588   -0.6179    1.2355 H   0  0  0  0  0  0  0  0  0  0  0  0
    0.9078    1.5598   -0.8674 H   0  0  0  0  0  0  0  0  0  0  0  0
    0.4524   -0.1132   -1.1897 H   0  0  0  0  0  0  0  0  0  0  0  0
    1.6104    0.6995   -2.2474 H   0  0  0  0  0  0  0  0  0  0  0  0
    4.9873   -0.5933   -1.2629 H   0  0  0  0  0  0  0  0  0  0  0  0
    5.7768   -2.6367   -2.0780 H   0  0  0  0  0  0  0  0  0  0  0  0
    3.7093   -5.7616   -2.2902 H   0  0  0  0  0  0  0  0  0  0  0  0
    3.9316   -7.1636   -3.9324 H   0  0  0  0  0  0  0  0  0  0  0  0
    4.6565   -9.2592   -5.0132 H   0  0  0  0  0  0  0  0  0  0  0  0
    7.0371   -9.8356   -5.1622 H   0  0  0  0  0  0  0  0  0  0  0  0
    9.6360   -6.3570   -4.4676 H   0  0  0  0  0  0  0  0  0  0  0  0
   10.7630   -7.5321   -5.0873 H   0  0  0  0  0  0  0  0  0  0  0  0
   10.2392   -6.8621   -2.1430 H   0  0  0  0  0  0  0  0  0  0  0  0
   11.7232   -6.5998   -3.0717 H   0  0  0  0  0  0  0  0  0  0  0  0
   13.9893   -9.0663    0.1038 H   0  0  0  0  0  0  0  0  0  0  0  0
   13.9022  -10.7921    0.0928 H   0  0  0  0  0  0  0  0  0  0  0  0
   10.8141  -11.9174   -2.7569 H   0  0  0  0  0  0  0  0  0  0  0  0
    8.7954  -10.4371   -3.6148 H   0  0  0  0  0  0  0  0  0  0  0  0
    9.9789  -10.1617   -4.9050 H   0  0  0  0  0  0  0  0  0  0  0  0
    8.0263   -6.2776   -2.9756 H   0  0  0  0  0  0  0  0  0  0  0  0
    1.9341   -4.4745   -1.3776 H   0  0  0  0  0  0  0  0  0  0  0  0
    1.1021   -2.3403   -0.5300 H   0  0  0  0  0  0  0  0  0  0  0  0
  1  2  1  0  0  0  0
  1 31  1  0  0  0  0
  1 32  1  0  0  0  0
  1 33  1  0  0  0  0
  2  3  1  0  0  0  0
  2  4  1  0  0  0  0
  2  5  1  0  0  0  0
  3 34  1  0  0  0  0
  3 35  1  0  0  0  0
  3 36  1  0  0  0  0
  4 37  1  0  0  0  0
  4 38  1  0  0  0  0
  4 39  1  0  0  0  0
  5  6  1  0  0  0  0
  5 30  2  0  0  0  0
  6  7  2  0  0  0  0
  6 40  1  0  0  0  0
  7  8  1  0  0  0  0
  7 41  1  0  0  0  0
  8  9  1  0  0  0  0
  8 29  2  0  0  0  0
  9 10  1  0  0  0  0
  9 42  1  0  0  0  0
 10 11  2  0  0  0  0
 10 12  1  0  0  0  0
 12 13  1  0  0  0  0
 12 28  2  0  0  0  0
 13 14  2  0  0  0  0
 13 43  1  0  0  0  0
 14 15  1  0  0  0  0
 14 44  1  0  0  0  0
 15 16  2  0  0  0  0
 15 45  1  0  0  0  0
 16 17  1  0  0  0  0
 16 28  1  0  0  0  0
 17 18  1  0  0  0  0
 17 27  1  0  0  0  0
 18 19  1  0  0  0  0
 18 46  1  0  0  0  0
 18 47  1  0  0  0  0
 19 20  1  0  0  0  0
 19 48  1  0  0  0  0
 19 49  1  0  0  0  0
 20 21  1  0  0  0  0
 20 26  2  0  0  0  0
 21 22  2  0  0  0  0
 22 23  1  0  0  0  0
 22 24  1  0  0  0  0
 23 50  1  0  0  0  0
 23 51  1  0  0  0  0
 24 25  2  0  0  0  0
 25 26  1  0  0  0  0
 25 52  1  0  0  0  0
 26 27  1  0  0  0  0
 27 53  1  0  0  0  0
 27 54  1  0  0  0  0
 28 55  1  0  0  0  0
 29 30  1  0  0  0  0
 29 56  1  0  0  0  0
 30 57  1  0  0  0  0
M  END
$$$$
