CHEMBL1242557
 OpenBabel04072215363D

 55 58  0  0  0  0  0  0  0  0999 V2000
   10.3703    1.3108    0.2095 C   0  0  0  0  0  0  0  0  0  0  0  0
    9.7225    2.5204   -0.2000 O   0  0  0  0  0  0  0  0  0  0  0  0
    8.8969    3.0913    0.7348 C   0  0  0  0  0  0  0  0  0  0  0  0
    9.1719    2.9759    2.1067 C   0  0  0  0  0  0  0  0  0  0  0  0
    8.3053    3.4421    3.0838 C   0  0  0  0  0  0  0  0  0  0  0  0
    8.6336    3.2184    4.3669 N   0  0  0  0  0  0  0  0  0  0  0  0
    7.7863    3.6378    5.3263 C   0  0  0  0  0  0  0  0  0  0  0  0
    6.5967    4.2790    5.0650 C   0  0  0  0  0  0  0  0  0  0  0  0
    6.2325    4.4630    3.7318 C   0  0  0  0  0  0  0  0  0  0  0  0
    5.0019    5.0128    3.4029 O   0  0  0  0  0  0  0  0  0  0  0  0
    3.8720    4.5639    4.0655 C   0  0  0  0  0  0  0  0  0  0  0  0
    3.7472    3.3002    4.6247 C   0  0  0  0  0  0  0  0  0  0  0  0
    2.5811    2.9436    5.3032 C   0  0  0  0  0  0  0  0  0  0  0  0
    1.4574    3.7841    5.3628 C   0  0  0  0  0  0  0  0  0  0  0  0
    0.2477    3.3457    5.9790 N   0  0  0  0  0  0  0  0  0  0  0  0
   -0.0236    2.0379    6.3560 C   0  0  0  0  0  0  0  0  0  0  0  0
    0.7481    1.0902    6.2469 O   0  0  0  0  0  0  0  0  0  0  0  0
   -1.3239    1.8667    6.8236 N   0  0  0  0  0  0  0  0  0  0  0  0
   -1.7604    0.5566    7.1876 C   0  0  0  0  0  0  0  0  0  0  0  0
   -0.9658   -0.2949    7.9697 C   0  0  0  0  0  0  0  0  0  0  0  0
   -1.3516   -1.6197    8.1882 C   0  0  0  0  0  0  0  0  0  0  0  0
   -2.5242   -2.0890    7.6106 C   0  0  0  0  0  0  0  0  0  0  0  0
   -2.8720   -3.3730    7.7798 F   0  0  0  0  0  0  0  0  0  0  0  0
   -3.3442   -1.2526    6.8677 C   0  0  0  0  0  0  0  0  0  0  0  0
   -2.9681    0.0752    6.6781 C   0  0  0  0  0  0  0  0  0  0  0  0
   -3.7370    0.8788    5.9278 F   0  0  0  0  0  0  0  0  0  0  0  0
    1.5610    5.0555    4.7615 C   0  0  0  0  0  0  0  0  0  0  0  0
    0.4470    6.0680    4.7404 C   0  0  0  0  0  0  0  0  0  0  0  0
    2.7802    5.4333    4.1367 C   0  0  0  0  0  0  0  0  0  0  0  0
    7.1222    4.0932    2.6962 C   0  0  0  0  0  0  0  0  0  0  0  0
    6.9033    4.3199    1.3190 C   0  0  0  0  0  0  0  0  0  0  0  0
    7.7746    3.8238    0.3331 C   0  0  0  0  0  0  0  0  0  0  0  0
    7.3576    4.1441   -0.9295 O   0  0  0  0  0  0  0  0  0  0  0  0
    7.9502    3.5042   -2.0487 C   0  0  0  0  0  0  0  0  0  0  0  0
   10.4854    0.6692   -0.6692 H   0  0  0  0  0  0  0  0  0  0  0  0
    9.7943    0.7383    0.9473 H   0  0  0  0  0  0  0  0  0  0  0  0
   11.3670    1.5399    0.6002 H   0  0  0  0  0  0  0  0  0  0  0  0
   10.0790    2.4883    2.4505 H   0  0  0  0  0  0  0  0  0  0  0  0
    8.0918    3.4164    6.3445 H   0  0  0  0  0  0  0  0  0  0  0  0
    5.9512    4.5800    5.8815 H   0  0  0  0  0  0  0  0  0  0  0  0
    4.5433    2.5636    4.5681 H   0  0  0  0  0  0  0  0  0  0  0  0
    2.6019    1.9733    5.7862 H   0  0  0  0  0  0  0  0  0  0  0  0
   -0.4913    4.0226    6.1020 H   0  0  0  0  0  0  0  0  0  0  0  0
   -2.0228    2.4229    6.3460 H   0  0  0  0  0  0  0  0  0  0  0  0
   -0.0286    0.0567    8.3938 H   0  0  0  0  0  0  0  0  0  0  0  0
   -0.7265   -2.2878    8.7681 H   0  0  0  0  0  0  0  0  0  0  0  0
   -4.2519   -1.6336    6.4127 H   0  0  0  0  0  0  0  0  0  0  0  0
   -0.5414    5.6048    4.7942 H   0  0  0  0  0  0  0  0  0  0  0  0
    0.4651    6.6312    3.7994 H   0  0  0  0  0  0  0  0  0  0  0  0
    0.5594    6.7739    5.5690 H   0  0  0  0  0  0  0  0  0  0  0  0
    2.8719    6.4176    3.6808 H   0  0  0  0  0  0  0  0  0  0  0  0
    6.0266    4.8812    0.9988 H   0  0  0  0  0  0  0  0  0  0  0  0
    7.2832    3.6705   -2.9026 H   0  0  0  0  0  0  0  0  0  0  0  0
    8.0268    2.4210   -1.9188 H   0  0  0  0  0  0  0  0  0  0  0  0
    8.9145    3.9596   -2.2933 H   0  0  0  0  0  0  0  0  0  0  0  0
  1  2  1  0  0  0  0
  1 35  1  0  0  0  0
  1 36  1  0  0  0  0
  1 37  1  0  0  0  0
  2  3  1  0  0  0  0
  3  4  1  0  0  0  0
  3 32  2  0  0  0  0
  4  5  2  0  0  0  0
  4 38  1  0  0  0  0
  5  6  1  0  0  0  0
  5 30  1  0  0  0  0
  6  7  2  0  0  0  0
  7  8  1  0  0  0  0
  7 39  1  0  0  0  0
  8  9  2  0  0  0  0
  8 40  1  0  0  0  0
  9 10  1  0  0  0  0
  9 30  1  0  0  0  0
 10 11  1  0  0  0  0
 11 12  1  0  0  0  0
 11 29  2  0  0  0  0
 12 13  2  0  0  0  0
 12 41  1  0  0  0  0
 13 14  1  0  0  0  0
 13 42  1  0  0  0  0
 14 15  1  0  0  0  0
 14 27  2  0  0  0  0
 15 16  1  0  0  0  0
 15 43  1  0  0  0  0
 16 17  2  0  0  0  0
 16 18  1  0  0  0  0
 18 19  1  0  0  0  0
 18 44  1  0  0  0  0
 19 20  1  0  0  0  0
 19 25  2  0  0  0  0
 20 21  2  0  0  0  0
 20 45  1  0  0  0  0
 21 22  1  0  0  0  0
 21 46  1  0  0  0  0
 22 23  1  0  0  0  0
 22 24  2  0  0  0  0
 24 25  1  0  0  0  0
 24 47  1  0  0  0  0
 25 26  1  0  0  0  0
 27 28  1  0  0  0  0
 27 29  1  0  0  0  0
 28 48  1  0  0  0  0
 28 49  1  0  0  0  0
 28 50  1  0  0  0  0
 29 51  1  0  0  0  0
 30 31  2  0  0  0  0
 31 32  1  0  0  0  0
 31 52  1  0  0  0  0
 32 33  1  0  0  0  0
 33 34  1  0  0  0  0
 34 53  1  0  0  0  0
 34 54  1  0  0  0  0
 34 55  1  0  0  0  0
M  END
$$$$
