CHEMBL3828122
 OpenBabel04072215373D

 64 69  0  0  1  0  0  0  0  0999 V2000
    1.9480   -4.2687   -8.8721 C   0  0  0  0  0  0  0  0  0  0  0  0
    2.2037   -5.7522   -8.5814 C   0  0  3  0  0  0  0  0  0  0  0  0
    1.3627   -6.2193   -7.5144 O   0  0  0  0  0  0  0  0  0  0  0  0
    1.6409   -5.8092   -6.2373 C   0  0  0  0  0  0  0  0  0  0  0  0
    0.5491   -5.8225   -5.3639 C   0  0  0  0  0  0  0  0  0  0  0  0
    0.6698   -5.4433   -4.0196 C   0  0  0  0  0  0  0  0  0  0  0  0
    1.9442   -5.0803   -3.5790 C   0  0  0  0  0  0  0  0  0  0  0  0
    2.4127   -4.6912   -2.3522 N   0  0  0  0  0  0  0  0  0  0  0  0
    3.7430   -4.4833   -2.3047 N   0  0  0  0  0  0  0  0  0  0  0  0
    4.1352   -4.7086   -3.5687 C   0  0  0  0  0  0  0  0  0  0  0  0
    5.5664   -4.6154   -3.9729 C   0  0  0  0  0  0  0  0  0  0  0  0
    6.0383   -4.7408   -5.1978 N   0  0  0  0  0  0  0  0  0  0  0  0
    7.4025   -4.6408   -5.0713 C   0  0  0  0  0  0  0  0  0  0  0  0
    8.4012   -4.7024   -6.0549 C   0  0  0  0  0  0  0  0  0  0  0  0
    9.7618   -4.6107   -5.6991 C   0  0  0  0  0  0  0  0  0  0  0  0
   10.7483   -4.6535   -6.6663 N   0  0  0  0  0  0  0  0  0  0  0  0
   12.0724   -5.2397   -6.4382 C   0  0  0  0  0  0  0  0  0  0  0  0
   13.2182   -4.2249   -6.6969 C   0  0  2  0  0  0  0  0  0  0  0  0
   13.5150   -3.3503   -5.4776 C   0  0  0  0  0  0  0  0  0  0  0  0
   13.0749   -3.4174   -7.9342 N   0  0  0  0  0  0  0  0  0  0  0  0
   11.7000   -2.8914   -8.1345 C   0  0  2  0  0  0  0  0  0  0  0  0
   11.4249   -1.6352   -7.3016 C   0  0  0  0  0  0  0  0  0  0  0  0
   10.5821   -3.9530   -7.9468 C   0  0  0  0  0  0  0  0  0  0  0  0
   10.0682   -4.4698   -4.3334 C   0  0  0  0  0  0  0  0  0  0  0  0
    9.0917   -4.3836   -3.3277 C   0  0  0  0  0  0  0  0  0  0  0  0
    7.7686   -4.4660   -3.7447 C   0  0  0  0  0  0  0  0  0  0  0  0
    6.5785   -4.4129   -3.0716 N   0  0  0  0  0  0  0  0  0  0  0  0
    3.0555   -5.0763   -4.4117 C   0  0  0  0  0  0  0  0  0  0  0  0
    2.9044   -5.4424   -5.7651 C   0  0  0  0  0  0  0  0  0  0  0  0
    1.9695   -6.6488   -9.7927 C   0  0  0  0  0  0  0  0  0  0  0  0
    3.0242   -7.4091  -10.3444 C   0  0  0  0  0  0  0  0  0  0  0  0
    4.6454   -7.3807   -9.7445 Cl  0  0  0  0  0  0  0  0  0  0  0  0
    2.7791   -8.2328  -11.4430 C   0  0  0  0  0  0  0  0  0  0  0  0
    1.5798   -8.3590  -12.0468 N   0  0  0  0  0  0  0  0  0  0  0  0
    0.5766   -7.6301  -11.5128 C   0  0  0  0  0  0  0  0  0  0  0  0
    0.7113   -6.7841  -10.4107 C   0  0  0  0  0  0  0  0  0  0  0  0
   -0.7145   -5.9661   -9.8843 Cl  0  0  0  0  0  0  0  0  0  0  0  0
    2.4510   -3.6481   -8.1215 H   0  0  0  0  0  0  0  0  0  0  0  0
    0.8889   -4.0077   -8.7999 H   0  0  0  0  0  0  0  0  0  0  0  0
    2.3267   -3.9726   -9.8560 H   0  0  0  0  0  0  0  0  0  0  0  0
    3.2478   -5.8475   -8.2877 H   0  0  0  0  0  0  0  0  0  0  0  0
   -0.4245   -6.1328   -5.7397 H   0  0  0  0  0  0  0  0  0  0  0  0
   -0.1893   -5.4530   -3.3571 H   0  0  0  0  0  0  0  0  0  0  0  0
    1.8766   -4.5712   -1.5003 H   0  0  0  0  0  0  0  0  0  0  0  0
    8.0992   -4.8583   -7.0831 H   0  0  0  0  0  0  0  0  0  0  0  0
   12.1840   -6.0670   -7.1521 H   0  0  0  0  0  0  0  0  0  0  0  0
   12.1758   -5.6960   -5.4473 H   0  0  0  0  0  0  0  0  0  0  0  0
   14.1289   -4.8226   -6.8410 H   0  0  0  0  0  0  0  0  0  0  0  0
   12.6488   -2.7835   -5.1342 H   0  0  0  0  0  0  0  0  0  0  0  0
   14.3228   -2.6421   -5.6923 H   0  0  0  0  0  0  0  0  0  0  0  0
   13.8445   -3.9735   -4.6381 H   0  0  0  0  0  0  0  0  0  0  0  0
   13.2545   -4.0511   -8.7149 H   0  0  0  0  0  0  0  0  0  0  0  0
   11.6588   -2.5648   -9.1819 H   0  0  0  0  0  0  0  0  0  0  0  0
   11.1306   -1.8662   -6.2746 H   0  0  0  0  0  0  0  0  0  0  0  0
   10.6004   -1.0658   -7.7447 H   0  0  0  0  0  0  0  0  0  0  0  0
   12.2980   -0.9751   -7.2726 H   0  0  0  0  0  0  0  0  0  0  0  0
   10.6453   -4.6919   -8.7557 H   0  0  0  0  0  0  0  0  0  0  0  0
    9.6080   -3.4596   -8.0434 H   0  0  0  0  0  0  0  0  0  0  0  0
   11.1049   -4.3797   -4.0193 H   0  0  0  0  0  0  0  0  0  0  0  0
    9.3663   -4.2536   -2.2874 H   0  0  0  0  0  0  0  0  0  0  0  0
    6.4369   -4.3003   -2.0788 H   0  0  0  0  0  0  0  0  0  0  0  0
    3.7927   -5.4578   -6.3842 H   0  0  0  0  0  0  0  0  0  0  0  0
    3.5726   -8.8356  -11.8810 H   0  0  0  0  0  0  0  0  0  0  0  0
   -0.3818   -7.7478  -12.0146 H   0  0  0  0  0  0  0  0  0  0  0  0
  1  2  1  0  0  0  0
  1 38  1  0  0  0  0
  1 39  1  0  0  0  0
  1 40  1  0  0  0  0
  2  3  1  0  0  0  0
  2 30  1  0  0  0  0
  2 41  1  0  0  0  0
  3  4  1  0  0  0  0
  4  5  1  0  0  0  0
  4 29  2  0  0  0  0
  5  6  2  0  0  0  0
  5 42  1  0  0  0  0
  6  7  1  0  0  0  0
  6 43  1  0  0  0  0
  7  8  1  0  0  0  0
  7 28  2  0  0  0  0
  8  9  1  0  0  0  0
  8 44  1  0  0  0  0
  9 10  2  0  0  0  0
 10 11  1  0  0  0  0
 10 28  1  0  0  0  0
 11 12  2  0  0  0  0
 11 27  1  0  0  0  0
 12 13  1  0  0  0  0
 13 14  1  0  0  0  0
 13 26  2  0  0  0  0
 14 15  2  0  0  0  0
 14 45  1  0  0  0  0
 15 16  1  0  0  0  0
 15 24  1  0  0  0  0
 16 17  1  0  0  0  0
 16 23  1  0  0  0  0
 17 18  1  0  0  0  0
 17 46  1  0  0  0  0
 17 47  1  0  0  0  0
 18 20  1  0  0  0  0
 18 19  1  0  0  0  0
 18 48  1  6  0  0  0
 19 49  1  0  0  0  0
 19 50  1  0  0  0  0
 19 51  1  0  0  0  0
 20 21  1  0  0  0  0
 20 52  1  0  0  0  0
 21 23  1  0  0  0  0
 21 22  1  0  0  0  0
 21 53  1  6  0  0  0
 22 54  1  0  0  0  0
 22 55  1  0  0  0  0
 22 56  1  0  0  0  0
 23 57  1  0  0  0  0
 23 58  1  0  0  0  0
 24 25  2  0  0  0  0
 24 59  1  0  0  0  0
 25 26  1  0  0  0  0
 25 60  1  0  0  0  0
 26 27  1  0  0  0  0
 27 61  1  0  0  0  0
 28 29  1  0  0  0  0
 29 62  1  0  0  0  0
 30 31  1  0  0  0  0
 30 36  2  0  0  0  0
 31 32  1  0  0  0  0
 31 33  2  0  0  0  0
 33 34  1  0  0  0  0
 33 63  1  0  0  0  0
 34 35  2  0  0  0  0
 35 36  1  0  0  0  0
 35 64  1  0  0  0  0
 36 37  1  0  0  0  0
M  END
$$$$
