CHEMBL333640
 OpenBabel04072215363D

 63 67  0  0  0  0  0  0  0  0999 V2000
    5.9931   -7.7655    2.4219 C   0  0  0  0  0  0  0  0  0  0  0  0
    5.5464   -6.8642    3.4349 O   0  0  0  0  0  0  0  0  0  0  0  0
    5.5709   -5.5233    2.9361 C   0  0  0  0  0  0  0  0  0  0  0  0
    5.1110   -4.5071    3.9969 C   0  0  0  0  0  0  0  0  0  0  0  0
    5.1792   -3.0958    3.5427 N   0  0  0  0  0  0  0  0  0  0  0  0
    4.4261   -2.8374    2.2990 C   0  0  0  0  0  0  0  0  0  0  0  0
    2.8912   -2.9461    2.3078 C   0  0  0  0  0  0  0  0  0  0  0  0
    2.4585   -4.2867    2.5569 O   0  0  0  0  0  0  0  0  0  0  0  0
    1.1013   -4.4283    2.6734 C   0  0  0  0  0  0  0  0  0  0  0  0
    0.1708   -3.6656    1.9645 C   0  0  0  0  0  0  0  0  0  0  0  0
   -1.1947   -3.8740    2.1495 C   0  0  0  0  0  0  0  0  0  0  0  0
   -1.6392   -4.8551    3.0394 C   0  0  0  0  0  0  0  0  0  0  0  0
   -3.0677   -5.0489    3.2372 C   0  0  0  0  0  0  0  0  0  0  0  0
   -3.8245   -4.3086    4.2888 C   0  0  0  0  0  0  0  0  0  0  0  0
   -5.1065   -4.3880    4.5049 N   0  0  0  0  0  0  0  0  0  0  0  0
   -5.8064   -5.2337    3.6861 C   0  0  0  0  0  0  0  0  0  0  0  0
   -7.1476   -5.5507    3.5920 C   0  0  0  0  0  0  0  0  0  0  0  0
   -8.2822   -5.0465    4.3704 C   0  0  0  0  0  0  0  0  0  0  0  0
   -8.1479   -4.0762    5.4139 C   0  0  0  0  0  0  0  0  0  0  0  0
   -9.3561   -3.7487    5.9890 C   0  0  0  0  0  0  0  0  0  0  0  0
  -10.6546   -4.6072    5.2848 S   0  0  0  0  0  0  0  0  0  0  0  0
   -9.6003   -5.4188    4.2063 C   0  0  0  0  0  0  0  0  0  0  0  0
   -7.2235   -6.4925    2.5466 C   0  0  0  0  0  0  0  0  0  0  0  0
   -6.0408   -6.7614    1.9968 N   0  0  0  0  0  0  0  0  0  0  0  0
   -5.1705   -5.9842    2.6850 N   0  0  0  0  0  0  0  0  0  0  0  0
   -3.7990   -5.8727    2.4754 C   0  0  0  0  0  0  0  0  0  0  0  0
   -0.7108   -5.6440    3.7245 C   0  0  0  0  0  0  0  0  0  0  0  0
    0.6567   -5.4335    3.5365 C   0  0  0  0  0  0  0  0  0  0  0  0
    4.8028   -2.1966    4.6474 C   0  0  0  0  0  0  0  0  0  0  0  0
    4.9076   -0.7123    4.3453 C   0  0  0  0  0  0  0  0  0  0  0  0
    3.7659    0.1040    4.3894 C   0  0  0  0  0  0  0  0  0  0  0  0
    3.8714    1.4871    4.2292 C   0  0  0  0  0  0  0  0  0  0  0  0
    5.1186    2.0715    4.0248 C   0  0  0  0  0  0  0  0  0  0  0  0
    6.2558    1.2690    3.9353 C   0  0  0  0  0  0  0  0  0  0  0  0
    6.1501   -0.1168    4.0829 C   0  0  0  0  0  0  0  0  0  0  0  0
    5.8222   -8.7918    2.7555 H   0  0  0  0  0  0  0  0  0  0  0  0
    7.0641   -7.6250    2.2440 H   0  0  0  0  0  0  0  0  0  0  0  0
    5.4414   -7.6093    1.4876 H   0  0  0  0  0  0  0  0  0  0  0  0
    4.9065   -5.4901    2.0683 H   0  0  0  0  0  0  0  0  0  0  0  0
    6.5908   -5.2802    2.6179 H   0  0  0  0  0  0  0  0  0  0  0  0
    5.7638   -4.6325    4.8719 H   0  0  0  0  0  0  0  0  0  0  0  0
    4.1080   -4.7723    4.3537 H   0  0  0  0  0  0  0  0  0  0  0  0
    4.8152   -3.4828    1.5041 H   0  0  0  0  0  0  0  0  0  0  0  0
    4.6802   -1.8287    1.9486 H   0  0  0  0  0  0  0  0  0  0  0  0
    2.5614   -2.6400    1.3090 H   0  0  0  0  0  0  0  0  0  0  0  0
    2.4571   -2.2659    3.0484 H   0  0  0  0  0  0  0  0  0  0  0  0
    0.4770   -2.9117    1.2476 H   0  0  0  0  0  0  0  0  0  0  0  0
   -1.9026   -3.2674    1.5889 H   0  0  0  0  0  0  0  0  0  0  0  0
   -3.2221   -3.6379    4.9249 H   0  0  0  0  0  0  0  0  0  0  0  0
   -7.2144   -3.6288    5.7327 H   0  0  0  0  0  0  0  0  0  0  0  0
   -9.5374   -3.0440    6.7889 H   0  0  0  0  0  0  0  0  0  0  0  0
  -10.0163   -6.1268    3.5043 H   0  0  0  0  0  0  0  0  0  0  0  0
   -8.0975   -6.9976    2.1548 H   0  0  0  0  0  0  0  0  0  0  0  0
   -3.3987   -6.4702    1.6678 H   0  0  0  0  0  0  0  0  0  0  0  0
   -1.0419   -6.4233    4.4075 H   0  0  0  0  0  0  0  0  0  0  0  0
    1.3768   -6.0468    4.0716 H   0  0  0  0  0  0  0  0  0  0  0  0
    5.4751   -2.3772    5.4976 H   0  0  0  0  0  0  0  0  0  0  0  0
    3.7937   -2.4290    5.0109 H   0  0  0  0  0  0  0  0  0  0  0  0
    2.7856   -0.3297    4.5710 H   0  0  0  0  0  0  0  0  0  0  0  0
    2.9830    2.1107    4.2865 H   0  0  0  0  0  0  0  0  0  0  0  0
    5.2068    3.1513    3.9416 H   0  0  0  0  0  0  0  0  0  0  0  0
    7.2284    1.7247    3.7684 H   0  0  0  0  0  0  0  0  0  0  0  0
    7.0442   -0.7329    4.0120 H   0  0  0  0  0  0  0  0  0  0  0  0
  1  2  1  0  0  0  0
  1 36  1  0  0  0  0
  1 37  1  0  0  0  0
  1 38  1  0  0  0  0
  2  3  1  0  0  0  0
  3  4  1  0  0  0  0
  3 39  1  0  0  0  0
  3 40  1  0  0  0  0
  4  5  1  0  0  0  0
  4 41  1  0  0  0  0
  4 42  1  0  0  0  0
  5  6  1  0  0  0  0
  5 29  1  0  0  0  0
  6  7  1  0  0  0  0
  6 43  1  0  0  0  0
  6 44  1  0  0  0  0
  7  8  1  0  0  0  0
  7 45  1  0  0  0  0
  7 46  1  0  0  0  0
  8  9  1  0  0  0  0
  9 10  1  0  0  0  0
  9 28  2  0  0  0  0
 10 11  2  0  0  0  0
 10 47  1  0  0  0  0
 11 12  1  0  0  0  0
 11 48  1  0  0  0  0
 12 13  1  0  0  0  0
 12 27  2  0  0  0  0
 13 14  1  0  0  0  0
 13 26  2  0  0  0  0
 14 15  2  0  0  0  0
 14 49  1  0  0  0  0
 15 16  1  0  0  0  0
 16 17  2  0  0  0  0
 16 25  1  0  0  0  0
 17 18  1  0  0  0  0
 17 23  1  0  0  0  0
 18 19  1  0  0  0  0
 18 22  2  0  0  0  0
 19 20  2  0  0  0  0
 19 50  1  0  0  0  0
 20 21  1  0  0  0  0
 20 51  1  0  0  0  0
 21 22  1  0  0  0  0
 22 52  1  0  0  0  0
 23 24  2  0  0  0  0
 23 53  1  0  0  0  0
 24 25  1  0  0  0  0
 25 26  1  0  0  0  0
 26 54  1  0  0  0  0
 27 28  1  0  0  0  0
 27 55  1  0  0  0  0
 28 56  1  0  0  0  0
 29 30  1  0  0  0  0
 29 57  1  0  0  0  0
 29 58  1  0  0  0  0
 30 31  1  0  0  0  0
 30 35  2  0  0  0  0
 31 32  2  0  0  0  0
 31 59  1  0  0  0  0
 32 33  1  0  0  0  0
 32 60  1  0  0  0  0
 33 34  2  0  0  0  0
 33 61  1  0  0  0  0
 34 35  1  0  0  0  0
 34 62  1  0  0  0  0
 35 63  1  0  0  0  0
M  END
$$$$
