CHEMBL4549295
 OpenBabel04072215383D

 51 54  0  0  0  0  0  0  0  0999 V2000
  -12.9858    2.6591    4.0576 C   0  0  0  0  0  0  0  0  0  0  0  0
  -11.9034    2.9068    3.0493 C   0  0  0  0  0  0  0  0  0  0  0  0
  -11.1362    1.8469    2.5587 C   0  0  0  0  0  0  0  0  0  0  0  0
  -10.1489    2.0697    1.5959 C   0  0  0  0  0  0  0  0  0  0  0  0
   -9.9131    3.3618    1.1063 C   0  0  0  0  0  0  0  0  0  0  0  0
   -8.9406    3.5865    0.0899 N   0  0  0  0  0  0  0  0  0  0  0  0
   -8.2030    2.6367   -0.5825 C   0  0  0  0  0  0  0  0  0  0  0  0
   -7.4602    3.2766   -1.5412 C   0  0  0  0  0  0  0  0  0  0  0  0
   -6.6151    2.7152   -2.4884 N   0  0  0  0  0  0  0  0  0  0  0  0
   -6.3902    1.3532   -2.6255 C   0  0  0  0  0  0  0  0  0  0  0  0
   -6.8673    0.4684   -1.9219 O   0  0  0  0  0  0  0  0  0  0  0  0
   -5.4544    0.9455   -3.7154 C   0  0  0  0  0  0  0  0  0  0  0  0
   -4.7217   -0.2394   -3.5445 C   0  0  0  0  0  0  0  0  0  0  0  0
   -3.8248   -0.6678   -4.5273 C   0  0  0  0  0  0  0  0  0  0  0  0
   -3.6584    0.0846   -5.6875 C   0  0  0  0  0  0  0  0  0  0  0  0
   -2.7043   -0.3122   -6.6506 N   0  0  0  0  0  0  0  0  0  0  0  0
   -3.0545   -1.4736   -7.8046 S   0  0  0  0  0  0  0  0  0  0  0  0
   -1.8560   -1.6207   -8.6036 O   0  0  0  0  0  0  0  0  0  0  0  0
   -3.6790   -2.6129   -7.1678 O   0  0  0  0  0  0  0  0  0  0  0  0
   -4.2754   -0.6773   -8.8304 C   0  0  0  0  0  0  0  0  0  0  0  0
   -3.8600    0.0819   -9.9320 C   0  0  0  0  0  0  0  0  0  0  0  0
   -4.8151    0.6413  -10.7848 C   0  0  0  0  0  0  0  0  0  0  0  0
   -6.1726    0.4324  -10.5385 C   0  0  0  0  0  0  0  0  0  0  0  0
   -7.3449    1.1035  -11.6038 Cl  0  0  0  0  0  0  0  0  0  0  0  0
   -6.5862   -0.3272   -9.4428 C   0  0  0  0  0  0  0  0  0  0  0  0
   -5.6361   -0.8911   -8.5869 C   0  0  0  0  0  0  0  0  0  0  0  0
   -4.3965    1.2511   -5.8795 C   0  0  0  0  0  0  0  0  0  0  0  0
   -5.3056    1.6752   -4.9021 C   0  0  0  0  0  0  0  0  0  0  0  0
   -7.7625    4.6380   -1.3416 C   0  0  0  0  0  0  0  0  0  0  0  0
   -8.6543    4.8375   -0.3670 N   0  0  0  0  0  0  0  0  0  0  0  0
  -10.6689    4.4309    1.6079 C   0  0  0  0  0  0  0  0  0  0  0  0
  -11.6620    4.2001    2.5699 C   0  0  0  0  0  0  0  0  0  0  0  0
  -12.9888    1.6157    4.3917 H   0  0  0  0  0  0  0  0  0  0  0  0
  -13.9656    2.8738    3.6194 H   0  0  0  0  0  0  0  0  0  0  0  0
  -12.8361    3.2888    4.9399 H   0  0  0  0  0  0  0  0  0  0  0  0
  -11.3031    0.8333    2.9169 H   0  0  0  0  0  0  0  0  0  0  0  0
   -9.5849    1.2080    1.2529 H   0  0  0  0  0  0  0  0  0  0  0  0
   -8.2866    1.5881   -0.3485 H   0  0  0  0  0  0  0  0  0  0  0  0
   -6.1241    3.3666   -3.0845 H   0  0  0  0  0  0  0  0  0  0  0  0
   -4.8422   -0.8314   -2.6376 H   0  0  0  0  0  0  0  0  0  0  0  0
   -3.2550   -1.5817   -4.3719 H   0  0  0  0  0  0  0  0  0  0  0  0
   -1.8758    0.2532   -6.8185 H   0  0  0  0  0  0  0  0  0  0  0  0
   -2.8025    0.2236  -10.1460 H   0  0  0  0  0  0  0  0  0  0  0  0
   -4.4963    1.2203  -11.6486 H   0  0  0  0  0  0  0  0  0  0  0  0
   -7.6447   -0.4983   -9.2615 H   0  0  0  0  0  0  0  0  0  0  0  0
   -5.9619   -1.5024   -7.7474 H   0  0  0  0  0  0  0  0  0  0  0  0
   -4.2820    1.8306   -6.7915 H   0  0  0  0  0  0  0  0  0  0  0  0
   -5.9014    2.5618   -5.0985 H   0  0  0  0  0  0  0  0  0  0  0  0
   -7.3817    5.5001   -1.8734 H   0  0  0  0  0  0  0  0  0  0  0  0
  -10.5120    5.4455    1.2470 H   0  0  0  0  0  0  0  0  0  0  0  0
  -12.2532    5.0375    2.9326 H   0  0  0  0  0  0  0  0  0  0  0  0
  1  2  1  0  0  0  0
  1 33  1  0  0  0  0
  1 34  1  0  0  0  0
  1 35  1  0  0  0  0
  2  3  1  0  0  0  0
  2 32  2  0  0  0  0
  3  4  2  0  0  0  0
  3 36  1  0  0  0  0
  4  5  1  0  0  0  0
  4 37  1  0  0  0  0
  5  6  1  0  0  0  0
  5 31  2  0  0  0  0
  6  7  1  0  0  0  0
  6 30  1  0  0  0  0
  7  8  2  0  0  0  0
  7 38  1  0  0  0  0
  8  9  1  0  0  0  0
  8 29  1  0  0  0  0
  9 10  1  0  0  0  0
  9 39  1  0  0  0  0
 10 11  2  0  0  0  0
 10 12  1  0  0  0  0
 12 13  1  0  0  0  0
 12 28  2  0  0  0  0
 13 14  2  0  0  0  0
 13 40  1  0  0  0  0
 14 15  1  0  0  0  0
 14 41  1  0  0  0  0
 15 16  1  0  0  0  0
 15 27  2  0  0  0  0
 16 17  1  0  0  0  0
 16 42  1  0  0  0  0
 17 18  2  0  0  0  0
 17 19  2  0  0  0  0
 17 20  1  0  0  0  0
 20 21  1  0  0  0  0
 20 26  2  0  0  0  0
 21 22  2  0  0  0  0
 21 43  1  0  0  0  0
 22 23  1  0  0  0  0
 22 44  1  0  0  0  0
 23 24  1  0  0  0  0
 23 25  2  0  0  0  0
 25 26  1  0  0  0  0
 25 45  1  0  0  0  0
 26 46  1  0  0  0  0
 27 28  1  0  0  0  0
 27 47  1  0  0  0  0
 28 48  1  0  0  0  0
 29 30  2  0  0  0  0
 29 49  1  0  0  0  0
 31 32  1  0  0  0  0
 31 50  1  0  0  0  0
 32 51  1  0  0  0  0
M  END
$$$$
