CHEMBL2088103
 OpenBabel04072215363D

 37 39  0  0  0  0  0  0  0  0999 V2000
    5.9258   -0.0571   -3.0484 C   0  0  0  0  0  0  0  0  0  0  0  0
    4.9389    0.1690   -1.9738 C   0  0  0  0  0  0  0  0  0  0  0  0
    4.1504    1.2568   -1.6814 C   0  0  0  0  0  0  0  0  0  0  0  0
    3.3964    0.8945   -0.5431 C   0  0  0  0  0  0  0  0  0  0  0  0
    2.5099    1.6716    0.1174 N   0  0  0  0  0  0  0  0  0  0  0  0
    2.3449    3.0720    0.0710 C   0  0  0  0  0  0  0  0  0  0  0  0
    2.8688    3.7658   -0.9596 N   0  0  0  0  0  0  0  0  0  0  0  0
    2.9076    5.0959   -0.9004 C   0  0  0  0  0  0  0  0  0  0  0  0
    3.6158    5.7158   -1.9192 N   0  0  0  0  0  0  0  0  0  0  0  0
    4.0130    7.0938   -1.6819 C   0  0  0  0  0  0  0  0  0  0  0  0
    4.6957    7.6725   -2.9232 C   0  0  0  0  0  0  0  0  0  0  0  0
    5.2329    9.0310   -2.6566 C   0  0  0  0  0  0  0  0  0  0  0  0
    6.4536    9.5002   -2.2188 C   0  0  0  0  0  0  0  0  0  0  0  0
    6.3372   10.9095   -2.1540 C   0  0  0  0  0  0  0  0  0  0  0  0
    5.0568   11.2073   -2.5568 C   0  0  0  0  0  0  0  0  0  0  0  0
    4.3781   10.0719   -2.8629 O   0  0  0  0  0  0  0  0  0  0  0  0
    2.3411    5.8073    0.0803 N   0  0  0  0  0  0  0  0  0  0  0  0
    1.7335    5.1064    1.0598 C   0  0  0  0  0  0  0  0  0  0  0  0
    1.7261    3.7285    1.1217 C   0  0  0  0  0  0  0  0  0  0  0  0
    0.9728    2.8556    2.6128 Br  0  0  0  0  0  0  0  0  0  0  0  0
    3.6856   -0.3529   -0.1564 N   0  0  0  0  0  0  0  0  0  0  0  0
    4.6375   -0.7548   -1.0156 N   0  0  0  0  0  0  0  0  0  0  0  0
    5.9534    0.7979   -3.7329 H   0  0  0  0  0  0  0  0  0  0  0  0
    5.6633   -0.9447   -3.6320 H   0  0  0  0  0  0  0  0  0  0  0  0
    6.9303   -0.1905   -2.6355 H   0  0  0  0  0  0  0  0  0  0  0  0
    4.1336    2.1874   -2.2277 H   0  0  0  0  0  0  0  0  0  0  0  0
    2.0723    1.2365    0.9208 H   0  0  0  0  0  0  0  0  0  0  0  0
    3.1403    5.5172   -2.7918 H   0  0  0  0  0  0  0  0  0  0  0  0
    4.7239    7.1094   -0.8441 H   0  0  0  0  0  0  0  0  0  0  0  0
    3.1567    7.7228   -1.4063 H   0  0  0  0  0  0  0  0  0  0  0  0
    3.9791    7.7124   -3.7531 H   0  0  0  0  0  0  0  0  0  0  0  0
    5.5105    7.0147   -3.2503 H   0  0  0  0  0  0  0  0  0  0  0  0
    7.3186    8.8995   -1.9730 H   0  0  0  0  0  0  0  0  0  0  0  0
    7.0917   11.6220   -1.8513 H   0  0  0  0  0  0  0  0  0  0  0  0
    4.5023   12.1281   -2.6732 H   0  0  0  0  0  0  0  0  0  0  0  0
    1.2626    5.7152    1.8254 H   0  0  0  0  0  0  0  0  0  0  0  0
    5.0368   -1.6786   -0.8895 H   0  0  0  0  0  0  0  0  0  0  0  0
  1  2  1  0  0  0  0
  1 23  1  0  0  0  0
  1 24  1  0  0  0  0
  1 25  1  0  0  0  0
  2  3  2  0  0  0  0
  2 22  1  0  0  0  0
  3  4  1  0  0  0  0
  3 26  1  0  0  0  0
  4  5  1  0  0  0  0
  4 21  2  0  0  0  0
  5  6  1  0  0  0  0
  5 27  1  0  0  0  0
  6  7  1  0  0  0  0
  6 19  2  0  0  0  0
  7  8  2  0  0  0  0
  8  9  1  0  0  0  0
  8 17  1  0  0  0  0
  9 10  1  0  0  0  0
  9 28  1  0  0  0  0
 10 11  1  0  0  0  0
 10 29  1  0  0  0  0
 10 30  1  0  0  0  0
 11 12  1  0  0  0  0
 11 31  1  0  0  0  0
 11 32  1  0  0  0  0
 12 13  2  0  0  0  0
 12 16  1  0  0  0  0
 13 14  1  0  0  0  0
 13 33  1  0  0  0  0
 14 15  2  0  0  0  0
 14 34  1  0  0  0  0
 15 16  1  0  0  0  0
 15 35  1  0  0  0  0
 17 18  2  0  0  0  0
 18 19  1  0  0  0  0
 18 36  1  0  0  0  0
 19 20  1  0  0  0  0
 21 22  1  0  0  0  0
 22 37  1  0  0  0  0
M  END
$$$$
