CHEMBL1934326
 OpenBabel04072215363D

 69 73  0  0  0  0  0  0  0  0999 V2000
    7.4368   -3.8457   -1.1395 C   0  0  0  0  0  0  0  0  0  0  0  0
    6.3536   -3.1804   -0.4113 N   0  0  0  0  0  0  0  0  0  0  0  0
    5.9574   -1.9504   -1.1106 C   0  0  0  0  0  0  0  0  0  0  0  0
    4.8041   -1.2415   -0.3978 C   0  0  0  0  0  0  0  0  0  0  0  0
    3.5903   -2.1617   -0.2164 C   0  0  0  0  0  0  0  0  0  0  0  0
    2.9171   -2.5144   -1.5498 C   0  0  0  0  0  0  0  0  0  0  0  0
    2.5310   -1.3290   -2.2565 O   0  0  0  0  0  0  0  0  0  0  0  0
    2.4765   -1.4887   -3.6173 C   0  0  0  0  0  0  0  0  0  0  0  0
    2.6559   -0.3441   -4.3832 C   0  0  0  0  0  0  0  0  0  0  0  0
    2.7022   -0.4453   -5.7740 C   0  0  0  0  0  0  0  0  0  0  0  0
    2.5916   -1.7093   -6.4111 C   0  0  0  0  0  0  0  0  0  0  0  0
    2.6916   -1.9520   -7.7929 C   0  0  0  0  0  0  0  0  0  0  0  0
    2.8347   -0.8599   -8.6972 N   0  0  0  0  0  0  0  0  0  0  0  0
    2.7561   -0.9148  -10.1081 C   0  0  0  0  0  0  0  0  0  0  0  0
    2.0052   -1.8890  -10.7618 C   0  0  0  0  0  0  0  0  0  0  0  0
    1.9541   -1.9678  -12.1502 C   0  0  0  0  0  0  0  0  0  0  0  0
    2.6029   -1.0313  -12.9479 C   0  0  0  0  0  0  0  0  0  0  0  0
    2.6211   -1.1150  -14.3623 N   0  0  0  0  0  0  0  0  0  0  0  0
    1.9568   -2.0734  -15.1136 C   0  0  0  0  0  0  0  0  0  0  0  0
    1.1667   -2.9033  -14.6781 O   0  0  0  0  0  0  0  0  0  0  0  0
    2.3325   -2.0398  -16.4500 N   0  0  0  0  0  0  0  0  0  0  0  0
    1.7878   -2.9708  -17.3654 C   0  0  0  0  0  0  0  0  0  0  0  0
    2.6429   -3.6200  -18.2497 C   0  0  0  0  0  0  0  0  0  0  0  0
    2.1377   -4.6042  -19.1023 C   0  0  0  0  0  0  0  0  0  0  0  0
    0.7710   -4.9198  -19.1111 C   0  0  0  0  0  0  0  0  0  0  0  0
    0.2781   -6.1421  -20.2256 Cl  0  0  0  0  0  0  0  0  0  0  0  0
   -0.1111   -4.2609  -18.2514 C   0  0  0  0  0  0  0  0  0  0  0  0
   -1.5933   -4.5259  -18.1692 C   0  0  0  0  0  0  0  0  0  0  0  0
   -2.0899   -5.4583  -19.0238 F   0  0  0  0  0  0  0  0  0  0  0  0
   -1.9750   -4.9385  -16.9263 F   0  0  0  0  0  0  0  0  0  0  0  0
   -2.3201   -3.3959  -18.4139 F   0  0  0  0  0  0  0  0  0  0  0  0
    0.4216   -3.2840  -17.3827 C   0  0  0  0  0  0  0  0  0  0  0  0
    3.2903    0.0084  -12.3105 C   0  0  0  0  0  0  0  0  0  0  0  0
    3.3593    0.0683  -10.9041 C   0  0  0  0  0  0  0  0  0  0  0  0
    2.6092   -3.2038   -8.2868 N   0  0  0  0  0  0  0  0  0  0  0  0
    2.3805   -4.2017   -7.4347 C   0  0  0  0  0  0  0  0  0  0  0  0
    2.2472   -4.0814   -6.1167 N   0  0  0  0  0  0  0  0  0  0  0  0
    2.3633   -2.8485   -5.6247 C   0  0  0  0  0  0  0  0  0  0  0  0
    2.2746   -2.7145   -4.2525 C   0  0  0  0  0  0  0  0  0  0  0  0
    4.0473   -3.4403    0.5005 C   0  0  0  0  0  0  0  0  0  0  0  0
    5.2341   -4.1090   -0.2060 C   0  0  0  0  0  0  0  0  0  0  0  0
    8.2982   -3.1772   -1.2465 H   0  0  0  0  0  0  0  0  0  0  0  0
    7.1240   -4.1646   -2.1411 H   0  0  0  0  0  0  0  0  0  0  0  0
    7.7866   -4.7274   -0.5918 H   0  0  0  0  0  0  0  0  0  0  0  0
    5.6837   -2.1585   -2.1526 H   0  0  0  0  0  0  0  0  0  0  0  0
    6.8096   -1.2603   -1.1404 H   0  0  0  0  0  0  0  0  0  0  0  0
    4.5276   -0.3366   -0.9519 H   0  0  0  0  0  0  0  0  0  0  0  0
    5.1457   -0.9048    0.5899 H   0  0  0  0  0  0  0  0  0  0  0  0
    2.8546   -1.6355    0.4050 H   0  0  0  0  0  0  0  0  0  0  0  0
    2.0190   -3.1151   -1.3615 H   0  0  0  0  0  0  0  0  0  0  0  0
    3.6130   -3.1097   -2.1505 H   0  0  0  0  0  0  0  0  0  0  0  0
    2.7835    0.6213   -3.8996 H   0  0  0  0  0  0  0  0  0  0  0  0
    2.8480    0.4606   -6.3552 H   0  0  0  0  0  0  0  0  0  0  0  0
    3.5372   -0.2101   -8.3715 H   0  0  0  0  0  0  0  0  0  0  0  0
    1.4468   -2.6370  -10.2075 H   0  0  0  0  0  0  0  0  0  0  0  0
    1.3925   -2.7996  -12.5540 H   0  0  0  0  0  0  0  0  0  0  0  0
    3.0907   -0.3791  -14.8626 H   0  0  0  0  0  0  0  0  0  0  0  0
    3.2919   -1.7646  -16.6042 H   0  0  0  0  0  0  0  0  0  0  0  0
    3.7114   -3.4248  -18.2422 H   0  0  0  0  0  0  0  0  0  0  0  0
    2.8251   -5.1416  -19.7526 H   0  0  0  0  0  0  0  0  0  0  0  0
   -0.2559   -2.7711  -16.6949 H   0  0  0  0  0  0  0  0  0  0  0  0
    3.7930    0.7808  -12.8861 H   0  0  0  0  0  0  0  0  0  0  0  0
    3.9055    0.8856  -10.4413 H   0  0  0  0  0  0  0  0  0  0  0  0
    2.2877   -5.1978   -7.8526 H   0  0  0  0  0  0  0  0  0  0  0  0
    2.0648   -3.6145   -3.6817 H   0  0  0  0  0  0  0  0  0  0  0  0
    3.2173   -4.1520    0.5741 H   0  0  0  0  0  0  0  0  0  0  0  0
    4.3379   -3.1890    1.5295 H   0  0  0  0  0  0  0  0  0  0  0  0
    4.9072   -4.5473   -1.1595 H   0  0  0  0  0  0  0  0  0  0  0  0
    5.5699   -4.9461    0.4205 H   0  0  0  0  0  0  0  0  0  0  0  0
  1  2  1  0  0  0  0
  1 42  1  0  0  0  0
  1 43  1  0  0  0  0
  1 44  1  0  0  0  0
  2  3  1  0  0  0  0
  2 41  1  0  0  0  0
  3  4  1  0  0  0  0
  3 45  1  0  0  0  0
  3 46  1  0  0  0  0
  4  5  1  0  0  0  0
  4 47  1  0  0  0  0
  4 48  1  0  0  0  0
  5  6  1  0  0  0  0
  5 40  1  0  0  0  0
  5 49  1  0  0  0  0
  6  7  1  0  0  0  0
  6 50  1  0  0  0  0
  6 51  1  0  0  0  0
  7  8  1  0  0  0  0
  8  9  1  0  0  0  0
  8 39  2  0  0  0  0
  9 10  2  0  0  0  0
  9 52  1  0  0  0  0
 10 11  1  0  0  0  0
 10 53  1  0  0  0  0
 11 12  1  0  0  0  0
 11 38  2  0  0  0  0
 12 13  1  0  0  0  0
 12 35  2  0  0  0  0
 13 14  1  0  0  0  0
 13 54  1  0  0  0  0
 14 15  1  0  0  0  0
 14 34  2  0  0  0  0
 15 16  2  0  0  0  0
 15 55  1  0  0  0  0
 16 17  1  0  0  0  0
 16 56  1  0  0  0  0
 17 18  1  0  0  0  0
 17 33  2  0  0  0  0
 18 19  1  0  0  0  0
 18 57  1  0  0  0  0
 19 20  2  0  0  0  0
 19 21  1  0  0  0  0
 21 22  1  0  0  0  0
 21 58  1  0  0  0  0
 22 23  1  0  0  0  0
 22 32  2  0  0  0  0
 23 24  2  0  0  0  0
 23 59  1  0  0  0  0
 24 25  1  0  0  0  0
 24 60  1  0  0  0  0
 25 26  1  0  0  0  0
 25 27  2  0  0  0  0
 27 28  1  0  0  0  0
 27 32  1  0  0  0  0
 28 29  1  0  0  0  0
 28 30  1  0  0  0  0
 28 31  1  0  0  0  0
 32 61  1  0  0  0  0
 33 34  1  0  0  0  0
 33 62  1  0  0  0  0
 34 63  1  0  0  0  0
 35 36  1  0  0  0  0
 36 37  2  0  0  0  0
 36 64  1  0  0  0  0
 37 38  1  0  0  0  0
 38 39  1  0  0  0  0
 39 65  1  0  0  0  0
 40 41  1  0  0  0  0
 40 66  1  0  0  0  0
 40 67  1  0  0  0  0
 41 68  1  0  0  0  0
 41 69  1  0  0  0  0
M  END
$$$$
