CHEMBL325003
 OpenBabel04072215363D

 48 52  0  0  1  0  0  0  0  0999 V2000
    1.0697   -0.0886    0.3398 O   0  0  0  0  0  0  0  0  0  0  0  0
    2.2497   -0.0092    0.0084 C   0  0  0  0  0  0  0  0  0  0  0  0
    2.8572   -0.9184   -0.8356 N   0  0  0  0  0  0  0  0  0  0  0  0
    2.0980   -2.0460   -1.3600 C   0  0  3  0  0  0  0  0  0  0  0  0
    2.0860   -3.2189   -0.3875 C   0  0  0  0  0  0  0  0  0  0  0  0
    3.1784   -4.1268   -0.9150 C   0  0  0  0  0  0  0  0  0  0  0  0
    3.0599   -4.0308   -2.3737 N   0  0  0  0  0  0  0  0  0  0  0  0
    2.7055   -2.6257   -2.6459 C   0  0  0  0  0  0  0  0  0  0  0  0
    3.0874    1.0977    0.5298 C   0  0  0  0  0  0  0  0  0  0  0  0
    2.7498    1.6651    1.7651 C   0  0  0  0  0  0  0  0  0  0  0  0
    3.4614    2.7516    2.2872 C   0  0  0  0  0  0  0  0  0  0  0  0
    4.5085    3.2601    1.5133 C   0  0  0  0  0  0  0  0  0  0  0  0
    5.3683    4.3080    1.7520 N   0  0  0  0  0  0  0  0  0  0  0  0
    6.2654    4.4585    0.7146 C   0  0  0  0  0  0  0  0  0  0  0  0
    7.3652    5.4294    0.7273 C   0  0  0  0  0  0  0  0  0  0  0  0
    8.2038    5.5434   -0.3830 C   0  0  0  0  0  0  0  0  0  0  0  0
    9.3505    6.3404   -0.3333 C   0  0  0  0  0  0  0  0  0  0  0  0
   10.2394    6.3936   -1.4183 C   0  0  0  0  0  0  0  0  0  0  0  0
   11.4119    7.1341   -1.3271 C   0  0  0  0  0  0  0  0  0  0  0  0
   11.6891    7.8352   -0.1582 C   0  0  0  0  0  0  0  0  0  0  0  0
   10.7860    7.7997    0.9109 C   0  0  0  0  0  0  0  0  0  0  0  0
    9.6131    7.0581    0.8509 C   0  0  0  0  0  0  0  0  0  0  0  0
    8.7851    7.0228    1.9121 N   0  0  0  0  0  0  0  0  0  0  0  0
    7.7079    6.2186    1.8209 C   0  0  0  0  0  0  0  0  0  0  0  0
    6.9711    6.2226    2.9663 O   0  0  0  0  0  0  0  0  0  0  0  0
    5.9369    3.4925   -0.2203 C   0  0  0  0  0  0  0  0  0  0  0  0
    4.8555    2.7243    0.2761 C   0  0  0  0  0  0  0  0  0  0  0  0
    4.1431    1.6205   -0.2271 C   0  0  0  0  0  0  0  0  0  0  0  0
    3.8693   -0.9690   -0.8511 H   0  0  0  0  0  0  0  0  0  0  0  0
    1.0720   -1.7065   -1.5443 H   0  0  0  0  0  0  0  0  0  0  0  0
    1.1185   -3.7331   -0.4475 H   0  0  0  0  0  0  0  0  0  0  0  0
    2.2552   -2.9333    0.6554 H   0  0  0  0  0  0  0  0  0  0  0  0
    3.0563   -5.1586   -0.5717 H   0  0  0  0  0  0  0  0  0  0  0  0
    4.1686   -3.7776   -0.6015 H   0  0  0  0  0  0  0  0  0  0  0  0
    2.2766   -4.6177   -2.6674 H   0  0  0  0  0  0  0  0  0  0  0  0
    1.9785   -2.5879   -3.4650 H   0  0  0  0  0  0  0  0  0  0  0  0
    3.5948   -2.0750   -2.9713 H   0  0  0  0  0  0  0  0  0  0  0  0
    1.9119    1.2611    2.3313 H   0  0  0  0  0  0  0  0  0  0  0  0
    3.1951    3.1853    3.2454 H   0  0  0  0  0  0  0  0  0  0  0  0
    5.3745    4.8789    2.5887 H   0  0  0  0  0  0  0  0  0  0  0  0
    7.9941    4.9781   -1.2862 H   0  0  0  0  0  0  0  0  0  0  0  0
   10.0319    5.8395   -2.3322 H   0  0  0  0  0  0  0  0  0  0  0  0
   12.1116    7.1541   -2.1577 H   0  0  0  0  0  0  0  0  0  0  0  0
   12.6100    8.4039   -0.0700 H   0  0  0  0  0  0  0  0  0  0  0  0
   11.0139    8.3498    1.8184 H   0  0  0  0  0  0  0  0  0  0  0  0
    7.5108    6.8413    3.4942 H   0  0  0  0  0  0  0  0  0  0  0  0
    6.4426    3.3200   -1.1608 H   0  0  0  0  0  0  0  0  0  0  0  0
    4.3965    1.2234   -1.2039 H   0  0  0  0  0  0  0  0  0  0  0  0
  1  2  2  0  0  0  0
  2  3  1  0  0  0  0
  2  9  1  0  0  0  0
  3  4  1  0  0  0  0
  3 29  1  0  0  0  0
  4  5  1  0  0  0  0
  4  8  1  0  0  0  0
  4 30  1  0  0  0  0
  5  6  1  0  0  0  0
  5 31  1  0  0  0  0
  5 32  1  0  0  0  0
  6  7  1  0  0  0  0
  6 33  1  0  0  0  0
  6 34  1  0  0  0  0
  7  8  1  0  0  0  0
  7 35  1  0  0  0  0
  8 36  1  0  0  0  0
  8 37  1  0  0  0  0
  9 10  1  0  0  0  0
  9 28  2  0  0  0  0
 10 11  2  0  0  0  0
 10 38  1  0  0  0  0
 11 12  1  0  0  0  0
 11 39  1  0  0  0  0
 12 13  1  0  0  0  0
 12 27  2  0  0  0  0
 13 14  1  0  0  0  0
 13 40  1  0  0  0  0
 14 15  1  0  0  0  0
 14 26  2  0  0  0  0
 15 16  1  0  0  0  0
 15 24  2  0  0  0  0
 16 17  2  0  0  0  0
 16 41  1  0  0  0  0
 17 18  1  0  0  0  0
 17 22  1  0  0  0  0
 18 19  2  0  0  0  0
 18 42  1  0  0  0  0
 19 20  1  0  0  0  0
 19 43  1  0  0  0  0
 20 21  2  0  0  0  0
 20 44  1  0  0  0  0
 21 22  1  0  0  0  0
 21 45  1  0  0  0  0
 22 23  2  0  0  0  0
 23 24  1  0  0  0  0
 24 25  1  0  0  0  0
 25 46  1  0  0  0  0
 26 27  1  0  0  0  0
 26 47  1  0  0  0  0
 27 28  1  0  0  0  0
 28 48  1  0  0  0  0
M  END
$$$$
