CHEMBL243915
 OpenBabel04072215363D

 53 56  0  0  0  0  0  0  0  0999 V2000
    1.7782    2.4311   -1.2730 C   0  0  0  0  0  0  0  0  0  0  0  0
    1.7855    2.1436    0.1283 O   0  0  0  0  0  0  0  0  0  0  0  0
    2.9759    2.4441    0.7272 C   0  0  0  0  0  0  0  0  0  0  0  0
    3.9252    2.9100    0.1145 O   0  0  0  0  0  0  0  0  0  0  0  0
    2.8912    2.1220    2.0542 N   0  0  0  0  0  0  0  0  0  0  0  0
    3.9176    2.2953    2.9474 C   0  0  0  0  0  0  0  0  0  0  0  0
    3.9109    1.9226    4.2729 C   0  0  0  0  0  0  0  0  0  0  0  0
    5.1643    2.2512    4.7496 N   0  0  0  0  0  0  0  0  0  0  0  0
    5.7259    2.0671    6.0096 C   0  0  0  0  0  0  0  0  0  0  0  0
    6.9933    2.4717    6.2373 C   0  0  0  0  0  0  0  0  0  0  0  0
    7.6008    2.2572    7.4730 O   0  0  0  0  0  0  0  0  0  0  0  0
    8.5352    3.1389    7.9674 C   0  0  0  0  0  0  0  0  0  0  0  0
    8.5018    4.5033    7.7128 C   0  0  0  0  0  0  0  0  0  0  0  0
    9.5234    5.3267    8.1821 C   0  0  0  0  0  0  0  0  0  0  0  0
   10.5693    4.8260    8.9616 C   0  0  0  0  0  0  0  0  0  0  0  0
   11.6528    5.6290    9.4040 N   0  0  0  0  0  0  0  0  0  0  0  0
   11.7963    6.9801    9.1569 C   0  0  0  0  0  0  0  0  0  0  0  0
   10.9633    7.6865    8.5983 O   0  0  0  0  0  0  0  0  0  0  0  0
   13.0238    7.4830    9.5694 N   0  0  0  0  0  0  0  0  0  0  0  0
   13.2777    8.8672    9.3580 C   0  0  0  0  0  0  0  0  0  0  0  0
   12.3380    9.8375    9.7334 C   0  0  0  0  0  0  0  0  0  0  0  0
   12.5175   11.1867    9.3923 C   0  0  0  0  0  0  0  0  0  0  0  0
   11.4875   12.2224    9.7762 C   0  0  0  0  0  0  0  0  0  0  0  0
   10.4403   11.7212   10.4883 F   0  0  0  0  0  0  0  0  0  0  0  0
   12.0196   13.2103   10.5495 F   0  0  0  0  0  0  0  0  0  0  0  0
   10.9432   12.8479    8.6965 F   0  0  0  0  0  0  0  0  0  0  0  0
   13.6640   11.5532    8.6685 C   0  0  0  0  0  0  0  0  0  0  0  0
   14.6227   10.5947    8.3243 C   0  0  0  0  0  0  0  0  0  0  0  0
   14.4343    9.2638    8.6891 C   0  0  0  0  0  0  0  0  0  0  0  0
   15.3383    8.3450    8.3168 F   0  0  0  0  0  0  0  0  0  0  0  0
   10.5460    3.4676    9.3002 C   0  0  0  0  0  0  0  0  0  0  0  0
    9.5334    2.6287    8.8017 C   0  0  0  0  0  0  0  0  0  0  0  0
    7.7471    3.0529    5.1204 C   0  0  0  0  0  0  0  0  0  0  0  0
    7.1810    3.2525    3.9150 C   0  0  0  0  0  0  0  0  0  0  0  0
    5.8435    2.8353    3.6890 C   0  0  0  0  0  0  0  0  0  0  0  0
    5.1067    2.8683    2.6056 N   0  0  0  0  0  0  0  0  0  0  0  0
    0.7596    2.2985   -1.6458 H   0  0  0  0  0  0  0  0  0  0  0  0
    2.4368    1.7348   -1.8026 H   0  0  0  0  0  0  0  0  0  0  0  0
    2.0790    3.4669   -1.4659 H   0  0  0  0  0  0  0  0  0  0  0  0
    2.0297    1.7098    2.3689 H   0  0  0  0  0  0  0  0  0  0  0  0
    3.1707    1.4533    4.9032 H   0  0  0  0  0  0  0  0  0  0  0  0
    5.1151    1.6018    6.7719 H   0  0  0  0  0  0  0  0  0  0  0  0
    7.7095    4.9540    7.1229 H   0  0  0  0  0  0  0  0  0  0  0  0
    9.4613    6.3689    7.8896 H   0  0  0  0  0  0  0  0  0  0  0  0
   12.3502    5.1895    9.9902 H   0  0  0  0  0  0  0  0  0  0  0  0
   13.8098    6.8731    9.3779 H   0  0  0  0  0  0  0  0  0  0  0  0
   11.4359    9.5360   10.2663 H   0  0  0  0  0  0  0  0  0  0  0  0
   13.8065   12.5894    8.3631 H   0  0  0  0  0  0  0  0  0  0  0  0
   15.5000   10.8748    7.7492 H   0  0  0  0  0  0  0  0  0  0  0  0
   11.3130    3.0365    9.9379 H   0  0  0  0  0  0  0  0  0  0  0  0
    9.5345    1.5720    9.0575 H   0  0  0  0  0  0  0  0  0  0  0  0
    8.7822    3.3429    5.2669 H   0  0  0  0  0  0  0  0  0  0  0  0
    7.7226    3.7074    3.0925 H   0  0  0  0  0  0  0  0  0  0  0  0
  1  2  1  0  0  0  0
  1 37  1  0  0  0  0
  1 38  1  0  0  0  0
  1 39  1  0  0  0  0
  2  3  1  0  0  0  0
  3  4  2  0  0  0  0
  3  5  1  0  0  0  0
  5  6  1  0  0  0  0
  5 40  1  0  0  0  0
  6  7  2  0  0  0  0
  6 36  1  0  0  0  0
  7  8  1  0  0  0  0
  7 41  1  0  0  0  0
  8  9  1  0  0  0  0
  8 35  1  0  0  0  0
  9 10  2  0  0  0  0
  9 42  1  0  0  0  0
 10 11  1  0  0  0  0
 10 33  1  0  0  0  0
 11 12  1  0  0  0  0
 12 13  1  0  0  0  0
 12 32  2  0  0  0  0
 13 14  2  0  0  0  0
 13 43  1  0  0  0  0
 14 15  1  0  0  0  0
 14 44  1  0  0  0  0
 15 16  1  0  0  0  0
 15 31  2  0  0  0  0
 16 17  1  0  0  0  0
 16 45  1  0  0  0  0
 17 18  2  0  0  0  0
 17 19  1  0  0  0  0
 19 20  1  0  0  0  0
 19 46  1  0  0  0  0
 20 21  1  0  0  0  0
 20 29  2  0  0  0  0
 21 22  2  0  0  0  0
 21 47  1  0  0  0  0
 22 23  1  0  0  0  0
 22 27  1  0  0  0  0
 23 24  1  0  0  0  0
 23 25  1  0  0  0  0
 23 26  1  0  0  0  0
 27 28  2  0  0  0  0
 27 48  1  0  0  0  0
 28 29  1  0  0  0  0
 28 49  1  0  0  0  0
 29 30  1  0  0  0  0
 31 32  1  0  0  0  0
 31 50  1  0  0  0  0
 32 51  1  0  0  0  0
 33 34  2  0  0  0  0
 33 52  1  0  0  0  0
 34 35  1  0  0  0  0
 34 53  1  0  0  0  0
 35 36  2  0  0  0  0
M  END
$$$$
