CHEMBL4472113
 OpenBabel04072215383D

 41 44  0  0  0  0  0  0  0  0999 V2000
    2.3683   -4.4270    3.2606 C   0  0  0  0  0  0  0  0  0  0  0  0
    1.1807   -3.5219    3.1199 C   0  0  0  0  0  0  0  0  0  0  0  0
    0.9981   -2.4331    3.9787 C   0  0  0  0  0  0  0  0  0  0  0  0
   -0.0997   -1.5878    3.8199 C   0  0  0  0  0  0  0  0  0  0  0  0
   -1.0236   -1.8235    2.7998 C   0  0  0  0  0  0  0  0  0  0  0  0
   -0.8684   -2.9163    1.9374 C   0  0  0  0  0  0  0  0  0  0  0  0
   -1.8533   -3.1593    0.9026 C   0  0  0  0  0  0  0  0  0  0  0  0
   -2.2099   -4.3806    0.3772 C   0  0  0  0  0  0  0  0  0  0  0  0
   -3.2160   -4.0813   -0.4962 N   0  0  0  0  0  0  0  0  0  0  0  0
   -4.0758   -5.0050   -1.2164 C   0  0  0  0  0  0  0  0  0  0  0  0
   -3.5232   -5.3786   -2.5691 C   0  0  0  0  0  0  0  0  0  0  0  0
   -3.2421   -6.7163   -2.8780 C   0  0  0  0  0  0  0  0  0  0  0  0
   -2.7611   -7.0693   -4.1431 C   0  0  0  0  0  0  0  0  0  0  0  0
   -2.5487   -6.0946   -5.1259 C   0  0  0  0  0  0  0  0  0  0  0  0
   -2.0376   -6.4768   -6.4294 C   0  0  0  0  0  0  0  0  0  0  0  0
   -2.2255   -7.6559   -7.1878 C   0  0  0  0  0  0  0  0  0  0  0  0
   -1.5460   -7.6457   -8.3378 N   0  0  0  0  0  0  0  0  0  0  0  0
   -0.9177   -6.4593   -8.3195 N   0  0  0  0  0  0  0  0  0  0  0  0
   -1.1824   -5.7203   -7.2026 C   0  0  0  0  0  0  0  0  0  0  0  0
   -2.8401   -4.7597   -4.8225 C   0  0  0  0  0  0  0  0  0  0  0  0
   -3.3266   -4.4058   -3.5595 C   0  0  0  0  0  0  0  0  0  0  0  0
   -3.4656   -2.7580   -0.5195 N   0  0  0  0  0  0  0  0  0  0  0  0
   -2.6328   -2.1823    0.3378 N   0  0  0  0  0  0  0  0  0  0  0  0
    0.2418   -3.7571    2.1028 C   0  0  0  0  0  0  0  0  0  0  0  0
    2.9853   -4.1502    4.1220 H   0  0  0  0  0  0  0  0  0  0  0  0
    2.9936   -4.3671    2.3639 H   0  0  0  0  0  0  0  0  0  0  0  0
    2.0402   -5.4619    3.4024 H   0  0  0  0  0  0  0  0  0  0  0  0
    1.7115   -2.2324    4.7747 H   0  0  0  0  0  0  0  0  0  0  0  0
   -0.2372   -0.7431    4.4904 H   0  0  0  0  0  0  0  0  0  0  0  0
   -1.8759   -1.1555    2.6915 H   0  0  0  0  0  0  0  0  0  0  0  0
   -1.8824   -5.3923    0.5645 H   0  0  0  0  0  0  0  0  0  0  0  0
   -5.0642   -4.5440   -1.3232 H   0  0  0  0  0  0  0  0  0  0  0  0
   -4.1951   -5.8889   -0.5783 H   0  0  0  0  0  0  0  0  0  0  0  0
   -3.3953   -7.5018   -2.1405 H   0  0  0  0  0  0  0  0  0  0  0  0
   -2.5419   -8.1154   -4.3462 H   0  0  0  0  0  0  0  0  0  0  0  0
   -2.8311   -8.5208   -6.9492 H   0  0  0  0  0  0  0  0  0  0  0  0
   -0.3158   -6.2219   -9.1011 H   0  0  0  0  0  0  0  0  0  0  0  0
   -0.7285   -4.7507   -7.0564 H   0  0  0  0  0  0  0  0  0  0  0  0
   -2.7068   -3.9783   -5.5674 H   0  0  0  0  0  0  0  0  0  0  0  0
   -3.5518   -3.3587   -3.3577 H   0  0  0  0  0  0  0  0  0  0  0  0
    0.3944   -4.5981    1.4306 H   0  0  0  0  0  0  0  0  0  0  0  0
  1  2  1  0  0  0  0
  1 25  1  0  0  0  0
  1 26  1  0  0  0  0
  1 27  1  0  0  0  0
  2  3  1  0  0  0  0
  2 24  2  0  0  0  0
  3  4  2  0  0  0  0
  3 28  1  0  0  0  0
  4  5  1  0  0  0  0
  4 29  1  0  0  0  0
  5  6  2  0  0  0  0
  5 30  1  0  0  0  0
  6  7  1  0  0  0  0
  6 24  1  0  0  0  0
  7  8  2  0  0  0  0
  7 23  1  0  0  0  0
  8  9  1  0  0  0  0
  8 31  1  0  0  0  0
  9 10  1  0  0  0  0
  9 22  1  0  0  0  0
 10 11  1  0  0  0  0
 10 32  1  0  0  0  0
 10 33  1  0  0  0  0
 11 12  1  0  0  0  0
 11 21  2  0  0  0  0
 12 13  2  0  0  0  0
 12 34  1  0  0  0  0
 13 14  1  0  0  0  0
 13 35  1  0  0  0  0
 14 15  1  0  0  0  0
 14 20  2  0  0  0  0
 15 16  1  0  0  0  0
 15 19  2  0  0  0  0
 16 17  2  0  0  0  0
 16 36  1  0  0  0  0
 17 18  1  0  0  0  0
 18 19  1  0  0  0  0
 18 37  1  0  0  0  0
 19 38  1  0  0  0  0
 20 21  1  0  0  0  0
 20 39  1  0  0  0  0
 21 40  1  0  0  0  0
 22 23  2  0  0  0  0
 24 41  1  0  0  0  0
M  END
$$$$
