CHEMBL2032015
 OpenBabel04072215363D

 65 70  0  0  0  0  0  0  0  0999 V2000
    3.2252   -1.1729    0.0492 C   0  0  0  0  0  0  0  0  0  0  0  0
    4.4643   -0.8897    0.6959 O   0  0  0  0  0  0  0  0  0  0  0  0
    4.6930    0.4379    0.9385 C   0  0  0  0  0  0  0  0  0  0  0  0
    3.6943    1.3883    1.0827 C   0  0  0  0  0  0  0  0  0  0  0  0
    4.0362    2.7149    1.3095 C   0  0  0  0  0  0  0  0  0  0  0  0
    5.3779    3.1082    1.5031 C   0  0  0  0  0  0  0  0  0  0  0  0
    5.7803    4.4116    1.8762 C   0  0  0  0  0  0  0  0  0  0  0  0
    4.9192    5.4684    2.1180 O   0  0  0  0  0  0  0  0  0  0  0  0
    3.8579    5.3216    2.9839 C   0  0  0  0  0  0  0  0  0  0  0  0
    2.7886    6.2068    2.8445 C   0  0  0  0  0  0  0  0  0  0  0  0
    1.6372    6.0577    3.6388 C   0  0  0  0  0  0  0  0  0  0  0  0
    1.5783    5.0150    4.5580 C   0  0  0  0  0  0  0  0  0  0  0  0
    0.4137    4.8350    5.3390 N   0  0  0  0  0  0  0  0  0  0  0  0
    0.2408    3.7617    6.1926 C   0  0  0  0  0  0  0  0  0  0  0  0
    1.0330    2.8323    6.3340 O   0  0  0  0  0  0  0  0  0  0  0  0
   -0.9736    3.7680    7.0356 C   0  0  0  0  0  0  0  0  0  0  0  0
   -1.4960    2.7075    7.6824 C   0  0  0  0  0  0  0  0  0  0  0  0
   -1.1531    1.3094    7.4004 C   0  0  0  0  0  0  0  0  0  0  0  0
   -0.1595    0.6396    8.1006 C   0  0  0  0  0  0  0  0  0  0  0  0
    0.0953   -0.6903    7.7774 C   0  0  0  0  0  0  0  0  0  0  0  0
   -0.6460   -1.3053    6.7733 C   0  0  0  0  0  0  0  0  0  0  0  0
   -1.6236   -0.5641    6.1319 C   0  0  0  0  0  0  0  0  0  0  0  0
   -1.9046    0.7227    6.4299 N   0  0  0  0  0  0  0  0  0  0  0  0
   -2.5004    3.0476    8.5936 N   0  0  0  0  0  0  0  0  0  0  0  0
   -3.6214    2.1673    8.9261 C   0  0  0  0  0  0  0  0  0  0  0  0
   -2.7958    4.3991    8.3269 N   0  0  0  0  0  0  0  0  0  0  0  0
   -3.6428    5.1655    9.1487 C   0  0  0  0  0  0  0  0  0  0  0  0
   -4.5553    6.0459    8.5582 C   0  0  0  0  0  0  0  0  0  0  0  0
   -5.4584    6.7620    9.3493 C   0  0  0  0  0  0  0  0  0  0  0  0
   -5.4238    6.6381   10.7373 C   0  0  0  0  0  0  0  0  0  0  0  0
   -4.5041    5.7775   11.3353 C   0  0  0  0  0  0  0  0  0  0  0  0
   -3.6308    5.0261   10.5426 C   0  0  0  0  0  0  0  0  0  0  0  0
   -1.8551    4.9012    7.4123 C   0  0  0  0  0  0  0  0  0  0  0  0
   -1.7172    6.0354    6.9766 O   0  0  0  0  0  0  0  0  0  0  0  0
    2.6256    4.1865    4.7222 N   0  0  0  0  0  0  0  0  0  0  0  0
    3.7377    4.3581    3.9683 C   0  0  0  0  0  0  0  0  0  0  0  0
    7.1330    4.7195    1.9472 C   0  0  0  0  0  0  0  0  0  0  0  0
    8.0465    3.7138    1.7064 C   0  0  0  0  0  0  0  0  0  0  0  0
    7.7041    2.4409    1.4286 N   0  0  0  0  0  0  0  0  0  0  0  0
    6.3950    2.1422    1.3385 C   0  0  0  0  0  0  0  0  0  0  0  0
    6.0304    0.8280    1.0594 C   0  0  0  0  0  0  0  0  0  0  0  0
    3.2046   -2.2378   -0.1959 H   0  0  0  0  0  0  0  0  0  0  0  0
    3.1385   -0.6077   -0.8859 H   0  0  0  0  0  0  0  0  0  0  0  0
    2.3726   -0.9734    0.7070 H   0  0  0  0  0  0  0  0  0  0  0  0
    2.6409    1.1370    1.0492 H   0  0  0  0  0  0  0  0  0  0  0  0
    3.2237    3.4326    1.3757 H   0  0  0  0  0  0  0  0  0  0  0  0
    2.8374    7.0008    2.1033 H   0  0  0  0  0  0  0  0  0  0  0  0
    0.8065    6.7426    3.5074 H   0  0  0  0  0  0  0  0  0  0  0  0
   -0.3081    5.5449    5.2913 H   0  0  0  0  0  0  0  0  0  0  0  0
    0.4233    1.1479    8.8613 H   0  0  0  0  0  0  0  0  0  0  0  0
    0.8809   -1.2355    8.2925 H   0  0  0  0  0  0  0  0  0  0  0  0
   -0.4568   -2.3348    6.4911 H   0  0  0  0  0  0  0  0  0  0  0  0
   -2.2224   -0.9996    5.3366 H   0  0  0  0  0  0  0  0  0  0  0  0
   -3.3895    1.1102    8.7626 H   0  0  0  0  0  0  0  0  0  0  0  0
   -4.5155    2.4121    8.3435 H   0  0  0  0  0  0  0  0  0  0  0  0
   -3.8594    2.2604    9.9909 H   0  0  0  0  0  0  0  0  0  0  0  0
   -4.6062    6.1385    7.4765 H   0  0  0  0  0  0  0  0  0  0  0  0
   -6.1917    7.4135    8.8805 H   0  0  0  0  0  0  0  0  0  0  0  0
   -6.1128    7.2125   11.3524 H   0  0  0  0  0  0  0  0  0  0  0  0
   -4.4637    5.6961   12.4187 H   0  0  0  0  0  0  0  0  0  0  0  0
   -2.9132    4.3664   11.0227 H   0  0  0  0  0  0  0  0  0  0  0  0
    4.5190    3.6333    4.1738 H   0  0  0  0  0  0  0  0  0  0  0  0
    7.4755    5.7239    2.1834 H   0  0  0  0  0  0  0  0  0  0  0  0
    9.1176    3.9034    1.7387 H   0  0  0  0  0  0  0  0  0  0  0  0
    6.8123    0.0804    0.9377 H   0  0  0  0  0  0  0  0  0  0  0  0
  1  2  1  0  0  0  0
  1 42  1  0  0  0  0
  1 43  1  0  0  0  0
  1 44  1  0  0  0  0
  2  3  1  0  0  0  0
  3  4  1  0  0  0  0
  3 41  2  0  0  0  0
  4  5  2  0  0  0  0
  4 45  1  0  0  0  0
  5  6  1  0  0  0  0
  5 46  1  0  0  0  0
  6  7  1  0  0  0  0
  6 40  2  0  0  0  0
  7  8  1  0  0  0  0
  7 37  2  0  0  0  0
  8  9  1  0  0  0  0
  9 10  1  0  0  0  0
  9 36  2  0  0  0  0
 10 11  2  0  0  0  0
 10 47  1  0  0  0  0
 11 12  1  0  0  0  0
 11 48  1  0  0  0  0
 12 13  1  0  0  0  0
 12 35  2  0  0  0  0
 13 14  1  0  0  0  0
 13 49  1  0  0  0  0
 14 15  2  0  0  0  0
 14 16  1  0  0  0  0
 16 17  2  0  0  0  0
 16 33  1  0  0  0  0
 17 18  1  0  0  0  0
 17 24  1  0  0  0  0
 18 19  1  0  0  0  0
 18 23  2  0  0  0  0
 19 20  2  0  0  0  0
 19 50  1  0  0  0  0
 20 21  1  0  0  0  0
 20 51  1  0  0  0  0
 21 22  2  0  0  0  0
 21 52  1  0  0  0  0
 22 23  1  0  0  0  0
 22 53  1  0  0  0  0
 24 25  1  0  0  0  0
 24 26  1  0  0  0  0
 25 54  1  0  0  0  0
 25 55  1  0  0  0  0
 25 56  1  0  0  0  0
 26 27  1  0  0  0  0
 26 33  1  0  0  0  0
 27 28  1  0  0  0  0
 27 32  2  0  0  0  0
 28 29  2  0  0  0  0
 28 57  1  0  0  0  0
 29 30  1  0  0  0  0
 29 58  1  0  0  0  0
 30 31  2  0  0  0  0
 30 59  1  0  0  0  0
 31 32  1  0  0  0  0
 31 60  1  0  0  0  0
 32 61  1  0  0  0  0
 33 34  2  0  0  0  0
 35 36  1  0  0  0  0
 36 62  1  0  0  0  0
 37 38  1  0  0  0  0
 37 63  1  0  0  0  0
 38 39  2  0  0  0  0
 38 64  1  0  0  0  0
 39 40  1  0  0  0  0
 40 41  1  0  0  0  0
 41 65  1  0  0  0  0
M  END
$$$$
