CHEMBL270983
 OpenBabel04072215363D

 56 60  0  0  0  0  0  0  0  0999 V2000
    4.8926   -0.6809   -1.8761 C   0  0  0  0  0  0  0  0  0  0  0  0
    3.7861   -0.8588   -0.9879 O   0  0  0  0  0  0  0  0  0  0  0  0
    4.1131   -1.1012    0.3209 C   0  0  0  0  0  0  0  0  0  0  0  0
    5.3123   -0.6349    0.8890 C   0  0  0  0  0  0  0  0  0  0  0  0
    5.7742   -1.0561    2.1305 C   0  0  0  0  0  0  0  0  0  0  0  0
    7.0077   -0.7034    2.4956 N   0  0  0  0  0  0  0  0  0  0  0  0
    7.5110   -1.2104    3.6387 C   0  0  0  0  0  0  0  0  0  0  0  0
    6.8235   -2.0943    4.4401 C   0  0  0  0  0  0  0  0  0  0  0  0
    5.5313   -2.4634    4.0690 C   0  0  0  0  0  0  0  0  0  0  0  0
    4.9781   -3.4125    4.9126 O   0  0  0  0  0  0  0  0  0  0  0  0
    4.0746   -4.3407    4.4518 C   0  0  0  0  0  0  0  0  0  0  0  0
    4.0857   -4.8925    3.1791 C   0  0  0  0  0  0  0  0  0  0  0  0
    2.9406   -5.5448    2.6996 C   0  0  0  0  0  0  0  0  0  0  0  0
    1.8283   -5.8357    3.5361 C   0  0  0  0  0  0  0  0  0  0  0  0
    0.6139   -6.4737    3.1313 C   0  0  0  0  0  0  0  0  0  0  0  0
    0.2449   -6.8572    1.7294 C   0  0  0  0  0  0  0  0  0  0  0  0
   -0.9329   -6.7492    1.3993 O   0  0  0  0  0  0  0  0  0  0  0  0
    1.2414   -7.3900    0.9378 N   0  0  0  0  0  0  0  0  0  0  0  0
    1.1048   -7.8763   -0.3876 C   0  0  0  0  0  0  0  0  0  0  0  0
   -0.0356   -7.6638   -1.1704 C   0  0  0  0  0  0  0  0  0  0  0  0
   -0.1609   -8.2688   -2.4263 C   0  0  0  0  0  0  0  0  0  0  0  0
    0.8611   -9.0775   -2.9140 C   0  0  0  0  0  0  0  0  0  0  0  0
    0.6733   -9.8737   -4.4270 Cl  0  0  0  0  0  0  0  0  0  0  0  0
    2.0306   -9.2515   -2.1813 C   0  0  0  0  0  0  0  0  0  0  0  0
    2.1545   -8.6401   -0.9316 C   0  0  0  0  0  0  0  0  0  0  0  0
    3.6284   -8.8740   -0.0521 Cl  0  0  0  0  0  0  0  0  0  0  0  0
   -0.3995   -6.7249    4.0798 C   0  0  0  0  0  0  0  0  0  0  0  0
   -0.2478   -6.3530    5.4097 C   0  0  0  0  0  0  0  0  0  0  0  0
    0.9084   -5.6942    5.8030 C   0  0  0  0  0  0  0  0  0  0  0  0
    1.9370   -5.4198    4.8912 C   0  0  0  0  0  0  0  0  0  0  0  0
    3.0392   -4.6686    5.3260 C   0  0  0  0  0  0  0  0  0  0  0  0
    4.9503   -1.8753    2.9060 C   0  0  0  0  0  0  0  0  0  0  0  0
    3.6228   -2.0859    2.4506 C   0  0  0  0  0  0  0  0  0  0  0  0
    3.2350   -1.8209    1.1369 C   0  0  0  0  0  0  0  0  0  0  0  0
    2.0272   -2.3862    0.8627 O   0  0  0  0  0  0  0  0  0  0  0  0
    1.5376   -2.4691   -0.4660 C   0  0  0  0  0  0  0  0  0  0  0  0
    4.6383   -1.1579   -2.8291 H   0  0  0  0  0  0  0  0  0  0  0  0
    5.8190   -1.1486   -1.5341 H   0  0  0  0  0  0  0  0  0  0  0  0
    5.0466    0.3869   -2.0525 H   0  0  0  0  0  0  0  0  0  0  0  0
    5.9641    0.0263    0.3243 H   0  0  0  0  0  0  0  0  0  0  0  0
    8.5200   -0.8926    3.8878 H   0  0  0  0  0  0  0  0  0  0  0  0
    7.2903   -2.5079    5.3306 H   0  0  0  0  0  0  0  0  0  0  0  0
    4.9026   -4.6918    2.4896 H   0  0  0  0  0  0  0  0  0  0  0  0
    2.9242   -5.7446    1.6346 H   0  0  0  0  0  0  0  0  0  0  0  0
    2.1218   -7.6199    1.3860 H   0  0  0  0  0  0  0  0  0  0  0  0
   -0.8555   -7.0379   -0.8289 H   0  0  0  0  0  0  0  0  0  0  0  0
   -1.0689   -8.1147   -3.0056 H   0  0  0  0  0  0  0  0  0  0  0  0
    2.8321   -9.8723   -2.5711 H   0  0  0  0  0  0  0  0  0  0  0  0
   -1.3253   -7.2091    3.7744 H   0  0  0  0  0  0  0  0  0  0  0  0
   -1.0410   -6.5501    6.1260 H   0  0  0  0  0  0  0  0  0  0  0  0
    0.9928   -5.3749    6.8421 H   0  0  0  0  0  0  0  0  0  0  0  0
    3.0706   -4.2735    6.3377 H   0  0  0  0  0  0  0  0  0  0  0  0
    2.8910   -2.5763    3.0864 H   0  0  0  0  0  0  0  0  0  0  0  0
    0.7483   -3.2320   -0.4672 H   0  0  0  0  0  0  0  0  0  0  0  0
    2.2912   -2.7990   -1.1848 H   0  0  0  0  0  0  0  0  0  0  0  0
    1.0792   -1.5207   -0.7527 H   0  0  0  0  0  0  0  0  0  0  0  0
  1  2  1  0  0  0  0
  1 37  1  0  0  0  0
  1 38  1  0  0  0  0
  1 39  1  0  0  0  0
  2  3  1  0  0  0  0
  3  4  1  0  0  0  0
  3 34  2  0  0  0  0
  4  5  2  0  0  0  0
  4 40  1  0  0  0  0
  5  6  1  0  0  0  0
  5 32  1  0  0  0  0
  6  7  2  0  0  0  0
  7  8  1  0  0  0  0
  7 41  1  0  0  0  0
  8  9  2  0  0  0  0
  8 42  1  0  0  0  0
  9 10  1  0  0  0  0
  9 32  1  0  0  0  0
 10 11  1  0  0  0  0
 11 12  1  0  0  0  0
 11 31  2  0  0  0  0
 12 13  2  0  0  0  0
 12 43  1  0  0  0  0
 13 14  1  0  0  0  0
 13 44  1  0  0  0  0
 14 15  1  0  0  0  0
 14 30  2  0  0  0  0
 15 16  1  0  0  0  0
 15 27  2  0  0  0  0
 16 17  2  0  0  0  0
 16 18  1  0  0  0  0
 18 19  1  0  0  0  0
 18 45  1  0  0  0  0
 19 20  1  0  0  0  0
 19 25  2  0  0  0  0
 20 21  2  0  0  0  0
 20 46  1  0  0  0  0
 21 22  1  0  0  0  0
 21 47  1  0  0  0  0
 22 23  1  0  0  0  0
 22 24  2  0  0  0  0
 24 25  1  0  0  0  0
 24 48  1  0  0  0  0
 25 26  1  0  0  0  0
 27 28  1  0  0  0  0
 27 49  1  0  0  0  0
 28 29  2  0  0  0  0
 28 50  1  0  0  0  0
 29 30  1  0  0  0  0
 29 51  1  0  0  0  0
 30 31  1  0  0  0  0
 31 52  1  0  0  0  0
 32 33  2  0  0  0  0
 33 34  1  0  0  0  0
 33 53  1  0  0  0  0
 34 35  1  0  0  0  0
 35 36  1  0  0  0  0
 36 54  1  0  0  0  0
 36 55  1  0  0  0  0
 36 56  1  0  0  0  0
M  END
$$$$
