CHEMBL1985206
 OpenBabel04072215363D

 36 39  0  0  0  0  0  0  0  0999 V2000
    1.0158   -0.0143    0.1023 C   0  0  0  0  0  0  0  0  0  0  0  0
    2.4375    0.0083    0.0901 O   0  0  0  0  0  0  0  0  0  0  0  0
    2.9188    1.1754   -0.5648 C   0  0  0  0  0  0  0  0  0  0  0  0
    4.4388    1.1754   -0.5648 C   0  0  0  0  0  0  0  0  0  0  0  0
    5.7426    1.1754   -0.5648 C   0  0  0  0  0  0  0  0  0  0  0  0
    7.1792    1.1539   -0.5757 C   0  0  0  0  0  0  0  0  0  0  0  0
    7.9017    2.3547   -0.5599 C   0  0  0  0  0  0  0  0  0  0  0  0
    9.3134    2.3767   -0.5618 C   0  0  0  0  0  0  0  0  0  0  0  0
   10.0529    1.1873   -0.5837 C   0  0  0  0  0  0  0  0  0  0  0  0
    9.3362    0.0146   -0.6156 C   0  0  0  0  0  0  0  0  0  0  0  0
    7.9090   -0.0318   -0.6085 C   0  0  0  0  0  0  0  0  0  0  0  0
    7.3594   -1.4722   -0.6353 C   0  0  0  0  0  0  0  0  0  0  0  0
    8.6754   -2.1807   -0.6556 C   0  0  0  0  0  0  0  0  0  0  0  0
    9.2210   -3.4727   -0.5918 C   0  0  0  0  0  0  0  0  0  0  0  0
    8.4620   -4.7581   -0.5486 C   0  0  0  0  0  0  0  0  0  0  0  0
    9.0379   -6.0086   -0.4569 C   0  0  0  0  0  0  0  0  0  0  0  0
    8.0578   -7.0459   -0.4465 C   0  0  0  0  0  0  0  0  0  0  0  0
    6.7781   -6.5492   -0.5536 C   0  0  0  0  0  0  0  0  0  0  0  0
    6.7544   -4.8459   -0.5748 S   0  0  0  0  0  0  0  0  0  0  0  0
   10.5701   -3.4210   -0.5290 N   0  0  0  0  0  0  0  0  0  0  0  0
   10.8665   -2.0975   -0.5724 N   0  0  0  0  0  0  0  0  0  0  0  0
    9.7496   -1.3434   -0.6492 C   0  0  0  0  0  0  0  0  0  0  0  0
    0.6866   -0.9205    0.6168 H   0  0  0  0  0  0  0  0  0  0  0  0
    0.6246   -0.0303   -0.9200 H   0  0  0  0  0  0  0  0  0  0  0  0
    0.6234    0.8553    0.6390 H   0  0  0  0  0  0  0  0  0  0  0  0
    2.5647    2.0719   -0.0435 H   0  0  0  0  0  0  0  0  0  0  0  0
    2.5654    1.1961   -1.6018 H   0  0  0  0  0  0  0  0  0  0  0  0
    7.3679    3.3056   -0.5462 H   0  0  0  0  0  0  0  0  0  0  0  0
    9.8358    3.3288   -0.5477 H   0  0  0  0  0  0  0  0  0  0  0  0
   11.1337    1.2031   -0.5815 H   0  0  0  0  0  0  0  0  0  0  0  0
    6.7656   -1.6548   -1.5339 H   0  0  0  0  0  0  0  0  0  0  0  0
    6.8115   -1.6960    0.2828 H   0  0  0  0  0  0  0  0  0  0  0  0
   10.1074   -6.1757   -0.3931 H   0  0  0  0  0  0  0  0  0  0  0  0
    8.2787   -8.1020   -0.3678 H   0  0  0  0  0  0  0  0  0  0  0  0
    5.8497   -7.0962   -0.5963 H   0  0  0  0  0  0  0  0  0  0  0  0
   11.8347   -1.8146   -0.5196 H   0  0  0  0  0  0  0  0  0  0  0  0
  1  2  1  0  0  0  0
  1 23  1  0  0  0  0
  1 24  1  0  0  0  0
  1 25  1  0  0  0  0
  2  3  1  0  0  0  0
  3  4  1  0  0  0  0
  3 26  1  0  0  0  0
  3 27  1  0  0  0  0
  4  5  3  0  0  0  0
  5  6  1  0  0  0  0
  6  7  1  0  0  0  0
  6 11  2  0  0  0  0
  7  8  2  0  0  0  0
  7 28  1  0  0  0  0
  8  9  1  0  0  0  0
  8 29  1  0  0  0  0
  9 10  2  0  0  0  0
  9 30  1  0  0  0  0
 10 11  1  0  0  0  0
 10 22  1  0  0  0  0
 11 12  1  0  0  0  0
 12 13  1  0  0  0  0
 12 31  1  0  0  0  0
 12 32  1  0  0  0  0
 13 14  1  0  0  0  0
 13 22  2  0  0  0  0
 14 15  1  0  0  0  0
 14 20  2  0  0  0  0
 15 16  2  0  0  0  0
 15 19  1  0  0  0  0
 16 17  1  0  0  0  0
 16 33  1  0  0  0  0
 17 18  2  0  0  0  0
 17 34  1  0  0  0  0
 18 19  1  0  0  0  0
 18 35  1  0  0  0  0
 20 21  1  0  0  0  0
 21 22  1  0  0  0  0
 21 36  1  0  0  0  0
M  END
$$$$
