CHEMBL3891474
 OpenBabel04072215373D

 70 73  0  0  1  0  0  0  0  0999 V2000
    2.0278   -1.0559   -6.0266 C   0  0  0  0  0  0  0  0  0  0  0  0
    3.0835   -1.7304   -5.4292 O   0  0  0  0  0  0  0  0  0  0  0  0
    3.4502   -1.5405   -4.1360 C   0  0  0  0  0  0  0  0  0  0  0  0
    2.6540   -0.7356   -3.3029 C   0  0  0  0  0  0  0  0  0  0  0  0
    3.0111   -0.5154   -2.0010 C   0  0  0  0  0  0  0  0  0  0  0  0
    2.2685    0.2519   -1.1481 O   0  0  0  0  0  0  0  0  0  0  0  0
    1.1172    0.9449   -1.4653 C   0  0  0  0  0  0  0  0  0  0  0  0
    4.1714   -1.0958   -1.5311 C   0  0  0  0  0  0  0  0  0  0  0  0
    5.0583   -1.9386   -2.2862 C   0  0  0  0  0  0  0  0  0  0  0  0
    6.2635   -2.6076   -1.7234 N   0  0  0  0  0  0  0  0  0  0  0  0
    6.6202   -2.6671   -0.2228 C   0  0  0  0  0  0  0  0  0  0  0  0
    5.8957   -1.8890    0.9227 C   0  0  3  0  0  0  0  0  0  0  0  0
    4.5462   -2.3742    0.8462 O   0  0  0  0  0  0  0  0  0  0  0  0
    3.6193   -1.8149    1.7551 C   0  0  0  0  0  0  0  0  0  0  0  0
    6.1968   -0.3565    0.6801 C   0  0  0  0  0  0  0  0  0  0  0  0
    7.6198    0.0409    1.0726 C   0  0  0  0  0  0  0  0  0  0  0  0
    7.8472   -0.3217    2.5259 C   0  0  0  0  0  0  0  0  0  0  0  0
    7.7687   -1.7794    2.6641 N   0  0  0  0  0  0  0  0  0  0  0  0
    6.4080   -2.2475    2.3750 C   0  0  0  0  0  0  0  0  0  0  0  0
    7.2054   -3.4670   -2.5153 C   0  0  0  0  0  0  0  0  0  0  0  0
    7.4560   -4.6965   -1.8980 C   0  0  0  0  0  0  0  0  0  0  0  0
    8.4826   -5.4859   -2.2109 C   0  0  0  0  0  0  0  0  0  0  0  0
    9.3083   -5.1859   -3.2231 C   0  0  0  0  0  0  0  0  0  0  0  0
   10.3702   -5.9707   -3.2655 N   0  0  0  0  0  0  0  0  0  0  0  0
   11.2649   -5.9098   -4.2287 C   0  0  0  0  0  0  0  0  0  0  0  0
   11.0558   -5.1076   -5.3388 C   0  0  0  0  0  0  0  0  0  0  0  0
   11.9787   -5.5973   -6.5104 C   0  0  0  0  0  0  0  0  0  0  0  0
   12.6465   -6.8524   -6.4203 C   0  0  0  0  0  0  0  0  0  0  0  0
   13.2864   -7.1508   -7.5375 N   0  0  0  0  0  0  0  0  0  0  0  0
   13.0960   -6.1726   -8.3859 N   0  0  0  0  0  0  0  0  0  0  0  0
   13.6396   -6.3055   -9.7325 C   0  0  0  0  0  0  0  0  0  0  0  0
   12.3220   -5.1875   -7.8186 C   0  0  0  0  0  0  0  0  0  0  0  0
   10.0030   -4.1419   -5.2605 N   0  0  0  0  0  0  0  0  0  0  0  0
    9.1116   -4.1372   -4.1364 C   0  0  0  0  0  0  0  0  0  0  0  0
    8.0096   -3.1956   -3.7566 C   0  0  0  0  0  0  0  0  0  0  0  0
    4.6382   -2.1462   -3.6258 C   0  0  0  0  0  0  0  0  0  0  0  0
    0.4481   -0.4944    2.3795 Cl  0  0  0  0  0  0  0  0  0  0  0  0
    1.9359   -1.3495   -7.0859 H   0  0  0  0  0  0  0  0  0  0  0  0
    2.2100    0.0429   -5.9715 H   0  0  0  0  0  0  0  0  0  0  0  0
    1.0660   -1.2865   -5.5122 H   0  0  0  0  0  0  0  0  0  0  0  0
    1.7474   -0.2724   -3.6553 H   0  0  0  0  0  0  0  0  0  0  0  0
    0.7374    1.4691   -0.5631 H   0  0  0  0  0  0  0  0  0  0  0  0
    0.3306    0.2460   -1.8206 H   0  0  0  0  0  0  0  0  0  0  0  0
    1.3406    1.7020   -2.2458 H   0  0  0  0  0  0  0  0  0  0  0  0
    4.2622   -0.7999   -0.5518 H   0  0  0  0  0  0  0  0  0  0  0  0
    7.7081   -2.4823   -0.1233 H   0  0  0  0  0  0  0  0  0  0  0  0
    6.4510   -3.6799    0.1650 H   0  0  0  0  0  0  0  0  0  0  0  0
    2.6134   -1.9467    1.3097 H   0  0  0  0  0  0  0  0  0  0  0  0
    3.7494   -0.7293    1.9078 H   0  0  0  0  0  0  0  0  0  0  0  0
    3.6155   -2.3650    2.7195 H   0  0  0  0  0  0  0  0  0  0  0  0
    5.5130    0.2799    1.2697 H   0  0  0  0  0  0  0  0  0  0  0  0
    6.1413   -0.0616   -0.3859 H   0  0  0  0  0  0  0  0  0  0  0  0
    7.7414    1.1335    0.9206 H   0  0  0  0  0  0  0  0  0  0  0  0
    8.3803   -0.4737    0.4472 H   0  0  0  0  0  0  0  0  0  0  0  0
    7.0913    0.1908    3.1697 H   0  0  0  0  0  0  0  0  0  0  0  0
    8.8525    0.0287    2.8369 H   0  0  0  0  0  0  0  0  0  0  0  0
    7.9706   -2.0047    3.6680 H   0  0  0  0  0  0  0  0  0  0  0  0
    5.7435   -1.7715    3.1315 H   0  0  0  0  0  0  0  0  0  0  0  0
    6.3422   -3.3430    2.5558 H   0  0  0  0  0  0  0  0  0  0  0  0
    6.9030   -5.0855   -1.0795 H   0  0  0  0  0  0  0  0  0  0  0  0
    8.6690   -6.3643   -1.6073 H   0  0  0  0  0  0  0  0  0  0  0  0
   12.0626   -6.5902   -4.0752 H   0  0  0  0  0  0  0  0  0  0  0  0
   12.6585   -7.5944   -5.6413 H   0  0  0  0  0  0  0  0  0  0  0  0
   14.1333   -7.3078   -9.8340 H   0  0  0  0  0  0  0  0  0  0  0  0
   14.4065   -5.5374   -9.9391 H   0  0  0  0  0  0  0  0  0  0  0  0
   12.8152   -6.2870  -10.4698 H   0  0  0  0  0  0  0  0  0  0  0  0
   12.0194   -4.2946   -8.3429 H   0  0  0  0  0  0  0  0  0  0  0  0
    7.8438   -2.2885   -4.3299 H   0  0  0  0  0  0  0  0  0  0  0  0
    5.2162   -2.7809   -4.2794 H   0  0  0  0  0  0  0  0  0  0  0  0
    1.5195    0.2338    1.9142 H   0  0  0  0  0  0  0  0  0  0  0  0
  1  2  1  0  0  0  0
  1 38  1  0  0  0  0
  1 39  1  0  0  0  0
  1 40  1  0  0  0  0
  2  3  1  0  0  0  0
  3  4  1  0  0  0  0
  3 36  2  0  0  0  0
  4  5  2  0  0  0  0
  4 41  1  0  0  0  0
  5  6  1  0  0  0  0
  5  8  1  0  0  0  0
  6  7  1  0  0  0  0
  7 42  1  0  0  0  0
  7 43  1  0  0  0  0
  7 44  1  0  0  0  0
  8  9  2  0  0  0  0
  8 45  1  0  0  0  0
  9 10  1  0  0  0  0
  9 36  1  0  0  0  0
 10 11  1  0  0  0  0
 10 20  1  0  0  0  0
 11 12  1  0  0  0  0
 11 46  1  0  0  0  0
 11 47  1  0  0  0  0
 12 13  1  0  0  0  0
 12 15  1  0  0  0  0
 12 19  1  0  0  0  0
 13 14  1  0  0  0  0
 14 48  1  0  0  0  0
 14 49  1  0  0  0  0
 14 50  1  0  0  0  0
 15 16  1  0  0  0  0
 15 51  1  0  0  0  0
 15 52  1  0  0  0  0
 16 17  1  0  0  0  0
 16 53  1  0  0  0  0
 16 54  1  0  0  0  0
 17 18  1  0  0  0  0
 17 55  1  0  0  0  0
 17 56  1  0  0  0  0
 18 19  1  0  0  0  0
 18 57  1  0  0  0  0
 19 58  1  0  0  0  0
 19 59  1  0  0  0  0
 20 21  1  0  0  0  0
 20 35  2  0  0  0  0
 21 22  2  0  0  0  0
 21 60  1  0  0  0  0
 22 23  1  0  0  0  0
 22 61  1  0  0  0  0
 23 24  1  0  0  0  0
 23 34  2  0  0  0  0
 24 25  2  0  0  0  0
 25 26  1  0  0  0  0
 25 62  1  0  0  0  0
 26 27  1  0  0  0  0
 26 33  2  0  0  0  0
 27 28  1  0  0  0  0
 27 32  2  0  0  0  0
 28 29  2  0  0  0  0
 28 63  1  0  0  0  0
 29 30  1  0  0  0  0
 30 31  1  0  0  0  0
 30 32  1  0  0  0  0
 31 64  1  0  0  0  0
 31 65  1  0  0  0  0
 31 66  1  0  0  0  0
 32 67  1  0  0  0  0
 33 34  1  0  0  0  0
 34 35  1  0  0  0  0
 35 68  1  0  0  0  0
 36 69  1  0  0  0  0
 37 70  1  0  0  0  0
M  END
$$$$
