CHEMBL1983630
 OpenBabel04072215363D

 26 28  0  0  0  0  0  0  0  0999 V2000
    1.3089    0.5979   -0.0505 O   0  0  0  0  0  0  0  0  0  0  0  0
    2.4721    0.2294   -0.0460 C   0  0  0  0  0  0  0  0  0  0  0  0
    2.9658   -1.2205   -0.0386 C   0  0  0  0  0  0  0  0  0  0  0  0
    4.4484   -1.0376   -0.0443 C   0  0  0  0  0  0  0  0  0  0  0  0
    5.4707   -1.9669   -0.0497 C   0  0  0  0  0  0  0  0  0  0  0  0
    6.8000   -1.5082   -0.0836 C   0  0  0  0  0  0  0  0  0  0  0  0
    7.9465   -2.4440   -0.1255 C   0  0  0  0  0  0  0  0  0  0  0  0
    7.8492   -3.6903   -0.7745 C   0  0  0  0  0  0  0  0  0  0  0  0
    8.9261   -4.5809   -0.8176 C   0  0  0  0  0  0  0  0  0  0  0  0
   10.1346   -4.2416   -0.2202 C   0  0  0  0  0  0  0  0  0  0  0  0
   10.2634   -3.0159    0.4237 C   0  0  0  0  0  0  0  0  0  0  0  0
    9.1809   -2.1311    0.4744 C   0  0  0  0  0  0  0  0  0  0  0  0
    6.9736   -0.1072   -0.0908 C   0  0  0  0  0  0  0  0  0  0  0  0
    5.9797    0.8236   -0.0699 N   0  0  0  0  0  0  0  0  0  0  0  0
    4.7527    0.3116   -0.0529 C   0  0  0  0  0  0  0  0  0  0  0  0
    3.5872    1.0491   -0.0500 N   0  0  0  0  0  0  0  0  0  0  0  0
    2.6246   -1.7312   -0.9428 H   0  0  0  0  0  0  0  0  0  0  0  0
    2.6272   -1.7232    0.8707 H   0  0  0  0  0  0  0  0  0  0  0  0
    5.2352   -3.0262   -0.0242 H   0  0  0  0  0  0  0  0  0  0  0  0
    6.9288   -3.9863   -1.2733 H   0  0  0  0  0  0  0  0  0  0  0  0
    8.8179   -5.5378   -1.3225 H   0  0  0  0  0  0  0  0  0  0  0  0
   10.9743   -4.9307   -0.2570 H   0  0  0  0  0  0  0  0  0  0  0  0
   11.2073   -2.7451    0.8922 H   0  0  0  0  0  0  0  0  0  0  0  0
    9.3204   -1.1918    1.0054 H   0  0  0  0  0  0  0  0  0  0  0  0
    7.9685    0.3315   -0.1309 H   0  0  0  0  0  0  0  0  0  0  0  0
    3.5667    2.0553   -0.0594 H   0  0  0  0  0  0  0  0  0  0  0  0
  1  2  2  0  0  0  0
  2  3  1  0  0  0  0
  2 16  1  0  0  0  0
  3  4  1  0  0  0  0
  3 17  1  0  0  0  0
  3 18  1  0  0  0  0
  4  5  1  0  0  0  0
  4 15  2  0  0  0  0
  5  6  2  0  0  0  0
  5 19  1  0  0  0  0
  6  7  1  0  0  0  0
  6 13  1  0  0  0  0
  7  8  1  0  0  0  0
  7 12  2  0  0  0  0
  8  9  2  0  0  0  0
  8 20  1  0  0  0  0
  9 10  1  0  0  0  0
  9 21  1  0  0  0  0
 10 11  2  0  0  0  0
 10 22  1  0  0  0  0
 11 12  1  0  0  0  0
 11 23  1  0  0  0  0
 12 24  1  0  0  0  0
 13 14  2  0  0  0  0
 13 25  1  0  0  0  0
 14 15  1  0  0  0  0
 15 16  1  0  0  0  0
 16 26  1  0  0  0  0
M  END
$$$$
