CHEMBL3694651
 OpenBabel04072215373D

 55 58  0  0  0  0  0  0  0  0999 V2000
    2.1060   -1.5084    0.6996 C   0  0  0  0  0  0  0  0  0  0  0  0
    2.4481   -0.1280    0.1259 C   0  0  0  0  0  0  0  0  0  0  0  0
    1.2396    0.8117    0.2026 C   0  0  0  0  0  0  0  0  0  0  0  0
    3.4762    0.4317    0.9507 O   0  0  0  0  0  0  0  0  0  0  0  0
    2.9525   -0.2464   -1.2904 C   0  0  0  0  0  0  0  0  0  0  0  0
    2.2033   -0.8081   -2.3084 C   0  0  0  0  0  0  0  0  0  0  0  0
    2.6263   -0.9468   -3.5798 N   0  0  0  0  0  0  0  0  0  0  0  0
    3.8628   -0.4938   -3.8496 C   0  0  0  0  0  0  0  0  0  0  0  0
    4.3885   -0.6227   -5.2331 C   0  0  0  0  0  0  0  0  0  0  0  0
    5.7016   -0.0805   -5.6092 C   0  0  0  0  0  0  0  0  0  0  0  0
    6.1469   -0.1929   -6.8688 C   0  0  0  0  0  0  0  0  0  0  0  0
    5.3794   -0.8666   -7.8181 N   0  0  0  0  0  0  0  0  0  0  0  0
    5.6271   -1.1613   -9.1552 C   0  0  0  0  0  0  0  0  0  0  0  0
    6.8220   -0.8131   -9.9390 C   0  0  0  0  0  0  0  0  0  0  0  0
    6.6675   -0.4834  -11.2934 C   0  0  0  0  0  0  0  0  0  0  0  0
    7.7649   -0.1275  -12.0720 C   0  0  0  0  0  0  0  0  0  0  0  0
    9.0267   -0.0395  -11.4929 C   0  0  0  0  0  0  0  0  0  0  0  0
    9.2099   -0.3231  -10.1399 C   0  0  0  0  0  0  0  0  0  0  0  0
   10.4554   -0.1423   -9.4896 N   0  0  0  0  0  0  0  0  0  0  0  0
   11.4703    0.6659   -9.9562 C   0  0  0  0  0  0  0  0  0  0  0  0
   11.4441    1.3720  -10.9531 O   0  0  0  0  0  0  0  0  0  0  0  0
   12.6091    0.5951   -9.1873 N   0  0  0  0  0  0  0  0  0  0  0  0
   13.7583    1.4297   -9.5660 C   0  0  0  0  0  0  0  0  0  0  0  0
   13.6854    2.9110   -9.1655 C   0  0  0  0  0  0  0  0  0  0  0  0
   12.6344    3.1697   -8.3534 F   0  0  0  0  0  0  0  0  0  0  0  0
   14.8037    3.2543   -8.4751 F   0  0  0  0  0  0  0  0  0  0  0  0
   13.6089    3.7321  -10.2318 F   0  0  0  0  0  0  0  0  0  0  0  0
    8.1183   -0.7877   -9.3915 C   0  0  0  0  0  0  0  0  0  0  0  0
    4.4563   -1.7790   -9.5764 C   0  0  0  0  0  0  0  0  0  0  0  0
    3.5451   -1.9182   -8.5678 N   0  0  0  0  0  0  0  0  0  0  0  0
    4.1177   -1.3783   -7.5164 C   0  0  0  0  0  0  0  0  0  0  0  0
    3.6402   -1.2359   -6.1817 C   0  0  0  0  0  0  0  0  0  0  0  0
    4.6756    0.0801   -2.9436 N   0  0  0  0  0  0  0  0  0  0  0  0
    4.1997    0.1907   -1.6879 C   0  0  0  0  0  0  0  0  0  0  0  0
    1.7911   -1.4301    1.7461 H   0  0  0  0  0  0  0  0  0  0  0  0
    2.9865   -2.1628    0.6871 H   0  0  0  0  0  0  0  0  0  0  0  0
    1.3060   -2.0057    0.1411 H   0  0  0  0  0  0  0  0  0  0  0  0
    0.9265    0.9602    1.2426 H   0  0  0  0  0  0  0  0  0  0  0  0
    0.3812    0.4318   -0.3617 H   0  0  0  0  0  0  0  0  0  0  0  0
    1.4920    1.8047   -0.1893 H   0  0  0  0  0  0  0  0  0  0  0  0
    3.1336    0.4921    1.8593 H   0  0  0  0  0  0  0  0  0  0  0  0
    1.1983   -1.1843   -2.1349 H   0  0  0  0  0  0  0  0  0  0  0  0
    6.2918    0.4265   -4.8512 H   0  0  0  0  0  0  0  0  0  0  0  0
    7.0893    0.2380   -7.1690 H   0  0  0  0  0  0  0  0  0  0  0  0
    5.6863   -0.4901  -11.7628 H   0  0  0  0  0  0  0  0  0  0  0  0
    7.6382    0.1073  -13.1248 H   0  0  0  0  0  0  0  0  0  0  0  0
    9.8584    0.2483  -12.1291 H   0  0  0  0  0  0  0  0  0  0  0  0
   10.5175   -0.4506   -8.5329 H   0  0  0  0  0  0  0  0  0  0  0  0
   12.5144    0.3392   -8.2147 H   0  0  0  0  0  0  0  0  0  0  0  0
   13.8877    1.3641  -10.6534 H   0  0  0  0  0  0  0  0  0  0  0  0
   14.6382    0.9648   -9.1107 H   0  0  0  0  0  0  0  0  0  0  0  0
    8.2796   -1.1052   -8.3666 H   0  0  0  0  0  0  0  0  0  0  0  0
    4.2265   -2.1383  -10.5720 H   0  0  0  0  0  0  0  0  0  0  0  0
    2.6552   -1.6401   -5.9697 H   0  0  0  0  0  0  0  0  0  0  0  0
    4.8878    0.6588   -0.9881 H   0  0  0  0  0  0  0  0  0  0  0  0
  1  2  1  0  0  0  0
  1 35  1  0  0  0  0
  1 36  1  0  0  0  0
  1 37  1  0  0  0  0
  2  3  1  0  0  0  0
  2  4  1  0  0  0  0
  2  5  1  0  0  0  0
  3 38  1  0  0  0  0
  3 39  1  0  0  0  0
  3 40  1  0  0  0  0
  4 41  1  0  0  0  0
  5  6  1  0  0  0  0
  5 34  2  0  0  0  0
  6  7  2  0  0  0  0
  6 42  1  0  0  0  0
  7  8  1  0  0  0  0
  8  9  1  0  0  0  0
  8 33  2  0  0  0  0
  9 10  1  0  0  0  0
  9 32  2  0  0  0  0
 10 11  2  0  0  0  0
 10 43  1  0  0  0  0
 11 12  1  0  0  0  0
 11 44  1  0  0  0  0
 12 13  1  0  0  0  0
 12 31  1  0  0  0  0
 13 14  1  0  0  0  0
 13 29  2  0  0  0  0
 14 15  1  0  0  0  0
 14 28  2  0  0  0  0
 15 16  2  0  0  0  0
 15 45  1  0  0  0  0
 16 17  1  0  0  0  0
 16 46  1  0  0  0  0
 17 18  2  0  0  0  0
 17 47  1  0  0  0  0
 18 19  1  0  0  0  0
 18 28  1  0  0  0  0
 19 20  1  0  0  0  0
 19 48  1  0  0  0  0
 20 21  2  0  0  0  0
 20 22  1  0  0  0  0
 22 23  1  0  0  0  0
 22 49  1  0  0  0  0
 23 24  1  0  0  0  0
 23 50  1  0  0  0  0
 23 51  1  0  0  0  0
 24 25  1  0  0  0  0
 24 26  1  0  0  0  0
 24 27  1  0  0  0  0
 28 52  1  0  0  0  0
 29 30  1  0  0  0  0
 29 53  1  0  0  0  0
 30 31  2  0  0  0  0
 31 32  1  0  0  0  0
 32 54  1  0  0  0  0
 33 34  1  0  0  0  0
 34 55  1  0  0  0  0
M  END
$$$$
