CHEMBL1169656
 OpenBabel04072215363D

 31 33  0  0  0  0  0  0  0  0999 V2000
    1.2619    0.9276   -0.0173 O   0  0  0  0  0  0  0  0  0  0  0  0
    2.3530    0.3699   -0.0554 C   0  0  0  0  0  0  0  0  0  0  0  0
    2.8607   -0.3653   -1.1111 N   0  0  0  0  0  0  0  0  0  0  0  0
    2.2094   -0.5915   -2.3576 C   0  0  0  0  0  0  0  0  0  0  0  0
    1.1268    0.1907   -2.7812 C   0  0  0  0  0  0  0  0  0  0  0  0
    0.4665   -0.0949   -3.9707 C   0  0  0  0  0  0  0  0  0  0  0  0
    0.8875   -1.1643   -4.7495 C   0  0  0  0  0  0  0  0  0  0  0  0
    1.9890   -1.9366   -4.3533 C   0  0  0  0  0  0  0  0  0  0  0  0
    2.4152   -3.0173   -5.1341 C   0  0  0  0  0  0  0  0  0  0  0  0
    3.5087   -3.7710   -4.7328 C   0  0  0  0  0  0  0  0  0  0  0  0
    4.1443   -3.4129   -3.5588 C   0  0  0  0  0  0  0  0  0  0  0  0
    3.7580   -2.3835   -2.7686 N   0  0  0  0  0  0  0  0  0  0  0  0
    2.6848   -1.6491   -3.1544 C   0  0  0  0  0  0  0  0  0  0  0  0
    3.1907    0.4278    1.1668 C   0  0  0  0  0  0  0  0  0  0  0  0
    2.5395    0.4209    2.4099 C   0  0  0  0  0  0  0  0  0  0  0  0
    3.2704    0.5429    3.5886 C   0  0  0  0  0  0  0  0  0  0  0  0
    4.6570    0.6867    3.5302 C   0  0  0  0  0  0  0  0  0  0  0  0
    5.3096    0.7027    2.2946 C   0  0  0  0  0  0  0  0  0  0  0  0
    4.5805    0.5717    1.1093 C   0  0  0  0  0  0  0  0  0  0  0  0
    3.6641   -0.9707   -0.9571 H   0  0  0  0  0  0  0  0  0  0  0  0
    0.7782    1.0392   -2.2004 H   0  0  0  0  0  0  0  0  0  0  0  0
   -0.3803    0.5134   -4.2778 H   0  0  0  0  0  0  0  0  0  0  0  0
    0.3502   -1.3894   -5.6682 H   0  0  0  0  0  0  0  0  0  0  0  0
    1.8943   -3.2795   -6.0515 H   0  0  0  0  0  0  0  0  0  0  0  0
    3.8531   -4.6139   -5.3211 H   0  0  0  0  0  0  0  0  0  0  0  0
    5.0106   -3.9677   -3.2082 H   0  0  0  0  0  0  0  0  0  0  0  0
    1.4545    0.3319    2.4544 H   0  0  0  0  0  0  0  0  0  0  0  0
    2.7599    0.5429    4.5474 H   0  0  0  0  0  0  0  0  0  0  0  0
    5.2267    0.7999    4.4484 H   0  0  0  0  0  0  0  0  0  0  0  0
    6.3884    0.8378    2.2578 H   0  0  0  0  0  0  0  0  0  0  0  0
    5.0983    0.6259    0.1557 H   0  0  0  0  0  0  0  0  0  0  0  0
  1  2  2  0  0  0  0
  2  3  1  0  0  0  0
  2 14  1  0  0  0  0
  3  4  1  0  0  0  0
  3 20  1  0  0  0  0
  4  5  1  0  0  0  0
  4 13  2  0  0  0  0
  5  6  2  0  0  0  0
  5 21  1  0  0  0  0
  6  7  1  0  0  0  0
  6 22  1  0  0  0  0
  7  8  2  0  0  0  0
  7 23  1  0  0  0  0
  8  9  1  0  0  0  0
  8 13  1  0  0  0  0
  9 10  2  0  0  0  0
  9 24  1  0  0  0  0
 10 11  1  0  0  0  0
 10 25  1  0  0  0  0
 11 12  2  0  0  0  0
 11 26  1  0  0  0  0
 12 13  1  0  0  0  0
 14 15  1  0  0  0  0
 14 19  2  0  0  0  0
 15 16  2  0  0  0  0
 15 27  1  0  0  0  0
 16 17  1  0  0  0  0
 16 28  1  0  0  0  0
 17 18  2  0  0  0  0
 17 29  1  0  0  0  0
 18 19  1  0  0  0  0
 18 30  1  0  0  0  0
 19 31  1  0  0  0  0
M  END
$$$$
