CHEMBL3975323
 OpenBabel04072215373D

 74 77  0  0  0  0  0  0  0  0999 V2000
    4.9162    5.1590   -5.6157 C   0  0  0  0  0  0  0  0  0  0  0  0
    4.8410    4.0408   -4.7330 O   0  0  0  0  0  0  0  0  0  0  0  0
    3.7886    4.0371   -3.8694 C   0  0  0  0  0  0  0  0  0  0  0  0
    2.9429    4.9179   -3.7789 O   0  0  0  0  0  0  0  0  0  0  0  0
    3.8022    2.7718   -3.0179 C   0  0  0  0  0  0  0  0  0  0  0  0
    4.5714    2.9371   -1.7585 N   0  0  0  0  0  0  0  0  0  0  0  0
    4.0051    3.9959   -0.8901 C   0  0  0  0  0  0  0  0  0  0  0  0
    2.5505    3.7808   -0.4333 C   0  0  0  0  0  0  0  0  0  0  0  0
    2.0921    4.8028    0.4702 N   0  0  0  0  0  0  0  0  0  0  0  0
    1.0910    4.5363    1.3847 C   0  0  0  0  0  0  0  0  0  0  0  0
    0.6159    3.4132    1.5175 O   0  0  0  0  0  0  0  0  0  0  0  0
    0.6734    5.6639    2.1953 C   0  0  0  0  0  0  0  0  0  0  0  0
   -0.2282    5.6395    3.2399 C   0  0  0  0  0  0  0  0  0  0  0  0
   -0.3079    6.8801    3.9252 C   0  0  0  0  0  0  0  0  0  0  0  0
   -1.0503    7.1165    5.0390 N   0  0  0  0  0  0  0  0  0  0  0  0
   -0.9150    8.3408    5.5830 C   0  0  0  0  0  0  0  0  0  0  0  0
   -0.1261    9.3546    5.0789 C   0  0  0  0  0  0  0  0  0  0  0  0
    0.5539    9.1354    3.8877 C   0  0  0  0  0  0  0  0  0  0  0  0
    1.3575   10.0749    3.2895 O   0  0  0  0  0  0  0  0  0  0  0  0
    0.9179   11.3707    3.1919 C   0  0  0  0  0  0  0  0  0  0  0  0
    1.9307   12.3173    3.0732 C   0  0  0  0  0  0  0  0  0  0  0  0
    1.6136   13.6692    2.9765 C   0  0  0  0  0  0  0  0  0  0  0  0
    0.2784   14.0896    2.9727 C   0  0  0  0  0  0  0  0  0  0  0  0
   -0.0852   15.4498    2.8381 N   0  0  0  0  0  0  0  0  0  0  0  0
    0.7054   16.3621    2.1781 C   0  0  0  0  0  0  0  0  0  0  0  0
    1.7325   16.0636    1.5722 O   0  0  0  0  0  0  0  0  0  0  0  0
    0.2354   17.6620    2.2882 N   0  0  0  0  0  0  0  0  0  0  0  0
    1.0334   18.6841    1.7104 C   0  0  0  0  0  0  0  0  0  0  0  0
    1.4896   18.5740    0.3911 C   0  0  0  0  0  0  0  0  0  0  0  0
    2.4692   19.4440   -0.0985 C   0  0  0  0  0  0  0  0  0  0  0  0
    3.0285   19.2519   -1.4776 C   0  0  0  0  0  0  0  0  0  0  0  0
    2.9748   20.4408    0.7461 C   0  0  0  0  0  0  0  0  0  0  0  0
    2.4714   20.5950    2.0418 C   0  0  0  0  0  0  0  0  0  0  0  0
    1.4879   19.7295    2.5089 C   0  0  0  0  0  0  0  0  0  0  0  0
    1.0577   19.8394    3.7755 F   0  0  0  0  0  0  0  0  0  0  0  0
   -0.7251   13.1294    3.0945 C   0  0  0  0  0  0  0  0  0  0  0  0
   -2.0126   13.5088    3.1128 F   0  0  0  0  0  0  0  0  0  0  0  0
   -0.4188   11.7742    3.1675 C   0  0  0  0  0  0  0  0  0  0  0  0
    0.4935    7.8515    3.3332 C   0  0  0  0  0  0  0  0  0  0  0  0
    1.3045    7.2321    1.9562 S   0  0  0  0  0  0  0  0  0  0  0  0
    4.6352    1.6567   -1.0041 C   0  0  0  0  0  0  0  0  0  0  0  0
    5.3183    0.5435   -1.7780 C   0  0  0  0  0  0  0  0  0  0  0  0
    4.7316   -0.2171   -2.5467 O   0  0  0  0  0  0  0  0  0  0  0  0
    6.6542    0.5091   -1.5237 O   0  0  0  0  0  0  0  0  0  0  0  0
    7.3422   -0.5128   -2.2439 C   0  0  0  0  0  0  0  0  0  0  0  0
    5.9659    5.3075   -5.8849 H   0  0  0  0  0  0  0  0  0  0  0  0
    4.5470    6.0838   -5.1614 H   0  0  0  0  0  0  0  0  0  0  0  0
    4.3532    4.9295   -6.5245 H   0  0  0  0  0  0  0  0  0  0  0  0
    4.2429    1.9909   -3.6472 H   0  0  0  0  0  0  0  0  0  0  0  0
    2.7654    2.4643   -2.8388 H   0  0  0  0  0  0  0  0  0  0  0  0
    4.0924    4.9700   -1.3885 H   0  0  0  0  0  0  0  0  0  0  0  0
    4.6471    4.0987   -0.0032 H   0  0  0  0  0  0  0  0  0  0  0  0
    2.4550    2.8196    0.0789 H   0  0  0  0  0  0  0  0  0  0  0  0
    1.8598    3.7804   -1.2810 H   0  0  0  0  0  0  0  0  0  0  0  0
    2.2904    5.7756    0.2644 H   0  0  0  0  0  0  0  0  0  0  0  0
   -0.7623    4.7464    3.5408 H   0  0  0  0  0  0  0  0  0  0  0  0
   -1.4934    8.4978    6.4897 H   0  0  0  0  0  0  0  0  0  0  0  0
   -0.0610   10.2999    5.6038 H   0  0  0  0  0  0  0  0  0  0  0  0
    2.9737   12.0081    3.0523 H   0  0  0  0  0  0  0  0  0  0  0  0
    2.4363   14.3759    2.9075 H   0  0  0  0  0  0  0  0  0  0  0  0
   -1.0773   15.6620    2.8855 H   0  0  0  0  0  0  0  0  0  0  0  0
   -0.1344   17.8773    3.2070 H   0  0  0  0  0  0  0  0  0  0  0  0
    1.1271   17.7624   -0.2378 H   0  0  0  0  0  0  0  0  0  0  0  0
    2.4429   18.5233   -2.0495 H   0  0  0  0  0  0  0  0  0  0  0  0
    4.0583   18.8851   -1.4187 H   0  0  0  0  0  0  0  0  0  0  0  0
    3.0099   20.1962   -2.0295 H   0  0  0  0  0  0  0  0  0  0  0  0
    3.7790   21.0880    0.4033 H   0  0  0  0  0  0  0  0  0  0  0  0
    2.8753   21.3543    2.7032 H   0  0  0  0  0  0  0  0  0  0  0  0
   -1.2354   11.0604    3.2014 H   0  0  0  0  0  0  0  0  0  0  0  0
    3.6410    1.2815   -0.7364 H   0  0  0  0  0  0  0  0  0  0  0  0
    5.1825    1.7948   -0.0626 H   0  0  0  0  0  0  0  0  0  0  0  0
    8.3798   -0.5303   -1.9023 H   0  0  0  0  0  0  0  0  0  0  0  0
    7.3287   -0.2907   -3.3154 H   0  0  0  0  0  0  0  0  0  0  0  0
    6.8974   -1.4940   -2.0468 H   0  0  0  0  0  0  0  0  0  0  0  0
  1  2  1  0  0  0  0
  1 46  1  0  0  0  0
  1 47  1  0  0  0  0
  1 48  1  0  0  0  0
  2  3  1  0  0  0  0
  3  4  2  0  0  0  0
  3  5  1  0  0  0  0
  5  6  1  0  0  0  0
  5 49  1  0  0  0  0
  5 50  1  0  0  0  0
  6  7  1  0  0  0  0
  6 41  1  0  0  0  0
  7  8  1  0  0  0  0
  7 51  1  0  0  0  0
  7 52  1  0  0  0  0
  8  9  1  0  0  0  0
  8 53  1  0  0  0  0
  8 54  1  0  0  0  0
  9 10  1  0  0  0  0
  9 55  1  0  0  0  0
 10 11  2  0  0  0  0
 10 12  1  0  0  0  0
 12 13  2  0  0  0  0
 12 40  1  0  0  0  0
 13 14  1  0  0  0  0
 13 56  1  0  0  0  0
 14 15  1  0  0  0  0
 14 39  2  0  0  0  0
 15 16  2  0  0  0  0
 16 17  1  0  0  0  0
 16 57  1  0  0  0  0
 17 18  2  0  0  0  0
 17 58  1  0  0  0  0
 18 19  1  0  0  0  0
 18 39  1  0  0  0  0
 19 20  1  0  0  0  0
 20 21  1  0  0  0  0
 20 38  2  0  0  0  0
 21 22  2  0  0  0  0
 21 59  1  0  0  0  0
 22 23  1  0  0  0  0
 22 60  1  0  0  0  0
 23 24  1  0  0  0  0
 23 36  2  0  0  0  0
 24 25  1  0  0  0  0
 24 61  1  0  0  0  0
 25 26  2  0  0  0  0
 25 27  1  0  0  0  0
 27 28  1  0  0  0  0
 27 62  1  0  0  0  0
 28 29  1  0  0  0  0
 28 34  2  0  0  0  0
 29 30  2  0  0  0  0
 29 63  1  0  0  0  0
 30 31  1  0  0  0  0
 30 32  1  0  0  0  0
 31 64  1  0  0  0  0
 31 65  1  0  0  0  0
 31 66  1  0  0  0  0
 32 33  2  0  0  0  0
 32 67  1  0  0  0  0
 33 34  1  0  0  0  0
 33 68  1  0  0  0  0
 34 35  1  0  0  0  0
 36 37  1  0  0  0  0
 36 38  1  0  0  0  0
 38 69  1  0  0  0  0
 39 40  1  0  0  0  0
 41 42  1  0  0  0  0
 41 70  1  0  0  0  0
 41 71  1  0  0  0  0
 42 43  2  0  0  0  0
 42 44  1  0  0  0  0
 44 45  1  0  0  0  0
 45 72  1  0  0  0  0
 45 73  1  0  0  0  0
 45 74  1  0  0  0  0
M  END
$$$$
