CHEMBL3973587
 OpenBabel04072215373D

 68 72  0  0  1  0  0  0  0  0999 V2000
    0.7262   -1.6443    3.7197 C   0  0  0  0  0  0  0  0  0  0  0  0
    2.0866   -1.3696    4.0673 O   0  0  0  0  0  0  0  0  0  0  0  0
    2.9855   -1.2242    3.0365 C   0  0  0  0  0  0  0  0  0  0  0  0
    2.6513   -1.3488    1.6865 C   0  0  0  0  0  0  0  0  0  0  0  0
    3.6179   -1.1244    0.7127 C   0  0  0  0  0  0  0  0  0  0  0  0
    3.4152   -1.1618   -0.6411 O   0  0  0  0  0  0  0  0  0  0  0  0
    2.1303   -1.5739   -1.0934 C   0  0  0  0  0  0  0  0  0  0  0  0
    4.9239   -0.7885    1.0926 C   0  0  0  0  0  0  0  0  0  0  0  0
    5.3098   -0.6475    2.4353 C   0  0  0  0  0  0  0  0  0  0  0  0
    6.5711   -0.1054    2.8003 N   0  0  0  0  0  0  0  0  0  0  0  0
    7.1560    0.9258    1.8434 C   0  0  0  0  0  0  0  0  0  0  0  0
    6.2684    2.1800    1.5661 C   0  0  0  0  0  0  0  0  0  0  0  0
    6.8620    3.1890    0.6371 N   0  0  0  0  0  0  0  0  0  0  0  0
    5.9971    4.3754    0.4768 C   0  0  0  0  0  0  0  0  0  0  0  0
    4.7306    4.0921   -0.3369 C   0  0  0  0  0  0  0  0  0  0  0  0
    5.0649    3.5068   -1.7132 C   0  0  0  0  0  0  0  0  0  0  0  0
    6.0426    2.3280   -1.6154 C   0  0  3  0  0  0  0  0  0  0  0  0
    6.5261    1.9397   -2.9585 C   0  0  0  0  0  0  0  0  0  0  0  0
    6.9075    1.6381   -3.9996 N   0  0  0  0  0  0  0  0  0  0  0  0
    7.2301    2.6812   -0.7034 C   0  0  0  0  0  0  0  0  0  0  0  0
    7.6640   -0.7193    3.5256 C   0  0  0  0  0  0  0  0  0  0  0  0
    8.3865    0.1624    4.3253 C   0  0  0  0  0  0  0  0  0  0  0  0
    9.7135   -0.0793    4.6112 C   0  0  0  0  0  0  0  0  0  0  0  0
   10.3179   -1.2668    4.2689 C   0  0  0  0  0  0  0  0  0  0  0  0
   11.6380   -1.2627    4.4703 N   0  0  0  0  0  0  0  0  0  0  0  0
   12.2646   -2.4334    4.3347 C   0  0  0  0  0  0  0  0  0  0  0  0
   11.5858   -3.6073    4.0782 C   0  0  0  0  0  0  0  0  0  0  0  0
   12.3499   -4.8309    4.3036 C   0  0  0  0  0  0  0  0  0  0  0  0
   12.3969   -5.6775    5.4450 C   0  0  0  0  0  0  0  0  0  0  0  0
   13.4102   -6.5547    5.4078 N   0  0  0  0  0  0  0  0  0  0  0  0
   14.0263   -6.2695    4.2488 N   0  0  0  0  0  0  0  0  0  0  0  0
   15.0133   -7.1693    3.6975 C   0  0  0  0  0  0  0  0  0  0  0  0
   13.5314   -5.1440    3.6470 C   0  0  0  0  0  0  0  0  0  0  0  0
   10.2411   -3.5941    3.7505 N   0  0  0  0  0  0  0  0  0  0  0  0
    9.5702   -2.3628    3.7842 C   0  0  0  0  0  0  0  0  0  0  0  0
    8.2166   -2.0200    3.3514 C   0  0  0  0  0  0  0  0  0  0  0  0
    4.3118   -0.8908    3.4025 C   0  0  0  0  0  0  0  0  0  0  0  0
    0.1284   -1.6495    4.6372 H   0  0  0  0  0  0  0  0  0  0  0  0
    0.6295   -2.6336    3.2576 H   0  0  0  0  0  0  0  0  0  0  0  0
    0.3068   -0.8684    3.0678 H   0  0  0  0  0  0  0  0  0  0  0  0
    1.6414   -1.6044    1.3945 H   0  0  0  0  0  0  0  0  0  0  0  0
    2.1553   -1.5986   -2.1868 H   0  0  0  0  0  0  0  0  0  0  0  0
    1.3569   -0.8580   -0.7946 H   0  0  0  0  0  0  0  0  0  0  0  0
    1.8915   -2.5830   -0.7417 H   0  0  0  0  0  0  0  0  0  0  0  0
    5.6386   -0.6106    0.2963 H   0  0  0  0  0  0  0  0  0  0  0  0
    7.4341    0.4167    0.9165 H   0  0  0  0  0  0  0  0  0  0  0  0
    8.0957    1.3390    2.2334 H   0  0  0  0  0  0  0  0  0  0  0  0
    6.1097    2.6827    2.5306 H   0  0  0  0  0  0  0  0  0  0  0  0
    5.2815    1.8768    1.2132 H   0  0  0  0  0  0  0  0  0  0  0  0
    6.5713    5.1611   -0.0365 H   0  0  0  0  0  0  0  0  0  0  0  0
    5.7374    4.8009    1.4531 H   0  0  0  0  0  0  0  0  0  0  0  0
    4.1578    5.0196   -0.4638 H   0  0  0  0  0  0  0  0  0  0  0  0
    4.0762    3.4018    0.2062 H   0  0  0  0  0  0  0  0  0  0  0  0
    5.4922    4.3067   -2.3369 H   0  0  0  0  0  0  0  0  0  0  0  0
    4.1386    3.1943   -2.2098 H   0  0  0  0  0  0  0  0  0  0  0  0
    5.5053    1.4708   -1.1781 H   0  0  0  0  0  0  0  0  0  0  0  0
    7.8379    3.4595   -1.1916 H   0  0  0  0  0  0  0  0  0  0  0  0
    7.9185    1.8334   -0.6148 H   0  0  0  0  0  0  0  0  0  0  0  0
    7.9650    1.1292    4.5940 H   0  0  0  0  0  0  0  0  0  0  0  0
   10.3075    0.6945    5.0775 H   0  0  0  0  0  0  0  0  0  0  0  0
   13.3340   -2.4075    4.5095 H   0  0  0  0  0  0  0  0  0  0  0  0
   11.7662   -5.6666    6.3254 H   0  0  0  0  0  0  0  0  0  0  0  0
   15.1534   -8.0258    4.3626 H   0  0  0  0  0  0  0  0  0  0  0  0
   15.9579   -6.6379    3.5590 H   0  0  0  0  0  0  0  0  0  0  0  0
   14.6286   -7.5163    2.7342 H   0  0  0  0  0  0  0  0  0  0  0  0
   14.0437   -4.6912    2.8093 H   0  0  0  0  0  0  0  0  0  0  0  0
    7.6464   -2.7814    2.8186 H   0  0  0  0  0  0  0  0  0  0  0  0
    4.5374   -0.7502    4.4577 H   0  0  0  0  0  0  0  0  0  0  0  0
  1  2  1  0  0  0  0
  1 38  1  0  0  0  0
  1 39  1  0  0  0  0
  1 40  1  0  0  0  0
  2  3  1  0  0  0  0
  3  4  1  0  0  0  0
  3 37  2  0  0  0  0
  4  5  2  0  0  0  0
  4 41  1  0  0  0  0
  5  6  1  0  0  0  0
  5  8  1  0  0  0  0
  6  7  1  0  0  0  0
  7 42  1  0  0  0  0
  7 43  1  0  0  0  0
  7 44  1  0  0  0  0
  8  9  2  0  0  0  0
  8 45  1  0  0  0  0
  9 10  1  0  0  0  0
  9 37  1  0  0  0  0
 10 11  1  0  0  0  0
 10 21  1  0  0  0  0
 11 12  1  0  0  0  0
 11 46  1  0  0  0  0
 11 47  1  0  0  0  0
 12 13  1  0  0  0  0
 12 48  1  0  0  0  0
 12 49  1  0  0  0  0
 13 14  1  0  0  0  0
 13 20  1  0  0  0  0
 14 15  1  0  0  0  0
 14 50  1  0  0  0  0
 14 51  1  0  0  0  0
 15 16  1  0  0  0  0
 15 52  1  0  0  0  0
 15 53  1  0  0  0  0
 16 17  1  0  0  0  0
 16 54  1  0  0  0  0
 16 55  1  0  0  0  0
 17 18  1  0  0  0  0
 17 20  1  0  0  0  0
 17 56  1  0  0  0  0
 18 19  3  0  0  0  0
 20 57  1  0  0  0  0
 20 58  1  0  0  0  0
 21 22  1  0  0  0  0
 21 36  2  0  0  0  0
 22 23  2  0  0  0  0
 22 59  1  0  0  0  0
 23 24  1  0  0  0  0
 23 60  1  0  0  0  0
 24 25  1  0  0  0  0
 24 35  2  0  0  0  0
 25 26  2  0  0  0  0
 26 27  1  0  0  0  0
 26 61  1  0  0  0  0
 27 28  1  0  0  0  0
 27 34  2  0  0  0  0
 28 29  1  0  0  0  0
 28 33  2  0  0  0  0
 29 30  2  0  0  0  0
 29 62  1  0  0  0  0
 30 31  1  0  0  0  0
 31 32  1  0  0  0  0
 31 33  1  0  0  0  0
 32 63  1  0  0  0  0
 32 64  1  0  0  0  0
 32 65  1  0  0  0  0
 33 66  1  0  0  0  0
 34 35  1  0  0  0  0
 35 36  1  0  0  0  0
 36 67  1  0  0  0  0
 37 68  1  0  0  0  0
M  END
$$$$
