CHEMBL3924098
 OpenBabel04072215373D

 55 58  0  0  1  0  0  0  0  0999 V2000
    3.3001   -1.3564    0.2927 C   0  0  0  0  0  0  0  0  0  0  0  0
    2.5907   -0.1319    0.1341 O   0  0  0  0  0  0  0  0  0  0  0  0
    3.2058    0.9225   -0.4808 C   0  0  0  0  0  0  0  0  0  0  0  0
    4.2382    0.7478   -1.4092 C   0  0  0  0  0  0  0  0  0  0  0  0
    4.7868    1.8274   -2.1366 C   0  0  0  0  0  0  0  0  0  0  0  0
    5.7943    1.6850   -3.1130 C   0  0  0  0  0  0  0  0  0  0  0  0
    6.1738    0.3722   -3.5058 N   0  0  0  0  0  0  0  0  0  0  0  0
    7.4450   -0.1134   -3.8869 C   0  0  0  0  0  0  0  0  0  0  0  0
    8.5997    0.5185   -3.4009 C   0  0  0  0  0  0  0  0  0  0  0  0
    9.8634   -0.0406   -3.5776 C   0  0  0  0  0  0  0  0  0  0  0  0
   10.0010   -1.2479   -4.2569 C   0  0  0  0  0  0  0  0  0  0  0  0
   11.7570   -1.9773   -4.3536 Br  0  0  0  0  0  0  0  0  0  0  0  0
    8.8727   -1.8850   -4.7982 C   0  0  0  0  0  0  0  0  0  0  0  0
    9.0744   -3.3602   -5.6990 Cl  0  0  0  0  0  0  0  0  0  0  0  0
    7.5798   -1.3335   -4.6043 C   0  0  0  0  0  0  0  0  0  0  0  0
    6.3415   -2.0141   -5.1443 C   0  0  0  0  0  0  0  0  0  0  0  0
    6.3311    2.7382   -3.7490 N   0  0  0  0  0  0  0  0  0  0  0  0
    5.8222    3.9374   -3.4318 C   0  0  0  0  0  0  0  0  0  0  0  0
    4.8481    4.1807   -2.5447 N   0  0  0  0  0  0  0  0  0  0  0  0
    4.3400    3.1239   -1.8998 C   0  0  0  0  0  0  0  0  0  0  0  0
    3.3171    3.2947   -0.9637 C   0  0  0  0  0  0  0  0  0  0  0  0
    2.7343    2.2210   -0.2521 C   0  0  0  0  0  0  0  0  0  0  0  0
    1.7377    2.6381    0.5955 O   0  0  0  0  0  0  0  0  0  0  0  0
    1.1248    1.6998    1.4867 C   0  0  0  0  0  0  0  0  0  0  0  0
    0.0874    2.4258    2.3703 C   0  0  3  0  0  0  0  0  0  0  0  0
    0.7067    3.4448    3.3574 C   0  0  0  0  0  0  0  0  0  0  0  0
    1.3902    2.7987    4.4995 N   0  0  0  0  0  0  0  0  0  0  0  0
    1.8791    3.8042    5.4432 C   0  0  0  0  0  0  0  0  0  0  0  0
    0.4410    1.8861    5.1650 C   0  0  0  0  0  0  0  0  0  0  0  0
   -0.1233    0.8627    4.1704 C   0  0  0  0  0  0  0  0  0  0  0  0
   -0.7759    1.4987    3.0637 O   0  0  0  0  0  0  0  0  0  0  0  0
    2.5641   -2.1357    0.5118 H   0  0  0  0  0  0  0  0  0  0  0  0
    3.9858   -1.2819    1.1419 H   0  0  0  0  0  0  0  0  0  0  0  0
    3.8313   -1.6918   -0.6003 H   0  0  0  0  0  0  0  0  0  0  0  0
    4.6456   -0.2339   -1.6089 H   0  0  0  0  0  0  0  0  0  0  0  0
    5.3925   -0.0645   -3.9795 H   0  0  0  0  0  0  0  0  0  0  0  0
    8.5210    1.4460   -2.8374 H   0  0  0  0  0  0  0  0  0  0  0  0
   10.7285    0.4657   -3.1570 H   0  0  0  0  0  0  0  0  0  0  0  0
    6.5359   -2.9456   -5.6797 H   0  0  0  0  0  0  0  0  0  0  0  0
    5.8309   -1.3497   -5.8499 H   0  0  0  0  0  0  0  0  0  0  0  0
    5.6630   -2.2658   -4.3229 H   0  0  0  0  0  0  0  0  0  0  0  0
    6.2370    4.7930   -3.9515 H   0  0  0  0  0  0  0  0  0  0  0  0
    2.9493    4.3027   -0.7800 H   0  0  0  0  0  0  0  0  0  0  0  0
    1.8834    1.2196    2.1133 H   0  0  0  0  0  0  0  0  0  0  0  0
    0.5887    0.9364    0.9103 H   0  0  0  0  0  0  0  0  0  0  0  0
   -0.5687    2.9951    1.7001 H   0  0  0  0  0  0  0  0  0  0  0  0
   -0.1043    4.0807    3.7397 H   0  0  0  0  0  0  0  0  0  0  0  0
    1.4074    4.0971    2.8235 H   0  0  0  0  0  0  0  0  0  0  0  0
    2.5958    4.4729    4.9544 H   0  0  0  0  0  0  0  0  0  0  0  0
    2.4097    3.3242    6.2732 H   0  0  0  0  0  0  0  0  0  0  0  0
    1.0693    4.4136    5.8613 H   0  0  0  0  0  0  0  0  0  0  0  0
   -0.3899    2.4564    5.6017 H   0  0  0  0  0  0  0  0  0  0  0  0
    0.9438    1.3497    5.9781 H   0  0  0  0  0  0  0  0  0  0  0  0
   -0.8706    0.2412    4.6754 H   0  0  0  0  0  0  0  0  0  0  0  0
    0.6595    0.1909    3.8013 H   0  0  0  0  0  0  0  0  0  0  0  0
  1  2  1  0  0  0  0
  1 32  1  0  0  0  0
  1 33  1  0  0  0  0
  1 34  1  0  0  0  0
  2  3  1  0  0  0  0
  3  4  1  0  0  0  0
  3 22  2  0  0  0  0
  4  5  2  0  0  0  0
  4 35  1  0  0  0  0
  5  6  1  0  0  0  0
  5 20  1  0  0  0  0
  6  7  1  0  0  0  0
  6 17  2  0  0  0  0
  7  8  1  0  0  0  0
  7 36  1  0  0  0  0
  8  9  1  0  0  0  0
  8 15  2  0  0  0  0
  9 10  2  0  0  0  0
  9 37  1  0  0  0  0
 10 11  1  0  0  0  0
 10 38  1  0  0  0  0
 11 12  1  0  0  0  0
 11 13  2  0  0  0  0
 13 14  1  0  0  0  0
 13 15  1  0  0  0  0
 15 16  1  0  0  0  0
 16 39  1  0  0  0  0
 16 40  1  0  0  0  0
 16 41  1  0  0  0  0
 17 18  1  0  0  0  0
 18 19  2  0  0  0  0
 18 42  1  0  0  0  0
 19 20  1  0  0  0  0
 20 21  2  0  0  0  0
 21 22  1  0  0  0  0
 21 43  1  0  0  0  0
 22 23  1  0  0  0  0
 23 24  1  0  0  0  0
 24 25  1  0  0  0  0
 24 44  1  0  0  0  0
 24 45  1  0  0  0  0
 25 26  1  0  0  0  0
 25 31  1  0  0  0  0
 25 46  1  0  0  0  0
 26 27  1  0  0  0  0
 26 47  1  0  0  0  0
 26 48  1  0  0  0  0
 27 28  1  0  0  0  0
 27 29  1  0  0  0  0
 28 49  1  0  0  0  0
 28 50  1  0  0  0  0
 28 51  1  0  0  0  0
 29 30  1  0  0  0  0
 29 52  1  0  0  0  0
 29 53  1  0  0  0  0
 30 31  1  0  0  0  0
 30 54  1  0  0  0  0
 30 55  1  0  0  0  0
M  END
$$$$
