CHEMBL3403519
 OpenBabel04072215363D

 41 43  0  0  0  0  0  0  0  0999 V2000
    0.8621    0.8917    0.0221 C   0  0  0  0  0  0  0  0  0  0  0  0
    2.3179    1.3090   -0.0705 C   0  0  0  0  0  0  0  0  0  0  0  0
    3.0187    0.7638    1.0481 O   0  0  0  0  0  0  0  0  0  0  0  0
    4.3401    1.0987    1.1614 C   0  0  0  0  0  0  0  0  0  0  0  0
    5.0494    1.9088    0.2825 C   0  0  0  0  0  0  0  0  0  0  0  0
    6.4046    2.1682    0.5083 C   0  0  0  0  0  0  0  0  0  0  0  0
    7.1066    1.5952    1.5845 C   0  0  0  0  0  0  0  0  0  0  0  0
    8.4953    1.7828    1.6963 N   0  0  0  0  0  0  0  0  0  0  0  0
    9.1013    1.9017    3.0214 C   0  0  0  0  0  0  0  0  0  0  0  0
    9.4278    1.8334    0.6363 C   0  0  0  0  0  0  0  0  0  0  0  0
   10.5608    2.5827    0.7581 N   0  0  0  0  0  0  0  0  0  0  0  0
   11.4128    2.7102   -0.2837 C   0  0  0  0  0  0  0  0  0  0  0  0
   12.5901    3.6176   -0.0897 C   0  0  0  0  0  0  0  0  0  0  0  0
   11.2969    2.1285   -1.4858 N   0  0  0  0  0  0  0  0  0  0  0  0
   10.2082    1.3567   -1.5648 C   0  0  0  0  0  0  0  0  0  0  0  0
    9.8761    0.6593   -2.6924 O   0  0  0  0  0  0  0  0  0  0  0  0
    8.7223   -0.0141   -2.4282 C   0  0  0  0  0  0  0  0  0  0  0  0
    8.1406   -0.8244   -3.5152 C   0  0  0  0  0  0  0  0  0  0  0  0
    8.3225    0.2261   -1.1351 C   0  0  0  0  0  0  0  0  0  0  0  0
    9.2565    1.1464   -0.5818 C   0  0  0  0  0  0  0  0  0  0  0  0
    6.3697    0.8054    2.4746 C   0  0  0  0  0  0  0  0  0  0  0  0
    5.0037    0.5611    2.2653 C   0  0  0  0  0  0  0  0  0  0  0  0
    0.2938    1.2736   -0.8299 H   0  0  0  0  0  0  0  0  0  0  0  0
    0.4122    1.2726    0.9443 H   0  0  0  0  0  0  0  0  0  0  0  0
    0.7726   -0.1980    0.0482 H   0  0  0  0  0  0  0  0  0  0  0  0
    2.3688    2.4045   -0.0582 H   0  0  0  0  0  0  0  0  0  0  0  0
    2.7425    0.9230   -1.0042 H   0  0  0  0  0  0  0  0  0  0  0  0
    4.5921    2.3506   -0.5959 H   0  0  0  0  0  0  0  0  0  0  0  0
    6.9233    2.8192   -0.1932 H   0  0  0  0  0  0  0  0  0  0  0  0
    8.3641    1.9428    3.8299 H   0  0  0  0  0  0  0  0  0  0  0  0
    9.6894    2.8229    3.1116 H   0  0  0  0  0  0  0  0  0  0  0  0
    9.7594    1.0465    3.2161 H   0  0  0  0  0  0  0  0  0  0  0  0
   12.5890    4.0571    0.9130 H   0  0  0  0  0  0  0  0  0  0  0  0
   12.5582    4.4310   -0.8215 H   0  0  0  0  0  0  0  0  0  0  0  0
   13.5208    3.0582   -0.2214 H   0  0  0  0  0  0  0  0  0  0  0  0
    8.7599   -0.7975   -4.4160 H   0  0  0  0  0  0  0  0  0  0  0  0
    7.1450   -0.4482   -3.7729 H   0  0  0  0  0  0  0  0  0  0  0  0
    8.0376   -1.8665   -3.1974 H   0  0  0  0  0  0  0  0  0  0  0  0
    7.4458   -0.1907   -0.6588 H   0  0  0  0  0  0  0  0  0  0  0  0
    6.8517    0.3241    3.3207 H   0  0  0  0  0  0  0  0  0  0  0  0
    4.4602   -0.0726    2.9621 H   0  0  0  0  0  0  0  0  0  0  0  0
  1  2  1  0  0  0  0
  1 23  1  0  0  0  0
  1 24  1  0  0  0  0
  1 25  1  0  0  0  0
  2  3  1  0  0  0  0
  2 26  1  0  0  0  0
  2 27  1  0  0  0  0
  3  4  1  0  0  0  0
  4  5  1  0  0  0  0
  4 22  2  0  0  0  0
  5  6  2  0  0  0  0
  5 28  1  0  0  0  0
  6  7  1  0  0  0  0
  6 29  1  0  0  0  0
  7  8  1  0  0  0  0
  7 21  2  0  0  0  0
  8  9  1  0  0  0  0
  8 10  1  0  0  0  0
  9 30  1  0  0  0  0
  9 31  1  0  0  0  0
  9 32  1  0  0  0  0
 10 11  1  0  0  0  0
 10 20  2  0  0  0  0
 11 12  2  0  0  0  0
 12 13  1  0  0  0  0
 12 14  1  0  0  0  0
 13 33  1  0  0  0  0
 13 34  1  0  0  0  0
 13 35  1  0  0  0  0
 14 15  2  0  0  0  0
 15 16  1  0  0  0  0
 15 20  1  0  0  0  0
 16 17  1  0  0  0  0
 17 18  1  0  0  0  0
 17 19  2  0  0  0  0
 18 36  1  0  0  0  0
 18 37  1  0  0  0  0
 18 38  1  0  0  0  0
 19 20  1  0  0  0  0
 19 39  1  0  0  0  0
 21 22  1  0  0  0  0
 21 40  1  0  0  0  0
 22 41  1  0  0  0  0
M  END
$$$$
