CHEMBL3955824
 OpenBabel04072215373D

 49 52  0  0  1  0  0  0  0  0999 V2000
    1.4755    0.6355   -1.4812 C   0  0  0  0  0  0  0  0  0  0  0  0
    2.8305    0.6119   -2.0304 N   0  0  0  0  0  0  0  0  0  0  0  0
    3.0070    1.6042   -3.1114 C   0  0  0  0  0  0  0  0  0  0  0  0
    2.3140    1.2333   -4.4337 C   0  0  0  0  0  0  0  0  0  0  0  0
    2.6935   -0.0722   -4.8791 O   0  0  0  0  0  0  0  0  0  0  0  0
    2.4162   -1.0623   -3.8681 C   0  0  3  0  0  0  0  0  0  0  0  0
    2.8618   -2.4060   -4.4230 C   0  0  0  0  0  0  0  0  0  0  0  0
    2.5587   -3.4754   -3.5234 O   0  0  0  0  0  0  0  0  0  0  0  0
    2.9596   -4.7176   -3.9536 C   0  0  0  0  0  0  0  0  0  0  0  0
    3.5692   -4.9403   -5.1933 C   0  0  0  0  0  0  0  0  0  0  0  0
    3.9944   -6.1873   -5.5983 C   0  0  0  0  0  0  0  0  0  0  0  0
    4.5949   -6.2653   -6.7860 N   0  0  0  0  0  0  0  0  0  0  0  0
    5.0473   -7.4632   -7.1454 C   0  0  0  0  0  0  0  0  0  0  0  0
    4.9449   -8.5795   -6.4253 N   0  0  0  0  0  0  0  0  0  0  0  0
    4.3286   -8.4818   -5.2288 C   0  0  0  0  0  0  0  0  0  0  0  0
    4.2191   -9.6549   -4.4436 N   0  0  0  0  0  0  0  0  0  0  0  0
    5.1772  -10.6905   -4.4241 C   0  0  0  0  0  0  0  0  0  0  0  0
    4.7848  -12.0007   -4.1416 C   0  0  0  0  0  0  0  0  0  0  0  0
    5.7428  -13.0211   -4.0434 C   0  0  0  0  0  0  0  0  0  0  0  0
    7.1007  -12.7312   -4.1994 C   0  0  0  0  0  0  0  0  0  0  0  0
    8.2238  -14.0329   -4.0411 Cl  0  0  0  0  0  0  0  0  0  0  0  0
    7.5042  -11.4208   -4.4568 C   0  0  0  0  0  0  0  0  0  0  0  0
    9.1636  -10.9754   -4.6384 Cl  0  0  0  0  0  0  0  0  0  0  0  0
    6.5465  -10.4101   -4.5601 C   0  0  0  0  0  0  0  0  0  0  0  0
    3.8012   -7.2765   -4.7443 C   0  0  0  0  0  0  0  0  0  0  0  0
    3.1704   -7.0818   -3.4878 C   0  0  0  0  0  0  0  0  0  0  0  0
    2.7587   -5.8059   -3.1023 C   0  0  0  0  0  0  0  0  0  0  0  0
    2.1721   -5.6140   -1.8835 O   0  0  0  0  0  0  0  0  0  0  0  0
    3.1649   -0.7281   -2.5618 C   0  0  0  0  0  0  0  0  0  0  0  0
    1.2654    1.6105   -1.0305 H   0  0  0  0  0  0  0  0  0  0  0  0
    1.3769   -0.1097   -0.6839 H   0  0  0  0  0  0  0  0  0  0  0  0
    0.6976    0.4350   -2.2247 H   0  0  0  0  0  0  0  0  0  0  0  0
    4.0852    1.6867   -3.3025 H   0  0  0  0  0  0  0  0  0  0  0  0
    2.6791    2.5959   -2.7802 H   0  0  0  0  0  0  0  0  0  0  0  0
    2.6095    1.9417   -5.2146 H   0  0  0  0  0  0  0  0  0  0  0  0
    1.2230    1.2766   -4.3482 H   0  0  0  0  0  0  0  0  0  0  0  0
    1.3344   -1.1035   -3.6951 H   0  0  0  0  0  0  0  0  0  0  0  0
    3.9425   -2.3603   -4.6158 H   0  0  0  0  0  0  0  0  0  0  0  0
    2.3386   -2.5617   -5.3759 H   0  0  0  0  0  0  0  0  0  0  0  0
    3.7574   -4.1308   -5.8910 H   0  0  0  0  0  0  0  0  0  0  0  0
    5.5461   -7.5314   -8.1040 H   0  0  0  0  0  0  0  0  0  0  0  0
    3.2581   -9.9810   -4.4683 H   0  0  0  0  0  0  0  0  0  0  0  0
    3.7366  -12.2509   -4.0079 H   0  0  0  0  0  0  0  0  0  0  0  0
    5.4171  -14.0370   -3.8375 H   0  0  0  0  0  0  0  0  0  0  0  0
    6.8747   -9.3867   -4.7411 H   0  0  0  0  0  0  0  0  0  0  0  0
    3.0427   -7.9246   -2.8176 H   0  0  0  0  0  0  0  0  0  0  0  0
    2.1842   -6.4441   -1.3792 H   0  0  0  0  0  0  0  0  0  0  0  0
    4.2466   -0.7403   -2.7556 H   0  0  0  0  0  0  0  0  0  0  0  0
    2.9854   -1.4929   -1.7969 H   0  0  0  0  0  0  0  0  0  0  0  0
  1  2  1  0  0  0  0
  1 30  1  0  0  0  0
  1 31  1  0  0  0  0
  1 32  1  0  0  0  0
  2  3  1  0  0  0  0
  2 29  1  0  0  0  0
  3  4  1  0  0  0  0
  3 33  1  0  0  0  0
  3 34  1  0  0  0  0
  4  5  1  0  0  0  0
  4 35  1  0  0  0  0
  4 36  1  0  0  0  0
  5  6  1  0  0  0  0
  6  7  1  0  0  0  0
  6 29  1  0  0  0  0
  6 37  1  0  0  0  0
  7  8  1  0  0  0  0
  7 38  1  0  0  0  0
  7 39  1  0  0  0  0
  8  9  1  0  0  0  0
  9 10  1  0  0  0  0
  9 27  2  0  0  0  0
 10 11  2  0  0  0  0
 10 40  1  0  0  0  0
 11 12  1  0  0  0  0
 11 25  1  0  0  0  0
 12 13  2  0  0  0  0
 13 14  1  0  0  0  0
 13 41  1  0  0  0  0
 14 15  2  0  0  0  0
 15 16  1  0  0  0  0
 15 25  1  0  0  0  0
 16 17  1  0  0  0  0
 16 42  1  0  0  0  0
 17 18  1  0  0  0  0
 17 24  2  0  0  0  0
 18 19  2  0  0  0  0
 18 43  1  0  0  0  0
 19 20  1  0  0  0  0
 19 44  1  0  0  0  0
 20 21  1  0  0  0  0
 20 22  2  0  0  0  0
 22 23  1  0  0  0  0
 22 24  1  0  0  0  0
 24 45  1  0  0  0  0
 25 26  2  0  0  0  0
 26 27  1  0  0  0  0
 26 46  1  0  0  0  0
 27 28  1  0  0  0  0
 28 47  1  0  0  0  0
 29 48  1  0  0  0  0
 29 49  1  0  0  0  0
M  END
$$$$
