CHEMBL222067
 OpenBabel04072215363D

 51 54  0  0  0  0  0  0  0  0999 V2000
    2.4230    0.2556   -0.5057 C   0  0  0  0  0  0  0  0  0  0  0  0
    0.9494    0.1595   -0.2258 C   0  0  0  0  0  0  0  0  0  0  0  0
    0.1970    1.3504   -0.1840 C   0  0  0  0  0  0  0  0  0  0  0  0
   -1.1882    1.3222   -0.0215 C   0  0  0  0  0  0  0  0  0  0  0  0
   -1.8474    0.0971    0.0461 C   0  0  0  0  0  0  0  0  0  0  0  0
   -3.3233    0.0520    0.1603 C   0  0  0  0  0  0  0  0  0  0  0  0
   -3.9683    0.9602   -0.3495 O   0  0  0  0  0  0  0  0  0  0  0  0
   -3.8338   -1.0147    0.8933 N   0  0  0  0  0  0  0  0  0  0  0  0
   -5.1964   -1.2881    1.1162 C   0  0  0  0  0  0  0  0  0  0  0  0
   -6.2151   -0.7016    0.3649 C   0  0  0  0  0  0  0  0  0  0  0  0
   -7.5569   -0.9301    0.6779 C   0  0  0  0  0  0  0  0  0  0  0  0
   -7.9066   -1.7599    1.7494 C   0  0  0  0  0  0  0  0  0  0  0  0
   -9.3511   -1.9428    2.1442 C   0  0  0  0  0  0  0  0  0  0  0  0
  -10.2246   -1.2400    1.3703 F   0  0  0  0  0  0  0  0  0  0  0  0
   -9.7524   -3.2423    2.0732 F   0  0  0  0  0  0  0  0  0  0  0  0
   -9.5915   -1.5483    3.4261 F   0  0  0  0  0  0  0  0  0  0  0  0
   -6.8838   -2.4004    2.4634 C   0  0  0  0  0  0  0  0  0  0  0  0
   -5.5379   -2.1759    2.1412 C   0  0  0  0  0  0  0  0  0  0  0  0
   -1.1092   -1.0766   -0.0181 C   0  0  0  0  0  0  0  0  0  0  0  0
    0.2964   -1.0765   -0.0390 C   0  0  0  0  0  0  0  0  0  0  0  0
    0.9831   -2.2996    0.0888 N   0  0  0  0  0  0  0  0  0  0  0  0
    0.5590   -3.4428    0.8315 C   0  0  0  0  0  0  0  0  0  0  0  0
   -0.5927   -3.3536    1.5583 N   0  0  0  0  0  0  0  0  0  0  0  0
   -1.1106   -4.4582    2.1209 C   0  0  0  0  0  0  0  0  0  0  0  0
   -0.5191   -5.6937    2.0304 C   0  0  0  0  0  0  0  0  0  0  0  0
    0.6859   -5.7866    1.3398 C   0  0  0  0  0  0  0  0  0  0  0  0
    1.2613   -4.6620    0.7047 C   0  0  0  0  0  0  0  0  0  0  0  0
    2.5072   -4.7876   -0.0876 C   0  0  0  0  0  0  0  0  0  0  0  0
    2.8364   -5.9435   -0.7768 C   0  0  0  0  0  0  0  0  0  0  0  0
    3.9811   -5.9075   -1.5400 C   0  0  0  0  0  0  0  0  0  0  0  0
    4.7766   -4.8309   -1.6328 N   0  0  0  0  0  0  0  0  0  0  0  0
    4.3919   -3.7665   -0.9193 C   0  0  0  0  0  0  0  0  0  0  0  0
    3.3003   -3.6878   -0.1401 N   0  0  0  0  0  0  0  0  0  0  0  0
    2.7209    1.2901   -0.7184 H   0  0  0  0  0  0  0  0  0  0  0  0
    2.6740   -0.3314   -1.3964 H   0  0  0  0  0  0  0  0  0  0  0  0
    3.0141   -0.0932    0.3456 H   0  0  0  0  0  0  0  0  0  0  0  0
    0.6893    2.3164   -0.2818 H   0  0  0  0  0  0  0  0  0  0  0  0
   -1.7535    2.2497    0.0255 H   0  0  0  0  0  0  0  0  0  0  0  0
   -3.1638   -1.5664    1.4250 H   0  0  0  0  0  0  0  0  0  0  0  0
   -5.9937   -0.0536   -0.4782 H   0  0  0  0  0  0  0  0  0  0  0  0
   -8.3238   -0.4349    0.0845 H   0  0  0  0  0  0  0  0  0  0  0  0
   -7.1314   -3.0617    3.2938 H   0  0  0  0  0  0  0  0  0  0  0  0
   -4.7699   -2.6687    2.7308 H   0  0  0  0  0  0  0  0  0  0  0  0
   -1.6309   -2.0296   -0.0543 H   0  0  0  0  0  0  0  0  0  0  0  0
    1.9986   -2.2338    0.1243 H   0  0  0  0  0  0  0  0  0  0  0  0
   -2.0501   -4.3146    2.6456 H   0  0  0  0  0  0  0  0  0  0  0  0
   -0.9835   -6.5627    2.4825 H   0  0  0  0  0  0  0  0  0  0  0  0
    1.1659   -6.7610    1.2952 H   0  0  0  0  0  0  0  0  0  0  0  0
    2.2221   -6.8335   -0.7600 H   0  0  0  0  0  0  0  0  0  0  0  0
    4.2892   -6.7679   -2.1271 H   0  0  0  0  0  0  0  0  0  0  0  0
    5.0137   -2.8805   -0.9863 H   0  0  0  0  0  0  0  0  0  0  0  0
  1  2  1  0  0  0  0
  1 34  1  0  0  0  0
  1 35  1  0  0  0  0
  1 36  1  0  0  0  0
  2  3  1  0  0  0  0
  2 20  2  0  0  0  0
  3  4  2  0  0  0  0
  3 37  1  0  0  0  0
  4  5  1  0  0  0  0
  4 38  1  0  0  0  0
  5  6  1  0  0  0  0
  5 19  2  0  0  0  0
  6  7  2  0  0  0  0
  6  8  1  0  0  0  0
  8  9  1  0  0  0  0
  8 39  1  0  0  0  0
  9 10  1  0  0  0  0
  9 18  2  0  0  0  0
 10 11  2  0  0  0  0
 10 40  1  0  0  0  0
 11 12  1  0  0  0  0
 11 41  1  0  0  0  0
 12 13  1  0  0  0  0
 12 17  2  0  0  0  0
 13 14  1  0  0  0  0
 13 15  1  0  0  0  0
 13 16  1  0  0  0  0
 17 18  1  0  0  0  0
 17 42  1  0  0  0  0
 18 43  1  0  0  0  0
 19 20  1  0  0  0  0
 19 44  1  0  0  0  0
 20 21  1  0  0  0  0
 21 22  1  0  0  0  0
 21 45  1  0  0  0  0
 22 23  1  0  0  0  0
 22 27  2  0  0  0  0
 23 24  2  0  0  0  0
 24 25  1  0  0  0  0
 24 46  1  0  0  0  0
 25 26  2  0  0  0  0
 25 47  1  0  0  0  0
 26 27  1  0  0  0  0
 26 48  1  0  0  0  0
 27 28  1  0  0  0  0
 28 29  1  0  0  0  0
 28 33  2  0  0  0  0
 29 30  2  0  0  0  0
 29 49  1  0  0  0  0
 30 31  1  0  0  0  0
 30 50  1  0  0  0  0
 31 32  2  0  0  0  0
 32 33  1  0  0  0  0
 32 51  1  0  0  0  0
M  END
$$$$
