CHEMBL3970712
 OpenBabel04072215373D

 63 66  0  0  1  0  0  0  0  0999 V2000
    3.2032   -4.0508   -4.1429 C   0  0  0  0  0  0  0  0  0  0  0  0
    2.7027   -2.6177   -3.9628 C   0  0  3  0  0  0  0  0  0  0  0  0
    1.1812   -2.4738   -3.9628 C   0  0  0  0  0  0  0  0  0  0  0  0
    0.7249   -1.1911   -3.8157 N   0  0  0  0  0  0  0  0  0  0  0  0
    0.3919   -3.3935   -4.1429 O   0  0  0  0  0  0  0  0  0  0  0  0
    3.4303   -1.8983   -2.8253 C   0  0  0  0  0  0  0  0  0  0  0  0
    4.5791   -1.1665   -3.2132 C   0  0  0  0  0  0  0  0  0  0  0  0
    5.3221   -0.4193   -2.3065 C   0  0  0  0  0  0  0  0  0  0  0  0
    4.9451   -0.3958   -0.9758 C   0  0  0  0  0  0  0  0  0  0  0  0
    3.8492   -1.1480   -0.5582 C   0  0  0  0  0  0  0  0  0  0  0  0
    3.0629   -1.9116   -1.4536 C   0  0  0  0  0  0  0  0  0  0  0  0
    1.9437   -2.7708   -0.8634 C   0  0  0  0  0  0  0  0  0  0  0  0
    1.2121   -2.1207    0.3306 C   0  0  0  0  0  0  0  0  0  0  0  0
    0.1220   -2.9435    0.9806 C   0  0  0  0  0  0  0  0  0  0  0  0
    0.2408   -4.2888    0.8591 N   0  0  0  0  0  0  0  0  0  0  0  0
   -0.5639   -5.0598    1.6090 C   0  0  0  0  0  0  0  0  0  0  0  0
   -0.2632   -6.4224    1.5959 N   0  0  0  0  0  0  0  0  0  0  0  0
   -0.5398   -7.3121    2.5666 C   0  0  0  0  0  0  0  0  0  0  0  0
   -1.5455   -7.2708    3.5464 C   0  0  0  0  0  0  0  0  0  0  0  0
   -1.4556   -8.2939    4.3905 N   0  0  0  0  0  0  0  0  0  0  0  0
   -0.4080   -9.0073    3.9385 N   0  0  0  0  0  0  0  0  0  0  0  0
   -0.0180  -10.2419    4.6150 C   0  0  0  0  0  0  0  0  0  0  0  0
   -1.1302  -11.2905    4.5812 C   0  0  0  0  0  0  0  0  0  0  0  0
   -2.2756  -10.9476    5.5338 C   0  0  0  0  0  0  0  0  0  0  0  0
   -1.8325  -10.6701    6.9104 N   0  0  0  0  0  0  0  0  0  0  0  0
   -2.9765  -10.1382    7.6678 C   0  0  0  0  0  0  0  0  0  0  0  0
   -0.7284   -9.6993    6.9932 C   0  0  0  0  0  0  0  0  0  0  0  0
    0.4378  -10.0149    6.0573 C   0  0  0  0  0  0  0  0  0  0  0  0
    0.1719   -8.4575    2.8273 C   0  0  0  0  0  0  0  0  0  0  0  0
   -1.5037   -4.5640    2.4323 N   0  0  0  0  0  0  0  0  0  0  0  0
   -1.6015   -3.2283    2.5335 C   0  0  0  0  0  0  0  0  0  0  0  0
   -0.7991   -2.3533    1.8343 C   0  0  0  0  0  0  0  0  0  0  0  0
   -0.9287   -0.6697    2.1187 Cl  0  0  0  0  0  0  0  0  0  0  0  0
    2.5165   -4.6581   -4.7411 H   0  0  0  0  0  0  0  0  0  0  0  0
    3.3671   -4.5583   -3.1873 H   0  0  0  0  0  0  0  0  0  0  0  0
    4.1653   -4.0434   -4.6726 H   0  0  0  0  0  0  0  0  0  0  0  0
    2.9715   -2.0988   -4.8994 H   0  0  0  0  0  0  0  0  0  0  0  0
    1.3268   -0.4542   -3.4692 H   0  0  0  0  0  0  0  0  0  0  0  0
   -0.2762   -1.0610   -3.7550 H   0  0  0  0  0  0  0  0  0  0  0  0
    4.9115   -1.1825   -4.2491 H   0  0  0  0  0  0  0  0  0  0  0  0
    6.1961    0.1334   -2.6343 H   0  0  0  0  0  0  0  0  0  0  0  0
    5.5104    0.1855   -0.2517 H   0  0  0  0  0  0  0  0  0  0  0  0
    3.6382   -1.1261    0.5051 H   0  0  0  0  0  0  0  0  0  0  0  0
    2.3913   -3.7264   -0.5626 H   0  0  0  0  0  0  0  0  0  0  0  0
    1.1880   -3.0125   -1.6111 H   0  0  0  0  0  0  0  0  0  0  0  0
    0.8075   -1.1578    0.0021 H   0  0  0  0  0  0  0  0  0  0  0  0
    1.9174   -1.9326    1.1468 H   0  0  0  0  0  0  0  0  0  0  0  0
    0.5392   -6.5462    0.9904 H   0  0  0  0  0  0  0  0  0  0  0  0
   -2.3305   -6.5431    3.6986 H   0  0  0  0  0  0  0  0  0  0  0  0
    0.8371  -10.6290    4.0449 H   0  0  0  0  0  0  0  0  0  0  0  0
   -0.7105  -12.2638    4.8645 H   0  0  0  0  0  0  0  0  0  0  0  0
   -1.5214  -11.3991    3.5618 H   0  0  0  0  0  0  0  0  0  0  0  0
   -2.9560  -11.8088    5.5548 H   0  0  0  0  0  0  0  0  0  0  0  0
   -2.8677  -10.1209    5.1265 H   0  0  0  0  0  0  0  0  0  0  0  0
   -3.8080  -10.8499    7.6678 H   0  0  0  0  0  0  0  0  0  0  0  0
   -3.3415   -9.1907    7.2451 H   0  0  0  0  0  0  0  0  0  0  0  0
   -2.7022   -9.9581    8.7119 H   0  0  0  0  0  0  0  0  0  0  0  0
   -0.3397   -9.7080    8.0199 H   0  0  0  0  0  0  0  0  0  0  0  0
   -1.0757   -8.6747    6.8185 H   0  0  0  0  0  0  0  0  0  0  0  0
    0.9427  -10.9221    6.4159 H   0  0  0  0  0  0  0  0  0  0  0  0
    1.1765   -9.2049    6.1064 H   0  0  0  0  0  0  0  0  0  0  0  0
    1.0346   -8.9020    2.3536 H   0  0  0  0  0  0  0  0  0  0  0  0
   -2.3392   -2.8783    3.2493 H   0  0  0  0  0  0  0  0  0  0  0  0
  1  2  1  0  0  0  0
  1 34  1  0  0  0  0
  1 35  1  0  0  0  0
  1 36  1  0  0  0  0
  2  3  1  0  0  0  0
  2  6  1  0  0  0  0
  2 37  1  0  0  0  0
  3  4  1  0  0  0  0
  3  5  2  0  0  0  0
  4 38  1  0  0  0  0
  4 39  1  0  0  0  0
  6  7  1  0  0  0  0
  6 11  2  0  0  0  0
  7  8  2  0  0  0  0
  7 40  1  0  0  0  0
  8  9  1  0  0  0  0
  8 41  1  0  0  0  0
  9 10  2  0  0  0  0
  9 42  1  0  0  0  0
 10 11  1  0  0  0  0
 10 43  1  0  0  0  0
 11 12  1  0  0  0  0
 12 13  1  0  0  0  0
 12 44  1  0  0  0  0
 12 45  1  0  0  0  0
 13 14  1  0  0  0  0
 13 46  1  0  0  0  0
 13 47  1  0  0  0  0
 14 15  1  0  0  0  0
 14 32  2  0  0  0  0
 15 16  2  0  0  0  0
 16 17  1  0  0  0  0
 16 30  1  0  0  0  0
 17 18  1  0  0  0  0
 17 48  1  0  0  0  0
 18 19  1  0  0  0  0
 18 29  2  0  0  0  0
 19 20  2  0  0  0  0
 19 49  1  0  0  0  0
 20 21  1  0  0  0  0
 21 22  1  0  0  0  0
 21 29  1  0  0  0  0
 22 23  1  0  0  0  0
 22 28  1  0  0  0  0
 22 50  1  0  0  0  0
 23 24  1  0  0  0  0
 23 51  1  0  0  0  0
 23 52  1  0  0  0  0
 24 25  1  0  0  0  0
 24 53  1  0  0  0  0
 24 54  1  0  0  0  0
 25 26  1  0  0  0  0
 25 27  1  0  0  0  0
 26 55  1  0  0  0  0
 26 56  1  0  0  0  0
 26 57  1  0  0  0  0
 27 28  1  0  0  0  0
 27 58  1  0  0  0  0
 27 59  1  0  0  0  0
 28 60  1  0  0  0  0
 28 61  1  0  0  0  0
 29 62  1  0  0  0  0
 30 31  2  0  0  0  0
 31 32  1  0  0  0  0
 31 63  1  0  0  0  0
 32 33  1  0  0  0  0
M  END
$$$$
