CHEMBL3633296
 OpenBabel04072215373D

 52 55  0  0  0  0  0  0  0  0999 V2000
    3.7716   -0.8364   -0.4681 C   0  0  0  0  0  0  0  0  0  0  0  0
    2.7232    0.1570    0.0324 C   0  0  0  0  0  0  0  0  0  0  0  0
    1.3423   -0.4903    0.1437 C   0  0  0  0  0  0  0  0  0  0  0  0
    3.1544    0.8033    1.3368 C   0  0  0  0  0  0  0  0  0  0  0  0
    3.4153    2.1810    1.3364 C   0  0  0  0  0  0  0  0  0  0  0  0
    3.8375    2.8147    2.4938 C   0  0  0  0  0  0  0  0  0  0  0  0
    3.9746    2.0834    3.6675 C   0  0  0  0  0  0  0  0  0  0  0  0
    3.6416    0.7245    3.7303 C   0  0  0  0  0  0  0  0  0  0  0  0
    3.6069    0.0027    4.9639 N   0  0  0  0  0  0  0  0  0  0  0  0
    3.4990    0.6434    6.1910 C   0  0  0  0  0  0  0  0  0  0  0  0
    3.4648    1.8628    6.3169 O   0  0  0  0  0  0  0  0  0  0  0  0
    3.4130   -0.2198    7.2700 N   0  0  0  0  0  0  0  0  0  0  0  0
    3.2172    0.2526    8.6032 C   0  0  0  0  0  0  0  0  0  0  0  0
    2.6985    1.5153    8.8868 C   0  0  0  0  0  0  0  0  0  0  0  0
    2.6982    2.0183   10.1801 C   0  0  0  0  0  0  0  0  0  0  0  0
    3.1654    1.2429   11.2339 C   0  0  0  0  0  0  0  0  0  0  0  0
    3.5801   -0.0798   11.0173 C   0  0  0  0  0  0  0  0  0  0  0  0
    3.8981   -0.9658   12.1600 C   0  0  0  0  0  0  0  0  0  0  0  0
    3.1960   -0.8595   13.3882 C   0  0  0  0  0  0  0  0  0  0  0  0
    3.2924   -1.8224   14.3911 C   0  0  0  0  0  0  0  0  0  0  0  0
    4.0537   -2.9717   14.1961 C   0  0  0  0  0  0  0  0  0  0  0  0
    4.8010   -3.0425   13.0189 C   0  0  0  0  0  0  0  0  0  0  0  0
    5.6070   -4.0323   12.5254 N   0  0  0  0  0  0  0  0  0  0  0  0
    6.3020   -3.6839   11.4338 N   0  0  0  0  0  0  0  0  0  0  0  0
    5.8475   -2.4690   11.1497 C   0  0  0  0  0  0  0  0  0  0  0  0
    6.3601   -1.7351   10.1457 N   0  0  0  0  0  0  0  0  0  0  0  0
    4.8130   -2.0469   12.0431 C   0  0  0  0  0  0  0  0  0  0  0  0
    3.5741   -0.5603    9.6832 C   0  0  0  0  0  0  0  0  0  0  0  0
    3.2811    0.0760    2.5419 C   0  0  0  0  0  0  0  0  0  0  0  0
    3.4700   -1.2617   -1.4310 H   0  0  0  0  0  0  0  0  0  0  0  0
    3.9225   -1.6608    0.2346 H   0  0  0  0  0  0  0  0  0  0  0  0
    4.7380   -0.3381   -0.6121 H   0  0  0  0  0  0  0  0  0  0  0  0
    2.6387    0.9401   -0.7323 H   0  0  0  0  0  0  0  0  0  0  0  0
    1.3407   -1.3366    0.8366 H   0  0  0  0  0  0  0  0  0  0  0  0
    1.0117   -0.8548   -0.8341 H   0  0  0  0  0  0  0  0  0  0  0  0
    0.6003    0.2358    0.4972 H   0  0  0  0  0  0  0  0  0  0  0  0
    3.2950    2.7737    0.4327 H   0  0  0  0  0  0  0  0  0  0  0  0
    4.0462    3.8805    2.4998 H   0  0  0  0  0  0  0  0  0  0  0  0
    4.3346    2.6276    4.5347 H   0  0  0  0  0  0  0  0  0  0  0  0
    3.3539   -0.9676    4.9232 H   0  0  0  0  0  0  0  0  0  0  0  0
    3.8193   -1.1382    7.1707 H   0  0  0  0  0  0  0  0  0  0  0  0
    2.2940    2.1562    8.1075 H   0  0  0  0  0  0  0  0  0  0  0  0
    2.3224    3.0263   10.3655 H   0  0  0  0  0  0  0  0  0  0  0  0
    3.1679    1.6826   12.2271 H   0  0  0  0  0  0  0  0  0  0  0  0
    2.5109   -0.0295   13.5569 H   0  0  0  0  0  0  0  0  0  0  0  0
    2.7226   -1.6982   15.3095 H   0  0  0  0  0  0  0  0  0  0  0  0
    4.0726   -3.7606   14.9405 H   0  0  0  0  0  0  0  0  0  0  0  0
    5.7353   -4.9658   12.8979 H   0  0  0  0  0  0  0  0  0  0  0  0
    7.2498   -2.0505    9.7750 H   0  0  0  0  0  0  0  0  0  0  0  0
    6.2875   -0.7223   10.1913 H   0  0  0  0  0  0  0  0  0  0  0  0
    3.8752   -1.5834    9.4812 H   0  0  0  0  0  0  0  0  0  0  0  0
    3.0596   -0.9870    2.5486 H   0  0  0  0  0  0  0  0  0  0  0  0
  1  2  1  0  0  0  0
  1 30  1  0  0  0  0
  1 31  1  0  0  0  0
  1 32  1  0  0  0  0
  2  3  1  0  0  0  0
  2  4  1  0  0  0  0
  2 33  1  0  0  0  0
  3 34  1  0  0  0  0
  3 35  1  0  0  0  0
  3 36  1  0  0  0  0
  4  5  1  0  0  0  0
  4 29  2  0  0  0  0
  5  6  2  0  0  0  0
  5 37  1  0  0  0  0
  6  7  1  0  0  0  0
  6 38  1  0  0  0  0
  7  8  2  0  0  0  0
  7 39  1  0  0  0  0
  8  9  1  0  0  0  0
  8 29  1  0  0  0  0
  9 10  1  0  0  0  0
  9 40  1  0  0  0  0
 10 11  2  0  0  0  0
 10 12  1  0  0  0  0
 12 13  1  0  0  0  0
 12 41  1  0  0  0  0
 13 14  1  0  0  0  0
 13 28  2  0  0  0  0
 14 15  2  0  0  0  0
 14 42  1  0  0  0  0
 15 16  1  0  0  0  0
 15 43  1  0  0  0  0
 16 17  2  0  0  0  0
 16 44  1  0  0  0  0
 17 18  1  0  0  0  0
 17 28  1  0  0  0  0
 18 19  1  0  0  0  0
 18 27  2  0  0  0  0
 19 20  2  0  0  0  0
 19 45  1  0  0  0  0
 20 21  1  0  0  0  0
 20 46  1  0  0  0  0
 21 22  2  0  0  0  0
 21 47  1  0  0  0  0
 22 23  1  0  0  0  0
 22 27  1  0  0  0  0
 23 24  1  0  0  0  0
 23 48  1  0  0  0  0
 24 25  2  0  0  0  0
 25 26  1  0  0  0  0
 25 27  1  0  0  0  0
 26 49  1  0  0  0  0
 26 50  1  0  0  0  0
 28 51  1  0  0  0  0
 29 52  1  0  0  0  0
M  END
$$$$
