CHEMBL2063743
 OpenBabel04072215363D

 57 62  0  0  0  0  0  0  0  0999 V2000
   -1.4493    3.2291    0.6737 N   0  0  0  0  0  0  0  0  0  0  0  0
   -1.0110    2.5133    1.4783 C   0  0  0  0  0  0  0  0  0  0  0  0
   -0.4410    1.6346    2.4853 C   0  0  0  0  0  0  0  0  0  0  0  0
   -0.1930    0.1541    2.1445 C   0  0  0  0  0  0  0  0  0  0  0  0
    1.0243   -0.2040    1.5252 C   0  0  0  0  0  0  0  0  0  0  0  0
    1.3537   -1.5302    1.2769 C   0  0  0  0  0  0  0  0  0  0  0  0
    0.4720   -2.5329    1.6592 C   0  0  0  0  0  0  0  0  0  0  0  0
   -0.7757   -2.2286    2.2379 C   0  0  0  0  0  0  0  0  0  0  0  0
   -1.6069   -3.4163    2.6005 C   0  0  0  0  0  0  0  0  0  0  0  0
   -1.3733   -4.4647    2.0031 O   0  0  0  0  0  0  0  0  0  0  0  0
   -2.5533   -3.2734    3.5972 N   0  0  0  0  0  0  0  0  0  0  0  0
   -3.3367   -4.3116    4.1524 C   0  0  0  0  0  0  0  0  0  0  0  0
   -3.0282   -5.6634    3.9989 C   0  0  0  0  0  0  0  0  0  0  0  0
   -3.8344   -6.6480    4.5766 C   0  0  0  0  0  0  0  0  0  0  0  0
   -3.3861   -7.9357    4.4105 O   0  0  0  0  0  0  0  0  0  0  0  0
   -4.3121   -8.9637    4.2799 C   0  0  0  0  0  0  0  0  0  0  0  0
   -3.8355  -10.2113    4.6671 C   0  0  0  0  0  0  0  0  0  0  0  0
   -4.6868  -11.3071    4.5969 C   0  0  0  0  0  0  0  0  0  0  0  0
   -5.9897  -11.0868    4.1300 C   0  0  0  0  0  0  0  0  0  0  0  0
   -6.9974  -12.0107    4.0291 N   0  0  0  0  0  0  0  0  0  0  0  0
   -8.0708  -11.4302    3.5616 C   0  0  0  0  0  0  0  0  0  0  0  0
   -9.2928  -12.0048    3.3403 N   0  0  0  0  0  0  0  0  0  0  0  0
   -9.5530  -13.2627    3.8312 C   0  0  0  0  0  0  0  0  0  0  0  0
   -8.8540  -13.9221    4.5859 O   0  0  0  0  0  0  0  0  0  0  0  0
  -10.8419  -13.8463    3.3488 C   0  0  0  0  0  0  0  0  0  0  0  0
  -11.3574  -15.1430    3.9373 C   0  0  0  0  0  0  0  0  0  0  0  0
  -10.7816  -15.1316    2.5523 C   0  0  0  0  0  0  0  0  0  0  0  0
   -7.9407   -9.7764    3.1552 S   0  0  0  0  0  0  0  0  0  0  0  0
   -6.3287   -9.7987    3.7277 C   0  0  0  0  0  0  0  0  0  0  0  0
   -5.5415   -8.7049    3.7681 N   0  0  0  0  0  0  0  0  0  0  0  0
   -4.9390   -6.2880    5.3507 C   0  0  0  0  0  0  0  0  0  0  0  0
   -5.2616   -4.9400    5.5074 C   0  0  0  0  0  0  0  0  0  0  0  0
   -4.4569   -3.9675    4.9188 C   0  0  0  0  0  0  0  0  0  0  0  0
   -4.7747   -2.6744    5.0878 F   0  0  0  0  0  0  0  0  0  0  0  0
   -1.1217   -0.8804    2.4310 C   0  0  0  0  0  0  0  0  0  0  0  0
   -2.7159   -0.4189    2.9494 Cl  0  0  0  0  0  0  0  0  0  0  0  0
   -0.7694    1.9870    3.9398 C   0  0  0  0  0  0  0  0  0  0  0  0
    0.5974    2.2761    3.4190 C   0  0  0  0  0  0  0  0  0  0  0  0
    1.7337    0.5715    1.2360 H   0  0  0  0  0  0  0  0  0  0  0  0
    2.2988   -1.7860    0.8027 H   0  0  0  0  0  0  0  0  0  0  0  0
    0.7615   -3.5710    1.4922 H   0  0  0  0  0  0  0  0  0  0  0  0
   -2.8062   -2.3359    3.8980 H   0  0  0  0  0  0  0  0  0  0  0  0
   -2.1494   -5.9865    3.4509 H   0  0  0  0  0  0  0  0  0  0  0  0
   -2.8204  -10.3253    5.0330 H   0  0  0  0  0  0  0  0  0  0  0  0
   -4.3740  -12.2987    4.9025 H   0  0  0  0  0  0  0  0  0  0  0  0
   -9.9832  -11.4778    2.8316 H   0  0  0  0  0  0  0  0  0  0  0  0
  -11.6042  -13.1279    3.0649 H   0  0  0  0  0  0  0  0  0  0  0  0
  -12.4268  -15.2740    4.0428 H   0  0  0  0  0  0  0  0  0  0  0  0
  -10.7775  -15.6180    4.7240 H   0  0  0  0  0  0  0  0  0  0  0  0
  -11.4578  -15.2495    1.7157 H   0  0  0  0  0  0  0  0  0  0  0  0
   -9.8120  -15.6010    2.4126 H   0  0  0  0  0  0  0  0  0  0  0  0
   -5.5552   -7.0423    5.8315 H   0  0  0  0  0  0  0  0  0  0  0  0
   -6.1336   -4.6467    6.0831 H   0  0  0  0  0  0  0  0  0  0  0  0
   -0.8688    1.1909    4.6701 H   0  0  0  0  0  0  0  0  0  0  0  0
   -1.4337    2.8238    4.1315 H   0  0  0  0  0  0  0  0  0  0  0  0
    1.4101    1.6674    3.8038 H   0  0  0  0  0  0  0  0  0  0  0  0
    0.8735    3.3137    3.2664 H   0  0  0  0  0  0  0  0  0  0  0  0
  1  2  3  0  0  0  0
  2  3  1  0  0  0  0
  3  4  1  0  0  0  0
  3 37  1  0  0  0  0
  3 38  1  0  0  0  0
  4  5  1  0  0  0  0
  4 35  2  0  0  0  0
  5  6  2  0  0  0  0
  5 39  1  0  0  0  0
  6  7  1  0  0  0  0
  6 40  1  0  0  0  0
  7  8  2  0  0  0  0
  7 41  1  0  0  0  0
  8  9  1  0  0  0  0
  8 35  1  0  0  0  0
  9 10  2  0  0  0  0
  9 11  1  0  0  0  0
 11 12  1  0  0  0  0
 11 42  1  0  0  0  0
 12 13  1  0  0  0  0
 12 33  2  0  0  0  0
 13 14  2  0  0  0  0
 13 43  1  0  0  0  0
 14 15  1  0  0  0  0
 14 31  1  0  0  0  0
 15 16  1  0  0  0  0
 16 17  1  0  0  0  0
 16 30  2  0  0  0  0
 17 18  2  0  0  0  0
 17 44  1  0  0  0  0
 18 19  1  0  0  0  0
 18 45  1  0  0  0  0
 19 20  1  0  0  0  0
 19 29  2  0  0  0  0
 20 21  2  0  0  0  0
 21 22  1  0  0  0  0
 21 28  1  0  0  0  0
 22 23  1  0  0  0  0
 22 46  1  0  0  0  0
 23 24  2  0  0  0  0
 23 25  1  0  0  0  0
 25 26  1  0  0  0  0
 25 27  1  0  0  0  0
 25 47  1  0  0  0  0
 26 27  1  0  0  0  0
 26 48  1  0  0  0  0
 26 49  1  0  0  0  0
 27 50  1  0  0  0  0
 27 51  1  0  0  0  0
 28 29  1  0  0  0  0
 29 30  1  0  0  0  0
 31 32  2  0  0  0  0
 31 52  1  0  0  0  0
 32 33  1  0  0  0  0
 32 53  1  0  0  0  0
 33 34  1  0  0  0  0
 35 36  1  0  0  0  0
 37 38  1  0  0  0  0
 37 54  1  0  0  0  0
 37 55  1  0  0  0  0
 38 56  1  0  0  0  0
 38 57  1  0  0  0  0
M  END
$$$$
