CHEMBL186412
 OpenBabel04072215363D

 45 47  0  0  0  0  0  0  0  0999 V2000
    2.9697   -0.7568   -0.8431 O   0  0  0  0  0  0  0  0  0  0  0  0
    2.3502   -0.0785   -0.0371 C   0  0  0  0  0  0  0  0  0  0  0  0
    0.9809   -0.1407    0.1276 N   0  0  0  0  0  0  0  0  0  0  0  0
    0.1578   -1.0117   -0.6847 C   0  0  0  0  0  0  0  0  0  0  0  0
   -0.3305   -0.3405   -1.9650 C   0  0  0  0  0  0  0  0  0  0  0  0
    0.7955    0.0980   -2.8927 C   0  0  0  0  0  0  0  0  0  0  0  0
    0.2442    0.6908   -4.0613 O   0  0  0  0  0  0  0  0  0  0  0  0
    3.0651    0.9114    0.7927 C   0  0  0  0  0  0  0  0  0  0  0  0
    4.2127    1.5097    0.2970 C   0  0  0  0  0  0  0  0  0  0  0  0
    4.9437    2.4100    0.9965 N   0  0  0  0  0  0  0  0  0  0  0  0
    4.5154    2.6997    2.2507 C   0  0  0  0  0  0  0  0  0  0  0  0
    3.3772    2.1599    2.8551 C   0  0  0  0  0  0  0  0  0  0  0  0
    2.9719    2.4873    4.2284 C   0  0  0  0  0  0  0  0  0  0  0  0
    3.2240    3.7086    4.8453 C   0  0  0  0  0  0  0  0  0  0  0  0
    2.8569    3.9843    6.1182 N   0  0  0  0  0  0  0  0  0  0  0  0
    2.2260    2.9722    6.7628 C   0  0  0  0  0  0  0  0  0  0  0  0
    1.9496    1.7371    6.1829 C   0  0  0  0  0  0  0  0  0  0  0  0
    1.3562    0.7188    6.9553 N   0  0  0  0  0  0  0  0  0  0  0  0
    1.4301   -0.6654    6.7100 C   0  0  0  0  0  0  0  0  0  0  0  0
    2.6168   -1.2497    6.2440 C   0  0  0  0  0  0  0  0  0  0  0  0
    2.7091   -2.6231    6.0127 C   0  0  0  0  0  0  0  0  0  0  0  0
    1.5984   -3.4339    6.2261 C   0  0  0  0  0  0  0  0  0  0  0  0
    0.4061   -2.8622    6.6661 C   0  0  0  0  0  0  0  0  0  0  0  0
   -0.9766   -3.8626    6.8970 Cl  0  0  0  0  0  0  0  0  0  0  0  0
    0.3170   -1.4897    6.9147 C   0  0  0  0  0  0  0  0  0  0  0  0
    2.3208    1.5017    4.9028 N   0  0  0  0  0  0  0  0  0  0  0  0
    2.6478    1.2427    2.0826 C   0  0  0  0  0  0  0  0  0  0  0  0
    0.5097    0.5554    0.6953 H   0  0  0  0  0  0  0  0  0  0  0  0
   -0.7040   -1.2921   -0.0697 H   0  0  0  0  0  0  0  0  0  0  0  0
    0.7141   -1.9261   -0.9183 H   0  0  0  0  0  0  0  0  0  0  0  0
   -0.9518    0.5302   -1.7208 H   0  0  0  0  0  0  0  0  0  0  0  0
   -0.9893   -1.0335   -2.5037 H   0  0  0  0  0  0  0  0  0  0  0  0
    1.4281   -0.7465   -3.1869 H   0  0  0  0  0  0  0  0  0  0  0  0
    1.4254    0.8575   -2.4200 H   0  0  0  0  0  0  0  0  0  0  0  0
   -0.1734   -0.0219   -4.5747 H   0  0  0  0  0  0  0  0  0  0  0  0
    4.5885    1.2823   -0.6978 H   0  0  0  0  0  0  0  0  0  0  0  0
    5.1687    3.3907    2.7780 H   0  0  0  0  0  0  0  0  0  0  0  0
    3.7284    4.5208    4.3333 H   0  0  0  0  0  0  0  0  0  0  0  0
    1.9731    3.1748    7.7993 H   0  0  0  0  0  0  0  0  0  0  0  0
    0.5330    1.0258    7.4567 H   0  0  0  0  0  0  0  0  0  0  0  0
    3.4961   -0.6316    6.0718 H   0  0  0  0  0  0  0  0  0  0  0  0
    3.6455   -3.0505    5.6663 H   0  0  0  0  0  0  0  0  0  0  0  0
    1.6689   -4.5018    6.0432 H   0  0  0  0  0  0  0  0  0  0  0  0
   -0.6261   -1.0688    7.2486 H   0  0  0  0  0  0  0  0  0  0  0  0
    1.7743    0.7585    2.5149 H   0  0  0  0  0  0  0  0  0  0  0  0
  1  2  2  0  0  0  0
  2  3  1  0  0  0  0
  2  8  1  0  0  0  0
  3  4  1  0  0  0  0
  3 28  1  0  0  0  0
  4  5  1  0  0  0  0
  4 29  1  0  0  0  0
  4 30  1  0  0  0  0
  5  6  1  0  0  0  0
  5 31  1  0  0  0  0
  5 32  1  0  0  0  0
  6  7  1  0  0  0  0
  6 33  1  0  0  0  0
  6 34  1  0  0  0  0
  7 35  1  0  0  0  0
  8  9  1  0  0  0  0
  8 27  2  0  0  0  0
  9 10  2  0  0  0  0
  9 36  1  0  0  0  0
 10 11  1  0  0  0  0
 11 12  2  0  0  0  0
 11 37  1  0  0  0  0
 12 13  1  0  0  0  0
 12 27  1  0  0  0  0
 13 14  1  0  0  0  0
 13 26  2  0  0  0  0
 14 15  2  0  0  0  0
 14 38  1  0  0  0  0
 15 16  1  0  0  0  0
 16 17  2  0  0  0  0
 16 39  1  0  0  0  0
 17 18  1  0  0  0  0
 17 26  1  0  0  0  0
 18 19  1  0  0  0  0
 18 40  1  0  0  0  0
 19 20  1  0  0  0  0
 19 25  2  0  0  0  0
 20 21  2  0  0  0  0
 20 41  1  0  0  0  0
 21 22  1  0  0  0  0
 21 42  1  0  0  0  0
 22 23  2  0  0  0  0
 22 43  1  0  0  0  0
 23 24  1  0  0  0  0
 23 25  1  0  0  0  0
 25 44  1  0  0  0  0
 27 45  1  0  0  0  0
M  END
$$$$
