CHEMBL481491
 OpenBabel04072215383D

 43 46  0  0  0  0  0  0  0  0999 V2000
    3.3623   -1.2749    0.0324 N   0  0  0  0  0  0  0  0  0  0  0  0
    2.5168   -0.2223   -0.2065 C   0  0  0  0  0  0  0  0  0  0  0  0
    1.3794   -0.2617    0.2542 O   0  0  0  0  0  0  0  0  0  0  0  0
    3.0699    0.8671   -0.9948 C   0  0  0  0  0  0  0  0  0  0  0  0
    4.4488    0.6010   -1.9846 S   0  0  0  0  0  0  0  0  0  0  0  0
    4.4130    2.1818   -2.5927 C   0  0  0  0  0  0  0  0  0  0  0  0
    5.3323    2.5450   -3.5865 N   0  0  0  0  0  0  0  0  0  0  0  0
    6.5295    1.9107   -3.8716 C   0  0  0  0  0  0  0  0  0  0  0  0
    7.1879    2.4600   -4.8609 N   0  0  0  0  0  0  0  0  0  0  0  0
    6.3986    3.4963   -5.2691 C   0  0  0  0  0  0  0  0  0  0  0  0
    6.6162    4.3954   -6.3240 C   0  0  0  0  0  0  0  0  0  0  0  0
    5.6591    5.3774   -6.5890 C   0  0  0  0  0  0  0  0  0  0  0  0
    4.4995    5.4594   -5.8230 C   0  0  0  0  0  0  0  0  0  0  0  0
    4.2612    4.5673   -4.7726 C   0  0  0  0  0  0  0  0  0  0  0  0
    5.2410    3.5962   -4.4972 C   0  0  0  0  0  0  0  0  0  0  0  0
    3.4240    2.9419   -2.0201 C   0  0  0  0  0  0  0  0  0  0  0  0
    2.6528    2.1837   -1.0860 C   0  0  0  0  0  0  0  0  0  0  0  0
    1.6117    2.6303   -0.3433 O   0  0  0  0  0  0  0  0  0  0  0  0
    1.6473    4.0289   -0.0419 C   0  0  0  0  0  0  0  0  0  0  0  0
    0.7330    4.3607    1.1274 C   0  0  0  0  0  0  0  0  0  0  0  0
   -0.0521    3.3469    1.7073 C   0  0  0  0  0  0  0  0  0  0  0  0
   -0.8858    3.6040    2.7934 C   0  0  0  0  0  0  0  0  0  0  0  0
   -0.9575    4.8862    3.3227 C   0  0  0  0  0  0  0  0  0  0  0  0
   -0.1983    5.9134    2.7617 C   0  0  0  0  0  0  0  0  0  0  0  0
    0.6522    5.6717    1.6599 C   0  0  0  0  0  0  0  0  0  0  0  0
    1.4345    6.8588    1.1313 C   0  0  0  0  0  0  0  0  0  0  0  0
    2.2280    6.5928    0.0576 F   0  0  0  0  0  0  0  0  0  0  0  0
    0.6196    7.8779    0.7357 F   0  0  0  0  0  0  0  0  0  0  0  0
    2.2614    7.3919    2.0737 F   0  0  0  0  0  0  0  0  0  0  0  0
    3.0178   -2.0564    0.5706 H   0  0  0  0  0  0  0  0  0  0  0  0
    4.3171   -1.2756   -0.2981 H   0  0  0  0  0  0  0  0  0  0  0  0
    6.8900    1.0671   -3.2984 H   0  0  0  0  0  0  0  0  0  0  0  0
    7.5115    4.3069   -6.9292 H   0  0  0  0  0  0  0  0  0  0  0  0
    5.8166    6.0724   -7.4096 H   0  0  0  0  0  0  0  0  0  0  0  0
    3.7576    6.2219   -6.0529 H   0  0  0  0  0  0  0  0  0  0  0  0
    3.3275    4.6317   -4.2278 H   0  0  0  0  0  0  0  0  0  0  0  0
    3.2631    3.9909   -2.2212 H   0  0  0  0  0  0  0  0  0  0  0  0
    1.3106    4.5882   -0.9237 H   0  0  0  0  0  0  0  0  0  0  0  0
    2.6673    4.3171    0.2414 H   0  0  0  0  0  0  0  0  0  0  0  0
   -0.0188    2.3271    1.3203 H   0  0  0  0  0  0  0  0  0  0  0  0
   -1.4732    2.7967    3.2234 H   0  0  0  0  0  0  0  0  0  0  0  0
   -1.6041    5.0854    4.1718 H   0  0  0  0  0  0  0  0  0  0  0  0
   -0.2712    6.9098    3.1910 H   0  0  0  0  0  0  0  0  0  0  0  0
  1  2  1  0  0  0  0
  1 30  1  0  0  0  0
  1 31  1  0  0  0  0
  2  3  2  0  0  0  0
  2  4  1  0  0  0  0
  4  5  1  0  0  0  0
  4 17  2  0  0  0  0
  5  6  1  0  0  0  0
  6  7  1  0  0  0  0
  6 16  2  0  0  0  0
  7  8  1  0  0  0  0
  7 15  1  0  0  0  0
  8  9  2  0  0  0  0
  8 32  1  0  0  0  0
  9 10  1  0  0  0  0
 10 11  1  0  0  0  0
 10 15  2  0  0  0  0
 11 12  2  0  0  0  0
 11 33  1  0  0  0  0
 12 13  1  0  0  0  0
 12 34  1  0  0  0  0
 13 14  2  0  0  0  0
 13 35  1  0  0  0  0
 14 15  1  0  0  0  0
 14 36  1  0  0  0  0
 16 17  1  0  0  0  0
 16 37  1  0  0  0  0
 17 18  1  0  0  0  0
 18 19  1  0  0  0  0
 19 20  1  0  0  0  0
 19 38  1  0  0  0  0
 19 39  1  0  0  0  0
 20 21  1  0  0  0  0
 20 25  2  0  0  0  0
 21 22  2  0  0  0  0
 21 40  1  0  0  0  0
 22 23  1  0  0  0  0
 22 41  1  0  0  0  0
 23 24  2  0  0  0  0
 23 42  1  0  0  0  0
 24 25  1  0  0  0  0
 24 43  1  0  0  0  0
 25 26  1  0  0  0  0
 26 27  1  0  0  0  0
 26 28  1  0  0  0  0
 26 29  1  0  0  0  0
M  END
$$$$
