CHEMBL2430258
 OpenBabel04072215363D

 59 63  0  0  0  0  0  0  0  0999 V2000
    0.8223    0.2362    0.0409 C   0  0  0  0  0  0  0  0  0  0  0  0
    2.2846   -0.0401    0.0176 C   0  0  0  0  0  0  0  0  0  0  0  0
    3.2066    0.9998   -0.0094 N   0  0  0  0  0  0  0  0  0  0  0  0
    4.4844    0.5053    0.0348 C   0  0  0  0  0  0  0  0  0  0  0  0
    4.3730   -0.8732    0.0750 C   0  0  0  0  0  0  0  0  0  0  0  0
    2.9892   -1.2383    0.0896 C   0  0  0  0  0  0  0  0  0  0  0  0
    2.5000   -2.6193    0.2217 C   0  0  0  0  0  0  0  0  0  0  0  0
    3.1657   -3.4989    0.7644 O   0  0  0  0  0  0  0  0  0  0  0  0
    1.2862   -2.8982   -0.3549 N   0  0  0  0  0  0  0  0  0  0  0  0
    0.8179   -4.2793   -0.4424 C   0  0  0  0  0  0  0  0  0  0  0  0
   -0.4406   -4.3737   -1.3253 C   0  0  0  0  0  0  0  0  0  0  0  0
   -0.1277   -3.7065   -2.5789 N   0  0  0  0  0  0  0  0  0  0  0  0
    0.6658   -4.4784   -3.5435 C   0  0  0  0  0  0  0  0  0  0  0  0
    1.3092   -3.4714   -4.5084 C   0  0  0  0  0  0  0  0  0  0  0  0
    0.3125   -2.6743   -5.1720 O   0  0  0  0  0  0  0  0  0  0  0  0
   -0.5286   -2.0047   -4.2158 C   0  0  0  0  0  0  0  0  0  0  0  0
   -1.2083   -3.0068   -3.2656 C   0  0  0  0  0  0  0  0  0  0  0  0
    5.5158   -1.8170    0.1118 C   0  0  0  0  0  0  0  0  0  0  0  0
    6.8874   -1.1690    0.0954 C   0  0  0  0  0  0  0  0  0  0  0  0
    6.9820    0.3591    0.0783 C   0  0  0  0  0  0  0  0  0  0  0  0
    5.7239    1.2311    0.0471 C   0  0  0  0  0  0  0  0  0  0  0  0
    5.8953    2.5831    0.0490 C   0  0  0  0  0  0  0  0  0  0  0  0
    4.8375    3.6794    0.0407 C   0  0  0  0  0  0  0  0  0  0  0  0
    3.6254    3.5708    0.0310 O   0  0  0  0  0  0  0  0  0  0  0  0
    5.5311    4.8801    0.0486 N   0  0  0  0  0  0  0  0  0  0  0  0
    6.9049    4.6853    0.0617 C   0  0  0  0  0  0  0  0  0  0  0  0
    7.8765    5.6784    0.0658 C   0  0  0  0  0  0  0  0  0  0  0  0
    9.2146    5.2879    0.0774 C   0  0  0  0  0  0  0  0  0  0  0  0
    9.5338    3.9336    0.0869 C   0  0  0  0  0  0  0  0  0  0  0  0
   10.8230    3.5595    0.1028 F   0  0  0  0  0  0  0  0  0  0  0  0
    8.5543    2.9501    0.0791 C   0  0  0  0  0  0  0  0  0  0  0  0
    7.2075    3.3202    0.0644 C   0  0  0  0  0  0  0  0  0  0  0  0
    0.6105    1.3097    0.0795 H   0  0  0  0  0  0  0  0  0  0  0  0
    0.3609   -0.2281    0.9191 H   0  0  0  0  0  0  0  0  0  0  0  0
    0.3387   -0.1643   -0.8557 H   0  0  0  0  0  0  0  0  0  0  0  0
    2.9624    1.9857   -0.0227 H   0  0  0  0  0  0  0  0  0  0  0  0
    0.9939   -2.2862   -1.1069 H   0  0  0  0  0  0  0  0  0  0  0  0
    0.6202   -4.6396    0.5716 H   0  0  0  0  0  0  0  0  0  0  0  0
    1.6304   -4.8905   -0.8546 H   0  0  0  0  0  0  0  0  0  0  0  0
   -1.2423   -3.8359   -0.8034 H   0  0  0  0  0  0  0  0  0  0  0  0
   -0.7706   -5.4100   -1.4565 H   0  0  0  0  0  0  0  0  0  0  0  0
    0.0282   -5.1829   -4.0943 H   0  0  0  0  0  0  0  0  0  0  0  0
    1.4569   -5.0603   -3.0603 H   0  0  0  0  0  0  0  0  0  0  0  0
    1.8875   -3.9967   -5.2741 H   0  0  0  0  0  0  0  0  0  0  0  0
    1.9987   -2.8101   -3.9666 H   0  0  0  0  0  0  0  0  0  0  0  0
   -1.2792   -1.4327   -4.7675 H   0  0  0  0  0  0  0  0  0  0  0  0
    0.0799   -1.2896   -3.6447 H   0  0  0  0  0  0  0  0  0  0  0  0
   -1.8430   -3.7051   -3.8257 H   0  0  0  0  0  0  0  0  0  0  0  0
   -1.8404   -2.4574   -2.5602 H   0  0  0  0  0  0  0  0  0  0  0  0
    5.4382   -2.4948   -0.7481 H   0  0  0  0  0  0  0  0  0  0  0  0
    5.4427   -2.4395    1.0105 H   0  0  0  0  0  0  0  0  0  0  0  0
    7.4490   -1.5574   -0.7649 H   0  0  0  0  0  0  0  0  0  0  0  0
    7.4524   -1.5359    0.9638 H   0  0  0  0  0  0  0  0  0  0  0  0
    7.5721    0.6036   -0.8133 H   0  0  0  0  0  0  0  0  0  0  0  0
    7.5421    0.6241    0.9835 H   0  0  0  0  0  0  0  0  0  0  0  0
    5.0684    5.7768    0.0489 H   0  0  0  0  0  0  0  0  0  0  0  0
    7.6197    6.7302    0.0644 H   0  0  0  0  0  0  0  0  0  0  0  0
   10.0213    6.0134    0.0845 H   0  0  0  0  0  0  0  0  0  0  0  0
    8.9020    1.9292    0.0873 H   0  0  0  0  0  0  0  0  0  0  0  0
  1  2  1  0  0  0  0
  1 33  1  0  0  0  0
  1 34  1  0  0  0  0
  1 35  1  0  0  0  0
  2  3  1  0  0  0  0
  2  6  2  0  0  0  0
  3  4  1  0  0  0  0
  3 36  1  0  0  0  0
  4  5  2  0  0  0  0
  4 21  1  0  0  0  0
  5  6  1  0  0  0  0
  5 18  1  0  0  0  0
  6  7  1  0  0  0  0
  7  8  2  0  0  0  0
  7  9  1  0  0  0  0
  9 10  1  0  0  0  0
  9 37  1  0  0  0  0
 10 11  1  0  0  0  0
 10 38  1  0  0  0  0
 10 39  1  0  0  0  0
 11 12  1  0  0  0  0
 11 40  1  0  0  0  0
 11 41  1  0  0  0  0
 12 13  1  0  0  0  0
 12 17  1  0  0  0  0
 13 14  1  0  0  0  0
 13 42  1  0  0  0  0
 13 43  1  0  0  0  0
 14 15  1  0  0  0  0
 14 44  1  0  0  0  0
 14 45  1  0  0  0  0
 15 16  1  0  0  0  0
 16 17  1  0  0  0  0
 16 46  1  0  0  0  0
 16 47  1  0  0  0  0
 17 48  1  0  0  0  0
 17 49  1  0  0  0  0
 18 19  1  0  0  0  0
 18 50  1  0  0  0  0
 18 51  1  0  0  0  0
 19 20  1  0  0  0  0
 19 52  1  0  0  0  0
 19 53  1  0  0  0  0
 20 21  1  0  0  0  0
 20 54  1  0  0  0  0
 20 55  1  0  0  0  0
 21 22  2  0  0  0  0
 22 23  1  0  0  0  0
 22 32  1  0  0  0  0
 23 24  2  0  0  0  0
 23 25  1  0  0  0  0
 25 26  1  0  0  0  0
 25 56  1  0  0  0  0
 26 27  1  0  0  0  0
 26 32  2  0  0  0  0
 27 28  2  0  0  0  0
 27 57  1  0  0  0  0
 28 29  1  0  0  0  0
 28 58  1  0  0  0  0
 29 30  1  0  0  0  0
 29 31  2  0  0  0  0
 31 32  1  0  0  0  0
 31 59  1  0  0  0  0
M  END
$$$$
