CHEMBL428876
 OpenBabel04072215383D

 50 56  0  0  0  0  0  0  0  0999 V2000
    1.6913   -0.5872    1.0297 C   0  0  0  0  0  0  0  0  0  0  0  0
    2.7448   -1.4790    0.6007 N   0  0  0  0  0  0  0  0  0  0  0  0
    3.7092   -2.1830    1.3178 C   0  0  0  0  0  0  0  0  0  0  0  0
    4.5062   -2.8608    0.3864 C   0  0  0  0  0  0  0  0  0  0  0  0
    4.1654   -2.0588   -0.7842 C   0  0  0  0  0  0  0  0  0  0  0  0
    3.0137   -1.4171   -0.7065 N   0  0  0  0  0  0  0  0  0  0  0  0
    5.1482   -1.6586   -1.8300 C   0  0  0  0  0  0  0  0  0  0  0  0
    6.1935   -2.7276   -1.8512 C   0  0  0  0  0  0  0  0  0  0  0  0
    6.7191   -2.7567   -0.4319 C   0  0  0  0  0  0  0  0  0  0  0  0
    5.9046   -3.3753    0.5342 C   0  0  0  0  0  0  0  0  0  0  0  0
    6.5360   -4.6128    0.8441 C   0  0  0  0  0  0  0  0  0  0  0  0
    7.9955   -4.7873    0.7524 C   0  0  0  0  0  0  0  0  0  0  0  0
    8.7479   -3.6218    0.4483 C   0  0  0  0  0  0  0  0  0  0  0  0
    8.0316   -2.6088   -0.1105 C   0  0  0  0  0  0  0  0  0  0  0  0
    8.9223   -1.6581   -0.4716 N   0  0  0  0  0  0  0  0  0  0  0  0
   10.1920   -2.0875   -0.1900 C   0  0  0  0  0  0  0  0  0  0  0  0
   11.3580   -1.3704   -0.4102 C   0  0  0  0  0  0  0  0  0  0  0  0
   12.5378   -2.0714   -0.2815 C   0  0  0  0  0  0  0  0  0  0  0  0
   12.5408   -3.4240    0.0994 C   0  0  0  0  0  0  0  0  0  0  0  0
   13.8354   -4.1589    0.1221 C   0  0  0  0  0  0  0  0  0  0  0  0
   13.8134   -5.3382   -0.2266 O   0  0  0  0  0  0  0  0  0  0  0  0
   15.0361   -3.4304    0.5041 C   0  0  0  0  0  0  0  0  0  0  0  0
   15.1808   -2.3974    1.4146 C   0  0  0  0  0  0  0  0  0  0  0  0
   16.5088   -1.8865    1.4533 C   0  0  0  0  0  0  0  0  0  0  0  0
   17.3441   -2.5678    0.5979 C   0  0  0  0  0  0  0  0  0  0  0  0
   16.5289   -3.8175   -0.2388 S   0  0  0  0  0  0  0  0  0  0  0  0
   11.3401   -4.1161    0.3921 C   0  0  0  0  0  0  0  0  0  0  0  0
   10.1234   -3.4209    0.2736 C   0  0  0  0  0  0  0  0  0  0  0  0
    8.3983   -6.1916    0.7013 C   0  0  0  0  0  0  0  0  0  0  0  0
    7.0853   -6.8080    0.8047 N   0  0  0  0  0  0  0  0  0  0  0  0
    5.9743   -5.9458    0.9054 C   0  0  0  0  0  0  0  0  0  0  0  0
    4.8309   -6.3632    0.9276 O   0  0  0  0  0  0  0  0  0  0  0  0
    2.0969    0.4283    1.0865 H   0  0  0  0  0  0  0  0  0  0  0  0
    1.2695   -0.9115    1.9769 H   0  0  0  0  0  0  0  0  0  0  0  0
    0.9102   -0.5975    0.2555 H   0  0  0  0  0  0  0  0  0  0  0  0
    3.7928   -2.0352    2.3869 H   0  0  0  0  0  0  0  0  0  0  0  0
    5.6222   -0.7160   -1.5147 H   0  0  0  0  0  0  0  0  0  0  0  0
    4.6902   -1.4972   -2.8056 H   0  0  0  0  0  0  0  0  0  0  0  0
    6.9862   -2.5725   -2.5854 H   0  0  0  0  0  0  0  0  0  0  0  0
    5.7388   -3.7074   -2.0807 H   0  0  0  0  0  0  0  0  0  0  0  0
    8.6783   -0.7816   -0.9089 H   0  0  0  0  0  0  0  0  0  0  0  0
   11.3352   -0.3337   -0.7275 H   0  0  0  0  0  0  0  0  0  0  0  0
   13.4548   -1.5427   -0.5285 H   0  0  0  0  0  0  0  0  0  0  0  0
   14.3657   -2.0046    2.0126 H   0  0  0  0  0  0  0  0  0  0  0  0
   16.8332   -1.0640    2.0792 H   0  0  0  0  0  0  0  0  0  0  0  0
   18.3984   -2.3988    0.4273 H   0  0  0  0  0  0  0  0  0  0  0  0
   11.3690   -5.1630    0.6686 H   0  0  0  0  0  0  0  0  0  0  0  0
    9.0287   -6.5176    1.5260 H   0  0  0  0  0  0  0  0  0  0  0  0
    8.8390   -6.4424   -0.2695 H   0  0  0  0  0  0  0  0  0  0  0  0
    6.9163   -7.7765    0.5583 H   0  0  0  0  0  0  0  0  0  0  0  0
  1  2  1  0  0  0  0
  1 33  1  0  0  0  0
  1 34  1  0  0  0  0
  1 35  1  0  0  0  0
  2  3  1  0  0  0  0
  2  6  1  0  0  0  0
  3  4  2  0  0  0  0
  3 36  1  0  0  0  0
  4  5  1  0  0  0  0
  4 10  1  0  0  0  0
  5  6  2  0  0  0  0
  5  7  1  0  0  0  0
  7  8  1  0  0  0  0
  7 37  1  0  0  0  0
  7 38  1  0  0  0  0
  8  9  1  0  0  0  0
  8 39  1  0  0  0  0
  8 40  1  0  0  0  0
  9 10  1  0  0  0  0
  9 14  2  0  0  0  0
 10 11  2  0  0  0  0
 11 12  1  0  0  0  0
 11 31  1  0  0  0  0
 12 13  2  0  0  0  0
 12 29  1  0  0  0  0
 13 14  1  0  0  0  0
 13 28  1  0  0  0  0
 14 15  1  0  0  0  0
 15 16  1  0  0  0  0
 15 41  1  0  0  0  0
 16 17  1  0  0  0  0
 16 28  2  0  0  0  0
 17 18  2  0  0  0  0
 17 42  1  0  0  0  0
 18 19  1  0  0  0  0
 18 43  1  0  0  0  0
 19 20  1  0  0  0  0
 19 27  2  0  0  0  0
 20 21  2  0  0  0  0
 20 22  1  0  0  0  0
 22 23  2  0  0  0  0
 22 26  1  0  0  0  0
 23 24  1  0  0  0  0
 23 44  1  0  0  0  0
 24 25  2  0  0  0  0
 24 45  1  0  0  0  0
 25 26  1  0  0  0  0
 25 46  1  0  0  0  0
 27 28  1  0  0  0  0
 27 47  1  0  0  0  0
 29 30  1  0  0  0  0
 29 48  1  0  0  0  0
 29 49  1  0  0  0  0
 30 31  1  0  0  0  0
 30 50  1  0  0  0  0
 31 32  2  0  0  0  0
M  END
$$$$
