CHEMBL268826
 OpenBabel04072215363D

 54 58  0  0  0  0  0  0  0  0999 V2000
    2.3782   -0.4555    1.5673 C   0  0  0  0  0  0  0  0  0  0  0  0
    0.8844   -0.3262    1.5433 C   0  0  0  0  0  0  0  0  0  0  0  0
    0.2772    0.8582    1.9715 C   0  0  0  0  0  0  0  0  0  0  0  0
   -1.1059    0.9839    1.9594 C   0  0  0  0  0  0  0  0  0  0  0  0
   -1.8931   -0.0796    1.5162 C   0  0  0  0  0  0  0  0  0  0  0  0
   -1.3161   -1.2729    1.0656 C   0  0  0  0  0  0  0  0  0  0  0  0
   -2.0769   -2.3787    0.6057 N   0  0  0  0  0  0  0  0  0  0  0  0
   -3.4484   -2.3904    0.4160 C   0  0  0  0  0  0  0  0  0  0  0  0
   -4.1809   -1.4177    0.5424 O   0  0  0  0  0  0  0  0  0  0  0  0
   -3.9266   -3.6575    0.0914 N   0  0  0  0  0  0  0  0  0  0  0  0
   -5.3137   -3.8415   -0.1448 C   0  0  0  0  0  0  0  0  0  0  0  0
   -6.0418   -2.9160   -0.8929 C   0  0  0  0  0  0  0  0  0  0  0  0
   -7.4339   -2.9802   -0.9343 C   0  0  0  0  0  0  0  0  0  0  0  0
   -8.1305   -3.9987   -0.2658 C   0  0  0  0  0  0  0  0  0  0  0  0
   -9.6028   -3.9714   -0.2294 C   0  0  0  0  0  0  0  0  0  0  0  0
  -10.2738   -3.5648   -1.3646 C   0  0  0  0  0  0  0  0  0  0  0  0
  -11.9352   -3.4145   -1.1390 S   0  0  0  0  0  0  0  0  0  0  0  0
  -11.8817   -4.0993    0.4523 C   0  0  0  0  0  0  0  0  0  0  0  0
  -12.9945   -4.4006    1.2880 C   0  0  0  0  0  0  0  0  0  0  0  0
  -14.4160   -4.2373    0.9016 C   0  0  0  0  0  0  0  0  0  0  0  0
  -14.8902   -4.5553   -0.3791 C   0  0  0  0  0  0  0  0  0  0  0  0
  -16.2230   -4.3373   -0.6987 C   0  0  0  0  0  0  0  0  0  0  0  0
  -17.1374   -3.8791    0.1760 N   0  0  0  0  0  0  0  0  0  0  0  0
  -16.6937   -3.6196    1.4202 C   0  0  0  0  0  0  0  0  0  0  0  0
  -15.3711   -3.7704    1.8185 C   0  0  0  0  0  0  0  0  0  0  0  0
  -12.6275   -4.8595    2.5481 C   0  0  0  0  0  0  0  0  0  0  0  0
  -11.3715   -4.9980    3.0054 N   0  0  0  0  0  0  0  0  0  0  0  0
  -10.3299   -4.7086    2.2048 C   0  0  0  0  0  0  0  0  0  0  0  0
   -9.0956   -4.8429    2.8288 N   0  0  0  0  0  0  0  0  0  0  0  0
  -10.5407   -4.2824    0.8635 C   0  0  0  0  0  0  0  0  0  0  0  0
   -7.3809   -5.0009    0.3618 C   0  0  0  0  0  0  0  0  0  0  0  0
   -5.9804   -4.9182    0.4375 C   0  0  0  0  0  0  0  0  0  0  0  0
    0.0801   -1.3916    1.0850 C   0  0  0  0  0  0  0  0  0  0  0  0
    2.8475    0.4445    1.9786 H   0  0  0  0  0  0  0  0  0  0  0  0
    2.7628   -0.6000    0.5530 H   0  0  0  0  0  0  0  0  0  0  0  0
    2.6738   -1.3017    2.1959 H   0  0  0  0  0  0  0  0  0  0  0  0
    0.8801    1.6951    2.3270 H   0  0  0  0  0  0  0  0  0  0  0  0
   -1.5736    1.9035    2.2964 H   0  0  0  0  0  0  0  0  0  0  0  0
   -2.9668    0.0686    1.5415 H   0  0  0  0  0  0  0  0  0  0  0  0
   -1.5669   -3.1797    0.2632 H   0  0  0  0  0  0  0  0  0  0  0  0
   -3.4443   -4.4211    0.5414 H   0  0  0  0  0  0  0  0  0  0  0  0
   -5.5409   -2.0984   -1.4072 H   0  0  0  0  0  0  0  0  0  0  0  0
   -7.9572   -2.1894   -1.4672 H   0  0  0  0  0  0  0  0  0  0  0  0
   -9.8569   -3.2924   -2.3250 H   0  0  0  0  0  0  0  0  0  0  0  0
  -14.2435   -4.9713   -1.1437 H   0  0  0  0  0  0  0  0  0  0  0  0
  -16.5939   -4.5355   -1.7003 H   0  0  0  0  0  0  0  0  0  0  0  0
  -17.4515   -3.2716    2.1167 H   0  0  0  0  0  0  0  0  0  0  0  0
  -15.1067   -3.5130    2.8394 H   0  0  0  0  0  0  0  0  0  0  0  0
  -13.3817   -5.1398    3.2811 H   0  0  0  0  0  0  0  0  0  0  0  0
   -9.2490   -4.9419    3.8274 H   0  0  0  0  0  0  0  0  0  0  0  0
   -8.4370   -4.1175    2.5716 H   0  0  0  0  0  0  0  0  0  0  0  0
   -7.8766   -5.8372    0.8506 H   0  0  0  0  0  0  0  0  0  0  0  0
   -5.4441   -5.6573    1.0256 H   0  0  0  0  0  0  0  0  0  0  0  0
    0.5685   -2.2999    0.7461 H   0  0  0  0  0  0  0  0  0  0  0  0
  1  2  1  0  0  0  0
  1 34  1  0  0  0  0
  1 35  1  0  0  0  0
  1 36  1  0  0  0  0
  2  3  1  0  0  0  0
  2 33  2  0  0  0  0
  3  4  2  0  0  0  0
  3 37  1  0  0  0  0
  4  5  1  0  0  0  0
  4 38  1  0  0  0  0
  5  6  2  0  0  0  0
  5 39  1  0  0  0  0
  6  7  1  0  0  0  0
  6 33  1  0  0  0  0
  7  8  1  0  0  0  0
  7 40  1  0  0  0  0
  8  9  2  0  0  0  0
  8 10  1  0  0  0  0
 10 11  1  0  0  0  0
 10 41  1  0  0  0  0
 11 12  1  0  0  0  0
 11 32  2  0  0  0  0
 12 13  2  0  0  0  0
 12 42  1  0  0  0  0
 13 14  1  0  0  0  0
 13 43  1  0  0  0  0
 14 15  1  0  0  0  0
 14 31  2  0  0  0  0
 15 16  2  0  0  0  0
 15 30  1  0  0  0  0
 16 17  1  0  0  0  0
 16 44  1  0  0  0  0
 17 18  1  0  0  0  0
 18 19  1  0  0  0  0
 18 30  2  0  0  0  0
 19 20  1  0  0  0  0
 19 26  2  0  0  0  0
 20 21  1  0  0  0  0
 20 25  2  0  0  0  0
 21 22  2  0  0  0  0
 21 45  1  0  0  0  0
 22 23  1  0  0  0  0
 22 46  1  0  0  0  0
 23 24  2  0  0  0  0
 24 25  1  0  0  0  0
 24 47  1  0  0  0  0
 25 48  1  0  0  0  0
 26 27  1  0  0  0  0
 26 49  1  0  0  0  0
 27 28  2  0  0  0  0
 28 29  1  0  0  0  0
 28 30  1  0  0  0  0
 29 50  1  0  0  0  0
 29 51  1  0  0  0  0
 31 32  1  0  0  0  0
 31 52  1  0  0  0  0
 32 53  1  0  0  0  0
 33 54  1  0  0  0  0
M  END
$$$$
