CHEMBL388978
 OpenBabel04072215383D

 61 68  0  0  1  0  0  0  0  0999 V2000
    4.9971   -2.1912   -1.0469 C   0  0  0  0  0  0  0  0  0  0  0  0
    3.9411   -2.4413   -2.0421 N   0  0  0  0  0  0  0  0  0  0  0  0
    2.5955   -2.1788   -1.5021 C   0  0  2  0  0  0  0  0  0  0  0  0
    1.3752   -2.2981   -2.4854 C   0  0  0  0  0  0  0  0  0  0  0  0
    0.0262   -2.0180   -1.7246 C   0  0  1  0  0  0  0  0  0  0  0  0
    0.3172   -2.0606   -0.3264 O   0  0  0  0  0  0  0  0  0  0  0  0
    1.2431   -1.0367    0.1625 C   0  0  1  0  0  0  0  0  0  0  0  0
    1.5274   -1.6799    1.5372 C   0  0  0  0  0  0  0  0  0  0  0  0
    2.4285   -0.8293   -0.8025 C   0  0  2  0  0  0  0  0  0  0  0  0
    2.0589    0.1856   -1.7751 O   0  0  0  0  0  0  0  0  0  0  0  0
    3.0366    0.5878   -2.7106 C   0  0  0  0  0  0  0  0  0  0  0  0
    0.6095    0.2724    0.3246 N   0  0  0  0  0  0  0  0  0  0  0  0
    0.9171    1.2878    1.2463 C   0  0  0  0  0  0  0  0  0  0  0  0
    2.1391    1.6272    1.8492 C   0  0  0  0  0  0  0  0  0  0  0  0
    2.1847    2.7350    2.7015 C   0  0  0  0  0  0  0  0  0  0  0  0
    1.0461    3.4877    2.9652 C   0  0  0  0  0  0  0  0  0  0  0  0
   -0.1956    3.1083    2.4495 C   0  0  0  0  0  0  0  0  0  0  0  0
   -0.2887    1.9812    1.6054 C   0  0  0  0  0  0  0  0  0  0  0  0
   -1.3722    1.3276    0.9516 C   0  0  0  0  0  0  0  0  0  0  0  0
   -2.3413    0.6756    1.7908 C   0  0  0  0  0  0  0  0  0  0  0  0
   -2.9593   -0.4734    1.2322 C   0  0  0  0  0  0  0  0  0  0  0  0
   -2.4608   -0.8024   -0.0446 C   0  0  0  0  0  0  0  0  0  0  0  0
   -2.8356   -1.8693   -0.9042 C   0  0  0  0  0  0  0  0  0  0  0  0
   -3.9663   -2.6799   -0.9226 C   0  0  0  0  0  0  0  0  0  0  0  0
   -5.0148   -2.0658   -1.5910 C   0  0  0  0  0  0  0  0  0  0  0  0
   -4.7696   -0.9940   -2.4647 C   0  0  0  0  0  0  0  0  0  0  0  0
   -3.4484   -0.6428   -2.8518 C   0  0  0  0  0  0  0  0  0  0  0  0
   -2.3879   -1.3040   -2.1739 C   0  0  0  0  0  0  0  0  0  0  0  0
   -0.9803   -0.9280   -1.9194 N   0  0  0  0  0  0  0  0  0  0  0  0
   -1.3861   -0.2730   -0.7683 C   0  0  0  0  0  0  0  0  0  0  0  0
   -0.6496    0.6020   -0.0127 C   0  0  0  0  0  0  0  0  0  0  0  0
   -3.8065   -1.0823    2.1613 C   0  0  0  0  0  0  0  0  0  0  0  0
   -4.5823   -2.0373    2.1345 O   0  0  0  0  0  0  0  0  0  0  0  0
   -3.6089   -0.3119    3.3221 N   0  0  0  0  0  0  0  0  0  0  0  0
   -2.5839    0.7130    3.2182 C   0  0  0  0  0  0  0  0  0  0  0  0
    4.6760   -2.4183   -0.0238 H   0  0  0  0  0  0  0  0  0  0  0  0
    5.8671   -2.8201   -1.2554 H   0  0  0  0  0  0  0  0  0  0  0  0
    5.3246   -1.1475   -1.0782 H   0  0  0  0  0  0  0  0  0  0  0  0
    4.1292   -1.9067   -2.8851 H   0  0  0  0  0  0  0  0  0  0  0  0
    2.4805   -2.9867   -0.7648 H   0  0  0  0  0  0  0  0  0  0  0  0
    1.4747   -1.7085   -3.4002 H   0  0  0  0  0  0  0  0  0  0  0  0
    1.3621   -3.3499   -2.8079 H   0  0  0  0  0  0  0  0  0  0  0  0
   -0.5617   -2.9195   -1.9460 H   0  0  0  0  0  0  0  0  0  0  0  0
    1.9606   -1.0143    2.2814 H   0  0  0  0  0  0  0  0  0  0  0  0
    2.1679   -2.5615    1.4420 H   0  0  0  0  0  0  0  0  0  0  0  0
    0.5833   -2.0551    1.9700 H   0  0  0  0  0  0  0  0  0  0  0  0
    3.2902   -0.4646   -0.2351 H   0  0  0  0  0  0  0  0  0  0  0  0
    3.9702    0.8589   -2.2149 H   0  0  0  0  0  0  0  0  0  0  0  0
    2.6447    1.4613   -3.2395 H   0  0  0  0  0  0  0  0  0  0  0  0
    3.2009   -0.1834   -3.4640 H   0  0  0  0  0  0  0  0  0  0  0  0
    3.0444    1.0652    1.6479 H   0  0  0  0  0  0  0  0  0  0  0  0
    3.1338    3.0223    3.1486 H   0  0  0  0  0  0  0  0  0  0  0  0
    1.1213    4.3831    3.5778 H   0  0  0  0  0  0  0  0  0  0  0  0
   -1.0750    3.7167    2.6433 H   0  0  0  0  0  0  0  0  0  0  0  0
   -4.1471   -3.4126   -0.1433 H   0  0  0  0  0  0  0  0  0  0  0  0
   -6.0291   -2.3654   -1.3393 H   0  0  0  0  0  0  0  0  0  0  0  0
   -5.6165   -0.3919   -2.7888 H   0  0  0  0  0  0  0  0  0  0  0  0
   -3.2752    0.2521   -3.4457 H   0  0  0  0  0  0  0  0  0  0  0  0
   -4.1378   -0.5262    4.1391 H   0  0  0  0  0  0  0  0  0  0  0  0
   -1.7006    0.3748    3.7755 H   0  0  0  0  0  0  0  0  0  0  0  0
   -2.9647    1.6680    3.5756 H   0  0  0  0  0  0  0  0  0  0  0  0
  1  2  1  0  0  0  0
  1 36  1  0  0  0  0
  1 37  1  0  0  0  0
  1 38  1  0  0  0  0
  2  3  1  0  0  0  0
  2 39  1  0  0  0  0
  3  4  1  0  0  0  0
  3  9  1  0  0  0  0
  3 40  1  1  0  0  0
  4  5  1  0  0  0  0
  4 41  1  0  0  0  0
  4 42  1  0  0  0  0
  5  6  1  0  0  0  0
  5 29  1  0  0  0  0
  5 43  1  6  0  0  0
  6  7  1  0  0  0  0
  7  9  1  0  0  0  0
  7 12  1  0  0  0  0
  7  8  1  1  0  0  0
  8 44  1  0  0  0  0
  8 45  1  0  0  0  0
  8 46  1  0  0  0  0
  9 10  1  0  0  0  0
  9 47  1  1  0  0  0
 10 11  1  0  0  0  0
 11 48  1  0  0  0  0
 11 49  1  0  0  0  0
 11 50  1  0  0  0  0
 12 13  1  0  0  0  0
 12 31  1  0  0  0  0
 13 14  1  0  0  0  0
 13 18  2  0  0  0  0
 14 15  2  0  0  0  0
 14 51  1  0  0  0  0
 15 16  1  0  0  0  0
 15 52  1  0  0  0  0
 16 17  2  0  0  0  0
 16 53  1  0  0  0  0
 17 18  1  0  0  0  0
 17 54  1  0  0  0  0
 18 19  1  0  0  0  0
 19 20  1  0  0  0  0
 19 31  2  0  0  0  0
 20 21  2  0  0  0  0
 20 35  1  0  0  0  0
 21 22  1  0  0  0  0
 21 32  1  0  0  0  0
 22 23  1  0  0  0  0
 22 30  2  0  0  0  0
 23 24  1  0  0  0  0
 23 28  2  0  0  0  0
 24 25  2  0  0  0  0
 24 55  1  0  0  0  0
 25 26  1  0  0  0  0
 25 56  1  0  0  0  0
 26 27  2  0  0  0  0
 26 57  1  0  0  0  0
 27 28  1  0  0  0  0
 27 58  1  0  0  0  0
 28 29  1  0  0  0  0
 29 30  1  0  0  0  0
 30 31  1  0  0  0  0
 32 34  1  0  0  0  0
 32 33  2  0  0  0  0
 34 35  1  0  0  0  0
 34 59  1  0  0  0  0
 35 60  1  0  0  0  0
 35 61  1  0  0  0  0
M  END
$$$$
