CHEMBL3660291
 OpenBabel04072215373D

 59 62  0  0  0  0  0  0  0  0999 V2000
    2.7887    0.7937   -2.4531 C   0  0  0  0  0  0  0  0  0  0  0  0
    1.3870    0.5232   -1.9890 C   0  0  0  0  0  0  0  0  0  0  0  0
    0.8736   -0.7746   -2.0686 C   0  0  0  0  0  0  0  0  0  0  0  0
   -0.4101   -1.0402   -1.6113 C   0  0  0  0  0  0  0  0  0  0  0  0
   -1.1952   -0.0155   -1.0899 C   0  0  0  0  0  0  0  0  0  0  0  0
   -2.3576   -0.3899   -0.5444 F   0  0  0  0  0  0  0  0  0  0  0  0
   -0.7393    1.3146   -1.0521 C   0  0  0  0  0  0  0  0  0  0  0  0
   -1.5177    2.4258   -0.6133 N   0  0  0  0  0  0  0  0  0  0  0  0
   -2.8987    2.4477   -0.5441 C   0  0  0  0  0  0  0  0  0  0  0  0
   -3.6370    1.5281   -0.8749 O   0  0  0  0  0  0  0  0  0  0  0  0
   -3.4027    3.6786   -0.1265 N   0  0  0  0  0  0  0  0  0  0  0  0
   -4.8047    3.7966    0.0603 C   0  0  0  0  0  0  0  0  0  0  0  0
   -5.4880    2.8638    0.8481 C   0  0  0  0  0  0  0  0  0  0  0  0
   -6.8792    2.8913    0.9346 C   0  0  0  0  0  0  0  0  0  0  0  0
   -7.5984    3.8922    0.2803 C   0  0  0  0  0  0  0  0  0  0  0  0
   -8.9713    3.9978    0.3138 O   0  0  0  0  0  0  0  0  0  0  0  0
   -9.6557    3.6174    1.4463 C   0  0  0  0  0  0  0  0  0  0  0  0
   -9.1729    3.7991    2.7410 C   0  0  0  0  0  0  0  0  0  0  0  0
   -9.9398    3.3335    3.7929 C   0  0  0  0  0  0  0  0  0  0  0  0
  -11.1553    2.7645    3.6473 N   0  0  0  0  0  0  0  0  0  0  0  0
  -11.6334    2.6604    2.3825 C   0  0  0  0  0  0  0  0  0  0  0  0
  -12.9636    2.0690    2.2931 C   0  0  0  0  0  0  0  0  0  0  0  0
  -13.7839    1.8122    1.2070 C   0  0  0  0  0  0  0  0  0  0  0  0
  -14.9802    1.1892    1.6712 C   0  0  0  0  0  0  0  0  0  0  0  0
  -16.0889    0.6803    0.8801 C   0  0  0  0  0  0  0  0  0  0  0  0
  -17.0382    0.0643    1.3535 O   0  0  0  0  0  0  0  0  0  0  0  0
  -15.9091    0.9076   -0.4535 O   0  0  0  0  0  0  0  0  0  0  0  0
  -16.6872    0.0825   -1.3357 C   0  0  0  0  0  0  0  0  0  0  0  0
  -18.1366    0.5409   -1.4548 C   0  0  0  0  0  0  0  0  0  0  0  0
  -18.2020    1.8594   -1.9928 O   0  0  0  0  0  0  0  0  0  0  0  0
  -14.8608    1.1093    3.0469 C   0  0  0  0  0  0  0  0  0  0  0  0
  -13.6473    1.6296    3.4056 N   0  0  0  0  0  0  0  0  0  0  0  0
  -10.9192    3.0717    1.2645 C   0  0  0  0  0  0  0  0  0  0  0  0
   -6.9191    4.8238   -0.5113 C   0  0  0  0  0  0  0  0  0  0  0  0
   -5.5208    4.7940   -0.6038 C   0  0  0  0  0  0  0  0  0  0  0  0
    0.5774    1.5611   -1.4801 C   0  0  0  0  0  0  0  0  0  0  0  0
    3.2773   -0.1264   -2.7988 H   0  0  0  0  0  0  0  0  0  0  0  0
    3.3912    1.1952   -1.6328 H   0  0  0  0  0  0  0  0  0  0  0  0
    2.7865    1.4995   -3.2891 H   0  0  0  0  0  0  0  0  0  0  0  0
    1.4725   -1.5903   -2.4675 H   0  0  0  0  0  0  0  0  0  0  0  0
   -0.8126   -2.0482   -1.6366 H   0  0  0  0  0  0  0  0  0  0  0  0
   -1.0376    3.3033   -0.4828 H   0  0  0  0  0  0  0  0  0  0  0  0
   -2.9465    4.4741   -0.5476 H   0  0  0  0  0  0  0  0  0  0  0  0
   -4.9424    2.0854    1.3772 H   0  0  0  0  0  0  0  0  0  0  0  0
   -7.3785    2.1140    1.5067 H   0  0  0  0  0  0  0  0  0  0  0  0
   -8.2137    4.2644    2.9364 H   0  0  0  0  0  0  0  0  0  0  0  0
   -9.5796    3.4060    4.8166 H   0  0  0  0  0  0  0  0  0  0  0  0
  -13.5431    2.0201    0.1732 H   0  0  0  0  0  0  0  0  0  0  0  0
  -16.6243   -0.9631   -1.0121 H   0  0  0  0  0  0  0  0  0  0  0  0
  -16.2003    0.1525   -2.3151 H   0  0  0  0  0  0  0  0  0  0  0  0
  -18.6543    0.5459   -0.4922 H   0  0  0  0  0  0  0  0  0  0  0  0
  -18.6777   -0.1255   -2.1318 H   0  0  0  0  0  0  0  0  0  0  0  0
  -17.7505    2.4419   -1.3582 H   0  0  0  0  0  0  0  0  0  0  0  0
  -15.5316    0.7025    3.7933 H   0  0  0  0  0  0  0  0  0  0  0  0
  -13.2634    1.6795    4.3442 H   0  0  0  0  0  0  0  0  0  0  0  0
  -11.3277    2.9666    0.2648 H   0  0  0  0  0  0  0  0  0  0  0  0
   -7.4824    5.5594   -1.0808 H   0  0  0  0  0  0  0  0  0  0  0  0
   -5.0195    5.5030   -1.2558 H   0  0  0  0  0  0  0  0  0  0  0  0
    0.9843    2.5694   -1.4452 H   0  0  0  0  0  0  0  0  0  0  0  0
  1  2  1  0  0  0  0
  1 37  1  0  0  0  0
  1 38  1  0  0  0  0
  1 39  1  0  0  0  0
  2  3  1  0  0  0  0
  2 36  2  0  0  0  0
  3  4  2  0  0  0  0
  3 40  1  0  0  0  0
  4  5  1  0  0  0  0
  4 41  1  0  0  0  0
  5  6  1  0  0  0  0
  5  7  2  0  0  0  0
  7  8  1  0  0  0  0
  7 36  1  0  0  0  0
  8  9  1  0  0  0  0
  8 42  1  0  0  0  0
  9 10  2  0  0  0  0
  9 11  1  0  0  0  0
 11 12  1  0  0  0  0
 11 43  1  0  0  0  0
 12 13  1  0  0  0  0
 12 35  2  0  0  0  0
 13 14  2  0  0  0  0
 13 44  1  0  0  0  0
 14 15  1  0  0  0  0
 14 45  1  0  0  0  0
 15 16  1  0  0  0  0
 15 34  2  0  0  0  0
 16 17  1  0  0  0  0
 17 18  1  0  0  0  0
 17 33  2  0  0  0  0
 18 19  2  0  0  0  0
 18 46  1  0  0  0  0
 19 20  1  0  0  0  0
 19 47  1  0  0  0  0
 20 21  2  0  0  0  0
 21 22  1  0  0  0  0
 21 33  1  0  0  0  0
 22 23  2  0  0  0  0
 22 32  1  0  0  0  0
 23 24  1  0  0  0  0
 23 48  1  0  0  0  0
 24 25  1  0  0  0  0
 24 31  2  0  0  0  0
 25 26  2  0  0  0  0
 25 27  1  0  0  0  0
 27 28  1  0  0  0  0
 28 29  1  0  0  0  0
 28 49  1  0  0  0  0
 28 50  1  0  0  0  0
 29 30  1  0  0  0  0
 29 51  1  0  0  0  0
 29 52  1  0  0  0  0
 30 53  1  0  0  0  0
 31 32  1  0  0  0  0
 31 54  1  0  0  0  0
 32 55  1  0  0  0  0
 33 56  1  0  0  0  0
 34 35  1  0  0  0  0
 34 57  1  0  0  0  0
 35 58  1  0  0  0  0
 36 59  1  0  0  0  0
M  END
$$$$
