CHEMBL3702608
 OpenBabel04072215373D

 51 54  0  0  0  0  0  0  0  0999 V2000
    3.4484    0.9889   -2.3799 C   0  0  0  0  0  0  0  0  0  0  0  0
    3.4828    0.5299   -0.9312 C   0  0  0  0  0  0  0  0  0  0  0  0
    3.7166    1.6651    0.0318 C   0  0  0  0  0  0  0  0  0  0  0  0
    2.6362    2.4275    0.4811 C   0  0  0  0  0  0  0  0  0  0  0  0
    2.8231    3.4524    1.4120 C   0  0  0  0  0  0  0  0  0  0  0  0
    4.0925    3.7463    1.9076 C   0  0  0  0  0  0  0  0  0  0  0  0
    4.3357    4.7625    2.8650 N   0  0  0  0  0  0  0  0  0  0  0  0
    3.3810    5.5630    3.4741 C   0  0  0  0  0  0  0  0  0  0  0  0
    2.1618    5.4978    3.3460 O   0  0  0  0  0  0  0  0  0  0  0  0
    3.9114    6.6503    4.3325 C   0  0  0  0  0  0  0  0  0  0  0  0
    4.9721    6.4504    5.2176 C   0  0  0  0  0  0  0  0  0  0  0  0
    5.4506    7.5316    5.9519 C   0  0  0  0  0  0  0  0  0  0  0  0
    4.8937    8.8026    5.7715 C   0  0  0  0  0  0  0  0  0  0  0  0
    3.8368    9.0300    4.8768 C   0  0  0  0  0  0  0  0  0  0  0  0
    3.3904   10.3047    4.5928 N   0  0  0  0  0  0  0  0  0  0  0  0
    4.3542   11.3911    4.4213 C   0  0  0  0  0  0  0  0  0  0  0  0
    4.1002   12.0609    3.0754 C   0  0  0  0  0  0  0  0  0  0  0  0
    2.6535   12.4341    2.9190 C   0  0  0  0  0  0  0  0  0  0  0  0
    2.3801   13.4192    2.0331 N   0  0  0  0  0  0  0  0  0  0  0  0
    1.0990   13.7554    1.8740 C   0  0  0  0  0  0  0  0  0  0  0  0
    0.8142   14.7425    0.9536 N   0  0  0  0  0  0  0  0  0  0  0  0
    0.0757   13.1719    2.5018 N   0  0  0  0  0  0  0  0  0  0  0  0
    0.3850   12.1877    3.3707 C   0  0  0  0  0  0  0  0  0  0  0  0
    1.6711   11.7570    3.6193 C   0  0  0  0  0  0  0  0  0  0  0  0
    1.9720   10.6717    4.6160 C   0  0  0  0  0  0  0  0  0  0  0  0
    3.3225    7.9199    4.2014 C   0  0  0  0  0  0  0  0  0  0  0  0
    5.1845    3.0132    1.4277 C   0  0  0  0  0  0  0  0  0  0  0  0
    4.9981    1.9799    0.4973 C   0  0  0  0  0  0  0  0  0  0  0  0
    3.2438    0.1384   -3.0384 H   0  0  0  0  0  0  0  0  0  0  0  0
    4.4044    1.4294   -2.6792 H   0  0  0  0  0  0  0  0  0  0  0  0
    2.6650    1.7373   -2.5441 H   0  0  0  0  0  0  0  0  0  0  0  0
    4.2581   -0.2346   -0.8011 H   0  0  0  0  0  0  0  0  0  0  0  0
    2.5332    0.0396   -0.6812 H   0  0  0  0  0  0  0  0  0  0  0  0
    1.6306    2.2258    0.1207 H   0  0  0  0  0  0  0  0  0  0  0  0
    1.9437    4.0050    1.7220 H   0  0  0  0  0  0  0  0  0  0  0  0
    5.3071    4.9453    3.0783 H   0  0  0  0  0  0  0  0  0  0  0  0
    5.4150    5.4691    5.3564 H   0  0  0  0  0  0  0  0  0  0  0  0
    6.2665    7.3980    6.6584 H   0  0  0  0  0  0  0  0  0  0  0  0
    5.2976    9.6310    6.3499 H   0  0  0  0  0  0  0  0  0  0  0  0
    5.3919   11.0349    4.4267 H   0  0  0  0  0  0  0  0  0  0  0  0
    4.2488   12.1059    5.2460 H   0  0  0  0  0  0  0  0  0  0  0  0
    4.3629   11.3757    2.2596 H   0  0  0  0  0  0  0  0  0  0  0  0
    4.7319   12.9511    2.9832 H   0  0  0  0  0  0  0  0  0  0  0  0
    1.5581   14.7813    0.2711 H   0  0  0  0  0  0  0  0  0  0  0  0
   -0.1262   14.6157    0.6069 H   0  0  0  0  0  0  0  0  0  0  0  0
   -0.4707   11.7468    3.8753 H   0  0  0  0  0  0  0  0  0  0  0  0
    1.3224    9.8125    4.4191 H   0  0  0  0  0  0  0  0  0  0  0  0
    1.7311   11.0474    5.6199 H   0  0  0  0  0  0  0  0  0  0  0  0
    2.5070    8.0440    3.4914 H   0  0  0  0  0  0  0  0  0  0  0  0
    6.1927    3.2215    1.7749 H   0  0  0  0  0  0  0  0  0  0  0  0
    5.8604    1.4169    0.1464 H   0  0  0  0  0  0  0  0  0  0  0  0
  1  2  1  0  0  0  0
  1 29  1  0  0  0  0
  1 30  1  0  0  0  0
  1 31  1  0  0  0  0
  2  3  1  0  0  0  0
  2 32  1  0  0  0  0
  2 33  1  0  0  0  0
  3  4  1  0  0  0  0
  3 28  2  0  0  0  0
  4  5  2  0  0  0  0
  4 34  1  0  0  0  0
  5  6  1  0  0  0  0
  5 35  1  0  0  0  0
  6  7  1  0  0  0  0
  6 27  2  0  0  0  0
  7  8  1  0  0  0  0
  7 36  1  0  0  0  0
  8  9  2  0  0  0  0
  8 10  1  0  0  0  0
 10 11  1  0  0  0  0
 10 26  2  0  0  0  0
 11 12  2  0  0  0  0
 11 37  1  0  0  0  0
 12 13  1  0  0  0  0
 12 38  1  0  0  0  0
 13 14  2  0  0  0  0
 13 39  1  0  0  0  0
 14 15  1  0  0  0  0
 14 26  1  0  0  0  0
 15 16  1  0  0  0  0
 15 25  1  0  0  0  0
 16 17  1  0  0  0  0
 16 40  1  0  0  0  0
 16 41  1  0  0  0  0
 17 18  1  0  0  0  0
 17 42  1  0  0  0  0
 17 43  1  0  0  0  0
 18 19  1  0  0  0  0
 18 24  2  0  0  0  0
 19 20  2  0  0  0  0
 20 21  1  0  0  0  0
 20 22  1  0  0  0  0
 21 44  1  0  0  0  0
 21 45  1  0  0  0  0
 22 23  2  0  0  0  0
 23 24  1  0  0  0  0
 23 46  1  0  0  0  0
 24 25  1  0  0  0  0
 25 47  1  0  0  0  0
 25 48  1  0  0  0  0
 26 49  1  0  0  0  0
 27 28  1  0  0  0  0
 27 50  1  0  0  0  0
 28 51  1  0  0  0  0
M  END
$$$$
