CHEMBL197847
 OpenBabel04072215363D

 53 56  0  0  0  0  0  0  0  0999 V2000
    5.3283    1.6207   -1.7113 C   0  0  0  0  0  0  0  0  0  0  0  0
    4.3486    0.8015   -0.9257 C   0  0  0  0  0  0  0  0  0  0  0  0
    4.6784   -0.8737   -0.8093 S   0  0  0  0  0  0  0  0  0  0  0  0
    3.3354   -1.1521    0.1781 C   0  0  0  0  0  0  0  0  0  0  0  0
    3.1135   -2.3978    0.6288 N   0  0  0  0  0  0  0  0  0  0  0  0
    2.0291   -2.4786    1.3914 C   0  0  0  0  0  0  0  0  0  0  0  0
    1.1880   -1.4888    1.7016 N   0  0  0  0  0  0  0  0  0  0  0  0
    1.4268   -0.2539    1.2178 C   0  0  0  0  0  0  0  0  0  0  0  0
    0.4630    0.6791    1.5709 N   0  0  0  0  0  0  0  0  0  0  0  0
    2.5737   -0.0160    0.4177 C   0  0  0  0  0  0  0  0  0  0  0  0
    3.1862    1.1595   -0.2374 C   0  0  0  0  0  0  0  0  0  0  0  0
    2.7258    2.5640   -0.1694 C   0  0  0  0  0  0  0  0  0  0  0  0
    2.1733    3.0586    1.0102 C   0  0  0  0  0  0  0  0  0  0  0  0
    1.6241    4.3419    1.0770 C   0  0  0  0  0  0  0  0  0  0  0  0
    1.7256    5.2278    0.0059 C   0  0  0  0  0  0  0  0  0  0  0  0
    1.2353    6.5527    0.0414 N   0  0  0  0  0  0  0  0  0  0  0  0
    0.5760    7.1265    1.1026 C   0  0  0  0  0  0  0  0  0  0  0  0
    0.3025    6.5858    2.1660 O   0  0  0  0  0  0  0  0  0  0  0  0
    0.2280    8.4452    0.8708 N   0  0  0  0  0  0  0  0  0  0  0  0
   -0.5466    9.0701    1.9248 C   0  0  0  0  0  0  0  0  0  0  0  0
   -0.8751   10.5461    1.7129 C   0  0  0  0  0  0  0  0  0  0  0  0
    0.3849   11.4098    1.5718 C   0  0  0  0  0  0  0  0  0  0  0  0
    0.0341   12.8946    1.4832 C   0  0  0  0  0  0  0  0  0  0  0  0
   -0.8047   13.3474    2.6747 C   0  0  0  0  0  0  0  0  0  0  0  0
   -2.0610   12.4997    2.8274 C   0  0  0  0  0  0  0  0  0  0  0  0
   -1.7247   11.0169    2.9077 C   0  0  0  0  0  0  0  0  0  0  0  0
    2.3515    4.7800   -1.1548 C   0  0  0  0  0  0  0  0  0  0  0  0
    2.8057    3.4521   -1.2538 C   0  0  0  0  0  0  0  0  0  0  0  0
    6.2431    1.0651   -1.9458 H   0  0  0  0  0  0  0  0  0  0  0  0
    5.6263    2.5144   -1.1553 H   0  0  0  0  0  0  0  0  0  0  0  0
    4.8950    1.9184   -2.6715 H   0  0  0  0  0  0  0  0  0  0  0  0
    1.7960   -3.4557    1.8025 H   0  0  0  0  0  0  0  0  0  0  0  0
   -0.3411    0.2199    1.9841 H   0  0  0  0  0  0  0  0  0  0  0  0
    0.2579    1.3769    0.8683 H   0  0  0  0  0  0  0  0  0  0  0  0
    2.1294    2.4528    1.9128 H   0  0  0  0  0  0  0  0  0  0  0  0
    1.1309    4.6052    2.0063 H   0  0  0  0  0  0  0  0  0  0  0  0
    1.4293    7.1455   -0.7437 H   0  0  0  0  0  0  0  0  0  0  0  0
    0.0081    8.6905   -0.0809 H   0  0  0  0  0  0  0  0  0  0  0  0
    0.0032    8.9421    2.8663 H   0  0  0  0  0  0  0  0  0  0  0  0
   -1.4800    8.5000    2.0169 H   0  0  0  0  0  0  0  0  0  0  0  0
   -1.4682   10.6467    0.7945 H   0  0  0  0  0  0  0  0  0  0  0  0
    0.9435   11.1212    0.6738 H   0  0  0  0  0  0  0  0  0  0  0  0
    1.0511   11.2455    2.4283 H   0  0  0  0  0  0  0  0  0  0  0  0
   -0.5200   13.0823    0.5551 H   0  0  0  0  0  0  0  0  0  0  0  0
    0.9534   13.4878    1.4334 H   0  0  0  0  0  0  0  0  0  0  0  0
   -1.0842   14.3999    2.5520 H   0  0  0  0  0  0  0  0  0  0  0  0
   -0.2036   13.2798    3.5900 H   0  0  0  0  0  0  0  0  0  0  0  0
   -2.7339   12.6751    1.9812 H   0  0  0  0  0  0  0  0  0  0  0  0
   -2.6015   12.8000    3.7347 H   0  0  0  0  0  0  0  0  0  0  0  0
   -2.6542   10.4365    2.9587 H   0  0  0  0  0  0  0  0  0  0  0  0
   -1.1844   10.8252    3.8442 H   0  0  0  0  0  0  0  0  0  0  0  0
    2.4839    5.4403   -2.0086 H   0  0  0  0  0  0  0  0  0  0  0  0
    3.2184    3.1411   -2.2070 H   0  0  0  0  0  0  0  0  0  0  0  0
  1  2  1  0  0  0  0
  1 29  1  0  0  0  0
  1 30  1  0  0  0  0
  1 31  1  0  0  0  0
  2  3  1  0  0  0  0
  2 11  2  0  0  0  0
  3  4  1  0  0  0  0
  4  5  1  0  0  0  0
  4 10  2  0  0  0  0
  5  6  2  0  0  0  0
  6  7  1  0  0  0  0
  6 32  1  0  0  0  0
  7  8  2  0  0  0  0
  8  9  1  0  0  0  0
  8 10  1  0  0  0  0
  9 33  1  0  0  0  0
  9 34  1  0  0  0  0
 10 11  1  0  0  0  0
 11 12  1  0  0  0  0
 12 13  1  0  0  0  0
 12 28  2  0  0  0  0
 13 14  2  0  0  0  0
 13 35  1  0  0  0  0
 14 15  1  0  0  0  0
 14 36  1  0  0  0  0
 15 16  1  0  0  0  0
 15 27  2  0  0  0  0
 16 17  1  0  0  0  0
 16 37  1  0  0  0  0
 17 18  2  0  0  0  0
 17 19  1  0  0  0  0
 19 20  1  0  0  0  0
 19 38  1  0  0  0  0
 20 21  1  0  0  0  0
 20 39  1  0  0  0  0
 20 40  1  0  0  0  0
 21 22  1  0  0  0  0
 21 26  1  0  0  0  0
 21 41  1  0  0  0  0
 22 23  1  0  0  0  0
 22 42  1  0  0  0  0
 22 43  1  0  0  0  0
 23 24  1  0  0  0  0
 23 44  1  0  0  0  0
 23 45  1  0  0  0  0
 24 25  1  0  0  0  0
 24 46  1  0  0  0  0
 24 47  1  0  0  0  0
 25 26  1  0  0  0  0
 25 48  1  0  0  0  0
 25 49  1  0  0  0  0
 26 50  1  0  0  0  0
 26 51  1  0  0  0  0
 27 28  1  0  0  0  0
 27 52  1  0  0  0  0
 28 53  1  0  0  0  0
M  END
$$$$
