CHEMBL245948
 OpenBabel04072215363D

 57 60  0  0  0  0  0  0  0  0999 V2000
   14.5687   -2.7555   -0.7141 C   0  0  0  0  0  0  0  0  0  0  0  0
   13.2269   -3.1667   -0.3760 N   0  0  0  0  0  0  0  0  0  0  0  0
   12.2276   -2.8289   -1.2762 C   0  0  0  0  0  0  0  0  0  0  0  0
   12.4965   -2.6677   -2.5639 N   0  0  0  0  0  0  0  0  0  0  0  0
   11.4386   -2.4167   -3.3310 C   0  0  0  0  0  0  0  0  0  0  0  0
   10.1740   -2.3218   -2.9306 N   0  0  0  0  0  0  0  0  0  0  0  0
   10.0089   -2.4920   -1.6227 C   0  0  0  0  0  0  0  0  0  0  0  0
    8.6453   -2.5966   -1.0760 C   0  0  0  0  0  0  0  0  0  0  0  0
    8.4325   -3.3726    0.0896 C   0  0  0  0  0  0  0  0  0  0  0  0
    7.1695   -3.5250    0.6528 C   0  0  0  0  0  0  0  0  0  0  0  0
    6.1105   -2.9249    0.0150 C   0  0  0  0  0  0  0  0  0  0  0  0
    6.2462   -2.1949   -1.1062 N   0  0  0  0  0  0  0  0  0  0  0  0
    7.5007   -1.9945   -1.6111 C   0  0  0  0  0  0  0  0  0  0  0  0
    7.6103   -1.1062   -2.6862 O   0  0  0  0  0  0  0  0  0  0  0  0
    6.6365   -0.1218   -2.7947 C   0  0  0  0  0  0  0  0  0  0  0  0
    6.1402    0.5550   -1.6758 C   0  0  0  0  0  0  0  0  0  0  0  0
    5.0965    1.4583   -1.8092 C   0  0  0  0  0  0  0  0  0  0  0  0
    4.6075    1.7640   -3.0755 C   0  0  0  0  0  0  0  0  0  0  0  0
    5.1782    1.2093   -4.2265 C   0  0  0  0  0  0  0  0  0  0  0  0
    4.7835    1.6148   -5.5318 N   0  0  0  0  0  0  0  0  0  0  0  0
    4.0534    2.7671   -5.8142 C   0  0  0  0  0  0  0  0  0  0  0  0
    3.6667    3.5892   -4.9893 O   0  0  0  0  0  0  0  0  0  0  0  0
    3.7431    3.0661   -7.2390 C   0  0  0  0  0  0  0  0  0  0  0  0
    3.5670    2.0819   -8.2123 C   0  0  0  0  0  0  0  0  0  0  0  0
    3.1817    2.4546   -9.5052 C   0  0  0  0  0  0  0  0  0  0  0  0
    2.9594    3.8005   -9.8266 C   0  0  0  0  0  0  0  0  0  0  0  0
    3.1227    4.8026   -8.8625 C   0  0  0  0  0  0  0  0  0  0  0  0
    2.8279    6.2678   -9.1369 C   0  0  0  0  0  0  0  0  0  0  0  0
    3.6379    6.8266  -10.3079 C   0  0  0  0  0  0  0  0  0  0  0  0
    1.3302    6.5016   -9.3497 C   0  0  0  0  0  0  0  0  0  0  0  0
    3.5217    4.4156   -7.5742 C   0  0  0  0  0  0  0  0  0  0  0  0
    6.1782    0.2306   -4.0767 C   0  0  0  0  0  0  0  0  0  0  0  0
   11.0106   -2.7327   -0.7620 N   0  0  0  0  0  0  0  0  0  0  0  0
   15.2530   -3.0807    0.0770 H   0  0  0  0  0  0  0  0  0  0  0  0
   14.6464   -1.6665   -0.7947 H   0  0  0  0  0  0  0  0  0  0  0  0
   14.9126   -3.2165   -1.6462 H   0  0  0  0  0  0  0  0  0  0  0  0
   12.9043   -2.9239    0.5526 H   0  0  0  0  0  0  0  0  0  0  0  0
   11.6282   -2.2934   -4.3919 H   0  0  0  0  0  0  0  0  0  0  0  0
    9.2722   -3.8727    0.5722 H   0  0  0  0  0  0  0  0  0  0  0  0
    7.0238   -4.1034    1.5576 H   0  0  0  0  0  0  0  0  0  0  0  0
    5.0985   -3.0007    0.4008 H   0  0  0  0  0  0  0  0  0  0  0  0
    6.5201    0.3428   -0.6792 H   0  0  0  0  0  0  0  0  0  0  0  0
    4.6544    1.9221   -0.9324 H   0  0  0  0  0  0  0  0  0  0  0  0
    3.7683    2.4501   -3.1257 H   0  0  0  0  0  0  0  0  0  0  0  0
    5.2027    1.1180   -6.3057 H   0  0  0  0  0  0  0  0  0  0  0  0
    3.6719    1.0274   -7.9774 H   0  0  0  0  0  0  0  0  0  0  0  0
    3.0226    1.6912  -10.2640 H   0  0  0  0  0  0  0  0  0  0  0  0
    2.6328    4.0542  -10.8330 H   0  0  0  0  0  0  0  0  0  0  0  0
    3.1187    6.8506   -8.2521 H   0  0  0  0  0  0  0  0  0  0  0  0
    3.4070    6.3190  -11.2500 H   0  0  0  0  0  0  0  0  0  0  0  0
    4.7126    6.7223  -10.1229 H   0  0  0  0  0  0  0  0  0  0  0  0
    3.4259    7.8931  -10.4451 H   0  0  0  0  0  0  0  0  0  0  0  0
    0.9635    6.0015  -10.2524 H   0  0  0  0  0  0  0  0  0  0  0  0
    1.1188    7.5721   -9.4505 H   0  0  0  0  0  0  0  0  0  0  0  0
    0.7495    6.1271   -8.4992 H   0  0  0  0  0  0  0  0  0  0  0  0
    3.6360    5.1756   -6.8008 H   0  0  0  0  0  0  0  0  0  0  0  0
    6.6140   -0.2585   -4.9416 H   0  0  0  0  0  0  0  0  0  0  0  0
  1  2  1  0  0  0  0
  1 34  1  0  0  0  0
  1 35  1  0  0  0  0
  1 36  1  0  0  0  0
  2  3  1  0  0  0  0
  2 37  1  0  0  0  0
  3  4  1  0  0  0  0
  3 33  2  0  0  0  0
  4  5  2  0  0  0  0
  5  6  1  0  0  0  0
  5 38  1  0  0  0  0
  6  7  2  0  0  0  0
  7  8  1  0  0  0  0
  7 33  1  0  0  0  0
  8  9  1  0  0  0  0
  8 13  2  0  0  0  0
  9 10  2  0  0  0  0
  9 39  1  0  0  0  0
 10 11  1  0  0  0  0
 10 40  1  0  0  0  0
 11 12  2  0  0  0  0
 11 41  1  0  0  0  0
 12 13  1  0  0  0  0
 13 14  1  0  0  0  0
 14 15  1  0  0  0  0
 15 16  1  0  0  0  0
 15 32  2  0  0  0  0
 16 17  2  0  0  0  0
 16 42  1  0  0  0  0
 17 18  1  0  0  0  0
 17 43  1  0  0  0  0
 18 19  2  0  0  0  0
 18 44  1  0  0  0  0
 19 20  1  0  0  0  0
 19 32  1  0  0  0  0
 20 21  1  0  0  0  0
 20 45  1  0  0  0  0
 21 22  2  0  0  0  0
 21 23  1  0  0  0  0
 23 24  1  0  0  0  0
 23 31  2  0  0  0  0
 24 25  2  0  0  0  0
 24 46  1  0  0  0  0
 25 26  1  0  0  0  0
 25 47  1  0  0  0  0
 26 27  2  0  0  0  0
 26 48  1  0  0  0  0
 27 28  1  0  0  0  0
 27 31  1  0  0  0  0
 28 29  1  0  0  0  0
 28 30  1  0  0  0  0
 28 49  1  0  0  0  0
 29 50  1  0  0  0  0
 29 51  1  0  0  0  0
 29 52  1  0  0  0  0
 30 53  1  0  0  0  0
 30 54  1  0  0  0  0
 30 55  1  0  0  0  0
 31 56  1  0  0  0  0
 32 57  1  0  0  0  0
M  END
$$$$
