CHEMBL3109353
 OpenBabel04072215363D

 60 64  0  0  1  0  0  0  0  0999 V2000
    1.4089    4.9061    3.3245 C   0  0  0  0  0  0  0  0  0  0  0  0
    2.7936    4.6668    3.1110 O   0  0  0  0  0  0  0  0  0  0  0  0
    3.1863    3.4029    3.6526 C   0  0  0  0  0  0  0  0  0  0  0  0
    4.6707    3.1989    3.3962 C   0  0  0  0  0  0  0  0  0  0  0  0
    5.0782    1.9337    3.9143 O   0  0  0  0  0  0  0  0  0  0  0  0
    6.4200    1.6069    3.8363 C   0  0  0  0  0  0  0  0  0  0  0  0
    7.3572    2.4817    3.1339 C   0  0  0  0  0  0  0  0  0  0  0  0
    8.6566    2.1473    3.0693 C   0  0  0  0  0  0  0  0  0  0  0  0
    9.1005    0.9719    3.6729 N   0  0  0  0  0  0  0  0  0  0  0  0
   10.3616    0.3997    3.7252 C   0  0  0  0  0  0  0  0  0  0  0  0
   11.5802    0.9149    3.1099 C   0  0  0  0  0  0  0  0  0  0  0  0
   12.5695    0.0474    2.6761 C   0  0  0  0  0  0  0  0  0  0  0  0
   13.7151    0.5816    2.1094 C   0  0  0  0  0  0  0  0  0  0  0  0
   13.8547    1.9663    1.9990 C   0  0  0  0  0  0  0  0  0  0  0  0
   15.0185    2.4964    1.4281 C   0  0  0  0  0  0  0  0  0  0  0  0
   15.1797    3.8692    1.3206 C   0  0  0  0  0  0  0  0  0  0  0  0
   14.1857    4.7192    1.7989 C   0  0  0  0  0  0  0  0  0  0  0  0
   13.0220    4.2020    2.3963 C   0  0  0  0  0  0  0  0  0  0  0  0
   12.0180    5.0102    2.9109 O   0  0  0  0  0  0  0  0  0  0  0  0
   12.3852    6.3204    3.3471 C   0  0  2  0  0  0  0  0  0  0  0  0
   13.2456    6.3387    4.6048 C   0  0  0  0  0  0  0  0  0  0  0  0
   13.1026    7.7022    5.1267 N   0  0  0  0  0  0  0  0  0  0  0  0
   11.6844    8.0845    4.8701 C   0  0  2  0  0  0  0  0  0  0  0  0
   10.8573    8.0370    6.1694 C   0  0  0  0  0  0  0  0  0  0  0  0
   11.2738    7.7285    7.2794 O   0  0  0  0  0  0  0  0  0  0  0  0
    9.5754    8.4546    5.9247 O   0  0  0  0  0  0  0  0  0  0  0  0
    8.7541    8.4813    7.0961 C   0  0  0  0  0  0  0  0  0  0  0  0
   11.1604    7.1295    3.7914 C   0  0  0  0  0  0  0  0  0  0  0  0
   12.8186    2.8047    2.4815 C   0  0  0  0  0  0  0  0  0  0  0  0
   11.6956    2.2613    3.0207 N   0  0  0  0  0  0  0  0  0  0  0  0
   10.1686   -0.7662    4.4508 C   0  0  0  0  0  0  0  0  0  0  0  0
    8.8646   -0.9441    4.8202 N   0  0  0  0  0  0  0  0  0  0  0  0
    8.2339    0.1084    4.3457 C   0  0  0  0  0  0  0  0  0  0  0  0
    6.8573    0.4709    4.4104 C   0  0  0  0  0  0  0  0  0  0  0  0
    1.1543    5.8793    2.8971 H   0  0  0  0  0  0  0  0  0  0  0  0
    1.1851    4.9259    4.3936 H   0  0  0  0  0  0  0  0  0  0  0  0
    0.8080    4.1402    2.8288 H   0  0  0  0  0  0  0  0  0  0  0  0
    2.6122    2.5974    3.1817 H   0  0  0  0  0  0  0  0  0  0  0  0
    2.9881    3.3771    4.7282 H   0  0  0  0  0  0  0  0  0  0  0  0
    5.2270    4.0105    3.8825 H   0  0  0  0  0  0  0  0  0  0  0  0
    4.8507    3.2412    2.3145 H   0  0  0  0  0  0  0  0  0  0  0  0
    7.0368    3.3980    2.6585 H   0  0  0  0  0  0  0  0  0  0  0  0
    9.3789    2.7675    2.5621 H   0  0  0  0  0  0  0  0  0  0  0  0
   12.4619   -1.0278    2.7661 H   0  0  0  0  0  0  0  0  0  0  0  0
   14.4972   -0.0914    1.7661 H   0  0  0  0  0  0  0  0  0  0  0  0
   15.8068    1.8405    1.0627 H   0  0  0  0  0  0  0  0  0  0  0  0
   16.0818    4.2757    0.8692 H   0  0  0  0  0  0  0  0  0  0  0  0
   14.3525    5.7840    1.6835 H   0  0  0  0  0  0  0  0  0  0  0  0
   12.8494    6.8884    2.5338 H   0  0  0  0  0  0  0  0  0  0  0  0
   14.2933    6.1149    4.3856 H   0  0  0  0  0  0  0  0  0  0  0  0
   12.9059    5.5997    5.3447 H   0  0  0  0  0  0  0  0  0  0  0  0
   13.7117    8.3276    4.6025 H   0  0  0  0  0  0  0  0  0  0  0  0
   11.6739    9.1245    4.5208 H   0  0  0  0  0  0  0  0  0  0  0  0
    7.7466    8.7898    6.8030 H   0  0  0  0  0  0  0  0  0  0  0  0
    9.1392    9.2076    7.8196 H   0  0  0  0  0  0  0  0  0  0  0  0
    8.6916    7.4851    7.5459 H   0  0  0  0  0  0  0  0  0  0  0  0
   10.7664    7.6942    2.9376 H   0  0  0  0  0  0  0  0  0  0  0  0
   10.3509    6.4846    4.1511 H   0  0  0  0  0  0  0  0  0  0  0  0
   10.9191   -1.4974    4.7243 H   0  0  0  0  0  0  0  0  0  0  0  0
    6.1767   -0.1957    4.9308 H   0  0  0  0  0  0  0  0  0  0  0  0
  1  2  1  0  0  0  0
  1 35  1  0  0  0  0
  1 36  1  0  0  0  0
  1 37  1  0  0  0  0
  2  3  1  0  0  0  0
  3  4  1  0  0  0  0
  3 38  1  0  0  0  0
  3 39  1  0  0  0  0
  4  5  1  0  0  0  0
  4 40  1  0  0  0  0
  4 41  1  0  0  0  0
  5  6  1  0  0  0  0
  6  7  1  0  0  0  0
  6 34  2  0  0  0  0
  7  8  2  0  0  0  0
  7 42  1  0  0  0  0
  8  9  1  0  0  0  0
  8 43  1  0  0  0  0
  9 10  1  0  0  0  0
  9 33  1  0  0  0  0
 10 11  1  0  0  0  0
 10 31  2  0  0  0  0
 11 12  1  0  0  0  0
 11 30  2  0  0  0  0
 12 13  2  0  0  0  0
 12 44  1  0  0  0  0
 13 14  1  0  0  0  0
 13 45  1  0  0  0  0
 14 15  1  0  0  0  0
 14 29  2  0  0  0  0
 15 16  2  0  0  0  0
 15 46  1  0  0  0  0
 16 17  1  0  0  0  0
 16 47  1  0  0  0  0
 17 18  2  0  0  0  0
 17 48  1  0  0  0  0
 18 19  1  0  0  0  0
 18 29  1  0  0  0  0
 19 20  1  0  0  0  0
 20 21  1  0  0  0  0
 20 28  1  0  0  0  0
 20 49  1  6  0  0  0
 21 22  1  0  0  0  0
 21 50  1  0  0  0  0
 21 51  1  0  0  0  0
 22 23  1  0  0  0  0
 22 52  1  0  0  0  0
 23 24  1  0  0  0  0
 23 28  1  0  0  0  0
 23 53  1  6  0  0  0
 24 25  2  0  0  0  0
 24 26  1  0  0  0  0
 26 27  1  0  0  0  0
 27 54  1  0  0  0  0
 27 55  1  0  0  0  0
 27 56  1  0  0  0  0
 28 57  1  0  0  0  0
 28 58  1  0  0  0  0
 29 30  1  0  0  0  0
 31 32  1  0  0  0  0
 31 59  1  0  0  0  0
 32 33  2  0  0  0  0
 33 34  1  0  0  0  0
 34 60  1  0  0  0  0
M  END
$$$$
