CHEMBL4112857
 OpenBabel04072215383D

 66 68  0  0  0  0  0  0  0  0999 V2000
    1.9675    5.0878    7.2956 C   0  0  0  0  0  0  0  0  0  0  0  0
    2.9494    5.4781    6.3264 O   0  0  0  0  0  0  0  0  0  0  0  0
    3.8367    4.4966    6.0221 C   0  0  0  0  0  0  0  0  0  0  0  0
    3.8366    3.3731    6.5067 O   0  0  0  0  0  0  0  0  0  0  0  0
    4.8325    4.9864    4.9894 C   0  0  0  0  0  0  0  0  0  0  0  0
    5.8479    3.8927    4.6304 C   0  0  0  0  0  0  0  0  0  0  0  0
    6.8729    4.3553    3.5881 C   0  0  0  0  0  0  0  0  0  0  0  0
    7.8893    3.2564    3.2581 C   0  0  0  0  0  0  0  0  0  0  0  0
    9.0871    3.7678    2.0178 S   0  0  1  0  0  0  0  0  0  0  0  0
   10.0941    2.3017    1.8243 C   0  0  0  0  0  0  0  0  0  0  0  0
    8.3485    3.9437    0.7829 O   0  0  0  0  0  0  0  0  0  0  0  0
    9.9852    4.8693    2.6359 N   0  0  0  0  0  0  0  0  0  0  0  0
   10.9582    5.5011    1.8314 C   0  0  0  0  0  0  0  0  0  0  0  0
   11.4833    4.9346    0.8751 O   0  0  0  0  0  0  0  0  0  0  0  0
   11.4912    6.8552    2.1505 C   0  0  0  0  0  0  0  0  0  0  0  0
   10.9933    7.5943    3.2107 C   0  0  0  0  0  0  0  0  0  0  0  0
   11.4559    8.8277    3.5597 N   0  0  0  0  0  0  0  0  0  0  0  0
   12.4699    9.3512    2.8352 C   0  0  0  0  0  0  0  0  0  0  0  0
   13.0248   10.5297    3.3250 N   0  0  0  0  0  0  0  0  0  0  0  0
   13.0318    8.6777    1.7426 C   0  0  0  0  0  0  0  0  0  0  0  0
   14.0801    9.2678    0.9622 C   0  0  0  0  0  0  0  0  0  0  0  0
   14.9268    9.7904    0.2784 C   0  0  0  0  0  0  0  0  0  0  0  0
   15.8919   10.3774   -0.6045 C   0  0  0  0  0  0  0  0  0  0  0  0
   15.9528   11.7622   -0.7898 C   0  0  0  0  0  0  0  0  0  0  0  0
   16.8492   12.2932   -1.7136 C   0  0  0  0  0  0  0  0  0  0  0  0
   17.6648   11.4556   -2.4647 C   0  0  0  0  0  0  0  0  0  0  0  0
   17.6341   10.0632   -2.2896 C   0  0  0  0  0  0  0  0  0  0  0  0
   18.4430    9.2001   -3.0700 N   0  0  0  0  0  0  0  0  0  0  0  0
   19.5459    9.5808   -3.8367 C   0  0  0  0  0  0  0  0  0  0  0  0
   19.9980   10.7203   -3.8962 O   0  0  0  0  0  0  0  0  0  0  0  0
   20.1848    8.4848   -4.5438 C   0  0  0  0  0  0  0  0  0  0  0  0
   19.6265    7.2411   -4.4560 O   0  0  0  0  0  0  0  0  0  0  0  0
   20.4299    6.3868   -5.1372 C   0  0  0  0  0  0  0  0  0  0  0  0
   21.4917    7.0654   -5.6894 C   0  0  0  0  0  0  0  0  0  0  0  0
   21.3509    8.4287   -5.3083 C   0  0  0  0  0  0  0  0  0  0  0  0
   22.3041    9.5277   -5.6221 C   0  0  0  0  0  0  0  0  0  0  0  0
   16.7505    9.5342   -1.3415 C   0  0  0  0  0  0  0  0  0  0  0  0
   12.5256    7.4216    1.3961 C   0  0  0  0  0  0  0  0  0  0  0  0
    1.2978    5.9338    7.4711 H   0  0  0  0  0  0  0  0  0  0  0  0
    2.4485    4.8262    8.2439 H   0  0  0  0  0  0  0  0  0  0  0  0
    1.3720    4.2487    6.9212 H   0  0  0  0  0  0  0  0  0  0  0  0
    5.3505    5.8586    5.4019 H   0  0  0  0  0  0  0  0  0  0  0  0
    4.2754    5.2889    4.0957 H   0  0  0  0  0  0  0  0  0  0  0  0
    5.3101    3.0138    4.2524 H   0  0  0  0  0  0  0  0  0  0  0  0
    6.3690    3.5728    5.5415 H   0  0  0  0  0  0  0  0  0  0  0  0
    7.4005    5.2386    3.9651 H   0  0  0  0  0  0  0  0  0  0  0  0
    6.3472    4.6639    2.6766 H   0  0  0  0  0  0  0  0  0  0  0  0
    7.3769    2.3737    2.8553 H   0  0  0  0  0  0  0  0  0  0  0  0
    8.4460    2.9564    4.1511 H   0  0  0  0  0  0  0  0  0  0  0  0
    9.4702    1.4842    1.4565 H   0  0  0  0  0  0  0  0  0  0  0  0
   10.5405    2.0387    2.7855 H   0  0  0  0  0  0  0  0  0  0  0  0
   10.8802    2.5017    1.0924 H   0  0  0  0  0  0  0  0  0  0  0  0
   10.1991    7.2114    3.8471 H   0  0  0  0  0  0  0  0  0  0  0  0
   12.4039   10.9579    4.0032 H   0  0  0  0  0  0  0  0  0  0  0  0
   13.3936   11.1579    2.6227 H   0  0  0  0  0  0  0  0  0  0  0  0
   15.3033   12.4364   -0.2383 H   0  0  0  0  0  0  0  0  0  0  0  0
   16.9095   13.3665   -1.8789 H   0  0  0  0  0  0  0  0  0  0  0  0
   18.3027   11.9126   -3.2087 H   0  0  0  0  0  0  0  0  0  0  0  0
   18.2504    8.2057   -3.0310 H   0  0  0  0  0  0  0  0  0  0  0  0
   20.1303    5.3572   -5.1248 H   0  0  0  0  0  0  0  0  0  0  0  0
   22.2909    6.6224   -6.2712 H   0  0  0  0  0  0  0  0  0  0  0  0
   23.1399    9.1616   -6.2287 H   0  0  0  0  0  0  0  0  0  0  0  0
   22.7256    9.9397   -4.6998 H   0  0  0  0  0  0  0  0  0  0  0  0
   21.8197   10.3364   -6.1790 H   0  0  0  0  0  0  0  0  0  0  0  0
   16.7126    8.4691   -1.1411 H   0  0  0  0  0  0  0  0  0  0  0  0
   12.9470    6.8770    0.5523 H   0  0  0  0  0  0  0  0  0  0  0  0
  1  2  1  0  0  0  0
  1 39  1  0  0  0  0
  1 40  1  0  0  0  0
  1 41  1  0  0  0  0
  2  3  1  0  0  0  0
  3  4  2  0  0  0  0
  3  5  1  0  0  0  0
  5  6  1  0  0  0  0
  5 42  1  0  0  0  0
  5 43  1  0  0  0  0
  6  7  1  0  0  0  0
  6 44  1  0  0  0  0
  6 45  1  0  0  0  0
  7  8  1  0  0  0  0
  7 46  1  0  0  0  0
  7 47  1  0  0  0  0
  8  9  1  0  0  0  0
  8 48  1  0  0  0  0
  8 49  1  0  0  0  0
  9 10  1  0  0  0  0
  9 11  2  6  0  0  0
  9 12  2  0  0  0  0
 10 50  1  0  0  0  0
 10 51  1  0  0  0  0
 10 52  1  0  0  0  0
 12 13  1  0  0  0  0
 13 14  2  0  0  0  0
 13 15  1  0  0  0  0
 15 16  1  0  0  0  0
 15 38  2  0  0  0  0
 16 17  2  0  0  0  0
 16 53  1  0  0  0  0
 17 18  1  0  0  0  0
 18 19  1  0  0  0  0
 18 20  2  0  0  0  0
 19 54  1  0  0  0  0
 19 55  1  0  0  0  0
 20 21  1  0  0  0  0
 20 38  1  0  0  0  0
 21 22  3  0  0  0  0
 22 23  1  0  0  0  0
 23 24  1  0  0  0  0
 23 37  2  0  0  0  0
 24 25  2  0  0  0  0
 24 56  1  0  0  0  0
 25 26  1  0  0  0  0
 25 57  1  0  0  0  0
 26 27  2  0  0  0  0
 26 58  1  0  0  0  0
 27 28  1  0  0  0  0
 27 37  1  0  0  0  0
 28 29  1  0  0  0  0
 28 59  1  0  0  0  0
 29 30  2  0  0  0  0
 29 31  1  0  0  0  0
 31 32  1  0  0  0  0
 31 35  2  0  0  0  0
 32 33  1  0  0  0  0
 33 34  2  0  0  0  0
 33 60  1  0  0  0  0
 34 35  1  0  0  0  0
 34 61  1  0  0  0  0
 35 36  1  0  0  0  0
 36 62  1  0  0  0  0
 36 63  1  0  0  0  0
 36 64  1  0  0  0  0
 37 65  1  0  0  0  0
 38 66  1  0  0  0  0
M  END
$$$$
