CHEMBL365448
 OpenBabel04072215373D

 57 60  0  0  0  0  0  0  0  0999 V2000
    0.8313    1.0670   -0.9044 C   0  0  0  0  0  0  0  0  0  0  0  0
    1.8998    1.9694   -0.6755 O   0  0  0  0  0  0  0  0  0  0  0  0
    2.8428    1.4504    0.2612 C   0  0  0  0  0  0  0  0  0  0  0  0
    3.9413    2.4839    0.4635 C   0  0  0  0  0  0  0  0  0  0  0  0
    4.9175    1.9702    1.3653 O   0  0  0  0  0  0  0  0  0  0  0  0
    6.1761    2.4826    1.2682 C   0  0  0  0  0  0  0  0  0  0  0  0
    7.1733    1.5832    1.6669 C   0  0  0  0  0  0  0  0  0  0  0  0
    8.5393    1.9267    1.6507 C   0  0  0  0  0  0  0  0  0  0  0  0
    8.9801    3.1979    1.2441 C   0  0  0  0  0  0  0  0  0  0  0  0
   10.4200    3.5588    1.2783 C   0  0  0  0  0  0  0  0  0  0  0  0
   10.9683    4.3749    0.2901 C   0  0  0  0  0  0  0  0  0  0  0  0
   12.2886    4.8099    0.3369 C   0  0  0  0  0  0  0  0  0  0  0  0
   13.1683    4.3851    1.3249 C   0  0  0  0  0  0  0  0  0  0  0  0
   14.5338    4.7675    1.3308 N   0  0  0  0  0  0  0  0  0  0  0  0
   15.1090    5.6647    0.4361 C   0  0  0  0  0  0  0  0  0  0  0  0
   14.5029    6.2986   -0.4216 O   0  0  0  0  0  0  0  0  0  0  0  0
   16.4853    5.7546    0.5747 N   0  0  0  0  0  0  0  0  0  0  0  0
   17.2096    6.6256   -0.2810 C   0  0  0  0  0  0  0  0  0  0  0  0
   18.2948    6.1182   -0.9942 C   0  0  0  0  0  0  0  0  0  0  0  0
   18.9997    6.9449   -1.8714 C   0  0  0  0  0  0  0  0  0  0  0  0
   18.6437    8.2875   -2.0155 C   0  0  0  0  0  0  0  0  0  0  0  0
   17.5597    8.8124   -1.3077 C   0  0  0  0  0  0  0  0  0  0  0  0
   17.1632   10.2522   -1.4700 C   0  0  0  0  0  0  0  0  0  0  0  0
   16.8410    7.9705   -0.4446 C   0  0  0  0  0  0  0  0  0  0  0  0
   12.6664    3.5227    2.3062 C   0  0  0  0  0  0  0  0  0  0  0  0
   11.3060    3.1299    2.2846 C   0  0  0  0  0  0  0  0  0  0  0  0
    7.9681    4.0866    0.8332 C   0  0  0  0  0  0  0  0  0  0  0  0
    6.5937    3.7445    0.8650 C   0  0  0  0  0  0  0  0  0  0  0  0
    5.8480    4.9622    0.4699 C   0  0  0  0  0  0  0  0  0  0  0  0
    4.6467    5.1648    0.4346 O   0  0  0  0  0  0  0  0  0  0  0  0
    6.7641    5.9227    0.1446 N   0  0  0  0  0  0  0  0  0  0  0  0
    8.1096    5.5055    0.3629 C   0  0  0  0  0  0  0  0  0  0  0  0
    0.1263    1.5407   -1.5925 H   0  0  0  0  0  0  0  0  0  0  0  0
    0.3113    0.8426    0.0314 H   0  0  0  0  0  0  0  0  0  0  0  0
    1.2060    0.1474   -1.3621 H   0  0  0  0  0  0  0  0  0  0  0  0
    3.2695    0.5116   -0.1092 H   0  0  0  0  0  0  0  0  0  0  0  0
    2.3501    1.2455    1.2196 H   0  0  0  0  0  0  0  0  0  0  0  0
    3.4669    3.3626    0.9047 H   0  0  0  0  0  0  0  0  0  0  0  0
    4.3760    2.7328   -0.5128 H   0  0  0  0  0  0  0  0  0  0  0  0
    6.8867    0.5841    1.9964 H   0  0  0  0  0  0  0  0  0  0  0  0
    9.2561    1.1673    1.9592 H   0  0  0  0  0  0  0  0  0  0  0  0
   10.3950    4.7009   -0.5677 H   0  0  0  0  0  0  0  0  0  0  0  0
   12.5780    5.4867   -0.4592 H   0  0  0  0  0  0  0  0  0  0  0  0
   15.1149    4.4214    2.0807 H   0  0  0  0  0  0  0  0  0  0  0  0
   16.9347    4.8784    0.7956 H   0  0  0  0  0  0  0  0  0  0  0  0
   18.5612    5.0680   -0.9298 H   0  0  0  0  0  0  0  0  0  0  0  0
   19.8196    6.5396   -2.4575 H   0  0  0  0  0  0  0  0  0  0  0  0
   19.2134    8.9178   -2.6951 H   0  0  0  0  0  0  0  0  0  0  0  0
   17.7994   10.7612   -2.2019 H   0  0  0  0  0  0  0  0  0  0  0  0
   17.2618   10.7828   -0.5178 H   0  0  0  0  0  0  0  0  0  0  0  0
   16.1292   10.3281   -1.8217 H   0  0  0  0  0  0  0  0  0  0  0  0
   15.9865    8.3690    0.0998 H   0  0  0  0  0  0  0  0  0  0  0  0
   13.3053    3.1519    3.0992 H   0  0  0  0  0  0  0  0  0  0  0  0
   10.9508    2.4789    3.0835 H   0  0  0  0  0  0  0  0  0  0  0  0
    6.4697    6.8479   -0.1384 H   0  0  0  0  0  0  0  0  0  0  0  0
    8.5554    6.1506    1.1239 H   0  0  0  0  0  0  0  0  0  0  0  0
    8.6144    5.6029   -0.5986 H   0  0  0  0  0  0  0  0  0  0  0  0
  1  2  1  0  0  0  0
  1 33  1  0  0  0  0
  1 34  1  0  0  0  0
  1 35  1  0  0  0  0
  2  3  1  0  0  0  0
  3  4  1  0  0  0  0
  3 36  1  0  0  0  0
  3 37  1  0  0  0  0
  4  5  1  0  0  0  0
  4 38  1  0  0  0  0
  4 39  1  0  0  0  0
  5  6  1  0  0  0  0
  6  7  1  0  0  0  0
  6 28  2  0  0  0  0
  7  8  2  0  0  0  0
  7 40  1  0  0  0  0
  8  9  1  0  0  0  0
  8 41  1  0  0  0  0
  9 10  1  0  0  0  0
  9 27  2  0  0  0  0
 10 11  1  0  0  0  0
 10 26  2  0  0  0  0
 11 12  2  0  0  0  0
 11 42  1  0  0  0  0
 12 13  1  0  0  0  0
 12 43  1  0  0  0  0
 13 14  1  0  0  0  0
 13 25  2  0  0  0  0
 14 15  1  0  0  0  0
 14 44  1  0  0  0  0
 15 16  2  0  0  0  0
 15 17  1  0  0  0  0
 17 18  1  0  0  0  0
 17 45  1  0  0  0  0
 18 19  1  0  0  0  0
 18 24  2  0  0  0  0
 19 20  2  0  0  0  0
 19 46  1  0  0  0  0
 20 21  1  0  0  0  0
 20 47  1  0  0  0  0
 21 22  2  0  0  0  0
 21 48  1  0  0  0  0
 22 23  1  0  0  0  0
 22 24  1  0  0  0  0
 23 49  1  0  0  0  0
 23 50  1  0  0  0  0
 23 51  1  0  0  0  0
 24 52  1  0  0  0  0
 25 26  1  0  0  0  0
 25 53  1  0  0  0  0
 26 54  1  0  0  0  0
 27 28  1  0  0  0  0
 27 32  1  0  0  0  0
 28 29  1  0  0  0  0
 29 30  2  0  0  0  0
 29 31  1  0  0  0  0
 31 32  1  0  0  0  0
 31 55  1  0  0  0  0
 32 56  1  0  0  0  0
 32 57  1  0  0  0  0
M  END
$$$$
