CHEMBL3633292
 OpenBabel04072215373D

 43 46  0  0  0  0  0  0  0  0999 V2000
   -0.5594    2.3127    3.3654 N   0  0  0  0  0  0  0  0  0  0  0  0
   -0.8317    1.1259    2.7966 C   0  0  0  0  0  0  0  0  0  0  0  0
   -1.0064    0.0500    3.5579 N   0  0  0  0  0  0  0  0  0  0  0  0
   -1.2212   -0.9307    2.6779 N   0  0  0  0  0  0  0  0  0  0  0  0
   -1.2103   -0.5298    1.3706 C   0  0  0  0  0  0  0  0  0  0  0  0
   -1.3907   -1.2789    0.2042 C   0  0  0  0  0  0  0  0  0  0  0  0
   -1.3379   -0.5973   -1.0037 C   0  0  0  0  0  0  0  0  0  0  0  0
   -1.1007    0.7736   -1.0279 C   0  0  0  0  0  0  0  0  0  0  0  0
   -0.8816    1.5391    0.1499 C   0  0  0  0  0  0  0  0  0  0  0  0
   -0.5146    2.9671    0.0299 C   0  0  0  0  0  0  0  0  0  0  0  0
    0.4032    3.3550   -0.9657 C   0  0  0  0  0  0  0  0  0  0  0  0
    0.8025    4.6756   -1.1122 C   0  0  0  0  0  0  0  0  0  0  0  0
    0.3071    5.6394   -0.2442 C   0  0  0  0  0  0  0  0  0  0  0  0
   -0.6473    5.3187    0.7232 C   0  0  0  0  0  0  0  0  0  0  0  0
   -1.2193    6.2997    1.5802 N   0  0  0  0  0  0  0  0  0  0  0  0
   -1.1948    7.6562    1.3075 C   0  0  0  0  0  0  0  0  0  0  0  0
   -0.6750    8.1464    0.3111 O   0  0  0  0  0  0  0  0  0  0  0  0
   -1.8314    8.4245    2.2704 N   0  0  0  0  0  0  0  0  0  0  0  0
   -2.0480    9.8195    2.1065 C   0  0  0  0  0  0  0  0  0  0  0  0
   -2.1109   10.4211    0.8397 C   0  0  0  0  0  0  0  0  0  0  0  0
   -2.2120   11.8041    0.6987 C   0  0  0  0  0  0  0  0  0  0  0  0
   -2.2991   12.5922    1.8316 C   0  0  0  0  0  0  0  0  0  0  0  0
   -2.3732   13.9229    1.7039 F   0  0  0  0  0  0  0  0  0  0  0  0
   -2.3092   12.0149    3.0993 C   0  0  0  0  0  0  0  0  0  0  0  0
   -2.1941   10.6268    3.2411 C   0  0  0  0  0  0  0  0  0  0  0  0
   -1.0566    3.9845    0.8430 C   0  0  0  0  0  0  0  0  0  0  0  0
   -0.9586    0.8470    1.3947 C   0  0  0  0  0  0  0  0  0  0  0  0
   -0.3384    2.2539    4.3543 H   0  0  0  0  0  0  0  0  0  0  0  0
    0.0549    2.9506    2.8727 H   0  0  0  0  0  0  0  0  0  0  0  0
   -1.3677   -1.8687    3.0311 H   0  0  0  0  0  0  0  0  0  0  0  0
   -1.5689   -2.3490    0.2328 H   0  0  0  0  0  0  0  0  0  0  0  0
   -1.4746   -1.1366   -1.9383 H   0  0  0  0  0  0  0  0  0  0  0  0
   -1.0725    1.2633   -2.0015 H   0  0  0  0  0  0  0  0  0  0  0  0
    0.8275    2.6218   -1.6477 H   0  0  0  0  0  0  0  0  0  0  0  0
    1.5011    4.9603   -1.8945 H   0  0  0  0  0  0  0  0  0  0  0  0
    0.6984    6.6441   -0.3659 H   0  0  0  0  0  0  0  0  0  0  0  0
   -1.8827    5.9781    2.2706 H   0  0  0  0  0  0  0  0  0  0  0  0
   -1.8275    8.0631    3.2129 H   0  0  0  0  0  0  0  0  0  0  0  0
   -2.0669    9.8316   -0.0717 H   0  0  0  0  0  0  0  0  0  0  0  0
   -2.2093   12.2548   -0.2888 H   0  0  0  0  0  0  0  0  0  0  0  0
   -2.3918   12.6585    3.9685 H   0  0  0  0  0  0  0  0  0  0  0  0
   -2.1801   10.2010    4.2385 H   0  0  0  0  0  0  0  0  0  0  0  0
   -1.8233    3.7206    1.5733 H   0  0  0  0  0  0  0  0  0  0  0  0
  1  2  1  0  0  0  0
  1 28  1  0  0  0  0
  1 29  1  0  0  0  0
  2  3  2  0  0  0  0
  2 27  1  0  0  0  0
  3  4  1  0  0  0  0
  4  5  1  0  0  0  0
  4 30  1  0  0  0  0
  5  6  1  0  0  0  0
  5 27  2  0  0  0  0
  6  7  2  0  0  0  0
  6 31  1  0  0  0  0
  7  8  1  0  0  0  0
  7 32  1  0  0  0  0
  8  9  2  0  0  0  0
  8 33  1  0  0  0  0
  9 10  1  0  0  0  0
  9 27  1  0  0  0  0
 10 11  1  0  0  0  0
 10 26  2  0  0  0  0
 11 12  2  0  0  0  0
 11 34  1  0  0  0  0
 12 13  1  0  0  0  0
 12 35  1  0  0  0  0
 13 14  2  0  0  0  0
 13 36  1  0  0  0  0
 14 15  1  0  0  0  0
 14 26  1  0  0  0  0
 15 16  1  0  0  0  0
 15 37  1  0  0  0  0
 16 17  2  0  0  0  0
 16 18  1  0  0  0  0
 18 19  1  0  0  0  0
 18 38  1  0  0  0  0
 19 20  1  0  0  0  0
 19 25  2  0  0  0  0
 20 21  2  0  0  0  0
 20 39  1  0  0  0  0
 21 22  1  0  0  0  0
 21 40  1  0  0  0  0
 22 23  1  0  0  0  0
 22 24  2  0  0  0  0
 24 25  1  0  0  0  0
 24 41  1  0  0  0  0
 25 42  1  0  0  0  0
 26 43  1  0  0  0  0
M  END
$$$$
