CHEMBL3741526
 OpenBabel04072215373D

 61 65  0  0  0  0  0  0  0  0999 V2000
    2.2077   -0.0353    0.5975 C   0  0  0  0  0  0  0  0  0  0  0  0
    3.0450   -0.2584   -0.6506 C   0  0  0  0  0  0  0  0  0  0  0  0
    3.8388   -1.4332   -0.4368 O   0  0  0  0  0  0  0  0  0  0  0  0
    5.0983   -1.2098    0.0449 C   0  0  0  0  0  0  0  0  0  0  0  0
    5.6996   -0.1463   -0.0567 O   0  0  0  0  0  0  0  0  0  0  0  0
    5.6141   -2.3607    0.8009 C   0  0  0  0  0  0  0  0  0  0  0  0
    5.4269   -3.6405    0.4245 N   0  0  0  0  0  0  0  0  0  0  0  0
    6.0010   -4.3858    1.3995 N   0  0  0  0  0  0  0  0  0  0  0  0
    6.0498   -5.8025    1.3167 C   0  0  0  0  0  0  0  0  0  0  0  0
    5.5555   -6.4460    0.1728 C   0  0  0  0  0  0  0  0  0  0  0  0
    5.6241   -7.8377    0.0717 C   0  0  0  0  0  0  0  0  0  0  0  0
    6.1737   -8.5841    1.1120 C   0  0  0  0  0  0  0  0  0  0  0  0
    6.2558  -10.2967    0.9901 Cl  0  0  0  0  0  0  0  0  0  0  0  0
    6.6600   -7.9530    2.2553 C   0  0  0  0  0  0  0  0  0  0  0  0
    6.6006   -6.5630    2.3599 C   0  0  0  0  0  0  0  0  0  0  0  0
    6.5082   -3.6045    2.4039 C   0  0  0  0  0  0  0  0  0  0  0  0
    6.3430   -2.2974    2.0128 C   0  0  0  0  0  0  0  0  0  0  0  0
    6.6638   -1.1044    2.7758 C   0  0  0  0  0  0  0  0  0  0  0  0
    5.8722   -0.1727    2.7177 O   0  0  0  0  0  0  0  0  0  0  0  0
    7.8841   -1.0822    3.6132 C   0  0  0  0  0  0  0  0  0  0  0  0
    9.0849   -1.7612    3.3889 C   0  0  0  0  0  0  0  0  0  0  0  0
    9.5787   -2.6562    2.3014 C   0  0  0  0  0  0  0  0  0  0  0  0
    9.9282   -1.4731    4.4363 N   0  0  0  0  0  0  0  0  0  0  0  0
    9.3482   -0.6035    5.3289 C   0  0  0  0  0  0  0  0  0  0  0  0
   10.0419   -0.1726    6.5570 C   0  0  0  0  0  0  0  0  0  0  0  0
    9.8936    1.1390    7.0321 C   0  0  0  0  0  0  0  0  0  0  0  0
   10.2846    1.4827    8.3272 C   0  0  0  0  0  0  0  0  0  0  0  0
   10.9133    0.5410    9.1347 C   0  0  0  0  0  0  0  0  0  0  0  0
   11.1778   -0.7324    8.6348 C   0  0  0  0  0  0  0  0  0  0  0  0
   10.7404   -1.0916    7.3543 C   0  0  0  0  0  0  0  0  0  0  0  0
    8.0696   -0.3204    4.8347 C   0  0  0  0  0  0  0  0  0  0  0  0
    7.1010    0.5520    5.5278 C   0  0  0  0  0  0  0  0  0  0  0  0
    6.3835    1.5218    4.8190 C   0  0  0  0  0  0  0  0  0  0  0  0
    5.4069    2.3038    5.4407 C   0  0  0  0  0  0  0  0  0  0  0  0
    5.2265    2.2216    6.8155 C   0  0  0  0  0  0  0  0  0  0  0  0
    5.9911    1.3256    7.5561 C   0  0  0  0  0  0  0  0  0  0  0  0
    6.8807    0.4602    6.9092 C   0  0  0  0  0  0  0  0  0  0  0  0
    1.5526    0.8326    0.4893 H   0  0  0  0  0  0  0  0  0  0  0  0
    2.8489    0.1126    1.4735 H   0  0  0  0  0  0  0  0  0  0  0  0
    1.5937   -0.9188    0.8049 H   0  0  0  0  0  0  0  0  0  0  0  0
    3.6465    0.6279   -0.8814 H   0  0  0  0  0  0  0  0  0  0  0  0
    2.3943   -0.4457   -1.5104 H   0  0  0  0  0  0  0  0  0  0  0  0
    5.1235   -5.8782   -0.6503 H   0  0  0  0  0  0  0  0  0  0  0  0
    5.2486   -8.3297   -0.8218 H   0  0  0  0  0  0  0  0  0  0  0  0
    7.0857   -8.5348    3.0689 H   0  0  0  0  0  0  0  0  0  0  0  0
    6.9867   -6.1137    3.2702 H   0  0  0  0  0  0  0  0  0  0  0  0
    6.9519   -4.0123    3.2989 H   0  0  0  0  0  0  0  0  0  0  0  0
    8.9260   -2.6604    1.4269 H   0  0  0  0  0  0  0  0  0  0  0  0
    9.6689   -3.6846    2.6704 H   0  0  0  0  0  0  0  0  0  0  0  0
   10.5658   -2.3340    1.9546 H   0  0  0  0  0  0  0  0  0  0  0  0
   10.8655   -1.8393    4.5353 H   0  0  0  0  0  0  0  0  0  0  0  0
    9.3850    1.8870    6.4269 H   0  0  0  0  0  0  0  0  0  0  0  0
   10.0576    2.4738    8.7111 H   0  0  0  0  0  0  0  0  0  0  0  0
   11.1878    0.7980   10.1544 H   0  0  0  0  0  0  0  0  0  0  0  0
   11.6856   -1.4618    9.2607 H   0  0  0  0  0  0  0  0  0  0  0  0
   10.9017   -2.1128    7.0213 H   0  0  0  0  0  0  0  0  0  0  0  0
    6.5538    1.6778    3.7568 H   0  0  0  0  0  0  0  0  0  0  0  0
    4.7994    2.9771    4.8419 H   0  0  0  0  0  0  0  0  0  0  0  0
    4.4976    2.8593    7.3065 H   0  0  0  0  0  0  0  0  0  0  0  0
    5.8952    1.2928    8.6378 H   0  0  0  0  0  0  0  0  0  0  0  0
    7.4329   -0.2550    7.5135 H   0  0  0  0  0  0  0  0  0  0  0  0
  1  2  1  0  0  0  0
  1 38  1  0  0  0  0
  1 39  1  0  0  0  0
  1 40  1  0  0  0  0
  2  3  1  0  0  0  0
  2 41  1  0  0  0  0
  2 42  1  0  0  0  0
  3  4  1  0  0  0  0
  4  5  2  0  0  0  0
  4  6  1  0  0  0  0
  6  7  2  0  0  0  0
  6 17  1  0  0  0  0
  7  8  1  0  0  0  0
  8  9  1  0  0  0  0
  8 16  1  0  0  0  0
  9 10  1  0  0  0  0
  9 15  2  0  0  0  0
 10 11  2  0  0  0  0
 10 43  1  0  0  0  0
 11 12  1  0  0  0  0
 11 44  1  0  0  0  0
 12 13  1  0  0  0  0
 12 14  2  0  0  0  0
 14 15  1  0  0  0  0
 14 45  1  0  0  0  0
 15 46  1  0  0  0  0
 16 17  2  0  0  0  0
 16 47  1  0  0  0  0
 17 18  1  0  0  0  0
 18 19  2  0  0  0  0
 18 20  1  0  0  0  0
 20 21  2  0  0  0  0
 20 31  1  0  0  0  0
 21 22  1  0  0  0  0
 21 23  1  0  0  0  0
 22 48  1  0  0  0  0
 22 49  1  0  0  0  0
 22 50  1  0  0  0  0
 23 24  1  0  0  0  0
 23 51  1  0  0  0  0
 24 25  1  0  0  0  0
 24 31  2  0  0  0  0
 25 26  1  0  0  0  0
 25 30  2  0  0  0  0
 26 27  2  0  0  0  0
 26 52  1  0  0  0  0
 27 28  1  0  0  0  0
 27 53  1  0  0  0  0
 28 29  2  0  0  0  0
 28 54  1  0  0  0  0
 29 30  1  0  0  0  0
 29 55  1  0  0  0  0
 30 56  1  0  0  0  0
 31 32  1  0  0  0  0
 32 33  1  0  0  0  0
 32 37  2  0  0  0  0
 33 34  2  0  0  0  0
 33 57  1  0  0  0  0
 34 35  1  0  0  0  0
 34 58  1  0  0  0  0
 35 36  2  0  0  0  0
 35 59  1  0  0  0  0
 36 37  1  0  0  0  0
 36 60  1  0  0  0  0
 37 61  1  0  0  0  0
M  END
$$$$
