CHEMBL3763360
 OpenBabel04072215373D

 62 66  0  0  1  0  0  0  0  0999 V2000
   11.4588    6.7960    5.6839 C   0  0  0  0  0  0  0  0  0  0  0  0
   10.5169    7.6381    6.3400 O   0  0  0  0  0  0  0  0  0  0  0  0
    9.5908    8.2635    5.5567 C   0  0  0  0  0  0  0  0  0  0  0  0
    9.5059    8.1878    4.1690 C   0  0  0  0  0  0  0  0  0  0  0  0
    8.5009    8.8837    3.4768 C   0  0  0  0  0  0  0  0  0  0  0  0
    7.5616    9.6721    4.1403 C   0  0  0  0  0  0  0  0  0  0  0  0
    6.5000   10.4443    3.4524 C   0  0  0  0  0  0  0  0  0  0  0  0
    6.2987   10.4871    2.1220 C   0  0  0  0  0  0  0  0  0  0  0  0
    5.2468   11.3570    1.5164 C   0  0  0  0  0  0  0  0  0  0  0  0
    4.2606   11.6945    2.1689 O   0  0  0  0  0  0  0  0  0  0  0  0
    5.4377   11.8359    0.2320 N   0  0  0  0  0  0  0  0  0  0  0  0
    6.5995   11.6276   -0.5430 C   0  0  0  0  0  0  0  0  0  0  0  0
    7.6378   12.5543   -0.5032 C   0  0  0  0  0  0  0  0  0  0  0  0
    8.9497   12.0801   -0.7161 C   0  0  0  0  0  0  0  0  0  0  0  0
   10.1437   12.8124   -0.6634 C   0  0  0  0  0  0  0  0  0  0  0  0
   10.5757   13.3727   -1.9317 N   0  0  0  0  0  0  0  0  0  0  0  0
   11.7844   14.1034   -2.1349 C   0  0  0  0  0  0  0  0  0  0  0  0
   12.6457   13.8113   -3.2141 C   0  0  0  0  0  0  0  0  0  0  0  0
   13.7091   14.6673   -3.5339 C   0  0  0  0  0  0  0  0  0  0  0  0
   13.9061   15.8215   -2.7864 C   0  0  0  0  0  0  0  0  0  0  0  0
   14.8690   16.6797   -3.1557 F   0  0  0  0  0  0  0  0  0  0  0  0
   13.0917   16.0938   -1.6863 C   0  0  0  0  0  0  0  0  0  0  0  0
   13.3061   17.5363   -0.7718 Cl  0  0  0  0  0  0  0  0  0  0  0  0
   12.0534   15.2244   -1.3465 C   0  0  0  0  0  0  0  0  0  0  0  0
   11.1133   12.3933    0.1516 N   0  0  0  0  0  0  0  0  0  0  0  0
   11.0862   11.0853    0.4075 C   0  0  0  0  0  0  0  0  0  0  0  0
   10.2628   10.1983   -0.1807 N   0  0  0  0  0  0  0  0  0  0  0  0
    9.1531   10.7111   -0.7215 C   0  0  0  0  0  0  0  0  0  0  0  0
    8.1176    9.8904   -1.1547 C   0  0  0  0  0  0  0  0  0  0  0  0
    6.8128   10.3566   -1.0932 C   0  0  0  0  0  0  0  0  0  0  0  0
    5.6795    9.6891   -1.4465 O   0  0  0  0  0  0  0  0  0  0  0  0
    5.7076    8.2997   -1.7004 C   0  0  1  0  0  0  0  0  0  0  0  0
    5.4683    7.5204   -0.4286 C   0  0  0  0  0  0  0  0  0  0  0  0
    4.8437    6.2429   -0.9356 C   0  0  0  0  0  0  0  0  0  0  0  0
    4.1307    6.5661   -2.1360 O   0  0  0  0  0  0  0  0  0  0  0  0
    4.4907    7.8977   -2.5280 C   0  0  0  0  0  0  0  0  0  0  0  0
    7.6571    9.7568    5.5483 C   0  0  0  0  0  0  0  0  0  0  0  0
    8.6624    9.0575    6.2401 C   0  0  0  0  0  0  0  0  0  0  0  0
   12.0917    6.3443    6.4496 H   0  0  0  0  0  0  0  0  0  0  0  0
   12.0917    7.3710    5.0102 H   0  0  0  0  0  0  0  0  0  0  0  0
   10.9342    5.9858    5.1551 H   0  0  0  0  0  0  0  0  0  0  0  0
   10.2062    7.5901    3.5934 H   0  0  0  0  0  0  0  0  0  0  0  0
    8.4987    8.7851    2.3958 H   0  0  0  0  0  0  0  0  0  0  0  0
    5.8613   11.0404    4.1020 H   0  0  0  0  0  0  0  0  0  0  0  0
    6.9115    9.8984    1.4567 H   0  0  0  0  0  0  0  0  0  0  0  0
    4.8342   12.6145    0.0112 H   0  0  0  0  0  0  0  0  0  0  0  0
    7.4834   13.5582   -0.1154 H   0  0  0  0  0  0  0  0  0  0  0  0
   10.5717   12.5849   -2.5815 H   0  0  0  0  0  0  0  0  0  0  0  0
   12.5048   12.9198   -3.8226 H   0  0  0  0  0  0  0  0  0  0  0  0
   14.3640   14.4588   -4.3761 H   0  0  0  0  0  0  0  0  0  0  0  0
   11.4160   15.4469   -0.4973 H   0  0  0  0  0  0  0  0  0  0  0  0
   11.7833   10.7135    1.1485 H   0  0  0  0  0  0  0  0  0  0  0  0
    8.3497    8.8616   -1.4015 H   0  0  0  0  0  0  0  0  0  0  0  0
    6.6080    7.9656   -2.2306 H   0  0  0  0  0  0  0  0  0  0  0  0
    4.7646    8.0615    0.2174 H   0  0  0  0  0  0  0  0  0  0  0  0
    6.3775    7.3534    0.1537 H   0  0  0  0  0  0  0  0  0  0  0  0
    4.1569    5.8017   -0.2079 H   0  0  0  0  0  0  0  0  0  0  0  0
    5.6083    5.5034   -1.1901 H   0  0  0  0  0  0  0  0  0  0  0  0
    3.6329    8.5585   -2.3556 H   0  0  0  0  0  0  0  0  0  0  0  0
    4.7055    7.9107   -3.6019 H   0  0  0  0  0  0  0  0  0  0  0  0
    6.9634   10.3582    6.1152 H   0  0  0  0  0  0  0  0  0  0  0  0
    8.7209    9.1389    7.3233 H   0  0  0  0  0  0  0  0  0  0  0  0
  1  2  1  0  0  0  0
  1 39  1  0  0  0  0
  1 40  1  0  0  0  0
  1 41  1  0  0  0  0
  2  3  1  0  0  0  0
  3  4  1  0  0  0  0
  3 38  2  0  0  0  0
  4  5  2  0  0  0  0
  4 42  1  0  0  0  0
  5  6  1  0  0  0  0
  5 43  1  0  0  0  0
  6  7  1  0  0  0  0
  6 37  2  0  0  0  0
  7  8  2  0  0  0  0
  7 44  1  0  0  0  0
  8  9  1  0  0  0  0
  8 45  1  0  0  0  0
  9 10  2  0  0  0  0
  9 11  1  0  0  0  0
 11 12  1  0  0  0  0
 11 46  1  0  0  0  0
 12 13  1  0  0  0  0
 12 30  2  0  0  0  0
 13 14  2  0  0  0  0
 13 47  1  0  0  0  0
 14 15  1  0  0  0  0
 14 28  1  0  0  0  0
 15 16  1  0  0  0  0
 15 25  2  0  0  0  0
 16 17  1  0  0  0  0
 16 48  1  0  0  0  0
 17 18  1  0  0  0  0
 17 24  2  0  0  0  0
 18 19  2  0  0  0  0
 18 49  1  0  0  0  0
 19 20  1  0  0  0  0
 19 50  1  0  0  0  0
 20 21  1  0  0  0  0
 20 22  2  0  0  0  0
 22 23  1  0  0  0  0
 22 24  1  0  0  0  0
 24 51  1  0  0  0  0
 25 26  1  0  0  0  0
 26 27  2  0  0  0  0
 26 52  1  0  0  0  0
 27 28  1  0  0  0  0
 28 29  2  0  0  0  0
 29 30  1  0  0  0  0
 29 53  1  0  0  0  0
 30 31  1  0  0  0  0
 32 33  1  0  0  0  0
 32 36  1  0  0  0  0
 32 31  1  0  0  0  0
 32 54  1  6  0  0  0
 33 34  1  0  0  0  0
 33 55  1  0  0  0  0
 33 56  1  0  0  0  0
 34 35  1  0  0  0  0
 34 57  1  0  0  0  0
 34 58  1  0  0  0  0
 35 36  1  0  0  0  0
 36 59  1  0  0  0  0
 36 60  1  0  0  0  0
 37 38  1  0  0  0  0
 37 61  1  0  0  0  0
 38 62  1  0  0  0  0
M  END
$$$$
