CHEMBL381817
 OpenBabel04072215373D

 33 35  0  0  1  0  0  0  0  0999 V2000
    2.8207    2.9969   -1.0328 N   0  0  0  0  0  0  0  0  0  0  0  0
    3.5357    2.0903   -0.9962 C   0  0  0  0  0  0  0  0  0  0  0  0
    4.3856    0.9492   -0.9807 C   0  0  0  0  0  0  0  0  0  0  0  0
    4.2631   -0.1290   -1.8212 C   0  0  0  0  0  0  0  0  0  0  0  0
    5.1854   -1.1240   -1.6140 N   0  0  0  0  0  0  0  0  0  0  0  0
    5.9783   -0.8514   -0.5980 C   0  0  0  0  0  0  0  0  0  0  0  0
    6.9099   -1.6897   -0.0720 N   0  0  0  0  0  0  0  0  0  0  0  0
    6.8102   -3.0916   -0.1585 C   0  0  0  0  0  0  0  0  0  0  0  0
    6.2025   -3.7130   -1.2317 C   0  0  0  0  0  0  0  0  0  0  0  0
    5.8480   -5.0400   -1.1323 C   0  0  0  0  0  0  0  0  0  0  0  0
    5.0189   -5.6025   -2.0972 N   0  0  0  0  0  0  0  0  0  0  0  0
    4.6050   -6.9923   -1.9418 C   0  0  0  0  0  0  0  0  0  0  0  0
    3.1850   -7.0623   -2.5070 C   0  0  0  0  0  0  0  0  0  0  0  0
    2.6560   -5.6312   -2.4882 C   0  0  3  0  0  0  0  0  0  0  0  0
    1.9536   -5.3075   -1.2384 N   0  0  0  0  0  0  0  0  0  0  0  0
    3.9327   -4.7897   -2.6726 C   0  0  0  0  0  0  0  0  0  0  0  0
    6.2979   -5.7688   -0.1004 N   0  0  0  0  0  0  0  0  0  0  0  0
    7.0127   -5.1204    0.8346 C   0  0  0  0  0  0  0  0  0  0  0  0
    7.2680   -3.8031    0.8801 N   0  0  0  0  0  0  0  0  0  0  0  0
    5.7012    0.7105    0.0880 S   0  0  0  0  0  0  0  0  0  0  0  0
    3.5207   -0.2586   -2.5998 H   0  0  0  0  0  0  0  0  0  0  0  0
    7.3334   -1.4431    0.8143 H   0  0  0  0  0  0  0  0  0  0  0  0
    5.9385   -3.1599   -2.1202 H   0  0  0  0  0  0  0  0  0  0  0  0
    4.6032   -7.3359   -0.9024 H   0  0  0  0  0  0  0  0  0  0  0  0
    5.2735   -7.6406   -2.5196 H   0  0  0  0  0  0  0  0  0  0  0  0
    2.5628   -7.7594   -1.9348 H   0  0  0  0  0  0  0  0  0  0  0  0
    3.2122   -7.4304   -3.5392 H   0  0  0  0  0  0  0  0  0  0  0  0
    1.9589   -5.4561   -3.3145 H   0  0  0  0  0  0  0  0  0  0  0  0
    2.6120   -5.3582   -0.4592 H   0  0  0  0  0  0  0  0  0  0  0  0
    1.2303   -6.0012   -1.0568 H   0  0  0  0  0  0  0  0  0  0  0  0
    3.8015   -3.8009   -2.2156 H   0  0  0  0  0  0  0  0  0  0  0  0
    4.1356   -4.6378   -3.7389 H   0  0  0  0  0  0  0  0  0  0  0  0
    7.4053   -5.7224    1.6474 H   0  0  0  0  0  0  0  0  0  0  0  0
  1  2  3  0  0  0  0
  2  3  1  0  0  0  0
  3  4  2  0  0  0  0
  3 20  1  0  0  0  0
  4  5  1  0  0  0  0
  4 21  1  0  0  0  0
  5  6  2  0  0  0  0
  6  7  1  0  0  0  0
  6 20  1  0  0  0  0
  7  8  1  0  0  0  0
  7 22  1  0  0  0  0
  8  9  1  0  0  0  0
  8 19  2  0  0  0  0
  9 10  2  0  0  0  0
  9 23  1  0  0  0  0
 10 11  1  0  0  0  0
 10 17  1  0  0  0  0
 11 12  1  0  0  0  0
 11 16  1  0  0  0  0
 12 13  1  0  0  0  0
 12 24  1  0  0  0  0
 12 25  1  0  0  0  0
 13 14  1  0  0  0  0
 13 26  1  0  0  0  0
 13 27  1  0  0  0  0
 14 15  1  0  0  0  0
 14 16  1  0  0  0  0
 14 28  1  0  0  0  0
 15 29  1  0  0  0  0
 15 30  1  0  0  0  0
 16 31  1  0  0  0  0
 16 32  1  0  0  0  0
 17 18  2  0  0  0  0
 18 19  1  0  0  0  0
 18 33  1  0  0  0  0
M  END
$$$$
