CHEMBL3690402
 OpenBabel04072215373D

 64 67  0  0  1  0  0  0  0  0999 V2000
    4.9438   -1.6461   -5.1018 C   0  0  0  0  0  0  0  0  0  0  0  0
    4.0232   -0.5214   -4.9251 N   0  0  0  0  0  0  0  0  0  0  0  0
    2.6330   -0.9967   -4.9230 C   0  0  0  0  0  0  0  0  0  0  0  0
    1.6521    0.1636   -4.7596 C   0  0  0  0  0  0  0  0  0  0  0  0
    1.9312    0.9409   -3.4812 C   0  0  0  0  0  0  0  0  0  0  0  0
    3.3918    1.3947   -3.4386 C   0  0  3  0  0  0  0  0  0  0  0  0
    3.6634    1.9367   -2.1005 N   0  0  0  0  0  0  0  0  0  0  0  0
    3.5036    3.2094   -1.9801 C   0  0  0  0  0  0  0  0  0  0  0  0
    3.7201    3.9011   -0.6492 C   0  0  3  0  0  0  0  0  0  0  0  0
    2.8964    3.2599    0.4506 C   0  0  0  0  0  0  0  0  0  0  0  0
    2.0108    3.8899    1.1551 N   0  0  0  0  0  0  0  0  0  0  0  0
    5.1880    3.9408   -0.2604 C   0  0  0  0  0  0  0  0  0  0  0  0
    5.9288    2.6857   -0.0931 C   0  0  0  0  0  0  0  0  0  0  0  0
    7.2212    2.7070    0.2754 C   0  0  0  0  0  0  0  0  0  0  0  0
    7.8525    3.9248    0.5315 N   0  0  0  0  0  0  0  0  0  0  0  0
    9.1384    4.2260    0.9721 C   0  0  0  0  0  0  0  0  0  0  0  0
   10.2305    3.2999    1.3210 C   0  0  0  0  0  0  0  0  0  0  0  0
   11.5530    3.7110    1.0818 C   0  0  0  0  0  0  0  0  0  0  0  0
   12.6293    2.9010    1.4252 C   0  0  0  0  0  0  0  0  0  0  0  0
   12.4063    1.6649    2.0195 C   0  0  0  0  0  0  0  0  0  0  0  0
   11.1084    1.2324    2.3017 C   0  0  0  0  0  0  0  0  0  0  0  0
   10.8298    0.0018    2.9465 N   0  0  0  0  0  0  0  0  0  0  0  0
   11.7727   -0.8636    3.4569 C   0  0  0  0  0  0  0  0  0  0  0  0
   12.9843   -0.7177    3.4624 O   0  0  0  0  0  0  0  0  0  0  0  0
   11.2140   -2.0077    3.9882 N   0  0  0  0  0  0  0  0  0  0  0  0
   12.1411   -2.9852    4.5661 C   0  0  0  0  0  0  0  0  0  0  0  0
   13.1409   -3.6430    3.5914 C   0  0  0  0  0  0  0  0  0  0  0  0
   12.9410   -3.2938    2.3032 F   0  0  0  0  0  0  0  0  0  0  0  0
   14.4214   -3.3577    3.9161 F   0  0  0  0  0  0  0  0  0  0  0  0
   13.0129   -4.9948    3.6502 F   0  0  0  0  0  0  0  0  0  0  0  0
   10.0276    2.0554    1.9449 C   0  0  0  0  0  0  0  0  0  0  0  0
    9.1620    5.6163    0.9867 C   0  0  0  0  0  0  0  0  0  0  0  0
    7.9740    6.1666    0.6002 N   0  0  0  0  0  0  0  0  0  0  0  0
    7.1953    5.1428    0.3452 C   0  0  0  0  0  0  0  0  0  0  0  0
    5.8331    5.1153   -0.0699 C   0  0  0  0  0  0  0  0  0  0  0  0
    4.3364    0.1974   -3.6784 C   0  0  0  0  0  0  0  0  0  0  0  0
    4.7393   -2.1668   -6.0437 H   0  0  0  0  0  0  0  0  0  0  0  0
    4.8704   -2.3726   -4.2841 H   0  0  0  0  0  0  0  0  0  0  0  0
    5.9791   -1.2918   -5.1559 H   0  0  0  0  0  0  0  0  0  0  0  0
    2.4711   -1.7303   -4.1212 H   0  0  0  0  0  0  0  0  0  0  0  0
    2.4127   -1.4992   -5.8734 H   0  0  0  0  0  0  0  0  0  0  0  0
    0.6253   -0.2187   -4.7413 H   0  0  0  0  0  0  0  0  0  0  0  0
    1.7278    0.8383   -5.6225 H   0  0  0  0  0  0  0  0  0  0  0  0
    1.7102    0.3061   -2.6123 H   0  0  0  0  0  0  0  0  0  0  0  0
    1.2614    1.8059   -3.4116 H   0  0  0  0  0  0  0  0  0  0  0  0
    3.5718    2.1420   -4.2240 H   0  0  0  0  0  0  0  0  0  0  0  0
    3.1865    3.8524   -2.8212 H   0  0  0  0  0  0  0  0  0  0  0  0
    3.3476    4.9257   -0.7820 H   0  0  0  0  0  0  0  0  0  0  0  0
    3.0572    2.1855    0.6480 H   0  0  0  0  0  0  0  0  0  0  0  0
    1.9404    4.8771    0.8883 H   0  0  0  0  0  0  0  0  0  0  0  0
    5.4376    1.7378   -0.2933 H   0  0  0  0  0  0  0  0  0  0  0  0
    7.7973    1.7993    0.3687 H   0  0  0  0  0  0  0  0  0  0  0  0
   11.7671    4.6754    0.6275 H   0  0  0  0  0  0  0  0  0  0  0  0
   13.6496    3.2304    1.2372 H   0  0  0  0  0  0  0  0  0  0  0  0
   13.2798    1.0663    2.2482 H   0  0  0  0  0  0  0  0  0  0  0  0
    9.8670   -0.2639    3.0437 H   0  0  0  0  0  0  0  0  0  0  0  0
   10.2969   -1.9259    4.3971 H   0  0  0  0  0  0  0  0  0  0  0  0
   11.5269   -3.7594    5.0390 H   0  0  0  0  0  0  0  0  0  0  0  0
   12.6958   -2.4813    5.3662 H   0  0  0  0  0  0  0  0  0  0  0  0
    9.0197    1.7377    2.2000 H   0  0  0  0  0  0  0  0  0  0  0  0
    9.9918    6.2509    1.2681 H   0  0  0  0  0  0  0  0  0  0  0  0
    5.3425    6.0732   -0.2032 H   0  0  0  0  0  0  0  0  0  0  0  0
    4.2932   -0.4847   -2.8176 H   0  0  0  0  0  0  0  0  0  0  0  0
    5.3652    0.5792   -3.7226 H   0  0  0  0  0  0  0  0  0  0  0  0
  1  2  1  0  0  0  0
  1 37  1  0  0  0  0
  1 38  1  0  0  0  0
  1 39  1  0  0  0  0
  2  3  1  0  0  0  0
  2 36  1  0  0  0  0
  3  4  1  0  0  0  0
  3 40  1  0  0  0  0
  3 41  1  0  0  0  0
  4  5  1  0  0  0  0
  4 42  1  0  0  0  0
  4 43  1  0  0  0  0
  5  6  1  0  0  0  0
  5 44  1  0  0  0  0
  5 45  1  0  0  0  0
  6  7  1  0  0  0  0
  6 36  1  0  0  0  0
  6 46  1  0  0  0  0
  7  8  2  0  0  0  0
  8  9  1  0  0  0  0
  8 47  1  0  0  0  0
  9 10  1  0  0  0  0
  9 12  1  0  0  0  0
  9 48  1  0  0  0  0
 10 11  2  0  0  0  0
 10 49  1  0  0  0  0
 11 50  1  0  0  0  0
 12 13  1  0  0  0  0
 12 35  2  0  0  0  0
 13 14  2  0  0  0  0
 13 51  1  0  0  0  0
 14 15  1  0  0  0  0
 14 52  1  0  0  0  0
 15 16  1  0  0  0  0
 15 34  1  0  0  0  0
 16 17  1  0  0  0  0
 16 32  2  0  0  0  0
 17 18  1  0  0  0  0
 17 31  2  0  0  0  0
 18 19  2  0  0  0  0
 18 53  1  0  0  0  0
 19 20  1  0  0  0  0
 19 54  1  0  0  0  0
 20 21  2  0  0  0  0
 20 55  1  0  0  0  0
 21 22  1  0  0  0  0
 21 31  1  0  0  0  0
 22 23  1  0  0  0  0
 22 56  1  0  0  0  0
 23 24  2  0  0  0  0
 23 25  1  0  0  0  0
 25 26  1  0  0  0  0
 25 57  1  0  0  0  0
 26 27  1  0  0  0  0
 26 58  1  0  0  0  0
 26 59  1  0  0  0  0
 27 28  1  0  0  0  0
 27 29  1  0  0  0  0
 27 30  1  0  0  0  0
 31 60  1  0  0  0  0
 32 33  1  0  0  0  0
 32 61  1  0  0  0  0
 33 34  2  0  0  0  0
 34 35  1  0  0  0  0
 35 62  1  0  0  0  0
 36 63  1  0  0  0  0
 36 64  1  0  0  0  0
M  END
$$$$
