CHEMBL1934332
 OpenBabel04072215363D

 66 70  0  0  0  0  0  0  0  0999 V2000
   -0.5543    2.9459   -0.2080 C   0  0  0  0  0  0  0  0  0  0  0  0
    0.4599    1.9980    0.2588 N   0  0  0  0  0  0  0  0  0  0  0  0
    0.1461    0.6460   -0.2258 C   0  0  0  0  0  0  0  0  0  0  0  0
    1.2057   -0.3728    0.1989 C   0  0  0  0  0  0  0  0  0  0  0  0
    2.6095    0.0452   -0.2524 C   0  0  0  0  0  0  0  0  0  0  0  0
    2.7693    0.0122   -1.7796 C   0  0  0  0  0  0  0  0  0  0  0  0
    2.5021   -1.2897   -2.3073 O   0  0  0  0  0  0  0  0  0  0  0  0
    2.5878   -1.3896   -3.6743 C   0  0  0  0  0  0  0  0  0  0  0  0
    2.8702   -0.3325   -4.5338 C   0  0  0  0  0  0  0  0  0  0  0  0
    2.9838   -0.5634   -5.8985 C   0  0  0  0  0  0  0  0  0  0  0  0
    2.8096   -1.8616   -6.4265 C   0  0  0  0  0  0  0  0  0  0  0  0
    2.9457   -2.1731   -7.7915 C   0  0  0  0  0  0  0  0  0  0  0  0
    3.4416   -1.1744   -8.6589 N   0  0  0  0  0  0  0  0  0  0  0  0
    3.1832   -0.9326  -10.0155 C   0  0  0  0  0  0  0  0  0  0  0  0
    3.9635    0.0210  -10.6700 C   0  0  0  0  0  0  0  0  0  0  0  0
    3.6270    0.4780  -11.9439 C   0  0  0  0  0  0  0  0  0  0  0  0
    2.4720    0.0376  -12.5953 C   0  0  0  0  0  0  0  0  0  0  0  0
    2.0275    0.6218  -13.8195 N   0  0  0  0  0  0  0  0  0  0  0  0
    2.4955    1.8212  -14.3250 C   0  0  0  0  0  0  0  0  0  0  0  0
    3.3898    2.4912  -13.8112 O   0  0  0  0  0  0  0  0  0  0  0  0
    1.8187    2.2546  -15.4556 N   0  0  0  0  0  0  0  0  0  0  0  0
    2.2001    3.4931  -16.0430 C   0  0  0  0  0  0  0  0  0  0  0  0
    1.2253    4.4582  -16.3022 C   0  0  0  0  0  0  0  0  0  0  0  0
    1.5998    5.7334  -16.7450 C   0  0  0  0  0  0  0  0  0  0  0  0
    2.9423    6.0275  -16.9795 C   0  0  0  0  0  0  0  0  0  0  0  0
    3.9030    5.0480  -16.7666 C   0  0  0  0  0  0  0  0  0  0  0  0
    5.1929    5.3278  -16.9949 F   0  0  0  0  0  0  0  0  0  0  0  0
    3.5450    3.7887  -16.2992 C   0  0  0  0  0  0  0  0  0  0  0  0
    1.7251   -0.9747  -11.9714 C   0  0  0  0  0  0  0  0  0  0  0  0
    0.2981   -1.6160  -12.7121 Cl  0  0  0  0  0  0  0  0  0  0  0  0
    2.0735   -1.4464  -10.6937 C   0  0  0  0  0  0  0  0  0  0  0  0
    2.6768   -3.3952   -8.2760 N   0  0  0  0  0  0  0  0  0  0  0  0
    2.3205   -4.3184   -7.3776 C   0  0  0  0  0  0  0  0  0  0  0  0
    2.2143   -4.1477   -6.0518 N   0  0  0  0  0  0  0  0  0  0  0  0
    2.4577   -2.9155   -5.5778 C   0  0  0  0  0  0  0  0  0  0  0  0
    2.3671   -2.6659   -4.2120 C   0  0  0  0  0  0  0  0  0  0  0  0
    2.8911    1.4584    0.2790 C   0  0  0  0  0  0  0  0  0  0  0  0
    1.7996    2.4553   -0.1303 C   0  0  0  0  0  0  0  0  0  0  0  0
   -1.5517    2.6403    0.1263 H   0  0  0  0  0  0  0  0  0  0  0  0
   -0.5689    3.0265   -1.3014 H   0  0  0  0  0  0  0  0  0  0  0  0
   -0.3723    3.9429    0.2076 H   0  0  0  0  0  0  0  0  0  0  0  0
    0.0337    0.6349   -1.3171 H   0  0  0  0  0  0  0  0  0  0  0  0
   -0.8159    0.3258    0.1927 H   0  0  0  0  0  0  0  0  0  0  0  0
    0.9500   -1.3620   -0.1972 H   0  0  0  0  0  0  0  0  0  0  0  0
    1.1960   -0.4654    1.2933 H   0  0  0  0  0  0  0  0  0  0  0  0
    3.3312   -0.6582    0.1819 H   0  0  0  0  0  0  0  0  0  0  0  0
    3.7991    0.3004   -2.0273 H   0  0  0  0  0  0  0  0  0  0  0  0
    2.0777    0.7259   -2.2376 H   0  0  0  0  0  0  0  0  0  0  0  0
    3.0092    0.6851   -4.1866 H   0  0  0  0  0  0  0  0  0  0  0  0
    3.1833    0.2828   -6.5525 H   0  0  0  0  0  0  0  0  0  0  0  0
    4.3652   -0.8797   -8.3577 H   0  0  0  0  0  0  0  0  0  0  0  0
    4.8323    0.4613  -10.1856 H   0  0  0  0  0  0  0  0  0  0  0  0
    4.2987    1.2077  -12.3829 H   0  0  0  0  0  0  0  0  0  0  0  0
    1.2238    0.1894  -14.2562 H   0  0  0  0  0  0  0  0  0  0  0  0
    0.8325    2.0389  -15.4667 H   0  0  0  0  0  0  0  0  0  0  0  0
    0.1773    4.2655  -16.0863 H   0  0  0  0  0  0  0  0  0  0  0  0
    0.8476    6.5061  -16.8818 H   0  0  0  0  0  0  0  0  0  0  0  0
    3.2498    7.0153  -17.3105 H   0  0  0  0  0  0  0  0  0  0  0  0
    4.3279    3.0597  -16.1154 H   0  0  0  0  0  0  0  0  0  0  0  0
    1.4451   -2.1881  -10.2081 H   0  0  0  0  0  0  0  0  0  0  0  0
    2.1011   -5.3096   -7.7608 H   0  0  0  0  0  0  0  0  0  0  0  0
    2.1180   -3.4853   -3.5441 H   0  0  0  0  0  0  0  0  0  0  0  0
    3.8648    1.8135   -0.0818 H   0  0  0  0  0  0  0  0  0  0  0  0
    2.9565    1.4271    1.3739 H   0  0  0  0  0  0  0  0  0  0  0  0
    1.8516    2.6432   -1.2100 H   0  0  0  0  0  0  0  0  0  0  0  0
    2.0142    3.4126    0.3606 H   0  0  0  0  0  0  0  0  0  0  0  0
  1  2  1  0  0  0  0
  1 39  1  0  0  0  0
  1 40  1  0  0  0  0
  1 41  1  0  0  0  0
  2  3  1  0  0  0  0
  2 38  1  0  0  0  0
  3  4  1  0  0  0  0
  3 42  1  0  0  0  0
  3 43  1  0  0  0  0
  4  5  1  0  0  0  0
  4 44  1  0  0  0  0
  4 45  1  0  0  0  0
  5  6  1  0  0  0  0
  5 37  1  0  0  0  0
  5 46  1  0  0  0  0
  6  7  1  0  0  0  0
  6 47  1  0  0  0  0
  6 48  1  0  0  0  0
  7  8  1  0  0  0  0
  8  9  1  0  0  0  0
  8 36  2  0  0  0  0
  9 10  2  0  0  0  0
  9 49  1  0  0  0  0
 10 11  1  0  0  0  0
 10 50  1  0  0  0  0
 11 12  1  0  0  0  0
 11 35  2  0  0  0  0
 12 13  1  0  0  0  0
 12 32  2  0  0  0  0
 13 14  1  0  0  0  0
 13 51  1  0  0  0  0
 14 15  1  0  0  0  0
 14 31  2  0  0  0  0
 15 16  2  0  0  0  0
 15 52  1  0  0  0  0
 16 17  1  0  0  0  0
 16 53  1  0  0  0  0
 17 18  1  0  0  0  0
 17 29  2  0  0  0  0
 18 19  1  0  0  0  0
 18 54  1  0  0  0  0
 19 20  2  0  0  0  0
 19 21  1  0  0  0  0
 21 22  1  0  0  0  0
 21 55  1  0  0  0  0
 22 23  1  0  0  0  0
 22 28  2  0  0  0  0
 23 24  2  0  0  0  0
 23 56  1  0  0  0  0
 24 25  1  0  0  0  0
 24 57  1  0  0  0  0
 25 26  2  0  0  0  0
 25 58  1  0  0  0  0
 26 27  1  0  0  0  0
 26 28  1  0  0  0  0
 28 59  1  0  0  0  0
 29 30  1  0  0  0  0
 29 31  1  0  0  0  0
 31 60  1  0  0  0  0
 32 33  1  0  0  0  0
 33 34  2  0  0  0  0
 33 61  1  0  0  0  0
 34 35  1  0  0  0  0
 35 36  1  0  0  0  0
 36 62  1  0  0  0  0
 37 38  1  0  0  0  0
 37 63  1  0  0  0  0
 37 64  1  0  0  0  0
 38 65  1  0  0  0  0
 38 66  1  0  0  0  0
M  END
$$$$
