CHEMBL3951242
 OpenBabel04072215373D

 56 59  0  0  0  0  0  0  0  0999 V2000
    3.3265    6.0037    1.6577 C   0  0  0  0  0  0  0  0  0  0  0  0
    1.9311    6.4220    1.2933 C   0  0  0  0  0  0  0  0  0  0  0  0
    1.5900    7.7769    1.3148 C   0  0  0  0  0  0  0  0  0  0  0  0
    0.3121    8.1778    0.9483 C   0  0  0  0  0  0  0  0  0  0  0  0
   -0.6380    7.2314    0.5776 C   0  0  0  0  0  0  0  0  0  0  0  0
   -1.7932    7.7176    0.1113 F   0  0  0  0  0  0  0  0  0  0  0  0
   -0.3602    5.8566    0.6053 C   0  0  0  0  0  0  0  0  0  0  0  0
   -1.3026    4.8311    0.3237 N   0  0  0  0  0  0  0  0  0  0  0  0
   -2.6829    4.9788    0.3175 C   0  0  0  0  0  0  0  0  0  0  0  0
   -3.2961    6.0099    0.5574 O   0  0  0  0  0  0  0  0  0  0  0  0
   -3.3371    3.7770    0.0675 N   0  0  0  0  0  0  0  0  0  0  0  0
   -4.7587    3.7561    0.0199 C   0  0  0  0  0  0  0  0  0  0  0  0
   -5.4918    4.6597   -0.7557 C   0  0  0  0  0  0  0  0  0  0  0  0
   -6.8922    4.6597   -0.7013 C   0  0  0  0  0  0  0  0  0  0  0  0
   -7.5648    3.7674    0.1375 C   0  0  0  0  0  0  0  0  0  0  0  0
   -8.9401    3.8850    0.1776 O   0  0  0  0  0  0  0  0  0  0  0  0
   -9.6181    3.5733    1.3409 C   0  0  0  0  0  0  0  0  0  0  0  0
   -9.1051    3.8105    2.6176 C   0  0  0  0  0  0  0  0  0  0  0  0
   -9.8232    3.3913    3.7194 C   0  0  0  0  0  0  0  0  0  0  0  0
  -11.0392    2.8218    3.6784 N   0  0  0  0  0  0  0  0  0  0  0  0
  -11.5906    2.6940    2.4426 C   0  0  0  0  0  0  0  0  0  0  0  0
  -12.8949    2.1846    2.1870 C   0  0  0  0  0  0  0  0  0  0  0  0
  -13.2247    2.1867    0.8468 C   0  0  0  0  0  0  0  0  0  0  0  0
  -14.4901    1.7610    0.2664 C   0  0  0  0  0  0  0  0  0  0  0  0
  -15.4334    1.3567    0.9492 O   0  0  0  0  0  0  0  0  0  0  0  0
  -14.5823    1.8430   -1.1042 N   0  0  0  0  0  0  0  0  0  0  0  0
  -15.7800    1.4780   -1.8391 C   0  0  0  0  0  0  0  0  0  0  0  0
  -16.7722    2.6424   -1.9655 C   0  0  0  0  0  0  0  0  0  0  0  0
  -16.1796    3.7913   -2.6607 N   0  0  0  0  0  0  0  0  0  0  0  0
  -11.9212    2.7657   -0.1031 S   0  0  0  0  0  0  0  0  0  0  0  0
  -10.9249    3.0548    1.2709 C   0  0  0  0  0  0  0  0  0  0  0  0
   -6.8365    2.8106    0.8494 C   0  0  0  0  0  0  0  0  0  0  0  0
   -5.4452    2.8238    0.7973 C   0  0  0  0  0  0  0  0  0  0  0  0
   -4.7562    1.9784    1.5796 F   0  0  0  0  0  0  0  0  0  0  0  0
    0.9527    5.4670    0.9383 C   0  0  0  0  0  0  0  0  0  0  0  0
    3.9529    6.8732    1.8901 H   0  0  0  0  0  0  0  0  0  0  0  0
    3.7948    5.4761    0.8223 H   0  0  0  0  0  0  0  0  0  0  0  0
    3.3165    5.3588    2.5422 H   0  0  0  0  0  0  0  0  0  0  0  0
    2.3186    8.5331    1.5973 H   0  0  0  0  0  0  0  0  0  0  0  0
    0.0403    9.2281    0.9290 H   0  0  0  0  0  0  0  0  0  0  0  0
   -0.9476    3.8926    0.2300 H   0  0  0  0  0  0  0  0  0  0  0  0
   -2.9278    2.9815    0.5388 H   0  0  0  0  0  0  0  0  0  0  0  0
   -4.9836    5.3822   -1.3912 H   0  0  0  0  0  0  0  0  0  0  0  0
   -7.4521    5.3776   -1.2975 H   0  0  0  0  0  0  0  0  0  0  0  0
   -8.1427    4.2901    2.7640 H   0  0  0  0  0  0  0  0  0  0  0  0
   -9.4063    3.5052    4.7176 H   0  0  0  0  0  0  0  0  0  0  0  0
  -13.5710    1.8467    2.9634 H   0  0  0  0  0  0  0  0  0  0  0  0
  -13.8159    2.2575   -1.6176 H   0  0  0  0  0  0  0  0  0  0  0  0
  -16.2660    0.6340   -1.3384 H   0  0  0  0  0  0  0  0  0  0  0  0
  -15.4554    1.1432   -2.8301 H   0  0  0  0  0  0  0  0  0  0  0  0
  -17.1090    2.9639   -0.9739 H   0  0  0  0  0  0  0  0  0  0  0  0
  -17.6521    2.3059   -2.5248 H   0  0  0  0  0  0  0  0  0  0  0  0
  -15.4069    4.1470   -2.0986 H   0  0  0  0  0  0  0  0  0  0  0  0
  -16.8666    4.5444   -2.6938 H   0  0  0  0  0  0  0  0  0  0  0  0
   -7.3218    2.0764    1.4828 H   0  0  0  0  0  0  0  0  0  0  0  0
    1.2212    4.4124    0.9513 H   0  0  0  0  0  0  0  0  0  0  0  0
  1  2  1  0  0  0  0
  1 36  1  0  0  0  0
  1 37  1  0  0  0  0
  1 38  1  0  0  0  0
  2  3  1  0  0  0  0
  2 35  2  0  0  0  0
  3  4  2  0  0  0  0
  3 39  1  0  0  0  0
  4  5  1  0  0  0  0
  4 40  1  0  0  0  0
  5  6  1  0  0  0  0
  5  7  2  0  0  0  0
  7  8  1  0  0  0  0
  7 35  1  0  0  0  0
  8  9  1  0  0  0  0
  8 41  1  0  0  0  0
  9 10  2  0  0  0  0
  9 11  1  0  0  0  0
 11 12  1  0  0  0  0
 11 42  1  0  0  0  0
 12 13  1  0  0  0  0
 12 33  2  0  0  0  0
 13 14  2  0  0  0  0
 13 43  1  0  0  0  0
 14 15  1  0  0  0  0
 14 44  1  0  0  0  0
 15 16  1  0  0  0  0
 15 32  2  0  0  0  0
 16 17  1  0  0  0  0
 17 18  1  0  0  0  0
 17 31  2  0  0  0  0
 18 19  2  0  0  0  0
 18 45  1  0  0  0  0
 19 20  1  0  0  0  0
 19 46  1  0  0  0  0
 20 21  2  0  0  0  0
 21 22  1  0  0  0  0
 21 31  1  0  0  0  0
 22 23  2  0  0  0  0
 22 47  1  0  0  0  0
 23 24  1  0  0  0  0
 23 30  1  0  0  0  0
 24 25  2  0  0  0  0
 24 26  1  0  0  0  0
 26 27  1  0  0  0  0
 26 48  1  0  0  0  0
 27 28  1  0  0  0  0
 27 49  1  0  0  0  0
 27 50  1  0  0  0  0
 28 29  1  0  0  0  0
 28 51  1  0  0  0  0
 28 52  1  0  0  0  0
 29 53  1  0  0  0  0
 29 54  1  0  0  0  0
 30 31  1  0  0  0  0
 32 33  1  0  0  0  0
 32 55  1  0  0  0  0
 33 34  1  0  0  0  0
 35 56  1  0  0  0  0
M  END
$$$$
