CHEMBL401838
 OpenBabel04072215373D

 61 65  0  0  0  0  0  0  0  0999 V2000
    3.6433   -0.5518    1.4168 O   0  0  0  0  0  0  0  0  0  0  0  0
    2.9801   -0.1119    2.3545 C   0  0  0  0  0  0  0  0  0  0  0  0
    1.7055   -0.7827    2.8395 C   0  0  0  0  0  0  0  0  0  0  0  0
    1.8341   -1.6677    4.0585 C   0  0  0  0  0  0  0  0  0  0  0  0
    0.7191   -1.8244    4.9015 C   0  0  0  0  0  0  0  0  0  0  0  0
    0.7560   -2.6979    5.9905 C   0  0  0  0  0  0  0  0  0  0  0  0
    1.9062   -3.4359    6.2521 C   0  0  0  0  0  0  0  0  0  0  0  0
    3.0157   -3.3025    5.4180 C   0  0  0  0  0  0  0  0  0  0  0  0
    2.9824   -2.4282    4.3220 C   0  0  0  0  0  0  0  0  0  0  0  0
    3.2704    1.0766    3.0189 N   0  0  0  0  0  0  0  0  0  0  0  0
    4.3638    1.9034    2.8841 C   0  0  0  0  0  0  0  0  0  0  0  0
    4.4411    3.2283    3.9070 S   0  0  0  0  0  0  0  0  0  0  0  0
    5.2561    1.5709    1.8960 N   0  0  0  0  0  0  0  0  0  0  0  0
    6.6541    1.7555    1.8817 C   0  0  0  0  0  0  0  0  0  0  0  0
    7.3185    1.7459    0.6503 C   0  0  0  0  0  0  0  0  0  0  0  0
    8.7142    1.8653    0.5960 C   0  0  0  0  0  0  0  0  0  0  0  0
    9.4539    2.0201    1.7738 C   0  0  0  0  0  0  0  0  0  0  0  0
   10.8208    2.1809    1.8280 O   0  0  0  0  0  0  0  0  0  0  0  0
   11.4639    2.8628    0.8166 C   0  0  0  0  0  0  0  0  0  0  0  0
   10.9071    3.9575    0.1551 C   0  0  0  0  0  0  0  0  0  0  0  0
   11.5916    4.5187   -0.9039 C   0  0  0  0  0  0  0  0  0  0  0  0
   12.7916    4.1119   -1.3498 N   0  0  0  0  0  0  0  0  0  0  0  0
   13.3820    3.1238   -0.6301 C   0  0  0  0  0  0  0  0  0  0  0  0
   14.6670    2.5885   -0.9068 C   0  0  0  0  0  0  0  0  0  0  0  0
   15.1188    1.7291    0.0717 C   0  0  0  0  0  0  0  0  0  0  0  0
   16.4114    1.0705    0.2342 C   0  0  0  0  0  0  0  0  0  0  0  0
   16.4945   -0.0743    0.6814 O   0  0  0  0  0  0  0  0  0  0  0  0
   17.5767    1.7481   -0.1426 N   0  0  0  0  0  0  0  0  0  0  0  0
   17.7287    3.1488   -0.5533 C   0  0  0  0  0  0  0  0  0  0  0  0
   18.3462    3.1969   -1.9563 C   0  0  0  0  0  0  0  0  0  0  0  0
   19.6151    2.5191   -1.9716 O   0  0  0  0  0  0  0  0  0  0  0  0
   19.4763    1.1432   -1.5704 C   0  0  0  0  0  0  0  0  0  0  0  0
   18.8518    1.0257   -0.1734 C   0  0  0  0  0  0  0  0  0  0  0  0
   13.8464    1.3546    1.1669 S   0  0  0  0  0  0  0  0  0  0  0  0
   12.7756    2.5021    0.4602 C   0  0  0  0  0  0  0  0  0  0  0  0
    8.7887    1.9556    2.9951 C   0  0  0  0  0  0  0  0  0  0  0  0
    9.4803    2.0022    4.1434 F   0  0  0  0  0  0  0  0  0  0  0  0
    7.4043    1.8291    3.0556 C   0  0  0  0  0  0  0  0  0  0  0  0
    1.3023   -1.3788    2.0124 H   0  0  0  0  0  0  0  0  0  0  0  0
    0.9731    0.0107    3.0391 H   0  0  0  0  0  0  0  0  0  0  0  0
   -0.2020   -1.2793    4.7042 H   0  0  0  0  0  0  0  0  0  0  0  0
   -0.1191   -2.8145    6.6256 H   0  0  0  0  0  0  0  0  0  0  0  0
    1.9338   -4.1239    7.0924 H   0  0  0  0  0  0  0  0  0  0  0  0
    3.9076   -3.8945    5.6119 H   0  0  0  0  0  0  0  0  0  0  0  0
    3.8525   -2.3782    3.6757 H   0  0  0  0  0  0  0  0  0  0  0  0
    2.6686    1.3355    3.7901 H   0  0  0  0  0  0  0  0  0  0  0  0
    4.8585    1.0902    1.0907 H   0  0  0  0  0  0  0  0  0  0  0  0
    6.7617    1.6705   -0.2813 H   0  0  0  0  0  0  0  0  0  0  0  0
    9.2036    1.8439   -0.3743 H   0  0  0  0  0  0  0  0  0  0  0  0
    9.9428    4.3624    0.4404 H   0  0  0  0  0  0  0  0  0  0  0  0
   11.1583    5.3495   -1.4553 H   0  0  0  0  0  0  0  0  0  0  0  0
   15.2477    2.8957   -1.7660 H   0  0  0  0  0  0  0  0  0  0  0  0
   18.4186    3.6097    0.1639 H   0  0  0  0  0  0  0  0  0  0  0  0
   16.8051    3.7197   -0.4986 H   0  0  0  0  0  0  0  0  0  0  0  0
   18.5190    4.2340   -2.2593 H   0  0  0  0  0  0  0  0  0  0  0  0
   17.6883    2.7316   -2.7003 H   0  0  0  0  0  0  0  0  0  0  0  0
   20.4745    0.6947   -1.5743 H   0  0  0  0  0  0  0  0  0  0  0  0
   18.8669    0.6204   -2.3167 H   0  0  0  0  0  0  0  0  0  0  0  0
   19.5032    1.5040    0.5683 H   0  0  0  0  0  0  0  0  0  0  0  0
   18.7401   -0.0264    0.1011 H   0  0  0  0  0  0  0  0  0  0  0  0
    6.9489    1.7374    4.0350 H   0  0  0  0  0  0  0  0  0  0  0  0
  1  2  2  0  0  0  0
  2  3  1  0  0  0  0
  2 10  1  0  0  0  0
  3  4  1  0  0  0  0
  3 39  1  0  0  0  0
  3 40  1  0  0  0  0
  4  5  1  0  0  0  0
  4  9  2  0  0  0  0
  5  6  2  0  0  0  0
  5 41  1  0  0  0  0
  6  7  1  0  0  0  0
  6 42  1  0  0  0  0
  7  8  2  0  0  0  0
  7 43  1  0  0  0  0
  8  9  1  0  0  0  0
  8 44  1  0  0  0  0
  9 45  1  0  0  0  0
 10 11  1  0  0  0  0
 10 46  1  0  0  0  0
 11 12  2  0  0  0  0
 11 13  1  0  0  0  0
 13 14  1  0  0  0  0
 13 47  1  0  0  0  0
 14 15  1  0  0  0  0
 14 38  2  0  0  0  0
 15 16  2  0  0  0  0
 15 48  1  0  0  0  0
 16 17  1  0  0  0  0
 16 49  1  0  0  0  0
 17 18  1  0  0  0  0
 17 36  2  0  0  0  0
 18 19  1  0  0  0  0
 19 20  1  0  0  0  0
 19 35  2  0  0  0  0
 20 21  2  0  0  0  0
 20 50  1  0  0  0  0
 21 22  1  0  0  0  0
 21 51  1  0  0  0  0
 22 23  2  0  0  0  0
 23 24  1  0  0  0  0
 23 35  1  0  0  0  0
 24 25  2  0  0  0  0
 24 52  1  0  0  0  0
 25 26  1  0  0  0  0
 25 34  1  0  0  0  0
 26 27  2  0  0  0  0
 26 28  1  0  0  0  0
 28 29  1  0  0  0  0
 28 33  1  0  0  0  0
 29 30  1  0  0  0  0
 29 53  1  0  0  0  0
 29 54  1  0  0  0  0
 30 31  1  0  0  0  0
 30 55  1  0  0  0  0
 30 56  1  0  0  0  0
 31 32  1  0  0  0  0
 32 33  1  0  0  0  0
 32 57  1  0  0  0  0
 32 58  1  0  0  0  0
 33 59  1  0  0  0  0
 33 60  1  0  0  0  0
 34 35  1  0  0  0  0
 36 37  1  0  0  0  0
 36 38  1  0  0  0  0
 38 61  1  0  0  0  0
M  END
$$$$
