CHEMBL225335
 OpenBabel04072215363D

 63 67  0  0  0  0  0  0  0  0999 V2000
    2.0525   -0.6230   -0.4791 C   0  0  0  0  0  0  0  0  0  0  0  0
    3.4319   -0.6811   -0.0741 O   0  0  0  0  0  0  0  0  0  0  0  0
    3.8381    0.5454    0.5291 C   0  0  0  0  0  0  0  0  0  0  0  0
    5.3034    0.4997    0.9377 C   0  0  0  0  0  0  0  0  0  0  0  0
    5.6148    1.7820    1.4873 O   0  0  0  0  0  0  0  0  0  0  0  0
    6.9697    1.9248    1.9007 C   0  0  0  0  0  0  0  0  0  0  0  0
    7.1164    3.2981    2.4100 C   0  0  0  0  0  0  0  0  0  0  0  0
    7.0723    4.3504    2.9874 C   0  0  0  0  0  0  0  0  0  0  0  0
    6.8697    5.4008    3.9420 C   0  0  0  0  0  0  0  0  0  0  0  0
    7.3317    6.7148    3.9719 C   0  0  0  0  0  0  0  0  0  0  0  0
    7.0618    7.3529    5.2374 C   0  0  0  0  0  0  0  0  0  0  0  0
    7.6440    8.6427    5.8451 C   0  0  0  0  0  0  0  0  0  0  0  0
    7.2137    8.9034    7.1249 N   0  0  0  0  0  0  0  0  0  0  0  0
    8.2149    8.3245    7.8358 N   0  0  0  0  0  0  0  0  0  0  0  0
    9.3391    8.1255    7.0643 C   0  0  0  0  0  0  0  0  0  0  0  0
    9.0470    8.9530    5.9563 C   0  0  0  0  0  0  0  0  0  0  0  0
   10.2200    8.9476    5.0390 C   0  0  0  0  0  0  0  0  0  0  0  0
   10.4816    7.4667    5.1821 C   0  0  0  0  0  0  0  0  0  0  0  0
   10.7683    6.6634    4.0996 C   0  0  0  0  0  0  0  0  0  0  0  0
   10.5660    5.3069    4.2529 C   0  0  0  0  0  0  0  0  0  0  0  0
   10.1780    4.7424    5.4963 C   0  0  0  0  0  0  0  0  0  0  0  0
    9.9926    3.2260    5.5216 C   0  0  0  0  0  0  0  0  0  0  0  0
   11.0919    2.5060    4.8320 N   0  0  0  0  0  0  0  0  0  0  0  0
   12.3807    2.7138    5.5182 C   0  0  0  0  0  0  0  0  0  0  0  0
   13.5412    1.9292    4.8693 C   0  0  0  0  0  0  0  0  0  0  0  0
   13.3120    0.4793    4.7419 N   0  0  0  0  0  0  0  0  0  0  0  0
   13.4043   -0.1972    6.0328 C   0  0  0  0  0  0  0  0  0  0  0  0
   12.0039    0.2575    4.0947 C   0  0  0  0  0  0  0  0  0  0  0  0
   10.8137    1.0651    4.6893 C   0  0  0  0  0  0  0  0  0  0  0  0
    9.8900    5.5835    6.6106 C   0  0  0  0  0  0  0  0  0  0  0  0
   10.0309    6.9594    6.4449 C   0  0  0  0  0  0  0  0  0  0  0  0
    6.2880    6.5197    6.0343 C   0  0  0  0  0  0  0  0  0  0  0  0
    5.9499    5.0178    5.3393 S   0  0  0  0  0  0  0  0  0  0  0  0
    1.7824   -1.5562   -0.9157 H   0  0  0  0  0  0  0  0  0  0  0  0
    1.9093    0.1872   -1.2017 H   0  0  0  0  0  0  0  0  0  0  0  0
    1.4159   -0.4392    0.4095 H   0  0  0  0  0  0  0  0  0  0  0  0
    3.2140    0.7498    1.4154 H   0  0  0  0  0  0  0  0  0  0  0  0
    3.6802    1.3794   -0.1737 H   0  0  0  0  0  0  0  0  0  0  0  0
    5.9338    0.2848    0.0679 H   0  0  0  0  0  0  0  0  0  0  0  0
    5.4646   -0.2929    1.6793 H   0  0  0  0  0  0  0  0  0  0  0  0
    7.6395    1.7423    1.0573 H   0  0  0  0  0  0  0  0  0  0  0  0
    7.1830    1.1936    2.6868 H   0  0  0  0  0  0  0  0  0  0  0  0
    7.9323    7.1337    3.1751 H   0  0  0  0  0  0  0  0  0  0  0  0
    8.1694    8.4376    8.8399 H   0  0  0  0  0  0  0  0  0  0  0  0
   11.0547    9.5035    5.4796 H   0  0  0  0  0  0  0  0  0  0  0  0
   10.0146    9.2969    4.0243 H   0  0  0  0  0  0  0  0  0  0  0  0
   10.9814    7.0919    3.1272 H   0  0  0  0  0  0  0  0  0  0  0  0
   10.6562    4.6671    3.3752 H   0  0  0  0  0  0  0  0  0  0  0  0
    9.0482    3.0138    5.0010 H   0  0  0  0  0  0  0  0  0  0  0  0
    9.8821    2.8707    6.5514 H   0  0  0  0  0  0  0  0  0  0  0  0
   12.2931    2.4363    6.5751 H   0  0  0  0  0  0  0  0  0  0  0  0
   12.6587    3.7731    5.4833 H   0  0  0  0  0  0  0  0  0  0  0  0
   14.4640    2.1186    5.4314 H   0  0  0  0  0  0  0  0  0  0  0  0
   13.7242    2.3332    3.8641 H   0  0  0  0  0  0  0  0  0  0  0  0
   14.3604    0.0290    6.5192 H   0  0  0  0  0  0  0  0  0  0  0  0
   13.3813   -1.2832    5.8902 H   0  0  0  0  0  0  0  0  0  0  0  0
   12.6005    0.0741    6.7241 H   0  0  0  0  0  0  0  0  0  0  0  0
   11.7609   -0.8128    4.1015 H   0  0  0  0  0  0  0  0  0  0  0  0
   12.1116    0.5238    3.0342 H   0  0  0  0  0  0  0  0  0  0  0  0
   10.5423    0.6333    5.6593 H   0  0  0  0  0  0  0  0  0  0  0  0
    9.9546    0.9277    4.0200 H   0  0  0  0  0  0  0  0  0  0  0  0
    9.4640    5.1665    7.5168 H   0  0  0  0  0  0  0  0  0  0  0  0
    5.9695    6.6999    7.0490 H   0  0  0  0  0  0  0  0  0  0  0  0
  1  2  1  0  0  0  0
  1 34  1  0  0  0  0
  1 35  1  0  0  0  0
  1 36  1  0  0  0  0
  2  3  1  0  0  0  0
  3  4  1  0  0  0  0
  3 37  1  0  0  0  0
  3 38  1  0  0  0  0
  4  5  1  0  0  0  0
  4 39  1  0  0  0  0
  4 40  1  0  0  0  0
  5  6  1  0  0  0  0
  6  7  1  0  0  0  0
  6 41  1  0  0  0  0
  6 42  1  0  0  0  0
  7  8  3  0  0  0  0
  8  9  1  0  0  0  0
  9 10  2  0  0  0  0
  9 33  1  0  0  0  0
 10 11  1  0  0  0  0
 10 43  1  0  0  0  0
 11 12  1  0  0  0  0
 11 32  2  0  0  0  0
 12 13  2  0  0  0  0
 12 16  1  0  0  0  0
 13 14  1  0  0  0  0
 14 15  1  0  0  0  0
 14 44  1  0  0  0  0
 15 16  2  0  0  0  0
 15 31  1  0  0  0  0
 16 17  1  0  0  0  0
 17 18  1  0  0  0  0
 17 45  1  0  0  0  0
 17 46  1  0  0  0  0
 18 19  1  0  0  0  0
 18 31  2  0  0  0  0
 19 20  2  0  0  0  0
 19 47  1  0  0  0  0
 20 21  1  0  0  0  0
 20 48  1  0  0  0  0
 21 22  1  0  0  0  0
 21 30  2  0  0  0  0
 22 23  1  0  0  0  0
 22 49  1  0  0  0  0
 22 50  1  0  0  0  0
 23 24  1  0  0  0  0
 23 29  1  0  0  0  0
 24 25  1  0  0  0  0
 24 51  1  0  0  0  0
 24 52  1  0  0  0  0
 25 26  1  0  0  0  0
 25 53  1  0  0  0  0
 25 54  1  0  0  0  0
 26 27  1  0  0  0  0
 26 28  1  0  0  0  0
 27 55  1  0  0  0  0
 27 56  1  0  0  0  0
 27 57  1  0  0  0  0
 28 29  1  0  0  0  0
 28 58  1  0  0  0  0
 28 59  1  0  0  0  0
 29 60  1  0  0  0  0
 29 61  1  0  0  0  0
 30 31  1  0  0  0  0
 30 62  1  0  0  0  0
 32 33  1  0  0  0  0
 32 63  1  0  0  0  0
M  END
$$$$
