CHEMBL1994938
 OpenBabel04072215363D

 50 53  0  0  0  0  0  0  0  0999 V2000
    1.1556    0.1809    0.0816 N   0  0  0  0  0  0  0  0  0  0  0  0
    2.5358    0.1143   -0.0492 C   0  0  0  0  0  0  0  0  0  0  0  0
    3.1801    1.1459    0.5326 N   0  0  0  0  0  0  0  0  0  0  0  0
    4.5211    1.1975    0.5182 C   0  0  0  0  0  0  0  0  0  0  0  0
    5.3438    0.2574   -0.0743 C   0  0  0  0  0  0  0  0  0  0  0  0
    6.8108    0.3148   -0.0503 C   0  0  0  0  0  0  0  0  0  0  0  0
    7.5287    1.4521   -0.0702 C   0  0  0  0  0  0  0  0  0  0  0  0
    9.0128    1.3847   -0.0846 C   0  0  0  0  0  0  0  0  0  0  0  0
    9.6295    0.3264   -0.1349 O   0  0  0  0  0  0  0  0  0  0  0  0
    9.6087    2.6221   -0.0465 N   0  0  0  0  0  0  0  0  0  0  0  0
   11.0507    2.7740   -0.0910 C   0  0  0  0  0  0  0  0  0  0  0  0
   11.5946    2.7889   -1.5199 C   0  0  0  0  0  0  0  0  0  0  0  0
   11.0626    3.9752   -2.3202 C   0  0  0  0  0  0  0  0  0  0  0  0
   11.5689    4.0017   -3.6772 N   0  0  0  0  0  0  0  0  0  0  0  0
   12.6754    4.6694   -4.1184 C   0  0  0  0  0  0  0  0  0  0  0  0
   12.7148    4.4301   -5.4728 C   0  0  0  0  0  0  0  0  0  0  0  0
   11.6592    3.6450   -5.8589 N   0  0  0  0  0  0  0  0  0  0  0  0
   10.9859    3.4025   -4.7566 C   0  0  0  0  0  0  0  0  0  0  0  0
    4.6706   -0.8279   -0.6863 C   0  0  0  0  0  0  0  0  0  0  0  0
    5.3996   -2.1690   -1.4987 S   0  0  0  0  0  0  0  0  0  0  0  0
    3.9081   -2.8549   -1.8936 C   0  0  0  0  0  0  0  0  0  0  0  0
    2.8263   -2.1318   -1.4303 C   0  0  0  0  0  0  0  0  0  0  0  0
    1.4705   -2.6267   -1.7310 C   0  0  0  0  0  0  0  0  0  0  0  0
    1.1841   -4.0046   -1.7103 C   0  0  0  0  0  0  0  0  0  0  0  0
   -0.0988   -4.4817   -2.0036 C   0  0  0  0  0  0  0  0  0  0  0  0
   -1.1216   -3.5814   -2.2822 C   0  0  0  0  0  0  0  0  0  0  0  0
   -2.8660   -4.2151   -2.6343 Br  0  0  0  0  0  0  0  0  0  0  0  0
   -0.8610   -2.2158   -2.3144 C   0  0  0  0  0  0  0  0  0  0  0  0
    0.4378   -1.7495   -2.0829 C   0  0  0  0  0  0  0  0  0  0  0  0
    3.2612   -0.9249   -0.7038 C   0  0  0  0  0  0  0  0  0  0  0  0
    0.9154    0.9076    0.7474 H   0  0  0  0  0  0  0  0  0  0  0  0
    0.7109   -0.7135    0.2392 H   0  0  0  0  0  0  0  0  0  0  0  0
    4.9312    2.0590    1.0377 H   0  0  0  0  0  0  0  0  0  0  0  0
    7.3343   -0.6375   -0.0307 H   0  0  0  0  0  0  0  0  0  0  0  0
    7.0622    2.4302   -0.1038 H   0  0  0  0  0  0  0  0  0  0  0  0
    9.0378    3.4545    0.0107 H   0  0  0  0  0  0  0  0  0  0  0  0
   11.5112    1.9512    0.4671 H   0  0  0  0  0  0  0  0  0  0  0  0
   11.2976    3.7077    0.4251 H   0  0  0  0  0  0  0  0  0  0  0  0
   11.3395    1.8513   -2.0285 H   0  0  0  0  0  0  0  0  0  0  0  0
   12.6901    2.8363   -1.4803 H   0  0  0  0  0  0  0  0  0  0  0  0
   11.3436    4.9228   -1.8453 H   0  0  0  0  0  0  0  0  0  0  0  0
    9.9689    3.9528   -2.3869 H   0  0  0  0  0  0  0  0  0  0  0  0
   13.3219    5.2387   -3.4652 H   0  0  0  0  0  0  0  0  0  0  0  0
   13.4433    4.7831   -6.1907 H   0  0  0  0  0  0  0  0  0  0  0  0
   10.0827    2.8099   -4.6881 H   0  0  0  0  0  0  0  0  0  0  0  0
    3.9029   -3.7718   -2.4677 H   0  0  0  0  0  0  0  0  0  0  0  0
    1.9561   -4.7339   -1.4727 H   0  0  0  0  0  0  0  0  0  0  0  0
   -0.2855   -5.5526   -2.0074 H   0  0  0  0  0  0  0  0  0  0  0  0
   -1.6529   -1.5023   -2.5274 H   0  0  0  0  0  0  0  0  0  0  0  0
    0.6228   -0.6816   -2.1772 H   0  0  0  0  0  0  0  0  0  0  0  0
  1  2  1  0  0  0  0
  1 31  1  0  0  0  0
  1 32  1  0  0  0  0
  2  3  1  0  0  0  0
  2 30  2  0  0  0  0
  3  4  2  0  0  0  0
  4  5  1  0  0  0  0
  4 33  1  0  0  0  0
  5  6  1  0  0  0  0
  5 19  2  0  0  0  0
  6  7  2  3  0  0  0
  6 34  1  0  0  0  0
  7  8  1  0  0  0  0
  7 35  1  0  0  0  0
  8  9  2  0  0  0  0
  8 10  1  0  0  0  0
 10 11  1  0  0  0  0
 10 36  1  0  0  0  0
 11 12  1  0  0  0  0
 11 37  1  0  0  0  0
 11 38  1  0  0  0  0
 12 13  1  0  0  0  0
 12 39  1  0  0  0  0
 12 40  1  0  0  0  0
 13 14  1  0  0  0  0
 13 41  1  0  0  0  0
 13 42  1  0  0  0  0
 14 15  1  0  0  0  0
 14 18  1  0  0  0  0
 15 16  2  0  0  0  0
 15 43  1  0  0  0  0
 16 17  1  0  0  0  0
 16 44  1  0  0  0  0
 17 18  2  0  0  0  0
 18 45  1  0  0  0  0
 19 20  1  0  0  0  0
 19 30  1  0  0  0  0
 20 21  1  0  0  0  0
 21 22  2  0  0  0  0
 21 46  1  0  0  0  0
 22 23  1  0  0  0  0
 22 30  1  0  0  0  0
 23 24  1  0  0  0  0
 23 29  2  0  0  0  0
 24 25  2  0  0  0  0
 24 47  1  0  0  0  0
 25 26  1  0  0  0  0
 25 48  1  0  0  0  0
 26 27  1  0  0  0  0
 26 28  2  0  0  0  0
 28 29  1  0  0  0  0
 28 49  1  0  0  0  0
 29 50  1  0  0  0  0
M  END
$$$$
