CHEMBL4751105
 OpenBabel04072215383D

 53 57  0  0  0  0  0  0  0  0999 V2000
   -0.3250    5.5769    2.9361 C   0  0  0  0  0  0  0  0  0  0  0  0
   -0.3826    4.2941    2.1871 C   0  0  0  0  0  0  0  0  0  0  0  0
    0.7654    3.8805    1.5296 N   0  0  0  0  0  0  0  0  0  0  0  0
    0.5253    2.8031    0.8181 C   0  0  0  0  0  0  0  0  0  0  0  0
    1.3928    2.1941   -0.0299 N   0  0  0  0  0  0  0  0  0  0  0  0
    2.7467    2.3676    0.0042 N   0  0  0  0  0  0  0  0  0  0  0  0
    3.4320    1.6983   -0.8697 C   0  0  0  0  0  0  0  0  0  0  0  0
    2.9089    0.7834   -1.9753 C   0  0  0  0  0  0  0  0  0  0  0  0
    1.7294    0.5860   -2.1939 O   0  0  0  0  0  0  0  0  0  0  0  0
    4.0336    0.2535   -2.5846 N   0  0  0  0  0  0  0  0  0  0  0  0
    3.9619   -0.8488   -3.5158 C   0  0  0  0  0  0  0  0  0  0  0  0
    3.8901   -2.1760   -2.7914 C   0  0  0  0  0  0  0  0  0  0  0  0
    2.6555   -2.6820   -2.3532 C   0  0  0  0  0  0  0  0  0  0  0  0
    2.5950   -3.8547   -1.5983 C   0  0  0  0  0  0  0  0  0  0  0  0
    3.7655   -4.5343   -1.2704 C   0  0  0  0  0  0  0  0  0  0  0  0
    4.9952   -4.0525   -1.7131 C   0  0  0  0  0  0  0  0  0  0  0  0
    5.0577   -2.8826   -2.4723 C   0  0  0  0  0  0  0  0  0  0  0  0
    5.2039    0.7568   -1.9867 C   0  0  0  0  0  0  0  0  0  0  0  0
    6.5243    0.4752   -2.2776 C   0  0  0  0  0  0  0  0  0  0  0  0
    7.5143    1.0852   -1.4907 C   0  0  0  0  0  0  0  0  0  0  0  0
    7.1679    1.9568   -0.4393 C   0  0  0  0  0  0  0  0  0  0  0  0
    8.4162    2.6583    0.5154 Cl  0  0  0  0  0  0  0  0  0  0  0  0
    5.8377    2.2511   -0.1549 C   0  0  0  0  0  0  0  0  0  0  0  0
    4.8867    1.6409   -0.9504 C   0  0  0  0  0  0  0  0  0  0  0  0
   -1.0614    2.1583    1.0106 S   0  0  0  0  0  0  0  0  0  0  0  0
   -1.4894    3.4623    2.0487 C   0  0  0  0  0  0  0  0  0  0  0  0
   -2.7557    3.5282    2.5525 N   0  0  0  0  0  0  0  0  0  0  0  0
   -3.2038    4.6886    2.6436 N   0  0  0  0  0  0  0  0  0  0  0  0
   -4.4888    4.7702    3.2115 C   0  0  0  0  0  0  0  0  0  0  0  0
   -4.9659    3.9131    4.2134 C   0  0  0  0  0  0  0  0  0  0  0  0
   -6.2227    4.1221    4.7918 C   0  0  0  0  0  0  0  0  0  0  0  0
   -7.0138    5.1932    4.3789 C   0  0  0  0  0  0  0  0  0  0  0  0
   -6.5545    6.0513    3.3835 C   0  0  0  0  0  0  0  0  0  0  0  0
   -5.3005    5.8382    2.8075 C   0  0  0  0  0  0  0  0  0  0  0  0
    0.6857    5.9959    2.9184 H   0  0  0  0  0  0  0  0  0  0  0  0
   -0.6198    5.4357    3.9799 H   0  0  0  0  0  0  0  0  0  0  0  0
   -0.9943    6.3117    2.4761 H   0  0  0  0  0  0  0  0  0  0  0  0
    0.9919    1.5030   -0.6721 H   0  0  0  0  0  0  0  0  0  0  0  0
    4.8128   -0.8195   -4.2060 H   0  0  0  0  0  0  0  0  0  0  0  0
    3.0603   -0.7295   -4.1298 H   0  0  0  0  0  0  0  0  0  0  0  0
    1.7301   -2.1543   -2.5816 H   0  0  0  0  0  0  0  0  0  0  0  0
    1.6339   -4.2300   -1.2535 H   0  0  0  0  0  0  0  0  0  0  0  0
    3.7198   -5.4364   -0.6660 H   0  0  0  0  0  0  0  0  0  0  0  0
    5.9087   -4.5829   -1.4566 H   0  0  0  0  0  0  0  0  0  0  0  0
    6.0292   -2.5221   -2.7981 H   0  0  0  0  0  0  0  0  0  0  0  0
    6.8104   -0.1906   -3.0816 H   0  0  0  0  0  0  0  0  0  0  0  0
    8.5630    0.8758   -1.6970 H   0  0  0  0  0  0  0  0  0  0  0  0
    5.5500    2.9087    0.6585 H   0  0  0  0  0  0  0  0  0  0  0  0
   -4.3533    3.0866    4.5639 H   0  0  0  0  0  0  0  0  0  0  0  0
   -6.5781    3.4556    5.5737 H   0  0  0  0  0  0  0  0  0  0  0  0
   -7.9848    5.3634    4.8373 H   0  0  0  0  0  0  0  0  0  0  0  0
   -7.1633    6.8921    3.0613 H   0  0  0  0  0  0  0  0  0  0  0  0
   -4.9408    6.5201    2.0404 H   0  0  0  0  0  0  0  0  0  0  0  0
  1  2  1  0  0  0  0
  1 35  1  0  0  0  0
  1 36  1  0  0  0  0
  1 37  1  0  0  0  0
  2  3  1  0  0  0  0
  2 26  2  0  0  0  0
  3  4  2  0  0  0  0
  4  5  1  0  0  0  0
  4 25  1  0  0  0  0
  5  6  1  0  0  0  0
  5 38  1  0  0  0  0
  6  7  2  0  0  0  0
  7  8  1  0  0  0  0
  7 24  1  0  0  0  0
  8  9  2  0  0  0  0
  8 10  1  0  0  0  0
 10 11  1  0  0  0  0
 10 18  1  0  0  0  0
 11 12  1  0  0  0  0
 11 39  1  0  0  0  0
 11 40  1  0  0  0  0
 12 13  1  0  0  0  0
 12 17  2  0  0  0  0
 13 14  2  0  0  0  0
 13 41  1  0  0  0  0
 14 15  1  0  0  0  0
 14 42  1  0  0  0  0
 15 16  2  0  0  0  0
 15 43  1  0  0  0  0
 16 17  1  0  0  0  0
 16 44  1  0  0  0  0
 17 45  1  0  0  0  0
 18 19  1  0  0  0  0
 18 24  2  0  0  0  0
 19 20  2  0  0  0  0
 19 46  1  0  0  0  0
 20 21  1  0  0  0  0
 20 47  1  0  0  0  0
 21 22  1  0  0  0  0
 21 23  2  0  0  0  0
 23 24  1  0  0  0  0
 23 48  1  0  0  0  0
 25 26  1  0  0  0  0
 26 27  1  0  0  0  0
 27 28  2  0  0  0  0
 28 29  1  0  0  0  0
 29 30  1  0  0  0  0
 29 34  2  0  0  0  0
 30 31  2  0  0  0  0
 30 49  1  0  0  0  0
 31 32  1  0  0  0  0
 31 50  1  0  0  0  0
 32 33  2  0  0  0  0
 32 51  1  0  0  0  0
 33 34  1  0  0  0  0
 33 52  1  0  0  0  0
 34 53  1  0  0  0  0
M  END
$$$$
