CHEMBL1087638
 OpenBabel04072215363D

 64 68  0  0  0  0  0  0  0  0999 V2000
   -1.5081   -1.9027    1.4550 C   0  0  0  0  0  0  0  0  0  0  0  0
   -0.9094   -1.0034    0.4008 C   0  0  0  0  0  0  0  0  0  0  0  0
   -1.6528    0.1063   -0.0156 C   0  0  0  0  0  0  0  0  0  0  0  0
   -1.1188    1.0195   -0.9230 C   0  0  0  0  0  0  0  0  0  0  0  0
    0.1884    0.8802   -1.3784 C   0  0  0  0  0  0  0  0  0  0  0  0
    0.8213    1.7862   -2.2617 N   0  0  0  0  0  0  0  0  0  0  0  0
    0.2255    2.8668   -2.8811 C   0  0  0  0  0  0  0  0  0  0  0  0
   -0.9428    3.2158   -2.7755 O   0  0  0  0  0  0  0  0  0  0  0  0
    1.0826    3.6601   -3.8047 C   0  0  0  0  0  0  0  0  0  0  0  0
    2.4530    3.8499   -3.5980 C   0  0  0  0  0  0  0  0  0  0  0  0
    3.1803    4.6560   -4.4775 C   0  0  0  0  0  0  0  0  0  0  0  0
    2.5476    5.2689   -5.5633 C   0  0  0  0  0  0  0  0  0  0  0  0
    1.1773    5.0807   -5.7889 C   0  0  0  0  0  0  0  0  0  0  0  0
    0.4737    5.7154   -6.9638 C   0  0  0  0  0  0  0  0  0  0  0  0
    1.2994    6.4565   -7.7544 F   0  0  0  0  0  0  0  0  0  0  0  0
   -0.0945    4.7901   -7.7857 F   0  0  0  0  0  0  0  0  0  0  0  0
   -0.5316    6.5514   -6.5866 F   0  0  0  0  0  0  0  0  0  0  0  0
    0.4530    4.2821   -4.8931 C   0  0  0  0  0  0  0  0  0  0  0  0
    0.9307   -0.2252   -0.9498 C   0  0  0  0  0  0  0  0  0  0  0  0
    0.3736   -1.2304   -0.1540 C   0  0  0  0  0  0  0  0  0  0  0  0
    1.0481   -2.4242    0.1597 N   0  0  0  0  0  0  0  0  0  0  0  0
    1.9952   -3.1522   -0.5001 C   0  0  0  0  0  0  0  0  0  0  0  0
    2.0012   -4.4589   -0.2955 N   0  0  0  0  0  0  0  0  0  0  0  0
    3.1221   -4.6278    0.4730 C   0  0  0  0  0  0  0  0  0  0  0  0
    3.4515   -5.6743    1.3424 C   0  0  0  0  0  0  0  0  0  0  0  0
    4.6073   -5.5490    2.1191 C   0  0  0  0  0  0  0  0  0  0  0  0
    5.4481   -4.4412    1.9813 C   0  0  0  0  0  0  0  0  0  0  0  0
    5.1677   -3.4178    1.0685 C   0  0  0  0  0  0  0  0  0  0  0  0
    3.9689   -3.5238    0.3567 C   0  0  0  0  0  0  0  0  0  0  0  0
    3.3295   -2.7561   -0.6147 N   0  0  0  0  0  0  0  0  0  0  0  0
    3.9676   -1.9496   -1.6027 C   0  0  0  0  0  0  0  0  0  0  0  0
    3.3380   -1.6821   -2.8108 C   0  0  0  0  0  0  0  0  0  0  0  0
    4.0640   -0.9776   -3.7615 C   0  0  0  0  0  0  0  0  0  0  0  0
    3.4704   -0.6463   -4.9835 N   0  0  0  0  0  0  0  0  0  0  0  0
    4.3944   -0.3472   -6.0972 C   0  0  0  0  0  0  0  0  0  0  0  0
    5.2388   -1.5618   -6.5188 C   0  0  0  0  0  0  0  0  0  0  0  0
    4.3981   -2.6614   -6.8696 O   0  0  0  0  0  0  0  0  0  0  0  0
    5.3004   -0.5276   -3.5031 N   0  0  0  0  0  0  0  0  0  0  0  0
    5.8256   -0.8299   -2.3116 C   0  0  0  0  0  0  0  0  0  0  0  0
    5.2266   -1.5351   -1.3496 N   0  0  0  0  0  0  0  0  0  0  0  0
   -2.5002   -1.5570    1.7656 H   0  0  0  0  0  0  0  0  0  0  0  0
   -0.8736   -1.9017    2.3490 H   0  0  0  0  0  0  0  0  0  0  0  0
   -1.6217   -2.9265    1.0864 H   0  0  0  0  0  0  0  0  0  0  0  0
   -2.6606    0.2706    0.3602 H   0  0  0  0  0  0  0  0  0  0  0  0
   -1.7529    1.8446   -1.2299 H   0  0  0  0  0  0  0  0  0  0  0  0
    1.7710    1.5598   -2.5291 H   0  0  0  0  0  0  0  0  0  0  0  0
    2.9625    3.4141   -2.7433 H   0  0  0  0  0  0  0  0  0  0  0  0
    4.2432    4.8182   -4.3115 H   0  0  0  0  0  0  0  0  0  0  0  0
    3.1310    5.9021   -6.2310 H   0  0  0  0  0  0  0  0  0  0  0  0
   -0.6199    4.1384   -5.0477 H   0  0  0  0  0  0  0  0  0  0  0  0
    1.9685   -0.2792   -1.2303 H   0  0  0  0  0  0  0  0  0  0  0  0
    0.4245   -3.0711    0.6357 H   0  0  0  0  0  0  0  0  0  0  0  0
    2.7849   -6.5225    1.4533 H   0  0  0  0  0  0  0  0  0  0  0  0
    4.8440   -6.3191    2.8490 H   0  0  0  0  0  0  0  0  0  0  0  0
    6.3387   -4.3672    2.6013 H   0  0  0  0  0  0  0  0  0  0  0  0
    5.8264   -2.5634    0.9588 H   0  0  0  0  0  0  0  0  0  0  0  0
    2.3391   -2.0374   -3.0345 H   0  0  0  0  0  0  0  0  0  0  0  0
    2.7325   -1.2799   -5.2721 H   0  0  0  0  0  0  0  0  0  0  0  0
    5.0393    0.5083   -5.8659 H   0  0  0  0  0  0  0  0  0  0  0  0
    3.7728   -0.0548   -6.9522 H   0  0  0  0  0  0  0  0  0  0  0  0
    5.9249   -1.8904   -5.7318 H   0  0  0  0  0  0  0  0  0  0  0  0
    5.8425   -1.3112   -7.3974 H   0  0  0  0  0  0  0  0  0  0  0  0
    3.9893   -2.9649   -6.0416 H   0  0  0  0  0  0  0  0  0  0  0  0
    6.8277   -0.4679   -2.1078 H   0  0  0  0  0  0  0  0  0  0  0  0
  1  2  1  0  0  0  0
  1 41  1  0  0  0  0
  1 42  1  0  0  0  0
  1 43  1  0  0  0  0
  2  3  1  0  0  0  0
  2 20  2  0  0  0  0
  3  4  2  0  0  0  0
  3 44  1  0  0  0  0
  4  5  1  0  0  0  0
  4 45  1  0  0  0  0
  5  6  1  0  0  0  0
  5 19  2  0  0  0  0
  6  7  1  0  0  0  0
  6 46  1  0  0  0  0
  7  8  2  0  0  0  0
  7  9  1  0  0  0  0
  9 10  1  0  0  0  0
  9 18  2  0  0  0  0
 10 11  2  0  0  0  0
 10 47  1  0  0  0  0
 11 12  1  0  0  0  0
 11 48  1  0  0  0  0
 12 13  2  0  0  0  0
 12 49  1  0  0  0  0
 13 14  1  0  0  0  0
 13 18  1  0  0  0  0
 14 15  1  0  0  0  0
 14 16  1  0  0  0  0
 14 17  1  0  0  0  0
 18 50  1  0  0  0  0
 19 20  1  0  0  0  0
 19 51  1  0  0  0  0
 20 21  1  0  0  0  0
 21 22  1  0  0  0  0
 21 52  1  0  0  0  0
 22 23  2  0  0  0  0
 22 30  1  0  0  0  0
 23 24  1  0  0  0  0
 24 25  1  0  0  0  0
 24 29  2  0  0  0  0
 25 26  2  0  0  0  0
 25 53  1  0  0  0  0
 26 27  1  0  0  0  0
 26 54  1  0  0  0  0
 27 28  2  0  0  0  0
 27 55  1  0  0  0  0
 28 29  1  0  0  0  0
 28 56  1  0  0  0  0
 29 30  1  0  0  0  0
 30 31  1  0  0  0  0
 31 32  1  0  0  0  0
 31 40  2  0  0  0  0
 32 33  2  0  0  0  0
 32 57  1  0  0  0  0
 33 34  1  0  0  0  0
 33 38  1  0  0  0  0
 34 35  1  0  0  0  0
 34 58  1  0  0  0  0
 35 36  1  0  0  0  0
 35 59  1  0  0  0  0
 35 60  1  0  0  0  0
 36 37  1  0  0  0  0
 36 61  1  0  0  0  0
 36 62  1  0  0  0  0
 37 63  1  0  0  0  0
 38 39  2  0  0  0  0
 39 40  1  0  0  0  0
 39 64  1  0  0  0  0
M  END
$$$$
