CHEMBL4593348
 OpenBabel04072215383D

 42 43  0  0  0  0  0  0  0  0999 V2000
    1.2930   -1.6125   -3.1768 C   0  0  0  0  0  0  0  0  0  0  0  0
    2.3093   -1.8040   -2.0608 C   0  0  0  0  0  0  0  0  0  0  0  0
    3.5238   -0.8549   -2.1613 C   0  0  0  0  0  0  0  0  0  0  0  0
    3.1462    0.6446   -2.1591 C   0  0  0  0  0  0  0  0  0  0  0  0
    2.5220    1.1512   -0.8649 C   0  0  0  0  0  0  0  0  0  0  0  0
    4.5600   -1.1345   -1.0514 C   0  0  0  0  0  0  0  0  0  0  0  0
    5.1600   -2.4581   -1.2086 N   0  0  0  0  0  0  0  0  0  0  0  0
    6.5456   -2.6780   -1.2536 C   0  0  0  0  0  0  0  0  0  0  0  0
    7.5084   -1.8608   -0.6188 C   0  0  0  0  0  0  0  0  0  0  0  0
    7.2217   -0.7600    0.3400 C   0  0  0  0  0  0  0  0  0  0  0  0
    7.9872    0.3737    0.2371 N   0  0  0  0  0  0  0  0  0  0  0  0
    6.3571   -0.8332    1.2021 O   0  0  0  0  0  0  0  0  0  0  0  0
    8.8498   -2.1639   -0.8015 C   0  0  0  0  0  0  0  0  0  0  0  0
    9.3148   -3.2088   -1.5138 N   0  0  0  0  0  0  0  0  0  0  0  0
    8.4233   -4.0541   -2.0305 C   0  0  0  0  0  0  0  0  0  0  0  0
    8.9254   -5.1774   -2.6681 C   0  0  0  0  0  0  0  0  0  0  0  0
    8.0992   -6.1521   -3.2267 C   0  0  0  0  0  0  0  0  0  0  0  0
    6.7219   -5.9919   -3.1648 C   0  0  0  0  0  0  0  0  0  0  0  0
    5.8505   -6.9818   -3.7309 C   0  0  0  0  0  0  0  0  0  0  0  0
    5.1436   -7.7786   -4.1917 N   0  0  0  0  0  0  0  0  0  0  0  0
    6.1927   -4.8566   -2.5350 C   0  0  0  0  0  0  0  0  0  0  0  0
    7.0206   -3.8572   -1.9408 C   0  0  0  0  0  0  0  0  0  0  0  0
    0.5919   -2.4534   -3.1904 H   0  0  0  0  0  0  0  0  0  0  0  0
    1.7829   -1.5680   -4.1548 H   0  0  0  0  0  0  0  0  0  0  0  0
    0.7118   -0.6977   -3.0326 H   0  0  0  0  0  0  0  0  0  0  0  0
    2.6487   -2.8441   -2.1177 H   0  0  0  0  0  0  0  0  0  0  0  0
    1.8134   -1.7009   -1.0895 H   0  0  0  0  0  0  0  0  0  0  0  0
    4.0120   -1.0529   -3.1266 H   0  0  0  0  0  0  0  0  0  0  0  0
    2.4695    0.8586   -2.9930 H   0  0  0  0  0  0  0  0  0  0  0  0
    4.0509    1.2365   -2.3529 H   0  0  0  0  0  0  0  0  0  0  0  0
    1.6811    0.5309   -0.5450 H   0  0  0  0  0  0  0  0  0  0  0  0
    2.1507    2.1716   -1.0052 H   0  0  0  0  0  0  0  0  0  0  0  0
    3.2585    1.1813   -0.0553 H   0  0  0  0  0  0  0  0  0  0  0  0
    4.0847   -1.0803   -0.0663 H   0  0  0  0  0  0  0  0  0  0  0  0
    5.3106   -0.3441   -1.1244 H   0  0  0  0  0  0  0  0  0  0  0  0
    4.6102   -3.0643   -1.7978 H   0  0  0  0  0  0  0  0  0  0  0  0
    8.6689    0.5447   -0.4874 H   0  0  0  0  0  0  0  0  0  0  0  0
    7.7726    1.1283    0.8782 H   0  0  0  0  0  0  0  0  0  0  0  0
    9.6340   -1.5741   -0.3346 H   0  0  0  0  0  0  0  0  0  0  0  0
   10.0062   -5.3100   -2.7158 H   0  0  0  0  0  0  0  0  0  0  0  0
    8.5423   -7.0281   -3.6958 H   0  0  0  0  0  0  0  0  0  0  0  0
    5.1087   -4.7779   -2.4923 H   0  0  0  0  0  0  0  0  0  0  0  0
  1  2  1  0  0  0  0
  1 23  1  0  0  0  0
  1 24  1  0  0  0  0
  1 25  1  0  0  0  0
  2  3  1  0  0  0  0
  2 26  1  0  0  0  0
  2 27  1  0  0  0  0
  3  4  1  0  0  0  0
  3  6  1  0  0  0  0
  3 28  1  0  0  0  0
  4  5  1  0  0  0  0
  4 29  1  0  0  0  0
  4 30  1  0  0  0  0
  5 31  1  0  0  0  0
  5 32  1  0  0  0  0
  5 33  1  0  0  0  0
  6  7  1  0  0  0  0
  6 34  1  0  0  0  0
  6 35  1  0  0  0  0
  7  8  1  0  0  0  0
  7 36  1  0  0  0  0
  8  9  1  0  0  0  0
  8 22  2  0  0  0  0
  9 10  1  0  0  0  0
  9 13  2  0  0  0  0
 10 11  1  0  0  0  0
 10 12  2  0  0  0  0
 11 37  1  0  0  0  0
 11 38  1  0  0  0  0
 13 14  1  0  0  0  0
 13 39  1  0  0  0  0
 14 15  2  0  0  0  0
 15 16  1  0  0  0  0
 15 22  1  0  0  0  0
 16 17  2  0  0  0  0
 16 40  1  0  0  0  0
 17 18  1  0  0  0  0
 17 41  1  0  0  0  0
 18 19  1  0  0  0  0
 18 21  2  0  0  0  0
 19 20  3  0  0  0  0
 21 22  1  0  0  0  0
 21 42  1  0  0  0  0
M  END
$$$$
