CHEMBL1965683
 OpenBabel04072215363D

 26 28  0  0  1  0  0  0  0  0999 V2000
    1.4263   -0.2033    0.0508 C   0  0  0  0  0  0  0  0  0  0  0  0
    0.5640   -1.2921   -0.0416 C   0  0  0  0  0  0  0  0  0  0  0  0
   -0.8157   -1.0886   -0.1049 C   0  0  0  0  0  0  0  0  0  0  0  0
   -1.3544    0.2104   -0.0976 C   0  0  0  0  0  0  0  0  0  0  0  0
   -2.8392    0.4818   -0.2010 C   0  0  3  0  0  0  0  0  0  0  0  0
   -3.7117   -0.1590    0.9500 C   0  0  0  0  0  0  0  0  0  0  0  0
   -4.6135   -1.2864    0.3229 C   0  0  0  0  0  0  0  0  0  0  0  0
   -4.2828   -1.1509   -1.0983 C   0  0  0  0  0  0  0  0  0  0  0  0
   -4.6442   -1.7621   -2.2447 N   0  0  0  0  0  0  0  0  0  0  0  0
   -3.9752   -1.2535   -3.3091 N   0  0  0  0  0  0  0  0  0  0  0  0
   -3.1685   -0.3147   -2.7819 C   0  0  0  0  0  0  0  0  0  0  0  0
   -3.3336   -0.2221   -1.4025 C   0  0  0  0  0  0  0  0  0  0  0  0
   -0.4699    1.2948    0.0158 C   0  0  0  0  0  0  0  0  0  0  0  0
    0.9105    1.0898    0.0885 C   0  0  0  0  0  0  0  0  0  0  0  0
    2.5001   -0.3621    0.0897 H   0  0  0  0  0  0  0  0  0  0  0  0
    0.9640   -2.3025   -0.0763 H   0  0  0  0  0  0  0  0  0  0  0  0
   -1.4670   -1.9562   -0.1879 H   0  0  0  0  0  0  0  0  0  0  0  0
   -3.0480    1.5560   -0.2693 H   0  0  0  0  0  0  0  0  0  0  0  0
   -4.3626    0.6142    1.3786 H   0  0  0  0  0  0  0  0  0  0  0  0
   -3.1066   -0.5526    1.7748 H   0  0  0  0  0  0  0  0  0  0  0  0
   -5.6711   -1.0963    0.5261 H   0  0  0  0  0  0  0  0  0  0  0  0
   -4.3337   -2.2674    0.7171 H   0  0  0  0  0  0  0  0  0  0  0  0
   -5.3056   -2.5162   -2.4002 H   0  0  0  0  0  0  0  0  0  0  0  0
   -2.4995    0.2332   -3.4326 H   0  0  0  0  0  0  0  0  0  0  0  0
   -0.8482    2.3147    0.0433 H   0  0  0  0  0  0  0  0  0  0  0  0
    1.5824    1.9403    0.1665 H   0  0  0  0  0  0  0  0  0  0  0  0
  1  2  1  0  0  0  0
  1 14  2  0  0  0  0
  1 15  1  0  0  0  0
  2  3  2  0  0  0  0
  2 16  1  0  0  0  0
  3  4  1  0  0  0  0
  3 17  1  0  0  0  0
  4  5  1  0  0  0  0
  4 13  2  0  0  0  0
  5  6  1  0  0  0  0
  5 12  1  0  0  0  0
  5 18  1  0  0  0  0
  6  7  1  0  0  0  0
  6 19  1  0  0  0  0
  6 20  1  0  0  0  0
  7  8  1  0  0  0  0
  7 21  1  0  0  0  0
  7 22  1  0  0  0  0
  8  9  1  0  0  0  0
  8 12  2  0  0  0  0
  9 10  1  0  0  0  0
  9 23  1  0  0  0  0
 10 11  2  0  0  0  0
 11 12  1  0  0  0  0
 11 24  1  0  0  0  0
 13 14  1  0  0  0  0
 13 25  1  0  0  0  0
 14 26  1  0  0  0  0
M  END
$$$$
