CHEMBL487864
 OpenBabel04072215383D

 52 54  0  0  0  0  0  0  0  0999 V2000
   11.5246   -3.9109   -7.3898 C   0  0  0  0  0  0  0  0  0  0  0  0
   11.0505   -3.9700   -5.9583 C   0  0  0  0  0  0  0  0  0  0  0  0
   10.8035   -5.0522   -5.4382 O   0  0  0  0  0  0  0  0  0  0  0  0
   10.9541   -2.7151   -5.3851 N   0  0  0  0  0  0  0  0  0  0  0  0
   10.6415   -2.4751   -4.0378 C   0  0  0  0  0  0  0  0  0  0  0  0
   10.4466   -1.1563   -3.6352 C   0  0  0  0  0  0  0  0  0  0  0  0
   10.1540   -0.8839   -2.2912 C   0  0  0  0  0  0  0  0  0  0  0  0
   10.0805   -1.9208   -1.3623 C   0  0  0  0  0  0  0  0  0  0  0  0
    9.8250   -1.7580    0.0226 N   0  0  0  0  0  0  0  0  0  0  0  0
    9.7917   -0.5531    0.7076 C   0  0  0  0  0  0  0  0  0  0  0  0
    9.9918    0.5477    0.2064 O   0  0  0  0  0  0  0  0  0  0  0  0
    9.5122   -0.6270    2.1831 C   0  0  0  0  0  0  0  0  0  0  0  0
    8.5529   -1.5319    2.6720 C   0  0  0  0  0  0  0  0  0  0  0  0
    8.2083   -1.5416    4.0361 C   0  0  0  0  0  0  0  0  0  0  0  0
    7.1629   -2.4949    4.5121 C   0  0  0  0  0  0  0  0  0  0  0  0
    7.0877   -3.5768    3.9410 O   0  0  0  0  0  0  0  0  0  0  0  0
    6.3381   -2.0195    5.5208 N   0  0  0  0  0  0  0  0  0  0  0  0
    5.2663   -2.7203    6.1207 C   0  0  0  0  0  0  0  0  0  0  0  0
    5.0887   -4.0981    5.9932 C   0  0  0  0  0  0  0  0  0  0  0  0
    3.9790   -4.7298    6.5586 C   0  0  0  0  0  0  0  0  0  0  0  0
    3.0286   -3.9879    7.2554 C   0  0  0  0  0  0  0  0  0  0  0  0
    3.1914   -2.6059    7.4152 C   0  0  0  0  0  0  0  0  0  0  0  0
    2.1498   -1.7858    8.1361 C   0  0  0  0  0  0  0  0  0  0  0  0
    1.0633   -2.5056    8.5342 F   0  0  0  0  0  0  0  0  0  0  0  0
    2.6405   -1.1990    9.2635 F   0  0  0  0  0  0  0  0  0  0  0  0
    1.6658   -0.7701    7.3696 F   0  0  0  0  0  0  0  0  0  0  0  0
    4.3316   -1.9851    6.8656 C   0  0  0  0  0  0  0  0  0  0  0  0
    8.8526   -0.6807    4.9262 C   0  0  0  0  0  0  0  0  0  0  0  0
    9.8079    0.2163    4.4509 C   0  0  0  0  0  0  0  0  0  0  0  0
   10.1426    0.2637    3.0843 C   0  0  0  0  0  0  0  0  0  0  0  0
   11.1682    1.2775    2.6459 C   0  0  0  0  0  0  0  0  0  0  0  0
   10.2854   -3.2018   -1.8683 C   0  0  0  0  0  0  0  0  0  0  0  0
   10.5599   -3.4899   -3.1642 N   0  0  0  0  0  0  0  0  0  0  0  0
   11.3871   -4.8920   -7.8561 H   0  0  0  0  0  0  0  0  0  0  0  0
   12.5875   -3.6555   -7.4145 H   0  0  0  0  0  0  0  0  0  0  0  0
   10.9489   -3.1772   -7.9604 H   0  0  0  0  0  0  0  0  0  0  0  0
   11.0950   -1.9092   -5.9750 H   0  0  0  0  0  0  0  0  0  0  0  0
   10.5037   -0.3353   -4.3410 H   0  0  0  0  0  0  0  0  0  0  0  0
    9.9801    0.1496   -2.0108 H   0  0  0  0  0  0  0  0  0  0  0  0
    9.7538   -2.6117    0.5631 H   0  0  0  0  0  0  0  0  0  0  0  0
    8.0282   -2.2056    1.9969 H   0  0  0  0  0  0  0  0  0  0  0  0
    6.4051   -1.0361    5.7490 H   0  0  0  0  0  0  0  0  0  0  0  0
    5.8059   -4.7148    5.4594 H   0  0  0  0  0  0  0  0  0  0  0  0
    3.8538   -5.8034    6.4390 H   0  0  0  0  0  0  0  0  0  0  0  0
    2.1558   -4.4943    7.6654 H   0  0  0  0  0  0  0  0  0  0  0  0
    4.4533   -0.9105    6.9939 H   0  0  0  0  0  0  0  0  0  0  0  0
    8.6411   -0.7062    5.9919 H   0  0  0  0  0  0  0  0  0  0  0  0
   10.2979    0.8846    5.1574 H   0  0  0  0  0  0  0  0  0  0  0  0
   11.5952    1.8085    3.5040 H   0  0  0  0  0  0  0  0  0  0  0  0
   10.7110    2.0360    2.0036 H   0  0  0  0  0  0  0  0  0  0  0  0
   11.9961    0.7873    2.1249 H   0  0  0  0  0  0  0  0  0  0  0  0
   10.2509   -4.0786   -1.2291 H   0  0  0  0  0  0  0  0  0  0  0  0
  1  2  1  0  0  0  0
  1 34  1  0  0  0  0
  1 35  1  0  0  0  0
  1 36  1  0  0  0  0
  2  3  2  0  0  0  0
  2  4  1  0  0  0  0
  4  5  1  0  0  0  0
  4 37  1  0  0  0  0
  5  6  1  0  0  0  0
  5 33  2  0  0  0  0
  6  7  2  0  0  0  0
  6 38  1  0  0  0  0
  7  8  1  0  0  0  0
  7 39  1  0  0  0  0
  8  9  1  0  0  0  0
  8 32  2  0  0  0  0
  9 10  1  0  0  0  0
  9 40  1  0  0  0  0
 10 11  2  0  0  0  0
 10 12  1  0  0  0  0
 12 13  1  0  0  0  0
 12 30  2  0  0  0  0
 13 14  2  0  0  0  0
 13 41  1  0  0  0  0
 14 15  1  0  0  0  0
 14 28  1  0  0  0  0
 15 16  2  0  0  0  0
 15 17  1  0  0  0  0
 17 18  1  0  0  0  0
 17 42  1  0  0  0  0
 18 19  1  0  0  0  0
 18 27  2  0  0  0  0
 19 20  2  0  0  0  0
 19 43  1  0  0  0  0
 20 21  1  0  0  0  0
 20 44  1  0  0  0  0
 21 22  2  0  0  0  0
 21 45  1  0  0  0  0
 22 23  1  0  0  0  0
 22 27  1  0  0  0  0
 23 24  1  0  0  0  0
 23 25  1  0  0  0  0
 23 26  1  0  0  0  0
 27 46  1  0  0  0  0
 28 29  2  0  0  0  0
 28 47  1  0  0  0  0
 29 30  1  0  0  0  0
 29 48  1  0  0  0  0
 30 31  1  0  0  0  0
 31 49  1  0  0  0  0
 31 50  1  0  0  0  0
 31 51  1  0  0  0  0
 32 33  1  0  0  0  0
 32 52  1  0  0  0  0
M  END
$$$$
