CHEMBL3954298
 OpenBabel04072215373D

 63 66  0  0  0  0  0  0  0  0999 V2000
    1.2069   -1.0352   -1.2708 C   0  0  0  0  0  0  0  0  0  0  0  0
    2.5346   -1.5872   -1.3533 N   0  0  0  0  0  0  0  0  0  0  0  0
    2.7698   -2.7720   -2.0204 C   0  0  0  0  0  0  0  0  0  0  0  0
    1.8690   -3.4673   -2.4864 O   0  0  0  0  0  0  0  0  0  0  0  0
    4.2161   -3.1994   -2.0784 C   0  0  0  0  0  0  0  0  0  0  0  0
    5.0233   -2.2586   -2.8270 N   0  0  0  0  0  0  0  0  0  0  0  0
    5.2953   -2.2946   -4.1644 C   0  0  0  0  0  0  0  0  0  0  0  0
    6.1717   -1.2635   -4.4186 C   0  0  0  0  0  0  0  0  0  0  0  0
    6.7223   -0.9617   -5.7252 C   0  0  0  0  0  0  0  0  0  0  0  0
    7.9439   -0.3201   -5.8812 C   0  0  0  0  0  0  0  0  0  0  0  0
    8.4609   -0.0210   -7.0963 N   0  0  0  0  0  0  0  0  0  0  0  0
    7.7130   -0.3590   -8.1663 C   0  0  0  0  0  0  0  0  0  0  0  0
    8.1606   -0.0566   -9.4386 C   0  0  0  0  0  0  0  0  0  0  0  0
    7.3787   -0.3380  -10.5631 C   0  0  0  0  0  0  0  0  0  0  0  0
    6.1266   -0.9653  -10.4540 C   0  0  0  0  0  0  0  0  0  0  0  0
    5.3626   -1.1806  -11.6260 N   0  0  0  0  0  0  0  0  0  0  0  0
    3.8842   -1.3601  -11.5546 C   0  0  0  0  0  0  0  0  0  0  0  0
    3.0816   -0.4434  -10.6231 C   0  0  0  0  0  0  0  0  0  0  0  0
    3.3114    1.0490  -10.7942 C   0  0  0  0  0  0  0  0  0  0  0  0
    2.5022    1.7593   -9.8557 O   0  0  0  0  0  0  0  0  0  0  0  0
    5.9220   -1.7609  -12.8218 C   0  0  0  0  0  0  0  0  0  0  0  0
    7.0383   -2.6221  -12.7630 C   0  0  0  0  0  0  0  0  0  0  0  0
    7.6164   -3.1506  -13.9234 C   0  0  0  0  0  0  0  0  0  0  0  0
    8.7094   -3.9734  -13.9803 O   0  0  0  0  0  0  0  0  0  0  0  0
    9.3383   -4.3058  -12.7496 C   0  0  0  0  0  0  0  0  0  0  0  0
    7.0652   -2.8481  -15.1694 C   0  0  0  0  0  0  0  0  0  0  0  0
    5.9466   -2.0274  -15.2625 C   0  0  0  0  0  0  0  0  0  0  0  0
    5.2922   -1.6897  -16.4167 O   0  0  0  0  0  0  0  0  0  0  0  0
    5.8124   -2.2147  -17.6329 C   0  0  0  0  0  0  0  0  0  0  0  0
    5.4003   -1.4754  -14.0962 C   0  0  0  0  0  0  0  0  0  0  0  0
    5.7272   -1.3310   -9.1625 C   0  0  0  0  0  0  0  0  0  0  0  0
    6.4713   -1.0185   -8.0224 C   0  0  0  0  0  0  0  0  0  0  0  0
    5.9878   -1.3378   -6.8029 N   0  0  0  0  0  0  0  0  0  0  0  0
    6.3468   -0.6467   -3.1582 C   0  0  0  0  0  0  0  0  0  0  0  0
    5.6443   -1.2426   -2.1868 N   0  0  0  0  0  0  0  0  0  0  0  0
    1.2633   -0.0437   -0.8164 H   0  0  0  0  0  0  0  0  0  0  0  0
    0.5836   -1.6924   -0.6583 H   0  0  0  0  0  0  0  0  0  0  0  0
    0.7779   -0.9639   -2.2742 H   0  0  0  0  0  0  0  0  0  0  0  0
    3.3316   -0.9939   -1.1319 H   0  0  0  0  0  0  0  0  0  0  0  0
    4.2949   -4.1754   -2.5678 H   0  0  0  0  0  0  0  0  0  0  0  0
    4.6250   -3.2850   -1.0666 H   0  0  0  0  0  0  0  0  0  0  0  0
    4.8587   -3.0424   -4.8170 H   0  0  0  0  0  0  0  0  0  0  0  0
    8.5546   -0.0274   -5.0373 H   0  0  0  0  0  0  0  0  0  0  0  0
    9.1245    0.4300   -9.5625 H   0  0  0  0  0  0  0  0  0  0  0  0
    7.7558   -0.0432  -11.5413 H   0  0  0  0  0  0  0  0  0  0  0  0
    3.6649   -2.4045  -11.3018 H   0  0  0  0  0  0  0  0  0  0  0  0
    3.4335   -1.1955  -12.5404 H   0  0  0  0  0  0  0  0  0  0  0  0
    3.2027   -0.7106   -9.5707 H   0  0  0  0  0  0  0  0  0  0  0  0
    2.0161   -0.6429  -10.8100 H   0  0  0  0  0  0  0  0  0  0  0  0
    3.0398    1.3848  -11.7990 H   0  0  0  0  0  0  0  0  0  0  0  0
    4.3493    1.3287  -10.6001 H   0  0  0  0  0  0  0  0  0  0  0  0
    1.5978    1.4046   -9.9000 H   0  0  0  0  0  0  0  0  0  0  0  0
    7.4429   -2.8839  -11.7914 H   0  0  0  0  0  0  0  0  0  0  0  0
   10.1939   -4.9497  -12.9768 H   0  0  0  0  0  0  0  0  0  0  0  0
    8.6601   -4.8704  -12.1021 H   0  0  0  0  0  0  0  0  0  0  0  0
    9.7191   -3.4118  -12.2452 H   0  0  0  0  0  0  0  0  0  0  0  0
    7.5383   -3.2727  -16.0492 H   0  0  0  0  0  0  0  0  0  0  0  0
    5.1030   -1.9743  -18.4309 H   0  0  0  0  0  0  0  0  0  0  0  0
    5.9081   -3.3053  -17.6023 H   0  0  0  0  0  0  0  0  0  0  0  0
    6.7685   -1.7403  -17.8762 H   0  0  0  0  0  0  0  0  0  0  0  0
    4.5680   -0.7880  -14.2150 H   0  0  0  0  0  0  0  0  0  0  0  0
    4.8083   -1.8856   -9.0033 H   0  0  0  0  0  0  0  0  0  0  0  0
    6.9444    0.2204   -2.9047 H   0  0  0  0  0  0  0  0  0  0  0  0
  1  2  1  0  0  0  0
  1 36  1  0  0  0  0
  1 37  1  0  0  0  0
  1 38  1  0  0  0  0
  2  3  1  0  0  0  0
  2 39  1  0  0  0  0
  3  4  2  0  0  0  0
  3  5  1  0  0  0  0
  5  6  1  0  0  0  0
  5 40  1  0  0  0  0
  5 41  1  0  0  0  0
  6  7  1  0  0  0  0
  6 35  1  0  0  0  0
  7  8  2  0  0  0  0
  7 42  1  0  0  0  0
  8  9  1  0  0  0  0
  8 34  1  0  0  0  0
  9 10  1  0  0  0  0
  9 33  2  0  0  0  0
 10 11  2  0  0  0  0
 10 43  1  0  0  0  0
 11 12  1  0  0  0  0
 12 13  1  0  0  0  0
 12 32  2  0  0  0  0
 13 14  2  0  0  0  0
 13 44  1  0  0  0  0
 14 15  1  0  0  0  0
 14 45  1  0  0  0  0
 15 16  1  0  0  0  0
 15 31  2  0  0  0  0
 16 17  1  0  0  0  0
 16 21  1  0  0  0  0
 17 18  1  0  0  0  0
 17 46  1  0  0  0  0
 17 47  1  0  0  0  0
 18 19  1  0  0  0  0
 18 48  1  0  0  0  0
 18 49  1  0  0  0  0
 19 20  1  0  0  0  0
 19 50  1  0  0  0  0
 19 51  1  0  0  0  0
 20 52  1  0  0  0  0
 21 22  1  0  0  0  0
 21 30  2  0  0  0  0
 22 23  2  0  0  0  0
 22 53  1  0  0  0  0
 23 24  1  0  0  0  0
 23 26  1  0  0  0  0
 24 25  1  0  0  0  0
 25 54  1  0  0  0  0
 25 55  1  0  0  0  0
 25 56  1  0  0  0  0
 26 27  2  0  0  0  0
 26 57  1  0  0  0  0
 27 28  1  0  0  0  0
 27 30  1  0  0  0  0
 28 29  1  0  0  0  0
 29 58  1  0  0  0  0
 29 59  1  0  0  0  0
 29 60  1  0  0  0  0
 30 61  1  0  0  0  0
 31 32  1  0  0  0  0
 31 62  1  0  0  0  0
 32 33  1  0  0  0  0
 34 35  2  0  0  0  0
 34 63  1  0  0  0  0
M  END
$$$$
