CHEMBL1975903
 OpenBabel04072215363D

 42 44  0  0  0  0  0  0  0  0999 V2000
    2.4925    4.8759   -0.4156 C   0  0  0  0  0  0  0  0  0  0  0  0
    3.2813    3.7407   -0.7403 O   0  0  0  0  0  0  0  0  0  0  0  0
    3.7189    2.9304    0.2789 C   0  0  0  0  0  0  0  0  0  0  0  0
    3.6070    3.2793    1.6323 C   0  0  0  0  0  0  0  0  0  0  0  0
    4.0896    2.4297    2.6272 C   0  0  0  0  0  0  0  0  0  0  0  0
    4.6798    1.2209    2.2809 C   0  0  0  0  0  0  0  0  0  0  0  0
    4.8062    0.8686    0.9346 C   0  0  0  0  0  0  0  0  0  0  0  0
    4.3436    1.7123   -0.0976 C   0  0  0  0  0  0  0  0  0  0  0  0
    4.5485    1.3170   -1.5148 C   0  0  0  0  0  0  0  0  0  0  0  0
    3.6141    1.5775   -2.4999 C   0  0  0  0  0  0  0  0  0  0  0  0
    3.9679    1.2634   -3.7817 C   0  0  0  0  0  0  0  0  0  0  0  0
    5.1225    0.6661   -4.0908 N   0  0  0  0  0  0  0  0  0  0  0  0
    5.9606    0.3745   -3.0802 C   0  0  0  0  0  0  0  0  0  0  0  0
    7.1492   -0.2967   -3.3802 N   0  0  0  0  0  0  0  0  0  0  0  0
    7.3526   -1.2185   -4.4233 C   0  0  0  0  0  0  0  0  0  0  0  0
    8.6376   -1.4046   -4.9460 C   0  0  0  0  0  0  0  0  0  0  0  0
    8.8519   -2.2549   -6.0394 C   0  0  0  0  0  0  0  0  0  0  0  0
    7.7856   -2.9458   -6.6137 C   0  0  0  0  0  0  0  0  0  0  0  0
    6.5053   -2.7745   -6.0882 C   0  0  0  0  0  0  0  0  0  0  0  0
    5.1326   -3.6704   -6.7624 S   0  0  0  0  0  0  0  0  0  0  0  0
    4.4779   -2.5754   -7.9923 C   0  0  0  0  0  0  0  0  0  0  0  0
    5.6652   -4.8395   -7.4411 O   0  0  0  0  0  0  0  0  0  0  0  0
    4.1373   -3.8182   -5.7138 O   0  0  0  0  0  0  0  0  0  0  0  0
    6.2931   -1.9272   -4.9975 C   0  0  0  0  0  0  0  0  0  0  0  0
    5.7254    0.6983   -1.7995 N   0  0  0  0  0  0  0  0  0  0  0  0
    2.0790    5.2667   -1.3508 H   0  0  0  0  0  0  0  0  0  0  0  0
    3.1151    5.6567    0.0300 H   0  0  0  0  0  0  0  0  0  0  0  0
    1.6482    4.6168    0.2316 H   0  0  0  0  0  0  0  0  0  0  0  0
    3.1646    4.2197    1.9438 H   0  0  0  0  0  0  0  0  0  0  0  0
    4.0109    2.7187    3.6724 H   0  0  0  0  0  0  0  0  0  0  0  0
    5.0546    0.5560    3.0550 H   0  0  0  0  0  0  0  0  0  0  0  0
    5.2803   -0.0803    0.6864 H   0  0  0  0  0  0  0  0  0  0  0  0
    2.6565    2.0361   -2.2962 H   0  0  0  0  0  0  0  0  0  0  0  0
    3.3218    1.4907   -4.6219 H   0  0  0  0  0  0  0  0  0  0  0  0
    7.7093   -0.4262   -2.5512 H   0  0  0  0  0  0  0  0  0  0  0  0
    9.4810   -0.8587   -4.5288 H   0  0  0  0  0  0  0  0  0  0  0  0
    9.8537   -2.3704   -6.4473 H   0  0  0  0  0  0  0  0  0  0  0  0
    7.9582   -3.6091   -7.4576 H   0  0  0  0  0  0  0  0  0  0  0  0
    5.2330   -2.4182   -8.7645 H   0  0  0  0  0  0  0  0  0  0  0  0
    4.1967   -1.6330   -7.5218 H   0  0  0  0  0  0  0  0  0  0  0  0
    3.5958   -3.0494   -8.4291 H   0  0  0  0  0  0  0  0  0  0  0  0
    5.2875   -1.8298   -4.5912 H   0  0  0  0  0  0  0  0  0  0  0  0
  1  2  1  0  0  0  0
  1 26  1  0  0  0  0
  1 27  1  0  0  0  0
  1 28  1  0  0  0  0
  2  3  1  0  0  0  0
  3  4  1  0  0  0  0
  3  8  2  0  0  0  0
  4  5  2  0  0  0  0
  4 29  1  0  0  0  0
  5  6  1  0  0  0  0
  5 30  1  0  0  0  0
  6  7  2  0  0  0  0
  6 31  1  0  0  0  0
  7  8  1  0  0  0  0
  7 32  1  0  0  0  0
  8  9  1  0  0  0  0
  9 10  1  0  0  0  0
  9 25  2  0  0  0  0
 10 11  2  0  0  0  0
 10 33  1  0  0  0  0
 11 12  1  0  0  0  0
 11 34  1  0  0  0  0
 12 13  2  0  0  0  0
 13 14  1  0  0  0  0
 13 25  1  0  0  0  0
 14 15  1  0  0  0  0
 14 35  1  0  0  0  0
 15 16  1  0  0  0  0
 15 24  2  0  0  0  0
 16 17  2  0  0  0  0
 16 36  1  0  0  0  0
 17 18  1  0  0  0  0
 17 37  1  0  0  0  0
 18 19  2  0  0  0  0
 18 38  1  0  0  0  0
 19 20  1  0  0  0  0
 19 24  1  0  0  0  0
 20 21  1  0  0  0  0
 20 22  2  0  0  0  0
 20 23  2  0  0  0  0
 21 39  1  0  0  0  0
 21 40  1  0  0  0  0
 21 41  1  0  0  0  0
 24 42  1  0  0  0  0
M  END
$$$$
