CHEMBL257987
 OpenBabel04072215363D

 51 55  0  0  0  0  0  0  0  0999 V2000
    4.9568    6.2483    3.1791 O   0  0  0  0  0  0  0  0  0  0  0  0
    4.3588    5.1712    3.2961 C   0  0  0  0  0  0  0  0  0  0  0  0
    3.1469    5.0409    4.1830 C   0  0  0  0  0  0  0  0  0  0  0  0
    1.8256    5.2702    3.4884 C   0  0  0  0  0  0  0  0  0  0  0  0
    0.6955    4.5721    3.9383 C   0  0  0  0  0  0  0  0  0  0  0  0
   -0.5531    4.7830    3.3546 C   0  0  0  0  0  0  0  0  0  0  0  0
   -0.6919    5.7049    2.3215 C   0  0  0  0  0  0  0  0  0  0  0  0
    0.4188    6.4145    1.8700 C   0  0  0  0  0  0  0  0  0  0  0  0
    1.6707    6.2045    2.4534 C   0  0  0  0  0  0  0  0  0  0  0  0
    4.8373    4.0932    2.5762 N   0  0  0  0  0  0  0  0  0  0  0  0
    4.4289    2.8063    2.2144 C   0  0  0  0  0  0  0  0  0  0  0  0
    3.0184    2.0121    2.5915 S   0  0  0  0  0  0  0  0  0  0  0  0
    5.3068    2.1730    1.3585 N   0  0  0  0  0  0  0  0  0  0  0  0
    6.7103    2.2646    1.3497 C   0  0  0  0  0  0  0  0  0  0  0  0
    7.3851    1.9003    0.1841 C   0  0  0  0  0  0  0  0  0  0  0  0
    8.7796    1.9754    0.1310 C   0  0  0  0  0  0  0  0  0  0  0  0
    9.5019    2.4392    1.2361 C   0  0  0  0  0  0  0  0  0  0  0  0
   10.8671    2.5814    1.2633 O   0  0  0  0  0  0  0  0  0  0  0  0
   11.5330    2.9794    0.1255 C   0  0  0  0  0  0  0  0  0  0  0  0
   10.9990    3.8608   -0.8177 C   0  0  0  0  0  0  0  0  0  0  0  0
   11.7301    4.1505   -1.9528 C   0  0  0  0  0  0  0  0  0  0  0  0
   12.9681    3.6983   -2.2092 N   0  0  0  0  0  0  0  0  0  0  0  0
   13.5283    2.9303   -1.2382 C   0  0  0  0  0  0  0  0  0  0  0  0
   14.8619    2.4379   -1.2724 C   0  0  0  0  0  0  0  0  0  0  0  0
   15.2128    1.7309   -0.1378 C   0  0  0  0  0  0  0  0  0  0  0  0
   16.4991    1.1740    0.2013 C   0  0  0  0  0  0  0  0  0  0  0  0
   16.7314    0.4819    1.3004 N   0  0  0  0  0  0  0  0  0  0  0  0
   18.0538    0.0957    1.4186 N   0  0  0  0  0  0  0  0  0  0  0  0
   18.7738    0.5096    0.4009 C   0  0  0  0  0  0  0  0  0  0  0  0
   17.9018    1.3858   -0.7816 S   0  0  0  0  0  0  0  0  0  0  0  0
   13.8659    1.5820    0.9177 S   0  0  0  0  0  0  0  0  0  0  0  0
   12.8554    2.5526   -0.0797 C   0  0  0  0  0  0  0  0  0  0  0  0
    8.8226    2.7294    2.4158 C   0  0  0  0  0  0  0  0  0  0  0  0
    9.4963    3.0982    3.5151 F   0  0  0  0  0  0  0  0  0  0  0  0
    7.4366    2.6457    2.4810 C   0  0  0  0  0  0  0  0  0  0  0  0
    3.2438    5.7886    4.9814 H   0  0  0  0  0  0  0  0  0  0  0  0
    3.1809    4.0696    4.6868 H   0  0  0  0  0  0  0  0  0  0  0  0
    0.7853    3.8454    4.7435 H   0  0  0  0  0  0  0  0  0  0  0  0
   -1.4157    4.2255    3.7100 H   0  0  0  0  0  0  0  0  0  0  0  0
   -1.6668    5.8746    1.8730 H   0  0  0  0  0  0  0  0  0  0  0  0
    0.3094    7.1392    1.0672 H   0  0  0  0  0  0  0  0  0  0  0  0
    2.5164    6.7861    2.0906 H   0  0  0  0  0  0  0  0  0  0  0  0
    5.6253    4.4185    2.0296 H   0  0  0  0  0  0  0  0  0  0  0  0
    4.8886    1.4641    0.7627 H   0  0  0  0  0  0  0  0  0  0  0  0
    6.8383    1.5930   -0.7046 H   0  0  0  0  0  0  0  0  0  0  0  0
    9.2845    1.6863   -0.7866 H   0  0  0  0  0  0  0  0  0  0  0  0
   10.0201    4.3086   -0.6912 H   0  0  0  0  0  0  0  0  0  0  0  0
   11.3097    4.7895   -2.7256 H   0  0  0  0  0  0  0  0  0  0  0  0
   15.5325    2.6429   -2.0970 H   0  0  0  0  0  0  0  0  0  0  0  0
   19.8331    0.3122    0.3172 H   0  0  0  0  0  0  0  0  0  0  0  0
    6.9593    2.8429    3.4361 H   0  0  0  0  0  0  0  0  0  0  0  0
  1  2  2  0  0  0  0
  2  3  1  0  0  0  0
  2 10  1  0  0  0  0
  3  4  1  0  0  0  0
  3 36  1  0  0  0  0
  3 37  1  0  0  0  0
  4  5  1  0  0  0  0
  4  9  2  0  0  0  0
  5  6  2  0  0  0  0
  5 38  1  0  0  0  0
  6  7  1  0  0  0  0
  6 39  1  0  0  0  0
  7  8  2  0  0  0  0
  7 40  1  0  0  0  0
  8  9  1  0  0  0  0
  8 41  1  0  0  0  0
  9 42  1  0  0  0  0
 10 11  1  0  0  0  0
 10 43  1  0  0  0  0
 11 12  2  0  0  0  0
 11 13  1  0  0  0  0
 13 14  1  0  0  0  0
 13 44  1  0  0  0  0
 14 15  1  0  0  0  0
 14 35  2  0  0  0  0
 15 16  2  0  0  0  0
 15 45  1  0  0  0  0
 16 17  1  0  0  0  0
 16 46  1  0  0  0  0
 17 18  1  0  0  0  0
 17 33  2  0  0  0  0
 18 19  1  0  0  0  0
 19 20  1  0  0  0  0
 19 32  2  0  0  0  0
 20 21  2  0  0  0  0
 20 47  1  0  0  0  0
 21 22  1  0  0  0  0
 21 48  1  0  0  0  0
 22 23  2  0  0  0  0
 23 24  1  0  0  0  0
 23 32  1  0  0  0  0
 24 25  2  0  0  0  0
 24 49  1  0  0  0  0
 25 26  1  0  0  0  0
 25 31  1  0  0  0  0
 26 27  2  0  0  0  0
 26 30  1  0  0  0  0
 27 28  1  0  0  0  0
 28 29  2  0  0  0  0
 29 30  1  0  0  0  0
 29 50  1  0  0  0  0
 31 32  1  0  0  0  0
 33 34  1  0  0  0  0
 33 35  1  0  0  0  0
 35 51  1  0  0  0  0
M  END
$$$$
