CHEMBL3947334
 OpenBabel04072215373D

 58 61  0  0  0  0  0  0  0  0999 V2000
    2.5402    0.2300    0.0692 C   0  0  0  0  0  0  0  0  0  0  0  0
    1.0421    0.0988    0.0986 C   0  0  0  0  0  0  0  0  0  0  0  0
    0.3071    1.2977    0.1848 C   0  0  0  0  0  0  0  0  0  0  0  0
   -1.0842    1.2993    0.1740 C   0  0  0  0  0  0  0  0  0  0  0  0
   -1.7727    0.1052   -0.0068 C   0  0  0  0  0  0  0  0  0  0  0  0
   -3.1469    0.0194   -0.1164 O   0  0  0  0  0  0  0  0  0  0  0  0
   -3.8314    1.0237   -0.7736 C   0  0  0  0  0  0  0  0  0  0  0  0
   -3.2990    1.7383   -1.8431 C   0  0  0  0  0  0  0  0  0  0  0  0
   -4.0378    2.7833   -2.3469 C   0  0  0  0  0  0  0  0  0  0  0  0
   -5.2669    3.0973   -1.9041 N   0  0  0  0  0  0  0  0  0  0  0  0
   -5.8222    2.3496   -0.9317 C   0  0  0  0  0  0  0  0  0  0  0  0
   -7.1262    2.6483   -0.5001 N   0  0  0  0  0  0  0  0  0  0  0  0
   -7.8786    3.6938   -1.0017 C   0  0  0  0  0  0  0  0  0  0  0  0
   -7.5457    4.5105   -1.8501 O   0  0  0  0  0  0  0  0  0  0  0  0
   -9.2508    3.8749   -0.4269 C   0  0  0  0  0  0  0  0  0  0  0  0
   -9.4041    4.2034    1.0395 C   0  0  0  0  0  0  0  0  0  0  0  0
   -9.9877    2.9351    0.4877 C   0  0  0  0  0  0  0  0  0  0  0  0
   -5.1312    1.2993   -0.3405 C   0  0  0  0  0  0  0  0  0  0  0  0
   -1.0574   -1.0967   -0.0406 C   0  0  0  0  0  0  0  0  0  0  0  0
    0.3490   -1.1341    0.0160 C   0  0  0  0  0  0  0  0  0  0  0  0
    1.0672   -2.3735    0.0266 N   0  0  0  0  0  0  0  0  0  0  0  0
    0.5100   -3.6421   -0.1199 C   0  0  0  0  0  0  0  0  0  0  0  0
   -0.6547   -3.8752   -0.4252 O   0  0  0  0  0  0  0  0  0  0  0  0
    1.4135   -4.6610    0.1815 N   0  0  0  0  0  0  0  0  0  0  0  0
    1.0071   -6.0243    0.1266 C   0  0  0  0  0  0  0  0  0  0  0  0
    1.3199   -6.8706    1.1884 C   0  0  0  0  0  0  0  0  0  0  0  0
    0.8287   -8.1788    1.2041 C   0  0  0  0  0  0  0  0  0  0  0  0
    0.0701   -8.6764    0.1371 C   0  0  0  0  0  0  0  0  0  0  0  0
   -0.5304  -10.2892    0.2892 Cl  0  0  0  0  0  0  0  0  0  0  0  0
   -0.1930   -7.8720   -0.9786 C   0  0  0  0  0  0  0  0  0  0  0  0
   -0.9489   -8.3691   -2.1935 C   0  0  0  0  0  0  0  0  0  0  0  0
   -2.4562   -8.2262   -2.0483 C   0  0  0  0  0  0  0  0  0  0  0  0
   -0.5925   -7.6829   -3.3241 F   0  0  0  0  0  0  0  0  0  0  0  0
   -0.6776   -9.6729   -2.4995 F   0  0  0  0  0  0  0  0  0  0  0  0
    0.2696   -6.5361   -0.9553 C   0  0  0  0  0  0  0  0  0  0  0  0
    2.8558    1.2634    0.2619 H   0  0  0  0  0  0  0  0  0  0  0  0
    2.9313   -0.0428   -0.9159 H   0  0  0  0  0  0  0  0  0  0  0  0
    3.0076   -0.3815    0.8417 H   0  0  0  0  0  0  0  0  0  0  0  0
    0.8196    2.2559    0.2544 H   0  0  0  0  0  0  0  0  0  0  0  0
   -1.6123    2.2438    0.2687 H   0  0  0  0  0  0  0  0  0  0  0  0
   -2.3232    1.5228   -2.2592 H   0  0  0  0  0  0  0  0  0  0  0  0
   -3.6544    3.4244   -3.1333 H   0  0  0  0  0  0  0  0  0  0  0  0
   -7.5228    2.0671    0.2187 H   0  0  0  0  0  0  0  0  0  0  0  0
   -9.8861    4.4378   -1.1090 H   0  0  0  0  0  0  0  0  0  0  0  0
  -10.0698    5.0235    1.2904 H   0  0  0  0  0  0  0  0  0  0  0  0
   -8.5325    4.1352    1.6806 H   0  0  0  0  0  0  0  0  0  0  0  0
  -11.0683    2.8887    0.3790 H   0  0  0  0  0  0  0  0  0  0  0  0
   -9.5485    1.9925    0.7813 H   0  0  0  0  0  0  0  0  0  0  0  0
   -5.5724    0.7048    0.4530 H   0  0  0  0  0  0  0  0  0  0  0  0
   -1.6510   -2.0008   -0.1201 H   0  0  0  0  0  0  0  0  0  0  0  0
    2.0725   -2.3207    0.0489 H   0  0  0  0  0  0  0  0  0  0  0  0
    2.0780   -4.4266    0.9056 H   0  0  0  0  0  0  0  0  0  0  0  0
    1.8822   -6.5105    2.0455 H   0  0  0  0  0  0  0  0  0  0  0  0
    1.0230   -8.8091    2.0706 H   0  0  0  0  0  0  0  0  0  0  0  0
   -2.7512   -7.1750   -1.9833 H   0  0  0  0  0  0  0  0  0  0  0  0
   -2.8404   -8.7577   -1.1732 H   0  0  0  0  0  0  0  0  0  0  0  0
   -2.9530   -8.6501   -2.9309 H   0  0  0  0  0  0  0  0  0  0  0  0
    0.0523   -5.8892   -1.8066 H   0  0  0  0  0  0  0  0  0  0  0  0
  1  2  1  0  0  0  0
  1 36  1  0  0  0  0
  1 37  1  0  0  0  0
  1 38  1  0  0  0  0
  2  3  1  0  0  0  0
  2 20  2  0  0  0  0
  3  4  2  0  0  0  0
  3 39  1  0  0  0  0
  4  5  1  0  0  0  0
  4 40  1  0  0  0  0
  5  6  1  0  0  0  0
  5 19  2  0  0  0  0
  6  7  1  0  0  0  0
  7  8  1  0  0  0  0
  7 18  2  0  0  0  0
  8  9  2  0  0  0  0
  8 41  1  0  0  0  0
  9 10  1  0  0  0  0
  9 42  1  0  0  0  0
 10 11  2  0  0  0  0
 11 12  1  0  0  0  0
 11 18  1  0  0  0  0
 12 13  1  0  0  0  0
 12 43  1  0  0  0  0
 13 14  2  0  0  0  0
 13 15  1  0  0  0  0
 15 16  1  0  0  0  0
 15 17  1  0  0  0  0
 15 44  1  0  0  0  0
 16 17  1  0  0  0  0
 16 45  1  0  0  0  0
 16 46  1  0  0  0  0
 17 47  1  0  0  0  0
 17 48  1  0  0  0  0
 18 49  1  0  0  0  0
 19 20  1  0  0  0  0
 19 50  1  0  0  0  0
 20 21  1  0  0  0  0
 21 22  1  0  0  0  0
 21 51  1  0  0  0  0
 22 23  2  0  0  0  0
 22 24  1  0  0  0  0
 24 25  1  0  0  0  0
 24 52  1  0  0  0  0
 25 26  1  0  0  0  0
 25 35  2  0  0  0  0
 26 27  2  0  0  0  0
 26 53  1  0  0  0  0
 27 28  1  0  0  0  0
 27 54  1  0  0  0  0
 28 29  1  0  0  0  0
 28 30  2  0  0  0  0
 30 31  1  0  0  0  0
 30 35  1  0  0  0  0
 31 32  1  0  0  0  0
 31 33  1  0  0  0  0
 31 34  1  0  0  0  0
 32 55  1  0  0  0  0
 32 56  1  0  0  0  0
 32 57  1  0  0  0  0
 35 58  1  0  0  0  0
M  END
$$$$
