CHEMBL4240958
 OpenBabel04072215383D

 38 41  0  0  0  0  0  0  0  0999 V2000
    4.9824    1.7465   -4.0317 C   0  0  0  0  0  0  0  0  0  0  0  0
    5.0384    1.3485   -2.6655 O   0  0  0  0  0  0  0  0  0  0  0  0
    5.8707    2.0680   -1.8493 C   0  0  0  0  0  0  0  0  0  0  0  0
    6.5986    3.1933   -2.2248 C   0  0  0  0  0  0  0  0  0  0  0  0
    7.3899    3.8494   -1.2840 C   0  0  0  0  0  0  0  0  0  0  0  0
    7.4905    3.3624    0.0222 C   0  0  0  0  0  0  0  0  0  0  0  0
    6.8159    2.2059    0.4162 C   0  0  0  0  0  0  0  0  0  0  0  0
    6.9998    1.5945    1.6654 N   0  0  0  0  0  0  0  0  0  0  0  0
    7.7261    1.9186    2.8079 C   0  0  0  0  0  0  0  0  0  0  0  0
    7.5130    1.0796    3.8467 N   0  0  0  0  0  0  0  0  0  0  0  0
    7.9508    1.4675    5.0528 C   0  0  0  0  0  0  0  0  0  0  0  0
    8.5780    2.6622    5.2705 C   0  0  0  0  0  0  0  0  0  0  0  0
    8.8939    3.3863    4.1430 C   0  0  0  0  0  0  0  0  0  0  0  0
    8.4931    3.0158    2.9083 N   0  0  0  0  0  0  0  0  0  0  0  0
    9.4749    4.7320    4.3124 C   0  0  0  0  0  0  0  0  0  0  0  0
   10.6947    5.1303    3.7564 C   0  0  0  0  0  0  0  0  0  0  0  0
   11.2059    6.4085    4.0217 C   0  0  0  0  0  0  0  0  0  0  0  0
   10.4546    7.3356    4.7482 C   0  0  0  0  0  0  0  0  0  0  0  0
    9.2632    6.9440    5.3483 C   0  0  0  0  0  0  0  0  0  0  0  0
    8.8577    5.6159    5.2288 C   0  0  0  0  0  0  0  0  0  0  0  0
    7.8390    4.9164    6.5539 S   0  0  0  0  0  0  0  0  0  0  0  0
    8.7362    3.2964    6.6118 C   0  0  0  0  0  0  0  0  0  0  0  0
    5.9799    1.5885   -0.5349 C   0  0  0  0  0  0  0  0  0  0  0  0
    4.2416    1.1191   -4.5364 H   0  0  0  0  0  0  0  0  0  0  0  0
    5.9482    1.5867   -4.5236 H   0  0  0  0  0  0  0  0  0  0  0  0
    4.6549    2.7864   -4.1340 H   0  0  0  0  0  0  0  0  0  0  0  0
    6.5774    3.5857   -3.2354 H   0  0  0  0  0  0  0  0  0  0  0  0
    7.9506    4.7353   -1.5698 H   0  0  0  0  0  0  0  0  0  0  0  0
    8.1249    3.9022    0.7178 H   0  0  0  0  0  0  0  0  0  0  0  0
    6.3832    0.8206    1.8791 H   0  0  0  0  0  0  0  0  0  0  0  0
    7.7101    0.7878    5.8694 H   0  0  0  0  0  0  0  0  0  0  0  0
   11.2928    4.4229    3.1854 H   0  0  0  0  0  0  0  0  0  0  0  0
   12.1998    6.6811    3.6731 H   0  0  0  0  0  0  0  0  0  0  0  0
   10.8329    8.3416    4.9119 H   0  0  0  0  0  0  0  0  0  0  0  0
    8.7142    7.6377    5.9792 H   0  0  0  0  0  0  0  0  0  0  0  0
    8.3271    2.6790    7.4144 H   0  0  0  0  0  0  0  0  0  0  0  0
    9.7982    3.4718    6.8312 H   0  0  0  0  0  0  0  0  0  0  0  0
    5.4117    0.7008   -0.2647 H   0  0  0  0  0  0  0  0  0  0  0  0
  1  2  1  0  0  0  0
  1 24  1  0  0  0  0
  1 25  1  0  0  0  0
  1 26  1  0  0  0  0
  2  3  1  0  0  0  0
  3  4  1  0  0  0  0
  3 23  2  0  0  0  0
  4  5  2  0  0  0  0
  4 27  1  0  0  0  0
  5  6  1  0  0  0  0
  5 28  1  0  0  0  0
  6  7  2  0  0  0  0
  6 29  1  0  0  0  0
  7  8  1  0  0  0  0
  7 23  1  0  0  0  0
  8  9  1  0  0  0  0
  8 30  1  0  0  0  0
  9 10  1  0  0  0  0
  9 14  2  0  0  0  0
 10 11  2  0  0  0  0
 11 12  1  0  0  0  0
 11 31  1  0  0  0  0
 12 13  2  0  0  0  0
 12 22  1  0  0  0  0
 13 14  1  0  0  0  0
 13 15  1  0  0  0  0
 15 16  1  0  0  0  0
 15 20  2  0  0  0  0
 16 17  2  0  0  0  0
 16 32  1  0  0  0  0
 17 18  1  0  0  0  0
 17 33  1  0  0  0  0
 18 19  2  0  0  0  0
 18 34  1  0  0  0  0
 19 20  1  0  0  0  0
 19 35  1  0  0  0  0
 20 21  1  0  0  0  0
 21 22  1  0  0  0  0
 22 36  1  0  0  0  0
 22 37  1  0  0  0  0
 23 38  1  0  0  0  0
M  END
$$$$
