CHEMBL1975647
 OpenBabel04072215363D

 31 33  0  0  0  0  0  0  0  0999 V2000
    2.5065   -3.1567   -0.7843 O   0  0  0  0  0  0  0  0  0  0  0  0
    2.2621   -2.0359   -0.3436 C   0  0  0  0  0  0  0  0  0  0  0  0
    0.9498   -1.6436   -0.2504 N   0  0  0  0  0  0  0  0  0  0  0  0
    0.4496   -0.3833    0.0972 C   0  0  0  0  0  0  0  0  0  0  0  0
   -0.9150   -0.2135    0.3034 C   0  0  0  0  0  0  0  0  0  0  0  0
   -1.4673    0.9771    0.6503 N   0  0  0  0  0  0  0  0  0  0  0  0
   -0.6023    2.0096    0.7548 C   0  0  0  0  0  0  0  0  0  0  0  0
    0.7530    1.8571    0.5343 C   0  0  0  0  0  0  0  0  0  0  0  0
    1.3053    0.6596    0.2308 N   0  0  0  0  0  0  0  0  0  0  0  0
    3.1794   -1.1446    0.1467 N   0  0  0  0  0  0  0  0  0  0  0  0
    4.5880   -1.2147    0.1585 C   0  0  0  0  0  0  0  0  0  0  0  0
    5.2636   -2.1302   -0.6380 C   0  0  0  0  0  0  0  0  0  0  0  0
    6.6397   -2.0744   -0.6744 C   0  0  0  0  0  0  0  0  0  0  0  0
    7.3715   -1.1860    0.0229 N   0  0  0  0  0  0  0  0  0  0  0  0
    6.7337   -0.3134    0.8286 C   0  0  0  0  0  0  0  0  0  0  0  0
    7.4771    0.6040    1.5770 C   0  0  0  0  0  0  0  0  0  0  0  0
    8.8158    0.6324    1.4577 F   0  0  0  0  0  0  0  0  0  0  0  0
    6.8970    1.5080    2.4642 C   0  0  0  0  0  0  0  0  0  0  0  0
    5.5225    1.5086    2.6310 C   0  0  0  0  0  0  0  0  0  0  0  0
    4.7462    0.6230    1.8833 C   0  0  0  0  0  0  0  0  0  0  0  0
    5.3272   -0.2886    0.9554 C   0  0  0  0  0  0  0  0  0  0  0  0
    0.2983   -2.3774   -0.4954 H   0  0  0  0  0  0  0  0  0  0  0  0
   -1.6151   -1.0374    0.2206 H   0  0  0  0  0  0  0  0  0  0  0  0
   -1.0279    2.9698    1.0226 H   0  0  0  0  0  0  0  0  0  0  0  0
    1.4388    2.6952    0.5933 H   0  0  0  0  0  0  0  0  0  0  0  0
    2.7597   -0.2894    0.4964 H   0  0  0  0  0  0  0  0  0  0  0  0
    4.7521   -2.8501   -1.2644 H   0  0  0  0  0  0  0  0  0  0  0  0
    7.2078   -2.7563   -1.2992 H   0  0  0  0  0  0  0  0  0  0  0  0
    7.5305    2.1888    3.0234 H   0  0  0  0  0  0  0  0  0  0  0  0
    5.0566    2.1851    3.3427 H   0  0  0  0  0  0  0  0  0  0  0  0
    3.6728    0.6311    2.0610 H   0  0  0  0  0  0  0  0  0  0  0  0
  1  2  2  0  0  0  0
  2  3  1  0  0  0  0
  2 10  1  0  0  0  0
  3  4  1  0  0  0  0
  3 22  1  0  0  0  0
  4  5  1  0  0  0  0
  4  9  2  0  0  0  0
  5  6  2  0  0  0  0
  5 23  1  0  0  0  0
  6  7  1  0  0  0  0
  7  8  2  0  0  0  0
  7 24  1  0  0  0  0
  8  9  1  0  0  0  0
  8 25  1  0  0  0  0
 10 11  1  0  0  0  0
 10 26  1  0  0  0  0
 11 12  1  0  0  0  0
 11 21  2  0  0  0  0
 12 13  2  0  0  0  0
 12 27  1  0  0  0  0
 13 14  1  0  0  0  0
 13 28  1  0  0  0  0
 14 15  2  0  0  0  0
 15 16  1  0  0  0  0
 15 21  1  0  0  0  0
 16 17  1  0  0  0  0
 16 18  2  0  0  0  0
 18 19  1  0  0  0  0
 18 29  1  0  0  0  0
 19 20  2  0  0  0  0
 19 30  1  0  0  0  0
 20 21  1  0  0  0  0
 20 31  1  0  0  0  0
M  END
$$$$
