CHEMBL1973720
 OpenBabel04072215363D

 43 46  0  0  1  0  0  0  0  0999 V2000
    2.4220   -0.6523   -2.5913 N   0  0  0  0  0  0  0  0  0  0  0  0
    2.7890   -1.2371   -1.3005 C   0  0  3  0  0  0  0  0  0  0  0  0
    3.6398   -0.2503   -0.4938 C   0  0  0  0  0  0  0  0  0  0  0  0
    3.9252   -0.7872    0.9093 C   0  0  0  0  0  0  0  0  0  0  0  0
    2.6275   -1.0967    1.6778 C   0  0  3  0  0  0  0  0  0  0  0  0
    1.7959    0.1025    1.8283 N   0  0  0  0  0  0  0  0  0  0  0  0
    2.2977    1.1402    2.5991 C   0  0  0  0  0  0  0  0  0  0  0  0
    3.2407    0.9004    3.5053 N   0  0  0  0  0  0  0  0  0  0  0  0
    3.6625    1.9604    4.2079 C   0  0  0  0  0  0  0  0  0  0  0  0
    4.8584    1.5930    5.3844 Cl  0  0  0  0  0  0  0  0  0  0  0  0
    3.2102    3.2404    4.0496 C   0  0  0  0  0  0  0  0  0  0  0  0
    2.2300    3.3859    3.0978 C   0  0  0  0  0  0  0  0  0  0  0  0
    1.6470    4.6920    2.8113 C   0  0  0  0  0  0  0  0  0  0  0  0
    1.5154    5.6949    3.7632 C   0  0  0  0  0  0  0  0  0  0  0  0
    0.9405    6.7849    3.1628 N   0  0  0  0  0  0  0  0  0  0  0  0
    0.6893    6.5159    1.8501 C   0  0  0  0  0  0  0  0  0  0  0  0
    0.1334    7.3946    0.9978 N   0  0  0  0  0  0  0  0  0  0  0  0
   -0.0233    6.8891   -0.2459 C   0  0  0  0  0  0  0  0  0  0  0  0
    0.3343    5.6117   -0.6525 C   0  0  0  0  0  0  0  0  0  0  0  0
    0.9153    4.7427    0.2760 C   0  0  0  0  0  0  0  0  0  0  0  0
    1.1020    5.2120    1.5900 C   0  0  0  0  0  0  0  0  0  0  0  0
    1.7571    2.3472    2.3867 N   0  0  0  0  0  0  0  0  0  0  0  0
    1.8269   -2.1401    0.8775 C   0  0  0  0  0  0  0  0  0  0  0  0
    1.5225   -1.6676   -0.5489 C   0  0  0  0  0  0  0  0  0  0  0  0
    3.2596   -0.3052   -3.0568 H   0  0  0  0  0  0  0  0  0  0  0  0
    1.8395    0.1712   -2.4293 H   0  0  0  0  0  0  0  0  0  0  0  0
    3.3924   -2.1318   -1.4982 H   0  0  0  0  0  0  0  0  0  0  0  0
    3.1350    0.7216   -0.4217 H   0  0  0  0  0  0  0  0  0  0  0  0
    4.5915   -0.0654   -1.0091 H   0  0  0  0  0  0  0  0  0  0  0  0
    4.5511   -0.0684    1.4492 H   0  0  0  0  0  0  0  0  0  0  0  0
    4.5197   -1.7066    0.8265 H   0  0  0  0  0  0  0  0  0  0  0  0
    2.8635   -1.5253    2.6598 H   0  0  0  0  0  0  0  0  0  0  0  0
    0.8784   -0.0941    2.2060 H   0  0  0  0  0  0  0  0  0  0  0  0
    3.6044    4.0608    4.6304 H   0  0  0  0  0  0  0  0  0  0  0  0
    1.7680    5.7274    4.8146 H   0  0  0  0  0  0  0  0  0  0  0  0
    0.7177    7.6659    3.6036 H   0  0  0  0  0  0  0  0  0  0  0  0
   -0.4756    7.5794   -0.9564 H   0  0  0  0  0  0  0  0  0  0  0  0
    0.1657    5.2927   -1.6742 H   0  0  0  0  0  0  0  0  0  0  0  0
    1.2060    3.7361   -0.0060 H   0  0  0  0  0  0  0  0  0  0  0  0
    0.8866   -2.3724    1.3907 H   0  0  0  0  0  0  0  0  0  0  0  0
    2.4005   -3.0739    0.8305 H   0  0  0  0  0  0  0  0  0  0  0  0
    0.8056   -0.8372   -0.5056 H   0  0  0  0  0  0  0  0  0  0  0  0
    1.0233   -2.4779   -1.0950 H   0  0  0  0  0  0  0  0  0  0  0  0
  1  2  1  0  0  0  0
  1 25  1  0  0  0  0
  1 26  1  0  0  0  0
  2  3  1  0  0  0  0
  2 24  1  0  0  0  0
  2 27  1  0  0  0  0
  3  4  1  0  0  0  0
  3 28  1  0  0  0  0
  3 29  1  0  0  0  0
  4  5  1  0  0  0  0
  4 30  1  0  0  0  0
  4 31  1  0  0  0  0
  5  6  1  0  0  0  0
  5 23  1  0  0  0  0
  5 32  1  0  0  0  0
  6  7  1  0  0  0  0
  6 33  1  0  0  0  0
  7  8  1  0  0  0  0
  7 22  2  0  0  0  0
  8  9  2  0  0  0  0
  9 10  1  0  0  0  0
  9 11  1  0  0  0  0
 11 12  2  0  0  0  0
 11 34  1  0  0  0  0
 12 13  1  0  0  0  0
 12 22  1  0  0  0  0
 13 14  2  0  0  0  0
 13 21  1  0  0  0  0
 14 15  1  0  0  0  0
 14 35  1  0  0  0  0
 15 16  1  0  0  0  0
 15 36  1  0  0  0  0
 16 17  1  0  0  0  0
 16 21  2  0  0  0  0
 17 18  2  0  0  0  0
 18 19  1  0  0  0  0
 18 37  1  0  0  0  0
 19 20  2  0  0  0  0
 19 38  1  0  0  0  0
 20 21  1  0  0  0  0
 20 39  1  0  0  0  0
 23 24  1  0  0  0  0
 23 40  1  0  0  0  0
 23 41  1  0  0  0  0
 24 42  1  0  0  0  0
 24 43  1  0  0  0  0
M  END
$$$$
