CHEMBL3930158
 OpenBabel04072215373D

 61 65  0  0  0  0  0  0  0  0999 V2000
    1.0443   -2.4016    3.9360 C   0  0  0  0  0  0  0  0  0  0  0  0
    2.4715   -2.4129    4.0169 O   0  0  0  0  0  0  0  0  0  0  0  0
    3.1548   -1.9055    2.9379 C   0  0  0  0  0  0  0  0  0  0  0  0
    2.5365   -1.5211    1.7472 C   0  0  0  0  0  0  0  0  0  0  0  0
    3.2852   -0.9515    0.7300 C   0  0  0  0  0  0  0  0  0  0  0  0
    2.7662   -0.4497   -0.4383 O   0  0  0  0  0  0  0  0  0  0  0  0
    1.3537   -0.5835   -0.6121 C   0  0  0  0  0  0  0  0  0  0  0  0
    4.6728   -0.8221    0.9011 C   0  0  0  0  0  0  0  0  0  0  0  0
    5.3395   -1.1545    2.1095 C   0  0  0  0  0  0  0  0  0  0  0  0
    6.7052   -0.7816    2.3256 N   0  0  0  0  0  0  0  0  0  0  0  0
    7.0422    0.6502    1.7210 C   0  0  0  0  0  0  0  0  0  0  0  0
    5.9356    1.7714    1.6608 C   0  0  0  0  0  0  0  0  0  0  0  0
    6.3690    3.0444    1.0697 N   0  0  0  0  0  0  0  0  0  0  0  0
    5.8952    3.5545   -0.1823 C   0  0  0  0  0  0  0  0  0  0  0  0
    6.2807    5.0192   -0.1193 C   0  0  0  0  0  0  0  0  0  0  0  0
    7.2465    5.1041    0.9329 O   0  0  0  0  0  0  0  0  0  0  0  0
    7.1269    3.9951    1.7023 C   0  0  0  0  0  0  0  0  0  0  0  0
    7.7261    3.8242    2.7521 O   0  0  0  0  0  0  0  0  0  0  0  0
    7.6890   -1.2685    3.2917 C   0  0  0  0  0  0  0  0  0  0  0  0
    8.2474   -0.2780    4.0507 C   0  0  0  0  0  0  0  0  0  0  0  0
    9.4740   -0.4723    4.5742 C   0  0  0  0  0  0  0  0  0  0  0  0
   10.1475   -1.6315    4.5507 C   0  0  0  0  0  0  0  0  0  0  0  0
   11.3462   -1.3204    4.7912 N   0  0  0  0  0  0  0  0  0  0  0  0
   11.6570   -1.7343    5.9802 C   0  0  0  0  0  0  0  0  0  0  0  0
   11.8174   -2.9927    6.1415 C   0  0  0  0  0  0  0  0  0  0  0  0
   13.3483   -3.0588    6.7230 C   0  0  0  0  0  0  0  0  0  0  0  0
   14.2374   -1.8981    6.4364 C   0  0  0  0  0  0  0  0  0  0  0  0
   15.1654   -1.6046    7.3369 N   0  0  0  0  0  0  0  0  0  0  0  0
   15.0290   -2.5585    8.2557 N   0  0  0  0  0  0  0  0  0  0  0  0
   15.9460   -2.4635    9.3896 C   0  0  0  0  0  0  0  0  0  0  0  0
   13.9292   -3.4098    7.9743 C   0  0  0  0  0  0  0  0  0  0  0  0
   10.8947   -3.7557    5.2775 N   0  0  0  0  0  0  0  0  0  0  0  0
    9.6932   -2.9195    4.4698 C   0  0  0  0  0  0  0  0  0  0  0  0
    8.3101   -2.6138    3.5634 C   0  0  0  0  0  0  0  0  0  0  0  0
    4.5492   -1.7445    3.1045 C   0  0  0  0  0  0  0  0  0  0  0  0
    0.6435   -2.6783    4.9150 H   0  0  0  0  0  0  0  0  0  0  0  0
    0.6912   -3.1408    3.2079 H   0  0  0  0  0  0  0  0  0  0  0  0
    0.6531   -1.4045    3.6970 H   0  0  0  0  0  0  0  0  0  0  0  0
    1.4722   -1.6625    1.6175 H   0  0  0  0  0  0  0  0  0  0  0  0
    1.0739   -0.1356   -1.5704 H   0  0  0  0  0  0  0  0  0  0  0  0
    0.7993   -0.0517    0.1711 H   0  0  0  0  0  0  0  0  0  0  0  0
    1.0695   -1.6409   -0.6434 H   0  0  0  0  0  0  0  0  0  0  0  0
    5.2282   -0.3838    0.0731 H   0  0  0  0  0  0  0  0  0  0  0  0
    7.4599    0.4868    0.7228 H   0  0  0  0  0  0  0  0  0  0  0  0
    7.8681    1.1354    2.2488 H   0  0  0  0  0  0  0  0  0  0  0  0
    5.5702    1.9997    2.6703 H   0  0  0  0  0  0  0  0  0  0  0  0
    5.0732    1.4981    1.0613 H   0  0  0  0  0  0  0  0  0  0  0  0
    4.8152    3.4121   -0.2750 H   0  0  0  0  0  0  0  0  0  0  0  0
    6.4020    3.0363   -0.9970 H   0  0  0  0  0  0  0  0  0  0  0  0
    5.4337    5.6643    0.1433 H   0  0  0  0  0  0  0  0  0  0  0  0
    6.7195    5.3775   -1.0554 H   0  0  0  0  0  0  0  0  0  0  0  0
    7.9080    0.7488    4.1136 H   0  0  0  0  0  0  0  0  0  0  0  0
    9.9959    0.3698    4.9996 H   0  0  0  0  0  0  0  0  0  0  0  0
   12.0691   -0.9398    6.5749 H   0  0  0  0  0  0  0  0  0  0  0  0
   14.0960   -1.1380    5.6737 H   0  0  0  0  0  0  0  0  0  0  0  0
   16.6562   -1.6301    9.2306 H   0  0  0  0  0  0  0  0  0  0  0  0
   16.5364   -3.3774    9.4709 H   0  0  0  0  0  0  0  0  0  0  0  0
   15.4022   -2.2449   10.3120 H   0  0  0  0  0  0  0  0  0  0  0  0
   13.6889   -4.1401    8.7332 H   0  0  0  0  0  0  0  0  0  0  0  0
    7.8214   -3.4735    3.0837 H   0  0  0  0  0  0  0  0  0  0  0  0
    4.9934   -2.0295    4.0526 H   0  0  0  0  0  0  0  0  0  0  0  0
  1  2  1  0  0  0  0
  1 36  1  0  0  0  0
  1 37  1  0  0  0  0
  1 38  1  0  0  0  0
  2  3  1  0  0  0  0
  3  4  1  0  0  0  0
  3 35  2  0  0  0  0
  4  5  2  0  0  0  0
  4 39  1  0  0  0  0
  5  6  1  0  0  0  0
  5  8  1  0  0  0  0
  6  7  1  0  0  0  0
  7 40  1  0  0  0  0
  7 41  1  0  0  0  0
  7 42  1  0  0  0  0
  8  9  2  0  0  0  0
  8 43  1  0  0  0  0
  9 10  1  0  0  0  0
  9 35  1  0  0  0  0
 10 11  1  0  0  0  0
 10 19  1  0  0  0  0
 11 12  1  0  0  0  0
 11 44  1  0  0  0  0
 11 45  1  0  0  0  0
 12 13  1  0  0  0  0
 12 46  1  0  0  0  0
 12 47  1  0  0  0  0
 13 14  1  0  0  0  0
 13 17  1  0  0  0  0
 14 15  1  0  0  0  0
 14 48  1  0  0  0  0
 14 49  1  0  0  0  0
 15 16  1  0  0  0  0
 15 50  1  0  0  0  0
 15 51  1  0  0  0  0
 16 17  1  0  0  0  0
 17 18  2  0  0  0  0
 19 20  1  0  0  0  0
 19 34  2  0  0  0  0
 20 21  2  0  0  0  0
 20 52  1  0  0  0  0
 21 22  1  0  0  0  0
 21 53  1  0  0  0  0
 22 23  1  0  0  0  0
 22 33  2  0  0  0  0
 23 24  2  0  0  0  0
 24 25  1  0  0  0  0
 24 54  1  0  0  0  0
 25 26  1  0  0  0  0
 25 32  2  0  0  0  0
 26 27  1  0  0  0  0
 26 31  2  0  0  0  0
 27 28  2  0  0  0  0
 27 55  1  0  0  0  0
 28 29  1  0  0  0  0
 29 30  1  0  0  0  0
 29 31  1  0  0  0  0
 30 56  1  0  0  0  0
 30 57  1  0  0  0  0
 30 58  1  0  0  0  0
 31 59  1  0  0  0  0
 32 33  1  0  0  0  0
 33 34  1  0  0  0  0
 34 60  1  0  0  0  0
 35 61  1  0  0  0  0
M  END
$$$$
