CHEMBL98798
 OpenBabel04072215383D

 35 37  0  0  0  0  0  0  0  0999 V2000
    2.3001    1.6573    0.6225 C   0  0  0  0  0  0  0  0  0  0  0  0
    2.2063    0.2943    0.2039 O   0  0  0  0  0  0  0  0  0  0  0  0
    2.8291   -0.6089    1.0278 C   0  0  0  0  0  0  0  0  0  0  0  0
    3.9623   -0.2669    1.7725 C   0  0  0  0  0  0  0  0  0  0  0  0
    4.5393   -1.1334    2.6817 C   0  0  0  0  0  0  0  0  0  0  0  0
    5.5912   -0.6822    3.3700 N   0  0  0  0  0  0  0  0  0  0  0  0
    6.1390   -1.5162    4.2549 C   0  0  0  0  0  0  0  0  0  0  0  0
    5.7297   -2.7544    4.5086 N   0  0  0  0  0  0  0  0  0  0  0  0
    4.6347   -3.1720    3.8353 C   0  0  0  0  0  0  0  0  0  0  0  0
    4.1176   -4.4322    4.1522 O   0  0  0  0  0  0  0  0  0  0  0  0
    4.5243   -4.9714    5.3586 C   0  0  0  0  0  0  0  0  0  0  0  0
    4.4417   -4.2478    6.5577 C   0  0  0  0  0  0  0  0  0  0  0  0
    4.9559   -4.7833    7.7383 C   0  0  0  0  0  0  0  0  0  0  0  0
    5.4937   -6.0687    7.7395 C   0  0  0  0  0  0  0  0  0  0  0  0
    5.4962   -6.8177    6.5611 C   0  0  0  0  0  0  0  0  0  0  0  0
    6.1900   -8.5775    6.5869 Br  0  0  0  0  0  0  0  0  0  0  0  0
    5.0087   -6.2794    5.3681 C   0  0  0  0  0  0  0  0  0  0  0  0
    3.9871   -2.4062    2.8571 C   0  0  0  0  0  0  0  0  0  0  0  0
    2.8704   -2.7904    2.0710 C   0  0  0  0  0  0  0  0  0  0  0  0
    2.3173   -1.9085    1.1302 C   0  0  0  0  0  0  0  0  0  0  0  0
    1.2602   -2.4226    0.4292 O   0  0  0  0  0  0  0  0  0  0  0  0
    1.1419   -1.9957   -0.9281 C   0  0  0  0  0  0  0  0  0  0  0  0
    1.5250    2.2279    0.1041 H   0  0  0  0  0  0  0  0  0  0  0  0
    3.2704    2.0810    0.3422 H   0  0  0  0  0  0  0  0  0  0  0  0
    2.1263    1.7640    1.7002 H   0  0  0  0  0  0  0  0  0  0  0  0
    4.4210    0.7127    1.6698 H   0  0  0  0  0  0  0  0  0  0  0  0
    6.9798   -1.1442    4.8290 H   0  0  0  0  0  0  0  0  0  0  0  0
    4.0326   -3.2428    6.5661 H   0  0  0  0  0  0  0  0  0  0  0  0
    4.9538   -4.1887    8.6483 H   0  0  0  0  0  0  0  0  0  0  0  0
    5.9073   -6.4743    8.6591 H   0  0  0  0  0  0  0  0  0  0  0  0
    5.0337   -6.8569    4.4492 H   0  0  0  0  0  0  0  0  0  0  0  0
    2.4374   -3.7824    2.1832 H   0  0  0  0  0  0  0  0  0  0  0  0
    0.6803   -2.8120   -1.4938 H   0  0  0  0  0  0  0  0  0  0  0  0
    2.1095   -1.7842   -1.3978 H   0  0  0  0  0  0  0  0  0  0  0  0
    0.4743   -1.1312   -0.9955 H   0  0  0  0  0  0  0  0  0  0  0  0
  1  2  1  0  0  0  0
  1 23  1  0  0  0  0
  1 24  1  0  0  0  0
  1 25  1  0  0  0  0
  2  3  1  0  0  0  0
  3  4  1  0  0  0  0
  3 20  2  0  0  0  0
  4  5  2  0  0  0  0
  4 26  1  0  0  0  0
  5  6  1  0  0  0  0
  5 18  1  0  0  0  0
  6  7  2  0  0  0  0
  7  8  1  0  0  0  0
  7 27  1  0  0  0  0
  8  9  2  0  0  0  0
  9 10  1  0  0  0  0
  9 18  1  0  0  0  0
 10 11  1  0  0  0  0
 11 12  1  0  0  0  0
 11 17  2  0  0  0  0
 12 13  2  0  0  0  0
 12 28  1  0  0  0  0
 13 14  1  0  0  0  0
 13 29  1  0  0  0  0
 14 15  2  0  0  0  0
 14 30  1  0  0  0  0
 15 16  1  0  0  0  0
 15 17  1  0  0  0  0
 17 31  1  0  0  0  0
 18 19  2  0  0  0  0
 19 20  1  0  0  0  0
 19 32  1  0  0  0  0
 20 21  1  0  0  0  0
 21 22  1  0  0  0  0
 22 33  1  0  0  0  0
 22 34  1  0  0  0  0
 22 35  1  0  0  0  0
M  END
$$$$
