CHEMBL4225256
 OpenBabel04072215383D

 48 50  0  0  0  0  0  0  0  0999 V2000
    3.4264   -4.7995   -0.9287 C   0  0  0  0  0  0  0  0  0  0  0  0
    4.4760   -3.8247   -0.7640 N   0  0  0  0  0  0  0  0  0  0  0  0
    4.5368   -3.0393    0.3726 C   0  0  0  0  0  0  0  0  0  0  0  0
    3.7210   -3.0975    1.2815 O   0  0  0  0  0  0  0  0  0  0  0  0
    5.6967   -2.1228    0.4678 C   0  0  0  0  0  0  0  0  0  0  0  0
    6.3298   -1.5681   -0.6444 C   0  0  0  0  0  0  0  0  0  0  0  0
    7.4403   -0.7354   -0.4632 C   0  0  0  0  0  0  0  0  0  0  0  0
    7.8979   -0.4698    0.8256 C   0  0  0  0  0  0  0  0  0  0  0  0
    9.3291    0.5296    1.2073 S   0  0  0  0  0  0  0  0  0  0  0  0
    9.9515    1.0854   -0.3623 C   0  0  0  0  0  0  0  0  0  0  0  0
    9.4367    2.2332   -0.9625 C   0  0  0  0  0  0  0  0  0  0  0  0
    9.8881    2.6235   -2.2241 C   0  0  0  0  0  0  0  0  0  0  0  0
   10.8657    1.8802   -2.8930 C   0  0  0  0  0  0  0  0  0  0  0  0
   11.4321    0.7676   -2.2833 C   0  0  0  0  0  0  0  0  0  0  0  0
   12.4046   -0.0737   -2.8480 N   0  0  0  0  0  0  0  0  0  0  0  0
   12.8948   -0.2676   -4.1225 C   0  0  0  0  0  0  0  0  0  0  0  0
   12.8665    0.7372   -5.4477 S   0  0  0  0  0  0  0  0  0  0  0  0
   13.5333   -1.4942   -4.2543 N   0  0  0  0  0  0  0  0  0  0  0  0
   13.1454   -2.7096   -3.6437 C   0  0  0  0  0  0  0  0  0  0  0  0
   14.0702   -3.7473   -3.5676 C   0  0  0  0  0  0  0  0  0  0  0  0
   13.7201   -4.9469   -2.9422 C   0  0  0  0  0  0  0  0  0  0  0  0
   12.4407   -5.1217   -2.4077 C   0  0  0  0  0  0  0  0  0  0  0  0
   11.4880   -4.1010   -2.5027 C   0  0  0  0  0  0  0  0  0  0  0  0
   10.1022   -4.2440   -1.9262 C   0  0  0  0  0  0  0  0  0  0  0  0
    9.8759   -5.4472   -1.3313 F   0  0  0  0  0  0  0  0  0  0  0  0
    9.8410   -3.3018   -0.9768 F   0  0  0  0  0  0  0  0  0  0  0  0
    9.1226   -4.1006   -2.8626 F   0  0  0  0  0  0  0  0  0  0  0  0
   11.8503   -2.9075   -3.1416 C   0  0  0  0  0  0  0  0  0  0  0  0
   10.9738    0.3844   -1.0080 C   0  0  0  0  0  0  0  0  0  0  0  0
    7.2686   -0.9790    1.9142 N   0  0  0  0  0  0  0  0  0  0  0  0
    6.1865   -1.7781    1.7179 C   0  0  0  0  0  0  0  0  0  0  0  0
    3.6348   -5.3888   -1.8289 H   0  0  0  0  0  0  0  0  0  0  0  0
    2.4714   -4.2829   -1.0383 H   0  0  0  0  0  0  0  0  0  0  0  0
    3.3905   -5.4552   -0.0566 H   0  0  0  0  0  0  0  0  0  0  0  0
    5.2664   -3.8677   -1.3897 H   0  0  0  0  0  0  0  0  0  0  0  0
    5.9635   -1.7536   -1.6490 H   0  0  0  0  0  0  0  0  0  0  0  0
    7.9211   -0.3157   -1.3391 H   0  0  0  0  0  0  0  0  0  0  0  0
    8.6784    2.8265   -0.4583 H   0  0  0  0  0  0  0  0  0  0  0  0
    9.4758    3.5135   -2.6938 H   0  0  0  0  0  0  0  0  0  0  0  0
   11.1749    2.2249   -3.8718 H   0  0  0  0  0  0  0  0  0  0  0  0
   12.8027   -0.7391   -2.1952 H   0  0  0  0  0  0  0  0  0  0  0  0
   14.2176   -1.5548   -5.0022 H   0  0  0  0  0  0  0  0  0  0  0  0
   15.0803   -3.6228   -3.9497 H   0  0  0  0  0  0  0  0  0  0  0  0
   14.4525   -5.7470   -2.8593 H   0  0  0  0  0  0  0  0  0  0  0  0
   12.1899   -6.0615   -1.9183 H   0  0  0  0  0  0  0  0  0  0  0  0
   11.0854   -2.1411   -3.2636 H   0  0  0  0  0  0  0  0  0  0  0  0
   11.3861   -0.5012   -0.5264 H   0  0  0  0  0  0  0  0  0  0  0  0
    5.7231   -2.1538    2.6274 H   0  0  0  0  0  0  0  0  0  0  0  0
  1  2  1  0  0  0  0
  1 32  1  0  0  0  0
  1 33  1  0  0  0  0
  1 34  1  0  0  0  0
  2  3  1  0  0  0  0
  2 35  1  0  0  0  0
  3  4  2  0  0  0  0
  3  5  1  0  0  0  0
  5  6  1  0  0  0  0
  5 31  2  0  0  0  0
  6  7  2  0  0  0  0
  6 36  1  0  0  0  0
  7  8  1  0  0  0  0
  7 37  1  0  0  0  0
  8  9  1  0  0  0  0
  8 30  2  0  0  0  0
  9 10  1  0  0  0  0
 10 11  1  0  0  0  0
 10 29  2  0  0  0  0
 11 12  2  0  0  0  0
 11 38  1  0  0  0  0
 12 13  1  0  0  0  0
 12 39  1  0  0  0  0
 13 14  2  0  0  0  0
 13 40  1  0  0  0  0
 14 15  1  0  0  0  0
 14 29  1  0  0  0  0
 15 16  1  0  0  0  0
 15 41  1  0  0  0  0
 16 17  2  0  0  0  0
 16 18  1  0  0  0  0
 18 19  1  0  0  0  0
 18 42  1  0  0  0  0
 19 20  1  0  0  0  0
 19 28  2  0  0  0  0
 20 21  2  0  0  0  0
 20 43  1  0  0  0  0
 21 22  1  0  0  0  0
 21 44  1  0  0  0  0
 22 23  2  0  0  0  0
 22 45  1  0  0  0  0
 23 24  1  0  0  0  0
 23 28  1  0  0  0  0
 24 25  1  0  0  0  0
 24 26  1  0  0  0  0
 24 27  1  0  0  0  0
 28 46  1  0  0  0  0
 29 47  1  0  0  0  0
 30 31  1  0  0  0  0
 31 48  1  0  0  0  0
M  END
$$$$
