CHEMBL118832
 OpenBabel04072215363D

 49 53  0  0  0  0  0  0  0  0999 V2000
    1.0940   -0.0588    0.0286 O   0  0  0  0  0  0  0  0  0  0  0  0
    2.5305   -0.1998   -0.0359 S   0  0  0  0  0  0  0  0  0  0  0  0
    3.1771   -1.4437    0.3182 O   0  0  0  0  0  0  0  0  0  0  0  0
    3.0260    0.2269   -1.6889 C   0  0  0  0  0  0  0  0  0  0  0  0
    3.7056   -0.6945   -2.4902 C   0  0  0  0  0  0  0  0  0  0  0  0
    4.1603   -0.3315   -3.7666 C   0  0  0  0  0  0  0  0  0  0  0  0
    3.9465    0.9917   -4.1772 C   0  0  0  0  0  0  0  0  0  0  0  0
    4.2774    1.6403   -5.3498 N   0  0  0  0  0  0  0  0  0  0  0  0
    3.8875    2.9642   -5.3085 C   0  0  0  0  0  0  0  0  0  0  0  0
    4.0186    3.9072   -6.4282 C   0  0  0  0  0  0  0  0  0  0  0  0
    3.8008    5.2721   -6.2169 C   0  0  0  0  0  0  0  0  0  0  0  0
    3.7094    6.1589   -7.2962 C   0  0  0  0  0  0  0  0  0  0  0  0
    3.3914    7.5141   -7.1003 C   0  0  0  0  0  0  0  0  0  0  0  0
    3.2231    8.3600   -8.1923 C   0  0  0  0  0  0  0  0  0  0  0  0
    3.3913    7.8590   -9.4773 C   0  0  0  0  0  0  0  0  0  0  0  0
    3.7372    6.5158   -9.6659 C   0  0  0  0  0  0  0  0  0  0  0  0
    3.8989    5.6450   -8.5955 C   0  0  0  0  0  0  0  0  0  0  0  0
    4.1996    4.3516   -8.8198 N   0  0  0  0  0  0  0  0  0  0  0  0
    4.2437    3.5347   -7.7483 C   0  0  0  0  0  0  0  0  0  0  0  0
    4.4968    2.2445   -8.0994 O   0  0  0  0  0  0  0  0  0  0  0  0
    3.2822    3.1497   -4.0781 C   0  0  0  0  0  0  0  0  0  0  0  0
    3.2828    1.9213   -3.3781 C   0  0  0  0  0  0  0  0  0  0  0  0
    2.7750    1.5312   -2.1295 C   0  0  0  0  0  0  0  0  0  0  0  0
    3.2237    1.0434    0.9130 N   0  0  0  0  0  0  0  0  0  0  0  0
    4.7064    1.2147    0.8464 C   0  0  0  0  0  0  0  0  0  0  0  0
    5.4506    0.2348    1.7666 C   0  0  0  0  0  0  0  0  0  0  0  0
    5.0166    0.3196    3.1719 N   0  0  0  0  0  0  0  0  0  0  0  0
    3.5548    0.1333    3.2466 C   0  0  0  0  0  0  0  0  0  0  0  0
    2.7513    1.0824    2.3329 C   0  0  0  0  0  0  0  0  0  0  0  0
    3.8892   -1.7057   -2.1304 H   0  0  0  0  0  0  0  0  0  0  0  0
    4.6759   -1.0455   -4.4011 H   0  0  0  0  0  0  0  0  0  0  0  0
    4.7138    1.2081   -6.1505 H   0  0  0  0  0  0  0  0  0  0  0  0
    3.6504    5.6496   -5.2100 H   0  0  0  0  0  0  0  0  0  0  0  0
    3.2452    7.9091   -6.0966 H   0  0  0  0  0  0  0  0  0  0  0  0
    2.9502    9.4010   -8.0398 H   0  0  0  0  0  0  0  0  0  0  0  0
    3.2475    8.5075  -10.3387 H   0  0  0  0  0  0  0  0  0  0  0  0
    3.8625    6.1356  -10.6764 H   0  0  0  0  0  0  0  0  0  0  0  0
    4.5339    2.3553   -9.0681 H   0  0  0  0  0  0  0  0  0  0  0  0
    2.8373    4.0698   -3.7212 H   0  0  0  0  0  0  0  0  0  0  0  0
    2.2271    2.2332   -1.5097 H   0  0  0  0  0  0  0  0  0  0  0  0
    4.9288    2.2463    1.1545 H   0  0  0  0  0  0  0  0  0  0  0  0
    5.0703    1.1264   -0.1815 H   0  0  0  0  0  0  0  0  0  0  0  0
    6.5239    0.4530    1.7231 H   0  0  0  0  0  0  0  0  0  0  0  0
    5.3375   -0.7956    1.4139 H   0  0  0  0  0  0  0  0  0  0  0  0
    5.2488    1.2448    3.5311 H   0  0  0  0  0  0  0  0  0  0  0  0
    3.2468    0.2992    4.2846 H   0  0  0  0  0  0  0  0  0  0  0  0
    3.3134   -0.9102    3.0151 H   0  0  0  0  0  0  0  0  0  0  0  0
    2.8596    2.1150    2.6886 H   0  0  0  0  0  0  0  0  0  0  0  0
    1.6828    0.8511    2.3936 H   0  0  0  0  0  0  0  0  0  0  0  0
  1  2  2  0  0  0  0
  2  3  2  0  0  0  0
  2  4  1  0  0  0  0
  2 24  1  0  0  0  0
  4  5  1  0  0  0  0
  4 23  2  0  0  0  0
  5  6  2  0  0  0  0
  5 30  1  0  0  0  0
  6  7  1  0  0  0  0
  6 31  1  0  0  0  0
  7  8  1  0  0  0  0
  7 22  2  0  0  0  0
  8  9  1  0  0  0  0
  8 32  1  0  0  0  0
  9 10  1  0  0  0  0
  9 21  2  0  0  0  0
 10 11  1  0  0  0  0
 10 19  2  0  0  0  0
 11 12  2  0  0  0  0
 11 33  1  0  0  0  0
 12 13  1  0  0  0  0
 12 17  1  0  0  0  0
 13 14  2  0  0  0  0
 13 34  1  0  0  0  0
 14 15  1  0  0  0  0
 14 35  1  0  0  0  0
 15 16  2  0  0  0  0
 15 36  1  0  0  0  0
 16 17  1  0  0  0  0
 16 37  1  0  0  0  0
 17 18  2  0  0  0  0
 18 19  1  0  0  0  0
 19 20  1  0  0  0  0
 20 38  1  0  0  0  0
 21 22  1  0  0  0  0
 21 39  1  0  0  0  0
 22 23  1  0  0  0  0
 23 40  1  0  0  0  0
 24 25  1  0  0  0  0
 24 29  1  0  0  0  0
 25 26  1  0  0  0  0
 25 41  1  0  0  0  0
 25 42  1  0  0  0  0
 26 27  1  0  0  0  0
 26 43  1  0  0  0  0
 26 44  1  0  0  0  0
 27 28  1  0  0  0  0
 27 45  1  0  0  0  0
 28 29  1  0  0  0  0
 28 46  1  0  0  0  0
 28 47  1  0  0  0  0
 29 48  1  0  0  0  0
 29 49  1  0  0  0  0
M  END
$$$$
