CHEMBL3969061
 OpenBabel04072215373D

 58 61  0  0  0  0  0  0  0  0999 V2000
    1.5042    1.5842   -4.5705 C   0  0  0  0  0  0  0  0  0  0  0  0
    2.3435    0.4307   -4.4899 O   0  0  0  0  0  0  0  0  0  0  0  0
    3.2054    0.3901   -3.4210 C   0  0  0  0  0  0  0  0  0  0  0  0
    2.9508    1.0093   -2.1967 C   0  0  0  0  0  0  0  0  0  0  0  0
    3.8497    0.8614   -1.1471 C   0  0  0  0  0  0  0  0  0  0  0  0
    3.7014    1.3801    0.1120 O   0  0  0  0  0  0  0  0  0  0  0  0
    2.5345    2.1560    0.3594 C   0  0  0  0  0  0  0  0  0  0  0  0
    5.0149    0.1057   -1.3333 C   0  0  0  0  0  0  0  0  0  0  0  0
    5.3156   -0.5311   -2.5477 C   0  0  0  0  0  0  0  0  0  0  0  0
    6.4361   -1.3788   -2.7077 N   0  0  0  0  0  0  0  0  0  0  0  0
    6.9465   -2.0961   -1.4754 C   0  0  0  0  0  0  0  0  0  0  0  0
    5.9608   -3.0694   -0.7764 C   0  0  0  0  0  0  0  0  0  0  0  0
    5.6086   -4.3065   -1.6105 C   0  0  0  0  0  0  0  0  0  0  0  0
    6.5946   -3.5633    0.5391 C   0  0  0  0  0  0  0  0  0  0  0  0
    7.5437   -1.2254   -3.6283 C   0  0  0  0  0  0  0  0  0  0  0  0
    8.0907   -2.4311   -4.0810 C   0  0  0  0  0  0  0  0  0  0  0  0
    9.4040   -2.4890   -4.4503 C   0  0  0  0  0  0  0  0  0  0  0  0
   10.1581   -1.3575   -4.5525 C   0  0  0  0  0  0  0  0  0  0  0  0
   11.4736   -1.5912   -4.7672 N   0  0  0  0  0  0  0  0  0  0  0  0
   12.2487   -0.5269   -5.0365 C   0  0  0  0  0  0  0  0  0  0  0  0
   11.7251    0.7362   -5.2026 C   0  0  0  0  0  0  0  0  0  0  0  0
   12.5895    1.6978   -5.8747 C   0  0  0  0  0  0  0  0  0  0  0  0
   12.6356    2.0617   -7.2470 C   0  0  0  0  0  0  0  0  0  0  0  0
   13.7071    2.8039   -7.5561 N   0  0  0  0  0  0  0  0  0  0  0  0
   14.3530    2.9161   -6.3838 N   0  0  0  0  0  0  0  0  0  0  0  0
   15.3732    3.9218   -6.2026 C   0  0  0  0  0  0  0  0  0  0  0  0
   13.8248    2.1178   -5.4046 C   0  0  0  0  0  0  0  0  0  0  0  0
   10.4189    1.0110   -4.8909 N   0  0  0  0  0  0  0  0  0  0  0  0
    9.5992   -0.0622   -4.4889 C   0  0  0  0  0  0  0  0  0  0  0  0
    8.2580   -0.0353   -3.9415 C   0  0  0  0  0  0  0  0  0  0  0  0
    4.3727   -0.3835   -3.5856 C   0  0  0  0  0  0  0  0  0  0  0  0
    0.9398    1.5308   -5.5070 H   0  0  0  0  0  0  0  0  0  0  0  0
    2.1047    2.5002   -4.5913 H   0  0  0  0  0  0  0  0  0  0  0  0
    0.7684    1.6188   -3.7596 H   0  0  0  0  0  0  0  0  0  0  0  0
    2.0400    1.5756   -2.0549 H   0  0  0  0  0  0  0  0  0  0  0  0
    2.5421    2.4463    1.4143 H   0  0  0  0  0  0  0  0  0  0  0  0
    1.6217    1.5761    0.1851 H   0  0  0  0  0  0  0  0  0  0  0  0
    2.5417    3.0716   -0.2412 H   0  0  0  0  0  0  0  0  0  0  0  0
    5.6844    0.0156   -0.4837 H   0  0  0  0  0  0  0  0  0  0  0  0
    7.3169   -1.3500   -0.7660 H   0  0  0  0  0  0  0  0  0  0  0  0
    7.8304   -2.7070   -1.7046 H   0  0  0  0  0  0  0  0  0  0  0  0
    5.0311   -2.5511   -0.5263 H   0  0  0  0  0  0  0  0  0  0  0  0
    6.4712   -4.9729   -1.7288 H   0  0  0  0  0  0  0  0  0  0  0  0
    5.2387   -4.0411   -2.6036 H   0  0  0  0  0  0  0  0  0  0  0  0
    4.8254   -4.8865   -1.1063 H   0  0  0  0  0  0  0  0  0  0  0  0
    7.4791   -4.1839    0.3477 H   0  0  0  0  0  0  0  0  0  0  0  0
    5.8852   -4.1710    1.1118 H   0  0  0  0  0  0  0  0  0  0  0  0
    6.9053   -2.7256    1.1713 H   0  0  0  0  0  0  0  0  0  0  0  0
    7.5353   -3.3530   -3.9742 H   0  0  0  0  0  0  0  0  0  0  0  0
    9.8783   -3.4449   -4.6123 H   0  0  0  0  0  0  0  0  0  0  0  0
   13.3031   -0.7435   -5.1764 H   0  0  0  0  0  0  0  0  0  0  0  0
   11.9550    1.7865   -8.0437 H   0  0  0  0  0  0  0  0  0  0  0  0
   15.4867    4.5060   -7.1198 H   0  0  0  0  0  0  0  0  0  0  0  0
   16.3176    3.4440   -5.9338 H   0  0  0  0  0  0  0  0  0  0  0  0
   15.0342    4.5778   -5.3956 H   0  0  0  0  0  0  0  0  0  0  0  0
   14.3456    1.9622   -4.4702 H   0  0  0  0  0  0  0  0  0  0  0  0
    7.8237    0.9281   -3.6979 H   0  0  0  0  0  0  0  0  0  0  0  0
    4.5138   -0.9179   -4.5225 H   0  0  0  0  0  0  0  0  0  0  0  0
  1  2  1  0  0  0  0
  1 32  1  0  0  0  0
  1 33  1  0  0  0  0
  1 34  1  0  0  0  0
  2  3  1  0  0  0  0
  3  4  1  0  0  0  0
  3 31  2  0  0  0  0
  4  5  2  0  0  0  0
  4 35  1  0  0  0  0
  5  6  1  0  0  0  0
  5  8  1  0  0  0  0
  6  7  1  0  0  0  0
  7 36  1  0  0  0  0
  7 37  1  0  0  0  0
  7 38  1  0  0  0  0
  8  9  2  0  0  0  0
  8 39  1  0  0  0  0
  9 10  1  0  0  0  0
  9 31  1  0  0  0  0
 10 11  1  0  0  0  0
 10 15  1  0  0  0  0
 11 12  1  0  0  0  0
 11 40  1  0  0  0  0
 11 41  1  0  0  0  0
 12 13  1  0  0  0  0
 12 14  1  0  0  0  0
 12 42  1  0  0  0  0
 13 43  1  0  0  0  0
 13 44  1  0  0  0  0
 13 45  1  0  0  0  0
 14 46  1  0  0  0  0
 14 47  1  0  0  0  0
 14 48  1  0  0  0  0
 15 16  1  0  0  0  0
 15 30  2  0  0  0  0
 16 17  2  0  0  0  0
 16 49  1  0  0  0  0
 17 18  1  0  0  0  0
 17 50  1  0  0  0  0
 18 19  1  0  0  0  0
 18 29  2  0  0  0  0
 19 20  2  0  0  0  0
 20 21  1  0  0  0  0
 20 51  1  0  0  0  0
 21 22  1  0  0  0  0
 21 28  2  0  0  0  0
 22 23  1  0  0  0  0
 22 27  2  0  0  0  0
 23 24  2  0  0  0  0
 23 52  1  0  0  0  0
 24 25  1  0  0  0  0
 25 26  1  0  0  0  0
 25 27  1  0  0  0  0
 26 53  1  0  0  0  0
 26 54  1  0  0  0  0
 26 55  1  0  0  0  0
 27 56  1  0  0  0  0
 28 29  1  0  0  0  0
 29 30  1  0  0  0  0
 30 57  1  0  0  0  0
 31 58  1  0  0  0  0
M  END
$$$$
