CHEMBL3221546
 OpenBabel04072215363D

 65 67  0  0  0  0  0  0  0  0999 V2000
   13.1153    6.9161    8.2988 C   0  0  0  0  0  0  0  0  0  0  0  0
   14.1498    5.9515    7.7386 C   0  0  0  0  0  0  0  0  0  0  0  0
   13.5382    4.9136    7.0623 O   0  0  0  0  0  0  0  0  0  0  0  0
   12.7347    4.0028    7.7331 C   0  0  0  0  0  0  0  0  0  0  0  0
   12.8745    3.8578    8.9107 O   0  0  0  0  0  0  0  0  0  0  0  0
   11.7292    3.3985    7.0525 N   0  0  0  0  0  0  0  0  0  0  0  0
   11.4798    3.5583    5.6722 C   0  0  0  0  0  0  0  0  0  0  0  0
   12.4868    3.2511    4.7212 C   0  0  0  0  0  0  0  0  0  0  0  0
   12.2047    3.2924    3.3565 C   0  0  0  0  0  0  0  0  0  0  0  0
   10.9356    3.6534    2.8730 C   0  0  0  0  0  0  0  0  0  0  0  0
   10.6341    3.6900    1.4738 N   0  0  0  0  0  0  0  0  0  0  0  0
   11.5207    3.2504    0.4213 C   0  0  0  0  0  0  0  0  0  0  0  0
   12.4657    2.3099    0.6577 N   0  0  0  0  0  0  0  0  0  0  0  0
   13.3051    1.8662   -0.3115 C   0  0  0  0  0  0  0  0  0  0  0  0
   13.1887    2.3267   -1.5853 N   0  0  0  0  0  0  0  0  0  0  0  0
   12.2626    3.2620   -1.8995 C   0  0  0  0  0  0  0  0  0  0  0  0
   12.1438    3.7576   -3.2257 C   0  0  0  0  0  0  0  0  0  0  0  0
   11.1932    4.7559   -3.5875 C   0  0  0  0  0  0  0  0  0  0  0  0
   11.0563    5.1426   -4.9459 O   0  0  0  0  0  0  0  0  0  0  0  0
   11.5347    4.3156   -6.0024 C   0  0  0  0  0  0  0  0  0  0  0  0
   11.0381    4.3567   -7.5083 C   0  0  0  0  0  0  0  0  0  0  0  0
   11.6658    3.2295   -8.3370 N   0  0  0  0  0  0  0  0  0  0  0  0
   13.1338    3.2209   -8.5253 C   0  0  0  0  0  0  0  0  0  0  0  0
   13.5992    4.1551   -9.6771 C   0  0  0  0  0  0  0  0  0  0  0  0
   12.9486    3.8450  -10.8943 O   0  0  0  0  0  0  0  0  0  0  0  0
   11.5597    3.9885  -10.7160 C   0  0  0  0  0  0  0  0  0  0  0  0
   11.0736    2.9504   -9.6626 C   0  0  0  0  0  0  0  0  0  0  0  0
   10.3731    5.2468   -2.4524 C   0  0  0  0  0  0  0  0  0  0  0  0
    9.3766    6.1339   -2.3511 O   0  0  0  0  0  0  0  0  0  0  0  0
    8.7680    6.9304   -3.2314 C   0  0  0  0  0  0  0  0  0  0  0  0
   10.5424    4.7348   -1.1945 C   0  0  0  0  0  0  0  0  0  0  0  0
   11.4229    3.7565   -0.8865 C   0  0  0  0  0  0  0  0  0  0  0  0
    9.9607    4.0300    3.8250 C   0  0  0  0  0  0  0  0  0  0  0  0
   10.2279    3.9949    5.1882 C   0  0  0  0  0  0  0  0  0  0  0  0
    8.9560    4.5632    6.2693 Cl  0  0  0  0  0  0  0  0  0  0  0  0
   -1.1588    1.5151    0.5041 Cl  0  0  0  0  0  0  0  0  0  0  0  0
   13.6199    7.7569    8.8146 H   0  0  0  0  0  0  0  0  0  0  0  0
   12.4693    6.3971    9.0434 H   0  0  0  0  0  0  0  0  0  0  0  0
   12.4939    7.3286    7.4724 H   0  0  0  0  0  0  0  0  0  0  0  0
   14.7659    5.5683    8.5803 H   0  0  0  0  0  0  0  0  0  0  0  0
   14.8032    6.5182    7.0358 H   0  0  0  0  0  0  0  0  0  0  0  0
   11.0575    2.8139    7.6220 H   0  0  0  0  0  0  0  0  0  0  0  0
   13.4667    2.9336    5.0465 H   0  0  0  0  0  0  0  0  0  0  0  0
   13.0038    3.0515    2.6886 H   0  0  0  0  0  0  0  0  0  0  0  0
    9.7250    4.1125    1.2325 H   0  0  0  0  0  0  0  0  0  0  0  0
   14.0466    1.1244   -0.0609 H   0  0  0  0  0  0  0  0  0  0  0  0
   12.7985    3.3456   -3.9847 H   0  0  0  0  0  0  0  0  0  0  0  0
   11.1625    3.3110   -5.7038 H   0  0  0  0  0  0  0  0  0  0  0  0
   12.6282    4.4855   -6.1035 H   0  0  0  0  0  0  0  0  0  0  0  0
   11.2852    5.3324   -7.9647 H   0  0  0  0  0  0  0  0  0  0  0  0
    9.9225    4.2542   -7.5347 H   0  0  0  0  0  0  0  0  0  0  0  0
   13.4203    2.1894   -8.8348 H   0  0  0  0  0  0  0  0  0  0  0  0
   13.6773    3.4235   -7.5903 H   0  0  0  0  0  0  0  0  0  0  0  0
   14.6855    3.9966   -9.8433 H   0  0  0  0  0  0  0  0  0  0  0  0
   13.4513    5.2250   -9.4188 H   0  0  0  0  0  0  0  0  0  0  0  0
   11.0614    3.7999  -11.6931 H   0  0  0  0  0  0  0  0  0  0  0  0
   11.3315    5.0499  -10.4625 H   0  0  0  0  0  0  0  0  0  0  0  0
   11.4301    1.9542  -10.0312 H   0  0  0  0  0  0  0  0  0  0  0  0
    9.9906    2.7843   -9.5707 H   0  0  0  0  0  0  0  0  0  0  0  0
    7.9650    7.5037   -2.6991 H   0  0  0  0  0  0  0  0  0  0  0  0
    8.2686    6.2505   -3.9554 H   0  0  0  0  0  0  0  0  0  0  0  0
    9.5203    7.6510   -3.5275 H   0  0  0  0  0  0  0  0  0  0  0  0
    9.9209    5.1726   -0.4287 H   0  0  0  0  0  0  0  0  0  0  0  0
    8.9727    4.3521    3.5209 H   0  0  0  0  0  0  0  0  0  0  0  0
    0.1404    1.9480    0.6353 H   0  0  0  0  0  0  0  0  0  0  0  0
  1  2  1  0  0  0  0
  1 37  1  0  0  0  0
  1 38  1  0  0  0  0
  1 39  1  0  0  0  0
  2  3  1  0  0  0  0
  2 40  1  0  0  0  0
  2 41  1  0  0  0  0
  3  4  1  0  0  0  0
  4  5  2  0  0  0  0
  4  6  1  0  0  0  0
  6  7  1  0  0  0  0
  6 42  1  0  0  0  0
  7  8  1  0  0  0  0
  7 34  2  0  0  0  0
  8  9  2  0  0  0  0
  8 43  1  0  0  0  0
  9 10  1  0  0  0  0
  9 44  1  0  0  0  0
 10 11  1  0  0  0  0
 10 33  2  0  0  0  0
 11 12  1  0  0  0  0
 11 45  1  0  0  0  0
 12 13  1  0  0  0  0
 12 32  2  0  0  0  0
 13 14  2  0  0  0  0
 14 15  1  0  0  0  0
 14 46  1  0  0  0  0
 15 16  2  0  0  0  0
 16 17  1  0  0  0  0
 16 32  1  0  0  0  0
 17 18  2  0  0  0  0
 17 47  1  0  0  0  0
 18 19  1  0  0  0  0
 18 28  1  0  0  0  0
 19 20  1  0  0  0  0
 20 21  1  0  0  0  0
 20 48  1  0  0  0  0
 20 49  1  0  0  0  0
 21 22  1  0  0  0  0
 21 50  1  0  0  0  0
 21 51  1  0  0  0  0
 22 23  1  0  0  0  0
 22 27  1  0  0  0  0
 23 24  1  0  0  0  0
 23 52  1  0  0  0  0
 23 53  1  0  0  0  0
 24 25  1  0  0  0  0
 24 54  1  0  0  0  0
 24 55  1  0  0  0  0
 25 26  1  0  0  0  0
 26 27  1  0  0  0  0
 26 56  1  0  0  0  0
 26 57  1  0  0  0  0
 27 58  1  0  0  0  0
 27 59  1  0  0  0  0
 28 29  1  0  0  0  0
 28 31  2  0  0  0  0
 29 30  1  0  0  0  0
 30 60  1  0  0  0  0
 30 61  1  0  0  0  0
 30 62  1  0  0  0  0
 31 32  1  0  0  0  0
 31 63  1  0  0  0  0
 33 34  1  0  0  0  0
 33 64  1  0  0  0  0
 34 35  1  0  0  0  0
 36 65  1  0  0  0  0
M  END
$$$$
