CHEMBL3950152
 OpenBabel04072215373D

 61 64  0  0  0  0  0  0  0  0999 V2000
    2.7542    0.2032   -0.2467 C   0  0  0  0  0  0  0  0  0  0  0  0
    1.2672    0.1283   -0.1662 C   0  0  0  0  0  0  0  0  0  0  0  0
    0.7428   -1.1256   -0.0545 N   0  0  0  0  0  0  0  0  0  0  0  0
   -0.6163   -1.1311   -0.0422 C   0  0  0  0  0  0  0  0  0  0  0  0
   -1.3451   -2.3527    0.0047 C   0  0  0  0  0  0  0  0  0  0  0  0
   -0.8779   -3.6136    0.0732 C   0  0  0  0  0  0  0  0  0  0  0  0
    0.5382   -4.1585    0.1451 C   0  0  0  0  0  0  0  0  0  0  0  0
    1.5992   -3.5571    0.1665 O   0  0  0  0  0  0  0  0  0  0  0  0
    0.4070   -5.5337    0.1817 N   0  0  0  0  0  0  0  0  0  0  0  0
   -0.9257   -5.9119    0.1432 C   0  0  0  0  0  0  0  0  0  0  0  0
   -1.4148   -7.2067    0.1561 C   0  0  0  0  0  0  0  0  0  0  0  0
   -2.8015   -7.3606    0.1151 C   0  0  0  0  0  0  0  0  0  0  0  0
   -3.6425   -6.2415    0.0590 C   0  0  0  0  0  0  0  0  0  0  0  0
   -4.9671   -6.4167    0.0067 F   0  0  0  0  0  0  0  0  0  0  0  0
   -3.1353   -4.9399    0.0379 C   0  0  0  0  0  0  0  0  0  0  0  0
   -1.7600   -4.7887    0.0858 C   0  0  0  0  0  0  0  0  0  0  0  0
   -1.0064    0.2021   -0.1015 C   0  0  0  0  0  0  0  0  0  0  0  0
   -2.4087    0.7215   -0.0865 C   0  0  0  0  0  0  0  0  0  0  0  0
    0.1991    1.0290   -0.1599 C   0  0  0  0  0  0  0  0  0  0  0  0
    0.1765    2.5129   -0.2401 C   0  0  0  0  0  0  0  0  0  0  0  0
   -0.6327    3.0734   -0.9791 O   0  0  0  0  0  0  0  0  0  0  0  0
    0.9884    3.2854    0.6109 N   0  0  0  0  0  0  0  0  0  0  0  0
    0.9374    4.7515    0.4705 C   0  0  0  0  0  0  0  0  0  0  0  0
   -0.3064    5.3930    1.1095 C   0  0  0  0  0  0  0  0  0  0  0  0
    0.1213    6.0881    2.2837 O   0  0  0  0  0  0  0  0  0  0  0  0
   -0.7967    6.0538    3.3781 C   0  0  0  0  0  0  0  0  0  0  0  0
    0.0236    5.7921    4.6455 C   0  0  0  0  0  0  0  0  0  0  0  0
   -0.2981    4.4838    5.1209 O   0  0  0  0  0  0  0  0  0  0  0  0
    0.8304    3.6805    5.4683 C   0  0  0  0  0  0  0  0  0  0  0  0
    0.6450    2.3082    4.8257 C   0  0  0  0  0  0  0  0  0  0  0  0
    1.7233    2.0922    3.9165 O   0  0  0  0  0  0  0  0  0  0  0  0
    1.2976    1.7593    2.5982 C   0  0  0  0  0  0  0  0  0  0  0  0
    1.9101    2.7592    1.6125 C   0  0  0  0  0  0  0  0  0  0  0  0
    3.1786   -0.7917   -0.4366 H   0  0  0  0  0  0  0  0  0  0  0  0
    3.2010    0.4960    0.7053 H   0  0  0  0  0  0  0  0  0  0  0  0
    3.0908    0.8656   -1.0451 H   0  0  0  0  0  0  0  0  0  0  0  0
    1.3312   -1.9557   -0.0152 H   0  0  0  0  0  0  0  0  0  0  0  0
   -2.4255   -2.2252   -0.0400 H   0  0  0  0  0  0  0  0  0  0  0  0
    1.2020   -6.1495    0.2215 H   0  0  0  0  0  0  0  0  0  0  0  0
   -0.7555   -8.0648    0.2001 H   0  0  0  0  0  0  0  0  0  0  0  0
   -3.2477   -8.3524    0.1163 H   0  0  0  0  0  0  0  0  0  0  0  0
   -3.8129   -4.0977   -0.0124 H   0  0  0  0  0  0  0  0  0  0  0  0
   -3.1446   -0.0860   -0.0248 H   0  0  0  0  0  0  0  0  0  0  0  0
   -2.6299    1.2917   -0.9951 H   0  0  0  0  0  0  0  0  0  0  0  0
   -2.5665    1.3707    0.7824 H   0  0  0  0  0  0  0  0  0  0  0  0
    0.9599    4.9821   -0.5997 H   0  0  0  0  0  0  0  0  0  0  0  0
    1.8503    5.1801    0.9033 H   0  0  0  0  0  0  0  0  0  0  0  0
   -1.0767    4.6473    1.3295 H   0  0  0  0  0  0  0  0  0  0  0  0
   -0.7273    6.1390    0.4259 H   0  0  0  0  0  0  0  0  0  0  0  0
   -1.5711    5.2899    3.2451 H   0  0  0  0  0  0  0  0  0  0  0  0
   -1.2797    7.0344    3.4399 H   0  0  0  0  0  0  0  0  0  0  0  0
   -0.2605    6.4959    5.4330 H   0  0  0  0  0  0  0  0  0  0  0  0
    1.0947    5.9125    4.4445 H   0  0  0  0  0  0  0  0  0  0  0  0
    0.8307    3.5779    6.5572 H   0  0  0  0  0  0  0  0  0  0  0  0
    1.7814    4.1319    5.1637 H   0  0  0  0  0  0  0  0  0  0  0  0
   -0.3394    2.2266    4.3493 H   0  0  0  0  0  0  0  0  0  0  0  0
    0.7175    1.5204    5.5804 H   0  0  0  0  0  0  0  0  0  0  0  0
    0.2070    1.7314    2.5083 H   0  0  0  0  0  0  0  0  0  0  0  0
    1.6694    0.7483    2.4153 H   0  0  0  0  0  0  0  0  0  0  0  0
    2.7510    2.3489    1.0589 H   0  0  0  0  0  0  0  0  0  0  0  0
    2.3479    3.5927    2.1732 H   0  0  0  0  0  0  0  0  0  0  0  0
  1  2  1  0  0  0  0
  1 34  1  0  0  0  0
  1 35  1  0  0  0  0
  1 36  1  0  0  0  0
  2  3  1  0  0  0  0
  2 19  2  0  0  0  0
  3  4  1  0  0  0  0
  3 37  1  0  0  0  0
  4  5  1  0  0  0  0
  4 17  2  0  0  0  0
  5  6  2  0  0  0  0
  5 38  1  0  0  0  0
  6  7  1  0  0  0  0
  6 16  1  0  0  0  0
  7  8  2  0  0  0  0
  7  9  1  0  0  0  0
  9 10  1  0  0  0  0
  9 39  1  0  0  0  0
 10 11  1  0  0  0  0
 10 16  2  0  0  0  0
 11 12  2  0  0  0  0
 11 40  1  0  0  0  0
 12 13  1  0  0  0  0
 12 41  1  0  0  0  0
 13 14  1  0  0  0  0
 13 15  2  0  0  0  0
 15 16  1  0  0  0  0
 15 42  1  0  0  0  0
 17 18  1  0  0  0  0
 17 19  1  0  0  0  0
 18 43  1  0  0  0  0
 18 44  1  0  0  0  0
 18 45  1  0  0  0  0
 19 20  1  0  0  0  0
 20 21  2  0  0  0  0
 20 22  1  0  0  0  0
 22 23  1  0  0  0  0
 22 33  1  0  0  0  0
 23 24  1  0  0  0  0
 23 46  1  0  0  0  0
 23 47  1  0  0  0  0
 24 25  1  0  0  0  0
 24 48  1  0  0  0  0
 24 49  1  0  0  0  0
 25 26  1  0  0  0  0
 26 27  1  0  0  0  0
 26 50  1  0  0  0  0
 26 51  1  0  0  0  0
 27 28  1  0  0  0  0
 27 52  1  0  0  0  0
 27 53  1  0  0  0  0
 28 29  1  0  0  0  0
 29 30  1  0  0  0  0
 29 54  1  0  0  0  0
 29 55  1  0  0  0  0
 30 31  1  0  0  0  0
 30 56  1  0  0  0  0
 30 57  1  0  0  0  0
 31 32  1  0  0  0  0
 32 33  1  0  0  0  0
 32 58  1  0  0  0  0
 32 59  1  0  0  0  0
 33 60  1  0  0  0  0
 33 61  1  0  0  0  0
M  END
$$$$
