CHEMBL221019
 OpenBabel04072215363D

 48 51  0  0  0  0  0  0  0  0999 V2000
    1.0711   -0.0808    0.1176 C   0  0  0  0  0  0  0  0  0  0  0  0
    2.5725   -0.1088    0.0155 C   0  0  0  0  0  0  0  0  0  0  0  0
    3.2670    1.1075   -0.0135 C   0  0  0  0  0  0  0  0  0  0  0  0
    4.6531    1.1241   -0.1434 C   0  0  0  0  0  0  0  0  0  0  0  0
    5.3736   -0.0727   -0.2509 C   0  0  0  0  0  0  0  0  0  0  0  0
    6.8508    0.0436   -0.3753 C   0  0  0  0  0  0  0  0  0  0  0  0
    7.3832    0.9814    0.2105 O   0  0  0  0  0  0  0  0  0  0  0  0
    7.4818   -0.8597   -1.2211 N   0  0  0  0  0  0  0  0  0  0  0  0
    8.8548   -0.8036   -1.5743 C   0  0  0  0  0  0  0  0  0  0  0  0
    9.7984   -0.0768   -0.8421 C   0  0  0  0  0  0  0  0  0  0  0  0
   11.1198    0.0352   -1.2764 C   0  0  0  0  0  0  0  0  0  0  0  0
   11.5178   -0.5788   -2.4580 C   0  0  0  0  0  0  0  0  0  0  0  0
   10.6015   -1.3340   -3.2027 C   0  0  0  0  0  0  0  0  0  0  0  0
   11.0154   -1.9554   -4.5137 C   0  0  0  0  0  0  0  0  0  0  0  0
   12.2853   -1.6363   -4.8927 F   0  0  0  0  0  0  0  0  0  0  0  0
   10.9634   -3.3152   -4.4908 F   0  0  0  0  0  0  0  0  0  0  0  0
   10.2145   -1.5677   -5.5456 F   0  0  0  0  0  0  0  0  0  0  0  0
    9.2769   -1.4688   -2.7333 C   0  0  0  0  0  0  0  0  0  0  0  0
    4.6980   -1.2963   -0.1991 C   0  0  0  0  0  0  0  0  0  0  0  0
    3.2986   -1.3157   -0.0685 C   0  0  0  0  0  0  0  0  0  0  0  0
    2.6210   -2.5822   -0.0404 C   0  0  0  0  0  0  0  0  0  0  0  0
    2.0160   -3.6202   -0.0554 C   0  0  0  0  0  0  0  0  0  0  0  0
    1.2541   -4.8261   -0.1406 C   0  0  0  0  0  0  0  0  0  0  0  0
   -0.0893   -4.8132   -0.4655 C   0  0  0  0  0  0  0  0  0  0  0  0
   -0.8079   -5.9481   -0.6303 N   0  0  0  0  0  0  0  0  0  0  0  0
   -0.1352   -7.1064   -0.4680 C   0  0  0  0  0  0  0  0  0  0  0  0
   -0.7944   -8.3120   -0.6676 C   0  0  0  0  0  0  0  0  0  0  0  0
   -0.1317   -9.5334   -0.5357 C   0  0  0  0  0  0  0  0  0  0  0  0
    1.2097   -9.5481   -0.1769 C   0  0  0  0  0  0  0  0  0  0  0  0
    1.8809   -8.3421    0.0373 C   0  0  0  0  0  0  0  0  0  0  0  0
    1.2407   -7.1174   -0.1147 C   0  0  0  0  0  0  0  0  0  0  0  0
    1.9388   -5.9734    0.0528 N   0  0  0  0  0  0  0  0  0  0  0  0
    0.6964    0.9448    0.2125 H   0  0  0  0  0  0  0  0  0  0  0  0
    0.7312   -0.6343    0.9982 H   0  0  0  0  0  0  0  0  0  0  0  0
    0.6246   -0.5096   -0.7851 H   0  0  0  0  0  0  0  0  0  0  0  0
    2.7360    2.0545    0.0634 H   0  0  0  0  0  0  0  0  0  0  0  0
    5.1754    2.0799   -0.1626 H   0  0  0  0  0  0  0  0  0  0  0  0
    6.8933   -1.4642   -1.7807 H   0  0  0  0  0  0  0  0  0  0  0  0
    9.5351    0.4245    0.0846 H   0  0  0  0  0  0  0  0  0  0  0  0
   11.8271    0.6233   -0.6966 H   0  0  0  0  0  0  0  0  0  0  0  0
   12.5441   -0.4537   -2.8005 H   0  0  0  0  0  0  0  0  0  0  0  0
    8.5713   -2.0561   -3.3185 H   0  0  0  0  0  0  0  0  0  0  0  0
    5.2490   -2.2329   -0.2301 H   0  0  0  0  0  0  0  0  0  0  0  0
   -0.6319   -3.8880   -0.6235 H   0  0  0  0  0  0  0  0  0  0  0  0
   -1.8458   -8.2989   -0.9469 H   0  0  0  0  0  0  0  0  0  0  0  0
   -0.6630  -10.4646   -0.7170 H   0  0  0  0  0  0  0  0  0  0  0  0
    1.7383  -10.4923   -0.0700 H   0  0  0  0  0  0  0  0  0  0  0  0
    2.9317   -8.3559    0.3173 H   0  0  0  0  0  0  0  0  0  0  0  0
  1  2  1  0  0  0  0
  1 33  1  0  0  0  0
  1 34  1  0  0  0  0
  1 35  1  0  0  0  0
  2  3  1  0  0  0  0
  2 20  2  0  0  0  0
  3  4  2  0  0  0  0
  3 36  1  0  0  0  0
  4  5  1  0  0  0  0
  4 37  1  0  0  0  0
  5  6  1  0  0  0  0
  5 19  2  0  0  0  0
  6  7  2  0  0  0  0
  6  8  1  0  0  0  0
  8  9  1  0  0  0  0
  8 38  1  0  0  0  0
  9 10  1  0  0  0  0
  9 18  2  0  0  0  0
 10 11  2  0  0  0  0
 10 39  1  0  0  0  0
 11 12  1  0  0  0  0
 11 40  1  0  0  0  0
 12 13  2  0  0  0  0
 12 41  1  0  0  0  0
 13 14  1  0  0  0  0
 13 18  1  0  0  0  0
 14 15  1  0  0  0  0
 14 16  1  0  0  0  0
 14 17  1  0  0  0  0
 18 42  1  0  0  0  0
 19 20  1  0  0  0  0
 19 43  1  0  0  0  0
 20 21  1  0  0  0  0
 21 22  3  0  0  0  0
 22 23  1  0  0  0  0
 23 24  1  0  0  0  0
 23 32  2  0  0  0  0
 24 25  2  0  0  0  0
 24 44  1  0  0  0  0
 25 26  1  0  0  0  0
 26 27  1  0  0  0  0
 26 31  2  0  0  0  0
 27 28  2  0  0  0  0
 27 45  1  0  0  0  0
 28 29  1  0  0  0  0
 28 46  1  0  0  0  0
 29 30  2  0  0  0  0
 29 47  1  0  0  0  0
 30 31  1  0  0  0  0
 30 48  1  0  0  0  0
 31 32  1  0  0  0  0
M  END
$$$$
