CHEMBL238735
 OpenBabel04072215363D

 43 45  0  0  0  0  0  0  0  0999 V2000
    2.1233    0.0670   -0.0171 C   0  0  0  0  0  0  0  0  0  0  0  0
    0.6851   -0.0622   -0.0052 N   0  0  0  0  0  0  0  0  0  0  0  0
   -0.1971    0.9803   -0.0252 C   0  0  0  0  0  0  0  0  0  0  0  0
   -1.4389    0.5571   -0.0891 N   0  0  0  0  0  0  0  0  0  0  0  0
   -1.3499   -0.8014   -0.0703 C   0  0  0  0  0  0  0  0  0  0  0  0
   -2.4384   -1.5867   -0.0644 N   0  0  0  0  0  0  0  0  0  0  0  0
   -3.7219   -1.1234   -0.5456 C   0  0  0  0  0  0  0  0  0  0  0  0
   -4.7720   -1.1464    0.5332 C   0  0  0  0  0  0  0  0  0  0  0  0
   -4.6776   -0.2934    1.6366 C   0  0  0  0  0  0  0  0  0  0  0  0
   -5.7095   -0.2843    2.5619 C   0  0  0  0  0  0  0  0  0  0  0  0
   -6.8124   -1.0584    2.4667 N   0  0  0  0  0  0  0  0  0  0  0  0
   -6.8834   -1.8796    1.3988 C   0  0  0  0  0  0  0  0  0  0  0  0
   -5.9036   -1.9611    0.4207 C   0  0  0  0  0  0  0  0  0  0  0  0
   -0.0408   -1.2358   -0.0586 C   0  0  0  0  0  0  0  0  0  0  0  0
    0.5164   -2.5653   -0.1123 C   0  0  0  0  0  0  0  0  0  0  0  0
    1.6101   -2.8202    0.3761 O   0  0  0  0  0  0  0  0  0  0  0  0
   -0.2539   -3.4699   -0.8357 N   0  0  0  0  0  0  0  0  0  0  0  0
    0.0318   -4.8350   -1.0337 C   0  0  0  0  0  0  0  0  0  0  0  0
    0.9108   -5.5445   -0.2238 C   0  0  0  0  0  0  0  0  0  0  0  0
    1.2013   -6.8825   -0.4907 C   0  0  0  0  0  0  0  0  0  0  0  0
    0.6162   -7.5383   -1.5765 C   0  0  0  0  0  0  0  0  0  0  0  0
    1.0959   -9.1752   -1.8286 Cl  0  0  0  0  0  0  0  0  0  0  0  0
   -0.2996   -6.8639   -2.3908 C   0  0  0  0  0  0  0  0  0  0  0  0
   -0.9847   -7.4812   -3.5838 C   0  0  0  0  0  0  0  0  0  0  0  0
   -0.6037   -8.7383   -3.9264 F   0  0  0  0  0  0  0  0  0  0  0  0
   -2.3369   -7.5424   -3.4118 F   0  0  0  0  0  0  0  0  0  0  0  0
   -0.8007   -6.7314   -4.7104 F   0  0  0  0  0  0  0  0  0  0  0  0
   -0.6008   -5.5102   -2.0887 C   0  0  0  0  0  0  0  0  0  0  0  0
    2.3944    1.1244   -0.0856 H   0  0  0  0  0  0  0  0  0  0  0  0
    2.5161   -0.4622   -0.8895 H   0  0  0  0  0  0  0  0  0  0  0  0
    2.5218   -0.3533    0.9088 H   0  0  0  0  0  0  0  0  0  0  0  0
    0.1151    2.0171    0.0007 H   0  0  0  0  0  0  0  0  0  0  0  0
   -2.4244   -2.5217    0.3291 H   0  0  0  0  0  0  0  0  0  0  0  0
   -4.0185   -1.7964   -1.3589 H   0  0  0  0  0  0  0  0  0  0  0  0
   -3.6800   -0.1209   -0.9876 H   0  0  0  0  0  0  0  0  0  0  0  0
   -3.8216    0.3639    1.7607 H   0  0  0  0  0  0  0  0  0  0  0  0
   -5.6794    0.3741    3.4253 H   0  0  0  0  0  0  0  0  0  0  0  0
   -7.7839   -2.4846    1.3405 H   0  0  0  0  0  0  0  0  0  0  0  0
   -6.0382   -2.6344   -0.4191 H   0  0  0  0  0  0  0  0  0  0  0  0
   -1.0072   -3.0587   -1.3774 H   0  0  0  0  0  0  0  0  0  0  0  0
    1.3829   -5.0868    0.6422 H   0  0  0  0  0  0  0  0  0  0  0  0
    1.9021   -7.4060    0.1578 H   0  0  0  0  0  0  0  0  0  0  0  0
   -1.3118   -4.9798   -2.7228 H   0  0  0  0  0  0  0  0  0  0  0  0
  1  2  1  0  0  0  0
  1 29  1  0  0  0  0
  1 30  1  0  0  0  0
  1 31  1  0  0  0  0
  2  3  1  0  0  0  0
  2 14  1  0  0  0  0
  3  4  2  0  0  0  0
  3 32  1  0  0  0  0
  4  5  1  0  0  0  0
  5  6  1  0  0  0  0
  5 14  2  0  0  0  0
  6  7  1  0  0  0  0
  6 33  1  0  0  0  0
  7  8  1  0  0  0  0
  7 34  1  0  0  0  0
  7 35  1  0  0  0  0
  8  9  1  0  0  0  0
  8 13  2  0  0  0  0
  9 10  2  0  0  0  0
  9 36  1  0  0  0  0
 10 11  1  0  0  0  0
 10 37  1  0  0  0  0
 11 12  2  0  0  0  0
 12 13  1  0  0  0  0
 12 38  1  0  0  0  0
 13 39  1  0  0  0  0
 14 15  1  0  0  0  0
 15 16  2  0  0  0  0
 15 17  1  0  0  0  0
 17 18  1  0  0  0  0
 17 40  1  0  0  0  0
 18 19  1  0  0  0  0
 18 28  2  0  0  0  0
 19 20  2  0  0  0  0
 19 41  1  0  0  0  0
 20 21  1  0  0  0  0
 20 42  1  0  0  0  0
 21 22  1  0  0  0  0
 21 23  2  0  0  0  0
 23 24  1  0  0  0  0
 23 28  1  0  0  0  0
 24 25  1  0  0  0  0
 24 26  1  0  0  0  0
 24 27  1  0  0  0  0
 28 43  1  0  0  0  0
M  END
$$$$
