CHEMBL2325106
 OpenBabel04072215363D

 45 48  0  0  1  0  0  0  0  0999 V2000
    2.1024    0.4819   -1.1376 C   0  0  0  0  0  0  0  0  0  0  0  0
    2.7357   -0.1226   -0.0161 O   0  0  0  0  0  0  0  0  0  0  0  0
    3.3787    0.7039    0.8637 C   0  0  0  0  0  0  0  0  0  0  0  0
    3.4919    2.0885    0.7598 C   0  0  0  0  0  0  0  0  0  0  0  0
    4.1541    2.8202    1.7567 C   0  0  0  0  0  0  0  0  0  0  0  0
    4.7122    2.1724    2.8663 C   0  0  0  0  0  0  0  0  0  0  0  0
    5.3680    2.9854    3.9214 C   0  0  0  0  0  0  0  0  0  0  0  0
    5.4459    4.2801    3.8642 N   0  0  0  0  0  0  0  0  0  0  0  0
    6.1489    4.6972    4.9769 N   0  0  0  0  0  0  0  0  0  0  0  0
    6.5605    6.0173    5.0711 C   0  0  0  0  0  0  0  0  0  0  0  0
    5.8016    6.8663    4.3164 N   0  0  0  0  0  0  0  0  0  0  0  0
    7.8101    6.6311    5.9865 S   0  0  0  0  0  0  0  0  0  0  0  0
    6.5093    3.5871    5.8614 C   0  0  3  0  0  0  0  0  0  0  0  0
    6.0075    3.7327    7.2902 C   0  0  0  0  0  0  0  0  0  0  0  0
    6.8399    3.1700    8.2980 C   0  0  0  0  0  0  0  0  0  0  0  0
    6.5983    3.3831    9.6406 C   0  0  0  0  0  0  0  0  0  0  0  0
    5.6245    4.2871   10.0188 C   0  0  0  0  0  0  0  0  0  0  0  0
    4.7892    4.8179    9.0692 C   0  0  0  0  0  0  0  0  0  0  0  0
    3.8445    5.7451    9.5016 C   0  0  0  0  0  0  0  0  0  0  0  0
    2.5769    5.5953    9.0007 C   0  0  0  0  0  0  0  0  0  0  0  0
    2.4500    5.0865    7.7011 C   0  0  0  0  0  0  0  0  0  0  0  0
    3.5980    4.6354    7.0169 C   0  0  0  0  0  0  0  0  0  0  0  0
    4.8139    4.4094    7.7163 C   0  0  0  0  0  0  0  0  0  0  0  0
    5.9880    2.3522    5.1420 C   0  0  0  0  0  0  0  0  0  0  0  0
    4.6242    0.7809    2.9561 C   0  0  0  0  0  0  0  0  0  0  0  0
    3.9577    0.0566    1.9587 C   0  0  0  0  0  0  0  0  0  0  0  0
    1.5521   -0.3006   -1.6714 H   0  0  0  0  0  0  0  0  0  0  0  0
    2.8445    0.8974   -1.8260 H   0  0  0  0  0  0  0  0  0  0  0  0
    1.3751    1.2431   -0.8330 H   0  0  0  0  0  0  0  0  0  0  0  0
    3.0721    2.6360   -0.0780 H   0  0  0  0  0  0  0  0  0  0  0  0
    4.2225    3.9020    1.6590 H   0  0  0  0  0  0  0  0  0  0  0  0
    4.9557    6.4582    3.9378 H   0  0  0  0  0  0  0  0  0  0  0  0
    5.8593    7.8623    4.4694 H   0  0  0  0  0  0  0  0  0  0  0  0
    7.6098    3.5550    5.8840 H   0  0  0  0  0  0  0  0  0  0  0  0
    7.7061    2.5713    8.0076 H   0  0  0  0  0  0  0  0  0  0  0  0
    7.1972    2.8825   10.4022 H   0  0  0  0  0  0  0  0  0  0  0  0
    5.4623    4.5038   11.0765 H   0  0  0  0  0  0  0  0  0  0  0  0
    4.1983    6.7798    9.2889 H   0  0  0  0  0  0  0  0  0  0  0  0
    1.7256    5.8878    9.6045 H   0  0  0  0  0  0  0  0  0  0  0  0
    1.4598    5.0348    7.2641 H   0  0  0  0  0  0  0  0  0  0  0  0
    3.4687    4.3038    5.9893 H   0  0  0  0  0  0  0  0  0  0  0  0
    5.2395    1.7970    5.7125 H   0  0  0  0  0  0  0  0  0  0  0  0
    6.8086    1.6867    4.8494 H   0  0  0  0  0  0  0  0  0  0  0  0
    5.0515    0.2352    3.7902 H   0  0  0  0  0  0  0  0  0  0  0  0
    3.8821   -1.0266    2.0419 H   0  0  0  0  0  0  0  0  0  0  0  0
  1  2  1  0  0  0  0
  1 27  1  0  0  0  0
  1 28  1  0  0  0  0
  1 29  1  0  0  0  0
  2  3  1  0  0  0  0
  3  4  1  0  0  0  0
  3 26  2  0  0  0  0
  4  5  2  0  0  0  0
  4 30  1  0  0  0  0
  5  6  1  0  0  0  0
  5 31  1  0  0  0  0
  6  7  1  0  0  0  0
  6 25  2  0  0  0  0
  7  8  2  0  0  0  0
  7 24  1  0  0  0  0
  8  9  1  0  0  0  0
  9 10  1  0  0  0  0
  9 13  1  0  0  0  0
 10 11  1  0  0  0  0
 10 12  2  0  0  0  0
 11 32  1  0  0  0  0
 11 33  1  0  0  0  0
 13 14  1  0  0  0  0
 13 24  1  0  0  0  0
 13 34  1  0  0  0  0
 14 15  1  0  0  0  0
 14 23  2  0  0  0  0
 15 16  2  0  0  0  0
 15 35  1  0  0  0  0
 16 17  1  0  0  0  0
 16 36  1  0  0  0  0
 17 18  2  0  0  0  0
 17 37  1  0  0  0  0
 18 19  1  0  0  0  0
 18 23  1  0  0  0  0
 19 20  2  0  0  0  0
 19 38  1  0  0  0  0
 20 21  1  0  0  0  0
 20 39  1  0  0  0  0
 21 22  2  0  0  0  0
 21 40  1  0  0  0  0
 22 23  1  0  0  0  0
 22 41  1  0  0  0  0
 24 42  1  0  0  0  0
 24 43  1  0  0  0  0
 25 26  1  0  0  0  0
 25 44  1  0  0  0  0
 26 45  1  0  0  0  0
M  END
$$$$
