CHEMBL1172420
 OpenBabel04072215363D

 54 57  0  0  0  0  0  0  0  0999 V2000
   -7.1508   -5.8527   -3.0615 C   0  0  0  0  0  0  0  0  0  0  0  0
   -6.6795   -4.5588   -2.4679 C   0  0  0  0  0  0  0  0  0  0  0  0
   -7.4776   -3.4183   -2.5629 C   0  0  0  0  0  0  0  0  0  0  0  0
   -7.0357   -2.2181   -2.0355 C   0  0  0  0  0  0  0  0  0  0  0  0
   -5.8137   -2.0971   -1.3513 C   0  0  0  0  0  0  0  0  0  0  0  0
   -5.3592   -0.8743   -0.7895 N   0  0  0  0  0  0  0  0  0  0  0  0
   -6.1532    0.2497   -0.6372 C   0  0  0  0  0  0  0  0  0  0  0  0
   -7.3481    0.2933   -0.8864 O   0  0  0  0  0  0  0  0  0  0  0  0
   -5.4381    1.3754   -0.2263 N   0  0  0  0  0  0  0  0  0  0  0  0
   -6.0604    2.6421   -0.0287 C   0  0  0  0  0  0  0  0  0  0  0  0
   -5.3098    3.8110   -0.2890 C   0  0  0  0  0  0  0  0  0  0  0  0
   -5.8861    5.0951   -0.1763 C   0  0  0  0  0  0  0  0  0  0  0  0
   -7.2260    5.1852    0.1675 C   0  0  0  0  0  0  0  0  0  0  0  0
   -7.9806    4.0193    0.2580 C   0  0  0  0  0  0  0  0  0  0  0  0
   -7.4181    2.7617    0.2978 C   0  0  0  0  0  0  0  0  0  0  0  0
   -9.3214    4.2904   -0.0720 N   0  0  0  0  0  0  0  0  0  0  0  0
   -9.4063    5.5916   -0.5705 C   0  0  0  0  0  0  0  0  0  0  0  0
  -10.1592    6.0521   -1.4046 O   0  0  0  0  0  0  0  0  0  0  0  0
   -8.2173    6.2672    0.0572 C   0  0  0  0  0  0  0  0  0  0  0  0
   -8.6266    7.0462    1.0902 C   0  0  0  0  0  0  0  0  0  0  0  0
   -9.6351    8.0551    0.9749 C   0  0  0  0  0  0  0  0  0  0  0  0
   -9.8063    8.6555   -0.2470 N   0  0  0  0  0  0  0  0  0  0  0  0
  -10.6436    9.7346   -0.1584 C   0  0  0  0  0  0  0  0  0  0  0  0
  -10.9131   10.5411   -1.3806 C   0  0  0  0  0  0  0  0  0  0  0  0
  -11.1400    9.7752    1.1404 C   0  0  0  0  0  0  0  0  0  0  0  0
  -12.1079   10.7462    1.6726 C   0  0  0  0  0  0  0  0  0  0  0  0
  -12.9373   10.4941    2.5328 O   0  0  0  0  0  0  0  0  0  0  0  0
  -11.9746   11.9999    1.1669 O   0  0  0  0  0  0  0  0  0  0  0  0
  -10.5387    8.6564    1.8464 C   0  0  0  0  0  0  0  0  0  0  0  0
  -10.8382    8.2495    3.2496 C   0  0  0  0  0  0  0  0  0  0  0  0
   -5.0189   -3.2335   -1.2514 C   0  0  0  0  0  0  0  0  0  0  0  0
   -5.4453   -4.4623   -1.8072 C   0  0  0  0  0  0  0  0  0  0  0  0
   -8.1228   -5.7286   -3.5555 H   0  0  0  0  0  0  0  0  0  0  0  0
   -7.2712   -6.6104   -2.2824 H   0  0  0  0  0  0  0  0  0  0  0  0
   -6.4425   -6.2058   -3.8157 H   0  0  0  0  0  0  0  0  0  0  0  0
   -8.4333   -3.4518   -3.0710 H   0  0  0  0  0  0  0  0  0  0  0  0
   -7.6970   -1.3769   -2.1682 H   0  0  0  0  0  0  0  0  0  0  0  0
   -4.4787   -0.8937   -0.3042 H   0  0  0  0  0  0  0  0  0  0  0  0
   -4.4513    1.3759   -0.4349 H   0  0  0  0  0  0  0  0  0  0  0  0
   -4.3003    3.7266   -0.6887 H   0  0  0  0  0  0  0  0  0  0  0  0
   -5.3280    5.9680   -0.5041 H   0  0  0  0  0  0  0  0  0  0  0  0
   -8.0583    1.9042    0.4613 H   0  0  0  0  0  0  0  0  0  0  0  0
   -9.9730    3.5761   -0.3523 H   0  0  0  0  0  0  0  0  0  0  0  0
   -8.2223    6.8616    2.0842 H   0  0  0  0  0  0  0  0  0  0  0  0
   -9.3942    8.3186   -1.1090 H   0  0  0  0  0  0  0  0  0  0  0  0
  -10.4804   10.0713   -2.2715 H   0  0  0  0  0  0  0  0  0  0  0  0
  -10.4630   11.5342   -1.2896 H   0  0  0  0  0  0  0  0  0  0  0  0
  -11.9883   10.6498   -1.5468 H   0  0  0  0  0  0  0  0  0  0  0  0
  -11.1742   12.0668    0.6221 H   0  0  0  0  0  0  0  0  0  0  0  0
  -11.4080    9.0088    3.7929 H   0  0  0  0  0  0  0  0  0  0  0  0
   -9.9190    8.0696    3.8121 H   0  0  0  0  0  0  0  0  0  0  0  0
  -11.4326    7.3275    3.2517 H   0  0  0  0  0  0  0  0  0  0  0  0
   -4.0622   -3.2020   -0.7423 H   0  0  0  0  0  0  0  0  0  0  0  0
   -4.8133   -5.3388   -1.7124 H   0  0  0  0  0  0  0  0  0  0  0  0
  1  2  1  0  0  0  0
  1 33  1  0  0  0  0
  1 34  1  0  0  0  0
  1 35  1  0  0  0  0
  2  3  1  0  0  0  0
  2 32  2  0  0  0  0
  3  4  2  0  0  0  0
  3 36  1  0  0  0  0
  4  5  1  0  0  0  0
  4 37  1  0  0  0  0
  5  6  1  0  0  0  0
  5 31  2  0  0  0  0
  6  7  1  0  0  0  0
  6 38  1  0  0  0  0
  7  8  2  0  0  0  0
  7  9  1  0  0  0  0
  9 10  1  0  0  0  0
  9 39  1  0  0  0  0
 10 11  1  0  0  0  0
 10 15  2  0  0  0  0
 11 12  2  0  0  0  0
 11 40  1  0  0  0  0
 12 13  1  0  0  0  0
 12 41  1  0  0  0  0
 13 14  2  0  0  0  0
 13 19  1  0  0  0  0
 14 15  1  0  0  0  0
 14 16  1  0  0  0  0
 15 42  1  0  0  0  0
 16 17  1  0  0  0  0
 16 43  1  0  0  0  0
 17 18  2  0  0  0  0
 17 19  1  0  0  0  0
 19 20  2  0  0  0  0
 20 21  1  0  0  0  0
 20 44  1  0  0  0  0
 21 22  1  0  0  0  0
 21 29  2  0  0  0  0
 22 23  1  0  0  0  0
 22 45  1  0  0  0  0
 23 24  1  0  0  0  0
 23 25  2  0  0  0  0
 24 46  1  0  0  0  0
 24 47  1  0  0  0  0
 24 48  1  0  0  0  0
 25 26  1  0  0  0  0
 25 29  1  0  0  0  0
 26 27  2  0  0  0  0
 26 28  1  0  0  0  0
 28 49  1  0  0  0  0
 29 30  1  0  0  0  0
 30 50  1  0  0  0  0
 30 51  1  0  0  0  0
 30 52  1  0  0  0  0
 31 32  1  0  0  0  0
 31 53  1  0  0  0  0
 32 54  1  0  0  0  0
M  END
$$$$
