CHEMBL2023489
 OpenBabel04072215363D

 56 59  0  0  0  0  0  0  0  0999 V2000
    3.0891    1.5925    1.1561 C   0  0  0  0  0  0  0  0  0  0  0  0
    4.2939    0.9800    0.6947 O   0  0  0  0  0  0  0  0  0  0  0  0
    4.4335    0.8945   -0.6637 C   0  0  0  0  0  0  0  0  0  0  0  0
    3.5075    1.3578   -1.5784 C   0  0  0  0  0  0  0  0  0  0  0  0
    3.7268    1.1740   -2.9372 C   0  0  0  0  0  0  0  0  0  0  0  0
    4.9460    0.6681   -3.4413 C   0  0  0  0  0  0  0  0  0  0  0  0
    5.3261    0.6414   -4.8118 C   0  0  0  0  0  0  0  0  0  0  0  0
    4.6283    1.1422   -5.9086 O   0  0  0  0  0  0  0  0  0  0  0  0
    3.8087    2.2391   -5.8117 C   0  0  0  0  0  0  0  0  0  0  0  0
    4.0326    3.3243   -4.9710 C   0  0  0  0  0  0  0  0  0  0  0  0
    2.9927    4.2236   -4.7218 C   0  0  0  0  0  0  0  0  0  0  0  0
    1.7451    4.1041   -5.3687 C   0  0  0  0  0  0  0  0  0  0  0  0
    0.5856    4.9642   -4.9294 C   0  0  0  0  0  0  0  0  0  0  0  0
    0.5563    5.3396   -3.4667 C   0  0  0  0  0  0  0  0  0  0  0  0
    1.0019    6.4294   -3.0990 O   0  0  0  0  0  0  0  0  0  0  0  0
    0.0098    4.3633   -2.6532 N   0  0  0  0  0  0  0  0  0  0  0  0
   -0.2096    4.5386   -1.2973 C   0  0  0  0  0  0  0  0  0  0  0  0
   -0.2020    5.7278   -0.6127 C   0  0  0  0  0  0  0  0  0  0  0  0
   -0.4429    5.4312    0.6880 N   0  0  0  0  0  0  0  0  0  0  0  0
   -0.5242    6.3670    1.7794 C   0  0  0  0  0  0  0  0  0  0  0  0
   -0.6174    4.1130    0.9121 N   0  0  0  0  0  0  0  0  0  0  0  0
   -0.4948    3.5613   -0.3047 C   0  0  0  0  0  0  0  0  0  0  0  0
   -0.6112    2.0908   -0.4549 C   0  0  0  0  0  0  0  0  0  0  0  0
    1.6291    3.1641   -6.4089 C   0  0  0  0  0  0  0  0  0  0  0  0
    0.5471    2.9770   -7.2309 O   0  0  0  0  0  0  0  0  0  0  0  0
   -0.1974    4.1163   -7.6436 C   0  0  0  0  0  0  0  0  0  0  0  0
    2.6487    2.2168   -6.5949 C   0  0  0  0  0  0  0  0  0  0  0  0
    6.5133    0.0090   -5.1765 C   0  0  0  0  0  0  0  0  0  0  0  0
    7.3139   -0.5071   -4.1809 C   0  0  0  0  0  0  0  0  0  0  0  0
    7.0263   -0.4230   -2.8692 N   0  0  0  0  0  0  0  0  0  0  0  0
    5.8712    0.1633   -2.5006 C   0  0  0  0  0  0  0  0  0  0  0  0
    5.5942    0.2726   -1.1391 C   0  0  0  0  0  0  0  0  0  0  0  0
    3.0607    1.5283    2.2429 H   0  0  0  0  0  0  0  0  0  0  0  0
    2.2041    1.0638    0.7725 H   0  0  0  0  0  0  0  0  0  0  0  0
    3.0614    2.6513    0.8758 H   0  0  0  0  0  0  0  0  0  0  0  0
    2.6038    1.8771   -1.2811 H   0  0  0  0  0  0  0  0  0  0  0  0
    2.9243    1.4754   -3.6005 H   0  0  0  0  0  0  0  0  0  0  0  0
    4.9542    3.4062   -4.4025 H   0  0  0  0  0  0  0  0  0  0  0  0
    3.1515    4.9768   -3.9508 H   0  0  0  0  0  0  0  0  0  0  0  0
   -0.3615    4.4406   -5.1033 H   0  0  0  0  0  0  0  0  0  0  0  0
    0.5729    5.8933   -5.5135 H   0  0  0  0  0  0  0  0  0  0  0  0
   -0.1585    3.4389   -3.0330 H   0  0  0  0  0  0  0  0  0  0  0  0
   -0.0527    6.7500   -0.9413 H   0  0  0  0  0  0  0  0  0  0  0  0
   -0.4416    7.3855    1.3886 H   0  0  0  0  0  0  0  0  0  0  0  0
    0.2981    6.1666    2.4687 H   0  0  0  0  0  0  0  0  0  0  0  0
   -1.4892    6.2390    2.2737 H   0  0  0  0  0  0  0  0  0  0  0  0
   -0.5856    1.5874    0.5182 H   0  0  0  0  0  0  0  0  0  0  0  0
    0.2190    1.7004   -1.0502 H   0  0  0  0  0  0  0  0  0  0  0  0
   -1.5478    1.8251   -0.9527 H   0  0  0  0  0  0  0  0  0  0  0  0
   -0.5663    3.9431   -8.6602 H   0  0  0  0  0  0  0  0  0  0  0  0
    0.3873    5.0429   -7.6598 H   0  0  0  0  0  0  0  0  0  0  0  0
   -1.0834    4.2213   -7.0115 H   0  0  0  0  0  0  0  0  0  0  0  0
    2.5177    1.4298   -7.3326 H   0  0  0  0  0  0  0  0  0  0  0  0
    6.8080   -0.0749   -6.2176 H   0  0  0  0  0  0  0  0  0  0  0  0
    8.2465   -1.0146   -4.4174 H   0  0  0  0  0  0  0  0  0  0  0  0
    6.3132   -0.1214   -0.4253 H   0  0  0  0  0  0  0  0  0  0  0  0
  1  2  1  0  0  0  0
  1 33  1  0  0  0  0
  1 34  1  0  0  0  0
  1 35  1  0  0  0  0
  2  3  1  0  0  0  0
  3  4  1  0  0  0  0
  3 32  2  0  0  0  0
  4  5  2  0  0  0  0
  4 36  1  0  0  0  0
  5  6  1  0  0  0  0
  5 37  1  0  0  0  0
  6  7  1  0  0  0  0
  6 31  2  0  0  0  0
  7  8  1  0  0  0  0
  7 28  2  0  0  0  0
  8  9  1  0  0  0  0
  9 10  1  0  0  0  0
  9 27  2  0  0  0  0
 10 11  2  0  0  0  0
 10 38  1  0  0  0  0
 11 12  1  0  0  0  0
 11 39  1  0  0  0  0
 12 13  1  0  0  0  0
 12 24  2  0  0  0  0
 13 14  1  0  0  0  0
 13 40  1  0  0  0  0
 13 41  1  0  0  0  0
 14 15  2  0  0  0  0
 14 16  1  0  0  0  0
 16 17  1  0  0  0  0
 16 42  1  0  0  0  0
 17 18  2  0  0  0  0
 17 22  1  0  0  0  0
 18 19  1  0  0  0  0
 18 43  1  0  0  0  0
 19 20  1  0  0  0  0
 19 21  1  0  0  0  0
 20 44  1  0  0  0  0
 20 45  1  0  0  0  0
 20 46  1  0  0  0  0
 21 22  2  0  0  0  0
 22 23  1  0  0  0  0
 23 47  1  0  0  0  0
 23 48  1  0  0  0  0
 23 49  1  0  0  0  0
 24 25  1  0  0  0  0
 24 27  1  0  0  0  0
 25 26  1  0  0  0  0
 26 50  1  0  0  0  0
 26 51  1  0  0  0  0
 26 52  1  0  0  0  0
 27 53  1  0  0  0  0
 28 29  1  0  0  0  0
 28 54  1  0  0  0  0
 29 30  2  0  0  0  0
 29 55  1  0  0  0  0
 30 31  1  0  0  0  0
 31 32  1  0  0  0  0
 32 56  1  0  0  0  0
M  END
$$$$
