CHEMBL3945350
 OpenBabel04072215373D

 64 68  0  0  0  0  0  0  0  0999 V2000
    2.7286    0.2793   -1.1622 O   0  0  0  0  0  0  0  0  0  0  0  0
    2.2928    0.0225   -0.0434 C   0  0  0  0  0  0  0  0  0  0  0  0
    0.9393   -0.0570    0.2595 N   0  0  0  0  0  0  0  0  0  0  0  0
   -0.1258    0.1484   -0.6548 C   0  0  0  0  0  0  0  0  0  0  0  0
    0.0530    0.2085   -2.0421 C   0  0  0  0  0  0  0  0  0  0  0  0
   -1.0236    0.3912   -2.9195 C   0  0  0  0  0  0  0  0  0  0  0  0
   -0.8270    0.3457   -4.3355 N   0  0  0  0  0  0  0  0  0  0  0  0
    0.4300    0.8727   -4.8846 C   0  0  0  0  0  0  0  0  0  0  0  0
    0.4214    0.9651   -6.4065 C   0  0  0  0  0  0  0  0  0  0  0  0
    0.1147   -0.3184   -6.9422 O   0  0  0  0  0  0  0  0  0  0  0  0
   -1.2030   -0.6898   -6.5722 C   0  0  0  0  0  0  0  0  0  0  0  0
   -1.6434   -0.4907   -5.1115 C   0  0  0  0  0  0  0  0  0  0  0  0
   -2.6635   -1.0512   -4.7045 O   0  0  0  0  0  0  0  0  0  0  0  0
   -2.3016    0.5535   -2.3824 C   0  0  0  0  0  0  0  0  0  0  0  0
   -2.5153    0.4925   -0.9977 C   0  0  0  0  0  0  0  0  0  0  0  0
   -3.9050    0.6330   -0.4319 C   0  0  0  0  0  0  0  0  0  0  0  0
   -4.8644    0.8703   -1.3677 F   0  0  0  0  0  0  0  0  0  0  0  0
   -4.3028   -0.4803    0.2435 F   0  0  0  0  0  0  0  0  0  0  0  0
   -3.9953    1.6591    0.4604 F   0  0  0  0  0  0  0  0  0  0  0  0
   -1.4194    0.2766   -0.1415 C   0  0  0  0  0  0  0  0  0  0  0  0
    3.0885   -0.1875    1.0728 N   0  0  0  0  0  0  0  0  0  0  0  0
    4.4951   -0.0289    1.1316 C   0  0  0  0  0  0  0  0  0  0  0  0
    5.2645    0.4336    0.0585 C   0  0  0  0  0  0  0  0  0  0  0  0
    6.6478    0.6008    0.1723 C   0  0  0  0  0  0  0  0  0  0  0  0
    7.3021    0.2573    1.3534 C   0  0  0  0  0  0  0  0  0  0  0  0
    8.6660    0.3683    1.5287 O   0  0  0  0  0  0  0  0  0  0  0  0
    9.4982    0.1313    0.4516 C   0  0  0  0  0  0  0  0  0  0  0  0
    9.2543   -0.8622   -0.4918 C   0  0  0  0  0  0  0  0  0  0  0  0
   10.1300   -0.9686   -1.5480 C   0  0  0  0  0  0  0  0  0  0  0  0
   11.2250   -0.1994   -1.6799 N   0  0  0  0  0  0  0  0  0  0  0  0
   11.4975    0.7126   -0.7366 C   0  0  0  0  0  0  0  0  0  0  0  0
   12.6619    1.4893   -0.8392 N   0  0  0  0  0  0  0  0  0  0  0  0
   13.5490    1.4113   -1.8959 C   0  0  0  0  0  0  0  0  0  0  0  0
   13.4711    0.7031   -2.8873 O   0  0  0  0  0  0  0  0  0  0  0  0
   14.7477    2.2969   -1.7412 C   0  0  0  0  0  0  0  0  0  0  0  0
   15.6943    2.4891   -2.9101 C   0  0  0  0  0  0  0  0  0  0  0  0
   16.1257    1.6738   -1.7270 C   0  0  0  0  0  0  0  0  0  0  0  0
   10.6543    0.9113    0.3534 C   0  0  0  0  0  0  0  0  0  0  0  0
    6.5347   -0.1716    2.4365 C   0  0  0  0  0  0  0  0  0  0  0  0
    7.1249   -0.4566    3.6070 F   0  0  0  0  0  0  0  0  0  0  0  0
    5.1461   -0.3179    2.3349 C   0  0  0  0  0  0  0  0  0  0  0  0
    0.6890   -0.1271    1.2336 H   0  0  0  0  0  0  0  0  0  0  0  0
    1.0307    0.0172   -2.4648 H   0  0  0  0  0  0  0  0  0  0  0  0
    1.2452    0.2080   -4.5826 H   0  0  0  0  0  0  0  0  0  0  0  0
    0.5987    1.8730   -4.4670 H   0  0  0  0  0  0  0  0  0  0  0  0
    1.4113    1.2567   -6.7716 H   0  0  0  0  0  0  0  0  0  0  0  0
   -0.3051    1.6993   -6.7737 H   0  0  0  0  0  0  0  0  0  0  0  0
   -1.3069   -1.7572   -6.7956 H   0  0  0  0  0  0  0  0  0  0  0  0
   -1.9102   -0.1438   -7.2063 H   0  0  0  0  0  0  0  0  0  0  0  0
   -3.1477    0.7267   -3.0469 H   0  0  0  0  0  0  0  0  0  0  0  0
   -1.5967    0.2154    0.9307 H   0  0  0  0  0  0  0  0  0  0  0  0
    2.6359   -0.5385    1.9033 H   0  0  0  0  0  0  0  0  0  0  0  0
    4.8273    0.6865   -0.9018 H   0  0  0  0  0  0  0  0  0  0  0  0
    7.1909    0.9883   -0.6858 H   0  0  0  0  0  0  0  0  0  0  0  0
    8.3979   -1.5223   -0.4366 H   0  0  0  0  0  0  0  0  0  0  0  0
    9.9769   -1.6877   -2.3463 H   0  0  0  0  0  0  0  0  0  0  0  0
   12.8666    2.1305   -0.0925 H   0  0  0  0  0  0  0  0  0  0  0  0
   14.6032    3.1685   -1.1123 H   0  0  0  0  0  0  0  0  0  0  0  0
   16.1425    3.4648   -3.0539 H   0  0  0  0  0  0  0  0  0  0  0  0
   15.4826    1.9642   -3.8372 H   0  0  0  0  0  0  0  0  0  0  0  0
   16.8767    2.0947   -1.0708 H   0  0  0  0  0  0  0  0  0  0  0  0
   16.2059    0.5991   -1.8655 H   0  0  0  0  0  0  0  0  0  0  0  0
   10.8695    1.6520    1.1162 H   0  0  0  0  0  0  0  0  0  0  0  0
    4.6009   -0.6563    3.2101 H   0  0  0  0  0  0  0  0  0  0  0  0
  1  2  2  0  0  0  0
  2  3  1  0  0  0  0
  2 21  1  0  0  0  0
  3  4  1  0  0  0  0
  3 42  1  0  0  0  0
  4  5  1  0  0  0  0
  4 20  2  0  0  0  0
  5  6  2  0  0  0  0
  5 43  1  0  0  0  0
  6  7  1  0  0  0  0
  6 14  1  0  0  0  0
  7  8  1  0  0  0  0
  7 12  1  0  0  0  0
  8  9  1  0  0  0  0
  8 44  1  0  0  0  0
  8 45  1  0  0  0  0
  9 10  1  0  0  0  0
  9 46  1  0  0  0  0
  9 47  1  0  0  0  0
 10 11  1  0  0  0  0
 11 12  1  0  0  0  0
 11 48  1  0  0  0  0
 11 49  1  0  0  0  0
 12 13  2  0  0  0  0
 14 15  2  0  0  0  0
 14 50  1  0  0  0  0
 15 16  1  0  0  0  0
 15 20  1  0  0  0  0
 16 17  1  0  0  0  0
 16 18  1  0  0  0  0
 16 19  1  0  0  0  0
 20 51  1  0  0  0  0
 21 22  1  0  0  0  0
 21 52  1  0  0  0  0
 22 23  1  0  0  0  0
 22 41  2  0  0  0  0
 23 24  2  0  0  0  0
 23 53  1  0  0  0  0
 24 25  1  0  0  0  0
 24 54  1  0  0  0  0
 25 26  1  0  0  0  0
 25 39  2  0  0  0  0
 26 27  1  0  0  0  0
 27 28  1  0  0  0  0
 27 38  2  0  0  0  0
 28 29  2  0  0  0  0
 28 55  1  0  0  0  0
 29 30  1  0  0  0  0
 29 56  1  0  0  0  0
 30 31  2  0  0  0  0
 31 32  1  0  0  0  0
 31 38  1  0  0  0  0
 32 33  1  0  0  0  0
 32 57  1  0  0  0  0
 33 34  2  0  0  0  0
 33 35  1  0  0  0  0
 35 36  1  0  0  0  0
 35 37  1  0  0  0  0
 35 58  1  0  0  0  0
 36 37  1  0  0  0  0
 36 59  1  0  0  0  0
 36 60  1  0  0  0  0
 37 61  1  0  0  0  0
 37 62  1  0  0  0  0
 38 63  1  0  0  0  0
 39 40  1  0  0  0  0
 39 41  1  0  0  0  0
 41 64  1  0  0  0  0
M  END
$$$$
