CHEMBL224497
 OpenBabel04072215363D

 69 74  0  0  0  0  0  0  0  0999 V2000
  -13.5856    3.8801    6.5365 C   0  0  0  0  0  0  0  0  0  0  0  0
  -12.8752    2.7551    5.8353 C   0  0  0  0  0  0  0  0  0  0  0  0
  -11.4741    2.7454    5.7969 C   0  0  0  0  0  0  0  0  0  0  0  0
  -10.7764    1.7186    5.1543 C   0  0  0  0  0  0  0  0  0  0  0  0
  -11.4711    0.6803    4.5383 C   0  0  0  0  0  0  0  0  0  0  0  0
  -10.9132   -0.3844    3.8818 O   0  0  0  0  0  0  0  0  0  0  0  0
   -9.4904   -0.4352    3.8574 C   0  0  0  0  0  0  0  0  0  0  0  0
   -9.0469   -1.6895    3.1223 C   0  0  0  0  0  0  0  0  0  0  0  0
   -8.6664   -2.7654    2.4916 C   0  0  0  0  0  0  0  0  0  0  0  0
   -8.2356   -3.8560    1.6454 C   0  0  0  0  0  0  0  0  0  0  0  0
   -9.0196   -4.9302    1.2895 C   0  0  0  0  0  0  0  0  0  0  0  0
   -8.3731   -5.9108    0.4278 C   0  0  0  0  0  0  0  0  0  0  0  0
   -9.1570   -7.1514    0.0064 C   0  0  0  0  0  0  0  0  0  0  0  0
  -10.2514   -7.4148    0.7551 N   0  0  0  0  0  0  0  0  0  0  0  0
  -11.2451   -6.9952   -0.0783 N   0  0  0  0  0  0  0  0  0  0  0  0
  -10.7816   -6.8391   -1.3512 C   0  0  0  0  0  0  0  0  0  0  0  0
   -9.5539   -7.5230   -1.3351 C   0  0  0  0  0  0  0  0  0  0  0  0
   -8.9718   -7.4721   -2.7159 C   0  0  0  0  0  0  0  0  0  0  0  0
   -9.4010   -6.0412   -3.0027 C   0  0  0  0  0  0  0  0  0  0  0  0
   -8.4712   -5.1356   -3.4879 C   0  0  0  0  0  0  0  0  0  0  0  0
   -8.5361   -3.8402   -2.9842 C   0  0  0  0  0  0  0  0  0  0  0  0
   -7.2230   -3.0875   -2.7918 C   0  0  0  0  0  0  0  0  0  0  0  0
   -6.2313   -3.1904   -3.8721 N   0  0  0  0  0  0  0  0  0  0  0  0
   -6.6558   -2.4303   -5.0545 C   0  0  0  0  0  0  0  0  0  0  0  0
   -5.5705   -2.4473   -6.1503 C   0  0  0  0  0  0  0  0  0  0  0  0
   -4.2624   -1.9048   -5.7299 N   0  0  0  0  0  0  0  0  0  0  0  0
   -4.3094   -0.4556   -5.5453 C   0  0  0  0  0  0  0  0  0  0  0  0
   -3.8359   -2.5955   -4.4967 C   0  0  0  0  0  0  0  0  0  0  0  0
   -4.9190   -2.6904   -3.3919 C   0  0  0  0  0  0  0  0  0  0  0  0
   -9.6987   -3.4215   -2.2816 C   0  0  0  0  0  0  0  0  0  0  0  0
  -10.7231   -4.3257   -1.9167 C   0  0  0  0  0  0  0  0  0  0  0  0
  -10.5368   -5.6655   -2.2199 C   0  0  0  0  0  0  0  0  0  0  0  0
   -7.1198   -5.4637    0.0745 C   0  0  0  0  0  0  0  0  0  0  0  0
   -6.7033   -3.9849    0.8932 S   0  0  0  0  0  0  0  0  0  0  0  0
  -12.8685    0.6875    4.5657 C   0  0  0  0  0  0  0  0  0  0  0  0
  -13.5837    1.7143    5.2064 C   0  0  0  0  0  0  0  0  0  0  0  0
  -15.0874    1.6826    5.1998 C   0  0  0  0  0  0  0  0  0  0  0  0
  -12.8798    4.5883    6.9842 H   0  0  0  0  0  0  0  0  0  0  0  0
  -14.2127    3.4887    7.3437 H   0  0  0  0  0  0  0  0  0  0  0  0
  -14.2049    4.4364    5.8262 H   0  0  0  0  0  0  0  0  0  0  0  0
  -10.9090    3.5463    6.2693 H   0  0  0  0  0  0  0  0  0  0  0  0
   -9.6930    1.7696    5.1569 H   0  0  0  0  0  0  0  0  0  0  0  0
   -9.0862   -0.4784    4.8758 H   0  0  0  0  0  0  0  0  0  0  0  0
   -9.0856    0.4320    3.3224 H   0  0  0  0  0  0  0  0  0  0  0  0
  -10.0408   -5.0240    1.6331 H   0  0  0  0  0  0  0  0  0  0  0  0
  -12.1858   -7.0421    0.2736 H   0  0  0  0  0  0  0  0  0  0  0  0
   -9.5200   -8.1454   -3.3878 H   0  0  0  0  0  0  0  0  0  0  0  0
   -7.9012   -7.6497   -2.7755 H   0  0  0  0  0  0  0  0  0  0  0  0
   -7.5602   -5.4998   -3.9573 H   0  0  0  0  0  0  0  0  0  0  0  0
   -6.7694   -3.5847   -1.9299 H   0  0  0  0  0  0  0  0  0  0  0  0
   -7.4036   -2.0491   -2.4957 H   0  0  0  0  0  0  0  0  0  0  0  0
   -6.8879   -1.3952   -4.7808 H   0  0  0  0  0  0  0  0  0  0  0  0
   -7.5682   -2.8665   -5.4756 H   0  0  0  0  0  0  0  0  0  0  0  0
   -5.9308   -1.9104   -7.0350 H   0  0  0  0  0  0  0  0  0  0  0  0
   -5.4165   -3.4853   -6.4764 H   0  0  0  0  0  0  0  0  0  0  0  0
   -4.7343    0.0341   -6.4287 H   0  0  0  0  0  0  0  0  0  0  0  0
   -3.2946   -0.0594   -5.4286 H   0  0  0  0  0  0  0  0  0  0  0  0
   -4.8953   -0.1456   -4.6741 H   0  0  0  0  0  0  0  0  0  0  0  0
   -2.9354   -2.1189   -4.0870 H   0  0  0  0  0  0  0  0  0  0  0  0
   -3.5278   -3.6132   -4.7705 H   0  0  0  0  0  0  0  0  0  0  0  0
   -5.0375   -1.7027   -2.9277 H   0  0  0  0  0  0  0  0  0  0  0  0
   -4.5403   -3.3639   -2.6124 H   0  0  0  0  0  0  0  0  0  0  0  0
   -9.7299   -2.4134   -1.8684 H   0  0  0  0  0  0  0  0  0  0  0  0
  -11.4875   -4.0005   -1.2168 H   0  0  0  0  0  0  0  0  0  0  0  0
   -6.4000   -5.9008   -0.6042 H   0  0  0  0  0  0  0  0  0  0  0  0
  -13.4032   -0.1244    4.0762 H   0  0  0  0  0  0  0  0  0  0  0  0
  -15.4691    0.8020    4.6727 H   0  0  0  0  0  0  0  0  0  0  0  0
  -15.4841    2.5683    4.6930 H   0  0  0  0  0  0  0  0  0  0  0  0
  -15.4707    1.6456    6.2242 H   0  0  0  0  0  0  0  0  0  0  0  0
  1  2  1  0  0  0  0
  1 38  1  0  0  0  0
  1 39  1  0  0  0  0
  1 40  1  0  0  0  0
  2  3  1  0  0  0  0
  2 36  2  0  0  0  0
  3  4  2  0  0  0  0
  3 41  1  0  0  0  0
  4  5  1  0  0  0  0
  4 42  1  0  0  0  0
  5  6  1  0  0  0  0
  5 35  2  0  0  0  0
  6  7  1  0  0  0  0
  7  8  1  0  0  0  0
  7 43  1  0  0  0  0
  7 44  1  0  0  0  0
  8  9  3  0  0  0  0
  9 10  1  0  0  0  0
 10 11  2  0  0  0  0
 10 34  1  0  0  0  0
 11 12  1  0  0  0  0
 11 45  1  0  0  0  0
 12 13  1  0  0  0  0
 12 33  2  0  0  0  0
 13 14  2  0  0  0  0
 13 17  1  0  0  0  0
 14 15  1  0  0  0  0
 15 16  1  0  0  0  0
 15 46  1  0  0  0  0
 16 17  2  0  0  0  0
 16 32  1  0  0  0  0
 17 18  1  0  0  0  0
 18 19  1  0  0  0  0
 18 47  1  0  0  0  0
 18 48  1  0  0  0  0
 19 20  1  0  0  0  0
 19 32  2  0  0  0  0
 20 21  2  0  0  0  0
 20 49  1  0  0  0  0
 21 22  1  0  0  0  0
 21 30  1  0  0  0  0
 22 23  1  0  0  0  0
 22 50  1  0  0  0  0
 22 51  1  0  0  0  0
 23 24  1  0  0  0  0
 23 29  1  0  0  0  0
 24 25  1  0  0  0  0
 24 52  1  0  0  0  0
 24 53  1  0  0  0  0
 25 26  1  0  0  0  0
 25 54  1  0  0  0  0
 25 55  1  0  0  0  0
 26 27  1  0  0  0  0
 26 28  1  0  0  0  0
 27 56  1  0  0  0  0
 27 57  1  0  0  0  0
 27 58  1  0  0  0  0
 28 29  1  0  0  0  0
 28 59  1  0  0  0  0
 28 60  1  0  0  0  0
 29 61  1  0  0  0  0
 29 62  1  0  0  0  0
 30 31  2  0  0  0  0
 30 63  1  0  0  0  0
 31 32  1  0  0  0  0
 31 64  1  0  0  0  0
 33 34  1  0  0  0  0
 33 65  1  0  0  0  0
 35 36  1  0  0  0  0
 35 66  1  0  0  0  0
 36 37  1  0  0  0  0
 37 67  1  0  0  0  0
 37 68  1  0  0  0  0
 37 69  1  0  0  0  0
M  END
$$$$
