CHEMBL45683
 OpenBabel04072215383D

 77 83  0  0  1  0  0  0  0  0999 V2000
   -4.7790    2.1394    7.8757 C   0  0  0  0  0  0  0  0  0  0  0  0
   -3.3461    2.3372    7.6696 N   0  0  0  0  0  0  0  0  0  0  0  0
   -2.5765    1.4163    8.5245 C   0  0  0  0  0  0  0  0  0  0  0  0
   -1.0560    1.4616    8.2559 C   0  0  0  0  0  0  0  0  0  0  0  0
   -0.6847    1.2537    6.8512 N   0  0  0  0  0  0  0  0  0  0  0  0
   -0.2867   -0.1109    6.4823 C   0  0  1  0  0  0  0  0  0  0  0  0
   -1.2716   -1.2688    6.7335 C   0  0  0  0  0  0  0  0  0  0  0  0
   -2.3042   -1.4780    5.6333 C   0  0  0  0  0  0  0  0  0  0  0  0
   -1.6756   -1.6331    4.2422 C   0  0  2  0  0  0  0  0  0  0  0  0
   -1.1577   -2.9863    4.0561 N   0  0  0  0  0  0  0  0  0  0  0  0
    0.1206   -3.2899    4.3557 N   0  0  0  0  0  0  0  0  0  0  0  0
    0.1888   -4.6271    4.2373 C   0  0  0  0  0  0  0  0  0  0  0  0
    1.4427   -5.3294    4.5274 C   0  0  0  0  0  0  0  0  0  0  0  0
    2.3011   -4.8677    5.5315 C   0  0  0  0  0  0  0  0  0  0  0  0
    3.4244   -5.6167    5.9131 C   0  0  0  0  0  0  0  0  0  0  0  0
    3.6995   -6.8492    5.3166 C   0  0  0  0  0  0  0  0  0  0  0  0
    4.7901   -7.6702    5.6446 N   0  0  0  0  0  0  0  0  0  0  0  0
    5.2750   -7.6292    7.0158 C   0  0  0  0  0  0  0  0  0  0  0  0
    6.3439   -8.6345    7.2714 C   0  0  0  0  0  0  0  0  0  0  0  0
    7.6308   -8.4792    7.7467 C   0  0  0  0  0  0  0  0  0  0  0  0
    8.1725   -9.7733    7.9709 C   0  0  0  0  0  0  0  0  0  0  0  0
    9.3805  -10.2423    8.5212 C   0  0  0  0  0  0  0  0  0  0  0  0
    9.5805  -11.6202    8.6572 C   0  0  0  0  0  0  0  0  0  0  0  0
    8.6106  -12.5238    8.2279 C   0  0  0  0  0  0  0  0  0  0  0  0
    7.4142  -12.0813    7.6528 C   0  0  0  0  0  0  0  0  0  0  0  0
    7.2167  -10.6987    7.5518 C   0  0  0  0  0  0  0  0  0  0  0  0
    6.1396   -9.9804    7.0804 N   0  0  0  0  0  0  0  0  0  0  0  0
    2.9083   -7.2401    4.2322 C   0  0  0  0  0  0  0  0  0  0  0  0
    1.7997   -6.4878    3.8351 C   0  0  0  0  0  0  0  0  0  0  0  0
   -1.0870   -5.1788    3.8883 C   0  0  0  0  0  0  0  0  0  0  0  0
   -1.6889   -6.4315    3.7194 C   0  0  0  0  0  0  0  0  0  0  0  0
   -1.0726   -7.6527    3.9583 N   0  0  0  0  0  0  0  0  0  0  0  0
   -2.9851   -6.4877    3.3479 N   0  0  0  0  0  0  0  0  0  0  0  0
   -3.6588   -5.3350    3.1819 C   0  0  0  0  0  0  0  0  0  0  0  0
   -3.2104   -4.0851    3.3734 N   0  0  0  0  0  0  0  0  0  0  0  0
   -1.9123   -4.0791    3.7240 C   0  0  0  0  0  0  0  0  0  0  0  0
   -0.6570   -0.5248    3.9394 C   0  0  0  0  0  0  0  0  0  0  0  0
    0.3324   -0.2389    5.0752 C   0  0  0  0  0  0  0  0  0  0  0  0
   -1.4701    2.1258    5.9827 C   0  0  0  0  0  0  0  0  0  0  0  0
   -2.9947    2.1592    6.2528 C   0  0  0  0  0  0  0  0  0  0  0  0
   -5.0460    2.3229    8.9212 H   0  0  0  0  0  0  0  0  0  0  0  0
   -5.0976    1.1222    7.6150 H   0  0  0  0  0  0  0  0  0  0  0  0
   -5.3588    2.8443    7.2687 H   0  0  0  0  0  0  0  0  0  0  0  0
   -2.9446    0.3934    8.3984 H   0  0  0  0  0  0  0  0  0  0  0  0
   -2.7404    1.6837    9.5754 H   0  0  0  0  0  0  0  0  0  0  0  0
   -0.5364    0.7569    8.9156 H   0  0  0  0  0  0  0  0  0  0  0  0
   -0.6885    2.4549    8.5502 H   0  0  0  0  0  0  0  0  0  0  0  0
    0.5560   -0.3154    7.1608 H   0  0  0  0  0  0  0  0  0  0  0  0
   -1.7690   -1.1729    7.7011 H   0  0  0  0  0  0  0  0  0  0  0  0
   -0.6862   -2.1940    6.8290 H   0  0  0  0  0  0  0  0  0  0  0  0
   -2.9992   -0.6411    5.6150 H   0  0  0  0  0  0  0  0  0  0  0  0
   -2.9141   -2.3559    5.8818 H   0  0  0  0  0  0  0  0  0  0  0  0
   -2.4762   -1.5379    3.4957 H   0  0  0  0  0  0  0  0  0  0  0  0
    2.0955   -3.9245    6.0359 H   0  0  0  0  0  0  0  0  0  0  0  0
    4.0632   -5.2074    6.6897 H   0  0  0  0  0  0  0  0  0  0  0  0
    5.5500   -7.4759    4.9944 H   0  0  0  0  0  0  0  0  0  0  0  0
    4.4454   -7.8355    7.7068 H   0  0  0  0  0  0  0  0  0  0  0  0
    5.6682   -6.6359    7.2579 H   0  0  0  0  0  0  0  0  0  0  0  0
    8.1091   -7.5362    7.9789 H   0  0  0  0  0  0  0  0  0  0  0  0
   10.1375   -9.5429    8.8626 H   0  0  0  0  0  0  0  0  0  0  0  0
   10.4989  -11.9856    9.1099 H   0  0  0  0  0  0  0  0  0  0  0  0
    8.7839  -13.5910    8.3475 H   0  0  0  0  0  0  0  0  0  0  0  0
    6.6617  -12.7891    7.3216 H   0  0  0  0  0  0  0  0  0  0  0  0
    5.2954  -10.3832    6.6931 H   0  0  0  0  0  0  0  0  0  0  0  0
    3.1290   -8.1695    3.7110 H   0  0  0  0  0  0  0  0  0  0  0  0
    1.2094   -6.8404    2.9921 H   0  0  0  0  0  0  0  0  0  0  0  0
   -0.3828   -7.6341    4.7003 H   0  0  0  0  0  0  0  0  0  0  0  0
   -1.7698   -8.3841    4.0375 H   0  0  0  0  0  0  0  0  0  0  0  0
   -4.6936   -5.4318    2.8682 H   0  0  0  0  0  0  0  0  0  0  0  0
   -1.2179    0.3843    3.7051 H   0  0  0  0  0  0  0  0  0  0  0  0
   -0.0961   -0.7604    3.0276 H   0  0  0  0  0  0  0  0  0  0  0  0
    0.9277    0.6495    4.8345 H   0  0  0  0  0  0  0  0  0  0  0  0
    1.0637   -1.0571    5.1116 H   0  0  0  0  0  0  0  0  0  0  0  0
   -1.2758    1.9624    4.9235 H   0  0  0  0  0  0  0  0  0  0  0  0
   -1.0988    3.1475    6.1534 H   0  0  0  0  0  0  0  0  0  0  0  0
   -3.4560    1.2538    5.8509 H   0  0  0  0  0  0  0  0  0  0  0  0
   -3.4159    2.9941    5.6779 H   0  0  0  0  0  0  0  0  0  0  0  0
  1  2  1  0  0  0  0
  1 41  1  0  0  0  0
  1 42  1  0  0  0  0
  1 43  1  0  0  0  0
  2  3  1  0  0  0  0
  2 40  1  0  0  0  0
  3  4  1  0  0  0  0
  3 44  1  0  0  0  0
  3 45  1  0  0  0  0
  4  5  1  0  0  0  0
  4 46  1  0  0  0  0
  4 47  1  0  0  0  0
  5 39  1  0  0  0  0
  6  7  1  0  0  0  0
  6 38  1  0  0  0  0
  6  5  1  0  0  0  0
  6 48  1  1  0  0  0
  7  8  1  0  0  0  0
  7 49  1  0  0  0  0
  7 50  1  0  0  0  0
  8  9  1  0  0  0  0
  8 51  1  0  0  0  0
  8 52  1  0  0  0  0
  9 37  1  0  0  0  0
  9 10  1  0  0  0  0
  9 53  1  6  0  0  0
 10 11  1  0  0  0  0
 10 36  1  0  0  0  0
 11 12  2  0  0  0  0
 12 13  1  0  0  0  0
 12 30  1  0  0  0  0
 13 14  1  0  0  0  0
 13 29  2  0  0  0  0
 14 15  2  0  0  0  0
 14 54  1  0  0  0  0
 15 16  1  0  0  0  0
 15 55  1  0  0  0  0
 16 17  1  0  0  0  0
 16 28  2  0  0  0  0
 17 18  1  0  0  0  0
 17 56  1  0  0  0  0
 18 19  1  0  0  0  0
 18 57  1  0  0  0  0
 18 58  1  0  0  0  0
 19 20  2  0  0  0  0
 19 27  1  0  0  0  0
 20 21  1  0  0  0  0
 20 59  1  0  0  0  0
 21 22  1  0  0  0  0
 21 26  2  0  0  0  0
 22 23  2  0  0  0  0
 22 60  1  0  0  0  0
 23 24  1  0  0  0  0
 23 61  1  0  0  0  0
 24 25  2  0  0  0  0
 24 62  1  0  0  0  0
 25 26  1  0  0  0  0
 25 63  1  0  0  0  0
 26 27  1  0  0  0  0
 27 64  1  0  0  0  0
 28 29  1  0  0  0  0
 28 65  1  0  0  0  0
 29 66  1  0  0  0  0
 30 31  1  0  0  0  0
 30 36  2  0  0  0  0
 31 32  1  0  0  0  0
 31 33  2  0  0  0  0
 32 67  1  0  0  0  0
 32 68  1  0  0  0  0
 33 34  1  0  0  0  0
 34 35  2  0  0  0  0
 34 69  1  0  0  0  0
 35 36  1  0  0  0  0
 37 38  1  0  0  0  0
 37 70  1  0  0  0  0
 37 71  1  0  0  0  0
 38 72  1  0  0  0  0
 38 73  1  0  0  0  0
 39 40  1  0  0  0  0
 39 74  1  0  0  0  0
 39 75  1  0  0  0  0
 40 76  1  0  0  0  0
 40 77  1  0  0  0  0
M  END
$$$$
