CHEMBL595142
 OpenBabel04072215383D

 72 77  0  0  0  0  0  0  0  0999 V2000
    3.1054   -0.0358   -1.1937 C   0  0  0  0  0  0  0  0  0  0  0  0
    2.5118   -0.3699    0.0648 O   0  0  0  0  0  0  0  0  0  0  0  0
    3.1506   -0.0608    1.2368 C   0  0  0  0  0  0  0  0  0  0  0  0
    4.2576    0.7770    1.2547 C   0  0  0  0  0  0  0  0  0  0  0  0
    4.9289    1.1125    2.4376 C   0  0  0  0  0  0  0  0  0  0  0  0
    6.0243    1.9823    2.4601 C   0  0  0  0  0  0  0  0  0  0  0  0
    6.4003    2.6839    1.2782 N   0  0  0  0  0  0  0  0  0  0  0  0
    7.1530    3.8763    1.2733 C   0  0  0  0  0  0  0  0  0  0  0  0
    6.8521    4.8798    2.1979 C   0  0  0  0  0  0  0  0  0  0  0  0
    7.6884    5.9804    2.3481 C   0  0  0  0  0  0  0  0  0  0  0  0
    8.8417    6.1246    1.5664 C   0  0  0  0  0  0  0  0  0  0  0  0
    9.7975    7.2133    1.8338 C   0  0  0  0  0  0  0  0  0  0  0  0
   10.5652    7.7985    0.9358 N   0  0  0  0  0  0  0  0  0  0  0  0
   11.3444    8.7736    1.5383 C   0  0  0  0  0  0  0  0  0  0  0  0
   12.2565    9.6431    0.8907 C   0  0  0  0  0  0  0  0  0  0  0  0
   12.9752   10.5784    1.6425 C   0  0  0  0  0  0  0  0  0  0  0  0
   12.8060   10.6652    3.0165 C   0  0  0  0  0  0  0  0  0  0  0  0
   11.9193    9.8326    3.6856 C   0  0  0  0  0  0  0  0  0  0  0  0
   11.1900    8.8914    2.9235 C   0  0  0  0  0  0  0  0  0  0  0  0
   10.0404    7.7570    3.4571 S   0  0  0  0  0  0  0  0  0  0  0  0
    9.0875    5.1778    0.5546 C   0  0  0  0  0  0  0  0  0  0  0  0
    8.2506    4.0618    0.4219 C   0  0  0  0  0  0  0  0  0  0  0  0
    8.5218    3.0902   -0.5094 O   0  0  0  0  0  0  0  0  0  0  0  0
    6.6751    2.2390    3.6070 N   0  0  0  0  0  0  0  0  0  0  0  0
    6.1996    1.6605    4.7144 C   0  0  0  0  0  0  0  0  0  0  0  0
    5.1210    0.8728    4.8035 N   0  0  0  0  0  0  0  0  0  0  0  0
    4.4848    0.6020    3.6578 C   0  0  0  0  0  0  0  0  0  0  0  0
    3.3485   -0.2011    3.6564 C   0  0  0  0  0  0  0  0  0  0  0  0
    2.6799   -0.5594    2.4684 C   0  0  0  0  0  0  0  0  0  0  0  0
    1.6100   -1.4018    2.6962 O   0  0  0  0  0  0  0  0  0  0  0  0
    1.2744   -2.2570    1.6064 C   0  0  0  0  0  0  0  0  0  0  0  0
    0.6619   -3.5759    2.0827 C   0  0  0  0  0  0  0  0  0  0  0  0
    0.4527   -4.5156    0.8784 C   0  0  0  0  0  0  0  0  0  0  0  0
    1.6945   -4.7898    0.1371 N   0  0  0  0  0  0  0  0  0  0  0  0
    2.7110   -5.4606    0.9655 C   0  0  0  0  0  0  0  0  0  0  0  0
    4.0154   -5.7026    0.1799 C   0  0  0  0  0  0  0  0  0  0  0  0
    3.8426   -6.5069   -1.0432 N   0  0  0  0  0  0  0  0  0  0  0  0
    3.5571   -7.9030   -0.7187 C   0  0  0  0  0  0  0  0  0  0  0  0
    2.7662   -5.9043   -1.8586 C   0  0  0  0  0  0  0  0  0  0  0  0
    1.4553   -5.5648   -1.0953 C   0  0  0  0  0  0  0  0  0  0  0  0
    3.2200   -0.9503   -1.7806 H   0  0  0  0  0  0  0  0  0  0  0  0
    4.0959    0.4214   -1.1801 H   0  0  0  0  0  0  0  0  0  0  0  0
    2.4378    0.6501   -1.7219 H   0  0  0  0  0  0  0  0  0  0  0  0
    4.6492    1.2174    0.3543 H   0  0  0  0  0  0  0  0  0  0  0  0
    6.6498    2.0782    0.5032 H   0  0  0  0  0  0  0  0  0  0  0  0
    5.9903    4.7753    2.8482 H   0  0  0  0  0  0  0  0  0  0  0  0
    7.4324    6.6974    3.1229 H   0  0  0  0  0  0  0  0  0  0  0  0
   12.3776    9.5697   -0.1847 H   0  0  0  0  0  0  0  0  0  0  0  0
   13.6793   11.2439    1.1347 H   0  0  0  0  0  0  0  0  0  0  0  0
   13.3875   11.4015    3.5856 H   0  0  0  0  0  0  0  0  0  0  0  0
   11.7783    9.8974    4.7561 H   0  0  0  0  0  0  0  0  0  0  0  0
    9.9583    5.2990   -0.0872 H   0  0  0  0  0  0  0  0  0  0  0  0
    9.4287    3.2323   -0.8322 H   0  0  0  0  0  0  0  0  0  0  0  0
    6.7417    1.8606    5.6319 H   0  0  0  0  0  0  0  0  0  0  0  0
    2.9764   -0.5808    4.6070 H   0  0  0  0  0  0  0  0  0  0  0  0
    2.1788   -2.5015    1.0444 H   0  0  0  0  0  0  0  0  0  0  0  0
    0.5505   -1.7403    0.9671 H   0  0  0  0  0  0  0  0  0  0  0  0
   -0.2952   -3.3954    2.5879 H   0  0  0  0  0  0  0  0  0  0  0  0
    1.2961   -4.0402    2.8485 H   0  0  0  0  0  0  0  0  0  0  0  0
   -0.2585   -4.0226    0.2021 H   0  0  0  0  0  0  0  0  0  0  0  0
   -0.0165   -5.4491    1.2105 H   0  0  0  0  0  0  0  0  0  0  0  0
    2.3174   -6.4066    1.3570 H   0  0  0  0  0  0  0  0  0  0  0  0
    2.9793   -4.8421    1.8271 H   0  0  0  0  0  0  0  0  0  0  0  0
    4.7584   -6.1666    0.8398 H   0  0  0  0  0  0  0  0  0  0  0  0
    4.4421   -4.7298   -0.1025 H   0  0  0  0  0  0  0  0  0  0  0  0
    4.3400   -8.3124   -0.0698 H   0  0  0  0  0  0  0  0  0  0  0  0
    3.5572   -8.5096   -1.6298 H   0  0  0  0  0  0  0  0  0  0  0  0
    2.5953   -8.0458   -0.2160 H   0  0  0  0  0  0  0  0  0  0  0  0
    2.5370   -6.5532   -2.7132 H   0  0  0  0  0  0  0  0  0  0  0  0
    3.1619   -4.9764   -2.2944 H   0  0  0  0  0  0  0  0  0  0  0  0
    0.9243   -6.4961   -0.8602 H   0  0  0  0  0  0  0  0  0  0  0  0
    0.8133   -4.9874   -1.7714 H   0  0  0  0  0  0  0  0  0  0  0  0
  1  2  1  0  0  0  0
  1 41  1  0  0  0  0
  1 42  1  0  0  0  0
  1 43  1  0  0  0  0
  2  3  1  0  0  0  0
  3  4  1  0  0  0  0
  3 29  2  0  0  0  0
  4  5  2  0  0  0  0
  4 44  1  0  0  0  0
  5  6  1  0  0  0  0
  5 27  1  0  0  0  0
  6  7  1  0  0  0  0
  6 24  2  0  0  0  0
  7  8  1  0  0  0  0
  7 45  1  0  0  0  0
  8  9  1  0  0  0  0
  8 22  2  0  0  0  0
  9 10  2  0  0  0  0
  9 46  1  0  0  0  0
 10 11  1  0  0  0  0
 10 47  1  0  0  0  0
 11 12  1  0  0  0  0
 11 21  2  0  0  0  0
 12 13  2  0  0  0  0
 12 20  1  0  0  0  0
 13 14  1  0  0  0  0
 14 15  1  0  0  0  0
 14 19  2  0  0  0  0
 15 16  2  0  0  0  0
 15 48  1  0  0  0  0
 16 17  1  0  0  0  0
 16 49  1  0  0  0  0
 17 18  2  0  0  0  0
 17 50  1  0  0  0  0
 18 19  1  0  0  0  0
 18 51  1  0  0  0  0
 19 20  1  0  0  0  0
 21 22  1  0  0  0  0
 21 52  1  0  0  0  0
 22 23  1  0  0  0  0
 23 53  1  0  0  0  0
 24 25  1  0  0  0  0
 25 26  2  0  0  0  0
 25 54  1  0  0  0  0
 26 27  1  0  0  0  0
 27 28  2  0  0  0  0
 28 29  1  0  0  0  0
 28 55  1  0  0  0  0
 29 30  1  0  0  0  0
 30 31  1  0  0  0  0
 31 32  1  0  0  0  0
 31 56  1  0  0  0  0
 31 57  1  0  0  0  0
 32 33  1  0  0  0  0
 32 58  1  0  0  0  0
 32 59  1  0  0  0  0
 33 34  1  0  0  0  0
 33 60  1  0  0  0  0
 33 61  1  0  0  0  0
 34 35  1  0  0  0  0
 34 40  1  0  0  0  0
 35 36  1  0  0  0  0
 35 62  1  0  0  0  0
 35 63  1  0  0  0  0
 36 37  1  0  0  0  0
 36 64  1  0  0  0  0
 36 65  1  0  0  0  0
 37 38  1  0  0  0  0
 37 39  1  0  0  0  0
 38 66  1  0  0  0  0
 38 67  1  0  0  0  0
 38 68  1  0  0  0  0
 39 40  1  0  0  0  0
 39 69  1  0  0  0  0
 39 70  1  0  0  0  0
 40 71  1  0  0  0  0
 40 72  1  0  0  0  0
M  END
$$$$
