CHEMBL220988
 OpenBabel04072215363D

 34 36  0  0  0  0  0  0  0  0999 V2000
    1.2458    0.0614    0.2077 C   0  0  0  0  0  0  0  0  0  0  0  0
    2.7071   -0.0478   -0.0232 C   0  0  0  0  0  0  0  0  0  0  0  0
    3.5267   -1.1513   -0.1536 C   0  0  0  0  0  0  0  0  0  0  0  0
    4.8213   -0.6953   -0.5334 C   0  0  0  0  0  0  0  0  0  0  0  0
    6.0267   -1.3281   -0.8988 C   0  0  0  0  0  0  0  0  0  0  0  0
    6.1049   -2.6689   -0.8982 F   0  0  0  0  0  0  0  0  0  0  0  0
    7.1284   -0.5656   -1.3103 C   0  0  0  0  0  0  0  0  0  0  0  0
    8.2303   -1.2648   -1.7661 O   0  0  0  0  0  0  0  0  0  0  0  0
    9.5015   -0.7574   -1.5240 C   0  0  0  0  0  0  0  0  0  0  0  0
    9.6699    0.0708   -0.4707 N   0  0  0  0  0  0  0  0  0  0  0  0
   10.9097    0.5267   -0.2768 C   0  0  0  0  0  0  0  0  0  0  0  0
   11.9793    0.2299   -1.0236 N   0  0  0  0  0  0  0  0  0  0  0  0
   11.7868   -0.6273   -2.0396 C   0  0  0  0  0  0  0  0  0  0  0  0
   12.9063   -0.8218   -2.8467 N   0  0  0  0  0  0  0  0  0  0  0  0
   10.5456   -1.1720   -2.3320 C   0  0  0  0  0  0  0  0  0  0  0  0
   10.3427   -2.1586   -3.4070 C   0  0  0  0  0  0  0  0  0  0  0  0
   11.3133   -2.9110   -3.8367 N   0  0  0  0  0  0  0  0  0  0  0  0
   10.8288   -3.7583   -4.8388 O   0  0  0  0  0  0  0  0  0  0  0  0
    7.0249    0.8287   -1.3529 C   0  0  0  0  0  0  0  0  0  0  0  0
    5.8579    1.4869   -0.9437 C   0  0  0  0  0  0  0  0  0  0  0  0
    4.7680    0.6985   -0.5601 C   0  0  0  0  0  0  0  0  0  0  0  0
    3.4957    1.0652   -0.1838 N   0  0  0  0  0  0  0  0  0  0  0  0
    0.7814   -0.9280    0.2650 H   0  0  0  0  0  0  0  0  0  0  0  0
    0.7746    0.6027   -0.6205 H   0  0  0  0  0  0  0  0  0  0  0  0
    1.0323    0.5981    1.1366 H   0  0  0  0  0  0  0  0  0  0  0  0
    3.2168   -2.1849   -0.0621 H   0  0  0  0  0  0  0  0  0  0  0  0
   11.0613    1.2076    0.5534 H   0  0  0  0  0  0  0  0  0  0  0  0
   13.7259   -0.4332   -2.3937 H   0  0  0  0  0  0  0  0  0  0  0  0
   13.0014   -1.7961   -3.1316 H   0  0  0  0  0  0  0  0  0  0  0  0
    9.3264   -2.2568   -3.8290 H   0  0  0  0  0  0  0  0  0  0  0  0
   11.6166   -4.2825   -5.0783 H   0  0  0  0  0  0  0  0  0  0  0  0
    7.8555    1.4346   -1.7059 H   0  0  0  0  0  0  0  0  0  0  0  0
    5.7970    2.5706   -0.9625 H   0  0  0  0  0  0  0  0  0  0  0  0
    3.1719    2.0208   -0.1197 H   0  0  0  0  0  0  0  0  0  0  0  0
  1  2  1  0  0  0  0
  1 23  1  0  0  0  0
  1 24  1  0  0  0  0
  1 25  1  0  0  0  0
  2  3  2  0  0  0  0
  2 22  1  0  0  0  0
  3  4  1  0  0  0  0
  3 26  1  0  0  0  0
  4  5  1  0  0  0  0
  4 21  2  0  0  0  0
  5  6  1  0  0  0  0
  5  7  2  0  0  0  0
  7  8  1  0  0  0  0
  7 19  1  0  0  0  0
  8  9  1  0  0  0  0
  9 10  1  0  0  0  0
  9 15  2  0  0  0  0
 10 11  2  0  0  0  0
 11 12  1  0  0  0  0
 11 27  1  0  0  0  0
 12 13  2  0  0  0  0
 13 14  1  0  0  0  0
 13 15  1  0  0  0  0
 14 28  1  0  0  0  0
 14 29  1  0  0  0  0
 15 16  1  0  0  0  0
 16 17  2  0  0  0  0
 16 30  1  0  0  0  0
 17 18  1  0  0  0  0
 18 31  1  0  0  0  0
 19 20  2  0  0  0  0
 19 32  1  0  0  0  0
 20 21  1  0  0  0  0
 20 33  1  0  0  0  0
 21 22  1  0  0  0  0
 22 34  1  0  0  0  0
M  END
$$$$
