CHEMBL219983
 OpenBabel04072215363D

 44 46  0  0  0  0  0  0  0  0999 V2000
    1.1600   -1.3895   -0.5558 C   0  0  0  0  0  0  0  0  0  0  0  0
    2.5771   -1.3490   -0.6811 O   0  0  0  0  0  0  0  0  0  0  0  0
    2.9804   -0.4158   -1.6839 C   0  0  0  0  0  0  0  0  0  0  0  0
    4.4993   -0.3701   -1.7917 C   0  0  0  0  0  0  0  0  0  0  0  0
    4.8543    0.5873   -2.7963 O   0  0  0  0  0  0  0  0  0  0  0  0
    6.2499    0.6670   -2.8513 N   0  0  0  0  0  0  0  0  0  0  0  0
    6.6139    1.5153   -3.7696 C   0  0  0  0  0  0  0  0  0  0  0  0
    8.0396    1.7505   -4.0493 C   0  0  0  0  0  0  0  0  0  0  0  0
    8.9883    0.7557   -3.8047 C   0  0  0  0  0  0  0  0  0  0  0  0
    8.6458   -0.5395   -3.4206 N   0  0  0  0  0  0  0  0  0  0  0  0
   10.2983    0.9254   -4.0502 N   0  0  0  0  0  0  0  0  0  0  0  0
   10.6752    2.1224   -4.5047 C   0  0  0  0  0  0  0  0  0  0  0  0
    9.8570    3.1467   -4.7409 N   0  0  0  0  0  0  0  0  0  0  0  0
    8.5376    2.9365   -4.5552 C   0  0  0  0  0  0  0  0  0  0  0  0
    7.6688    3.9766   -4.8849 O   0  0  0  0  0  0  0  0  0  0  0  0
    8.1301    4.9195   -5.7932 C   0  0  0  0  0  0  0  0  0  0  0  0
    8.8471    4.5575   -6.9411 C   0  0  0  0  0  0  0  0  0  0  0  0
    9.3525    5.5093   -7.8297 C   0  0  0  0  0  0  0  0  0  0  0  0
    9.0233    6.8460   -7.5960 C   0  0  0  0  0  0  0  0  0  0  0  0
    9.3374    7.9681   -8.3250 N   0  0  0  0  0  0  0  0  0  0  0  0
    8.6294    9.0465   -7.8569 C   0  0  0  0  0  0  0  0  0  0  0  0
    8.5690   10.3268   -8.6031 C   0  0  0  0  0  0  0  0  0  0  0  0
    8.0387    8.6574   -6.6701 C   0  0  0  0  0  0  0  0  0  0  0  0
    8.2432    7.2530   -6.5105 C   0  0  0  0  0  0  0  0  0  0  0  0
    7.8143    6.2706   -5.5855 C   0  0  0  0  0  0  0  0  0  0  0  0
    7.0766    6.6354   -4.5220 F   0  0  0  0  0  0  0  0  0  0  0  0
    0.8992   -2.1372    0.1988 H   0  0  0  0  0  0  0  0  0  0  0  0
    0.6990   -1.6764   -1.5055 H   0  0  0  0  0  0  0  0  0  0  0  0
    0.7783   -0.4170   -0.2306 H   0  0  0  0  0  0  0  0  0  0  0  0
    2.6007    0.5833   -1.4375 H   0  0  0  0  0  0  0  0  0  0  0  0
    2.5531   -0.7059   -2.6514 H   0  0  0  0  0  0  0  0  0  0  0  0
    4.8904   -1.3613   -2.0571 H   0  0  0  0  0  0  0  0  0  0  0  0
    4.9359   -0.0849   -0.8280 H   0  0  0  0  0  0  0  0  0  0  0  0
    5.8712    2.0838   -4.3546 H   0  0  0  0  0  0  0  0  0  0  0  0
    7.9261   -0.5350   -2.6997 H   0  0  0  0  0  0  0  0  0  0  0  0
    9.4842   -1.0553   -3.1770 H   0  0  0  0  0  0  0  0  0  0  0  0
   11.7248    2.2640   -4.7255 H   0  0  0  0  0  0  0  0  0  0  0  0
    9.0585    3.5112   -7.1471 H   0  0  0  0  0  0  0  0  0  0  0  0
    9.9533    5.2102   -8.6820 H   0  0  0  0  0  0  0  0  0  0  0  0
    9.9145    7.9662   -9.1539 H   0  0  0  0  0  0  0  0  0  0  0  0
    9.2076   10.3072   -9.4929 H   0  0  0  0  0  0  0  0  0  0  0  0
    8.8758   11.1696   -7.9782 H   0  0  0  0  0  0  0  0  0  0  0  0
    7.5414   10.5020   -8.9411 H   0  0  0  0  0  0  0  0  0  0  0  0
    7.4362    9.2881   -6.0268 H   0  0  0  0  0  0  0  0  0  0  0  0
  1  2  1  0  0  0  0
  1 27  1  0  0  0  0
  1 28  1  0  0  0  0
  1 29  1  0  0  0  0
  2  3  1  0  0  0  0
  3  4  1  0  0  0  0
  3 30  1  0  0  0  0
  3 31  1  0  0  0  0
  4  5  1  0  0  0  0
  4 32  1  0  0  0  0
  4 33  1  0  0  0  0
  5  6  1  0  0  0  0
  6  7  2  0  0  0  0
  7  8  1  0  0  0  0
  7 34  1  0  0  0  0
  8  9  1  0  0  0  0
  8 14  2  0  0  0  0
  9 10  1  0  0  0  0
  9 11  2  0  0  0  0
 10 35  1  0  0  0  0
 10 36  1  0  0  0  0
 11 12  1  0  0  0  0
 12 13  2  0  0  0  0
 12 37  1  0  0  0  0
 13 14  1  0  0  0  0
 14 15  1  0  0  0  0
 15 16  1  0  0  0  0
 16 17  1  0  0  0  0
 16 25  2  0  0  0  0
 17 18  2  0  0  0  0
 17 38  1  0  0  0  0
 18 19  1  0  0  0  0
 18 39  1  0  0  0  0
 19 20  1  0  0  0  0
 19 24  2  0  0  0  0
 20 21  1  0  0  0  0
 20 40  1  0  0  0  0
 21 22  1  0  0  0  0
 21 23  2  0  0  0  0
 22 41  1  0  0  0  0
 22 42  1  0  0  0  0
 22 43  1  0  0  0  0
 23 24  1  0  0  0  0
 23 44  1  0  0  0  0
 24 25  1  0  0  0  0
 25 26  1  0  0  0  0
M  END
$$$$
