CHEMBL410664
 OpenBabel04072215383D

 45 48  0  0  0  0  0  0  0  0999 V2000
    1.4554    1.2562    2.4224 C   0  0  0  0  0  0  0  0  0  0  0  0
    0.2394    0.5257    1.9413 C   0  0  0  0  0  0  0  0  0  0  0  0
   -0.9963    1.1634    1.8943 C   0  0  0  0  0  0  0  0  0  0  0  0
   -2.1316    0.4727    1.4630 C   0  0  0  0  0  0  0  0  0  0  0  0
   -2.0603   -0.8653    1.0544 C   0  0  0  0  0  0  0  0  0  0  0  0
   -3.1911   -1.6048    0.6235 N   0  0  0  0  0  0  0  0  0  0  0  0
   -4.4520   -1.0836    0.4063 C   0  0  0  0  0  0  0  0  0  0  0  0
   -4.7303    0.1160    0.4419 O   0  0  0  0  0  0  0  0  0  0  0  0
   -5.4024   -2.0712    0.1865 N   0  0  0  0  0  0  0  0  0  0  0  0
   -6.7595   -1.7193   -0.0146 C   0  0  0  0  0  0  0  0  0  0  0  0
   -7.1232   -0.6173   -0.7931 C   0  0  0  0  0  0  0  0  0  0  0  0
   -8.4499   -0.1752   -0.8300 C   0  0  0  0  0  0  0  0  0  0  0  0
   -9.4592   -0.8379   -0.1150 C   0  0  0  0  0  0  0  0  0  0  0  0
  -10.8499   -0.3346   -0.1061 C   0  0  0  0  0  0  0  0  0  0  0  0
  -11.4444    0.2065   -1.2770 C   0  0  0  0  0  0  0  0  0  0  0  0
  -12.7793    0.6190   -1.3247 C   0  0  0  0  0  0  0  0  0  0  0  0
  -13.6038    0.4870   -0.2110 C   0  0  0  0  0  0  0  0  0  0  0  0
  -13.0033   -0.0070    0.9423 C   0  0  0  0  0  0  0  0  0  0  0  0
  -13.6394   -0.1872    2.1273 O   0  0  0  0  0  0  0  0  0  0  0  0
  -12.7363   -0.6194    3.0748 N   0  0  0  0  0  0  0  0  0  0  0  0
  -11.5581   -0.6841    2.4514 C   0  0  0  0  0  0  0  0  0  0  0  0
  -10.4091   -0.9623    3.1025 N   0  0  0  0  0  0  0  0  0  0  0  0
  -11.6697   -0.3787    1.0574 C   0  0  0  0  0  0  0  0  0  0  0  0
   -9.0864   -2.0149    0.5626 C   0  0  0  0  0  0  0  0  0  0  0  0
   -7.7544   -2.4485    0.6254 C   0  0  0  0  0  0  0  0  0  0  0  0
   -0.8206   -1.5051    1.0988 C   0  0  0  0  0  0  0  0  0  0  0  0
    0.3085   -0.8093    1.5365 C   0  0  0  0  0  0  0  0  0  0  0  0
    1.4870   -1.4507    1.5747 F   0  0  0  0  0  0  0  0  0  0  0  0
    1.2136    2.2871    2.7035 H   0  0  0  0  0  0  0  0  0  0  0  0
    2.2129    1.2943    1.6364 H   0  0  0  0  0  0  0  0  0  0  0  0
    1.8672    0.7604    3.3066 H   0  0  0  0  0  0  0  0  0  0  0  0
   -1.1020    2.2038    2.1973 H   0  0  0  0  0  0  0  0  0  0  0  0
   -3.0633    1.0273    1.4667 H   0  0  0  0  0  0  0  0  0  0  0  0
   -3.0368   -2.5558    0.3212 H   0  0  0  0  0  0  0  0  0  0  0  0
   -5.2312   -2.9368    0.6743 H   0  0  0  0  0  0  0  0  0  0  0  0
   -6.3729   -0.0635   -1.3519 H   0  0  0  0  0  0  0  0  0  0  0  0
   -8.6665    0.7203   -1.4084 H   0  0  0  0  0  0  0  0  0  0  0  0
  -10.8573    0.2952   -2.1904 H   0  0  0  0  0  0  0  0  0  0  0  0
  -13.1843    1.0297   -2.2474 H   0  0  0  0  0  0  0  0  0  0  0  0
  -14.6492    0.7707   -0.2287 H   0  0  0  0  0  0  0  0  0  0  0  0
  -10.4555   -0.9306    4.1162 H   0  0  0  0  0  0  0  0  0  0  0  0
   -9.5408   -0.5783    2.7416 H   0  0  0  0  0  0  0  0  0  0  0  0
   -9.8355   -2.5982    1.0958 H   0  0  0  0  0  0  0  0  0  0  0  0
   -7.5142   -3.3129    1.2385 H   0  0  0  0  0  0  0  0  0  0  0  0
   -0.7030   -2.5410    0.8012 H   0  0  0  0  0  0  0  0  0  0  0  0
  1  2  1  0  0  0  0
  1 29  1  0  0  0  0
  1 30  1  0  0  0  0
  1 31  1  0  0  0  0
  2  3  1  0  0  0  0
  2 27  2  0  0  0  0
  3  4  2  0  0  0  0
  3 32  1  0  0  0  0
  4  5  1  0  0  0  0
  4 33  1  0  0  0  0
  5  6  1  0  0  0  0
  5 26  2  0  0  0  0
  6  7  1  0  0  0  0
  6 34  1  0  0  0  0
  7  8  2  0  0  0  0
  7  9  1  0  0  0  0
  9 10  1  0  0  0  0
  9 35  1  0  0  0  0
 10 11  1  0  0  0  0
 10 25  2  0  0  0  0
 11 12  2  0  0  0  0
 11 36  1  0  0  0  0
 12 13  1  0  0  0  0
 12 37  1  0  0  0  0
 13 14  1  0  0  0  0
 13 24  2  0  0  0  0
 14 15  1  0  0  0  0
 14 23  2  0  0  0  0
 15 16  2  0  0  0  0
 15 38  1  0  0  0  0
 16 17  1  0  0  0  0
 16 39  1  0  0  0  0
 17 18  2  0  0  0  0
 17 40  1  0  0  0  0
 18 19  1  0  0  0  0
 18 23  1  0  0  0  0
 19 20  1  0  0  0  0
 20 21  2  0  0  0  0
 21 22  1  0  0  0  0
 21 23  1  0  0  0  0
 22 41  1  0  0  0  0
 22 42  1  0  0  0  0
 24 25  1  0  0  0  0
 24 43  1  0  0  0  0
 25 44  1  0  0  0  0
 26 27  1  0  0  0  0
 26 45  1  0  0  0  0
 27 28  1  0  0  0  0
M  END
$$$$
