CHEMBL3974080
 OpenBabel04072215373D

 73 77  0  0  0  0  0  0  0  0999 V2000
    0.7626   -1.5407   -0.1763 C   0  0  0  0  0  0  0  0  0  0  0  0
    2.0920   -1.6193    0.3636 O   0  0  0  0  0  0  0  0  0  0  0  0
    3.1398   -1.9921   -0.4403 C   0  0  0  0  0  0  0  0  0  0  0  0
    3.0672   -2.2274   -1.8168 C   0  0  0  0  0  0  0  0  0  0  0  0
    4.2279   -2.5821   -2.4846 C   0  0  0  0  0  0  0  0  0  0  0  0
    4.4078   -2.9418   -3.7894 O   0  0  0  0  0  0  0  0  0  0  0  0
    3.5718   -2.5191   -4.8457 C   0  0  0  0  0  0  0  0  0  0  0  0
    5.4430   -2.7183   -1.7820 C   0  0  0  0  0  0  0  0  0  0  0  0
    5.6104   -2.5171   -0.4088 C   0  0  0  0  0  0  0  0  0  0  0  0
    6.8849   -2.7677    0.2266 N   0  0  0  0  0  0  0  0  0  0  0  0
    7.2154   -1.9030    1.4623 C   0  0  0  0  0  0  0  0  0  0  0  0
    8.0111   -0.5893    1.1825 C   0  0  0  0  0  0  0  0  0  0  0  0
    9.3569   -0.6412    0.4336 C   0  0  0  0  0  0  0  0  0  0  0  0
   10.6732   -0.6876    1.2448 C   0  0  0  0  0  0  0  0  0  0  0  0
   10.7349    0.1517    2.4268 N   0  0  0  0  0  0  0  0  0  0  0  0
   12.0588    0.5732    2.9502 C   0  0  0  0  0  0  0  0  0  0  0  0
   12.1403    1.2297    4.3550 C   0  0  0  0  0  0  0  0  0  0  0  0
   13.2299   -0.4383    2.8881 C   0  0  0  0  0  0  0  0  0  0  0  0
    9.5222    0.2981    3.2003 C   0  0  0  0  0  0  0  0  0  0  0  0
    8.1861    0.3231    2.4172 C   0  0  0  0  0  0  0  0  0  0  0  0
    8.0332   -3.5769   -0.1743 C   0  0  0  0  0  0  0  0  0  0  0  0
    8.8397   -4.0738    0.8592 C   0  0  0  0  0  0  0  0  0  0  0  0
   10.1858   -4.3161    0.6662 C   0  0  0  0  0  0  0  0  0  0  0  0
   10.7375   -4.3262   -0.5795 C   0  0  0  0  0  0  0  0  0  0  0  0
   12.0711   -4.3982   -0.5930 N   0  0  0  0  0  0  0  0  0  0  0  0
   12.6288   -4.6456   -1.7976 C   0  0  0  0  0  0  0  0  0  0  0  0
   11.8781   -4.8986   -2.9145 C   0  0  0  0  0  0  0  0  0  0  0  0
   12.5935   -5.5570   -4.0101 C   0  0  0  0  0  0  0  0  0  0  0  0
   12.6738   -6.9383   -4.3111 C   0  0  0  0  0  0  0  0  0  0  0  0
   13.6574   -7.2372   -5.1696 N   0  0  0  0  0  0  0  0  0  0  0  0
   14.2348   -6.0484   -5.4108 N   0  0  0  0  0  0  0  0  0  0  0  0
   15.2687   -5.9262   -6.4125 C   0  0  0  0  0  0  0  0  0  0  0  0
   13.7151   -5.0354   -4.6445 C   0  0  0  0  0  0  0  0  0  0  0  0
   10.5128   -4.6935   -2.9280 N   0  0  0  0  0  0  0  0  0  0  0  0
    9.9137   -4.3178   -1.7170 C   0  0  0  0  0  0  0  0  0  0  0  0
    8.5503   -3.8805   -1.4664 C   0  0  0  0  0  0  0  0  0  0  0  0
    4.4020   -2.1448    0.2444 C   0  0  0  0  0  0  0  0  0  0  0  0
    0.1568   -0.9312    0.5088 H   0  0  0  0  0  0  0  0  0  0  0  0
    0.2973   -2.5332   -0.2124 H   0  0  0  0  0  0  0  0  0  0  0  0
    0.7101   -1.0517   -1.1518 H   0  0  0  0  0  0  0  0  0  0  0  0
    2.1266   -2.1639   -2.3621 H   0  0  0  0  0  0  0  0  0  0  0  0
    4.2041   -1.9909   -5.5693 H   0  0  0  0  0  0  0  0  0  0  0  0
    2.7434   -1.8716   -4.5609 H   0  0  0  0  0  0  0  0  0  0  0  0
    3.1989   -3.4153   -5.3500 H   0  0  0  0  0  0  0  0  0  0  0  0
    6.2859   -2.9382   -2.3947 H   0  0  0  0  0  0  0  0  0  0  0  0
    7.7438   -2.4596    2.2424 H   0  0  0  0  0  0  0  0  0  0  0  0
    6.2859   -1.6432    1.9832 H   0  0  0  0  0  0  0  0  0  0  0  0
    7.3260   -0.0469    0.5101 H   0  0  0  0  0  0  0  0  0  0  0  0
    9.3978    0.2652   -0.1797 H   0  0  0  0  0  0  0  0  0  0  0  0
    9.3730   -1.4496   -0.2966 H   0  0  0  0  0  0  0  0  0  0  0  0
   11.4532   -0.3515    0.5459 H   0  0  0  0  0  0  0  0  0  0  0  0
   10.9182   -1.7210    1.5040 H   0  0  0  0  0  0  0  0  0  0  0  0
   12.3503    1.3709    2.2533 H   0  0  0  0  0  0  0  0  0  0  0  0
   12.7604    0.6503    5.0523 H   0  0  0  0  0  0  0  0  0  0  0  0
   11.1848    1.3762    4.8564 H   0  0  0  0  0  0  0  0  0  0  0  0
   12.6106    2.2177    4.2705 H   0  0  0  0  0  0  0  0  0  0  0  0
   13.2067   -1.1516    3.7207 H   0  0  0  0  0  0  0  0  0  0  0  0
   14.1824    0.1093    2.9713 H   0  0  0  0  0  0  0  0  0  0  0  0
   13.2807   -0.9991    1.9531 H   0  0  0  0  0  0  0  0  0  0  0  0
    9.5482    1.2757    3.6947 H   0  0  0  0  0  0  0  0  0  0  0  0
    9.4788   -0.4585    3.9913 H   0  0  0  0  0  0  0  0  0  0  0  0
    8.0669    1.3535    2.0535 H   0  0  0  0  0  0  0  0  0  0  0  0
    7.3630    0.1699    3.1284 H   0  0  0  0  0  0  0  0  0  0  0  0
    8.4673   -4.1668    1.8722 H   0  0  0  0  0  0  0  0  0  0  0  0
   10.8284   -4.4673    1.5320 H   0  0  0  0  0  0  0  0  0  0  0  0
   13.7084   -4.6938   -1.7891 H   0  0  0  0  0  0  0  0  0  0  0  0
   12.0904   -7.7555   -3.8998 H   0  0  0  0  0  0  0  0  0  0  0  0
   15.4688   -6.9013   -6.8650 H   0  0  0  0  0  0  0  0  0  0  0  0
   16.1779   -5.5350   -5.9493 H   0  0  0  0  0  0  0  0  0  0  0  0
   14.9040   -5.2356   -7.1773 H   0  0  0  0  0  0  0  0  0  0  0  0
   14.1877   -4.0646   -4.6151 H   0  0  0  0  0  0  0  0  0  0  0  0
    7.9649   -3.7396   -2.3771 H   0  0  0  0  0  0  0  0  0  0  0  0
    4.3670   -2.0047    1.3229 H   0  0  0  0  0  0  0  0  0  0  0  0
  1  2  1  0  0  0  0
  1 38  1  0  0  0  0
  1 39  1  0  0  0  0
  1 40  1  0  0  0  0
  2  3  1  0  0  0  0
  3  4  1  0  0  0  0
  3 37  2  0  0  0  0
  4  5  2  0  0  0  0
  4 41  1  0  0  0  0
  5  6  1  0  0  0  0
  5  8  1  0  0  0  0
  6  7  1  0  0  0  0
  7 42  1  0  0  0  0
  7 43  1  0  0  0  0
  7 44  1  0  0  0  0
  8  9  2  0  0  0  0
  8 45  1  0  0  0  0
  9 10  1  0  0  0  0
  9 37  1  0  0  0  0
 10 11  1  0  0  0  0
 10 21  1  0  0  0  0
 11 12  1  0  0  0  0
 11 46  1  0  0  0  0
 11 47  1  0  0  0  0
 12 13  1  0  0  0  0
 12 20  1  0  0  0  0
 12 48  1  0  0  0  0
 13 14  1  0  0  0  0
 13 49  1  0  0  0  0
 13 50  1  0  0  0  0
 14 15  1  0  0  0  0
 14 51  1  0  0  0  0
 14 52  1  0  0  0  0
 15 16  1  0  0  0  0
 15 19  1  0  0  0  0
 16 17  1  0  0  0  0
 16 18  1  0  0  0  0
 16 53  1  0  0  0  0
 17 54  1  0  0  0  0
 17 55  1  0  0  0  0
 17 56  1  0  0  0  0
 18 57  1  0  0  0  0
 18 58  1  0  0  0  0
 18 59  1  0  0  0  0
 19 20  1  0  0  0  0
 19 60  1  0  0  0  0
 19 61  1  0  0  0  0
 20 62  1  0  0  0  0
 20 63  1  0  0  0  0
 21 22  1  0  0  0  0
 21 36  2  0  0  0  0
 22 23  2  0  0  0  0
 22 64  1  0  0  0  0
 23 24  1  0  0  0  0
 23 65  1  0  0  0  0
 24 25  1  0  0  0  0
 24 35  2  0  0  0  0
 25 26  2  0  0  0  0
 26 27  1  0  0  0  0
 26 66  1  0  0  0  0
 27 28  1  0  0  0  0
 27 34  2  0  0  0  0
 28 29  1  0  0  0  0
 28 33  2  0  0  0  0
 29 30  2  0  0  0  0
 29 67  1  0  0  0  0
 30 31  1  0  0  0  0
 31 32  1  0  0  0  0
 31 33  1  0  0  0  0
 32 68  1  0  0  0  0
 32 69  1  0  0  0  0
 32 70  1  0  0  0  0
 33 71  1  0  0  0  0
 34 35  1  0  0  0  0
 35 36  1  0  0  0  0
 36 72  1  0  0  0  0
 37 73  1  0  0  0  0
M  END
$$$$
