CHEMBL3781003
 OpenBabel04072215373D

 45 48  0  0  0  0  0  0  0  0999 V2000
    9.7418   -2.8058   -1.6230 C   0  0  0  0  0  0  0  0  0  0  0  0
    9.5132   -1.9371   -0.5204 O   0  0  0  0  0  0  0  0  0  0  0  0
    8.5507   -2.3095    0.3747 C   0  0  0  0  0  0  0  0  0  0  0  0
    7.7405   -3.4428    0.2978 C   0  0  0  0  0  0  0  0  0  0  0  0
    6.7849   -3.7069    1.2963 C   0  0  0  0  0  0  0  0  0  0  0  0
    6.6380   -2.8461    2.3911 C   0  0  0  0  0  0  0  0  0  0  0  0
    5.5547   -3.0290    3.4351 C   0  0  0  0  0  0  0  0  0  0  0  0
    5.1744   -4.4380    3.8333 C   0  0  0  0  0  0  0  0  0  0  0  0
    4.0546   -4.9009    3.2435 N   0  0  0  0  0  0  0  0  0  0  0  0
    3.5444   -6.1216    3.5913 N   0  0  0  0  0  0  0  0  0  0  0  0
    4.1218   -6.8903    4.5359 C   0  0  0  0  0  0  0  0  0  0  0  0
    3.6018   -8.1867    4.8036 N   0  0  0  0  0  0  0  0  0  0  0  0
    2.6085   -8.9120    4.1111 C   0  0  0  0  0  0  0  0  0  0  0  0
    2.3035   -8.6855    2.7632 C   0  0  0  0  0  0  0  0  0  0  0  0
    1.3795   -9.4857    2.0773 C   0  0  0  0  0  0  0  0  0  0  0  0
    0.7548  -10.5367    2.7397 C   0  0  0  0  0  0  0  0  0  0  0  0
   -0.3460  -11.5486    1.8889 Cl  0  0  0  0  0  0  0  0  0  0  0  0
    1.0320  -10.7822    4.0806 C   0  0  0  0  0  0  0  0  0  0  0  0
    1.9567   -9.9746    4.7586 C   0  0  0  0  0  0  0  0  0  0  0  0
    5.2934   -6.4392    5.1963 C   0  0  0  0  0  0  0  0  0  0  0  0
    5.9429   -7.1651    6.2301 C   0  0  0  0  0  0  0  0  0  0  0  0
    7.1065   -6.6976    6.8475 C   0  0  0  0  0  0  0  0  0  0  0  0
    7.6680   -5.5013    6.4334 C   0  0  0  0  0  0  0  0  0  0  0  0
    7.0494   -4.7569    5.4279 C   0  0  0  0  0  0  0  0  0  0  0  0
    5.8511   -5.1903    4.8083 C   0  0  0  0  0  0  0  0  0  0  0  0
    7.4393   -1.6975    2.4447 C   0  0  0  0  0  0  0  0  0  0  0  0
    8.3877   -1.4369    1.4496 C   0  0  0  0  0  0  0  0  0  0  0  0
   10.5953   -2.4145   -2.1852 H   0  0  0  0  0  0  0  0  0  0  0  0
    8.8764   -2.8202   -2.2935 H   0  0  0  0  0  0  0  0  0  0  0  0
   10.0023   -3.8152   -1.2894 H   0  0  0  0  0  0  0  0  0  0  0  0
    7.8111   -4.1355   -0.5356 H   0  0  0  0  0  0  0  0  0  0  0  0
    6.1527   -4.5851    1.1869 H   0  0  0  0  0  0  0  0  0  0  0  0
    4.6563   -2.5238    3.0515 H   0  0  0  0  0  0  0  0  0  0  0  0
    5.8206   -2.4776    4.3457 H   0  0  0  0  0  0  0  0  0  0  0  0
    3.6545   -8.4221    5.7849 H   0  0  0  0  0  0  0  0  0  0  0  0
    2.7882   -7.8893    2.2034 H   0  0  0  0  0  0  0  0  0  0  0  0
    1.1699   -9.2836    1.0341 H   0  0  0  0  0  0  0  0  0  0  0  0
    0.5435  -11.6009    4.6001 H   0  0  0  0  0  0  0  0  0  0  0  0
    2.1565  -10.1920    5.8053 H   0  0  0  0  0  0  0  0  0  0  0  0
    5.5506   -8.1143    6.5837 H   0  0  0  0  0  0  0  0  0  0  0  0
    7.5734   -7.2743    7.6417 H   0  0  0  0  0  0  0  0  0  0  0  0
    8.5860   -5.1415    6.8899 H   0  0  0  0  0  0  0  0  0  0  0  0
    7.5295   -3.8295    5.1244 H   0  0  0  0  0  0  0  0  0  0  0  0
    7.3243   -0.9775    3.2511 H   0  0  0  0  0  0  0  0  0  0  0  0
    8.9952   -0.5364    1.5065 H   0  0  0  0  0  0  0  0  0  0  0  0
  1  2  1  0  0  0  0
  1 28  1  0  0  0  0
  1 29  1  0  0  0  0
  1 30  1  0  0  0  0
  2  3  1  0  0  0  0
  3  4  1  0  0  0  0
  3 27  2  0  0  0  0
  4  5  2  0  0  0  0
  4 31  1  0  0  0  0
  5  6  1  0  0  0  0
  5 32  1  0  0  0  0
  6  7  1  0  0  0  0
  6 26  2  0  0  0  0
  7  8  1  0  0  0  0
  7 33  1  0  0  0  0
  7 34  1  0  0  0  0
  8  9  1  0  0  0  0
  8 25  2  0  0  0  0
  9 10  2  0  0  0  0
 10 11  1  0  0  0  0
 11 12  1  0  0  0  0
 11 20  2  0  0  0  0
 12 13  1  0  0  0  0
 12 35  1  0  0  0  0
 13 14  1  0  0  0  0
 13 19  2  0  0  0  0
 14 15  2  0  0  0  0
 14 36  1  0  0  0  0
 15 16  1  0  0  0  0
 15 37  1  0  0  0  0
 16 17  1  0  0  0  0
 16 18  2  0  0  0  0
 18 19  1  0  0  0  0
 18 38  1  0  0  0  0
 19 39  1  0  0  0  0
 20 21  1  0  0  0  0
 20 25  1  0  0  0  0
 21 22  2  0  0  0  0
 21 40  1  0  0  0  0
 22 23  1  0  0  0  0
 22 41  1  0  0  0  0
 23 24  2  0  0  0  0
 23 42  1  0  0  0  0
 24 25  1  0  0  0  0
 24 43  1  0  0  0  0
 26 27  1  0  0  0  0
 26 44  1  0  0  0  0
 27 45  1  0  0  0  0
M  END
$$$$
