CHEMBL602123
 OpenBabel04072215383D

 45 48  0  0  0  0  0  0  0  0999 V2000
    1.1425    0.2111    0.9998 O   0  0  0  0  0  0  0  0  0  0  0  0
    2.2597    0.1954    0.4946 C   0  0  0  0  0  0  0  0  0  0  0  0
    2.8244    1.2092   -0.2513 N   0  0  0  0  0  0  0  0  0  0  0  0
    2.2392    2.4663   -0.5391 C   0  0  0  0  0  0  0  0  0  0  0  0
    1.1145    2.9870    0.1146 C   0  0  0  0  0  0  0  0  0  0  0  0
    0.5955    4.2414   -0.2454 C   0  0  0  0  0  0  0  0  0  0  0  0
   -0.5090    4.6786    0.4612 O   0  0  0  0  0  0  0  0  0  0  0  0
   -1.5138    5.3486   -0.1958 C   0  0  0  0  0  0  0  0  0  0  0  0
   -1.8289    5.1874   -1.5544 C   0  0  0  0  0  0  0  0  0  0  0  0
   -2.8416    5.9537   -2.1729 C   0  0  0  0  0  0  0  0  0  0  0  0
   -3.6161    6.8525   -1.4363 C   0  0  0  0  0  0  0  0  0  0  0  0
   -3.3404    6.9448   -0.0939 C   0  0  0  0  0  0  0  0  0  0  0  0
   -3.9707    7.7164    0.8757 N   0  0  0  0  0  0  0  0  0  0  0  0
   -3.3439    7.4805    2.1120 C   0  0  0  0  0  0  0  0  0  0  0  0
   -3.6448    7.9859    3.1826 O   0  0  0  0  0  0  0  0  0  0  0  0
   -2.3215    6.5562    1.8733 N   0  0  0  0  0  0  0  0  0  0  0  0
   -2.3168    6.2178    0.5177 C   0  0  0  0  0  0  0  0  0  0  0  0
    1.2429    4.9921   -1.2326 C   0  0  0  0  0  0  0  0  0  0  0  0
    0.8140    6.2192   -1.5619 F   0  0  0  0  0  0  0  0  0  0  0  0
    2.3375    4.4686   -1.9049 C   0  0  0  0  0  0  0  0  0  0  0  0
    2.9018    5.1589   -2.9058 F   0  0  0  0  0  0  0  0  0  0  0  0
    2.8383    3.2241   -1.5521 C   0  0  0  0  0  0  0  0  0  0  0  0
    3.9051    2.7291   -2.2022 F   0  0  0  0  0  0  0  0  0  0  0  0
    3.0693   -1.0472    0.6098 C   0  0  0  0  0  0  0  0  0  0  0  0
    2.3942   -2.2716    0.5839 C   0  0  0  0  0  0  0  0  0  0  0  0
    3.1013   -3.4610    0.7373 C   0  0  0  0  0  0  0  0  0  0  0  0
    4.4866   -3.4355    0.9122 C   0  0  0  0  0  0  0  0  0  0  0  0
    5.1778   -2.2234    0.8866 C   0  0  0  0  0  0  0  0  0  0  0  0
    6.5243   -2.0741    1.0227 O   0  0  0  0  0  0  0  0  0  0  0  0
    7.3995   -3.1028    0.5700 C   0  0  0  0  0  0  0  0  0  0  0  0
    6.7916   -4.0858   -0.1258 F   0  0  0  0  0  0  0  0  0  0  0  0
    8.3275   -2.5447   -0.2399 F   0  0  0  0  0  0  0  0  0  0  0  0
    8.0358   -3.6468    1.6288 F   0  0  0  0  0  0  0  0  0  0  0  0
    4.4607   -1.0241    0.7712 C   0  0  0  0  0  0  0  0  0  0  0  0
    3.6742    0.9987   -0.7672 H   0  0  0  0  0  0  0  0  0  0  0  0
    0.6242    2.4391    0.9182 H   0  0  0  0  0  0  0  0  0  0  0  0
   -1.2807    4.4834   -2.1745 H   0  0  0  0  0  0  0  0  0  0  0  0
   -3.0134    5.8411   -3.2420 H   0  0  0  0  0  0  0  0  0  0  0  0
   -4.3965    7.4382   -1.9066 H   0  0  0  0  0  0  0  0  0  0  0  0
   -4.7492    8.3421    0.7492 H   0  0  0  0  0  0  0  0  0  0  0  0
   -1.7080    6.1954    2.5853 H   0  0  0  0  0  0  0  0  0  0  0  0
    1.3135   -2.2983    0.4559 H   0  0  0  0  0  0  0  0  0  0  0  0
    2.5715   -4.4108    0.7299 H   0  0  0  0  0  0  0  0  0  0  0  0
    4.9913   -4.3835    1.0772 H   0  0  0  0  0  0  0  0  0  0  0  0
    4.9960   -0.0801    0.8328 H   0  0  0  0  0  0  0  0  0  0  0  0
  1  2  2  0  0  0  0
  2  3  1  0  0  0  0
  2 24  1  0  0  0  0
  3  4  1  0  0  0  0
  3 35  1  0  0  0  0
  4  5  1  0  0  0  0
  4 22  2  0  0  0  0
  5  6  2  0  0  0  0
  5 36  1  0  0  0  0
  6  7  1  0  0  0  0
  6 18  1  0  0  0  0
  7  8  1  0  0  0  0
  8  9  1  0  0  0  0
  8 17  2  0  0  0  0
  9 10  2  0  0  0  0
  9 37  1  0  0  0  0
 10 11  1  0  0  0  0
 10 38  1  0  0  0  0
 11 12  2  0  0  0  0
 11 39  1  0  0  0  0
 12 13  1  0  0  0  0
 12 17  1  0  0  0  0
 13 14  1  0  0  0  0
 13 40  1  0  0  0  0
 14 15  2  0  0  0  0
 14 16  1  0  0  0  0
 16 17  1  0  0  0  0
 16 41  1  0  0  0  0
 18 19  1  0  0  0  0
 18 20  2  0  0  0  0
 20 21  1  0  0  0  0
 20 22  1  0  0  0  0
 22 23  1  0  0  0  0
 24 25  1  0  0  0  0
 24 34  2  0  0  0  0
 25 26  2  0  0  0  0
 25 42  1  0  0  0  0
 26 27  1  0  0  0  0
 26 43  1  0  0  0  0
 27 28  2  0  0  0  0
 27 44  1  0  0  0  0
 28 29  1  0  0  0  0
 28 34  1  0  0  0  0
 29 30  1  0  0  0  0
 30 31  1  0  0  0  0
 30 32  1  0  0  0  0
 30 33  1  0  0  0  0
 34 45  1  0  0  0  0
M  END
$$$$
