CHEMBL1956896
 OpenBabel04072215363D

 47 51  0  0  0  0  0  0  0  0999 V2000
    1.1009    0.1109    0.1340 N   0  0  0  0  0  0  0  0  0  0  0  0
    2.4784    0.0985    0.0337 C   0  0  0  0  0  0  0  0  0  0  0  0
    3.0579   -1.1041    0.0561 N   0  0  0  0  0  0  0  0  0  0  0  0
    4.4091   -1.2083   -0.0083 C   0  0  0  0  0  0  0  0  0  0  0  0
    4.9986   -2.4801    0.0379 N   0  0  0  0  0  0  0  0  0  0  0  0
    4.5201   -3.6088    0.7175 C   0  0  0  0  0  0  0  0  0  0  0  0
    4.9164   -4.8858    0.2983 C   0  0  0  0  0  0  0  0  0  0  0  0
    4.4152   -6.0437    0.8980 C   0  0  0  0  0  0  0  0  0  0  0  0
    3.5093   -5.9318    1.9580 C   0  0  0  0  0  0  0  0  0  0  0  0
    3.1087   -4.6743    2.3928 C   0  0  0  0  0  0  0  0  0  0  0  0
    1.8953   -4.5088    3.8323 Br  0  0  0  0  0  0  0  0  0  0  0  0
    3.5953   -3.5233    1.7751 C   0  0  0  0  0  0  0  0  0  0  0  0
    5.1577   -0.0305   -0.1251 C   0  0  0  0  0  0  0  0  0  0  0  0
    6.5346    0.3288   -0.1810 C   0  0  0  0  0  0  0  0  0  0  0  0
    6.6061    1.7048   -0.2426 C   0  0  0  0  0  0  0  0  0  0  0  0
    5.3203    2.1916   -0.2374 N   0  0  0  0  0  0  0  0  0  0  0  0
    4.9451    3.5955   -0.1879 C   0  0  0  0  0  0  0  0  0  0  0  0
    4.9854    4.2752   -1.5349 C   0  0  0  0  0  0  0  0  0  0  0  0
    5.5685    5.5450   -1.6345 C   0  0  0  0  0  0  0  0  0  0  0  0
    5.5895    6.2258   -2.8507 C   0  0  0  0  0  0  0  0  0  0  0  0
    4.9199    5.7091   -3.9636 C   0  0  0  0  0  0  0  0  0  0  0  0
    4.8483    6.4425   -5.1530 C   0  0  0  0  0  0  0  0  0  0  0  0
    3.8926    6.1169   -6.1108 C   0  0  0  0  0  0  0  0  0  0  0  0
    3.1379    4.9559   -5.9705 C   0  0  0  0  0  0  0  0  0  0  0  0
    3.3732    4.0948   -4.8959 C   0  0  0  0  0  0  0  0  0  0  0  0
    4.2252    4.4858   -3.8507 C   0  0  0  0  0  0  0  0  0  0  0  0
    4.3337    3.7428   -2.6609 C   0  0  0  0  0  0  0  0  0  0  0  0
    4.4313    1.1498   -0.1534 C   0  0  0  0  0  0  0  0  0  0  0  0
    3.0940    1.2707   -0.0895 N   0  0  0  0  0  0  0  0  0  0  0  0
    0.7426   -0.7835   -0.1783 H   0  0  0  0  0  0  0  0  0  0  0  0
    0.7310    0.9402   -0.3049 H   0  0  0  0  0  0  0  0  0  0  0  0
    5.9861   -2.5007   -0.1608 H   0  0  0  0  0  0  0  0  0  0  0  0
    5.6010   -4.9938   -0.5563 H   0  0  0  0  0  0  0  0  0  0  0  0
    4.7105   -7.0183    0.5431 H   0  0  0  0  0  0  0  0  0  0  0  0
    3.1199   -6.8314    2.4310 H   0  0  0  0  0  0  0  0  0  0  0  0
    3.2545   -2.5562    2.1395 H   0  0  0  0  0  0  0  0  0  0  0  0
    7.3851   -0.3404   -0.1450 H   0  0  0  0  0  0  0  0  0  0  0  0
    7.4565    2.3742   -0.2739 H   0  0  0  0  0  0  0  0  0  0  0  0
    5.6423    4.0705    0.5136 H   0  0  0  0  0  0  0  0  0  0  0  0
    3.9424    3.6847    0.2432 H   0  0  0  0  0  0  0  0  0  0  0  0
    5.9852    6.0328   -0.7558 H   0  0  0  0  0  0  0  0  0  0  0  0
    6.0397    7.2148   -2.8939 H   0  0  0  0  0  0  0  0  0  0  0  0
    5.4879    7.3075   -5.3093 H   0  0  0  0  0  0  0  0  0  0  0  0
    3.7189    6.7879   -6.9475 H   0  0  0  0  0  0  0  0  0  0  0  0
    2.3601    4.7250   -6.6935 H   0  0  0  0  0  0  0  0  0  0  0  0
    2.8185    3.1613   -4.8375 H   0  0  0  0  0  0  0  0  0  0  0  0
    3.8382    2.7751   -2.5914 H   0  0  0  0  0  0  0  0  0  0  0  0
  1  2  1  0  0  0  0
  1 30  1  0  0  0  0
  1 31  1  0  0  0  0
  2  3  1  0  0  0  0
  2 29  2  0  0  0  0
  3  4  2  0  0  0  0
  4  5  1  0  0  0  0
  4 13  1  0  0  0  0
  5  6  1  0  0  0  0
  5 32  1  0  0  0  0
  6  7  1  0  0  0  0
  6 12  2  0  0  0  0
  7  8  2  0  0  0  0
  7 33  1  0  0  0  0
  8  9  1  0  0  0  0
  8 34  1  0  0  0  0
  9 10  2  0  0  0  0
  9 35  1  0  0  0  0
 10 11  1  0  0  0  0
 10 12  1  0  0  0  0
 12 36  1  0  0  0  0
 13 14  1  0  0  0  0
 13 28  2  0  0  0  0
 14 15  2  0  0  0  0
 14 37  1  0  0  0  0
 15 16  1  0  0  0  0
 15 38  1  0  0  0  0
 16 17  1  0  0  0  0
 16 28  1  0  0  0  0
 17 18  1  0  0  0  0
 17 39  1  0  0  0  0
 17 40  1  0  0  0  0
 18 19  1  0  0  0  0
 18 27  2  0  0  0  0
 19 20  2  0  0  0  0
 19 41  1  0  0  0  0
 20 21  1  0  0  0  0
 20 42  1  0  0  0  0
 21 22  1  0  0  0  0
 21 26  2  0  0  0  0
 22 23  2  0  0  0  0
 22 43  1  0  0  0  0
 23 24  1  0  0  0  0
 23 44  1  0  0  0  0
 24 25  2  0  0  0  0
 24 45  1  0  0  0  0
 25 26  1  0  0  0  0
 25 46  1  0  0  0  0
 26 27  1  0  0  0  0
 27 47  1  0  0  0  0
 28 29  1  0  0  0  0
M  END
$$$$
