CHEMBL606245
 OpenBabel04072215383D

 58 61  0  0  1  0  0  0  0  0999 V2000
    2.7303    0.4798    0.5214 C   0  0  0  0  0  0  0  0  0  0  0  0
    2.1865   -0.4741    1.5517 C   0  0  0  0  0  0  0  0  0  0  0  0
    2.1081   -1.8761    1.3323 C   0  0  0  0  0  0  0  0  0  0  0  0
    2.5943   -2.4516    0.1331 N   0  0  0  0  0  0  0  0  0  0  0  0
    3.2263   -3.6989   -0.0942 C   0  0  0  0  0  0  0  0  0  0  0  0
    4.1438   -4.2652    0.8176 C   0  0  0  0  0  0  0  0  0  0  0  0
    4.6095   -3.6142    2.0013 C   0  0  0  0  0  0  0  0  0  0  0  0
    5.0352   -3.1559    2.9840 N   0  0  0  0  0  0  0  0  0  0  0  0
    4.7043   -5.5057    0.5273 C   0  0  0  0  0  0  0  0  0  0  0  0
    4.4294   -6.2278   -0.5772 N   0  0  0  0  0  0  0  0  0  0  0  0
    3.5458   -5.6814   -1.4374 C   0  0  0  0  0  0  0  0  0  0  0  0
    2.9150   -4.4464   -1.2523 C   0  0  0  0  0  0  0  0  0  0  0  0
    2.0010   -4.0034   -2.3143 C   0  0  0  0  0  0  0  0  0  0  0  0
    0.7121   -4.3779   -2.3907 C   0  0  0  0  0  0  0  0  0  0  0  0
   -0.2109   -4.1261   -3.5706 C   0  0  0  0  0  0  0  0  0  0  0  0
    0.5200   -4.0547   -4.9283 C   0  0  0  0  0  0  0  0  0  0  0  0
   -0.3047   -3.7981   -6.1235 N   0  0  0  0  0  0  0  0  0  0  0  0
   -1.3486   -4.7992   -6.3785 C   0  0  0  0  0  0  0  0  0  0  0  0
   -0.8047   -6.1709   -6.7845 C   0  0  0  0  0  0  0  0  0  0  0  0
    0.1104   -6.0660   -8.0044 C   0  0  0  0  0  0  0  0  0  0  0  0
    1.1989   -5.0077   -7.7882 C   0  0  1  0  0  0  0  0  0  0  0  0
    1.9945   -4.8324   -9.0071 N   0  0  0  0  0  0  0  0  0  0  0  0
    0.5640   -3.6710   -7.3195 C   0  0  0  0  0  0  0  0  0  0  0  0
    1.6319   -2.7124    2.3578 C   0  0  0  0  0  0  0  0  0  0  0  0
    1.2383   -2.2245    3.6048 C   0  0  0  0  0  0  0  0  0  0  0  0
    1.3052   -0.8474    3.7960 C   0  0  0  0  0  0  0  0  0  0  0  0
    0.9803   -0.0982    4.9044 N   0  0  0  0  0  0  0  0  0  0  0  0
    1.2069    1.2286    4.6626 C   0  0  0  0  0  0  0  0  0  0  0  0
    1.6901    1.3402    3.3795 C   0  0  0  0  0  0  0  0  0  0  0  0
    1.7572    0.0304    2.8127 C   0  0  0  0  0  0  0  0  0  0  0  0
    3.1670   -0.0139   -0.3491 H   0  0  0  0  0  0  0  0  0  0  0  0
    3.5207    1.0940    0.9674 H   0  0  0  0  0  0  0  0  0  0  0  0
    1.9301    1.1407    0.1726 H   0  0  0  0  0  0  0  0  0  0  0  0
    2.3766   -1.9213   -0.7040 H   0  0  0  0  0  0  0  0  0  0  0  0
    5.4305   -5.9640    1.1968 H   0  0  0  0  0  0  0  0  0  0  0  0
    3.3559   -6.2807   -2.3249 H   0  0  0  0  0  0  0  0  0  0  0  0
    2.4794   -3.4260   -3.0991 H   0  0  0  0  0  0  0  0  0  0  0  0
    0.2721   -4.9591   -1.5789 H   0  0  0  0  0  0  0  0  0  0  0  0
   -0.7899   -3.2132   -3.3899 H   0  0  0  0  0  0  0  0  0  0  0  0
   -0.9247   -4.9589   -3.5958 H   0  0  0  0  0  0  0  0  0  0  0  0
    1.1023   -4.9766   -5.0418 H   0  0  0  0  0  0  0  0  0  0  0  0
    1.2410   -3.2309   -4.8697 H   0  0  0  0  0  0  0  0  0  0  0  0
   -1.9900   -4.4244   -7.1886 H   0  0  0  0  0  0  0  0  0  0  0  0
   -2.0179   -4.8968   -5.5175 H   0  0  0  0  0  0  0  0  0  0  0  0
   -1.6402   -6.8422   -7.0139 H   0  0  0  0  0  0  0  0  0  0  0  0
   -0.2596   -6.6242   -5.9484 H   0  0  0  0  0  0  0  0  0  0  0  0
   -0.4968   -5.8058   -8.8814 H   0  0  0  0  0  0  0  0  0  0  0  0
    0.5617   -7.0444   -8.2086 H   0  0  0  0  0  0  0  0  0  0  0  0
    1.8888   -5.3666   -7.0161 H   0  0  0  0  0  0  0  0  0  0  0  0
    1.3944   -4.5246   -9.7714 H   0  0  0  0  0  0  0  0  0  0  0  0
    2.3773   -5.7329   -9.2948 H   0  0  0  0  0  0  0  0  0  0  0  0
   -0.0384   -3.2477   -8.1351 H   0  0  0  0  0  0  0  0  0  0  0  0
    1.3521   -2.9303   -7.1293 H   0  0  0  0  0  0  0  0  0  0  0  0
    1.5651   -3.7857    2.1951 H   0  0  0  0  0  0  0  0  0  0  0  0
    0.9078   -2.8974    4.3883 H   0  0  0  0  0  0  0  0  0  0  0  0
    0.6275   -0.4827    5.7698 H   0  0  0  0  0  0  0  0  0  0  0  0
    1.0131    1.9737    5.4221 H   0  0  0  0  0  0  0  0  0  0  0  0
    1.9739    2.2655    2.8960 H   0  0  0  0  0  0  0  0  0  0  0  0
  1  2  1  0  0  0  0
  1 31  1  0  0  0  0
  1 32  1  0  0  0  0
  1 33  1  0  0  0  0
  2  3  1  0  0  0  0
  2 30  2  0  0  0  0
  3  4  1  0  0  0  0
  3 24  2  0  0  0  0
  4  5  1  0  0  0  0
  4 34  1  0  0  0  0
  5  6  1  0  0  0  0
  5 12  2  0  0  0  0
  6  7  1  0  0  0  0
  6  9  2  0  0  0  0
  7  8  3  0  0  0  0
  9 10  1  0  0  0  0
  9 35  1  0  0  0  0
 10 11  2  0  0  0  0
 11 12  1  0  0  0  0
 11 36  1  0  0  0  0
 12 13  1  0  0  0  0
 13 14  2  0  0  0  0
 13 37  1  0  0  0  0
 14 15  1  0  0  0  0
 14 38  1  0  0  0  0
 15 16  1  0  0  0  0
 15 39  1  0  0  0  0
 15 40  1  0  0  0  0
 16 17  1  0  0  0  0
 16 41  1  0  0  0  0
 16 42  1  0  0  0  0
 17 18  1  0  0  0  0
 17 23  1  0  0  0  0
 18 19  1  0  0  0  0
 18 43  1  0  0  0  0
 18 44  1  0  0  0  0
 19 20  1  0  0  0  0
 19 45  1  0  0  0  0
 19 46  1  0  0  0  0
 20 21  1  0  0  0  0
 20 47  1  0  0  0  0
 20 48  1  0  0  0  0
 21 22  1  0  0  0  0
 21 23  1  0  0  0  0
 21 49  1  1  0  0  0
 22 50  1  0  0  0  0
 22 51  1  0  0  0  0
 23 52  1  0  0  0  0
 23 53  1  0  0  0  0
 24 25  1  0  0  0  0
 24 54  1  0  0  0  0
 25 26  2  0  0  0  0
 25 55  1  0  0  0  0
 26 27  1  0  0  0  0
 26 30  1  0  0  0  0
 27 28  1  0  0  0  0
 27 56  1  0  0  0  0
 28 29  2  0  0  0  0
 28 57  1  0  0  0  0
 29 30  1  0  0  0  0
 29 58  1  0  0  0  0
M  END
$$$$
