CHEMBL1254002
 OpenBabel04072215363D

 44 47  0  0  0  0  0  0  0  0999 V2000
    1.1069    0.1166   -0.0995 C   0  0  0  0  0  0  0  0  0  0  0  0
    1.8392   -0.0607   -1.3378 N   0  0  0  0  0  0  0  0  0  0  0  0
    2.2075    0.9887   -2.1376 C   0  0  0  0  0  0  0  0  0  0  0  0
    2.9253    0.4785   -3.1990 C   0  0  0  0  0  0  0  0  0  0  0  0
    2.9871   -0.9219   -3.0320 C   0  0  0  0  0  0  0  0  0  0  0  0
    3.5979   -1.8279   -3.8245 N   0  0  0  0  0  0  0  0  0  0  0  0
    3.4636   -3.0853   -3.3922 C   0  0  0  0  0  0  0  0  0  0  0  0
    2.8042   -3.5143   -2.3056 N   0  0  0  0  0  0  0  0  0  0  0  0
    2.1897   -2.6024   -1.5165 C   0  0  0  0  0  0  0  0  0  0  0  0
    1.2791   -3.1345   -0.0987 S   0  0  0  0  0  0  0  0  0  0  0  0
    1.4314   -4.9022   -0.0834 C   0  0  0  0  0  0  0  0  0  0  0  0
    2.0651   -5.5056    0.9994 C   0  0  0  0  0  0  0  0  0  0  0  0
    2.1244   -6.8976    1.0971 C   0  0  0  0  0  0  0  0  0  0  0  0
    1.5381   -7.7203    0.1298 C   0  0  0  0  0  0  0  0  0  0  0  0
    1.5584   -9.1352    0.1989 N   0  0  0  0  0  0  0  0  0  0  0  0
    2.0012   -9.8706    1.2846 C   0  0  0  0  0  0  0  0  0  0  0  0
    2.3235   -9.3863    2.3638 O   0  0  0  0  0  0  0  0  0  0  0  0
    2.0878  -11.2308    1.0067 N   0  0  0  0  0  0  0  0  0  0  0  0
    2.6193  -12.0832    2.0078 C   0  0  0  0  0  0  0  0  0  0  0  0
    2.1800  -11.9967    3.3351 C   0  0  0  0  0  0  0  0  0  0  0  0
    2.8484  -12.6832    4.3469 C   0  0  0  0  0  0  0  0  0  0  0  0
    3.9528  -13.4698    4.0328 C   0  0  0  0  0  0  0  0  0  0  0  0
    4.3560  -13.6078    2.7032 C   0  0  0  0  0  0  0  0  0  0  0  0
    3.6741  -12.9364    1.6839 C   0  0  0  0  0  0  0  0  0  0  0  0
    0.9082   -7.1130   -0.9614 C   0  0  0  0  0  0  0  0  0  0  0  0
    0.8507   -5.7136   -1.0627 C   0  0  0  0  0  0  0  0  0  0  0  0
    2.2897   -1.2546   -1.8699 C   0  0  0  0  0  0  0  0  0  0  0  0
    0.9101    1.1804    0.0592 H   0  0  0  0  0  0  0  0  0  0  0  0
    1.7167   -0.2591    0.7260 H   0  0  0  0  0  0  0  0  0  0  0  0
    0.1542   -0.4123   -0.1758 H   0  0  0  0  0  0  0  0  0  0  0  0
    1.9402    2.0089   -1.8971 H   0  0  0  0  0  0  0  0  0  0  0  0
    3.3568    1.0496   -4.0111 H   0  0  0  0  0  0  0  0  0  0  0  0
    3.9447   -3.8511   -3.9930 H   0  0  0  0  0  0  0  0  0  0  0  0
    2.5140   -4.9088    1.7892 H   0  0  0  0  0  0  0  0  0  0  0  0
    2.6385   -7.2960    1.9646 H   0  0  0  0  0  0  0  0  0  0  0  0
    1.0784   -9.6432   -0.5294 H   0  0  0  0  0  0  0  0  0  0  0  0
    2.3573  -11.4404    0.0567 H   0  0  0  0  0  0  0  0  0  0  0  0
    1.3454  -11.3504    3.5987 H   0  0  0  0  0  0  0  0  0  0  0  0
    2.5299  -12.5662    5.3795 H   0  0  0  0  0  0  0  0  0  0  0  0
    4.5089  -13.9612    4.8268 H   0  0  0  0  0  0  0  0  0  0  0  0
    5.2305  -14.2079    2.4664 H   0  0  0  0  0  0  0  0  0  0  0  0
    4.0379  -13.0166    0.6644 H   0  0  0  0  0  0  0  0  0  0  0  0
    0.4442   -7.7090   -1.7420 H   0  0  0  0  0  0  0  0  0  0  0  0
    0.3481   -5.2621   -1.9140 H   0  0  0  0  0  0  0  0  0  0  0  0
  1  2  1  0  0  0  0
  1 28  1  0  0  0  0
  1 29  1  0  0  0  0
  1 30  1  0  0  0  0
  2  3  1  0  0  0  0
  2 27  1  0  0  0  0
  3  4  2  0  0  0  0
  3 31  1  0  0  0  0
  4  5  1  0  0  0  0
  4 32  1  0  0  0  0
  5  6  1  0  0  0  0
  5 27  2  0  0  0  0
  6  7  2  0  0  0  0
  7  8  1  0  0  0  0
  7 33  1  0  0  0  0
  8  9  2  0  0  0  0
  9 10  1  0  0  0  0
  9 27  1  0  0  0  0
 10 11  1  0  0  0  0
 11 12  1  0  0  0  0
 11 26  2  0  0  0  0
 12 13  2  0  0  0  0
 12 34  1  0  0  0  0
 13 14  1  0  0  0  0
 13 35  1  0  0  0  0
 14 15  1  0  0  0  0
 14 25  2  0  0  0  0
 15 16  1  0  0  0  0
 15 36  1  0  0  0  0
 16 17  2  0  0  0  0
 16 18  1  0  0  0  0
 18 19  1  0  0  0  0
 18 37  1  0  0  0  0
 19 20  1  0  0  0  0
 19 24  2  0  0  0  0
 20 21  2  0  0  0  0
 20 38  1  0  0  0  0
 21 22  1  0  0  0  0
 21 39  1  0  0  0  0
 22 23  2  0  0  0  0
 22 40  1  0  0  0  0
 23 24  1  0  0  0  0
 23 41  1  0  0  0  0
 24 42  1  0  0  0  0
 25 26  1  0  0  0  0
 25 43  1  0  0  0  0
 26 44  1  0  0  0  0
M  END
$$$$
