CHEMBL4205803
 OpenBabel04072215383D

 68 71  0  0  0  0  0  0  0  0999 V2000
    1.2773    0.6291    1.0685 C   0  0  0  0  0  0  0  0  0  0  0  0
    2.7604    0.3193    0.9234 C   0  0  0  0  0  0  0  0  0  0  0  0
    3.2466    0.3994   -0.4596 N   0  0  0  0  0  0  0  0  0  0  0  0
    4.6699    0.0014   -0.5102 C   0  0  0  0  0  0  0  0  0  0  0  0
    5.6524    1.0898    0.0037 C   0  0  0  0  0  0  0  0  0  0  0  0
    5.5376    2.3939   -0.6935 N   0  0  0  0  0  0  0  0  0  0  0  0
    5.9380    2.3456   -2.1160 C   0  0  0  0  0  0  0  0  0  0  0  0
    7.3683    1.8967   -2.3599 C   0  0  0  0  0  0  0  0  0  0  0  0
    7.5598    0.5163   -2.5265 C   0  0  0  0  0  0  0  0  0  0  0  0
    8.8216   -0.0413   -2.6586 C   0  0  0  0  0  0  0  0  0  0  0  0
    9.9558    0.7562   -2.6866 C   0  0  0  0  0  0  0  0  0  0  0  0
   11.2559    0.1929   -2.7621 N   0  0  0  0  0  0  0  0  0  0  0  0
   11.5458   -1.1331   -2.4588 C   0  0  0  0  0  0  0  0  0  0  0  0
   10.7214   -1.9696   -2.0955 O   0  0  0  0  0  0  0  0  0  0  0  0
   12.9034   -1.4248   -2.5445 N   0  0  0  0  0  0  0  0  0  0  0  0
   13.3310   -2.7354   -2.2186 C   0  0  0  0  0  0  0  0  0  0  0  0
   12.7504   -3.8533   -2.8120 C   0  0  0  0  0  0  0  0  0  0  0  0
   13.1017   -5.1408   -2.3981 C   0  0  0  0  0  0  0  0  0  0  0  0
   14.0415   -5.3513   -1.3737 C   0  0  0  0  0  0  0  0  0  0  0  0
   14.3865   -6.7182   -0.9248 C   0  0  0  0  0  0  0  0  0  0  0  0
   14.3912   -7.7991   -1.8010 C   0  0  0  0  0  0  0  0  0  0  0  0
   14.7147   -9.0884   -1.3520 C   0  0  0  0  0  0  0  0  0  0  0  0
   15.0438   -9.2929   -0.0224 C   0  0  0  0  0  0  0  0  0  0  0  0
   15.3934  -10.5002    0.5073 N   0  0  0  0  0  0  0  0  0  0  0  0
   15.3826  -11.7862   -0.1329 C   0  0  0  0  0  0  0  0  0  0  0  0
   15.0462   -8.2694    0.8506 N   0  0  0  0  0  0  0  0  0  0  0  0
   14.7119   -7.0308    0.3967 C   0  0  0  0  0  0  0  0  0  0  0  0
   14.6307   -4.2059   -0.8026 C   0  0  0  0  0  0  0  0  0  0  0  0
   14.3025   -2.9103   -1.2321 C   0  0  0  0  0  0  0  0  0  0  0  0
    9.7840    2.1445   -2.6239 C   0  0  0  0  0  0  0  0  0  0  0  0
    8.4981    2.7363   -2.4202 C   0  0  0  0  0  0  0  0  0  0  0  0
    8.4407    4.2451   -2.2799 C   0  0  0  0  0  0  0  0  0  0  0  0
    7.2125    4.7881   -2.0791 F   0  0  0  0  0  0  0  0  0  0  0  0
    9.2136    4.6953   -1.2505 F   0  0  0  0  0  0  0  0  0  0  0  0
    8.9274    4.8681   -3.3941 F   0  0  0  0  0  0  0  0  0  0  0  0
    4.1128    2.8072   -0.5908 C   0  0  0  0  0  0  0  0  0  0  0  0
    3.0985    1.7356   -1.0769 C   0  0  0  0  0  0  0  0  0  0  0  0
    0.9721    0.4851    2.1100 H   0  0  0  0  0  0  0  0  0  0  0  0
    0.6718   -0.0319    0.4409 H   0  0  0  0  0  0  0  0  0  0  0  0
    1.0475    1.6661    0.8096 H   0  0  0  0  0  0  0  0  0  0  0  0
    2.9077   -0.7075    1.2813 H   0  0  0  0  0  0  0  0  0  0  0  0
    3.3258    0.9726    1.5969 H   0  0  0  0  0  0  0  0  0  0  0  0
    4.8916   -0.2452   -1.5527 H   0  0  0  0  0  0  0  0  0  0  0  0
    4.8373   -0.9333    0.0381 H   0  0  0  0  0  0  0  0  0  0  0  0
    6.6817    0.7183   -0.0143 H   0  0  0  0  0  0  0  0  0  0  0  0
    5.4627    1.2623    1.0723 H   0  0  0  0  0  0  0  0  0  0  0  0
    5.7786    3.3226   -2.5815 H   0  0  0  0  0  0  0  0  0  0  0  0
    5.2867    1.6814   -2.6964 H   0  0  0  0  0  0  0  0  0  0  0  0
    6.7210   -0.1709   -2.5209 H   0  0  0  0  0  0  0  0  0  0  0  0
    8.8626   -1.1212   -2.7469 H   0  0  0  0  0  0  0  0  0  0  0  0
   12.0267    0.8144   -2.9463 H   0  0  0  0  0  0  0  0  0  0  0  0
   13.5014   -0.6744   -2.2344 H   0  0  0  0  0  0  0  0  0  0  0  0
   11.9990   -3.7371   -3.5931 H   0  0  0  0  0  0  0  0  0  0  0  0
   12.5937   -5.9794   -2.8700 H   0  0  0  0  0  0  0  0  0  0  0  0
   14.1656   -7.6718   -2.8530 H   0  0  0  0  0  0  0  0  0  0  0  0
   14.7102   -9.8992   -2.0680 H   0  0  0  0  0  0  0  0  0  0  0  0
   15.6130  -10.4444    1.4947 H   0  0  0  0  0  0  0  0  0  0  0  0
   14.9703  -11.7796   -1.1451 H   0  0  0  0  0  0  0  0  0  0  0  0
   14.7815  -12.4855    0.4568 H   0  0  0  0  0  0  0  0  0  0  0  0
   16.4022  -12.1799   -0.1866 H   0  0  0  0  0  0  0  0  0  0  0  0
   14.7121   -6.2728    1.1738 H   0  0  0  0  0  0  0  0  0  0  0  0
   15.3554   -4.3042    0.0021 H   0  0  0  0  0  0  0  0  0  0  0  0
   14.7512   -2.0630   -0.7356 H   0  0  0  0  0  0  0  0  0  0  0  0
   10.6512    2.8023   -2.6867 H   0  0  0  0  0  0  0  0  0  0  0  0
    3.9528    3.7412   -1.1429 H   0  0  0  0  0  0  0  0  0  0  0  0
    3.8962    3.0493    0.4584 H   0  0  0  0  0  0  0  0  0  0  0  0
    3.2076    1.6093   -2.1615 H   0  0  0  0  0  0  0  0  0  0  0  0
    2.0801    2.1185   -0.9649 H   0  0  0  0  0  0  0  0  0  0  0  0
  1  2  1  0  0  0  0
  1 38  1  0  0  0  0
  1 39  1  0  0  0  0
  1 40  1  0  0  0  0
  2  3  1  0  0  0  0
  2 41  1  0  0  0  0
  2 42  1  0  0  0  0
  3  4  1  0  0  0  0
  3 37  1  0  0  0  0
  4  5  1  0  0  0  0
  4 43  1  0  0  0  0
  4 44  1  0  0  0  0
  5  6  1  0  0  0  0
  5 45  1  0  0  0  0
  5 46  1  0  0  0  0
  6  7  1  0  0  0  0
  6 36  1  0  0  0  0
  7  8  1  0  0  0  0
  7 47  1  0  0  0  0
  7 48  1  0  0  0  0
  8  9  1  0  0  0  0
  8 31  2  0  0  0  0
  9 10  2  0  0  0  0
  9 49  1  0  0  0  0
 10 11  1  0  0  0  0
 10 50  1  0  0  0  0
 11 12  1  0  0  0  0
 11 30  2  0  0  0  0
 12 13  1  0  0  0  0
 12 51  1  0  0  0  0
 13 14  2  0  0  0  0
 13 15  1  0  0  0  0
 15 16  1  0  0  0  0
 15 52  1  0  0  0  0
 16 17  1  0  0  0  0
 16 29  2  0  0  0  0
 17 18  2  0  0  0  0
 17 53  1  0  0  0  0
 18 19  1  0  0  0  0
 18 54  1  0  0  0  0
 19 20  1  0  0  0  0
 19 28  2  0  0  0  0
 20 21  1  0  0  0  0
 20 27  2  0  0  0  0
 21 22  2  0  0  0  0
 21 55  1  0  0  0  0
 22 23  1  0  0  0  0
 22 56  1  0  0  0  0
 23 24  1  0  0  0  0
 23 26  2  0  0  0  0
 24 25  1  0  0  0  0
 24 57  1  0  0  0  0
 25 58  1  0  0  0  0
 25 59  1  0  0  0  0
 25 60  1  0  0  0  0
 26 27  1  0  0  0  0
 27 61  1  0  0  0  0
 28 29  1  0  0  0  0
 28 62  1  0  0  0  0
 29 63  1  0  0  0  0
 30 31  1  0  0  0  0
 30 64  1  0  0  0  0
 31 32  1  0  0  0  0
 32 33  1  0  0  0  0
 32 34  1  0  0  0  0
 32 35  1  0  0  0  0
 36 37  1  0  0  0  0
 36 65  1  0  0  0  0
 36 66  1  0  0  0  0
 37 67  1  0  0  0  0
 37 68  1  0  0  0  0
M  END
$$$$
