CHEMBL3104851
 OpenBabel04072215363D

 41 44  0  0  1  0  0  0  0  0999 V2000
    0.8808   -0.0368    0.0996 C   0  0  0  0  0  0  0  0  0  0  0  0
    2.3884   -0.0073    0.0622 C   0  0  0  0  0  0  0  0  0  0  0  0
    3.1622   -0.9505    0.7562 C   0  0  0  0  0  0  0  0  0  0  0  0
    2.6509   -1.9829    1.5039 O   0  0  0  0  0  0  0  0  0  0  0  0
    4.5594   -0.8898    0.7423 C   0  0  0  0  0  0  0  0  0  0  0  0
    5.2661   -1.8252    1.4550 O   0  0  0  0  0  0  0  0  0  0  0  0
    5.2286    0.1035    0.0388 C   0  0  0  0  0  0  0  0  0  0  0  0
    4.4978    1.0455   -0.6968 C   0  0  0  0  0  0  0  0  0  0  0  0
    3.0755    1.0029   -0.6759 C   0  0  0  0  0  0  0  0  0  0  0  0
    2.3111    2.0492   -1.4378 C   0  0  0  0  0  0  0  0  0  0  0  0
    1.0889    2.1086   -1.4912 O   0  0  0  0  0  0  0  0  0  0  0  0
    5.2920    2.1104   -1.4123 C   0  0  2  0  0  0  0  0  0  0  0  0
    6.6071    1.6631   -1.6915 O   0  0  0  0  0  0  0  0  0  0  0  0
    7.2288    1.2532   -0.4839 C   0  0  2  0  0  0  0  0  0  0  0  0
    6.5983    0.1201    0.1131 O   0  0  0  0  0  0  0  0  0  0  0  0
    7.3490    2.3927    0.5220 C   0  0  0  0  0  0  0  0  0  0  0  0
    8.3531    2.4044    1.5320 C   0  0  0  0  0  0  0  0  0  0  0  0
    9.4229    1.3464    1.6188 C   0  0  0  0  0  0  0  0  0  0  0  0
    8.3339    3.4472    2.4728 C   0  0  0  0  0  0  0  0  0  0  0  0
    9.2442    3.5712    3.4906 O   0  0  0  0  0  0  0  0  0  0  0  0
    7.3518    4.4335    2.4294 C   0  0  0  0  0  0  0  0  0  0  0  0
    7.3298    5.4280    3.3744 O   0  0  0  0  0  0  0  0  0  0  0  0
    6.3742    4.4320    1.4466 C   0  0  0  0  0  0  0  0  0  0  0  0
    5.4242    5.4116    1.4925 O   0  0  0  0  0  0  0  0  0  0  0  0
    6.3746    3.4279    0.4801 C   0  0  0  0  0  0  0  0  0  0  0  0
    5.3481    3.3930   -0.6000 C   0  0  0  0  0  0  0  0  0  0  0  0
    4.5568    4.3070   -0.8139 O   0  0  0  0  0  0  0  0  0  0  0  0
    0.4621   -0.8402    0.7062 H   0  0  0  0  0  0  0  0  0  0  0  0
    0.4808   -0.1824   -0.9091 H   0  0  0  0  0  0  0  0  0  0  0  0
    0.4985    0.8934    0.5336 H   0  0  0  0  0  0  0  0  0  0  0  0
    1.6827   -1.9883    1.4640 H   0  0  0  0  0  0  0  0  0  0  0  0
    4.5816   -2.4032    1.8482 H   0  0  0  0  0  0  0  0  0  0  0  0
    2.8894    2.7984   -1.9936 H   0  0  0  0  0  0  0  0  0  0  0  0
    4.8638    2.3272   -2.3950 H   0  0  0  0  0  0  0  0  0  0  0  0
    8.2287    0.9418   -0.7962 H   0  0  0  0  0  0  0  0  0  0  0  0
    9.3423    0.5666    0.8610 H   0  0  0  0  0  0  0  0  0  0  0  0
    9.3765    0.8435    2.5901 H   0  0  0  0  0  0  0  0  0  0  0  0
   10.4083    1.8094    1.4963 H   0  0  0  0  0  0  0  0  0  0  0  0
    9.8770    2.8352    3.4587 H   0  0  0  0  0  0  0  0  0  0  0  0
    8.0949    5.2292    3.9531 H   0  0  0  0  0  0  0  0  0  0  0  0
    5.6523    5.9708    2.2616 H   0  0  0  0  0  0  0  0  0  0  0  0
  1  2  1  0  0  0  0
  1 28  1  0  0  0  0
  1 29  1  0  0  0  0
  1 30  1  0  0  0  0
  2  3  1  0  0  0  0
  2  9  2  0  0  0  0
  3  4  1  0  0  0  0
  3  5  2  0  0  0  0
  4 31  1  0  0  0  0
  5  6  1  0  0  0  0
  5  7  1  0  0  0  0
  6 32  1  0  0  0  0
  7  8  2  0  0  0  0
  7 15  1  0  0  0  0
  8  9  1  0  0  0  0
  8 12  1  0  0  0  0
  9 10  1  0  0  0  0
 10 11  2  0  0  0  0
 10 33  1  0  0  0  0
 12 13  1  0  0  0  0
 12 26  1  0  0  0  0
 12 34  1  6  0  0  0
 13 14  1  0  0  0  0
 14 15  1  0  0  0  0
 14 16  1  0  0  0  0
 14 35  1  6  0  0  0
 16 17  1  0  0  0  0
 16 25  2  0  0  0  0
 17 18  1  0  0  0  0
 17 19  2  0  0  0  0
 18 36  1  0  0  0  0
 18 37  1  0  0  0  0
 18 38  1  0  0  0  0
 19 20  1  0  0  0  0
 19 21  1  0  0  0  0
 20 39  1  0  0  0  0
 21 22  1  0  0  0  0
 21 23  2  0  0  0  0
 22 40  1  0  0  0  0
 23 24  1  0  0  0  0
 23 25  1  0  0  0  0
 24 41  1  0  0  0  0
 25 26  1  0  0  0  0
 26 27  2  0  0  0  0
M  END
$$$$
