CHEMBL2036728
 OpenBabel04072215363D

 51 55  0  0  0  0  0  0  0  0999 V2000
   -1.2193   -4.1094    0.3346 C   0  0  0  0  0  0  0  0  0  0  0  0
   -0.9136   -2.7672   -0.1006 N   0  0  0  0  0  0  0  0  0  0  0  0
   -1.7909   -1.7364   -0.3861 C   0  0  0  0  0  0  0  0  0  0  0  0
   -3.2487   -1.7783   -0.2386 C   0  0  0  0  0  0  0  0  0  0  0  0
   -4.0562   -1.0691   -1.1026 C   0  0  0  0  0  0  0  0  0  0  0  0
   -5.4010   -1.2024   -0.8898 C   0  0  0  0  0  0  0  0  0  0  0  0
   -5.9147   -1.9884    0.0680 N   0  0  0  0  0  0  0  0  0  0  0  0
   -5.0586   -2.6192    0.8896 C   0  0  0  0  0  0  0  0  0  0  0  0
   -5.5573   -3.4092    1.9195 N   0  0  0  0  0  0  0  0  0  0  0  0
   -6.7843   -4.0721    1.9899 C   0  0  0  0  0  0  0  0  0  0  0  0
   -7.4499   -4.5250    0.8479 C   0  0  0  0  0  0  0  0  0  0  0  0
   -8.7255   -5.0987    0.9211 C   0  0  0  0  0  0  0  0  0  0  0  0
   -9.4082   -5.1989    2.1345 C   0  0  0  0  0  0  0  0  0  0  0  0
  -10.6923   -5.6933    2.2249 N   0  0  0  0  0  0  0  0  0  0  0  0
  -11.2512   -6.6941    1.3043 C   0  0  0  0  0  0  0  0  0  0  0  0
  -12.4741   -6.1384    0.5583 C   0  0  0  0  0  0  0  0  0  0  0  0
  -13.4491   -5.5909    1.4616 O   0  0  0  0  0  0  0  0  0  0  0  0
  -12.8643   -4.5245    2.2260 C   0  0  0  0  0  0  0  0  0  0  0  0
  -11.6850   -5.0203    3.0788 C   0  0  0  0  0  0  0  0  0  0  0  0
   -8.7244   -4.7564    3.2780 C   0  0  0  0  0  0  0  0  0  0  0  0
   -7.4341   -4.2107    3.2158 C   0  0  0  0  0  0  0  0  0  0  0  0
   -3.7281   -2.5175    0.7870 N   0  0  0  0  0  0  0  0  0  0  0  0
   -1.1189   -0.6887   -0.8441 N   0  0  0  0  0  0  0  0  0  0  0  0
    0.2107   -1.0158   -0.7645 C   0  0  0  0  0  0  0  0  0  0  0  0
    1.3414   -0.2420   -1.0590 C   0  0  0  0  0  0  0  0  0  0  0  0
    2.6109   -0.8140   -0.8888 C   0  0  0  0  0  0  0  0  0  0  0  0
    2.7489   -2.1298   -0.4497 C   0  0  0  0  0  0  0  0  0  0  0  0
    1.6319   -2.9141   -0.1567 C   0  0  0  0  0  0  0  0  0  0  0  0
    0.3725   -2.3188   -0.3157 C   0  0  0  0  0  0  0  0  0  0  0  0
   -2.2854   -4.3212    0.2852 H   0  0  0  0  0  0  0  0  0  0  0  0
   -0.8576   -4.2242    1.3597 H   0  0  0  0  0  0  0  0  0  0  0  0
   -0.7072   -4.8126   -0.3285 H   0  0  0  0  0  0  0  0  0  0  0  0
   -3.6582   -0.4528   -1.8969 H   0  0  0  0  0  0  0  0  0  0  0  0
   -6.1296   -0.6761   -1.4961 H   0  0  0  0  0  0  0  0  0  0  0  0
   -4.8828   -3.5710    2.6499 H   0  0  0  0  0  0  0  0  0  0  0  0
   -6.9772   -4.4394   -0.1276 H   0  0  0  0  0  0  0  0  0  0  0  0
   -9.1897   -5.4109   -0.0091 H   0  0  0  0  0  0  0  0  0  0  0  0
  -11.5708   -7.5492    1.9124 H   0  0  0  0  0  0  0  0  0  0  0  0
  -10.5177   -7.0798    0.5887 H   0  0  0  0  0  0  0  0  0  0  0  0
  -12.9629   -6.9446    0.0016 H   0  0  0  0  0  0  0  0  0  0  0  0
  -12.1833   -5.3649   -0.1619 H   0  0  0  0  0  0  0  0  0  0  0  0
  -13.6436   -4.1158    2.8769 H   0  0  0  0  0  0  0  0  0  0  0  0
  -12.5493   -3.7272    1.5419 H   0  0  0  0  0  0  0  0  0  0  0  0
  -12.0429   -5.7445    3.8178 H   0  0  0  0  0  0  0  0  0  0  0  0
  -11.2718   -4.1623    3.6195 H   0  0  0  0  0  0  0  0  0  0  0  0
   -9.1917   -4.8411    4.2556 H   0  0  0  0  0  0  0  0  0  0  0  0
   -6.9652   -3.8591    4.1290 H   0  0  0  0  0  0  0  0  0  0  0  0
    1.2286    0.7818   -1.3971 H   0  0  0  0  0  0  0  0  0  0  0  0
    3.4944   -0.2173   -1.0993 H   0  0  0  0  0  0  0  0  0  0  0  0
    3.7468   -2.5506   -0.3264 H   0  0  0  0  0  0  0  0  0  0  0  0
    1.7427   -3.9358    0.1945 H   0  0  0  0  0  0  0  0  0  0  0  0
  1  2  1  0  0  0  0
  1 30  1  0  0  0  0
  1 31  1  0  0  0  0
  1 32  1  0  0  0  0
  2  3  1  0  0  0  0
  2 29  1  0  0  0  0
  3  4  1  0  0  0  0
  3 23  2  0  0  0  0
  4  5  1  0  0  0  0
  4 22  2  0  0  0  0
  5  6  2  0  0  0  0
  5 33  1  0  0  0  0
  6  7  1  0  0  0  0
  6 34  1  0  0  0  0
  7  8  2  0  0  0  0
  8  9  1  0  0  0  0
  8 22  1  0  0  0  0
  9 10  1  0  0  0  0
  9 35  1  0  0  0  0
 10 11  1  0  0  0  0
 10 21  2  0  0  0  0
 11 12  2  0  0  0  0
 11 36  1  0  0  0  0
 12 13  1  0  0  0  0
 12 37  1  0  0  0  0
 13 14  1  0  0  0  0
 13 20  2  0  0  0  0
 14 15  1  0  0  0  0
 14 19  1  0  0  0  0
 15 16  1  0  0  0  0
 15 38  1  0  0  0  0
 15 39  1  0  0  0  0
 16 17  1  0  0  0  0
 16 40  1  0  0  0  0
 16 41  1  0  0  0  0
 17 18  1  0  0  0  0
 18 19  1  0  0  0  0
 18 42  1  0  0  0  0
 18 43  1  0  0  0  0
 19 44  1  0  0  0  0
 19 45  1  0  0  0  0
 20 21  1  0  0  0  0
 20 46  1  0  0  0  0
 21 47  1  0  0  0  0
 23 24  1  0  0  0  0
 24 25  1  0  0  0  0
 24 29  2  0  0  0  0
 25 26  2  0  0  0  0
 25 48  1  0  0  0  0
 26 27  1  0  0  0  0
 26 49  1  0  0  0  0
 27 28  2  0  0  0  0
 27 50  1  0  0  0  0
 28 29  1  0  0  0  0
 28 51  1  0  0  0  0
M  END
$$$$
