CHEMBL3893417
 OpenBabel04072215373D

 54 57  0  0  0  0  0  0  0  0999 V2000
    1.9016   -1.5434   -5.7618 C   0  0  0  0  0  0  0  0  0  0  0  0
    2.9876   -1.2413   -4.7386 C   0  0  0  0  0  0  0  0  0  0  0  0
    3.2858   -2.4026   -4.0884 F   0  0  0  0  0  0  0  0  0  0  0  0
    4.1238   -0.9365   -5.4397 F   0  0  0  0  0  0  0  0  0  0  0  0
    2.5910   -0.1292   -3.8039 C   0  0  0  0  0  0  0  0  0  0  0  0
    2.9045    1.2005   -4.1223 C   0  0  0  0  0  0  0  0  0  0  0  0
    2.5158    2.2782   -3.3082 C   0  0  0  0  0  0  0  0  0  0  0  0
    2.7798    3.6287   -3.6665 N   0  0  0  0  0  0  0  0  0  0  0  0
    3.0068    4.0230   -4.9752 C   0  0  0  0  0  0  0  0  0  0  0  0
    2.8666    3.2616   -5.9254 O   0  0  0  0  0  0  0  0  0  0  0  0
    3.4073    5.3444   -5.0977 N   0  0  0  0  0  0  0  0  0  0  0  0
    3.7314    5.9482   -6.3451 C   0  0  0  0  0  0  0  0  0  0  0  0
    3.3620    5.3840   -7.5748 C   0  0  0  0  0  0  0  0  0  0  0  0
    3.8135    5.9045   -8.7882 C   0  0  0  0  0  0  0  0  0  0  0  0
    4.6062    7.0435   -8.7966 C   0  0  0  0  0  0  0  0  0  0  0  0
    4.9788    7.5103  -10.0334 O   0  0  0  0  0  0  0  0  0  0  0  0
    6.2896    7.9414  -10.2053 C   0  0  0  0  0  0  0  0  0  0  0  0
    6.5267    8.7197  -11.3188 C   0  0  0  0  0  0  0  0  0  0  0  0
    7.8210    9.1634  -11.4756 C   0  0  0  0  0  0  0  0  0  0  0  0
    8.1300    9.9304  -12.6132 N   0  0  0  0  0  0  0  0  0  0  0  0
    9.3957   10.3825  -12.9213 C   0  0  0  0  0  0  0  0  0  0  0  0
   10.4132   10.2442  -12.2554 O   0  0  0  0  0  0  0  0  0  0  0  0
    9.5454   11.0964  -14.2246 C   0  0  0  0  0  0  0  0  0  0  0  0
    8.4473   11.5117  -15.1681 C   0  0  0  0  0  0  0  0  0  0  0  0
    9.3103   10.3308  -15.5079 C   0  0  0  0  0  0  0  0  0  0  0  0
    8.7782    8.8679  -10.5885 N   0  0  0  0  0  0  0  0  0  0  0  0
    8.4467    8.0842   -9.5590 C   0  0  0  0  0  0  0  0  0  0  0  0
    7.2394    7.5666   -9.3335 N   0  0  0  0  0  0  0  0  0  0  0  0
    4.8792    7.6829   -7.5840 C   0  0  0  0  0  0  0  0  0  0  0  0
    5.5338    8.8541   -7.5625 F   0  0  0  0  0  0  0  0  0  0  0  0
    4.4650    7.1359   -6.3625 C   0  0  0  0  0  0  0  0  0  0  0  0
    1.8528    2.0033   -2.1128 C   0  0  0  0  0  0  0  0  0  0  0  0
    1.5370    0.6797   -1.7763 C   0  0  0  0  0  0  0  0  0  0  0  0
    1.8970   -0.3681   -2.6256 C   0  0  0  0  0  0  0  0  0  0  0  0
    1.5568   -1.6175   -2.2844 F   0  0  0  0  0  0  0  0  0  0  0  0
    2.2385   -2.3374   -6.4378 H   0  0  0  0  0  0  0  0  0  0  0  0
    1.6736   -0.6666   -6.3777 H   0  0  0  0  0  0  0  0  0  0  0  0
    0.9799   -1.8871   -5.2820 H   0  0  0  0  0  0  0  0  0  0  0  0
    3.4711    1.3658   -5.0362 H   0  0  0  0  0  0  0  0  0  0  0  0
    2.5096    4.3466   -3.0096 H   0  0  0  0  0  0  0  0  0  0  0  0
    3.7410    5.8056   -4.2627 H   0  0  0  0  0  0  0  0  0  0  0  0
    2.7170    4.5132   -7.6381 H   0  0  0  0  0  0  0  0  0  0  0  0
    3.5466    5.4018   -9.7141 H   0  0  0  0  0  0  0  0  0  0  0  0
    5.7309    8.9531  -12.0108 H   0  0  0  0  0  0  0  0  0  0  0  0
    7.3863   10.1098  -13.2667 H   0  0  0  0  0  0  0  0  0  0  0  0
   10.4149   11.7518  -14.2156 H   0  0  0  0  0  0  0  0  0  0  0  0
    8.6045   12.4244  -15.7366 H   0  0  0  0  0  0  0  0  0  0  0  0
    7.4083   11.3392  -14.9284 H   0  0  0  0  0  0  0  0  0  0  0  0
   10.0559   10.4353  -16.2886 H   0  0  0  0  0  0  0  0  0  0  0  0
    8.8740    9.3401  -15.4492 H   0  0  0  0  0  0  0  0  0  0  0  0
    9.2299    7.8565   -8.8453 H   0  0  0  0  0  0  0  0  0  0  0  0
    4.7465    7.6509   -5.4505 H   0  0  0  0  0  0  0  0  0  0  0  0
    1.5380    2.8009   -1.4448 H   0  0  0  0  0  0  0  0  0  0  0  0
    1.0028    0.4536   -0.8580 H   0  0  0  0  0  0  0  0  0  0  0  0
  1  2  1  0  0  0  0
  1 36  1  0  0  0  0
  1 37  1  0  0  0  0
  1 38  1  0  0  0  0
  2  3  1  0  0  0  0
  2  4  1  0  0  0  0
  2  5  1  0  0  0  0
  5  6  1  0  0  0  0
  5 34  2  0  0  0  0
  6  7  2  0  0  0  0
  6 39  1  0  0  0  0
  7  8  1  0  0  0  0
  7 32  1  0  0  0  0
  8  9  1  0  0  0  0
  8 40  1  0  0  0  0
  9 10  2  0  0  0  0
  9 11  1  0  0  0  0
 11 12  1  0  0  0  0
 11 41  1  0  0  0  0
 12 13  1  0  0  0  0
 12 31  2  0  0  0  0
 13 14  2  0  0  0  0
 13 42  1  0  0  0  0
 14 15  1  0  0  0  0
 14 43  1  0  0  0  0
 15 16  1  0  0  0  0
 15 29  2  0  0  0  0
 16 17  1  0  0  0  0
 17 18  1  0  0  0  0
 17 28  2  0  0  0  0
 18 19  2  0  0  0  0
 18 44  1  0  0  0  0
 19 20  1  0  0  0  0
 19 26  1  0  0  0  0
 20 21  1  0  0  0  0
 20 45  1  0  0  0  0
 21 22  2  0  0  0  0
 21 23  1  0  0  0  0
 23 24  1  0  0  0  0
 23 25  1  0  0  0  0
 23 46  1  0  0  0  0
 24 25  1  0  0  0  0
 24 47  1  0  0  0  0
 24 48  1  0  0  0  0
 25 49  1  0  0  0  0
 25 50  1  0  0  0  0
 26 27  2  0  0  0  0
 27 28  1  0  0  0  0
 27 51  1  0  0  0  0
 29 30  1  0  0  0  0
 29 31  1  0  0  0  0
 31 52  1  0  0  0  0
 32 33  2  0  0  0  0
 32 53  1  0  0  0  0
 33 34  1  0  0  0  0
 33 54  1  0  0  0  0
 34 35  1  0  0  0  0
M  END
$$$$
