CHEMBL1242376
 OpenBabel04072215363D

 39 42  0  0  0  0  0  0  0  0999 V2000
    1.0471    0.2154   -0.0058 N   0  0  0  0  0  0  0  0  0  0  0  0
    2.4232    0.0383   -0.0262 C   0  0  0  0  0  0  0  0  0  0  0  0
    3.1581    1.1709   -0.0217 N   0  0  0  0  0  0  0  0  0  0  0  0
    4.4992    1.0762   -0.0327 C   0  0  0  0  0  0  0  0  0  0  0  0
    5.2460   -0.0377   -0.0339 N   0  0  0  0  0  0  0  0  0  0  0  0
    4.4794   -1.1437   -0.0447 C   0  0  0  0  0  0  0  0  0  0  0  0
    3.0943   -1.1983   -0.0572 C   0  0  0  0  0  0  0  0  0  0  0  0
    2.7902   -2.6006   -0.1187 C   0  0  0  0  0  0  0  0  0  0  0  0
    1.4885   -3.2721   -0.2349 C   0  0  0  0  0  0  0  0  0  0  0  0
    0.4343   -2.6868   -0.9517 C   0  0  0  0  0  0  0  0  0  0  0  0
   -0.8162   -3.3043   -1.0351 C   0  0  0  0  0  0  0  0  0  0  0  0
   -1.0038   -4.5573   -0.4607 C   0  0  0  0  0  0  0  0  0  0  0  0
   -2.6922   -5.3993   -0.6190 Br  0  0  0  0  0  0  0  0  0  0  0  0
    0.0530   -5.1803    0.2037 C   0  0  0  0  0  0  0  0  0  0  0  0
   -0.0656   -6.4321    0.7417 O   0  0  0  0  0  0  0  0  0  0  0  0
    1.2860   -4.5403    0.3310 C   0  0  0  0  0  0  0  0  0  0  0  0
    3.9150   -3.3387   -0.0731 N   0  0  0  0  0  0  0  0  0  0  0  0
    4.9182   -2.4364   -0.0575 N   0  0  0  0  0  0  0  0  0  0  0  0
    6.2992   -2.8798   -0.0541 C   0  0  0  0  0  0  0  0  0  0  0  0
    6.6753   -3.7715   -1.2377 C   0  0  0  0  0  0  0  0  0  0  0  0
    7.9089   -4.5464   -0.7772 C   0  0  0  0  0  0  0  0  0  0  0  0
    7.9762   -4.4003    0.7420 C   0  0  0  0  0  0  0  0  0  0  0  0
    6.6745   -3.7285    1.1584 C   0  0  0  0  0  0  0  0  0  0  0  0
    0.8100    1.1783    0.2108 H   0  0  0  0  0  0  0  0  0  0  0  0
    0.5223   -0.4882    0.4978 H   0  0  0  0  0  0  0  0  0  0  0  0
    5.0400    2.0188   -0.0467 H   0  0  0  0  0  0  0  0  0  0  0  0
    0.5734   -1.7437   -1.4765 H   0  0  0  0  0  0  0  0  0  0  0  0
   -1.6226   -2.8052   -1.5666 H   0  0  0  0  0  0  0  0  0  0  0  0
   -0.9459   -6.7712    0.4958 H   0  0  0  0  0  0  0  0  0  0  0  0
    2.0955   -5.0461    0.8562 H   0  0  0  0  0  0  0  0  0  0  0  0
    6.9394   -1.9855   -0.0714 H   0  0  0  0  0  0  0  0  0  0  0  0
    6.8772   -3.1870   -2.1417 H   0  0  0  0  0  0  0  0  0  0  0  0
    5.8750   -4.4793   -1.4843 H   0  0  0  0  0  0  0  0  0  0  0  0
    8.8186   -4.1434   -1.2363 H   0  0  0  0  0  0  0  0  0  0  0  0
    7.8356   -5.5984   -1.0726 H   0  0  0  0  0  0  0  0  0  0  0  0
    8.8304   -3.7692    1.0139 H   0  0  0  0  0  0  0  0  0  0  0  0
    8.1113   -5.3658    1.2402 H   0  0  0  0  0  0  0  0  0  0  0  0
    6.7976   -3.1259    2.0642 H   0  0  0  0  0  0  0  0  0  0  0  0
    5.9152   -4.4913    1.3691 H   0  0  0  0  0  0  0  0  0  0  0  0
  1  2  1  0  0  0  0
  1 24  1  0  0  0  0
  1 25  1  0  0  0  0
  2  3  1  0  0  0  0
  2  7  2  0  0  0  0
  3  4  2  0  0  0  0
  4  5  1  0  0  0  0
  4 26  1  0  0  0  0
  5  6  2  0  0  0  0
  6  7  1  0  0  0  0
  6 18  1  0  0  0  0
  7  8  1  0  0  0  0
  8  9  1  0  0  0  0
  8 17  2  0  0  0  0
  9 10  1  0  0  0  0
  9 16  2  0  0  0  0
 10 11  2  0  0  0  0
 10 27  1  0  0  0  0
 11 12  1  0  0  0  0
 11 28  1  0  0  0  0
 12 13  1  0  0  0  0
 12 14  2  0  0  0  0
 14 15  1  0  0  0  0
 14 16  1  0  0  0  0
 15 29  1  0  0  0  0
 16 30  1  0  0  0  0
 17 18  1  0  0  0  0
 18 19  1  0  0  0  0
 19 20  1  0  0  0  0
 19 23  1  0  0  0  0
 19 31  1  0  0  0  0
 20 21  1  0  0  0  0
 20 32  1  0  0  0  0
 20 33  1  0  0  0  0
 21 22  1  0  0  0  0
 21 34  1  0  0  0  0
 21 35  1  0  0  0  0
 22 23  1  0  0  0  0
 22 36  1  0  0  0  0
 22 37  1  0  0  0  0
 23 38  1  0  0  0  0
 23 39  1  0  0  0  0
M  END
$$$$
