CHEMBL475251
 OpenBabel04072215383D

 57 60  0  0  0  0  0  0  0  0999 V2000
    1.9108   -0.4451    0.0670 C   0  0  0  0  0  0  0  0  0  0  0  0
    3.3204   -0.4753    0.2602 O   0  0  0  0  0  0  0  0  0  0  0  0
    3.8914    0.5652    0.9469 C   0  0  0  0  0  0  0  0  0  0  0  0
    3.1592    1.3605    1.8302 C   0  0  0  0  0  0  0  0  0  0  0  0
    3.7734    2.3219    2.6432 C   0  0  0  0  0  0  0  0  0  0  0  0
    3.0335    3.0594    3.5903 N   0  0  0  0  0  0  0  0  0  0  0  0
    1.8974    2.5680    4.2469 C   0  0  0  0  0  0  0  0  0  0  0  0
    1.7987    1.2578    4.5259 N   0  0  0  0  0  0  0  0  0  0  0  0
    0.6397    0.8212    5.0464 C   0  0  0  0  0  0  0  0  0  0  0  0
   -0.4167    1.6500    5.3102 C   0  0  0  0  0  0  0  0  0  0  0  0
   -1.5583    1.1751    5.8249 F   0  0  0  0  0  0  0  0  0  0  0  0
   -0.2274    2.9975    5.0633 C   0  0  0  0  0  0  0  0  0  0  0  0
   -1.2711    3.8998    5.3661 N   0  0  0  0  0  0  0  0  0  0  0  0
   -1.1438    5.2616    5.6722 C   0  0  0  0  0  0  0  0  0  0  0  0
   -0.1540    6.0631    5.1012 C   0  0  0  0  0  0  0  0  0  0  0  0
   -0.0067    7.3826    5.5007 C   0  0  0  0  0  0  0  0  0  0  0  0
   -0.9002    7.8926    6.4161 C   0  0  0  0  0  0  0  0  0  0  0  0
   -1.8850    7.0531    6.9283 C   0  0  0  0  0  0  0  0  0  0  0  0
   -2.0211    5.7546    6.5780 N   0  0  0  0  0  0  0  0  0  0  0  0
   -2.7341    7.5409    7.9105 N   0  0  0  0  0  0  0  0  0  0  0  0
   -2.6605    8.8442    8.3326 C   0  0  0  0  0  0  0  0  0  0  0  0
   -3.2472    9.2226    9.3442 O   0  0  0  0  0  0  0  0  0  0  0  0
   -1.8974    9.7842    7.3676 C   0  0  0  0  0  0  0  0  0  0  0  0
   -2.8538   10.2067    6.2383 C   0  0  0  0  0  0  0  0  0  0  0  0
   -1.4117   11.0370    8.0993 C   0  0  0  0  0  0  0  0  0  0  0  0
   -0.7326    9.1992    6.7758 O   0  0  0  0  0  0  0  0  0  0  0  0
    0.9258    3.4463    4.5147 N   0  0  0  0  0  0  0  0  0  0  0  0
    5.1358    2.5648    2.4892 C   0  0  0  0  0  0  0  0  0  0  0  0
    5.8967    1.7699    1.6259 C   0  0  0  0  0  0  0  0  0  0  0  0
    7.2554    1.9314    1.4761 O   0  0  0  0  0  0  0  0  0  0  0  0
    7.9538    2.3205    2.6550 C   0  0  0  0  0  0  0  0  0  0  0  0
    5.2777    0.7748    0.8362 C   0  0  0  0  0  0  0  0  0  0  0  0
    6.1296    0.0343    0.0499 O   0  0  0  0  0  0  0  0  0  0  0  0
    5.6051   -0.4444   -1.1820 C   0  0  0  0  0  0  0  0  0  0  0  0
    1.6393   -1.3155   -0.5374 H   0  0  0  0  0  0  0  0  0  0  0  0
    1.6158    0.4545   -0.4831 H   0  0  0  0  0  0  0  0  0  0  0  0
    1.3637   -0.5305    1.0114 H   0  0  0  0  0  0  0  0  0  0  0  0
    2.0919    1.2107    1.9433 H   0  0  0  0  0  0  0  0  0  0  0  0
    2.8436    4.0115    3.2991 H   0  0  0  0  0  0  0  0  0  0  0  0
    0.5914   -0.2419    5.2525 H   0  0  0  0  0  0  0  0  0  0  0  0
   -1.9931    3.5004    5.9580 H   0  0  0  0  0  0  0  0  0  0  0  0
    0.5322    5.6801    4.3573 H   0  0  0  0  0  0  0  0  0  0  0  0
    0.7949    7.9947    5.1007 H   0  0  0  0  0  0  0  0  0  0  0  0
   -3.3177    6.8848    8.4074 H   0  0  0  0  0  0  0  0  0  0  0  0
   -3.7276   10.7353    6.6322 H   0  0  0  0  0  0  0  0  0  0  0  0
   -3.2217    9.3422    5.6732 H   0  0  0  0  0  0  0  0  0  0  0  0
   -2.3428   10.8523    5.5152 H   0  0  0  0  0  0  0  0  0  0  0  0
   -2.2372   11.5953    8.5535 H   0  0  0  0  0  0  0  0  0  0  0  0
   -0.8795   11.7045    7.4120 H   0  0  0  0  0  0  0  0  0  0  0  0
   -0.6999   10.7735    8.8902 H   0  0  0  0  0  0  0  0  0  0  0  0
    5.5978    3.3466    3.0824 H   0  0  0  0  0  0  0  0  0  0  0  0
    9.0168    2.1127    2.5001 H   0  0  0  0  0  0  0  0  0  0  0  0
    7.6273    1.7503    3.5324 H   0  0  0  0  0  0  0  0  0  0  0  0
    7.8478    3.3960    2.8267 H   0  0  0  0  0  0  0  0  0  0  0  0
    6.4499   -0.6443   -1.8472 H   0  0  0  0  0  0  0  0  0  0  0  0
    4.9640    0.2946   -1.6756 H   0  0  0  0  0  0  0  0  0  0  0  0
    5.0828   -1.3953   -1.0377 H   0  0  0  0  0  0  0  0  0  0  0  0
  1  2  1  0  0  0  0
  1 35  1  0  0  0  0
  1 36  1  0  0  0  0
  1 37  1  0  0  0  0
  2  3  1  0  0  0  0
  3  4  1  0  0  0  0
  3 32  2  0  0  0  0
  4  5  2  0  0  0  0
  4 38  1  0  0  0  0
  5  6  1  0  0  0  0
  5 28  1  0  0  0  0
  6  7  1  0  0  0  0
  6 39  1  0  0  0  0
  7  8  1  0  0  0  0
  7 27  2  0  0  0  0
  8  9  2  0  0  0  0
  9 10  1  0  0  0  0
  9 40  1  0  0  0  0
 10 11  1  0  0  0  0
 10 12  2  0  0  0  0
 12 13  1  0  0  0  0
 12 27  1  0  0  0  0
 13 14  1  0  0  0  0
 13 41  1  0  0  0  0
 14 15  1  0  0  0  0
 14 19  2  0  0  0  0
 15 16  2  0  0  0  0
 15 42  1  0  0  0  0
 16 17  1  0  0  0  0
 16 43  1  0  0  0  0
 17 18  2  0  0  0  0
 17 26  1  0  0  0  0
 18 19  1  0  0  0  0
 18 20  1  0  0  0  0
 20 21  1  0  0  0  0
 20 44  1  0  0  0  0
 21 22  2  0  0  0  0
 21 23  1  0  0  0  0
 23 24  1  0  0  0  0
 23 25  1  0  0  0  0
 23 26  1  0  0  0  0
 24 45  1  0  0  0  0
 24 46  1  0  0  0  0
 24 47  1  0  0  0  0
 25 48  1  0  0  0  0
 25 49  1  0  0  0  0
 25 50  1  0  0  0  0
 28 29  2  0  0  0  0
 28 51  1  0  0  0  0
 29 30  1  0  0  0  0
 29 32  1  0  0  0  0
 30 31  1  0  0  0  0
 31 52  1  0  0  0  0
 31 53  1  0  0  0  0
 31 54  1  0  0  0  0
 32 33  1  0  0  0  0
 33 34  1  0  0  0  0
 34 55  1  0  0  0  0
 34 56  1  0  0  0  0
 34 57  1  0  0  0  0
M  END
$$$$
