CHEMBL4211935
 OpenBabel04072215383D

 49 52  0  0  0  0  0  0  0  0999 V2000
    3.1267   -1.3695    5.9932 C   0  0  0  0  0  0  0  0  0  0  0  0
    3.8604   -1.2269    4.6845 C   0  0  0  0  0  0  0  0  0  0  0  0
    3.2913   -1.4921    3.6307 O   0  0  0  0  0  0  0  0  0  0  0  0
    5.1603   -0.7892    4.8576 N   0  0  0  0  0  0  0  0  0  0  0  0
    5.9943   -0.4624    3.8157 C   0  0  0  0  0  0  0  0  0  0  0  0
    7.3442   -0.2003    3.9224 C   0  0  0  0  0  0  0  0  0  0  0  0
    7.7617    0.0803    2.6407 N   0  0  0  0  0  0  0  0  0  0  0  0
    9.0359    0.3781    2.1595 C   0  0  0  0  0  0  0  0  0  0  0  0
    9.2022    0.6494    0.8453 C   0  0  0  0  0  0  0  0  0  0  0  0
   10.5468    0.9926    0.3470 C   0  0  0  0  0  0  0  0  0  0  0  0
   10.9060    2.3524    0.3154 C   0  0  0  0  0  0  0  0  0  0  0  0
   12.1630    2.7610   -0.1344 C   0  0  0  0  0  0  0  0  0  0  0  0
   12.5456    4.1179   -0.2514 N   0  0  0  0  0  0  0  0  0  0  0  0
   11.6848    5.2052   -0.2633 C   0  0  0  0  0  0  0  0  0  0  0  0
   10.4602    5.1596   -0.1989 O   0  0  0  0  0  0  0  0  0  0  0  0
   12.3213    6.5413   -0.4479 C   0  0  0  0  0  0  0  0  0  0  0  0
   11.5978    7.5280   -1.1313 C   0  0  0  0  0  0  0  0  0  0  0  0
   12.1399    8.8005   -1.3206 C   0  0  0  0  0  0  0  0  0  0  0  0
   13.4060    9.0959   -0.8152 C   0  0  0  0  0  0  0  0  0  0  0  0
   14.1237    8.1236   -0.1175 C   0  0  0  0  0  0  0  0  0  0  0  0
   13.5846    6.8467    0.0700 C   0  0  0  0  0  0  0  0  0  0  0  0
   13.0917    1.7836   -0.5004 C   0  0  0  0  0  0  0  0  0  0  0  0
   12.7363    0.4291   -0.5042 C   0  0  0  0  0  0  0  0  0  0  0  0
   11.4529    0.0202   -0.1129 C   0  0  0  0  0  0  0  0  0  0  0  0
   11.0770   -1.4335   -0.2012 C   0  0  0  0  0  0  0  0  0  0  0  0
    8.0171    0.6372   -0.0145 C   0  0  0  0  0  0  0  0  0  0  0  0
    6.7946    0.3358    0.4619 C   0  0  0  0  0  0  0  0  0  0  0  0
    6.6332    0.0241    1.8380 C   0  0  0  0  0  0  0  0  0  0  0  0
    5.5697   -0.3169    2.5286 N   0  0  0  0  0  0  0  0  0  0  0  0
    2.2274   -1.9740    5.8386 H   0  0  0  0  0  0  0  0  0  0  0  0
    2.8317   -0.3807    6.3544 H   0  0  0  0  0  0  0  0  0  0  0  0
    3.7509   -1.8701    6.7382 H   0  0  0  0  0  0  0  0  0  0  0  0
    5.5488   -0.7405    5.7854 H   0  0  0  0  0  0  0  0  0  0  0  0
    8.0276   -0.2042    4.7547 H   0  0  0  0  0  0  0  0  0  0  0  0
    9.8458    0.3819    2.8772 H   0  0  0  0  0  0  0  0  0  0  0  0
   10.1754    3.0826    0.6553 H   0  0  0  0  0  0  0  0  0  0  0  0
   13.5056    4.2875   -0.5212 H   0  0  0  0  0  0  0  0  0  0  0  0
   10.6031    7.3085   -1.5174 H   0  0  0  0  0  0  0  0  0  0  0  0
   11.5723    9.5604   -1.8524 H   0  0  0  0  0  0  0  0  0  0  0  0
   13.8259   10.0888   -0.9544 H   0  0  0  0  0  0  0  0  0  0  0  0
   15.1015    8.3685    0.2941 H   0  0  0  0  0  0  0  0  0  0  0  0
   14.1469    6.1203    0.6501 H   0  0  0  0  0  0  0  0  0  0  0  0
   14.0907    2.0576   -0.8295 H   0  0  0  0  0  0  0  0  0  0  0  0
   13.4663   -0.3056   -0.8382 H   0  0  0  0  0  0  0  0  0  0  0  0
   11.8553   -2.0176   -0.7050 H   0  0  0  0  0  0  0  0  0  0  0  0
   10.1606   -1.5561   -0.7892 H   0  0  0  0  0  0  0  0  0  0  0  0
   10.9307   -1.8567    0.7968 H   0  0  0  0  0  0  0  0  0  0  0  0
    8.1481    0.8952   -1.0629 H   0  0  0  0  0  0  0  0  0  0  0  0
    5.9150    0.3360   -0.1740 H   0  0  0  0  0  0  0  0  0  0  0  0
  1  2  1  0  0  0  0
  1 30  1  0  0  0  0
  1 31  1  0  0  0  0
  1 32  1  0  0  0  0
  2  3  2  0  0  0  0
  2  4  1  0  0  0  0
  4  5  1  0  0  0  0
  4 33  1  0  0  0  0
  5  6  2  0  0  0  0
  5 29  1  0  0  0  0
  6  7  1  0  0  0  0
  6 34  1  0  0  0  0
  7  8  1  0  0  0  0
  7 28  1  0  0  0  0
  8  9  2  0  0  0  0
  8 35  1  0  0  0  0
  9 10  1  0  0  0  0
  9 26  1  0  0  0  0
 10 11  1  0  0  0  0
 10 24  2  0  0  0  0
 11 12  2  0  0  0  0
 11 36  1  0  0  0  0
 12 13  1  0  0  0  0
 12 22  1  0  0  0  0
 13 14  1  0  0  0  0
 13 37  1  0  0  0  0
 14 15  2  0  0  0  0
 14 16  1  0  0  0  0
 16 17  1  0  0  0  0
 16 21  2  0  0  0  0
 17 18  2  0  0  0  0
 17 38  1  0  0  0  0
 18 19  1  0  0  0  0
 18 39  1  0  0  0  0
 19 20  2  0  0  0  0
 19 40  1  0  0  0  0
 20 21  1  0  0  0  0
 20 41  1  0  0  0  0
 21 42  1  0  0  0  0
 22 23  2  0  0  0  0
 22 43  1  0  0  0  0
 23 24  1  0  0  0  0
 23 44  1  0  0  0  0
 24 25  1  0  0  0  0
 25 45  1  0  0  0  0
 25 46  1  0  0  0  0
 25 47  1  0  0  0  0
 26 27  2  0  0  0  0
 26 48  1  0  0  0  0
 27 28  1  0  0  0  0
 27 49  1  0  0  0  0
 28 29  2  0  0  0  0
M  END
$$$$
