CHEMBL2430248
 OpenBabel04072215363D

 62 66  0  0  0  0  0  0  0  0999 V2000
    1.0220    0.3017   -0.0202 C   0  0  0  0  0  0  0  0  0  0  0  0
    2.4826    0.0153   -0.0323 C   0  0  0  0  0  0  0  0  0  0  0  0
    3.3973    1.0666   -0.0251 N   0  0  0  0  0  0  0  0  0  0  0  0
    4.6790    0.5863   -0.0078 C   0  0  0  0  0  0  0  0  0  0  0  0
    4.5797   -0.7910   -0.0081 C   0  0  0  0  0  0  0  0  0  0  0  0
    3.1987   -1.1818   -0.0399 C   0  0  0  0  0  0  0  0  0  0  0  0
    2.7769   -2.5979   -0.0508 C   0  0  0  0  0  0  0  0  0  0  0  0
    3.5967   -3.5137    0.0323 O   0  0  0  0  0  0  0  0  0  0  0  0
    1.4333   -2.8931   -0.1321 N   0  0  0  0  0  0  0  0  0  0  0  0
    0.9864   -4.2642    0.0767 C   0  0  0  0  0  0  0  0  0  0  0  0
    0.9444   -4.5832    1.5707 C   0  0  0  0  0  0  0  0  0  0  0  0
    0.5812   -6.0412    1.8859 C   0  0  0  0  0  0  0  0  0  0  0  0
    0.4810   -6.2621    3.3416 N   0  0  0  0  0  0  0  0  0  0  0  0
    1.7695   -6.1066    4.0565 C   0  0  0  0  0  0  0  0  0  0  0  0
    2.7547   -7.2528    3.7907 C   0  0  0  0  0  0  0  0  0  0  0  0
    2.1935   -8.5005    4.2149 O   0  0  0  0  0  0  0  0  0  0  0  0
    0.9555   -8.7622    3.5418 C   0  0  0  0  0  0  0  0  0  0  0  0
   -0.0517   -7.6020    3.6782 C   0  0  0  0  0  0  0  0  0  0  0  0
    5.7386   -1.7224    0.0236 C   0  0  0  0  0  0  0  0  0  0  0  0
    7.1019   -1.0660    0.0406 C   0  0  0  0  0  0  0  0  0  0  0  0
    7.1779    0.4587    0.0278 C   0  0  0  0  0  0  0  0  0  0  0  0
    5.9136    1.3188    0.0097 C   0  0  0  0  0  0  0  0  0  0  0  0
    6.0814    2.6696    0.0085 C   0  0  0  0  0  0  0  0  0  0  0  0
    5.0296    3.7661   -0.0036 C   0  0  0  0  0  0  0  0  0  0  0  0
    3.8177    3.6575   -0.0147 O   0  0  0  0  0  0  0  0  0  0  0  0
    5.7279    4.9657    0.0005 N   0  0  0  0  0  0  0  0  0  0  0  0
    7.1016    4.7687    0.0108 C   0  0  0  0  0  0  0  0  0  0  0  0
    8.0713    5.7548    0.0188 C   0  0  0  0  0  0  0  0  0  0  0  0
    9.4115    5.3567    0.0295 C   0  0  0  0  0  0  0  0  0  0  0  0
    9.7258    4.0003    0.0340 C   0  0  0  0  0  0  0  0  0  0  0  0
   11.0098    3.6188    0.0491 F   0  0  0  0  0  0  0  0  0  0  0  0
    8.7352    3.0219    0.0303 C   0  0  0  0  0  0  0  0  0  0  0  0
    7.3967    3.4003    0.0186 C   0  0  0  0  0  0  0  0  0  0  0  0
    0.8129    1.3761   -0.0091 H   0  0  0  0  0  0  0  0  0  0  0  0
    0.5550   -0.1335    0.8700 H   0  0  0  0  0  0  0  0  0  0  0  0
    0.5400   -0.1193   -0.9085 H   0  0  0  0  0  0  0  0  0  0  0  0
    3.1455    2.0523   -0.0215 H   0  0  0  0  0  0  0  0  0  0  0  0
    0.7638   -2.1454   -0.0758 H   0  0  0  0  0  0  0  0  0  0  0  0
    1.6761   -4.9463   -0.4363 H   0  0  0  0  0  0  0  0  0  0  0  0
    0.0007   -4.3689   -0.3844 H   0  0  0  0  0  0  0  0  0  0  0  0
    0.2279   -3.9100    2.0575 H   0  0  0  0  0  0  0  0  0  0  0  0
    1.9278   -4.3486    1.9895 H   0  0  0  0  0  0  0  0  0  0  0  0
    1.2959   -6.7242    1.4122 H   0  0  0  0  0  0  0  0  0  0  0  0
   -0.3971   -6.2431    1.4323 H   0  0  0  0  0  0  0  0  0  0  0  0
    1.5419   -6.0887    5.1307 H   0  0  0  0  0  0  0  0  0  0  0  0
    2.2400   -5.1427    3.8485 H   0  0  0  0  0  0  0  0  0  0  0  0
    3.6717   -7.0897    4.3655 H   0  0  0  0  0  0  0  0  0  0  0  0
    3.0401   -7.3190    2.7345 H   0  0  0  0  0  0  0  0  0  0  0  0
    0.5311   -9.6624    4.0004 H   0  0  0  0  0  0  0  0  0  0  0  0
    1.1614   -8.9923    2.4912 H   0  0  0  0  0  0  0  0  0  0  0  0
   -0.3714   -7.5589    4.7280 H   0  0  0  0  0  0  0  0  0  0  0  0
   -0.9578   -7.8212    3.1011 H   0  0  0  0  0  0  0  0  0  0  0  0
    5.6885   -2.3834   -0.8500 H   0  0  0  0  0  0  0  0  0  0  0  0
    5.6571   -2.3573    0.9145 H   0  0  0  0  0  0  0  0  0  0  0  0
    7.6842   -1.4464   -0.8093 H   0  0  0  0  0  0  0  0  0  0  0  0
    7.6529   -1.4292    0.9187 H   0  0  0  0  0  0  0  0  0  0  0  0
    7.7555    0.7103   -0.8700 H   0  0  0  0  0  0  0  0  0  0  0  0
    7.7398    0.7248    0.9314 H   0  0  0  0  0  0  0  0  0  0  0  0
    5.2679    5.8644   -0.0047 H   0  0  0  0  0  0  0  0  0  0  0  0
    7.8241    6.8091    0.0138 H   0  0  0  0  0  0  0  0  0  0  0  0
   10.2210    6.0796    0.0340 H   0  0  0  0  0  0  0  0  0  0  0  0
    9.0933    2.0028    0.0358 H   0  0  0  0  0  0  0  0  0  0  0  0
  1  2  1  0  0  0  0
  1 34  1  0  0  0  0
  1 35  1  0  0  0  0
  1 36  1  0  0  0  0
  2  3  1  0  0  0  0
  2  6  2  0  0  0  0
  3  4  1  0  0  0  0
  3 37  1  0  0  0  0
  4  5  2  0  0  0  0
  4 22  1  0  0  0  0
  5  6  1  0  0  0  0
  5 19  1  0  0  0  0
  6  7  1  0  0  0  0
  7  8  2  0  0  0  0
  7  9  1  0  0  0  0
  9 10  1  0  0  0  0
  9 38  1  0  0  0  0
 10 11  1  0  0  0  0
 10 39  1  0  0  0  0
 10 40  1  0  0  0  0
 11 12  1  0  0  0  0
 11 41  1  0  0  0  0
 11 42  1  0  0  0  0
 12 13  1  0  0  0  0
 12 43  1  0  0  0  0
 12 44  1  0  0  0  0
 13 14  1  0  0  0  0
 13 18  1  0  0  0  0
 14 15  1  0  0  0  0
 14 45  1  0  0  0  0
 14 46  1  0  0  0  0
 15 16  1  0  0  0  0
 15 47  1  0  0  0  0
 15 48  1  0  0  0  0
 16 17  1  0  0  0  0
 17 18  1  0  0  0  0
 17 49  1  0  0  0  0
 17 50  1  0  0  0  0
 18 51  1  0  0  0  0
 18 52  1  0  0  0  0
 19 20  1  0  0  0  0
 19 53  1  0  0  0  0
 19 54  1  0  0  0  0
 20 21  1  0  0  0  0
 20 55  1  0  0  0  0
 20 56  1  0  0  0  0
 21 22  1  0  0  0  0
 21 57  1  0  0  0  0
 21 58  1  0  0  0  0
 22 23  2  0  0  0  0
 23 24  1  0  0  0  0
 23 33  1  0  0  0  0
 24 25  2  0  0  0  0
 24 26  1  0  0  0  0
 26 27  1  0  0  0  0
 26 59  1  0  0  0  0
 27 28  1  0  0  0  0
 27 33  2  0  0  0  0
 28 29  2  0  0  0  0
 28 60  1  0  0  0  0
 29 30  1  0  0  0  0
 29 61  1  0  0  0  0
 30 31  1  0  0  0  0
 30 32  2  0  0  0  0
 32 33  1  0  0  0  0
 32 62  1  0  0  0  0
M  END
$$$$
