CHEMBL4557230
 OpenBabel04072215383D

 46 49  0  0  0  0  0  0  0  0999 V2000
    5.9919    8.5681   -5.6168 C   0  0  0  0  0  0  0  0  0  0  0  0
    4.8041    8.4565   -4.8381 O   0  0  0  0  0  0  0  0  0  0  0  0
    4.9153    7.8367   -3.6215 C   0  0  0  0  0  0  0  0  0  0  0  0
    6.0861    7.3064   -3.0811 C   0  0  0  0  0  0  0  0  0  0  0  0
    6.0616    6.6826   -1.8301 C   0  0  0  0  0  0  0  0  0  0  0  0
    4.8718    6.5833   -1.0936 C   0  0  0  0  0  0  0  0  0  0  0  0
    4.8774    5.8049    0.1932 C   0  0  0  0  0  0  0  0  0  0  0  0
    4.2377    6.4978    1.3692 C   0  0  0  0  0  0  0  0  0  0  0  0
    3.0377    6.3059    1.6115 O   0  0  0  0  0  0  0  0  0  0  0  0
    5.0899    7.3034    2.1365 N   0  0  0  0  0  0  0  0  0  0  0  0
    4.6516    7.8012    3.3917 C   0  0  0  0  0  0  0  0  0  0  0  0
    3.8699    6.9476    4.1845 C   0  0  0  0  0  0  0  0  0  0  0  0
    3.0636    7.4403    5.1920 C   0  0  0  0  0  0  0  0  0  0  0  0
    3.1842    8.7986    5.3990 C   0  0  0  0  0  0  0  0  0  0  0  0
    2.3666    9.7221    5.9766 N   0  0  0  0  0  0  0  0  0  0  0  0
    3.1939   10.6580    6.5135 C   0  0  0  0  0  0  0  0  0  0  0  0
    2.8918   11.2096    7.8431 C   0  0  0  0  0  0  0  0  0  0  0  0
    1.9695   10.5207    8.6726 C   0  0  0  0  0  0  0  0  0  0  0  0
    1.7274   10.9013    9.9937 C   0  0  0  0  0  0  0  0  0  0  0  0
    2.4197   11.9752   10.5218 C   0  0  0  0  0  0  0  0  0  0  0  0
    2.1513   12.4150   12.1688 Cl  0  0  0  0  0  0  0  0  0  0  0  0
    3.3313   12.6788    9.7334 C   0  0  0  0  0  0  0  0  0  0  0  0
    3.5776   12.2983    8.3977 C   0  0  0  0  0  0  0  0  0  0  0  0
    4.2232   10.7890    5.6761 N   0  0  0  0  0  0  0  0  0  0  0  0
    4.1961    9.6127    4.9115 C   0  0  0  0  0  0  0  0  0  0  0  0
    4.9346    9.1218    3.8124 C   0  0  0  0  0  0  0  0  0  0  0  0
    3.7008    7.1183   -1.6430 C   0  0  0  0  0  0  0  0  0  0  0  0
    3.7236    7.7364   -2.8943 C   0  0  0  0  0  0  0  0  0  0  0  0
    5.7476    9.1284   -6.5243 H   0  0  0  0  0  0  0  0  0  0  0  0
    6.3542    7.5819   -5.9205 H   0  0  0  0  0  0  0  0  0  0  0  0
    6.7663    9.1285   -5.0818 H   0  0  0  0  0  0  0  0  0  0  0  0
    7.0323    7.3455   -3.6082 H   0  0  0  0  0  0  0  0  0  0  0  0
    6.9847    6.2499   -1.4421 H   0  0  0  0  0  0  0  0  0  0  0  0
    5.8911    5.5051    0.4771 H   0  0  0  0  0  0  0  0  0  0  0  0
    4.3242    4.8701    0.0243 H   0  0  0  0  0  0  0  0  0  0  0  0
    5.8104    7.8109    1.6380 H   0  0  0  0  0  0  0  0  0  0  0  0
    3.7957    5.8883    3.9479 H   0  0  0  0  0  0  0  0  0  0  0  0
    2.3548    6.8184    5.7210 H   0  0  0  0  0  0  0  0  0  0  0  0
    1.3713    9.6241    6.1301 H   0  0  0  0  0  0  0  0  0  0  0  0
    1.4442    9.6417    8.3227 H   0  0  0  0  0  0  0  0  0  0  0  0
    1.0258   10.3301   10.6006 H   0  0  0  0  0  0  0  0  0  0  0  0
    3.8790   13.5079   10.1704 H   0  0  0  0  0  0  0  0  0  0  0  0
    4.3291   12.8303    7.8216 H   0  0  0  0  0  0  0  0  0  0  0  0
    5.5996    9.7794    3.2689 H   0  0  0  0  0  0  0  0  0  0  0  0
    2.7404    7.0304   -1.1172 H   0  0  0  0  0  0  0  0  0  0  0  0
    2.8051    8.1393   -3.3265 H   0  0  0  0  0  0  0  0  0  0  0  0
  1  2  1  0  0  0  0
  1 29  1  0  0  0  0
  1 30  1  0  0  0  0
  1 31  1  0  0  0  0
  2  3  1  0  0  0  0
  3  4  1  0  0  0  0
  3 28  2  0  0  0  0
  4  5  2  0  0  0  0
  4 32  1  0  0  0  0
  5  6  1  0  0  0  0
  5 33  1  0  0  0  0
  6  7  1  0  0  0  0
  6 27  2  0  0  0  0
  7  8  1  0  0  0  0
  7 34  1  0  0  0  0
  7 35  1  0  0  0  0
  8  9  2  0  0  0  0
  8 10  1  0  0  0  0
 10 11  1  0  0  0  0
 10 36  1  0  0  0  0
 11 12  1  0  0  0  0
 11 26  2  0  0  0  0
 12 13  2  0  0  0  0
 12 37  1  0  0  0  0
 13 14  1  0  0  0  0
 13 38  1  0  0  0  0
 14 15  1  0  0  0  0
 14 25  2  0  0  0  0
 15 16  1  0  0  0  0
 15 39  1  0  0  0  0
 16 17  1  0  0  0  0
 16 24  2  0  0  0  0
 17 18  1  0  0  0  0
 17 23  2  0  0  0  0
 18 19  2  0  0  0  0
 18 40  1  0  0  0  0
 19 20  1  0  0  0  0
 19 41  1  0  0  0  0
 20 21  1  0  0  0  0
 20 22  2  0  0  0  0
 22 23  1  0  0  0  0
 22 42  1  0  0  0  0
 23 43  1  0  0  0  0
 24 25  1  0  0  0  0
 25 26  1  0  0  0  0
 26 44  1  0  0  0  0
 27 28  1  0  0  0  0
 27 45  1  0  0  0  0
 28 46  1  0  0  0  0
M  END
$$$$
