CHEMBL293712
 OpenBabel04072215363D

 70 74  0  0  0  0  0  0  0  0999 V2000
    2.3484    0.3205    3.5938 C   0  0  0  0  0  0  0  0  0  0  0  0
    2.3922    0.4272    2.1351 N   0  0  0  0  0  0  0  0  0  0  0  0
    3.0089   -0.8965    1.2919 S   0  0  0  0  0  0  0  0  0  0  0  0
    2.4542   -2.0960    1.8812 O   0  0  0  0  0  0  0  0  0  0  0  0
    2.8996   -0.6167   -0.1218 O   0  0  0  0  0  0  0  0  0  0  0  0
    4.7450   -0.8131    1.7122 C   0  0  0  0  0  0  0  0  0  0  0  0
    5.3008   -1.9087    2.3998 C   0  0  0  0  0  0  0  0  0  0  0  0
    6.6390   -1.8828    2.7733 C   0  0  0  0  0  0  0  0  0  0  0  0
    7.3723   -0.7556    2.4324 C   0  0  0  0  0  0  0  0  0  0  0  0
    6.8513    0.3512    1.7497 C   0  0  0  0  0  0  0  0  0  0  0  0
    5.5122    0.3336    1.3752 C   0  0  0  0  0  0  0  0  0  0  0  0
    7.9871    1.3048    1.6054 C   0  0  0  0  0  0  0  0  0  0  0  0
    7.9919    2.5410    1.0695 C   0  0  0  0  0  0  0  0  0  0  0  0
    9.1355    3.3999    1.0712 C   0  0  0  0  0  0  0  0  0  0  0  0
   10.0233    3.3367    0.0158 N   0  0  0  0  0  0  0  0  0  0  0  0
   11.0785    4.1819    0.2459 C   0  0  0  0  0  0  0  0  0  0  0  0
   10.8928    4.7910    1.4689 C   0  0  0  0  0  0  0  0  0  0  0  0
    9.6130    4.3663    1.9590 C   0  0  0  0  0  0  0  0  0  0  0  0
    8.9554    4.7912    3.2371 C   0  0  0  0  0  0  0  0  0  0  0  0
    8.7194    6.3017    3.3801 C   0  0  0  0  0  0  0  0  0  0  0  0
    7.8033    6.9398    2.3238 C   0  0  0  0  0  0  0  0  0  0  0  0
    6.4747    6.3393    2.2704 N   0  0  0  0  0  0  0  0  0  0  0  0
    5.7127    6.4344    3.5227 C   0  0  0  0  0  0  0  0  0  0  0  0
    4.4657    5.5384    3.3910 C   0  0  0  0  0  0  0  0  0  0  0  0
    3.5453    5.9527    2.3118 N   0  0  0  0  0  0  0  0  0  0  0  0
    2.8642    7.1958    2.6733 C   0  0  0  0  0  0  0  0  0  0  0  0
    4.3146    6.1083    1.0527 C   0  0  0  0  0  0  0  0  0  0  0  0
    5.6549    6.8816    1.1708 C   0  0  0  0  0  0  0  0  0  0  0  0
   11.9536    5.6504    2.0919 C   0  0  0  0  0  0  0  0  0  0  0  0
   13.0308    6.0784    1.0768 C   0  0  0  0  0  0  0  0  0  0  0  0
   13.4471    4.9234    0.1524 C   0  0  0  0  0  0  0  0  0  0  0  0
   12.2522    4.3779   -0.6547 C   0  0  0  0  0  0  0  0  0  0  0  0
    9.1948    0.6235    2.2340 C   0  0  0  0  0  0  0  0  0  0  0  0
   10.3452    0.9929    2.2966 O   0  0  0  0  0  0  0  0  0  0  0  0
    8.7133   -0.5764    2.7099 N   0  0  0  0  0  0  0  0  0  0  0  0
    1.9053    1.2319    4.0043 H   0  0  0  0  0  0  0  0  0  0  0  0
    3.3556    0.2213    4.0049 H   0  0  0  0  0  0  0  0  0  0  0  0
    1.7306   -0.5260    3.9054 H   0  0  0  0  0  0  0  0  0  0  0  0
    2.7427    1.3117    1.7683 H   0  0  0  0  0  0  0  0  0  0  0  0
    4.6964   -2.7806    2.6424 H   0  0  0  0  0  0  0  0  0  0  0  0
    7.0818   -2.7185    3.3029 H   0  0  0  0  0  0  0  0  0  0  0  0
    5.0632    1.1636    0.8378 H   0  0  0  0  0  0  0  0  0  0  0  0
    7.0689    2.9667    0.6814 H   0  0  0  0  0  0  0  0  0  0  0  0
    9.9363    2.7220   -0.7809 H   0  0  0  0  0  0  0  0  0  0  0  0
    9.5932    4.4602    4.0658 H   0  0  0  0  0  0  0  0  0  0  0  0
    8.0047    4.2582    3.3614 H   0  0  0  0  0  0  0  0  0  0  0  0
    9.6700    6.8378    3.3613 H   0  0  0  0  0  0  0  0  0  0  0  0
    8.3202    6.4912    4.3830 H   0  0  0  0  0  0  0  0  0  0  0  0
    8.2848    6.8326    1.3434 H   0  0  0  0  0  0  0  0  0  0  0  0
    7.7324    8.0178    2.5181 H   0  0  0  0  0  0  0  0  0  0  0  0
    5.4419    7.4751    3.7465 H   0  0  0  0  0  0  0  0  0  0  0  0
    6.2794    6.0703    4.3832 H   0  0  0  0  0  0  0  0  0  0  0  0
    3.9368    5.4861    4.3497 H   0  0  0  0  0  0  0  0  0  0  0  0
    4.7993    4.5105    3.1859 H   0  0  0  0  0  0  0  0  0  0  0  0
    2.3280    7.0709    3.6210 H   0  0  0  0  0  0  0  0  0  0  0  0
    2.1157    7.4528    1.9178 H   0  0  0  0  0  0  0  0  0  0  0  0
    3.5411    8.0494    2.7802 H   0  0  0  0  0  0  0  0  0  0  0  0
    3.6876    6.5687    0.2793 H   0  0  0  0  0  0  0  0  0  0  0  0
    4.5445    5.0996    0.6829 H   0  0  0  0  0  0  0  0  0  0  0  0
    5.4561    7.9516    1.3213 H   0  0  0  0  0  0  0  0  0  0  0  0
    6.1900    6.7852    0.2183 H   0  0  0  0  0  0  0  0  0  0  0  0
   12.4339    5.0728    2.8923 H   0  0  0  0  0  0  0  0  0  0  0  0
   11.5375    6.5503    2.5476 H   0  0  0  0  0  0  0  0  0  0  0  0
   13.9066    6.4615    1.6151 H   0  0  0  0  0  0  0  0  0  0  0  0
   12.6499    6.9071    0.4660 H   0  0  0  0  0  0  0  0  0  0  0  0
   13.8795    4.1195    0.7623 H   0  0  0  0  0  0  0  0  0  0  0  0
   14.2341    5.2622   -0.5320 H   0  0  0  0  0  0  0  0  0  0  0  0
   12.5366    3.4466   -1.1538 H   0  0  0  0  0  0  0  0  0  0  0  0
   11.9869    5.1071   -1.4307 H   0  0  0  0  0  0  0  0  0  0  0  0
    9.3136   -1.2397    3.1817 H   0  0  0  0  0  0  0  0  0  0  0  0
  1  2  1  0  0  0  0
  1 36  1  0  0  0  0
  1 37  1  0  0  0  0
  1 38  1  0  0  0  0
  2  3  1  0  0  0  0
  2 39  1  0  0  0  0
  3  4  2  0  0  0  0
  3  5  2  0  0  0  0
  3  6  1  0  0  0  0
  6  7  1  0  0  0  0
  6 11  2  0  0  0  0
  7  8  2  0  0  0  0
  7 40  1  0  0  0  0
  8  9  1  0  0  0  0
  8 41  1  0  0  0  0
  9 10  2  0  0  0  0
  9 35  1  0  0  0  0
 10 11  1  0  0  0  0
 10 12  1  0  0  0  0
 11 42  1  0  0  0  0
 12 13  2  0  0  0  0
 12 33  1  0  0  0  0
 13 14  1  0  0  0  0
 13 43  1  0  0  0  0
 14 15  1  0  0  0  0
 14 18  2  0  0  0  0
 15 16  1  0  0  0  0
 15 44  1  0  0  0  0
 16 17  2  0  0  0  0
 16 32  1  0  0  0  0
 17 18  1  0  0  0  0
 17 29  1  0  0  0  0
 18 19  1  0  0  0  0
 19 20  1  0  0  0  0
 19 45  1  0  0  0  0
 19 46  1  0  0  0  0
 20 21  1  0  0  0  0
 20 47  1  0  0  0  0
 20 48  1  0  0  0  0
 21 22  1  0  0  0  0
 21 49  1  0  0  0  0
 21 50  1  0  0  0  0
 22 23  1  0  0  0  0
 22 28  1  0  0  0  0
 23 24  1  0  0  0  0
 23 51  1  0  0  0  0
 23 52  1  0  0  0  0
 24 25  1  0  0  0  0
 24 53  1  0  0  0  0
 24 54  1  0  0  0  0
 25 26  1  0  0  0  0
 25 27  1  0  0  0  0
 26 55  1  0  0  0  0
 26 56  1  0  0  0  0
 26 57  1  0  0  0  0
 27 28  1  0  0  0  0
 27 58  1  0  0  0  0
 27 59  1  0  0  0  0
 28 60  1  0  0  0  0
 28 61  1  0  0  0  0
 29 30  1  0  0  0  0
 29 62  1  0  0  0  0
 29 63  1  0  0  0  0
 30 31  1  0  0  0  0
 30 64  1  0  0  0  0
 30 65  1  0  0  0  0
 31 32  1  0  0  0  0
 31 66  1  0  0  0  0
 31 67  1  0  0  0  0
 32 68  1  0  0  0  0
 32 69  1  0  0  0  0
 33 34  2  0  0  0  0
 33 35  1  0  0  0  0
 35 70  1  0  0  0  0
M  END
$$$$
