CHEMBL1977134
 OpenBabel04072215363D

 58 63  0  0  0  0  0  0  0  0999 V2000
    5.0871    1.8673    0.9874 N   0  0  0  0  0  0  0  0  0  0  0  0
    4.1793    0.9094    0.5406 C   0  0  0  0  0  0  0  0  0  0  0  0
    2.9161    1.1618    0.1296 C   0  0  0  0  0  0  0  0  0  0  0  0
    2.3131    2.4925    0.0950 C   0  0  0  0  0  0  0  0  0  0  0  0
    2.4902    3.2995   -1.0285 C   0  0  0  0  0  0  0  0  0  0  0  0
    1.8778    4.5525   -1.0944 C   0  0  0  0  0  0  0  0  0  0  0  0
    1.0698    5.0154   -0.0483 C   0  0  0  0  0  0  0  0  0  0  0  0
    0.3835    6.2537   -0.1181 N   0  0  0  0  0  0  0  0  0  0  0  0
    0.0410    6.8765   -1.3071 C   0  0  0  0  0  0  0  0  0  0  0  0
    0.1843    6.3786   -2.4226 O   0  0  0  0  0  0  0  0  0  0  0  0
   -0.4859    8.1420   -1.1027 N   0  0  0  0  0  0  0  0  0  0  0  0
   -0.9514    8.9115   -2.1979 C   0  0  0  0  0  0  0  0  0  0  0  0
   -1.7774    8.3493   -3.1783 C   0  0  0  0  0  0  0  0  0  0  0  0
   -2.2248    9.1164   -4.2538 C   0  0  0  0  0  0  0  0  0  0  0  0
   -1.8211   10.4438   -4.3754 C   0  0  0  0  0  0  0  0  0  0  0  0
   -0.9707   11.0173   -3.4177 C   0  0  0  0  0  0  0  0  0  0  0  0
   -0.4511   12.4220   -3.5924 C   0  0  0  0  0  0  0  0  0  0  0  0
   -0.9470   13.0581   -4.6901 F   0  0  0  0  0  0  0  0  0  0  0  0
   -0.7468   13.2222   -2.5310 F   0  0  0  0  0  0  0  0  0  0  0  0
    0.9047   12.4610   -3.7215 F   0  0  0  0  0  0  0  0  0  0  0  0
   -0.5686   10.2498   -2.3071 C   0  0  0  0  0  0  0  0  0  0  0  0
    0.9382    4.2288    1.0998 C   0  0  0  0  0  0  0  0  0  0  0  0
    1.5492    2.9685    1.1670 C   0  0  0  0  0  0  0  0  0  0  0  0
    2.1474   -0.0220   -0.3721 C   0  0  0  0  0  0  0  0  0  0  0  0
    2.5539   -1.2458   -0.4311 N   0  0  0  0  0  0  0  0  0  0  0  0
    3.8296   -1.4709    0.0190 C   0  0  0  0  0  0  0  0  0  0  0  0
    4.6091   -2.6035    0.0566 C   0  0  0  0  0  0  0  0  0  0  0  0
    4.2786   -3.8925   -0.5182 C   0  0  0  0  0  0  0  0  0  0  0  0
    3.6701   -3.9645   -1.7943 C   0  0  0  0  0  0  0  0  0  0  0  0
    3.6073   -5.1750   -2.4933 C   0  0  0  0  0  0  0  0  0  0  0  0
    4.1663   -6.2755   -1.8906 C   0  0  0  0  0  0  0  0  0  0  0  0
    4.6850   -6.2257   -0.6149 C   0  0  0  0  0  0  0  0  0  0  0  0
    4.7350   -5.0579    0.1094 C   0  0  0  0  0  0  0  0  0  0  0  0
    5.2209   -7.4153   -0.2295 O   0  0  0  0  0  0  0  0  0  0  0  0
    5.2641   -8.0773   -1.5089 C   0  0  0  0  0  0  0  0  0  0  0  0
    4.3567   -7.4950   -2.4662 O   0  0  0  0  0  0  0  0  0  0  0  0
    5.8250   -2.1880    0.6425 C   0  0  0  0  0  0  0  0  0  0  0  0
    5.8326   -0.8904    0.9609 N   0  0  0  0  0  0  0  0  0  0  0  0
    4.6265   -0.4355    0.5149 N   0  0  0  0  0  0  0  0  0  0  0  0
    4.6683    2.6750    1.4380 H   0  0  0  0  0  0  0  0  0  0  0  0
    5.8569    1.4406    1.5120 H   0  0  0  0  0  0  0  0  0  0  0  0
    3.0953    2.9638   -1.8688 H   0  0  0  0  0  0  0  0  0  0  0  0
    2.0522    5.1484   -1.9842 H   0  0  0  0  0  0  0  0  0  0  0  0
   -0.1483    6.5344    0.6923 H   0  0  0  0  0  0  0  0  0  0  0  0
   -0.0647    8.6478   -0.3363 H   0  0  0  0  0  0  0  0  0  0  0  0
   -2.0828    7.3066   -3.1149 H   0  0  0  0  0  0  0  0  0  0  0  0
   -2.8731    8.6698   -5.0041 H   0  0  0  0  0  0  0  0  0  0  0  0
   -2.1603   11.0244   -5.2324 H   0  0  0  0  0  0  0  0  0  0  0  0
    0.1043   10.6888   -1.5744 H   0  0  0  0  0  0  0  0  0  0  0  0
    0.3357    4.5607    1.9399 H   0  0  0  0  0  0  0  0  0  0  0  0
    1.4061    2.3524    2.0522 H   0  0  0  0  0  0  0  0  0  0  0  0
    1.1233    0.2057   -0.7370 H   0  0  0  0  0  0  0  0  0  0  0  0
    3.3032   -3.0611   -2.2793 H   0  0  0  0  0  0  0  0  0  0  0  0
    3.1979   -5.2202   -3.4947 H   0  0  0  0  0  0  0  0  0  0  0  0
    5.1916   -5.0446    1.0919 H   0  0  0  0  0  0  0  0  0  0  0  0
    5.0298   -9.1385   -1.3828 H   0  0  0  0  0  0  0  0  0  0  0  0
    6.2901   -7.9881   -1.8976 H   0  0  0  0  0  0  0  0  0  0  0  0
    6.7145   -2.7760    0.8260 H   0  0  0  0  0  0  0  0  0  0  0  0
  1  2  1  0  0  0  0
  1 40  1  0  0  0  0
  1 41  1  0  0  0  0
  2  3  2  0  0  0  0
  2 39  1  0  0  0  0
  3  4  1  0  0  0  0
  3 24  1  0  0  0  0
  4  5  1  0  0  0  0
  4 23  2  0  0  0  0
  5  6  2  0  0  0  0
  5 42  1  0  0  0  0
  6  7  1  0  0  0  0
  6 43  1  0  0  0  0
  7  8  1  0  0  0  0
  7 22  2  0  0  0  0
  8  9  1  0  0  0  0
  8 44  1  0  0  0  0
  9 10  2  0  0  0  0
  9 11  1  0  0  0  0
 11 12  1  0  0  0  0
 11 45  1  0  0  0  0
 12 13  1  0  0  0  0
 12 21  2  0  0  0  0
 13 14  2  0  0  0  0
 13 46  1  0  0  0  0
 14 15  1  0  0  0  0
 14 47  1  0  0  0  0
 15 16  2  0  0  0  0
 15 48  1  0  0  0  0
 16 17  1  0  0  0  0
 16 21  1  0  0  0  0
 17 18  1  0  0  0  0
 17 19  1  0  0  0  0
 17 20  1  0  0  0  0
 21 49  1  0  0  0  0
 22 23  1  0  0  0  0
 22 50  1  0  0  0  0
 23 51  1  0  0  0  0
 24 25  2  0  0  0  0
 24 52  1  0  0  0  0
 25 26  1  0  0  0  0
 26 27  2  0  0  0  0
 26 39  1  0  0  0  0
 27 28  1  0  0  0  0
 27 37  1  0  0  0  0
 28 29  1  0  0  0  0
 28 33  2  0  0  0  0
 29 30  2  0  0  0  0
 29 53  1  0  0  0  0
 30 31  1  0  0  0  0
 30 54  1  0  0  0  0
 31 32  2  0  0  0  0
 31 36  1  0  0  0  0
 32 33  1  0  0  0  0
 32 34  1  0  0  0  0
 33 55  1  0  0  0  0
 34 35  1  0  0  0  0
 35 36  1  0  0  0  0
 35 56  1  0  0  0  0
 35 57  1  0  0  0  0
 37 38  2  0  0  0  0
 37 58  1  0  0  0  0
 38 39  1  0  0  0  0
M  END
$$$$
