CHEMBL260963
 OpenBabel04072215363D

 68 74  0  0  0  0  0  0  0  0999 V2000
    3.3786    4.2504    1.3648 C   0  0  0  0  0  0  0  0  0  0  0  0
    4.4297    3.9680    0.4461 O   0  0  0  0  0  0  0  0  0  0  0  0
    4.1765    3.0204   -0.5100 C   0  0  0  0  0  0  0  0  0  0  0  0
    2.9975    2.2882   -0.6206 C   0  0  0  0  0  0  0  0  0  0  0  0
    2.8561    1.3661   -1.6492 C   0  0  0  0  0  0  0  0  0  0  0  0
    3.9026    1.1447   -2.5465 C   0  0  0  0  0  0  0  0  0  0  0  0
    5.1337    1.8109   -2.4259 C   0  0  0  0  0  0  0  0  0  0  0  0
    6.2763    1.3917   -3.2002 N   0  0  0  0  0  0  0  0  0  0  0  0
    6.3305    0.1913   -3.9509 C   0  0  0  0  0  0  0  0  0  0  0  0
    5.3995   -0.5206   -4.3145 O   0  0  0  0  0  0  0  0  0  0  0  0
    7.6752   -0.2697   -4.3547 C   0  0  0  0  0  0  0  0  0  0  0  0
    7.9025   -1.0762   -5.4373 C   0  0  0  0  0  0  0  0  0  0  0  0
    9.1458   -1.3464   -5.9035 N   0  0  0  0  0  0  0  0  0  0  0  0
   10.1853   -0.7947   -5.2503 C   0  0  0  0  0  0  0  0  0  0  0  0
   11.4294   -0.8903   -5.8604 N   0  0  0  0  0  0  0  0  0  0  0  0
   12.4949    0.0243   -5.8230 C   0  0  0  0  0  0  0  0  0  0  0  0
   13.7798   -0.4474   -6.0800 C   0  0  0  0  0  0  0  0  0  0  0  0
   14.8883    0.3940   -5.9495 C   0  0  0  0  0  0  0  0  0  0  0  0
   14.7632    1.7425   -5.5818 C   0  0  0  0  0  0  0  0  0  0  0  0
   15.9010    2.5231   -5.4769 N   0  0  0  0  0  0  0  0  0  0  0  0
   15.8573    3.9867   -5.5965 C   0  0  0  0  0  0  0  0  0  0  0  0
   17.2354    4.4797   -6.1107 C   0  0  0  0  0  0  0  0  0  0  0  0
   18.3687    4.0460   -5.2558 N   0  0  0  0  0  0  0  0  0  0  0  0
   19.6413    4.4587   -5.8444 C   0  0  0  0  0  0  0  0  0  0  0  0
   18.3318    2.5721   -5.0989 C   0  0  0  0  0  0  0  0  0  0  0  0
   16.9721    2.0618   -4.5714 C   0  0  0  0  0  0  0  0  0  0  0  0
   13.4678    2.2265   -5.3849 C   0  0  0  0  0  0  0  0  0  0  0  0
   12.3522    1.3786   -5.4933 C   0  0  0  0  0  0  0  0  0  0  0  0
   10.0595   -0.1192   -4.0990 N   0  0  0  0  0  0  0  0  0  0  0  0
    8.8041    0.1525   -3.6986 C   0  0  0  0  0  0  0  0  0  0  0  0
    8.6076    1.1961   -2.7801 N   0  0  0  0  0  0  0  0  0  0  0  0
    9.5129    1.9304   -2.0633 C   0  0  0  0  0  0  0  0  0  0  0  0
   10.5195    1.6514   -1.1403 C   0  0  0  0  0  0  0  0  0  0  0  0
   11.4186    2.6925   -0.9022 C   0  0  0  0  0  0  0  0  0  0  0  0
   11.3612    3.8754   -1.6490 C   0  0  0  0  0  0  0  0  0  0  0  0
   10.2686    4.1534   -2.4899 C   0  0  0  0  0  0  0  0  0  0  0  0
    9.2454    3.1992   -2.5626 C   0  0  0  0  0  0  0  0  0  0  0  0
    7.9278    3.2440   -3.0172 N   0  0  0  0  0  0  0  0  0  0  0  0
    7.5025    1.9954   -2.9212 C   0  0  0  0  0  0  0  0  0  0  0  0
    5.2271    2.7838   -1.4112 C   0  0  0  0  0  0  0  0  0  0  0  0
    3.6870    5.1015    1.9792 H   0  0  0  0  0  0  0  0  0  0  0  0
    3.2068    3.3986    2.0321 H   0  0  0  0  0  0  0  0  0  0  0  0
    2.4564    4.5373    0.8478 H   0  0  0  0  0  0  0  0  0  0  0  0
    2.1715    2.4094    0.0717 H   0  0  0  0  0  0  0  0  0  0  0  0
    1.9367    0.7948   -1.7483 H   0  0  0  0  0  0  0  0  0  0  0  0
    3.7196    0.4042   -3.3178 H   0  0  0  0  0  0  0  0  0  0  0  0
    7.0861   -1.4992   -6.0164 H   0  0  0  0  0  0  0  0  0  0  0  0
   11.3590   -1.4278   -6.7132 H   0  0  0  0  0  0  0  0  0  0  0  0
   13.9386   -1.4872   -6.3491 H   0  0  0  0  0  0  0  0  0  0  0  0
   15.8725   -0.0175   -6.1576 H   0  0  0  0  0  0  0  0  0  0  0  0
   15.6271    4.4469   -4.6265 H   0  0  0  0  0  0  0  0  0  0  0  0
   15.0938    4.3050   -6.3157 H   0  0  0  0  0  0  0  0  0  0  0  0
   17.2152    5.5741   -6.1639 H   0  0  0  0  0  0  0  0  0  0  0  0
   17.3746    4.1015   -7.1336 H   0  0  0  0  0  0  0  0  0  0  0  0
   19.6861    5.5492   -5.9343 H   0  0  0  0  0  0  0  0  0  0  0  0
   19.8023    4.0238   -6.8379 H   0  0  0  0  0  0  0  0  0  0  0  0
   20.4753    4.1594   -5.2000 H   0  0  0  0  0  0  0  0  0  0  0  0
   19.1157    2.2576   -4.4001 H   0  0  0  0  0  0  0  0  0  0  0  0
   18.5336    2.0845   -6.0628 H   0  0  0  0  0  0  0  0  0  0  0  0
   16.7924    2.4488   -3.5589 H   0  0  0  0  0  0  0  0  0  0  0  0
   17.0200    0.9704   -4.4910 H   0  0  0  0  0  0  0  0  0  0  0  0
   13.2966    3.2641   -5.1102 H   0  0  0  0  0  0  0  0  0  0  0  0
   11.3674    1.8056   -5.3217 H   0  0  0  0  0  0  0  0  0  0  0  0
   10.5827    0.7035   -0.6177 H   0  0  0  0  0  0  0  0  0  0  0  0
   12.2036    2.5610   -0.1595 H   0  0  0  0  0  0  0  0  0  0  0  0
   12.1600    4.6064   -1.5461 H   0  0  0  0  0  0  0  0  0  0  0  0
   10.2099    5.0847   -3.0408 H   0  0  0  0  0  0  0  0  0  0  0  0
    6.1390    3.3591   -1.2595 H   0  0  0  0  0  0  0  0  0  0  0  0
  1  2  1  0  0  0  0
  1 41  1  0  0  0  0
  1 42  1  0  0  0  0
  1 43  1  0  0  0  0
  2  3  1  0  0  0  0
  3  4  1  0  0  0  0
  3 40  2  0  0  0  0
  4  5  2  0  0  0  0
  4 44  1  0  0  0  0
  5  6  1  0  0  0  0
  5 45  1  0  0  0  0
  6  7  2  0  0  0  0
  6 46  1  0  0  0  0
  7  8  1  0  0  0  0
  7 40  1  0  0  0  0
  8  9  1  0  0  0  0
  8 39  1  0  0  0  0
  9 10  2  0  0  0  0
  9 11  1  0  0  0  0
 11 12  1  0  0  0  0
 11 30  2  0  0  0  0
 12 13  2  0  0  0  0
 12 47  1  0  0  0  0
 13 14  1  0  0  0  0
 14 15  1  0  0  0  0
 14 29  2  0  0  0  0
 15 16  1  0  0  0  0
 15 48  1  0  0  0  0
 16 17  1  0  0  0  0
 16 28  2  0  0  0  0
 17 18  2  0  0  0  0
 17 49  1  0  0  0  0
 18 19  1  0  0  0  0
 18 50  1  0  0  0  0
 19 20  1  0  0  0  0
 19 27  2  0  0  0  0
 20 21  1  0  0  0  0
 20 26  1  0  0  0  0
 21 22  1  0  0  0  0
 21 51  1  0  0  0  0
 21 52  1  0  0  0  0
 22 23  1  0  0  0  0
 22 53  1  0  0  0  0
 22 54  1  0  0  0  0
 23 24  1  0  0  0  0
 23 25  1  0  0  0  0
 24 55  1  0  0  0  0
 24 56  1  0  0  0  0
 24 57  1  0  0  0  0
 25 26  1  0  0  0  0
 25 58  1  0  0  0  0
 25 59  1  0  0  0  0
 26 60  1  0  0  0  0
 26 61  1  0  0  0  0
 27 28  1  0  0  0  0
 27 62  1  0  0  0  0
 28 63  1  0  0  0  0
 29 30  1  0  0  0  0
 30 31  1  0  0  0  0
 31 32  1  0  0  0  0
 31 39  1  0  0  0  0
 32 33  1  0  0  0  0
 32 37  2  0  0  0  0
 33 34  2  0  0  0  0
 33 64  1  0  0  0  0
 34 35  1  0  0  0  0
 34 65  1  0  0  0  0
 35 36  2  0  0  0  0
 35 66  1  0  0  0  0
 36 37  1  0  0  0  0
 36 67  1  0  0  0  0
 37 38  1  0  0  0  0
 38 39  2  0  0  0  0
 40 68  1  0  0  0  0
M  END
$$$$
