CHEMBL3644547
 OpenBabel04072215373D

 49 52  0  0  0  0  0  0  0  0999 V2000
    2.5157   -0.4346   -0.4921 C   0  0  0  0  0  0  0  0  0  0  0  0
    1.0369   -0.3232   -0.7207 C   0  0  0  0  0  0  0  0  0  0  0  0
    0.5171    0.8563   -1.2638 C   0  0  0  0  0  0  0  0  0  0  0  0
   -0.8454    0.9770   -1.4811 C   0  0  0  0  0  0  0  0  0  0  0  0
   -1.6956   -0.0780   -1.1550 C   0  0  0  0  0  0  0  0  0  0  0  0
   -1.2135   -1.2723   -0.6016 C   0  0  0  0  0  0  0  0  0  0  0  0
   -2.0629   -2.3622   -0.2515 N   0  0  0  0  0  0  0  0  0  0  0  0
   -3.4465   -2.3392   -0.3224 C   0  0  0  0  0  0  0  0  0  0  0  0
   -4.0940   -1.3453   -0.6376 O   0  0  0  0  0  0  0  0  0  0  0  0
   -4.0598   -3.5363    0.0188 N   0  0  0  0  0  0  0  0  0  0  0  0
   -5.4651   -3.7306   -0.1082 C   0  0  0  0  0  0  0  0  0  0  0  0
   -6.2314   -2.9942   -1.0133 C   0  0  0  0  0  0  0  0  0  0  0  0
   -7.6252   -3.0864   -1.0342 C   0  0  0  0  0  0  0  0  0  0  0  0
   -8.3218   -3.9471   -0.1849 C   0  0  0  0  0  0  0  0  0  0  0  0
   -9.7023   -3.9722   -0.1779 N   0  0  0  0  0  0  0  0  0  0  0  0
  -10.4799   -5.1577    0.1691 C   0  0  0  0  0  0  0  0  0  0  0  0
  -11.2927   -4.8834    1.4361 C   0  0  0  0  0  0  0  0  0  0  0  0
  -12.0319   -3.5691    1.3614 C   0  0  0  0  0  0  0  0  0  0  0  0
  -13.0728   -3.2913    2.2502 C   0  0  0  0  0  0  0  0  0  0  0  0
  -13.7000   -2.0579    2.1712 C   0  0  0  0  0  0  0  0  0  0  0  0
  -13.3681   -1.0998    1.2808 N   0  0  0  0  0  0  0  0  0  0  0  0
  -12.3448   -1.3819    0.4430 C   0  0  0  0  0  0  0  0  0  0  0  0
  -11.6365   -2.5808    0.4436 C   0  0  0  0  0  0  0  0  0  0  0  0
  -10.4960   -2.7836   -0.5249 C   0  0  0  0  0  0  0  0  0  0  0  0
   -7.5332   -4.7562    0.6528 C   0  0  0  0  0  0  0  0  0  0  0  0
   -6.1240   -4.6601    0.6940 C   0  0  0  0  0  0  0  0  0  0  0  0
    0.1670   -1.3876   -0.3971 C   0  0  0  0  0  0  0  0  0  0  0  0
    3.0317    0.4895   -0.7794 H   0  0  0  0  0  0  0  0  0  0  0  0
    2.9328   -1.2472   -1.0933 H   0  0  0  0  0  0  0  0  0  0  0  0
    2.7238   -0.6119    0.5668 H   0  0  0  0  0  0  0  0  0  0  0  0
    1.1671    1.6889   -1.5212 H   0  0  0  0  0  0  0  0  0  0  0  0
   -1.2617    1.8870   -1.9036 H   0  0  0  0  0  0  0  0  0  0  0  0
   -2.7456    0.0880   -1.3649 H   0  0  0  0  0  0  0  0  0  0  0  0
   -1.6230   -3.2079    0.0766 H   0  0  0  0  0  0  0  0  0  0  0  0
   -3.5712   -4.1301    0.6742 H   0  0  0  0  0  0  0  0  0  0  0  0
   -5.7755   -2.3100   -1.7226 H   0  0  0  0  0  0  0  0  0  0  0  0
   -8.1509   -2.4584   -1.7484 H   0  0  0  0  0  0  0  0  0  0  0  0
   -9.8671   -6.0564    0.2935 H   0  0  0  0  0  0  0  0  0  0  0  0
  -11.1616   -5.3776   -0.6648 H   0  0  0  0  0  0  0  0  0  0  0  0
  -10.6230   -4.8514    2.3037 H   0  0  0  0  0  0  0  0  0  0  0  0
  -12.0049   -5.7035    1.5836 H   0  0  0  0  0  0  0  0  0  0  0  0
  -13.3858   -4.0134    2.9961 H   0  0  0  0  0  0  0  0  0  0  0  0
  -14.5092   -1.7989    2.8477 H   0  0  0  0  0  0  0  0  0  0  0  0
  -12.0956   -0.5806   -0.2481 H   0  0  0  0  0  0  0  0  0  0  0  0
   -9.8893   -1.8706   -0.5028 H   0  0  0  0  0  0  0  0  0  0  0  0
  -10.9022   -2.9042   -1.5366 H   0  0  0  0  0  0  0  0  0  0  0  0
   -8.0056   -5.4451    1.3459 H   0  0  0  0  0  0  0  0  0  0  0  0
   -5.5801   -5.2767    1.3997 H   0  0  0  0  0  0  0  0  0  0  0  0
    0.5869   -2.2967    0.0257 H   0  0  0  0  0  0  0  0  0  0  0  0
  1  2  1  0  0  0  0
  1 28  1  0  0  0  0
  1 29  1  0  0  0  0
  1 30  1  0  0  0  0
  2  3  1  0  0  0  0
  2 27  2  0  0  0  0
  3  4  2  0  0  0  0
  3 31  1  0  0  0  0
  4  5  1  0  0  0  0
  4 32  1  0  0  0  0
  5  6  2  0  0  0  0
  5 33  1  0  0  0  0
  6  7  1  0  0  0  0
  6 27  1  0  0  0  0
  7  8  1  0  0  0  0
  7 34  1  0  0  0  0
  8  9  2  0  0  0  0
  8 10  1  0  0  0  0
 10 11  1  0  0  0  0
 10 35  1  0  0  0  0
 11 12  1  0  0  0  0
 11 26  2  0  0  0  0
 12 13  2  0  0  0  0
 12 36  1  0  0  0  0
 13 14  1  0  0  0  0
 13 37  1  0  0  0  0
 14 15  1  0  0  0  0
 14 25  2  0  0  0  0
 15 16  1  0  0  0  0
 15 24  1  0  0  0  0
 16 17  1  0  0  0  0
 16 38  1  0  0  0  0
 16 39  1  0  0  0  0
 17 18  1  0  0  0  0
 17 40  1  0  0  0  0
 17 41  1  0  0  0  0
 18 19  1  0  0  0  0
 18 23  2  0  0  0  0
 19 20  2  0  0  0  0
 19 42  1  0  0  0  0
 20 21  1  0  0  0  0
 20 43  1  0  0  0  0
 21 22  2  0  0  0  0
 22 23  1  0  0  0  0
 22 44  1  0  0  0  0
 23 24  1  0  0  0  0
 24 45  1  0  0  0  0
 24 46  1  0  0  0  0
 25 26  1  0  0  0  0
 25 47  1  0  0  0  0
 26 48  1  0  0  0  0
 27 49  1  0  0  0  0
M  END
$$$$
