CHEMBL470483
 OpenBabel04072215383D

 47 49  0  0  0  0  0  0  0  0999 V2000
    2.5235    0.1855   -0.0687 C   0  0  0  0  0  0  0  0  0  0  0  0
    1.0293    0.0481    0.0099 C   0  0  0  0  0  0  0  0  0  0  0  0
    0.2673    1.2313    0.0801 C   0  0  0  0  0  0  0  0  0  0  0  0
   -1.1283    1.1951    0.1013 C   0  0  0  0  0  0  0  0  0  0  0  0
   -1.7999   -0.0281    0.0788 C   0  0  0  0  0  0  0  0  0  0  0  0
   -3.2877   -0.0276    0.0689 C   0  0  0  0  0  0  0  0  0  0  0  0
   -3.8549    0.9050   -0.4872 O   0  0  0  0  0  0  0  0  0  0  0  0
   -3.8914   -1.0646    0.7627 N   0  0  0  0  0  0  0  0  0  0  0  0
   -5.2816   -1.2635    0.9149 C   0  0  0  0  0  0  0  0  0  0  0  0
   -6.2408   -0.6294    0.1233 C   0  0  0  0  0  0  0  0  0  0  0  0
   -7.6036   -0.8321    0.3540 C   0  0  0  0  0  0  0  0  0  0  0  0
   -8.0225   -1.6666    1.3872 C   0  0  0  0  0  0  0  0  0  0  0  0
   -7.0798   -2.3263    2.1864 C   0  0  0  0  0  0  0  0  0  0  0  0
   -7.5138   -3.2045    3.3329 C   0  0  0  0  0  0  0  0  0  0  0  0
   -8.8625   -3.2329    3.5221 F   0  0  0  0  0  0  0  0  0  0  0  0
   -7.1304   -4.5008    3.1725 F   0  0  0  0  0  0  0  0  0  0  0  0
   -6.9810   -2.8036    4.5216 F   0  0  0  0  0  0  0  0  0  0  0  0
   -5.7092   -2.1372    1.9234 C   0  0  0  0  0  0  0  0  0  0  0  0
   -1.0635   -1.2102    0.0035 C   0  0  0  0  0  0  0  0  0  0  0  0
    0.3475   -1.1867   -0.0223 C   0  0  0  0  0  0  0  0  0  0  0  0
    0.9925   -2.5240   -0.1909 C   0  0  0  0  0  0  0  0  0  0  0  0
    0.4156   -3.3274   -0.9166 O   0  0  0  0  0  0  0  0  0  0  0  0
    2.1277   -2.7799    0.5562 N   0  0  0  0  0  0  0  0  0  0  0  0
    2.8279   -4.0119    0.5951 C   0  0  0  0  0  0  0  0  0  0  0  0
    2.5890   -5.0796   -0.2640 C   0  0  0  0  0  0  0  0  0  0  0  0
    3.2729   -6.2853   -0.0875 C   0  0  0  0  0  0  0  0  0  0  0  0
    4.2032   -6.3907    0.9327 C   0  0  0  0  0  0  0  0  0  0  0  0
    4.8351   -7.6040    1.1868 N   0  0  0  0  0  0  0  0  0  0  0  0
    4.4925   -5.3692    1.7537 N   0  0  0  0  0  0  0  0  0  0  0  0
    3.8081   -4.2109    1.5653 C   0  0  0  0  0  0  0  0  0  0  0  0
    2.8167    1.2222   -0.2733 H   0  0  0  0  0  0  0  0  0  0  0  0
    2.9318   -0.4253   -0.8786 H   0  0  0  0  0  0  0  0  0  0  0  0
    2.9840   -0.0926    0.8836 H   0  0  0  0  0  0  0  0  0  0  0  0
    0.7568    2.2048    0.0844 H   0  0  0  0  0  0  0  0  0  0  0  0
   -1.6928    2.1269    0.1189 H   0  0  0  0  0  0  0  0  0  0  0  0
   -3.2940   -1.6513    1.3306 H   0  0  0  0  0  0  0  0  0  0  0  0
   -5.9569    0.0264   -0.6950 H   0  0  0  0  0  0  0  0  0  0  0  0
   -8.3354   -0.3241   -0.2702 H   0  0  0  0  0  0  0  0  0  0  0  0
   -9.0887   -1.7935    1.5688 H   0  0  0  0  0  0  0  0  0  0  0  0
   -4.9814   -2.6536    2.5469 H   0  0  0  0  0  0  0  0  0  0  0  0
   -1.5780   -2.1682   -0.0783 H   0  0  0  0  0  0  0  0  0  0  0  0
    2.4054   -2.0875    1.2387 H   0  0  0  0  0  0  0  0  0  0  0  0
    1.8686   -5.0225   -1.0727 H   0  0  0  0  0  0  0  0  0  0  0  0
    3.0553   -7.1306   -0.7302 H   0  0  0  0  0  0  0  0  0  0  0  0
    5.2604   -7.9981    0.3576 H   0  0  0  0  0  0  0  0  0  0  0  0
    5.5051   -7.4510    1.9351 H   0  0  0  0  0  0  0  0  0  0  0  0
    4.0735   -3.4289    2.2703 H   0  0  0  0  0  0  0  0  0  0  0  0
  1  2  1  0  0  0  0
  1 31  1  0  0  0  0
  1 32  1  0  0  0  0
  1 33  1  0  0  0  0
  2  3  1  0  0  0  0
  2 20  2  0  0  0  0
  3  4  2  0  0  0  0
  3 34  1  0  0  0  0
  4  5  1  0  0  0  0
  4 35  1  0  0  0  0
  5  6  1  0  0  0  0
  5 19  2  0  0  0  0
  6  7  2  0  0  0  0
  6  8  1  0  0  0  0
  8  9  1  0  0  0  0
  8 36  1  0  0  0  0
  9 10  1  0  0  0  0
  9 18  2  0  0  0  0
 10 11  2  0  0  0  0
 10 37  1  0  0  0  0
 11 12  1  0  0  0  0
 11 38  1  0  0  0  0
 12 13  2  0  0  0  0
 12 39  1  0  0  0  0
 13 14  1  0  0  0  0
 13 18  1  0  0  0  0
 14 15  1  0  0  0  0
 14 16  1  0  0  0  0
 14 17  1  0  0  0  0
 18 40  1  0  0  0  0
 19 20  1  0  0  0  0
 19 41  1  0  0  0  0
 20 21  1  0  0  0  0
 21 22  2  0  0  0  0
 21 23  1  0  0  0  0
 23 24  1  0  0  0  0
 23 42  1  0  0  0  0
 24 25  1  0  0  0  0
 24 30  2  0  0  0  0
 25 26  2  0  0  0  0
 25 43  1  0  0  0  0
 26 27  1  0  0  0  0
 26 44  1  0  0  0  0
 27 28  1  0  0  0  0
 27 29  2  0  0  0  0
 28 45  1  0  0  0  0
 28 46  1  0  0  0  0
 29 30  1  0  0  0  0
 30 47  1  0  0  0  0
M  END
$$$$
