CHEMBL1992195
 OpenBabel04072215363D

 54 58  0  0  0  0  0  0  0  0999 V2000
    1.0969   -0.0406   -0.2163 C   0  0  0  0  0  0  0  0  0  0  0  0
    2.5827   -0.1063    0.1094 C   0  0  0  0  0  0  0  0  0  0  0  0
    2.9126    0.5867    1.7238 S   0  0  0  0  0  0  0  0  0  0  0  0
    2.5004    1.9768    1.6992 O   0  0  0  0  0  0  0  0  0  0  0  0
    2.3830   -0.3256    2.7208 O   0  0  0  0  0  0  0  0  0  0  0  0
    4.6863    0.5679    1.9138 C   0  0  0  0  0  0  0  0  0  0  0  0
    5.4037    1.7628    2.0096 C   0  0  0  0  0  0  0  0  0  0  0  0
    6.7954    1.7456    2.2396 C   0  0  0  0  0  0  0  0  0  0  0  0
    7.4993    0.5380    2.3936 C   0  0  0  0  0  0  0  0  0  0  0  0
    8.9920    0.4892    2.5198 C   0  0  0  0  0  0  0  0  0  0  0  0
    9.8109    1.5061    3.0704 C   0  0  0  0  0  0  0  0  0  0  0  0
   11.2436    1.4653    3.0094 C   0  0  0  0  0  0  0  0  0  0  0  0
   11.8948    0.3719    2.4333 C   0  0  0  0  0  0  0  0  0  0  0  0
   13.3640    0.2747    2.0397 C   0  0  0  0  0  0  0  0  0  0  0  0
   13.8148   -0.9699    1.7314 N   0  0  0  0  0  0  0  0  0  0  0  0
   13.7465   -0.9269    0.3658 N   0  0  0  0  0  0  0  0  0  0  0  0
   13.6528    0.3665   -0.0914 C   0  0  0  0  0  0  0  0  0  0  0  0
   14.0789    1.0793    1.0517 C   0  0  0  0  0  0  0  0  0  0  0  0
   14.1370    2.5296    0.7009 C   0  0  0  0  0  0  0  0  0  0  0  0
   12.8593    2.5168   -0.1304 C   0  0  0  0  0  0  0  0  0  0  0  0
   11.9211    3.5141    0.0060 C   0  0  0  0  0  0  0  0  0  0  0  0
   10.6101    3.1728   -0.2720 C   0  0  0  0  0  0  0  0  0  0  0  0
    9.6730    4.0223    0.2524 O   0  0  0  0  0  0  0  0  0  0  0  0
   10.2807    1.9283   -0.8592 C   0  0  0  0  0  0  0  0  0  0  0  0
    8.9917    1.5248   -1.1308 O   0  0  0  0  0  0  0  0  0  0  0  0
    8.0796    2.5768   -1.4489 C   0  0  0  0  0  0  0  0  0  0  0  0
   11.2795    0.9348   -1.0522 C   0  0  0  0  0  0  0  0  0  0  0  0
   12.5843    1.2231   -0.6599 C   0  0  0  0  0  0  0  0  0  0  0  0
   11.0648   -0.6787    1.9901 C   0  0  0  0  0  0  0  0  0  0  0  0
    9.6733   -0.6093    1.9957 C   0  0  0  0  0  0  0  0  0  0  0  0
    6.7265   -0.6496    2.3253 C   0  0  0  0  0  0  0  0  0  0  0  0
    5.3430   -0.6450    2.0792 C   0  0  0  0  0  0  0  0  0  0  0  0
    0.8909   -0.4872   -1.1948 H   0  0  0  0  0  0  0  0  0  0  0  0
    0.7434    0.9959   -0.2384 H   0  0  0  0  0  0  0  0  0  0  0  0
    0.5018   -0.5751    0.5321 H   0  0  0  0  0  0  0  0  0  0  0  0
    3.1546    0.4597   -0.6314 H   0  0  0  0  0  0  0  0  0  0  0  0
    2.9181   -1.1479    0.1082 H   0  0  0  0  0  0  0  0  0  0  0  0
    4.8967    2.7235    1.9143 H   0  0  0  0  0  0  0  0  0  0  0  0
    7.3234    2.6923    2.2665 H   0  0  0  0  0  0  0  0  0  0  0  0
    9.3428    2.3701    3.5394 H   0  0  0  0  0  0  0  0  0  0  0  0
   11.8109    2.3091    3.3912 H   0  0  0  0  0  0  0  0  0  0  0  0
   14.0505   -1.7517   -0.1383 H   0  0  0  0  0  0  0  0  0  0  0  0
   14.9922    2.7343    0.0386 H   0  0  0  0  0  0  0  0  0  0  0  0
   14.1325    3.2079    1.5504 H   0  0  0  0  0  0  0  0  0  0  0  0
   12.1733    4.4346    0.5152 H   0  0  0  0  0  0  0  0  0  0  0  0
    9.9763    4.2469    1.1501 H   0  0  0  0  0  0  0  0  0  0  0  0
    7.1636    2.1243   -1.8376 H   0  0  0  0  0  0  0  0  0  0  0  0
    8.4860    3.2343   -2.2257 H   0  0  0  0  0  0  0  0  0  0  0  0
    7.7749    3.1464   -0.5662 H   0  0  0  0  0  0  0  0  0  0  0  0
   10.9901   -0.0695   -1.3449 H   0  0  0  0  0  0  0  0  0  0  0  0
   11.4942   -1.5601    1.5209 H   0  0  0  0  0  0  0  0  0  0  0  0
    9.1448   -1.4217    1.5052 H   0  0  0  0  0  0  0  0  0  0  0  0
    7.1993   -1.6208    2.4625 H   0  0  0  0  0  0  0  0  0  0  0  0
    4.8046   -1.5902    2.0383 H   0  0  0  0  0  0  0  0  0  0  0  0
  1  2  1  0  0  0  0
  1 33  1  0  0  0  0
  1 34  1  0  0  0  0
  1 35  1  0  0  0  0
  2  3  1  0  0  0  0
  2 36  1  0  0  0  0
  2 37  1  0  0  0  0
  3  4  2  0  0  0  0
  3  5  2  0  0  0  0
  3  6  1  0  0  0  0
  6  7  1  0  0  0  0
  6 32  2  0  0  0  0
  7  8  2  0  0  0  0
  7 38  1  0  0  0  0
  8  9  1  0  0  0  0
  8 39  1  0  0  0  0
  9 10  1  0  0  0  0
  9 31  2  0  0  0  0
 10 11  1  0  0  0  0
 10 30  2  0  0  0  0
 11 12  2  0  0  0  0
 11 40  1  0  0  0  0
 12 13  1  0  0  0  0
 12 41  1  0  0  0  0
 13 14  1  0  0  0  0
 13 29  2  0  0  0  0
 14 15  2  0  0  0  0
 14 18  1  0  0  0  0
 15 16  1  0  0  0  0
 16 17  1  0  0  0  0
 16 42  1  0  0  0  0
 17 18  2  0  0  0  0
 17 28  1  0  0  0  0
 18 19  1  0  0  0  0
 19 20  1  0  0  0  0
 19 43  1  0  0  0  0
 19 44  1  0  0  0  0
 20 21  1  0  0  0  0
 20 28  2  0  0  0  0
 21 22  2  0  0  0  0
 21 45  1  0  0  0  0
 22 23  1  0  0  0  0
 22 24  1  0  0  0  0
 23 46  1  0  0  0  0
 24 25  1  0  0  0  0
 24 27  2  0  0  0  0
 25 26  1  0  0  0  0
 26 47  1  0  0  0  0
 26 48  1  0  0  0  0
 26 49  1  0  0  0  0
 27 28  1  0  0  0  0
 27 50  1  0  0  0  0
 29 30  1  0  0  0  0
 29 51  1  0  0  0  0
 30 52  1  0  0  0  0
 31 32  1  0  0  0  0
 31 53  1  0  0  0  0
 32 54  1  0  0  0  0
M  END
$$$$
