CHEMBL189322
 OpenBabel04072215363D

 77 80  0  0  0  0  0  0  0  0999 V2000
    1.3324    1.0654   -5.0159 C   0  0  0  0  0  0  0  0  0  0  0  0
    2.6931    0.8864   -4.6456 O   0  0  0  0  0  0  0  0  0  0  0  0
    2.9414   -0.0149   -3.6456 C   0  0  0  0  0  0  0  0  0  0  0  0
    1.9776   -0.6754   -2.8843 C   0  0  0  0  0  0  0  0  0  0  0  0
    2.3748   -1.5878   -1.9125 C   0  0  0  0  0  0  0  0  0  0  0  0
    1.5259   -2.3464   -1.1517 O   0  0  0  0  0  0  0  0  0  0  0  0
    0.2773   -2.6656   -1.7602 C   0  0  0  0  0  0  0  0  0  0  0  0
    3.7349   -1.7857   -1.6616 C   0  0  0  0  0  0  0  0  0  0  0  0
    4.7359   -1.1679   -2.4398 C   0  0  0  0  0  0  0  0  0  0  0  0
    6.1592   -1.5741   -2.3032 C   0  0  0  0  0  0  0  0  0  0  0  0
    6.4436   -2.9294   -2.0294 C   0  0  0  0  0  0  0  0  0  0  0  0
    7.7480   -3.4185   -1.9664 C   0  0  0  0  0  0  0  0  0  0  0  0
    8.0476   -4.7480   -1.6822 C   0  0  0  0  0  0  0  0  0  0  0  0
    9.2945   -5.2548   -1.6431 N   0  0  0  0  0  0  0  0  0  0  0  0
   10.3163   -4.4012   -1.8681 C   0  0  0  0  0  0  0  0  0  0  0  0
   11.6345   -4.8682   -1.8910 N   0  0  0  0  0  0  0  0  0  0  0  0
   11.8215   -6.3128   -1.8134 C   0  0  0  0  0  0  0  0  0  0  0  0
   13.2679   -6.6494   -1.4198 C   0  0  0  0  0  0  0  0  0  0  0  0
   13.6211   -6.3364    0.0396 C   0  0  0  0  0  0  0  0  0  0  0  0
   12.7788   -7.1226    1.0423 C   0  0  0  0  0  0  0  0  0  0  0  0
   13.1969   -6.7776    2.3631 O   0  0  0  0  0  0  0  0  0  0  0  0
   12.5284   -7.3971    3.3867 C   0  0  0  0  0  0  0  0  0  0  0  0
   11.5005   -8.3333    3.2461 C   0  0  0  0  0  0  0  0  0  0  0  0
   10.9132   -8.9102    4.3757 C   0  0  0  0  0  0  0  0  0  0  0  0
   11.3464   -8.5524    5.6501 C   0  0  0  0  0  0  0  0  0  0  0  0
   12.3625   -7.6107    5.7974 C   0  0  0  0  0  0  0  0  0  0  0  0
   12.9492   -7.0354    4.6684 C   0  0  0  0  0  0  0  0  0  0  0  0
   10.0852   -3.0526   -2.1398 C   0  0  0  0  0  0  0  0  0  0  0  0
    8.7984   -2.5368   -2.2175 C   0  0  0  0  0  0  0  0  0  0  0  0
    8.5698   -1.2430   -2.5408 N   0  0  0  0  0  0  0  0  0  0  0  0
    7.2913   -0.7656   -2.5305 C   0  0  0  0  0  0  0  0  0  0  0  0
    7.1794    0.6080   -2.8668 N   0  0  0  0  0  0  0  0  0  0  0  0
    7.0914    1.5229   -1.8274 C   0  0  0  0  0  0  0  0  0  0  0  0
    7.0941    1.2293   -0.6398 O   0  0  0  0  0  0  0  0  0  0  0  0
    7.0594    2.8244   -2.3091 N   0  0  0  0  0  0  0  0  0  0  0  0
    7.1264    4.0202   -1.4354 C   0  0  0  0  0  0  0  0  0  0  0  0
    8.5000    4.0905   -0.7447 C   0  0  0  0  0  0  0  0  0  0  0  0
    6.9703    5.3013   -2.2842 C   0  0  0  0  0  0  0  0  0  0  0  0
    6.0079    4.0283   -0.3800 C   0  0  0  0  0  0  0  0  0  0  0  0
    4.3006   -0.2757   -3.4291 C   0  0  0  0  0  0  0  0  0  0  0  0
    1.3035    1.7651   -5.8558 H   0  0  0  0  0  0  0  0  0  0  0  0
    0.7570    1.5041   -4.1942 H   0  0  0  0  0  0  0  0  0  0  0  0
    0.8887    0.1218   -5.3514 H   0  0  0  0  0  0  0  0  0  0  0  0
    0.9233   -0.4875   -3.0388 H   0  0  0  0  0  0  0  0  0  0  0  0
   -0.1056   -3.5742   -1.2850 H   0  0  0  0  0  0  0  0  0  0  0  0
    0.3746   -2.8753   -2.8320 H   0  0  0  0  0  0  0  0  0  0  0  0
   -0.4423   -1.8602   -1.5859 H   0  0  0  0  0  0  0  0  0  0  0  0
    4.0021   -2.4804   -0.8671 H   0  0  0  0  0  0  0  0  0  0  0  0
    5.6231   -3.6380   -1.9003 H   0  0  0  0  0  0  0  0  0  0  0  0
    7.2599   -5.4742   -1.4801 H   0  0  0  0  0  0  0  0  0  0  0  0
   12.2116   -4.3250   -1.2581 H   0  0  0  0  0  0  0  0  0  0  0  0
   11.6323   -6.7350   -2.8077 H   0  0  0  0  0  0  0  0  0  0  0  0
   11.1279   -6.8065   -1.1249 H   0  0  0  0  0  0  0  0  0  0  0  0
   13.9604   -6.1041   -2.0735 H   0  0  0  0  0  0  0  0  0  0  0  0
   13.4420   -7.7173   -1.5996 H   0  0  0  0  0  0  0  0  0  0  0  0
   13.5283   -5.2632    0.2422 H   0  0  0  0  0  0  0  0  0  0  0  0
   14.6802   -6.5717    0.2074 H   0  0  0  0  0  0  0  0  0  0  0  0
   12.9293   -8.1956    0.8715 H   0  0  0  0  0  0  0  0  0  0  0  0
   11.7220   -6.8636    0.9251 H   0  0  0  0  0  0  0  0  0  0  0  0
   11.1309   -8.6391    2.2734 H   0  0  0  0  0  0  0  0  0  0  0  0
   10.1170   -9.6406    4.2569 H   0  0  0  0  0  0  0  0  0  0  0  0
   10.8911   -9.0054    6.5266 H   0  0  0  0  0  0  0  0  0  0  0  0
   12.7005   -7.3243    6.7895 H   0  0  0  0  0  0  0  0  0  0  0  0
   13.7411   -6.3005    4.7878 H   0  0  0  0  0  0  0  0  0  0  0  0
   10.9278   -2.3929   -2.3311 H   0  0  0  0  0  0  0  0  0  0  0  0
    7.9686    0.8805   -3.4397 H   0  0  0  0  0  0  0  0  0  0  0  0
    6.5641    2.9247   -3.1855 H   0  0  0  0  0  0  0  0  0  0  0  0
    9.3075    4.1412   -1.4849 H   0  0  0  0  0  0  0  0  0  0  0  0
    8.6881    3.2147   -0.1170 H   0  0  0  0  0  0  0  0  0  0  0  0
    8.5783    4.9780   -0.1057 H   0  0  0  0  0  0  0  0  0  0  0  0
    7.7618    5.3898   -3.0365 H   0  0  0  0  0  0  0  0  0  0  0  0
    7.0158    6.1984   -1.6524 H   0  0  0  0  0  0  0  0  0  0  0  0
    6.0088    5.3201   -2.8097 H   0  0  0  0  0  0  0  0  0  0  0  0
    6.1101    3.2101    0.3379 H   0  0  0  0  0  0  0  0  0  0  0  0
    5.0224    3.9388   -0.8499 H   0  0  0  0  0  0  0  0  0  0  0  0
    6.0214    4.9593    0.1993 H   0  0  0  0  0  0  0  0  0  0  0  0
    5.0149    0.2112   -4.0880 H   0  0  0  0  0  0  0  0  0  0  0  0
  1  2  1  0  0  0  0
  1 41  1  0  0  0  0
  1 42  1  0  0  0  0
  1 43  1  0  0  0  0
  2  3  1  0  0  0  0
  3  4  1  0  0  0  0
  3 40  2  0  0  0  0
  4  5  2  0  0  0  0
  4 44  1  0  0  0  0
  5  6  1  0  0  0  0
  5  8  1  0  0  0  0
  6  7  1  0  0  0  0
  7 45  1  0  0  0  0
  7 46  1  0  0  0  0
  7 47  1  0  0  0  0
  8  9  2  0  0  0  0
  8 48  1  0  0  0  0
  9 10  1  0  0  0  0
  9 40  1  0  0  0  0
 10 11  1  0  0  0  0
 10 31  2  0  0  0  0
 11 12  2  0  0  0  0
 11 49  1  0  0  0  0
 12 13  1  0  0  0  0
 12 29  1  0  0  0  0
 13 14  2  0  0  0  0
 13 50  1  0  0  0  0
 14 15  1  0  0  0  0
 15 16  1  0  0  0  0
 15 28  2  0  0  0  0
 16 17  1  0  0  0  0
 16 51  1  0  0  0  0
 17 18  1  0  0  0  0
 17 52  1  0  0  0  0
 17 53  1  0  0  0  0
 18 19  1  0  0  0  0
 18 54  1  0  0  0  0
 18 55  1  0  0  0  0
 19 20  1  0  0  0  0
 19 56  1  0  0  0  0
 19 57  1  0  0  0  0
 20 21  1  0  0  0  0
 20 58  1  0  0  0  0
 20 59  1  0  0  0  0
 21 22  1  0  0  0  0
 22 23  1  0  0  0  0
 22 27  2  0  0  0  0
 23 24  2  0  0  0  0
 23 60  1  0  0  0  0
 24 25  1  0  0  0  0
 24 61  1  0  0  0  0
 25 26  2  0  0  0  0
 25 62  1  0  0  0  0
 26 27  1  0  0  0  0
 26 63  1  0  0  0  0
 27 64  1  0  0  0  0
 28 29  1  0  0  0  0
 28 65  1  0  0  0  0
 29 30  2  0  0  0  0
 30 31  1  0  0  0  0
 31 32  1  0  0  0  0
 32 33  1  0  0  0  0
 32 66  1  0  0  0  0
 33 34  2  0  0  0  0
 33 35  1  0  0  0  0
 35 36  1  0  0  0  0
 35 67  1  0  0  0  0
 36 37  1  0  0  0  0
 36 38  1  0  0  0  0
 36 39  1  0  0  0  0
 37 68  1  0  0  0  0
 37 69  1  0  0  0  0
 37 70  1  0  0  0  0
 38 71  1  0  0  0  0
 38 72  1  0  0  0  0
 38 73  1  0  0  0  0
 39 74  1  0  0  0  0
 39 75  1  0  0  0  0
 39 76  1  0  0  0  0
 40 77  1  0  0  0  0
M  END
$$$$
