CHEMBL1972362
 OpenBabel04072215363D

 34 36  0  0  0  0  0  0  0  0999 V2000
    1.1799   -0.3171   -0.1458 C   0  0  0  0  0  0  0  0  0  0  0  0
    2.9233   -0.0505    0.0587 S   0  0  0  0  0  0  0  0  0  0  0  0
    3.1073    1.1868    0.7928 O   0  0  0  0  0  0  0  0  0  0  0  0
    3.5124   -1.2902    0.5267 O   0  0  0  0  0  0  0  0  0  0  0  0
    3.5009    0.2267   -1.5996 C   0  0  0  0  0  0  0  0  0  0  0  0
    3.4652    1.5098   -2.1407 C   0  0  0  0  0  0  0  0  0  0  0  0
    3.9308    1.7223   -3.4450 C   0  0  0  0  0  0  0  0  0  0  0  0
    4.4714    0.6760   -4.2227 C   0  0  0  0  0  0  0  0  0  0  0  0
    4.9497    0.9199   -5.6039 C   0  0  0  0  0  0  0  0  0  0  0  0
    5.5768    2.1180   -5.9719 C   0  0  0  0  0  0  0  0  0  0  0  0
    6.0195    2.4389   -7.2057 N   0  0  0  0  0  0  0  0  0  0  0  0
    5.8797    1.5340   -8.1915 C   0  0  0  0  0  0  0  0  0  0  0  0
    5.2854    0.2994   -7.9305 C   0  0  0  0  0  0  0  0  0  0  0  0
    5.0625   -0.9740   -9.0679 S   0  0  0  0  0  0  0  0  0  0  0  0
    4.2995   -1.9788   -7.9272 C   0  0  0  0  0  0  0  0  0  0  0  0
    3.8440   -3.3218   -8.2393 C   0  0  0  0  0  0  0  0  0  0  0  0
    4.0162   -3.7540   -9.5253 N   0  0  0  0  0  0  0  0  0  0  0  0
    3.3259   -4.0761   -7.4196 O   0  0  0  0  0  0  0  0  0  0  0  0
    4.1853   -1.3388   -6.7105 C   0  0  0  0  0  0  0  0  0  0  0  0
    4.7964   -0.0308   -6.6593 C   0  0  0  0  0  0  0  0  0  0  0  0
    4.5541   -0.5891   -3.6105 C   0  0  0  0  0  0  0  0  0  0  0  0
    4.0520   -0.8255   -2.3254 C   0  0  0  0  0  0  0  0  0  0  0  0
    0.7504   -0.4988    0.8412 H   0  0  0  0  0  0  0  0  0  0  0  0
    1.0229   -1.1873   -0.7843 H   0  0  0  0  0  0  0  0  0  0  0  0
    0.7317    0.5752   -0.5868 H   0  0  0  0  0  0  0  0  0  0  0  0
    3.0865    2.3501   -1.5621 H   0  0  0  0  0  0  0  0  0  0  0  0
    3.8651    2.7336   -3.8445 H   0  0  0  0  0  0  0  0  0  0  0  0
    5.7564    2.9014   -5.2381 H   0  0  0  0  0  0  0  0  0  0  0  0
    6.2493    1.8146   -9.1715 H   0  0  0  0  0  0  0  0  0  0  0  0
    4.4460   -3.1736  -10.2310 H   0  0  0  0  0  0  0  0  0  0  0  0
    3.7143   -4.6886   -9.7571 H   0  0  0  0  0  0  0  0  0  0  0  0
    3.6929   -1.8228   -5.8753 H   0  0  0  0  0  0  0  0  0  0  0  0
    5.0312   -1.4229   -4.1215 H   0  0  0  0  0  0  0  0  0  0  0  0
    4.1163   -1.8261   -1.9024 H   0  0  0  0  0  0  0  0  0  0  0  0
  1  2  1  0  0  0  0
  1 23  1  0  0  0  0
  1 24  1  0  0  0  0
  1 25  1  0  0  0  0
  2  3  2  0  0  0  0
  2  4  2  0  0  0  0
  2  5  1  0  0  0  0
  5  6  1  0  0  0  0
  5 22  2  0  0  0  0
  6  7  2  0  0  0  0
  6 26  1  0  0  0  0
  7  8  1  0  0  0  0
  7 27  1  0  0  0  0
  8  9  1  0  0  0  0
  8 21  2  0  0  0  0
  9 10  1  0  0  0  0
  9 20  2  0  0  0  0
 10 11  2  0  0  0  0
 10 28  1  0  0  0  0
 11 12  1  0  0  0  0
 12 13  2  0  0  0  0
 12 29  1  0  0  0  0
 13 14  1  0  0  0  0
 13 20  1  0  0  0  0
 14 15  1  0  0  0  0
 15 16  1  0  0  0  0
 15 19  2  0  0  0  0
 16 17  1  0  0  0  0
 16 18  2  0  0  0  0
 17 30  1  0  0  0  0
 17 31  1  0  0  0  0
 19 20  1  0  0  0  0
 19 32  1  0  0  0  0
 21 22  1  0  0  0  0
 21 33  1  0  0  0  0
 22 34  1  0  0  0  0
M  END
$$$$
