CHEMBL4101438
 OpenBabel04072215383D

 45 47  0  0  0  0  0  0  0  0999 V2000
   -1.0467    2.1916   -3.3908 C   0  0  0  0  0  0  0  0  0  0  0  0
   -1.3055    1.0214   -2.5069 C   0  0  0  0  0  0  0  0  0  0  0  0
   -1.7073   -0.1123   -3.1056 N   0  0  0  0  0  0  0  0  0  0  0  0
   -1.8869   -0.9650   -2.0894 N   0  0  0  0  0  0  0  0  0  0  0  0
   -1.6149   -0.4383   -0.8675 C   0  0  0  0  0  0  0  0  0  0  0  0
   -1.7345   -1.1078    0.2927 N   0  0  0  0  0  0  0  0  0  0  0  0
   -1.3984   -0.3650    1.3618 C   0  0  0  0  0  0  0  0  0  0  0  0
   -0.9661    0.9520    1.3195 C   0  0  0  0  0  0  0  0  0  0  0  0
   -0.8518    1.6267    0.0866 C   0  0  0  0  0  0  0  0  0  0  0  0
   -0.3762    3.0196    0.0263 C   0  0  0  0  0  0  0  0  0  0  0  0
    0.5500    3.4133   -0.9384 C   0  0  0  0  0  0  0  0  0  0  0  0
    0.9356    4.7458   -1.0908 C   0  0  0  0  0  0  0  0  0  0  0  0
    0.4900    5.7300   -0.2124 C   0  0  0  0  0  0  0  0  0  0  0  0
    0.8625    7.0901   -0.3298 N   0  0  0  0  0  0  0  0  0  0  0  0
    1.5458    7.6447   -1.3889 C   0  0  0  0  0  0  0  0  0  0  0  0
    1.8840    7.0693   -2.4149 O   0  0  0  0  0  0  0  0  0  0  0  0
    1.8265    8.9811   -1.2074 N   0  0  0  0  0  0  0  0  0  0  0  0
    2.6738    9.6150   -2.2043 C   0  0  0  0  0  0  0  0  0  0  0  0
    2.9560   11.0991   -1.9607 C   0  0  0  0  0  0  0  0  0  0  0  0
    1.6725   11.9241   -1.9349 C   0  0  0  0  0  0  0  0  0  0  0  0
    3.7815   11.3138   -0.6933 C   0  0  0  0  0  0  0  0  0  0  0  0
   -0.3440    5.3402    0.8385 C   0  0  0  0  0  0  0  0  0  0  0  0
   -0.7839    4.0063    0.9444 C   0  0  0  0  0  0  0  0  0  0  0  0
   -1.2065    0.8769   -1.0749 C   0  0  0  0  0  0  0  0  0  0  0  0
   -1.3730    1.9900   -4.4182 H   0  0  0  0  0  0  0  0  0  0  0  0
    0.0219    2.4108   -3.4576 H   0  0  0  0  0  0  0  0  0  0  0  0
   -1.5847    3.0771   -3.0426 H   0  0  0  0  0  0  0  0  0  0  0  0
   -2.2036   -1.9052   -2.2854 H   0  0  0  0  0  0  0  0  0  0  0  0
   -1.4793   -0.8828    2.3147 H   0  0  0  0  0  0  0  0  0  0  0  0
   -0.6981    1.4438    2.2498 H   0  0  0  0  0  0  0  0  0  0  0  0
    0.9939    2.6804   -1.6052 H   0  0  0  0  0  0  0  0  0  0  0  0
    1.5998    4.9651   -1.9192 H   0  0  0  0  0  0  0  0  0  0  0  0
    0.4891    7.7328    0.3522 H   0  0  0  0  0  0  0  0  0  0  0  0
    1.9117    9.2878   -0.2501 H   0  0  0  0  0  0  0  0  0  0  0  0
    2.1899    9.4877   -3.1812 H   0  0  0  0  0  0  0  0  0  0  0  0
    3.6192    9.0579   -2.2432 H   0  0  0  0  0  0  0  0  0  0  0  0
    3.5605   11.4539   -2.8066 H   0  0  0  0  0  0  0  0  0  0  0  0
    1.0246   11.6384   -1.1003 H   0  0  0  0  0  0  0  0  0  0  0  0
    1.1089   11.7904   -2.8647 H   0  0  0  0  0  0  0  0  0  0  0  0
    1.9019   12.9899   -1.8343 H   0  0  0  0  0  0  0  0  0  0  0  0
    3.2332   11.0167    0.2059 H   0  0  0  0  0  0  0  0  0  0  0  0
    4.0552   12.3682   -0.5857 H   0  0  0  0  0  0  0  0  0  0  0  0
    4.7091   10.7325   -0.7342 H   0  0  0  0  0  0  0  0  0  0  0  0
   -0.6827    6.0610    1.5782 H   0  0  0  0  0  0  0  0  0  0  0  0
   -1.4619    3.7523    1.7576 H   0  0  0  0  0  0  0  0  0  0  0  0
  1  2  1  0  0  0  0
  1 25  1  0  0  0  0
  1 26  1  0  0  0  0
  1 27  1  0  0  0  0
  2  3  2  0  0  0  0
  2 24  1  0  0  0  0
  3  4  1  0  0  0  0
  4  5  1  0  0  0  0
  4 28  1  0  0  0  0
  5  6  1  0  0  0  0
  5 24  2  0  0  0  0
  6  7  2  0  0  0  0
  7  8  1  0  0  0  0
  7 29  1  0  0  0  0
  8  9  2  0  0  0  0
  8 30  1  0  0  0  0
  9 10  1  0  0  0  0
  9 24  1  0  0  0  0
 10 11  1  0  0  0  0
 10 23  2  0  0  0  0
 11 12  2  0  0  0  0
 11 31  1  0  0  0  0
 12 13  1  0  0  0  0
 12 32  1  0  0  0  0
 13 14  1  0  0  0  0
 13 22  2  0  0  0  0
 14 15  1  0  0  0  0
 14 33  1  0  0  0  0
 15 16  2  0  0  0  0
 15 17  1  0  0  0  0
 17 18  1  0  0  0  0
 17 34  1  0  0  0  0
 18 19  1  0  0  0  0
 18 35  1  0  0  0  0
 18 36  1  0  0  0  0
 19 20  1  0  0  0  0
 19 21  1  0  0  0  0
 19 37  1  0  0  0  0
 20 38  1  0  0  0  0
 20 39  1  0  0  0  0
 20 40  1  0  0  0  0
 21 41  1  0  0  0  0
 21 42  1  0  0  0  0
 21 43  1  0  0  0  0
 22 23  1  0  0  0  0
 22 44  1  0  0  0  0
 23 45  1  0  0  0  0
M  END
$$$$
