CHEMBL404571
 OpenBabel04072215373D

 45 48  0  0  0  0  0  0  0  0999 V2000
    1.4603   -0.0165   -1.3344 N   0  0  0  0  0  0  0  0  0  0  0  0
    2.7708   -0.1576   -1.0791 C   0  0  0  0  0  0  0  0  0  0  0  0
    3.6268    0.8032   -1.4133 N   0  0  0  0  0  0  0  0  0  0  0  0
    4.8016    0.3491   -0.9710 N   0  0  0  0  0  0  0  0  0  0  0  0
    4.7456   -0.8693   -0.3596 C   0  0  0  0  0  0  0  0  0  0  0  0
    5.7420   -1.6377    0.2352 C   0  0  0  0  0  0  0  0  0  0  0  0
    5.3055   -2.8378    0.7607 C   0  0  0  0  0  0  0  0  0  0  0  0
    4.0354   -3.2868    0.6958 N   0  0  0  0  0  0  0  0  0  0  0  0
    3.0645   -2.5406    0.0755 C   0  0  0  0  0  0  0  0  0  0  0  0
    1.7290   -3.1590   -0.0114 C   0  0  0  0  0  0  0  0  0  0  0  0
    1.2647   -3.9990    1.0111 C   0  0  0  0  0  0  0  0  0  0  0  0
   -0.0024   -4.5946    0.9565 C   0  0  0  0  0  0  0  0  0  0  0  0
   -0.8549   -4.3483   -0.1164 C   0  0  0  0  0  0  0  0  0  0  0  0
   -2.1385   -4.9136   -0.2302 N   0  0  0  0  0  0  0  0  0  0  0  0
   -2.8650   -5.4682    0.8080 C   0  0  0  0  0  0  0  0  0  0  0  0
   -2.6062   -5.3406    1.9989 O   0  0  0  0  0  0  0  0  0  0  0  0
   -3.9255   -6.2254    0.3204 N   0  0  0  0  0  0  0  0  0  0  0  0
   -4.8232   -6.8648    1.1972 C   0  0  0  0  0  0  0  0  0  0  0  0
   -5.1505   -8.2000    0.9671 C   0  0  0  0  0  0  0  0  0  0  0  0
   -6.0080   -8.8662    1.8425 C   0  0  0  0  0  0  0  0  0  0  0  0
   -6.5916   -8.1810    2.9095 C   0  0  0  0  0  0  0  0  0  0  0  0
   -6.3127   -6.8233    3.1223 C   0  0  0  0  0  0  0  0  0  0  0  0
   -6.9952   -6.0465    4.2195 C   0  0  0  0  0  0  0  0  0  0  0  0
   -7.9388   -6.7706    4.8868 F   0  0  0  0  0  0  0  0  0  0  0  0
   -6.1358   -5.5901    5.1696 F   0  0  0  0  0  0  0  0  0  0  0  0
   -7.6487   -4.9479    3.7444 F   0  0  0  0  0  0  0  0  0  0  0  0
   -5.3989   -6.1806    2.2729 C   0  0  0  0  0  0  0  0  0  0  0  0
   -0.3979   -3.5520   -1.1647 C   0  0  0  0  0  0  0  0  0  0  0  0
    0.8881   -2.9939   -1.1213 C   0  0  0  0  0  0  0  0  0  0  0  0
    3.4091   -1.2688   -0.4419 C   0  0  0  0  0  0  0  0  0  0  0  0
    1.1743    0.8992   -1.6643 H   0  0  0  0  0  0  0  0  0  0  0  0
    0.7777   -0.4454   -0.7190 H   0  0  0  0  0  0  0  0  0  0  0  0
    5.6223    0.9332   -1.1105 H   0  0  0  0  0  0  0  0  0  0  0  0
    6.7764   -1.3248    0.2929 H   0  0  0  0  0  0  0  0  0  0  0  0
    6.0004   -3.5066    1.2617 H   0  0  0  0  0  0  0  0  0  0  0  0
    1.9001   -4.2178    1.8704 H   0  0  0  0  0  0  0  0  0  0  0  0
   -0.2842   -5.2687    1.7595 H   0  0  0  0  0  0  0  0  0  0  0  0
   -2.6657   -4.7090   -1.0652 H   0  0  0  0  0  0  0  0  0  0  0  0
   -3.7033   -6.7153   -0.5359 H   0  0  0  0  0  0  0  0  0  0  0  0
   -4.7001   -8.7509    0.1466 H   0  0  0  0  0  0  0  0  0  0  0  0
   -6.2208   -9.9220    1.6942 H   0  0  0  0  0  0  0  0  0  0  0  0
   -7.2743   -8.7111    3.5722 H   0  0  0  0  0  0  0  0  0  0  0  0
   -5.1562   -5.1315    2.4451 H   0  0  0  0  0  0  0  0  0  0  0  0
   -1.0206   -3.3390   -2.0305 H   0  0  0  0  0  0  0  0  0  0  0  0
    1.2279   -2.4263   -1.9853 H   0  0  0  0  0  0  0  0  0  0  0  0
  1  2  1  0  0  0  0
  1 31  1  0  0  0  0
  1 32  1  0  0  0  0
  2  3  2  0  0  0  0
  2 30  1  0  0  0  0
  3  4  1  0  0  0  0
  4  5  1  0  0  0  0
  4 33  1  0  0  0  0
  5  6  1  0  0  0  0
  5 30  2  0  0  0  0
  6  7  2  0  0  0  0
  6 34  1  0  0  0  0
  7  8  1  0  0  0  0
  7 35  1  0  0  0  0
  8  9  2  0  0  0  0
  9 10  1  0  0  0  0
  9 30  1  0  0  0  0
 10 11  1  0  0  0  0
 10 29  2  0  0  0  0
 11 12  2  0  0  0  0
 11 36  1  0  0  0  0
 12 13  1  0  0  0  0
 12 37  1  0  0  0  0
 13 14  1  0  0  0  0
 13 28  2  0  0  0  0
 14 15  1  0  0  0  0
 14 38  1  0  0  0  0
 15 16  2  0  0  0  0
 15 17  1  0  0  0  0
 17 18  1  0  0  0  0
 17 39  1  0  0  0  0
 18 19  1  0  0  0  0
 18 27  2  0  0  0  0
 19 20  2  0  0  0  0
 19 40  1  0  0  0  0
 20 21  1  0  0  0  0
 20 41  1  0  0  0  0
 21 22  2  0  0  0  0
 21 42  1  0  0  0  0
 22 23  1  0  0  0  0
 22 27  1  0  0  0  0
 23 24  1  0  0  0  0
 23 25  1  0  0  0  0
 23 26  1  0  0  0  0
 27 43  1  0  0  0  0
 28 29  1  0  0  0  0
 28 44  1  0  0  0  0
 29 45  1  0  0  0  0
M  END
$$$$
