CHEMBL231067
 OpenBabel04072215363D

 69 73  0  0  1  0  0  0  0  0999 V2000
   14.5169  -10.1569   -4.1770 C   0  0  0  0  0  0  0  0  0  0  0  0
   14.4433   -8.7858   -4.6001 N   0  0  0  0  0  0  0  0  0  0  0  0
   13.2486   -8.2049   -4.9649 C   0  0  0  0  0  0  0  0  0  0  0  0
   12.1714   -8.7904   -4.9337 O   0  0  0  0  0  0  0  0  0  0  0  0
   13.3473   -6.7689   -5.3828 C   0  0  0  0  0  0  0  0  0  0  0  0
   12.1878   -6.0843   -5.7075 C   0  0  0  0  0  0  0  0  0  0  0  0
   12.2807   -4.7114   -5.9195 C   0  0  0  0  0  0  0  0  0  0  0  0
   11.1982   -3.8818   -6.1231 O   0  0  0  0  0  0  0  0  0  0  0  0
    9.9970   -4.2144   -5.5310 C   0  0  0  0  0  0  0  0  0  0  0  0
    9.9067   -4.7572   -4.2388 C   0  0  0  0  0  0  0  0  0  0  0  0
    8.6921   -5.2086   -3.7229 C   0  0  0  0  0  0  0  0  0  0  0  0
    7.5761   -5.0183   -4.5333 C   0  0  0  0  0  0  0  0  0  0  0  0
    6.2651   -5.3566   -4.3768 N   0  0  0  0  0  0  0  0  0  0  0  0
    5.5776   -4.9579   -5.4931 C   0  0  0  0  0  0  0  0  0  0  0  0
    4.2709   -5.2694   -5.5679 N   0  0  0  0  0  0  0  0  0  0  0  0
    3.4433   -5.2053   -6.7024 C   0  0  0  0  0  0  0  0  0  0  0  0
    3.6955   -4.4569   -7.8399 C   0  0  0  0  0  0  0  0  0  0  0  0
    2.7867   -4.4690   -8.9052 C   0  0  0  0  0  0  0  0  0  0  0  0
    1.6193   -5.2673   -8.8766 C   0  0  0  0  0  0  0  0  0  0  0  0
    0.6502   -5.1668  -10.0413 C   0  0  0  0  0  0  0  0  0  0  0  0
    1.1267   -4.3095  -11.0164 F   0  0  0  0  0  0  0  0  0  0  0  0
    0.5597   -6.3648  -10.7047 F   0  0  0  0  0  0  0  0  0  0  0  0
   -0.7691   -4.6752   -9.6498 C   0  0  0  0  0  0  0  0  0  0  0  0
   -0.9849   -4.5854   -8.3148 F   0  0  0  0  0  0  0  0  0  0  0  0
   -1.0173   -3.4317  -10.1497 F   0  0  0  0  0  0  0  0  0  0  0  0
   -1.7407   -5.4811  -10.1525 F   0  0  0  0  0  0  0  0  0  0  0  0
    1.4178   -6.1198   -7.7783 C   0  0  0  0  0  0  0  0  0  0  0  0
    0.3497   -7.0065   -7.7755 O   0  0  0  0  0  0  0  0  0  0  0  0
    0.3505   -7.8972   -6.6378 C   0  0  0  0  0  0  0  0  0  0  0  0
   -0.7650   -8.9580   -6.5542 C   0  0  1  0  0  0  0  0  0  0  0  0
   -2.1619   -8.3467   -6.6458 C   0  0  0  0  0  0  0  0  0  0  0  0
   -2.7724   -8.9264   -7.9144 C   0  0  0  0  0  0  0  0  0  0  0  0
   -1.6157   -9.5938   -8.6381 C   0  0  0  0  0  0  0  0  0  0  0  0
   -0.7894  -10.0540   -7.5292 N   0  0  0  0  0  0  0  0  0  0  0  0
    0.5009  -10.5731   -7.9442 C   0  0  0  0  0  0  0  0  0  0  0  0
    2.3166   -6.0347   -6.7003 C   0  0  0  0  0  0  0  0  0  0  0  0
    6.3722   -4.3623   -6.3485 N   0  0  0  0  0  0  0  0  0  0  0  0
    7.6186   -4.4071   -5.7835 C   0  0  0  0  0  0  0  0  0  0  0  0
    8.8485   -3.9794   -6.2918 C   0  0  0  0  0  0  0  0  0  0  0  0
   13.5309   -4.1038   -5.9368 C   0  0  0  0  0  0  0  0  0  0  0  0
   14.6413   -4.8819   -5.6561 C   0  0  0  0  0  0  0  0  0  0  0  0
   14.5843   -6.1975   -5.3507 N   0  0  0  0  0  0  0  0  0  0  0  0
   15.5579  -10.4077   -3.9638 H   0  0  0  0  0  0  0  0  0  0  0  0
   14.1310  -10.7991   -4.9736 H   0  0  0  0  0  0  0  0  0  0  0  0
   13.9060  -10.2929   -3.2800 H   0  0  0  0  0  0  0  0  0  0  0  0
   15.2718   -8.1979   -4.6364 H   0  0  0  0  0  0  0  0  0  0  0  0
   11.2394   -6.6104   -5.7349 H   0  0  0  0  0  0  0  0  0  0  0  0
   10.7992   -4.8847   -3.6309 H   0  0  0  0  0  0  0  0  0  0  0  0
    8.6320   -5.7016   -2.7590 H   0  0  0  0  0  0  0  0  0  0  0  0
    5.8790   -5.8777   -3.6061 H   0  0  0  0  0  0  0  0  0  0  0  0
    3.8306   -5.7295   -4.7825 H   0  0  0  0  0  0  0  0  0  0  0  0
    4.5831   -3.8338   -7.9151 H   0  0  0  0  0  0  0  0  0  0  0  0
    3.0108   -3.8437   -9.7720 H   0  0  0  0  0  0  0  0  0  0  0  0
    0.2282   -7.2848   -5.7337 H   0  0  0  0  0  0  0  0  0  0  0  0
    1.3119   -8.4248   -6.5906 H   0  0  0  0  0  0  0  0  0  0  0  0
   -0.6531   -9.4210   -5.5639 H   0  0  0  0  0  0  0  0  0  0  0  0
   -2.1419   -7.2526   -6.6785 H   0  0  0  0  0  0  0  0  0  0  0  0
   -2.7660   -8.6380   -5.7773 H   0  0  0  0  0  0  0  0  0  0  0  0
   -3.2508   -8.1547   -8.5234 H   0  0  0  0  0  0  0  0  0  0  0  0
   -3.5351   -9.6680   -7.6456 H   0  0  0  0  0  0  0  0  0  0  0  0
   -1.0871   -8.8677   -9.2666 H   0  0  0  0  0  0  0  0  0  0  0  0
   -1.9618  -10.4213   -9.2646 H   0  0  0  0  0  0  0  0  0  0  0  0
    0.3674  -11.5109   -8.4945 H   0  0  0  0  0  0  0  0  0  0  0  0
    1.1220  -10.8129   -7.0729 H   0  0  0  0  0  0  0  0  0  0  0  0
    1.0548   -9.8775   -8.5830 H   0  0  0  0  0  0  0  0  0  0  0  0
    2.1852   -6.6390   -5.8113 H   0  0  0  0  0  0  0  0  0  0  0  0
    8.9010   -3.5167   -7.2742 H   0  0  0  0  0  0  0  0  0  0  0  0
   13.6312   -3.0451   -6.1505 H   0  0  0  0  0  0  0  0  0  0  0  0
   15.6372   -4.4458   -5.6553 H   0  0  0  0  0  0  0  0  0  0  0  0
  1  2  1  0  0  0  0
  1 43  1  0  0  0  0
  1 44  1  0  0  0  0
  1 45  1  0  0  0  0
  2  3  1  0  0  0  0
  2 46  1  0  0  0  0
  3  4  2  0  0  0  0
  3  5  1  0  0  0  0
  5  6  1  0  0  0  0
  5 42  2  0  0  0  0
  6  7  2  0  0  0  0
  6 47  1  0  0  0  0
  7  8  1  0  0  0  0
  7 40  1  0  0  0  0
  8  9  1  0  0  0  0
  9 10  1  0  0  0  0
  9 39  2  0  0  0  0
 10 11  2  0  0  0  0
 10 48  1  0  0  0  0
 11 12  1  0  0  0  0
 11 49  1  0  0  0  0
 12 13  1  0  0  0  0
 12 38  2  0  0  0  0
 13 14  1  0  0  0  0
 13 50  1  0  0  0  0
 14 15  1  0  0  0  0
 14 37  2  0  0  0  0
 15 16  1  0  0  0  0
 15 51  1  0  0  0  0
 16 17  1  0  0  0  0
 16 36  2  0  0  0  0
 17 18  2  0  0  0  0
 17 52  1  0  0  0  0
 18 19  1  0  0  0  0
 18 53  1  0  0  0  0
 19 20  1  0  0  0  0
 19 27  2  0  0  0  0
 20 21  1  0  0  0  0
 20 22  1  0  0  0  0
 20 23  1  0  0  0  0
 23 24  1  0  0  0  0
 23 25  1  0  0  0  0
 23 26  1  0  0  0  0
 27 28  1  0  0  0  0
 27 36  1  0  0  0  0
 28 29  1  0  0  0  0
 29 30  1  0  0  0  0
 29 54  1  0  0  0  0
 29 55  1  0  0  0  0
 30 31  1  0  0  0  0
 30 34  1  0  0  0  0
 30 56  1  1  0  0  0
 31 32  1  0  0  0  0
 31 57  1  0  0  0  0
 31 58  1  0  0  0  0
 32 33  1  0  0  0  0
 32 59  1  0  0  0  0
 32 60  1  0  0  0  0
 33 34  1  0  0  0  0
 33 61  1  0  0  0  0
 33 62  1  0  0  0  0
 34 35  1  0  0  0  0
 35 63  1  0  0  0  0
 35 64  1  0  0  0  0
 35 65  1  0  0  0  0
 36 66  1  0  0  0  0
 37 38  1  0  0  0  0
 38 39  1  0  0  0  0
 39 67  1  0  0  0  0
 40 41  2  0  0  0  0
 40 68  1  0  0  0  0
 41 42  1  0  0  0  0
 41 69  1  0  0  0  0
M  END
$$$$
