CHEMBL3612229
 OpenBabel04072215363D

 42 45  0  0  0  0  0  0  0  0999 V2000
   -2.7008    0.5143    2.7323 N   0  0  0  0  0  0  0  0  0  0  0  0
   -1.5966    0.3724    2.3889 C   0  0  0  0  0  0  0  0  0  0  0  0
   -0.2391    0.2002    1.9702 C   0  0  0  0  0  0  0  0  0  0  0  0
    0.3301   -1.0694    1.9552 C   0  0  0  0  0  0  0  0  0  0  0  0
    1.6623   -1.2386    1.5625 C   0  0  0  0  0  0  0  0  0  0  0  0
    2.4606   -0.1540    1.1776 C   0  0  0  0  0  0  0  0  0  0  0  0
    3.8267   -0.2853    0.8001 N   0  0  0  0  0  0  0  0  0  0  0  0
    4.5194   -1.4815    0.7098 C   0  0  0  0  0  0  0  0  0  0  0  0
    4.0356   -2.5892    0.9136 O   0  0  0  0  0  0  0  0  0  0  0  0
    5.8706   -1.3161    0.4007 N   0  0  0  0  0  0  0  0  0  0  0  0
    6.6874   -2.4769    0.2919 C   0  0  0  0  0  0  0  0  0  0  0  0
    6.2945   -3.5476   -0.5213 C   0  0  0  0  0  0  0  0  0  0  0  0
    7.0325   -4.7306   -0.5443 C   0  0  0  0  0  0  0  0  0  0  0  0
    8.1774   -4.8489    0.2422 C   0  0  0  0  0  0  0  0  0  0  0  0
    8.6036   -3.7734    1.0315 C   0  0  0  0  0  0  0  0  0  0  0  0
   10.1185   -3.9046    1.9607 S   0  0  0  0  0  0  0  0  0  0  0  0
    9.6692   -4.5544    3.5568 C   0  0  0  0  0  0  0  0  0  0  0  0
    8.3624   -4.8668    3.9406 C   0  0  0  0  0  0  0  0  0  0  0  0
    8.1216   -5.3524    5.2128 C   0  0  0  0  0  0  0  0  0  0  0  0
    9.0545   -5.5676    6.1510 N   0  0  0  0  0  0  0  0  0  0  0  0
   10.3328   -5.2790    5.7884 C   0  0  0  0  0  0  0  0  0  0  0  0
   11.4617   -5.4549    6.6412 C   0  0  0  0  0  0  0  0  0  0  0  0
   12.6402   -5.0903    6.0369 C   0  0  0  0  0  0  0  0  0  0  0  0
   12.3906   -4.5307    4.4447 S   0  0  0  0  0  0  0  0  0  0  0  0
   10.6773   -4.7789    4.5282 C   0  0  0  0  0  0  0  0  0  0  0  0
    7.8652   -2.5777    1.0387 C   0  0  0  0  0  0  0  0  0  0  0  0
    1.8760    1.1196    1.1811 C   0  0  0  0  0  0  0  0  0  0  0  0
    0.5353    1.2946    1.5759 C   0  0  0  0  0  0  0  0  0  0  0  0
   -0.2449   -1.9475    2.2470 H   0  0  0  0  0  0  0  0  0  0  0  0
    2.0378   -2.2570    1.5742 H   0  0  0  0  0  0  0  0  0  0  0  0
    4.3073    0.5496    0.5027 H   0  0  0  0  0  0  0  0  0  0  0  0
    6.3027   -0.5008    0.8091 H   0  0  0  0  0  0  0  0  0  0  0  0
    5.3992   -3.4721   -1.1356 H   0  0  0  0  0  0  0  0  0  0  0  0
    6.7066   -5.5591   -1.1687 H   0  0  0  0  0  0  0  0  0  0  0  0
    8.7340   -5.7836    0.2275 H   0  0  0  0  0  0  0  0  0  0  0  0
    7.5221   -4.7417    3.2694 H   0  0  0  0  0  0  0  0  0  0  0  0
    7.1058   -5.5937    5.5205 H   0  0  0  0  0  0  0  0  0  0  0  0
   11.3966   -5.8349    7.6522 H   0  0  0  0  0  0  0  0  0  0  0  0
   13.6365   -5.1245    6.4564 H   0  0  0  0  0  0  0  0  0  0  0  0
    8.1825   -1.7592    1.6779 H   0  0  0  0  0  0  0  0  0  0  0  0
    2.4428    1.9980    0.8834 H   0  0  0  0  0  0  0  0  0  0  0  0
    0.1001    2.2929    1.5745 H   0  0  0  0  0  0  0  0  0  0  0  0
  1  2  3  0  0  0  0
  2  3  1  0  0  0  0
  3  4  1  0  0  0  0
  3 28  2  0  0  0  0
  4  5  2  0  0  0  0
  4 29  1  0  0  0  0
  5  6  1  0  0  0  0
  5 30  1  0  0  0  0
  6  7  1  0  0  0  0
  6 27  2  0  0  0  0
  7  8  1  0  0  0  0
  7 31  1  0  0  0  0
  8  9  2  0  0  0  0
  8 10  1  0  0  0  0
 10 11  1  0  0  0  0
 10 32  1  0  0  0  0
 11 12  1  0  0  0  0
 11 26  2  0  0  0  0
 12 13  2  0  0  0  0
 12 33  1  0  0  0  0
 13 14  1  0  0  0  0
 13 34  1  0  0  0  0
 14 15  2  0  0  0  0
 14 35  1  0  0  0  0
 15 16  1  0  0  0  0
 15 26  1  0  0  0  0
 16 17  1  0  0  0  0
 17 18  1  0  0  0  0
 17 25  2  0  0  0  0
 18 19  2  0  0  0  0
 18 36  1  0  0  0  0
 19 20  1  0  0  0  0
 19 37  1  0  0  0  0
 20 21  2  0  0  0  0
 21 22  1  0  0  0  0
 21 25  1  0  0  0  0
 22 23  2  0  0  0  0
 22 38  1  0  0  0  0
 23 24  1  0  0  0  0
 23 39  1  0  0  0  0
 24 25  1  0  0  0  0
 26 40  1  0  0  0  0
 27 28  1  0  0  0  0
 27 41  1  0  0  0  0
 28 42  1  0  0  0  0
M  END
$$$$
