CHEMBL3964589
 OpenBabel04072215373D

 61 64  0  0  1  0  0  0  0  0999 V2000
    2.2699   -5.7453   -0.8036 C   0  0  0  0  0  0  0  0  0  0  0  0
    1.9801   -4.5397   -1.5144 O   0  0  0  0  0  0  0  0  0  0  0  0
    2.6643   -3.4131   -1.1279 C   0  0  0  0  0  0  0  0  0  0  0  0
    3.5806   -3.3864   -0.0769 C   0  0  0  0  0  0  0  0  0  0  0  0
    4.2852   -2.2256    0.2018 C   0  0  0  0  0  0  0  0  0  0  0  0
    5.2448   -2.1065    1.1756 O   0  0  0  0  0  0  0  0  0  0  0  0
    5.4992   -3.2776    1.9507 C   0  0  0  0  0  0  0  0  0  0  0  0
    4.0353   -1.0772   -0.5607 C   0  0  0  0  0  0  0  0  0  0  0  0
    3.1014   -1.0516   -1.6279 C   0  0  0  0  0  0  0  0  0  0  0  0
    2.9347    0.1060   -2.4482 N   0  0  0  0  0  0  0  0  0  0  0  0
    4.3023    0.8711   -2.6716 C   0  0  0  0  0  0  0  0  0  0  0  0
    5.5621    0.1530   -3.3208 C   0  0  2  0  0  0  0  0  0  0  0  0
    6.0680   -0.9975   -2.5687 O   0  0  0  0  0  0  0  0  0  0  0  0
    6.9177   -1.8094   -3.2671 C   0  0  0  0  0  0  0  0  0  0  0  0
    7.4218   -2.9848   -2.4750 C   0  0  0  0  0  0  0  0  0  0  0  0
    7.2367   -1.6164   -4.4338 O   0  0  0  0  0  0  0  0  0  0  0  0
    6.7030    1.2108   -3.4817 C   0  0  0  0  0  0  0  0  0  0  0  0
    6.2975    2.4582   -3.1397 F   0  0  0  0  0  0  0  0  0  0  0  0
    7.7809    0.9395   -2.7039 F   0  0  0  0  0  0  0  0  0  0  0  0
    7.1455    1.2904   -4.7584 F   0  0  0  0  0  0  0  0  0  0  0  0
    1.8353    0.5019   -3.3267 C   0  0  0  0  0  0  0  0  0  0  0  0
    2.2453    0.7794   -4.6118 C   0  0  0  0  0  0  0  0  0  0  0  0
    1.4806    1.5903   -5.3723 C   0  0  0  0  0  0  0  0  0  0  0  0
    0.2865    2.1205   -4.9301 C   0  0  0  0  0  0  0  0  0  0  0  0
    0.2639    3.2762   -5.5350 N   0  0  0  0  0  0  0  0  0  0  0  0
   -0.7803    3.4452   -6.2922 C   0  0  0  0  0  0  0  0  0  0  0  0
   -2.0054    2.8802   -6.1255 C   0  0  0  0  0  0  0  0  0  0  0  0
   -2.8547    3.2973   -7.4118 C   0  0  0  0  0  0  0  0  0  0  0  0
   -2.2004    3.7440   -8.6598 C   0  0  0  0  0  0  0  0  0  0  0  0
   -2.9746    4.2894   -9.5859 N   0  0  0  0  0  0  0  0  0  0  0  0
   -4.1903    4.2115   -9.0515 N   0  0  0  0  0  0  0  0  0  0  0  0
   -5.2826    4.6507   -9.9090 C   0  0  0  0  0  0  0  0  0  0  0  0
   -4.1678    3.6870   -7.7378 C   0  0  0  0  0  0  0  0  0  0  0  0
   -2.0452    1.9996   -4.9797 N   0  0  0  0  0  0  0  0  0  0  0  0
   -0.6528    1.5005   -4.2402 C   0  0  0  0  0  0  0  0  0  0  0  0
    0.3671    0.7582   -3.1417 C   0  0  0  0  0  0  0  0  0  0  0  0
    2.4148   -2.2460   -1.8793 C   0  0  0  0  0  0  0  0  0  0  0  0
    1.7427   -6.5675   -1.2954 H   0  0  0  0  0  0  0  0  0  0  0  0
    1.9075   -5.6842    0.2290 H   0  0  0  0  0  0  0  0  0  0  0  0
    3.3395   -5.9892   -0.8260 H   0  0  0  0  0  0  0  0  0  0  0  0
    3.7470   -4.2718    0.5188 H   0  0  0  0  0  0  0  0  0  0  0  0
    6.2842   -3.0538    2.6784 H   0  0  0  0  0  0  0  0  0  0  0  0
    5.8596   -4.0972    1.3178 H   0  0  0  0  0  0  0  0  0  0  0  0
    4.6041   -3.5767    2.5078 H   0  0  0  0  0  0  0  0  0  0  0  0
    4.6229   -0.1993   -0.3057 H   0  0  0  0  0  0  0  0  0  0  0  0
    4.6019    1.3164   -1.7165 H   0  0  0  0  0  0  0  0  0  0  0  0
    4.1037    1.7424   -3.3101 H   0  0  0  0  0  0  0  0  0  0  0  0
    5.2808   -0.2008   -4.3188 H   0  0  0  0  0  0  0  0  0  0  0  0
    7.0650   -2.9743   -1.4431 H   0  0  0  0  0  0  0  0  0  0  0  0
    8.5171   -2.9696   -2.4613 H   0  0  0  0  0  0  0  0  0  0  0  0
    7.0834   -3.9102   -2.9522 H   0  0  0  0  0  0  0  0  0  0  0  0
    3.2307    0.5718   -4.9894 H   0  0  0  0  0  0  0  0  0  0  0  0
    1.9290    1.9911   -6.2877 H   0  0  0  0  0  0  0  0  0  0  0  0
   -0.4254    3.9022   -7.1916 H   0  0  0  0  0  0  0  0  0  0  0  0
   -1.1516    3.7453   -8.9315 H   0  0  0  0  0  0  0  0  0  0  0  0
   -4.8859    5.0582  -10.8572 H   0  0  0  0  0  0  0  0  0  0  0  0
   -5.8598    5.4400   -9.4257 H   0  0  0  0  0  0  0  0  0  0  0  0
   -5.9015    3.7878  -10.1611 H   0  0  0  0  0  0  0  0  0  0  0  0
   -5.1011    3.6974   -7.2004 H   0  0  0  0  0  0  0  0  0  0  0  0
   -0.0568    0.4519   -2.1663 H   0  0  0  0  0  0  0  0  0  0  0  0
    1.7096   -2.3037   -2.7041 H   0  0  0  0  0  0  0  0  0  0  0  0
  1  2  1  0  0  0  0
  1 38  1  0  0  0  0
  1 39  1  0  0  0  0
  1 40  1  0  0  0  0
  2  3  1  0  0  0  0
  3  4  1  0  0  0  0
  3 37  2  0  0  0  0
  4  5  2  0  0  0  0
  4 41  1  0  0  0  0
  5  6  1  0  0  0  0
  5  8  1  0  0  0  0
  6  7  1  0  0  0  0
  7 42  1  0  0  0  0
  7 43  1  0  0  0  0
  7 44  1  0  0  0  0
  8  9  2  0  0  0  0
  8 45  1  0  0  0  0
  9 10  1  0  0  0  0
  9 37  1  0  0  0  0
 10 11  1  0  0  0  0
 10 21  1  0  0  0  0
 11 46  1  0  0  0  0
 11 47  1  0  0  0  0
 12 17  1  0  0  0  0
 12 13  1  0  0  0  0
 12 11  1  0  0  0  0
 12 48  1  6  0  0  0
 13 14  1  0  0  0  0
 14 15  1  0  0  0  0
 14 16  2  0  0  0  0
 15 49  1  0  0  0  0
 15 50  1  0  0  0  0
 15 51  1  0  0  0  0
 17 18  1  0  0  0  0
 17 19  1  0  0  0  0
 17 20  1  0  0  0  0
 21 22  1  0  0  0  0
 21 36  2  0  0  0  0
 22 23  2  0  0  0  0
 22 52  1  0  0  0  0
 23 24  1  0  0  0  0
 23 53  1  0  0  0  0
 24 25  1  0  0  0  0
 24 35  2  0  0  0  0
 25 26  2  0  0  0  0
 26 27  1  0  0  0  0
 26 54  1  0  0  0  0
 27 28  1  0  0  0  0
 27 34  2  0  0  0  0
 28 29  1  0  0  0  0
 28 33  2  0  0  0  0
 29 30  2  0  0  0  0
 29 55  1  0  0  0  0
 30 31  1  0  0  0  0
 31 32  1  0  0  0  0
 31 33  1  0  0  0  0
 32 56  1  0  0  0  0
 32 57  1  0  0  0  0
 32 58  1  0  0  0  0
 33 59  1  0  0  0  0
 34 35  1  0  0  0  0
 35 36  1  0  0  0  0
 36 60  1  0  0  0  0
 37 61  1  0  0  0  0
M  END
$$$$
