CHEMBL3915450
 OpenBabel04072215373D

 65 69  0  0  0  0  0  0  0  0999 V2000
    0.6465   -3.1832   -2.9402 C   0  0  0  0  0  0  0  0  0  0  0  0
    1.9964   -3.6008   -2.7175 O   0  0  0  0  0  0  0  0  0  0  0  0
    2.8452   -2.6936   -2.1319 C   0  0  0  0  0  0  0  0  0  0  0  0
    2.4695   -1.4010   -1.7923 C   0  0  0  0  0  0  0  0  0  0  0  0
    3.3570   -0.5784   -1.1189 C   0  0  0  0  0  0  0  0  0  0  0  0
    3.1222    0.7329   -0.8019 O   0  0  0  0  0  0  0  0  0  0  0  0
    1.8561    1.2348   -1.2198 C   0  0  0  0  0  0  0  0  0  0  0  0
    4.6011   -1.0817   -0.7338 C   0  0  0  0  0  0  0  0  0  0  0  0
    5.0449   -2.3725   -1.0841 C   0  0  0  0  0  0  0  0  0  0  0  0
    6.3203   -2.8410   -0.6358 N   0  0  0  0  0  0  0  0  0  0  0  0
    6.6390   -2.4045    0.8036 C   0  0  0  0  0  0  0  0  0  0  0  0
    7.5884   -1.2393    0.8558 C   0  0  0  0  0  0  0  0  0  0  0  0
    8.1653   -0.5868   -0.1667 C   0  0  0  0  0  0  0  0  0  0  0  0
    9.2419    0.3779    0.0558 C   0  0  0  0  0  0  0  0  0  0  0  0
    9.7318    1.0149   -1.0152 N   0  0  0  0  0  0  0  0  0  0  0  0
   10.7407    1.8728   -0.7707 C   0  0  0  0  0  0  0  0  0  0  0  0
   11.2597    2.1138    0.4815 C   0  0  0  0  0  0  0  0  0  0  0  0
   10.6915    1.3917    1.5023 C   0  0  0  0  0  0  0  0  0  0  0  0
   11.1743    1.6006    2.7808 O   0  0  0  0  0  0  0  0  0  0  0  0
   10.5141    0.8046    3.7679 C   0  0  0  0  0  0  0  0  0  0  0  0
    9.6948    0.5180    1.3151 N   0  0  0  0  0  0  0  0  0  0  0  0
    7.2382   -3.7387   -1.2742 C   0  0  0  0  0  0  0  0  0  0  0  0
    7.7654   -4.7448   -0.4905 C   0  0  0  0  0  0  0  0  0  0  0  0
    8.8503   -5.4094   -1.0317 C   0  0  0  0  0  0  0  0  0  0  0  0
    9.4961   -5.0303   -2.1246 C   0  0  0  0  0  0  0  0  0  0  0  0
   10.7313   -4.9320   -1.7913 N   0  0  0  0  0  0  0  0  0  0  0  0
   11.4099   -5.9259   -2.3113 C   0  0  0  0  0  0  0  0  0  0  0  0
   11.4603   -6.1100   -3.6407 C   0  0  0  0  0  0  0  0  0  0  0  0
   12.8561   -7.0120   -3.9156 C   0  0  0  0  0  0  0  0  0  0  0  0
   13.2111   -8.2849   -4.5270 C   0  0  0  0  0  0  0  0  0  0  0  0
   14.4507   -8.7732   -4.2567 N   0  0  0  0  0  0  0  0  0  0  0  0
   15.0121   -7.8751   -3.4335 N   0  0  0  0  0  0  0  0  0  0  0  0
   16.4376   -8.0087   -3.0606 C   0  0  0  0  0  0  0  0  0  0  0  0
   14.0604   -6.8841   -3.1165 C   0  0  0  0  0  0  0  0  0  0  0  0
   10.2973   -5.3510   -4.2490 N   0  0  0  0  0  0  0  0  0  0  0  0
    9.1037   -4.5895   -3.3403 C   0  0  0  0  0  0  0  0  0  0  0  0
    7.7869   -3.7003   -2.6748 C   0  0  0  0  0  0  0  0  0  0  0  0
    4.1594   -3.1377   -1.8619 C   0  0  0  0  0  0  0  0  0  0  0  0
    0.0918   -4.0329   -3.3488 H   0  0  0  0  0  0  0  0  0  0  0  0
    0.6110   -2.3789   -3.6834 H   0  0  0  0  0  0  0  0  0  0  0  0
    0.1384   -2.8791   -2.0151 H   0  0  0  0  0  0  0  0  0  0  0  0
    1.4995   -1.0249   -2.0886 H   0  0  0  0  0  0  0  0  0  0  0  0
    1.7733    2.2773   -0.9055 H   0  0  0  0  0  0  0  0  0  0  0  0
    1.0467    0.6746   -0.7393 H   0  0  0  0  0  0  0  0  0  0  0  0
    1.7610    1.2024   -2.3116 H   0  0  0  0  0  0  0  0  0  0  0  0
    5.2589   -0.4071   -0.1994 H   0  0  0  0  0  0  0  0  0  0  0  0
    7.0912   -3.1934    1.4251 H   0  0  0  0  0  0  0  0  0  0  0  0
    5.7477   -2.1312    1.3991 H   0  0  0  0  0  0  0  0  0  0  0  0
    7.8432   -0.9140    1.8652 H   0  0  0  0  0  0  0  0  0  0  0  0
    7.8945   -0.7880   -1.1978 H   0  0  0  0  0  0  0  0  0  0  0  0
   11.1314    2.3814   -1.6471 H   0  0  0  0  0  0  0  0  0  0  0  0
   12.0532    2.8290    0.6407 H   0  0  0  0  0  0  0  0  0  0  0  0
   10.9720    1.0156    4.7400 H   0  0  0  0  0  0  0  0  0  0  0  0
   10.6414   -0.2666    3.5721 H   0  0  0  0  0  0  0  0  0  0  0  0
    9.4508    1.0616    3.8429 H   0  0  0  0  0  0  0  0  0  0  0  0
    7.5515   -4.9387    0.5348 H   0  0  0  0  0  0  0  0  0  0  0  0
    9.4039   -6.0767   -0.2836 H   0  0  0  0  0  0  0  0  0  0  0  0
   11.6792   -6.6750   -1.6292 H   0  0  0  0  0  0  0  0  0  0  0  0
   12.6322   -8.9457   -5.1570 H   0  0  0  0  0  0  0  0  0  0  0  0
   16.8924   -8.9224   -3.4841 H   0  0  0  0  0  0  0  0  0  0  0  0
   16.5892   -8.0545   -1.9735 H   0  0  0  0  0  0  0  0  0  0  0  0
   17.0073   -7.1630   -3.4651 H   0  0  0  0  0  0  0  0  0  0  0  0
   14.3601   -6.1831   -2.3487 H   0  0  0  0  0  0  0  0  0  0  0  0
    7.3523   -2.8654   -3.2623 H   0  0  0  0  0  0  0  0  0  0  0  0
    4.4548   -4.1024   -2.2607 H   0  0  0  0  0  0  0  0  0  0  0  0
  1  2  1  0  0  0  0
  1 39  1  0  0  0  0
  1 40  1  0  0  0  0
  1 41  1  0  0  0  0
  2  3  1  0  0  0  0
  3  4  1  0  0  0  0
  3 38  2  0  0  0  0
  4  5  2  0  0  0  0
  4 42  1  0  0  0  0
  5  6  1  0  0  0  0
  5  8  1  0  0  0  0
  6  7  1  0  0  0  0
  7 43  1  0  0  0  0
  7 44  1  0  0  0  0
  7 45  1  0  0  0  0
  8  9  2  0  0  0  0
  8 46  1  0  0  0  0
  9 10  1  0  0  0  0
  9 38  1  0  0  0  0
 10 11  1  0  0  0  0
 10 22  1  0  0  0  0
 11 12  1  0  0  0  0
 11 47  1  0  0  0  0
 11 48  1  0  0  0  0
 12 13  2  0  0  0  0
 12 49  1  0  0  0  0
 13 14  1  0  0  0  0
 13 50  1  0  0  0  0
 14 15  1  0  0  0  0
 14 21  2  0  0  0  0
 15 16  2  0  0  0  0
 16 17  1  0  0  0  0
 16 51  1  0  0  0  0
 17 18  2  0  0  0  0
 17 52  1  0  0  0  0
 18 19  1  0  0  0  0
 18 21  1  0  0  0  0
 19 20  1  0  0  0  0
 20 53  1  0  0  0  0
 20 54  1  0  0  0  0
 20 55  1  0  0  0  0
 22 23  1  0  0  0  0
 22 37  2  0  0  0  0
 23 24  2  0  0  0  0
 23 56  1  0  0  0  0
 24 25  1  0  0  0  0
 24 57  1  0  0  0  0
 25 26  1  0  0  0  0
 25 36  2  0  0  0  0
 26 27  2  0  0  0  0
 27 28  1  0  0  0  0
 27 58  1  0  0  0  0
 28 29  1  0  0  0  0
 28 35  2  0  0  0  0
 29 30  1  0  0  0  0
 29 34  2  0  0  0  0
 30 31  2  0  0  0  0
 30 59  1  0  0  0  0
 31 32  1  0  0  0  0
 32 33  1  0  0  0  0
 32 34  1  0  0  0  0
 33 60  1  0  0  0  0
 33 61  1  0  0  0  0
 33 62  1  0  0  0  0
 34 63  1  0  0  0  0
 35 36  1  0  0  0  0
 36 37  1  0  0  0  0
 37 64  1  0  0  0  0
 38 65  1  0  0  0  0
M  END
$$$$
