CHEMBL4519953
 OpenBabel04072215383D

 43 46  0  0  0  0  0  0  0  0999 V2000
   -1.6783   -2.9270    5.5192 C   0  0  0  0  0  0  0  0  0  0  0  0
   -2.2537   -2.2390    4.3180 C   0  0  0  0  0  0  0  0  0  0  0  0
   -2.9738   -2.9542    3.3564 C   0  0  0  0  0  0  0  0  0  0  0  0
   -3.5252   -2.2997    2.2503 C   0  0  0  0  0  0  0  0  0  0  0  0
   -3.3661   -0.9185    2.0884 C   0  0  0  0  0  0  0  0  0  0  0  0
   -3.9742   -0.2142    0.9766 C   0  0  0  0  0  0  0  0  0  0  0  0
   -5.1435   -0.5586    0.3349 C   0  0  0  0  0  0  0  0  0  0  0  0
   -5.3435    0.4602   -0.5500 N   0  0  0  0  0  0  0  0  0  0  0  0
   -6.5262    0.7164   -1.3518 C   0  0  0  0  0  0  0  0  0  0  0  0
   -6.4835    0.0161   -2.6858 C   0  0  0  0  0  0  0  0  0  0  0  0
   -7.4478   -0.9401   -3.0197 C   0  0  0  0  0  0  0  0  0  0  0  0
   -7.4265   -1.5660   -4.2720 C   0  0  0  0  0  0  0  0  0  0  0  0
   -6.4550   -1.2522   -5.2394 C   0  0  0  0  0  0  0  0  0  0  0  0
   -6.4456   -1.9140   -6.5627 C   0  0  0  0  0  0  0  0  0  0  0  0
   -7.6267   -2.3025   -7.2140 C   0  0  0  0  0  0  0  0  0  0  0  0
   -7.5842   -2.9429   -8.4527 C   0  0  0  0  0  0  0  0  0  0  0  0
   -6.3498   -3.1737   -9.0298 C   0  0  0  0  0  0  0  0  0  0  0  0
   -5.1840   -2.8159   -8.4577 N   0  0  0  0  0  0  0  0  0  0  0  0
   -5.2619   -2.2044   -7.2478 C   0  0  0  0  0  0  0  0  0  0  0  0
   -5.4976   -0.2842   -4.8902 C   0  0  0  0  0  0  0  0  0  0  0  0
   -5.5079    0.3382   -3.6359 C   0  0  0  0  0  0  0  0  0  0  0  0
   -4.3504    1.3673   -0.4865 N   0  0  0  0  0  0  0  0  0  0  0  0
   -3.5044    0.9637    0.4534 N   0  0  0  0  0  0  0  0  0  0  0  0
   -2.6270   -0.2061    3.0409 C   0  0  0  0  0  0  0  0  0  0  0  0
   -2.0808   -0.8595    4.1504 C   0  0  0  0  0  0  0  0  0  0  0  0
   -1.8608   -4.0062    5.4868 H   0  0  0  0  0  0  0  0  0  0  0  0
   -2.1376   -2.5359    6.4325 H   0  0  0  0  0  0  0  0  0  0  0  0
   -0.5960   -2.7717    5.5631 H   0  0  0  0  0  0  0  0  0  0  0  0
   -3.1145   -4.0281    3.4606 H   0  0  0  0  0  0  0  0  0  0  0  0
   -4.0730   -2.8859    1.5180 H   0  0  0  0  0  0  0  0  0  0  0  0
   -5.8429   -1.3708    0.4593 H   0  0  0  0  0  0  0  0  0  0  0  0
   -6.6239    1.7987   -1.4917 H   0  0  0  0  0  0  0  0  0  0  0  0
   -7.3877    0.3856   -0.7588 H   0  0  0  0  0  0  0  0  0  0  0  0
   -8.2312   -1.2110   -2.3146 H   0  0  0  0  0  0  0  0  0  0  0  0
   -8.1857   -2.3182   -4.4777 H   0  0  0  0  0  0  0  0  0  0  0  0
   -8.5984   -2.1025   -6.7698 H   0  0  0  0  0  0  0  0  0  0  0  0
   -8.4954   -3.2503   -8.9532 H   0  0  0  0  0  0  0  0  0  0  0  0
   -6.2635   -3.6661   -9.9938 H   0  0  0  0  0  0  0  0  0  0  0  0
   -4.2906   -1.9575   -6.8261 H   0  0  0  0  0  0  0  0  0  0  0  0
   -4.7281    0.0183   -5.5984 H   0  0  0  0  0  0  0  0  0  0  0  0
   -4.7447    1.0835   -3.4117 H   0  0  0  0  0  0  0  0  0  0  0  0
   -2.4865    0.8679    2.9369 H   0  0  0  0  0  0  0  0  0  0  0  0
   -1.5251   -0.2816    4.8859 H   0  0  0  0  0  0  0  0  0  0  0  0
  1  2  1  0  0  0  0
  1 26  1  0  0  0  0
  1 27  1  0  0  0  0
  1 28  1  0  0  0  0
  2  3  1  0  0  0  0
  2 25  2  0  0  0  0
  3  4  2  0  0  0  0
  3 29  1  0  0  0  0
  4  5  1  0  0  0  0
  4 30  1  0  0  0  0
  5  6  1  0  0  0  0
  5 24  2  0  0  0  0
  6  7  2  0  0  0  0
  6 23  1  0  0  0  0
  7  8  1  0  0  0  0
  7 31  1  0  0  0  0
  8  9  1  0  0  0  0
  8 22  1  0  0  0  0
  9 10  1  0  0  0  0
  9 32  1  0  0  0  0
  9 33  1  0  0  0  0
 10 11  1  0  0  0  0
 10 21  2  0  0  0  0
 11 12  2  0  0  0  0
 11 34  1  0  0  0  0
 12 13  1  0  0  0  0
 12 35  1  0  0  0  0
 13 14  1  0  0  0  0
 13 20  2  0  0  0  0
 14 15  1  0  0  0  0
 14 19  2  0  0  0  0
 15 16  2  0  0  0  0
 15 36  1  0  0  0  0
 16 17  1  0  0  0  0
 16 37  1  0  0  0  0
 17 18  2  0  0  0  0
 17 38  1  0  0  0  0
 18 19  1  0  0  0  0
 19 39  1  0  0  0  0
 20 21  1  0  0  0  0
 20 40  1  0  0  0  0
 21 41  1  0  0  0  0
 22 23  2  0  0  0  0
 24 25  1  0  0  0  0
 24 42  1  0  0  0  0
 25 43  1  0  0  0  0
M  END
$$$$
