CHEMBL4556134
 OpenBabel04072215383D

 40 43  0  0  0  0  0  0  0  0999 V2000
    0.9395   -1.4477   -1.5225 C   0  0  0  0  0  0  0  0  0  0  0  0
   -0.1112   -2.3024   -1.1994 C   0  0  0  0  0  0  0  0  0  0  0  0
   -1.3675   -1.7783   -0.8805 C   0  0  0  0  0  0  0  0  0  0  0  0
   -1.5897   -0.3923   -0.8797 C   0  0  0  0  0  0  0  0  0  0  0  0
   -2.8824    0.1764   -0.5317 C   0  0  0  0  0  0  0  0  0  0  0  0
   -4.0227   -0.5109   -0.1834 C   0  0  0  0  0  0  0  0  0  0  0  0
   -4.9242    0.4697    0.1124 N   0  0  0  0  0  0  0  0  0  0  0  0
   -6.2952    0.3112    0.5680 C   0  0  0  0  0  0  0  0  0  0  0  0
   -6.3506   -0.3648    1.9171 C   0  0  0  0  0  0  0  0  0  0  0  0
   -6.2146    0.3804    3.0923 C   0  0  0  0  0  0  0  0  0  0  0  0
   -6.1899   -0.2555    4.3400 C   0  0  0  0  0  0  0  0  0  0  0  0
   -6.2993   -1.6527    4.4602 C   0  0  0  0  0  0  0  0  0  0  0  0
   -6.2352   -2.3246    5.7774 C   0  0  0  0  0  0  0  0  0  0  0  0
   -6.7385   -1.7382    6.9483 C   0  0  0  0  0  0  0  0  0  0  0  0
   -6.6500   -2.3992    8.1745 C   0  0  0  0  0  0  0  0  0  0  0  0
   -6.0631   -3.6504    8.2065 C   0  0  0  0  0  0  0  0  0  0  0  0
   -5.5638   -4.2639    7.1167 N   0  0  0  0  0  0  0  0  0  0  0  0
   -5.6563   -3.5873    5.9435 C   0  0  0  0  0  0  0  0  0  0  0  0
   -6.4560   -2.3837    3.2688 C   0  0  0  0  0  0  0  0  0  0  0  0
   -6.4786   -1.7545    2.0183 C   0  0  0  0  0  0  0  0  0  0  0  0
   -4.4077    1.6915   -0.1009 N   0  0  0  0  0  0  0  0  0  0  0  0
   -3.1487    1.5239   -0.4879 N   0  0  0  0  0  0  0  0  0  0  0  0
   -0.5215    0.4539   -1.2097 C   0  0  0  0  0  0  0  0  0  0  0  0
    0.7350   -0.0701   -1.5286 C   0  0  0  0  0  0  0  0  0  0  0  0
    1.9171   -1.8550   -1.7668 H   0  0  0  0  0  0  0  0  0  0  0  0
    0.0456   -3.3780   -1.1911 H   0  0  0  0  0  0  0  0  0  0  0  0
   -2.1624   -2.4743   -0.6280 H   0  0  0  0  0  0  0  0  0  0  0  0
   -4.2539   -1.5606   -0.0876 H   0  0  0  0  0  0  0  0  0  0  0  0
   -6.8265   -0.2734   -0.1916 H   0  0  0  0  0  0  0  0  0  0  0  0
   -6.7668    1.2999    0.6110 H   0  0  0  0  0  0  0  0  0  0  0  0
   -6.1035    1.4631    3.0492 H   0  0  0  0  0  0  0  0  0  0  0  0
   -6.0526    0.3662    5.2228 H   0  0  0  0  0  0  0  0  0  0  0  0
   -7.2154   -0.7617    6.9214 H   0  0  0  0  0  0  0  0  0  0  0  0
   -7.0338   -1.9459    9.0816 H   0  0  0  0  0  0  0  0  0  0  0  0
   -5.9761   -4.2072    9.1350 H   0  0  0  0  0  0  0  0  0  0  0  0
   -5.2144   -4.1198    5.1050 H   0  0  0  0  0  0  0  0  0  0  0  0
   -6.5639   -3.4666    3.2941 H   0  0  0  0  0  0  0  0  0  0  0  0
   -6.5811   -2.3683    1.1254 H   0  0  0  0  0  0  0  0  0  0  0  0
   -0.6580    1.5341   -1.2161 H   0  0  0  0  0  0  0  0  0  0  0  0
    1.5534    0.6004   -1.7781 H   0  0  0  0  0  0  0  0  0  0  0  0
  1  2  1  0  0  0  0
  1 24  2  0  0  0  0
  1 25  1  0  0  0  0
  2  3  2  0  0  0  0
  2 26  1  0  0  0  0
  3  4  1  0  0  0  0
  3 27  1  0  0  0  0
  4  5  1  0  0  0  0
  4 23  2  0  0  0  0
  5  6  2  0  0  0  0
  5 22  1  0  0  0  0
  6  7  1  0  0  0  0
  6 28  1  0  0  0  0
  7  8  1  0  0  0  0
  7 21  1  0  0  0  0
  8  9  1  0  0  0  0
  8 29  1  0  0  0  0
  8 30  1  0  0  0  0
  9 10  1  0  0  0  0
  9 20  2  0  0  0  0
 10 11  2  0  0  0  0
 10 31  1  0  0  0  0
 11 12  1  0  0  0  0
 11 32  1  0  0  0  0
 12 13  1  0  0  0  0
 12 19  2  0  0  0  0
 13 14  1  0  0  0  0
 13 18  2  0  0  0  0
 14 15  2  0  0  0  0
 14 33  1  0  0  0  0
 15 16  1  0  0  0  0
 15 34  1  0  0  0  0
 16 17  2  0  0  0  0
 16 35  1  0  0  0  0
 17 18  1  0  0  0  0
 18 36  1  0  0  0  0
 19 20  1  0  0  0  0
 19 37  1  0  0  0  0
 20 38  1  0  0  0  0
 21 22  2  0  0  0  0
 23 24  1  0  0  0  0
 23 39  1  0  0  0  0
 24 40  1  0  0  0  0
M  END
$$$$
