CHEMBL3941740
 OpenBabel04072215373D

 69 73  0  0  0  0  0  0  0  0999 V2000
    1.0101   -0.5317    0.1088 O   0  0  0  0  0  0  0  0  0  0  0  0
    2.2298   -0.5487   -0.0433 C   0  0  0  0  0  0  0  0  0  0  0  0
    2.8868   -1.1795   -1.0748 N   0  0  0  0  0  0  0  0  0  0  0  0
    2.2054   -1.9490   -2.0435 C   0  0  0  0  0  0  0  0  0  0  0  0
    2.6865   -3.2375   -2.3079 C   0  0  0  0  0  0  0  0  0  0  0  0
    1.9739   -4.1294   -3.1200 C   0  0  0  0  0  0  0  0  0  0  0  0
    2.4470   -5.4478   -3.2098 N   0  0  0  0  0  0  0  0  0  0  0  0
    1.5374   -6.5519   -3.5725 C   0  0  0  0  0  0  0  0  0  0  0  0
    0.5093   -6.8355   -2.4712 C   0  0  0  0  0  0  0  0  0  0  0  0
    1.1245   -7.5226   -1.2528 C   0  0  0  0  0  0  0  0  0  0  0  0
    1.8285   -8.7602   -1.5856 N   0  0  0  0  0  0  0  0  0  0  0  0
    2.8345   -8.5596   -2.6249 C   0  0  0  0  0  0  0  0  0  0  0  0
    2.3187   -7.8391   -3.8705 C   0  0  0  0  0  0  0  0  0  0  0  0
    0.8635   -3.6334   -3.8112 C   0  0  0  0  0  0  0  0  0  0  0  0
    0.4069   -2.3129   -3.6225 C   0  0  0  0  0  0  0  0  0  0  0  0
   -0.7866   -1.7907   -4.3834 C   0  0  0  0  0  0  0  0  0  0  0  0
   -1.3252   -2.7038   -5.2421 F   0  0  0  0  0  0  0  0  0  0  0  0
   -1.8066   -1.4038   -3.5701 F   0  0  0  0  0  0  0  0  0  0  0  0
   -0.4840   -0.7040   -5.1483 F   0  0  0  0  0  0  0  0  0  0  0  0
    1.0684   -1.4851   -2.7028 C   0  0  0  0  0  0  0  0  0  0  0  0
    3.0211   -0.0377    0.9563 N   0  0  0  0  0  0  0  0  0  0  0  0
    4.3905    0.2779    0.9989 C   0  0  0  0  0  0  0  0  0  0  0  0
    5.1538    0.5215   -0.1456 C   0  0  0  0  0  0  0  0  0  0  0  0
    6.5237    0.7843   -0.0434 C   0  0  0  0  0  0  0  0  0  0  0  0
    7.1516    0.7736    1.2053 C   0  0  0  0  0  0  0  0  0  0  0  0
    8.5125    0.9439    1.3641 O   0  0  0  0  0  0  0  0  0  0  0  0
    9.3649    0.3539    0.4487 C   0  0  0  0  0  0  0  0  0  0  0  0
    9.1006   -0.8685   -0.1633 C   0  0  0  0  0  0  0  0  0  0  0  0
    9.9909   -1.3129   -1.1134 C   0  0  0  0  0  0  0  0  0  0  0  0
   11.1176   -0.6552   -1.4326 N   0  0  0  0  0  0  0  0  0  0  0  0
   11.4109    0.4863   -0.7885 C   0  0  0  0  0  0  0  0  0  0  0  0
   12.6104    1.1532   -1.0829 N   0  0  0  0  0  0  0  0  0  0  0  0
   13.5064    0.7335   -2.0435 C   0  0  0  0  0  0  0  0  0  0  0  0
   13.4094   -0.2235   -2.7998 O   0  0  0  0  0  0  0  0  0  0  0  0
   14.7438    1.5772   -2.1232 C   0  0  0  0  0  0  0  0  0  0  0  0
   15.7198    1.3825   -3.2666 C   0  0  0  0  0  0  0  0  0  0  0  0
   16.0895    0.9281   -1.8855 C   0  0  0  0  0  0  0  0  0  0  0  0
   10.5592    1.0250    0.1673 C   0  0  0  0  0  0  0  0  0  0  0  0
    6.3731    0.6238    2.3508 C   0  0  0  0  0  0  0  0  0  0  0  0
    6.9369    0.6805    3.5656 F   0  0  0  0  0  0  0  0  0  0  0  0
    4.9975    0.3905    2.2544 C   0  0  0  0  0  0  0  0  0  0  0  0
    3.7817   -1.5488   -0.7871 H   0  0  0  0  0  0  0  0  0  0  0  0
    3.5700   -3.6011   -1.7891 H   0  0  0  0  0  0  0  0  0  0  0  0
    3.3104   -5.4591   -3.7519 H   0  0  0  0  0  0  0  0  0  0  0  0
    1.0161   -6.2880   -4.4992 H   0  0  0  0  0  0  0  0  0  0  0  0
   -0.2700   -7.4892   -2.8853 H   0  0  0  0  0  0  0  0  0  0  0  0
    0.0025   -5.9190   -2.1495 H   0  0  0  0  0  0  0  0  0  0  0  0
    0.3215   -7.7713   -0.5485 H   0  0  0  0  0  0  0  0  0  0  0  0
    1.7967   -6.8393   -0.7218 H   0  0  0  0  0  0  0  0  0  0  0  0
    1.1631   -9.4785   -1.8652 H   0  0  0  0  0  0  0  0  0  0  0  0
    3.2029   -9.5483   -2.9271 H   0  0  0  0  0  0  0  0  0  0  0  0
    3.6979   -8.0293   -2.2086 H   0  0  0  0  0  0  0  0  0  0  0  0
    1.6486   -8.5238   -4.4079 H   0  0  0  0  0  0  0  0  0  0  0  0
    3.1584   -7.6334   -4.5450 H   0  0  0  0  0  0  0  0  0  0  0  0
    0.3253   -4.2661   -4.5119 H   0  0  0  0  0  0  0  0  0  0  0  0
    0.6974   -0.4773   -2.5185 H   0  0  0  0  0  0  0  0  0  0  0  0
    2.4862    0.0925    1.8082 H   0  0  0  0  0  0  0  0  0  0  0  0
    4.7016    0.5512   -1.1337 H   0  0  0  0  0  0  0  0  0  0  0  0
    7.0896    0.9772   -0.9521 H   0  0  0  0  0  0  0  0  0  0  0  0
    8.2180   -1.4549    0.0586 H   0  0  0  0  0  0  0  0  0  0  0  0
    9.8220   -2.2303   -1.6689 H   0  0  0  0  0  0  0  0  0  0  0  0
   12.8305    1.9768   -0.5468 H   0  0  0  0  0  0  0  0  0  0  0  0
   14.6292    2.6005   -1.7804 H   0  0  0  0  0  0  0  0  0  0  0  0
   16.2181    2.2549   -3.6705 H   0  0  0  0  0  0  0  0  0  0  0  0
   15.5014    0.6194   -4.0084 H   0  0  0  0  0  0  0  0  0  0  0  0
   16.8459    1.4906   -1.3530 H   0  0  0  0  0  0  0  0  0  0  0  0
   16.1180   -0.1419   -1.7038 H   0  0  0  0  0  0  0  0  0  0  0  0
   10.7912    1.9496    0.6828 H   0  0  0  0  0  0  0  0  0  0  0  0
    4.4322    0.2594    3.1720 H   0  0  0  0  0  0  0  0  0  0  0  0
  1  2  2  0  0  0  0
  2  3  1  0  0  0  0
  2 21  1  0  0  0  0
  3  4  1  0  0  0  0
  3 42  1  0  0  0  0
  4  5  1  0  0  0  0
  4 20  2  0  0  0  0
  5  6  2  0  0  0  0
  5 43  1  0  0  0  0
  6  7  1  0  0  0  0
  6 14  1  0  0  0  0
  7  8  1  0  0  0  0
  7 44  1  0  0  0  0
  8  9  1  0  0  0  0
  8 13  1  0  0  0  0
  8 45  1  0  0  0  0
  9 10  1  0  0  0  0
  9 46  1  0  0  0  0
  9 47  1  0  0  0  0
 10 11  1  0  0  0  0
 10 48  1  0  0  0  0
 10 49  1  0  0  0  0
 11 12  1  0  0  0  0
 11 50  1  0  0  0  0
 12 13  1  0  0  0  0
 12 51  1  0  0  0  0
 12 52  1  0  0  0  0
 13 53  1  0  0  0  0
 13 54  1  0  0  0  0
 14 15  2  0  0  0  0
 14 55  1  0  0  0  0
 15 16  1  0  0  0  0
 15 20  1  0  0  0  0
 16 17  1  0  0  0  0
 16 18  1  0  0  0  0
 16 19  1  0  0  0  0
 20 56  1  0  0  0  0
 21 22  1  0  0  0  0
 21 57  1  0  0  0  0
 22 23  1  0  0  0  0
 22 41  2  0  0  0  0
 23 24  2  0  0  0  0
 23 58  1  0  0  0  0
 24 25  1  0  0  0  0
 24 59  1  0  0  0  0
 25 26  1  0  0  0  0
 25 39  2  0  0  0  0
 26 27  1  0  0  0  0
 27 28  1  0  0  0  0
 27 38  2  0  0  0  0
 28 29  2  0  0  0  0
 28 60  1  0  0  0  0
 29 30  1  0  0  0  0
 29 61  1  0  0  0  0
 30 31  2  0  0  0  0
 31 32  1  0  0  0  0
 31 38  1  0  0  0  0
 32 33  1  0  0  0  0
 32 62  1  0  0  0  0
 33 34  2  0  0  0  0
 33 35  1  0  0  0  0
 35 36  1  0  0  0  0
 35 37  1  0  0  0  0
 35 63  1  0  0  0  0
 36 37  1  0  0  0  0
 36 64  1  0  0  0  0
 36 65  1  0  0  0  0
 37 66  1  0  0  0  0
 37 67  1  0  0  0  0
 38 68  1  0  0  0  0
 39 40  1  0  0  0  0
 39 41  1  0  0  0  0
 41 69  1  0  0  0  0
M  END
$$$$
