CHEMBL203796
 OpenBabel04072215363D

 47 50  0  0  0  0  0  0  0  0999 V2000
    0.3970   -2.8414   -6.5831 C   0  0  0  0  0  0  0  0  0  0  0  0
    1.7495   -3.1272   -6.2462 O   0  0  0  0  0  0  0  0  0  0  0  0
    2.5186   -2.0633   -5.8533 C   0  0  0  0  0  0  0  0  0  0  0  0
    2.0952   -0.7365   -5.7861 C   0  0  0  0  0  0  0  0  0  0  0  0
    2.9737    0.2535   -5.3570 C   0  0  0  0  0  0  0  0  0  0  0  0
    4.2777   -0.0785   -4.9859 C   0  0  0  0  0  0  0  0  0  0  0  0
    4.7266   -1.4056   -5.0426 C   0  0  0  0  0  0  0  0  0  0  0  0
    6.0135   -1.7867   -4.6248 N   0  0  0  0  0  0  0  0  0  0  0  0
    7.0841   -0.9830   -4.5126 C   0  0  0  0  0  0  0  0  0  0  0  0
    8.1216   -1.0743   -3.7170 N   0  0  0  0  0  0  0  0  0  0  0  0
    8.9734   -0.0386   -4.0638 N   0  0  0  0  0  0  0  0  0  0  0  0
    8.4228    0.5634   -5.1016 C   0  0  0  0  0  0  0  0  0  0  0  0
    9.0350    1.6195   -5.8328 C   0  0  0  0  0  0  0  0  0  0  0  0
    8.9138    1.9769   -7.1518 C   0  0  0  0  0  0  0  0  0  0  0  0
    8.1089    1.4113   -8.0737 N   0  0  0  0  0  0  0  0  0  0  0  0
    8.4770    1.3899   -9.4754 C   0  0  0  0  0  0  0  0  0  0  0  0
    7.4257    2.0825  -10.3003 C   0  0  0  0  0  0  0  0  0  0  0  0
    7.1489    3.4378  -10.0943 C   0  0  0  0  0  0  0  0  0  0  0  0
    6.1900    4.0493  -10.8838 C   0  0  0  0  0  0  0  0  0  0  0  0
    5.4991    3.4137  -11.8548 N   0  0  0  0  0  0  0  0  0  0  0  0
    5.7839    2.1074  -12.0412 C   0  0  0  0  0  0  0  0  0  0  0  0
    6.7259    1.4070  -11.3033 C   0  0  0  0  0  0  0  0  0  0  0  0
    9.7415    3.0162   -7.4688 N   0  0  0  0  0  0  0  0  0  0  0  0
   10.3535    3.3174   -6.3439 C   0  0  0  0  0  0  0  0  0  0  0  0
    9.9597    2.5009   -5.3243 N   0  0  0  0  0  0  0  0  0  0  0  0
   10.4318    2.5758   -3.9631 C   0  0  0  0  0  0  0  0  0  0  0  0
    7.2187    0.0147   -5.4340 O   0  0  0  0  0  0  0  0  0  0  0  0
    3.8276   -2.3875   -5.4833 C   0  0  0  0  0  0  0  0  0  0  0  0
   -0.1101   -3.7919   -6.7705 H   0  0  0  0  0  0  0  0  0  0  0  0
    0.3420   -2.2424   -7.4985 H   0  0  0  0  0  0  0  0  0  0  0  0
   -0.1262   -2.3481   -5.7567 H   0  0  0  0  0  0  0  0  0  0  0  0
    1.0873   -0.4410   -6.0501 H   0  0  0  0  0  0  0  0  0  0  0  0
    2.6413    1.2862   -5.2973 H   0  0  0  0  0  0  0  0  0  0  0  0
    4.9209    0.7188   -4.6238 H   0  0  0  0  0  0  0  0  0  0  0  0
    6.2062   -2.7791   -4.6521 H   0  0  0  0  0  0  0  0  0  0  0  0
    7.4169    0.7211   -7.8063 H   0  0  0  0  0  0  0  0  0  0  0  0
    8.5648    0.3402   -9.7872 H   0  0  0  0  0  0  0  0  0  0  0  0
    9.4555    1.8440   -9.6767 H   0  0  0  0  0  0  0  0  0  0  0  0
    7.6733    4.0006   -9.3270 H   0  0  0  0  0  0  0  0  0  0  0  0
    5.9478    5.0994  -10.7517 H   0  0  0  0  0  0  0  0  0  0  0  0
    5.2174    1.6197  -12.8290 H   0  0  0  0  0  0  0  0  0  0  0  0
    6.9069    0.3588  -11.5143 H   0  0  0  0  0  0  0  0  0  0  0  0
   11.0825    4.1047   -6.2175 H   0  0  0  0  0  0  0  0  0  0  0  0
   11.1589    3.3863   -3.8748 H   0  0  0  0  0  0  0  0  0  0  0  0
   10.9147    1.6301   -3.7044 H   0  0  0  0  0  0  0  0  0  0  0  0
    9.5809    2.7729   -3.3071 H   0  0  0  0  0  0  0  0  0  0  0  0
    4.1395   -3.4277   -5.5342 H   0  0  0  0  0  0  0  0  0  0  0  0
  1  2  1  0  0  0  0
  1 29  1  0  0  0  0
  1 30  1  0  0  0  0
  1 31  1  0  0  0  0
  2  3  1  0  0  0  0
  3  4  1  0  0  0  0
  3 28  2  0  0  0  0
  4  5  2  0  0  0  0
  4 32  1  0  0  0  0
  5  6  1  0  0  0  0
  5 33  1  0  0  0  0
  6  7  2  0  0  0  0
  6 34  1  0  0  0  0
  7  8  1  0  0  0  0
  7 28  1  0  0  0  0
  8  9  1  0  0  0  0
  8 35  1  0  0  0  0
  9 10  2  0  0  0  0
  9 27  1  0  0  0  0
 10 11  1  0  0  0  0
 11 12  2  0  0  0  0
 12 13  1  0  0  0  0
 12 27  1  0  0  0  0
 13 14  2  0  0  0  0
 13 25  1  0  0  0  0
 14 15  1  0  0  0  0
 14 23  1  0  0  0  0
 15 16  1  0  0  0  0
 15 36  1  0  0  0  0
 16 17  1  0  0  0  0
 16 37  1  0  0  0  0
 16 38  1  0  0  0  0
 17 18  1  0  0  0  0
 17 22  2  0  0  0  0
 18 19  2  0  0  0  0
 18 39  1  0  0  0  0
 19 20  1  0  0  0  0
 19 40  1  0  0  0  0
 20 21  2  0  0  0  0
 21 22  1  0  0  0  0
 21 41  1  0  0  0  0
 22 42  1  0  0  0  0
 23 24  2  0  0  0  0
 24 25  1  0  0  0  0
 24 43  1  0  0  0  0
 25 26  1  0  0  0  0
 26 44  1  0  0  0  0
 26 45  1  0  0  0  0
 26 46  1  0  0  0  0
 28 47  1  0  0  0  0
M  END
$$$$
