CHEMBL2029375
 OpenBabel04072215363D

 70 74  0  0  1  0  0  0  0  0999 V2000
    1.4914    1.6078   -1.5149 C   0  0  0  0  0  0  0  0  0  0  0  0
    2.7756    0.9737   -1.0033 C   0  0  0  0  0  0  0  0  0  0  0  0
    3.2304   -0.2051   -1.8709 C   0  0  2  0  0  0  0  0  0  0  0  0
    2.2014   -1.1940   -1.9111 O   0  0  0  0  0  0  0  0  0  0  0  0
    4.5446   -0.7868   -1.3100 C   0  0  0  0  0  0  0  0  0  0  0  0
    5.1451   -1.8347   -2.1604 N   0  0  0  0  0  0  0  0  0  0  0  0
    4.8023   -3.1949   -2.0923 C   0  0  0  0  0  0  0  0  0  0  0  0
    4.4321   -3.8850   -0.8177 C   0  0  0  0  0  0  0  0  0  0  0  0
    4.8578   -3.7868   -3.3022 C   0  0  0  0  0  0  0  0  0  0  0  0
    4.8946   -5.2330   -3.5771 C   0  0  0  0  0  0  0  0  0  0  0  0
    4.2149   -6.0120   -2.9034 O   0  0  0  0  0  0  0  0  0  0  0  0
    5.7010   -5.7606   -4.5601 N   0  0  0  0  0  0  0  0  0  0  0  0
    6.6472   -5.1742   -5.4282 C   0  0  0  0  0  0  0  0  0  0  0  0
    7.3337   -3.9892   -5.1604 C   0  0  0  0  0  0  0  0  0  0  0  0
    7.9725   -3.2883   -6.1931 C   0  0  0  0  0  0  0  0  0  0  0  0
    8.0386   -3.8325   -7.4751 C   0  0  0  0  0  0  0  0  0  0  0  0
    8.5921   -3.0330   -8.4484 O   0  0  0  0  0  0  0  0  0  0  0  0
    8.1267   -3.0879   -9.7524 C   0  0  0  0  0  0  0  0  0  0  0  0
    6.8228   -3.4468  -10.0881 C   0  0  0  0  0  0  0  0  0  0  0  0
    6.5018   -3.5481  -11.4257 C   0  0  0  0  0  0  0  0  0  0  0  0
    7.3525   -3.2410  -12.4264 N   0  0  0  0  0  0  0  0  0  0  0  0
    8.5752   -2.7954  -12.1051 C   0  0  0  0  0  0  0  0  0  0  0  0
    9.4335   -2.4227  -13.1288 C   0  0  0  0  0  0  0  0  0  0  0  0
   10.7122   -1.9186  -12.8852 C   0  0  0  0  0  0  0  0  0  0  0  0
   11.4116   -1.5764  -14.0085 O   0  0  0  0  0  0  0  0  0  0  0  0
   12.6897   -0.9840  -13.8210 C   0  0  0  0  0  0  0  0  0  0  0  0
   11.1583   -1.8059  -11.5729 C   0  0  0  0  0  0  0  0  0  0  0  0
   10.3245   -2.1992  -10.5234 C   0  0  0  0  0  0  0  0  0  0  0  0
    9.0263   -2.6941  -10.7692 C   0  0  0  0  0  0  0  0  0  0  0  0
    7.5912   -5.1410   -7.6546 C   0  0  0  0  0  0  0  0  0  0  0  0
    7.7752   -5.7804   -8.8188 F   0  0  0  0  0  0  0  0  0  0  0  0
    6.8737   -5.8009   -6.6543 C   0  0  0  0  0  0  0  0  0  0  0  0
    4.8829   -2.6648   -4.2769 C   0  0  0  0  0  0  0  0  0  0  0  0
    4.6895   -2.7820   -5.4768 O   0  0  0  0  0  0  0  0  0  0  0  0
    5.2471   -1.5327   -3.5404 N   0  0  0  0  0  0  0  0  0  0  0  0
    5.9648   -0.4223   -4.0405 C   0  0  0  0  0  0  0  0  0  0  0  0
    5.7085    0.0595   -5.3290 C   0  0  0  0  0  0  0  0  0  0  0  0
    6.3695    1.1914   -5.8130 C   0  0  0  0  0  0  0  0  0  0  0  0
    7.3182    1.8381   -5.0251 C   0  0  0  0  0  0  0  0  0  0  0  0
    7.6166    1.3456   -3.7577 C   0  0  0  0  0  0  0  0  0  0  0  0
    6.9435    0.2220   -3.2693 C   0  0  0  0  0  0  0  0  0  0  0  0
    1.1805    2.4147   -0.8451 H   0  0  0  0  0  0  0  0  0  0  0  0
    0.6773    0.8785   -1.5634 H   0  0  0  0  0  0  0  0  0  0  0  0
    1.6369    2.0316   -2.5134 H   0  0  0  0  0  0  0  0  0  0  0  0
    2.6077    0.6331    0.0253 H   0  0  0  0  0  0  0  0  0  0  0  0
    3.5623    1.7377   -0.9725 H   0  0  0  0  0  0  0  0  0  0  0  0
    3.3700    0.1506   -2.8966 H   0  0  0  0  0  0  0  0  0  0  0  0
    2.0910   -1.5622   -1.0191 H   0  0  0  0  0  0  0  0  0  0  0  0
    4.3718   -1.1771   -0.3023 H   0  0  0  0  0  0  0  0  0  0  0  0
    5.2706    0.0225   -1.1794 H   0  0  0  0  0  0  0  0  0  0  0  0
    4.4772   -3.2259    0.0526 H   0  0  0  0  0  0  0  0  0  0  0  0
    5.0794   -4.7417   -0.6117 H   0  0  0  0  0  0  0  0  0  0  0  0
    3.3946   -4.2364   -0.8864 H   0  0  0  0  0  0  0  0  0  0  0  0
    5.4533   -6.7264   -4.7490 H   0  0  0  0  0  0  0  0  0  0  0  0
    7.3392   -3.5469   -4.1690 H   0  0  0  0  0  0  0  0  0  0  0  0
    8.3695   -2.2950   -5.9975 H   0  0  0  0  0  0  0  0  0  0  0  0
    6.0686   -3.6770   -9.3444 H   0  0  0  0  0  0  0  0  0  0  0  0
    5.5209   -3.8938  -11.7403 H   0  0  0  0  0  0  0  0  0  0  0  0
    9.0819   -2.5098  -14.1555 H   0  0  0  0  0  0  0  0  0  0  0  0
   13.1012   -0.7599  -14.8100 H   0  0  0  0  0  0  0  0  0  0  0  0
   13.3765   -1.6767  -13.3243 H   0  0  0  0  0  0  0  0  0  0  0  0
   12.6112   -0.0402  -13.2713 H   0  0  0  0  0  0  0  0  0  0  0  0
   12.1418   -1.4169  -11.3316 H   0  0  0  0  0  0  0  0  0  0  0  0
   10.6857   -2.0976   -9.5018 H   0  0  0  0  0  0  0  0  0  0  0  0
    6.4404   -6.7677   -6.8895 H   0  0  0  0  0  0  0  0  0  0  0  0
    4.9591   -0.4124   -5.9607 H   0  0  0  0  0  0  0  0  0  0  0  0
    6.1331    1.5703   -6.8043 H   0  0  0  0  0  0  0  0  0  0  0  0
    7.8280    2.7209   -5.4027 H   0  0  0  0  0  0  0  0  0  0  0  0
    8.3758    1.8322   -3.1504 H   0  0  0  0  0  0  0  0  0  0  0  0
    7.2254   -0.1666   -2.2946 H   0  0  0  0  0  0  0  0  0  0  0  0
  1  2  1  0  0  0  0
  1 42  1  0  0  0  0
  1 43  1  0  0  0  0
  1 44  1  0  0  0  0
  2 45  1  0  0  0  0
  2 46  1  0  0  0  0
  3  5  1  0  0  0  0
  3  4  1  0  0  0  0
  3  2  1  0  0  0  0
  3 47  1  6  0  0  0
  4 48  1  0  0  0  0
  5  6  1  0  0  0  0
  5 49  1  0  0  0  0
  5 50  1  0  0  0  0
  6  7  1  0  0  0  0
  6 35  1  0  0  0  0
  7  8  1  0  0  0  0
  7  9  2  0  0  0  0
  8 51  1  0  0  0  0
  8 52  1  0  0  0  0
  8 53  1  0  0  0  0
  9 10  1  0  0  0  0
  9 33  1  0  0  0  0
 10 11  2  0  0  0  0
 10 12  1  0  0  0  0
 12 13  1  0  0  0  0
 12 54  1  0  0  0  0
 13 14  1  0  0  0  0
 13 32  2  0  0  0  0
 14 15  2  0  0  0  0
 14 55  1  0  0  0  0
 15 16  1  0  0  0  0
 15 56  1  0  0  0  0
 16 17  1  0  0  0  0
 16 30  2  0  0  0  0
 17 18  1  0  0  0  0
 18 19  1  0  0  0  0
 18 29  2  0  0  0  0
 19 20  2  0  0  0  0
 19 57  1  0  0  0  0
 20 21  1  0  0  0  0
 20 58  1  0  0  0  0
 21 22  2  0  0  0  0
 22 23  1  0  0  0  0
 22 29  1  0  0  0  0
 23 24  2  0  0  0  0
 23 59  1  0  0  0  0
 24 25  1  0  0  0  0
 24 27  1  0  0  0  0
 25 26  1  0  0  0  0
 26 60  1  0  0  0  0
 26 61  1  0  0  0  0
 26 62  1  0  0  0  0
 27 28  2  0  0  0  0
 27 63  1  0  0  0  0
 28 29  1  0  0  0  0
 28 64  1  0  0  0  0
 30 31  1  0  0  0  0
 30 32  1  0  0  0  0
 32 65  1  0  0  0  0
 33 34  2  0  0  0  0
 33 35  1  0  0  0  0
 35 36  1  0  0  0  0
 36 37  1  0  0  0  0
 36 41  2  0  0  0  0
 37 38  2  0  0  0  0
 37 66  1  0  0  0  0
 38 39  1  0  0  0  0
 38 67  1  0  0  0  0
 39 40  2  0  0  0  0
 39 68  1  0  0  0  0
 40 41  1  0  0  0  0
 40 69  1  0  0  0  0
 41 70  1  0  0  0  0
M  END
$$$$
