CHEMBL3892632
 OpenBabel04072215373D

 60 63  0  0  0  0  0  0  0  0999 V2000
    8.8914   -1.3399    0.5335 C   0  0  0  0  0  0  0  0  0  0  0  0
    8.0528   -2.2154   -0.2120 O   0  0  0  0  0  0  0  0  0  0  0  0
    6.6681   -2.0691    0.1121 C   0  0  0  0  0  0  0  0  0  0  0  0
    6.0426   -0.7761   -0.4282 C   0  0  0  0  0  0  0  0  0  0  0  0
    4.7287   -0.2358    0.1497 C   0  0  0  0  0  0  0  0  0  0  0  0
    4.1732   -0.9021    1.3984 N   0  0  0  0  0  0  0  0  0  0  0  0
    2.7464   -1.0678    1.2631 C   0  0  0  0  0  0  0  0  0  0  0  0
    2.1750   -1.4941    0.0344 C   0  0  0  0  0  0  0  0  0  0  0  0
    0.7949   -1.4836   -0.1934 C   0  0  0  0  0  0  0  0  0  0  0  0
    0.1807   -1.7545   -1.3889 O   0  0  0  0  0  0  0  0  0  0  0  0
    0.9919   -1.7061   -2.5610 C   0  0  0  0  0  0  0  0  0  0  0  0
   -0.0630   -1.1753    0.8591 C   0  0  0  0  0  0  0  0  0  0  0  0
    0.4605   -0.8292    2.1052 C   0  0  0  0  0  0  0  0  0  0  0  0
   -0.2833   -0.4849    3.2027 O   0  0  0  0  0  0  0  0  0  0  0  0
   -1.6228   -0.9655    3.2335 C   0  0  0  0  0  0  0  0  0  0  0  0
    1.8515   -0.7507    2.2908 C   0  0  0  0  0  0  0  0  0  0  0  0
    4.8996   -0.5997    2.6101 C   0  0  0  0  0  0  0  0  0  0  0  0
    5.8520    0.4166    2.5925 C   0  0  0  0  0  0  0  0  0  0  0  0
    6.8331    0.5189    3.5618 C   0  0  0  0  0  0  0  0  0  0  0  0
    6.8306   -0.2755    4.6658 C   0  0  0  0  0  0  0  0  0  0  0  0
    7.9181   -0.0960    5.4167 N   0  0  0  0  0  0  0  0  0  0  0  0
    7.8955   -0.6624    6.6228 C   0  0  0  0  0  0  0  0  0  0  0  0
    6.7980   -1.3589    7.0847 C   0  0  0  0  0  0  0  0  0  0  0  0
    6.7919   -1.6306    8.5143 C   0  0  0  0  0  0  0  0  0  0  0  0
    6.1384   -0.9519    9.5754 C   0  0  0  0  0  0  0  0  0  0  0  0
    6.5640   -1.3458   10.7837 N   0  0  0  0  0  0  0  0  0  0  0  0
    7.4966   -2.2697   10.4977 N   0  0  0  0  0  0  0  0  0  0  0  0
    7.9725   -3.1806   11.5116 C   0  0  0  0  0  0  0  0  0  0  0  0
    7.7907   -2.3357    9.1653 C   0  0  0  0  0  0  0  0  0  0  0  0
    5.7244   -1.6428    6.2612 N   0  0  0  0  0  0  0  0  0  0  0  0
    5.7430   -1.1218    4.9590 C   0  0  0  0  0  0  0  0  0  0  0  0
    4.8190   -1.3230    3.8483 C   0  0  0  0  0  0  0  0  0  0  0  0
    6.6318   -0.2319   -1.4647 N   0  0  0  0  0  0  0  0  0  0  0  0
    5.9513    0.8959   -1.9310 O   0  0  0  0  0  0  0  0  0  0  0  0
    8.9979   -1.7125    1.5556 H   0  0  0  0  0  0  0  0  0  0  0  0
    8.5065   -0.3157    0.5510 H   0  0  0  0  0  0  0  0  0  0  0  0
    9.8791   -1.3224    0.0629 H   0  0  0  0  0  0  0  0  0  0  0  0
    6.5413   -2.1778    1.1884 H   0  0  0  0  0  0  0  0  0  0  0  0
    6.1442   -2.8994   -0.3749 H   0  0  0  0  0  0  0  0  0  0  0  0
    4.0414   -0.2588   -0.6978 H   0  0  0  0  0  0  0  0  0  0  0  0
    4.8242    0.8467    0.3038 H   0  0  0  0  0  0  0  0  0  0  0  0
    2.8234   -1.8209   -0.7722 H   0  0  0  0  0  0  0  0  0  0  0  0
    0.3328   -1.7776   -3.4332 H   0  0  0  0  0  0  0  0  0  0  0  0
    1.6763   -2.5592   -2.5946 H   0  0  0  0  0  0  0  0  0  0  0  0
    1.5384   -0.7591   -2.6392 H   0  0  0  0  0  0  0  0  0  0  0  0
   -1.1321   -1.1873    0.6713 H   0  0  0  0  0  0  0  0  0  0  0  0
   -2.0228   -0.7615    4.2317 H   0  0  0  0  0  0  0  0  0  0  0  0
   -1.6630   -2.0485    3.0735 H   0  0  0  0  0  0  0  0  0  0  0  0
   -2.2516   -0.4361    2.5108 H   0  0  0  0  0  0  0  0  0  0  0  0
    2.2133   -0.4018    3.2524 H   0  0  0  0  0  0  0  0  0  0  0  0
    5.9071    1.1680    1.8207 H   0  0  0  0  0  0  0  0  0  0  0  0
    7.6148    1.2599    3.4400 H   0  0  0  0  0  0  0  0  0  0  0  0
    8.7799   -0.4963    7.2283 H   0  0  0  0  0  0  0  0  0  0  0  0
    5.3995   -0.1618    9.5244 H   0  0  0  0  0  0  0  0  0  0  0  0
    7.5318   -2.9287   12.4792 H   0  0  0  0  0  0  0  0  0  0  0  0
    9.0627   -3.1327   11.5622 H   0  0  0  0  0  0  0  0  0  0  0  0
    7.6512   -4.1826   11.2121 H   0  0  0  0  0  0  0  0  0  0  0  0
    8.6408   -2.8993    8.8065 H   0  0  0  0  0  0  0  0  0  0  0  0
    4.0501   -2.0745    3.9895 H   0  0  0  0  0  0  0  0  0  0  0  0
    6.4920    1.1473   -2.7061 H   0  0  0  0  0  0  0  0  0  0  0  0
  1  2  1  0  0  0  0
  1 35  1  0  0  0  0
  1 36  1  0  0  0  0
  1 37  1  0  0  0  0
  2  3  1  0  0  0  0
  3  4  1  0  0  0  0
  3 38  1  0  0  0  0
  3 39  1  0  0  0  0
  4  5  1  0  0  0  0
  4 33  2  0  0  0  0
  5  6  1  0  0  0  0
  5 40  1  0  0  0  0
  5 41  1  0  0  0  0
  6  7  1  0  0  0  0
  6 17  1  0  0  0  0
  7  8  1  0  0  0  0
  7 16  2  0  0  0  0
  8  9  2  0  0  0  0
  8 42  1  0  0  0  0
  9 10  1  0  0  0  0
  9 12  1  0  0  0  0
 10 11  1  0  0  0  0
 11 43  1  0  0  0  0
 11 44  1  0  0  0  0
 11 45  1  0  0  0  0
 12 13  2  0  0  0  0
 12 46  1  0  0  0  0
 13 14  1  0  0  0  0
 13 16  1  0  0  0  0
 14 15  1  0  0  0  0
 15 47  1  0  0  0  0
 15 48  1  0  0  0  0
 15 49  1  0  0  0  0
 16 50  1  0  0  0  0
 17 18  1  0  0  0  0
 17 32  2  0  0  0  0
 18 19  2  0  0  0  0
 18 51  1  0  0  0  0
 19 20  1  0  0  0  0
 19 52  1  0  0  0  0
 20 21  1  0  0  0  0
 20 31  2  0  0  0  0
 21 22  2  0  0  0  0
 22 23  1  0  0  0  0
 22 53  1  0  0  0  0
 23 24  1  0  0  0  0
 23 30  2  0  0  0  0
 24 25  1  0  0  0  0
 24 29  2  0  0  0  0
 25 26  2  0  0  0  0
 25 54  1  0  0  0  0
 26 27  1  0  0  0  0
 27 28  1  0  0  0  0
 27 29  1  0  0  0  0
 28 55  1  0  0  0  0
 28 56  1  0  0  0  0
 28 57  1  0  0  0  0
 29 58  1  0  0  0  0
 30 31  1  0  0  0  0
 31 32  1  0  0  0  0
 32 59  1  0  0  0  0
 33 34  1  0  0  0  0
 34 60  1  0  0  0  0
M  END
$$$$
