CHEMBL4463898
 OpenBabel04072215383D

 65 69  0  0  0  0  0  0  0  0999 V2000
    2.7409    2.1357   -4.5074 C   0  0  0  0  0  0  0  0  0  0  0  0
    2.6499    1.1344   -3.4942 O   0  0  0  0  0  0  0  0  0  0  0  0
    3.3966    0.0048   -3.6739 C   0  0  0  0  0  0  0  0  0  0  0  0
    4.6613    0.0693   -4.2573 C   0  0  0  0  0  0  0  0  0  0  0  0
    5.4127   -1.1002   -4.5154 C   0  0  0  0  0  0  0  0  0  0  0  0
    6.6567   -1.1010   -5.1634 C   0  0  0  0  0  0  0  0  0  0  0  0
    7.2525    0.1370   -5.4790 N   0  0  0  0  0  0  0  0  0  0  0  0
    8.0543    0.4872   -6.5746 C   0  0  0  0  0  0  0  0  0  0  0  0
    7.9743   -0.1787   -7.7983 C   0  0  0  0  0  0  0  0  0  0  0  0
    8.6393    0.3165   -8.9254 C   0  0  0  0  0  0  0  0  0  0  0  0
    9.4035    1.4794   -8.8250 C   0  0  0  0  0  0  0  0  0  0  0  0
   10.2088    2.2049  -10.3729 Br  0  0  0  0  0  0  0  0  0  0  0  0
    9.5435    2.1305   -7.6054 C   0  0  0  0  0  0  0  0  0  0  0  0
    8.8650    1.6323   -6.4963 C   0  0  0  0  0  0  0  0  0  0  0  0
    8.9626    2.2879   -5.3294 F   0  0  0  0  0  0  0  0  0  0  0  0
    7.2903   -2.2409   -5.4962 N   0  0  0  0  0  0  0  0  0  0  0  0
    6.6982   -3.3770   -5.1219 C   0  0  0  0  0  0  0  0  0  0  0  0
    5.5395   -3.4876   -4.4590 N   0  0  0  0  0  0  0  0  0  0  0  0
    4.9012   -2.3491   -4.1717 C   0  0  0  0  0  0  0  0  0  0  0  0
    3.6776   -2.3914   -3.5177 C   0  0  0  0  0  0  0  0  0  0  0  0
    2.9208   -1.2382   -3.2450 C   0  0  0  0  0  0  0  0  0  0  0  0
    1.7535   -1.5322   -2.5948 O   0  0  0  0  0  0  0  0  0  0  0  0
    0.9014   -0.4838   -2.1456 C   0  0  0  0  0  0  0  0  0  0  0  0
   -0.1016   -0.0954   -3.2470 C   0  0  0  0  0  0  0  0  0  0  0  0
   -0.9384    1.1202   -2.8341 C   0  0  0  0  0  0  0  0  0  0  0  0
   -1.9356    0.7798   -1.7310 C   0  0  0  0  0  0  0  0  0  0  0  0
   -2.7710   -0.3559   -2.1172 N   0  0  0  0  0  0  0  0  0  0  0  0
   -4.0950   -0.3639   -1.6874 C   0  0  0  0  0  0  0  0  0  0  0  0
   -4.5575    0.5113   -0.9527 O   0  0  0  0  0  0  0  0  0  0  0  0
   -4.9945   -1.4735   -2.1958 C   0  0  0  0  0  0  0  0  0  0  0  0
   -4.9162   -2.6972   -1.4180 N   0  0  0  0  0  0  0  0  0  0  0  0
   -4.7153   -2.7350   -0.0566 C   0  0  0  0  0  0  0  0  0  0  0  0
   -4.7377   -3.9627    0.4120 N   0  0  0  0  0  0  0  0  0  0  0  0
   -4.9799   -4.7621   -0.6725 C   0  0  0  0  0  0  0  0  0  0  0  0
   -5.0801   -4.0033   -1.8130 C   0  0  0  0  0  0  0  0  0  0  0  0
   -5.3078   -4.4731   -3.1377 N   0  3  0  0  0  0  0  0  0  0  0  0
   -5.2663   -3.6522   -4.0588 O   0  0  0  0  0  0  0  0  0  0  0  0
   -5.5123   -5.6838   -3.2644 O   0  5  0  0  0  0  0  0  0  0  0  0
   -2.0517   -1.5632   -2.5376 C   0  0  0  0  0  0  0  0  0  0  0  0
   -1.0246   -1.2645   -3.6212 C   0  0  0  0  0  0  0  0  0  0  0  0
    1.7360    2.5372   -4.6710 H   0  0  0  0  0  0  0  0  0  0  0  0
    3.0986    1.7592   -5.4722 H   0  0  0  0  0  0  0  0  0  0  0  0
    3.3818    2.9479   -4.1528 H   0  0  0  0  0  0  0  0  0  0  0  0
    5.0678    1.0328   -4.5506 H   0  0  0  0  0  0  0  0  0  0  0  0
    7.4296    0.6965   -4.6469 H   0  0  0  0  0  0  0  0  0  0  0  0
    7.3554   -1.0684   -7.9025 H   0  0  0  0  0  0  0  0  0  0  0  0
    8.5288   -0.1978   -9.8767 H   0  0  0  0  0  0  0  0  0  0  0  0
   10.1427    3.0281   -7.5033 H   0  0  0  0  0  0  0  0  0  0  0  0
    7.2039   -4.3012   -5.3809 H   0  0  0  0  0  0  0  0  0  0  0  0
    3.2839   -3.3625   -3.2212 H   0  0  0  0  0  0  0  0  0  0  0  0
    1.4608    0.3659   -1.7411 H   0  0  0  0  0  0  0  0  0  0  0  0
    0.3703   -0.8862   -1.2769 H   0  0  0  0  0  0  0  0  0  0  0  0
    0.4500    0.1594   -4.1588 H   0  0  0  0  0  0  0  0  0  0  0  0
   -1.4925    1.4775   -3.7126 H   0  0  0  0  0  0  0  0  0  0  0  0
   -0.2894    1.9440   -2.5157 H   0  0  0  0  0  0  0  0  0  0  0  0
   -2.5539    1.6604   -1.5266 H   0  0  0  0  0  0  0  0  0  0  0  0
   -1.4258    0.5201   -0.7962 H   0  0  0  0  0  0  0  0  0  0  0  0
   -4.7461   -1.6450   -3.2418 H   0  0  0  0  0  0  0  0  0  0  0  0
   -6.0362   -1.1368   -2.1560 H   0  0  0  0  0  0  0  0  0  0  0  0
   -4.5588   -1.8456    0.5448 H   0  0  0  0  0  0  0  0  0  0  0  0
   -5.0655   -5.8376   -0.5732 H   0  0  0  0  0  0  0  0  0  0  0  0
   -2.7321   -2.3288   -2.9106 H   0  0  0  0  0  0  0  0  0  0  0  0
   -1.5755   -1.9819   -1.6435 H   0  0  0  0  0  0  0  0  0  0  0  0
   -1.5580   -1.0065   -4.5455 H   0  0  0  0  0  0  0  0  0  0  0  0
   -0.4445   -2.1684   -3.8399 H   0  0  0  0  0  0  0  0  0  0  0  0
  1  2  1  0  0  0  0
  1 41  1  0  0  0  0
  1 42  1  0  0  0  0
  1 43  1  0  0  0  0
  2  3  1  0  0  0  0
  3  4  1  0  0  0  0
  3 21  2  0  0  0  0
  4  5  2  0  0  0  0
  4 44  1  0  0  0  0
  5  6  1  0  0  0  0
  5 19  1  0  0  0  0
  6  7  1  0  0  0  0
  6 16  2  0  0  0  0
  7  8  1  0  0  0  0
  7 45  1  0  0  0  0
  8  9  1  0  0  0  0
  8 14  2  0  0  0  0
  9 10  2  0  0  0  0
  9 46  1  0  0  0  0
 10 11  1  0  0  0  0
 10 47  1  0  0  0  0
 11 12  1  0  0  0  0
 11 13  2  0  0  0  0
 13 14  1  0  0  0  0
 13 48  1  0  0  0  0
 14 15  1  0  0  0  0
 16 17  1  0  0  0  0
 17 18  2  0  0  0  0
 17 49  1  0  0  0  0
 18 19  1  0  0  0  0
 19 20  2  0  0  0  0
 20 21  1  0  0  0  0
 20 50  1  0  0  0  0
 21 22  1  0  0  0  0
 22 23  1  0  0  0  0
 23 24  1  0  0  0  0
 23 51  1  0  0  0  0
 23 52  1  0  0  0  0
 24 25  1  0  0  0  0
 24 40  1  0  0  0  0
 24 53  1  0  0  0  0
 25 26  1  0  0  0  0
 25 54  1  0  0  0  0
 25 55  1  0  0  0  0
 26 27  1  0  0  0  0
 26 56  1  0  0  0  0
 26 57  1  0  0  0  0
 27 28  1  0  0  0  0
 27 39  1  0  0  0  0
 28 29  2  0  0  0  0
 28 30  1  0  0  0  0
 30 31  1  0  0  0  0
 30 58  1  0  0  0  0
 30 59  1  0  0  0  0
 31 32  1  0  0  0  0
 31 35  1  0  0  0  0
 32 33  2  0  0  0  0
 32 60  1  0  0  0  0
 33 34  1  0  0  0  0
 34 35  2  0  0  0  0
 34 61  1  0  0  0  0
 35 36  1  0  0  0  0
 36 37  2  0  0  0  0
 36 38  1  0  0  0  0
 39 40  1  0  0  0  0
 39 62  1  0  0  0  0
 39 63  1  0  0  0  0
 40 64  1  0  0  0  0
 40 65  1  0  0  0  0
M  CHG  2  36   1  38  -1
M  END
$$$$
