CHEMBL1914676
 OpenBabel04072215363D

 49 51  0  0  0  0  0  0  0  0999 V2000
    2.5938    0.5949    0.0004 C   0  0  0  0  0  0  0  0  0  0  0  0
    1.1362    0.2969    0.0256 C   0  0  0  0  0  0  0  0  0  0  0  0
    0.7228   -1.0149    0.0277 N   0  0  0  0  0  0  0  0  0  0  0  0
   -0.6424   -1.1048    0.0123 C   0  0  0  0  0  0  0  0  0  0  0  0
   -1.3224   -2.3514    0.0170 C   0  0  0  0  0  0  0  0  0  0  0  0
   -0.8268   -3.5991    0.0291 C   0  0  0  0  0  0  0  0  0  0  0  0
    0.5865   -4.1273    0.0368 C   0  0  0  0  0  0  0  0  0  0  0  0
    1.6275   -3.4990    0.0355 O   0  0  0  0  0  0  0  0  0  0  0  0
    0.4608   -5.5099    0.0492 N   0  0  0  0  0  0  0  0  0  0  0  0
   -0.8761   -5.8971    0.0497 C   0  0  0  0  0  0  0  0  0  0  0  0
   -1.3745   -7.1796    0.0634 C   0  0  0  0  0  0  0  0  0  0  0  0
   -2.7573   -7.2783    0.0660 C   0  0  0  0  0  0  0  0  0  0  0  0
   -3.6067   -6.2153    0.0555 N   0  0  0  0  0  0  0  0  0  0  0  0
   -3.0601   -4.9758    0.0415 C   0  0  0  0  0  0  0  0  0  0  0  0
   -1.7010   -4.7799    0.0382 C   0  0  0  0  0  0  0  0  0  0  0  0
   -1.1306    0.1957   -0.0085 C   0  0  0  0  0  0  0  0  0  0  0  0
   -2.5646    0.6207   -0.0205 C   0  0  0  0  0  0  0  0  0  0  0  0
   -0.0016    1.0978   -0.0038 C   0  0  0  0  0  0  0  0  0  0  0  0
   -0.0981    2.5631   -0.0553 C   0  0  0  0  0  0  0  0  0  0  0  0
   -1.0692    3.1378   -0.5419 O   0  0  0  0  0  0  0  0  0  0  0  0
    0.9342    3.2579    0.5251 N   0  0  0  0  0  0  0  0  0  0  0  0
    0.9115    4.7028    0.5985 C   0  0  0  0  0  0  0  0  0  0  0  0
    2.1636    5.2898    1.2738 C   0  0  0  0  0  0  0  0  0  0  0  0
    3.4479    4.8911    0.6570 N   0  0  0  0  0  0  0  0  0  0  0  0
    3.5415    5.3479   -0.7334 C   0  0  0  0  0  0  0  0  0  0  0  0
    4.5631    5.4513    1.4277 C   0  0  0  0  0  0  0  0  0  0  0  0
    3.1874   -0.3252   -0.0506 H   0  0  0  0  0  0  0  0  0  0  0  0
    2.9028    1.1203    0.9082 H   0  0  0  0  0  0  0  0  0  0  0  0
    2.8486    1.2035   -0.8721 H   0  0  0  0  0  0  0  0  0  0  0  0
    1.3591   -1.8067    0.0244 H   0  0  0  0  0  0  0  0  0  0  0  0
   -2.4045   -2.2560    0.0094 H   0  0  0  0  0  0  0  0  0  0  0  0
    1.2570   -6.1274    0.0548 H   0  0  0  0  0  0  0  0  0  0  0  0
   -0.7439   -8.0570    0.0726 H   0  0  0  0  0  0  0  0  0  0  0  0
   -3.2484   -8.2494    0.0773 H   0  0  0  0  0  0  0  0  0  0  0  0
   -3.7701   -4.1571    0.0342 H   0  0  0  0  0  0  0  0  0  0  0  0
   -3.2518   -0.2285    0.0228 H   0  0  0  0  0  0  0  0  0  0  0  0
   -2.7939    1.1789   -0.9333 H   0  0  0  0  0  0  0  0  0  0  0  0
   -2.7774    1.2559    0.8456 H   0  0  0  0  0  0  0  0  0  0  0  0
    1.6740    2.7634    0.9998 H   0  0  0  0  0  0  0  0  0  0  0  0
    0.0194    4.9942    1.1661 H   0  0  0  0  0  0  0  0  0  0  0  0
    0.7818    5.0965   -0.4158 H   0  0  0  0  0  0  0  0  0  0  0  0
    2.1634    4.9406    2.3151 H   0  0  0  0  0  0  0  0  0  0  0  0
    2.0692    6.3829    1.3025 H   0  0  0  0  0  0  0  0  0  0  0  0
    2.7898    4.8631   -1.3638 H   0  0  0  0  0  0  0  0  0  0  0  0
    4.5124    5.0762   -1.1630 H   0  0  0  0  0  0  0  0  0  0  0  0
    3.4208    6.4342   -0.8188 H   0  0  0  0  0  0  0  0  0  0  0  0
    4.5431    5.0853    2.4600 H   0  0  0  0  0  0  0  0  0  0  0  0
    4.5417    6.5474    1.4489 H   0  0  0  0  0  0  0  0  0  0  0  0
    5.5222    5.1353    1.0020 H   0  0  0  0  0  0  0  0  0  0  0  0
  1  2  1  0  0  0  0
  1 27  1  0  0  0  0
  1 28  1  0  0  0  0
  1 29  1  0  0  0  0
  2  3  1  0  0  0  0
  2 18  2  0  0  0  0
  3  4  1  0  0  0  0
  3 30  1  0  0  0  0
  4  5  1  0  0  0  0
  4 16  2  0  0  0  0
  5  6  2  0  0  0  0
  5 31  1  0  0  0  0
  6  7  1  0  0  0  0
  6 15  1  0  0  0  0
  7  8  2  0  0  0  0
  7  9  1  0  0  0  0
  9 10  1  0  0  0  0
  9 32  1  0  0  0  0
 10 11  1  0  0  0  0
 10 15  2  0  0  0  0
 11 12  2  0  0  0  0
 11 33  1  0  0  0  0
 12 13  1  0  0  0  0
 12 34  1  0  0  0  0
 13 14  2  0  0  0  0
 14 15  1  0  0  0  0
 14 35  1  0  0  0  0
 16 17  1  0  0  0  0
 16 18  1  0  0  0  0
 17 36  1  0  0  0  0
 17 37  1  0  0  0  0
 17 38  1  0  0  0  0
 18 19  1  0  0  0  0
 19 20  2  0  0  0  0
 19 21  1  0  0  0  0
 21 22  1  0  0  0  0
 21 39  1  0  0  0  0
 22 23  1  0  0  0  0
 22 40  1  0  0  0  0
 22 41  1  0  0  0  0
 23 24  1  0  0  0  0
 23 42  1  0  0  0  0
 23 43  1  0  0  0  0
 24 25  1  0  0  0  0
 24 26  1  0  0  0  0
 25 44  1  0  0  0  0
 25 45  1  0  0  0  0
 25 46  1  0  0  0  0
 26 47  1  0  0  0  0
 26 48  1  0  0  0  0
 26 49  1  0  0  0  0
M  END
$$$$
