CHEMBL3696081
 OpenBabel04072215373D

 52 54  0  0  0  0  0  0  0  0999 V2000
    2.1811   -4.0669    1.3010 C   0  0  0  0  0  0  0  0  0  0  0  0
    2.6254   -5.1538    2.2684 C   0  0  0  0  0  0  0  0  0  0  0  0
    3.5239   -4.5819    3.2350 O   0  0  0  0  0  0  0  0  0  0  0  0
    4.7973   -4.4811    2.7714 C   0  0  0  0  0  0  0  0  0  0  0  0
    5.2037   -5.0967    1.7898 O   0  0  0  0  0  0  0  0  0  0  0  0
    5.5178   -3.5844    3.5145 N   0  0  0  0  0  0  0  0  0  0  0  0
    6.6589   -2.9642    3.0342 C   0  0  0  0  0  0  0  0  0  0  0  0
    6.9422   -2.8509    1.3582 S   0  0  0  0  0  0  0  0  0  0  0  0
    8.3213   -1.9795    1.4640 N   0  0  0  0  0  0  0  0  0  0  0  0
    8.5957   -1.7183    2.7451 C   0  0  0  0  0  0  0  0  0  0  0  0
    9.7635   -0.8652    2.9991 C   0  0  0  0  0  0  0  0  0  0  0  0
    9.7399    0.0818    4.0172 C   0  0  0  0  0  0  0  0  0  0  0  0
   10.8459    0.8951    4.2481 C   0  0  0  0  0  0  0  0  0  0  0  0
   11.9851    0.8249    3.4400 C   0  0  0  0  0  0  0  0  0  0  0  0
   13.0930    1.6838    3.6101 N   0  0  0  0  0  0  0  0  0  0  0  0
   13.2536    2.5705    4.6570 C   0  0  0  0  0  0  0  0  0  0  0  0
   12.5378    2.6208    5.6516 O   0  0  0  0  0  0  0  0  0  0  0  0
   14.3106    3.4445    4.4521 N   0  0  0  0  0  0  0  0  0  0  0  0
   14.5716    4.4407    5.4287 C   0  0  0  0  0  0  0  0  0  0  0  0
   14.6180    4.1338    6.7949 C   0  0  0  0  0  0  0  0  0  0  0  0
   14.7617    5.1480    7.7501 C   0  0  0  0  0  0  0  0  0  0  0  0
   14.7998    4.8183    9.2137 C   0  0  0  0  0  0  0  0  0  0  0  0
   14.8522    6.4790    7.3219 C   0  0  0  0  0  0  0  0  0  0  0  0
   14.8329    6.7871    5.9592 C   0  0  0  0  0  0  0  0  0  0  0  0
   14.7162    5.7656    5.0228 C   0  0  0  0  0  0  0  0  0  0  0  0
   14.6629    6.0709    3.7169 F   0  0  0  0  0  0  0  0  0  0  0  0
   12.0034   -0.0982    2.3942 C   0  0  0  0  0  0  0  0  0  0  0  0
   10.9040   -0.9421    2.1813 C   0  0  0  0  0  0  0  0  0  0  0  0
    7.6599   -2.2887    3.7125 C   0  0  0  0  0  0  0  0  0  0  0  0
    7.6767   -2.2355    5.1648 C   0  0  0  0  0  0  0  0  0  0  0  0
    8.8992   -2.2609    5.7703 N   0  0  0  0  0  0  0  0  0  0  0  0
    6.6529   -2.2225    5.8416 O   0  0  0  0  0  0  0  0  0  0  0  0
    1.5267   -4.4705    0.5268 H   0  0  0  0  0  0  0  0  0  0  0  0
    3.0410   -3.5912    0.8126 H   0  0  0  0  0  0  0  0  0  0  0  0
    1.6500   -3.2752    1.8391 H   0  0  0  0  0  0  0  0  0  0  0  0
    3.0853   -5.9919    1.7277 H   0  0  0  0  0  0  0  0  0  0  0  0
    1.7626   -5.5612    2.8021 H   0  0  0  0  0  0  0  0  0  0  0  0
    5.1948   -3.3649    4.4548 H   0  0  0  0  0  0  0  0  0  0  0  0
    8.8649    0.2251    4.6457 H   0  0  0  0  0  0  0  0  0  0  0  0
   10.7555    1.5958    5.0705 H   0  0  0  0  0  0  0  0  0  0  0  0
   13.8726    1.5853    2.9659 H   0  0  0  0  0  0  0  0  0  0  0  0
   14.4129    3.7544    3.4938 H   0  0  0  0  0  0  0  0  0  0  0  0
   14.5154    3.1001    7.1203 H   0  0  0  0  0  0  0  0  0  0  0  0
   14.7087    3.7404    9.3868 H   0  0  0  0  0  0  0  0  0  0  0  0
   13.9753    5.3120    9.7376 H   0  0  0  0  0  0  0  0  0  0  0  0
   15.7509    5.1457    9.6453 H   0  0  0  0  0  0  0  0  0  0  0  0
   14.9298    7.2822    8.0515 H   0  0  0  0  0  0  0  0  0  0  0  0
   14.8840    7.8180    5.6254 H   0  0  0  0  0  0  0  0  0  0  0  0
   12.8559   -0.1744    1.7245 H   0  0  0  0  0  0  0  0  0  0  0  0
   10.9332   -1.6471    1.3509 H   0  0  0  0  0  0  0  0  0  0  0  0
    9.7726   -2.3339    5.2677 H   0  0  0  0  0  0  0  0  0  0  0  0
    8.9325   -2.2168    6.7804 H   0  0  0  0  0  0  0  0  0  0  0  0
  1  2  1  0  0  0  0
  1 33  1  0  0  0  0
  1 34  1  0  0  0  0
  1 35  1  0  0  0  0
  2  3  1  0  0  0  0
  2 36  1  0  0  0  0
  2 37  1  0  0  0  0
  3  4  1  0  0  0  0
  4  5  2  0  0  0  0
  4  6  1  0  0  0  0
  6  7  1  0  0  0  0
  6 38  1  0  0  0  0
  7  8  1  0  0  0  0
  7 29  2  0  0  0  0
  8  9  1  0  0  0  0
  9 10  2  0  0  0  0
 10 11  1  0  0  0  0
 10 29  1  0  0  0  0
 11 12  1  0  0  0  0
 11 28  2  0  0  0  0
 12 13  2  0  0  0  0
 12 39  1  0  0  0  0
 13 14  1  0  0  0  0
 13 40  1  0  0  0  0
 14 15  1  0  0  0  0
 14 27  2  0  0  0  0
 15 16  1  0  0  0  0
 15 41  1  0  0  0  0
 16 17  2  0  0  0  0
 16 18  1  0  0  0  0
 18 19  1  0  0  0  0
 18 42  1  0  0  0  0
 19 20  1  0  0  0  0
 19 25  2  0  0  0  0
 20 21  2  0  0  0  0
 20 43  1  0  0  0  0
 21 22  1  0  0  0  0
 21 23  1  0  0  0  0
 22 44  1  0  0  0  0
 22 45  1  0  0  0  0
 22 46  1  0  0  0  0
 23 24  2  0  0  0  0
 23 47  1  0  0  0  0
 24 25  1  0  0  0  0
 24 48  1  0  0  0  0
 25 26  1  0  0  0  0
 27 28  1  0  0  0  0
 27 49  1  0  0  0  0
 28 50  1  0  0  0  0
 29 30  1  0  0  0  0
 30 31  1  0  0  0  0
 30 32  2  0  0  0  0
 31 51  1  0  0  0  0
 31 52  1  0  0  0  0
M  END
$$$$
