CHEMBL3648084
 OpenBabel04072215373D

 56 57  0  0  1  0  0  0  0  0999 V2000
   12.0083   25.5105    0.1251 C   0  0  0  0  0  0  0  0  0  0  0  0
   12.2126   24.4138   -0.9018 C   0  0  0  0  0  0  0  0  0  0  0  0
   11.2539   23.3666   -0.6972 O   0  0  0  0  0  0  0  0  0  0  0  0
   11.6132   22.4311    0.2212 C   0  0  0  0  0  0  0  0  0  0  0  0
   12.6858   22.4450    0.8169 O   0  0  0  0  0  0  0  0  0  0  0  0
   10.6783   21.4205    0.3415 N   0  0  0  0  0  0  0  0  0  0  0  0
   10.4375   20.7921    1.7247 S   0  0  3  0  0  0  0  0  0  0  0  0
   11.8641   19.8172    2.1606 C   0  0  0  0  0  0  0  0  0  0  0  0
   10.0575   21.5486    2.9034 O   0  0  0  0  0  0  0  0  0  0  0  0
    9.1875   19.5313    1.5055 C   0  0  0  0  0  0  0  0  0  0  0  0
    9.1196   18.8217    0.3056 C   0  0  0  0  0  0  0  0  0  0  0  0
    8.1664   17.8101    0.1566 C   0  0  0  0  0  0  0  0  0  0  0  0
    7.2837   17.4892    1.1984 C   0  0  0  0  0  0  0  0  0  0  0  0
    6.3013   16.4873    1.0785 N   0  0  0  0  0  0  0  0  0  0  0  0
    6.3879   15.3416    0.2805 C   0  0  0  0  0  0  0  0  0  0  0  0
    5.2531   14.9237   -0.2930 N   0  0  0  0  0  0  0  0  0  0  0  0
    5.3639   13.8576   -1.1106 C   0  0  0  0  0  0  0  0  0  0  0  0
    6.5452   13.1815   -1.3643 C   0  0  0  0  0  0  0  0  0  0  0  0
    6.5036   11.8136   -2.6639 Br  0  0  0  0  0  0  0  0  0  0  0  0
    7.6604   13.6450   -0.6922 C   0  0  0  0  0  0  0  0  0  0  0  0
    8.9734   13.2201   -0.7994 N   0  0  0  0  0  0  0  0  0  0  0  0
    9.4142   11.8114   -0.7265 C   0  0  2  0  0  0  0  0  0  0  0  0
    9.2119   11.2261    0.6705 C   0  0  0  0  0  0  0  0  0  0  0  0
   10.9124   11.7378   -1.2104 C   0  0  0  0  0  0  0  0  0  0  0  0
   11.9128   12.4273   -0.2736 C   0  0  0  0  0  0  0  0  0  0  0  0
   11.3604   10.2919   -1.4463 C   0  0  0  0  0  0  0  0  0  0  0  0
   11.0070   12.4116   -2.4781 O   0  0  0  0  0  0  0  0  0  0  0  0
    7.5701   14.7230    0.1159 N   0  0  0  0  0  0  0  0  0  0  0  0
    7.3312   18.2524    2.3734 C   0  0  0  0  0  0  0  0  0  0  0  0
    8.2868   19.2603    2.5377 C   0  0  0  0  0  0  0  0  0  0  0  0
   12.7404   26.3114   -0.0090 H   0  0  0  0  0  0  0  0  0  0  0  0
   12.0975   25.1219    1.1446 H   0  0  0  0  0  0  0  0  0  0  0  0
   11.0020   25.9323    0.0343 H   0  0  0  0  0  0  0  0  0  0  0  0
   13.2400   24.0268   -0.8739 H   0  0  0  0  0  0  0  0  0  0  0  0
   12.0543   24.8109   -1.9072 H   0  0  0  0  0  0  0  0  0  0  0  0
   12.6999   20.4868    2.3720 H   0  0  0  0  0  0  0  0  0  0  0  0
   12.1164   19.1527    1.3317 H   0  0  0  0  0  0  0  0  0  0  0  0
   11.6377   19.2410    3.0597 H   0  0  0  0  0  0  0  0  0  0  0  0
    9.7926   19.0469   -0.5180 H   0  0  0  0  0  0  0  0  0  0  0  0
    8.1190   17.2757   -0.7900 H   0  0  0  0  0  0  0  0  0  0  0  0
    5.3697   16.8641    0.9578 H   0  0  0  0  0  0  0  0  0  0  0  0
    4.4353   13.5742   -1.5965 H   0  0  0  0  0  0  0  0  0  0  0  0
    9.4642   13.8040   -0.1180 H   0  0  0  0  0  0  0  0  0  0  0  0
    8.8356   11.2156   -1.4341 H   0  0  0  0  0  0  0  0  0  0  0  0
    9.8234   11.7349    1.4224 H   0  0  0  0  0  0  0  0  0  0  0  0
    9.4739   10.1624    0.6867 H   0  0  0  0  0  0  0  0  0  0  0  0
    8.1691   11.3079    0.9929 H   0  0  0  0  0  0  0  0  0  0  0  0
   11.9582   11.9498    0.7092 H   0  0  0  0  0  0  0  0  0  0  0  0
   11.6748   13.4870   -0.1402 H   0  0  0  0  0  0  0  0  0  0  0  0
   12.9218   12.3991   -0.7049 H   0  0  0  0  0  0  0  0  0  0  0  0
   11.4419    9.7295   -0.5111 H   0  0  0  0  0  0  0  0  0  0  0  0
   12.3371   10.2648   -1.9450 H   0  0  0  0  0  0  0  0  0  0  0  0
   10.6634    9.7680   -2.1090 H   0  0  0  0  0  0  0  0  0  0  0  0
   10.4962   13.2393   -2.3687 H   0  0  0  0  0  0  0  0  0  0  0  0
    6.6372   18.0406    3.1840 H   0  0  0  0  0  0  0  0  0  0  0  0
    8.3222   19.8160    3.4717 H   0  0  0  0  0  0  0  0  0  0  0  0
  1  2  1  0  0  0  0
  1 31  1  0  0  0  0
  1 32  1  0  0  0  0
  1 33  1  0  0  0  0
  2  3  1  0  0  0  0
  2 34  1  0  0  0  0
  2 35  1  0  0  0  0
  3  4  1  0  0  0  0
  4  5  2  0  0  0  0
  4  6  1  0  0  0  0
  6  7  2  0  0  0  0
  7  8  1  0  0  0  0
  7  9  2  0  0  0  0
  7 10  1  0  0  0  0
  8 36  1  0  0  0  0
  8 37  1  0  0  0  0
  8 38  1  0  0  0  0
 10 11  1  0  0  0  0
 10 30  2  0  0  0  0
 11 12  2  0  0  0  0
 11 39  1  0  0  0  0
 12 13  1  0  0  0  0
 12 40  1  0  0  0  0
 13 14  1  0  0  0  0
 13 29  2  0  0  0  0
 14 15  1  0  0  0  0
 14 41  1  0  0  0  0
 15 16  1  0  0  0  0
 15 28  2  0  0  0  0
 16 17  2  0  0  0  0
 17 18  1  0  0  0  0
 17 42  1  0  0  0  0
 18 19  1  0  0  0  0
 18 20  2  0  0  0  0
 20 21  1  0  0  0  0
 20 28  1  0  0  0  0
 21 43  1  0  0  0  0
 22 24  1  0  0  0  0
 22 23  1  0  0  0  0
 22 21  1  0  0  0  0
 22 44  1  6  0  0  0
 23 45  1  0  0  0  0
 23 46  1  0  0  0  0
 23 47  1  0  0  0  0
 24 25  1  0  0  0  0
 24 26  1  0  0  0  0
 24 27  1  0  0  0  0
 25 48  1  0  0  0  0
 25 49  1  0  0  0  0
 25 50  1  0  0  0  0
 26 51  1  0  0  0  0
 26 52  1  0  0  0  0
 26 53  1  0  0  0  0
 27 54  1  0  0  0  0
 29 30  1  0  0  0  0
 29 55  1  0  0  0  0
 30 56  1  0  0  0  0
M  END
$$$$
