CHEMBL3746052
 OpenBabel04072215373D

 56 60  0  0  0  0  0  0  0  0999 V2000
   12.1105    2.2056    2.4732 C   0  0  0  0  0  0  0  0  0  0  0  0
   11.1495    1.7033    1.4266 C   0  0  0  0  0  0  0  0  0  0  0  0
   11.0900    2.2500    0.3251 O   0  0  0  0  0  0  0  0  0  0  0  0
   10.3496    0.6247    1.7737 N   0  0  0  0  0  0  0  0  0  0  0  0
   10.3160   -0.0305    3.0774 C   0  0  0  0  0  0  0  0  0  0  0  0
    9.0655    0.4177    3.8438 C   0  0  0  0  0  0  0  0  0  0  0  0
    7.8281    0.3183    2.9925 C   0  0  0  0  0  0  0  0  0  0  0  0
    7.9130    0.2711    1.5989 C   0  0  0  0  0  0  0  0  0  0  0  0
    6.8262    0.1897    0.8000 N   0  0  0  0  0  0  0  0  0  0  0  0
    5.6383    0.2382    1.4064 C   0  0  0  0  0  0  0  0  0  0  0  0
    5.4397    0.3271    2.7229 N   0  0  0  0  0  0  0  0  0  0  0  0
    6.5364    0.3243    3.5033 C   0  0  0  0  0  0  0  0  0  0  0  0
    6.3534    0.2943    4.8924 O   0  0  0  0  0  0  0  0  0  0  0  0
    5.1516   -0.2337    5.3459 C   0  0  0  0  0  0  0  0  0  0  0  0
    4.6123   -1.4022    4.8035 C   0  0  0  0  0  0  0  0  0  0  0  0
    3.3239   -1.8364    5.1335 C   0  0  0  0  0  0  0  0  0  0  0  0
    2.6001   -1.1099    6.0915 C   0  0  0  0  0  0  0  0  0  0  0  0
    3.1702    0.0034    6.7356 C   0  0  0  0  0  0  0  0  0  0  0  0
    2.2038    0.5029    7.6449 C   0  0  0  0  0  0  0  0  0  0  0  0
    1.0502   -0.2161    7.4543 C   0  0  0  0  0  0  0  0  0  0  0  0
    1.2632   -1.1879    6.4936 N   0  0  0  0  0  0  0  0  0  0  0  0
    0.2141   -1.9438    5.9170 C   0  0  0  0  0  0  0  0  0  0  0  0
   -0.8633   -1.3875    5.7511 O   0  0  0  0  0  0  0  0  0  0  0  0
    0.5266   -3.2840    5.7370 N   0  0  0  0  0  0  0  0  0  0  0  0
   -0.3934   -4.2019    5.1640 C   0  0  0  0  0  0  0  0  0  0  0  0
   -1.3467   -3.7846    4.2268 C   0  0  0  0  0  0  0  0  0  0  0  0
   -2.2809   -4.6758    3.6995 C   0  0  0  0  0  0  0  0  0  0  0  0
   -2.2801   -6.0042    4.1076 C   0  0  0  0  0  0  0  0  0  0  0  0
   -1.3241   -6.4621    5.0282 C   0  0  0  0  0  0  0  0  0  0  0  0
   -1.3520   -7.9010    5.4841 C   0  0  0  0  0  0  0  0  0  0  0  0
   -2.3821   -8.6222    4.9560 F   0  0  0  0  0  0  0  0  0  0  0  0
   -0.2176   -8.5755    5.1482 F   0  0  0  0  0  0  0  0  0  0  0  0
   -1.4731   -8.0204    6.8351 F   0  0  0  0  0  0  0  0  0  0  0  0
   -0.3645   -5.5534    5.5336 C   0  0  0  0  0  0  0  0  0  0  0  0
    4.4697    0.4386    6.3640 C   0  0  0  0  0  0  0  0  0  0  0  0
    9.2564    0.2485    0.8882 C   0  0  0  0  0  0  0  0  0  0  0  0
   12.6652    3.0609    2.0774 H   0  0  0  0  0  0  0  0  0  0  0  0
   12.8282    1.4262    2.7390 H   0  0  0  0  0  0  0  0  0  0  0  0
   11.5567    2.5381    3.3561 H   0  0  0  0  0  0  0  0  0  0  0  0
   11.2182    0.1705    3.6580 H   0  0  0  0  0  0  0  0  0  0  0  0
   10.2873   -1.1136    2.8940 H   0  0  0  0  0  0  0  0  0  0  0  0
    9.1889    1.4647    4.1446 H   0  0  0  0  0  0  0  0  0  0  0  0
    8.9702   -0.1899    4.7497 H   0  0  0  0  0  0  0  0  0  0  0  0
    4.7575    0.1829    0.7790 H   0  0  0  0  0  0  0  0  0  0  0  0
    5.1589   -1.9444    4.0361 H   0  0  0  0  0  0  0  0  0  0  0  0
    2.8892   -2.6679    4.5885 H   0  0  0  0  0  0  0  0  0  0  0  0
    2.3102    1.3460    8.3158 H   0  0  0  0  0  0  0  0  0  0  0  0
    0.0666   -0.1150    7.8990 H   0  0  0  0  0  0  0  0  0  0  0  0
    1.2958   -3.6595    6.2807 H   0  0  0  0  0  0  0  0  0  0  0  0
   -1.3770   -2.7553    3.8769 H   0  0  0  0  0  0  0  0  0  0  0  0
   -3.0154   -4.3236    2.9790 H   0  0  0  0  0  0  0  0  0  0  0  0
   -3.0334   -6.6810    3.7065 H   0  0  0  0  0  0  0  0  0  0  0  0
    0.3668   -5.9128    6.2581 H   0  0  0  0  0  0  0  0  0  0  0  0
    4.8879    1.3345    6.8139 H   0  0  0  0  0  0  0  0  0  0  0  0
    9.2066    0.8993    0.0094 H   0  0  0  0  0  0  0  0  0  0  0  0
    9.4523   -0.7732    0.5415 H   0  0  0  0  0  0  0  0  0  0  0  0
  1  2  1  0  0  0  0
  1 37  1  0  0  0  0
  1 38  1  0  0  0  0
  1 39  1  0  0  0  0
  2  3  2  0  0  0  0
  2  4  1  0  0  0  0
  4  5  1  0  0  0  0
  4 36  1  0  0  0  0
  5  6  1  0  0  0  0
  5 40  1  0  0  0  0
  5 41  1  0  0  0  0
  6  7  1  0  0  0  0
  6 42  1  0  0  0  0
  6 43  1  0  0  0  0
  7  8  1  0  0  0  0
  7 12  2  0  0  0  0
  8  9  2  0  0  0  0
  8 36  1  0  0  0  0
  9 10  1  0  0  0  0
 10 11  2  0  0  0  0
 10 44  1  0  0  0  0
 11 12  1  0  0  0  0
 12 13  1  0  0  0  0
 13 14  1  0  0  0  0
 14 15  1  0  0  0  0
 14 35  2  0  0  0  0
 15 16  2  0  0  0  0
 15 45  1  0  0  0  0
 16 17  1  0  0  0  0
 16 46  1  0  0  0  0
 17 18  2  0  0  0  0
 17 21  1  0  0  0  0
 18 19  1  0  0  0  0
 18 35  1  0  0  0  0
 19 20  2  0  0  0  0
 19 47  1  0  0  0  0
 20 21  1  0  0  0  0
 20 48  1  0  0  0  0
 21 22  1  0  0  0  0
 22 23  2  0  0  0  0
 22 24  1  0  0  0  0
 24 25  1  0  0  0  0
 24 49  1  0  0  0  0
 25 26  1  0  0  0  0
 25 34  2  0  0  0  0
 26 27  2  0  0  0  0
 26 50  1  0  0  0  0
 27 28  1  0  0  0  0
 27 51  1  0  0  0  0
 28 29  2  0  0  0  0
 28 52  1  0  0  0  0
 29 30  1  0  0  0  0
 29 34  1  0  0  0  0
 30 31  1  0  0  0  0
 30 32  1  0  0  0  0
 30 33  1  0  0  0  0
 34 53  1  0  0  0  0
 35 54  1  0  0  0  0
 36 55  1  0  0  0  0
 36 56  1  0  0  0  0
M  END
$$$$
