CHEMBL208911
 OpenBabel04072215363D

 51 54  0  0  0  0  0  0  0  0999 V2000
    0.9337    0.1960    0.0010 O   0  0  0  0  0  0  0  0  0  0  0  0
    2.1352   -0.0362   -0.0763 C   0  0  0  0  0  0  0  0  0  0  0  0
    2.8290   -0.7689    0.8637 N   0  0  0  0  0  0  0  0  0  0  0  0
    2.1516   -1.3309    2.0166 C   0  0  0  0  0  0  0  0  0  0  0  0
    3.0632   -1.4627    3.2319 C   0  0  0  0  0  0  0  0  0  0  0  0
    2.4070   -2.5311    4.1036 C   0  0  0  0  0  0  0  0  0  0  0  0
    1.4251   -3.2805    3.2033 C   0  0  0  0  0  0  0  0  0  0  0  0
    1.6766   -2.7630    1.7921 C   0  0  0  0  0  0  0  0  0  0  0  0
    2.9116    0.5326   -1.2121 C   0  0  0  0  0  0  0  0  0  0  0  0
    2.4772    1.7542   -1.7410 C   0  0  0  0  0  0  0  0  0  0  0  0
    3.1418    2.3226   -2.8225 C   0  0  0  0  0  0  0  0  0  0  0  0
    4.2332    1.6658   -3.3818 C   0  0  0  0  0  0  0  0  0  0  0  0
    4.8231    2.2507   -4.4361 F   0  0  0  0  0  0  0  0  0  0  0  0
    4.6829    0.4220   -2.8977 C   0  0  0  0  0  0  0  0  0  0  0  0
    5.8100   -0.2620   -3.3749 N   0  0  0  0  0  0  0  0  0  0  0  0
    6.5219    0.2478   -4.5440 C   0  0  0  0  0  0  0  0  0  0  0  0
    7.6970   -0.5910   -4.9112 C   0  0  0  0  0  0  0  0  0  0  0  0
    8.9749   -0.5194   -4.4108 C   0  0  0  0  0  0  0  0  0  0  0  0
    9.8686   -1.4016   -4.9599 N   0  0  0  0  0  0  0  0  0  0  0  0
    9.3037   -2.1359   -5.8939 C   0  0  0  0  0  0  0  0  0  0  0  0
    9.9257   -3.0355   -6.6877 N   0  0  0  0  0  0  0  0  0  0  0  0
   11.2920   -3.0435   -6.9841 C   0  0  0  0  0  0  0  0  0  0  0  0
   12.2670   -2.5065   -6.1468 C   0  0  0  0  0  0  0  0  0  0  0  0
   13.5936   -2.4521   -6.5641 C   0  0  0  0  0  0  0  0  0  0  0  0
   13.9298   -2.9740   -7.8008 C   0  0  0  0  0  0  0  0  0  0  0  0
   12.9200   -3.5443   -8.5559 C   0  0  0  0  0  0  0  0  0  0  0  0
   11.6214   -3.5923   -8.1745 N   0  0  0  0  0  0  0  0  0  0  0  0
    7.6085   -1.8384   -6.0814 S   0  0  0  0  0  0  0  0  0  0  0  0
    4.0127   -0.1228   -1.7849 C   0  0  0  0  0  0  0  0  0  0  0  0
    3.8268   -0.9018    0.7713 H   0  0  0  0  0  0  0  0  0  0  0  0
    1.2908   -0.7003    2.2748 H   0  0  0  0  0  0  0  0  0  0  0  0
    3.1750   -0.5119    3.7632 H   0  0  0  0  0  0  0  0  0  0  0  0
    4.0668   -1.7925    2.9379 H   0  0  0  0  0  0  0  0  0  0  0  0
    1.8744   -2.0760    4.9463 H   0  0  0  0  0  0  0  0  0  0  0  0
    3.1617   -3.2057    4.5217 H   0  0  0  0  0  0  0  0  0  0  0  0
    0.3974   -3.0525    3.5111 H   0  0  0  0  0  0  0  0  0  0  0  0
    1.5536   -4.3655    3.2698 H   0  0  0  0  0  0  0  0  0  0  0  0
    0.7776   -2.8146    1.1697 H   0  0  0  0  0  0  0  0  0  0  0  0
    2.4545   -3.3635    1.3045 H   0  0  0  0  0  0  0  0  0  0  0  0
    1.6185    2.2647   -1.3089 H   0  0  0  0  0  0  0  0  0  0  0  0
    2.8143    3.2686   -3.2414 H   0  0  0  0  0  0  0  0  0  0  0  0
    5.6638   -1.2688   -3.4187 H   0  0  0  0  0  0  0  0  0  0  0  0
    6.9034    1.2539   -4.3224 H   0  0  0  0  0  0  0  0  0  0  0  0
    5.8456    0.3292   -5.4036 H   0  0  0  0  0  0  0  0  0  0  0  0
    9.3140    0.1705   -3.6473 H   0  0  0  0  0  0  0  0  0  0  0  0
    9.4179   -3.4348   -7.4622 H   0  0  0  0  0  0  0  0  0  0  0  0
   12.0192   -2.1073   -5.1695 H   0  0  0  0  0  0  0  0  0  0  0  0
   14.3424   -1.9927   -5.9262 H   0  0  0  0  0  0  0  0  0  0  0  0
   14.9501   -2.9373   -8.1639 H   0  0  0  0  0  0  0  0  0  0  0  0
   13.1336   -3.9859   -9.5232 H   0  0  0  0  0  0  0  0  0  0  0  0
    4.3496   -1.0741   -1.3828 H   0  0  0  0  0  0  0  0  0  0  0  0
  1  2  2  0  0  0  0
  2  3  1  0  0  0  0
  2  9  1  0  0  0  0
  3  4  1  0  0  0  0
  3 30  1  0  0  0  0
  4  5  1  0  0  0  0
  4  8  1  0  0  0  0
  4 31  1  0  0  0  0
  5  6  1  0  0  0  0
  5 32  1  0  0  0  0
  5 33  1  0  0  0  0
  6  7  1  0  0  0  0
  6 34  1  0  0  0  0
  6 35  1  0  0  0  0
  7  8  1  0  0  0  0
  7 36  1  0  0  0  0
  7 37  1  0  0  0  0
  8 38  1  0  0  0  0
  8 39  1  0  0  0  0
  9 10  1  0  0  0  0
  9 29  2  0  0  0  0
 10 11  2  0  0  0  0
 10 40  1  0  0  0  0
 11 12  1  0  0  0  0
 11 41  1  0  0  0  0
 12 13  1  0  0  0  0
 12 14  2  0  0  0  0
 14 15  1  0  0  0  0
 14 29  1  0  0  0  0
 15 16  1  0  0  0  0
 15 42  1  0  0  0  0
 16 17  1  0  0  0  0
 16 43  1  0  0  0  0
 16 44  1  0  0  0  0
 17 18  2  0  0  0  0
 17 28  1  0  0  0  0
 18 19  1  0  0  0  0
 18 45  1  0  0  0  0
 19 20  2  0  0  0  0
 20 21  1  0  0  0  0
 20 28  1  0  0  0  0
 21 22  1  0  0  0  0
 21 46  1  0  0  0  0
 22 23  1  0  0  0  0
 22 27  2  0  0  0  0
 23 24  2  0  0  0  0
 23 47  1  0  0  0  0
 24 25  1  0  0  0  0
 24 48  1  0  0  0  0
 25 26  2  0  0  0  0
 25 49  1  0  0  0  0
 26 27  1  0  0  0  0
 26 50  1  0  0  0  0
 29 51  1  0  0  0  0
M  END
$$$$
