CHEMBL196022
 OpenBabel04072215363D

 29 31  0  0  0  0  0  0  0  0999 V2000
    1.1324   -0.7312   -0.2007 C   0  0  0  0  0  0  0  0  0  0  0  0
    2.3489   -0.0159   -0.0357 O   0  0  0  0  0  0  0  0  0  0  0  0
    3.0240   -0.2065    1.1360 C   0  0  0  0  0  0  0  0  0  0  0  0
    2.5998   -0.9724    2.2204 C   0  0  0  0  0  0  0  0  0  0  0  0
    3.3622   -1.0141    3.3968 C   0  0  0  0  0  0  0  0  0  0  0  0
    4.5676   -0.3048    3.4969 C   0  0  0  0  0  0  0  0  0  0  0  0
    5.2935   -0.2147    4.7573 C   0  0  0  0  0  0  0  0  0  0  0  0
    5.3437   -1.2398    5.6839 C   0  0  0  0  0  0  0  0  0  0  0  0
    6.0639   -0.8784    6.7732 O   0  0  0  0  0  0  0  0  0  0  0  0
    6.4929    0.3971    6.5709 C   0  0  0  0  0  0  0  0  0  0  0  0
    7.2341    1.0522    7.4736 N   0  0  0  0  0  0  0  0  0  0  0  0
    7.5258    2.2908    7.0595 C   0  0  0  0  0  0  0  0  0  0  0  0
    7.1482    2.8829    5.9141 N   0  0  0  0  0  0  0  0  0  0  0  0
    6.3899    2.1910    5.0424 C   0  0  0  0  0  0  0  0  0  0  0  0
    6.0074    2.8820    3.8996 N   0  0  0  0  0  0  0  0  0  0  0  0
    6.0372    0.8637    5.3459 C   0  0  0  0  0  0  0  0  0  0  0  0
    5.0305    0.3717    2.3651 C   0  0  0  0  0  0  0  0  0  0  0  0
    4.2483    0.4543    1.2119 C   0  0  0  0  0  0  0  0  0  0  0  0
    0.7334   -0.4856   -1.1895 H   0  0  0  0  0  0  0  0  0  0  0  0
    0.3885   -0.4278    0.5436 H   0  0  0  0  0  0  0  0  0  0  0  0
    1.3081   -1.8109   -0.1690 H   0  0  0  0  0  0  0  0  0  0  0  0
    1.6685   -1.5286    2.1966 H   0  0  0  0  0  0  0  0  0  0  0  0
    2.9787   -1.5874    4.2378 H   0  0  0  0  0  0  0  0  0  0  0  0
    4.9377   -2.2423    5.7205 H   0  0  0  0  0  0  0  0  0  0  0  0
    8.1325    2.8902    7.7281 H   0  0  0  0  0  0  0  0  0  0  0  0
    6.2045    3.8714    4.0032 H   0  0  0  0  0  0  0  0  0  0  0  0
    5.0747    2.6605    3.5724 H   0  0  0  0  0  0  0  0  0  0  0  0
    5.9974    0.8702    2.3666 H   0  0  0  0  0  0  0  0  0  0  0  0
    4.5966    1.0473    0.3694 H   0  0  0  0  0  0  0  0  0  0  0  0
  1  2  1  0  0  0  0
  1 19  1  0  0  0  0
  1 20  1  0  0  0  0
  1 21  1  0  0  0  0
  2  3  1  0  0  0  0
  3  4  1  0  0  0  0
  3 18  2  0  0  0  0
  4  5  2  0  0  0  0
  4 22  1  0  0  0  0
  5  6  1  0  0  0  0
  5 23  1  0  0  0  0
  6  7  1  0  0  0  0
  6 17  2  0  0  0  0
  7  8  2  0  0  0  0
  7 16  1  0  0  0  0
  8  9  1  0  0  0  0
  8 24  1  0  0  0  0
  9 10  1  0  0  0  0
 10 11  1  0  0  0  0
 10 16  2  0  0  0  0
 11 12  2  0  0  0  0
 12 13  1  0  0  0  0
 12 25  1  0  0  0  0
 13 14  2  0  0  0  0
 14 15  1  0  0  0  0
 14 16  1  0  0  0  0
 15 26  1  0  0  0  0
 15 27  1  0  0  0  0
 17 18  1  0  0  0  0
 17 28  1  0  0  0  0
 18 29  1  0  0  0  0
M  END
$$$$
