CHEMBL3943535
 OpenBabel04072215373D

 55 58  0  0  0  0  0  0  0  0999 V2000
    3.1775    0.4621    9.6821 C   0  0  0  0  0  0  0  0  0  0  0  0
    4.0236    1.5139    9.2298 O   0  0  0  0  0  0  0  0  0  0  0  0
    4.1269    1.7078    7.8755 C   0  0  0  0  0  0  0  0  0  0  0  0
    3.5665    0.8249    6.9422 C   0  0  0  0  0  0  0  0  0  0  0  0
    3.6025    1.0734    5.5661 C   0  0  0  0  0  0  0  0  0  0  0  0
    3.0176    0.1836    4.6421 N   0  0  0  0  0  0  0  0  0  0  0  0
    1.8301   -0.5258    4.8681 C   0  0  0  0  0  0  0  0  0  0  0  0
    1.7064   -1.7303    4.2927 N   0  0  0  0  0  0  0  0  0  0  0  0
    0.5552   -2.3988    4.5235 C   0  0  0  0  0  0  0  0  0  0  0  0
   -0.4741   -1.9157    5.3037 C   0  0  0  0  0  0  0  0  0  0  0  0
   -0.2596   -0.6586    5.8412 C   0  0  0  0  0  0  0  0  0  0  0  0
    0.8795    0.0277    5.6392 N   0  0  0  0  0  0  0  0  0  0  0  0
   -1.2894    0.0027    6.7227 C   0  0  0  0  0  0  0  0  0  0  0  0
   -2.6644   -0.5985    6.4640 C   0  0  0  0  0  0  0  0  0  0  0  0
   -2.5738   -2.0571    6.5516 N   0  0  0  0  0  0  0  0  0  0  0  0
   -3.1178   -2.8674    7.5555 C   0  0  0  0  0  0  0  0  0  0  0  0
   -3.1154   -4.0931    7.4185 O   0  0  0  0  0  0  0  0  0  0  0  0
   -3.6860   -2.2460    8.7477 C   0  0  0  0  0  0  0  0  0  0  0  0
   -3.2245   -1.0263    9.1719 O   0  0  0  0  0  0  0  0  0  0  0  0
   -3.9252   -0.6756   10.2750 C   0  0  0  0  0  0  0  0  0  0  0  0
   -4.8053   -1.6704   10.6156 C   0  0  0  0  0  0  0  0  0  0  0  0
   -4.6319   -2.7103    9.6577 C   0  0  0  0  0  0  0  0  0  0  0  0
   -5.3397   -4.0154    9.6366 C   0  0  0  0  0  0  0  0  0  0  0  0
   -1.7613   -2.6653    5.5016 C   0  0  0  0  0  0  0  0  0  0  0  0
    4.2874    2.1930    5.1094 C   0  0  0  0  0  0  0  0  0  0  0  0
    4.8451    3.1049    6.0162 C   0  0  0  0  0  0  0  0  0  0  0  0
    5.4922    4.2504    5.6102 O   0  0  0  0  0  0  0  0  0  0  0  0
    4.9549    4.8701    4.4457 C   0  0  0  0  0  0  0  0  0  0  0  0
    4.7976    2.8510    7.4052 C   0  0  0  0  0  0  0  0  0  0  0  0
    5.3614    3.8260    8.1963 O   0  0  0  0  0  0  0  0  0  0  0  0
    5.9715    3.3973    9.4066 C   0  0  0  0  0  0  0  0  0  0  0  0
    3.1382    0.5093   10.7744 H   0  0  0  0  0  0  0  0  0  0  0  0
    3.5913   -0.5147    9.4098 H   0  0  0  0  0  0  0  0  0  0  0  0
    2.1545    0.5804    9.3088 H   0  0  0  0  0  0  0  0  0  0  0  0
    3.0601   -0.0759    7.2761 H   0  0  0  0  0  0  0  0  0  0  0  0
    3.6772   -0.4571    4.2172 H   0  0  0  0  0  0  0  0  0  0  0  0
    0.4896   -3.3693    4.0377 H   0  0  0  0  0  0  0  0  0  0  0  0
   -1.3109    1.0809    6.5302 H   0  0  0  0  0  0  0  0  0  0  0  0
   -0.9926   -0.1501    7.7673 H   0  0  0  0  0  0  0  0  0  0  0  0
   -2.9982   -0.3570    5.4461 H   0  0  0  0  0  0  0  0  0  0  0  0
   -3.4223   -0.1773    7.1246 H   0  0  0  0  0  0  0  0  0  0  0  0
   -3.6863    0.2919   10.6947 H   0  0  0  0  0  0  0  0  0  0  0  0
   -5.4830   -1.6569   11.4581 H   0  0  0  0  0  0  0  0  0  0  0  0
   -6.0311   -4.0989   10.4822 H   0  0  0  0  0  0  0  0  0  0  0  0
   -4.6266   -4.8429    9.7074 H   0  0  0  0  0  0  0  0  0  0  0  0
   -5.9192   -4.1277    8.7153 H   0  0  0  0  0  0  0  0  0  0  0  0
   -2.3473   -2.6161    4.5754 H   0  0  0  0  0  0  0  0  0  0  0  0
   -1.5510   -3.7165    5.7208 H   0  0  0  0  0  0  0  0  0  0  0  0
    4.3495    2.3643    4.0389 H   0  0  0  0  0  0  0  0  0  0  0  0
    5.3271    5.8986    4.4102 H   0  0  0  0  0  0  0  0  0  0  0  0
    3.8600    4.9134    4.4720 H   0  0  0  0  0  0  0  0  0  0  0  0
    5.3039    4.3602    3.5423 H   0  0  0  0  0  0  0  0  0  0  0  0
    6.6872    4.1688    9.7083 H   0  0  0  0  0  0  0  0  0  0  0  0
    6.5279    2.4616    9.2847 H   0  0  0  0  0  0  0  0  0  0  0  0
    5.2306    3.3236   10.2081 H   0  0  0  0  0  0  0  0  0  0  0  0
  1  2  1  0  0  0  0
  1 32  1  0  0  0  0
  1 33  1  0  0  0  0
  1 34  1  0  0  0  0
  2  3  1  0  0  0  0
  3  4  1  0  0  0  0
  3 29  2  0  0  0  0
  4  5  2  0  0  0  0
  4 35  1  0  0  0  0
  5  6  1  0  0  0  0
  5 25  1  0  0  0  0
  6  7  1  0  0  0  0
  6 36  1  0  0  0  0
  7  8  1  0  0  0  0
  7 12  2  0  0  0  0
  8  9  2  0  0  0  0
  9 10  1  0  0  0  0
  9 37  1  0  0  0  0
 10 11  2  0  0  0  0
 10 24  1  0  0  0  0
 11 12  1  0  0  0  0
 11 13  1  0  0  0  0
 13 14  1  0  0  0  0
 13 38  1  0  0  0  0
 13 39  1  0  0  0  0
 14 15  1  0  0  0  0
 14 40  1  0  0  0  0
 14 41  1  0  0  0  0
 15 16  1  0  0  0  0
 15 24  1  0  0  0  0
 16 17  2  0  0  0  0
 16 18  1  0  0  0  0
 18 19  1  0  0  0  0
 18 22  2  0  0  0  0
 19 20  1  0  0  0  0
 20 21  2  0  0  0  0
 20 42  1  0  0  0  0
 21 22  1  0  0  0  0
 21 43  1  0  0  0  0
 22 23  1  0  0  0  0
 23 44  1  0  0  0  0
 23 45  1  0  0  0  0
 23 46  1  0  0  0  0
 24 47  1  0  0  0  0
 24 48  1  0  0  0  0
 25 26  2  0  0  0  0
 25 49  1  0  0  0  0
 26 27  1  0  0  0  0
 26 29  1  0  0  0  0
 27 28  1  0  0  0  0
 28 50  1  0  0  0  0
 28 51  1  0  0  0  0
 28 52  1  0  0  0  0
 29 30  1  0  0  0  0
 30 31  1  0  0  0  0
 31 53  1  0  0  0  0
 31 54  1  0  0  0  0
 31 55  1  0  0  0  0
M  END
$$$$
