CHEMBL270193
 OpenBabel04072215363D

 67 71  0  0  0  0  0  0  0  0999 V2000
    1.2496    0.4408   -0.6380 C   0  0  0  0  0  0  0  0  0  0  0  0
    2.5781    0.0280   -0.0026 C   0  0  0  0  0  0  0  0  0  0  0  0
    2.6113    0.3053    1.5023 C   0  0  0  0  0  0  0  0  0  0  0  0
    3.0323   -1.3876   -0.3083 C   0  0  0  0  0  0  0  0  0  0  0  0
    2.3575   -2.6214    0.0164 C   0  0  0  0  0  0  0  0  0  0  0  0
    1.0234   -2.8602    0.6564 C   0  0  0  0  0  0  0  0  0  0  0  0
    0.1815   -1.9061    0.9952 N   0  0  0  0  0  0  0  0  0  0  0  0
   -0.9677   -2.5101    1.4409 N   0  0  0  0  0  0  0  0  0  0  0  0
   -0.7424   -3.8003    1.3989 C   0  0  0  0  0  0  0  0  0  0  0  0
   -1.5325   -4.8332    1.7366 N   0  0  0  0  0  0  0  0  0  0  0  0
   -2.9688   -4.6729    1.5977 C   0  0  0  0  0  0  0  0  0  0  0  0
   -3.7029   -5.5701    2.5919 C   0  0  0  0  0  0  0  0  0  0  0  0
   -3.3940   -5.1822    4.0431 C   0  0  0  0  0  0  0  0  0  0  0  0
   -4.1022   -6.0698    5.0634 C   0  0  0  0  0  0  0  0  0  0  0  0
   -5.5519   -5.9568    4.9627 N   0  0  0  0  0  0  0  0  0  0  0  0
    0.4995   -4.1078    0.9243 O   0  0  0  0  0  0  0  0  0  0  0  0
    3.1660   -3.6608   -0.3891 C   0  0  0  0  0  0  0  0  0  0  0  0
    4.2715   -3.1308   -0.9859 N   0  0  0  0  0  0  0  0  0  0  0  0
    5.2515   -3.8600   -1.5420 N   0  0  0  0  0  0  0  0  0  0  0  0
    6.1919   -3.1524   -2.0770 C   0  0  0  0  0  0  0  0  0  0  0  0
    6.2660   -1.7863   -2.1058 N   0  0  0  0  0  0  0  0  0  0  0  0
    5.3358   -1.0652   -1.5470 C   0  0  0  0  0  0  0  0  0  0  0  0
    5.4531    0.3107   -1.5426 N   0  0  0  0  0  0  0  0  0  0  0  0
    6.1575    1.0862   -2.4879 C   0  0  0  0  0  0  0  0  0  0  0  0
    6.2596    0.7148   -3.8375 C   0  0  0  0  0  0  0  0  0  0  0  0
    6.9257    1.5243   -4.7778 C   0  0  0  0  0  0  0  0  0  0  0  0
    6.9410    1.0741   -6.1998 C   0  0  0  0  0  0  0  0  0  0  0  0
    6.3918    0.0161   -6.4976 O   0  0  0  0  0  0  0  0  0  0  0  0
    7.5635    1.8838   -7.1323 N   0  0  0  0  0  0  0  0  0  0  0  0
    7.6034    1.5479   -8.5238 C   0  0  0  0  0  0  0  0  0  0  0  0
    8.9205    1.4087   -9.2350 C   0  0  0  0  0  0  0  0  0  0  0  0
    8.0132    2.5596   -9.5589 C   0  0  0  0  0  0  0  0  0  0  0  0
    7.5092    2.7140   -4.3423 C   0  0  0  0  0  0  0  0  0  0  0  0
    8.1567    3.5220   -5.1969 F   0  0  0  0  0  0  0  0  0  0  0  0
    7.4267    3.1058   -3.0088 C   0  0  0  0  0  0  0  0  0  0  0  0
    6.7470    2.2983   -2.1023 C   0  0  0  0  0  0  0  0  0  0  0  0
    6.6570    2.6914   -0.8228 F   0  0  0  0  0  0  0  0  0  0  0  0
    4.2269   -1.7670   -0.9363 C   0  0  0  0  0  0  0  0  0  0  0  0
    1.1484    1.5322   -0.6119 H   0  0  0  0  0  0  0  0  0  0  0  0
    0.3768    0.0538   -0.1141 H   0  0  0  0  0  0  0  0  0  0  0  0
    1.1864    0.1227   -1.6836 H   0  0  0  0  0  0  0  0  0  0  0  0
    3.3017    0.7158   -0.4447 H   0  0  0  0  0  0  0  0  0  0  0  0
    1.9379   -0.3494    2.0621 H   0  0  0  0  0  0  0  0  0  0  0  0
    2.3278    1.3411    1.7161 H   0  0  0  0  0  0  0  0  0  0  0  0
    3.6212    0.1447    1.8975 H   0  0  0  0  0  0  0  0  0  0  0  0
   -1.1758   -5.7643    1.5479 H   0  0  0  0  0  0  0  0  0  0  0  0
   -3.2610   -4.9521    0.5773 H   0  0  0  0  0  0  0  0  0  0  0  0
   -3.2884   -3.6331    1.7509 H   0  0  0  0  0  0  0  0  0  0  0  0
   -3.4284   -6.6182    2.4219 H   0  0  0  0  0  0  0  0  0  0  0  0
   -4.7800   -5.4847    2.4026 H   0  0  0  0  0  0  0  0  0  0  0  0
   -3.6640   -4.1316    4.2099 H   0  0  0  0  0  0  0  0  0  0  0  0
   -2.3148   -5.2606    4.2221 H   0  0  0  0  0  0  0  0  0  0  0  0
   -3.7884   -5.7788    6.0720 H   0  0  0  0  0  0  0  0  0  0  0  0
   -3.8086   -7.1147    4.9168 H   0  0  0  0  0  0  0  0  0  0  0  0
   -5.8302   -4.9921    5.1379 H   0  0  0  0  0  0  0  0  0  0  0  0
   -5.9848   -6.5152    5.6972 H   0  0  0  0  0  0  0  0  0  0  0  0
    3.0427   -4.7328   -0.3294 H   0  0  0  0  0  0  0  0  0  0  0  0
    7.0305   -3.6841   -2.5562 H   0  0  0  0  0  0  0  0  0  0  0  0
    5.3705    0.7505   -0.6325 H   0  0  0  0  0  0  0  0  0  0  0  0
    5.7908   -0.2089   -4.1758 H   0  0  0  0  0  0  0  0  0  0  0  0
    8.0064    2.7458   -6.8315 H   0  0  0  0  0  0  0  0  0  0  0  0
    6.8140    0.8596   -8.8243 H   0  0  0  0  0  0  0  0  0  0  0  0
    9.0131    0.6089   -9.9607 H   0  0  0  0  0  0  0  0  0  0  0  0
    9.8309    1.6163   -8.6860 H   0  0  0  0  0  0  0  0  0  0  0  0
    7.4944    2.5405  -10.5112 H   0  0  0  0  0  0  0  0  0  0  0  0
    8.3134    3.5488   -9.2386 H   0  0  0  0  0  0  0  0  0  0  0  0
    7.8788    4.0350   -2.6803 H   0  0  0  0  0  0  0  0  0  0  0  0
  1  2  1  0  0  0  0
  1 39  1  0  0  0  0
  1 40  1  0  0  0  0
  1 41  1  0  0  0  0
  2  3  1  0  0  0  0
  2  4  1  0  0  0  0
  2 42  1  0  0  0  0
  3 43  1  0  0  0  0
  3 44  1  0  0  0  0
  3 45  1  0  0  0  0
  4  5  1  0  0  0  0
  4 38  2  0  0  0  0
  5  6  1  0  0  0  0
  5 17  2  0  0  0  0
  6  7  2  0  0  0  0
  6 16  1  0  0  0  0
  7  8  1  0  0  0  0
  8  9  2  0  0  0  0
  9 10  1  0  0  0  0
  9 16  1  0  0  0  0
 10 11  1  0  0  0  0
 10 46  1  0  0  0  0
 11 12  1  0  0  0  0
 11 47  1  0  0  0  0
 11 48  1  0  0  0  0
 12 13  1  0  0  0  0
 12 49  1  0  0  0  0
 12 50  1  0  0  0  0
 13 14  1  0  0  0  0
 13 51  1  0  0  0  0
 13 52  1  0  0  0  0
 14 15  1  0  0  0  0
 14 53  1  0  0  0  0
 14 54  1  0  0  0  0
 15 55  1  0  0  0  0
 15 56  1  0  0  0  0
 17 18  1  0  0  0  0
 17 57  1  0  0  0  0
 18 19  1  0  0  0  0
 18 38  1  0  0  0  0
 19 20  2  0  0  0  0
 20 21  1  0  0  0  0
 20 58  1  0  0  0  0
 21 22  2  0  0  0  0
 22 23  1  0  0  0  0
 22 38  1  0  0  0  0
 23 24  1  0  0  0  0
 23 59  1  0  0  0  0
 24 25  1  0  0  0  0
 24 36  2  0  0  0  0
 25 26  2  0  0  0  0
 25 60  1  0  0  0  0
 26 27  1  0  0  0  0
 26 33  1  0  0  0  0
 27 28  2  0  0  0  0
 27 29  1  0  0  0  0
 29 30  1  0  0  0  0
 29 61  1  0  0  0  0
 30 31  1  0  0  0  0
 30 32  1  0  0  0  0
 30 62  1  0  0  0  0
 31 32  1  0  0  0  0
 31 63  1  0  0  0  0
 31 64  1  0  0  0  0
 32 65  1  0  0  0  0
 32 66  1  0  0  0  0
 33 34  1  0  0  0  0
 33 35  2  0  0  0  0
 35 36  1  0  0  0  0
 35 67  1  0  0  0  0
 36 37  1  0  0  0  0
M  END
$$$$
