CHEMBL3628809
 OpenBabel04072215373D

 43 46  0  0  0  0  0  0  0  0999 V2000
    2.6045    0.2231    0.0383 C   0  0  0  0  0  0  0  0  0  0  0  0
    1.1078    0.0768    0.0249 C   0  0  0  0  0  0  0  0  0  0  0  0
    0.3584    1.2739   -0.0363 C   0  0  0  0  0  0  0  0  0  0  0  0
   -1.0360    1.2626    0.0033 C   0  0  0  0  0  0  0  0  0  0  0  0
   -1.8153    2.3928   -0.0331 O   0  0  0  0  0  0  0  0  0  0  0  0
   -1.3976    3.4990    0.6959 C   0  0  0  0  0  0  0  0  0  0  0  0
   -0.6494    3.3358    1.8110 N   0  0  0  0  0  0  0  0  0  0  0  0
   -0.2551    4.4349    2.4671 C   0  0  0  0  0  0  0  0  0  0  0  0
   -0.5279    5.7065    2.1615 N   0  0  0  0  0  0  0  0  0  0  0  0
   -1.3051    5.8189    1.0709 C   0  0  0  0  0  0  0  0  0  0  0  0
   -1.7993    7.3473    0.5002 S   0  0  0  0  0  0  0  0  0  0  0  0
   -2.6765    6.6499   -0.7926 C   0  0  0  0  0  0  0  0  0  0  0  0
   -2.5831    5.2749   -0.7947 C   0  0  0  0  0  0  0  0  0  0  0  0
   -1.7859    4.7794    0.2912 C   0  0  0  0  0  0  0  0  0  0  0  0
   -1.6982    0.0486   -0.0008 C   0  0  0  0  0  0  0  0  0  0  0  0
   -0.9759   -1.1459    0.0278 C   0  0  0  0  0  0  0  0  0  0  0  0
    0.4328   -1.1635    0.0683 C   0  0  0  0  0  0  0  0  0  0  0  0
    1.1606   -2.3851    0.1679 N   0  0  0  0  0  0  0  0  0  0  0  0
    0.6081   -3.6367    0.4257 C   0  0  0  0  0  0  0  0  0  0  0  0
   -0.5880   -3.8714    0.5561 O   0  0  0  0  0  0  0  0  0  0  0  0
    1.5765   -4.6215    0.5901 N   0  0  0  0  0  0  0  0  0  0  0  0
    1.1941   -5.9578    0.8775 C   0  0  0  0  0  0  0  0  0  0  0  0
    1.8401   -6.6374    1.9134 C   0  0  0  0  0  0  0  0  0  0  0  0
    1.4242   -7.9225    2.2794 C   0  0  0  0  0  0  0  0  0  0  0  0
    0.4005   -8.5571    1.5771 C   0  0  0  0  0  0  0  0  0  0  0  0
   -0.2134   -7.8963    0.5156 C   0  0  0  0  0  0  0  0  0  0  0  0
   -1.5827   -8.7698   -0.4575 Br  0  0  0  0  0  0  0  0  0  0  0  0
    0.1683   -6.5997    0.1702 C   0  0  0  0  0  0  0  0  0  0  0  0
    2.8961    1.2606    0.2489 H   0  0  0  0  0  0  0  0  0  0  0  0
    3.0214   -0.0462   -0.9359 H   0  0  0  0  0  0  0  0  0  0  0  0
    3.0541   -0.3879    0.8251 H   0  0  0  0  0  0  0  0  0  0  0  0
    0.8764    2.2280   -0.0857 H   0  0  0  0  0  0  0  0  0  0  0  0
    0.3655    4.2720    3.3430 H   0  0  0  0  0  0  0  0  0  0  0  0
   -3.2063    7.2832   -1.4915 H   0  0  0  0  0  0  0  0  0  0  0  0
   -3.0635    4.6456   -1.5342 H   0  0  0  0  0  0  0  0  0  0  0  0
   -2.7859    0.0081   -0.0146 H   0  0  0  0  0  0  0  0  0  0  0  0
   -1.5583   -2.0584   -0.0029 H   0  0  0  0  0  0  0  0  0  0  0  0
    2.1640   -2.3348    0.0824 H   0  0  0  0  0  0  0  0  0  0  0  0
    2.4284   -4.3018    1.0240 H   0  0  0  0  0  0  0  0  0  0  0  0
    2.6214   -6.1548    2.4923 H   0  0  0  0  0  0  0  0  0  0  0  0
    1.8878   -8.4231    3.1258 H   0  0  0  0  0  0  0  0  0  0  0  0
    0.0831   -9.5557    1.8685 H   0  0  0  0  0  0  0  0  0  0  0  0
   -0.3318   -6.0940   -0.6515 H   0  0  0  0  0  0  0  0  0  0  0  0
  1  2  1  0  0  0  0
  1 29  1  0  0  0  0
  1 30  1  0  0  0  0
  1 31  1  0  0  0  0
  2  3  1  0  0  0  0
  2 17  2  0  0  0  0
  3  4  2  0  0  0  0
  3 32  1  0  0  0  0
  4  5  1  0  0  0  0
  4 15  1  0  0  0  0
  5  6  1  0  0  0  0
  6  7  1  0  0  0  0
  6 14  2  0  0  0  0
  7  8  2  0  0  0  0
  8  9  1  0  0  0  0
  8 33  1  0  0  0  0
  9 10  2  0  0  0  0
 10 11  1  0  0  0  0
 10 14  1  0  0  0  0
 11 12  1  0  0  0  0
 12 13  2  0  0  0  0
 12 34  1  0  0  0  0
 13 14  1  0  0  0  0
 13 35  1  0  0  0  0
 15 16  2  0  0  0  0
 15 36  1  0  0  0  0
 16 17  1  0  0  0  0
 16 37  1  0  0  0  0
 17 18  1  0  0  0  0
 18 19  1  0  0  0  0
 18 38  1  0  0  0  0
 19 20  2  0  0  0  0
 19 21  1  0  0  0  0
 21 22  1  0  0  0  0
 21 39  1  0  0  0  0
 22 23  1  0  0  0  0
 22 28  2  0  0  0  0
 23 24  2  0  0  0  0
 23 40  1  0  0  0  0
 24 25  1  0  0  0  0
 24 41  1  0  0  0  0
 25 26  2  0  0  0  0
 25 42  1  0  0  0  0
 26 27  1  0  0  0  0
 26 28  1  0  0  0  0
 28 43  1  0  0  0  0
M  END
$$$$
