CHEMBL4531859
 OpenBabel04072215383D

 57 61  0  0  0  0  0  0  0  0999 V2000
    2.1615   -0.6043    1.2664 C   0  0  0  0  0  0  0  0  0  0  0  0
    3.2551   -0.4759    0.3513 O   0  0  0  0  0  0  0  0  0  0  0  0
    3.6464    0.8053    0.0371 C   0  0  0  0  0  0  0  0  0  0  0  0
    3.0344    1.9450    0.5511 C   0  0  0  0  0  0  0  0  0  0  0  0
    3.4888    3.2031    0.1711 C   0  0  0  0  0  0  0  0  0  0  0  0
    4.5722    3.3204   -0.7014 C   0  0  0  0  0  0  0  0  0  0  0  0
    5.2649    2.2001   -1.1834 C   0  0  0  0  0  0  0  0  0  0  0  0
    6.4671    2.3431   -1.9763 N   0  0  0  0  0  0  0  0  0  0  0  0
    7.2745    3.4839   -1.9012 C   0  0  0  0  0  0  0  0  0  0  0  0
    7.0632    4.3651   -1.0865 O   0  0  0  0  0  0  0  0  0  0  0  0
    8.3250    3.5438   -2.8184 N   0  0  0  0  0  0  0  0  0  0  0  0
    9.2302    4.6692   -2.9242 C   0  0  0  0  0  0  0  0  0  0  0  0
    9.3422    5.6631   -1.9435 C   0  0  0  0  0  0  0  0  0  0  0  0
   10.0954    6.8480   -2.1362 C   0  0  0  0  0  0  0  0  0  0  0  0
   10.8389    7.0634   -3.2988 C   0  0  0  0  0  0  0  0  0  0  0  0
   11.5104    8.2620   -3.6172 O   0  0  0  0  0  0  0  0  0  0  0  0
   12.2155    8.9585   -2.6175 C   0  0  0  0  0  0  0  0  0  0  0  0
   12.4228    8.2561   -1.4779 N   0  0  0  0  0  0  0  0  0  0  0  0
   13.1029    8.8444   -0.5055 C   0  0  0  0  0  0  0  0  0  0  0  0
   13.6046   10.0717   -0.5505 N   0  0  0  0  0  0  0  0  0  0  0  0
   13.4927   10.7338   -1.6939 C   0  0  0  0  0  0  0  0  0  0  0  0
   14.1638   11.9498   -1.6543 C   0  0  0  0  0  0  0  0  0  0  0  0
   14.3691   12.7040   -2.7887 C   0  0  0  0  0  0  0  0  0  0  0  0
   15.0688   13.8752   -2.8683 O   0  0  0  0  0  0  0  0  0  0  0  0
   15.3777   14.5386   -1.6521 C   0  0  0  0  0  0  0  0  0  0  0  0
   13.7657   12.2710   -3.9538 C   0  0  0  0  0  0  0  0  0  0  0  0
   12.8512   11.1976   -3.9674 C   0  0  0  0  0  0  0  0  0  0  0  0
   12.7985   10.2727   -2.8444 C   0  0  0  0  0  0  0  0  0  0  0  0
   11.9869   11.1026   -5.0360 O   0  0  0  0  0  0  0  0  0  0  0  0
   11.8851   12.3049   -5.8641 C   0  0  0  0  0  0  0  0  0  0  0  0
   12.8064   13.4788   -5.5297 C   0  0  0  0  0  0  0  0  0  0  0  0
   14.0502   12.9721   -5.1006 O   0  0  0  0  0  0  0  0  0  0  0  0
   10.8126    6.0284   -4.2485 C   0  0  0  0  0  0  0  0  0  0  0  0
   10.0255    4.8469   -4.0643 C   0  0  0  0  0  0  0  0  0  0  0  0
    4.7525    0.9326   -0.8420 C   0  0  0  0  0  0  0  0  0  0  0  0
    1.9846   -1.6689    1.4485 H   0  0  0  0  0  0  0  0  0  0  0  0
    1.2390   -0.1861    0.8458 H   0  0  0  0  0  0  0  0  0  0  0  0
    2.3914   -0.1440    2.2349 H   0  0  0  0  0  0  0  0  0  0  0  0
    2.2063    1.9045    1.2503 H   0  0  0  0  0  0  0  0  0  0  0  0
    3.0173    4.0996    0.5673 H   0  0  0  0  0  0  0  0  0  0  0  0
    4.8631    4.3278   -0.9806 H   0  0  0  0  0  0  0  0  0  0  0  0
    6.8843    1.4895   -2.3171 H   0  0  0  0  0  0  0  0  0  0  0  0
    8.2998    2.8988   -3.5956 H   0  0  0  0  0  0  0  0  0  0  0  0
    8.8351    5.5693   -0.9876 H   0  0  0  0  0  0  0  0  0  0  0  0
   10.0673    7.5852   -1.3393 H   0  0  0  0  0  0  0  0  0  0  0  0
   13.2809    8.2792    0.4019 H   0  0  0  0  0  0  0  0  0  0  0  0
   14.5853   12.2637   -0.7045 H   0  0  0  0  0  0  0  0  0  0  0  0
   15.7194   15.5489   -1.9008 H   0  0  0  0  0  0  0  0  0  0  0  0
   16.1910   14.0220   -1.1358 H   0  0  0  0  0  0  0  0  0  0  0  0
   14.4972   14.6400   -1.0089 H   0  0  0  0  0  0  0  0  0  0  0  0
   12.0889   11.9934   -6.8936 H   0  0  0  0  0  0  0  0  0  0  0  0
   10.8514   12.6694   -5.8325 H   0  0  0  0  0  0  0  0  0  0  0  0
   12.3967   14.1383   -4.7500 H   0  0  0  0  0  0  0  0  0  0  0  0
   12.9800   14.1209   -6.4025 H   0  0  0  0  0  0  0  0  0  0  0  0
   11.3963    6.1312   -5.1601 H   0  0  0  0  0  0  0  0  0  0  0  0
   10.0326    4.0964   -4.8517 H   0  0  0  0  0  0  0  0  0  0  0  0
    5.2149    0.0223   -1.2143 H   0  0  0  0  0  0  0  0  0  0  0  0
  1  2  1  0  0  0  0
  1 36  1  0  0  0  0
  1 37  1  0  0  0  0
  1 38  1  0  0  0  0
  2  3  1  0  0  0  0
  3  4  1  0  0  0  0
  3 35  2  0  0  0  0
  4  5  2  0  0  0  0
  4 39  1  0  0  0  0
  5  6  1  0  0  0  0
  5 40  1  0  0  0  0
  6  7  2  0  0  0  0
  6 41  1  0  0  0  0
  7  8  1  0  0  0  0
  7 35  1  0  0  0  0
  8  9  1  0  0  0  0
  8 42  1  0  0  0  0
  9 10  2  0  0  0  0
  9 11  1  0  0  0  0
 11 12  1  0  0  0  0
 11 43  1  0  0  0  0
 12 13  1  0  0  0  0
 12 34  2  0  0  0  0
 13 14  2  0  0  0  0
 13 44  1  0  0  0  0
 14 15  1  0  0  0  0
 14 45  1  0  0  0  0
 15 16  1  0  0  0  0
 15 33  2  0  0  0  0
 16 17  1  0  0  0  0
 17 18  1  0  0  0  0
 17 28  2  0  0  0  0
 18 19  2  0  0  0  0
 19 20  1  0  0  0  0
 19 46  1  0  0  0  0
 20 21  2  0  0  0  0
 21 22  1  0  0  0  0
 21 28  1  0  0  0  0
 22 23  2  0  0  0  0
 22 47  1  0  0  0  0
 23 24  1  0  0  0  0
 23 26  1  0  0  0  0
 24 25  1  0  0  0  0
 25 48  1  0  0  0  0
 25 49  1  0  0  0  0
 25 50  1  0  0  0  0
 26 27  2  0  0  0  0
 26 32  1  0  0  0  0
 27 28  1  0  0  0  0
 27 29  1  0  0  0  0
 29 30  1  0  0  0  0
 30 31  1  0  0  0  0
 30 51  1  0  0  0  0
 30 52  1  0  0  0  0
 31 32  1  0  0  0  0
 31 53  1  0  0  0  0
 31 54  1  0  0  0  0
 33 34  1  0  0  0  0
 33 55  1  0  0  0  0
 34 56  1  0  0  0  0
 35 57  1  0  0  0  0
M  END
$$$$
