CHEMBL238720
 OpenBabel04072215363D

 48 50  0  0  0  0  0  0  0  0999 V2000
    2.2883    0.0441    0.0868 C   0  0  0  0  0  0  0  0  0  0  0  0
    0.8180   -0.1323    0.0346 C   0  0  0  0  0  0  0  0  0  0  0  0
    0.0284    0.9353   -0.1275 N   0  0  0  0  0  0  0  0  0  0  0  0
   -1.2456    0.4328   -0.2646 O   0  0  0  0  0  0  0  0  0  0  0  0
   -1.2268   -0.9280   -0.1793 C   0  0  0  0  0  0  0  0  0  0  0  0
   -2.3929   -1.5897   -0.3381 N   0  0  0  0  0  0  0  0  0  0  0  0
   -3.5930   -0.8594   -0.7163 C   0  0  0  0  0  0  0  0  0  0  0  0
   -4.5831   -1.8039   -1.3469 C   0  0  0  0  0  0  0  0  0  0  0  0
   -5.9341   -1.7663   -0.9887 C   0  0  0  0  0  0  0  0  0  0  0  0
   -6.8137   -2.6224   -1.6377 C   0  0  0  0  0  0  0  0  0  0  0  0
   -6.4438   -3.4920   -2.6005 N   0  0  0  0  0  0  0  0  0  0  0  0
   -5.1426   -3.5075   -2.9402 C   0  0  0  0  0  0  0  0  0  0  0  0
   -4.1877   -2.6883   -2.3559 C   0  0  0  0  0  0  0  0  0  0  0  0
    0.0700   -1.3421    0.0451 C   0  0  0  0  0  0  0  0  0  0  0  0
    0.5668   -2.6865    0.2291 C   0  0  0  0  0  0  0  0  0  0  0  0
    1.5175   -2.8998    0.9780 O   0  0  0  0  0  0  0  0  0  0  0  0
   -0.0294   -3.6481   -0.5766 N   0  0  0  0  0  0  0  0  0  0  0  0
    0.4147   -4.9883   -0.5914 C   0  0  0  0  0  0  0  0  0  0  0  0
    0.6735   -5.6796    0.5939 C   0  0  0  0  0  0  0  0  0  0  0  0
    1.1914   -6.9771    0.5583 C   0  0  0  0  0  0  0  0  0  0  0  0
    1.4870   -7.5967   -0.6631 C   0  0  0  0  0  0  0  0  0  0  0  0
    2.1454   -8.9668   -0.6699 C   0  0  0  0  0  0  0  0  0  0  0  0
    1.3242   -9.9968   -1.4474 C   0  0  0  0  0  0  0  0  0  0  0  0
    3.5784   -8.8965   -1.2061 C   0  0  0  0  0  0  0  0  0  0  0  0
    1.1896   -6.9056   -1.8486 C   0  0  0  0  0  0  0  0  0  0  0  0
    0.6255   -5.6236   -1.8145 C   0  0  0  0  0  0  0  0  0  0  0  0
    2.5651    1.1028    0.0389 H   0  0  0  0  0  0  0  0  0  0  0  0
    2.7531   -0.4559   -0.7703 H   0  0  0  0  0  0  0  0  0  0  0  0
    2.7061   -0.3750    1.0058 H   0  0  0  0  0  0  0  0  0  0  0  0
   -2.5538   -2.4665    0.1543 H   0  0  0  0  0  0  0  0  0  0  0  0
   -3.3672   -0.0854   -1.4617 H   0  0  0  0  0  0  0  0  0  0  0  0
   -4.0213   -0.3671    0.1636 H   0  0  0  0  0  0  0  0  0  0  0  0
   -6.3041   -1.0845   -0.2305 H   0  0  0  0  0  0  0  0  0  0  0  0
   -7.8710   -2.6230   -1.3936 H   0  0  0  0  0  0  0  0  0  0  0  0
   -4.8697   -4.2080   -3.7230 H   0  0  0  0  0  0  0  0  0  0  0  0
   -3.1574   -2.7367   -2.6896 H   0  0  0  0  0  0  0  0  0  0  0  0
   -0.4975   -3.2991   -1.4051 H   0  0  0  0  0  0  0  0  0  0  0  0
    0.4724   -5.2204    1.5586 H   0  0  0  0  0  0  0  0  0  0  0  0
    1.3850   -7.4881    1.4991 H   0  0  0  0  0  0  0  0  0  0  0  0
    2.2092   -9.3280    0.3656 H   0  0  0  0  0  0  0  0  0  0  0  0
    1.2191   -9.7276   -2.5035 H   0  0  0  0  0  0  0  0  0  0  0  0
    0.3186  -10.0916   -1.0234 H   0  0  0  0  0  0  0  0  0  0  0  0
    1.8008  -10.9823   -1.4026 H   0  0  0  0  0  0  0  0  0  0  0  0
    3.6092   -8.5726   -2.2520 H   0  0  0  0  0  0  0  0  0  0  0  0
    4.0605   -9.8788   -1.1471 H   0  0  0  0  0  0  0  0  0  0  0  0
    4.1827   -8.1943   -0.6208 H   0  0  0  0  0  0  0  0  0  0  0  0
    1.4226   -7.3494   -2.8141 H   0  0  0  0  0  0  0  0  0  0  0  0
    0.4388   -5.1078   -2.7518 H   0  0  0  0  0  0  0  0  0  0  0  0
  1  2  1  0  0  0  0
  1 27  1  0  0  0  0
  1 28  1  0  0  0  0
  1 29  1  0  0  0  0
  2  3  2  0  0  0  0
  2 14  1  0  0  0  0
  3  4  1  0  0  0  0
  4  5  1  0  0  0  0
  5  6  1  0  0  0  0
  5 14  2  0  0  0  0
  6  7  1  0  0  0  0
  6 30  1  0  0  0  0
  7  8  1  0  0  0  0
  7 31  1  0  0  0  0
  7 32  1  0  0  0  0
  8  9  1  0  0  0  0
  8 13  2  0  0  0  0
  9 10  2  0  0  0  0
  9 33  1  0  0  0  0
 10 11  1  0  0  0  0
 10 34  1  0  0  0  0
 11 12  2  0  0  0  0
 12 13  1  0  0  0  0
 12 35  1  0  0  0  0
 13 36  1  0  0  0  0
 14 15  1  0  0  0  0
 15 16  2  0  0  0  0
 15 17  1  0  0  0  0
 17 18  1  0  0  0  0
 17 37  1  0  0  0  0
 18 19  1  0  0  0  0
 18 26  2  0  0  0  0
 19 20  2  0  0  0  0
 19 38  1  0  0  0  0
 20 21  1  0  0  0  0
 20 39  1  0  0  0  0
 21 22  1  0  0  0  0
 21 25  2  0  0  0  0
 22 23  1  0  0  0  0
 22 24  1  0  0  0  0
 22 40  1  0  0  0  0
 23 41  1  0  0  0  0
 23 42  1  0  0  0  0
 23 43  1  0  0  0  0
 24 44  1  0  0  0  0
 24 45  1  0  0  0  0
 24 46  1  0  0  0  0
 25 26  1  0  0  0  0
 25 47  1  0  0  0  0
 26 48  1  0  0  0  0
M  END
$$$$
