CHEMBL2071206
 OpenBabel04072215363D

 49 52  0  0  1  0  0  0  0  0999 V2000
    6.7597   -1.3020   -3.9226 C   0  0  0  0  0  0  0  0  0  0  0  0
    6.8848   -0.7251   -2.6076 N   0  0  0  0  0  0  0  0  0  0  0  0
    6.1881   -1.2431   -1.5379 C   0  0  0  0  0  0  0  0  0  0  0  0
    5.5456   -2.2883   -1.6297 O   0  0  0  0  0  0  0  0  0  0  0  0
    6.3714   -0.4975   -0.2178 C   0  0  1  0  0  0  0  0  0  0  0  0
    6.3247    1.0498   -0.3606 C   0  0  2  0  0  0  0  0  0  0  0  0
    6.8470    1.6535    0.9275 C   0  0  0  0  0  0  0  0  0  0  0  0
    5.9242    1.4391    1.8750 C   0  0  0  0  0  0  0  0  0  0  0  0
    4.7893    0.6860    1.2174 C   0  0  1  0  0  0  0  0  0  0  0  0
    4.8363    1.3393   -0.1690 C   0  0  0  0  0  0  0  0  0  0  0  0
    5.2758   -0.7649    0.8945 C   0  0  1  0  0  0  0  0  0  0  0  0
    4.1288   -1.5450    0.4324 N   0  0  0  0  0  0  0  0  0  0  0  0
    3.1840   -1.9872    1.3537 C   0  0  0  0  0  0  0  0  0  0  0  0
    3.4734   -1.8923    2.6669 N   0  0  0  0  0  0  0  0  0  0  0  0
    2.5236   -2.2030    3.5634 C   0  0  0  0  0  0  0  0  0  0  0  0
    2.8604   -1.9736    4.8998 N   0  0  0  0  0  0  0  0  0  0  0  0
    2.0461   -1.7522    5.9511 C   0  0  0  0  0  0  0  0  0  0  0  0
    0.6707   -2.0155    6.1207 C   0  0  0  0  0  0  0  0  0  0  0  0
    0.2162   -1.5896    7.3063 N   0  0  0  0  0  0  0  0  0  0  0  0
    1.3081   -1.0613    7.8878 N   0  0  0  0  0  0  0  0  0  0  0  0
    1.2163   -0.4779    9.2037 C   0  0  0  0  0  0  0  0  0  0  0  0
    2.4341   -1.1438    7.1192 C   0  0  0  0  0  0  0  0  0  0  0  0
    1.3072   -2.6394    3.2203 N   0  0  0  0  0  0  0  0  0  0  0  0
    1.0503   -2.7417    1.9071 C   0  0  0  0  0  0  0  0  0  0  0  0
    1.9587   -2.4321    0.9157 C   0  0  0  0  0  0  0  0  0  0  0  0
    1.5118   -2.4902   -0.4997 C   0  0  0  0  0  0  0  0  0  0  0  0
    2.4706   -2.2918   -1.4421 F   0  0  0  0  0  0  0  0  0  0  0  0
    0.9574   -3.7007   -0.8037 F   0  0  0  0  0  0  0  0  0  0  0  0
    0.5346   -1.5753   -0.7676 F   0  0  0  0  0  0  0  0  0  0  0  0
    7.3902   -0.7367   -4.6140 H   0  0  0  0  0  0  0  0  0  0  0  0
    5.7150   -1.2430   -4.2419 H   0  0  0  0  0  0  0  0  0  0  0  0
    7.0740   -2.3479   -3.8958 H   0  0  0  0  0  0  0  0  0  0  0  0
    7.5999   -0.0272   -2.4569 H   0  0  0  0  0  0  0  0  0  0  0  0
    7.3537   -0.8090    0.1656 H   0  0  0  0  0  0  0  0  0  0  0  0
    6.7483    1.4992   -1.2586 H   0  0  0  0  0  0  0  0  0  0  0  0
    7.8042    2.1369    1.0586 H   0  0  0  0  0  0  0  0  0  0  0  0
    5.9749    1.7111    2.9150 H   0  0  0  0  0  0  0  0  0  0  0  0
    3.8257    0.7897    1.7195 H   0  0  0  0  0  0  0  0  0  0  0  0
    4.6014    2.4113   -0.1540 H   0  0  0  0  0  0  0  0  0  0  0  0
    4.1993    0.8515   -0.9153 H   0  0  0  0  0  0  0  0  0  0  0  0
    5.7571   -1.2394    1.7605 H   0  0  0  0  0  0  0  0  0  0  0  0
    4.3819   -2.2669   -0.2566 H   0  0  0  0  0  0  0  0  0  0  0  0
    3.8218   -1.6577    4.9162 H   0  0  0  0  0  0  0  0  0  0  0  0
   -0.0209   -2.4894    5.4371 H   0  0  0  0  0  0  0  0  0  0  0  0
    0.1919   -0.5655    9.5742 H   0  0  0  0  0  0  0  0  0  0  0  0
    1.5000    0.5753    9.1346 H   0  0  0  0  0  0  0  0  0  0  0  0
    1.9001   -1.0172    9.8635 H   0  0  0  0  0  0  0  0  0  0  0  0
    3.3809   -0.7475    7.4547 H   0  0  0  0  0  0  0  0  0  0  0  0
    0.0391   -3.0636    1.6671 H   0  0  0  0  0  0  0  0  0  0  0  0
  1  2  1  0  0  0  0
  1 30  1  0  0  0  0
  1 31  1  0  0  0  0
  1 32  1  0  0  0  0
  2  3  1  0  0  0  0
  2 33  1  0  0  0  0
  3  4  2  0  0  0  0
  3  5  1  0  0  0  0
  5  6  1  0  0  0  0
  5 11  1  0  0  0  0
  5 34  1  1  0  0  0
  6  7  1  0  0  0  0
  6 10  1  0  0  0  0
  6 35  1  6  0  0  0
  7  8  2  0  0  0  0
  7 36  1  0  0  0  0
  8  9  1  0  0  0  0
  8 37  1  0  0  0  0
  9 10  1  0  0  0  0
  9 11  1  0  0  0  0
  9 38  1  1  0  0  0
 10 39  1  0  0  0  0
 10 40  1  0  0  0  0
 11 12  1  0  0  0  0
 11 41  1  1  0  0  0
 12 13  1  0  0  0  0
 12 42  1  0  0  0  0
 13 14  1  0  0  0  0
 13 25  2  0  0  0  0
 14 15  2  0  0  0  0
 15 16  1  0  0  0  0
 15 23  1  0  0  0  0
 16 17  1  0  0  0  0
 16 43  1  0  0  0  0
 17 18  1  0  0  0  0
 17 22  2  0  0  0  0
 18 19  2  0  0  0  0
 18 44  1  0  0  0  0
 19 20  1  0  0  0  0
 20 21  1  0  0  0  0
 20 22  1  0  0  0  0
 21 45  1  0  0  0  0
 21 46  1  0  0  0  0
 21 47  1  0  0  0  0
 22 48  1  0  0  0  0
 23 24  2  0  0  0  0
 24 25  1  0  0  0  0
 24 49  1  0  0  0  0
 25 26  1  0  0  0  0
 26 27  1  0  0  0  0
 26 28  1  0  0  0  0
 26 29  1  0  0  0  0
M  END
$$$$
