CHEMBL400858
 OpenBabel04072215373D

 45 50  0  0  0  0  0  0  0  0999 V2000
   -1.3899    1.3901    2.0608 C   0  0  0  0  0  0  0  0  0  0  0  0
   -1.0334    0.4105    0.9827 C   0  0  0  0  0  0  0  0  0  0  0  0
   -2.0182   -0.4267    0.4211 C   0  0  0  0  0  0  0  0  0  0  0  0
   -1.7173   -1.3286   -0.6040 C   0  0  0  0  0  0  0  0  0  0  0  0
   -0.4290   -1.4194   -1.1361 C   0  0  0  0  0  0  0  0  0  0  0  0
    0.5310   -0.5723   -0.5862 C   0  0  0  0  0  0  0  0  0  0  0  0
    1.8516   -0.3606   -0.8830 N   0  0  0  0  0  0  0  0  0  0  0  0
    2.3501    0.5607   -0.0040 C   0  0  0  0  0  0  0  0  0  0  0  0
    3.7643    1.0181   -0.0266 C   0  0  0  0  0  0  0  0  0  0  0  0
    4.6408    0.6035   -0.9488 N   0  0  0  0  0  0  0  0  0  0  0  0
    5.7587    1.3026   -0.6504 N   0  0  0  0  0  0  0  0  0  0  0  0
    5.6664    2.0348    0.4793 C   0  0  0  0  0  0  0  0  0  0  0  0
    6.6390    2.7549    1.0626 N   0  0  0  0  0  0  0  0  0  0  0  0
    6.2442    3.3239    2.2226 C   0  0  0  0  0  0  0  0  0  0  0  0
    4.9721    3.2610    2.8026 C   0  0  0  0  0  0  0  0  0  0  0  0
    4.6689    3.9490    4.0711 C   0  0  0  0  0  0  0  0  0  0  0  0
    5.3435    5.1339    4.3973 C   0  0  0  0  0  0  0  0  0  0  0  0
    5.0926    5.8947    5.4833 N   0  0  0  0  0  0  0  0  0  0  0  0
    4.1060    5.4619    6.2908 C   0  0  0  0  0  0  0  0  0  0  0  0
    3.3639    4.2899    6.0980 C   0  0  0  0  0  0  0  0  0  0  0  0
    2.3494    3.8919    6.9738 C   0  0  0  0  0  0  0  0  0  0  0  0
    1.6318    2.7131    6.7627 C   0  0  0  0  0  0  0  0  0  0  0  0
    1.9397    1.9080    5.6794 C   0  0  0  0  0  0  0  0  0  0  0  0
    2.9526    2.2887    4.8336 C   0  0  0  0  0  0  0  0  0  0  0  0
    3.6773    3.4998    4.9713 C   0  0  0  0  0  0  0  0  0  0  0  0
    3.9951    2.5490    2.0850 C   0  0  0  0  0  0  0  0  0  0  0  0
    4.3563    1.8912    0.9237 C   0  0  0  0  0  0  0  0  0  0  0  0
    1.4223    0.9577    0.8459 N   0  0  0  0  0  0  0  0  0  0  0  0
    0.2740    0.3006    0.4669 C   0  0  0  0  0  0  0  0  0  0  0  0
   -2.4489    1.3295    2.3285 H   0  0  0  0  0  0  0  0  0  0  0  0
   -1.1870    2.4103    1.7203 H   0  0  0  0  0  0  0  0  0  0  0  0
   -0.7986    1.1905    2.9607 H   0  0  0  0  0  0  0  0  0  0  0  0
   -3.0415   -0.3783    0.7902 H   0  0  0  0  0  0  0  0  0  0  0  0
   -2.5053   -1.9627   -1.0050 H   0  0  0  0  0  0  0  0  0  0  0  0
   -0.1958   -2.1108   -1.9378 H   0  0  0  0  0  0  0  0  0  0  0  0
    2.3993   -0.8205   -1.5973 H   0  0  0  0  0  0  0  0  0  0  0  0
    6.5769    1.2224   -1.2364 H   0  0  0  0  0  0  0  0  0  0  0  0
    7.0390    3.8859    2.7120 H   0  0  0  0  0  0  0  0  0  0  0  0
    6.1215    5.5405    3.7606 H   0  0  0  0  0  0  0  0  0  0  0  0
    3.9124    6.1086    7.1419 H   0  0  0  0  0  0  0  0  0  0  0  0
    2.0943    4.5030    7.8385 H   0  0  0  0  0  0  0  0  0  0  0  0
    0.8467    2.4148    7.4414 H   0  0  0  0  0  0  0  0  0  0  0  0
    1.4023    0.9758    5.4952 H   0  0  0  0  0  0  0  0  0  0  0  0
    3.1724    1.5796    4.0431 H   0  0  0  0  0  0  0  0  0  0  0  0
    2.9716    2.4586    2.4153 H   0  0  0  0  0  0  0  0  0  0  0  0
  1  2  1  0  0  0  0
  1 30  1  0  0  0  0
  1 31  1  0  0  0  0
  1 32  1  0  0  0  0
  2  3  1  0  0  0  0
  2 29  2  0  0  0  0
  3  4  2  0  0  0  0
  3 33  1  0  0  0  0
  4  5  1  0  0  0  0
  4 34  1  0  0  0  0
  5  6  2  0  0  0  0
  5 35  1  0  0  0  0
  6  7  1  0  0  0  0
  6 29  1  0  0  0  0
  7  8  1  0  0  0  0
  7 36  1  0  0  0  0
  8  9  1  0  0  0  0
  8 28  2  0  0  0  0
  9 10  2  0  0  0  0
  9 27  1  0  0  0  0
 10 11  1  0  0  0  0
 11 12  1  0  0  0  0
 11 37  1  0  0  0  0
 12 13  1  0  0  0  0
 12 27  2  0  0  0  0
 13 14  2  0  0  0  0
 14 15  1  0  0  0  0
 14 38  1  0  0  0  0
 15 16  1  0  0  0  0
 15 26  2  0  0  0  0
 16 17  1  0  0  0  0
 16 25  2  0  0  0  0
 17 18  2  0  0  0  0
 17 39  1  0  0  0  0
 18 19  1  0  0  0  0
 19 20  2  0  0  0  0
 19 40  1  0  0  0  0
 20 21  1  0  0  0  0
 20 25  1  0  0  0  0
 21 22  2  0  0  0  0
 21 41  1  0  0  0  0
 22 23  1  0  0  0  0
 22 42  1  0  0  0  0
 23 24  2  0  0  0  0
 23 43  1  0  0  0  0
 24 25  1  0  0  0  0
 24 44  1  0  0  0  0
 26 27  1  0  0  0  0
 26 45  1  0  0  0  0
 28 29  1  0  0  0  0
M  END
$$$$
