CHEMBL3109349
 OpenBabel04072215363D

 58 62  0  0  1  0  0  0  0  0999 V2000
    1.4571   -5.3973    2.1930 C   0  0  0  0  0  0  0  0  0  0  0  0
    2.8446   -5.0976    2.1032 O   0  0  0  0  0  0  0  0  0  0  0  0
    3.2304   -4.8356    0.7559 C   0  0  0  0  0  0  0  0  0  0  0  0
    4.7162   -4.5220    0.7007 C   0  0  0  0  0  0  0  0  0  0  0  0
    5.0842   -4.2539   -0.6576 O   0  0  0  0  0  0  0  0  0  0  0  0
    6.4178   -3.9784   -0.8896 C   0  0  0  0  0  0  0  0  0  0  0  0
    7.3494   -3.9140    0.2331 C   0  0  0  0  0  0  0  0  0  0  0  0
    8.6439   -3.7138    0.0059 C   0  0  0  0  0  0  0  0  0  0  0  0
    9.1092   -3.5561   -1.3027 N   0  0  0  0  0  0  0  0  0  0  0  0
   10.3733   -3.3052   -1.7928 C   0  0  0  0  0  0  0  0  0  0  0  0
   11.5808   -3.0884   -1.0097 C   0  0  0  0  0  0  0  0  0  0  0  0
   12.5919   -2.2781   -1.4955 C   0  0  0  0  0  0  0  0  0  0  0  0
   13.7506   -2.1507   -0.7486 C   0  0  0  0  0  0  0  0  0  0  0  0
   13.8820   -2.8458    0.4554 C   0  0  0  0  0  0  0  0  0  0  0  0
   15.0661   -2.7391    1.1973 C   0  0  0  0  0  0  0  0  0  0  0  0
   15.2189   -3.4411    2.3850 C   0  0  0  0  0  0  0  0  0  0  0  0
   14.1807   -4.2448    2.8433 C   0  0  0  0  0  0  0  0  0  0  0  0
   12.9797   -4.3372    2.1215 C   0  0  0  0  0  0  0  0  0  0  0  0
   11.9245   -5.1276    2.5266 O   0  0  0  0  0  0  0  0  0  0  0  0
   11.7398   -5.2896    3.9366 C   0  0  0  0  0  0  0  0  0  0  0  0
   10.5040   -6.1703    4.1829 C   0  0  3  0  0  0  0  0  0  0  0  0
    9.2391   -5.5161    3.5820 C   0  0  0  0  0  0  0  0  0  0  0  0
    8.0160   -6.3072    3.8325 N   0  0  0  0  0  0  0  0  0  0  0  0
    7.9100   -6.5586    5.2818 C   0  0  0  0  0  0  0  0  0  0  0  0
    9.1874   -7.1884    5.8578 C   0  0  0  0  0  0  0  0  0  0  0  0
   10.3331   -6.3614    5.6036 O   0  0  0  0  0  0  0  0  0  0  0  0
   12.8091   -3.6544    0.8986 C   0  0  0  0  0  0  0  0  0  0  0  0
   11.6711   -3.7526    0.1645 N   0  0  0  0  0  0  0  0  0  0  0  0
   10.2040   -3.2605   -3.1662 C   0  0  0  0  0  0  0  0  0  0  0  0
    8.8998   -3.4360   -3.5348 N   0  0  0  0  0  0  0  0  0  0  0  0
    8.2487   -3.6061   -2.4029 C   0  0  0  0  0  0  0  0  0  0  0  0
    6.8652   -3.8272   -2.1549 C   0  0  0  0  0  0  0  0  0  0  0  0
    1.2127   -5.5978    3.2394 H   0  0  0  0  0  0  0  0  0  0  0  0
    1.2172   -6.2870    1.6024 H   0  0  0  0  0  0  0  0  0  0  0  0
    0.8596   -4.5466    1.8514 H   0  0  0  0  0  0  0  0  0  0  0  0
    2.6575   -3.9888    0.3576 H   0  0  0  0  0  0  0  0  0  0  0  0
    3.0210   -5.7081    0.1293 H   0  0  0  0  0  0  0  0  0  0  0  0
    5.2757   -5.3812    1.0916 H   0  0  0  0  0  0  0  0  0  0  0  0
    4.9318   -3.6504    1.3304 H   0  0  0  0  0  0  0  0  0  0  0  0
    7.0014   -4.0657    1.2474 H   0  0  0  0  0  0  0  0  0  0  0  0
    9.3764   -3.6817    0.8063 H   0  0  0  0  0  0  0  0  0  0  0  0
   12.4916   -1.7538   -2.4404 H   0  0  0  0  0  0  0  0  0  0  0  0
   14.5543   -1.5209   -1.1208 H   0  0  0  0  0  0  0  0  0  0  0  0
   15.8844   -2.1126    0.8479 H   0  0  0  0  0  0  0  0  0  0  0  0
   16.1426   -3.3608    2.9524 H   0  0  0  0  0  0  0  0  0  0  0  0
   14.3434   -4.7892    3.7687 H   0  0  0  0  0  0  0  0  0  0  0  0
   11.5951   -4.3126    4.4144 H   0  0  0  0  0  0  0  0  0  0  0  0
   12.6130   -5.7733    4.3899 H   0  0  0  0  0  0  0  0  0  0  0  0
   10.6641   -7.1538    3.7212 H   0  0  0  0  0  0  0  0  0  0  0  0
    9.3550   -5.3852    2.5016 H   0  0  0  0  0  0  0  0  0  0  0  0
    9.0928   -4.5196    4.0168 H   0  0  0  0  0  0  0  0  0  0  0  0
    8.1157   -7.2043    3.3553 H   0  0  0  0  0  0  0  0  0  0  0  0
    7.0535   -7.2144    5.4708 H   0  0  0  0  0  0  0  0  0  0  0  0
    7.7100   -5.6068    5.7885 H   0  0  0  0  0  0  0  0  0  0  0  0
    9.3633   -8.1847    5.4341 H   0  0  0  0  0  0  0  0  0  0  0  0
    9.0926   -7.3010    6.9424 H   0  0  0  0  0  0  0  0  0  0  0  0
   10.9714   -3.0933   -3.9132 H   0  0  0  0  0  0  0  0  0  0  0  0
    6.1967   -3.9018   -3.0035 H   0  0  0  0  0  0  0  0  0  0  0  0
  1  2  1  0  0  0  0
  1 33  1  0  0  0  0
  1 34  1  0  0  0  0
  1 35  1  0  0  0  0
  2  3  1  0  0  0  0
  3  4  1  0  0  0  0
  3 36  1  0  0  0  0
  3 37  1  0  0  0  0
  4  5  1  0  0  0  0
  4 38  1  0  0  0  0
  4 39  1  0  0  0  0
  5  6  1  0  0  0  0
  6  7  1  0  0  0  0
  6 32  2  0  0  0  0
  7  8  2  0  0  0  0
  7 40  1  0  0  0  0
  8  9  1  0  0  0  0
  8 41  1  0  0  0  0
  9 10  1  0  0  0  0
  9 31  1  0  0  0  0
 10 11  1  0  0  0  0
 10 29  2  0  0  0  0
 11 12  1  0  0  0  0
 11 28  2  0  0  0  0
 12 13  2  0  0  0  0
 12 42  1  0  0  0  0
 13 14  1  0  0  0  0
 13 43  1  0  0  0  0
 14 15  1  0  0  0  0
 14 27  2  0  0  0  0
 15 16  2  0  0  0  0
 15 44  1  0  0  0  0
 16 17  1  0  0  0  0
 16 45  1  0  0  0  0
 17 18  2  0  0  0  0
 17 46  1  0  0  0  0
 18 19  1  0  0  0  0
 18 27  1  0  0  0  0
 19 20  1  0  0  0  0
 20 21  1  0  0  0  0
 20 47  1  0  0  0  0
 20 48  1  0  0  0  0
 21 22  1  0  0  0  0
 21 26  1  0  0  0  0
 21 49  1  0  0  0  0
 22 23  1  0  0  0  0
 22 50  1  0  0  0  0
 22 51  1  0  0  0  0
 23 24  1  0  0  0  0
 23 52  1  0  0  0  0
 24 25  1  0  0  0  0
 24 53  1  0  0  0  0
 24 54  1  0  0  0  0
 25 26  1  0  0  0  0
 25 55  1  0  0  0  0
 25 56  1  0  0  0  0
 27 28  1  0  0  0  0
 29 30  1  0  0  0  0
 29 57  1  0  0  0  0
 30 31  2  0  0  0  0
 31 32  1  0  0  0  0
 32 58  1  0  0  0  0
M  END
$$$$
