CHEMBL1929553
 OpenBabel04072215363D

 44 47  0  0  0  0  0  0  0  0999 V2000
    0.1716   -1.9345   -2.7271 C   0  0  0  0  0  0  0  0  0  0  0  0
   -0.0247   -0.9749   -1.5854 C   0  0  0  0  0  0  0  0  0  0  0  0
   -0.7078    0.2292   -1.8477 C   0  0  0  0  0  0  0  0  0  0  0  0
   -0.9188    1.1716   -0.8435 C   0  0  0  0  0  0  0  0  0  0  0  0
   -0.4416    0.9290    0.4374 C   0  0  0  0  0  0  0  0  0  0  0  0
    0.2495   -0.2526    0.7126 C   0  0  0  0  0  0  0  0  0  0  0  0
    0.4674   -1.2236   -0.2848 C   0  0  0  0  0  0  0  0  0  0  0  0
    1.2512   -2.4771    0.0852 C   0  0  0  0  0  0  0  0  0  0  0  0
    2.7271   -2.2929   -0.0781 C   0  0  0  0  0  0  0  0  0  0  0  0
    3.5778   -2.6341   -1.1170 C   0  0  0  0  0  0  0  0  0  0  0  0
    4.7991   -1.9287   -0.9166 C   0  0  0  0  0  0  0  0  0  0  0  0
    5.9575   -1.6600   -1.6596 C   0  0  0  0  0  0  0  0  0  0  0  0
    6.1965   -2.2280   -2.9196 N   0  0  0  0  0  0  0  0  0  0  0  0
    6.8194   -1.6152   -4.0213 C   0  0  0  0  0  0  0  0  0  0  0  0
    7.3554   -2.4198   -5.0442 C   0  0  0  0  0  0  0  0  0  0  0  0
    8.0314   -1.8436   -6.1212 C   0  0  0  0  0  0  0  0  0  0  0  0
    8.1823   -0.4580   -6.1888 C   0  0  0  0  0  0  0  0  0  0  0  0
    9.0231    0.2521   -7.5101 Cl  0  0  0  0  0  0  0  0  0  0  0  0
    7.6598    0.3534   -5.1896 C   0  0  0  0  0  0  0  0  0  0  0  0
    6.9920   -0.2268   -4.1100 C   0  0  0  0  0  0  0  0  0  0  0  0
    6.8352   -0.7586   -1.1442 N   0  0  0  0  0  0  0  0  0  0  0  0
    6.5829   -0.1648    0.0271 C   0  0  0  0  0  0  0  0  0  0  0  0
    7.4481    0.8489    0.3855 N   0  0  0  0  0  0  0  0  0  0  0  0
    5.5649   -0.4313    0.8495 N   0  0  0  0  0  0  0  0  0  0  0  0
    4.6935   -1.2910    0.3067 C   0  0  0  0  0  0  0  0  0  0  0  0
    3.4888   -1.6276    0.8583 N   0  0  0  0  0  0  0  0  0  0  0  0
   -0.4259   -1.6418   -3.5985 H   0  0  0  0  0  0  0  0  0  0  0  0
   -0.1552   -2.9404   -2.4499 H   0  0  0  0  0  0  0  0  0  0  0  0
    1.2193   -1.9534   -3.0365 H   0  0  0  0  0  0  0  0  0  0  0  0
   -1.0817    0.4416   -2.8472 H   0  0  0  0  0  0  0  0  0  0  0  0
   -1.4510    2.0937   -1.0649 H   0  0  0  0  0  0  0  0  0  0  0  0
   -0.5970    1.6641    1.2225 H   0  0  0  0  0  0  0  0  0  0  0  0
    0.6219   -0.4108    1.7215 H   0  0  0  0  0  0  0  0  0  0  0  0
    0.9115   -3.3299   -0.5122 H   0  0  0  0  0  0  0  0  0  0  0  0
    1.0246   -2.7479    1.1247 H   0  0  0  0  0  0  0  0  0  0  0  0
    3.2921   -3.1860   -2.0026 H   0  0  0  0  0  0  0  0  0  0  0  0
    5.5562   -2.9680   -3.1694 H   0  0  0  0  0  0  0  0  0  0  0  0
    7.2668   -3.5012   -4.9877 H   0  0  0  0  0  0  0  0  0  0  0  0
    8.4533   -2.4768   -6.8935 H   0  0  0  0  0  0  0  0  0  0  0  0
    7.7691    1.4331   -5.2302 H   0  0  0  0  0  0  0  0  0  0  0  0
    6.5906    0.4281   -3.3405 H   0  0  0  0  0  0  0  0  0  0  0  0
    8.3151    0.7587   -0.1248 H   0  0  0  0  0  0  0  0  0  0  0  0
    7.4844    0.9645    1.3860 H   0  0  0  0  0  0  0  0  0  0  0  0
    3.1682   -1.2705    1.7462 H   0  0  0  0  0  0  0  0  0  0  0  0
  1  2  1  0  0  0  0
  1 27  1  0  0  0  0
  1 28  1  0  0  0  0
  1 29  1  0  0  0  0
  2  3  1  0  0  0  0
  2  7  2  0  0  0  0
  3  4  2  0  0  0  0
  3 30  1  0  0  0  0
  4  5  1  0  0  0  0
  4 31  1  0  0  0  0
  5  6  2  0  0  0  0
  5 32  1  0  0  0  0
  6  7  1  0  0  0  0
  6 33  1  0  0  0  0
  7  8  1  0  0  0  0
  8  9  1  0  0  0  0
  8 34  1  0  0  0  0
  8 35  1  0  0  0  0
  9 10  2  0  0  0  0
  9 26  1  0  0  0  0
 10 11  1  0  0  0  0
 10 36  1  0  0  0  0
 11 12  1  0  0  0  0
 11 25  2  0  0  0  0
 12 13  1  0  0  0  0
 12 21  2  0  0  0  0
 13 14  1  0  0  0  0
 13 37  1  0  0  0  0
 14 15  1  0  0  0  0
 14 20  2  0  0  0  0
 15 16  2  0  0  0  0
 15 38  1  0  0  0  0
 16 17  1  0  0  0  0
 16 39  1  0  0  0  0
 17 18  1  0  0  0  0
 17 19  2  0  0  0  0
 19 20  1  0  0  0  0
 19 40  1  0  0  0  0
 20 41  1  0  0  0  0
 21 22  1  0  0  0  0
 22 23  1  0  0  0  0
 22 24  2  0  0  0  0
 23 42  1  0  0  0  0
 23 43  1  0  0  0  0
 24 25  1  0  0  0  0
 25 26  1  0  0  0  0
 26 44  1  0  0  0  0
M  END
$$$$
