CHEMBL3656046
 OpenBabel04072215373D

 54 57  0  0  0  0  0  0  0  0999 V2000
    0.2769    0.6995   -1.9528 C   0  0  0  0  0  0  0  0  0  0  0  0
    1.5227    0.7679   -1.1228 C   0  0  0  0  0  0  0  0  0  0  0  0
    2.0407    1.9989   -0.5987 C   0  0  0  0  0  0  0  0  0  0  0  0
    3.1912    1.8233    0.1313 C   0  0  0  0  0  0  0  0  0  0  0  0
    3.6576    0.1867    0.1987 S   0  0  0  0  0  0  0  0  0  0  0  0
    2.3219   -0.3170   -0.7595 C   0  0  0  0  0  0  0  0  0  0  0  0
    2.1308   -1.7317   -1.1127 C   0  0  0  0  0  0  0  0  0  0  0  0
    1.2256   -2.0777   -1.8680 O   0  0  0  0  0  0  0  0  0  0  0  0
    3.0133   -2.6260   -0.5078 N   0  0  0  0  0  0  0  0  0  0  0  0
    3.0432   -4.0316   -0.6614 C   0  0  0  0  0  0  0  0  0  0  0  0
    2.3348   -4.6975   -1.6644 C   0  0  0  0  0  0  0  0  0  0  0  0
    2.3001   -6.0899   -1.7091 C   0  0  0  0  0  0  0  0  0  0  0  0
    2.9970   -6.8360   -0.7655 C   0  0  0  0  0  0  0  0  0  0  0  0
    3.8170   -6.1920    0.1643 C   0  0  0  0  0  0  0  0  0  0  0  0
    4.6049   -6.8627    1.0822 O   0  0  0  0  0  0  0  0  0  0  0  0
    5.1089   -8.1103    0.7672 C   0  0  0  0  0  0  0  0  0  0  0  0
    5.5405   -8.4724   -0.5070 C   0  0  0  0  0  0  0  0  0  0  0  0
    5.9707   -9.7710   -0.7066 C   0  0  0  0  0  0  0  0  0  0  0  0
    6.0562  -10.6920    0.2747 N   0  0  0  0  0  0  0  0  0  0  0  0
    5.7041  -10.2970    1.5231 C   0  0  0  0  0  0  0  0  0  0  0  0
    5.8540  -11.3443    2.5296 C   0  0  0  0  0  0  0  0  0  0  0  0
    5.6312  -11.3694    3.8971 C   0  0  0  0  0  0  0  0  0  0  0  0
    5.8621  -12.6970    4.3754 C   0  0  0  0  0  0  0  0  0  0  0  0
    5.6519  -13.2353    5.7118 C   0  0  0  0  0  0  0  0  0  0  0  0
    5.7890  -14.4192    5.9939 O   0  0  0  0  0  0  0  0  0  0  0  0
    5.2055  -12.2866    6.5848 O   0  0  0  0  0  0  0  0  0  0  0  0
    4.5231  -12.7920    7.7461 C   0  0  0  0  0  0  0  0  0  0  0  0
    5.4704  -13.3321    8.8131 C   0  0  0  0  0  0  0  0  0  0  0  0
    6.3307  -12.2993    9.2858 O   0  0  0  0  0  0  0  0  0  0  0  0
    6.2754  -13.4346    3.2760 C   0  0  0  0  0  0  0  0  0  0  0  0
    6.2677  -12.6125    2.1819 N   0  0  0  0  0  0  0  0  0  0  0  0
    5.2262   -9.0249    1.8124 C   0  0  0  0  0  0  0  0  0  0  0  0
    3.8165   -4.7905    0.2334 C   0  0  0  0  0  0  0  0  0  0  0  0
   -0.1954    1.6850   -2.0345 H   0  0  0  0  0  0  0  0  0  0  0  0
   -0.4550    0.0213   -1.5027 H   0  0  0  0  0  0  0  0  0  0  0  0
    0.5065    0.3571   -2.9667 H   0  0  0  0  0  0  0  0  0  0  0  0
    1.5843    2.9700   -0.7556 H   0  0  0  0  0  0  0  0  0  0  0  0
    3.7797    2.5831    0.6269 H   0  0  0  0  0  0  0  0  0  0  0  0
    3.6304   -2.2249    0.1884 H   0  0  0  0  0  0  0  0  0  0  0  0
    1.7894   -4.1593   -2.4329 H   0  0  0  0  0  0  0  0  0  0  0  0
    1.7197   -6.5901   -2.4806 H   0  0  0  0  0  0  0  0  0  0  0  0
    2.9060   -7.9174   -0.7892 H   0  0  0  0  0  0  0  0  0  0  0  0
    5.5188   -7.7796   -1.3397 H   0  0  0  0  0  0  0  0  0  0  0  0
    6.2612  -10.1162   -1.6948 H   0  0  0  0  0  0  0  0  0  0  0  0
    5.2899  -10.5339    4.4970 H   0  0  0  0  0  0  0  0  0  0  0  0
    3.7935  -13.5515    7.4417 H   0  0  0  0  0  0  0  0  0  0  0  0
    3.9623  -11.9434    8.1528 H   0  0  0  0  0  0  0  0  0  0  0  0
    6.0955  -14.1496    8.4463 H   0  0  0  0  0  0  0  0  0  0  0  0
    4.8907  -13.7013    9.6650 H   0  0  0  0  0  0  0  0  0  0  0  0
    6.8702  -12.0180    8.5255 H   0  0  0  0  0  0  0  0  0  0  0  0
    6.5468  -14.4798    3.1873 H   0  0  0  0  0  0  0  0  0  0  0  0
    6.4897  -12.8766    1.2310 H   0  0  0  0  0  0  0  0  0  0  0  0
    4.9388   -8.7463    2.8190 H   0  0  0  0  0  0  0  0  0  0  0  0
    4.4053   -4.3046    1.0066 H   0  0  0  0  0  0  0  0  0  0  0  0
  1  2  1  0  0  0  0
  1 34  1  0  0  0  0
  1 35  1  0  0  0  0
  1 36  1  0  0  0  0
  2  3  1  0  0  0  0
  2  6  2  0  0  0  0
  3  4  2  0  0  0  0
  3 37  1  0  0  0  0
  4  5  1  0  0  0  0
  4 38  1  0  0  0  0
  5  6  1  0  0  0  0
  6  7  1  0  0  0  0
  7  8  2  0  0  0  0
  7  9  1  0  0  0  0
  9 10  1  0  0  0  0
  9 39  1  0  0  0  0
 10 11  1  0  0  0  0
 10 33  2  0  0  0  0
 11 12  2  0  0  0  0
 11 40  1  0  0  0  0
 12 13  1  0  0  0  0
 12 41  1  0  0  0  0
 13 14  2  0  0  0  0
 13 42  1  0  0  0  0
 14 15  1  0  0  0  0
 14 33  1  0  0  0  0
 15 16  1  0  0  0  0
 16 17  1  0  0  0  0
 16 32  2  0  0  0  0
 17 18  2  0  0  0  0
 17 43  1  0  0  0  0
 18 19  1  0  0  0  0
 18 44  1  0  0  0  0
 19 20  2  0  0  0  0
 20 21  1  0  0  0  0
 20 32  1  0  0  0  0
 21 22  2  0  0  0  0
 21 31  1  0  0  0  0
 22 23  1  0  0  0  0
 22 45  1  0  0  0  0
 23 24  1  0  0  0  0
 23 30  2  0  0  0  0
 24 25  2  0  0  0  0
 24 26  1  0  0  0  0
 26 27  1  0  0  0  0
 27 28  1  0  0  0  0
 27 46  1  0  0  0  0
 27 47  1  0  0  0  0
 28 29  1  0  0  0  0
 28 48  1  0  0  0  0
 28 49  1  0  0  0  0
 29 50  1  0  0  0  0
 30 31  1  0  0  0  0
 30 51  1  0  0  0  0
 31 52  1  0  0  0  0
 32 53  1  0  0  0  0
 33 54  1  0  0  0  0
M  END
$$$$
