CHEMBL1688356
 OpenBabel04072215363D

 54 59  0  0  0  0  0  0  0  0999 V2000
    1.3965   -0.2429    0.0290 C   0  0  0  0  0  0  0  0  0  0  0  0
    0.5835   -1.3592   -0.0923 C   0  0  0  0  0  0  0  0  0  0  0  0
   -0.7938   -1.2015   -0.2047 C   0  0  0  0  0  0  0  0  0  0  0  0
   -1.3924    0.0786   -0.1685 C   0  0  0  0  0  0  0  0  0  0  0  0
   -2.8544    0.1706   -0.2442 C   0  0  0  0  0  0  0  0  0  0  0  0
   -3.6110    1.0866   -0.8241 N   0  0  0  0  0  0  0  0  0  0  0  0
   -4.9390    0.7392   -0.6356 N   0  0  0  0  0  0  0  0  0  0  0  0
   -4.9718   -0.3410    0.1074 C   0  0  0  0  0  0  0  0  0  0  0  0
   -6.0241   -1.0576    0.5615 N   0  0  0  0  0  0  0  0  0  0  0  0
   -6.1730   -1.6538    1.8381 C   0  0  0  0  0  0  0  0  0  0  0  0
   -5.2657   -1.4779    2.8922 C   0  0  0  0  0  0  0  0  0  0  0  0
   -5.4584   -2.1147    4.1259 C   0  0  0  0  0  0  0  0  0  0  0  0
   -6.5659   -2.9319    4.3293 C   0  0  0  0  0  0  0  0  0  0  0  0
   -7.4494   -3.1562    3.2784 C   0  0  0  0  0  0  0  0  0  0  0  0
   -7.2534   -2.5263    2.0452 C   0  0  0  0  0  0  0  0  0  0  0  0
   -8.5198   -4.0034    3.3771 O   0  0  0  0  0  0  0  0  0  0  0  0
   -8.9482   -4.1471    4.7304 C   0  0  0  0  0  0  0  0  0  0  0  0
   -7.8036   -4.3648    5.7109 C   0  0  0  0  0  0  0  0  0  0  0  0
   -6.7208   -3.4433    5.5829 O   0  0  0  0  0  0  0  0  0  0  0  0
   -3.6890   -0.7660    0.3089 N   0  0  0  0  0  0  0  0  0  0  0  0
   -0.5648    1.2145    0.0111 C   0  0  0  0  0  0  0  0  0  0  0  0
   -1.1285    2.4831    0.1589 N   0  0  0  0  0  0  0  0  0  0  0  0
   -0.4225    3.5358    0.8694 C   0  0  0  0  0  0  0  0  0  0  0  0
   -1.3738    4.6183    1.3342 C   0  0  0  0  0  0  0  0  0  0  0  0
   -2.7288    4.3482    1.5909 C   0  0  0  0  0  0  0  0  0  0  0  0
   -3.6219    5.3509    1.9810 C   0  0  0  0  0  0  0  0  0  0  0  0
   -3.1013    6.6319    2.1515 C   0  0  0  0  0  0  0  0  0  0  0  0
   -3.6884    7.8256    2.4654 N   0  0  0  0  0  0  0  0  0  0  0  0
   -2.8218    8.8406    2.6405 N   0  0  0  0  0  0  0  0  0  0  0  0
   -1.6394    8.2848    2.3614 C   0  0  0  0  0  0  0  0  0  0  0  0
   -1.7461    6.9233    2.0013 C   0  0  0  0  0  0  0  0  0  0  0  0
   -0.8681    5.9116    1.5808 C   0  0  0  0  0  0  0  0  0  0  0  0
    0.8257    1.0266    0.0771 C   0  0  0  0  0  0  0  0  0  0  0  0
    2.4760   -0.3549    0.0900 H   0  0  0  0  0  0  0  0  0  0  0  0
    1.0214   -2.3542   -0.1105 H   0  0  0  0  0  0  0  0  0  0  0  0
   -1.4036   -2.0935   -0.3179 H   0  0  0  0  0  0  0  0  0  0  0  0
   -6.9232   -0.8055    0.1520 H   0  0  0  0  0  0  0  0  0  0  0  0
   -4.4133   -0.8103    2.8071 H   0  0  0  0  0  0  0  0  0  0  0  0
   -4.7480   -1.9550    4.9337 H   0  0  0  0  0  0  0  0  0  0  0  0
   -7.9683   -2.7107    1.2469 H   0  0  0  0  0  0  0  0  0  0  0  0
   -9.5411   -3.2655    5.0002 H   0  0  0  0  0  0  0  0  0  0  0  0
   -9.6190   -5.0133    4.7682 H   0  0  0  0  0  0  0  0  0  0  0  0
   -7.3981   -5.3790    5.6234 H   0  0  0  0  0  0  0  0  0  0  0  0
   -8.1935   -4.2580    6.7294 H   0  0  0  0  0  0  0  0  0  0  0  0
   -3.4254   -1.5941    0.8051 H   0  0  0  0  0  0  0  0  0  0  0  0
   -1.6581    2.7816   -0.6573 H   0  0  0  0  0  0  0  0  0  0  0  0
    0.3379    3.9744    0.2126 H   0  0  0  0  0  0  0  0  0  0  0  0
    0.0692    3.1361    1.7647 H   0  0  0  0  0  0  0  0  0  0  0  0
   -3.1126    3.3347    1.4652 H   0  0  0  0  0  0  0  0  0  0  0  0
   -4.6720    5.1297    2.1380 H   0  0  0  0  0  0  0  0  0  0  0  0
   -4.6789    8.0123    2.5688 H   0  0  0  0  0  0  0  0  0  0  0  0
   -0.7463    8.8918    2.4289 H   0  0  0  0  0  0  0  0  0  0  0  0
    0.1862    6.1318    1.4368 H   0  0  0  0  0  0  0  0  0  0  0  0
    1.4960    1.8781    0.1653 H   0  0  0  0  0  0  0  0  0  0  0  0
  1  2  1  0  0  0  0
  1 33  2  0  0  0  0
  1 34  1  0  0  0  0
  2  3  2  0  0  0  0
  2 35  1  0  0  0  0
  3  4  1  0  0  0  0
  3 36  1  0  0  0  0
  4  5  1  0  0  0  0
  4 21  2  0  0  0  0
  5  6  2  0  0  0  0
  5 20  1  0  0  0  0
  6  7  1  0  0  0  0
  7  8  2  0  0  0  0
  8  9  1  0  0  0  0
  8 20  1  0  0  0  0
  9 10  1  0  0  0  0
  9 37  1  0  0  0  0
 10 11  1  0  0  0  0
 10 15  2  0  0  0  0
 11 12  2  0  0  0  0
 11 38  1  0  0  0  0
 12 13  1  0  0  0  0
 12 39  1  0  0  0  0
 13 14  2  0  0  0  0
 13 19  1  0  0  0  0
 14 15  1  0  0  0  0
 14 16  1  0  0  0  0
 15 40  1  0  0  0  0
 16 17  1  0  0  0  0
 17 18  1  0  0  0  0
 17 41  1  0  0  0  0
 17 42  1  0  0  0  0
 18 19  1  0  0  0  0
 18 43  1  0  0  0  0
 18 44  1  0  0  0  0
 20 45  1  0  0  0  0
 21 22  1  0  0  0  0
 21 33  1  0  0  0  0
 22 23  1  0  0  0  0
 22 46  1  0  0  0  0
 23 24  1  0  0  0  0
 23 47  1  0  0  0  0
 23 48  1  0  0  0  0
 24 25  1  0  0  0  0
 24 32  2  0  0  0  0
 25 26  2  0  0  0  0
 25 49  1  0  0  0  0
 26 27  1  0  0  0  0
 26 50  1  0  0  0  0
 27 28  1  0  0  0  0
 27 31  2  0  0  0  0
 28 29  1  0  0  0  0
 28 51  1  0  0  0  0
 29 30  2  0  0  0  0
 30 31  1  0  0  0  0
 30 52  1  0  0  0  0
 31 32  1  0  0  0  0
 32 53  1  0  0  0  0
 33 54  1  0  0  0  0
M  END
$$$$
