CHEMBL305194
 OpenBabel04072215363D

 42 45  0  0  0  0  0  0  0  0999 V2000
   -2.3846   -0.7445    0.0553 C   0  0  0  0  0  0  0  0  0  0  0  0
   -1.0229   -0.1462    0.0103 C   0  0  0  0  0  0  0  0  0  0  0  0
   -0.7642    1.2478   -0.0324 C   0  0  0  0  0  0  0  0  0  0  0  0
    0.6026    1.4557   -0.0653 C   0  0  0  0  0  0  0  0  0  0  0  0
    1.2513    2.7539   -0.1073 C   0  0  0  0  0  0  0  0  0  0  0  0
    0.6602    3.8263   -0.1195 O   0  0  0  0  0  0  0  0  0  0  0  0
    2.6029    2.6932   -0.1287 O   0  0  0  0  0  0  0  0  0  0  0  0
    1.1667    0.1975   -0.0519 N   0  0  0  0  0  0  0  0  0  0  0  0
    0.2087   -0.7925    0.0038 C   0  0  0  0  0  0  0  0  0  0  0  0
    0.5295   -2.1847    0.0432 C   0  0  0  0  0  0  0  0  0  0  0  0
    1.7225   -2.8072    0.0590 C   0  0  0  0  0  0  0  0  0  0  0  0
    3.1188   -2.2277    0.0283 C   0  0  0  0  0  0  0  0  0  0  0  0
    3.4399   -1.0576   -0.0790 O   0  0  0  0  0  0  0  0  0  0  0  0
    3.9682   -3.3071    0.1365 N   0  0  0  0  0  0  0  0  0  0  0  0
    3.2721   -4.5030    0.1970 C   0  0  0  0  0  0  0  0  0  0  0  0
    3.8880   -5.6849    0.2435 N   0  0  0  0  0  0  0  0  0  0  0  0
    3.0441   -6.7176    0.2144 C   0  0  0  0  0  0  0  0  0  0  0  0
    1.7061   -6.6331    0.1214 N   0  0  0  0  0  0  0  0  0  0  0  0
    1.1382   -5.4041    0.0493 C   0  0  0  0  0  0  0  0  0  0  0  0
   -0.2558   -5.3367   -0.1610 N   0  0  0  0  0  0  0  0  0  0  0  0
   -0.9655   -6.2634   -0.9606 C   0  0  0  0  0  0  0  0  0  0  0  0
   -2.3118   -6.5484   -0.7028 C   0  0  0  0  0  0  0  0  0  0  0  0
   -3.0116   -7.4472   -1.5160 C   0  0  0  0  0  0  0  0  0  0  0  0
   -2.3764   -8.0431   -2.6027 C   0  0  0  0  0  0  0  0  0  0  0  0
   -3.0648   -8.9099   -3.3592 F   0  0  0  0  0  0  0  0  0  0  0  0
   -1.0555   -7.7369   -2.9002 C   0  0  0  0  0  0  0  0  0  0  0  0
   -0.2575   -8.4479   -4.2492 Cl  0  0  0  0  0  0  0  0  0  0  0  0
   -0.3615   -6.8387   -2.0936 C   0  0  0  0  0  0  0  0  0  0  0  0
    1.9085   -4.2727    0.1365 C   0  0  0  0  0  0  0  0  0  0  0  0
   -3.1524    0.0350   -0.0065 H   0  0  0  0  0  0  0  0  0  0  0  0
   -2.5358   -1.2884    0.9924 H   0  0  0  0  0  0  0  0  0  0  0  0
   -2.5371   -1.4296   -0.7838 H   0  0  0  0  0  0  0  0  0  0  0  0
   -1.5035    2.0413   -0.0390 H   0  0  0  0  0  0  0  0  0  0  0  0
    2.9940    1.8079   -0.1218 H   0  0  0  0  0  0  0  0  0  0  0  0
    2.1600    0.0065   -0.0773 H   0  0  0  0  0  0  0  0  0  0  0  0
   -0.3555   -2.8145    0.0729 H   0  0  0  0  0  0  0  0  0  0  0  0
    4.9750   -3.2630    0.1135 H   0  0  0  0  0  0  0  0  0  0  0  0
    3.4660   -7.7175    0.2512 H   0  0  0  0  0  0  0  0  0  0  0  0
   -0.7298   -5.1013    0.7055 H   0  0  0  0  0  0  0  0  0  0  0  0
   -2.8262   -6.0928    0.1394 H   0  0  0  0  0  0  0  0  0  0  0  0
   -4.0493   -7.6902   -1.3092 H   0  0  0  0  0  0  0  0  0  0  0  0
    0.6668   -6.5927   -2.3467 H   0  0  0  0  0  0  0  0  0  0  0  0
  1  2  1  0  0  0  0
  1 30  1  0  0  0  0
  1 31  1  0  0  0  0
  1 32  1  0  0  0  0
  2  3  1  0  0  0  0
  2  9  2  0  0  0  0
  3  4  2  0  0  0  0
  3 33  1  0  0  0  0
  4  5  1  0  0  0  0
  4  8  1  0  0  0  0
  5  6  2  0  0  0  0
  5  7  1  0  0  0  0
  7 34  1  0  0  0  0
  8  9  1  0  0  0  0
  8 35  1  0  0  0  0
  9 10  1  0  0  0  0
 10 11  2  0  0  0  0
 10 36  1  0  0  0  0
 11 12  1  0  0  0  0
 11 29  1  0  0  0  0
 12 13  2  0  0  0  0
 12 14  1  0  0  0  0
 14 15  1  0  0  0  0
 14 37  1  0  0  0  0
 15 16  1  0  0  0  0
 15 29  2  0  0  0  0
 16 17  2  0  0  0  0
 17 18  1  0  0  0  0
 17 38  1  0  0  0  0
 18 19  2  0  0  0  0
 19 20  1  0  0  0  0
 19 29  1  0  0  0  0
 20 21  1  0  0  0  0
 20 39  1  0  0  0  0
 21 22  1  0  0  0  0
 21 28  2  0  0  0  0
 22 23  2  0  0  0  0
 22 40  1  0  0  0  0
 23 24  1  0  0  0  0
 23 41  1  0  0  0  0
 24 25  1  0  0  0  0
 24 26  2  0  0  0  0
 26 27  1  0  0  0  0
 26 28  1  0  0  0  0
 28 42  1  0  0  0  0
M  END
$$$$
