CHEMBL3656045
 OpenBabel04072215373D

 53 56  0  0  0  0  0  0  0  0999 V2000
    3.2208    2.2649   -1.8135 C   0  0  0  0  0  0  0  0  0  0  0  0
    4.4767    2.1051   -1.1550 O   0  0  0  0  0  0  0  0  0  0  0  0
    4.7877    0.8076   -0.8928 C   0  0  0  0  0  0  0  0  0  0  0  0
    4.0623   -0.1500   -1.1721 O   0  0  0  0  0  0  0  0  0  0  0  0
    6.0824    0.6381   -0.2539 C   0  0  0  0  0  0  0  0  0  0  0  0
    6.9879    1.6101    0.1380 C   0  0  0  0  0  0  0  0  0  0  0  0
    8.0712    0.9907    0.7158 N   0  0  0  0  0  0  0  0  0  0  0  0
    7.9239   -0.3726    0.6375 C   0  0  0  0  0  0  0  0  0  0  0  0
    8.9319   -1.3239    1.0883 C   0  0  0  0  0  0  0  0  0  0  0  0
    8.6910   -2.6860    0.9857 C   0  0  0  0  0  0  0  0  0  0  0  0
    9.6787   -3.5827    1.3688 C   0  0  0  0  0  0  0  0  0  0  0  0
    9.5536   -4.9515    1.2642 O   0  0  0  0  0  0  0  0  0  0  0  0
    8.7931   -5.4900    0.2423 C   0  0  0  0  0  0  0  0  0  0  0  0
    8.6319   -4.8809   -1.0042 C   0  0  0  0  0  0  0  0  0  0  0  0
    7.7732   -5.4296   -1.9533 C   0  0  0  0  0  0  0  0  0  0  0  0
    7.1548   -6.6563   -1.7114 C   0  0  0  0  0  0  0  0  0  0  0  0
    7.4166   -7.3414   -0.5217 C   0  0  0  0  0  0  0  0  0  0  0  0
    6.8830   -8.7055   -0.2400 C   0  0  0  0  0  0  0  0  0  0  0  0
    6.6549   -8.9811    0.9263 O   0  0  0  0  0  0  0  0  0  0  0  0
    6.7859   -9.5744   -1.3258 N   0  0  0  0  0  0  0  0  0  0  0  0
    6.3836  -10.9318   -1.2371 C   0  0  0  0  0  0  0  0  0  0  0  0
    5.6912  -11.4397   -0.1336 C   0  0  0  0  0  0  0  0  0  0  0  0
    5.3344  -12.7861   -0.0669 C   0  0  0  0  0  0  0  0  0  0  0  0
    5.6456  -13.6436   -1.1164 C   0  0  0  0  0  0  0  0  0  0  0  0
    6.3040  -13.1557   -2.2502 C   0  0  0  0  0  0  0  0  0  0  0  0
    6.5936  -14.0748   -3.4021 C   0  0  0  0  0  0  0  0  0  0  0  0
    6.6790  -11.7989   -2.2998 C   0  0  0  0  0  0  0  0  0  0  0  0
    8.2069   -6.7350    0.4743 C   0  0  0  0  0  0  0  0  0  0  0  0
   10.8395   -3.0878    1.9401 C   0  0  0  0  0  0  0  0  0  0  0  0
   10.9899   -1.7086    2.0273 C   0  0  0  0  0  0  0  0  0  0  0  0
   10.0738   -0.8095    1.5908 N   0  0  0  0  0  0  0  0  0  0  0  0
    6.6809   -0.6023    0.0797 C   0  0  0  0  0  0  0  0  0  0  0  0
    3.1446    3.3013   -2.1537 H   0  0  0  0  0  0  0  0  0  0  0  0
    2.4035    2.0629   -1.1156 H   0  0  0  0  0  0  0  0  0  0  0  0
    3.1488    1.6147   -2.6921 H   0  0  0  0  0  0  0  0  0  0  0  0
    6.9531    2.6870    0.0576 H   0  0  0  0  0  0  0  0  0  0  0  0
    8.8829    1.4458    1.1183 H   0  0  0  0  0  0  0  0  0  0  0  0
    7.7492   -3.0355    0.5823 H   0  0  0  0  0  0  0  0  0  0  0  0
    9.1360   -3.9487   -1.2383 H   0  0  0  0  0  0  0  0  0  0  0  0
    7.5899   -4.8903   -2.8796 H   0  0  0  0  0  0  0  0  0  0  0  0
    6.4674   -7.0540   -2.4539 H   0  0  0  0  0  0  0  0  0  0  0  0
    7.1768   -9.2804   -2.2096 H   0  0  0  0  0  0  0  0  0  0  0  0
    5.4002  -10.8044    0.6937 H   0  0  0  0  0  0  0  0  0  0  0  0
    4.8030  -13.1557    0.8069 H   0  0  0  0  0  0  0  0  0  0  0  0
    5.3590  -14.6899   -1.0447 H   0  0  0  0  0  0  0  0  0  0  0  0
    6.1871  -15.0761   -3.2245 H   0  0  0  0  0  0  0  0  0  0  0  0
    7.6725  -14.1724   -3.5582 H   0  0  0  0  0  0  0  0  0  0  0  0
    6.1267  -13.6886   -4.3138 H   0  0  0  0  0  0  0  0  0  0  0  0
    7.2245  -11.4385   -3.1694 H   0  0  0  0  0  0  0  0  0  0  0  0
    8.3652   -7.2410    1.4255 H   0  0  0  0  0  0  0  0  0  0  0  0
   11.6072   -3.7558    2.3114 H   0  0  0  0  0  0  0  0  0  0  0  0
   11.8798   -1.2786    2.4785 H   0  0  0  0  0  0  0  0  0  0  0  0
    6.2350   -1.5722   -0.1059 H   0  0  0  0  0  0  0  0  0  0  0  0
  1  2  1  0  0  0  0
  1 33  1  0  0  0  0
  1 34  1  0  0  0  0
  1 35  1  0  0  0  0
  2  3  1  0  0  0  0
  3  4  2  0  0  0  0
  3  5  1  0  0  0  0
  5  6  2  0  0  0  0
  5 32  1  0  0  0  0
  6  7  1  0  0  0  0
  6 36  1  0  0  0  0
  7  8  1  0  0  0  0
  7 37  1  0  0  0  0
  8  9  1  0  0  0  0
  8 32  2  0  0  0  0
  9 10  1  0  0  0  0
  9 31  2  0  0  0  0
 10 11  2  0  0  0  0
 10 38  1  0  0  0  0
 11 12  1  0  0  0  0
 11 29  1  0  0  0  0
 12 13  1  0  0  0  0
 13 14  1  0  0  0  0
 13 28  2  0  0  0  0
 14 15  2  0  0  0  0
 14 39  1  0  0  0  0
 15 16  1  0  0  0  0
 15 40  1  0  0  0  0
 16 17  2  0  0  0  0
 16 41  1  0  0  0  0
 17 18  1  0  0  0  0
 17 28  1  0  0  0  0
 18 19  2  0  0  0  0
 18 20  1  0  0  0  0
 20 21  1  0  0  0  0
 20 42  1  0  0  0  0
 21 22  1  0  0  0  0
 21 27  2  0  0  0  0
 22 23  2  0  0  0  0
 22 43  1  0  0  0  0
 23 24  1  0  0  0  0
 23 44  1  0  0  0  0
 24 25  2  0  0  0  0
 24 45  1  0  0  0  0
 25 26  1  0  0  0  0
 25 27  1  0  0  0  0
 26 46  1  0  0  0  0
 26 47  1  0  0  0  0
 26 48  1  0  0  0  0
 27 49  1  0  0  0  0
 28 50  1  0  0  0  0
 29 30  2  0  0  0  0
 29 51  1  0  0  0  0
 30 31  1  0  0  0  0
 30 52  1  0  0  0  0
 32 53  1  0  0  0  0
M  END
$$$$
