CHEMBL3968013
 OpenBabel04072215373D

 63 66  0  0  0  0  0  0  0  0999 V2000
   10.4259   -1.4862   -6.0295 C   0  0  0  0  0  0  0  0  0  0  0  0
    9.7049   -1.4077   -4.8002 O   0  0  0  0  0  0  0  0  0  0  0  0
   10.4616   -1.6808   -3.6975 C   0  0  0  0  0  0  0  0  0  0  0  0
   11.6631   -1.9214   -3.7116 O   0  0  0  0  0  0  0  0  0  0  0  0
    9.6028   -1.5725   -2.4403 C   0  0  0  0  0  0  0  0  0  0  0  0
   10.1093   -2.4808   -1.3972 N   0  0  0  0  0  0  0  0  0  0  0  0
    9.3352   -2.3552   -0.1684 C   0  0  0  0  0  0  0  0  0  0  0  0
    9.8967   -3.2961    0.8941 C   0  0  0  0  0  0  0  0  0  0  0  0
    9.0745   -3.1933    2.1725 C   0  0  0  0  0  0  0  0  0  0  0  0
    9.5753   -4.0756    3.1943 N   0  0  0  0  0  0  0  0  0  0  0  0
   10.5563   -3.7135    4.0928 C   0  0  0  0  0  0  0  0  0  0  0  0
   11.0638   -2.5935    4.0875 O   0  0  0  0  0  0  0  0  0  0  0  0
   10.9191   -4.7471    5.0484 C   0  0  0  0  0  0  0  0  0  0  0  0
   11.8060   -4.6417    6.1017 C   0  0  0  0  0  0  0  0  0  0  0  0
   11.8672   -5.8272    6.8875 C   0  0  0  0  0  0  0  0  0  0  0  0
   12.6251   -5.9842    8.0062 N   0  0  0  0  0  0  0  0  0  0  0  0
   12.5078   -7.1710    8.6271 C   0  0  0  0  0  0  0  0  0  0  0  0
   11.7124   -8.2181    8.2016 C   0  0  0  0  0  0  0  0  0  0  0  0
   11.0036   -8.0886    7.0045 C   0  0  0  0  0  0  0  0  0  0  0  0
   10.2457   -9.1005    6.4419 O   0  0  0  0  0  0  0  0  0  0  0  0
   10.7282  -10.3918    6.5050 C   0  0  0  0  0  0  0  0  0  0  0  0
   12.0962  -10.6848    6.5449 C   0  0  0  0  0  0  0  0  0  0  0  0
   12.5146  -11.9744    6.8138 C   0  0  0  0  0  0  0  0  0  0  0  0
   11.5709  -12.9858    6.9583 C   0  0  0  0  0  0  0  0  0  0  0  0
   10.1976  -12.7340    6.8175 C   0  0  0  0  0  0  0  0  0  0  0  0
    9.2355  -13.7660    6.9455 N   0  0  0  0  0  0  0  0  0  0  0  0
    9.4668  -14.9795    7.5762 C   0  0  0  0  0  0  0  0  0  0  0  0
   10.4954  -15.2352    8.2073 O   0  0  0  0  0  0  0  0  0  0  0  0
    8.4093  -15.9681    7.4722 C   0  0  0  0  0  0  0  0  0  0  0  0
    7.2244  -15.6765    6.8542 O   0  0  0  0  0  0  0  0  0  0  0  0
    6.4688  -16.8075    6.8985 C   0  0  0  0  0  0  0  0  0  0  0  0
    7.1494  -17.8238    7.5285 C   0  0  0  0  0  0  0  0  0  0  0  0
    8.4003  -17.2839    7.9195 C   0  0  0  0  0  0  0  0  0  0  0  0
    9.5049  -17.9702    8.6416 C   0  0  0  0  0  0  0  0  0  0  0  0
    9.7809  -11.4251    6.5540 C   0  0  0  0  0  0  0  0  0  0  0  0
   11.0563   -6.8376    6.3748 C   0  0  0  0  0  0  0  0  0  0  0  0
   10.2328   -6.3128    4.9699 S   0  0  0  0  0  0  0  0  0  0  0  0
    9.7481   -1.1980   -6.8377 H   0  0  0  0  0  0  0  0  0  0  0  0
   10.7622   -2.5123   -6.2078 H   0  0  0  0  0  0  0  0  0  0  0  0
   11.2735   -0.7938   -6.0265 H   0  0  0  0  0  0  0  0  0  0  0  0
    8.5727   -1.8479   -2.6906 H   0  0  0  0  0  0  0  0  0  0  0  0
    9.6332   -0.5290   -2.1077 H   0  0  0  0  0  0  0  0  0  0  0  0
   11.0956   -2.2657   -1.2273 H   0  0  0  0  0  0  0  0  0  0  0  0
    8.2882   -2.6176   -0.3636 H   0  0  0  0  0  0  0  0  0  0  0  0
    9.3629   -1.3237    0.2021 H   0  0  0  0  0  0  0  0  0  0  0  0
   10.9459   -3.0522    1.1034 H   0  0  0  0  0  0  0  0  0  0  0  0
    9.8816   -4.3323    0.5307 H   0  0  0  0  0  0  0  0  0  0  0  0
    8.0357   -3.4852    1.9857 H   0  0  0  0  0  0  0  0  0  0  0  0
    9.0780   -2.1659    2.5527 H   0  0  0  0  0  0  0  0  0  0  0  0
    9.2546   -5.0373    3.2114 H   0  0  0  0  0  0  0  0  0  0  0  0
   12.3661   -3.7407    6.3225 H   0  0  0  0  0  0  0  0  0  0  0  0
   13.1141   -7.2759    9.5244 H   0  0  0  0  0  0  0  0  0  0  0  0
   11.6900   -9.1371    8.7772 H   0  0  0  0  0  0  0  0  0  0  0  0
   12.8463   -9.9091    6.4230 H   0  0  0  0  0  0  0  0  0  0  0  0
   13.5714  -12.1972    6.9306 H   0  0  0  0  0  0  0  0  0  0  0  0
   11.9549  -13.9800    7.1620 H   0  0  0  0  0  0  0  0  0  0  0  0
    8.2871  -13.5925    6.6287 H   0  0  0  0  0  0  0  0  0  0  0  0
    5.4910  -16.7415    6.4431 H   0  0  0  0  0  0  0  0  0  0  0  0
    6.7927  -18.8317    7.6873 H   0  0  0  0  0  0  0  0  0  0  0  0
    9.2459  -19.0042    8.8841 H   0  0  0  0  0  0  0  0  0  0  0  0
    9.7302  -17.4501    9.5794 H   0  0  0  0  0  0  0  0  0  0  0  0
   10.4134  -17.9830    8.0286 H   0  0  0  0  0  0  0  0  0  0  0  0
    8.7270  -11.1850    6.4468 H   0  0  0  0  0  0  0  0  0  0  0  0
  1  2  1  0  0  0  0
  1 38  1  0  0  0  0
  1 39  1  0  0  0  0
  1 40  1  0  0  0  0
  2  3  1  0  0  0  0
  3  4  2  0  0  0  0
  3  5  1  0  0  0  0
  5  6  1  0  0  0  0
  5 41  1  0  0  0  0
  5 42  1  0  0  0  0
  6  7  1  0  0  0  0
  6 43  1  0  0  0  0
  7  8  1  0  0  0  0
  7 44  1  0  0  0  0
  7 45  1  0  0  0  0
  8  9  1  0  0  0  0
  8 46  1  0  0  0  0
  8 47  1  0  0  0  0
  9 10  1  0  0  0  0
  9 48  1  0  0  0  0
  9 49  1  0  0  0  0
 10 11  1  0  0  0  0
 10 50  1  0  0  0  0
 11 12  2  0  0  0  0
 11 13  1  0  0  0  0
 13 14  2  0  0  0  0
 13 37  1  0  0  0  0
 14 15  1  0  0  0  0
 14 51  1  0  0  0  0
 15 16  1  0  0  0  0
 15 36  2  0  0  0  0
 16 17  2  0  0  0  0
 17 18  1  0  0  0  0
 17 52  1  0  0  0  0
 18 19  2  0  0  0  0
 18 53  1  0  0  0  0
 19 20  1  0  0  0  0
 19 36  1  0  0  0  0
 20 21  1  0  0  0  0
 21 22  1  0  0  0  0
 21 35  2  0  0  0  0
 22 23  2  0  0  0  0
 22 54  1  0  0  0  0
 23 24  1  0  0  0  0
 23 55  1  0  0  0  0
 24 25  2  0  0  0  0
 24 56  1  0  0  0  0
 25 26  1  0  0  0  0
 25 35  1  0  0  0  0
 26 27  1  0  0  0  0
 26 57  1  0  0  0  0
 27 28  2  0  0  0  0
 27 29  1  0  0  0  0
 29 30  1  0  0  0  0
 29 33  2  0  0  0  0
 30 31  1  0  0  0  0
 31 32  2  0  0  0  0
 31 58  1  0  0  0  0
 32 33  1  0  0  0  0
 32 59  1  0  0  0  0
 33 34  1  0  0  0  0
 34 60  1  0  0  0  0
 34 61  1  0  0  0  0
 34 62  1  0  0  0  0
 35 63  1  0  0  0  0
 36 37  1  0  0  0  0
M  END
$$$$
