CHEMBL249194
 OpenBabel04072215363D

 50 53  0  0  0  0  0  0  0  0999 V2000
    0.8975    0.3159    0.2529 O   0  0  0  0  0  0  0  0  0  0  0  0
    2.0649   -0.0684    0.2974 C   0  0  0  0  0  0  0  0  0  0  0  0
    2.5085   -1.3573    0.0487 N   0  0  0  0  0  0  0  0  0  0  0  0
    1.7024   -2.4603   -0.3273 C   0  0  0  0  0  0  0  0  0  0  0  0
    0.3223   -2.3493   -0.5312 C   0  0  0  0  0  0  0  0  0  0  0  0
   -0.4598   -3.4677   -0.8075 C   0  0  0  0  0  0  0  0  0  0  0  0
    0.1361   -4.7146   -0.9192 C   0  0  0  0  0  0  0  0  0  0  0  0
    1.5278   -4.8307   -0.8543 C   0  0  0  0  0  0  0  0  0  0  0  0
    2.2001   -6.0157   -1.0897 O   0  0  0  0  0  0  0  0  0  0  0  0
    1.6487   -6.9346   -1.9623 C   0  0  0  0  0  0  0  0  0  0  0  0
    0.9567   -6.5843   -3.1283 C   0  0  0  0  0  0  0  0  0  0  0  0
    0.3447   -7.5683   -3.9059 C   0  0  0  0  0  0  0  0  0  0  0  0
    0.4858   -8.9113   -3.5640 C   0  0  0  0  0  0  0  0  0  0  0  0
    1.2486   -9.2705   -2.4522 C   0  0  0  0  0  0  0  0  0  0  0  0
    1.8288   -8.2833   -1.6507 C   0  0  0  0  0  0  0  0  0  0  0  0
    2.3064   -3.7132   -0.5113 C   0  0  0  0  0  0  0  0  0  0  0  0
    3.0769    0.9631    0.6338 C   0  0  0  0  0  0  0  0  0  0  0  0
    2.7477    2.2893    0.3043 C   0  0  0  0  0  0  0  0  0  0  0  0
    3.6219    3.3226    0.6017 C   0  0  0  0  0  0  0  0  0  0  0  0
    4.8008    2.9938    1.2353 C   0  0  0  0  0  0  0  0  0  0  0  0
    5.1585    1.7269    1.5495 N   0  0  0  0  0  0  0  0  0  0  0  0
    4.3132    0.7117    1.2382 C   0  0  0  0  0  0  0  0  0  0  0  0
    4.7054   -0.6076    1.5635 N   0  0  0  0  0  0  0  0  0  0  0  0
    6.1288   -0.7142    1.8892 C   0  0  0  0  0  0  0  0  0  0  0  0
    6.6060   -2.1447    1.7777 C   0  0  0  0  0  0  0  0  0  0  0  0
    7.8728   -2.3992    1.2345 C   0  0  0  0  0  0  0  0  0  0  0  0
    8.3256   -3.7065    1.1619 C   0  0  0  0  0  0  0  0  0  0  0  0
    7.6165   -4.7672    1.5962 N   0  0  0  0  0  0  0  0  0  0  0  0
    6.4037   -4.5066    2.1285 C   0  0  0  0  0  0  0  0  0  0  0  0
    5.8649   -3.2331    2.2471 C   0  0  0  0  0  0  0  0  0  0  0  0
    3.5049   -1.5285    0.1848 H   0  0  0  0  0  0  0  0  0  0  0  0
   -0.1956   -1.3987   -0.4728 H   0  0  0  0  0  0  0  0  0  0  0  0
   -1.5320   -3.3566   -0.9403 H   0  0  0  0  0  0  0  0  0  0  0  0
   -0.4963   -5.5783   -1.1014 H   0  0  0  0  0  0  0  0  0  0  0  0
    0.8528   -5.5433   -3.4228 H   0  0  0  0  0  0  0  0  0  0  0  0
   -0.2456   -7.2833   -4.7729 H   0  0  0  0  0  0  0  0  0  0  0  0
    0.0086   -9.6777   -4.1693 H   0  0  0  0  0  0  0  0  0  0  0  0
    1.3820  -10.3202   -2.2039 H   0  0  0  0  0  0  0  0  0  0  0  0
    2.4081   -8.5679   -0.7769 H   0  0  0  0  0  0  0  0  0  0  0  0
    3.3806   -3.8339   -0.4045 H   0  0  0  0  0  0  0  0  0  0  0  0
    1.8058    2.5122   -0.1941 H   0  0  0  0  0  0  0  0  0  0  0  0
    3.3841    4.3490    0.3472 H   0  0  0  0  0  0  0  0  0  0  0  0
    5.5169    3.7614    1.5146 H   0  0  0  0  0  0  0  0  0  0  0  0
    4.1290   -0.8974    2.3540 H   0  0  0  0  0  0  0  0  0  0  0  0
    6.3345   -0.3427    2.9005 H   0  0  0  0  0  0  0  0  0  0  0  0
    6.7170   -0.1227    1.1739 H   0  0  0  0  0  0  0  0  0  0  0  0
    8.5031   -1.5939    0.8698 H   0  0  0  0  0  0  0  0  0  0  0  0
    9.3007   -3.9379    0.7425 H   0  0  0  0  0  0  0  0  0  0  0  0
    5.8562   -5.3794    2.4734 H   0  0  0  0  0  0  0  0  0  0  0  0
    4.8858   -3.1094    2.6955 H   0  0  0  0  0  0  0  0  0  0  0  0
  1  2  2  0  0  0  0
  2  3  1  0  0  0  0
  2 17  1  0  0  0  0
  3  4  1  0  0  0  0
  3 31  1  0  0  0  0
  4  5  1  0  0  0  0
  4 16  2  0  0  0  0
  5  6  2  0  0  0  0
  5 32  1  0  0  0  0
  6  7  1  0  0  0  0
  6 33  1  0  0  0  0
  7  8  2  0  0  0  0
  7 34  1  0  0  0  0
  8  9  1  0  0  0  0
  8 16  1  0  0  0  0
  9 10  1  0  0  0  0
 10 11  1  0  0  0  0
 10 15  2  0  0  0  0
 11 12  2  0  0  0  0
 11 35  1  0  0  0  0
 12 13  1  0  0  0  0
 12 36  1  0  0  0  0
 13 14  2  0  0  0  0
 13 37  1  0  0  0  0
 14 15  1  0  0  0  0
 14 38  1  0  0  0  0
 15 39  1  0  0  0  0
 16 40  1  0  0  0  0
 17 18  1  0  0  0  0
 17 22  2  0  0  0  0
 18 19  2  0  0  0  0
 18 41  1  0  0  0  0
 19 20  1  0  0  0  0
 19 42  1  0  0  0  0
 20 21  2  0  0  0  0
 20 43  1  0  0  0  0
 21 22  1  0  0  0  0
 22 23  1  0  0  0  0
 23 24  1  0  0  0  0
 23 44  1  0  0  0  0
 24 25  1  0  0  0  0
 24 45  1  0  0  0  0
 24 46  1  0  0  0  0
 25 26  1  0  0  0  0
 25 30  2  0  0  0  0
 26 27  2  0  0  0  0
 26 47  1  0  0  0  0
 27 28  1  0  0  0  0
 27 48  1  0  0  0  0
 28 29  2  0  0  0  0
 29 30  1  0  0  0  0
 29 49  1  0  0  0  0
 30 50  1  0  0  0  0
M  END
$$$$
