CHEMBL238528
 OpenBabel04072215363D

 40 42  0  0  0  0  0  0  0  0999 V2000
    2.1211    0.0746   -0.0056 C   0  0  0  0  0  0  0  0  0  0  0  0
    0.6824   -0.0500    0.0137 N   0  0  0  0  0  0  0  0  0  0  0  0
   -0.1962    0.9977   -0.0199 C   0  0  0  0  0  0  0  0  0  0  0  0
   -1.4399    0.5788   -0.0916 N   0  0  0  0  0  0  0  0  0  0  0  0
   -1.3550   -0.7791   -0.0652 C   0  0  0  0  0  0  0  0  0  0  0  0
   -2.4433   -1.5658   -0.0784 N   0  0  0  0  0  0  0  0  0  0  0  0
   -3.7267   -1.0999   -0.5594 C   0  0  0  0  0  0  0  0  0  0  0  0
   -4.7760   -1.1247    0.5205 C   0  0  0  0  0  0  0  0  0  0  0  0
   -4.6806   -0.2715    1.6228 C   0  0  0  0  0  0  0  0  0  0  0  0
   -5.7101   -0.2658    2.5520 C   0  0  0  0  0  0  0  0  0  0  0  0
   -6.8098   -1.0447    2.4609 N   0  0  0  0  0  0  0  0  0  0  0  0
   -6.8808   -1.8674    1.3940 C   0  0  0  0  0  0  0  0  0  0  0  0
   -5.9038   -1.9452    0.4128 C   0  0  0  0  0  0  0  0  0  0  0  0
   -0.0459   -1.2170   -0.0413 C   0  0  0  0  0  0  0  0  0  0  0  0
    0.5007   -2.5493   -0.0978 C   0  0  0  0  0  0  0  0  0  0  0  0
    1.5874   -2.8282    0.3967 O   0  0  0  0  0  0  0  0  0  0  0  0
   -0.2812   -3.4257   -0.8336 N   0  0  0  0  0  0  0  0  0  0  0  0
   -0.0485   -4.7968   -1.0486 C   0  0  0  0  0  0  0  0  0  0  0  0
    0.8173   -5.5536   -0.2575 C   0  0  0  0  0  0  0  0  0  0  0  0
    1.0318   -6.9075   -0.5344 C   0  0  0  0  0  0  0  0  0  0  0  0
    0.3857   -7.5165   -1.6102 C   0  0  0  0  0  0  0  0  0  0  0  0
    0.7326   -9.1790   -1.9218 Cl  0  0  0  0  0  0  0  0  0  0  0  0
   -0.5024   -6.7717   -2.3918 C   0  0  0  0  0  0  0  0  0  0  0  0
   -1.3388   -7.4535   -3.7421 Cl  0  0  0  0  0  0  0  0  0  0  0  0
   -0.7312   -5.4203   -2.0990 C   0  0  0  0  0  0  0  0  0  0  0  0
    2.3963    1.1302   -0.0806 H   0  0  0  0  0  0  0  0  0  0  0  0
    2.5062   -0.4608   -0.8776 H   0  0  0  0  0  0  0  0  0  0  0  0
    2.5210   -0.3448    0.9199 H   0  0  0  0  0  0  0  0  0  0  0  0
    0.1178    2.0340    0.0001 H   0  0  0  0  0  0  0  0  0  0  0  0
   -2.4401   -2.4901    0.3412 H   0  0  0  0  0  0  0  0  0  0  0  0
   -4.0248   -1.7735   -1.3720 H   0  0  0  0  0  0  0  0  0  0  0  0
   -3.6836   -0.0982   -1.0019 H   0  0  0  0  0  0  0  0  0  0  0  0
   -3.8269    0.3887    1.7450 H   0  0  0  0  0  0  0  0  0  0  0  0
   -5.6795    0.3927    3.4153 H   0  0  0  0  0  0  0  0  0  0  0  0
   -7.7785   -2.4768    1.3397 H   0  0  0  0  0  0  0  0  0  0  0  0
   -6.0376   -2.6212   -0.4251 H   0  0  0  0  0  0  0  0  0  0  0  0
   -1.0313   -2.9911   -1.3624 H   0  0  0  0  0  0  0  0  0  0  0  0
    1.3271   -5.1222    0.5994 H   0  0  0  0  0  0  0  0  0  0  0  0
    1.7116   -7.4763    0.0965 H   0  0  0  0  0  0  0  0  0  0  0  0
   -1.4187   -4.8519   -2.7222 H   0  0  0  0  0  0  0  0  0  0  0  0
  1  2  1  0  0  0  0
  1 26  1  0  0  0  0
  1 27  1  0  0  0  0
  1 28  1  0  0  0  0
  2  3  1  0  0  0  0
  2 14  1  0  0  0  0
  3  4  2  0  0  0  0
  3 29  1  0  0  0  0
  4  5  1  0  0  0  0
  5  6  1  0  0  0  0
  5 14  2  0  0  0  0
  6  7  1  0  0  0  0
  6 30  1  0  0  0  0
  7  8  1  0  0  0  0
  7 31  1  0  0  0  0
  7 32  1  0  0  0  0
  8  9  1  0  0  0  0
  8 13  2  0  0  0  0
  9 10  2  0  0  0  0
  9 33  1  0  0  0  0
 10 11  1  0  0  0  0
 10 34  1  0  0  0  0
 11 12  2  0  0  0  0
 12 13  1  0  0  0  0
 12 35  1  0  0  0  0
 13 36  1  0  0  0  0
 14 15  1  0  0  0  0
 15 16  2  0  0  0  0
 15 17  1  0  0  0  0
 17 18  1  0  0  0  0
 17 37  1  0  0  0  0
 18 19  1  0  0  0  0
 18 25  2  0  0  0  0
 19 20  2  0  0  0  0
 19 38  1  0  0  0  0
 20 21  1  0  0  0  0
 20 39  1  0  0  0  0
 21 22  1  0  0  0  0
 21 23  2  0  0  0  0
 23 24  1  0  0  0  0
 23 25  1  0  0  0  0
 25 40  1  0  0  0  0
M  END
$$$$
