CHEMBL2011295
 OpenBabel04072215363D

 42 45  0  0  0  0  0  0  0  0999 V2000
    1.1859    0.3122    0.0231 N   0  0  0  0  0  0  0  0  0  0  0  0
    2.5308    0.0792   -0.0175 C   0  0  0  0  0  0  0  0  0  0  0  0
    3.2229   -1.1190   -0.0605 C   0  0  0  0  0  0  0  0  0  0  0  0
    2.5970   -2.4435   -0.0160 C   0  0  0  0  0  0  0  0  0  0  0  0
    3.0727   -3.4827   -0.8366 C   0  0  0  0  0  0  0  0  0  0  0  0
    2.6429   -4.7978   -0.6461 C   0  0  0  0  0  0  0  0  0  0  0  0
    1.6631   -5.0631    0.2990 C   0  0  0  0  0  0  0  0  0  0  0  0
    1.2609   -6.3247    0.4967 F   0  0  0  0  0  0  0  0  0  0  0  0
    1.1050   -4.0389    1.0535 C   0  0  0  0  0  0  0  0  0  0  0  0
    1.5858   -2.7342    0.9122 C   0  0  0  0  0  0  0  0  0  0  0  0
    4.6074   -0.7509   -0.1966 C   0  0  0  0  0  0  0  0  0  0  0  0
    5.7798   -1.6432   -0.2666 C   0  0  0  0  0  0  0  0  0  0  0  0
    6.8692   -1.3303   -1.0811 C   0  0  0  0  0  0  0  0  0  0  0  0
    7.8479   -2.2945   -1.2737 C   0  0  0  0  0  0  0  0  0  0  0  0
    7.8115   -3.5292   -0.7287 N   0  0  0  0  0  0  0  0  0  0  0  0
    6.7869   -3.7887    0.1046 C   0  0  0  0  0  0  0  0  0  0  0  0
    5.7939   -2.8719    0.4037 C   0  0  0  0  0  0  0  0  0  0  0  0
    4.7352    0.5774   -0.3504 N   0  0  0  0  0  0  0  0  0  0  0  0
    3.4990    1.0878   -0.1111 N   0  0  0  0  0  0  0  0  0  0  0  0
    3.3094    2.5026   -0.0260 C   0  0  0  0  0  0  0  0  0  0  0  0
    4.1707    3.3641   -0.7294 C   0  0  0  0  0  0  0  0  0  0  0  0
    3.9648    4.7505   -0.7002 C   0  0  0  0  0  0  0  0  0  0  0  0
    2.9109    5.2780    0.0654 C   0  0  0  0  0  0  0  0  0  0  0  0
    2.6822    6.7278    0.1032 N   0  3  0  0  0  0  0  0  0  0  0  0
    3.4219    7.4457   -0.5862 O   0  0  0  0  0  0  0  0  0  0  0  0
    1.7599    7.1473    0.8157 O   0  5  0  0  0  0  0  0  0  0  0  0
    2.0737    4.4362    0.7980 C   0  0  0  0  0  0  0  0  0  0  0  0
    2.2785    3.0461    0.7525 C   0  0  0  0  0  0  0  0  0  0  0  0
    0.5571   -0.4631   -0.1830 H   0  0  0  0  0  0  0  0  0  0  0  0
    0.8127    1.1844   -0.3491 H   0  0  0  0  0  0  0  0  0  0  0  0
    3.8374   -3.2947   -1.5889 H   0  0  0  0  0  0  0  0  0  0  0  0
    3.0845   -5.6121   -1.2122 H   0  0  0  0  0  0  0  0  0  0  0  0
    0.3241   -4.2662    1.7717 H   0  0  0  0  0  0  0  0  0  0  0  0
    1.1854   -1.9566    1.5588 H   0  0  0  0  0  0  0  0  0  0  0  0
    6.9448   -0.3706   -1.5799 H   0  0  0  0  0  0  0  0  0  0  0  0
    8.7064   -2.0995   -1.9109 H   0  0  0  0  0  0  0  0  0  0  0  0
    6.7641   -4.7919    0.5223 H   0  0  0  0  0  0  0  0  0  0  0  0
    5.0140   -3.1550    1.1017 H   0  0  0  0  0  0  0  0  0  0  0  0
    4.9805    2.9659   -1.3369 H   0  0  0  0  0  0  0  0  0  0  0  0
    4.6174    5.3985   -1.2789 H   0  0  0  0  0  0  0  0  0  0  0  0
    1.2732    4.8256    1.4222 H   0  0  0  0  0  0  0  0  0  0  0  0
    1.6407    2.4156    1.3699 H   0  0  0  0  0  0  0  0  0  0  0  0
  1  2  1  0  0  0  0
  1 29  1  0  0  0  0
  1 30  1  0  0  0  0
  2  3  2  0  0  0  0
  2 19  1  0  0  0  0
  3  4  1  0  0  0  0
  3 11  1  0  0  0  0
  4  5  1  0  0  0  0
  4 10  2  0  0  0  0
  5  6  2  0  0  0  0
  5 31  1  0  0  0  0
  6  7  1  0  0  0  0
  6 32  1  0  0  0  0
  7  8  1  0  0  0  0
  7  9  2  0  0  0  0
  9 10  1  0  0  0  0
  9 33  1  0  0  0  0
 10 34  1  0  0  0  0
 11 12  1  0  0  0  0
 11 18  2  0  0  0  0
 12 13  1  0  0  0  0
 12 17  2  0  0  0  0
 13 14  2  0  0  0  0
 13 35  1  0  0  0  0
 14 15  1  0  0  0  0
 14 36  1  0  0  0  0
 15 16  2  0  0  0  0
 16 17  1  0  0  0  0
 16 37  1  0  0  0  0
 17 38  1  0  0  0  0
 18 19  1  0  0  0  0
 19 20  1  0  0  0  0
 20 21  1  0  0  0  0
 20 28  2  0  0  0  0
 21 22  2  0  0  0  0
 21 39  1  0  0  0  0
 22 23  1  0  0  0  0
 22 40  1  0  0  0  0
 23 24  1  0  0  0  0
 23 27  2  0  0  0  0
 24 25  2  0  0  0  0
 24 26  1  0  0  0  0
 27 28  1  0  0  0  0
 27 41  1  0  0  0  0
 28 42  1  0  0  0  0
M  CHG  2  24   1  26  -1
M  END
$$$$
