CHEMBL1761929
 OpenBabel04072215363D

 44 46  0  0  0  0  0  0  0  0999 V2000
    1.3345    0.5892   -0.2455 C   0  0  0  0  0  0  0  0  0  0  0  0
    2.6453    0.0228   -0.1545 O   0  0  0  0  0  0  0  0  0  0  0  0
    3.1253   -0.3868   -1.3617 C   0  0  0  0  0  0  0  0  0  0  0  0
    2.5063   -0.2458   -2.4083 O   0  0  0  0  0  0  0  0  0  0  0  0
    4.3384   -0.9989   -1.1857 N   0  0  0  0  0  0  0  0  0  0  0  0
    5.1035   -1.6179   -2.1922 C   0  0  0  0  0  0  0  0  0  0  0  0
    4.8636   -1.4296   -3.5497 C   0  0  0  0  0  0  0  0  0  0  0  0
    5.5777   -2.1455   -4.5145 C   0  0  0  0  0  0  0  0  0  0  0  0
    6.5793   -3.0481   -4.1613 C   0  0  0  0  0  0  0  0  0  0  0  0
    7.2316   -3.9048   -5.0682 N   0  0  0  0  0  0  0  0  0  0  0  0
    7.1069   -4.0769   -6.4742 C   0  0  0  0  0  0  0  0  0  0  0  0
    6.3246   -3.2414   -7.1807 N   0  0  0  0  0  0  0  0  0  0  0  0
    6.1718   -3.4905   -8.4824 C   0  0  0  0  0  0  0  0  0  0  0  0
    6.7300   -4.4936   -9.1599 N   0  0  0  0  0  0  0  0  0  0  0  0
    7.4872   -5.3358   -8.4574 C   0  0  0  0  0  0  0  0  0  0  0  0
    8.0328   -6.4198   -9.1310 C   0  0  0  0  0  0  0  0  0  0  0  0
    8.7932   -7.4104   -8.4922 C   0  0  0  0  0  0  0  0  0  0  0  0
    9.2863   -8.5029   -9.1541 O   0  0  0  0  0  0  0  0  0  0  0  0
    8.8409   -8.7285  -10.4878 C   0  0  0  0  0  0  0  0  0  0  0  0
    9.0589   -7.2689   -7.1253 C   0  0  0  0  0  0  0  0  0  0  0  0
    9.7826   -8.0863   -6.2985 O   0  0  0  0  0  0  0  0  0  0  0  0
   10.2644   -9.3223   -6.8045 C   0  0  0  0  0  0  0  0  0  0  0  0
    8.5331   -6.1619   -6.4423 C   0  0  0  0  0  0  0  0  0  0  0  0
    7.7258   -5.1917   -7.0888 C   0  0  0  0  0  0  0  0  0  0  0  0
    6.8425   -3.2048   -2.7891 C   0  0  0  0  0  0  0  0  0  0  0  0
    6.1283   -2.4887   -1.8146 C   0  0  0  0  0  0  0  0  0  0  0  0
    1.0936    1.0645    0.7091 H   0  0  0  0  0  0  0  0  0  0  0  0
    0.6038   -0.2031   -0.4365 H   0  0  0  0  0  0  0  0  0  0  0  0
    1.2819    1.3541   -1.0277 H   0  0  0  0  0  0  0  0  0  0  0  0
    4.6090   -1.1233   -0.2208 H   0  0  0  0  0  0  0  0  0  0  0  0
    4.1203   -0.7236   -3.9063 H   0  0  0  0  0  0  0  0  0  0  0  0
    5.3140   -1.9701   -5.5524 H   0  0  0  0  0  0  0  0  0  0  0  0
    8.1570   -4.1552   -4.7459 H   0  0  0  0  0  0  0  0  0  0  0  0
    5.5259   -2.8215   -9.0400 H   0  0  0  0  0  0  0  0  0  0  0  0
    7.8242   -6.4736  -10.1958 H   0  0  0  0  0  0  0  0  0  0  0  0
    9.2125   -9.7071  -10.8057 H   0  0  0  0  0  0  0  0  0  0  0  0
    9.2583   -7.9762  -11.1646 H   0  0  0  0  0  0  0  0  0  0  0  0
    7.7472   -8.7561  -10.5496 H   0  0  0  0  0  0  0  0  0  0  0  0
   10.7357   -9.8573   -5.9737 H   0  0  0  0  0  0  0  0  0  0  0  0
   11.0352   -9.1632   -7.5647 H   0  0  0  0  0  0  0  0  0  0  0  0
    9.4470   -9.9523   -7.1693 H   0  0  0  0  0  0  0  0  0  0  0  0
    8.7425   -6.0842   -5.3783 H   0  0  0  0  0  0  0  0  0  0  0  0
    7.5859   -3.9266   -2.4581 H   0  0  0  0  0  0  0  0  0  0  0  0
    6.3522   -2.6682   -0.7664 H   0  0  0  0  0  0  0  0  0  0  0  0
  1  2  1  0  0  0  0
  1 27  1  0  0  0  0
  1 28  1  0  0  0  0
  1 29  1  0  0  0  0
  2  3  1  0  0  0  0
  3  4  2  0  0  0  0
  3  5  1  0  0  0  0
  5  6  1  0  0  0  0
  5 30  1  0  0  0  0
  6  7  1  0  0  0  0
  6 26  2  0  0  0  0
  7  8  2  0  0  0  0
  7 31  1  0  0  0  0
  8  9  1  0  0  0  0
  8 32  1  0  0  0  0
  9 10  1  0  0  0  0
  9 25  2  0  0  0  0
 10 11  1  0  0  0  0
 10 33  1  0  0  0  0
 11 12  1  0  0  0  0
 11 24  2  0  0  0  0
 12 13  2  0  0  0  0
 13 14  1  0  0  0  0
 13 34  1  0  0  0  0
 14 15  2  0  0  0  0
 15 16  1  0  0  0  0
 15 24  1  0  0  0  0
 16 17  2  0  0  0  0
 16 35  1  0  0  0  0
 17 18  1  0  0  0  0
 17 20  1  0  0  0  0
 18 19  1  0  0  0  0
 19 36  1  0  0  0  0
 19 37  1  0  0  0  0
 19 38  1  0  0  0  0
 20 21  1  0  0  0  0
 20 23  2  0  0  0  0
 21 22  1  0  0  0  0
 22 39  1  0  0  0  0
 22 40  1  0  0  0  0
 22 41  1  0  0  0  0
 23 24  1  0  0  0  0
 23 42  1  0  0  0  0
 25 26  1  0  0  0  0
 25 43  1  0  0  0  0
 26 44  1  0  0  0  0
M  END
$$$$
