CHEMBL248044
 OpenBabel04072215363D

 45 48  0  0  1  0  0  0  0  0999 V2000
    1.1721    0.3618    0.4298 C   0  0  0  0  0  0  0  0  0  0  0  0
    2.5757    0.2391    0.2091 O   0  0  0  0  0  0  0  0  0  0  0  0
    3.0720    0.9307   -0.8668 C   0  0  0  0  0  0  0  0  0  0  0  0
    4.1004    0.2692   -1.5449 C   0  0  0  0  0  0  0  0  0  0  0  0
    4.6944    0.7897   -2.6827 C   0  0  0  0  0  0  0  0  0  0  0  0
    5.6187    0.0360   -3.2823 N   0  0  0  0  0  0  0  0  0  0  0  0
    6.1061    0.4547   -4.4652 C   0  0  0  0  0  0  0  0  0  0  0  0
    5.7547    1.6448   -5.0878 C   0  0  0  0  0  0  0  0  0  0  0  0
    6.2463    1.8182   -6.4155 C   0  0  0  0  0  0  0  0  0  0  0  0
    6.6725    1.8387   -7.4927 N   0  0  0  0  0  0  0  0  0  0  0  0
    4.9026    2.5225   -4.4018 C   0  0  0  0  0  0  0  0  0  0  0  0
    4.5125    3.8040   -4.8964 N   0  0  0  0  0  0  0  0  0  0  0  0
    5.1751    4.5854   -5.9651 C   0  0  2  0  0  0  0  0  0  0  0  0
    4.4775    5.8813   -6.2835 C   0  0  0  0  0  0  0  0  0  0  0  0
    4.5279    4.7788   -7.3162 C   0  0  1  0  0  0  0  0  0  0  0  0
    5.1288    5.1983   -8.6394 C   0  0  0  0  0  0  0  0  0  0  0  0
    6.3300    4.7156   -9.1727 C   0  0  0  0  0  0  0  0  0  0  0  0
    6.7257    5.0332  -10.4809 C   0  0  0  0  0  0  0  0  0  0  0  0
    5.9379    5.8625  -11.2754 C   0  0  0  0  0  0  0  0  0  0  0  0
    4.7694    6.3996  -10.7535 C   0  0  0  0  0  0  0  0  0  0  0  0
    4.3795    6.0717   -9.4548 C   0  0  0  0  0  0  0  0  0  0  0  0
    4.2859    2.0509   -3.1824 C   0  0  0  0  0  0  0  0  0  0  0  0
    3.2767    2.7388   -2.4394 C   0  0  0  0  0  0  0  0  0  0  0  0
    2.6769    2.2002   -1.2910 C   0  0  0  0  0  0  0  0  0  0  0  0
    1.7325    2.8412   -0.5394 O   0  0  0  0  0  0  0  0  0  0  0  0
    1.3298    4.1525   -0.9000 C   0  0  0  0  0  0  0  0  0  0  0  0
    0.8483   -0.5028    1.0172 H   0  0  0  0  0  0  0  0  0  0  0  0
    0.6020    0.3570   -0.5070 H   0  0  0  0  0  0  0  0  0  0  0  0
    0.9502    1.2511    1.0267 H   0  0  0  0  0  0  0  0  0  0  0  0
    4.4206   -0.7087   -1.1898 H   0  0  0  0  0  0  0  0  0  0  0  0
    6.8011   -0.2409   -4.9323 H   0  0  0  0  0  0  0  0  0  0  0  0
    4.1742    4.3991   -4.1449 H   0  0  0  0  0  0  0  0  0  0  0  0
    6.2545    4.6567   -5.8601 H   0  0  0  0  0  0  0  0  0  0  0  0
    5.1025    6.7593   -6.4109 H   0  0  0  0  0  0  0  0  0  0  0  0
    3.5030    6.0945   -5.8617 H   0  0  0  0  0  0  0  0  0  0  0  0
    3.6392    4.1605   -7.4409 H   0  0  0  0  0  0  0  0  0  0  0  0
    6.9635    4.0525   -8.5934 H   0  0  0  0  0  0  0  0  0  0  0  0
    7.6402    4.6076  -10.8870 H   0  0  0  0  0  0  0  0  0  0  0  0
    6.2291    6.0817  -12.2989 H   0  0  0  0  0  0  0  0  0  0  0  0
    4.1440    7.0510  -11.3575 H   0  0  0  0  0  0  0  0  0  0  0  0
    3.4465    6.4799   -9.0702 H   0  0  0  0  0  0  0  0  0  0  0  0
    2.9337    3.7034   -2.7930 H   0  0  0  0  0  0  0  0  0  0  0  0
    0.5698    4.4719   -0.1790 H   0  0  0  0  0  0  0  0  0  0  0  0
    0.8701    4.1662   -1.8924 H   0  0  0  0  0  0  0  0  0  0  0  0
    2.1671    4.8538   -0.8351 H   0  0  0  0  0  0  0  0  0  0  0  0
  1  2  1  0  0  0  0
  1 27  1  0  0  0  0
  1 28  1  0  0  0  0
  1 29  1  0  0  0  0
  2  3  1  0  0  0  0
  3  4  1  0  0  0  0
  3 24  2  0  0  0  0
  4  5  2  0  0  0  0
  4 30  1  0  0  0  0
  5  6  1  0  0  0  0
  5 22  1  0  0  0  0
  6  7  2  0  0  0  0
  7  8  1  0  0  0  0
  7 31  1  0  0  0  0
  8  9  1  0  0  0  0
  8 11  2  0  0  0  0
  9 10  3  0  0  0  0
 11 12  1  0  0  0  0
 11 22  1  0  0  0  0
 12 13  1  0  0  0  0
 12 32  1  0  0  0  0
 13 14  1  0  0  0  0
 13 15  1  0  0  0  0
 13 33  1  1  0  0  0
 14 15  1  0  0  0  0
 14 34  1  0  0  0  0
 14 35  1  0  0  0  0
 15 16  1  0  0  0  0
 15 36  1  6  0  0  0
 16 17  1  0  0  0  0
 16 21  2  0  0  0  0
 17 18  2  0  0  0  0
 17 37  1  0  0  0  0
 18 19  1  0  0  0  0
 18 38  1  0  0  0  0
 19 20  2  0  0  0  0
 19 39  1  0  0  0  0
 20 21  1  0  0  0  0
 20 40  1  0  0  0  0
 21 41  1  0  0  0  0
 22 23  2  0  0  0  0
 23 24  1  0  0  0  0
 23 42  1  0  0  0  0
 24 25  1  0  0  0  0
 25 26  1  0  0  0  0
 26 43  1  0  0  0  0
 26 44  1  0  0  0  0
 26 45  1  0  0  0  0
M  END
$$$$
