CHEMBL2386802
 OpenBabel04072215363D

 80 84  0  0  0  0  0  0  0  0999 V2000
    8.7083   -4.7115   -4.8820 C   0  0  0  0  0  0  0  0  0  0  0  0
    7.3136   -4.4965   -5.4905 C   0  0  0  0  0  0  0  0  0  0  0  0
    7.1830   -3.0408   -5.9740 C   0  0  0  0  0  0  0  0  0  0  0  0
    7.1429   -5.4257   -6.7087 C   0  0  0  0  0  0  0  0  0  0  0  0
    6.2696   -4.7865   -4.4499 C   0  0  0  0  0  0  0  0  0  0  0  0
    5.6628   -4.0519   -3.4561 C   0  0  0  0  0  0  0  0  0  0  0  0
    4.7373   -4.9409   -2.8652 C   0  0  0  0  0  0  0  0  0  0  0  0
    3.8744   -4.6041   -1.8451 N   0  0  0  0  0  0  0  0  0  0  0  0
    2.9437   -5.3929   -1.2414 C   0  0  0  0  0  0  0  0  0  0  0  0
    2.2477   -4.9269   -0.3409 O   0  0  0  0  0  0  0  0  0  0  0  0
    2.8394   -6.6798   -1.6663 N   0  0  0  0  0  0  0  0  0  0  0  0
    1.8689   -7.5823   -1.1200 C   0  0  0  0  0  0  0  0  0  0  0  0
    1.9785   -8.9527   -1.7297 C   0  0  0  0  0  0  0  0  0  0  0  0
    2.8775   -9.8856   -1.2051 C   0  0  0  0  0  0  0  0  0  0  0  0
    2.9505  -11.1739   -1.7387 C   0  0  0  0  0  0  0  0  0  0  0  0
    2.1381  -11.5565   -2.8188 C   0  0  0  0  0  0  0  0  0  0  0  0
    2.1949  -12.9218   -3.3506 C   0  0  0  0  0  0  0  0  0  0  0  0
    2.9849  -13.9929   -2.8586 C   0  0  0  0  0  0  0  0  0  0  0  0
    2.7138  -15.0772   -3.6530 C   0  0  0  0  0  0  0  0  0  0  0  0
    3.2395  -16.3617   -3.5744 N   0  0  0  0  0  0  0  0  0  0  0  0
    4.1949  -16.7435   -2.5665 C   0  0  0  0  0  0  0  0  0  0  0  0
    4.5513  -15.9710   -1.6915 O   0  0  0  0  0  0  0  0  0  0  0  0
    4.7181  -18.1240   -2.6052 C   0  0  0  0  0  0  0  0  0  0  0  0
    4.7660  -18.8732   -3.7840 C   0  0  0  0  0  0  0  0  0  0  0  0
    5.3130  -20.1582   -3.7595 C   0  0  0  0  0  0  0  0  0  0  0  0
    5.8468  -20.6726   -2.5762 C   0  0  0  0  0  0  0  0  0  0  0  0
    6.4440  -21.8900   -2.4488 O   0  0  0  0  0  0  0  0  0  0  0  0
    7.1388  -22.3893   -3.5945 C   0  0  0  0  0  0  0  0  0  0  0  0
    8.5981  -22.6532   -3.2014 C   0  0  0  0  0  0  0  0  0  0  0  0
    9.4260  -23.1527   -4.3143 N   0  0  0  0  0  0  0  0  0  0  0  0
    8.9710  -24.4583   -4.8436 C   0  0  0  0  0  0  0  0  0  0  0  0
    9.1914  -25.6246   -3.8684 C   0  0  0  0  0  0  0  0  0  0  0  0
   10.5713  -25.7336   -3.5008 O   0  0  0  0  0  0  0  0  0  0  0  0
   11.0586  -24.5093   -2.9362 C   0  0  0  0  0  0  0  0  0  0  0  0
   10.8363  -23.3175   -3.8860 C   0  0  0  0  0  0  0  0  0  0  0  0
    5.7708  -19.9331   -1.3977 C   0  0  0  0  0  0  0  0  0  0  0  0
    5.2114  -18.6619   -1.4104 C   0  0  0  0  0  0  0  0  0  0  0  0
    1.7974  -14.6229   -4.5623 N   0  0  0  0  0  0  0  0  0  0  0  0
    1.4661  -13.3324   -4.4029 N   0  0  0  0  0  0  0  0  0  0  0  0
    1.2699  -10.6051   -3.3676 C   0  0  0  0  0  0  0  0  0  0  0  0
    1.1964   -9.3143   -2.8338 C   0  0  0  0  0  0  0  0  0  0  0  0
    4.8094   -6.1460   -3.4412 N   0  0  0  0  0  0  0  0  0  0  0  0
    5.7730   -6.0527   -4.4161 O   0  0  0  0  0  0  0  0  0  0  0  0
    9.4963   -4.5159   -5.6176 H   0  0  0  0  0  0  0  0  0  0  0  0
    8.8324   -5.7411   -4.5248 H   0  0  0  0  0  0  0  0  0  0  0  0
    8.8780   -4.0475   -4.0261 H   0  0  0  0  0  0  0  0  0  0  0  0
    7.9218   -2.8122   -6.7497 H   0  0  0  0  0  0  0  0  0  0  0  0
    7.3342   -2.3277   -5.1550 H   0  0  0  0  0  0  0  0  0  0  0  0
    6.1872   -2.8515   -6.3933 H   0  0  0  0  0  0  0  0  0  0  0  0
    7.8820   -5.2032   -7.4860 H   0  0  0  0  0  0  0  0  0  0  0  0
    6.1457   -5.3175   -7.1524 H   0  0  0  0  0  0  0  0  0  0  0  0
    7.2657   -6.4804   -6.4337 H   0  0  0  0  0  0  0  0  0  0  0  0
    5.8465   -3.0170   -3.2102 H   0  0  0  0  0  0  0  0  0  0  0  0
    3.9092   -3.6607   -1.4880 H   0  0  0  0  0  0  0  0  0  0  0  0
    3.3579   -6.9445   -2.5002 H   0  0  0  0  0  0  0  0  0  0  0  0
    0.8673   -7.1663   -1.2782 H   0  0  0  0  0  0  0  0  0  0  0  0
    2.0211   -7.6360   -0.0350 H   0  0  0  0  0  0  0  0  0  0  0  0
    3.5213   -9.6180   -0.3693 H   0  0  0  0  0  0  0  0  0  0  0  0
    3.6523  -11.8650   -1.2811 H   0  0  0  0  0  0  0  0  0  0  0  0
    3.6589  -13.9466   -2.0183 H   0  0  0  0  0  0  0  0  0  0  0  0
    2.9033  -17.0508   -4.2317 H   0  0  0  0  0  0  0  0  0  0  0  0
    4.4293  -18.4805   -4.7380 H   0  0  0  0  0  0  0  0  0  0  0  0
    5.3183  -20.7365   -4.6790 H   0  0  0  0  0  0  0  0  0  0  0  0
    7.1376  -21.7126   -4.4542 H   0  0  0  0  0  0  0  0  0  0  0  0
    6.6287  -23.3131   -3.8805 H   0  0  0  0  0  0  0  0  0  0  0  0
    8.6172  -23.3114   -2.3254 H   0  0  0  0  0  0  0  0  0  0  0  0
    9.0168  -21.6980   -2.8540 H   0  0  0  0  0  0  0  0  0  0  0  0
    9.5431  -24.6561   -5.7595 H   0  0  0  0  0  0  0  0  0  0  0  0
    7.9249  -24.4175   -5.1622 H   0  0  0  0  0  0  0  0  0  0  0  0
    8.9019  -26.5635   -4.3505 H   0  0  0  0  0  0  0  0  0  0  0  0
    8.5800  -25.5206   -2.9646 H   0  0  0  0  0  0  0  0  0  0  0  0
   12.1300  -24.6363   -2.7535 H   0  0  0  0  0  0  0  0  0  0  0  0
   10.5803  -24.3473   -1.9637 H   0  0  0  0  0  0  0  0  0  0  0  0
   11.4366  -23.4779   -4.7913 H   0  0  0  0  0  0  0  0  0  0  0  0
   11.2117  -22.3925   -3.4326 H   0  0  0  0  0  0  0  0  0  0  0  0
    6.1612  -20.3465   -0.4700 H   0  0  0  0  0  0  0  0  0  0  0  0
    5.1859  -18.0871   -0.4846 H   0  0  0  0  0  0  0  0  0  0  0  0
    1.3552  -15.1302   -5.3200 H   0  0  0  0  0  0  0  0  0  0  0  0
    0.6340  -10.8649   -4.2120 H   0  0  0  0  0  0  0  0  0  0  0  0
    0.5123   -8.5952   -3.2795 H   0  0  0  0  0  0  0  0  0  0  0  0
  1  2  1  0  0  0  0
  1 44  1  0  0  0  0
  1 45  1  0  0  0  0
  1 46  1  0  0  0  0
  2  3  1  0  0  0  0
  2  4  1  0  0  0  0
  2  5  1  0  0  0  0
  3 47  1  0  0  0  0
  3 48  1  0  0  0  0
  3 49  1  0  0  0  0
  4 50  1  0  0  0  0
  4 51  1  0  0  0  0
  4 52  1  0  0  0  0
  5  6  2  0  0  0  0
  5 43  1  0  0  0  0
  6  7  1  0  0  0  0
  6 53  1  0  0  0  0
  7  8  1  0  0  0  0
  7 42  2  0  0  0  0
  8  9  1  0  0  0  0
  8 54  1  0  0  0  0
  9 10  2  0  0  0  0
  9 11  1  0  0  0  0
 11 12  1  0  0  0  0
 11 55  1  0  0  0  0
 12 13  1  0  0  0  0
 12 56  1  0  0  0  0
 12 57  1  0  0  0  0
 13 14  1  0  0  0  0
 13 41  2  0  0  0  0
 14 15  2  0  0  0  0
 14 58  1  0  0  0  0
 15 16  1  0  0  0  0
 15 59  1  0  0  0  0
 16 17  1  0  0  0  0
 16 40  2  0  0  0  0
 17 18  1  0  0  0  0
 17 39  2  0  0  0  0
 18 19  2  0  0  0  0
 18 60  1  0  0  0  0
 19 20  1  0  0  0  0
 19 38  1  0  0  0  0
 20 21  1  0  0  0  0
 20 61  1  0  0  0  0
 21 22  2  0  0  0  0
 21 23  1  0  0  0  0
 23 24  1  0  0  0  0
 23 37  2  0  0  0  0
 24 25  2  0  0  0  0
 24 62  1  0  0  0  0
 25 26  1  0  0  0  0
 25 63  1  0  0  0  0
 26 27  1  0  0  0  0
 26 36  2  0  0  0  0
 27 28  1  0  0  0  0
 28 29  1  0  0  0  0
 28 64  1  0  0  0  0
 28 65  1  0  0  0  0
 29 30  1  0  0  0  0
 29 66  1  0  0  0  0
 29 67  1  0  0  0  0
 30 31  1  0  0  0  0
 30 35  1  0  0  0  0
 31 32  1  0  0  0  0
 31 68  1  0  0  0  0
 31 69  1  0  0  0  0
 32 33  1  0  0  0  0
 32 70  1  0  0  0  0
 32 71  1  0  0  0  0
 33 34  1  0  0  0  0
 34 35  1  0  0  0  0
 34 72  1  0  0  0  0
 34 73  1  0  0  0  0
 35 74  1  0  0  0  0
 35 75  1  0  0  0  0
 36 37  1  0  0  0  0
 36 76  1  0  0  0  0
 37 77  1  0  0  0  0
 38 39  1  0  0  0  0
 38 78  1  0  0  0  0
 40 41  1  0  0  0  0
 40 79  1  0  0  0  0
 41 80  1  0  0  0  0
 42 43  1  0  0  0  0
M  END
$$$$
