CHEMBL213909
 OpenBabel04072215363D

 84 89  0  0  0  0  0  0  0  0999 V2000
   -8.1414   -8.1282    6.2237 C   0  0  0  0  0  0  0  0  0  0  0  0
   -8.5270   -6.8114    5.4600 C   0  0  0  0  0  0  0  0  0  0  0  0
   -9.0506   -5.6427    6.7366 C   0  0  0  0  0  0  0  0  0  0  0  0
   -9.0961   -3.9123    6.2919 C   0  0  0  0  0  0  0  0  0  0  0  0
   -8.6162   -3.3039    4.7042 C   0  0  0  0  0  0  0  0  0  0  0  0
   -8.1788   -4.3280    3.3814 C   0  0  0  0  0  0  0  0  0  0  0  0
   -7.2074   -3.9644    2.3292 N   0  0  0  0  0  0  0  0  0  0  0  0
   -6.0833   -3.1108    2.3720 C   0  0  0  0  0  0  0  0  0  0  0  0
   -5.7695   -2.4094    3.3320 O   0  0  0  0  0  0  0  0  0  0  0  0
   -5.2472   -3.1535    1.1840 N   0  0  0  0  0  0  0  0  0  0  0  0
   -4.1317   -2.1381    1.0515 C   0  0  0  0  0  0  0  0  0  0  0  0
   -4.2679   -1.1050   -0.1135 C   0  0  0  0  0  0  0  0  0  0  0  0
   -5.4546   -0.1276   -0.0284 C   0  0  0  0  0  0  0  0  0  0  0  0
   -5.4073    0.7379    1.2296 C   0  0  0  0  0  0  0  0  0  0  0  0
   -5.4851    0.7875   -1.2636 C   0  0  0  0  0  0  0  0  0  0  0  0
   -5.5632   -3.8476   -0.0897 C   0  0  0  0  0  0  0  0  0  0  0  0
   -6.0533   -5.2723   -0.0156 C   0  0  0  0  0  0  0  0  0  0  0  0
   -5.3390   -6.4023    0.3044 C   0  0  0  0  0  0  0  0  0  0  0  0
   -6.1895   -7.5346    0.3948 C   0  0  0  0  0  0  0  0  0  0  0  0
   -7.5014   -7.3456   -0.0268 C   0  0  0  0  0  0  0  0  0  0  0  0
   -8.5111   -8.4031   -0.1342 C   0  0  0  0  0  0  0  0  0  0  0  0
   -9.8479   -8.3749    0.2461 N   0  0  0  0  0  0  0  0  0  0  0  0
  -10.3947   -9.6232    0.5297 N   0  0  0  0  0  0  0  0  0  0  0  0
   -9.4174  -10.4810    0.2119 C   0  0  0  0  0  0  0  0  0  0  0  0
   -8.2878   -9.7582   -0.3122 C   0  0  0  0  0  0  0  0  0  0  0  0
   -7.0719  -10.5955   -0.2143 C   0  0  0  0  0  0  0  0  0  0  0  0
   -7.5793  -11.2847    1.0715 C   0  0  0  0  0  0  0  0  0  0  0  0
   -7.5337  -10.5810    2.2960 C   0  0  0  0  0  0  0  0  0  0  0  0
   -8.4629  -10.8473    3.3124 C   0  0  0  0  0  0  0  0  0  0  0  0
   -9.3012   -9.7670    3.9960 C   0  0  0  0  0  0  0  0  0  0  0  0
   -8.9490   -8.3625    3.6400 N   0  0  0  0  0  0  0  0  0  0  0  0
  -10.1745   -7.2590    4.2999 C   0  0  0  0  0  0  0  0  0  0  0  0
   -9.6212   -5.4203    4.7882 C   0  0  0  0  0  0  0  0  0  0  0  0
   -7.5968   -5.1446    5.1975 N   0  0  0  0  0  0  0  0  0  0  0  0
   -6.7750   -5.0119    6.5134 C   0  0  0  0  0  0  0  0  0  0  0  0
   -6.4589   -6.4025    4.4728 C   0  0  0  0  0  0  0  0  0  0  0  0
   -7.1955   -7.9983    3.8580 C   0  0  0  0  0  0  0  0  0  0  0  0
   -9.0212  -12.0949    3.2382 C   0  0  0  0  0  0  0  0  0  0  0  0
   -9.3253  -12.5115    1.9438 C   0  0  0  0  0  0  0  0  0  0  0  0
   -8.8704  -11.7690    0.8545 C   0  0  0  0  0  0  0  0  0  0  0  0
   -7.7099   -5.6812   -0.3888 S   0  0  0  0  0  0  0  0  0  0  0  0
   -8.3223   -6.1065    3.6475 C   0  0  0  0  0  0  0  0  0  0  0  0
   -8.9556   -8.4401    6.8806 H   0  0  0  0  0  0  0  0  0  0  0  0
   -7.2129   -8.0025    6.7829 H   0  0  0  0  0  0  0  0  0  0  0  0
   -7.9117   -9.0163    5.6624 H   0  0  0  0  0  0  0  0  0  0  0  0
   -9.2347   -5.9556    7.7604 H   0  0  0  0  0  0  0  0  0  0  0  0
   -9.2711   -3.1873    7.0814 H   0  0  0  0  0  0  0  0  0  0  0  0
   -8.2489   -2.2795    4.6776 H   0  0  0  0  0  0  0  0  0  0  0  0
   -6.9460   -4.8103    1.8599 H   0  0  0  0  0  0  0  0  0  0  0  0
   -3.2019   -2.6959    0.8492 H   0  0  0  0  0  0  0  0  0  0  0  0
   -3.9496   -1.6041    1.9898 H   0  0  0  0  0  0  0  0  0  0  0  0
   -4.3204   -1.6365   -1.0730 H   0  0  0  0  0  0  0  0  0  0  0  0
   -3.3400   -0.5140   -0.1735 H   0  0  0  0  0  0  0  0  0  0  0  0
   -6.3833   -0.7084   -0.0200 H   0  0  0  0  0  0  0  0  0  0  0  0
   -4.4803    1.3201    1.2793 H   0  0  0  0  0  0  0  0  0  0  0  0
   -5.4776    0.1291    2.1341 H   0  0  0  0  0  0  0  0  0  0  0  0
   -6.2460    1.4425    1.2444 H   0  0  0  0  0  0  0  0  0  0  0  0
   -4.5968    1.4283   -1.3130 H   0  0  0  0  0  0  0  0  0  0  0  0
   -6.3642    1.4421   -1.2418 H   0  0  0  0  0  0  0  0  0  0  0  0
   -5.5308    0.2043   -2.1893 H   0  0  0  0  0  0  0  0  0  0  0  0
   -4.6269   -3.8902   -0.6711 H   0  0  0  0  0  0  0  0  0  0  0  0
   -6.2611   -3.2074   -0.6283 H   0  0  0  0  0  0  0  0  0  0  0  0
   -4.2772   -6.4301    0.5299 H   0  0  0  0  0  0  0  0  0  0  0  0
   -5.8075   -8.4636    0.7820 H   0  0  0  0  0  0  0  0  0  0  0  0
  -10.3954   -7.5629    0.5072 H   0  0  0  0  0  0  0  0  0  0  0  0
   -6.1086  -10.1172   -0.0979 H   0  0  0  0  0  0  0  0  0  0  0  0
   -7.0162  -11.3230   -1.0272 H   0  0  0  0  0  0  0  0  0  0  0  0
   -7.2395   -9.5565    2.1611 H   0  0  0  0  0  0  0  0  0  0  0  0
   -9.3436   -9.9983    5.0674 H   0  0  0  0  0  0  0  0  0  0  0  0
  -10.3499   -9.9210    3.6918 H   0  0  0  0  0  0  0  0  0  0  0  0
  -10.4900   -7.7273    5.2639 H   0  0  0  0  0  0  0  0  0  0  0  0
  -11.1026   -7.2796    3.7138 H   0  0  0  0  0  0  0  0  0  0  0  0
  -10.4875   -5.0958    5.4326 H   0  0  0  0  0  0  0  0  0  0  0  0
  -10.0340   -4.9192    3.8403 H   0  0  0  0  0  0  0  0  0  0  0  0
   -7.1845   -4.4237    7.3397 H   0  0  0  0  0  0  0  0  0  0  0  0
   -5.8382   -4.5166    6.2586 H   0  0  0  0  0  0  0  0  0  0  0  0
   -6.5251   -5.9968    6.9283 H   0  0  0  0  0  0  0  0  0  0  0  0
   -5.5283   -6.5107    5.0358 H   0  0  0  0  0  0  0  0  0  0  0  0
   -6.1043   -5.8914    3.5543 H   0  0  0  0  0  0  0  0  0  0  0  0
   -6.6580   -8.8332    4.3088 H   0  0  0  0  0  0  0  0  0  0  0  0
   -6.8423   -7.9520    2.8275 H   0  0  0  0  0  0  0  0  0  0  0  0
   -9.2131  -12.6837    4.1284 H   0  0  0  0  0  0  0  0  0  0  0  0
   -9.4602  -13.5875    1.8209 H   0  0  0  0  0  0  0  0  0  0  0  0
   -8.2008   -6.6059    2.6846 H   0  0  0  0  0  0  0  0  0  0  0  0
  1  2  1  0  0  0  0
  1 43  1  0  0  0  0
  1 44  1  0  0  0  0
  1 45  1  0  0  0  0
  2  3  1  0  0  0  0
  2 42  2  0  0  0  0
  3  4  2  0  0  0  0
  3 46  1  0  0  0  0
  4  5  1  0  0  0  0
  4 47  1  0  0  0  0
  5  6  2  0  0  0  0
  5 48  1  0  0  0  0
  6  7  1  0  0  0  0
  6 42  1  0  0  0  0
  7  8  1  0  0  0  0
  7 49  1  0  0  0  0
  8  9  2  0  0  0  0
  8 10  1  0  0  0  0
 10 11  1  0  0  0  0
 10 16  1  0  0  0  0
 11 12  1  0  0  0  0
 11 50  1  0  0  0  0
 11 51  1  0  0  0  0
 12 13  1  0  0  0  0
 12 52  1  0  0  0  0
 12 53  1  0  0  0  0
 13 14  1  0  0  0  0
 13 15  1  0  0  0  0
 13 54  1  0  0  0  0
 14 55  1  0  0  0  0
 14 56  1  0  0  0  0
 14 57  1  0  0  0  0
 15 58  1  0  0  0  0
 15 59  1  0  0  0  0
 15 60  1  0  0  0  0
 16 17  1  0  0  0  0
 16 61  1  0  0  0  0
 16 62  1  0  0  0  0
 17 18  2  0  0  0  0
 17 41  1  0  0  0  0
 18 19  1  0  0  0  0
 18 63  1  0  0  0  0
 19 20  2  0  0  0  0
 19 64  1  0  0  0  0
 20 21  1  0  0  0  0
 20 41  1  0  0  0  0
 21 22  1  0  0  0  0
 21 25  2  0  0  0  0
 22 23  1  0  0  0  0
 22 65  1  0  0  0  0
 23 24  2  0  0  0  0
 24 25  1  0  0  0  0
 24 40  1  0  0  0  0
 25 26  1  0  0  0  0
 26 27  1  0  0  0  0
 26 66  1  0  0  0  0
 26 67  1  0  0  0  0
 27 28  1  0  0  0  0
 27 40  2  0  0  0  0
 28 29  2  0  0  0  0
 28 68  1  0  0  0  0
 29 30  1  0  0  0  0
 29 38  1  0  0  0  0
 30 31  1  0  0  0  0
 30 69  1  0  0  0  0
 30 70  1  0  0  0  0
 31 32  1  0  0  0  0
 31 37  1  0  0  0  0
 32 33  1  0  0  0  0
 32 71  1  0  0  0  0
 32 72  1  0  0  0  0
 33 34  1  0  0  0  0
 33 73  1  0  0  0  0
 33 74  1  0  0  0  0
 34 35  1  0  0  0  0
 34 36  1  0  0  0  0
 35 75  1  0  0  0  0
 35 76  1  0  0  0  0
 35 77  1  0  0  0  0
 36 37  1  0  0  0  0
 36 78  1  0  0  0  0
 36 79  1  0  0  0  0
 37 80  1  0  0  0  0
 37 81  1  0  0  0  0
 38 39  2  0  0  0  0
 38 82  1  0  0  0  0
 39 40  1  0  0  0  0
 39 83  1  0  0  0  0
 42 84  1  0  0  0  0
M  END
$$$$
