CHEMBL1978195
 OpenBabel04072215363D

 28 30  0  0  0  0  0  0  0  0999 V2000
    1.2001    0.4856   -0.2059 N   0  0  0  0  0  0  0  0  0  0  0  0
    2.4123   -0.0832    0.0684 C   0  0  0  0  0  0  0  0  0  0  0  0
    2.8298   -0.0704    1.2232 O   0  0  0  0  0  0  0  0  0  0  0  0
    3.1244   -0.6853   -1.0424 C   0  0  0  0  0  0  0  0  0  0  0  0
    4.3418   -1.3329   -0.9781 C   0  0  0  0  0  0  0  0  0  0  0  0
    4.7802   -1.9119   -2.2261 C   0  0  0  0  0  0  0  0  0  0  0  0
    5.9142   -2.7057   -2.5690 C   0  0  0  0  0  0  0  0  0  0  0  0
    6.9091   -3.1534   -1.5689 C   0  0  0  0  0  0  0  0  0  0  0  0
    6.5356   -3.5777   -0.2797 C   0  0  0  0  0  0  0  0  0  0  0  0
    7.4842   -3.9417    0.6813 C   0  0  0  0  0  0  0  0  0  0  0  0
    8.8335   -3.9450    0.3511 C   0  0  0  0  0  0  0  0  0  0  0  0
   10.1193   -4.4300    1.6470 Br  0  0  0  0  0  0  0  0  0  0  0  0
    9.2374   -3.5925   -0.9314 C   0  0  0  0  0  0  0  0  0  0  0  0
    8.2854   -3.1910   -1.8759 C   0  0  0  0  0  0  0  0  0  0  0  0
    6.0302   -3.0245   -3.9279 C   0  0  0  0  0  0  0  0  0  0  0  0
    5.1764   -2.6550   -4.9059 N   0  0  0  0  0  0  0  0  0  0  0  0
    4.0942   -1.9282   -4.5695 C   0  0  0  0  0  0  0  0  0  0  0  0
    3.8803   -1.5618   -3.2413 C   0  0  0  0  0  0  0  0  0  0  0  0
    2.5362   -0.6679   -2.6394 S   0  0  0  0  0  0  0  0  0  0  0  0
    0.6861    0.8938    0.5619 H   0  0  0  0  0  0  0  0  0  0  0  0
    0.8019    0.4827   -1.1332 H   0  0  0  0  0  0  0  0  0  0  0  0
    4.8837   -1.4082   -0.0417 H   0  0  0  0  0  0  0  0  0  0  0  0
    5.4856   -3.6302    0.0032 H   0  0  0  0  0  0  0  0  0  0  0  0
    7.1546   -4.2199    1.6790 H   0  0  0  0  0  0  0  0  0  0  0  0
   10.2889   -3.6130   -1.2062 H   0  0  0  0  0  0  0  0  0  0  0  0
    8.6416   -2.8973   -2.8615 H   0  0  0  0  0  0  0  0  0  0  0  0
    6.8603   -3.6287   -4.2896 H   0  0  0  0  0  0  0  0  0  0  0  0
    3.4183   -1.6547   -5.3730 H   0  0  0  0  0  0  0  0  0  0  0  0
  1  2  1  0  0  0  0
  1 20  1  0  0  0  0
  1 21  1  0  0  0  0
  2  3  2  0  0  0  0
  2  4  1  0  0  0  0
  4  5  2  0  0  0  0
  4 19  1  0  0  0  0
  5  6  1  0  0  0  0
  5 22  1  0  0  0  0
  6  7  1  0  0  0  0
  6 18  2  0  0  0  0
  7  8  1  0  0  0  0
  7 15  2  0  0  0  0
  8  9  1  0  0  0  0
  8 14  2  0  0  0  0
  9 10  2  0  0  0  0
  9 23  1  0  0  0  0
 10 11  1  0  0  0  0
 10 24  1  0  0  0  0
 11 12  1  0  0  0  0
 11 13  2  0  0  0  0
 13 14  1  0  0  0  0
 13 25  1  0  0  0  0
 14 26  1  0  0  0  0
 15 16  1  0  0  0  0
 15 27  1  0  0  0  0
 16 17  2  0  0  0  0
 17 18  1  0  0  0  0
 17 28  1  0  0  0  0
 18 19  1  0  0  0  0
M  END
$$$$
