CHEMBL3690551
 OpenBabel04072215373D

 54 58  0  0  0  0  0  0  0  0999 V2000
    2.6692   -0.8964   -0.8039 O   0  0  0  0  0  0  0  0  0  0  0  0
    2.5455   -0.5761    0.3702 C   0  0  0  0  0  0  0  0  0  0  0  0
    1.4475   -0.9747    1.1042 N   0  0  0  0  0  0  0  0  0  0  0  0
    0.3452   -1.6498    0.4064 C   0  0  0  0  0  0  0  0  0  0  0  0
   -0.6781   -0.7086   -0.2442 C   0  0  0  0  0  0  0  0  0  0  0  0
   -0.3852    0.5925   -0.0104 F   0  0  0  0  0  0  0  0  0  0  0  0
   -0.7688   -0.8862   -1.5774 F   0  0  0  0  0  0  0  0  0  0  0  0
   -1.9091   -0.9298    0.2810 F   0  0  0  0  0  0  0  0  0  0  0  0
    3.4171    0.1726    1.1309 N   0  0  0  0  0  0  0  0  0  0  0  0
    4.6393    0.7407    0.7072 C   0  0  0  0  0  0  0  0  0  0  0  0
    5.1289    0.6059   -0.5924 C   0  0  0  0  0  0  0  0  0  0  0  0
    6.3777    1.1124   -0.9348 C   0  0  0  0  0  0  0  0  0  0  0  0
    7.1327    1.7900    0.0141 C   0  0  0  0  0  0  0  0  0  0  0  0
    6.6106    2.0681    1.2848 C   0  0  0  0  0  0  0  0  0  0  0  0
    7.2964    3.0030    2.1869 C   0  0  0  0  0  0  0  0  0  0  0  0
    7.4026    3.0164    3.5688 C   0  0  0  0  0  0  0  0  0  0  0  0
    8.0811    4.1177    4.0256 N   0  0  0  0  0  0  0  0  0  0  0  0
    8.3856    4.8097    2.9510 C   0  0  0  0  0  0  0  0  0  0  0  0
    9.0576    6.0636    2.8036 C   0  0  0  0  0  0  0  0  0  0  0  0
    9.2566    6.6169    1.5800 C   0  0  0  0  0  0  0  0  0  0  0  0
    9.9085    7.9477    1.4426 C   0  0  0  0  0  0  0  0  0  0  0  0
   10.0322    8.4206    0.1863 N   0  0  0  0  0  0  0  0  0  0  0  0
   10.5840    9.6328    0.0552 C   0  0  0  0  0  0  0  0  0  0  0  0
   11.0256   10.3707    1.1219 C   0  0  0  0  0  0  0  0  0  0  0  0
   10.8860    9.8030    2.3759 C   0  0  0  0  0  0  0  0  0  0  0  0
   11.3603   10.5295    3.4934 N   0  0  0  0  0  0  0  0  0  0  0  0
   11.3377   10.0643    4.8505 C   0  0  0  0  0  0  0  0  0  0  0  0
   12.8143   10.4194    4.9695 C   0  0  0  0  0  0  0  0  0  0  0  0
   12.7019   11.0385    3.5838 C   0  0  0  0  0  0  0  0  0  0  0  0
   10.3109    8.5986    2.5527 N   0  0  0  0  0  0  0  0  0  0  0  0
    8.7784    5.8926    0.3952 C   0  0  0  0  0  0  0  0  0  0  0  0
    8.1171    4.7374    0.5286 C   0  0  0  0  0  0  0  0  0  0  0  0
    7.9290    4.1819    1.7953 N   0  0  0  0  0  0  0  0  0  0  0  0
    5.3822    1.4862    1.6397 C   0  0  0  0  0  0  0  0  0  0  0  0
    1.1778   -0.3530    1.8531 H   0  0  0  0  0  0  0  0  0  0  0  0
   -0.1517   -2.2762    1.1535 H   0  0  0  0  0  0  0  0  0  0  0  0
    0.7575   -2.3217   -0.3555 H   0  0  0  0  0  0  0  0  0  0  0  0
    3.1967    0.2594    2.1111 H   0  0  0  0  0  0  0  0  0  0  0  0
    4.5716    0.0936   -1.3688 H   0  0  0  0  0  0  0  0  0  0  0  0
    6.7557    0.9869   -1.9458 H   0  0  0  0  0  0  0  0  0  0  0  0
    8.1234    2.1318   -0.2741 H   0  0  0  0  0  0  0  0  0  0  0  0
    7.0177    2.2836    4.2659 H   0  0  0  0  0  0  0  0  0  0  0  0
    9.3784    6.5594    3.7143 H   0  0  0  0  0  0  0  0  0  0  0  0
   10.6599   10.0070   -0.9607 H   0  0  0  0  0  0  0  0  0  0  0  0
   11.4512   11.3549    0.9845 H   0  0  0  0  0  0  0  0  0  0  0  0
   11.1036    9.0054    4.9828 H   0  0  0  0  0  0  0  0  0  0  0  0
   10.6689   10.6764    5.4644 H   0  0  0  0  0  0  0  0  0  0  0  0
   13.4798    9.5506    5.0180 H   0  0  0  0  0  0  0  0  0  0  0  0
   13.0696   11.1175    5.7709 H   0  0  0  0  0  0  0  0  0  0  0  0
   13.3940   10.6270    2.8426 H   0  0  0  0  0  0  0  0  0  0  0  0
   12.7181   12.1317    3.5531 H   0  0  0  0  0  0  0  0  0  0  0  0
    8.9495    6.3181   -0.5896 H   0  0  0  0  0  0  0  0  0  0  0  0
    7.7245    4.2292   -0.3382 H   0  0  0  0  0  0  0  0  0  0  0  0
    4.9867    1.6485    2.6393 H   0  0  0  0  0  0  0  0  0  0  0  0
  1  2  2  0  0  0  0
  2  3  1  0  0  0  0
  2  9  1  0  0  0  0
  3  4  1  0  0  0  0
  3 35  1  0  0  0  0
  4  5  1  0  0  0  0
  4 36  1  0  0  0  0
  4 37  1  0  0  0  0
  5  6  1  0  0  0  0
  5  7  1  0  0  0  0
  5  8  1  0  0  0  0
  9 10  1  0  0  0  0
  9 38  1  0  0  0  0
 10 11  1  0  0  0  0
 10 34  2  0  0  0  0
 11 12  2  0  0  0  0
 11 39  1  0  0  0  0
 12 13  1  0  0  0  0
 12 40  1  0  0  0  0
 13 14  2  0  0  0  0
 13 41  1  0  0  0  0
 14 15  1  0  0  0  0
 14 34  1  0  0  0  0
 15 16  2  0  0  0  0
 15 33  1  0  0  0  0
 16 17  1  0  0  0  0
 16 42  1  0  0  0  0
 17 18  2  0  0  0  0
 18 19  1  0  0  0  0
 18 33  1  0  0  0  0
 19 20  2  0  0  0  0
 19 43  1  0  0  0  0
 20 21  1  0  0  0  0
 20 31  1  0  0  0  0
 21 22  1  0  0  0  0
 21 30  2  0  0  0  0
 22 23  2  0  0  0  0
 23 24  1  0  0  0  0
 23 44  1  0  0  0  0
 24 25  2  0  0  0  0
 24 45  1  0  0  0  0
 25 26  1  0  0  0  0
 25 30  1  0  0  0  0
 26 27  1  0  0  0  0
 26 29  1  0  0  0  0
 27 28  1  0  0  0  0
 27 46  1  0  0  0  0
 27 47  1  0  0  0  0
 28 29  1  0  0  0  0
 28 48  1  0  0  0  0
 28 49  1  0  0  0  0
 29 50  1  0  0  0  0
 29 51  1  0  0  0  0
 31 32  2  0  0  0  0
 31 52  1  0  0  0  0
 32 33  1  0  0  0  0
 32 53  1  0  0  0  0
 34 54  1  0  0  0  0
M  END
$$$$
