CHEMBL3892583
 OpenBabel04072215373D

 54 58  0  0  0  0  0  0  0  0999 V2000
    2.1375   -0.4874   -1.0684 O   0  0  0  0  0  0  0  0  0  0  0  0
    3.2049   -0.4331   -0.4658 C   0  0  0  0  0  0  0  0  0  0  0  0
    3.5853   -1.2244    0.6053 N   0  0  0  0  0  0  0  0  0  0  0  0
    2.7885   -2.2749    1.1343 C   0  0  0  0  0  0  0  0  0  0  0  0
    1.7100   -2.8111    0.4238 C   0  0  0  0  0  0  0  0  0  0  0  0
    0.8333   -3.7167    1.0130 C   0  0  0  0  0  0  0  0  0  0  0  0
    1.0547   -4.1388    2.3140 C   0  0  0  0  0  0  0  0  0  0  0  0
    2.2216   -3.7593    2.9743 C   0  0  0  0  0  0  0  0  0  0  0  0
    2.5752   -4.2456    4.2116 O   0  0  0  0  0  0  0  0  0  0  0  0
    2.2941   -5.5556    4.5628 C   0  0  0  0  0  0  0  0  0  0  0  0
    2.0249   -6.6107    3.6748 C   0  0  0  0  0  0  0  0  0  0  0  0
    1.6423   -7.8934    4.1354 C   0  0  0  0  0  0  0  0  0  0  0  0
    1.7702   -8.1539    5.5099 C   0  0  0  0  0  0  0  0  0  0  0  0
    1.6129   -9.2349    6.4477 C   0  0  0  0  0  0  0  0  0  0  0  0
    0.4308   -9.5582    7.2490 C   0  0  0  0  0  0  0  0  0  0  0  0
   -0.5966   -8.7002    7.4305 C   0  0  0  0  0  0  0  0  0  0  0  0
   -1.1466   -8.3905    8.7706 C   0  0  0  0  0  0  0  0  0  0  0  0
   -0.2919   -8.2498    9.8856 C   0  0  0  0  0  0  0  0  0  0  0  0
   -0.7542   -7.6938   11.0847 C   0  0  0  0  0  0  0  0  0  0  0  0
   -2.0759   -7.2754   11.1835 C   0  0  0  0  0  0  0  0  0  0  0  0
   -2.6343   -6.5344   12.6326 Cl  0  0  0  0  0  0  0  0  0  0  0  0
   -2.9399   -7.4222   10.0976 C   0  0  0  0  0  0  0  0  0  0  0  0
   -2.4731   -7.9731    8.8967 C   0  0  0  0  0  0  0  0  0  0  0  0
    2.7261   -9.1975    7.2135 N   0  0  0  0  0  0  0  0  0  0  0  0
    2.9005   -7.8638    7.3351 N   0  0  0  0  0  0  0  0  0  0  0  0
    2.3584   -7.1632    6.2958 C   0  0  0  0  0  0  0  0  0  0  0  0
    2.4436   -5.8216    5.9247 C   0  0  0  0  0  0  0  0  0  0  0  0
    3.0679   -2.7884    2.4079 C   0  0  0  0  0  0  0  0  0  0  0  0
    4.1315    0.6549   -0.8724 C   0  0  0  0  0  0  0  0  0  0  0  0
    3.5590    1.8341   -1.3674 C   0  0  0  0  0  0  0  0  0  0  0  0
    4.3591    2.8472   -1.8847 C   0  0  0  0  0  0  0  0  0  0  0  0
    5.7411    2.6798   -1.9234 C   0  0  0  0  0  0  0  0  0  0  0  0
    6.3205    1.5126   -1.4241 C   0  0  0  0  0  0  0  0  0  0  0  0
    5.5211    0.4895   -0.9028 C   0  0  0  0  0  0  0  0  0  0  0  0
    4.3818   -0.9351    1.1560 H   0  0  0  0  0  0  0  0  0  0  0  0
    1.5114   -2.5358   -0.6052 H   0  0  0  0  0  0  0  0  0  0  0  0
   -0.0156   -4.0934    0.4525 H   0  0  0  0  0  0  0  0  0  0  0  0
    0.3321   -4.8047    2.7798 H   0  0  0  0  0  0  0  0  0  0  0  0
    2.1130   -6.4634    2.6010 H   0  0  0  0  0  0  0  0  0  0  0  0
    1.4116   -8.6796    3.4239 H   0  0  0  0  0  0  0  0  0  0  0  0
    0.6516  -10.2727    8.0443 H   0  0  0  0  0  0  0  0  0  0  0  0
   -0.8191   -7.9444    6.6822 H   0  0  0  0  0  0  0  0  0  0  0  0
    0.7620   -8.5141    9.8174 H   0  0  0  0  0  0  0  0  0  0  0  0
   -0.0685   -7.5580   11.9191 H   0  0  0  0  0  0  0  0  0  0  0  0
   -3.9671   -7.0769   10.1692 H   0  0  0  0  0  0  0  0  0  0  0  0
   -3.1510   -8.0287    8.0468 H   0  0  0  0  0  0  0  0  0  0  0  0
    3.5208   -7.5329    8.0584 H   0  0  0  0  0  0  0  0  0  0  0  0
    2.7552   -5.0510    6.6207 H   0  0  0  0  0  0  0  0  0  0  0  0
    3.9150   -2.4294    2.9842 H   0  0  0  0  0  0  0  0  0  0  0  0
    2.4754    1.9529   -1.3710 H   0  0  0  0  0  0  0  0  0  0  0  0
    3.9009    3.7498   -2.2827 H   0  0  0  0  0  0  0  0  0  0  0  0
    6.3642    3.4574   -2.3543 H   0  0  0  0  0  0  0  0  0  0  0  0
    7.3977    1.3712   -1.4952 H   0  0  0  0  0  0  0  0  0  0  0  0
    5.9856   -0.4443   -0.5850 H   0  0  0  0  0  0  0  0  0  0  0  0
  1  2  2  0  0  0  0
  2  3  1  0  0  0  0
  2 29  1  0  0  0  0
  3  4  1  0  0  0  0
  3 35  1  0  0  0  0
  4  5  1  0  0  0  0
  4 28  2  0  0  0  0
  5  6  2  0  0  0  0
  5 36  1  0  0  0  0
  6  7  1  0  0  0  0
  6 37  1  0  0  0  0
  7  8  2  0  0  0  0
  7 38  1  0  0  0  0
  8  9  1  0  0  0  0
  8 28  1  0  0  0  0
  9 10  1  0  0  0  0
 10 11  1  0  0  0  0
 10 27  2  0  0  0  0
 11 12  2  0  0  0  0
 11 39  1  0  0  0  0
 12 13  1  0  0  0  0
 12 40  1  0  0  0  0
 13 14  1  0  0  0  0
 13 26  2  0  0  0  0
 14 15  1  0  0  0  0
 14 24  2  0  0  0  0
 15 16  2  0  0  0  0
 15 41  1  0  0  0  0
 16 17  1  0  0  0  0
 16 42  1  0  0  0  0
 17 18  1  0  0  0  0
 17 23  2  0  0  0  0
 18 19  2  0  0  0  0
 18 43  1  0  0  0  0
 19 20  1  0  0  0  0
 19 44  1  0  0  0  0
 20 21  1  0  0  0  0
 20 22  2  0  0  0  0
 22 23  1  0  0  0  0
 22 45  1  0  0  0  0
 23 46  1  0  0  0  0
 24 25  1  0  0  0  0
 25 26  1  0  0  0  0
 25 47  1  0  0  0  0
 26 27  1  0  0  0  0
 27 48  1  0  0  0  0
 28 49  1  0  0  0  0
 29 30  1  0  0  0  0
 29 34  2  0  0  0  0
 30 31  2  0  0  0  0
 30 50  1  0  0  0  0
 31 32  1  0  0  0  0
 31 51  1  0  0  0  0
 32 33  2  0  0  0  0
 32 52  1  0  0  0  0
 33 34  1  0  0  0  0
 33 53  1  0  0  0  0
 34 54  1  0  0  0  0
M  END
$$$$
