CHEMBL1940859
 OpenBabel04072215363D

 33 35  0  0  0  0  0  0  0  0999 V2000
    0.9539    0.1389    0.0319 C   0  0  0  0  0  0  0  0  0  0  0  0
    2.4499    0.1563    0.1100 C   0  0  0  0  0  0  0  0  0  0  0  0
    3.1715    1.3511    0.1127 C   0  0  0  0  0  0  0  0  0  0  0  0
    4.5660    1.3285    0.1922 C   0  0  0  0  0  0  0  0  0  0  0  0
    5.2589    0.1045    0.2603 C   0  0  0  0  0  0  0  0  0  0  0  0
    6.6633    0.0314    0.3226 C   0  0  0  0  0  0  0  0  0  0  0  0
    7.3243   -1.2052    0.3566 C   0  0  0  0  0  0  0  0  0  0  0  0
    8.8033   -1.1792    0.3674 C   0  0  0  0  0  0  0  0  0  0  0  0
    9.5852   -2.0991    0.9535 C   0  0  0  0  0  0  0  0  0  0  0  0
   11.0802   -2.0188    0.9370 C   0  0  0  0  0  0  0  0  0  0  0  0
   11.6347   -0.9400    0.7284 O   0  0  0  0  0  0  0  0  0  0  0  0
   11.7709   -3.2723    1.2101 C   0  0  0  0  0  0  0  0  0  0  0  0
   11.3845   -4.5650    0.8967 C   0  0  0  0  0  0  0  0  0  0  0  0
   12.2909   -5.5452    1.3984 C   0  0  0  0  0  0  0  0  0  0  0  0
   13.3384   -4.9552    2.0568 C   0  0  0  0  0  0  0  0  0  0  0  0
   14.7099   -5.9265    2.8842 Br  0  0  0  0  0  0  0  0  0  0  0  0
   13.2701   -3.2615    2.0471 S   0  0  0  0  0  0  0  0  0  0  0  0
    6.4933   -2.3291    0.3101 C   0  0  0  0  0  0  0  0  0  0  0  0
    7.0586   -3.9569    0.2053 Cl  0  0  0  0  0  0  0  0  0  0  0  0
    5.1415   -2.2971    0.2822 N   0  0  0  0  0  0  0  0  0  0  0  0
    4.5390   -1.1046    0.2535 C   0  0  0  0  0  0  0  0  0  0  0  0
    3.1527   -1.0547    0.1921 C   0  0  0  0  0  0  0  0  0  0  0  0
    0.5499    1.1355   -0.1684 H   0  0  0  0  0  0  0  0  0  0  0  0
    0.5340   -0.2197    0.9769 H   0  0  0  0  0  0  0  0  0  0  0  0
    0.6266   -0.5213   -0.7787 H   0  0  0  0  0  0  0  0  0  0  0  0
    2.6566    2.3071    0.0482 H   0  0  0  0  0  0  0  0  0  0  0  0
    5.1103    2.2709    0.1915 H   0  0  0  0  0  0  0  0  0  0  0  0
    7.2407    0.9550    0.3376 H   0  0  0  0  0  0  0  0  0  0  0  0
    9.2670   -0.3236   -0.1227 H   0  0  0  0  0  0  0  0  0  0  0  0
    9.1831   -2.9502    1.4845 H   0  0  0  0  0  0  0  0  0  0  0  0
   10.4874   -4.8064    0.3376 H   0  0  0  0  0  0  0  0  0  0  0  0
   12.1642   -6.6151    1.2810 H   0  0  0  0  0  0  0  0  0  0  0  0
    2.6042   -1.9958    0.1974 H   0  0  0  0  0  0  0  0  0  0  0  0
  1  2  1  0  0  0  0
  1 23  1  0  0  0  0
  1 24  1  0  0  0  0
  1 25  1  0  0  0  0
  2  3  1  0  0  0  0
  2 22  2  0  0  0  0
  3  4  2  0  0  0  0
  3 26  1  0  0  0  0
  4  5  1  0  0  0  0
  4 27  1  0  0  0  0
  5  6  1  0  0  0  0
  5 21  2  0  0  0  0
  6  7  2  0  0  0  0
  6 28  1  0  0  0  0
  7  8  1  0  0  0  0
  7 18  1  0  0  0  0
  8  9  2  0  0  0  0
  8 29  1  0  0  0  0
  9 10  1  0  0  0  0
  9 30  1  0  0  0  0
 10 11  2  0  0  0  0
 10 12  1  0  0  0  0
 12 13  2  0  0  0  0
 12 17  1  0  0  0  0
 13 14  1  0  0  0  0
 13 31  1  0  0  0  0
 14 15  2  0  0  0  0
 14 32  1  0  0  0  0
 15 16  1  0  0  0  0
 15 17  1  0  0  0  0
 18 19  1  0  0  0  0
 18 20  2  0  0  0  0
 20 21  1  0  0  0  0
 21 22  1  0  0  0  0
 22 33  1  0  0  0  0
M  END
$$$$
