CHEMBL3706836
 OpenBabel04072215373D

 68 72  0  0  0  0  0  0  0  0999 V2000
    2.4547   -1.4733   -0.5880 C   0  0  0  0  0  0  0  0  0  0  0  0
    2.3589   -0.1377   -0.0763 O   0  0  0  0  0  0  0  0  0  0  0  0
    3.0345    0.7942   -0.8244 C   0  0  0  0  0  0  0  0  0  0  0  0
    4.1703    0.4360   -1.5519 C   0  0  0  0  0  0  0  0  0  0  0  0
    4.6984    1.2720   -2.5516 C   0  0  0  0  0  0  0  0  0  0  0  0
    5.6911    0.8789   -3.4710 C   0  0  0  0  0  0  0  0  0  0  0  0
    6.2131   -0.4406   -3.4398 N   0  0  0  0  0  0  0  0  0  0  0  0
    7.0067   -1.0644   -4.3973 C   0  0  0  0  0  0  0  0  0  0  0  0
    7.2695   -0.6396   -5.6305 C   0  0  0  0  0  0  0  0  0  0  0  0
    8.0298   -1.3953   -6.6398 C   0  0  0  0  0  0  0  0  0  0  0  0
    8.2418   -0.8969   -7.7388 O   0  0  0  0  0  0  0  0  0  0  0  0
    8.4767   -2.7674   -6.2707 C   0  0  0  0  0  0  0  0  0  0  0  0
    9.0872   -3.6182   -7.1805 O   0  0  0  0  0  0  0  0  0  0  0  0
    8.6157   -3.5144   -8.5312 C   0  0  0  0  0  0  0  0  0  0  0  0
    8.7124   -4.8718   -9.1864 C   0  0  0  0  0  0  0  0  0  0  0  0
    7.5692   -5.4987   -9.7047 C   0  0  0  0  0  0  0  0  0  0  0  0
    7.6663   -6.7398  -10.3363 C   0  0  0  0  0  0  0  0  0  0  0  0
    8.9048   -7.3669  -10.4550 C   0  0  0  0  0  0  0  0  0  0  0  0
   10.0462   -6.7570   -9.9381 C   0  0  0  0  0  0  0  0  0  0  0  0
    9.9517   -5.5154   -9.3078 C   0  0  0  0  0  0  0  0  0  0  0  0
    8.2931   -3.1907   -5.0170 C   0  0  0  0  0  0  0  0  0  0  0  0
    7.5731   -2.4049   -4.0016 C   0  0  0  0  0  0  0  0  0  0  0  0
    7.4002   -2.8558   -2.8710 O   0  0  0  0  0  0  0  0  0  0  0  0
    6.1798    1.7438   -4.3667 N   0  0  0  0  0  0  0  0  0  0  0  0
    5.6423    2.9714   -4.3961 C   0  0  0  0  0  0  0  0  0  0  0  0
    4.6557    3.4172   -3.6162 N   0  0  0  0  0  0  0  0  0  0  0  0
    4.1795    2.5656   -2.7001 C   0  0  0  0  0  0  0  0  0  0  0  0
    3.1406    2.9656   -1.8604 C   0  0  0  0  0  0  0  0  0  0  0  0
    2.5675    2.1066   -0.9101 C   0  0  0  0  0  0  0  0  0  0  0  0
    1.5454    2.6571   -0.1770 O   0  0  0  0  0  0  0  0  0  0  0  0
    1.4096    2.1764    1.1692 C   0  0  0  0  0  0  0  0  0  0  0  0
    0.9246    3.3249    2.0579 C   0  0  0  0  0  0  0  0  0  0  0  0
    0.7982    2.8805    3.5239 C   0  0  0  0  0  0  0  0  0  0  0  0
    0.2830    3.9292    4.4215 N   0  0  0  0  0  0  0  0  0  0  0  0
    1.1646    5.0979    4.5552 C   0  0  0  0  0  0  0  0  0  0  0  0
    2.1107    4.7651    5.6904 C   0  0  0  0  0  0  0  0  0  0  0  0
    1.2376    3.9875    6.6531 C   0  0  0  0  0  0  0  0  0  0  0  0
    0.1099    3.4165    5.7967 C   0  0  0  0  0  0  0  0  0  0  0  0
    1.6266   -2.0650   -0.1920 H   0  0  0  0  0  0  0  0  0  0  0  0
    3.3904   -1.9346   -0.2540 H   0  0  0  0  0  0  0  0  0  0  0  0
    2.3849   -1.5025   -1.6843 H   0  0  0  0  0  0  0  0  0  0  0  0
    4.6386   -0.5220   -1.3589 H   0  0  0  0  0  0  0  0  0  0  0  0
    5.5839   -1.1219   -3.0221 H   0  0  0  0  0  0  0  0  0  0  0  0
    6.8884    0.2986   -6.0159 H   0  0  0  0  0  0  0  0  0  0  0  0
    9.2430   -2.8056   -9.0845 H   0  0  0  0  0  0  0  0  0  0  0  0
    7.5720   -3.1776   -8.5703 H   0  0  0  0  0  0  0  0  0  0  0  0
    6.5939   -5.0237   -9.6250 H   0  0  0  0  0  0  0  0  0  0  0  0
    6.7757   -7.2153  -10.7390 H   0  0  0  0  0  0  0  0  0  0  0  0
    8.9807   -8.3305  -10.9515 H   0  0  0  0  0  0  0  0  0  0  0  0
   11.0120   -7.2474  -10.0272 H   0  0  0  0  0  0  0  0  0  0  0  0
   10.8499   -5.0476   -8.9094 H   0  0  0  0  0  0  0  0  0  0  0  0
    8.6409   -4.1678   -4.7019 H   0  0  0  0  0  0  0  0  0  0  0  0
    6.0401    3.6584   -5.1354 H   0  0  0  0  0  0  0  0  0  0  0  0
    2.7472    3.9747   -1.9617 H   0  0  0  0  0  0  0  0  0  0  0  0
    2.3661    1.8173    1.5669 H   0  0  0  0  0  0  0  0  0  0  0  0
    0.6739    1.3643    1.1771 H   0  0  0  0  0  0  0  0  0  0  0  0
   -0.0364    3.7009    1.6858 H   0  0  0  0  0  0  0  0  0  0  0  0
    1.6354    4.1512    1.9533 H   0  0  0  0  0  0  0  0  0  0  0  0
    1.7593    2.4912    3.8822 H   0  0  0  0  0  0  0  0  0  0  0  0
    0.0887    2.0418    3.5454 H   0  0  0  0  0  0  0  0  0  0  0  0
    0.5476    5.9618    4.8329 H   0  0  0  0  0  0  0  0  0  0  0  0
    1.7007    5.3810    3.6469 H   0  0  0  0  0  0  0  0  0  0  0  0
    2.5370    5.6608    6.1526 H   0  0  0  0  0  0  0  0  0  0  0  0
    2.9370    4.1377    5.3369 H   0  0  0  0  0  0  0  0  0  0  0  0
    0.8270    4.6596    7.4161 H   0  0  0  0  0  0  0  0  0  0  0  0
    1.8090    3.2064    7.1645 H   0  0  0  0  0  0  0  0  0  0  0  0
   -0.8537    3.7649    6.1869 H   0  0  0  0  0  0  0  0  0  0  0  0
    0.0906    2.3215    5.8527 H   0  0  0  0  0  0  0  0  0  0  0  0
  1  2  1  0  0  0  0
  1 39  1  0  0  0  0
  1 40  1  0  0  0  0
  1 41  1  0  0  0  0
  2  3  1  0  0  0  0
  3  4  1  0  0  0  0
  3 29  2  0  0  0  0
  4  5  2  0  0  0  0
  4 42  1  0  0  0  0
  5  6  1  0  0  0  0
  5 27  1  0  0  0  0
  6  7  1  0  0  0  0
  6 24  2  0  0  0  0
  7  8  1  0  0  0  0
  7 43  1  0  0  0  0
  8  9  2  0  0  0  0
  8 22  1  0  0  0  0
  9 10  1  0  0  0  0
  9 44  1  0  0  0  0
 10 11  2  0  0  0  0
 10 12  1  0  0  0  0
 12 13  1  0  0  0  0
 12 21  2  0  0  0  0
 13 14  1  0  0  0  0
 14 15  1  0  0  0  0
 14 45  1  0  0  0  0
 14 46  1  0  0  0  0
 15 16  1  0  0  0  0
 15 20  2  0  0  0  0
 16 17  2  0  0  0  0
 16 47  1  0  0  0  0
 17 18  1  0  0  0  0
 17 48  1  0  0  0  0
 18 19  2  0  0  0  0
 18 49  1  0  0  0  0
 19 20  1  0  0  0  0
 19 50  1  0  0  0  0
 20 51  1  0  0  0  0
 21 22  1  0  0  0  0
 21 52  1  0  0  0  0
 22 23  2  0  0  0  0
 24 25  1  0  0  0  0
 25 26  2  0  0  0  0
 25 53  1  0  0  0  0
 26 27  1  0  0  0  0
 27 28  2  0  0  0  0
 28 29  1  0  0  0  0
 28 54  1  0  0  0  0
 29 30  1  0  0  0  0
 30 31  1  0  0  0  0
 31 32  1  0  0  0  0
 31 55  1  0  0  0  0
 31 56  1  0  0  0  0
 32 33  1  0  0  0  0
 32 57  1  0  0  0  0
 32 58  1  0  0  0  0
 33 34  1  0  0  0  0
 33 59  1  0  0  0  0
 33 60  1  0  0  0  0
 34 35  1  0  0  0  0
 34 38  1  0  0  0  0
 35 36  1  0  0  0  0
 35 61  1  0  0  0  0
 35 62  1  0  0  0  0
 36 37  1  0  0  0  0
 36 63  1  0  0  0  0
 36 64  1  0  0  0  0
 37 38  1  0  0  0  0
 37 65  1  0  0  0  0
 37 66  1  0  0  0  0
 38 67  1  0  0  0  0
 38 68  1  0  0  0  0
M  END
$$$$
