CHEMBL469468
 OpenBabel04072215383D

 48 51  0  0  0  0  0  0  0  0999 V2000
    2.3813   -0.4508    1.6300 C   0  0  0  0  0  0  0  0  0  0  0  0
    0.8829   -0.3530    1.5900 C   0  0  0  0  0  0  0  0  0  0  0  0
    0.2667    0.8204    2.0379 C   0  0  0  0  0  0  0  0  0  0  0  0
   -1.1147    0.9341    2.0073 C   0  0  0  0  0  0  0  0  0  0  0  0
   -1.8926   -0.1204    1.5315 C   0  0  0  0  0  0  0  0  0  0  0  0
   -1.3144   -1.3099    1.0696 C   0  0  0  0  0  0  0  0  0  0  0  0
   -2.0883   -2.3990    0.5823 N   0  0  0  0  0  0  0  0  0  0  0  0
   -3.4667   -2.4156    0.4389 C   0  0  0  0  0  0  0  0  0  0  0  0
   -4.2012   -1.4562    0.6549 O   0  0  0  0  0  0  0  0  0  0  0  0
   -3.9774   -3.6467    0.0422 N   0  0  0  0  0  0  0  0  0  0  0  0
   -5.3882   -3.7847   -0.0912 C   0  0  0  0  0  0  0  0  0  0  0  0
   -6.1293   -2.8953   -0.8800 C   0  0  0  0  0  0  0  0  0  0  0  0
   -7.5284   -2.9547   -0.9065 C   0  0  0  0  0  0  0  0  0  0  0  0
   -8.2090   -3.8971   -0.1301 C   0  0  0  0  0  0  0  0  0  0  0  0
   -9.6842   -3.9234   -0.1099 C   0  0  0  0  0  0  0  0  0  0  0  0
  -10.5042   -3.1264    0.8875 C   0  0  0  0  0  0  0  0  0  0  0  0
   -9.7965   -2.2317    1.8865 C   0  0  0  0  0  0  0  0  0  0  0  0
  -11.8067   -3.1344    0.9743 N   0  0  0  0  0  0  0  0  0  0  0  0
  -12.4741   -3.9086    0.0800 C   0  0  0  0  0  0  0  0  0  0  0  0
  -13.8194   -4.1388   -0.1029 C   0  0  0  0  0  0  0  0  0  0  0  0
  -13.8978   -5.0337   -1.1759 C   0  0  0  0  0  0  0  0  0  0  0  0
  -12.6981   -5.3607   -1.6660 N   0  0  0  0  0  0  0  0  0  0  0  0
  -11.8155   -4.6455   -0.9034 N   0  0  0  0  0  0  0  0  0  0  0  0
  -10.3981   -4.6442   -1.0068 C   0  0  0  0  0  0  0  0  0  0  0  0
   -9.8544   -5.4178   -2.0369 N   0  0  0  0  0  0  0  0  0  0  0  0
   -7.4643   -4.8147    0.6268 C   0  0  0  0  0  0  0  0  0  0  0  0
   -6.0595   -4.7731    0.6305 C   0  0  0  0  0  0  0  0  0  0  0  0
    0.0852   -1.4157    1.1044 C   0  0  0  0  0  0  0  0  0  0  0  0
    2.8270    0.4585    2.0517 H   0  0  0  0  0  0  0  0  0  0  0  0
    2.7832   -0.5749    0.6203 H   0  0  0  0  0  0  0  0  0  0  0  0
    2.6936   -1.2894    2.2589 H   0  0  0  0  0  0  0  0  0  0  0  0
    0.8556    1.6542    2.4145 H   0  0  0  0  0  0  0  0  0  0  0  0
   -1.6002    1.8431    2.3524 H   0  0  0  0  0  0  0  0  0  0  0  0
   -2.9639    0.0383    1.5390 H   0  0  0  0  0  0  0  0  0  0  0  0
   -1.5813   -3.1987    0.2217 H   0  0  0  0  0  0  0  0  0  0  0  0
   -3.4879   -4.4353    0.4379 H   0  0  0  0  0  0  0  0  0  0  0  0
   -5.6236   -2.1278   -1.4628 H   0  0  0  0  0  0  0  0  0  0  0  0
   -8.0765   -2.2407   -1.5181 H   0  0  0  0  0  0  0  0  0  0  0  0
   -8.7113   -2.1949    1.7538 H   0  0  0  0  0  0  0  0  0  0  0  0
  -10.0123   -2.5861    2.9011 H   0  0  0  0  0  0  0  0  0  0  0  0
  -10.1889   -1.2120    1.7841 H   0  0  0  0  0  0  0  0  0  0  0  0
  -14.6248   -3.7189    0.4825 H   0  0  0  0  0  0  0  0  0  0  0  0
  -14.7824   -5.4614   -1.6316 H   0  0  0  0  0  0  0  0  0  0  0  0
  -10.5213   -6.1181   -2.3720 H   0  0  0  0  0  0  0  0  0  0  0  0
   -8.9234   -5.7830   -1.8467 H   0  0  0  0  0  0  0  0  0  0  0  0
   -7.9714   -5.5519    1.2464 H   0  0  0  0  0  0  0  0  0  0  0  0
   -5.5137   -5.4628    1.2683 H   0  0  0  0  0  0  0  0  0  0  0  0
    0.5799   -2.3195    0.7608 H   0  0  0  0  0  0  0  0  0  0  0  0
  1  2  1  0  0  0  0
  1 29  1  0  0  0  0
  1 30  1  0  0  0  0
  1 31  1  0  0  0  0
  2  3  1  0  0  0  0
  2 28  2  0  0  0  0
  3  4  2  0  0  0  0
  3 32  1  0  0  0  0
  4  5  1  0  0  0  0
  4 33  1  0  0  0  0
  5  6  2  0  0  0  0
  5 34  1  0  0  0  0
  6  7  1  0  0  0  0
  6 28  1  0  0  0  0
  7  8  1  0  0  0  0
  7 35  1  0  0  0  0
  8  9  2  0  0  0  0
  8 10  1  0  0  0  0
 10 11  1  0  0  0  0
 10 36  1  0  0  0  0
 11 12  1  0  0  0  0
 11 27  2  0  0  0  0
 12 13  2  0  0  0  0
 12 37  1  0  0  0  0
 13 14  1  0  0  0  0
 13 38  1  0  0  0  0
 14 15  1  0  0  0  0
 14 26  2  0  0  0  0
 15 16  1  0  0  0  0
 15 24  2  0  0  0  0
 16 17  1  0  0  0  0
 16 18  2  0  0  0  0
 17 39  1  0  0  0  0
 17 40  1  0  0  0  0
 17 41  1  0  0  0  0
 18 19  1  0  0  0  0
 19 20  2  0  0  0  0
 19 23  1  0  0  0  0
 20 21  1  0  0  0  0
 20 42  1  0  0  0  0
 21 22  2  0  0  0  0
 21 43  1  0  0  0  0
 22 23  1  0  0  0  0
 23 24  1  0  0  0  0
 24 25  1  0  0  0  0
 25 44  1  0  0  0  0
 25 45  1  0  0  0  0
 26 27  1  0  0  0  0
 26 46  1  0  0  0  0
 27 47  1  0  0  0  0
 28 48  1  0  0  0  0
M  END
$$$$
