CHEMBL4778971
 OpenBabel04072215383D

 57 62  0  0  1  0  0  0  0  0999 V2000
    5.5673   -0.2632    3.2559 C   0  0  0  0  0  0  0  0  0  0  0  0
    4.7195   -0.3186    2.0210 C   0  0  0  0  0  0  0  0  0  0  0  0
    5.0600   -1.1560    0.9785 C   0  0  0  0  0  0  0  0  0  0  0  0
    4.1336   -1.3491   -0.0435 C   0  0  0  0  0  0  0  0  0  0  0  0
    4.2686   -2.5377   -0.8885 C   0  0  0  0  0  0  0  0  0  0  0  0
    4.2343   -2.6987   -2.2621 C   0  0  0  0  0  0  0  0  0  0  0  0
    3.8215   -3.9607   -2.6054 N   0  0  0  0  0  0  0  0  0  0  0  0
    3.6270   -4.5784   -1.4611 C   0  0  0  0  0  0  0  0  0  0  0  0
    3.0209   -5.8213   -1.1588 C   0  0  0  0  0  0  0  0  0  0  0  0
    2.9993   -6.2798    0.1149 C   0  0  0  0  0  0  0  0  0  0  0  0
    2.2785   -7.5402    0.3018 C   0  0  0  0  0  0  0  0  0  0  0  0
    2.9651   -8.7382    0.1131 C   0  0  0  0  0  0  0  0  0  0  0  0
    2.2605   -9.9336    0.0539 C   0  0  0  0  0  0  0  0  0  0  0  0
    0.8649   -9.9571    0.2133 C   0  0  0  0  0  0  0  0  0  0  0  0
    0.1085  -11.2679    0.1231 C   0  0  3  0  0  0  0  0  0  0  0  0
    0.5813  -12.2452    1.2436 C   0  0  0  0  0  0  0  0  0  0  0  0
   -0.0655  -13.5710    1.1810 N   0  0  0  0  0  0  0  0  0  0  0  0
    0.1363  -14.1220   -0.1718 C   0  0  0  0  0  0  0  0  0  0  0  0
   -0.3663  -13.1784   -1.2857 C   0  0  0  0  0  0  0  0  0  0  0  0
    0.2551  -11.8505   -1.2261 N   0  0  0  0  0  0  0  0  0  0  0  0
    0.1872   -8.7511    0.4455 C   0  0  0  0  0  0  0  0  0  0  0  0
    0.8911   -7.5469    0.4942 C   0  0  0  0  0  0  0  0  0  0  0  0
    3.6601   -5.5399    1.1839 C   0  0  0  0  0  0  0  0  0  0  0  0
    4.1470   -4.3183    0.9160 C   0  0  0  0  0  0  0  0  0  0  0  0
    4.0673   -3.8176   -0.3889 N   0  0  0  0  0  0  0  0  0  0  0  0
    2.9332   -0.5837   -0.0818 C   0  0  0  0  0  0  0  0  0  0  0  0
    1.9664   -0.6450   -1.1217 C   0  0  0  0  0  0  0  0  0  0  0  0
    0.7943    0.0927   -1.0700 C   0  0  0  0  0  0  0  0  0  0  0  0
   -0.0790    0.0308   -2.0828 F   0  0  0  0  0  0  0  0  0  0  0  0
    0.5228    0.8813    0.0255 C   0  0  0  0  0  0  0  0  0  0  0  0
    1.4647    0.9461    1.0488 C   0  0  0  0  0  0  0  0  0  0  0  0
    1.1560    1.6970    2.1198 F   0  0  0  0  0  0  0  0  0  0  0  0
    2.6808    0.2594    1.0168 C   0  0  0  0  0  0  0  0  0  0  0  0
    3.5514    0.3640    2.0480 N   0  0  0  0  0  0  0  0  0  0  0  0
    6.5280   -0.7685    3.1100 H   0  0  0  0  0  0  0  0  0  0  0  0
    5.0428   -0.7654    4.0762 H   0  0  0  0  0  0  0  0  0  0  0  0
    5.7619    0.7754    3.5372 H   0  0  0  0  0  0  0  0  0  0  0  0
    5.9809   -1.7319    1.0089 H   0  0  0  0  0  0  0  0  0  0  0  0
    4.3358   -1.9331   -3.0224 H   0  0  0  0  0  0  0  0  0  0  0  0
    2.5318   -6.3529   -1.9684 H   0  0  0  0  0  0  0  0  0  0  0  0
    4.0403   -8.7403   -0.0484 H   0  0  0  0  0  0  0  0  0  0  0  0
    2.8030  -10.8541   -0.1536 H   0  0  0  0  0  0  0  0  0  0  0  0
   -0.9606  -11.0679    0.2829 H   0  0  0  0  0  0  0  0  0  0  0  0
    0.3758  -11.7996    2.2244 H   0  0  0  0  0  0  0  0  0  0  0  0
    1.6680  -12.3941    1.2007 H   0  0  0  0  0  0  0  0  0  0  0  0
   -1.0657  -13.4396    1.3260 H   0  0  0  0  0  0  0  0  0  0  0  0
   -0.3944  -15.0778   -0.2399 H   0  0  0  0  0  0  0  0  0  0  0  0
    1.2011  -14.3410   -0.3206 H   0  0  0  0  0  0  0  0  0  0  0  0
   -1.4565  -13.0756   -1.2167 H   0  0  0  0  0  0  0  0  0  0  0  0
   -0.1471  -13.6273   -2.2606 H   0  0  0  0  0  0  0  0  0  0  0  0
   -0.1746  -11.2292   -1.9093 H   0  0  0  0  0  0  0  0  0  0  0  0
   -0.8954   -8.7350    0.5583 H   0  0  0  0  0  0  0  0  0  0  0  0
    0.3481   -6.6138    0.6320 H   0  0  0  0  0  0  0  0  0  0  0  0
    3.7264   -5.9787    2.1763 H   0  0  0  0  0  0  0  0  0  0  0  0
    4.6126   -3.7088    1.6767 H   0  0  0  0  0  0  0  0  0  0  0  0
    2.1141   -1.2601   -2.0092 H   0  0  0  0  0  0  0  0  0  0  0  0
   -0.4013    1.4405    0.0925 H   0  0  0  0  0  0  0  0  0  0  0  0
  1  2  1  0  0  0  0
  1 35  1  0  0  0  0
  1 36  1  0  0  0  0
  1 37  1  0  0  0  0
  2  3  1  0  0  0  0
  2 34  2  0  0  0  0
  3  4  2  0  0  0  0
  3 38  1  0  0  0  0
  4  5  1  0  0  0  0
  4 26  1  0  0  0  0
  5  6  2  0  0  0  0
  5 25  1  0  0  0  0
  6  7  1  0  0  0  0
  6 39  1  0  0  0  0
  7  8  2  0  0  0  0
  8  9  1  0  0  0  0
  8 25  1  0  0  0  0
  9 10  2  0  0  0  0
  9 40  1  0  0  0  0
 10 11  1  0  0  0  0
 10 23  1  0  0  0  0
 11 12  1  0  0  0  0
 11 22  2  0  0  0  0
 12 13  2  0  0  0  0
 12 41  1  0  0  0  0
 13 14  1  0  0  0  0
 13 42  1  0  0  0  0
 14 15  1  0  0  0  0
 14 21  2  0  0  0  0
 15 16  1  0  0  0  0
 15 20  1  0  0  0  0
 15 43  1  0  0  0  0
 16 17  1  0  0  0  0
 16 44  1  0  0  0  0
 16 45  1  0  0  0  0
 17 18  1  0  0  0  0
 17 46  1  0  0  0  0
 18 19  1  0  0  0  0
 18 47  1  0  0  0  0
 18 48  1  0  0  0  0
 19 20  1  0  0  0  0
 19 49  1  0  0  0  0
 19 50  1  0  0  0  0
 20 51  1  0  0  0  0
 21 22  1  0  0  0  0
 21 52  1  0  0  0  0
 22 53  1  0  0  0  0
 23 24  2  0  0  0  0
 23 54  1  0  0  0  0
 24 25  1  0  0  0  0
 24 55  1  0  0  0  0
 26 27  1  0  0  0  0
 26 33  2  0  0  0  0
 27 28  2  0  0  0  0
 27 56  1  0  0  0  0
 28 29  1  0  0  0  0
 28 30  1  0  0  0  0
 30 31  2  0  0  0  0
 30 57  1  0  0  0  0
 31 32  1  0  0  0  0
 31 33  1  0  0  0  0
 33 34  1  0  0  0  0
M  END
$$$$
