CHEMBL469025
 OpenBabel04072215383D

 55 59  0  0  0  0  0  0  0  0999 V2000
   15.3400    2.1632   -2.0374 C   0  0  0  0  0  0  0  0  0  0  0  0
   13.9680    2.5318   -1.9757 O   0  0  0  0  0  0  0  0  0  0  0  0
   13.7055    3.3728   -0.8555 C   0  0  0  0  0  0  0  0  0  0  0  0
   12.3038    3.9473   -0.9336 C   0  0  0  0  0  0  0  0  0  0  0  0
   11.1707    3.0581   -0.7675 N   0  0  0  0  0  0  0  0  0  0  0  0
   10.0385    3.4642   -1.3877 N   0  0  0  0  0  0  0  0  0  0  0  0
    9.0480    3.0646   -0.5804 C   0  0  0  0  0  0  0  0  0  0  0  0
    7.6307    3.2404   -0.8940 C   0  0  0  0  0  0  0  0  0  0  0  0
    6.7749    3.2997   -0.0080 O   0  0  0  0  0  0  0  0  0  0  0  0
    7.1791    3.3325   -2.3132 C   0  0  0  0  0  0  0  0  0  0  0  0
    6.1742    4.3068   -2.5208 C   0  0  0  0  0  0  0  0  0  0  0  0
    5.7057    4.6025   -3.7965 C   0  0  0  0  0  0  0  0  0  0  0  0
    6.2474    3.9404   -4.8851 C   0  0  0  0  0  0  0  0  0  0  0  0
    7.2058    2.9407   -4.6799 C   0  0  0  0  0  0  0  0  0  0  0  0
    7.6594    2.5659   -3.3953 C   0  0  0  0  0  0  0  0  0  0  0  0
    8.5463    1.4905   -3.3676 N   0  0  0  0  0  0  0  0  0  0  0  0
    8.6684    0.5200   -2.3022 C   0  0  0  0  0  0  0  0  0  0  0  0
    7.9038   -0.7414   -2.6026 C   0  0  0  0  0  0  0  0  0  0  0  0
    8.5221   -1.8124   -3.2626 C   0  0  0  0  0  0  0  0  0  0  0  0
    7.8448   -3.0222   -3.4607 C   0  0  0  0  0  0  0  0  0  0  0  0
    6.5280   -3.1452   -2.9851 C   0  0  0  0  0  0  0  0  0  0  0  0
    5.5454   -4.1578   -2.9508 C   0  0  0  0  0  0  0  0  0  0  0  0
    4.4149   -3.7657   -2.3567 N   0  0  0  0  0  0  0  0  0  0  0  0
    4.6729   -2.4914   -2.0123 N   0  0  0  0  0  0  0  0  0  0  0  0
    5.9264   -2.0625   -2.3578 C   0  0  0  0  0  0  0  0  0  0  0  0
    6.5722   -0.8436   -2.1598 C   0  0  0  0  0  0  0  0  0  0  0  0
    9.5638    2.3662    0.5535 C   0  0  0  0  0  0  0  0  0  0  0  0
    9.0049    1.7787    1.6985 C   0  0  0  0  0  0  0  0  0  0  0  0
    9.8041    0.9729    2.5126 C   0  0  0  0  0  0  0  0  0  0  0  0
   11.1294    0.7213    2.1672 C   0  0  0  0  0  0  0  0  0  0  0  0
   11.7196    1.3345    1.0528 C   0  0  0  0  0  0  0  0  0  0  0  0
   10.9238    2.1983    0.2842 C   0  0  0  0  0  0  0  0  0  0  0  0
   15.4784    1.4933   -2.8868 H   0  0  0  0  0  0  0  0  0  0  0  0
   15.6355    1.6407   -1.1212 H   0  0  0  0  0  0  0  0  0  0  0  0
   15.9660    3.0495   -2.1821 H   0  0  0  0  0  0  0  0  0  0  0  0
   14.4081    4.2181   -0.8765 H   0  0  0  0  0  0  0  0  0  0  0  0
   13.8773    2.8280    0.0724 H   0  0  0  0  0  0  0  0  0  0  0  0
   12.1773    4.4369   -1.9066 H   0  0  0  0  0  0  0  0  0  0  0  0
   12.1802    4.7074   -0.1532 H   0  0  0  0  0  0  0  0  0  0  0  0
    5.7640    4.8552   -1.6737 H   0  0  0  0  0  0  0  0  0  0  0  0
    4.9387    5.3605   -3.9365 H   0  0  0  0  0  0  0  0  0  0  0  0
    5.9233    4.1853   -5.8923 H   0  0  0  0  0  0  0  0  0  0  0  0
    7.5955    2.4332   -5.5627 H   0  0  0  0  0  0  0  0  0  0  0  0
    8.7554    1.0932   -4.2742 H   0  0  0  0  0  0  0  0  0  0  0  0
    8.3089    0.8632   -1.3345 H   0  0  0  0  0  0  0  0  0  0  0  0
    9.7330    0.2780   -2.1647 H   0  0  0  0  0  0  0  0  0  0  0  0
    9.5521   -1.7214   -3.6014 H   0  0  0  0  0  0  0  0  0  0  0  0
    8.3397   -3.8538   -3.9517 H   0  0  0  0  0  0  0  0  0  0  0  0
    5.6139   -5.1685   -3.3307 H   0  0  0  0  0  0  0  0  0  0  0  0
    3.9538   -1.9652   -1.5284 H   0  0  0  0  0  0  0  0  0  0  0  0
    6.0853   -0.0180   -1.6484 H   0  0  0  0  0  0  0  0  0  0  0  0
    7.9558    1.9351    1.9416 H   0  0  0  0  0  0  0  0  0  0  0  0
    9.3744    0.5178    3.4019 H   0  0  0  0  0  0  0  0  0  0  0  0
   11.7167    0.0405    2.7804 H   0  0  0  0  0  0  0  0  0  0  0  0
   12.7467    1.1059    0.7895 H   0  0  0  0  0  0  0  0  0  0  0  0
  1  2  1  0  0  0  0
  1 33  1  0  0  0  0
  1 34  1  0  0  0  0
  1 35  1  0  0  0  0
  2  3  1  0  0  0  0
  3  4  1  0  0  0  0
  3 36  1  0  0  0  0
  3 37  1  0  0  0  0
  4  5  1  0  0  0  0
  4 38  1  0  0  0  0
  4 39  1  0  0  0  0
  5  6  1  0  0  0  0
  5 32  1  0  0  0  0
  6  7  2  0  0  0  0
  7  8  1  0  0  0  0
  7 27  1  0  0  0  0
  8  9  2  0  0  0  0
  8 10  1  0  0  0  0
 10 11  1  0  0  0  0
 10 15  2  0  0  0  0
 11 12  2  0  0  0  0
 11 40  1  0  0  0  0
 12 13  1  0  0  0  0
 12 41  1  0  0  0  0
 13 14  2  0  0  0  0
 13 42  1  0  0  0  0
 14 15  1  0  0  0  0
 14 43  1  0  0  0  0
 15 16  1  0  0  0  0
 16 17  1  0  0  0  0
 16 44  1  0  0  0  0
 17 18  1  0  0  0  0
 17 45  1  0  0  0  0
 17 46  1  0  0  0  0
 18 19  1  0  0  0  0
 18 26  2  0  0  0  0
 19 20  2  0  0  0  0
 19 47  1  0  0  0  0
 20 21  1  0  0  0  0
 20 48  1  0  0  0  0
 21 22  1  0  0  0  0
 21 25  2  0  0  0  0
 22 23  2  0  0  0  0
 22 49  1  0  0  0  0
 23 24  1  0  0  0  0
 24 25  1  0  0  0  0
 24 50  1  0  0  0  0
 25 26  1  0  0  0  0
 26 51  1  0  0  0  0
 27 28  1  0  0  0  0
 27 32  2  0  0  0  0
 28 29  2  0  0  0  0
 28 52  1  0  0  0  0
 29 30  1  0  0  0  0
 29 53  1  0  0  0  0
 30 31  2  0  0  0  0
 30 54  1  0  0  0  0
 31 32  1  0  0  0  0
 31 55  1  0  0  0  0
M  END
$$$$
