CHEMBL245746
 OpenBabel04072215363D

 60 63  0  0  0  0  0  0  0  0999 V2000
   14.2004   -5.4571   -1.8990 C   0  0  0  0  0  0  0  0  0  0  0  0
   12.9138   -5.6415   -2.5202 N   0  0  0  0  0  0  0  0  0  0  0  0
   12.0423   -4.5604   -2.5058 C   0  0  0  0  0  0  0  0  0  0  0  0
   12.4931   -3.3216   -2.4143 N   0  0  0  0  0  0  0  0  0  0  0  0
   11.5557   -2.3768   -2.4884 C   0  0  0  0  0  0  0  0  0  0  0  0
   10.2459   -2.5667   -2.6368 N   0  0  0  0  0  0  0  0  0  0  0  0
    9.8942   -3.8415   -2.7191 C   0  0  0  0  0  0  0  0  0  0  0  0
    8.4977   -4.2126   -3.0145 C   0  0  0  0  0  0  0  0  0  0  0  0
    8.2529   -5.4532   -3.6529 C   0  0  0  0  0  0  0  0  0  0  0  0
    6.9687   -5.8766   -3.9781 C   0  0  0  0  0  0  0  0  0  0  0  0
    5.9202   -5.0762   -3.5971 C   0  0  0  0  0  0  0  0  0  0  0  0
    6.0872   -3.9082   -2.9523 N   0  0  0  0  0  0  0  0  0  0  0  0
    7.3606   -3.4472   -2.7438 C   0  0  0  0  0  0  0  0  0  0  0  0
    7.4671   -2.1216   -2.2981 O   0  0  0  0  0  0  0  0  0  0  0  0
    6.4606   -1.2608   -2.7339 C   0  0  0  0  0  0  0  0  0  0  0  0
    5.9882   -1.3343   -4.0577 C   0  0  0  0  0  0  0  0  0  0  0  0
    4.8531   -0.6441   -4.4718 C   0  0  0  0  0  0  0  0  0  0  0  0
    4.2937   -0.7844   -5.7654 N   0  0  0  0  0  0  0  0  0  0  0  0
    4.8960   -1.4096   -6.8469 C   0  0  0  0  0  0  0  0  0  0  0  0
    6.0136   -1.9137   -6.8786 O   0  0  0  0  0  0  0  0  0  0  0  0
    4.1287   -1.3855   -8.1202 C   0  0  0  0  0  0  0  0  0  0  0  0
    4.8546   -1.2396   -9.3087 C   0  0  0  0  0  0  0  0  0  0  0  0
    4.1926   -1.1830  -10.5312 C   0  0  0  0  0  0  0  0  0  0  0  0
    2.8049   -1.3116  -10.5750 C   0  0  0  0  0  0  0  0  0  0  0  0
    2.0624   -1.5244   -9.4013 C   0  0  0  0  0  0  0  0  0  0  0  0
    0.5680   -1.7790   -9.5045 C   0  0  0  0  0  0  0  0  0  0  0  0
    0.2045   -3.1691   -8.9743 C   0  0  0  0  0  0  0  0  0  0  0  0
   -0.2514   -0.6958   -8.8035 C   0  0  0  0  0  0  0  0  0  0  0  0
    2.7372   -1.5417   -8.1664 C   0  0  0  0  0  0  0  0  0  0  0  0
    4.2232    0.2033   -3.5585 C   0  0  0  0  0  0  0  0  0  0  0  0
    4.7651    0.3915   -2.2783 C   0  0  0  0  0  0  0  0  0  0  0  0
    5.8968   -0.3294   -1.8525 C   0  0  0  0  0  0  0  0  0  0  0  0
    6.4749   -0.0622   -0.4960 C   0  0  0  0  0  0  0  0  0  0  0  0
   10.7611   -4.8686   -2.6359 N   0  0  0  0  0  0  0  0  0  0  0  0
   14.7830   -6.3800   -2.0027 H   0  0  0  0  0  0  0  0  0  0  0  0
   14.1072   -5.2426   -0.8291 H   0  0  0  0  0  0  0  0  0  0  0  0
   14.7758   -4.6602   -2.3823 H   0  0  0  0  0  0  0  0  0  0  0  0
   12.3941   -6.4704   -2.2553 H   0  0  0  0  0  0  0  0  0  0  0  0
   11.8976   -1.3496   -2.4360 H   0  0  0  0  0  0  0  0  0  0  0  0
    9.0868   -6.0939   -3.9372 H   0  0  0  0  0  0  0  0  0  0  0  0
    6.8016   -6.8038   -4.5145 H   0  0  0  0  0  0  0  0  0  0  0  0
    4.8928   -5.3410   -3.8252 H   0  0  0  0  0  0  0  0  0  0  0  0
    6.4892   -2.0184   -4.7339 H   0  0  0  0  0  0  0  0  0  0  0  0
    3.4230   -0.2980   -5.9295 H   0  0  0  0  0  0  0  0  0  0  0  0
    5.9407   -1.1679   -9.2798 H   0  0  0  0  0  0  0  0  0  0  0  0
    4.7605   -1.0524  -11.4487 H   0  0  0  0  0  0  0  0  0  0  0  0
    2.3083   -1.2696  -11.5425 H   0  0  0  0  0  0  0  0  0  0  0  0
    0.2835   -1.7591  -10.5653 H   0  0  0  0  0  0  0  0  0  0  0  0
    0.4515   -3.2822   -7.9132 H   0  0  0  0  0  0  0  0  0  0  0  0
    0.7423   -3.9487   -9.5258 H   0  0  0  0  0  0  0  0  0  0  0  0
   -0.8682   -3.3582   -9.0875 H   0  0  0  0  0  0  0  0  0  0  0  0
   -0.0630   -0.6724   -7.7252 H   0  0  0  0  0  0  0  0  0  0  0  0
   -1.3227   -0.8725   -8.9516 H   0  0  0  0  0  0  0  0  0  0  0  0
   -0.0180    0.2951   -9.2082 H   0  0  0  0  0  0  0  0  0  0  0  0
    2.1817   -1.7249   -7.2504 H   0  0  0  0  0  0  0  0  0  0  0  0
    3.3245    0.7495   -3.8294 H   0  0  0  0  0  0  0  0  0  0  0  0
    4.2849    1.1010   -1.6068 H   0  0  0  0  0  0  0  0  0  0  0  0
    5.8568    0.6482    0.0677 H   0  0  0  0  0  0  0  0  0  0  0  0
    7.4698    0.3835   -0.5933 H   0  0  0  0  0  0  0  0  0  0  0  0
    6.5395   -0.9807    0.0949 H   0  0  0  0  0  0  0  0  0  0  0  0
  1  2  1  0  0  0  0
  1 35  1  0  0  0  0
  1 36  1  0  0  0  0
  1 37  1  0  0  0  0
  2  3  1  0  0  0  0
  2 38  1  0  0  0  0
  3  4  1  0  0  0  0
  3 34  2  0  0  0  0
  4  5  2  0  0  0  0
  5  6  1  0  0  0  0
  5 39  1  0  0  0  0
  6  7  2  0  0  0  0
  7  8  1  0  0  0  0
  7 34  1  0  0  0  0
  8  9  1  0  0  0  0
  8 13  2  0  0  0  0
  9 10  2  0  0  0  0
  9 40  1  0  0  0  0
 10 11  1  0  0  0  0
 10 41  1  0  0  0  0
 11 12  2  0  0  0  0
 11 42  1  0  0  0  0
 12 13  1  0  0  0  0
 13 14  1  0  0  0  0
 14 15  1  0  0  0  0
 15 16  1  0  0  0  0
 15 32  2  0  0  0  0
 16 17  2  0  0  0  0
 16 43  1  0  0  0  0
 17 18  1  0  0  0  0
 17 30  1  0  0  0  0
 18 19  1  0  0  0  0
 18 44  1  0  0  0  0
 19 20  2  0  0  0  0
 19 21  1  0  0  0  0
 21 22  1  0  0  0  0
 21 29  2  0  0  0  0
 22 23  2  0  0  0  0
 22 45  1  0  0  0  0
 23 24  1  0  0  0  0
 23 46  1  0  0  0  0
 24 25  2  0  0  0  0
 24 47  1  0  0  0  0
 25 26  1  0  0  0  0
 25 29  1  0  0  0  0
 26 27  1  0  0  0  0
 26 28  1  0  0  0  0
 26 48  1  0  0  0  0
 27 49  1  0  0  0  0
 27 50  1  0  0  0  0
 27 51  1  0  0  0  0
 28 52  1  0  0  0  0
 28 53  1  0  0  0  0
 28 54  1  0  0  0  0
 29 55  1  0  0  0  0
 30 31  2  0  0  0  0
 30 56  1  0  0  0  0
 31 32  1  0  0  0  0
 31 57  1  0  0  0  0
 32 33  1  0  0  0  0
 33 58  1  0  0  0  0
 33 59  1  0  0  0  0
 33 60  1  0  0  0  0
M  END
$$$$
