CHEMBL272878
 OpenBabel04072215363D

 57 61  0  0  0  0  0  0  0  0999 V2000
   10.4673    1.1072    1.1579 C   0  0  0  0  0  0  0  0  0  0  0  0
    9.7318    2.3048    1.4349 O   0  0  0  0  0  0  0  0  0  0  0  0
    8.8699    2.2271    2.4998 C   0  0  0  0  0  0  0  0  0  0  0  0
    9.1647    1.4132    3.6073 C   0  0  0  0  0  0  0  0  0  0  0  0
    8.2660    1.1952    4.6387 C   0  0  0  0  0  0  0  0  0  0  0  0
    8.6182    0.3295    5.6034 N   0  0  0  0  0  0  0  0  0  0  0  0
    7.7363    0.0823    6.5897 C   0  0  0  0  0  0  0  0  0  0  0  0
    6.4873    0.6561    6.6583 C   0  0  0  0  0  0  0  0  0  0  0  0
    6.1078    1.5154    5.6296 C   0  0  0  0  0  0  0  0  0  0  0  0
    4.8395    2.0655    5.5889 O   0  0  0  0  0  0  0  0  0  0  0  0
    3.7601    1.2770    5.9372 C   0  0  0  0  0  0  0  0  0  0  0  0
    2.7006    1.9224    6.5644 C   0  0  0  0  0  0  0  0  0  0  0  0
    1.5458    1.2106    6.9226 C   0  0  0  0  0  0  0  0  0  0  0  0
    1.4041   -0.1568    6.6390 C   0  0  0  0  0  0  0  0  0  0  0  0
    2.4988   -0.7980    6.0252 C   0  0  0  0  0  0  0  0  0  0  0  0
    3.6520   -0.0868    5.6604 C   0  0  0  0  0  0  0  0  0  0  0  0
    2.5401   -2.1402    5.7262 O   0  0  0  0  0  0  0  0  0  0  0  0
    1.2422   -2.7251    5.6476 C   0  0  0  0  0  0  0  0  0  0  0  0
    0.4002   -2.3676    6.8599 C   0  0  0  0  0  0  0  0  0  0  0  0
    0.1999   -0.9117    6.9324 N   0  0  0  0  0  0  0  0  0  0  0  0
   -1.0392   -0.2811    7.1201 C   0  0  0  0  0  0  0  0  0  0  0  0
   -1.1795    0.9359    7.0477 O   0  0  0  0  0  0  0  0  0  0  0  0
   -2.1198   -1.1177    7.3586 N   0  0  0  0  0  0  0  0  0  0  0  0
   -3.4780   -0.7099    7.4513 C   0  0  0  0  0  0  0  0  0  0  0  0
   -3.9386    0.5541    7.0610 C   0  0  0  0  0  0  0  0  0  0  0  0
   -5.2658    0.9377    7.2719 C   0  0  0  0  0  0  0  0  0  0  0  0
   -6.1629    0.0458    7.8477 C   0  0  0  0  0  0  0  0  0  0  0  0
   -5.7314   -1.2357    8.1791 C   0  0  0  0  0  0  0  0  0  0  0  0
   -6.8464   -2.3511    8.8703 Cl  0  0  0  0  0  0  0  0  0  0  0  0
   -4.4019   -1.6210    7.9757 C   0  0  0  0  0  0  0  0  0  0  0  0
    7.0275    1.8534    4.6122 C   0  0  0  0  0  0  0  0  0  0  0  0
    6.7818    2.7818    3.5714 C   0  0  0  0  0  0  0  0  0  0  0  0
    7.6861    2.9710    2.5108 C   0  0  0  0  0  0  0  0  0  0  0  0
    7.2255    3.8852    1.6040 O   0  0  0  0  0  0  0  0  0  0  0  0
    7.8870    4.0488    0.3597 C   0  0  0  0  0  0  0  0  0  0  0  0
   10.5940    1.0251    0.0745 H   0  0  0  0  0  0  0  0  0  0  0  0
    9.9563    0.1929    1.4857 H   0  0  0  0  0  0  0  0  0  0  0  0
   11.4588    1.1709    1.6175 H   0  0  0  0  0  0  0  0  0  0  0  0
   10.1186    0.8935    3.6706 H   0  0  0  0  0  0  0  0  0  0  0  0
    8.0641   -0.6312    7.3391 H   0  0  0  0  0  0  0  0  0  0  0  0
    5.8188    0.4091    7.4746 H   0  0  0  0  0  0  0  0  0  0  0  0
    2.7601    2.9859    6.7832 H   0  0  0  0  0  0  0  0  0  0  0  0
    0.7771    1.7710    7.4464 H   0  0  0  0  0  0  0  0  0  0  0  0
    4.4485   -0.6161    5.1453 H   0  0  0  0  0  0  0  0  0  0  0  0
    1.3756   -3.8109    5.5980 H   0  0  0  0  0  0  0  0  0  0  0  0
    0.7596   -2.4067    4.7157 H   0  0  0  0  0  0  0  0  0  0  0  0
    0.9063   -2.6640    7.7881 H   0  0  0  0  0  0  0  0  0  0  0  0
   -0.5405   -2.9168    6.7981 H   0  0  0  0  0  0  0  0  0  0  0  0
   -1.9229   -2.0309    7.7318 H   0  0  0  0  0  0  0  0  0  0  0  0
   -3.2843    1.2837    6.5930 H   0  0  0  0  0  0  0  0  0  0  0  0
   -5.5851    1.9395    6.9946 H   0  0  0  0  0  0  0  0  0  0  0  0
   -7.1882    0.3550    8.0303 H   0  0  0  0  0  0  0  0  0  0  0  0
   -4.0978   -2.6263    8.2509 H   0  0  0  0  0  0  0  0  0  0  0  0
    5.8574    3.3574    3.5703 H   0  0  0  0  0  0  0  0  0  0  0  0
    7.1976    4.5899   -0.2983 H   0  0  0  0  0  0  0  0  0  0  0  0
    8.1000    3.0958   -0.1311 H   0  0  0  0  0  0  0  0  0  0  0  0
    8.7850    4.6637    0.4719 H   0  0  0  0  0  0  0  0  0  0  0  0
  1  2  1  0  0  0  0
  1 36  1  0  0  0  0
  1 37  1  0  0  0  0
  1 38  1  0  0  0  0
  2  3  1  0  0  0  0
  3  4  1  0  0  0  0
  3 33  2  0  0  0  0
  4  5  2  0  0  0  0
  4 39  1  0  0  0  0
  5  6  1  0  0  0  0
  5 31  1  0  0  0  0
  6  7  2  0  0  0  0
  7  8  1  0  0  0  0
  7 40  1  0  0  0  0
  8  9  2  0  0  0  0
  8 41  1  0  0  0  0
  9 10  1  0  0  0  0
  9 31  1  0  0  0  0
 10 11  1  0  0  0  0
 11 12  1  0  0  0  0
 11 16  2  0  0  0  0
 12 13  2  0  0  0  0
 12 42  1  0  0  0  0
 13 14  1  0  0  0  0
 13 43  1  0  0  0  0
 14 15  2  0  0  0  0
 14 20  1  0  0  0  0
 15 16  1  0  0  0  0
 15 17  1  0  0  0  0
 16 44  1  0  0  0  0
 17 18  1  0  0  0  0
 18 19  1  0  0  0  0
 18 45  1  0  0  0  0
 18 46  1  0  0  0  0
 19 20  1  0  0  0  0
 19 47  1  0  0  0  0
 19 48  1  0  0  0  0
 20 21  1  0  0  0  0
 21 22  2  0  0  0  0
 21 23  1  0  0  0  0
 23 24  1  0  0  0  0
 23 49  1  0  0  0  0
 24 25  1  0  0  0  0
 24 30  2  0  0  0  0
 25 26  2  0  0  0  0
 25 50  1  0  0  0  0
 26 27  1  0  0  0  0
 26 51  1  0  0  0  0
 27 28  2  0  0  0  0
 27 52  1  0  0  0  0
 28 29  1  0  0  0  0
 28 30  1  0  0  0  0
 30 53  1  0  0  0  0
 31 32  2  0  0  0  0
 32 33  1  0  0  0  0
 32 54  1  0  0  0  0
 33 34  1  0  0  0  0
 34 35  1  0  0  0  0
 35 55  1  0  0  0  0
 35 56  1  0  0  0  0
 35 57  1  0  0  0  0
M  END
$$$$
