CHEMBL224918
 OpenBabel04072215363D

 52 57  0  0  0  0  0  0  0  0999 V2000
   -1.5623    2.5327    3.5327 C   0  0  0  0  0  0  0  0  0  0  0  0
   -2.0168    1.4948    2.8876 C   0  0  0  0  0  0  0  0  0  0  0  0
   -2.4176    0.4218    2.0021 C   0  0  0  0  0  0  0  0  0  0  0  0
   -3.7221    0.0887    1.7264 C   0  0  0  0  0  0  0  0  0  0  0  0
   -3.8976   -1.0319    0.8172 C   0  0  0  0  0  0  0  0  0  0  0  0
   -5.3214   -1.4615    0.4509 C   0  0  0  0  0  0  0  0  0  0  0  0
   -6.2834   -0.9205    1.2363 N   0  0  0  0  0  0  0  0  0  0  0  0
   -6.7126    0.0951    0.4339 N   0  0  0  0  0  0  0  0  0  0  0  0
   -6.2990   -0.1014   -0.8630 C   0  0  0  0  0  0  0  0  0  0  0  0
   -5.9326   -1.4483   -0.8638 C   0  0  0  0  0  0  0  0  0  0  0  0
   -5.5716   -1.8230   -2.2578 C   0  0  0  0  0  0  0  0  0  0  0  0
   -4.8506   -0.5245   -2.5776 C   0  0  0  0  0  0  0  0  0  0  0  0
   -3.6073   -0.5595   -3.1792 C   0  0  0  0  0  0  0  0  0  0  0  0
   -2.6774    0.3770   -2.7423 C   0  0  0  0  0  0  0  0  0  0  0  0
   -1.2213   -0.0108   -2.8776 C   0  0  0  0  0  0  0  0  0  0  0  0
   -0.6941    0.2055   -4.1981 N   0  0  0  0  0  0  0  0  0  0  0  0
   -0.2977    1.3901   -4.7391 C   0  0  0  0  0  0  0  0  0  0  0  0
    0.2455    1.1713   -5.9135 N   0  0  0  0  0  0  0  0  0  0  0  0
    0.1636   -0.1836   -6.0449 C   0  0  0  0  0  0  0  0  0  0  0  0
   -0.4009   -0.8322   -5.0115 N   0  0  0  0  0  0  0  0  0  0  0  0
   -3.1032    1.4856   -1.9645 C   0  0  0  0  0  0  0  0  0  0  0  0
   -4.4313    1.5913   -1.4821 C   0  0  0  0  0  0  0  0  0  0  0  0
   -5.3036    0.5460   -1.7494 C   0  0  0  0  0  0  0  0  0  0  0  0
   -2.6730   -1.4575    0.3516 C   0  0  0  0  0  0  0  0  0  0  0  0
   -1.3652   -0.5666    1.0760 S   0  0  0  0  0  0  0  0  0  0  0  0
   -1.0324    3.7427    4.2848 C   0  0  0  0  0  0  0  0  0  0  0  0
   -1.4122    3.6844    5.6541 O   0  0  0  0  0  0  0  0  0  0  0  0
   -0.9874    4.7317    6.4318 C   0  0  0  0  0  0  0  0  0  0  0  0
   -0.2343    5.8264    5.9977 C   0  0  0  0  0  0  0  0  0  0  0  0
    0.1379    6.8302    6.8972 C   0  0  0  0  0  0  0  0  0  0  0  0
   -0.2413    6.7481    8.2348 C   0  0  0  0  0  0  0  0  0  0  0  0
   -0.9915    5.6590    8.6742 C   0  0  0  0  0  0  0  0  0  0  0  0
   -1.3621    4.6558    7.7750 C   0  0  0  0  0  0  0  0  0  0  0  0
   -4.5468    0.6393    2.1584 H   0  0  0  0  0  0  0  0  0  0  0  0
   -7.4946    0.6455    0.7812 H   0  0  0  0  0  0  0  0  0  0  0  0
   -6.4707   -1.8893   -2.8928 H   0  0  0  0  0  0  0  0  0  0  0  0
   -4.9652   -2.7225   -2.3553 H   0  0  0  0  0  0  0  0  0  0  0  0
   -3.2948   -1.4488   -3.7238 H   0  0  0  0  0  0  0  0  0  0  0  0
   -1.1036   -1.0776   -2.6351 H   0  0  0  0  0  0  0  0  0  0  0  0
   -0.5860    0.5346   -2.1594 H   0  0  0  0  0  0  0  0  0  0  0  0
   -0.4180    2.3362   -4.2368 H   0  0  0  0  0  0  0  0  0  0  0  0
    0.5258   -0.7241   -6.9131 H   0  0  0  0  0  0  0  0  0  0  0  0
   -2.3641    2.2007   -1.6078 H   0  0  0  0  0  0  0  0  0  0  0  0
   -4.6655    2.3545   -0.7453 H   0  0  0  0  0  0  0  0  0  0  0  0
   -2.4399   -2.2265   -0.3716 H   0  0  0  0  0  0  0  0  0  0  0  0
   -1.4541    4.6367    3.8093 H   0  0  0  0  0  0  0  0  0  0  0  0
    0.0600    3.7421    4.1880 H   0  0  0  0  0  0  0  0  0  0  0  0
    0.0864    5.9359    4.9673 H   0  0  0  0  0  0  0  0  0  0  0  0
    0.7271    7.6760    6.5512 H   0  0  0  0  0  0  0  0  0  0  0  0
    0.0502    7.5271    8.9334 H   0  0  0  0  0  0  0  0  0  0  0  0
   -1.2878    5.5873    9.7173 H   0  0  0  0  0  0  0  0  0  0  0  0
   -1.9441    3.8066    8.1245 H   0  0  0  0  0  0  0  0  0  0  0  0
  1  2  3  0  0  0  0
  1 26  1  0  0  0  0
  2  3  1  0  0  0  0
  3  4  2  0  0  0  0
  3 25  1  0  0  0  0
  4  5  1  0  0  0  0
  4 34  1  0  0  0  0
  5  6  1  0  0  0  0
  5 24  2  0  0  0  0
  6  7  2  0  0  0  0
  6 10  1  0  0  0  0
  7  8  1  0  0  0  0
  8  9  1  0  0  0  0
  8 35  1  0  0  0  0
  9 10  2  0  0  0  0
  9 23  1  0  0  0  0
 10 11  1  0  0  0  0
 11 12  1  0  0  0  0
 11 36  1  0  0  0  0
 11 37  1  0  0  0  0
 12 13  1  0  0  0  0
 12 23  2  0  0  0  0
 13 14  2  0  0  0  0
 13 38  1  0  0  0  0
 14 15  1  0  0  0  0
 14 21  1  0  0  0  0
 15 16  1  0  0  0  0
 15 39  1  0  0  0  0
 15 40  1  0  0  0  0
 16 17  1  0  0  0  0
 16 20  1  0  0  0  0
 17 18  2  0  0  0  0
 17 41  1  0  0  0  0
 18 19  1  0  0  0  0
 19 20  2  0  0  0  0
 19 42  1  0  0  0  0
 21 22  2  0  0  0  0
 21 43  1  0  0  0  0
 22 23  1  0  0  0  0
 22 44  1  0  0  0  0
 24 25  1  0  0  0  0
 24 45  1  0  0  0  0
 26 27  1  0  0  0  0
 26 46  1  0  0  0  0
 26 47  1  0  0  0  0
 27 28  1  0  0  0  0
 28 29  1  0  0  0  0
 28 33  2  0  0  0  0
 29 30  2  0  0  0  0
 29 48  1  0  0  0  0
 30 31  1  0  0  0  0
 30 49  1  0  0  0  0
 31 32  2  0  0  0  0
 31 50  1  0  0  0  0
 32 33  1  0  0  0  0
 32 51  1  0  0  0  0
 33 52  1  0  0  0  0
M  END
$$$$
