CHEMBL470441
 OpenBabel04072215383D

 42 44  0  0  0  0  0  0  0  0999 V2000
    2.5579   -0.0524   -0.0202 C   0  0  0  0  0  0  0  0  0  0  0  0
    1.0543   -0.0409    0.0077 C   0  0  0  0  0  0  0  0  0  0  0  0
    0.4135    1.1965   -0.0903 C   0  0  0  0  0  0  0  0  0  0  0  0
   -0.9782    1.2844   -0.0964 C   0  0  0  0  0  0  0  0  0  0  0  0
   -1.7767    0.1435   -0.0183 C   0  0  0  0  0  0  0  0  0  0  0  0
   -3.1870    0.1889   -0.0510 N   0  0  0  0  0  0  0  0  0  0  0  0
   -3.9574    1.3017   -0.3666 C   0  0  0  0  0  0  0  0  0  0  0  0
   -3.4905    2.3692   -0.7538 O   0  0  0  0  0  0  0  0  0  0  0  0
   -5.4168    1.0996   -0.2325 C   0  0  0  0  0  0  0  0  0  0  0  0
   -5.8770   -0.1553   -0.0793 N   0  0  0  0  0  0  0  0  0  0  0  0
   -7.5292   -0.1449   -0.1455 S   0  0  0  0  0  0  0  0  0  0  0  0
   -7.6984    1.5402   -0.3249 C   0  0  0  0  0  0  0  0  0  0  0  0
   -6.4511    2.1282   -0.2831 C   0  0  0  0  0  0  0  0  0  0  0  0
   -6.3362    3.4884   -0.3250 N   0  0  0  0  0  0  0  0  0  0  0  0
   -5.2364    4.2187    0.2887 C   0  0  0  0  0  0  0  0  0  0  0  0
   -5.7726    5.2882    1.2048 C   0  0  0  0  0  0  0  0  0  0  0  0
   -6.0589    4.9844    2.5391 C   0  0  0  0  0  0  0  0  0  0  0  0
   -6.5239    5.9939    3.3622 C   0  0  0  0  0  0  0  0  0  0  0  0
   -6.7317    7.2613    2.9473 N   0  0  0  0  0  0  0  0  0  0  0  0
   -6.4597    7.5305    1.6519 C   0  0  0  0  0  0  0  0  0  0  0  0
   -5.9887    6.5904    0.7500 C   0  0  0  0  0  0  0  0  0  0  0  0
   -1.1437   -1.0950    0.1116 C   0  0  0  0  0  0  0  0  0  0  0  0
    0.2710   -1.2091    0.1204 C   0  0  0  0  0  0  0  0  0  0  0  0
    0.8570   -2.5999    0.2494 C   0  0  0  0  0  0  0  0  0  0  0  0
    2.2158   -2.6648    0.2278 F   0  0  0  0  0  0  0  0  0  0  0  0
    0.4815   -3.2050    1.4123 F   0  0  0  0  0  0  0  0  0  0  0  0
    0.4368   -3.4288   -0.7482 F   0  0  0  0  0  0  0  0  0  0  0  0
    2.9647    0.9615   -0.1124 H   0  0  0  0  0  0  0  0  0  0  0  0
    2.9180   -0.6214   -0.8828 H   0  0  0  0  0  0  0  0  0  0  0  0
    2.9547   -0.4755    0.9069 H   0  0  0  0  0  0  0  0  0  0  0  0
    0.9869    2.1173   -0.1682 H   0  0  0  0  0  0  0  0  0  0  0  0
   -1.3974    2.2813   -0.1605 H   0  0  0  0  0  0  0  0  0  0  0  0
   -3.7126   -0.6670    0.1021 H   0  0  0  0  0  0  0  0  0  0  0  0
   -8.6687    2.0067   -0.4158 H   0  0  0  0  0  0  0  0  0  0  0  0
   -7.1608    4.0671   -0.4676 H   0  0  0  0  0  0  0  0  0  0  0  0
   -4.6087    4.6713   -0.4870 H   0  0  0  0  0  0  0  0  0  0  0  0
   -4.5982    3.5778    0.9065 H   0  0  0  0  0  0  0  0  0  0  0  0
   -5.9076    3.9840    2.9323 H   0  0  0  0  0  0  0  0  0  0  0  0
   -6.7416    5.8042    4.4091 H   0  0  0  0  0  0  0  0  0  0  0  0
   -6.6310    8.5594    1.3489 H   0  0  0  0  0  0  0  0  0  0  0  0
   -5.7805    6.8740   -0.2762 H   0  0  0  0  0  0  0  0  0  0  0  0
   -1.7425   -2.0027    0.1872 H   0  0  0  0  0  0  0  0  0  0  0  0
  1  2  1  0  0  0  0
  1 28  1  0  0  0  0
  1 29  1  0  0  0  0
  1 30  1  0  0  0  0
  2  3  1  0  0  0  0
  2 23  2  0  0  0  0
  3  4  2  0  0  0  0
  3 31  1  0  0  0  0
  4  5  1  0  0  0  0
  4 32  1  0  0  0  0
  5  6  1  0  0  0  0
  5 22  2  0  0  0  0
  6  7  1  0  0  0  0
  6 33  1  0  0  0  0
  7  8  2  0  0  0  0
  7  9  1  0  0  0  0
  9 10  2  0  0  0  0
  9 13  1  0  0  0  0
 10 11  1  0  0  0  0
 11 12  1  0  0  0  0
 12 13  2  0  0  0  0
 12 34  1  0  0  0  0
 13 14  1  0  0  0  0
 14 15  1  0  0  0  0
 14 35  1  0  0  0  0
 15 16  1  0  0  0  0
 15 36  1  0  0  0  0
 15 37  1  0  0  0  0
 16 17  1  0  0  0  0
 16 21  2  0  0  0  0
 17 18  2  0  0  0  0
 17 38  1  0  0  0  0
 18 19  1  0  0  0  0
 18 39  1  0  0  0  0
 19 20  2  0  0  0  0
 20 21  1  0  0  0  0
 20 40  1  0  0  0  0
 21 41  1  0  0  0  0
 22 23  1  0  0  0  0
 22 42  1  0  0  0  0
 23 24  1  0  0  0  0
 24 25  1  0  0  0  0
 24 26  1  0  0  0  0
 24 27  1  0  0  0  0
M  END
$$$$
