CHEMBL2180605
 OpenBabel04072215363D

 60 63  0  0  0  0  0  0  0  0999 V2000
    7.4199   -7.7422   -5.9756 C   0  0  0  0  0  0  0  0  0  0  0  0
    8.0926   -6.6666   -5.2783 N   0  0  0  0  0  0  0  0  0  0  0  0
    8.1432   -5.4040   -5.7955 C   0  0  0  0  0  0  0  0  0  0  0  0
    7.6025   -5.1918   -6.8709 O   0  0  0  0  0  0  0  0  0  0  0  0
    8.8511   -4.2803   -5.0777 C   0  0  0  0  0  0  0  0  0  0  0  0
    9.9133   -4.6038   -4.2050 C   0  0  0  0  0  0  0  0  0  0  0  0
   10.6365   -3.6174   -3.5383 C   0  0  0  0  0  0  0  0  0  0  0  0
   10.3234   -2.2755   -3.7127 C   0  0  0  0  0  0  0  0  0  0  0  0
    9.2718   -1.8997   -4.5571 C   0  0  0  0  0  0  0  0  0  0  0  0
    8.9648   -0.5340   -4.7163 C   0  0  0  0  0  0  0  0  0  0  0  0
    7.9205   -0.1319   -5.5540 C   0  0  0  0  0  0  0  0  0  0  0  0
    7.6486    1.1938   -5.7132 O   0  0  0  0  0  0  0  0  0  0  0  0
    7.0882    1.7487   -6.8264 C   0  0  0  0  0  0  0  0  0  0  0  0
    7.3565    1.2244   -8.1062 C   0  0  0  0  0  0  0  0  0  0  0  0
    6.7561    1.7813   -9.2294 C   0  0  0  0  0  0  0  0  0  0  0  0
    5.9124    2.8358   -9.0987 N   0  0  0  0  0  0  0  0  0  0  0  0
    5.6359    3.3808   -7.8836 C   0  0  0  0  0  0  0  0  0  0  0  0
    4.7329    4.4356   -7.7958 C   0  0  0  0  0  0  0  0  0  0  0  0
    4.3826    5.0120   -6.5575 C   0  0  0  0  0  0  0  0  0  0  0  0
    3.4490    6.0187   -6.5120 O   0  0  0  0  0  0  0  0  0  0  0  0
    2.5311    6.3240   -7.5216 C   0  0  0  0  0  0  0  0  0  0  0  0
    1.4509    5.2243   -7.6402 C   0  0  0  0  0  0  0  0  0  0  0  0
    0.6509    4.9794   -6.4370 N   0  0  0  0  0  0  0  0  0  0  0  0
    1.4316    4.1774   -8.7503 C   0  0  0  0  0  0  0  0  0  0  0  0
    0.5254    5.4111   -8.8415 C   0  0  0  0  0  0  0  0  0  0  0  0
    5.0145    4.5051   -5.3723 C   0  0  0  0  0  0  0  0  0  0  0  0
    4.8283    4.9426   -4.0973 O   0  0  0  0  0  0  0  0  0  0  0  0
    4.1154    5.9949   -3.5755 C   0  0  0  0  0  0  0  0  0  0  0  0
    5.9198    3.4356   -5.4838 C   0  0  0  0  0  0  0  0  0  0  0  0
    6.2231    2.8570   -6.7149 C   0  0  0  0  0  0  0  0  0  0  0  0
    7.1562   -1.1129   -6.2022 C   0  0  0  0  0  0  0  0  0  0  0  0
    7.4469   -2.4619   -6.0572 C   0  0  0  0  0  0  0  0  0  0  0  0
    8.5195   -2.8962   -5.2490 C   0  0  0  0  0  0  0  0  0  0  0  0
    1.3840    2.5668    0.1316 Cl  0  0  0  0  0  0  0  0  0  0  0  0
    7.4415   -8.6661   -5.3613 H   0  0  0  0  0  0  0  0  0  0  0  0
    7.9263   -7.9419   -6.9442 H   0  0  0  0  0  0  0  0  0  0  0  0
    6.3586   -7.4687   -6.1647 H   0  0  0  0  0  0  0  0  0  0  0  0
    8.5006   -6.8766   -4.3582 H   0  0  0  0  0  0  0  0  0  0  0  0
   10.2227   -5.6264   -4.0481 H   0  0  0  0  0  0  0  0  0  0  0  0
   11.4538   -3.8993   -2.8861 H   0  0  0  0  0  0  0  0  0  0  0  0
   10.9049   -1.5291   -3.1832 H   0  0  0  0  0  0  0  0  0  0  0  0
    9.5444    0.2211   -4.1973 H   0  0  0  0  0  0  0  0  0  0  0  0
    8.0228    0.3810   -8.2339 H   0  0  0  0  0  0  0  0  0  0  0  0
    6.9560    1.3696  -10.2096 H   0  0  0  0  0  0  0  0  0  0  0  0
    4.3145    4.7920   -8.7227 H   0  0  0  0  0  0  0  0  0  0  0  0
    3.0388    6.5264   -8.4911 H   0  0  0  0  0  0  0  0  0  0  0  0
    2.0103    7.2644   -7.2469 H   0  0  0  0  0  0  0  0  0  0  0  0
    1.2923    4.8464   -5.6259 H   0  0  0  0  0  0  0  0  0  0  0  0
    0.0668    4.1170   -6.5273 H   0  0  0  0  0  0  0  0  0  0  0  0
    1.0051    3.2229   -8.3719 H   0  0  0  0  0  0  0  0  0  0  0  0
    2.3177    4.2122   -9.4132 H   0  0  0  0  0  0  0  0  0  0  0  0
   -0.5049    4.9933   -8.8276 H   0  0  0  0  0  0  0  0  0  0  0  0
    0.8762    5.9502   -9.7478 H   0  0  0  0  0  0  0  0  0  0  0  0
    4.2414    5.9575   -2.4679 H   0  0  0  0  0  0  0  0  0  0  0  0
    3.0362    5.8933   -3.7971 H   0  0  0  0  0  0  0  0  0  0  0  0
    4.5266    6.9641   -3.9228 H   0  0  0  0  0  0  0  0  0  0  0  0
    6.3765    3.0558   -4.5789 H   0  0  0  0  0  0  0  0  0  0  0  0
    6.3166   -0.8376   -6.8266 H   0  0  0  0  0  0  0  0  0  0  0  0
    6.7946   -3.1290   -6.5879 H   0  0  0  0  0  0  0  0  0  0  0  0
    1.9900    1.7706   -0.8124 H   0  0  0  0  0  0  0  0  0  0  0  0
  1  2  1  0  0  0  0
  1 35  1  0  0  0  0
  1 36  1  0  0  0  0
  1 37  1  0  0  0  0
  2  3  1  0  0  0  0
  2 38  1  0  0  0  0
  3  4  2  0  0  0  0
  3  5  1  0  0  0  0
  5  6  1  0  0  0  0
  5 33  2  0  0  0  0
  6  7  2  0  0  0  0
  6 39  1  0  0  0  0
  7  8  1  0  0  0  0
  7 40  1  0  0  0  0
  8  9  2  0  0  0  0
  8 41  1  0  0  0  0
  9 10  1  0  0  0  0
  9 33  1  0  0  0  0
 10 11  2  0  0  0  0
 10 42  1  0  0  0  0
 11 12  1  0  0  0  0
 11 31  1  0  0  0  0
 12 13  1  0  0  0  0
 13 14  1  0  0  0  0
 13 30  2  0  0  0  0
 14 15  2  0  0  0  0
 14 43  1  0  0  0  0
 15 16  1  0  0  0  0
 15 44  1  0  0  0  0
 16 17  2  0  0  0  0
 17 18  1  0  0  0  0
 17 30  1  0  0  0  0
 18 19  2  0  0  0  0
 18 45  1  0  0  0  0
 19 20  1  0  0  0  0
 19 26  1  0  0  0  0
 20 21  1  0  0  0  0
 21 22  1  0  0  0  0
 21 46  1  0  0  0  0
 21 47  1  0  0  0  0
 22 23  1  0  0  0  0
 22 24  1  0  0  0  0
 22 25  1  0  0  0  0
 23 48  1  0  0  0  0
 23 49  1  0  0  0  0
 24 25  1  0  0  0  0
 24 50  1  0  0  0  0
 24 51  1  0  0  0  0
 25 52  1  0  0  0  0
 25 53  1  0  0  0  0
 26 27  1  0  0  0  0
 26 29  2  0  0  0  0
 27 28  1  0  0  0  0
 28 54  1  0  0  0  0
 28 55  1  0  0  0  0
 28 56  1  0  0  0  0
 29 30  1  0  0  0  0
 29 57  1  0  0  0  0
 31 32  2  0  0  0  0
 31 58  1  0  0  0  0
 32 33  1  0  0  0  0
 32 59  1  0  0  0  0
 34 60  1  0  0  0  0
M  END
$$$$
