CHEMBL3676390
 OpenBabel04072215373D

 53 55  0  0  0  0  0  0  0  0999 V2000
    3.6295    2.1021    3.3222 C   0  0  0  0  0  0  0  0  0  0  0  0
    3.6345    0.8275    2.9143 C   0  0  0  0  0  0  0  0  0  0  0  0
    3.7209    0.5299    1.4601 C   0  0  0  0  0  0  0  0  0  0  0  0
    3.2547    1.2819    0.6101 O   0  0  0  0  0  0  0  0  0  0  0  0
    4.3877   -0.6138    1.0878 N   0  0  0  0  0  0  0  0  0  0  0  0
    5.2551   -1.3161    1.9436 C   0  0  0  0  0  0  0  0  0  0  0  0
    6.4345   -0.6868    2.3462 C   0  0  0  0  0  0  0  0  0  0  0  0
    7.2161   -1.2359    3.3847 C   0  0  0  0  0  0  0  0  0  0  0  0
    8.3302   -0.6098    3.9589 C   0  0  0  0  0  0  0  0  0  0  0  0
    8.7107    0.6935    3.5380 N   0  0  0  0  0  0  0  0  0  0  0  0
    9.5201    1.5618    4.3096 C   0  0  0  0  0  0  0  0  0  0  0  0
    9.3119    1.7086    5.6898 C   0  0  0  0  0  0  0  0  0  0  0  0
   10.1688    2.4852    6.4680 C   0  0  0  0  0  0  0  0  0  0  0  0
   11.2316    3.1506    5.8606 C   0  0  0  0  0  0  0  0  0  0  0  0
   12.4498    4.1218    6.9299 Br  0  0  0  0  0  0  0  0  0  0  0  0
   11.4173    3.0815    4.4817 C   0  0  0  0  0  0  0  0  0  0  0  0
   10.5546    2.2983    3.7198 C   0  0  0  0  0  0  0  0  0  0  0  0
   10.7443    2.2210    2.3931 F   0  0  0  0  0  0  0  0  0  0  0  0
    9.0243   -1.1826    4.9595 N   0  0  0  0  0  0  0  0  0  0  0  0
    8.5959   -2.3624    5.4044 C   0  0  0  0  0  0  0  0  0  0  0  0
    7.5219   -3.0198    4.9641 N   0  0  0  0  0  0  0  0  0  0  0  0
    6.8360   -2.4527    3.9691 C   0  0  0  0  0  0  0  0  0  0  0  0
    5.6819   -3.0820    3.5205 C   0  0  0  0  0  0  0  0  0  0  0  0
    4.8909   -2.5481    2.4990 C   0  0  0  0  0  0  0  0  0  0  0  0
    3.7781   -3.2914    2.1888 O   0  0  0  0  0  0  0  0  0  0  0  0
    3.3804   -3.2511    0.8134 C   0  0  0  0  0  0  0  0  0  0  0  0
    2.7715   -4.5898    0.3896 C   0  0  0  0  0  0  0  0  0  0  0  0
    2.4559   -4.6105   -1.0318 N   0  0  0  0  0  0  0  0  0  0  0  0
    3.4490   -4.7953   -1.9726 C   0  0  0  0  0  0  0  0  0  0  0  0
    4.6130   -5.0353   -1.6720 O   0  0  0  0  0  0  0  0  0  0  0  0
    2.9716   -4.6222   -3.4020 C   0  0  0  0  0  0  0  0  0  0  0  0
    4.0592   -4.9625   -4.4081 C   0  0  0  0  0  0  0  0  0  0  0  0
    3.6297    2.3488    4.3781 H   0  0  0  0  0  0  0  0  0  0  0  0
    3.6478    2.9235    2.6107 H   0  0  0  0  0  0  0  0  0  0  0  0
    3.6363    0.0091    3.6233 H   0  0  0  0  0  0  0  0  0  0  0  0
    4.6892   -0.5206    0.1229 H   0  0  0  0  0  0  0  0  0  0  0  0
    6.7060    0.2705    1.9068 H   0  0  0  0  0  0  0  0  0  0  0  0
    8.9880    0.6869    2.5589 H   0  0  0  0  0  0  0  0  0  0  0  0
    8.4862    1.1832    6.1709 H   0  0  0  0  0  0  0  0  0  0  0  0
   10.0071    2.5430    7.5401 H   0  0  0  0  0  0  0  0  0  0  0  0
   12.2313    3.6063    3.9941 H   0  0  0  0  0  0  0  0  0  0  0  0
    9.1681   -2.8213    6.2038 H   0  0  0  0  0  0  0  0  0  0  0  0
    5.3768   -4.0118    3.9974 H   0  0  0  0  0  0  0  0  0  0  0  0
    4.2320   -3.0375    0.1571 H   0  0  0  0  0  0  0  0  0  0  0  0
    2.6234   -2.4677    0.6909 H   0  0  0  0  0  0  0  0  0  0  0  0
    1.8488   -4.7881    0.9446 H   0  0  0  0  0  0  0  0  0  0  0  0
    3.4675   -5.4061    0.6149 H   0  0  0  0  0  0  0  0  0  0  0  0
    1.5404   -4.3000   -1.3324 H   0  0  0  0  0  0  0  0  0  0  0  0
    2.6659   -3.5783   -3.5363 H   0  0  0  0  0  0  0  0  0  0  0  0
    2.0995   -5.2627   -3.5706 H   0  0  0  0  0  0  0  0  0  0  0  0
    4.9488   -4.3423   -4.2537 H   0  0  0  0  0  0  0  0  0  0  0  0
    3.7043   -4.7995   -5.4302 H   0  0  0  0  0  0  0  0  0  0  0  0
    4.3632   -6.0104   -4.3135 H   0  0  0  0  0  0  0  0  0  0  0  0
  1  2  2  0  0  0  0
  1 33  1  0  0  0  0
  1 34  1  0  0  0  0
  2  3  1  0  0  0  0
  2 35  1  0  0  0  0
  3  4  2  0  0  0  0
  3  5  1  0  0  0  0
  5  6  1  0  0  0  0
  5 36  1  0  0  0  0
  6  7  1  0  0  0  0
  6 24  2  0  0  0  0
  7  8  2  0  0  0  0
  7 37  1  0  0  0  0
  8  9  1  0  0  0  0
  8 22  1  0  0  0  0
  9 10  1  0  0  0  0
  9 19  2  0  0  0  0
 10 11  1  0  0  0  0
 10 38  1  0  0  0  0
 11 12  1  0  0  0  0
 11 17  2  0  0  0  0
 12 13  2  0  0  0  0
 12 39  1  0  0  0  0
 13 14  1  0  0  0  0
 13 40  1  0  0  0  0
 14 15  1  0  0  0  0
 14 16  2  0  0  0  0
 16 17  1  0  0  0  0
 16 41  1  0  0  0  0
 17 18  1  0  0  0  0
 19 20  1  0  0  0  0
 20 21  2  0  0  0  0
 20 42  1  0  0  0  0
 21 22  1  0  0  0  0
 22 23  2  0  0  0  0
 23 24  1  0  0  0  0
 23 43  1  0  0  0  0
 24 25  1  0  0  0  0
 25 26  1  0  0  0  0
 26 27  1  0  0  0  0
 26 44  1  0  0  0  0
 26 45  1  0  0  0  0
 27 28  1  0  0  0  0
 27 46  1  0  0  0  0
 27 47  1  0  0  0  0
 28 29  1  0  0  0  0
 28 48  1  0  0  0  0
 29 30  2  0  0  0  0
 29 31  1  0  0  0  0
 31 32  1  0  0  0  0
 31 49  1  0  0  0  0
 31 50  1  0  0  0  0
 32 51  1  0  0  0  0
 32 52  1  0  0  0  0
 32 53  1  0  0  0  0
M  END
$$$$
