CHEMBL3577116
 OpenBabel04072215363D

 65 67  0  0  0  0  0  0  0  0999 V2000
    2.6893    0.5735   -0.4507 C   0  0  0  0  0  0  0  0  0  0  0  0
    3.7928   -0.4784   -0.4261 C   0  0  0  0  0  0  0  0  0  0  0  0
    3.6080   -1.4142    0.6825 N   0  0  0  0  0  0  0  0  0  0  0  0
    4.2408   -1.1087    1.8868 C   0  0  0  0  0  0  0  0  0  0  0  0
    5.0309   -0.1716    2.0080 O   0  0  0  0  0  0  0  0  0  0  0  0
    3.9147   -1.9655    3.0772 C   0  0  0  0  0  0  0  0  0  0  0  0
    4.5524   -1.6498    4.3730 C   0  0  0  0  0  0  0  0  0  0  0  0
    3.9198   -0.7012    5.1987 C   0  0  0  0  0  0  0  0  0  0  0  0
    4.5300   -0.2375    6.3711 C   0  0  0  0  0  0  0  0  0  0  0  0
    3.9593    0.7823    7.1772 N   0  0  0  0  0  0  0  0  0  0  0  0
    2.6199    1.1036    7.1766 C   0  0  0  0  0  0  0  0  0  0  0  0
    1.7561    0.5148    6.5459 O   0  0  0  0  0  0  0  0  0  0  0  0
    2.3081    2.1690    7.9828 N   0  0  0  0  0  0  0  0  0  0  0  0
    0.9445    2.6743    7.9678 C   0  0  0  0  0  0  0  0  0  0  0  0
    0.0336    1.9129    8.9435 C   0  0  0  0  0  0  0  0  0  0  0  0
   -1.4640    2.3271    8.8905 C   0  0  0  0  0  0  0  0  0  0  0  0
   -2.0796    2.0138    7.5148 C   0  0  0  0  0  0  0  0  0  0  0  0
   -2.2484    1.5354    9.9559 C   0  0  0  0  0  0  0  0  0  0  0  0
   -1.6209    3.8262    9.1896 C   0  0  0  0  0  0  0  0  0  0  0  0
    5.7625   -0.7760    6.7284 C   0  0  0  0  0  0  0  0  0  0  0  0
    6.3764   -0.3522    7.8479 F   0  0  0  0  0  0  0  0  0  0  0  0
    6.3824   -1.7575    5.9533 C   0  0  0  0  0  0  0  0  0  0  0  0
    5.7985   -2.1846    4.7487 C   0  0  0  0  0  0  0  0  0  0  0  0
    6.5429   -3.1269    3.8435 C   0  0  0  0  0  0  0  0  0  0  0  0
    3.0119   -2.9547    2.9844 C   0  0  0  0  0  0  0  0  0  0  0  0
    2.3433   -3.2222    1.7140 C   0  0  0  0  0  0  0  0  0  0  0  0
    1.3663   -4.2010    1.5790 C   0  0  0  0  0  0  0  0  0  0  0  0
    0.6707   -4.4428    0.4381 N   0  0  0  0  0  0  0  0  0  0  0  0
    0.9634   -3.7048   -0.6456 C   0  0  0  0  0  0  0  0  0  0  0  0
    0.3255   -3.9075   -1.8783 N   0  0  0  0  0  0  0  0  0  0  0  0
   -0.8596   -4.7459   -1.8912 C   0  0  0  0  0  0  0  0  0  0  0  0
    1.9802   -2.7554   -0.6110 C   0  0  0  0  0  0  0  0  0  0  0  0
    2.6496   -2.4690    0.5836 C   0  0  0  0  0  0  0  0  0  0  0  0
    2.8162    1.2427   -1.3059 H   0  0  0  0  0  0  0  0  0  0  0  0
    2.7061    1.1746    0.4646 H   0  0  0  0  0  0  0  0  0  0  0  0
    1.6960    0.1179   -0.5221 H   0  0  0  0  0  0  0  0  0  0  0  0
    4.7584    0.0302   -0.3250 H   0  0  0  0  0  0  0  0  0  0  0  0
    3.8542   -1.0189   -1.3753 H   0  0  0  0  0  0  0  0  0  0  0  0
    2.9786   -0.2859    4.8615 H   0  0  0  0  0  0  0  0  0  0  0  0
    4.5433    1.1593    7.9080 H   0  0  0  0  0  0  0  0  0  0  0  0
    3.0391    2.7406    8.3806 H   0  0  0  0  0  0  0  0  0  0  0  0
    0.5666    2.5916    6.9480 H   0  0  0  0  0  0  0  0  0  0  0  0
    0.9938    3.7398    8.2162 H   0  0  0  0  0  0  0  0  0  0  0  0
    0.4193    2.0614    9.9609 H   0  0  0  0  0  0  0  0  0  0  0  0
    0.1132    0.8344    8.7518 H   0  0  0  0  0  0  0  0  0  0  0  0
   -2.0098    0.9446    7.2843 H   0  0  0  0  0  0  0  0  0  0  0  0
   -1.5869    2.5642    6.7079 H   0  0  0  0  0  0  0  0  0  0  0  0
   -3.1398    2.2906    7.4866 H   0  0  0  0  0  0  0  0  0  0  0  0
   -2.2020    0.4567    9.7686 H   0  0  0  0  0  0  0  0  0  0  0  0
   -3.3065    1.8239    9.9593 H   0  0  0  0  0  0  0  0  0  0  0  0
   -1.8535    1.7194   10.9611 H   0  0  0  0  0  0  0  0  0  0  0  0
   -1.1223    4.4449    8.4371 H   0  0  0  0  0  0  0  0  0  0  0  0
   -1.1968    4.0760   10.1686 H   0  0  0  0  0  0  0  0  0  0  0  0
   -2.6764    4.1192    9.1976 H   0  0  0  0  0  0  0  0  0  0  0  0
    7.3358   -2.1616    6.2824 H   0  0  0  0  0  0  0  0  0  0  0  0
    7.4821   -3.4625    4.2939 H   0  0  0  0  0  0  0  0  0  0  0  0
    6.7910   -2.6186    2.9051 H   0  0  0  0  0  0  0  0  0  0  0  0
    5.9405   -4.0147    3.6266 H   0  0  0  0  0  0  0  0  0  0  0  0
    2.7392   -3.5542    3.8476 H   0  0  0  0  0  0  0  0  0  0  0  0
    1.0902   -4.8425    2.4120 H   0  0  0  0  0  0  0  0  0  0  0  0
    0.1432   -3.0121   -2.3227 H   0  0  0  0  0  0  0  0  0  0  0  0
   -0.9439   -5.4365   -1.0482 H   0  0  0  0  0  0  0  0  0  0  0  0
   -0.8454   -5.3455   -2.8069 H   0  0  0  0  0  0  0  0  0  0  0  0
   -1.7586   -4.1200   -1.9233 H   0  0  0  0  0  0  0  0  0  0  0  0
    2.2161   -2.2436   -1.5345 H   0  0  0  0  0  0  0  0  0  0  0  0
  1  2  1  0  0  0  0
  1 34  1  0  0  0  0
  1 35  1  0  0  0  0
  1 36  1  0  0  0  0
  2  3  1  0  0  0  0
  2 37  1  0  0  0  0
  2 38  1  0  0  0  0
  3  4  1  0  0  0  0
  3 33  1  0  0  0  0
  4  5  2  0  0  0  0
  4  6  1  0  0  0  0
  6  7  1  0  0  0  0
  6 25  2  0  0  0  0
  7  8  1  0  0  0  0
  7 23  2  0  0  0  0
  8  9  2  0  0  0  0
  8 39  1  0  0  0  0
  9 10  1  0  0  0  0
  9 20  1  0  0  0  0
 10 11  1  0  0  0  0
 10 40  1  0  0  0  0
 11 12  2  0  0  0  0
 11 13  1  0  0  0  0
 13 14  1  0  0  0  0
 13 41  1  0  0  0  0
 14 15  1  0  0  0  0
 14 42  1  0  0  0  0
 14 43  1  0  0  0  0
 15 16  1  0  0  0  0
 15 44  1  0  0  0  0
 15 45  1  0  0  0  0
 16 17  1  0  0  0  0
 16 18  1  0  0  0  0
 16 19  1  0  0  0  0
 17 46  1  0  0  0  0
 17 47  1  0  0  0  0
 17 48  1  0  0  0  0
 18 49  1  0  0  0  0
 18 50  1  0  0  0  0
 18 51  1  0  0  0  0
 19 52  1  0  0  0  0
 19 53  1  0  0  0  0
 19 54  1  0  0  0  0
 20 21  1  0  0  0  0
 20 22  2  0  0  0  0
 22 23  1  0  0  0  0
 22 55  1  0  0  0  0
 23 24  1  0  0  0  0
 24 56  1  0  0  0  0
 24 57  1  0  0  0  0
 24 58  1  0  0  0  0
 25 26  1  0  0  0  0
 25 59  1  0  0  0  0
 26 27  1  0  0  0  0
 26 33  2  0  0  0  0
 27 28  2  0  0  0  0
 27 60  1  0  0  0  0
 28 29  1  0  0  0  0
 29 30  1  0  0  0  0
 29 32  2  0  0  0  0
 30 31  1  0  0  0  0
 30 61  1  0  0  0  0
 31 62  1  0  0  0  0
 31 63  1  0  0  0  0
 31 64  1  0  0  0  0
 32 33  1  0  0  0  0
 32 65  1  0  0  0  0
M  END
$$$$
