CHEMBL4218127
 OpenBabel04072215383D

 62 64  0  0  0  0  0  0  0  0999 V2000
    8.5897    4.8553    0.8519 C   0  0  0  0  0  0  0  0  0  0  0  0
    7.9929    3.6022    0.2416 C   0  0  0  0  0  0  0  0  0  0  0  0
    6.6054    3.5506    0.5752 O   0  0  0  0  0  0  0  0  0  0  0  0
    5.8927    2.4643    0.1214 C   0  0  0  0  0  0  0  0  0  0  0  0
    6.3784    1.4523   -0.6237 C   0  0  0  0  0  0  0  0  0  0  0  0
    5.4997    0.3348   -1.0386 C   0  0  0  0  0  0  0  0  0  0  0  0
    5.9328   -0.5996   -1.7032 O   0  0  0  0  0  0  0  0  0  0  0  0
    4.1969    0.4170   -0.6259 N   0  0  0  0  0  0  0  0  0  0  0  0
    3.6936    1.4400    0.1402 C   0  0  0  0  0  0  0  0  0  0  0  0
    4.4837    2.4632    0.5382 C   0  0  0  0  0  0  0  0  0  0  0  0
    3.8759    3.4772    1.4254 C   0  0  0  0  0  0  0  0  0  0  0  0
    3.1547    4.5672    0.9156 C   0  0  0  0  0  0  0  0  0  0  0  0
    2.5383    5.4853    1.7845 C   0  0  0  0  0  0  0  0  0  0  0  0
    2.6369    5.3333    3.1724 C   0  0  0  0  0  0  0  0  0  0  0  0
    1.8724    6.2262    4.1293 C   0  0  0  0  0  0  0  0  0  0  0  0
    2.1732    7.7132    4.0187 C   0  0  0  0  0  0  0  0  0  0  0  0
    1.4616    8.4610    3.3555 O   0  0  0  0  0  0  0  0  0  0  0  0
    3.3138    8.0981    4.7038 N   0  0  0  0  0  0  0  0  0  0  0  0
    3.7881    9.4244    4.7171 C   0  0  0  0  0  0  0  0  0  0  0  0
    5.1390    9.6303    4.4722 C   0  0  0  0  0  0  0  0  0  0  0  0
    5.6603   10.9244    4.4647 C   0  0  0  0  0  0  0  0  0  0  0  0
    4.8637   12.0474    4.7668 C   0  0  0  0  0  0  0  0  0  0  0  0
    5.5555   13.4001    4.7794 C   0  0  0  0  0  0  0  0  0  0  0  0
    6.1977   13.8661    6.1155 C   0  0  0  0  0  0  0  0  0  0  0  0
    5.2263   13.9129    7.2977 C   0  0  0  0  0  0  0  0  0  0  0  0
    7.4303   13.0328    6.4802 C   0  0  0  0  0  0  0  0  0  0  0  0
    6.6817   15.2066    5.9158 O   0  0  0  0  0  0  0  0  0  0  0  0
    3.4860   11.8469    5.0241 C   0  0  0  0  0  0  0  0  0  0  0  0
    2.4912   12.9486    5.3460 C   0  0  0  0  0  0  0  0  0  0  0  0
    2.9922   14.2139    5.3317 F   0  0  0  0  0  0  0  0  0  0  0  0
    1.4399   12.9722    4.4801 F   0  0  0  0  0  0  0  0  0  0  0  0
    1.9456   12.7975    6.5874 F   0  0  0  0  0  0  0  0  0  0  0  0
    2.9678   10.5240    4.9857 C   0  0  0  0  0  0  0  0  0  0  0  0
    3.3893    4.2625    3.6611 C   0  0  0  0  0  0  0  0  0  0  0  0
    3.5174    4.0911    4.9854 F   0  0  0  0  0  0  0  0  0  0  0  0
    3.9992    3.3407    2.8113 C   0  0  0  0  0  0  0  0  0  0  0  0
    9.6513    4.9378    0.6011 H   0  0  0  0  0  0  0  0  0  0  0  0
    8.4843    4.8404    1.9415 H   0  0  0  0  0  0  0  0  0  0  0  0
    8.0691    5.7479    0.4904 H   0  0  0  0  0  0  0  0  0  0  0  0
    8.5102    2.7258    0.6488 H   0  0  0  0  0  0  0  0  0  0  0  0
    8.1172    3.6379   -0.8468 H   0  0  0  0  0  0  0  0  0  0  0  0
    7.4026    1.3751   -0.9639 H   0  0  0  0  0  0  0  0  0  0  0  0
    3.5980   -0.3524   -0.9046 H   0  0  0  0  0  0  0  0  0  0  0  0
    2.6519    1.3572    0.4159 H   0  0  0  0  0  0  0  0  0  0  0  0
    3.0563    4.7021   -0.1577 H   0  0  0  0  0  0  0  0  0  0  0  0
    1.9583    6.3065    1.3585 H   0  0  0  0  0  0  0  0  0  0  0  0
    2.0449    5.9227    5.1683 H   0  0  0  0  0  0  0  0  0  0  0  0
    0.7983    6.0839    3.9554 H   0  0  0  0  0  0  0  0  0  0  0  0
    4.0024    7.3674    4.8392 H   0  0  0  0  0  0  0  0  0  0  0  0
    5.7890    8.7968    4.2202 H   0  0  0  0  0  0  0  0  0  0  0  0
    6.7116   11.0517    4.2089 H   0  0  0  0  0  0  0  0  0  0  0  0
    4.8873   14.1732    4.3866 H   0  0  0  0  0  0  0  0  0  0  0  0
    6.3472   13.3841    4.0142 H   0  0  0  0  0  0  0  0  0  0  0  0
    4.7636   12.9430    7.4987 H   0  0  0  0  0  0  0  0  0  0  0  0
    4.4406   14.6576    7.1340 H   0  0  0  0  0  0  0  0  0  0  0  0
    5.7444   14.2320    8.2103 H   0  0  0  0  0  0  0  0  0  0  0  0
    7.1958   11.9732    6.6106 H   0  0  0  0  0  0  0  0  0  0  0  0
    7.8805   13.3928    7.4132 H   0  0  0  0  0  0  0  0  0  0  0  0
    8.2070   13.1325    5.7129 H   0  0  0  0  0  0  0  0  0  0  0  0
    5.9107   15.7908    5.8044 H   0  0  0  0  0  0  0  0  0  0  0  0
    1.9106   10.3642    5.2030 H   0  0  0  0  0  0  0  0  0  0  0  0
    4.5551    2.5125    3.2413 H   0  0  0  0  0  0  0  0  0  0  0  0
  1  2  1  0  0  0  0
  1 37  1  0  0  0  0
  1 38  1  0  0  0  0
  1 39  1  0  0  0  0
  2  3  1  0  0  0  0
  2 40  1  0  0  0  0
  2 41  1  0  0  0  0
  3  4  1  0  0  0  0
  4  5  2  0  0  0  0
  4 10  1  0  0  0  0
  5  6  1  0  0  0  0
  5 42  1  0  0  0  0
  6  7  2  0  0  0  0
  6  8  1  0  0  0  0
  8  9  1  0  0  0  0
  8 43  1  0  0  0  0
  9 10  2  0  0  0  0
  9 44  1  0  0  0  0
 10 11  1  0  0  0  0
 11 12  1  0  0  0  0
 11 36  2  0  0  0  0
 12 13  2  0  0  0  0
 12 45  1  0  0  0  0
 13 14  1  0  0  0  0
 13 46  1  0  0  0  0
 14 15  1  0  0  0  0
 14 34  2  0  0  0  0
 15 16  1  0  0  0  0
 15 47  1  0  0  0  0
 15 48  1  0  0  0  0
 16 17  2  0  0  0  0
 16 18  1  0  0  0  0
 18 19  1  0  0  0  0
 18 49  1  0  0  0  0
 19 20  1  0  0  0  0
 19 33  2  0  0  0  0
 20 21  2  0  0  0  0
 20 50  1  0  0  0  0
 21 22  1  0  0  0  0
 21 51  1  0  0  0  0
 22 23  1  0  0  0  0
 22 28  2  0  0  0  0
 23 24  1  0  0  0  0
 23 52  1  0  0  0  0
 23 53  1  0  0  0  0
 24 25  1  0  0  0  0
 24 26  1  0  0  0  0
 24 27  1  0  0  0  0
 25 54  1  0  0  0  0
 25 55  1  0  0  0  0
 25 56  1  0  0  0  0
 26 57  1  0  0  0  0
 26 58  1  0  0  0  0
 26 59  1  0  0  0  0
 27 60  1  0  0  0  0
 28 29  1  0  0  0  0
 28 33  1  0  0  0  0
 29 30  1  0  0  0  0
 29 31  1  0  0  0  0
 29 32  1  0  0  0  0
 33 61  1  0  0  0  0
 34 35  1  0  0  0  0
 34 36  1  0  0  0  0
 36 62  1  0  0  0  0
M  END
$$$$
