CHEMBL3959573
 OpenBabel04072215373D

 62 64  0  0  0  0  0  0  0  0999 V2000
    2.4690   -3.4417   -3.8053 C   0  0  0  0  0  0  0  0  0  0  0  0
    3.1480   -2.2830   -3.0789 C   0  0  0  0  0  0  0  0  0  0  0  0
    4.4785   -2.7189   -2.4575 C   0  0  0  0  0  0  0  0  0  0  0  0
    5.0960   -1.6046   -1.7395 N   0  0  0  0  0  0  0  0  0  0  0  0
    6.2914   -1.0495   -2.0176 C   0  0  0  0  0  0  0  0  0  0  0  0
    6.5143   -0.0375   -1.1043 C   0  0  0  0  0  0  0  0  0  0  0  0
    7.7072    0.8331   -1.0516 C   0  0  0  0  0  0  0  0  0  0  0  0
    7.8822    1.8275   -0.0715 C   0  0  0  0  0  0  0  0  0  0  0  0
    9.0078    2.5972   -0.0881 N   0  0  0  0  0  0  0  0  0  0  0  0
    9.9632    2.4290   -1.0436 C   0  0  0  0  0  0  0  0  0  0  0  0
   11.1111    3.2314   -1.0761 C   0  0  0  0  0  0  0  0  0  0  0  0
   12.0643    3.0665   -2.0985 C   0  0  0  0  0  0  0  0  0  0  0  0
   11.8779    2.0969   -3.1201 C   0  0  0  0  0  0  0  0  0  0  0  0
   12.7873    1.9263   -4.2449 N   0  0  0  0  0  0  0  0  0  0  0  0
   14.1918    2.3613   -4.1839 C   0  0  0  0  0  0  0  0  0  0  0  0
   15.1693    1.2100   -3.8785 C   0  0  0  0  0  0  0  0  0  0  0  0
   14.9822    0.6877   -2.5324 N   0  0  0  0  0  0  0  0  0  0  0  0
   12.2462    1.6015   -5.5572 C   0  0  0  0  0  0  0  0  0  0  0  0
   10.9102    1.9214   -5.8968 C   0  0  0  0  0  0  0  0  0  0  0  0
   10.3779    1.6270   -7.1642 C   0  0  0  0  0  0  0  0  0  0  0  0
    9.1006    1.9401   -7.5069 O   0  0  0  0  0  0  0  0  0  0  0  0
    8.1909    2.5943   -6.7007 C   0  0  0  0  0  0  0  0  0  0  0  0
   11.1861    1.0066   -8.1163 C   0  0  0  0  0  0  0  0  0  0  0  0
   12.5261    0.7016   -7.8251 C   0  0  0  0  0  0  0  0  0  0  0  0
   13.3586    0.1245   -8.7300 O   0  0  0  0  0  0  0  0  0  0  0  0
   13.0244   -0.2344  -10.0182 C   0  0  0  0  0  0  0  0  0  0  0  0
   13.0416    1.0080   -6.5629 C   0  0  0  0  0  0  0  0  0  0  0  0
   10.7303    1.2734   -3.0288 C   0  0  0  0  0  0  0  0  0  0  0  0
    9.7854    1.4447   -2.0211 C   0  0  0  0  0  0  0  0  0  0  0  0
    8.6717    0.6714   -1.9948 N   0  0  0  0  0  0  0  0  0  0  0  0
    5.3956   -0.0299   -0.2875 C   0  0  0  0  0  0  0  0  0  0  0  0
    4.5493   -0.9948   -0.6976 N   0  0  0  0  0  0  0  0  0  0  0  0
    1.3168    2.7434    1.0577 Cl  0  0  0  0  0  0  0  0  0  0  0  0
    1.5179   -3.0903   -4.2586 H   0  0  0  0  0  0  0  0  0  0  0  0
    2.2392   -4.2617   -3.0915 H   0  0  0  0  0  0  0  0  0  0  0  0
    3.1241   -3.8332   -4.6124 H   0  0  0  0  0  0  0  0  0  0  0  0
    2.4650   -1.9130   -2.2841 H   0  0  0  0  0  0  0  0  0  0  0  0
    3.3345   -1.4597   -3.8023 H   0  0  0  0  0  0  0  0  0  0  0  0
    5.1567   -3.0757   -3.2646 H   0  0  0  0  0  0  0  0  0  0  0  0
    4.3107   -3.5552   -1.7458 H   0  0  0  0  0  0  0  0  0  0  0  0
    6.9499   -1.3587   -2.8198 H   0  0  0  0  0  0  0  0  0  0  0  0
    7.1382    1.9935    0.6965 H   0  0  0  0  0  0  0  0  0  0  0  0
   11.2579    3.9970   -0.3230 H   0  0  0  0  0  0  0  0  0  0  0  0
   12.9061    3.7374   -2.0823 H   0  0  0  0  0  0  0  0  0  0  0  0
   14.3595    3.1770   -3.4620 H   0  0  0  0  0  0  0  0  0  0  0  0
   14.4739    2.8130   -5.1605 H   0  0  0  0  0  0  0  0  0  0  0  0
   16.2098    1.5938   -3.9808 H   0  0  0  0  0  0  0  0  0  0  0  0
   15.0602    0.3752   -4.5944 H   0  0  0  0  0  0  0  0  0  0  0  0
   15.2632    1.4272   -1.8488 H   0  0  0  0  0  0  0  0  0  0  0  0
   15.6457   -0.1129   -2.4097 H   0  0  0  0  0  0  0  0  0  0  0  0
   10.2803    2.4277   -5.1843 H   0  0  0  0  0  0  0  0  0  0  0  0
    7.2424    2.7314   -7.2578 H   0  0  0  0  0  0  0  0  0  0  0  0
    8.5817    3.5962   -6.4194 H   0  0  0  0  0  0  0  0  0  0  0  0
    7.9860    1.9962   -5.7867 H   0  0  0  0  0  0  0  0  0  0  0  0
   10.7650    0.7837   -9.0875 H   0  0  0  0  0  0  0  0  0  0  0  0
   13.9209   -0.6515  -10.5206 H   0  0  0  0  0  0  0  0  0  0  0  0
   12.6842    0.6576  -10.5860 H   0  0  0  0  0  0  0  0  0  0  0  0
   12.2281   -1.0087  -10.0061 H   0  0  0  0  0  0  0  0  0  0  0  0
   14.0721    0.7613   -6.3955 H   0  0  0  0  0  0  0  0  0  0  0  0
   10.5508    0.4974   -3.7610 H   0  0  0  0  0  0  0  0  0  0  0  0
    5.2005    0.6306    0.5458 H   0  0  0  0  0  0  0  0  0  0  0  0
    1.1265    2.2386   -0.2077 H   0  0  0  0  0  0  0  0  0  0  0  0
  1  2  1  0  0  0  0
  1 34  1  0  0  0  0
  1 35  1  0  0  0  0
  1 36  1  0  0  0  0
  2  3  1  0  0  0  0
  2 37  1  0  0  0  0
  2 38  1  0  0  0  0
  3  4  1  0  0  0  0
  3 39  1  0  0  0  0
  3 40  1  0  0  0  0
  4  5  1  0  0  0  0
  4 32  1  0  0  0  0
  5  6  2  0  0  0  0
  5 41  1  0  0  0  0
  6  7  1  0  0  0  0
  6 31  1  0  0  0  0
  7  8  1  0  0  0  0
  7 30  2  0  0  0  0
  8  9  2  0  0  0  0
  8 42  1  0  0  0  0
  9 10  1  0  0  0  0
 10 11  1  0  0  0  0
 10 29  2  0  0  0  0
 11 12  2  0  0  0  0
 11 43  1  0  0  0  0
 12 13  1  0  0  0  0
 12 44  1  0  0  0  0
 13 14  1  0  0  0  0
 13 28  2  0  0  0  0
 14 15  1  0  0  0  0
 14 18  1  0  0  0  0
 15 16  1  0  0  0  0
 15 45  1  0  0  0  0
 15 46  1  0  0  0  0
 16 17  1  0  0  0  0
 16 47  1  0  0  0  0
 16 48  1  0  0  0  0
 17 49  1  0  0  0  0
 17 50  1  0  0  0  0
 18 19  1  0  0  0  0
 18 27  2  0  0  0  0
 19 20  2  0  0  0  0
 19 51  1  0  0  0  0
 20 21  1  0  0  0  0
 20 23  1  0  0  0  0
 21 22  1  0  0  0  0
 22 52  1  0  0  0  0
 22 53  1  0  0  0  0
 22 54  1  0  0  0  0
 23 24  2  0  0  0  0
 23 55  1  0  0  0  0
 24 25  1  0  0  0  0
 24 27  1  0  0  0  0
 25 26  1  0  0  0  0
 26 56  1  0  0  0  0
 26 57  1  0  0  0  0
 26 58  1  0  0  0  0
 27 59  1  0  0  0  0
 28 29  1  0  0  0  0
 28 60  1  0  0  0  0
 29 30  1  0  0  0  0
 31 32  2  0  0  0  0
 31 61  1  0  0  0  0
 33 62  1  0  0  0  0
M  END
$$$$
