CHEMBL4786972
 OpenBabel04072215383D

 56 58  0  0  0  0  0  0  0  0999 V2000
    4.7068    1.0540   -0.9607 C   0  0  0  0  0  0  0  0  0  0  0  0
    4.3512   -0.1576   -0.1026 C   0  0  0  0  0  0  0  0  0  0  0  0
    4.7683   -0.0550    1.3066 N   0  0  0  0  0  0  0  0  0  0  0  0
    4.2454    1.1518    1.9858 C   0  0  0  0  0  0  0  0  0  0  0  0
    2.7271    1.2604    2.1428 C   0  0  0  0  0  0  0  0  0  0  0  0
    4.4238   -1.2798    2.0695 C   0  0  0  0  0  0  0  0  0  0  0  0
    5.0295   -2.6127    1.5691 C   0  0  0  0  0  0  0  0  0  0  0  0
    6.4803   -2.6532    1.5971 N   0  0  0  0  0  0  0  0  0  0  0  0
    7.1609   -3.8552    1.6740 C   0  0  0  0  0  0  0  0  0  0  0  0
    6.5671   -4.9294    1.7370 O   0  0  0  0  0  0  0  0  0  0  0  0
    8.6349   -3.7805    1.6513 C   0  0  0  0  0  0  0  0  0  0  0  0
    9.4385   -2.7279    2.0648 C   0  0  0  0  0  0  0  0  0  0  0  0
    9.1726   -1.3930    2.6664 C   0  0  0  0  0  0  0  0  0  0  0  0
   10.7460   -3.1083    1.8867 N   0  0  0  0  0  0  0  0  0  0  0  0
   10.8652   -4.3933    1.4235 C   0  0  0  0  0  0  0  0  0  0  0  0
   12.1540   -4.9994    1.2063 C   0  0  0  0  0  0  0  0  0  0  0  0
   13.3889   -4.4894    1.4081 C   0  0  0  0  0  0  0  0  0  0  0  0
   13.7923   -3.1215    1.9293 C   0  0  0  0  0  0  0  0  0  0  0  0
   13.0871   -2.1947    2.2827 O   0  0  0  0  0  0  0  0  0  0  0  0
   15.1703   -3.1009    1.9337 N   0  0  0  0  0  0  0  0  0  0  0  0
   15.6989   -4.2957    1.4775 C   0  0  0  0  0  0  0  0  0  0  0  0
   17.0500   -4.5780    1.3639 C   0  0  0  0  0  0  0  0  0  0  0  0
   17.3865   -5.8345    0.8847 C   0  0  0  0  0  0  0  0  0  0  0  0
   19.0493   -6.2483    0.7134 Cl  0  0  0  0  0  0  0  0  0  0  0  0
   16.3905   -6.7667    0.5390 C   0  0  0  0  0  0  0  0  0  0  0  0
   15.0228   -6.4510    0.6664 C   0  0  0  0  0  0  0  0  0  0  0  0
   14.6755   -5.1947    1.1421 C   0  0  0  0  0  0  0  0  0  0  0  0
    9.5529   -4.8474    1.2666 C   0  0  0  0  0  0  0  0  0  0  0  0
    9.1110   -6.1974    0.7943 C   0  0  0  0  0  0  0  0  0  0  0  0
    4.5720    0.8077   -2.0195 H   0  0  0  0  0  0  0  0  0  0  0  0
    5.7514    1.3499   -0.8187 H   0  0  0  0  0  0  0  0  0  0  0  0
    4.0643    1.9122   -0.7410 H   0  0  0  0  0  0  0  0  0  0  0  0
    4.8686   -1.0055   -0.5623 H   0  0  0  0  0  0  0  0  0  0  0  0
    3.2766   -0.3578   -0.1873 H   0  0  0  0  0  0  0  0  0  0  0  0
    4.6073    2.0478    1.4681 H   0  0  0  0  0  0  0  0  0  0  0  0
    4.6971    1.2190    2.9843 H   0  0  0  0  0  0  0  0  0  0  0  0
    2.1946    1.0712    1.2067 H   0  0  0  0  0  0  0  0  0  0  0  0
    2.4582    2.2718    2.4684 H   0  0  0  0  0  0  0  0  0  0  0  0
    2.3538    0.5649    2.9011 H   0  0  0  0  0  0  0  0  0  0  0  0
    3.3342   -1.4069    2.0964 H   0  0  0  0  0  0  0  0  0  0  0  0
    4.7562   -1.1428    3.1071 H   0  0  0  0  0  0  0  0  0  0  0  0
    4.7100   -2.8425    0.5478 H   0  0  0  0  0  0  0  0  0  0  0  0
    4.6466   -3.4208    2.2031 H   0  0  0  0  0  0  0  0  0  0  0  0
    6.9773   -1.8434    1.2521 H   0  0  0  0  0  0  0  0  0  0  0  0
    8.1189   -1.2175    2.8854 H   0  0  0  0  0  0  0  0  0  0  0  0
    9.5197   -0.6010    1.9943 H   0  0  0  0  0  0  0  0  0  0  0  0
    9.7122   -1.2948    3.6151 H   0  0  0  0  0  0  0  0  0  0  0  0
   11.5225   -2.5034    2.1237 H   0  0  0  0  0  0  0  0  0  0  0  0
   12.1031   -6.0180    0.8236 H   0  0  0  0  0  0  0  0  0  0  0  0
   15.6965   -2.2974    2.2378 H   0  0  0  0  0  0  0  0  0  0  0  0
   17.8036   -3.8480    1.6358 H   0  0  0  0  0  0  0  0  0  0  0  0
   16.6860   -7.7455    0.1652 H   0  0  0  0  0  0  0  0  0  0  0  0
   14.2755   -7.1878    0.3908 H   0  0  0  0  0  0  0  0  0  0  0  0
    9.9542   -6.8466    0.5442 H   0  0  0  0  0  0  0  0  0  0  0  0
    8.4876   -6.0999   -0.1011 H   0  0  0  0  0  0  0  0  0  0  0  0
    8.5263   -6.7019    1.5708 H   0  0  0  0  0  0  0  0  0  0  0  0
  1  2  1  0  0  0  0
  1 30  1  0  0  0  0
  1 31  1  0  0  0  0
  1 32  1  0  0  0  0
  2  3  1  0  0  0  0
  2 33  1  0  0  0  0
  2 34  1  0  0  0  0
  3  4  1  0  0  0  0
  3  6  1  0  0  0  0
  4  5  1  0  0  0  0
  4 35  1  0  0  0  0
  4 36  1  0  0  0  0
  5 37  1  0  0  0  0
  5 38  1  0  0  0  0
  5 39  1  0  0  0  0
  6  7  1  0  0  0  0
  6 40  1  0  0  0  0
  6 41  1  0  0  0  0
  7  8  1  0  0  0  0
  7 42  1  0  0  0  0
  7 43  1  0  0  0  0
  8  9  1  0  0  0  0
  8 44  1  0  0  0  0
  9 10  2  0  0  0  0
  9 11  1  0  0  0  0
 11 12  2  0  0  0  0
 11 28  1  0  0  0  0
 12 13  1  0  0  0  0
 12 14  1  0  0  0  0
 13 45  1  0  0  0  0
 13 46  1  0  0  0  0
 13 47  1  0  0  0  0
 14 15  1  0  0  0  0
 14 48  1  0  0  0  0
 15 16  1  0  0  0  0
 15 28  2  0  0  0  0
 16 17  2  0  0  0  0
 16 49  1  0  0  0  0
 17 18  1  0  0  0  0
 17 27  1  0  0  0  0
 18 19  2  0  0  0  0
 18 20  1  0  0  0  0
 20 21  1  0  0  0  0
 20 50  1  0  0  0  0
 21 22  1  0  0  0  0
 21 27  2  0  0  0  0
 22 23  2  0  0  0  0
 22 51  1  0  0  0  0
 23 24  1  0  0  0  0
 23 25  1  0  0  0  0
 25 26  2  0  0  0  0
 25 52  1  0  0  0  0
 26 27  1  0  0  0  0
 26 53  1  0  0  0  0
 28 29  1  0  0  0  0
 29 54  1  0  0  0  0
 29 55  1  0  0  0  0
 29 56  1  0  0  0  0
M  END
$$$$
