CHEMBL256972
 OpenBabel04072215363D

 52 55  0  0  0  0  0  0  0  0999 V2000
    0.5029    3.4585    3.6209 C   0  0  0  0  0  0  0  0  0  0  0  0
    1.9095    3.2291    3.7021 O   0  0  0  0  0  0  0  0  0  0  0  0
    2.4995    2.8970    2.5161 C   0  0  0  0  0  0  0  0  0  0  0  0
    1.8927    2.7799    1.4579 O   0  0  0  0  0  0  0  0  0  0  0  0
    3.9246    2.7275    2.7208 C   0  0  0  0  0  0  0  0  0  0  0  0
    4.6433    2.7522    3.8992 C   0  0  0  0  0  0  0  0  0  0  0  0
    6.0358    2.5414    3.7050 C   0  0  0  0  0  0  0  0  0  0  0  0
    6.9564    2.5067    4.7046 N   0  0  0  0  0  0  0  0  0  0  0  0
    8.2223    2.2669    4.3244 C   0  0  0  0  0  0  0  0  0  0  0  0
    8.6400    2.0940    3.0201 C   0  0  0  0  0  0  0  0  0  0  0  0
    7.7077    2.2243    1.9875 C   0  0  0  0  0  0  0  0  0  0  0  0
    8.0461    2.1530    0.6502 O   0  0  0  0  0  0  0  0  0  0  0  0
    9.2228    2.7373    0.2355 C   0  0  0  0  0  0  0  0  0  0  0  0
    9.7679    3.8833    0.8159 C   0  0  0  0  0  0  0  0  0  0  0  0
   11.0187    4.3428    0.4010 C   0  0  0  0  0  0  0  0  0  0  0  0
   11.7271    3.6873   -0.6165 C   0  0  0  0  0  0  0  0  0  0  0  0
   13.0043    4.2016   -0.9046 N   0  0  0  0  0  0  0  0  0  0  0  0
   14.1167    3.6614   -1.5075 C   0  0  0  0  0  0  0  0  0  0  0  0
   14.3754    2.0996   -2.0385 S   0  0  0  0  0  0  0  0  0  0  0  0
   15.1895    4.5389   -1.6187 N   0  0  0  0  0  0  0  0  0  0  0  0
   15.2816    5.8432   -1.1465 C   0  0  0  0  0  0  0  0  0  0  0  0
   14.3378    6.4399   -0.6207 O   0  0  0  0  0  0  0  0  0  0  0  0
   16.6488    6.4785   -1.2976 C   0  0  0  0  0  0  0  0  0  0  0  0
   16.8640    7.1779   -2.6145 C   0  0  0  0  0  0  0  0  0  0  0  0
   15.9644    8.1549   -3.0669 C   0  0  0  0  0  0  0  0  0  0  0  0
   16.2111    8.8547   -4.2490 C   0  0  0  0  0  0  0  0  0  0  0  0
   17.3617    8.5917   -4.9884 C   0  0  0  0  0  0  0  0  0  0  0  0
   18.2635    7.6257   -4.5498 C   0  0  0  0  0  0  0  0  0  0  0  0
   18.0182    6.9223   -3.3672 C   0  0  0  0  0  0  0  0  0  0  0  0
   11.1239    2.6199   -1.2748 C   0  0  0  0  0  0  0  0  0  0  0  0
    9.8796    2.1547   -0.8475 C   0  0  0  0  0  0  0  0  0  0  0  0
    9.3212    1.1215   -1.4955 F   0  0  0  0  0  0  0  0  0  0  0  0
    6.3636    2.3935    2.3582 C   0  0  0  0  0  0  0  0  0  0  0  0
    4.9521    2.4667    1.3769 S   0  0  0  0  0  0  0  0  0  0  0  0
    0.1796    3.9025    4.5669 H   0  0  0  0  0  0  0  0  0  0  0  0
   -0.0232    2.5094    3.4839 H   0  0  0  0  0  0  0  0  0  0  0  0
    0.2603    4.1591    2.8159 H   0  0  0  0  0  0  0  0  0  0  0  0
    4.1980    2.9067    4.8741 H   0  0  0  0  0  0  0  0  0  0  0  0
    8.9414    2.2262    5.1395 H   0  0  0  0  0  0  0  0  0  0  0  0
    9.6867    1.8940    2.8174 H   0  0  0  0  0  0  0  0  0  0  0  0
    9.2537    4.4128    1.6131 H   0  0  0  0  0  0  0  0  0  0  0  0
   11.4523    5.1989    0.9154 H   0  0  0  0  0  0  0  0  0  0  0  0
   13.1802    5.1246   -0.5027 H   0  0  0  0  0  0  0  0  0  0  0  0
   16.0029    4.1320   -2.0636 H   0  0  0  0  0  0  0  0  0  0  0  0
   17.4101    5.7094   -1.1308 H   0  0  0  0  0  0  0  0  0  0  0  0
   16.7678    7.2072   -0.4860 H   0  0  0  0  0  0  0  0  0  0  0  0
   15.0688    8.3937   -2.4939 H   0  0  0  0  0  0  0  0  0  0  0  0
   15.5104    9.6145   -4.5865 H   0  0  0  0  0  0  0  0  0  0  0  0
   17.5595    9.1466   -5.9016 H   0  0  0  0  0  0  0  0  0  0  0  0
   19.1670    7.4280   -5.1217 H   0  0  0  0  0  0  0  0  0  0  0  0
   18.7507    6.1896   -3.0348 H   0  0  0  0  0  0  0  0  0  0  0  0
   11.5686    2.1416   -2.1378 H   0  0  0  0  0  0  0  0  0  0  0  0
  1  2  1  0  0  0  0
  1 35  1  0  0  0  0
  1 36  1  0  0  0  0
  1 37  1  0  0  0  0
  2  3  1  0  0  0  0
  3  4  2  0  0  0  0
  3  5  1  0  0  0  0
  5  6  2  0  0  0  0
  5 34  1  0  0  0  0
  6  7  1  0  0  0  0
  6 38  1  0  0  0  0
  7  8  1  0  0  0  0
  7 33  2  0  0  0  0
  8  9  2  0  0  0  0
  9 10  1  0  0  0  0
  9 39  1  0  0  0  0
 10 11  2  0  0  0  0
 10 40  1  0  0  0  0
 11 12  1  0  0  0  0
 11 33  1  0  0  0  0
 12 13  1  0  0  0  0
 13 14  1  0  0  0  0
 13 31  2  0  0  0  0
 14 15  2  0  0  0  0
 14 41  1  0  0  0  0
 15 16  1  0  0  0  0
 15 42  1  0  0  0  0
 16 17  1  0  0  0  0
 16 30  2  0  0  0  0
 17 18  1  0  0  0  0
 17 43  1  0  0  0  0
 18 19  2  0  0  0  0
 18 20  1  0  0  0  0
 20 21  1  0  0  0  0
 20 44  1  0  0  0  0
 21 22  2  0  0  0  0
 21 23  1  0  0  0  0
 23 24  1  0  0  0  0
 23 45  1  0  0  0  0
 23 46  1  0  0  0  0
 24 25  1  0  0  0  0
 24 29  2  0  0  0  0
 25 26  2  0  0  0  0
 25 47  1  0  0  0  0
 26 27  1  0  0  0  0
 26 48  1  0  0  0  0
 27 28  2  0  0  0  0
 27 49  1  0  0  0  0
 28 29  1  0  0  0  0
 28 50  1  0  0  0  0
 29 51  1  0  0  0  0
 30 31  1  0  0  0  0
 30 52  1  0  0  0  0
 31 32  1  0  0  0  0
 33 34  1  0  0  0  0
M  END
$$$$
