CHEMBL2005475
 OpenBabel04072215363D

 45 48  0  0  0  0  0  0  0  0999 V2000
    0.8990   -0.2562   -0.1768 O   0  0  0  0  0  0  0  0  0  0  0  0
    2.1127   -0.1481   -0.0226 C   0  0  0  0  0  0  0  0  0  0  0  0
    2.8578    0.7844   -0.7136 N   0  0  0  0  0  0  0  0  0  0  0  0
    2.2743    1.7198   -1.6492 C   0  0  0  0  0  0  0  0  0  0  0  0
    2.3014    1.2407   -3.1119 C   0  0  0  0  0  0  0  0  0  0  0  0
    1.5189   -0.0659   -3.3287 C   0  0  0  0  0  0  0  0  0  0  0  0
    1.5658   -0.5263   -4.7839 C   0  0  0  0  0  0  0  0  0  0  0  0
    3.0050   -0.6713   -5.2657 C   0  0  0  0  0  0  0  0  0  0  0  0
    3.7754    0.6330   -5.0897 C   0  0  0  0  0  0  0  0  0  0  0  0
    3.7399    1.1174   -3.6412 C   0  0  0  0  0  0  0  0  0  0  0  0
    2.8634   -0.9939    0.8923 C   0  0  0  0  0  0  0  0  0  0  0  0
    2.3651   -2.0752    1.6275 C   0  0  0  0  0  0  0  0  0  0  0  0
    3.3824   -2.5857    2.4291 C   0  0  0  0  0  0  0  0  0  0  0  0
    3.5345   -3.6091    3.3685 C   0  0  0  0  0  0  0  0  0  0  0  0
    2.5979   -4.6407    3.8095 C   0  0  0  0  0  0  0  0  0  0  0  0
    1.6203   -5.1482    2.9424 C   0  0  0  0  0  0  0  0  0  0  0  0
    0.7724   -6.1796    3.3523 C   0  0  0  0  0  0  0  0  0  0  0  0
    0.8933   -6.7145    4.6330 C   0  0  0  0  0  0  0  0  0  0  0  0
    1.8537   -6.2133    5.5087 C   0  0  0  0  0  0  0  0  0  0  0  0
    2.7014   -5.1819    5.0992 C   0  0  0  0  0  0  0  0  0  0  0  0
    4.8017   -3.5495    3.8600 N   0  0  0  0  0  0  0  0  0  0  0  0
    5.3963   -2.5295    3.1839 N   0  0  0  0  0  0  0  0  0  0  0  0
    4.5472   -1.9474    2.3171 C   0  0  0  0  0  0  0  0  0  0  0  0
    4.5635   -0.7114    1.2202 S   0  0  0  0  0  0  0  0  0  0  0  0
    3.8617    0.7733   -0.5852 H   0  0  0  0  0  0  0  0  0  0  0  0
    2.8416    2.6529   -1.5504 H   0  0  0  0  0  0  0  0  0  0  0  0
    1.2441    1.9331   -1.3437 H   0  0  0  0  0  0  0  0  0  0  0  0
    1.8033    2.0227   -3.7023 H   0  0  0  0  0  0  0  0  0  0  0  0
    0.4743    0.0691   -3.0252 H   0  0  0  0  0  0  0  0  0  0  0  0
    1.9354   -0.8676   -2.7077 H   0  0  0  0  0  0  0  0  0  0  0  0
    1.0338    0.1936   -5.4176 H   0  0  0  0  0  0  0  0  0  0  0  0
    1.0458   -1.4859   -4.8829 H   0  0  0  0  0  0  0  0  0  0  0  0
    3.0156   -0.9710   -6.3194 H   0  0  0  0  0  0  0  0  0  0  0  0
    3.5018   -1.4697   -4.7003 H   0  0  0  0  0  0  0  0  0  0  0  0
    3.3434    1.4014   -5.7428 H   0  0  0  0  0  0  0  0  0  0  0  0
    4.8151    0.4927   -5.4049 H   0  0  0  0  0  0  0  0  0  0  0  0
    4.2420    2.0904   -3.5776 H   0  0  0  0  0  0  0  0  0  0  0  0
    4.3156    0.4210   -3.0194 H   0  0  0  0  0  0  0  0  0  0  0  0
    1.3353   -2.4066    1.5699 H   0  0  0  0  0  0  0  0  0  0  0  0
    1.5248   -4.7747    1.9269 H   0  0  0  0  0  0  0  0  0  0  0  0
    0.0302   -6.5759    2.6641 H   0  0  0  0  0  0  0  0  0  0  0  0
    0.2461   -7.5299    4.9442 H   0  0  0  0  0  0  0  0  0  0  0  0
    1.9556   -6.6324    6.5061 H   0  0  0  0  0  0  0  0  0  0  0  0
    3.4574   -4.8089    5.7877 H   0  0  0  0  0  0  0  0  0  0  0  0
    6.3624   -2.3070    3.3836 H   0  0  0  0  0  0  0  0  0  0  0  0
  1  2  2  0  0  0  0
  2  3  1  0  0  0  0
  2 11  1  0  0  0  0
  3  4  1  0  0  0  0
  3 25  1  0  0  0  0
  4  5  1  0  0  0  0
  4 26  1  0  0  0  0
  4 27  1  0  0  0  0
  5  6  1  0  0  0  0
  5 10  1  0  0  0  0
  5 28  1  0  0  0  0
  6  7  1  0  0  0  0
  6 29  1  0  0  0  0
  6 30  1  0  0  0  0
  7  8  1  0  0  0  0
  7 31  1  0  0  0  0
  7 32  1  0  0  0  0
  8  9  1  0  0  0  0
  8 33  1  0  0  0  0
  8 34  1  0  0  0  0
  9 10  1  0  0  0  0
  9 35  1  0  0  0  0
  9 36  1  0  0  0  0
 10 37  1  0  0  0  0
 10 38  1  0  0  0  0
 11 12  2  0  0  0  0
 11 24  1  0  0  0  0
 12 13  1  0  0  0  0
 12 39  1  0  0  0  0
 13 14  1  0  0  0  0
 13 23  2  0  0  0  0
 14 15  1  0  0  0  0
 14 21  2  0  0  0  0
 15 16  1  0  0  0  0
 15 20  2  0  0  0  0
 16 17  2  0  0  0  0
 16 40  1  0  0  0  0
 17 18  1  0  0  0  0
 17 41  1  0  0  0  0
 18 19  2  0  0  0  0
 18 42  1  0  0  0  0
 19 20  1  0  0  0  0
 19 43  1  0  0  0  0
 20 44  1  0  0  0  0
 21 22  1  0  0  0  0
 22 23  1  0  0  0  0
 22 45  1  0  0  0  0
 23 24  1  0  0  0  0
M  END
$$$$
