CHEMBL3915021
 OpenBabel04072215373D

 56 59  0  0  0  0  0  0  0  0999 V2000
    0.6783    3.0623    3.4870 C   0  0  0  0  0  0  0  0  0  0  0  0
    2.0778    3.3398    3.4473 O   0  0  0  0  0  0  0  0  0  0  0  0
    2.8845    2.4102    2.8371 C   0  0  0  0  0  0  0  0  0  0  0  0
    2.4426    1.1803    2.3473 C   0  0  0  0  0  0  0  0  0  0  0  0
    3.3295    0.3446    1.6779 C   0  0  0  0  0  0  0  0  0  0  0  0
    3.0191   -0.8622    1.1099 O   0  0  0  0  0  0  0  0  0  0  0  0
    1.6710   -1.3057    1.2176 C   0  0  0  0  0  0  0  0  0  0  0  0
    4.6640    0.7437    1.5082 C   0  0  0  0  0  0  0  0  0  0  0  0
    5.1529    1.9713    1.9853 C   0  0  0  0  0  0  0  0  0  0  0  0
    6.4362    2.4798    1.6409 N   0  0  0  0  0  0  0  0  0  0  0  0
    7.0025    2.0266    0.3095 C   0  0  0  0  0  0  0  0  0  0  0  0
    6.3046    2.4787   -1.0293 C   0  0  0  0  0  0  0  0  0  0  0  0
    6.2882    3.9941   -1.2597 C   0  0  0  0  0  0  0  0  0  0  0  0
    7.0979    1.8093   -2.1760 C   0  0  0  0  0  0  0  0  0  0  0  0
    4.9717    1.9882   -1.1855 O   0  0  0  0  0  0  0  0  0  0  0  0
    7.5541    2.7616    2.5279 C   0  0  0  0  0  0  0  0  0  0  0  0
    8.3492    3.8363    2.1132 C   0  0  0  0  0  0  0  0  0  0  0  0
    9.6948    3.8397    2.4291 C   0  0  0  0  0  0  0  0  0  0  0  0
   10.2494    2.9209    3.2783 C   0  0  0  0  0  0  0  0  0  0  0  0
   11.5789    2.9319    3.3066 N   0  0  0  0  0  0  0  0  0  0  0  0
   12.1684    2.2054    4.2558 C   0  0  0  0  0  0  0  0  0  0  0  0
   11.4450    1.5343    5.2268 C   0  0  0  0  0  0  0  0  0  0  0  0
   12.1884    1.2138    6.4497 C   0  0  0  0  0  0  0  0  0  0  0  0
   12.1974    1.9143    7.6862 C   0  0  0  0  0  0  0  0  0  0  0  0
   13.2224    1.5821    8.4773 N   0  0  0  0  0  0  0  0  0  0  0  0
   13.9187    0.7025    7.7385 N   0  0  0  0  0  0  0  0  0  0  0  0
   13.3859    0.5127    6.4923 C   0  0  0  0  0  0  0  0  0  0  0  0
   10.0768    1.3991    5.1141 N   0  0  0  0  0  0  0  0  0  0  0  0
    9.4330    2.0532    4.0510 C   0  0  0  0  0  0  0  0  0  0  0  0
    8.0684    1.9499    3.5792 C   0  0  0  0  0  0  0  0  0  0  0  0
    4.2411    2.7814    2.6799 C   0  0  0  0  0  0  0  0  0  0  0  0
    0.1657    3.9518    3.8668 H   0  0  0  0  0  0  0  0  0  0  0  0
    0.4649    2.2356    4.1732 H   0  0  0  0  0  0  0  0  0  0  0  0
    0.2718    2.8573    2.4897 H   0  0  0  0  0  0  0  0  0  0  0  0
    1.4103    0.8837    2.4686 H   0  0  0  0  0  0  0  0  0  0  0  0
    1.5958   -2.2769    0.7189 H   0  0  0  0  0  0  0  0  0  0  0  0
    0.9837   -0.6198    0.7128 H   0  0  0  0  0  0  0  0  0  0  0  0
    1.3898   -1.4475    2.2661 H   0  0  0  0  0  0  0  0  0  0  0  0
    5.3040    0.0759    0.9367 H   0  0  0  0  0  0  0  0  0  0  0  0
    7.1221    0.9408    0.3264 H   0  0  0  0  0  0  0  0  0  0  0  0
    8.0296    2.4046    0.2001 H   0  0  0  0  0  0  0  0  0  0  0  0
    7.2368    4.4679   -0.9959 H   0  0  0  0  0  0  0  0  0  0  0  0
    5.4772    4.4791   -0.7070 H   0  0  0  0  0  0  0  0  0  0  0  0
    6.0945    4.2200   -2.3193 H   0  0  0  0  0  0  0  0  0  0  0  0
    8.1783    1.9525   -2.0682 H   0  0  0  0  0  0  0  0  0  0  0  0
    6.8026    2.2022   -3.1562 H   0  0  0  0  0  0  0  0  0  0  0  0
    6.8925    0.7323   -2.2079 H   0  0  0  0  0  0  0  0  0  0  0  0
    4.3730    2.5744   -0.6897 H   0  0  0  0  0  0  0  0  0  0  0  0
    7.9646    4.5615    1.4018 H   0  0  0  0  0  0  0  0  0  0  0  0
   10.3470    4.5693    1.9408 H   0  0  0  0  0  0  0  0  0  0  0  0
   13.2527    2.2481    4.2666 H   0  0  0  0  0  0  0  0  0  0  0  0
   11.5347    2.7050    8.0178 H   0  0  0  0  0  0  0  0  0  0  0  0
   14.7773    0.3229    8.1217 H   0  0  0  0  0  0  0  0  0  0  0  0
   13.9267   -0.0572    5.7533 H   0  0  0  0  0  0  0  0  0  0  0  0
    7.4444    1.1679    4.0030 H   0  0  0  0  0  0  0  0  0  0  0  0
    4.5523    3.7611    3.0369 H   0  0  0  0  0  0  0  0  0  0  0  0
  1  2  1  0  0  0  0
  1 32  1  0  0  0  0
  1 33  1  0  0  0  0
  1 34  1  0  0  0  0
  2  3  1  0  0  0  0
  3  4  1  0  0  0  0
  3 31  2  0  0  0  0
  4  5  2  0  0  0  0
  4 35  1  0  0  0  0
  5  6  1  0  0  0  0
  5  8  1  0  0  0  0
  6  7  1  0  0  0  0
  7 36  1  0  0  0  0
  7 37  1  0  0  0  0
  7 38  1  0  0  0  0
  8  9  2  0  0  0  0
  8 39  1  0  0  0  0
  9 10  1  0  0  0  0
  9 31  1  0  0  0  0
 10 11  1  0  0  0  0
 10 16  1  0  0  0  0
 11 12  1  0  0  0  0
 11 40  1  0  0  0  0
 11 41  1  0  0  0  0
 12 13  1  0  0  0  0
 12 14  1  0  0  0  0
 12 15  1  0  0  0  0
 13 42  1  0  0  0  0
 13 43  1  0  0  0  0
 13 44  1  0  0  0  0
 14 45  1  0  0  0  0
 14 46  1  0  0  0  0
 14 47  1  0  0  0  0
 15 48  1  0  0  0  0
 16 17  1  0  0  0  0
 16 30  2  0  0  0  0
 17 18  2  0  0  0  0
 17 49  1  0  0  0  0
 18 19  1  0  0  0  0
 18 50  1  0  0  0  0
 19 20  1  0  0  0  0
 19 29  2  0  0  0  0
 20 21  2  0  0  0  0
 21 22  1  0  0  0  0
 21 51  1  0  0  0  0
 22 23  1  0  0  0  0
 22 28  2  0  0  0  0
 23 24  1  0  0  0  0
 23 27  2  0  0  0  0
 24 25  2  0  0  0  0
 24 52  1  0  0  0  0
 25 26  1  0  0  0  0
 26 27  1  0  0  0  0
 26 53  1  0  0  0  0
 27 54  1  0  0  0  0
 28 29  1  0  0  0  0
 29 30  1  0  0  0  0
 30 55  1  0  0  0  0
 31 56  1  0  0  0  0
M  END
$$$$
