CHEMBL3938794
 OpenBabel04072215373D

 27 29  0  0  0  0  0  0  0  0999 V2000
   -2.2695    0.6889   -2.1514 O   0  0  0  0  0  0  0  0  0  0  0  0
   -1.1500    0.3884   -1.7586 C   0  0  0  0  0  0  0  0  0  0  0  0
   -0.5440   -0.9880   -1.8764 C   0  0  0  0  0  0  0  0  0  0  0  0
    1.0306   -0.9074   -0.9787 S   0  0  0  0  0  0  0  0  0  0  0  0
    0.8799    0.7980   -0.6996 C   0  0  0  0  0  0  0  0  0  0  0  0
    1.8114    1.4935   -0.1404 N   0  0  0  0  0  0  0  0  0  0  0  0
    1.5933    2.8450   -0.1000 N   0  0  0  0  0  0  0  0  0  0  0  0
    2.7317    3.6968   -0.1248 C   0  0  0  0  0  0  0  0  0  0  0  0
    2.6246    4.8011    0.6574 N   0  0  0  0  0  0  0  0  0  0  0  0
    3.6224    5.7254    0.7088 N   0  0  0  0  0  0  0  0  0  0  0  0
    4.7304    5.5302   -0.0293 C   0  0  0  0  0  0  0  0  0  0  0  0
    4.9091    4.4354   -0.8619 C   0  0  0  0  0  0  0  0  0  0  0  0
    6.0944    4.2753   -1.6078 C   0  0  0  0  0  0  0  0  0  0  0  0
    6.2715    3.1738   -2.4408 C   0  0  0  0  0  0  0  0  0  0  0  0
    5.2607    2.2319   -2.5554 C   0  0  0  0  0  0  0  0  0  0  0  0
    4.0792    2.3901   -1.8278 C   0  0  0  0  0  0  0  0  0  0  0  0
    3.8751    3.4790   -0.9394 C   0  0  0  0  0  0  0  0  0  0  0  0
   -0.2950    1.2720   -1.1714 N   0  0  0  0  0  0  0  0  0  0  0  0
   -0.3675   -1.2185   -2.9297 H   0  0  0  0  0  0  0  0  0  0  0  0
   -1.1992   -1.7324   -1.4192 H   0  0  0  0  0  0  0  0  0  0  0  0
    1.0645    3.1812    0.7118 H   0  0  0  0  0  0  0  0  0  0  0  0
    5.4814    6.3072    0.0704 H   0  0  0  0  0  0  0  0  0  0  0  0
    6.8946    5.0105   -1.5362 H   0  0  0  0  0  0  0  0  0  0  0  0
    7.1951    3.0534   -3.0008 H   0  0  0  0  0  0  0  0  0  0  0  0
    5.3858    1.3668   -3.2017 H   0  0  0  0  0  0  0  0  0  0  0  0
    3.3152    1.6301   -1.9561 H   0  0  0  0  0  0  0  0  0  0  0  0
   -0.5367    2.2438   -1.0638 H   0  0  0  0  0  0  0  0  0  0  0  0
  1  2  2  0  0  0  0
  2  3  1  0  0  0  0
  2 18  1  0  0  0  0
  3  4  1  0  0  0  0
  3 19  1  0  0  0  0
  3 20  1  0  0  0  0
  4  5  1  0  0  0  0
  5  6  2  0  0  0  0
  5 18  1  0  0  0  0
  6  7  1  0  0  0  0
  7  8  1  0  0  0  0
  7 21  1  0  0  0  0
  8  9  1  0  0  0  0
  8 17  2  0  0  0  0
  9 10  2  0  0  0  0
 10 11  1  0  0  0  0
 11 12  2  0  0  0  0
 11 22  1  0  0  0  0
 12 13  1  0  0  0  0
 12 17  1  0  0  0  0
 13 14  2  0  0  0  0
 13 23  1  0  0  0  0
 14 15  1  0  0  0  0
 14 24  1  0  0  0  0
 15 16  2  0  0  0  0
 15 25  1  0  0  0  0
 16 17  1  0  0  0  0
 16 26  1  0  0  0  0
 18 27  1  0  0  0  0
M  END
$$$$
