CHEMBL3934111
 OpenBabel04072215373D

 49 53  0  0  0  0  0  0  0  0999 V2000
    3.1125   -1.0933   -0.4691 C   0  0  0  0  0  0  0  0  0  0  0  0
    2.3933    0.0483    0.1124 N   0  0  0  0  0  0  0  0  0  0  0  0
    1.2719   -0.2418    0.9277 C   0  0  0  0  0  0  0  0  0  0  0  0
    1.1958   -1.3855    1.7369 C   0  0  0  0  0  0  0  0  0  0  0  0
    0.0602   -1.6536    2.5062 C   0  0  0  0  0  0  0  0  0  0  0  0
   -1.0123   -0.7636    2.5044 C   0  0  0  0  0  0  0  0  0  0  0  0
   -0.9454    0.4184    1.7704 C   0  0  0  0  0  0  0  0  0  0  0  0
   -2.0672    1.2533    1.6794 N   0  0  0  0  0  0  0  0  0  0  0  0
    0.1683    0.6342    0.9474 C   0  0  0  0  0  0  0  0  0  0  0  0
    3.0652    1.3010    0.0108 C   0  0  0  0  0  0  0  0  0  0  0  0
    3.8863    1.6183   -1.0881 C   0  0  0  0  0  0  0  0  0  0  0  0
    4.6141    2.8204   -1.1716 C   0  0  0  0  0  0  0  0  0  0  0  0
    4.5157    3.7510   -0.1233 C   0  0  0  0  0  0  0  0  0  0  0  0
    5.0847    5.0201    0.1994 C   0  0  0  0  0  0  0  0  0  0  0  0
    6.0522    5.7276   -0.5930 C   0  0  0  0  0  0  0  0  0  0  0  0
    6.5775    6.9150   -0.2405 C   0  0  0  0  0  0  0  0  0  0  0  0
    7.5758    7.6993   -0.9817 C   0  0  0  0  0  0  0  0  0  0  0  0
    7.7090    7.6467   -2.3873 C   0  0  0  0  0  0  0  0  0  0  0  0
    8.6273    8.4668   -3.0570 C   0  0  0  0  0  0  0  0  0  0  0  0
    9.3908    9.3292   -2.3019 C   0  0  0  0  0  0  0  0  0  0  0  0
    9.2674    9.3900   -0.9353 C   0  0  0  0  0  0  0  0  0  0  0  0
    8.3719    8.5954   -0.2488 C   0  0  0  0  0  0  0  0  0  0  0  0
   10.1027   10.3073   -0.3776 O   0  0  0  0  0  0  0  0  0  0  0  0
   10.7857   10.7980   -1.5490 C   0  0  0  0  0  0  0  0  0  0  0  0
   10.3179   10.2019   -2.7778 O   0  0  0  0  0  0  0  0  0  0  0  0
    4.6082    5.4797    1.3680 N   0  0  0  0  0  0  0  0  0  0  0  0
    3.7709    4.5206    1.7833 N   0  0  0  0  0  0  0  0  0  0  0  0
    3.6779    3.4508    0.9406 C   0  0  0  0  0  0  0  0  0  0  0  0
    2.9471    2.2583    1.0377 C   0  0  0  0  0  0  0  0  0  0  0  0
    2.6280   -2.0587   -0.2927 H   0  0  0  0  0  0  0  0  0  0  0  0
    4.1303   -1.1565   -0.0650 H   0  0  0  0  0  0  0  0  0  0  0  0
    3.1656   -1.0053   -1.5595 H   0  0  0  0  0  0  0  0  0  0  0  0
    2.0239   -2.0853    1.7934 H   0  0  0  0  0  0  0  0  0  0  0  0
    0.0111   -2.5607    3.1024 H   0  0  0  0  0  0  0  0  0  0  0  0
   -1.8988   -1.0008    3.0860 H   0  0  0  0  0  0  0  0  0  0  0  0
   -2.6644    1.2268    2.4993 H   0  0  0  0  0  0  0  0  0  0  0  0
   -1.8462    2.2021    1.3930 H   0  0  0  0  0  0  0  0  0  0  0  0
    0.1795    1.5044    0.2938 H   0  0  0  0  0  0  0  0  0  0  0  0
    3.9759    0.9347   -1.9274 H   0  0  0  0  0  0  0  0  0  0  0  0
    5.2431    3.0128   -2.0346 H   0  0  0  0  0  0  0  0  0  0  0  0
    6.3764    5.2486   -1.5117 H   0  0  0  0  0  0  0  0  0  0  0  0
    6.2545    7.3623    0.6996 H   0  0  0  0  0  0  0  0  0  0  0  0
    7.0845    6.9818   -2.9777 H   0  0  0  0  0  0  0  0  0  0  0  0
    8.7264    8.4356   -4.1365 H   0  0  0  0  0  0  0  0  0  0  0  0
    8.2952    8.6760    0.8295 H   0  0  0  0  0  0  0  0  0  0  0  0
   11.8559   10.5847   -1.4435 H   0  0  0  0  0  0  0  0  0  0  0  0
   10.6483   11.8837   -1.6081 H   0  0  0  0  0  0  0  0  0  0  0  0
    3.2936    4.6485    2.6658 H   0  0  0  0  0  0  0  0  0  0  0  0
    2.3402    2.0647    1.9166 H   0  0  0  0  0  0  0  0  0  0  0  0
  1  2  1  0  0  0  0
  1 30  1  0  0  0  0
  1 31  1  0  0  0  0
  1 32  1  0  0  0  0
  2  3  1  0  0  0  0
  2 10  1  0  0  0  0
  3  4  1  0  0  0  0
  3  9  2  0  0  0  0
  4  5  2  0  0  0  0
  4 33  1  0  0  0  0
  5  6  1  0  0  0  0
  5 34  1  0  0  0  0
  6  7  2  0  0  0  0
  6 35  1  0  0  0  0
  7  8  1  0  0  0  0
  7  9  1  0  0  0  0
  8 36  1  0  0  0  0
  8 37  1  0  0  0  0
  9 38  1  0  0  0  0
 10 11  1  0  0  0  0
 10 29  2  0  0  0  0
 11 12  2  0  0  0  0
 11 39  1  0  0  0  0
 12 13  1  0  0  0  0
 12 40  1  0  0  0  0
 13 14  1  0  0  0  0
 13 28  2  0  0  0  0
 14 15  1  0  0  0  0
 14 26  2  0  0  0  0
 15 16  2  0  0  0  0
 15 41  1  0  0  0  0
 16 17  1  0  0  0  0
 16 42  1  0  0  0  0
 17 18  1  0  0  0  0
 17 22  2  0  0  0  0
 18 19  2  0  0  0  0
 18 43  1  0  0  0  0
 19 20  1  0  0  0  0
 19 44  1  0  0  0  0
 20 21  2  0  0  0  0
 20 25  1  0  0  0  0
 21 22  1  0  0  0  0
 21 23  1  0  0  0  0
 22 45  1  0  0  0  0
 23 24  1  0  0  0  0
 24 25  1  0  0  0  0
 24 46  1  0  0  0  0
 24 47  1  0  0  0  0
 26 27  1  0  0  0  0
 27 28  1  0  0  0  0
 27 48  1  0  0  0  0
 28 29  1  0  0  0  0
 29 49  1  0  0  0  0
M  END
$$$$
