CHEMBL211327
 OpenBabel04072215363D

 44 48  0  0  0  0  0  0  0  0999 V2000
    2.0763    1.1068    2.9942 C   0  0  0  0  0  0  0  0  0  0  0  0
    2.9618    0.1312    2.2758 C   0  0  0  0  0  0  0  0  0  0  0  0
    2.4484   -1.0757    1.7655 C   0  0  0  0  0  0  0  0  0  0  0  0
    3.2500   -2.0170    1.0856 C   0  0  0  0  0  0  0  0  0  0  0  0
    2.6901   -3.2950    0.5508 C   0  0  0  0  0  0  0  0  0  0  0  0
    4.5912   -1.6539    0.9684 C   0  0  0  0  0  0  0  0  0  0  0  0
    5.6002   -2.3568    0.3681 O   0  0  0  0  0  0  0  0  0  0  0  0
    6.7091   -1.5679    0.5472 C   0  0  0  0  0  0  0  0  0  0  0  0
    7.8492   -2.0540    0.0247 N   0  0  0  0  0  0  0  0  0  0  0  0
    9.1273   -1.4753    0.1161 C   0  0  0  0  0  0  0  0  0  0  0  0
    9.4648   -0.5016    1.0631 C   0  0  0  0  0  0  0  0  0  0  0  0
   10.7030    0.1496    1.0323 C   0  0  0  0  0  0  0  0  0  0  0  0
   11.6489   -0.1628    0.0498 C   0  0  0  0  0  0  0  0  0  0  0  0
   12.9013    0.6073   -0.0449 C   0  0  0  0  0  0  0  0  0  0  0  0
   13.4606    1.0246    1.1013 N   0  0  0  0  0  0  0  0  0  0  0  0
   14.8429    1.8621    0.7763 S   0  0  0  0  0  0  0  0  0  0  0  0
   14.7481    1.7171   -0.9111 C   0  0  0  0  0  0  0  0  0  0  0  0
   15.6763    2.2394   -1.7284 N   0  0  0  0  0  0  0  0  0  0  0  0
   15.3957    2.0069   -3.0102 C   0  0  0  0  0  0  0  0  0  0  0  0
   14.3275    1.3657   -3.5043 N   0  0  0  0  0  0  0  0  0  0  0  0
   13.4071    0.8725   -2.6516 C   0  0  0  0  0  0  0  0  0  0  0  0
   12.3202    0.2645   -3.2657 N   0  0  0  0  0  0  0  0  0  0  0  0
   13.6035    1.0136   -1.2627 C   0  0  0  0  0  0  0  0  0  0  0  0
   11.3556   -1.2051   -0.8328 C   0  0  0  0  0  0  0  0  0  0  0  0
   10.0979   -1.8210   -0.8294 C   0  0  0  0  0  0  0  0  0  0  0  0
    6.4745   -0.4398    1.1806 N   0  0  0  0  0  0  0  0  0  0  0  0
    5.1399   -0.4816    1.4569 C   0  0  0  0  0  0  0  0  0  0  0  0
    4.3237    0.4379    2.1201 C   0  0  0  0  0  0  0  0  0  0  0  0
    1.0444    0.7471    3.0506 H   0  0  0  0  0  0  0  0  0  0  0  0
    2.0720    2.0667    2.4685 H   0  0  0  0  0  0  0  0  0  0  0  0
    2.4378    1.2569    4.0165 H   0  0  0  0  0  0  0  0  0  0  0  0
    1.3887   -1.2952    1.8995 H   0  0  0  0  0  0  0  0  0  0  0  0
    1.6194   -3.3829    0.7620 H   0  0  0  0  0  0  0  0  0  0  0  0
    3.1952   -4.1507    1.0100 H   0  0  0  0  0  0  0  0  0  0  0  0
    2.8251   -3.3416   -0.5342 H   0  0  0  0  0  0  0  0  0  0  0  0
    7.7829   -2.8962   -0.5240 H   0  0  0  0  0  0  0  0  0  0  0  0
    8.7664   -0.2246    1.8511 H   0  0  0  0  0  0  0  0  0  0  0  0
   10.9080    0.9136    1.7806 H   0  0  0  0  0  0  0  0  0  0  0  0
   16.1071    2.3827   -3.7388 H   0  0  0  0  0  0  0  0  0  0  0  0
   12.3308    0.4521   -4.2630 H   0  0  0  0  0  0  0  0  0  0  0  0
   11.4288    0.4249   -2.8117 H   0  0  0  0  0  0  0  0  0  0  0  0
   12.0890   -1.5400   -1.5626 H   0  0  0  0  0  0  0  0  0  0  0  0
    9.8805   -2.5565   -1.5995 H   0  0  0  0  0  0  0  0  0  0  0  0
    4.7479    1.3611    2.4999 H   0  0  0  0  0  0  0  0  0  0  0  0
  1  2  1  0  0  0  0
  1 29  1  0  0  0  0
  1 30  1  0  0  0  0
  1 31  1  0  0  0  0
  2  3  1  0  0  0  0
  2 28  2  0  0  0  0
  3  4  2  0  0  0  0
  3 32  1  0  0  0  0
  4  5  1  0  0  0  0
  4  6  1  0  0  0  0
  5 33  1  0  0  0  0
  5 34  1  0  0  0  0
  5 35  1  0  0  0  0
  6  7  1  0  0  0  0
  6 27  2  0  0  0  0
  7  8  1  0  0  0  0
  8  9  1  0  0  0  0
  8 26  2  0  0  0  0
  9 10  1  0  0  0  0
  9 36  1  0  0  0  0
 10 11  1  0  0  0  0
 10 25  2  0  0  0  0
 11 12  2  0  0  0  0
 11 37  1  0  0  0  0
 12 13  1  0  0  0  0
 12 38  1  0  0  0  0
 13 14  1  0  0  0  0
 13 24  2  0  0  0  0
 14 15  2  0  0  0  0
 14 23  1  0  0  0  0
 15 16  1  0  0  0  0
 16 17  1  0  0  0  0
 17 18  1  0  0  0  0
 17 23  2  0  0  0  0
 18 19  2  0  0  0  0
 19 20  1  0  0  0  0
 19 39  1  0  0  0  0
 20 21  2  0  0  0  0
 21 22  1  0  0  0  0
 21 23  1  0  0  0  0
 22 40  1  0  0  0  0
 22 41  1  0  0  0  0
 24 25  1  0  0  0  0
 24 42  1  0  0  0  0
 25 43  1  0  0  0  0
 26 27  1  0  0  0  0
 27 28  1  0  0  0  0
 28 44  1  0  0  0  0
M  END
$$$$
