CHEMBL4448354
 OpenBabel04072215383D

 41 44  0  0  0  0  0  0  0  0999 V2000
    1.8755   -1.8193    3.6157 N   0  0  0  0  0  0  0  0  0  0  0  0
    1.5092   -1.9679    2.2714 C   0  0  0  0  0  0  0  0  0  0  0  0
    2.4961   -2.0204    1.2833 C   0  0  0  0  0  0  0  0  0  0  0  0
    2.1664   -2.3161   -0.0391 C   0  0  0  0  0  0  0  0  0  0  0  0
    0.8484   -2.6177   -0.3758 C   0  0  0  0  0  0  0  0  0  0  0  0
   -0.1471   -2.6382    0.6100 C   0  0  0  0  0  0  0  0  0  0  0  0
   -1.5035   -3.0441    0.2883 C   0  0  0  0  0  0  0  0  0  0  0  0
   -1.8581   -3.9593   -0.6759 C   0  0  0  0  0  0  0  0  0  0  0  0
   -3.2122   -4.0570   -0.5531 N   0  0  0  0  0  0  0  0  0  0  0  0
   -4.0997   -4.9718   -1.2484 C   0  0  0  0  0  0  0  0  0  0  0  0
   -4.6113   -4.3677   -2.5299 C   0  0  0  0  0  0  0  0  0  0  0  0
   -3.9243   -4.5428   -3.7354 C   0  0  0  0  0  0  0  0  0  0  0  0
   -4.3528   -3.8937   -4.8993 C   0  0  0  0  0  0  0  0  0  0  0  0
   -5.4856   -3.0591   -4.9018 C   0  0  0  0  0  0  0  0  0  0  0  0
   -5.9044   -2.3250   -6.1104 C   0  0  0  0  0  0  0  0  0  0  0  0
   -5.6999   -2.7849   -7.4031 C   0  0  0  0  0  0  0  0  0  0  0  0
   -6.0706   -2.1317   -8.5279 N   0  0  0  0  0  0  0  0  0  0  0  0
   -6.6818   -0.9537   -8.3399 C   0  0  0  0  0  0  0  0  0  0  0  0
   -6.9365   -0.3868   -7.1557 N   0  0  0  0  0  0  0  0  0  0  0  0
   -6.5335   -1.0881   -6.0720 C   0  0  0  0  0  0  0  0  0  0  0  0
   -6.1914   -2.9359   -3.6919 C   0  0  0  0  0  0  0  0  0  0  0  0
   -5.7586   -3.5692   -2.5230 C   0  0  0  0  0  0  0  0  0  0  0  0
   -3.6739   -3.2481    0.4198 N   0  0  0  0  0  0  0  0  0  0  0  0
   -2.6265   -2.6248    0.9488 N   0  0  0  0  0  0  0  0  0  0  0  0
    0.1958   -2.3140    1.9311 C   0  0  0  0  0  0  0  0  0  0  0  0
    2.7283   -1.2862    3.7531 H   0  0  0  0  0  0  0  0  0  0  0  0
    1.1188   -1.4972    4.2126 H   0  0  0  0  0  0  0  0  0  0  0  0
    3.5359   -1.8327    1.5381 H   0  0  0  0  0  0  0  0  0  0  0  0
    2.9405   -2.3336   -0.8021 H   0  0  0  0  0  0  0  0  0  0  0  0
    0.6123   -2.8513   -1.4106 H   0  0  0  0  0  0  0  0  0  0  0  0
   -1.2901   -4.5473   -1.3801 H   0  0  0  0  0  0  0  0  0  0  0  0
   -4.9227   -5.2324   -0.5734 H   0  0  0  0  0  0  0  0  0  0  0  0
   -3.5392   -5.8933   -1.4472 H   0  0  0  0  0  0  0  0  0  0  0  0
   -3.0340   -5.1679   -3.7811 H   0  0  0  0  0  0  0  0  0  0  0  0
   -3.7586   -4.0284   -5.8002 H   0  0  0  0  0  0  0  0  0  0  0  0
   -5.2186   -3.7401   -7.5961 H   0  0  0  0  0  0  0  0  0  0  0  0
   -6.9980   -0.4143   -9.2248 H   0  0  0  0  0  0  0  0  0  0  0  0
   -6.7359   -0.5836   -5.1302 H   0  0  0  0  0  0  0  0  0  0  0  0
   -7.0951   -2.3309   -3.6314 H   0  0  0  0  0  0  0  0  0  0  0  0
   -6.3176   -3.4141   -1.6006 H   0  0  0  0  0  0  0  0  0  0  0  0
   -0.5660   -2.3541    2.7066 H   0  0  0  0  0  0  0  0  0  0  0  0
  1  2  1  0  0  0  0
  1 26  1  0  0  0  0
  1 27  1  0  0  0  0
  2  3  1  0  0  0  0
  2 25  2  0  0  0  0
  3  4  2  0  0  0  0
  3 28  1  0  0  0  0
  4  5  1  0  0  0  0
  4 29  1  0  0  0  0
  5  6  2  0  0  0  0
  5 30  1  0  0  0  0
  6  7  1  0  0  0  0
  6 25  1  0  0  0  0
  7  8  2  0  0  0  0
  7 24  1  0  0  0  0
  8  9  1  0  0  0  0
  8 31  1  0  0  0  0
  9 10  1  0  0  0  0
  9 23  1  0  0  0  0
 10 11  1  0  0  0  0
 10 32  1  0  0  0  0
 10 33  1  0  0  0  0
 11 12  1  0  0  0  0
 11 22  2  0  0  0  0
 12 13  2  0  0  0  0
 12 34  1  0  0  0  0
 13 14  1  0  0  0  0
 13 35  1  0  0  0  0
 14 15  1  0  0  0  0
 14 21  2  0  0  0  0
 15 16  1  0  0  0  0
 15 20  2  0  0  0  0
 16 17  2  0  0  0  0
 16 36  1  0  0  0  0
 17 18  1  0  0  0  0
 18 19  2  0  0  0  0
 18 37  1  0  0  0  0
 19 20  1  0  0  0  0
 20 38  1  0  0  0  0
 21 22  1  0  0  0  0
 21 39  1  0  0  0  0
 22 40  1  0  0  0  0
 23 24  2  0  0  0  0
 25 41  1  0  0  0  0
M  END
$$$$
