CHEMBL3918495
 OpenBabel04072215373D

 61 65  0  0  0  0  0  0  0  0999 V2000
    0.5123   -3.9122   -0.3747 C   0  0  0  0  0  0  0  0  0  0  0  0
    1.8314   -4.2419    0.0677 O   0  0  0  0  0  0  0  0  0  0  0  0
    2.8077   -3.2904   -0.1053 C   0  0  0  0  0  0  0  0  0  0  0  0
    2.6028   -2.0619   -0.7319 C   0  0  0  0  0  0  0  0  0  0  0  0
    3.6434   -1.1398   -0.8122 C   0  0  0  0  0  0  0  0  0  0  0  0
    3.5541    0.1080   -1.3731 O   0  0  0  0  0  0  0  0  0  0  0  0
    2.3300    0.4360   -2.0233 C   0  0  0  0  0  0  0  0  0  0  0  0
    4.8955   -1.4504   -0.2574 C   0  0  0  0  0  0  0  0  0  0  0  0
    5.1487   -2.6716    0.3889 C   0  0  0  0  0  0  0  0  0  0  0  0
    6.3396   -2.9291    1.1314 N   0  0  0  0  0  0  0  0  0  0  0  0
    6.9206   -1.7350    1.8713 C   0  0  0  0  0  0  0  0  0  0  0  0
    6.0214   -0.8058    2.7446 C   0  0  0  0  0  0  0  0  0  0  0  0
    5.5726   -1.2176    4.0994 N   0  0  0  0  0  0  0  0  0  0  0  0
    5.0336   -0.0399    4.8342 C   0  0  0  0  0  0  0  0  0  0  0  0
    4.3616   -0.1819    6.1715 C   0  0  0  0  0  0  0  0  0  0  0  0
    3.5464    0.1240    4.9626 C   0  0  0  0  0  0  0  0  0  0  0  0
    7.4345   -3.8179    0.8085 C   0  0  0  0  0  0  0  0  0  0  0  0
    8.0771   -4.3425    1.9284 C   0  0  0  0  0  0  0  0  0  0  0  0
    9.3867   -4.7625    1.8545 C   0  0  0  0  0  0  0  0  0  0  0  0
   10.0548   -4.8195    0.6627 C   0  0  0  0  0  0  0  0  0  0  0  0
   11.3599   -5.0803    0.8247 N   0  0  0  0  0  0  0  0  0  0  0  0
   12.0606   -5.3119   -0.2914 C   0  0  0  0  0  0  0  0  0  0  0  0
   11.4650   -5.3881   -1.5421 C   0  0  0  0  0  0  0  0  0  0  0  0
   12.2856   -6.0138   -2.5695 C   0  0  0  0  0  0  0  0  0  0  0  0
   12.3479   -7.3794   -2.9624 C   0  0  0  0  0  0  0  0  0  0  0  0
   13.4149   -7.6603   -3.7231 N   0  0  0  0  0  0  0  0  0  0  0  0
   14.0539   -6.4823   -3.8098 N   0  0  0  0  0  0  0  0  0  0  0  0
   15.1289   -6.2963   -4.7574 C   0  0  0  0  0  0  0  0  0  0  0  0
   13.5089   -5.5215   -3.0002 C   0  0  0  0  0  0  0  0  0  0  0  0
   10.1454   -5.0101   -1.7155 N   0  0  0  0  0  0  0  0  0  0  0  0
    9.4020   -4.6453   -0.5757 C   0  0  0  0  0  0  0  0  0  0  0  0
    8.0547   -4.0720   -0.4547 C   0  0  0  0  0  0  0  0  0  0  0  0
    4.0796   -3.5958    0.4308 C   0  0  0  0  0  0  0  0  0  0  0  0
   -0.1608   -4.7292   -0.0954 H   0  0  0  0  0  0  0  0  0  0  0  0
    0.4774   -3.8146   -1.4658 H   0  0  0  0  0  0  0  0  0  0  0  0
    0.1358   -3.0031    0.1097 H   0  0  0  0  0  0  0  0  0  0  0  0
    1.6321   -1.8164   -1.1428 H   0  0  0  0  0  0  0  0  0  0  0  0
    2.4441    1.4250   -2.4768 H   0  0  0  0  0  0  0  0  0  0  0  0
    1.5035    0.4928   -1.3062 H   0  0  0  0  0  0  0  0  0  0  0  0
    2.1056   -0.2732   -2.8274 H   0  0  0  0  0  0  0  0  0  0  0  0
    5.6686   -0.6908   -0.3091 H   0  0  0  0  0  0  0  0  0  0  0  0
    7.4170   -1.1016    1.1227 H   0  0  0  0  0  0  0  0  0  0  0  0
    7.7239   -2.0510    2.5445 H   0  0  0  0  0  0  0  0  0  0  0  0
    5.1568   -0.4427    2.1881 H   0  0  0  0  0  0  0  0  0  0  0  0
    6.6687    0.0671    2.9150 H   0  0  0  0  0  0  0  0  0  0  0  0
    6.3553   -1.6125    4.6202 H   0  0  0  0  0  0  0  0  0  0  0  0
    5.6175    0.8742    4.7296 H   0  0  0  0  0  0  0  0  0  0  0  0
    4.4848    0.6222    6.8962 H   0  0  0  0  0  0  0  0  0  0  0  0
    4.2531   -1.1595    6.6235 H   0  0  0  0  0  0  0  0  0  0  0  0
    3.1320    1.1171    4.8535 H   0  0  0  0  0  0  0  0  0  0  0  0
    2.8972   -0.6637    4.5825 H   0  0  0  0  0  0  0  0  0  0  0  0
    7.6018   -4.2969    2.8973 H   0  0  0  0  0  0  0  0  0  0  0  0
    9.9199   -5.0037    2.7699 H   0  0  0  0  0  0  0  0  0  0  0  0
   13.1218   -5.5060   -0.1436 H   0  0  0  0  0  0  0  0  0  0  0  0
   11.6908   -8.1952   -2.6868 H   0  0  0  0  0  0  0  0  0  0  0  0
   15.2913   -7.2165   -5.3258 H   0  0  0  0  0  0  0  0  0  0  0  0
   16.0411   -6.0128   -4.2269 H   0  0  0  0  0  0  0  0  0  0  0  0
   14.8219   -5.4979   -5.4387 H   0  0  0  0  0  0  0  0  0  0  0  0
   14.0275   -4.5900   -2.8198 H   0  0  0  0  0  0  0  0  0  0  0  0
    7.5453   -3.7814   -1.3730 H   0  0  0  0  0  0  0  0  0  0  0  0
    4.2066   -4.5370    0.9576 H   0  0  0  0  0  0  0  0  0  0  0  0
  1  2  1  0  0  0  0
  1 34  1  0  0  0  0
  1 35  1  0  0  0  0
  1 36  1  0  0  0  0
  2  3  1  0  0  0  0
  3  4  1  0  0  0  0
  3 33  2  0  0  0  0
  4  5  2  0  0  0  0
  4 37  1  0  0  0  0
  5  6  1  0  0  0  0
  5  8  1  0  0  0  0
  6  7  1  0  0  0  0
  7 38  1  0  0  0  0
  7 39  1  0  0  0  0
  7 40  1  0  0  0  0
  8  9  2  0  0  0  0
  8 41  1  0  0  0  0
  9 10  1  0  0  0  0
  9 33  1  0  0  0  0
 10 11  1  0  0  0  0
 10 17  1  0  0  0  0
 11 12  1  0  0  0  0
 11 42  1  0  0  0  0
 11 43  1  0  0  0  0
 12 13  1  0  0  0  0
 12 44  1  0  0  0  0
 12 45  1  0  0  0  0
 13 14  1  0  0  0  0
 13 46  1  0  0  0  0
 14 15  1  0  0  0  0
 14 16  1  0  0  0  0
 14 47  1  0  0  0  0
 15 16  1  0  0  0  0
 15 48  1  0  0  0  0
 15 49  1  0  0  0  0
 16 50  1  0  0  0  0
 16 51  1  0  0  0  0
 17 18  1  0  0  0  0
 17 32  2  0  0  0  0
 18 19  2  0  0  0  0
 18 52  1  0  0  0  0
 19 20  1  0  0  0  0
 19 53  1  0  0  0  0
 20 21  1  0  0  0  0
 20 31  2  0  0  0  0
 21 22  2  0  0  0  0
 22 23  1  0  0  0  0
 22 54  1  0  0  0  0
 23 24  1  0  0  0  0
 23 30  2  0  0  0  0
 24 25  1  0  0  0  0
 24 29  2  0  0  0  0
 25 26  2  0  0  0  0
 25 55  1  0  0  0  0
 26 27  1  0  0  0  0
 27 28  1  0  0  0  0
 27 29  1  0  0  0  0
 28 56  1  0  0  0  0
 28 57  1  0  0  0  0
 28 58  1  0  0  0  0
 29 59  1  0  0  0  0
 30 31  1  0  0  0  0
 31 32  1  0  0  0  0
 32 60  1  0  0  0  0
 33 61  1  0  0  0  0
M  END
$$$$
