CHEMBL1083644
 OpenBabel04072215363D

 67 71  0  0  0  0  0  0  0  0999 V2000
    5.2319    1.1838   -3.1211 C   0  0  0  0  0  0  0  0  0  0  0  0
    6.4303    1.3689   -2.1916 C   0  0  0  0  0  0  0  0  0  0  0  0
    6.5865    2.8477   -1.8252 C   0  0  0  0  0  0  0  0  0  0  0  0
    6.2863    0.5585   -0.9009 C   0  0  0  0  0  0  0  0  0  0  0  0
    6.1184   -0.8482   -1.1108 O   0  0  0  0  0  0  0  0  0  0  0  0
    7.1992   -1.5836   -0.7371 C   0  0  0  0  0  0  0  0  0  0  0  0
    8.3531   -1.2092   -0.8716 O   0  0  0  0  0  0  0  0  0  0  0  0
    6.7464   -2.7278   -0.1412 N   0  0  0  0  0  0  0  0  0  0  0  0
    7.4987   -3.6864    0.5560 C   0  0  0  0  0  0  0  0  0  0  0  0
    8.8470   -3.5184    0.8789 C   0  0  0  0  0  0  0  0  0  0  0  0
    9.5619   -4.5456    1.5013 C   0  0  0  0  0  0  0  0  0  0  0  0
    8.9353   -5.7565    1.8037 C   0  0  0  0  0  0  0  0  0  0  0  0
    9.7128   -6.8761    2.3419 C   0  0  0  0  0  0  0  0  0  0  0  0
   10.3161   -7.8812    1.4024 C   0  0  0  0  0  0  0  0  0  0  0  0
   11.0177   -8.9207    1.7271 N   0  0  0  0  0  0  0  0  0  0  0  0
   11.2303   -9.1148    3.0628 C   0  0  0  0  0  0  0  0  0  0  0  0
   11.9014  -10.0958    3.7822 C   0  0  0  0  0  0  0  0  0  0  0  0
   12.5962  -11.2546    3.2402 C   0  0  0  0  0  0  0  0  0  0  0  0
   13.7035  -11.7795    3.9149 C   0  0  0  0  0  0  0  0  0  0  0  0
   14.3226  -12.9366    3.4505 C   0  0  0  0  0  0  0  0  0  0  0  0
   13.8338  -13.5796    2.3113 C   0  0  0  0  0  0  0  0  0  0  0  0
   12.7301  -13.0877    1.5974 C   0  0  0  0  0  0  0  0  0  0  0  0
   12.2501  -13.7433    0.4805 N   0  0  0  0  0  0  0  0  0  0  0  0
   11.5768  -13.0457   -0.6246 C   0  0  0  0  0  0  0  0  0  0  0  0
   10.1667  -13.6278   -0.8649 C   0  0  0  0  0  0  0  0  0  0  0  0
   10.1626  -15.0950   -1.0623 N   0  0  0  0  0  0  0  0  0  0  0  0
   10.8005  -15.7236    0.1148 C   0  0  0  0  0  0  0  0  0  0  0  0
   12.2329  -15.2117    0.4046 C   0  0  0  0  0  0  0  0  0  0  0  0
   12.1368  -11.9099    2.0852 C   0  0  0  0  0  0  0  0  0  0  0  0
   11.7255   -9.7266    5.1340 C   0  0  0  0  0  0  0  0  0  0  0  0
   11.0148   -8.6140    5.2950 N   0  0  0  0  0  0  0  0  0  0  0  0
   10.7228   -8.2196    4.0207 N   0  0  0  0  0  0  0  0  0  0  0  0
    9.9622   -7.0747    3.6518 C   0  0  0  0  0  0  0  0  0  0  0  0
    9.5123   -6.2575    4.6899 N   0  0  0  0  0  0  0  0  0  0  0  0
    7.5682   -5.9023    1.5478 C   0  0  0  0  0  0  0  0  0  0  0  0
    6.8520   -4.8664    0.9394 C   0  0  0  0  0  0  0  0  0  0  0  0
    5.3408    1.8013   -4.0196 H   0  0  0  0  0  0  0  0  0  0  0  0
    4.2985    1.4738   -2.6267 H   0  0  0  0  0  0  0  0  0  0  0  0
    5.1386    0.1420   -3.4430 H   0  0  0  0  0  0  0  0  0  0  0  0
    7.3269    1.0374   -2.7298 H   0  0  0  0  0  0  0  0  0  0  0  0
    5.7123    3.2091   -1.2707 H   0  0  0  0  0  0  0  0  0  0  0  0
    6.7005    3.4697   -2.7181 H   0  0  0  0  0  0  0  0  0  0  0  0
    7.4680    3.0006   -1.1928 H   0  0  0  0  0  0  0  0  0  0  0  0
    5.3908    0.8823   -0.3593 H   0  0  0  0  0  0  0  0  0  0  0  0
    7.1333    0.7584   -0.2317 H   0  0  0  0  0  0  0  0  0  0  0  0
    5.7475   -2.8573   -0.2141 H   0  0  0  0  0  0  0  0  0  0  0  0
    9.3750   -2.5942    0.6595 H   0  0  0  0  0  0  0  0  0  0  0  0
   10.6160   -4.3939    1.7269 H   0  0  0  0  0  0  0  0  0  0  0  0
   10.1283   -7.6903    0.3359 H   0  0  0  0  0  0  0  0  0  0  0  0
   14.1001  -11.2962    4.8036 H   0  0  0  0  0  0  0  0  0  0  0  0
   15.1839  -13.3418    3.9737 H   0  0  0  0  0  0  0  0  0  0  0  0
   14.3538  -14.4698    1.9673 H   0  0  0  0  0  0  0  0  0  0  0  0
   12.1806  -13.1869   -1.5304 H   0  0  0  0  0  0  0  0  0  0  0  0
   11.5075  -11.9629   -0.4800 H   0  0  0  0  0  0  0  0  0  0  0  0
    9.7321  -13.1593   -1.7547 H   0  0  0  0  0  0  0  0  0  0  0  0
    9.5101  -13.3773   -0.0225 H   0  0  0  0  0  0  0  0  0  0  0  0
   10.7427  -15.3003   -1.8761 H   0  0  0  0  0  0  0  0  0  0  0  0
   10.8334  -16.8071   -0.0442 H   0  0  0  0  0  0  0  0  0  0  0  0
   10.1654  -15.5549    0.9937 H   0  0  0  0  0  0  0  0  0  0  0  0
   12.9100  -15.5314   -0.3967 H   0  0  0  0  0  0  0  0  0  0  0  0
   12.5725  -15.6877    1.3311 H   0  0  0  0  0  0  0  0  0  0  0  0
   11.2561  -11.5146    1.5877 H   0  0  0  0  0  0  0  0  0  0  0  0
   12.0785  -10.2454    6.0168 H   0  0  0  0  0  0  0  0  0  0  0  0
    9.5281   -6.7534    5.5858 H   0  0  0  0  0  0  0  0  0  0  0  0
    8.6391   -5.7782    4.4982 H   0  0  0  0  0  0  0  0  0  0  0  0
    7.0551   -6.8292    1.7950 H   0  0  0  0  0  0  0  0  0  0  0  0
    5.7935   -5.0118    0.7358 H   0  0  0  0  0  0  0  0  0  0  0  0
  1  2  1  0  0  0  0
  1 37  1  0  0  0  0
  1 38  1  0  0  0  0
  1 39  1  0  0  0  0
  2  3  1  0  0  0  0
  2  4  1  0  0  0  0
  2 40  1  0  0  0  0
  3 41  1  0  0  0  0
  3 42  1  0  0  0  0
  3 43  1  0  0  0  0
  4  5  1  0  0  0  0
  4 44  1  0  0  0  0
  4 45  1  0  0  0  0
  5  6  1  0  0  0  0
  6  7  2  0  0  0  0
  6  8  1  0  0  0  0
  8  9  1  0  0  0  0
  8 46  1  0  0  0  0
  9 10  1  0  0  0  0
  9 36  2  0  0  0  0
 10 11  2  0  0  0  0
 10 47  1  0  0  0  0
 11 12  1  0  0  0  0
 11 48  1  0  0  0  0
 12 13  1  0  0  0  0
 12 35  2  0  0  0  0
 13 14  1  0  0  0  0
 13 33  2  0  0  0  0
 14 15  2  0  0  0  0
 14 49  1  0  0  0  0
 15 16  1  0  0  0  0
 16 17  2  0  0  0  0
 16 32  1  0  0  0  0
 17 18  1  0  0  0  0
 17 30  1  0  0  0  0
 18 19  1  0  0  0  0
 18 29  2  0  0  0  0
 19 20  2  0  0  0  0
 19 50  1  0  0  0  0
 20 21  1  0  0  0  0
 20 51  1  0  0  0  0
 21 22  2  0  0  0  0
 21 52  1  0  0  0  0
 22 23  1  0  0  0  0
 22 29  1  0  0  0  0
 23 24  1  0  0  0  0
 23 28  1  0  0  0  0
 24 25  1  0  0  0  0
 24 53  1  0  0  0  0
 24 54  1  0  0  0  0
 25 26  1  0  0  0  0
 25 55  1  0  0  0  0
 25 56  1  0  0  0  0
 26 27  1  0  0  0  0
 26 57  1  0  0  0  0
 27 28  1  0  0  0  0
 27 58  1  0  0  0  0
 27 59  1  0  0  0  0
 28 60  1  0  0  0  0
 28 61  1  0  0  0  0
 29 62  1  0  0  0  0
 30 31  2  0  0  0  0
 30 63  1  0  0  0  0
 31 32  1  0  0  0  0
 32 33  1  0  0  0  0
 33 34  1  0  0  0  0
 34 64  1  0  0  0  0
 34 65  1  0  0  0  0
 35 36  1  0  0  0  0
 35 66  1  0  0  0  0
 36 67  1  0  0  0  0
M  END
$$$$
