CHEMBL3900967
 OpenBabel04072215373D

 51 54  0  0  1  0  0  0  0  0999 V2000
    1.3569    3.0356   -0.5587 C   0  0  0  0  0  0  0  0  0  0  0  0
    1.9017    1.6725   -0.1127 C   0  0  1  0  0  0  0  0  0  0  0  0
    3.0228    1.2407   -0.9610 N   0  0  0  0  0  0  0  0  0  0  0  0
    2.7249    1.0099   -2.3073 C   0  0  0  0  0  0  0  0  0  0  0  0
    1.4741    0.6696   -2.6989 N   0  0  0  0  0  0  0  0  0  0  0  0
    1.2267    0.5194   -4.0171 C   0  0  0  0  0  0  0  0  0  0  0  0
    2.0814    0.6520   -5.0456 N   0  0  0  0  0  0  0  0  0  0  0  0
    3.3082    0.9709   -4.6131 C   0  0  0  0  0  0  0  0  0  0  0  0
    4.3859    1.1924   -5.4231 N   0  0  0  0  0  0  0  0  0  0  0  0
    5.4894    1.5513   -4.6784 C   0  0  0  0  0  0  0  0  0  0  0  0
    6.7788    1.9201   -5.2650 C   0  0  0  0  0  0  0  0  0  0  0  0
    6.8602    2.5268   -6.5263 C   0  0  0  0  0  0  0  0  0  0  0  0
    8.0925    2.9417   -7.0486 C   0  0  0  0  0  0  0  0  0  0  0  0
    9.2602    2.7493   -6.3140 C   0  0  0  0  0  0  0  0  0  0  0  0
   10.5179    3.0866   -6.7261 O   0  0  0  0  0  0  0  0  0  0  0  0
   10.6155    4.2400   -7.5603 C   0  0  0  0  0  0  0  0  0  0  0  0
   12.0760    4.5427   -7.8772 C   0  0  0  0  0  0  0  0  0  0  0  0
   12.4242    5.4798   -8.5906 O   0  0  0  0  0  0  0  0  0  0  0  0
   12.9833    3.6867   -7.3039 N   0  0  0  0  0  0  0  0  0  0  0  0
   14.3437    3.8792   -7.6211 O   0  0  0  0  0  0  0  0  0  0  0  0
    9.1938    2.1162   -5.0743 C   0  0  0  0  0  0  0  0  0  0  0  0
    7.9637    1.7106   -4.5503 C   0  0  0  0  0  0  0  0  0  0  0  0
    5.0856    1.5085   -3.3492 C   0  0  0  0  0  0  0  0  0  0  0  0
    3.7079    1.1550   -3.3019 C   0  0  0  0  0  0  0  0  0  0  0  0
    2.4220    1.7728    1.3185 C   0  0  0  0  0  0  0  0  0  0  0  0
    1.8246    1.0378    2.3531 C   0  0  0  0  0  0  0  0  0  0  0  0
    2.3444    1.0870    3.6497 C   0  0  0  0  0  0  0  0  0  0  0  0
    3.4625    1.8721    3.9283 C   0  0  0  0  0  0  0  0  0  0  0  0
    4.0475    2.6312    2.9187 C   0  0  0  0  0  0  0  0  0  0  0  0
    3.5270    2.5874    1.6256 C   0  0  0  0  0  0  0  0  0  0  0  0
    0.8724    2.9753   -1.5386 H   0  0  0  0  0  0  0  0  0  0  0  0
    2.1543    3.7830   -0.6423 H   0  0  0  0  0  0  0  0  0  0  0  0
    0.6134    3.4124    0.1509 H   0  0  0  0  0  0  0  0  0  0  0  0
    1.0954    0.9275   -0.1420 H   0  0  0  0  0  0  0  0  0  0  0  0
    3.4144    0.3759   -0.5916 H   0  0  0  0  0  0  0  0  0  0  0  0
    0.2044    0.2672   -4.2808 H   0  0  0  0  0  0  0  0  0  0  0  0
    4.3464    1.1183   -6.4287 H   0  0  0  0  0  0  0  0  0  0  0  0
    5.9647    2.7115   -7.1144 H   0  0  0  0  0  0  0  0  0  0  0  0
    8.1008    3.3999   -8.0320 H   0  0  0  0  0  0  0  0  0  0  0  0
   10.2000    5.1149   -7.0466 H   0  0  0  0  0  0  0  0  0  0  0  0
   10.1143    4.0719   -8.5194 H   0  0  0  0  0  0  0  0  0  0  0  0
   12.7144    2.8336   -6.8191 H   0  0  0  0  0  0  0  0  0  0  0  0
   14.3162    4.6769   -8.1918 H   0  0  0  0  0  0  0  0  0  0  0  0
   10.1006    1.9516   -4.4980 H   0  0  0  0  0  0  0  0  0  0  0  0
    7.9448    1.2291   -3.5753 H   0  0  0  0  0  0  0  0  0  0  0  0
    5.7008    1.7551   -2.4932 H   0  0  0  0  0  0  0  0  0  0  0  0
    0.9556    0.4131    2.1577 H   0  0  0  0  0  0  0  0  0  0  0  0
    1.8841    0.5030    4.4427 H   0  0  0  0  0  0  0  0  0  0  0  0
    3.8808    1.8898    4.9311 H   0  0  0  0  0  0  0  0  0  0  0  0
    4.9167    3.2478    3.1310 H   0  0  0  0  0  0  0  0  0  0  0  0
    3.9989    3.1785    0.8429 H   0  0  0  0  0  0  0  0  0  0  0  0
  1  2  1  0  0  0  0
  1 31  1  0  0  0  0
  1 32  1  0  0  0  0
  1 33  1  0  0  0  0
  2  3  1  0  0  0  0
  2 25  1  0  0  0  0
  2 34  1  6  0  0  0
  3  4  1  0  0  0  0
  3 35  1  0  0  0  0
  4  5  1  0  0  0  0
  4 24  2  0  0  0  0
  5  6  2  0  0  0  0
  6  7  1  0  0  0  0
  6 36  1  0  0  0  0
  7  8  2  0  0  0  0
  8  9  1  0  0  0  0
  8 24  1  0  0  0  0
  9 10  1  0  0  0  0
  9 37  1  0  0  0  0
 10 11  1  0  0  0  0
 10 23  2  0  0  0  0
 11 12  1  0  0  0  0
 11 22  2  0  0  0  0
 12 13  2  0  0  0  0
 12 38  1  0  0  0  0
 13 14  1  0  0  0  0
 13 39  1  0  0  0  0
 14 15  1  0  0  0  0
 14 21  2  0  0  0  0
 15 16  1  0  0  0  0
 16 17  1  0  0  0  0
 16 40  1  0  0  0  0
 16 41  1  0  0  0  0
 17 18  2  0  0  0  0
 17 19  1  0  0  0  0
 19 20  1  0  0  0  0
 19 42  1  0  0  0  0
 20 43  1  0  0  0  0
 21 22  1  0  0  0  0
 21 44  1  0  0  0  0
 22 45  1  0  0  0  0
 23 24  1  0  0  0  0
 23 46  1  0  0  0  0
 25 26  1  0  0  0  0
 25 30  2  0  0  0  0
 26 27  2  0  0  0  0
 26 47  1  0  0  0  0
 27 28  1  0  0  0  0
 27 48  1  0  0  0  0
 28 29  2  0  0  0  0
 28 49  1  0  0  0  0
 29 30  1  0  0  0  0
 29 50  1  0  0  0  0
 30 51  1  0  0  0  0
M  END
$$$$
