CHEMBL1681949
 OpenBabel04072215363D

 50 52  0  0  0  0  0  0  0  0999 V2000
    9.1577   -7.4789   -2.8619 C   0  0  0  0  0  0  0  0  0  0  0  0
    8.5825   -6.7025   -1.8114 O   0  0  0  0  0  0  0  0  0  0  0  0
    7.5485   -5.9386   -2.3615 N   0  0  0  0  0  0  0  0  0  0  0  0
    6.9657   -5.2277   -1.4453 C   0  0  0  0  0  0  0  0  0  0  0  0
    5.8330   -4.3566   -1.7981 C   0  0  0  0  0  0  0  0  0  0  0  0
    5.0176   -4.6463   -2.8916 C   0  0  0  0  0  0  0  0  0  0  0  0
    5.1333   -5.8237   -3.6303 N   0  0  0  0  0  0  0  0  0  0  0  0
    3.9766   -3.8783   -3.2515 N   0  0  0  0  0  0  0  0  0  0  0  0
    3.7714   -2.7774   -2.5270 C   0  0  0  0  0  0  0  0  0  0  0  0
    4.5141   -2.3799   -1.4925 N   0  0  0  0  0  0  0  0  0  0  0  0
    5.5191   -3.2016   -1.1063 C   0  0  0  0  0  0  0  0  0  0  0  0
    6.2535   -2.8274    0.0287 O   0  0  0  0  0  0  0  0  0  0  0  0
    5.6162   -1.9553    0.9004 C   0  0  0  0  0  0  0  0  0  0  0  0
    4.3033   -2.1827    1.3054 C   0  0  0  0  0  0  0  0  0  0  0  0
    3.6076   -1.2217    2.0352 C   0  0  0  0  0  0  0  0  0  0  0  0
    4.2083   -0.0232    2.4164 C   0  0  0  0  0  0  0  0  0  0  0  0
    3.4478    1.0080    3.0458 N   0  0  0  0  0  0  0  0  0  0  0  0
    2.0595    1.1072    2.9732 C   0  0  0  0  0  0  0  0  0  0  0  0
    1.3271    0.3373    2.3636 O   0  0  0  0  0  0  0  0  0  0  0  0
    1.5703    2.2375    3.6344 N   0  0  0  0  0  0  0  0  0  0  0  0
    0.1737    2.4950    3.4853 C   0  0  0  0  0  0  0  0  0  0  0  0
   -0.2114    3.3444    2.4397 C   0  0  0  0  0  0  0  0  0  0  0  0
   -1.5612    3.5433    2.1376 C   0  0  0  0  0  0  0  0  0  0  0  0
   -2.5427    2.9135    2.8953 C   0  0  0  0  0  0  0  0  0  0  0  0
   -2.1695    2.0885    3.9497 C   0  0  0  0  0  0  0  0  0  0  0  0
   -0.8213    1.8698    4.2650 C   0  0  0  0  0  0  0  0  0  0  0  0
   -0.6440    1.0299    5.3335 O   0  0  0  0  0  0  0  0  0  0  0  0
    0.5039    1.2488    6.1353 C   0  0  0  0  0  0  0  0  0  0  0  0
    5.5824    0.1343    2.1366 C   0  0  0  0  0  0  0  0  0  0  0  0
    6.4304    1.5531    2.6530 Cl  0  0  0  0  0  0  0  0  0  0  0  0
    6.2860   -0.8262    1.3781 C   0  0  0  0  0  0  0  0  0  0  0  0
   10.1113   -7.8846   -2.5157 H   0  0  0  0  0  0  0  0  0  0  0  0
    9.3424   -6.8589   -3.7463 H   0  0  0  0  0  0  0  0  0  0  0  0
    8.4926   -8.3077   -3.1257 H   0  0  0  0  0  0  0  0  0  0  0  0
    7.3026   -5.2500   -0.3943 H   0  0  0  0  0  0  0  0  0  0  0  0
    6.1104   -6.0531   -3.8166 H   0  0  0  0  0  0  0  0  0  0  0  0
    4.5469   -5.7695   -4.4558 H   0  0  0  0  0  0  0  0  0  0  0  0
    2.9175   -2.1624   -2.7882 H   0  0  0  0  0  0  0  0  0  0  0  0
    3.7665   -3.0744    0.9933 H   0  0  0  0  0  0  0  0  0  0  0  0
    2.5711   -1.4439    2.2685 H   0  0  0  0  0  0  0  0  0  0  0  0
    3.9705    1.7937    3.4094 H   0  0  0  0  0  0  0  0  0  0  0  0
    2.1435    3.0356    3.4030 H   0  0  0  0  0  0  0  0  0  0  0  0
    0.5376    3.7951    1.7936 H   0  0  0  0  0  0  0  0  0  0  0  0
   -1.8419    4.1635    1.2882 H   0  0  0  0  0  0  0  0  0  0  0  0
   -3.5993    3.0618    2.6570 H   0  0  0  0  0  0  0  0  0  0  0  0
   -2.9440    1.5963    4.5426 H   0  0  0  0  0  0  0  0  0  0  0  0
    0.2563    0.9516    7.1606 H   0  0  0  0  0  0  0  0  0  0  0  0
    0.8092    2.3013    6.1747 H   0  0  0  0  0  0  0  0  0  0  0  0
    1.3223    0.6086    5.7952 H   0  0  0  0  0  0  0  0  0  0  0  0
    7.3329   -0.6698    1.1277 H   0  0  0  0  0  0  0  0  0  0  0  0
  1  2  1  0  0  0  0
  1 32  1  0  0  0  0
  1 33  1  0  0  0  0
  1 34  1  0  0  0  0
  2  3  1  0  0  0  0
  3  4  2  0  0  0  0
  4  5  1  0  0  0  0
  4 35  1  0  0  0  0
  5  6  1  0  0  0  0
  5 11  2  0  0  0  0
  6  7  1  0  0  0  0
  6  8  2  0  0  0  0
  7 36  1  0  0  0  0
  7 37  1  0  0  0  0
  8  9  1  0  0  0  0
  9 10  2  0  0  0  0
  9 38  1  0  0  0  0
 10 11  1  0  0  0  0
 11 12  1  0  0  0  0
 12 13  1  0  0  0  0
 13 14  1  0  0  0  0
 13 31  2  0  0  0  0
 14 15  2  0  0  0  0
 14 39  1  0  0  0  0
 15 16  1  0  0  0  0
 15 40  1  0  0  0  0
 16 17  1  0  0  0  0
 16 29  2  0  0  0  0
 17 18  1  0  0  0  0
 17 41  1  0  0  0  0
 18 19  2  0  0  0  0
 18 20  1  0  0  0  0
 20 21  1  0  0  0  0
 20 42  1  0  0  0  0
 21 22  1  0  0  0  0
 21 26  2  0  0  0  0
 22 23  2  0  0  0  0
 22 43  1  0  0  0  0
 23 24  1  0  0  0  0
 23 44  1  0  0  0  0
 24 25  2  0  0  0  0
 24 45  1  0  0  0  0
 25 26  1  0  0  0  0
 25 46  1  0  0  0  0
 26 27  1  0  0  0  0
 27 28  1  0  0  0  0
 28 47  1  0  0  0  0
 28 48  1  0  0  0  0
 28 49  1  0  0  0  0
 29 30  1  0  0  0  0
 29 31  1  0  0  0  0
 31 50  1  0  0  0  0
M  END
$$$$
