CHEMBL406804
 OpenBabel04072215383D

 81 87  0  0  0  0  0  0  0  0999 V2000
    3.7733   -0.3392   -4.9181 C   0  0  0  0  0  0  0  0  0  0  0  0
    4.7151    0.1470   -3.9616 O   0  0  0  0  0  0  0  0  0  0  0  0
    4.1974    0.9186   -2.9526 C   0  0  0  0  0  0  0  0  0  0  0  0
    3.1513    1.8164   -3.2139 C   0  0  0  0  0  0  0  0  0  0  0  0
    2.5751    2.5909   -2.2030 C   0  0  0  0  0  0  0  0  0  0  0  0
    1.5575    3.4918   -2.5873 N   0  0  0  0  0  0  0  0  0  0  0  0
    0.7522    4.2737   -1.7569 C   0  0  0  0  0  0  0  0  0  0  0  0
    0.9603    5.5814   -2.0018 N   0  0  0  0  0  0  0  0  0  0  0  0
    0.3146    6.4525   -1.2368 C   0  0  0  0  0  0  0  0  0  0  0  0
   -0.5442    6.0429   -0.2526 C   0  0  0  0  0  0  0  0  0  0  0  0
   -1.3336    7.0696    0.4008 C   0  0  0  0  0  0  0  0  0  0  0  0
   -0.7527    7.9721    0.9715 O   0  0  0  0  0  0  0  0  0  0  0  0
   -2.6850    6.8960    0.2318 N   0  0  0  0  0  0  0  0  0  0  0  0
   -3.6005    7.4026    1.1934 C   0  0  0  0  0  0  0  0  0  0  0  0
   -4.7391    8.0527    0.6905 C   0  0  0  0  0  0  0  0  0  0  0  0
   -4.8865    8.3561   -0.7755 C   0  0  0  0  0  0  0  0  0  0  0  0
   -5.7283    8.4707    1.5827 C   0  0  0  0  0  0  0  0  0  0  0  0
   -5.6035    8.2489    2.9527 C   0  0  0  0  0  0  0  0  0  0  0  0
   -4.4723    7.6214    3.4632 C   0  0  0  0  0  0  0  0  0  0  0  0
   -3.4508    7.1844    2.6029 C   0  0  0  0  0  0  0  0  0  0  0  0
   -2.2665    6.5242    3.2722 C   0  0  0  0  0  0  0  0  0  0  0  0
   -3.0736    5.7060   -0.4051 C   0  0  0  0  0  0  0  0  0  0  0  0
   -4.2389    5.3169   -0.8577 N   0  0  0  0  0  0  0  0  0  0  0  0
   -4.5566    4.4531    0.1328 C   0  0  0  0  0  0  0  0  0  0  0  0
   -5.8509    4.3688    0.6595 C   0  0  0  0  0  0  0  0  0  0  0  0
   -5.9477    4.1673    2.0256 C   0  0  0  0  0  0  0  0  0  0  0  0
   -4.8088    3.8164    2.7612 C   0  0  0  0  0  0  0  0  0  0  0  0
   -3.5197    3.6261    2.1706 C   0  0  0  0  0  0  0  0  0  0  0  0
   -3.3834    4.0284    0.8205 C   0  0  0  0  0  0  0  0  0  0  0  0
   -2.3761    4.5520   -0.0517 N   0  0  0  0  0  0  0  0  0  0  0  0
   -0.9192    4.6958   -0.1797 C   0  0  0  0  0  0  0  0  0  0  0  0
   -0.2033    3.7786   -0.9011 N   0  0  0  0  0  0  0  0  0  0  0  0
    3.1178    2.5188   -0.9182 C   0  0  0  0  0  0  0  0  0  0  0  0
    4.1935    1.6539   -0.6365 C   0  0  0  0  0  0  0  0  0  0  0  0
    4.7673    1.5399    0.6028 O   0  0  0  0  0  0  0  0  0  0  0  0
    4.2276    2.3137    1.6663 C   0  0  0  0  0  0  0  0  0  0  0  0
    4.7626    0.8685   -1.6656 C   0  0  0  0  0  0  0  0  0  0  0  0
    5.8426    0.0919   -1.2890 O   0  0  0  0  0  0  0  0  0  0  0  0
    6.7983   -0.1921   -2.3147 C   0  0  0  0  0  0  0  0  0  0  0  0
    8.2123   -0.4425   -1.7377 C   0  0  0  0  0  0  0  0  0  0  0  0
    9.2321   -0.7223   -2.7817 N   0  0  0  0  0  0  0  0  0  0  0  0
   10.5771   -0.9546   -2.2032 C   0  0  0  0  0  0  0  0  0  0  0  0
   11.2865    0.3206   -1.7021 C   0  0  0  0  0  0  0  0  0  0  0  0
   11.3184    1.3558   -2.6951 O   0  0  0  0  0  0  0  0  0  0  0  0
   10.0032    1.6349   -3.1900 C   0  0  0  0  0  0  0  0  0  0  0  0
    9.3744    0.3645   -3.7779 C   0  0  0  0  0  0  0  0  0  0  0  0
    4.2983   -1.0367   -5.5798 H   0  0  0  0  0  0  0  0  0  0  0  0
    3.3898    0.4651   -5.5533 H   0  0  0  0  0  0  0  0  0  0  0  0
    2.9567   -0.8758   -4.4290 H   0  0  0  0  0  0  0  0  0  0  0  0
    2.7661    1.9429   -4.2234 H   0  0  0  0  0  0  0  0  0  0  0  0
    2.0140    4.2150   -3.1588 H   0  0  0  0  0  0  0  0  0  0  0  0
    0.4227    7.5019   -1.5037 H   0  0  0  0  0  0  0  0  0  0  0  0
   -4.0693    7.9691   -1.3957 H   0  0  0  0  0  0  0  0  0  0  0  0
   -4.8874    9.4392   -0.9224 H   0  0  0  0  0  0  0  0  0  0  0  0
   -5.8141    7.9208   -1.1576 H   0  0  0  0  0  0  0  0  0  0  0  0
   -6.6092    8.9812    1.2070 H   0  0  0  0  0  0  0  0  0  0  0  0
   -6.3898    8.5797    3.6267 H   0  0  0  0  0  0  0  0  0  0  0  0
   -4.4041    7.4593    4.5389 H   0  0  0  0  0  0  0  0  0  0  0  0
   -2.5456    6.1088    4.2510 H   0  0  0  0  0  0  0  0  0  0  0  0
   -1.4659    7.2488    3.4371 H   0  0  0  0  0  0  0  0  0  0  0  0
   -1.8677    5.6882    2.6985 H   0  0  0  0  0  0  0  0  0  0  0  0
   -6.6839    4.7756    0.0912 H   0  0  0  0  0  0  0  0  0  0  0  0
   -6.8947    4.3947    2.5170 H   0  0  0  0  0  0  0  0  0  0  0  0
   -4.9259    3.7752    3.8467 H   0  0  0  0  0  0  0  0  0  0  0  0
   -2.6731    3.4522    2.8281 H   0  0  0  0  0  0  0  0  0  0  0  0
    2.7074    3.1707   -0.1535 H   0  0  0  0  0  0  0  0  0  0  0  0
    4.6602    1.9568    2.6032 H   0  0  0  0  0  0  0  0  0  0  0  0
    3.1391    2.1936    1.7496 H   0  0  0  0  0  0  0  0  0  0  0  0
    4.4959    3.3686    1.5438 H   0  0  0  0  0  0  0  0  0  0  0  0
    6.8593    0.6668   -2.9874 H   0  0  0  0  0  0  0  0  0  0  0  0
    6.4856   -1.0923   -2.8576 H   0  0  0  0  0  0  0  0  0  0  0  0
    8.1524   -1.3067   -1.0627 H   0  0  0  0  0  0  0  0  0  0  0  0
    8.4943    0.4046   -1.1019 H   0  0  0  0  0  0  0  0  0  0  0  0
   11.1961   -1.3922   -2.9990 H   0  0  0  0  0  0  0  0  0  0  0  0
   10.5373   -1.7071   -1.4077 H   0  0  0  0  0  0  0  0  0  0  0  0
   12.3271    0.0839   -1.4550 H   0  0  0  0  0  0  0  0  0  0  0  0
   10.8136    0.7116   -0.7952 H   0  0  0  0  0  0  0  0  0  0  0  0
   10.0958    2.3961   -3.9707 H   0  0  0  0  0  0  0  0  0  0  0  0
    9.3936    2.0657   -2.3871 H   0  0  0  0  0  0  0  0  0  0  0  0
   10.0268   -0.0075   -4.5795 H   0  0  0  0  0  0  0  0  0  0  0  0
    8.4263    0.5908   -4.2724 H   0  0  0  0  0  0  0  0  0  0  0  0
  1  2  1  0  0  0  0
  1 47  1  0  0  0  0
  1 48  1  0  0  0  0
  1 49  1  0  0  0  0
  2  3  1  0  0  0  0
  3  4  1  0  0  0  0
  3 37  2  0  0  0  0
  4  5  2  0  0  0  0
  4 50  1  0  0  0  0
  5  6  1  0  0  0  0
  5 33  1  0  0  0  0
  6  7  1  0  0  0  0
  6 51  1  0  0  0  0
  7  8  1  0  0  0  0
  7 32  2  0  0  0  0
  8  9  2  0  0  0  0
  9 10  1  0  0  0  0
  9 52  1  0  0  0  0
 10 11  1  0  0  0  0
 10 31  2  0  0  0  0
 11 12  2  0  0  0  0
 11 13  1  0  0  0  0
 13 14  1  0  0  0  0
 13 22  1  0  0  0  0
 14 15  1  0  0  0  0
 14 20  2  0  0  0  0
 15 16  1  0  0  0  0
 15 17  2  0  0  0  0
 16 53  1  0  0  0  0
 16 54  1  0  0  0  0
 16 55  1  0  0  0  0
 17 18  1  0  0  0  0
 17 56  1  0  0  0  0
 18 19  2  0  0  0  0
 18 57  1  0  0  0  0
 19 20  1  0  0  0  0
 19 58  1  0  0  0  0
 20 21  1  0  0  0  0
 21 59  1  0  0  0  0
 21 60  1  0  0  0  0
 21 61  1  0  0  0  0
 22 23  2  0  0  0  0
 22 30  1  0  0  0  0
 23 24  1  0  0  0  0
 24 25  1  0  0  0  0
 24 29  2  0  0  0  0
 25 26  2  0  0  0  0
 25 62  1  0  0  0  0
 26 27  1  0  0  0  0
 26 63  1  0  0  0  0
 27 28  2  0  0  0  0
 27 64  1  0  0  0  0
 28 29  1  0  0  0  0
 28 65  1  0  0  0  0
 29 30  1  0  0  0  0
 30 31  1  0  0  0  0
 31 32  1  0  0  0  0
 33 34  2  0  0  0  0
 33 66  1  0  0  0  0
 34 35  1  0  0  0  0
 34 37  1  0  0  0  0
 35 36  1  0  0  0  0
 36 67  1  0  0  0  0
 36 68  1  0  0  0  0
 36 69  1  0  0  0  0
 37 38  1  0  0  0  0
 38 39  1  0  0  0  0
 39 40  1  0  0  0  0
 39 70  1  0  0  0  0
 39 71  1  0  0  0  0
 40 41  1  0  0  0  0
 40 72  1  0  0  0  0
 40 73  1  0  0  0  0
 41 42  1  0  0  0  0
 41 46  1  0  0  0  0
 42 43  1  0  0  0  0
 42 74  1  0  0  0  0
 42 75  1  0  0  0  0
 43 44  1  0  0  0  0
 43 76  1  0  0  0  0
 43 77  1  0  0  0  0
 44 45  1  0  0  0  0
 45 46  1  0  0  0  0
 45 78  1  0  0  0  0
 45 79  1  0  0  0  0
 46 80  1  0  0  0  0
 46 81  1  0  0  0  0
M  END
$$$$
