CHEMBL1241861
 OpenBabel04072215363D

 36 38  0  0  0  0  0  0  0  0999 V2000
    1.1334   -0.1362    0.5132 C   0  0  0  0  0  0  0  0  0  0  0  0
    2.5861    0.1104    0.1041 C   0  0  0  0  0  0  0  0  0  0  0  0
    2.7846   -0.1145   -1.3939 C   0  0  0  0  0  0  0  0  0  0  0  0
    3.0428    1.4376    0.5058 N   0  0  0  0  0  0  0  0  0  0  0  0
    2.4244    2.5428    0.0357 N   0  0  0  0  0  0  0  0  0  0  0  0
    3.0911    3.5681    0.5936 C   0  0  0  0  0  0  0  0  0  0  0  0
    2.6801    4.9462    0.3066 C   0  0  0  0  0  0  0  0  0  0  0  0
    1.3262    5.2502    0.0978 C   0  0  0  0  0  0  0  0  0  0  0  0
    0.9142    6.5747   -0.0652 C   0  0  0  0  0  0  0  0  0  0  0  0
   -0.3919    6.8100   -0.2474 F   0  0  0  0  0  0  0  0  0  0  0  0
    1.8374    7.6132   -0.0100 C   0  0  0  0  0  0  0  0  0  0  0  0
    1.4501    9.0275   -0.0960 C   0  0  0  0  0  0  0  0  0  0  0  0
    0.2914    9.3930   -0.2449 O   0  0  0  0  0  0  0  0  0  0  0  0
    3.1832    7.3080    0.1462 C   0  0  0  0  0  0  0  0  0  0  0  0
    4.1002    8.2830    0.2144 F   0  0  0  0  0  0  0  0  0  0  0  0
    3.6104    5.9880    0.2651 C   0  0  0  0  0  0  0  0  0  0  0  0
    4.1332    3.0983    1.4577 C   0  0  0  0  0  0  0  0  0  0  0  0
    5.1104    3.6136    2.3246 C   0  0  0  0  0  0  0  0  0  0  0  0
    5.3030    4.9585    2.6196 N   0  0  0  0  0  0  0  0  0  0  0  0
    5.9373    2.7578    2.9576 N   0  0  0  0  0  0  0  0  0  0  0  0
    5.7804    1.4377    2.7543 C   0  0  0  0  0  0  0  0  0  0  0  0
    4.8706    0.8275    1.9798 N   0  0  0  0  0  0  0  0  0  0  0  0
    4.0766    1.7163    1.3571 C   0  0  0  0  0  0  0  0  0  0  0  0
    0.8303   -1.1594    0.2655 H   0  0  0  0  0  0  0  0  0  0  0  0
    0.4476    0.5492    0.0034 H   0  0  0  0  0  0  0  0  0  0  0  0
    1.0020    0.0016    1.5921 H   0  0  0  0  0  0  0  0  0  0  0  0
    3.2092   -0.6175    0.6386 H   0  0  0  0  0  0  0  0  0  0  0  0
    2.1975    0.5933   -1.9893 H   0  0  0  0  0  0  0  0  0  0  0  0
    2.4806   -1.1274   -1.6785 H   0  0  0  0  0  0  0  0  0  0  0  0
    3.8373    0.0118   -1.6698 H   0  0  0  0  0  0  0  0  0  0  0  0
    0.5747    4.4633    0.0743 H   0  0  0  0  0  0  0  0  0  0  0  0
    2.2661    9.7658   -0.0079 H   0  0  0  0  0  0  0  0  0  0  0  0
    4.6780    5.8007    0.3431 H   0  0  0  0  0  0  0  0  0  0  0  0
    4.4461    5.4841    2.7334 H   0  0  0  0  0  0  0  0  0  0  0  0
    5.9490    5.0427    3.3989 H   0  0  0  0  0  0  0  0  0  0  0  0
    6.4687    0.7913    3.2887 H   0  0  0  0  0  0  0  0  0  0  0  0
  1  2  1  0  0  0  0
  1 24  1  0  0  0  0
  1 25  1  0  0  0  0
  1 26  1  0  0  0  0
  2  3  1  0  0  0  0
  2  4  1  0  0  0  0
  2 27  1  0  0  0  0
  3 28  1  0  0  0  0
  3 29  1  0  0  0  0
  3 30  1  0  0  0  0
  4  5  1  0  0  0  0
  4 23  1  0  0  0  0
  5  6  2  0  0  0  0
  6  7  1  0  0  0  0
  6 17  1  0  0  0  0
  7  8  1  0  0  0  0
  7 16  2  0  0  0  0
  8  9  2  0  0  0  0
  8 31  1  0  0  0  0
  9 10  1  0  0  0  0
  9 11  1  0  0  0  0
 11 12  1  0  0  0  0
 11 14  2  0  0  0  0
 12 13  2  0  0  0  0
 12 32  1  0  0  0  0
 14 15  1  0  0  0  0
 14 16  1  0  0  0  0
 16 33  1  0  0  0  0
 17 18  1  0  0  0  0
 17 23  2  0  0  0  0
 18 19  1  0  0  0  0
 18 20  2  0  0  0  0
 19 34  1  0  0  0  0
 19 35  1  0  0  0  0
 20 21  1  0  0  0  0
 21 22  2  0  0  0  0
 21 36  1  0  0  0  0
 22 23  1  0  0  0  0
M  END
$$$$
