CHEMBL4476746
 OpenBabel04072215383D

 49 52  0  0  0  0  0  0  0  0999 V2000
    2.4466   -1.7997   -0.2417 C   0  0  0  0  0  0  0  0  0  0  0  0
    2.7553   -0.4222   -0.0814 O   0  0  0  0  0  0  0  0  0  0  0  0
    3.3782   -0.0572    1.0776 C   0  0  0  0  0  0  0  0  0  0  0  0
    3.7232   -0.9067    2.1319 C   0  0  0  0  0  0  0  0  0  0  0  0
    4.3759   -0.4054    3.2664 C   0  0  0  0  0  0  0  0  0  0  0  0
    4.6766    0.9584    3.3515 C   0  0  0  0  0  0  0  0  0  0  0  0
    5.3881    1.5743    4.5072 C   0  0  0  0  0  0  0  0  0  0  0  0
    6.0571    2.5803    4.2795 O   0  0  0  0  0  0  0  0  0  0  0  0
    5.2367    0.9632    5.7442 N   0  0  0  0  0  0  0  0  0  0  0  0
    5.7406    1.4660    6.9688 C   0  0  0  0  0  0  0  0  0  0  0  0
    6.1936    2.7747    7.1099 C   0  0  0  0  0  0  0  0  0  0  0  0
    6.7306    3.2275    8.3159 C   0  0  0  0  0  0  0  0  0  0  0  0
    6.8628    2.3614    9.4084 C   0  0  0  0  0  0  0  0  0  0  0  0
    7.6366    2.7242   10.6475 C   0  0  0  0  0  0  0  0  0  0  0  0
    7.6130    1.9860   11.6263 O   0  0  0  0  0  0  0  0  0  0  0  0
    8.4175    3.8626   10.5287 N   0  0  0  0  0  0  0  0  0  0  0  0
    9.6675    3.8658   11.0924 N   0  0  0  0  0  0  0  0  0  0  0  0
   10.4429    4.8076   10.5968 C   0  0  0  0  0  0  0  0  0  0  0  0
   10.0665    5.9419    9.6343 C   0  0  0  0  0  0  0  0  0  0  0  0
    8.9389    6.3312    9.4313 O   0  0  0  0  0  0  0  0  0  0  0  0
   11.2241    6.3076    9.0106 N   0  0  0  0  0  0  0  0  0  0  0  0
   12.2490    5.4516    9.4218 C   0  0  0  0  0  0  0  0  0  0  0  0
   13.2466    4.9935    8.5841 C   0  0  0  0  0  0  0  0  0  0  0  0
   13.9418    3.8449    8.9840 C   0  0  0  0  0  0  0  0  0  0  0  0
   13.6926    3.2387   10.2320 C   0  0  0  0  0  0  0  0  0  0  0  0
   14.5852    1.8414   10.6880 Cl  0  0  0  0  0  0  0  0  0  0  0  0
   12.6529    3.6746   11.0431 C   0  0  0  0  0  0  0  0  0  0  0  0
   11.8970    4.7147   10.5507 C   0  0  0  0  0  0  0  0  0  0  0  0
    6.3492    1.0626    9.2913 C   0  0  0  0  0  0  0  0  0  0  0  0
    5.7757    0.6242    8.0839 C   0  0  0  0  0  0  0  0  0  0  0  0
    4.3333    1.8050    2.2902 C   0  0  0  0  0  0  0  0  0  0  0  0
    3.6848    1.3007    1.1648 C   0  0  0  0  0  0  0  0  0  0  0  0
    2.0262   -1.9274   -1.2434 H   0  0  0  0  0  0  0  0  0  0  0  0
    1.6877   -2.1168    0.4812 H   0  0  0  0  0  0  0  0  0  0  0  0
    3.3454   -2.4229   -0.1817 H   0  0  0  0  0  0  0  0  0  0  0  0
    3.5044   -1.9700    2.0967 H   0  0  0  0  0  0  0  0  0  0  0  0
    4.6665   -1.1032    4.0450 H   0  0  0  0  0  0  0  0  0  0  0  0
    4.7511    0.0794    5.7945 H   0  0  0  0  0  0  0  0  0  0  0  0
    6.1403    3.4917    6.2947 H   0  0  0  0  0  0  0  0  0  0  0  0
    7.0424    4.2666    8.3387 H   0  0  0  0  0  0  0  0  0  0  0  0
    8.3335    4.4045    9.6777 H   0  0  0  0  0  0  0  0  0  0  0  0
   11.3853    7.2982    8.8814 H   0  0  0  0  0  0  0  0  0  0  0  0
   13.3543    5.3785    7.5741 H   0  0  0  0  0  0  0  0  0  0  0  0
   14.6274    3.3676    8.2838 H   0  0  0  0  0  0  0  0  0  0  0  0
   12.3474    3.1339   11.9348 H   0  0  0  0  0  0  0  0  0  0  0  0
    6.4316    0.3714   10.1292 H   0  0  0  0  0  0  0  0  0  0  0  0
    5.4132   -0.3984    8.0275 H   0  0  0  0  0  0  0  0  0  0  0  0
    4.5716    2.8662    2.3368 H   0  0  0  0  0  0  0  0  0  0  0  0
    3.4250    1.9704    0.3481 H   0  0  0  0  0  0  0  0  0  0  0  0
  1  2  1  0  0  0  0
  1 33  1  0  0  0  0
  1 34  1  0  0  0  0
  1 35  1  0  0  0  0
  2  3  1  0  0  0  0
  3  4  1  0  0  0  0
  3 32  2  0  0  0  0
  4  5  2  0  0  0  0
  4 36  1  0  0  0  0
  5  6  1  0  0  0  0
  5 37  1  0  0  0  0
  6  7  1  0  0  0  0
  6 31  2  0  0  0  0
  7  8  2  0  0  0  0
  7  9  1  0  0  0  0
  9 10  1  0  0  0  0
  9 38  1  0  0  0  0
 10 11  1  0  0  0  0
 10 30  2  0  0  0  0
 11 12  2  0  0  0  0
 11 39  1  0  0  0  0
 12 13  1  0  0  0  0
 12 40  1  0  0  0  0
 13 14  1  0  0  0  0
 13 29  2  0  0  0  0
 14 15  2  0  0  0  0
 14 16  1  0  0  0  0
 16 17  1  0  0  0  0
 16 41  1  0  0  0  0
 17 18  2  0  0  0  0
 18 19  1  0  0  0  0
 18 28  1  0  0  0  0
 19 20  2  0  0  0  0
 19 21  1  0  0  0  0
 21 22  1  0  0  0  0
 21 42  1  0  0  0  0
 22 23  1  0  0  0  0
 22 28  2  0  0  0  0
 23 24  2  0  0  0  0
 23 43  1  0  0  0  0
 24 25  1  0  0  0  0
 24 44  1  0  0  0  0
 25 26  1  0  0  0  0
 25 27  2  0  0  0  0
 27 28  1  0  0  0  0
 27 45  1  0  0  0  0
 29 30  1  0  0  0  0
 29 46  1  0  0  0  0
 30 47  1  0  0  0  0
 31 32  1  0  0  0  0
 31 48  1  0  0  0  0
 32 49  1  0  0  0  0
M  END
$$$$
