CHEMBL3758585
 OpenBabel04072215373D

 76 80  0  0  0  0  0  0  0  0999 V2000
    2.2672   -1.4394   -0.7694 C   0  0  0  0  0  0  0  0  0  0  0  0
    2.2954   -0.0889   -0.3001 O   0  0  0  0  0  0  0  0  0  0  0  0
    3.0658    0.7569   -1.0543 C   0  0  0  0  0  0  0  0  0  0  0  0
    4.2266    0.2752   -1.6526 C   0  0  0  0  0  0  0  0  0  0  0  0
    4.8512    0.9811   -2.6826 C   0  0  0  0  0  0  0  0  0  0  0  0
    5.8699    0.4259   -3.4717 C   0  0  0  0  0  0  0  0  0  0  0  0
    6.3285   -0.8897   -3.1844 N   0  0  0  0  0  0  0  0  0  0  0  0
    6.9932   -1.7518   -4.0796 C   0  0  0  0  0  0  0  0  0  0  0  0
    7.9964   -2.6043   -3.6181 C   0  0  0  0  0  0  0  0  0  0  0  0
    8.7239   -3.4007   -4.5125 C   0  0  0  0  0  0  0  0  0  0  0  0
    8.4476   -3.3898   -5.8813 C   0  0  0  0  0  0  0  0  0  0  0  0
    9.2255   -4.0801   -6.8518 N   0  0  0  0  0  0  0  0  0  0  0  0
   10.3729   -4.8000   -6.5979 C   0  0  0  0  0  0  0  0  0  0  0  0
   10.8478   -5.0376   -5.4880 O   0  0  0  0  0  0  0  0  0  0  0  0
   11.1181   -5.3588   -7.7701 C   0  0  0  0  0  0  0  0  0  0  0  0
   11.0972   -4.8055   -9.0557 C   0  0  0  0  0  0  0  0  0  0  0  0
   11.9053   -5.3529  -10.0652 C   0  0  0  0  0  0  0  0  0  0  0  0
   12.7415   -6.4481   -9.8017 C   0  0  0  0  0  0  0  0  0  0  0  0
   13.6494   -7.0222  -10.8500 C   0  0  0  0  0  0  0  0  0  0  0  0
   12.7533   -6.9991   -8.5190 C   0  0  0  0  0  0  0  0  0  0  0  0
   11.9524   -6.4606   -7.5167 C   0  0  0  0  0  0  0  0  0  0  0  0
    7.3623   -2.6305   -6.3264 C   0  0  0  0  0  0  0  0  0  0  0  0
    6.6409   -1.8277   -5.4309 C   0  0  0  0  0  0  0  0  0  0  0  0
    6.3845    1.0953   -4.5161 N   0  0  0  0  0  0  0  0  0  0  0  0
    5.8967    2.3148   -4.7466 C   0  0  0  0  0  0  0  0  0  0  0  0
    4.9301    2.9364   -4.0503 N   0  0  0  0  0  0  0  0  0  0  0  0
    4.3895    2.2611   -3.0311 C   0  0  0  0  0  0  0  0  0  0  0  0
    3.3277    2.8001   -2.2908 C   0  0  0  0  0  0  0  0  0  0  0  0
    2.6650    2.0786   -1.2836 C   0  0  0  0  0  0  0  0  0  0  0  0
    1.6300    2.7370   -0.6413 O   0  0  0  0  0  0  0  0  0  0  0  0
    1.4335    2.3115    0.7197 C   0  0  0  0  0  0  0  0  0  0  0  0
    0.4342    3.1754    1.4913 C   0  0  0  0  0  0  0  0  0  0  0  0
    0.2631    2.6527    2.9385 C   0  0  0  0  0  0  0  0  0  0  0  0
    1.4847    2.6815    3.7610 N   0  0  0  0  0  0  0  0  0  0  0  0
    1.9990    4.0455    3.9769 C   0  0  0  0  0  0  0  0  0  0  0  0
    3.3024    4.0216    4.8072 C   0  0  0  0  0  0  0  0  0  0  0  0
    3.1710    3.4048    6.1402 N   0  0  0  0  0  0  0  0  0  0  0  0
    2.4516    4.2739    7.0669 C   0  0  0  0  0  0  0  0  0  0  0  0
    2.5234    2.0845    5.9990 C   0  0  0  0  0  0  0  0  0  0  0  0
    1.2712    2.0366    5.0773 C   0  0  0  0  0  0  0  0  0  0  0  0
    1.2972   -1.8746   -0.5179 H   0  0  0  0  0  0  0  0  0  0  0  0
    3.0484   -2.0116   -0.2595 H   0  0  0  0  0  0  0  0  0  0  0  0
    2.3855   -1.5190   -1.8585 H   0  0  0  0  0  0  0  0  0  0  0  0
    4.5966   -0.7062   -1.3762 H   0  0  0  0  0  0  0  0  0  0  0  0
    6.7372   -0.9033   -2.2555 H   0  0  0  0  0  0  0  0  0  0  0  0
    8.2644   -2.6364   -2.5652 H   0  0  0  0  0  0  0  0  0  0  0  0
    9.5205   -4.0049   -4.0930 H   0  0  0  0  0  0  0  0  0  0  0  0
    8.9113   -3.9924   -7.8073 H   0  0  0  0  0  0  0  0  0  0  0  0
   10.5046   -3.9267   -9.2884 H   0  0  0  0  0  0  0  0  0  0  0  0
   11.8977   -4.9032  -11.0563 H   0  0  0  0  0  0  0  0  0  0  0  0
   13.5279   -6.5175  -11.8131 H   0  0  0  0  0  0  0  0  0  0  0  0
   13.4320   -8.0858  -10.9950 H   0  0  0  0  0  0  0  0  0  0  0  0
   14.6940   -6.9125  -10.5399 H   0  0  0  0  0  0  0  0  0  0  0  0
   13.4011   -7.8396   -8.2820 H   0  0  0  0  0  0  0  0  0  0  0  0
   11.9953   -6.8889   -6.5165 H   0  0  0  0  0  0  0  0  0  0  0  0
    7.0711   -2.6193   -7.3726 H   0  0  0  0  0  0  0  0  0  0  0  0
    5.8080   -1.2359   -5.8041 H   0  0  0  0  0  0  0  0  0  0  0  0
    6.3184    2.8491   -5.5915 H   0  0  0  0  0  0  0  0  0  0  0  0
    2.9875    3.8051   -2.5404 H   0  0  0  0  0  0  0  0  0  0  0  0
    2.3993    2.3167    1.2373 H   0  0  0  0  0  0  0  0  0  0  0  0
    0.9935    1.3128    0.7228 H   0  0  0  0  0  0  0  0  0  0  0  0
   -0.5397    3.1287    0.9856 H   0  0  0  0  0  0  0  0  0  0  0  0
    0.7190    4.2322    1.4678 H   0  0  0  0  0  0  0  0  0  0  0  0
   -0.0707    1.6077    2.8650 H   0  0  0  0  0  0  0  0  0  0  0  0
   -0.5474    3.2027    3.4313 H   0  0  0  0  0  0  0  0  0  0  0  0
    1.2435    4.6676    4.4744 H   0  0  0  0  0  0  0  0  0  0  0  0
    2.2341    4.5227    3.0216 H   0  0  0  0  0  0  0  0  0  0  0  0
    3.7012    5.0392    4.8977 H   0  0  0  0  0  0  0  0  0  0  0  0
    4.0620    3.4588    4.2472 H   0  0  0  0  0  0  0  0  0  0  0  0
    2.9390    5.2543    7.1279 H   0  0  0  0  0  0  0  0  0  0  0  0
    2.4792    3.8546    8.0787 H   0  0  0  0  0  0  0  0  0  0  0  0
    1.4044    4.4313    6.7910 H   0  0  0  0  0  0  0  0  0  0  0  0
    2.2667    1.6830    6.9878 H   0  0  0  0  0  0  0  0  0  0  0  0
    3.2740    1.3944    5.5910 H   0  0  0  0  0  0  0  0  0  0  0  0
    0.4292    2.5089    5.5998 H   0  0  0  0  0  0  0  0  0  0  0  0
    1.0091    0.9818    4.9274 H   0  0  0  0  0  0  0  0  0  0  0  0
  1  2  1  0  0  0  0
  1 41  1  0  0  0  0
  1 42  1  0  0  0  0
  1 43  1  0  0  0  0
  2  3  1  0  0  0  0
  3  4  1  0  0  0  0
  3 29  2  0  0  0  0
  4  5  2  0  0  0  0
  4 44  1  0  0  0  0
  5  6  1  0  0  0  0
  5 27  1  0  0  0  0
  6  7  1  0  0  0  0
  6 24  2  0  0  0  0
  7  8  1  0  0  0  0
  7 45  1  0  0  0  0
  8  9  1  0  0  0  0
  8 23  2  0  0  0  0
  9 10  2  0  0  0  0
  9 46  1  0  0  0  0
 10 11  1  0  0  0  0
 10 47  1  0  0  0  0
 11 12  1  0  0  0  0
 11 22  2  0  0  0  0
 12 13  1  0  0  0  0
 12 48  1  0  0  0  0
 13 14  2  0  0  0  0
 13 15  1  0  0  0  0
 15 16  1  0  0  0  0
 15 21  2  0  0  0  0
 16 17  2  0  0  0  0
 16 49  1  0  0  0  0
 17 18  1  0  0  0  0
 17 50  1  0  0  0  0
 18 19  1  0  0  0  0
 18 20  2  0  0  0  0
 19 51  1  0  0  0  0
 19 52  1  0  0  0  0
 19 53  1  0  0  0  0
 20 21  1  0  0  0  0
 20 54  1  0  0  0  0
 21 55  1  0  0  0  0
 22 23  1  0  0  0  0
 22 56  1  0  0  0  0
 23 57  1  0  0  0  0
 24 25  1  0  0  0  0
 25 26  2  0  0  0  0
 25 58  1  0  0  0  0
 26 27  1  0  0  0  0
 27 28  2  0  0  0  0
 28 29  1  0  0  0  0
 28 59  1  0  0  0  0
 29 30  1  0  0  0  0
 30 31  1  0  0  0  0
 31 32  1  0  0  0  0
 31 60  1  0  0  0  0
 31 61  1  0  0  0  0
 32 33  1  0  0  0  0
 32 62  1  0  0  0  0
 32 63  1  0  0  0  0
 33 34  1  0  0  0  0
 33 64  1  0  0  0  0
 33 65  1  0  0  0  0
 34 35  1  0  0  0  0
 34 40  1  0  0  0  0
 35 36  1  0  0  0  0
 35 66  1  0  0  0  0
 35 67  1  0  0  0  0
 36 37  1  0  0  0  0
 36 68  1  0  0  0  0
 36 69  1  0  0  0  0
 37 38  1  0  0  0  0
 37 39  1  0  0  0  0
 38 70  1  0  0  0  0
 38 71  1  0  0  0  0
 38 72  1  0  0  0  0
 39 40  1  0  0  0  0
 39 73  1  0  0  0  0
 39 74  1  0  0  0  0
 40 75  1  0  0  0  0
 40 76  1  0  0  0  0
M  END
$$$$
