CHEMBL364115
 OpenBabel04072215373D

 86 90  0  0  0  0  0  0  0  0999 V2000
    1.1341    0.0234   -0.0205 C   0  0  0  0  0  0  0  0  0  0  0  0
    2.5938    0.0339   -0.1181 N   0  0  0  0  0  0  0  0  0  0  0  0
    3.2273    1.2775   -0.1938 C   0  0  0  0  0  0  0  0  0  0  0  0
    2.7509    2.4018    0.4949 C   0  0  0  0  0  0  0  0  0  0  0  0
    3.4043    3.6322    0.4153 C   0  0  0  0  0  0  0  0  0  0  0  0
    4.5493    3.7570   -0.3592 C   0  0  0  0  0  0  0  0  0  0  0  0
    5.2460    4.9563   -0.5144 N   0  0  0  0  0  0  0  0  0  0  0  0
    5.1072    6.1139    0.2156 C   0  0  0  0  0  0  0  0  0  0  0  0
    4.3656    6.2351    1.1845 O   0  0  0  0  0  0  0  0  0  0  0  0
    5.8979    7.1616   -0.2199 N   0  0  0  0  0  0  0  0  0  0  0  0
    6.8075    7.1663   -1.3698 C   0  0  0  0  0  0  0  0  0  0  0  0
    8.1744    7.7423   -0.9678 C   0  0  0  0  0  0  0  0  0  0  0  0
    8.0890    9.0994   -0.3870 N   0  0  0  0  0  0  0  0  0  0  0  0
    7.6415   10.0689   -1.3990 C   0  0  0  0  0  0  0  0  0  0  0  0
    7.5932   11.4848   -0.8403 C   0  0  0  0  0  0  0  0  0  0  0  0
    7.1494   12.4630   -1.9182 C   0  0  0  0  0  0  0  0  0  0  0  0
    7.0708   13.8341   -1.3959 N   0  0  0  0  0  0  0  0  0  0  0  0
    6.6188   14.7647   -2.4540 C   0  0  0  0  0  0  0  0  0  0  0  0
    7.6718   14.9650   -3.5569 C   0  0  0  0  0  0  0  0  0  0  0  0
    8.9091   15.4485   -3.0154 O   0  0  0  0  0  0  0  0  0  0  0  0
    9.4105   14.5661   -1.9997 C   0  0  0  0  0  0  0  0  0  0  0  0
    8.3719   14.3364   -0.8916 C   0  0  0  0  0  0  0  0  0  0  0  0
    7.1655    9.0482    0.7741 C   0  0  0  0  0  0  0  0  0  0  0  0
    5.7795    8.4549    0.4616 C   0  0  0  0  0  0  0  0  0  0  0  0
    5.0534    2.6494   -1.0463 C   0  0  0  0  0  0  0  0  0  0  0  0
    4.3962    1.4266   -0.9617 C   0  0  0  0  0  0  0  0  0  0  0  0
    3.2088   -1.1843    0.2651 C   0  0  0  0  0  0  0  0  0  0  0  0
    4.4915   -1.1609    0.7963 C   0  0  0  0  0  0  0  0  0  0  0  0
    5.0343   -2.3485    1.1874 C   0  0  0  0  0  0  0  0  0  0  0  0
    4.3913   -3.5081    1.0571 N   0  0  0  0  0  0  0  0  0  0  0  0
    3.1565   -3.4771    0.5263 C   0  0  0  0  0  0  0  0  0  0  0  0
    2.4807   -4.6868    0.3456 N   0  0  0  0  0  0  0  0  0  0  0  0
    2.6511   -5.8496    1.1150 C   0  0  0  0  0  0  0  0  0  0  0  0
    3.0116   -5.7933    2.4664 C   0  0  0  0  0  0  0  0  0  0  0  0
    3.2880   -6.9535    3.2006 C   0  0  0  0  0  0  0  0  0  0  0  0
    3.2189   -8.2104    2.5894 C   0  0  0  0  0  0  0  0  0  0  0  0
    3.7324   -9.4648    3.2544 C   0  0  0  0  0  0  0  0  0  0  0  0
    2.8547   -9.9233    4.7389 S   0  0  0  0  0  0  0  0  0  0  0  0
    1.1648  -10.1544    4.2520 C   0  0  0  0  0  0  0  0  0  0  0  0
    3.3564  -11.2379    5.1301 O   0  0  0  0  0  0  0  0  0  0  0  0
    2.9026   -8.8322    5.6935 O   0  0  0  0  0  0  0  0  0  0  0  0
    2.7920   -8.2697    1.2515 C   0  0  0  0  0  0  0  0  0  0  0  0
    2.4869   -7.1064    0.5318 C   0  0  0  0  0  0  0  0  0  0  0  0
    2.5399   -2.3520    0.1334 N   0  0  0  0  0  0  0  0  0  0  0  0
    0.6867    0.9867   -0.2995 H   0  0  0  0  0  0  0  0  0  0  0  0
    0.8147   -0.2032    1.0036 H   0  0  0  0  0  0  0  0  0  0  0  0
    0.6963   -0.7097   -0.7065 H   0  0  0  0  0  0  0  0  0  0  0  0
    1.8806    2.3392    1.1374 H   0  0  0  0  0  0  0  0  0  0  0  0
    2.9811    4.4686    0.9610 H   0  0  0  0  0  0  0  0  0  0  0  0
    6.0010    4.9066   -1.1665 H   0  0  0  0  0  0  0  0  0  0  0  0
    6.3245    7.7553   -2.1562 H   0  0  0  0  0  0  0  0  0  0  0  0
    6.9798    6.1834   -1.8025 H   0  0  0  0  0  0  0  0  0  0  0  0
    8.8531    7.7216   -1.8288 H   0  0  0  0  0  0  0  0  0  0  0  0
    8.6262    7.0760   -0.2182 H   0  0  0  0  0  0  0  0  0  0  0  0
    6.6548    9.8230   -1.8031 H   0  0  0  0  0  0  0  0  0  0  0  0
    8.3418   10.0542   -2.2449 H   0  0  0  0  0  0  0  0  0  0  0  0
    8.5903   11.7243   -0.4597 H   0  0  0  0  0  0  0  0  0  0  0  0
    6.8851   11.5753   -0.0114 H   0  0  0  0  0  0  0  0  0  0  0  0
    6.1518   12.1575   -2.2666 H   0  0  0  0  0  0  0  0  0  0  0  0
    7.8209   12.3717   -2.7766 H   0  0  0  0  0  0  0  0  0  0  0  0
    6.4134   15.7327   -1.9787 H   0  0  0  0  0  0  0  0  0  0  0  0
    5.6684   14.4249   -2.8825 H   0  0  0  0  0  0  0  0  0  0  0  0
    7.3133   15.7039   -4.2791 H   0  0  0  0  0  0  0  0  0  0  0  0
    7.8601   14.0405   -4.1141 H   0  0  0  0  0  0  0  0  0  0  0  0
   10.3015   15.0333   -1.5682 H   0  0  0  0  0  0  0  0  0  0  0  0
    9.7298   13.6264   -2.4629 H   0  0  0  0  0  0  0  0  0  0  0  0
    8.1806   15.2837   -0.3762 H   0  0  0  0  0  0  0  0  0  0  0  0
    8.7871   13.6839   -0.1166 H   0  0  0  0  0  0  0  0  0  0  0  0
    7.0483   10.0336    1.2341 H   0  0  0  0  0  0  0  0  0  0  0  0
    7.6446    8.4442    1.5573 H   0  0  0  0  0  0  0  0  0  0  0  0
    5.2067    9.1142   -0.2026 H   0  0  0  0  0  0  0  0  0  0  0  0
    5.2090    8.3750    1.3920 H   0  0  0  0  0  0  0  0  0  0  0  0
    5.9620    2.7157   -1.6341 H   0  0  0  0  0  0  0  0  0  0  0  0
    4.8123    0.5696   -1.4981 H   0  0  0  0  0  0  0  0  0  0  0  0
    5.0555   -0.2497    0.9344 H   0  0  0  0  0  0  0  0  0  0  0  0
    6.0222   -2.3991    1.6314 H   0  0  0  0  0  0  0  0  0  0  0  0
    1.5511   -4.5203   -0.0089 H   0  0  0  0  0  0  0  0  0  0  0  0
    3.1158   -4.8284    2.9593 H   0  0  0  0  0  0  0  0  0  0  0  0
    3.5962   -6.8339    4.2367 H   0  0  0  0  0  0  0  0  0  0  0  0
    4.7890   -9.3460    3.5199 H   0  0  0  0  0  0  0  0  0  0  0  0
    3.6628  -10.3213    2.5738 H   0  0  0  0  0  0  0  0  0  0  0  0
    1.1110  -10.8862    3.4431 H   0  0  0  0  0  0  0  0  0  0  0  0
    0.7441   -9.1965    3.9478 H   0  0  0  0  0  0  0  0  0  0  0  0
    0.6224  -10.5352    5.1222 H   0  0  0  0  0  0  0  0  0  0  0  0
    2.7412   -9.2248    0.7329 H   0  0  0  0  0  0  0  0  0  0  0  0
    2.1959   -7.1897   -0.5127 H   0  0  0  0  0  0  0  0  0  0  0  0
  1  2  1  0  0  0  0
  1 45  1  0  0  0  0
  1 46  1  0  0  0  0
  1 47  1  0  0  0  0
  2  3  1  0  0  0  0
  2 27  1  0  0  0  0
  3  4  1  0  0  0  0
  3 26  2  0  0  0  0
  4  5  2  0  0  0  0
  4 48  1  0  0  0  0
  5  6  1  0  0  0  0
  5 49  1  0  0  0  0
  6  7  1  0  0  0  0
  6 25  2  0  0  0  0
  7  8  1  0  0  0  0
  7 50  1  0  0  0  0
  8  9  2  0  0  0  0
  8 10  1  0  0  0  0
 10 11  1  0  0  0  0
 10 24  1  0  0  0  0
 11 12  1  0  0  0  0
 11 51  1  0  0  0  0
 11 52  1  0  0  0  0
 12 13  1  0  0  0  0
 12 53  1  0  0  0  0
 12 54  1  0  0  0  0
 13 14  1  0  0  0  0
 13 23  1  0  0  0  0
 14 15  1  0  0  0  0
 14 55  1  0  0  0  0
 14 56  1  0  0  0  0
 15 16  1  0  0  0  0
 15 57  1  0  0  0  0
 15 58  1  0  0  0  0
 16 17  1  0  0  0  0
 16 59  1  0  0  0  0
 16 60  1  0  0  0  0
 17 18  1  0  0  0  0
 17 22  1  0  0  0  0
 18 19  1  0  0  0  0
 18 61  1  0  0  0  0
 18 62  1  0  0  0  0
 19 20  1  0  0  0  0
 19 63  1  0  0  0  0
 19 64  1  0  0  0  0
 20 21  1  0  0  0  0
 21 22  1  0  0  0  0
 21 65  1  0  0  0  0
 21 66  1  0  0  0  0
 22 67  1  0  0  0  0
 22 68  1  0  0  0  0
 23 24  1  0  0  0  0
 23 69  1  0  0  0  0
 23 70  1  0  0  0  0
 24 71  1  0  0  0  0
 24 72  1  0  0  0  0
 25 26  1  0  0  0  0
 25 73  1  0  0  0  0
 26 74  1  0  0  0  0
 27 28  1  0  0  0  0
 27 44  2  0  0  0  0
 28 29  2  0  0  0  0
 28 75  1  0  0  0  0
 29 30  1  0  0  0  0
 29 76  1  0  0  0  0
 30 31  2  0  0  0  0
 31 32  1  0  0  0  0
 31 44  1  0  0  0  0
 32 33  1  0  0  0  0
 32 77  1  0  0  0  0
 33 34  1  0  0  0  0
 33 43  2  0  0  0  0
 34 35  2  0  0  0  0
 34 78  1  0  0  0  0
 35 36  1  0  0  0  0
 35 79  1  0  0  0  0
 36 37  1  0  0  0  0
 36 42  2  0  0  0  0
 37 38  1  0  0  0  0
 37 80  1  0  0  0  0
 37 81  1  0  0  0  0
 38 39  1  0  0  0  0
 38 40  2  0  0  0  0
 38 41  2  0  0  0  0
 39 82  1  0  0  0  0
 39 83  1  0  0  0  0
 39 84  1  0  0  0  0
 42 43  1  0  0  0  0
 42 85  1  0  0  0  0
 43 86  1  0  0  0  0
M  END
$$$$
