CHEMBL213510
 OpenBabel04072215363D

 46 49  0  0  0  0  0  0  0  0999 V2000
    2.4154   -0.4546    1.4296 C   0  0  0  0  0  0  0  0  0  0  0  0
    0.9219   -0.3289    1.4177 C   0  0  0  0  0  0  0  0  0  0  0  0
    0.3247    0.8664    1.8297 C   0  0  0  0  0  0  0  0  0  0  0  0
   -1.0558    0.9948    1.8253 C   0  0  0  0  0  0  0  0  0  0  0  0
   -1.8536   -0.0749    1.4122 C   0  0  0  0  0  0  0  0  0  0  0  0
   -1.2919   -1.2822    0.9829 C   0  0  0  0  0  0  0  0  0  0  0  0
   -2.0748   -2.3917    0.5586 N   0  0  0  0  0  0  0  0  0  0  0  0
   -3.4476   -2.3715    0.3721 C   0  0  0  0  0  0  0  0  0  0  0  0
   -4.1500   -1.3699    0.4455 O   0  0  0  0  0  0  0  0  0  0  0  0
   -3.9753   -3.6398    0.1268 N   0  0  0  0  0  0  0  0  0  0  0  0
   -5.3799   -3.7762   -0.0407 C   0  0  0  0  0  0  0  0  0  0  0  0
   -6.0929   -2.9022   -0.8661 C   0  0  0  0  0  0  0  0  0  0  0  0
   -7.4888   -2.9222   -0.8937 C   0  0  0  0  0  0  0  0  0  0  0  0
   -8.2057   -3.8246   -0.1005 C   0  0  0  0  0  0  0  0  0  0  0  0
   -9.7185   -3.7776   -0.0309 C   0  0  0  0  0  0  0  0  0  0  0  0
  -10.2429   -4.7553   -1.0391 C   0  0  0  0  0  0  0  0  0  0  0  0
  -10.3197   -6.0362   -0.6561 N   0  0  0  0  0  0  0  0  0  0  0  0
  -10.9288   -6.9418   -1.8963 S   0  0  0  0  0  0  0  0  0  0  0  0
  -11.1500   -5.6456   -2.9715 C   0  0  0  0  0  0  0  0  0  0  0  0
  -11.6614   -5.8101   -4.2018 N   0  0  0  0  0  0  0  0  0  0  0  0
  -11.7742   -4.6509   -4.8501 C   0  0  0  0  0  0  0  0  0  0  0  0
  -11.4513   -3.4300   -4.3957 N   0  0  0  0  0  0  0  0  0  0  0  0
  -10.9454   -3.3059   -3.1513 C   0  0  0  0  0  0  0  0  0  0  0  0
  -10.6753   -2.0032   -2.7611 N   0  0  0  0  0  0  0  0  0  0  0  0
  -10.7513   -4.4596   -2.3707 C   0  0  0  0  0  0  0  0  0  0  0  0
   -7.4783   -4.7453    0.6760 C   0  0  0  0  0  0  0  0  0  0  0  0
   -6.0751   -4.7367    0.6913 C   0  0  0  0  0  0  0  0  0  0  0  0
    0.1059   -1.4018    0.9944 C   0  0  0  0  0  0  0  0  0  0  0  0
    2.8866    0.4631    1.8029 H   0  0  0  0  0  0  0  0  0  0  0  0
    2.7911   -0.6311    0.4179 H   0  0  0  0  0  0  0  0  0  0  0  0
    2.7232   -1.2730    2.0865 H   0  0  0  0  0  0  0  0  0  0  0  0
    0.9349    1.7080    2.1537 H   0  0  0  0  0  0  0  0  0  0  0  0
   -1.5268    1.9199    2.1421 H   0  0  0  0  0  0  0  0  0  0  0  0
   -2.9252    0.0851    1.4471 H   0  0  0  0  0  0  0  0  0  0  0  0
   -1.5803   -3.2117    0.2428 H   0  0  0  0  0  0  0  0  0  0  0  0
   -3.5114   -4.3877    0.6211 H   0  0  0  0  0  0  0  0  0  0  0  0
   -5.5683   -2.1602   -1.4646 H   0  0  0  0  0  0  0  0  0  0  0  0
   -7.9882   -2.1842   -1.5093 H   0  0  0  0  0  0  0  0  0  0  0  0
  -10.0875   -2.7629   -0.2025 H   0  0  0  0  0  0  0  0  0  0  0  0
  -10.0529   -4.0463    0.9796 H   0  0  0  0  0  0  0  0  0  0  0  0
  -12.1742   -4.6953   -5.8581 H   0  0  0  0  0  0  0  0  0  0  0  0
  -10.6923   -1.3861   -3.5710 H   0  0  0  0  0  0  0  0  0  0  0  0
   -9.9055   -1.8655   -2.1326 H   0  0  0  0  0  0  0  0  0  0  0  0
   -8.0081   -5.4566    1.3086 H   0  0  0  0  0  0  0  0  0  0  0  0
   -5.5534   -5.4276    1.3466 H   0  0  0  0  0  0  0  0  0  0  0  0
    0.5809   -2.3261    0.6753 H   0  0  0  0  0  0  0  0  0  0  0  0
  1  2  1  0  0  0  0
  1 29  1  0  0  0  0
  1 30  1  0  0  0  0
  1 31  1  0  0  0  0
  2  3  1  0  0  0  0
  2 28  2  0  0  0  0
  3  4  2  0  0  0  0
  3 32  1  0  0  0  0
  4  5  1  0  0  0  0
  4 33  1  0  0  0  0
  5  6  2  0  0  0  0
  5 34  1  0  0  0  0
  6  7  1  0  0  0  0
  6 28  1  0  0  0  0
  7  8  1  0  0  0  0
  7 35  1  0  0  0  0
  8  9  2  0  0  0  0
  8 10  1  0  0  0  0
 10 11  1  0  0  0  0
 10 36  1  0  0  0  0
 11 12  1  0  0  0  0
 11 27  2  0  0  0  0
 12 13  2  0  0  0  0
 12 37  1  0  0  0  0
 13 14  1  0  0  0  0
 13 38  1  0  0  0  0
 14 15  1  0  0  0  0
 14 26  2  0  0  0  0
 15 16  1  0  0  0  0
 15 39  1  0  0  0  0
 15 40  1  0  0  0  0
 16 17  2  0  0  0  0
 16 25  1  0  0  0  0
 17 18  1  0  0  0  0
 18 19  1  0  0  0  0
 19 20  1  0  0  0  0
 19 25  2  0  0  0  0
 20 21  2  0  0  0  0
 21 22  1  0  0  0  0
 21 41  1  0  0  0  0
 22 23  2  0  0  0  0
 23 24  1  0  0  0  0
 23 25  1  0  0  0  0
 24 42  1  0  0  0  0
 24 43  1  0  0  0  0
 26 27  1  0  0  0  0
 26 44  1  0  0  0  0
 27 45  1  0  0  0  0
 28 46  1  0  0  0  0
M  END
$$$$
