CHEMBL3656055
 OpenBabel04072215373D

 50 53  0  0  0  0  0  0  0  0999 V2000
    1.1279    0.7256   -0.1217 C   0  0  0  0  0  0  0  0  0  0  0  0
    2.4540    1.1599    0.1809 O   0  0  0  0  0  0  0  0  0  0  0  0
    3.0921    0.3472    1.0729 C   0  0  0  0  0  0  0  0  0  0  0  0
    2.5859   -0.6472    1.5801 O   0  0  0  0  0  0  0  0  0  0  0  0
    4.4576    0.7643    1.3646 C   0  0  0  0  0  0  0  0  0  0  0  0
    5.1409    1.8837    0.9226 C   0  0  0  0  0  0  0  0  0  0  0  0
    6.4088    1.8581    1.4537 N   0  0  0  0  0  0  0  0  0  0  0  0
    6.5740    0.7379    2.2374 C   0  0  0  0  0  0  0  0  0  0  0  0
    7.8272    0.4048    2.9079 C   0  0  0  0  0  0  0  0  0  0  0  0
    7.9428   -0.7534    3.6649 C   0  0  0  0  0  0  0  0  0  0  0  0
    9.1918   -1.1193    4.1546 C   0  0  0  0  0  0  0  0  0  0  0  0
    9.4285   -2.2928    4.8462 O   0  0  0  0  0  0  0  0  0  0  0  0
    8.7052   -3.4300    4.5295 C   0  0  0  0  0  0  0  0  0  0  0  0
    8.2569   -3.7221    3.2361 C   0  0  0  0  0  0  0  0  0  0  0  0
    7.4621   -4.8389    3.0120 C   0  0  0  0  0  0  0  0  0  0  0  0
    7.2041   -5.7308    4.0511 C   0  0  0  0  0  0  0  0  0  0  0  0
    7.7568   -5.5333    5.3193 C   0  0  0  0  0  0  0  0  0  0  0  0
    7.6402   -6.4885    6.3549 N   0  0  0  0  0  0  0  0  0  0  0  0
    7.2505   -7.8179    6.2131 C   0  0  0  0  0  0  0  0  0  0  0  0
    6.9131   -8.3409    5.1542 O   0  0  0  0  0  0  0  0  0  0  0  0
    7.3176   -8.5874    7.4460 C   0  0  0  0  0  0  0  0  0  0  0  0
    7.6311   -7.9509    8.6202 O   0  0  0  0  0  0  0  0  0  0  0  0
    7.6149   -8.8896    9.5999 C   0  0  0  0  0  0  0  0  0  0  0  0
    7.3055  -10.1238    9.0842 C   0  0  0  0  0  0  0  0  0  0  0  0
    7.1158   -9.9429    7.6868 C   0  0  0  0  0  0  0  0  0  0  0  0
    6.7754  -10.9932    6.6911 C   0  0  0  0  0  0  0  0  0  0  0  0
    8.4740   -4.3503    5.5637 C   0  0  0  0  0  0  0  0  0  0  0  0
   10.2602   -0.2488    3.9796 C   0  0  0  0  0  0  0  0  0  0  0  0
   10.0431    0.9152    3.2543 C   0  0  0  0  0  0  0  0  0  0  0  0
    8.8572    1.2538    2.6925 N   0  0  0  0  0  0  0  0  0  0  0  0
    5.3723    0.0534    2.1909 C   0  0  0  0  0  0  0  0  0  0  0  0
    0.7524    1.3290   -0.9516 H   0  0  0  0  0  0  0  0  0  0  0  0
    0.4763    0.8778    0.7447 H   0  0  0  0  0  0  0  0  0  0  0  0
    1.1166   -0.3250   -0.4322 H   0  0  0  0  0  0  0  0  0  0  0  0
    4.8335    2.6951    0.2753 H   0  0  0  0  0  0  0  0  0  0  0  0
    7.1403    2.5415    1.2976 H   0  0  0  0  0  0  0  0  0  0  0  0
    7.0786   -1.3840    3.8309 H   0  0  0  0  0  0  0  0  0  0  0  0
    8.4892   -3.0749    2.3951 H   0  0  0  0  0  0  0  0  0  0  0  0
    7.0466   -5.0285    2.0252 H   0  0  0  0  0  0  0  0  0  0  0  0
    6.5666   -6.5818    3.8314 H   0  0  0  0  0  0  0  0  0  0  0  0
    7.9952   -6.2410    7.2719 H   0  0  0  0  0  0  0  0  0  0  0  0
    7.8374   -8.5325   10.5954 H   0  0  0  0  0  0  0  0  0  0  0  0
    7.2268  -11.0470    9.6423 H   0  0  0  0  0  0  0  0  0  0  0  0
    6.7709  -11.9862    7.1527 H   0  0  0  0  0  0  0  0  0  0  0  0
    7.5081  -11.0095    5.8776 H   0  0  0  0  0  0  0  0  0  0  0  0
    5.7830  -10.8162    6.2643 H   0  0  0  0  0  0  0  0  0  0  0  0
    8.8841   -4.1440    6.5499 H   0  0  0  0  0  0  0  0  0  0  0  0
   11.2391   -0.4709    4.3894 H   0  0  0  0  0  0  0  0  0  0  0  0
   10.8493    1.6264    3.0917 H   0  0  0  0  0  0  0  0  0  0  0  0
    5.1530   -0.8843    2.6865 H   0  0  0  0  0  0  0  0  0  0  0  0
  1  2  1  0  0  0  0
  1 32  1  0  0  0  0
  1 33  1  0  0  0  0
  1 34  1  0  0  0  0
  2  3  1  0  0  0  0
  3  4  2  0  0  0  0
  3  5  1  0  0  0  0
  5  6  2  0  0  0  0
  5 31  1  0  0  0  0
  6  7  1  0  0  0  0
  6 35  1  0  0  0  0
  7  8  1  0  0  0  0
  7 36  1  0  0  0  0
  8  9  1  0  0  0  0
  8 31  2  0  0  0  0
  9 10  1  0  0  0  0
  9 30  2  0  0  0  0
 10 11  2  0  0  0  0
 10 37  1  0  0  0  0
 11 12  1  0  0  0  0
 11 28  1  0  0  0  0
 12 13  1  0  0  0  0
 13 14  1  0  0  0  0
 13 27  2  0  0  0  0
 14 15  2  0  0  0  0
 14 38  1  0  0  0  0
 15 16  1  0  0  0  0
 15 39  1  0  0  0  0
 16 17  2  0  0  0  0
 16 40  1  0  0  0  0
 17 18  1  0  0  0  0
 17 27  1  0  0  0  0
 18 19  1  0  0  0  0
 18 41  1  0  0  0  0
 19 20  2  0  0  0  0
 19 21  1  0  0  0  0
 21 22  1  0  0  0  0
 21 25  2  0  0  0  0
 22 23  1  0  0  0  0
 23 24  2  0  0  0  0
 23 42  1  0  0  0  0
 24 25  1  0  0  0  0
 24 43  1  0  0  0  0
 25 26  1  0  0  0  0
 26 44  1  0  0  0  0
 26 45  1  0  0  0  0
 26 46  1  0  0  0  0
 27 47  1  0  0  0  0
 28 29  2  0  0  0  0
 28 48  1  0  0  0  0
 29 30  1  0  0  0  0
 29 49  1  0  0  0  0
 31 50  1  0  0  0  0
M  END
$$$$
