CHEMBL496764
 OpenBabel04072215383D

 52 56  0  0  0  0  0  0  0  0999 V2000
    2.1002   -1.1270   -1.0171 C   0  0  0  0  0  0  0  0  0  0  0  0
    0.9364   -0.3013   -0.7047 N   0  0  0  0  0  0  0  0  0  0  0  0
   -0.2484   -0.7678   -1.4658 C   0  0  0  0  0  0  0  0  0  0  0  0
   -1.5294    0.0330   -1.1274 C   0  0  0  0  0  0  0  0  0  0  0  0
   -1.7610   -0.0565    0.3184 N   0  0  0  0  0  0  0  0  0  0  0  0
   -3.0331   -0.0286    0.8591 C   0  0  0  0  0  0  0  0  0  0  0  0
   -3.2573   -0.6491    2.1036 C   0  0  0  0  0  0  0  0  0  0  0  0
   -4.5118   -0.7100    2.7192 C   0  0  0  0  0  0  0  0  0  0  0  0
   -5.5579   -0.1268    2.0199 C   0  0  0  0  0  0  0  0  0  0  0  0
   -6.8852    0.0213    2.3110 N   0  0  0  0  0  0  0  0  0  0  0  0
   -7.5018    0.6344    1.2468 C   0  0  0  0  0  0  0  0  0  0  0  0
   -8.9073    0.8733    1.2902 C   0  0  0  0  0  0  0  0  0  0  0  0
   -9.6094    0.9394    0.1319 C   0  0  0  0  0  0  0  0  0  0  0  0
   -9.0698    0.6726   -1.1303 N   0  0  0  0  0  0  0  0  0  0  0  0
  -11.0398    1.3470    0.1867 C   0  0  0  0  0  0  0  0  0  0  0  0
  -11.8312    1.5095   -0.9638 C   0  0  0  0  0  0  0  0  0  0  0  0
  -13.1468    1.9810   -0.8901 C   0  0  0  0  0  0  0  0  0  0  0  0
  -13.8278    2.3310   -2.0622 N   0  0  0  0  0  0  0  0  0  0  0  0
  -13.6678    2.3324    0.3546 C   0  0  0  0  0  0  0  0  0  0  0  0
  -12.9260    2.1272    1.5170 C   0  0  0  0  0  0  0  0  0  0  0  0
  -11.6203    1.6460    1.4256 C   0  0  0  0  0  0  0  0  0  0  0  0
  -10.8840    1.4867    2.5974 N   0  0  0  0  0  0  0  0  0  0  0  0
   -9.5797    1.0911    2.6137 C   0  0  0  0  0  0  0  0  0  0  0  0
   -8.9991    0.9122    3.6806 O   0  0  0  0  0  0  0  0  0  0  0  0
   -6.6173    0.9096    0.2997 N   0  0  0  0  0  0  0  0  0  0  0  0
   -5.4082    0.4673    0.7765 C   0  0  0  0  0  0  0  0  0  0  0  0
   -4.1338    0.5286    0.1907 C   0  0  0  0  0  0  0  0  0  0  0  0
   -0.6316    0.4403    1.1240 C   0  0  0  0  0  0  0  0  0  0  0  0
    0.6404   -0.3527    0.7474 C   0  0  0  0  0  0  0  0  0  0  0  0
    2.3338   -1.0661   -2.0849 H   0  0  0  0  0  0  0  0  0  0  0  0
    1.9456   -2.1802   -0.7560 H   0  0  0  0  0  0  0  0  0  0  0  0
    2.9806   -0.7628   -0.4775 H   0  0  0  0  0  0  0  0  0  0  0  0
   -0.4382   -1.8291   -1.2484 H   0  0  0  0  0  0  0  0  0  0  0  0
   -0.0574   -0.6817   -2.5411 H   0  0  0  0  0  0  0  0  0  0  0  0
   -2.3596   -0.4042   -1.6943 H   0  0  0  0  0  0  0  0  0  0  0  0
   -1.4190    1.0805   -1.4355 H   0  0  0  0  0  0  0  0  0  0  0  0
   -2.4303   -1.1520    2.6004 H   0  0  0  0  0  0  0  0  0  0  0  0
   -4.6523   -1.2072    3.6717 H   0  0  0  0  0  0  0  0  0  0  0  0
   -7.3438   -0.2339    3.1771 H   0  0  0  0  0  0  0  0  0  0  0  0
   -8.0406    0.6608   -1.0848 H   0  0  0  0  0  0  0  0  0  0  0  0
   -9.3582    1.3417   -1.8361 H   0  0  0  0  0  0  0  0  0  0  0  0
  -11.4229    1.2843   -1.9441 H   0  0  0  0  0  0  0  0  0  0  0  0
  -13.5571    1.7881   -2.8766 H   0  0  0  0  0  0  0  0  0  0  0  0
  -14.8352    2.3961   -1.9579 H   0  0  0  0  0  0  0  0  0  0  0  0
  -14.6570    2.7755    0.4292 H   0  0  0  0  0  0  0  0  0  0  0  0
  -13.3632    2.3833    2.4772 H   0  0  0  0  0  0  0  0  0  0  0  0
  -11.3055    1.6632    3.4989 H   0  0  0  0  0  0  0  0  0  0  0  0
   -4.0286    1.0231   -0.7662 H   0  0  0  0  0  0  0  0  0  0  0  0
   -0.8004    0.3378    2.2016 H   0  0  0  0  0  0  0  0  0  0  0  0
   -0.4806    1.5100    0.9270 H   0  0  0  0  0  0  0  0  0  0  0  0
    0.5055   -1.3949    1.0693 H   0  0  0  0  0  0  0  0  0  0  0  0
    1.4853    0.0592    1.3112 H   0  0  0  0  0  0  0  0  0  0  0  0
  1  2  1  0  0  0  0
  1 30  1  0  0  0  0
  1 31  1  0  0  0  0
  1 32  1  0  0  0  0
  2  3  1  0  0  0  0
  2 29  1  0  0  0  0
  3  4  1  0  0  0  0
  3 33  1  0  0  0  0
  3 34  1  0  0  0  0
  4  5  1  0  0  0  0
  4 35  1  0  0  0  0
  4 36  1  0  0  0  0
  5  6  1  0  0  0  0
  5 28  1  0  0  0  0
  6  7  1  0  0  0  0
  6 27  2  0  0  0  0
  7  8  2  0  0  0  0
  7 37  1  0  0  0  0
  8  9  1  0  0  0  0
  8 38  1  0  0  0  0
  9 10  1  0  0  0  0
  9 26  2  0  0  0  0
 10 11  1  0  0  0  0
 10 39  1  0  0  0  0
 11 12  1  0  0  0  0
 11 25  2  0  0  0  0
 12 13  2  0  0  0  0
 12 23  1  0  0  0  0
 13 14  1  0  0  0  0
 13 15  1  0  0  0  0
 14 40  1  0  0  0  0
 14 41  1  0  0  0  0
 15 16  1  0  0  0  0
 15 21  2  0  0  0  0
 16 17  2  0  0  0  0
 16 42  1  0  0  0  0
 17 18  1  0  0  0  0
 17 19  1  0  0  0  0
 18 43  1  0  0  0  0
 18 44  1  0  0  0  0
 19 20  2  0  0  0  0
 19 45  1  0  0  0  0
 20 21  1  0  0  0  0
 20 46  1  0  0  0  0
 21 22  1  0  0  0  0
 22 23  1  0  0  0  0
 22 47  1  0  0  0  0
 23 24  2  0  0  0  0
 25 26  1  0  0  0  0
 26 27  1  0  0  0  0
 27 48  1  0  0  0  0
 28 29  1  0  0  0  0
 28 49  1  0  0  0  0
 28 50  1  0  0  0  0
 29 51  1  0  0  0  0
 29 52  1  0  0  0  0
M  END
$$$$
