CHEMBL3644033
 OpenBabel04072215373D

 45 46  0  0  1  0  0  0  0  0999 V2000
    6.4656    0.3299   -0.4798 C   0  0  0  0  0  0  0  0  0  0  0  0
    4.9932    0.6470   -0.2691 C   0  0  1  0  0  0  0  0  0  0  0  0
    4.2982    0.3224   -1.4785 O   0  0  0  0  0  0  0  0  0  0  0  0
    4.3681   -0.0816    0.9449 C   0  0  1  0  0  0  0  0  0  0  0  0
    2.8852    0.2938    1.0568 C   0  0  0  0  0  0  0  0  0  0  0  0
    4.4215   -1.5055    0.7424 O   0  0  0  0  0  0  0  0  0  0  0  0
    5.1932   -2.2561    1.6065 C   0  0  0  0  0  0  0  0  0  0  0  0
    6.1787   -1.6507    2.3155 N   0  0  0  0  0  0  0  0  0  0  0  0
    6.9789   -2.4514    3.0434 C   0  0  0  0  0  0  0  0  0  0  0  0
    8.1030   -1.9168    3.6747 N   0  0  0  0  0  0  0  0  0  0  0  0
    9.3189   -2.5806    3.9293 C   0  0  0  0  0  0  0  0  0  0  0  0
    9.7557   -3.6515    3.1275 C   0  0  0  0  0  0  0  0  0  0  0  0
   10.8924   -4.3976    3.4484 C   0  0  0  0  0  0  0  0  0  0  0  0
   11.6124   -4.0790    4.5966 C   0  0  0  0  0  0  0  0  0  0  0  0
   12.9699   -5.1215    5.0850 S   0  0  0  0  0  0  0  0  0  0  0  0
   14.3753   -4.4024    4.2803 C   0  0  0  0  0  0  0  0  0  0  0  0
   13.1459   -4.9654    6.5163 O   0  0  0  0  0  0  0  0  0  0  0  0
   12.7452   -6.4321    4.5058 O   0  0  0  0  0  0  0  0  0  0  0  0
   11.2070   -3.0175    5.4109 C   0  0  0  0  0  0  0  0  0  0  0  0
   10.0720   -2.2651    5.0673 C   0  0  0  0  0  0  0  0  0  0  0  0
    6.7706   -3.7687    3.1734 N   0  0  0  0  0  0  0  0  0  0  0  0
    5.7770   -4.3239    2.4715 C   0  0  0  0  0  0  0  0  0  0  0  0
    4.9740   -3.6138    1.6173 C   0  0  0  0  0  0  0  0  0  0  0  0
    4.0099   -4.3652    0.7792 C   0  0  0  0  0  0  0  0  0  0  0  0
    3.2642   -3.6288   -0.0845 F   0  0  0  0  0  0  0  0  0  0  0  0
    4.6464   -5.2953    0.0071 F   0  0  0  0  0  0  0  0  0  0  0  0
    3.1205   -5.0756    1.5291 F   0  0  0  0  0  0  0  0  0  0  0  0
    6.8321    0.8273   -1.3849 H   0  0  0  0  0  0  0  0  0  0  0  0
    6.6284   -0.7419   -0.6299 H   0  0  0  0  0  0  0  0  0  0  0  0
    7.0662    0.6664    0.3701 H   0  0  0  0  0  0  0  0  0  0  0  0
    4.8873    1.7294   -0.1292 H   0  0  0  0  0  0  0  0  0  0  0  0
    4.2879   -0.6491   -1.5502 H   0  0  0  0  0  0  0  0  0  0  0  0
    4.8662    0.2393    1.8667 H   0  0  0  0  0  0  0  0  0  0  0  0
    2.3130   -0.0649    0.1932 H   0  0  0  0  0  0  0  0  0  0  0  0
    2.7557    1.3788    1.1314 H   0  0  0  0  0  0  0  0  0  0  0  0
    2.4358   -0.1700    1.9408 H   0  0  0  0  0  0  0  0  0  0  0  0
    8.0872   -0.9138    3.7514 H   0  0  0  0  0  0  0  0  0  0  0  0
    9.1958   -3.9335    2.2383 H   0  0  0  0  0  0  0  0  0  0  0  0
   11.1737   -5.2400    2.8208 H   0  0  0  0  0  0  0  0  0  0  0  0
   14.5070   -3.3805    4.6359 H   0  0  0  0  0  0  0  0  0  0  0  0
   14.2226   -4.4247    3.1959 H   0  0  0  0  0  0  0  0  0  0  0  0
   15.2563   -5.0000    4.5398 H   0  0  0  0  0  0  0  0  0  0  0  0
   11.7358   -2.7947    6.3347 H   0  0  0  0  0  0  0  0  0  0  0  0
    9.7423   -1.4741    5.7366 H   0  0  0  0  0  0  0  0  0  0  0  0
    5.6740   -5.3965    2.6052 H   0  0  0  0  0  0  0  0  0  0  0  0
  1  2  1  0  0  0  0
  1 28  1  0  0  0  0
  1 29  1  0  0  0  0
  1 30  1  0  0  0  0
  2  3  1  0  0  0  0
  2  4  1  0  0  0  0
  2 31  1  1  0  0  0
  3 32  1  0  0  0  0
  4  5  1  0  0  0  0
  4  6  1  0  0  0  0
  4 33  1  1  0  0  0
  5 34  1  0  0  0  0
  5 35  1  0  0  0  0
  5 36  1  0  0  0  0
  6  7  1  0  0  0  0
  7  8  1  0  0  0  0
  7 23  2  0  0  0  0
  8  9  2  0  0  0  0
  9 10  1  0  0  0  0
  9 21  1  0  0  0  0
 10 11  1  0  0  0  0
 10 37  1  0  0  0  0
 11 12  1  0  0  0  0
 11 20  2  0  0  0  0
 12 13  2  0  0  0  0
 12 38  1  0  0  0  0
 13 14  1  0  0  0  0
 13 39  1  0  0  0  0
 14 15  1  0  0  0  0
 14 19  2  0  0  0  0
 15 16  1  0  0  0  0
 15 17  2  0  0  0  0
 15 18  2  0  0  0  0
 16 40  1  0  0  0  0
 16 41  1  0  0  0  0
 16 42  1  0  0  0  0
 19 20  1  0  0  0  0
 19 43  1  0  0  0  0
 20 44  1  0  0  0  0
 21 22  2  0  0  0  0
 22 23  1  0  0  0  0
 22 45  1  0  0  0  0
 23 24  1  0  0  0  0
 24 25  1  0  0  0  0
 24 26  1  0  0  0  0
 24 27  1  0  0  0  0
M  END
$$$$
