CHEMBL413581
 OpenBabel04072215383D

 51 55  0  0  0  0  0  0  0  0999 V2000
    1.9400    0.0110   -1.0403 C   0  0  0  0  0  0  0  0  0  0  0  0
    0.4932    0.1989   -1.0703 N   0  0  0  0  0  0  0  0  0  0  0  0
   -0.2086   -1.0434   -0.7096 C   0  0  0  0  0  0  0  0  0  0  0  0
   -1.7395   -0.8366   -0.7199 C   0  0  0  0  0  0  0  0  0  0  0  0
   -2.2156    0.2000    0.2223 N   0  0  0  0  0  0  0  0  0  0  0  0
   -2.0434   -0.1553    1.6438 C   0  0  0  0  0  0  0  0  0  0  0  0
   -2.7653   -1.4201    2.0807 C   0  0  0  0  0  0  0  0  0  0  0  0
   -2.1079   -2.6769    1.9879 C   0  0  0  0  0  0  0  0  0  0  0  0
   -2.7401   -3.8747    2.3264 C   0  0  0  0  0  0  0  0  0  0  0  0
   -4.0202   -3.7830    2.8086 C   0  0  0  0  0  0  0  0  0  0  0  0
   -4.6909   -2.5397    2.9702 C   0  0  0  0  0  0  0  0  0  0  0  0
   -4.0760   -1.3572    2.5841 C   0  0  0  0  0  0  0  0  0  0  0  0
   -6.0792   -2.6872    3.6183 C   0  0  0  0  0  0  0  0  0  0  0  0
   -6.0769   -4.1739    3.7453 C   0  0  0  0  0  0  0  0  0  0  0  0
   -6.8829   -5.2317    4.1980 C   0  0  0  0  0  0  0  0  0  0  0  0
   -8.2057   -5.1443    4.8128 C   0  0  0  0  0  0  0  0  0  0  0  0
   -9.1363   -6.1826    4.6669 C   0  0  0  0  0  0  0  0  0  0  0  0
  -10.4295   -6.0514    5.1831 C   0  0  0  0  0  0  0  0  0  0  0  0
  -10.7862   -4.8842    5.8501 C   0  0  0  0  0  0  0  0  0  0  0  0
  -12.0469   -4.6935    6.3310 O   0  0  0  0  0  0  0  0  0  0  0  0
   -9.8655   -3.8635    6.0444 C   0  0  0  0  0  0  0  0  0  0  0  0
   -8.5769   -3.9967    5.5303 C   0  0  0  0  0  0  0  0  0  0  0  0
   -6.2660   -6.4190    3.9621 N   0  0  0  0  0  0  0  0  0  0  0  0
   -5.0739   -6.0881    3.4013 N   0  0  0  0  0  0  0  0  0  0  0  0
   -4.9345   -4.7584    3.2787 C   0  0  0  0  0  0  0  0  0  0  0  0
   -1.4759    1.4478   -0.0971 C   0  0  0  0  0  0  0  0  0  0  0  0
    0.0700    1.2993   -0.1831 C   0  0  0  0  0  0  0  0  0  0  0  0
    2.2351   -0.8075   -1.7058 H   0  0  0  0  0  0  0  0  0  0  0  0
    2.3109   -0.2166   -0.0349 H   0  0  0  0  0  0  0  0  0  0  0  0
    2.4496    0.9100   -1.4031 H   0  0  0  0  0  0  0  0  0  0  0  0
    0.1249   -1.3948    0.2740 H   0  0  0  0  0  0  0  0  0  0  0  0
    0.0380   -1.8326   -1.4293 H   0  0  0  0  0  0  0  0  0  0  0  0
   -2.2553   -1.7881   -0.5596 H   0  0  0  0  0  0  0  0  0  0  0  0
   -2.0392   -0.5360   -1.7342 H   0  0  0  0  0  0  0  0  0  0  0  0
   -2.4394    0.6690    2.2533 H   0  0  0  0  0  0  0  0  0  0  0  0
   -0.9889   -0.2428    1.9297 H   0  0  0  0  0  0  0  0  0  0  0  0
   -1.0822   -2.7230    1.6333 H   0  0  0  0  0  0  0  0  0  0  0  0
   -2.2310   -4.8247    2.2253 H   0  0  0  0  0  0  0  0  0  0  0  0
   -4.5919   -0.4066    2.6833 H   0  0  0  0  0  0  0  0  0  0  0  0
   -6.8709   -2.3255    2.9582 H   0  0  0  0  0  0  0  0  0  0  0  0
   -6.0919   -2.1946    4.5931 H   0  0  0  0  0  0  0  0  0  0  0  0
   -8.8597   -7.0895    4.1336 H   0  0  0  0  0  0  0  0  0  0  0  0
  -11.1370   -6.8622    5.0462 H   0  0  0  0  0  0  0  0  0  0  0  0
  -12.6059   -5.4226    6.0167 H   0  0  0  0  0  0  0  0  0  0  0  0
  -10.1500   -2.9643    6.5823 H   0  0  0  0  0  0  0  0  0  0  0  0
   -7.8691   -3.1931    5.7065 H   0  0  0  0  0  0  0  0  0  0  0  0
   -4.4378   -6.8311    3.1339 H   0  0  0  0  0  0  0  0  0  0  0  0
   -1.7293    2.2350    0.6231 H   0  0  0  0  0  0  0  0  0  0  0  0
   -1.8386    1.8128   -1.0681 H   0  0  0  0  0  0  0  0  0  0  0  0
    0.4732    1.1536    0.8273 H   0  0  0  0  0  0  0  0  0  0  0  0
    0.4838    2.2421   -0.5609 H   0  0  0  0  0  0  0  0  0  0  0  0
  1  2  1  0  0  0  0
  1 28  1  0  0  0  0
  1 29  1  0  0  0  0
  1 30  1  0  0  0  0
  2  3  1  0  0  0  0
  2 27  1  0  0  0  0
  3  4  1  0  0  0  0
  3 31  1  0  0  0  0
  3 32  1  0  0  0  0
  4  5  1  0  0  0  0
  4 33  1  0  0  0  0
  4 34  1  0  0  0  0
  5  6  1  0  0  0  0
  5 26  1  0  0  0  0
  6  7  1  0  0  0  0
  6 35  1  0  0  0  0
  6 36  1  0  0  0  0
  7  8  1  0  0  0  0
  7 12  2  0  0  0  0
  8  9  2  0  0  0  0
  8 37  1  0  0  0  0
  9 10  1  0  0  0  0
  9 38  1  0  0  0  0
 10 11  2  0  0  0  0
 10 25  1  0  0  0  0
 11 12  1  0  0  0  0
 11 13  1  0  0  0  0
 12 39  1  0  0  0  0
 13 14  1  0  0  0  0
 13 40  1  0  0  0  0
 13 41  1  0  0  0  0
 14 15  1  0  0  0  0
 14 25  2  0  0  0  0
 15 16  1  0  0  0  0
 15 23  2  0  0  0  0
 16 17  1  0  0  0  0
 16 22  2  0  0  0  0
 17 18  2  0  0  0  0
 17 42  1  0  0  0  0
 18 19  1  0  0  0  0
 18 43  1  0  0  0  0
 19 20  1  0  0  0  0
 19 21  2  0  0  0  0
 20 44  1  0  0  0  0
 21 22  1  0  0  0  0
 21 45  1  0  0  0  0
 22 46  1  0  0  0  0
 23 24  1  0  0  0  0
 24 25  1  0  0  0  0
 24 47  1  0  0  0  0
 26 27  1  0  0  0  0
 26 48  1  0  0  0  0
 26 49  1  0  0  0  0
 27 50  1  0  0  0  0
 27 51  1  0  0  0  0
M  END
$$$$
