CHEMBL3099458
 OpenBabel04072215363D

 73 75  0  0  0  0  0  0  0  0999 V2000
    2.8535   -0.9924   -2.0007 C   0  0  0  0  0  0  0  0  0  0  0  0
    3.4307   -0.2899   -0.9056 O   0  0  0  0  0  0  0  0  0  0  0  0
    3.6700   -0.9768    0.2555 C   0  0  0  0  0  0  0  0  0  0  0  0
    3.3151   -2.3132    0.4590 C   0  0  0  0  0  0  0  0  0  0  0  0
    3.7344   -3.0670    1.5901 C   0  0  0  0  0  0  0  0  0  0  0  0
    3.4122   -4.5248    1.7118 C   0  0  0  0  0  0  0  0  0  0  0  0
    3.2644   -5.2303    0.5010 C   0  0  0  0  0  0  0  0  0  0  0  0
    3.0056   -6.5918    0.3931 C   0  0  0  0  0  0  0  0  0  0  0  0
    2.8341   -7.2310   -0.8715 N   0  0  0  0  0  0  0  0  0  0  0  0
    2.9322   -6.6043   -2.0997 C   0  0  0  0  0  0  0  0  0  0  0  0
    3.1802   -5.4170   -2.2737 O   0  0  0  0  0  0  0  0  0  0  0  0
    2.6987   -7.4466   -3.1903 N   0  0  0  0  0  0  0  0  0  0  0  0
    2.8084   -6.8745   -4.4848 C   0  0  0  0  0  0  0  0  0  0  0  0
    3.9797   -6.2129   -4.8786 C   0  0  0  0  0  0  0  0  0  0  0  0
    4.0505   -5.5405   -6.1012 C   0  0  0  0  0  0  0  0  0  0  0  0
    2.9456   -5.5108   -6.9494 C   0  0  0  0  0  0  0  0  0  0  0  0
    2.8839   -4.8251   -8.1371 O   0  0  0  0  0  0  0  0  0  0  0  0
    4.1314   -4.6971   -8.8318 C   0  0  0  0  0  0  0  0  0  0  0  0
    3.9031   -3.9357  -10.1369 C   0  0  0  0  0  0  0  0  0  0  0  0
    5.1987   -3.7896  -10.9493 C   0  0  0  0  0  0  0  0  0  0  0  0
    5.8174   -5.0718  -11.3305 N   0  0  0  0  0  0  0  0  0  0  0  0
    4.9362   -5.8828  -12.1733 C   0  0  0  0  0  0  0  0  0  0  0  0
    7.0853   -4.8389  -12.0279 C   0  0  0  0  0  0  0  0  0  0  0  0
    1.7752   -6.1694   -6.5590 C   0  0  0  0  0  0  0  0  0  0  0  0
    1.7100   -6.8748   -5.3459 C   0  0  0  0  0  0  0  0  0  0  0  0
    2.9089   -7.3146    1.5763 C   0  0  0  0  0  0  0  0  0  0  0  0
    3.0550   -6.6730    2.8126 C   0  0  0  0  0  0  0  0  0  0  0  0
    2.8575   -7.3729    3.9806 O   0  0  0  0  0  0  0  0  0  0  0  0
    3.5139   -8.6316    4.0678 C   0  0  0  0  0  0  0  0  0  0  0  0
    3.3009   -5.2741    2.9031 C   0  0  0  0  0  0  0  0  0  0  0  0
    3.3972   -4.5889    4.0985 O   0  0  0  0  0  0  0  0  0  0  0  0
    3.8461   -5.3192    5.2410 C   0  0  0  0  0  0  0  0  0  0  0  0
    4.5599   -2.4064    2.5045 C   0  0  0  0  0  0  0  0  0  0  0  0
    4.8489   -1.0471    2.3646 C   0  0  0  0  0  0  0  0  0  0  0  0
    4.3569   -0.3157    1.2723 C   0  0  0  0  0  0  0  0  0  0  0  0
    4.5735    1.1590    1.2581 C   0  0  0  0  0  0  0  0  0  0  0  0
    3.5507    2.0660    0.6244 C   0  0  0  0  0  0  0  0  0  0  0  0
    5.5545    1.6270    1.8413 O   0  0  0  0  0  0  0  0  0  0  0  0
    2.7678   -0.2921   -2.8376 H   0  0  0  0  0  0  0  0  0  0  0  0
    1.8433   -1.3328   -1.7525 H   0  0  0  0  0  0  0  0  0  0  0  0
    3.4893   -1.8230   -2.3232 H   0  0  0  0  0  0  0  0  0  0  0  0
    2.7049   -2.7947   -0.2978 H   0  0  0  0  0  0  0  0  0  0  0  0
    3.4017   -4.6628   -0.4052 H   0  0  0  0  0  0  0  0  0  0  0  0
    2.6819   -8.2298   -0.8661 H   0  0  0  0  0  0  0  0  0  0  0  0
    1.9300   -8.0815   -3.0424 H   0  0  0  0  0  0  0  0  0  0  0  0
    4.8427   -6.1849   -4.2146 H   0  0  0  0  0  0  0  0  0  0  0  0
    4.9712   -5.0128   -6.3352 H   0  0  0  0  0  0  0  0  0  0  0  0
    4.5261   -5.6987   -9.0365 H   0  0  0  0  0  0  0  0  0  0  0  0
    4.8514   -4.1270   -8.2362 H   0  0  0  0  0  0  0  0  0  0  0  0
    3.5108   -2.9369   -9.9053 H   0  0  0  0  0  0  0  0  0  0  0  0
    3.1143   -4.4157  -10.7268 H   0  0  0  0  0  0  0  0  0  0  0  0
    5.9119   -3.2249  -10.3334 H   0  0  0  0  0  0  0  0  0  0  0  0
    4.9997   -3.1766  -11.8377 H   0  0  0  0  0  0  0  0  0  0  0  0
    4.0348   -6.1845  -11.6313 H   0  0  0  0  0  0  0  0  0  0  0  0
    5.4324   -6.8162  -12.4614 H   0  0  0  0  0  0  0  0  0  0  0  0
    4.6363   -5.3534  -13.0845 H   0  0  0  0  0  0  0  0  0  0  0  0
    7.7834   -4.2827  -11.3928 H   0  0  0  0  0  0  0  0  0  0  0  0
    6.9465   -4.2828  -12.9622 H   0  0  0  0  0  0  0  0  0  0  0  0
    7.5720   -5.7922  -12.2650 H   0  0  0  0  0  0  0  0  0  0  0  0
    0.8979   -6.1188   -7.1978 H   0  0  0  0  0  0  0  0  0  0  0  0
    0.7728   -7.3368   -5.0552 H   0  0  0  0  0  0  0  0  0  0  0  0
    2.6958   -8.3782    1.5435 H   0  0  0  0  0  0  0  0  0  0  0  0
    3.7108   -8.8293    5.1270 H   0  0  0  0  0  0  0  0  0  0  0  0
    4.4750   -8.6541    3.5419 H   0  0  0  0  0  0  0  0  0  0  0  0
    2.8411   -9.4075    3.6969 H   0  0  0  0  0  0  0  0  0  0  0  0
    4.2237   -4.6128    5.9851 H   0  0  0  0  0  0  0  0  0  0  0  0
    4.6735   -5.9950    4.9934 H   0  0  0  0  0  0  0  0  0  0  0  0
    3.0147   -5.8530    5.7146 H   0  0  0  0  0  0  0  0  0  0  0  0
    4.9925   -2.9485    3.3409 H   0  0  0  0  0  0  0  0  0  0  0  0
    5.4680   -0.5654    3.1176 H   0  0  0  0  0  0  0  0  0  0  0  0
    2.6793    1.5439    0.2218 H   0  0  0  0  0  0  0  0  0  0  0  0
    4.0246    2.6357   -0.1822 H   0  0  0  0  0  0  0  0  0  0  0  0
    3.1625    2.7512    1.3852 H   0  0  0  0  0  0  0  0  0  0  0  0
  1  2  1  0  0  0  0
  1 39  1  0  0  0  0
  1 40  1  0  0  0  0
  1 41  1  0  0  0  0
  2  3  1  0  0  0  0
  3  4  1  0  0  0  0
  3 35  2  0  0  0  0
  4  5  2  0  0  0  0
  4 42  1  0  0  0  0
  5  6  1  0  0  0  0
  5 33  1  0  0  0  0
  6  7  1  0  0  0  0
  6 30  2  0  0  0  0
  7  8  2  0  0  0  0
  7 43  1  0  0  0  0
  8  9  1  0  0  0  0
  8 26  1  0  0  0  0
  9 10  1  0  0  0  0
  9 44  1  0  0  0  0
 10 11  2  0  0  0  0
 10 12  1  0  0  0  0
 12 13  1  0  0  0  0
 12 45  1  0  0  0  0
 13 14  1  0  0  0  0
 13 25  2  0  0  0  0
 14 15  2  0  0  0  0
 14 46  1  0  0  0  0
 15 16  1  0  0  0  0
 15 47  1  0  0  0  0
 16 17  1  0  0  0  0
 16 24  2  0  0  0  0
 17 18  1  0  0  0  0
 18 19  1  0  0  0  0
 18 48  1  0  0  0  0
 18 49  1  0  0  0  0
 19 20  1  0  0  0  0
 19 50  1  0  0  0  0
 19 51  1  0  0  0  0
 20 21  1  0  0  0  0
 20 52  1  0  0  0  0
 20 53  1  0  0  0  0
 21 22  1  0  0  0  0
 21 23  1  0  0  0  0
 22 54  1  0  0  0  0
 22 55  1  0  0  0  0
 22 56  1  0  0  0  0
 23 57  1  0  0  0  0
 23 58  1  0  0  0  0
 23 59  1  0  0  0  0
 24 25  1  0  0  0  0
 24 60  1  0  0  0  0
 25 61  1  0  0  0  0
 26 27  2  0  0  0  0
 26 62  1  0  0  0  0
 27 28  1  0  0  0  0
 27 30  1  0  0  0  0
 28 29  1  0  0  0  0
 29 63  1  0  0  0  0
 29 64  1  0  0  0  0
 29 65  1  0  0  0  0
 30 31  1  0  0  0  0
 31 32  1  0  0  0  0
 32 66  1  0  0  0  0
 32 67  1  0  0  0  0
 32 68  1  0  0  0  0
 33 34  2  0  0  0  0
 33 69  1  0  0  0  0
 34 35  1  0  0  0  0
 34 70  1  0  0  0  0
 35 36  1  0  0  0  0
 36 37  1  0  0  0  0
 36 38  2  0  0  0  0
 37 71  1  0  0  0  0
 37 72  1  0  0  0  0
 37 73  1  0  0  0  0
M  END
$$$$
