CHEMBL2448065
 OpenBabel04072215363D

 56 58  0  0  0  0  0  0  0  0999 V2000
    2.7826    0.5077   -1.1963 C   0  0  0  0  0  0  0  0  0  0  0  0
    2.4700    0.0899    0.0789 O   0  0  0  0  0  0  0  0  0  0  0  0
    3.1396    0.3696    1.2277 C   0  0  0  0  0  0  0  0  0  0  0  0
    4.2564    1.2276    1.2093 C   0  0  0  0  0  0  0  0  0  0  0  0
    4.9699    1.5128    2.3788 C   0  0  0  0  0  0  0  0  0  0  0  0
    6.0821    2.3902    2.3934 C   0  0  0  0  0  0  0  0  0  0  0  0
    6.6051    2.9604    1.1914 N   0  0  0  0  0  0  0  0  0  0  0  0
    7.2466    4.2314    1.1044 C   0  0  0  0  0  0  0  0  0  0  0  0
    8.1639    4.4599    0.0613 C   0  0  0  0  0  0  0  0  0  0  0  0
    8.7645    5.7118   -0.0982 C   0  0  0  0  0  0  0  0  0  0  0  0
    8.4389    6.7593    0.7662 C   0  0  0  0  0  0  0  0  0  0  0  0
    9.1561    8.3435    0.5363 Cl  0  0  0  0  0  0  0  0  0  0  0  0
    7.5260    6.5486    1.8028 C   0  0  0  0  0  0  0  0  0  0  0  0
    6.9367    5.2928    1.9823 C   0  0  0  0  0  0  0  0  0  0  0  0
    6.0182    5.1494    2.9698 F   0  0  0  0  0  0  0  0  0  0  0  0
    6.7063    2.6398    3.5757 N   0  0  0  0  0  0  0  0  0  0  0  0
    6.3031    2.0579    4.7342 C   0  0  0  0  0  0  0  0  0  0  0  0
    5.2394    1.2111    4.7392 N   0  0  0  0  0  0  0  0  0  0  0  0
    4.5603    0.9342    3.5921 C   0  0  0  0  0  0  0  0  0  0  0  0
    3.4533    0.0699    3.6262 C   0  0  0  0  0  0  0  0  0  0  0  0
    2.7263   -0.2220    2.4587 C   0  0  0  0  0  0  0  0  0  0  0  0
    1.6572   -1.0756    2.5661 O   0  0  0  0  0  0  0  0  0  0  0  0
    0.8049   -1.4258    1.5287 C   0  0  0  0  0  0  0  0  0  0  0  0
   -0.2767   -2.4478    1.9366 C   0  0  0  0  0  0  0  0  0  0  0  0
    0.3046   -3.7882    2.4281 C   0  0  0  0  0  0  0  0  0  0  0  0
    0.9968   -4.5572    1.2874 C   0  0  0  0  0  0  0  0  0  0  0  0
    0.0527   -4.8002    0.1744 N   0  0  0  0  0  0  0  0  0  0  0  0
    0.7141   -5.5658   -0.8946 C   0  0  0  0  0  0  0  0  0  0  0  0
   -0.4916   -3.5350   -0.3651 C   0  0  0  0  0  0  0  0  0  0  0  0
   -1.2157   -2.7457    0.7433 C   0  0  0  0  0  0  0  0  0  0  0  0
    3.0594   -2.7704   -1.9073 Cl  0  0  0  0  0  0  0  0  0  0  0  0
    2.1006    0.0010   -1.9097 H   0  0  0  0  0  0  0  0  0  0  0  0
    3.8243    0.2121   -1.4468 H   0  0  0  0  0  0  0  0  0  0  0  0
    2.6515    1.6043   -1.2923 H   0  0  0  0  0  0  0  0  0  0  0  0
    4.5434    1.6763    0.2741 H   0  0  0  0  0  0  0  0  0  0  0  0
    6.5517    2.4079    0.3244 H   0  0  0  0  0  0  0  0  0  0  0  0
    8.4165    3.6632   -0.6271 H   0  0  0  0  0  0  0  0  0  0  0  0
    9.4711    5.8699   -0.9033 H   0  0  0  0  0  0  0  0  0  0  0  0
    7.2578    7.3647    2.4617 H   0  0  0  0  0  0  0  0  0  0  0  0
    6.8381    2.2592    5.6505 H   0  0  0  0  0  0  0  0  0  0  0  0
    3.1508   -0.3716    4.5683 H   0  0  0  0  0  0  0  0  0  0  0  0
    1.4056   -1.8603    0.7179 H   0  0  0  0  0  0  0  0  0  0  0  0
    0.2928   -0.5066    1.1689 H   0  0  0  0  0  0  0  0  0  0  0  0
   -0.8721   -1.9867    2.7553 H   0  0  0  0  0  0  0  0  0  0  0  0
   -0.5335   -4.4185    2.8018 H   0  0  0  0  0  0  0  0  0  0  0  0
    1.0076   -3.6237    3.2714 H   0  0  0  0  0  0  0  0  0  0  0  0
    1.3452   -5.5303    1.6978 H   0  0  0  0  0  0  0  0  0  0  0  0
    1.8953   -4.0079    0.9321 H   0  0  0  0  0  0  0  0  0  0  0  0
    1.1169   -6.5209   -0.4961 H   0  0  0  0  0  0  0  0  0  0  0  0
    1.5532   -4.9941   -1.3420 H   0  0  0  0  0  0  0  0  0  0  0  0
   -0.0133   -5.8163   -1.6966 H   0  0  0  0  0  0  0  0  0  0  0  0
   -1.2256   -3.7541   -1.1715 H   0  0  0  0  0  0  0  0  0  0  0  0
    0.3125   -2.9231   -0.8248 H   0  0  0  0  0  0  0  0  0  0  0  0
   -2.0682   -3.3644    1.0991 H   0  0  0  0  0  0  0  0  0  0  0  0
   -1.6328   -1.8012    0.3301 H   0  0  0  0  0  0  0  0  0  0  0  0
    3.2884   -2.2653   -0.6500 H   0  0  0  0  0  0  0  0  0  0  0  0
  1  2  1  0  0  0  0
  1 32  1  0  0  0  0
  1 33  1  0  0  0  0
  1 34  1  0  0  0  0
  2  3  1  0  0  0  0
  3  4  1  0  0  0  0
  3 21  2  0  0  0  0
  4  5  2  0  0  0  0
  4 35  1  0  0  0  0
  5  6  1  0  0  0  0
  5 19  1  0  0  0  0
  6  7  1  0  0  0  0
  6 16  2  0  0  0  0
  7  8  1  0  0  0  0
  7 36  1  0  0  0  0
  8  9  1  0  0  0  0
  8 14  2  0  0  0  0
  9 10  2  0  0  0  0
  9 37  1  0  0  0  0
 10 11  1  0  0  0  0
 10 38  1  0  0  0  0
 11 12  1  0  0  0  0
 11 13  2  0  0  0  0
 13 14  1  0  0  0  0
 13 39  1  0  0  0  0
 14 15  1  0  0  0  0
 16 17  1  0  0  0  0
 17 18  2  0  0  0  0
 17 40  1  0  0  0  0
 18 19  1  0  0  0  0
 19 20  2  0  0  0  0
 20 21  1  0  0  0  0
 20 41  1  0  0  0  0
 21 22  1  0  0  0  0
 22 23  1  0  0  0  0
 23 24  1  0  0  0  0
 23 42  1  0  0  0  0
 23 43  1  0  0  0  0
 24 25  1  0  0  0  0
 24 30  1  0  0  0  0
 24 44  1  0  0  0  0
 25 26  1  0  0  0  0
 25 45  1  0  0  0  0
 25 46  1  0  0  0  0
 26 27  1  0  0  0  0
 26 47  1  0  0  0  0
 26 48  1  0  0  0  0
 27 28  1  0  0  0  0
 27 29  1  0  0  0  0
 28 49  1  0  0  0  0
 28 50  1  0  0  0  0
 28 51  1  0  0  0  0
 29 30  1  0  0  0  0
 29 52  1  0  0  0  0
 29 53  1  0  0  0  0
 30 54  1  0  0  0  0
 30 55  1  0  0  0  0
 31 56  1  0  0  0  0
M  END
$$$$
