CHEMBL250198
 OpenBabel04072215363D

 37 40  0  0  0  0  0  0  0  0999 V2000
    3.1802   -0.5226    1.1167 C   0  0  0  0  0  0  0  0  0  0  0  0
    2.4198    0.1994    0.1454 O   0  0  0  0  0  0  0  0  0  0  0  0
    3.1815    0.7081   -0.8869 C   0  0  0  0  0  0  0  0  0  0  0  0
    4.2569   -0.0194   -1.4339 C   0  0  0  0  0  0  0  0  0  0  0  0
    5.0487    0.5081   -2.4471 C   0  0  0  0  0  0  0  0  0  0  0  0
    4.7922    1.7761   -2.9556 C   0  0  0  0  0  0  0  0  0  0  0  0
    3.7000    2.4906   -2.4391 C   0  0  0  0  0  0  0  0  0  0  0  0
    2.8635    1.9848   -1.4302 C   0  0  0  0  0  0  0  0  0  0  0  0
    1.8332    2.9781   -1.2144 C   0  0  0  0  0  0  0  0  0  0  0  0
    0.7183    2.8929   -0.3196 C   0  0  0  0  0  0  0  0  0  0  0  0
   -0.4626    3.5419   -0.3422 C   0  0  0  0  0  0  0  0  0  0  0  0
   -0.9847    4.5866   -1.2585 C   0  0  0  0  0  0  0  0  0  0  0  0
   -0.6014    4.9436   -2.3534 O   0  0  0  0  0  0  0  0  0  0  0  0
   -2.0941    5.0731   -0.5860 N   0  0  0  0  0  0  0  0  0  0  0  0
   -2.4560    4.3560    0.5243 N   0  0  0  0  0  0  0  0  0  0  0  0
   -1.5512    3.4178    0.6758 C   0  0  0  0  0  0  0  0  0  0  0  0
   -1.7006    2.3864    1.6538 C   0  0  0  0  0  0  0  0  0  0  0  0
   -1.2816    1.0682    1.6852 C   0  0  0  0  0  0  0  0  0  0  0  0
   -1.6823    0.3389    2.7934 N   0  0  0  0  0  0  0  0  0  0  0  0
   -2.4187    1.0684    3.6138 N   0  0  0  0  0  0  0  0  0  0  0  0
   -2.6446    2.6325    3.0678 S   0  0  0  0  0  0  0  0  0  0  0  0
    2.1538    4.0648   -1.9963 C   0  0  0  0  0  0  0  0  0  0  0  0
    3.2362    3.7440   -2.7657 N   0  0  0  0  0  0  0  0  0  0  0  0
    3.8157    4.6080   -3.7697 C   0  0  0  0  0  0  0  0  0  0  0  0
    2.5476   -0.6833    1.9951 H   0  0  0  0  0  0  0  0  0  0  0  0
    4.0654    0.0406    1.4373 H   0  0  0  0  0  0  0  0  0  0  0  0
    3.4661   -1.5118    0.7416 H   0  0  0  0  0  0  0  0  0  0  0  0
    4.4920   -1.0199   -1.0851 H   0  0  0  0  0  0  0  0  0  0  0  0
    5.8775   -0.0734   -2.8441 H   0  0  0  0  0  0  0  0  0  0  0  0
    5.4191    2.1886   -3.7401 H   0  0  0  0  0  0  0  0  0  0  0  0
    0.8885    2.1997    0.4999 H   0  0  0  0  0  0  0  0  0  0  0  0
   -2.7127    5.7764   -0.9732 H   0  0  0  0  0  0  0  0  0  0  0  0
   -0.7066    0.5606    0.9212 H   0  0  0  0  0  0  0  0  0  0  0  0
    1.6960    5.0387   -2.1013 H   0  0  0  0  0  0  0  0  0  0  0  0
    3.2023    5.5054   -3.8824 H   0  0  0  0  0  0  0  0  0  0  0  0
    3.8490    4.0656   -4.7183 H   0  0  0  0  0  0  0  0  0  0  0  0
    4.8226    4.8825   -3.4450 H   0  0  0  0  0  0  0  0  0  0  0  0
  1  2  1  0  0  0  0
  1 25  1  0  0  0  0
  1 26  1  0  0  0  0
  1 27  1  0  0  0  0
  2  3  1  0  0  0  0
  3  4  1  0  0  0  0
  3  8  2  0  0  0  0
  4  5  2  0  0  0  0
  4 28  1  0  0  0  0
  5  6  1  0  0  0  0
  5 29  1  0  0  0  0
  6  7  2  0  0  0  0
  6 30  1  0  0  0  0
  7  8  1  0  0  0  0
  7 23  1  0  0  0  0
  8  9  1  0  0  0  0
  9 10  1  0  0  0  0
  9 22  2  0  0  0  0
 10 11  2  0  0  0  0
 10 31  1  0  0  0  0
 11 12  1  0  0  0  0
 11 16  1  0  0  0  0
 12 13  2  0  0  0  0
 12 14  1  0  0  0  0
 14 15  1  0  0  0  0
 14 32  1  0  0  0  0
 15 16  2  0  0  0  0
 16 17  1  0  0  0  0
 17 18  2  0  0  0  0
 17 21  1  0  0  0  0
 18 19  1  0  0  0  0
 18 33  1  0  0  0  0
 19 20  2  0  0  0  0
 20 21  1  0  0  0  0
 22 23  1  0  0  0  0
 22 34  1  0  0  0  0
 23 24  1  0  0  0  0
 24 35  1  0  0  0  0
 24 36  1  0  0  0  0
 24 37  1  0  0  0  0
M  END
$$$$
