CHEMBL1241943
 OpenBabel04072215363D

 47 50  0  0  1  0  0  0  0  0999 V2000
    1.0733    0.3371    0.0018 N   0  0  0  0  0  0  0  0  0  0  0  0
    2.4487    0.1480   -0.0460 C   0  0  0  0  0  0  0  0  0  0  0  0
    3.1973    1.2698   -0.0729 N   0  0  0  0  0  0  0  0  0  0  0  0
    4.5386    1.1552   -0.1219 C   0  0  0  0  0  0  0  0  0  0  0  0
    5.2708    0.0301   -0.1271 N   0  0  0  0  0  0  0  0  0  0  0  0
    4.4910   -1.0613   -0.0950 C   0  0  0  0  0  0  0  0  0  0  0  0
    3.1004   -1.0966   -0.0701 C   0  0  0  0  0  0  0  0  0  0  0  0
    2.7714   -2.4887   -0.1065 C   0  0  0  0  0  0  0  0  0  0  0  0
    1.4652   -3.1518   -0.2161 C   0  0  0  0  0  0  0  0  0  0  0  0
    0.4113   -2.5732   -0.9396 C   0  0  0  0  0  0  0  0  0  0  0  0
   -0.8387   -3.1961   -1.0193 C   0  0  0  0  0  0  0  0  0  0  0  0
   -1.0234   -4.4429   -0.4326 C   0  0  0  0  0  0  0  0  0  0  0  0
   -2.5582   -5.2195   -0.5526 Cl  0  0  0  0  0  0  0  0  0  0  0  0
    0.0353   -5.0622    0.2322 C   0  0  0  0  0  0  0  0  0  0  0  0
   -0.0843   -6.3107    0.7777 O   0  0  0  0  0  0  0  0  0  0  0  0
    1.2660   -4.4213    0.3522 C   0  0  0  0  0  0  0  0  0  0  0  0
    3.8807   -3.2423   -0.0327 N   0  0  0  0  0  0  0  0  0  0  0  0
    4.9031   -2.3670   -0.1013 N   0  0  0  0  0  0  0  0  0  0  0  0
    6.2746   -2.8630   -0.1764 C   0  0  0  0  0  0  0  0  0  0  0  0
    6.3621   -4.2207   -0.8792 C   0  0  0  0  0  0  0  0  0  0  0  0
    7.7563   -4.8805   -0.9494 C   0  0  3  0  0  0  0  0  0  0  0  0
    8.8160   -4.0626   -1.7023 C   0  0  0  0  0  0  0  0  0  0  0  0
    8.5045   -3.9772   -3.1951 C   0  0  0  0  0  0  0  0  0  0  0  0
    8.2236   -5.3539   -3.8023 C   0  0  0  0  0  0  0  0  0  0  0  0
    7.2304   -6.1080   -3.0402 N   0  0  0  0  0  0  0  0  0  0  0  0
    7.6237   -6.2563   -1.6371 C   0  0  0  0  0  0  0  0  0  0  0  0
    0.8337    1.3001    0.2071 H   0  0  0  0  0  0  0  0  0  0  0  0
    0.5342   -0.3708    0.4817 H   0  0  0  0  0  0  0  0  0  0  0  0
    5.0894    2.0897   -0.1662 H   0  0  0  0  0  0  0  0  0  0  0  0
    0.5512   -1.6345   -1.4720 H   0  0  0  0  0  0  0  0  0  0  0  0
   -1.6481   -2.7083   -1.5542 H   0  0  0  0  0  0  0  0  0  0  0  0
   -0.9698   -6.6453    0.5410 H   0  0  0  0  0  0  0  0  0  0  0  0
    2.0791   -4.9248    0.8711 H   0  0  0  0  0  0  0  0  0  0  0  0
    6.6400   -2.9240    0.8544 H   0  0  0  0  0  0  0  0  0  0  0  0
    6.8606   -2.1095   -0.7160 H   0  0  0  0  0  0  0  0  0  0  0  0
    5.9342   -4.1132   -1.8834 H   0  0  0  0  0  0  0  0  0  0  0  0
    5.7092   -4.9284   -0.3509 H   0  0  0  0  0  0  0  0  0  0  0  0
    8.1106   -5.0391    0.0776 H   0  0  0  0  0  0  0  0  0  0  0  0
    9.7889   -4.5551   -1.5774 H   0  0  0  0  0  0  0  0  0  0  0  0
    8.9240   -3.0623   -1.2758 H   0  0  0  0  0  0  0  0  0  0  0  0
    9.3502   -3.5158   -3.7179 H   0  0  0  0  0  0  0  0  0  0  0  0
    7.6415   -3.3193   -3.3515 H   0  0  0  0  0  0  0  0  0  0  0  0
    9.1524   -5.9318   -3.8709 H   0  0  0  0  0  0  0  0  0  0  0  0
    7.8541   -5.2200   -4.8252 H   0  0  0  0  0  0  0  0  0  0  0  0
    7.0955   -7.0268   -3.4597 H   0  0  0  0  0  0  0  0  0  0  0  0
    8.5664   -6.8131   -1.5676 H   0  0  0  0  0  0  0  0  0  0  0  0
    6.8664   -6.8565   -1.1190 H   0  0  0  0  0  0  0  0  0  0  0  0
  1  2  1  0  0  0  0
  1 27  1  0  0  0  0
  1 28  1  0  0  0  0
  2  3  1  0  0  0  0
  2  7  2  0  0  0  0
  3  4  2  0  0  0  0
  4  5  1  0  0  0  0
  4 29  1  0  0  0  0
  5  6  2  0  0  0  0
  6  7  1  0  0  0  0
  6 18  1  0  0  0  0
  7  8  1  0  0  0  0
  8  9  1  0  0  0  0
  8 17  2  0  0  0  0
  9 10  1  0  0  0  0
  9 16  2  0  0  0  0
 10 11  2  0  0  0  0
 10 30  1  0  0  0  0
 11 12  1  0  0  0  0
 11 31  1  0  0  0  0
 12 13  1  0  0  0  0
 12 14  2  0  0  0  0
 14 15  1  0  0  0  0
 14 16  1  0  0  0  0
 15 32  1  0  0  0  0
 16 33  1  0  0  0  0
 17 18  1  0  0  0  0
 18 19  1  0  0  0  0
 19 20  1  0  0  0  0
 19 34  1  0  0  0  0
 19 35  1  0  0  0  0
 20 21  1  0  0  0  0
 20 36  1  0  0  0  0
 20 37  1  0  0  0  0
 21 22  1  0  0  0  0
 21 26  1  0  0  0  0
 21 38  1  0  0  0  0
 22 23  1  0  0  0  0
 22 39  1  0  0  0  0
 22 40  1  0  0  0  0
 23 24  1  0  0  0  0
 23 41  1  0  0  0  0
 23 42  1  0  0  0  0
 24 25  1  0  0  0  0
 24 43  1  0  0  0  0
 24 44  1  0  0  0  0
 25 26  1  0  0  0  0
 25 45  1  0  0  0  0
 26 46  1  0  0  0  0
 26 47  1  0  0  0  0
M  END
$$$$
