CHEMBL3706818
 OpenBabel04072215373D

 43 45  0  0  0  0  0  0  0  0999 V2000
    1.0314   -0.7460    0.6198 C   0  0  0  0  0  0  0  0  0  0  0  0
    2.2860   -0.1808    0.2924 O   0  0  0  0  0  0  0  0  0  0  0  0
    2.7774    0.7201    1.2894 C   0  0  0  0  0  0  0  0  0  0  0  0
    4.0887    1.2573    0.7356 C   0  0  0  0  0  0  0  0  0  0  0  0
    4.7419    2.1581    1.6068 O   0  0  0  0  0  0  0  0  0  0  0  0
    6.0980    2.3125    1.4621 C   0  0  0  0  0  0  0  0  0  0  0  0
    6.6809    2.7703    2.6682 C   0  0  0  0  0  0  0  0  0  0  0  0
    8.0485    2.9491    2.8484 C   0  0  0  0  0  0  0  0  0  0  0  0
    8.5180    3.3140    4.0485 N   0  0  0  0  0  0  0  0  0  0  0  0
    9.8446    3.4316    4.1685 C   0  0  0  0  0  0  0  0  0  0  0  0
   10.7387    3.2456    3.1931 N   0  0  0  0  0  0  0  0  0  0  0  0
   10.2555    2.8930    1.9868 C   0  0  0  0  0  0  0  0  0  0  0  0
   11.1636    2.6930    0.9094 N   0  0  0  0  0  0  0  0  0  0  0  0
   12.5409    2.6634    1.1064 C   0  0  0  0  0  0  0  0  0  0  0  0
   13.1755    1.8922    2.0024 C   0  0  0  0  0  0  0  0  0  0  0  0
   14.6278    1.9514    2.2161 C   0  0  0  0  0  0  0  0  0  0  0  0
   15.1618    1.1456    2.9663 O   0  0  0  0  0  0  0  0  0  0  0  0
   15.3703    3.0324    1.5142 C   0  0  0  0  0  0  0  0  0  0  0  0
   17.1456    3.3389    2.0056 Br  0  0  0  0  0  0  0  0  0  0  0  0
   14.7719    3.7551    0.5620 C   0  0  0  0  0  0  0  0  0  0  0  0
   13.3458    3.5506    0.2179 C   0  0  0  0  0  0  0  0  0  0  0  0
   12.8390    4.1300   -0.7384 O   0  0  0  0  0  0  0  0  0  0  0  0
    8.8833    2.6989    1.7613 C   0  0  0  0  0  0  0  0  0  0  0  0
    8.3238    2.2424    0.5495 C   0  0  0  0  0  0  0  0  0  0  0  0
    6.9434    2.0496    0.3770 C   0  0  0  0  0  0  0  0  0  0  0  0
    6.6953    1.4644   -0.8303 O   0  0  0  0  0  0  0  0  0  0  0  0
    5.6584    1.9383   -1.6706 C   0  0  0  0  0  0  0  0  0  0  0  0
    0.7487   -1.4212   -0.1932 H   0  0  0  0  0  0  0  0  0  0  0  0
    0.2711    0.0347    0.7047 H   0  0  0  0  0  0  0  0  0  0  0  0
    1.1013   -1.3220    1.5457 H   0  0  0  0  0  0  0  0  0  0  0  0
    2.9305    0.2042    2.2426 H   0  0  0  0  0  0  0  0  0  0  0  0
    2.0662    1.5404    1.4457 H   0  0  0  0  0  0  0  0  0  0  0  0
    3.7974    1.8072   -0.1586 H   0  0  0  0  0  0  0  0  0  0  0  0
    4.7287    0.4060    0.4795 H   0  0  0  0  0  0  0  0  0  0  0  0
    6.0279    2.9502    3.5247 H   0  0  0  0  0  0  0  0  0  0  0  0
   10.2362    3.7134    5.1393 H   0  0  0  0  0  0  0  0  0  0  0  0
   10.9232    3.3311    0.1441 H   0  0  0  0  0  0  0  0  0  0  0  0
   12.6303    1.2041    2.6356 H   0  0  0  0  0  0  0  0  0  0  0  0
   15.2846    4.5341    0.0116 H   0  0  0  0  0  0  0  0  0  0  0  0
    8.9817    1.9958   -0.2843 H   0  0  0  0  0  0  0  0  0  0  0  0
    6.0576    2.1114   -2.6743 H   0  0  0  0  0  0  0  0  0  0  0  0
    5.1863    2.8620   -1.3250 H   0  0  0  0  0  0  0  0  0  0  0  0
    4.9306    1.1266   -1.7788 H   0  0  0  0  0  0  0  0  0  0  0  0
  1  2  1  0  0  0  0
  1 28  1  0  0  0  0
  1 29  1  0  0  0  0
  1 30  1  0  0  0  0
  2  3  1  0  0  0  0
  3  4  1  0  0  0  0
  3 31  1  0  0  0  0
  3 32  1  0  0  0  0
  4  5  1  0  0  0  0
  4 33  1  0  0  0  0
  4 34  1  0  0  0  0
  5  6  1  0  0  0  0
  6  7  1  0  0  0  0
  6 25  2  0  0  0  0
  7  8  2  0  0  0  0
  7 35  1  0  0  0  0
  8  9  1  0  0  0  0
  8 23  1  0  0  0  0
  9 10  2  0  0  0  0
 10 11  1  0  0  0  0
 10 36  1  0  0  0  0
 11 12  2  0  0  0  0
 12 13  1  0  0  0  0
 12 23  1  0  0  0  0
 13 14  1  0  0  0  0
 13 37  1  0  0  0  0
 14 15  2  0  0  0  0
 14 21  1  0  0  0  0
 15 16  1  0  0  0  0
 15 38  1  0  0  0  0
 16 17  2  0  0  0  0
 16 18  1  0  0  0  0
 18 19  1  0  0  0  0
 18 20  2  0  0  0  0
 20 21  1  0  0  0  0
 20 39  1  0  0  0  0
 21 22  2  0  0  0  0
 23 24  2  0  0  0  0
 24 25  1  0  0  0  0
 24 40  1  0  0  0  0
 25 26  1  0  0  0  0
 26 27  1  0  0  0  0
 27 41  1  0  0  0  0
 27 42  1  0  0  0  0
 27 43  1  0  0  0  0
M  END
$$$$
