CHEMBL374044
 OpenBabel04072215373D

 46 49  0  0  0  0  0  0  0  0999 V2000
    1.2295    1.6611    2.3806 C   0  0  0  0  0  0  0  0  0  0  0  0
    0.0576    0.8364    1.9524 C   0  0  0  0  0  0  0  0  0  0  0  0
   -1.1057    1.4624    1.4811 C   0  0  0  0  0  0  0  0  0  0  0  0
   -2.2203    0.7245    1.0446 C   0  0  0  0  0  0  0  0  0  0  0  0
   -3.4002    1.3385    0.5570 N   0  0  0  0  0  0  0  0  0  0  0  0
   -3.5521    2.6849    0.3026 C   0  0  0  0  0  0  0  0  0  0  0  0
   -2.6583    3.5201    0.3937 O   0  0  0  0  0  0  0  0  0  0  0  0
   -4.8578    3.0196   -0.0345 N   0  0  0  0  0  0  0  0  0  0  0  0
   -5.1723    4.3731   -0.3045 C   0  0  0  0  0  0  0  0  0  0  0  0
   -4.3347    5.1698   -1.0901 C   0  0  0  0  0  0  0  0  0  0  0  0
   -4.5478    6.5472   -1.1890 C   0  0  0  0  0  0  0  0  0  0  0  0
   -5.6241    7.1646   -0.5351 C   0  0  0  0  0  0  0  0  0  0  0  0
   -5.8340    8.6281   -0.6064 C   0  0  0  0  0  0  0  0  0  0  0  0
   -5.5623    9.3525   -1.7944 C   0  0  0  0  0  0  0  0  0  0  0  0
   -5.8571   10.7096   -1.9289 C   0  0  0  0  0  0  0  0  0  0  0  0
   -6.4879   11.4047   -0.9022 C   0  0  0  0  0  0  0  0  0  0  0  0
   -6.7235   10.7064    0.2834 C   0  0  0  0  0  0  0  0  0  0  0  0
   -7.3363   11.0993    1.4422 N   0  0  0  0  0  0  0  0  0  0  0  0
   -7.2548   10.2100    2.4380 N   0  0  0  0  0  0  0  0  0  0  0  0
   -6.6364    9.1732    1.8813 C   0  0  0  0  0  0  0  0  0  0  0  0
   -6.2871    8.0977    2.6066 N   0  0  0  0  0  0  0  0  0  0  0  0
   -6.3604    9.3735    0.4891 C   0  0  0  0  0  0  0  0  0  0  0  0
   -6.5173    6.3189    0.1536 C   0  0  0  0  0  0  0  0  0  0  0  0
   -6.2937    4.9421    0.2825 C   0  0  0  0  0  0  0  0  0  0  0  0
   -2.1644   -0.6695    1.1125 C   0  0  0  0  0  0  0  0  0  0  0  0
   -1.0148   -1.3049    1.5927 C   0  0  0  0  0  0  0  0  0  0  0  0
    0.0805   -0.5513    2.0017 C   0  0  0  0  0  0  0  0  0  0  0  0
    1.1744   -1.1837    2.4555 F   0  0  0  0  0  0  0  0  0  0  0  0
    1.0354    2.7340    2.2554 H   0  0  0  0  0  0  0  0  0  0  0  0
    2.1069    1.4149    1.7765 H   0  0  0  0  0  0  0  0  0  0  0  0
    1.4477    1.4859    3.4366 H   0  0  0  0  0  0  0  0  0  0  0  0
   -1.1065    2.5470    1.4704 H   0  0  0  0  0  0  0  0  0  0  0  0
   -4.1445    0.7315    0.2334 H   0  0  0  0  0  0  0  0  0  0  0  0
   -5.5672    2.4811    0.4408 H   0  0  0  0  0  0  0  0  0  0  0  0
   -3.4767    4.7358   -1.5993 H   0  0  0  0  0  0  0  0  0  0  0  0
   -3.8340    7.1294   -1.7666 H   0  0  0  0  0  0  0  0  0  0  0  0
   -5.1297    8.8435   -2.6541 H   0  0  0  0  0  0  0  0  0  0  0  0
   -5.6203   11.2206   -2.8597 H   0  0  0  0  0  0  0  0  0  0  0  0
   -6.7620   12.4483   -1.0178 H   0  0  0  0  0  0  0  0  0  0  0  0
   -7.8110   11.9761    1.6208 H   0  0  0  0  0  0  0  0  0  0  0  0
   -6.3243    8.2171    3.6126 H   0  0  0  0  0  0  0  0  0  0  0  0
   -5.4937    7.5412    2.3032 H   0  0  0  0  0  0  0  0  0  0  0  0
   -7.3942    6.7354    0.6468 H   0  0  0  0  0  0  0  0  0  0  0  0
   -6.9633    4.3585    0.9073 H   0  0  0  0  0  0  0  0  0  0  0  0
   -3.0054   -1.2790    0.7948 H   0  0  0  0  0  0  0  0  0  0  0  0
   -0.9636   -2.3890    1.6495 H   0  0  0  0  0  0  0  0  0  0  0  0
  1  2  1  0  0  0  0
  1 29  1  0  0  0  0
  1 30  1  0  0  0  0
  1 31  1  0  0  0  0
  2  3  1  0  0  0  0
  2 27  2  0  0  0  0
  3  4  2  0  0  0  0
  3 32  1  0  0  0  0
  4  5  1  0  0  0  0
  4 25  1  0  0  0  0
  5  6  1  0  0  0  0
  5 33  1  0  0  0  0
  6  7  2  0  0  0  0
  6  8  1  0  0  0  0
  8  9  1  0  0  0  0
  8 34  1  0  0  0  0
  9 10  1  0  0  0  0
  9 24  2  0  0  0  0
 10 11  2  0  0  0  0
 10 35  1  0  0  0  0
 11 12  1  0  0  0  0
 11 36  1  0  0  0  0
 12 13  1  0  0  0  0
 12 23  2  0  0  0  0
 13 14  1  0  0  0  0
 13 22  2  0  0  0  0
 14 15  2  0  0  0  0
 14 37  1  0  0  0  0
 15 16  1  0  0  0  0
 15 38  1  0  0  0  0
 16 17  2  0  0  0  0
 16 39  1  0  0  0  0
 17 18  1  0  0  0  0
 17 22  1  0  0  0  0
 18 19  1  0  0  0  0
 18 40  1  0  0  0  0
 19 20  2  0  0  0  0
 20 21  1  0  0  0  0
 20 22  1  0  0  0  0
 21 41  1  0  0  0  0
 21 42  1  0  0  0  0
 23 24  1  0  0  0  0
 23 43  1  0  0  0  0
 24 44  1  0  0  0  0
 25 26  2  0  0  0  0
 25 45  1  0  0  0  0
 26 27  1  0  0  0  0
 26 46  1  0  0  0  0
 27 28  1  0  0  0  0
M  END
$$$$
