CHEMBL394620
 OpenBabel04072215373D

 46 49  0  0  0  0  0  0  0  0999 V2000
    1.2433   -5.3280    3.2170 C   0  0  0  0  0  0  0  0  0  0  0  0
   -0.0287   -4.5278    3.1927 C   0  0  0  0  0  0  0  0  0  0  0  0
   -0.7572   -4.3057    4.3640 C   0  0  0  0  0  0  0  0  0  0  0  0
   -1.9079   -3.5178    4.3324 C   0  0  0  0  0  0  0  0  0  0  0  0
   -2.3429   -2.9511    3.1315 C   0  0  0  0  0  0  0  0  0  0  0  0
   -1.6417   -3.1814    1.9423 C   0  0  0  0  0  0  0  0  0  0  0  0
   -2.0287   -2.5431    0.6259 C   0  0  0  0  0  0  0  0  0  0  0  0
   -3.4984   -2.2297    0.4389 C   0  0  0  0  0  0  0  0  0  0  0  0
   -3.9236   -1.0840    0.5795 O   0  0  0  0  0  0  0  0  0  0  0  0
   -4.2810   -3.3380    0.1309 N   0  0  0  0  0  0  0  0  0  0  0  0
   -5.6654   -3.2261   -0.1089 C   0  0  0  0  0  0  0  0  0  0  0  0
   -6.1947   -2.1747   -0.8564 C   0  0  0  0  0  0  0  0  0  0  0  0
   -7.5780   -1.9935   -0.9390 C   0  0  0  0  0  0  0  0  0  0  0  0
   -8.4576   -2.8703   -0.2843 C   0  0  0  0  0  0  0  0  0  0  0  0
   -9.9013   -2.5792   -0.2386 C   0  0  0  0  0  0  0  0  0  0  0  0
  -10.5203   -2.0629   -1.3609 C   0  0  0  0  0  0  0  0  0  0  0  0
  -12.1693   -1.7412   -1.1376 S   0  0  0  0  0  0  0  0  0  0  0  0
  -12.1284   -2.3001    0.4831 C   0  0  0  0  0  0  0  0  0  0  0  0
  -13.2313   -2.3452    1.3483 C   0  0  0  0  0  0  0  0  0  0  0  0
  -12.9871   -2.8240    2.6161 C   0  0  0  0  0  0  0  0  0  0  0  0
  -11.7815   -3.2190    3.0461 N   0  0  0  0  0  0  0  0  0  0  0  0
  -10.7132   -3.1619    2.2263 C   0  0  0  0  0  0  0  0  0  0  0  0
   -9.5240   -3.5454    2.8429 N   0  0  0  0  0  0  0  0  0  0  0  0
  -10.8455   -2.7207    0.8769 C   0  0  0  0  0  0  0  0  0  0  0  0
   -7.9141   -3.9972    0.3431 C   0  0  0  0  0  0  0  0  0  0  0  0
   -6.5270   -4.1728    0.4407 C   0  0  0  0  0  0  0  0  0  0  0  0
   -0.4721   -3.9554    1.9925 C   0  0  0  0  0  0  0  0  0  0  0  0
    1.4326   -5.7541    4.2078 H   0  0  0  0  0  0  0  0  0  0  0  0
    2.0961   -4.6935    2.9541 H   0  0  0  0  0  0  0  0  0  0  0  0
    1.1782   -6.1566    2.5042 H   0  0  0  0  0  0  0  0  0  0  0  0
   -0.4285   -4.7273    5.3086 H   0  0  0  0  0  0  0  0  0  0  0  0
   -2.4595   -3.3326    5.2507 H   0  0  0  0  0  0  0  0  0  0  0  0
   -3.2236   -2.3095    3.1495 H   0  0  0  0  0  0  0  0  0  0  0  0
   -1.7247   -3.1923   -0.2077 H   0  0  0  0  0  0  0  0  0  0  0  0
   -1.4723   -1.6053    0.5162 H   0  0  0  0  0  0  0  0  0  0  0  0
   -3.9373   -4.2278    0.4734 H   0  0  0  0  0  0  0  0  0  0  0  0
   -5.5407   -1.4700   -1.3651 H   0  0  0  0  0  0  0  0  0  0  0  0
   -7.9454   -1.1319   -1.4911 H   0  0  0  0  0  0  0  0  0  0  0  0
  -10.0807   -1.8462   -2.3266 H   0  0  0  0  0  0  0  0  0  0  0  0
  -14.2166   -2.0179    1.0406 H   0  0  0  0  0  0  0  0  0  0  0  0
  -13.7889   -2.8988    3.3425 H   0  0  0  0  0  0  0  0  0  0  0  0
   -9.6860   -3.6031    3.8377 H   0  0  0  0  0  0  0  0  0  0  0  0
   -8.7489   -2.9572    2.5774 H   0  0  0  0  0  0  0  0  0  0  0  0
   -8.5627   -4.7315    0.8168 H   0  0  0  0  0  0  0  0  0  0  0  0
   -6.1444   -5.0061    1.0231 H   0  0  0  0  0  0  0  0  0  0  0  0
    0.1173   -4.1074    1.0873 H   0  0  0  0  0  0  0  0  0  0  0  0
  1  2  1  0  0  0  0
  1 28  1  0  0  0  0
  1 29  1  0  0  0  0
  1 30  1  0  0  0  0
  2  3  1  0  0  0  0
  2 27  2  0  0  0  0
  3  4  2  0  0  0  0
  3 31  1  0  0  0  0
  4  5  1  0  0  0  0
  4 32  1  0  0  0  0
  5  6  2  0  0  0  0
  5 33  1  0  0  0  0
  6  7  1  0  0  0  0
  6 27  1  0  0  0  0
  7  8  1  0  0  0  0
  7 34  1  0  0  0  0
  7 35  1  0  0  0  0
  8  9  2  0  0  0  0
  8 10  1  0  0  0  0
 10 11  1  0  0  0  0
 10 36  1  0  0  0  0
 11 12  1  0  0  0  0
 11 26  2  0  0  0  0
 12 13  2  0  0  0  0
 12 37  1  0  0  0  0
 13 14  1  0  0  0  0
 13 38  1  0  0  0  0
 14 15  1  0  0  0  0
 14 25  2  0  0  0  0
 15 16  2  0  0  0  0
 15 24  1  0  0  0  0
 16 17  1  0  0  0  0
 16 39  1  0  0  0  0
 17 18  1  0  0  0  0
 18 19  1  0  0  0  0
 18 24  2  0  0  0  0
 19 20  2  0  0  0  0
 19 40  1  0  0  0  0
 20 21  1  0  0  0  0
 20 41  1  0  0  0  0
 21 22  2  0  0  0  0
 22 23  1  0  0  0  0
 22 24  1  0  0  0  0
 23 42  1  0  0  0  0
 23 43  1  0  0  0  0
 25 26  1  0  0  0  0
 25 44  1  0  0  0  0
 26 45  1  0  0  0  0
 27 46  1  0  0  0  0
M  END
$$$$
