CHEMBL1983715
 OpenBabel04072215363D

 58 61  0  0  0  0  0  0  0  0999 V2000
   12.7776    6.6607    1.6209 C   0  0  0  0  0  0  0  0  0  0  0  0
   12.7848    5.2237    1.1279 C   0  0  0  0  0  0  0  0  0  0  0  0
   11.6451    4.5056    1.6732 N   0  0  0  0  0  0  0  0  0  0  0  0
   11.5487    3.1854    1.3901 C   0  0  0  0  0  0  0  0  0  0  0  0
   12.5556    2.4062    1.0843 N   0  0  0  0  0  0  0  0  0  0  0  0
   12.1205    1.1131    0.8272 C   0  0  0  0  0  0  0  0  0  0  0  0
   13.1578    0.1031    0.4821 C   0  0  0  0  0  0  0  0  0  0  0  0
   10.7444    0.9310    0.8998 C   0  0  0  0  0  0  0  0  0  0  0  0
    9.9270   -0.2667    0.6987 C   0  0  0  0  0  0  0  0  0  0  0  0
    8.6550   -0.2472    0.1728 C   0  0  0  0  0  0  0  0  0  0  0  0
    8.0186   -1.4635    0.1027 C   0  0  0  0  0  0  0  0  0  0  0  0
    8.5760   -2.6204    0.5101 N   0  0  0  0  0  0  0  0  0  0  0  0
    9.8181   -2.5548    1.0068 C   0  0  0  0  0  0  0  0  0  0  0  0
   10.3946   -3.7591    1.4091 N   0  0  0  0  0  0  0  0  0  0  0  0
   11.6390   -4.0063    1.9976 C   0  0  0  0  0  0  0  0  0  0  0  0
   12.3275   -3.0352    2.7250 C   0  0  0  0  0  0  0  0  0  0  0  0
   13.6371   -3.2392    3.1723 C   0  0  0  0  0  0  0  0  0  0  0  0
   14.3250   -4.4244    2.9080 C   0  0  0  0  0  0  0  0  0  0  0  0
   15.6338   -4.6108    3.3019 N   0  0  0  0  0  0  0  0  0  0  0  0
   16.2141   -3.9634    4.4949 C   0  0  0  0  0  0  0  0  0  0  0  0
   17.4343   -3.0999    4.1240 C   0  0  0  0  0  0  0  0  0  0  0  0
   18.3961   -3.8481    3.2986 N   0  0  0  0  0  0  0  0  0  0  0  0
   19.7051   -3.9516    3.7192 C   0  0  0  0  0  0  0  0  0  0  0  0
   20.7098   -4.7167    2.8932 C   0  0  0  0  0  0  0  0  0  0  0  0
   20.0914   -3.4354    4.7730 O   0  0  0  0  0  0  0  0  0  0  0  0
   17.7902   -4.4343    2.0956 C   0  0  0  0  0  0  0  0  0  0  0  0
   16.5865   -5.3344    2.4464 C   0  0  0  0  0  0  0  0  0  0  0  0
   13.6151   -5.4115    2.2074 C   0  0  0  0  0  0  0  0  0  0  0  0
   12.2997   -5.2069    1.7588 C   0  0  0  0  0  0  0  0  0  0  0  0
   10.5134   -1.4110    1.0870 N   0  0  0  0  0  0  0  0  0  0  0  0
   10.0158    2.4163    1.3791 S   0  0  0  0  0  0  0  0  0  0  0  0
   13.6354    7.2050    1.2138 H   0  0  0  0  0  0  0  0  0  0  0  0
   12.8310    6.7023    2.7137 H   0  0  0  0  0  0  0  0  0  0  0  0
   11.8651    7.1796    1.3087 H   0  0  0  0  0  0  0  0  0  0  0  0
   13.7262    4.7496    1.4296 H   0  0  0  0  0  0  0  0  0  0  0  0
   12.7358    5.2196    0.0324 H   0  0  0  0  0  0  0  0  0  0  0  0
   10.7709    5.0184    1.6672 H   0  0  0  0  0  0  0  0  0  0  0  0
   14.1552    0.5565    0.4805 H   0  0  0  0  0  0  0  0  0  0  0  0
   12.9769   -0.3144   -0.5126 H   0  0  0  0  0  0  0  0  0  0  0  0
   13.1724   -0.7076    1.2129 H   0  0  0  0  0  0  0  0  0  0  0  0
    8.1685    0.6567   -0.1662 H   0  0  0  0  0  0  0  0  0  0  0  0
    7.0108   -1.5465   -0.2894 H   0  0  0  0  0  0  0  0  0  0  0  0
    9.7977   -4.5414    1.2001 H   0  0  0  0  0  0  0  0  0  0  0  0
   11.8608   -2.0796    2.9540 H   0  0  0  0  0  0  0  0  0  0  0  0
   14.1189   -2.4122    3.6871 H   0  0  0  0  0  0  0  0  0  0  0  0
   16.5329   -4.7574    5.1809 H   0  0  0  0  0  0  0  0  0  0  0  0
   15.4910   -3.3574    5.0506 H   0  0  0  0  0  0  0  0  0  0  0  0
   17.9000   -2.7215    5.0393 H   0  0  0  0  0  0  0  0  0  0  0  0
   17.1171   -2.2310    3.5353 H   0  0  0  0  0  0  0  0  0  0  0  0
   20.3350   -5.1293    1.9621 H   0  0  0  0  0  0  0  0  0  0  0  0
   21.0929   -5.5457    3.4961 H   0  0  0  0  0  0  0  0  0  0  0  0
   21.5357   -4.0438    2.6435 H   0  0  0  0  0  0  0  0  0  0  0  0
   18.4969   -5.0105    1.5029 H   0  0  0  0  0  0  0  0  0  0  0  0
   17.4566   -3.5946    1.4727 H   0  0  0  0  0  0  0  0  0  0  0  0
   16.9328   -6.2237    2.9853 H   0  0  0  0  0  0  0  0  0  0  0  0
   16.1399   -5.6707    1.5043 H   0  0  0  0  0  0  0  0  0  0  0  0
   14.0781   -6.3730    2.0038 H   0  0  0  0  0  0  0  0  0  0  0  0
   11.8154   -6.0009    1.1916 H   0  0  0  0  0  0  0  0  0  0  0  0
  1  2  1  0  0  0  0
  1 32  1  0  0  0  0
  1 33  1  0  0  0  0
  1 34  1  0  0  0  0
  2  3  1  0  0  0  0
  2 35  1  0  0  0  0
  2 36  1  0  0  0  0
  3  4  1  0  0  0  0
  3 37  1  0  0  0  0
  4  5  2  0  0  0  0
  4 31  1  0  0  0  0
  5  6  1  0  0  0  0
  6  7  1  0  0  0  0
  6  8  2  0  0  0  0
  7 38  1  0  0  0  0
  7 39  1  0  0  0  0
  7 40  1  0  0  0  0
  8  9  1  0  0  0  0
  8 31  1  0  0  0  0
  9 10  1  0  0  0  0
  9 30  2  0  0  0  0
 10 11  2  0  0  0  0
 10 41  1  0  0  0  0
 11 12  1  0  0  0  0
 11 42  1  0  0  0  0
 12 13  2  0  0  0  0
 13 14  1  0  0  0  0
 13 30  1  0  0  0  0
 14 15  1  0  0  0  0
 14 43  1  0  0  0  0
 15 16  1  0  0  0  0
 15 29  2  0  0  0  0
 16 17  2  0  0  0  0
 16 44  1  0  0  0  0
 17 18  1  0  0  0  0
 17 45  1  0  0  0  0
 18 19  1  0  0  0  0
 18 28  2  0  0  0  0
 19 20  1  0  0  0  0
 19 27  1  0  0  0  0
 20 21  1  0  0  0  0
 20 46  1  0  0  0  0
 20 47  1  0  0  0  0
 21 22  1  0  0  0  0
 21 48  1  0  0  0  0
 21 49  1  0  0  0  0
 22 23  1  0  0  0  0
 22 26  1  0  0  0  0
 23 24  1  0  0  0  0
 23 25  2  0  0  0  0
 24 50  1  0  0  0  0
 24 51  1  0  0  0  0
 24 52  1  0  0  0  0
 26 27  1  0  0  0  0
 26 53  1  0  0  0  0
 26 54  1  0  0  0  0
 27 55  1  0  0  0  0
 27 56  1  0  0  0  0
 28 29  1  0  0  0  0
 28 57  1  0  0  0  0
 29 58  1  0  0  0  0
M  END
$$$$
