CHEMBL3397941
 OpenBabel04072215363D

 58 60  0  0  0  0  0  0  0  0999 V2000
    0.7741    1.0817    0.5183 C   0  0  0  0  0  0  0  0  0  0  0  0
    2.2891    1.1111    0.7079 C   0  0  0  0  0  0  0  0  0  0  0  0
    2.8368    0.0294    1.5462 N   0  0  0  0  0  0  0  0  0  0  0  0
    2.4597   -1.3208    1.0987 C   0  0  0  0  0  0  0  0  0  0  0  0
    3.0363   -1.7693   -0.2405 C   0  0  0  0  0  0  0  0  0  0  0  0
    4.2977    0.2235    1.7117 C   0  0  0  0  0  0  0  0  0  0  0  0
    4.9708   -0.7947    2.6471 C   0  0  0  0  0  0  0  0  0  0  0  0
    6.3684   -0.5203    2.7717 O   0  0  0  0  0  0  0  0  0  0  0  0
    6.9787   -0.9616    3.9190 C   0  0  0  0  0  0  0  0  0  0  0  0
    8.0759   -0.1767    4.2833 C   0  0  0  0  0  0  0  0  0  0  0  0
    8.7939   -0.4408    5.4490 C   0  0  0  0  0  0  0  0  0  0  0  0
    8.4328   -1.4921    6.2979 C   0  0  0  0  0  0  0  0  0  0  0  0
    9.1094   -1.7790    7.5093 N   0  0  0  0  0  0  0  0  0  0  0  0
    9.9534   -0.8917    8.1566 C   0  0  0  0  0  0  0  0  0  0  0  0
   10.1167    0.2866    7.8245 O   0  0  0  0  0  0  0  0  0  0  0  0
   10.6952   -1.3598    9.3511 C   0  0  0  0  0  0  0  0  0  0  0  0
   11.0115   -2.6962    9.6033 C   0  0  0  0  0  0  0  0  0  0  0  0
   11.8388   -3.0111   10.6838 C   0  0  0  0  0  0  0  0  0  0  0  0
   12.3659   -1.9966   11.4953 C   0  0  0  0  0  0  0  0  0  0  0  0
   12.0792   -0.6423   11.2592 C   0  0  0  0  0  0  0  0  0  0  0  0
   12.7016    0.4472   12.0465 C   0  0  0  0  0  0  0  0  0  0  0  0
   12.0292    1.6595   12.2990 C   0  0  0  0  0  0  0  0  0  0  0  0
   12.6250    2.6876   13.0381 C   0  0  0  0  0  0  0  0  0  0  0  0
   13.9027    2.5199   13.5622 C   0  0  0  0  0  0  0  0  0  0  0  0
   14.5807    1.3334   13.3182 C   0  0  0  0  0  0  0  0  0  0  0  0
   15.8252    1.1089   13.8294 O   0  0  0  0  0  0  0  0  0  0  0  0
   14.0066    0.3217   12.5531 C   0  0  0  0  0  0  0  0  0  0  0  0
   11.2122   -0.3569   10.1955 C   0  0  0  0  0  0  0  0  0  0  0  0
    7.3772   -2.3153    5.9136 C   0  0  0  0  0  0  0  0  0  0  0  0
    6.6667   -2.0727    4.7229 C   0  0  0  0  0  0  0  0  0  0  0  0
    5.4820   -3.2723    4.3263 Cl  0  0  0  0  0  0  0  0  0  0  0  0
    0.4357    2.0387    0.1063 H   0  0  0  0  0  0  0  0  0  0  0  0
    0.2494    0.9234    1.4662 H   0  0  0  0  0  0  0  0  0  0  0  0
    0.4707    0.2998   -0.1856 H   0  0  0  0  0  0  0  0  0  0  0  0
    2.5288    2.0690    1.1855 H   0  0  0  0  0  0  0  0  0  0  0  0
    2.7672    1.1244   -0.2786 H   0  0  0  0  0  0  0  0  0  0  0  0
    1.3675   -1.4033    1.0613 H   0  0  0  0  0  0  0  0  0  0  0  0
    2.7393   -2.0539    1.8662 H   0  0  0  0  0  0  0  0  0  0  0  0
    2.9211   -1.0076   -1.0160 H   0  0  0  0  0  0  0  0  0  0  0  0
    2.5137   -2.6674   -0.5857 H   0  0  0  0  0  0  0  0  0  0  0  0
    4.0992   -2.0161   -0.1549 H   0  0  0  0  0  0  0  0  0  0  0  0
    4.4778    1.2212    2.1360 H   0  0  0  0  0  0  0  0  0  0  0  0
    4.8088    0.2208    0.7405 H   0  0  0  0  0  0  0  0  0  0  0  0
    4.8805   -1.7881    2.2037 H   0  0  0  0  0  0  0  0  0  0  0  0
    4.4728   -0.7428    3.6221 H   0  0  0  0  0  0  0  0  0  0  0  0
    8.3770    0.6629    3.6605 H   0  0  0  0  0  0  0  0  0  0  0  0
    9.6482    0.1971    5.6633 H   0  0  0  0  0  0  0  0  0  0  0  0
    8.8564   -2.6271    7.9916 H   0  0  0  0  0  0  0  0  0  0  0  0
   10.6787   -3.4957    8.9504 H   0  0  0  0  0  0  0  0  0  0  0  0
   12.1151   -4.0449   10.8801 H   0  0  0  0  0  0  0  0  0  0  0  0
   13.0259   -2.2822   12.3131 H   0  0  0  0  0  0  0  0  0  0  0  0
   11.0207    1.8233   11.9243 H   0  0  0  0  0  0  0  0  0  0  0  0
   12.0822    3.6142   13.2071 H   0  0  0  0  0  0  0  0  0  0  0  0
   14.3505    3.3179   14.1445 H   0  0  0  0  0  0  0  0  0  0  0  0
   16.0118    1.7971   14.4885 H   0  0  0  0  0  0  0  0  0  0  0  0
   14.5984   -0.5679   12.3538 H   0  0  0  0  0  0  0  0  0  0  0  0
   10.9700    0.6799    9.9661 H   0  0  0  0  0  0  0  0  0  0  0  0
    7.0805   -3.1506    6.5399 H   0  0  0  0  0  0  0  0  0  0  0  0
  1  2  1  0  0  0  0
  1 32  1  0  0  0  0
  1 33  1  0  0  0  0
  1 34  1  0  0  0  0
  2  3  1  0  0  0  0
  2 35  1  0  0  0  0
  2 36  1  0  0  0  0
  3  4  1  0  0  0  0
  3  6  1  0  0  0  0
  4  5  1  0  0  0  0
  4 37  1  0  0  0  0
  4 38  1  0  0  0  0
  5 39  1  0  0  0  0
  5 40  1  0  0  0  0
  5 41  1  0  0  0  0
  6  7  1  0  0  0  0
  6 42  1  0  0  0  0
  6 43  1  0  0  0  0
  7  8  1  0  0  0  0
  7 44  1  0  0  0  0
  7 45  1  0  0  0  0
  8  9  1  0  0  0  0
  9 10  1  0  0  0  0
  9 30  2  0  0  0  0
 10 11  2  0  0  0  0
 10 46  1  0  0  0  0
 11 12  1  0  0  0  0
 11 47  1  0  0  0  0
 12 13  1  0  0  0  0
 12 29  2  0  0  0  0
 13 14  1  0  0  0  0
 13 48  1  0  0  0  0
 14 15  2  0  0  0  0
 14 16  1  0  0  0  0
 16 17  1  0  0  0  0
 16 28  2  0  0  0  0
 17 18  2  0  0  0  0
 17 49  1  0  0  0  0
 18 19  1  0  0  0  0
 18 50  1  0  0  0  0
 19 20  2  0  0  0  0
 19 51  1  0  0  0  0
 20 21  1  0  0  0  0
 20 28  1  0  0  0  0
 21 22  1  0  0  0  0
 21 27  2  0  0  0  0
 22 23  2  0  0  0  0
 22 52  1  0  0  0  0
 23 24  1  0  0  0  0
 23 53  1  0  0  0  0
 24 25  2  0  0  0  0
 24 54  1  0  0  0  0
 25 26  1  0  0  0  0
 25 27  1  0  0  0  0
 26 55  1  0  0  0  0
 27 56  1  0  0  0  0
 28 57  1  0  0  0  0
 29 30  1  0  0  0  0
 29 58  1  0  0  0  0
 30 31  1  0  0  0  0
M  END
$$$$
