CHEMBL3706823
 OpenBabel04072215373D

 57 60  0  0  0  0  0  0  0  0999 V2000
    1.1371   -0.2659    0.9780 C   0  0  0  0  0  0  0  0  0  0  0  0
    2.3880    0.0886    0.4228 O   0  0  0  0  0  0  0  0  0  0  0  0
    2.8565    1.3727    0.8478 C   0  0  0  0  0  0  0  0  0  0  0  0
    4.1592    1.5890    0.0931 C   0  0  0  0  0  0  0  0  0  0  0  0
    4.8206    2.7939    0.4197 O   0  0  0  0  0  0  0  0  0  0  0  0
    6.1777    2.8464    0.2087 C   0  0  0  0  0  0  0  0  0  0  0  0
    6.7713    3.8463    1.0131 C   0  0  0  0  0  0  0  0  0  0  0  0
    8.1372    4.0712    1.0817 C   0  0  0  0  0  0  0  0  0  0  0  0
    8.6164    5.0178    1.9054 N   0  0  0  0  0  0  0  0  0  0  0  0
    9.9381    5.1660    1.9503 C   0  0  0  0  0  0  0  0  0  0  0  0
   10.8393    4.4730    1.2402 N   0  0  0  0  0  0  0  0  0  0  0  0
   10.3544    3.5257    0.4097 C   0  0  0  0  0  0  0  0  0  0  0  0
   11.2713    2.7171   -0.3127 N   0  0  0  0  0  0  0  0  0  0  0  0
   12.6573    2.8182   -0.2515 C   0  0  0  0  0  0  0  0  0  0  0  0
   13.4017    3.1496    0.8062 C   0  0  0  0  0  0  0  0  0  0  0  0
   14.8576    3.3367    0.7491 C   0  0  0  0  0  0  0  0  0  0  0  0
   15.4715    3.5316    1.7908 O   0  0  0  0  0  0  0  0  0  0  0  0
   15.5039    3.3280   -0.5970 C   0  0  0  0  0  0  0  0  0  0  0  0
   16.7916    3.7949   -0.8037 O   0  0  0  0  0  0  0  0  0  0  0  0
   17.7066    3.7898    0.2918 C   0  0  0  0  0  0  0  0  0  0  0  0
   19.1179    3.8030   -0.2506 C   0  0  0  0  0  0  0  0  0  0  0  0
   19.4293    3.1955   -1.4799 C   0  0  0  0  0  0  0  0  0  0  0  0
   20.7464    3.1296   -1.9348 C   0  0  0  0  0  0  0  0  0  0  0  0
   21.7734    3.6610   -1.1598 C   0  0  0  0  0  0  0  0  0  0  0  0
   21.4711    4.2633    0.0558 C   0  0  0  0  0  0  0  0  0  0  0  0
   22.4615    4.7666    0.8041 F   0  0  0  0  0  0  0  0  0  0  0  0
   20.1601    4.3388    0.5174 C   0  0  0  0  0  0  0  0  0  0  0  0
   14.7903    2.8875   -1.6443 C   0  0  0  0  0  0  0  0  0  0  0  0
   15.4738    2.8090   -3.2369 Cl  0  0  0  0  0  0  0  0  0  0  0  0
   13.3716    2.4714   -1.5252 C   0  0  0  0  0  0  0  0  0  0  0  0
   12.7548    1.9138   -2.4299 O   0  0  0  0  0  0  0  0  0  0  0  0
    8.9753    3.2787    0.2990 C   0  0  0  0  0  0  0  0  0  0  0  0
    8.3951    2.2765   -0.5201 C   0  0  0  0  0  0  0  0  0  0  0  0
    7.0124    2.0604   -0.5951 C   0  0  0  0  0  0  0  0  0  0  0  0
    6.7377    0.9677   -1.3647 O   0  0  0  0  0  0  0  0  0  0  0  0
    5.7123    1.0133   -2.3441 C   0  0  0  0  0  0  0  0  0  0  0  0
    0.8781   -1.2611    0.6044 H   0  0  0  0  0  0  0  0  0  0  0  0
    0.3644    0.4380    0.6587 H   0  0  0  0  0  0  0  0  0  0  0  0
    1.1986   -0.3058    2.0683 H   0  0  0  0  0  0  0  0  0  0  0  0
    3.0149    1.3929    1.9306 H   0  0  0  0  0  0  0  0  0  0  0  0
    2.1297    2.1504    0.5839 H   0  0  0  0  0  0  0  0  0  0  0  0
    3.8577    1.6498   -0.9523 H   0  0  0  0  0  0  0  0  0  0  0  0
    4.7991    0.7171    0.2668 H   0  0  0  0  0  0  0  0  0  0  0  0
    6.1275    4.4478    1.6569 H   0  0  0  0  0  0  0  0  0  0  0  0
   10.3327    5.9145    2.6307 H   0  0  0  0  0  0  0  0  0  0  0  0
   10.9648    2.5608   -1.2743 H   0  0  0  0  0  0  0  0  0  0  0  0
   12.9585    3.3402    1.7770 H   0  0  0  0  0  0  0  0  0  0  0  0
   17.6045    2.8786    0.8918 H   0  0  0  0  0  0  0  0  0  0  0  0
   17.5328    4.6841    0.9010 H   0  0  0  0  0  0  0  0  0  0  0  0
   18.6415    2.7624   -2.0943 H   0  0  0  0  0  0  0  0  0  0  0  0
   20.9664    2.6544   -2.8868 H   0  0  0  0  0  0  0  0  0  0  0  0
   22.8042    3.6039   -1.4919 H   0  0  0  0  0  0  0  0  0  0  0  0
   19.9686    4.8050    1.4799 H   0  0  0  0  0  0  0  0  0  0  0  0
    9.0387    1.6192   -1.1086 H   0  0  0  0  0  0  0  0  0  0  0  0
    6.1086    0.6623   -3.3011 H   0  0  0  0  0  0  0  0  0  0  0  0
    5.2766    2.0052   -2.4930 H   0  0  0  0  0  0  0  0  0  0  0  0
    4.9532    0.2783   -2.0551 H   0  0  0  0  0  0  0  0  0  0  0  0
  1  2  1  0  0  0  0
  1 37  1  0  0  0  0
  1 38  1  0  0  0  0
  1 39  1  0  0  0  0
  2  3  1  0  0  0  0
  3  4  1  0  0  0  0
  3 40  1  0  0  0  0
  3 41  1  0  0  0  0
  4  5  1  0  0  0  0
  4 42  1  0  0  0  0
  4 43  1  0  0  0  0
  5  6  1  0  0  0  0
  6  7  1  0  0  0  0
  6 34  2  0  0  0  0
  7  8  2  0  0  0  0
  7 44  1  0  0  0  0
  8  9  1  0  0  0  0
  8 32  1  0  0  0  0
  9 10  2  0  0  0  0
 10 11  1  0  0  0  0
 10 45  1  0  0  0  0
 11 12  2  0  0  0  0
 12 13  1  0  0  0  0
 12 32  1  0  0  0  0
 13 14  1  0  0  0  0
 13 46  1  0  0  0  0
 14 15  2  0  0  0  0
 14 30  1  0  0  0  0
 15 16  1  0  0  0  0
 15 47  1  0  0  0  0
 16 17  2  0  0  0  0
 16 18  1  0  0  0  0
 18 19  1  0  0  0  0
 18 28  2  0  0  0  0
 19 20  1  0  0  0  0
 20 21  1  0  0  0  0
 20 48  1  0  0  0  0
 20 49  1  0  0  0  0
 21 22  1  0  0  0  0
 21 27  2  0  0  0  0
 22 23  2  0  0  0  0
 22 50  1  0  0  0  0
 23 24  1  0  0  0  0
 23 51  1  0  0  0  0
 24 25  2  0  0  0  0
 24 52  1  0  0  0  0
 25 26  1  0  0  0  0
 25 27  1  0  0  0  0
 27 53  1  0  0  0  0
 28 29  1  0  0  0  0
 28 30  1  0  0  0  0
 30 31  2  0  0  0  0
 32 33  2  0  0  0  0
 33 34  1  0  0  0  0
 33 54  1  0  0  0  0
 34 35  1  0  0  0  0
 35 36  1  0  0  0  0
 36 55  1  0  0  0  0
 36 56  1  0  0  0  0
 36 57  1  0  0  0  0
M  END
$$$$
