CHEMBL3109278
 OpenBabel04072215363D

 71 72  0  0  1  0  0  0  0  0999 V2000
    4.2701   -2.9409   -2.4658 C   0  0  0  0  0  0  0  0  0  0  0  0
    5.1688   -1.7125   -2.2165 C   0  0  0  0  0  0  0  0  0  0  0  0
    5.5892   -1.3476   -0.8478 N   0  0  0  0  0  0  0  0  0  0  0  0
    5.9582    0.0899   -0.6976 C   0  0  0  0  0  0  0  0  0  0  0  0
    7.4501    0.4113   -0.7146 C   0  0  0  0  0  0  0  0  0  0  0  0
    4.7078   -1.7782    0.2413 C   0  0  0  0  0  0  0  0  0  0  0  0
    5.1613   -2.9499    1.1193 C   0  0  0  0  0  0  0  0  0  0  0  0
    6.5502   -2.9083    1.4995 N   0  0  0  0  0  0  0  0  0  0  0  0
    7.1232   -1.8732    2.1976 C   0  0  0  0  0  0  0  0  0  0  0  0
    6.5071   -0.9023    2.5961 O   0  0  0  0  0  0  0  0  0  0  0  0
    8.5410   -2.1025    2.4727 C   0  0  0  0  0  0  0  0  0  0  0  0
    9.4739   -2.7664    1.6691 C   0  0  0  0  0  0  0  0  0  0  0  0
    9.4102   -3.3890    0.3177 C   0  0  0  0  0  0  0  0  0  0  0  0
   10.6632   -2.7868    2.3509 N   0  0  0  0  0  0  0  0  0  0  0  0
   10.5505   -2.1420    3.5510 C   0  0  0  0  0  0  0  0  0  0  0  0
   11.6506   -1.9869    4.4275 C   0  0  0  0  0  0  0  0  0  0  0  0
   12.8770   -2.5269    4.3651 C   0  0  0  0  0  0  0  0  0  0  0  0
   13.5139   -3.4845    3.3853 C   0  0  0  0  0  0  0  0  0  0  0  0
   13.0187   -3.9867    2.3997 O   0  0  0  0  0  0  0  0  0  0  0  0
   14.8161   -3.6528    3.8383 N   0  0  0  0  0  0  0  0  0  0  0  0
   15.0584   -2.9018    4.9819 C   0  0  0  0  0  0  0  0  0  0  0  0
   16.2446   -2.8016    5.6792 C   0  0  0  0  0  0  0  0  0  0  0  0
   16.2623   -1.9610    6.7970 C   0  0  0  0  0  0  0  0  0  0  0  0
   15.1088   -1.2632    7.1824 C   0  0  0  0  0  0  0  0  0  0  0  0
   15.1567   -0.4564    8.2507 F   0  0  0  0  0  0  0  0  0  0  0  0
   13.9171   -1.3754    6.4740 C   0  0  0  0  0  0  0  0  0  0  0  0
   13.9092   -2.1998    5.3597 C   0  0  0  0  0  0  0  0  0  0  0  0
    9.2408   -1.7018    3.6652 C   0  0  0  0  0  0  0  0  0  0  0  0
    8.6199   -0.9762    4.8127 C   0  0  0  0  0  0  0  0  0  0  0  0
    0.3686    0.1737    1.8290 O   0  0  0  0  0  0  0  0  0  0  0  0
    1.3859    0.0965    1.1613 C   0  0  0  0  0  0  0  0  0  0  0  0
    1.3841   -0.3841   -0.1180 O   0  0  0  0  0  0  0  0  0  0  0  0
    2.7736    0.3903    1.6423 C   0  0  0  0  0  0  0  0  0  0  0  0
    3.1006    1.3796    2.7468 C   0  0  3  0  0  0  0  0  0  0  0  0
    2.6157    2.6988    2.5517 O   0  0  0  0  0  0  0  0  0  0  0  0
    2.9445    0.8470    4.1740 C   0  0  0  0  0  0  0  0  0  0  0  0
    2.6968   -0.3056    4.4871 O   0  0  0  0  0  0  0  0  0  0  0  0
    3.1864    1.8272    5.0857 O   0  0  0  0  0  0  0  0  0  0  0  0
    4.2652   -3.1710   -3.5409 H   0  0  0  0  0  0  0  0  0  0  0  0
    3.2239   -2.7572   -2.1921 H   0  0  0  0  0  0  0  0  0  0  0  0
    4.6163   -3.8411   -1.9507 H   0  0  0  0  0  0  0  0  0  0  0  0
    4.6567   -0.8711   -2.7001 H   0  0  0  0  0  0  0  0  0  0  0  0
    6.0894   -1.8890   -2.7825 H   0  0  0  0  0  0  0  0  0  0  0  0
    5.6441    0.4762    0.2801 H   0  0  0  0  0  0  0  0  0  0  0  0
    5.4227    0.7282   -1.4104 H   0  0  0  0  0  0  0  0  0  0  0  0
    8.0092   -0.2074   -0.0068 H   0  0  0  0  0  0  0  0  0  0  0  0
    7.5892    1.4514   -0.3843 H   0  0  0  0  0  0  0  0  0  0  0  0
    7.8950    0.3180   -1.7065 H   0  0  0  0  0  0  0  0  0  0  0  0
    3.6737   -1.9355   -0.0766 H   0  0  0  0  0  0  0  0  0  0  0  0
    4.6689   -0.9694    0.9571 H   0  0  0  0  0  0  0  0  0  0  0  0
    4.9839   -3.8990    0.6169 H   0  0  0  0  0  0  0  0  0  0  0  0
    4.5905   -2.9352    2.0528 H   0  0  0  0  0  0  0  0  0  0  0  0
    7.0932   -3.7499    1.3936 H   0  0  0  0  0  0  0  0  0  0  0  0
    8.4411   -3.2656   -0.1702 H   0  0  0  0  0  0  0  0  0  0  0  0
    9.6157   -4.4622    0.3935 H   0  0  0  0  0  0  0  0  0  0  0  0
   10.1588   -2.9442   -0.3455 H   0  0  0  0  0  0  0  0  0  0  0  0
   11.5056   -3.2336    2.0025 H   0  0  0  0  0  0  0  0  0  0  0  0
   11.4524   -1.3218    5.2611 H   0  0  0  0  0  0  0  0  0  0  0  0
   15.4782   -4.2442    3.3602 H   0  0  0  0  0  0  0  0  0  0  0  0
   17.1338   -3.3387    5.3749 H   0  0  0  0  0  0  0  0  0  0  0  0
   17.1722   -1.8318    7.3758 H   0  0  0  0  0  0  0  0  0  0  0  0
   13.0474   -0.8153    6.7961 H   0  0  0  0  0  0  0  0  0  0  0  0
    9.3320   -0.7854    5.6197 H   0  0  0  0  0  0  0  0  0  0  0  0
    7.7987   -1.5660    5.2334 H   0  0  0  0  0  0  0  0  0  0  0  0
    8.2264   -0.0081    4.4867 H   0  0  0  0  0  0  0  0  0  0  0  0
    2.2582   -0.4332   -0.5595 H   0  0  0  0  0  0  0  0  0  0  0  0
    3.3143    0.7482    0.7576 H   0  0  0  0  0  0  0  0  0  0  0  0
    3.1371   -0.5841    1.9695 H   0  0  0  0  0  0  0  0  0  0  0  0
    4.1924    1.4858    2.6716 H   0  0  0  0  0  0  0  0  0  0  0  0
    1.6964    2.7357    2.8796 H   0  0  0  0  0  0  0  0  0  0  0  0
    3.4391    2.6668    4.6440 H   0  0  0  0  0  0  0  0  0  0  0  0
  1  2  1  0  0  0  0
  1 39  1  0  0  0  0
  1 40  1  0  0  0  0
  1 41  1  0  0  0  0
  2  3  1  0  0  0  0
  2 42  1  0  0  0  0
  2 43  1  0  0  0  0
  3  4  1  0  0  0  0
  3  6  1  0  0  0  0
  4  5  1  0  0  0  0
  4 44  1  0  0  0  0
  4 45  1  0  0  0  0
  5 46  1  0  0  0  0
  5 47  1  0  0  0  0
  5 48  1  0  0  0  0
  6  7  1  0  0  0  0
  6 49  1  0  0  0  0
  6 50  1  0  0  0  0
  7  8  1  0  0  0  0
  7 51  1  0  0  0  0
  7 52  1  0  0  0  0
  8  9  1  0  0  0  0
  8 53  1  0  0  0  0
  9 10  2  0  0  0  0
  9 11  1  0  0  0  0
 11 12  2  0  0  0  0
 11 28  1  0  0  0  0
 12 13  1  0  0  0  0
 12 14  1  0  0  0  0
 13 54  1  0  0  0  0
 13 55  1  0  0  0  0
 13 56  1  0  0  0  0
 14 15  1  0  0  0  0
 14 57  1  0  0  0  0
 15 16  1  0  0  0  0
 15 28  2  0  0  0  0
 16 17  2  0  0  0  0
 16 58  1  0  0  0  0
 17 18  1  0  0  0  0
 17 27  1  0  0  0  0
 18 19  2  0  0  0  0
 18 20  1  0  0  0  0
 20 21  1  0  0  0  0
 20 59  1  0  0  0  0
 21 22  1  0  0  0  0
 21 27  2  0  0  0  0
 22 23  2  0  0  0  0
 22 60  1  0  0  0  0
 23 24  1  0  0  0  0
 23 61  1  0  0  0  0
 24 25  1  0  0  0  0
 24 26  2  0  0  0  0
 26 27  1  0  0  0  0
 26 62  1  0  0  0  0
 28 29  1  0  0  0  0
 29 63  1  0  0  0  0
 29 64  1  0  0  0  0
 29 65  1  0  0  0  0
 30 31  2  0  0  0  0
 31 32  1  0  0  0  0
 31 33  1  0  0  0  0
 32 66  1  0  0  0  0
 33 34  1  0  0  0  0
 33 67  1  0  0  0  0
 33 68  1  0  0  0  0
 34 35  1  0  0  0  0
 34 36  1  0  0  0  0
 34 69  1  0  0  0  0
 35 70  1  0  0  0  0
 36 37  2  0  0  0  0
 36 38  1  0  0  0  0
 38 71  1  0  0  0  0
M  END
$$$$
