CHEMBL1278149
 OpenBabel04072215363D

 35 37  0  0  0  0  0  0  0  0999 V2000
    3.3409   -0.3575    1.1121 C   0  0  0  0  0  0  0  0  0  0  0  0
    2.4695    0.2237    0.1299 O   0  0  0  0  0  0  0  0  0  0  0  0
    3.0968    0.6858   -0.9981 C   0  0  0  0  0  0  0  0  0  0  0  0
    4.2197    0.0208   -1.5231 C   0  0  0  0  0  0  0  0  0  0  0  0
    4.9595    0.5205   -2.5845 C   0  0  0  0  0  0  0  0  0  0  0  0
    6.0619   -0.1335   -2.9671 N   0  0  0  0  0  0  0  0  0  0  0  0
    6.7832    0.4105   -3.9564 C   0  0  0  0  0  0  0  0  0  0  0  0
    6.5152    1.5576   -4.5816 N   0  0  0  0  0  0  0  0  0  0  0  0
    5.4070    2.1958   -4.1627 C   0  0  0  0  0  0  0  0  0  0  0  0
    5.1120    3.4229   -4.7433 O   0  0  0  0  0  0  0  0  0  0  0  0
    6.1573    4.2896   -4.9995 C   0  0  0  0  0  0  0  0  0  0  0  0
    5.9836    5.1533   -6.0870 C   0  0  0  0  0  0  0  0  0  0  0  0
    6.9581    6.1079   -6.3973 C   0  0  0  0  0  0  0  0  0  0  0  0
    8.1059    6.2052   -5.6112 C   0  0  0  0  0  0  0  0  0  0  0  0
    9.4088    7.5136   -6.0199 Br  0  0  0  0  0  0  0  0  0  0  0  0
    8.2727    5.3507   -4.5243 C   0  0  0  0  0  0  0  0  0  0  0  0
    9.3711    5.4273   -3.7563 F   0  0  0  0  0  0  0  0  0  0  0  0
    7.3012    4.4044   -4.2043 C   0  0  0  0  0  0  0  0  0  0  0  0
    4.5374    1.7086   -3.1791 C   0  0  0  0  0  0  0  0  0  0  0  0
    3.3361    2.3200   -2.7474 C   0  0  0  0  0  0  0  0  0  0  0  0
    2.6087    1.8193   -1.6576 C   0  0  0  0  0  0  0  0  0  0  0  0
    1.5059    2.5784   -1.3839 O   0  0  0  0  0  0  0  0  0  0  0  0
    0.7099    2.2879   -0.2455 C   0  0  0  0  0  0  0  0  0  0  0  0
    2.9771   -0.0709    2.1033 H   0  0  0  0  0  0  0  0  0  0  0  0
    4.3790   -0.0122    1.0441 H   0  0  0  0  0  0  0  0  0  0  0  0
    3.3003   -1.4481    1.0310 H   0  0  0  0  0  0  0  0  0  0  0  0
    4.5630   -0.9106   -1.0796 H   0  0  0  0  0  0  0  0  0  0  0  0
    7.6815   -0.1184   -4.2610 H   0  0  0  0  0  0  0  0  0  0  0  0
    5.0855    5.0820   -6.6972 H   0  0  0  0  0  0  0  0  0  0  0  0
    6.8108    6.7695   -7.2474 H   0  0  0  0  0  0  0  0  0  0  0  0
    7.4635    3.7717   -3.3386 H   0  0  0  0  0  0  0  0  0  0  0  0
    2.9701    3.2139   -3.2519 H   0  0  0  0  0  0  0  0  0  0  0  0
    0.0097    3.1214   -0.1215 H   0  0  0  0  0  0  0  0  0  0  0  0
    1.3032    2.2419    0.6717 H   0  0  0  0  0  0  0  0  0  0  0  0
    0.1172    1.3809   -0.3989 H   0  0  0  0  0  0  0  0  0  0  0  0
  1  2  1  0  0  0  0
  1 24  1  0  0  0  0
  1 25  1  0  0  0  0
  1 26  1  0  0  0  0
  2  3  1  0  0  0  0
  3  4  1  0  0  0  0
  3 21  2  0  0  0  0
  4  5  2  0  0  0  0
  4 27  1  0  0  0  0
  5  6  1  0  0  0  0
  5 19  1  0  0  0  0
  6  7  2  0  0  0  0
  7  8  1  0  0  0  0
  7 28  1  0  0  0  0
  8  9  2  0  0  0  0
  9 10  1  0  0  0  0
  9 19  1  0  0  0  0
 10 11  1  0  0  0  0
 11 12  1  0  0  0  0
 11 18  2  0  0  0  0
 12 13  2  0  0  0  0
 12 29  1  0  0  0  0
 13 14  1  0  0  0  0
 13 30  1  0  0  0  0
 14 15  1  0  0  0  0
 14 16  2  0  0  0  0
 16 17  1  0  0  0  0
 16 18  1  0  0  0  0
 18 31  1  0  0  0  0
 19 20  2  0  0  0  0
 20 21  1  0  0  0  0
 20 32  1  0  0  0  0
 21 22  1  0  0  0  0
 22 23  1  0  0  0  0
 23 33  1  0  0  0  0
 23 34  1  0  0  0  0
 23 35  1  0  0  0  0
M  END
$$$$
