CHEMBL610512
 OpenBabel04072215383D

 31 34  0  0  0  0  0  0  0  0999 V2000
    1.2205   -0.4240    0.4072 O   0  0  0  0  0  0  0  0  0  0  0  0
    2.3661   -0.1155    0.0788 C   0  0  0  0  0  0  0  0  0  0  0  0
    3.0709   -0.7882   -1.0788 C   0  0  0  0  0  0  0  0  0  0  0  0
    4.3086   -1.4890   -0.6091 C   0  0  0  0  0  0  0  0  0  0  0  0
    4.3715   -2.8855   -0.6008 C   0  0  0  0  0  0  0  0  0  0  0  0
    5.5019   -3.4997   -0.0824 C   0  0  0  0  0  0  0  0  0  0  0  0
    5.6255   -4.9602   -0.0076 C   0  0  0  0  0  0  0  0  0  0  0  0
    4.7467   -5.7024   -0.4337 O   0  0  0  0  0  0  0  0  0  0  0  0
    6.7754   -5.4370    0.5668 N   0  0  0  0  0  0  0  0  0  0  0  0
    7.7935   -4.6741    1.0637 C   0  0  0  0  0  0  0  0  0  0  0  0
    8.7819   -5.1860    1.5822 O   0  0  0  0  0  0  0  0  0  0  0  0
    7.6478   -3.3262    0.9569 N   0  0  0  0  0  0  0  0  0  0  0  0
    6.5314   -2.7153    0.4007 C   0  0  0  0  0  0  0  0  0  0  0  0
    6.5051   -1.3642    0.3863 N   0  0  0  0  0  0  0  0  0  0  0  0
    5.3923   -0.7501   -0.1163 C   0  0  0  0  0  0  0  0  0  0  0  0
    5.3613    0.7339   -0.0804 C   0  0  0  0  0  0  0  0  0  0  0  0
    6.4901    1.3577   -0.5208 N   0  0  0  0  0  0  0  0  0  0  0  0
    6.5233    2.7087   -0.4893 C   0  0  0  0  0  0  0  0  0  0  0  0
    5.4981    3.4934    0.0054 C   0  0  0  0  0  0  0  0  0  0  0  0
    4.3561    2.8587    0.4750 C   0  0  0  0  0  0  0  0  0  0  0  0
    4.2501    1.4686    0.3799 C   0  0  0  0  0  0  0  0  0  0  0  0
    2.9964    0.9220    0.7141 N   0  0  0  0  0  0  0  0  0  0  0  0
    3.3086   -0.0488   -1.8536 H   0  0  0  0  0  0  0  0  0  0  0  0
    2.3743   -1.4959   -1.5422 H   0  0  0  0  0  0  0  0  0  0  0  0
    3.5428   -3.4873   -0.9682 H   0  0  0  0  0  0  0  0  0  0  0  0
    6.8779   -6.4391    0.6414 H   0  0  0  0  0  0  0  0  0  0  0  0
    8.3796   -2.7295    1.3167 H   0  0  0  0  0  0  0  0  0  0  0  0
    7.4263    3.1601   -0.8917 H   0  0  0  0  0  0  0  0  0  0  0  0
    5.5725    4.5755    0.0006 H   0  0  0  0  0  0  0  0  0  0  0  0
    3.5268    3.4597    0.8397 H   0  0  0  0  0  0  0  0  0  0  0  0
    2.3728    1.4555    1.3099 H   0  0  0  0  0  0  0  0  0  0  0  0
  1  2  2  0  0  0  0
  2  3  1  0  0  0  0
  2 22  1  0  0  0  0
  3  4  1  0  0  0  0
  3 23  1  0  0  0  0
  3 24  1  0  0  0  0
  4  5  1  0  0  0  0
  4 15  2  0  0  0  0
  5  6  2  0  0  0  0
  5 25  1  0  0  0  0
  6  7  1  0  0  0  0
  6 13  1  0  0  0  0
  7  8  2  0  0  0  0
  7  9  1  0  0  0  0
  9 10  1  0  0  0  0
  9 26  1  0  0  0  0
 10 11  2  0  0  0  0
 10 12  1  0  0  0  0
 12 13  1  0  0  0  0
 12 27  1  0  0  0  0
 13 14  2  0  0  0  0
 14 15  1  0  0  0  0
 15 16  1  0  0  0  0
 16 17  1  0  0  0  0
 16 21  2  0  0  0  0
 17 18  2  0  0  0  0
 18 19  1  0  0  0  0
 18 28  1  0  0  0  0
 19 20  2  0  0  0  0
 19 29  1  0  0  0  0
 20 21  1  0  0  0  0
 20 30  1  0  0  0  0
 21 22  1  0  0  0  0
 22 31  1  0  0  0  0
M  END
$$$$
