CHEMBL1907944
 OpenBabel04072215363D

 54 57  0  0  1  0  0  0  0  0999 V2000
   -2.8591   -3.1303    5.6487 C   0  0  0  0  0  0  0  0  0  0  0  0
   -1.6865   -2.6804    4.9740 O   0  0  0  0  0  0  0  0  0  0  0  0
   -0.5585   -2.4232    5.7022 C   0  0  0  0  0  0  0  0  0  0  0  0
   -0.5509   -2.4012    7.0963 C   0  0  0  0  0  0  0  0  0  0  0  0
    0.6523   -2.2932    7.8217 C   0  0  0  0  0  0  0  0  0  0  0  0
    0.7478   -2.4268    9.2138 C   0  0  0  0  0  0  0  0  0  0  0  0
   -0.3975   -2.8098    9.9638 N   0  0  0  0  0  0  0  0  0  0  0  0
   -0.3401   -3.3127   11.2830 C   0  0  0  0  0  0  0  0  0  0  0  0
    0.6092   -4.2784   11.6474 C   0  0  0  0  0  0  0  0  0  0  0  0
    0.7444   -4.6821   12.9766 C   0  0  0  0  0  0  0  0  0  0  0  0
   -0.0927   -4.1390   13.9481 C   0  0  0  0  0  0  0  0  0  0  0  0
    0.1587   -4.6096   15.7612 Br  0  0  0  0  0  0  0  0  0  0  0  0
   -1.0910   -3.2323   13.5972 C   0  0  0  0  0  0  0  0  0  0  0  0
   -1.2112   -2.8365   12.2682 C   0  0  0  0  0  0  0  0  0  0  0  0
   -2.1641   -1.9516   11.9334 F   0  0  0  0  0  0  0  0  0  0  0  0
    1.9191   -2.2891    9.8592 N   0  0  0  0  0  0  0  0  0  0  0  0
    3.0027   -2.0492    9.1116 C   0  0  0  0  0  0  0  0  0  0  0  0
    3.0288   -1.9715    7.7790 N   0  0  0  0  0  0  0  0  0  0  0  0
    1.8624   -2.1040    7.1409 C   0  0  0  0  0  0  0  0  0  0  0  0
    1.8404   -2.0674    5.7553 C   0  0  0  0  0  0  0  0  0  0  0  0
    0.6523   -2.2002    5.0240 C   0  0  0  0  0  0  0  0  0  0  0  0
    0.8272   -2.1027    3.6583 O   0  0  0  0  0  0  0  0  0  0  0  0
   -0.2909   -1.5450    2.9646 C   0  0  0  0  0  0  0  0  0  0  0  0
    0.1270   -0.7495    1.7165 C   0  0  1  0  0  0  0  0  0  0  0  0
   -1.1292   -0.1831    1.0306 C   0  0  0  0  0  0  0  0  0  0  0  0
   -1.7490    0.9497    1.8510 C   0  0  0  0  0  0  0  0  0  0  0  0
   -0.7117    2.0193    2.1992 C   0  0  0  0  0  0  0  0  0  0  0  0
    0.4749    1.4506    2.8540 N   0  0  0  0  0  0  0  0  0  0  0  0
    1.4460    2.5074    3.1457 C   0  0  0  0  0  0  0  0  0  0  0  0
    1.0982    0.3999    2.0332 C   0  0  0  0  0  0  0  0  0  0  0  0
   -3.4875   -2.2736    5.9047 H   0  0  0  0  0  0  0  0  0  0  0  0
   -2.6542   -3.7410    6.5311 H   0  0  0  0  0  0  0  0  0  0  0  0
   -3.4125   -3.7707    4.9540 H   0  0  0  0  0  0  0  0  0  0  0  0
   -1.4785   -2.4817    7.6519 H   0  0  0  0  0  0  0  0  0  0  0  0
   -1.1556   -2.1437    9.8442 H   0  0  0  0  0  0  0  0  0  0  0  0
    1.2772   -4.6950   10.8960 H   0  0  0  0  0  0  0  0  0  0  0  0
    1.5221   -5.3944   13.2380 H   0  0  0  0  0  0  0  0  0  0  0  0
   -1.7599   -2.8112   14.3394 H   0  0  0  0  0  0  0  0  0  0  0  0
    3.9345   -1.9111    9.6376 H   0  0  0  0  0  0  0  0  0  0  0  0
    2.7782   -1.9334    5.2189 H   0  0  0  0  0  0  0  0  0  0  0  0
   -0.8591   -0.8817    3.6226 H   0  0  0  0  0  0  0  0  0  0  0  0
   -0.9297   -2.3759    2.6422 H   0  0  0  0  0  0  0  0  0  0  0  0
    0.6349   -1.4350    1.0275 H   0  0  0  0  0  0  0  0  0  0  0  0
   -1.8702   -0.9742    0.8713 H   0  0  0  0  0  0  0  0  0  0  0  0
   -0.8555    0.2019    0.0399 H   0  0  0  0  0  0  0  0  0  0  0  0
   -2.1927    0.5539    2.7744 H   0  0  0  0  0  0  0  0  0  0  0  0
   -2.5739    1.4027    1.2920 H   0  0  0  0  0  0  0  0  0  0  0  0
   -1.1846    2.7475    2.8697 H   0  0  0  0  0  0  0  0  0  0  0  0
   -0.4301    2.5543    1.2837 H   0  0  0  0  0  0  0  0  0  0  0  0
    1.0078    3.2579    3.8127 H   0  0  0  0  0  0  0  0  0  0  0  0
    1.7901    3.0145    2.2364 H   0  0  0  0  0  0  0  0  0  0  0  0
    2.3213    2.0990    3.6629 H   0  0  0  0  0  0  0  0  0  0  0  0
    1.9796   -0.0035    2.5460 H   0  0  0  0  0  0  0  0  0  0  0  0
    1.4579    0.8292    1.0856 H   0  0  0  0  0  0  0  0  0  0  0  0
  1  2  1  0  0  0  0
  1 31  1  0  0  0  0
  1 32  1  0  0  0  0
  1 33  1  0  0  0  0
  2  3  1  0  0  0  0
  3  4  1  0  0  0  0
  3 21  2  0  0  0  0
  4  5  2  0  0  0  0
  4 34  1  0  0  0  0
  5  6  1  0  0  0  0
  5 19  1  0  0  0  0
  6  7  1  0  0  0  0
  6 16  2  0  0  0  0
  7  8  1  0  0  0  0
  7 35  1  0  0  0  0
  8  9  1  0  0  0  0
  8 14  2  0  0  0  0
  9 10  2  0  0  0  0
  9 36  1  0  0  0  0
 10 11  1  0  0  0  0
 10 37  1  0  0  0  0
 11 12  1  0  0  0  0
 11 13  2  0  0  0  0
 13 14  1  0  0  0  0
 13 38  1  0  0  0  0
 14 15  1  0  0  0  0
 16 17  1  0  0  0  0
 17 18  2  0  0  0  0
 17 39  1  0  0  0  0
 18 19  1  0  0  0  0
 19 20  2  0  0  0  0
 20 21  1  0  0  0  0
 20 40  1  0  0  0  0
 21 22  1  0  0  0  0
 22 23  1  0  0  0  0
 23 41  1  0  0  0  0
 23 42  1  0  0  0  0
 24 25  1  0  0  0  0
 24 30  1  0  0  0  0
 24 23  1  0  0  0  0
 24 43  1  6  0  0  0
 25 26  1  0  0  0  0
 25 44  1  0  0  0  0
 25 45  1  0  0  0  0
 26 27  1  0  0  0  0
 26 46  1  0  0  0  0
 26 47  1  0  0  0  0
 27 28  1  0  0  0  0
 27 48  1  0  0  0  0
 27 49  1  0  0  0  0
 28 29  1  0  0  0  0
 28 30  1  0  0  0  0
 29 50  1  0  0  0  0
 29 51  1  0  0  0  0
 29 52  1  0  0  0  0
 30 53  1  0  0  0  0
 30 54  1  0  0  0  0
M  END
$$$$
