CHEMBL378831
 OpenBabel04072215373D

 69 74  0  0  0  0  0  0  0  0999 V2000
    1.9836   -0.1935   -1.0149 C   0  0  0  0  0  0  0  0  0  0  0  0
    0.5515    0.0779   -1.0688 N   0  0  0  0  0  0  0  0  0  0  0  0
   -0.2285   -1.1132   -0.7107 C   0  0  0  0  0  0  0  0  0  0  0  0
   -1.7436   -0.8138   -0.7391 C   0  0  0  0  0  0  0  0  0  0  0  0
   -2.1637    0.2613    0.1884 N   0  0  0  0  0  0  0  0  0  0  0  0
   -2.0161   -0.0776    1.6157 C   0  0  0  0  0  0  0  0  0  0  0  0
   -2.8029   -1.2921    2.0659 C   0  0  0  0  0  0  0  0  0  0  0  0
   -2.2122   -2.5826    1.9810 C   0  0  0  0  0  0  0  0  0  0  0  0
   -2.9100   -3.7450    2.3071 C   0  0  0  0  0  0  0  0  0  0  0  0
   -4.1916   -3.6019    2.7925 C   0  0  0  0  0  0  0  0  0  0  0  0
   -4.7503   -2.3053    2.9542 C   0  0  0  0  0  0  0  0  0  0  0  0
   -4.1021   -1.1527    2.5717 C   0  0  0  0  0  0  0  0  0  0  0  0
   -6.0141   -2.5117    3.5712 C   0  0  0  0  0  0  0  0  0  0  0  0
   -6.9789   -1.7612    4.0805 N   0  0  0  0  0  0  0  0  0  0  0  0
   -7.8474   -2.7028    4.5362 N   0  0  0  0  0  0  0  0  0  0  0  0
   -7.4415   -4.0077    4.3207 C   0  0  0  0  0  0  0  0  0  0  0  0
   -8.1735   -5.1679    4.7006 C   0  0  0  0  0  0  0  0  0  0  0  0
   -7.9763   -6.4599    4.2765 C   0  0  0  0  0  0  0  0  0  0  0  0
   -8.8208   -7.3849    4.9536 C   0  0  0  0  0  0  0  0  0  0  0  0
   -9.5934   -6.7603    5.9146 C   0  0  0  0  0  0  0  0  0  0  0  0
  -10.5607   -7.3766    6.8651 C   0  0  0  0  0  0  0  0  0  0  0  0
  -10.3193   -7.1810    8.3027 N   0  0  0  0  0  0  0  0  0  0  0  0
   -9.1406   -6.4891    8.8184 C   0  0  0  0  0  0  0  0  0  0  0  0
  -11.3884   -7.5866    9.1006 C   0  0  0  0  0  0  0  0  0  0  0  0
  -12.3602   -8.1524    8.6006 O   0  0  0  0  0  0  0  0  0  0  0  0
  -11.2657   -7.2869   10.4388 N   0  0  0  0  0  0  0  0  0  0  0  0
  -12.1895   -7.5938   11.4552 C   0  0  0  0  0  0  0  0  0  0  0  0
  -13.2631   -8.4689   11.2811 C   0  0  0  0  0  0  0  0  0  0  0  0
  -14.2037   -8.6490   12.3018 C   0  0  0  0  0  0  0  0  0  0  0  0
  -14.0586   -7.9662   13.5043 C   0  0  0  0  0  0  0  0  0  0  0  0
  -12.9621   -7.1331   13.6999 C   0  0  0  0  0  0  0  0  0  0  0  0
  -12.7810   -6.2877   15.1869 Cl  0  0  0  0  0  0  0  0  0  0  0  0
  -12.0161   -6.9552   12.6869 C   0  0  0  0  0  0  0  0  0  0  0  0
   -9.4744   -5.0596    5.7993 S   0  0  0  0  0  0  0  0  0  0  0  0
   -6.2244   -3.8869    3.7168 C   0  0  0  0  0  0  0  0  0  0  0  0
   -5.1238   -4.7358    3.2038 C   0  0  0  0  0  0  0  0  0  0  0  0
   -1.3503    1.4585   -0.1405 C   0  0  0  0  0  0  0  0  0  0  0  0
    0.1829    1.2121   -0.1980 C   0  0  0  0  0  0  0  0  0  0  0  0
    2.2397   -1.0315   -1.6737 H   0  0  0  0  0  0  0  0  0  0  0  0
    2.3246   -0.4385   -0.0025 H   0  0  0  0  0  0  0  0  0  0  0  0
    2.5495    0.6723   -1.3725 H   0  0  0  0  0  0  0  0  0  0  0  0
    0.0719   -1.4782    0.2829 H   0  0  0  0  0  0  0  0  0  0  0  0
   -0.0228   -1.9250   -1.4171 H   0  0  0  0  0  0  0  0  0  0  0  0
   -2.3209   -1.7297   -0.5761 H   0  0  0  0  0  0  0  0  0  0  0  0
   -2.0119   -0.5068   -1.7601 H   0  0  0  0  0  0  0  0  0  0  0  0
   -2.3661    0.7758    2.2115 H   0  0  0  0  0  0  0  0  0  0  0  0
   -0.9684   -0.2213    1.9082 H   0  0  0  0  0  0  0  0  0  0  0  0
   -1.1888   -2.6870    1.6305 H   0  0  0  0  0  0  0  0  0  0  0  0
   -2.4524   -4.7210    2.1928 H   0  0  0  0  0  0  0  0  0  0  0  0
   -4.5832   -0.1861    2.6674 H   0  0  0  0  0  0  0  0  0  0  0  0
   -8.7037   -2.3991    4.9859 H   0  0  0  0  0  0  0  0  0  0  0  0
   -7.2507   -6.7510    3.5173 H   0  0  0  0  0  0  0  0  0  0  0  0
   -8.8370   -8.4505    4.7636 H   0  0  0  0  0  0  0  0  0  0  0  0
  -10.5924   -8.4619    6.6982 H   0  0  0  0  0  0  0  0  0  0  0  0
  -11.5642   -6.9943    6.6268 H   0  0  0  0  0  0  0  0  0  0  0  0
   -8.2741   -6.5874    8.1610 H   0  0  0  0  0  0  0  0  0  0  0  0
   -8.8485   -6.9079    9.7859 H   0  0  0  0  0  0  0  0  0  0  0  0
   -9.3993   -5.4350    8.9695 H   0  0  0  0  0  0  0  0  0  0  0  0
  -10.5652   -6.6110   10.6887 H   0  0  0  0  0  0  0  0  0  0  0  0
  -13.4076   -9.0228   10.3591 H   0  0  0  0  0  0  0  0  0  0  0  0
  -15.0468   -9.3118   12.1359 H   0  0  0  0  0  0  0  0  0  0  0  0
  -14.8062   -8.0873   14.2822 H   0  0  0  0  0  0  0  0  0  0  0  0
  -11.1701   -6.2982   12.8603 H   0  0  0  0  0  0  0  0  0  0  0  0
   -5.4414   -5.3171    2.3327 H   0  0  0  0  0  0  0  0  0  0  0  0
   -4.6702   -5.3648    3.9744 H   0  0  0  0  0  0  0  0  0  0  0  0
   -1.5662    2.2686    0.5663 H   0  0  0  0  0  0  0  0  0  0  0  0
   -1.6788    1.8295   -1.1209 H   0  0  0  0  0  0  0  0  0  0  0  0
    0.5588    1.0490    0.8205 H   0  0  0  0  0  0  0  0  0  0  0  0
    0.6603    2.1246   -0.5738 H   0  0  0  0  0  0  0  0  0  0  0  0
  1  2  1  0  0  0  0
  1 39  1  0  0  0  0
  1 40  1  0  0  0  0
  1 41  1  0  0  0  0
  2  3  1  0  0  0  0
  2 38  1  0  0  0  0
  3  4  1  0  0  0  0
  3 42  1  0  0  0  0
  3 43  1  0  0  0  0
  4  5  1  0  0  0  0
  4 44  1  0  0  0  0
  4 45  1  0  0  0  0
  5  6  1  0  0  0  0
  5 37  1  0  0  0  0
  6  7  1  0  0  0  0
  6 46  1  0  0  0  0
  6 47  1  0  0  0  0
  7  8  1  0  0  0  0
  7 12  2  0  0  0  0
  8  9  2  0  0  0  0
  8 48  1  0  0  0  0
  9 10  1  0  0  0  0
  9 49  1  0  0  0  0
 10 11  2  0  0  0  0
 10 36  1  0  0  0  0
 11 12  1  0  0  0  0
 11 13  1  0  0  0  0
 12 50  1  0  0  0  0
 13 14  2  0  0  0  0
 13 35  1  0  0  0  0
 14 15  1  0  0  0  0
 15 16  1  0  0  0  0
 15 51  1  0  0  0  0
 16 17  1  0  0  0  0
 16 35  2  0  0  0  0
 17 18  2  0  0  0  0
 17 34  1  0  0  0  0
 18 19  1  0  0  0  0
 18 52  1  0  0  0  0
 19 20  2  0  0  0  0
 19 53  1  0  0  0  0
 20 21  1  0  0  0  0
 20 34  1  0  0  0  0
 21 22  1  0  0  0  0
 21 54  1  0  0  0  0
 21 55  1  0  0  0  0
 22 23  1  0  0  0  0
 22 24  1  0  0  0  0
 23 56  1  0  0  0  0
 23 57  1  0  0  0  0
 23 58  1  0  0  0  0
 24 25  2  0  0  0  0
 24 26  1  0  0  0  0
 26 27  1  0  0  0  0
 26 59  1  0  0  0  0
 27 28  1  0  0  0  0
 27 33  2  0  0  0  0
 28 29  2  0  0  0  0
 28 60  1  0  0  0  0
 29 30  1  0  0  0  0
 29 61  1  0  0  0  0
 30 31  2  0  0  0  0
 30 62  1  0  0  0  0
 31 32  1  0  0  0  0
 31 33  1  0  0  0  0
 33 63  1  0  0  0  0
 35 36  1  0  0  0  0
 36 64  1  0  0  0  0
 36 65  1  0  0  0  0
 37 38  1  0  0  0  0
 37 66  1  0  0  0  0
 37 67  1  0  0  0  0
 38 68  1  0  0  0  0
 38 69  1  0  0  0  0
M  END
$$$$
