CHEMBL3942161
 OpenBabel04072215373D

 61 64  0  0  1  0  0  0  0  0999 V2000
    0.9512    0.2941   -1.8131 C   0  0  0  0  0  0  0  0  0  0  0  0
    2.4035    0.3769   -1.3704 C   0  0  0  0  0  0  0  0  0  0  0  0
    3.2661    0.5918   -2.5295 N   0  0  0  0  0  0  0  0  0  0  0  0
    4.5916    0.2371   -2.5767 C   0  0  0  0  0  0  0  0  0  0  0  0
    5.4695    0.1238   -1.6287 N   0  0  0  0  0  0  0  0  0  0  0  0
    5.1770    0.4188   -0.3710 C   0  0  0  0  0  0  0  0  0  0  0  0
    4.9379    0.6336    0.7473 N   0  0  0  0  0  0  0  0  0  0  0  0
    4.9789   -0.0852   -3.8635 N   0  0  0  0  0  0  0  0  0  0  0  0
    4.5297    0.5321   -5.1215 C   0  0  0  0  0  0  0  0  0  0  0  0
    4.2395   -0.5710   -6.1576 C   0  0  0  0  0  0  0  0  0  0  0  0
    5.3334   -1.4979   -6.3048 O   0  0  0  0  0  0  0  0  0  0  0  0
    5.7548   -2.0714   -5.0375 C   0  0  3  0  0  0  0  0  0  0  0  0
    4.6739   -3.0239   -4.4936 C   0  0  0  0  0  0  0  0  0  0  0  0
    5.0111   -3.6553   -3.2554 O   0  0  0  0  0  0  0  0  0  0  0  0
    3.9785   -4.3784   -2.6872 C   0  0  0  0  0  0  0  0  0  0  0  0
    3.9986   -4.4282   -1.2766 C   0  0  0  0  0  0  0  0  0  0  0  0
    3.0651   -5.1645   -0.5384 C   0  0  0  0  0  0  0  0  0  0  0  0
    3.1096   -5.2196    0.8004 N   0  0  0  0  0  0  0  0  0  0  0  0
    2.1769   -5.9687    1.4123 C   0  0  0  0  0  0  0  0  0  0  0  0
    1.2140   -6.6853    0.8174 N   0  0  0  0  0  0  0  0  0  0  0  0
    1.1827   -6.6372   -0.5219 C   0  0  0  0  0  0  0  0  0  0  0  0
    0.2659   -7.4547   -1.2500 N   0  0  0  0  0  0  0  0  0  0  0  0
   -0.8519   -8.1094   -0.7060 C   0  0  0  0  0  0  0  0  0  0  0  0
   -1.7241   -7.4283    0.1470 C   0  0  0  0  0  0  0  0  0  0  0  0
   -2.7925   -8.0901    0.7477 C   0  0  0  0  0  0  0  0  0  0  0  0
   -3.0066   -9.4439    0.4934 C   0  0  0  0  0  0  0  0  0  0  0  0
   -4.3037  -10.2201    1.3263 Cl  0  0  0  0  0  0  0  0  0  0  0  0
   -2.1720  -10.1230   -0.4008 C   0  0  0  0  0  0  0  0  0  0  0  0
   -2.3832  -11.7973   -0.7754 Cl  0  0  0  0  0  0  0  0  0  0  0  0
   -1.1075   -9.4512   -1.0114 C   0  0  0  0  0  0  0  0  0  0  0  0
    2.0768   -5.8449   -1.2484 C   0  0  0  0  0  0  0  0  0  0  0  0
    1.9981   -5.7317   -2.6398 C   0  0  0  0  0  0  0  0  0  0  0  0
    2.9736   -5.0747   -3.3760 C   0  0  0  0  0  0  0  0  0  0  0  0
    2.9004   -5.0761   -4.7415 O   0  0  0  0  0  0  0  0  0  0  0  0
    2.4646   -6.2948   -5.3494 C   0  0  0  0  0  0  0  0  0  0  0  0
    6.1505   -0.9531   -4.0721 C   0  0  0  0  0  0  0  0  0  0  0  0
    0.2927    0.1951   -0.9451 H   0  0  0  0  0  0  0  0  0  0  0  0
    0.7940   -0.5758   -2.4605 H   0  0  0  0  0  0  0  0  0  0  0  0
    0.6564    1.1869   -2.3738 H   0  0  0  0  0  0  0  0  0  0  0  0
    2.6613   -0.5625   -0.8683 H   0  0  0  0  0  0  0  0  0  0  0  0
    2.5166    1.2050   -0.6642 H   0  0  0  0  0  0  0  0  0  0  0  0
    2.7785    0.3742   -3.3854 H   0  0  0  0  0  0  0  0  0  0  0  0
    5.3310    1.1777   -5.5007 H   0  0  0  0  0  0  0  0  0  0  0  0
    3.6446    1.1646   -5.0043 H   0  0  0  0  0  0  0  0  0  0  0  0
    4.0580   -0.1222   -7.1392 H   0  0  0  0  0  0  0  0  0  0  0  0
    3.3294   -1.1222   -5.8968 H   0  0  0  0  0  0  0  0  0  0  0  0
    6.6555   -2.6618   -5.2445 H   0  0  0  0  0  0  0  0  0  0  0  0
    4.5623   -3.7744   -5.2788 H   0  0  0  0  0  0  0  0  0  0  0  0
    3.7228   -2.4958   -4.3654 H   0  0  0  0  0  0  0  0  0  0  0  0
    4.7670   -3.8798   -0.7336 H   0  0  0  0  0  0  0  0  0  0  0  0
    2.2087   -6.0099    2.4956 H   0  0  0  0  0  0  0  0  0  0  0  0
    0.7929   -8.0462   -1.8861 H   0  0  0  0  0  0  0  0  0  0  0  0
   -1.5589   -6.3736    0.3589 H   0  0  0  0  0  0  0  0  0  0  0  0
   -3.4380   -7.5403    1.4274 H   0  0  0  0  0  0  0  0  0  0  0  0
   -0.4582   -9.9919   -1.6954 H   0  0  0  0  0  0  0  0  0  0  0  0
    1.1312   -6.1481   -3.1400 H   0  0  0  0  0  0  0  0  0  0  0  0
    2.3930   -6.1213   -6.4259 H   0  0  0  0  0  0  0  0  0  0  0  0
    1.4663   -6.6049   -5.0280 H   0  0  0  0  0  0  0  0  0  0  0  0
    3.1869   -7.0983   -5.1711 H   0  0  0  0  0  0  0  0  0  0  0  0
    6.9561   -0.3493   -4.5115 H   0  0  0  0  0  0  0  0  0  0  0  0
    6.5392   -1.3870   -3.1452 H   0  0  0  0  0  0  0  0  0  0  0  0
  1  2  1  0  0  0  0
  1 37  1  0  0  0  0
  1 38  1  0  0  0  0
  1 39  1  0  0  0  0
  2  3  1  0  0  0  0
  2 40  1  0  0  0  0
  2 41  1  0  0  0  0
  3  4  1  0  0  0  0
  3 42  1  0  0  0  0
  4  5  2  0  0  0  0
  4  8  1  0  0  0  0
  5  6  1  0  0  0  0
  6  7  3  0  0  0  0
  8  9  1  0  0  0  0
  8 36  1  0  0  0  0
  9 10  1  0  0  0  0
  9 43  1  0  0  0  0
  9 44  1  0  0  0  0
 10 11  1  0  0  0  0
 10 45  1  0  0  0  0
 10 46  1  0  0  0  0
 11 12  1  0  0  0  0
 12 13  1  0  0  0  0
 12 36  1  0  0  0  0
 12 47  1  0  0  0  0
 13 14  1  0  0  0  0
 13 48  1  0  0  0  0
 13 49  1  0  0  0  0
 14 15  1  0  0  0  0
 15 16  1  0  0  0  0
 15 33  2  0  0  0  0
 16 17  2  0  0  0  0
 16 50  1  0  0  0  0
 17 18  1  0  0  0  0
 17 31  1  0  0  0  0
 18 19  2  0  0  0  0
 19 20  1  0  0  0  0
 19 51  1  0  0  0  0
 20 21  2  0  0  0  0
 21 22  1  0  0  0  0
 21 31  1  0  0  0  0
 22 23  1  0  0  0  0
 22 52  1  0  0  0  0
 23 24  1  0  0  0  0
 23 30  2  0  0  0  0
 24 25  2  0  0  0  0
 24 53  1  0  0  0  0
 25 26  1  0  0  0  0
 25 54  1  0  0  0  0
 26 27  1  0  0  0  0
 26 28  2  0  0  0  0
 28 29  1  0  0  0  0
 28 30  1  0  0  0  0
 30 55  1  0  0  0  0
 31 32  2  0  0  0  0
 32 33  1  0  0  0  0
 32 56  1  0  0  0  0
 33 34  1  0  0  0  0
 34 35  1  0  0  0  0
 35 57  1  0  0  0  0
 35 58  1  0  0  0  0
 35 59  1  0  0  0  0
 36 60  1  0  0  0  0
 36 61  1  0  0  0  0
M  END
$$$$
