CHEMBL184706
 OpenBabel04072215363D

 46 49  0  0  0  0  0  0  0  0999 V2000
    2.8502   -6.2318   -0.7404 C   0  0  0  0  0  0  0  0  0  0  0  0
    1.3797   -6.5185   -0.8168 C   0  0  0  0  0  0  0  0  0  0  0  0
    0.9412   -7.7988   -1.1643 C   0  0  0  0  0  0  0  0  0  0  0  0
   -0.4173   -8.0809   -1.2340 C   0  0  0  0  0  0  0  0  0  0  0  0
   -1.3475   -7.0840   -0.9624 C   0  0  0  0  0  0  0  0  0  0  0  0
   -0.9469   -5.7895   -0.6119 C   0  0  0  0  0  0  0  0  0  0  0  0
   -1.8650   -4.7486   -0.3414 N   0  0  0  0  0  0  0  0  0  0  0  0
   -3.2409   -4.8799   -0.2706 C   0  0  0  0  0  0  0  0  0  0  0  0
   -3.8580   -5.9409   -0.3483 O   0  0  0  0  0  0  0  0  0  0  0  0
   -3.8839   -3.6594   -0.1226 N   0  0  0  0  0  0  0  0  0  0  0  0
   -5.2972   -3.6271   -0.0094 C   0  0  0  0  0  0  0  0  0  0  0  0
   -5.9732   -4.4726    0.8659 C   0  0  0  0  0  0  0  0  0  0  0  0
   -7.3696   -4.4492    0.9284 C   0  0  0  0  0  0  0  0  0  0  0  0
   -8.1414   -3.6438    0.0724 C   0  0  0  0  0  0  0  0  0  0  0  0
   -9.6228   -3.7273    0.0488 C   0  0  0  0  0  0  0  0  0  0  0  0
  -10.4218   -2.5799   -0.1739 C   0  0  0  0  0  0  0  0  0  0  0  0
  -11.8299   -2.6355   -0.2535 C   0  0  0  0  0  0  0  0  0  0  0  0
  -12.4970   -3.8463   -0.1078 C   0  0  0  0  0  0  0  0  0  0  0  0
  -11.7229   -4.9650    0.1140 C   0  0  0  0  0  0  0  0  0  0  0  0
  -10.3213   -4.9303    0.1983 C   0  0  0  0  0  0  0  0  0  0  0  0
   -9.8281   -6.3257    0.4260 C   0  0  0  0  0  0  0  0  0  0  0  0
  -11.0293   -7.1146    0.4072 N   0  0  0  0  0  0  0  0  0  0  0  0
  -12.1646   -6.3526    0.2734 C   0  0  0  0  0  0  0  0  0  0  0  0
  -13.3156   -6.7421    0.2913 O   0  0  0  0  0  0  0  0  0  0  0  0
   -7.4372   -2.7801   -0.7874 C   0  0  0  0  0  0  0  0  0  0  0  0
   -6.0392   -2.7567   -0.8024 C   0  0  0  0  0  0  0  0  0  0  0  0
   -5.4078   -1.9391   -1.6589 F   0  0  0  0  0  0  0  0  0  0  0  0
    0.4297   -5.5168   -0.5407 C   0  0  0  0  0  0  0  0  0  0  0  0
    3.4406   -7.1146   -1.0109 H   0  0  0  0  0  0  0  0  0  0  0  0
    3.1281   -5.9461    0.2782 H   0  0  0  0  0  0  0  0  0  0  0  0
    3.1185   -5.4299   -1.4343 H   0  0  0  0  0  0  0  0  0  0  0  0
    1.6531   -8.5925   -1.3835 H   0  0  0  0  0  0  0  0  0  0  0  0
   -0.7605   -9.0759   -1.5018 H   0  0  0  0  0  0  0  0  0  0  0  0
   -2.3927   -7.3625   -1.0389 H   0  0  0  0  0  0  0  0  0  0  0  0
   -1.4838   -3.8548   -0.0633 H   0  0  0  0  0  0  0  0  0  0  0  0
   -3.4788   -2.9034   -0.6612 H   0  0  0  0  0  0  0  0  0  0  0  0
   -5.4293   -5.1664    1.5035 H   0  0  0  0  0  0  0  0  0  0  0  0
   -7.8352   -5.0912    1.6687 H   0  0  0  0  0  0  0  0  0  0  0  0
   -9.9537   -1.6026   -0.2908 H   0  0  0  0  0  0  0  0  0  0  0  0
  -12.3963   -1.7252   -0.4376 H   0  0  0  0  0  0  0  0  0  0  0  0
  -13.5778   -3.9181   -0.1735 H   0  0  0  0  0  0  0  0  0  0  0  0
   -9.3863   -6.4563    1.4170 H   0  0  0  0  0  0  0  0  0  0  0  0
   -9.1565   -6.6727   -0.3634 H   0  0  0  0  0  0  0  0  0  0  0  0
  -11.0809   -8.1059    0.5995 H   0  0  0  0  0  0  0  0  0  0  0  0
   -7.9600   -2.1340   -1.4869 H   0  0  0  0  0  0  0  0  0  0  0  0
    0.7762   -4.5222   -0.2721 H   0  0  0  0  0  0  0  0  0  0  0  0
  1  2  1  0  0  0  0
  1 29  1  0  0  0  0
  1 30  1  0  0  0  0
  1 31  1  0  0  0  0
  2  3  1  0  0  0  0
  2 28  2  0  0  0  0
  3  4  2  0  0  0  0
  3 32  1  0  0  0  0
  4  5  1  0  0  0  0
  4 33  1  0  0  0  0
  5  6  2  0  0  0  0
  5 34  1  0  0  0  0
  6  7  1  0  0  0  0
  6 28  1  0  0  0  0
  7  8  1  0  0  0  0
  7 35  1  0  0  0  0
  8  9  2  0  0  0  0
  8 10  1  0  0  0  0
 10 11  1  0  0  0  0
 10 36  1  0  0  0  0
 11 12  1  0  0  0  0
 11 26  2  0  0  0  0
 12 13  2  0  0  0  0
 12 37  1  0  0  0  0
 13 14  1  0  0  0  0
 13 38  1  0  0  0  0
 14 15  1  0  0  0  0
 14 25  2  0  0  0  0
 15 16  1  0  0  0  0
 15 20  2  0  0  0  0
 16 17  2  0  0  0  0
 16 39  1  0  0  0  0
 17 18  1  0  0  0  0
 17 40  1  0  0  0  0
 18 19  2  0  0  0  0
 18 41  1  0  0  0  0
 19 20  1  0  0  0  0
 19 23  1  0  0  0  0
 20 21  1  0  0  0  0
 21 22  1  0  0  0  0
 21 42  1  0  0  0  0
 21 43  1  0  0  0  0
 22 23  1  0  0  0  0
 22 44  1  0  0  0  0
 23 24  2  0  0  0  0
 25 26  1  0  0  0  0
 25 45  1  0  0  0  0
 26 27  1  0  0  0  0
 28 46  1  0  0  0  0
M  END
$$$$
