CHEMBL4077373
 OpenBabel04072215383D

 59 64  0  0  1  0  0  0  0  0999 V2000
   10.5724   -1.8826   -1.8203 C   0  0  0  0  0  0  0  0  0  0  0  0
   11.0735   -0.5109   -2.2077 C   0  0  0  0  0  0  0  0  0  0  0  0
   12.0680   -0.4247   -2.9262 O   0  0  0  0  0  0  0  0  0  0  0  0
   10.3689    0.5879   -1.7340 N   0  0  0  0  0  0  0  0  0  0  0  0
    9.2871    0.4755   -0.7566 C   0  0  0  0  0  0  0  0  0  0  0  0
    7.9489    0.8846   -1.3370 C   0  0  0  0  0  0  0  0  0  0  0  0
    6.8625    0.4569   -0.6580 N   0  0  0  0  0  0  0  0  0  0  0  0
    5.6784    0.8234   -1.1520 C   0  0  0  0  0  0  0  0  0  0  0  0
    5.4864    1.5790   -2.2333 N   0  0  0  0  0  0  0  0  0  0  0  0
    6.5908    2.0471   -2.8553 C   0  0  0  0  0  0  0  0  0  0  0  0
    6.4126    2.9440   -3.9187 O   0  0  0  0  0  0  0  0  0  0  0  0
    5.2225    3.6619   -3.9199 C   0  0  0  0  0  0  0  0  0  0  0  0
    4.7276    4.2626   -2.7549 C   0  0  0  0  0  0  0  0  0  0  0  0
    3.4648    4.8403   -2.7220 C   0  0  0  0  0  0  0  0  0  0  0  0
    2.7096    4.8575   -3.9018 C   0  0  0  0  0  0  0  0  0  0  0  0
    3.2183    4.3615   -5.1087 C   0  0  0  0  0  0  0  0  0  0  0  0
    2.2171    4.5905   -6.0941 C   0  0  0  0  0  0  0  0  0  0  0  0
    1.0984    5.0895   -5.4585 C   0  0  0  0  0  0  0  0  0  0  0  0
    1.3990    5.2762   -4.1205 N   0  0  0  0  0  0  0  0  0  0  0  0
    0.5651    5.8738   -3.1601 C   0  0  0  0  0  0  0  0  0  0  0  0
    0.9625    6.8711   -2.5731 O   0  0  0  0  0  0  0  0  0  0  0  0
   -0.5597    5.1200   -2.9210 N   0  0  0  0  0  0  0  0  0  0  0  0
   -1.3772    5.4568   -1.8481 C   0  0  0  0  0  0  0  0  0  0  0  0
   -1.7887    6.7516   -1.4606 C   0  0  0  0  0  0  0  0  0  0  0  0
   -2.4824    6.5685   -0.2898 C   0  0  0  0  0  0  0  0  0  0  0  0
   -3.0922    7.6881    0.5383 C   0  0  0  0  0  0  0  0  0  0  0  0
   -3.0045    7.6129    2.0477 C   0  0  0  0  0  0  0  0  0  0  0  0
   -4.3177    7.3975    1.3778 C   0  0  0  0  0  0  0  0  0  0  0  0
   -2.5204    5.2363   -0.0097 O   0  0  0  0  0  0  0  0  0  0  0  0
   -1.8834    4.5298   -1.0271 N   0  0  0  0  0  0  0  0  0  0  0  0
    4.5078    3.7700   -5.1208 C   0  0  0  0  0  0  0  0  0  0  0  0
    7.8752    1.7051   -2.4629 C   0  0  0  0  0  0  0  0  0  0  0  0
    9.1197    2.1062   -3.2132 C   0  0  0  0  0  0  0  0  0  0  0  0
   10.4101    1.9173   -2.3795 C   0  0  2  0  0  0  0  0  0  0  0  0
   11.6416    2.2513   -3.2260 C   0  0  0  0  0  0  0  0  0  0  0  0
   11.0621   -2.6323   -2.4497 H   0  0  0  0  0  0  0  0  0  0  0  0
    9.4976   -1.9615   -2.0072 H   0  0  0  0  0  0  0  0  0  0  0  0
   10.8047   -2.0984   -0.7750 H   0  0  0  0  0  0  0  0  0  0  0  0
    9.5276    1.1508    0.0740 H   0  0  0  0  0  0  0  0  0  0  0  0
    9.2145   -0.5276   -0.3306 H   0  0  0  0  0  0  0  0  0  0  0  0
    4.7933    0.4940   -0.6187 H   0  0  0  0  0  0  0  0  0  0  0  0
    5.3056    4.2168   -1.8353 H   0  0  0  0  0  0  0  0  0  0  0  0
    3.0664    5.2261   -1.7877 H   0  0  0  0  0  0  0  0  0  0  0  0
    2.2998    4.3955   -7.1557 H   0  0  0  0  0  0  0  0  0  0  0  0
    0.1408    5.4044   -5.8521 H   0  0  0  0  0  0  0  0  0  0  0  0
   -0.5365    4.1281   -3.1346 H   0  0  0  0  0  0  0  0  0  0  0  0
   -1.5916    7.6881   -1.9585 H   0  0  0  0  0  0  0  0  0  0  0  0
   -3.0085    8.6795    0.1044 H   0  0  0  0  0  0  0  0  0  0  0  0
   -2.8598    8.5400    2.5904 H   0  0  0  0  0  0  0  0  0  0  0  0
   -2.5238    6.7586    2.5099 H   0  0  0  0  0  0  0  0  0  0  0  0
   -5.0643    8.1753    1.4657 H   0  0  0  0  0  0  0  0  0  0  0  0
   -4.7293    6.3941    1.3882 H   0  0  0  0  0  0  0  0  0  0  0  0
    4.9168    3.3691   -6.0438 H   0  0  0  0  0  0  0  0  0  0  0  0
    9.0491    3.1523   -3.5335 H   0  0  0  0  0  0  0  0  0  0  0  0
    9.1769    1.4780   -4.1113 H   0  0  0  0  0  0  0  0  0  0  0  0
   10.4028    2.6435   -1.5538 H   0  0  0  0  0  0  0  0  0  0  0  0
   11.7111    1.6165   -4.1137 H   0  0  0  0  0  0  0  0  0  0  0  0
   12.5651    2.1482   -2.6442 H   0  0  0  0  0  0  0  0  0  0  0  0
   11.5860    3.2873   -3.5819 H   0  0  0  0  0  0  0  0  0  0  0  0
  1  2  1  0  0  0  0
  1 36  1  0  0  0  0
  1 37  1  0  0  0  0
  1 38  1  0  0  0  0
  2  3  2  0  0  0  0
  2  4  1  0  0  0  0
  4  5  1  0  0  0  0
  4 34  1  0  0  0  0
  5  6  1  0  0  0  0
  5 39  1  0  0  0  0
  5 40  1  0  0  0  0
  6  7  1  0  0  0  0
  6 32  2  0  0  0  0
  7  8  2  0  0  0  0
  8  9  1  0  0  0  0
  8 41  1  0  0  0  0
  9 10  2  0  0  0  0
 10 11  1  0  0  0  0
 10 32  1  0  0  0  0
 11 12  1  0  0  0  0
 12 13  1  0  0  0  0
 12 31  2  0  0  0  0
 13 14  2  0  0  0  0
 13 42  1  0  0  0  0
 14 15  1  0  0  0  0
 14 43  1  0  0  0  0
 15 16  2  0  0  0  0
 15 19  1  0  0  0  0
 16 17  1  0  0  0  0
 16 31  1  0  0  0  0
 17 18  2  0  0  0  0
 17 44  1  0  0  0  0
 18 19  1  0  0  0  0
 18 45  1  0  0  0  0
 19 20  1  0  0  0  0
 20 21  2  0  0  0  0
 20 22  1  0  0  0  0
 22 23  1  0  0  0  0
 22 46  1  0  0  0  0
 23 24  1  0  0  0  0
 23 30  2  0  0  0  0
 24 25  2  0  0  0  0
 24 47  1  0  0  0  0
 25 26  1  0  0  0  0
 25 29  1  0  0  0  0
 26 27  1  0  0  0  0
 26 28  1  0  0  0  0
 26 48  1  0  0  0  0
 27 28  1  0  0  0  0
 27 49  1  0  0  0  0
 27 50  1  0  0  0  0
 28 51  1  0  0  0  0
 28 52  1  0  0  0  0
 29 30  1  0  0  0  0
 31 53  1  0  0  0  0
 32 33  1  0  0  0  0
 33 34  1  0  0  0  0
 33 54  1  0  0  0  0
 33 55  1  0  0  0  0
 34 35  1  0  0  0  0
 34 56  1  1  0  0  0
 35 57  1  0  0  0  0
 35 58  1  0  0  0  0
 35 59  1  0  0  0  0
M  END
$$$$
