CHEMBL362188
 OpenBabel04072215363D

 52 55  0  0  0  0  0  0  0  0999 V2000
    5.1190   -2.0067   -0.0293 C   0  0  0  0  0  0  0  0  0  0  0  0
    3.9668   -1.2647    0.3790 O   0  0  0  0  0  0  0  0  0  0  0  0
    4.2132   -0.1490    1.1349 C   0  0  0  0  0  0  0  0  0  0  0  0
    5.4187    0.5692    1.0311 C   0  0  0  0  0  0  0  0  0  0  0  0
    5.7498    1.6057    1.8957 C   0  0  0  0  0  0  0  0  0  0  0  0
    6.9770    2.1434    1.7965 N   0  0  0  0  0  0  0  0  0  0  0  0
    7.3459    3.0635    2.7049 C   0  0  0  0  0  0  0  0  0  0  0  0
    6.5369    3.4758    3.7476 C   0  0  0  0  0  0  0  0  0  0  0  0
    5.2623    2.9251    3.8545 C   0  0  0  0  0  0  0  0  0  0  0  0
    4.5662    3.3822    4.9622 O   0  0  0  0  0  0  0  0  0  0  0  0
    3.6897    2.5571    5.6293 C   0  0  0  0  0  0  0  0  0  0  0  0
    3.8599    1.1845    5.7837 C   0  0  0  0  0  0  0  0  0  0  0  0
    2.7874    0.3992    6.2245 C   0  0  0  0  0  0  0  0  0  0  0  0
    1.5691    0.9744    6.6059 C   0  0  0  0  0  0  0  0  0  0  0  0
    0.4132    0.2201    6.9345 N   0  0  0  0  0  0  0  0  0  0  0  0
    0.3176   -1.1608    6.9182 C   0  0  0  0  0  0  0  0  0  0  0  0
    1.2559   -1.9297    6.7394 O   0  0  0  0  0  0  0  0  0  0  0  0
   -0.9933   -1.6018    7.0837 N   0  0  0  0  0  0  0  0  0  0  0  0
   -1.2693   -2.9934    7.1043 C   0  0  0  0  0  0  0  0  0  0  0  0
   -0.4724   -3.8766    7.8457 C   0  0  0  0  0  0  0  0  0  0  0  0
   -0.6815   -5.2545    7.7770 C   0  0  0  0  0  0  0  0  0  0  0  0
   -1.6899   -5.7587    6.9609 C   0  0  0  0  0  0  0  0  0  0  0  0
   -2.5022   -4.8788    6.2455 C   0  0  0  0  0  0  0  0  0  0  0  0
   -3.7184   -5.5105    5.2024 Cl  0  0  0  0  0  0  0  0  0  0  0  0
   -2.3179   -3.4960    6.3338 C   0  0  0  0  0  0  0  0  0  0  0  0
    1.4741    2.3705    6.6091 C   0  0  0  0  0  0  0  0  0  0  0  0
    2.5286    3.1570    6.1202 C   0  0  0  0  0  0  0  0  0  0  0  0
    4.8131    2.0050    2.8642 C   0  0  0  0  0  0  0  0  0  0  0  0
    3.5225    1.4437    2.7924 C   0  0  0  0  0  0  0  0  0  0  0  0
    3.2367    0.3199    2.0104 C   0  0  0  0  0  0  0  0  0  0  0  0
    1.9898   -0.1675    2.2800 O   0  0  0  0  0  0  0  0  0  0  0  0
    1.6468   -1.4890    1.9028 C   0  0  0  0  0  0  0  0  0  0  0  0
    4.8350   -3.0597   -0.1178 H   0  0  0  0  0  0  0  0  0  0  0  0
    5.9424   -1.9597    0.6941 H   0  0  0  0  0  0  0  0  0  0  0  0
    5.4523   -1.6571   -1.0114 H   0  0  0  0  0  0  0  0  0  0  0  0
    6.1535    0.3046    0.2781 H   0  0  0  0  0  0  0  0  0  0  0  0
    8.3416    3.4714    2.5718 H   0  0  0  0  0  0  0  0  0  0  0  0
    6.8986    4.2060    4.4579 H   0  0  0  0  0  0  0  0  0  0  0  0
    4.7690    0.6864    5.4569 H   0  0  0  0  0  0  0  0  0  0  0  0
    2.9360   -0.6750    6.2009 H   0  0  0  0  0  0  0  0  0  0  0  0
   -0.4103    0.7315    7.2156 H   0  0  0  0  0  0  0  0  0  0  0  0
   -1.6910   -1.0124    6.6527 H   0  0  0  0  0  0  0  0  0  0  0  0
    0.3361   -3.4994    8.4689 H   0  0  0  0  0  0  0  0  0  0  0  0
   -0.0390   -5.9273    8.3390 H   0  0  0  0  0  0  0  0  0  0  0  0
   -1.8269   -6.8336    6.8773 H   0  0  0  0  0  0  0  0  0  0  0  0
   -2.9418   -2.8345    5.7411 H   0  0  0  0  0  0  0  0  0  0  0  0
    0.5674    2.8692    6.9381 H   0  0  0  0  0  0  0  0  0  0  0  0
    2.4190    4.2368    6.0675 H   0  0  0  0  0  0  0  0  0  0  0  0
    2.7222    1.8154    3.4260 H   0  0  0  0  0  0  0  0  0  0  0  0
    0.8442   -1.8185    2.5734 H   0  0  0  0  0  0  0  0  0  0  0  0
    2.4636   -2.2071    2.0188 H   0  0  0  0  0  0  0  0  0  0  0  0
    1.2467   -1.4862    0.8856 H   0  0  0  0  0  0  0  0  0  0  0  0
  1  2  1  0  0  0  0
  1 33  1  0  0  0  0
  1 34  1  0  0  0  0
  1 35  1  0  0  0  0
  2  3  1  0  0  0  0
  3  4  1  0  0  0  0
  3 30  2  0  0  0  0
  4  5  2  0  0  0  0
  4 36  1  0  0  0  0
  5  6  1  0  0  0  0
  5 28  1  0  0  0  0
  6  7  2  0  0  0  0
  7  8  1  0  0  0  0
  7 37  1  0  0  0  0
  8  9  2  0  0  0  0
  8 38  1  0  0  0  0
  9 10  1  0  0  0  0
  9 28  1  0  0  0  0
 10 11  1  0  0  0  0
 11 12  1  0  0  0  0
 11 27  2  0  0  0  0
 12 13  2  0  0  0  0
 12 39  1  0  0  0  0
 13 14  1  0  0  0  0
 13 40  1  0  0  0  0
 14 15  1  0  0  0  0
 14 26  2  0  0  0  0
 15 16  1  0  0  0  0
 15 41  1  0  0  0  0
 16 17  2  0  0  0  0
 16 18  1  0  0  0  0
 18 19  1  0  0  0  0
 18 42  1  0  0  0  0
 19 20  1  0  0  0  0
 19 25  2  0  0  0  0
 20 21  2  0  0  0  0
 20 43  1  0  0  0  0
 21 22  1  0  0  0  0
 21 44  1  0  0  0  0
 22 23  2  0  0  0  0
 22 45  1  0  0  0  0
 23 24  1  0  0  0  0
 23 25  1  0  0  0  0
 25 46  1  0  0  0  0
 26 27  1  0  0  0  0
 26 47  1  0  0  0  0
 27 48  1  0  0  0  0
 28 29  2  0  0  0  0
 29 30  1  0  0  0  0
 29 49  1  0  0  0  0
 30 31  1  0  0  0  0
 31 32  1  0  0  0  0
 32 50  1  0  0  0  0
 32 51  1  0  0  0  0
 32 52  1  0  0  0  0
M  END
$$$$
