CHEMBL3944307
 OpenBabel04072215373D

 47 50  0  0  0  0  0  0  0  0999 V2000
    0.6323    0.9021    1.6387 C   0  0  0  0  0  0  0  0  0  0  0  0
    2.0326    1.0905    1.1232 C   0  0  0  0  0  0  0  0  0  0  0  0
    2.2156    1.6034    0.0233 O   0  0  0  0  0  0  0  0  0  0  0  0
    3.0061    0.6345    2.0030 N   0  0  0  0  0  0  0  0  0  0  0  0
    4.4014    0.7096    1.7922 C   0  0  0  0  0  0  0  0  0  0  0  0
    4.9658    1.5075    0.7958 C   0  0  0  0  0  0  0  0  0  0  0  0
    6.3299    1.4491    0.5229 C   0  0  0  0  0  0  0  0  0  0  0  0
    7.1488    0.6107    1.2664 C   0  0  0  0  0  0  0  0  0  0  0  0
    6.6333   -0.0625    2.3727 C   0  0  0  0  0  0  0  0  0  0  0  0
    7.3968   -0.8174    3.2315 O   0  0  0  0  0  0  0  0  0  0  0  0
    8.7037   -0.4700    3.5224 C   0  0  0  0  0  0  0  0  0  0  0  0
    9.2756    0.8024    3.3668 C   0  0  0  0  0  0  0  0  0  0  0  0
   10.6526    1.0281    3.5867 C   0  0  0  0  0  0  0  0  0  0  0  0
   11.3962    0.0008    4.1885 C   0  0  0  0  0  0  0  0  0  0  0  0
   12.7310   -0.2744    4.6466 C   0  0  0  0  0  0  0  0  0  0  0  0
   13.8321   -0.8700    3.8949 C   0  0  0  0  0  0  0  0  0  0  0  0
   13.6528   -1.5519    2.7440 C   0  0  0  0  0  0  0  0  0  0  0  0
   14.2158   -2.8899    2.4979 C   0  0  0  0  0  0  0  0  0  0  0  0
   14.2405   -3.8558    3.5246 C   0  0  0  0  0  0  0  0  0  0  0  0
   14.4966   -5.2011    3.2461 C   0  0  0  0  0  0  0  0  0  0  0  0
   14.7377   -5.6060    1.9372 C   0  0  0  0  0  0  0  0  0  0  0  0
   14.7331   -4.6589    0.9145 C   0  0  0  0  0  0  0  0  0  0  0  0
   14.4721   -3.3142    1.1972 C   0  0  0  0  0  0  0  0  0  0  0  0
   12.5755   -0.8728    5.8487 N   0  0  0  0  0  0  0  0  0  0  0  0
   11.4807   -1.6287    5.6190 N   0  0  0  0  0  0  0  0  0  0  0  0
   10.6948   -1.1232    4.6184 C   0  0  0  0  0  0  0  0  0  0  0  0
    9.4310   -1.4807    4.1524 C   0  0  0  0  0  0  0  0  0  0  0  0
    5.2507   -0.0481    2.6091 C   0  0  0  0  0  0  0  0  0  0  0  0
   -0.0763    1.1394    0.8371 H   0  0  0  0  0  0  0  0  0  0  0  0
    0.4560    1.5812    2.4757 H   0  0  0  0  0  0  0  0  0  0  0  0
    0.4729   -0.1337    1.9441 H   0  0  0  0  0  0  0  0  0  0  0  0
    2.7019    0.0876    2.8011 H   0  0  0  0  0  0  0  0  0  0  0  0
    4.3656    2.1897    0.2029 H   0  0  0  0  0  0  0  0  0  0  0  0
    6.7473    2.0560   -0.2759 H   0  0  0  0  0  0  0  0  0  0  0  0
    8.1972    0.5333    0.9952 H   0  0  0  0  0  0  0  0  0  0  0  0
    8.6596    1.6511    3.0777 H   0  0  0  0  0  0  0  0  0  0  0  0
   11.0760    2.0144    3.4156 H   0  0  0  0  0  0  0  0  0  0  0  0
   14.6653   -1.1734    4.5333 H   0  0  0  0  0  0  0  0  0  0  0  0
   12.8096   -1.3101    2.0929 H   0  0  0  0  0  0  0  0  0  0  0  0
   13.9993   -3.5822    4.5502 H   0  0  0  0  0  0  0  0  0  0  0  0
   14.4717   -5.9390    4.0450 H   0  0  0  0  0  0  0  0  0  0  0  0
   14.8997   -6.6549    1.7099 H   0  0  0  0  0  0  0  0  0  0  0  0
   14.9057   -4.9747   -0.1131 H   0  0  0  0  0  0  0  0  0  0  0  0
   14.4248   -2.6019    0.3664 H   0  0  0  0  0  0  0  0  0  0  0  0
   11.2664   -2.3778    6.2608 H   0  0  0  0  0  0  0  0  0  0  0  0
    8.9871   -2.4423    4.3806 H   0  0  0  0  0  0  0  0  0  0  0  0
    4.8519   -0.6492    3.4225 H   0  0  0  0  0  0  0  0  0  0  0  0
  1  2  1  0  0  0  0
  1 29  1  0  0  0  0
  1 30  1  0  0  0  0
  1 31  1  0  0  0  0
  2  3  2  0  0  0  0
  2  4  1  0  0  0  0
  4  5  1  0  0  0  0
  4 32  1  0  0  0  0
  5  6  1  0  0  0  0
  5 28  2  0  0  0  0
  6  7  2  0  0  0  0
  6 33  1  0  0  0  0
  7  8  1  0  0  0  0
  7 34  1  0  0  0  0
  8  9  2  0  0  0  0
  8 35  1  0  0  0  0
  9 10  1  0  0  0  0
  9 28  1  0  0  0  0
 10 11  1  0  0  0  0
 11 12  1  0  0  0  0
 11 27  2  0  0  0  0
 12 13  2  0  0  0  0
 12 36  1  0  0  0  0
 13 14  1  0  0  0  0
 13 37  1  0  0  0  0
 14 15  1  0  0  0  0
 14 26  2  0  0  0  0
 15 16  1  0  0  0  0
 15 24  2  0  0  0  0
 16 17  2  0  0  0  0
 16 38  1  0  0  0  0
 17 18  1  0  0  0  0
 17 39  1  0  0  0  0
 18 19  1  0  0  0  0
 18 23  2  0  0  0  0
 19 20  2  0  0  0  0
 19 40  1  0  0  0  0
 20 21  1  0  0  0  0
 20 41  1  0  0  0  0
 21 22  2  0  0  0  0
 21 42  1  0  0  0  0
 22 23  1  0  0  0  0
 22 43  1  0  0  0  0
 23 44  1  0  0  0  0
 24 25  1  0  0  0  0
 25 26  1  0  0  0  0
 25 45  1  0  0  0  0
 26 27  1  0  0  0  0
 27 46  1  0  0  0  0
 28 47  1  0  0  0  0
M  END
$$$$
