CHEMBL453613
 OpenBabel04072215383D

 62 67  0  0  0  0  0  0  0  0999 V2000
   -1.9722    7.1954    1.6949 C   0  0  0  0  0  0  0  0  0  0  0  0
   -0.6858    7.9108    1.3264 C   0  0  0  0  0  0  0  0  0  0  0  0
    0.4743    7.0681    1.5179 N   0  0  0  0  0  0  0  0  0  0  0  0
    1.0030    6.2119    0.5968 C   0  0  0  0  0  0  0  0  0  0  0  0
    2.0675    5.6049    1.0686 N   0  0  0  0  0  0  0  0  0  0  0  0
    2.2086    6.0669    2.3575 C   0  0  0  0  0  0  0  0  0  0  0  0
    3.2713    5.5845    3.2781 C   0  0  0  0  0  0  0  0  0  0  0  0
    4.2613    4.7303    2.8641 C   0  0  0  0  0  0  0  0  0  0  0  0
    5.1271    4.3592    3.9248 C   0  0  0  0  0  0  0  0  0  0  0  0
    6.1735    3.5050    3.7685 N   0  0  0  0  0  0  0  0  0  0  0  0
    6.8395    3.1793    4.8808 C   0  0  0  0  0  0  0  0  0  0  0  0
    6.5248    3.6406    6.1381 C   0  0  0  0  0  0  0  0  0  0  0  0
    5.4569    4.5288    6.3074 C   0  0  0  0  0  0  0  0  0  0  0  0
    5.1652    4.7315    7.6507 O   0  0  0  0  0  0  0  0  0  0  0  0
    4.4039    5.7613    8.1376 C   0  0  0  0  0  0  0  0  0  0  0  0
    3.2887    5.3805    8.8796 C   0  0  0  0  0  0  0  0  0  0  0  0
    2.7793    6.2303    9.8685 C   0  0  0  0  0  0  0  0  0  0  0  0
    3.3836    7.4608   10.1470 C   0  0  0  0  0  0  0  0  0  0  0  0
    3.0641    8.2320   11.2994 N   0  0  0  0  0  0  0  0  0  0  0  0
    2.3338    7.7963   12.3920 C   0  0  0  0  0  0  0  0  0  0  0  0
    1.7416    6.7175   12.4658 O   0  0  0  0  0  0  0  0  0  0  0  0
    2.3142    8.6540   13.4845 N   0  0  0  0  0  0  0  0  0  0  0  0
    1.6604    8.2362   14.7034 C   0  0  0  0  0  0  0  0  0  0  0  0
    1.9583    9.3461   15.6864 C   0  0  0  0  0  0  0  0  0  0  0  0
    2.1669   10.4921   14.8367 N   0  0  0  0  0  0  0  0  0  0  0  0
    2.1642   11.8265   15.3142 C   0  0  0  0  0  0  0  0  0  0  0  0
    2.1203   12.9084   14.4308 C   0  0  0  0  0  0  0  0  0  0  0  0
    2.1301   14.2253   14.9006 C   0  0  0  0  0  0  0  0  0  0  0  0
    2.1859   14.4810   16.2668 C   0  0  0  0  0  0  0  0  0  0  0  0
    2.2026   13.4185   17.1646 C   0  0  0  0  0  0  0  0  0  0  0  0
    2.1777   12.1006   16.6935 C   0  0  0  0  0  0  0  0  0  0  0  0
    2.5149   10.0565   13.5299 C   0  0  0  0  0  0  0  0  0  0  0  0
    2.9679   10.7115   12.5985 O   0  0  0  0  0  0  0  0  0  0  0  0
    4.4099    7.8982    9.2976 C   0  0  0  0  0  0  0  0  0  0  0  0
    4.9221    7.0425    8.3071 C   0  0  0  0  0  0  0  0  0  0  0  0
    6.0025    7.4295    7.6132 F   0  0  0  0  0  0  0  0  0  0  0  0
    4.7468    4.9171    5.1587 C   0  0  0  0  0  0  0  0  0  0  0  0
    3.4015    5.9665    4.9324 S   0  0  0  0  0  0  0  0  0  0  0  0
    1.2288    6.9859    2.6535 C   0  0  0  0  0  0  0  0  0  0  0  0
   -2.8316    7.8519    1.5316 H   0  0  0  0  0  0  0  0  0  0  0  0
   -1.9665    6.8930    2.7477 H   0  0  0  0  0  0  0  0  0  0  0  0
   -2.1093    6.2925    1.0904 H   0  0  0  0  0  0  0  0  0  0  0  0
   -0.5520    8.8067    1.9424 H   0  0  0  0  0  0  0  0  0  0  0  0
   -0.7008    8.2244    0.2769 H   0  0  0  0  0  0  0  0  0  0  0  0
    0.5777    6.0636   -0.3880 H   0  0  0  0  0  0  0  0  0  0  0  0
    4.3534    4.3600    1.8499 H   0  0  0  0  0  0  0  0  0  0  0  0
    7.6576    2.4782    4.7381 H   0  0  0  0  0  0  0  0  0  0  0  0
    7.0856    3.2903    6.9988 H   0  0  0  0  0  0  0  0  0  0  0  0
    2.8752    4.3816    8.7740 H   0  0  0  0  0  0  0  0  0  0  0  0
    1.9450    5.8571   10.4538 H   0  0  0  0  0  0  0  0  0  0  0  0
    3.5353    9.1272   11.4172 H   0  0  0  0  0  0  0  0  0  0  0  0
    2.0125    7.2555   15.0383 H   0  0  0  0  0  0  0  0  0  0  0  0
    0.5847    8.1713   14.4988 H   0  0  0  0  0  0  0  0  0  0  0  0
    2.8894    9.1466   16.2297 H   0  0  0  0  0  0  0  0  0  0  0  0
    1.1350    9.4870   16.3942 H   0  0  0  0  0  0  0  0  0  0  0  0
    2.0535   12.7547   13.3576 H   0  0  0  0  0  0  0  0  0  0  0  0
    2.0948   15.0489   14.1923 H   0  0  0  0  0  0  0  0  0  0  0  0
    2.2140   15.5054   16.6290 H   0  0  0  0  0  0  0  0  0  0  0  0
    2.2430   13.6138   18.2332 H   0  0  0  0  0  0  0  0  0  0  0  0
    2.2011   11.3046   17.4315 H   0  0  0  0  0  0  0  0  0  0  0  0
    4.8989    8.8562    9.4486 H   0  0  0  0  0  0  0  0  0  0  0  0
    1.0145    7.5624    3.5419 H   0  0  0  0  0  0  0  0  0  0  0  0
  1  2  1  0  0  0  0
  1 40  1  0  0  0  0
  1 41  1  0  0  0  0
  1 42  1  0  0  0  0
  2  3  1  0  0  0  0
  2 43  1  0  0  0  0
  2 44  1  0  0  0  0
  3  4  1  0  0  0  0
  3 39  1  0  0  0  0
  4  5  2  0  0  0  0
  4 45  1  0  0  0  0
  5  6  1  0  0  0  0
  6  7  1  0  0  0  0
  6 39  2  0  0  0  0
  7  8  2  0  0  0  0
  7 38  1  0  0  0  0
  8  9  1  0  0  0  0
  8 46  1  0  0  0  0
  9 10  1  0  0  0  0
  9 37  2  0  0  0  0
 10 11  2  0  0  0  0
 11 12  1  0  0  0  0
 11 47  1  0  0  0  0
 12 13  2  0  0  0  0
 12 48  1  0  0  0  0
 13 14  1  0  0  0  0
 13 37  1  0  0  0  0
 14 15  1  0  0  0  0
 15 16  1  0  0  0  0
 15 35  2  0  0  0  0
 16 17  2  0  0  0  0
 16 49  1  0  0  0  0
 17 18  1  0  0  0  0
 17 50  1  0  0  0  0
 18 19  1  0  0  0  0
 18 34  2  0  0  0  0
 19 20  1  0  0  0  0
 19 51  1  0  0  0  0
 20 21  2  0  0  0  0
 20 22  1  0  0  0  0
 22 23  1  0  0  0  0
 22 32  1  0  0  0  0
 23 24  1  0  0  0  0
 23 52  1  0  0  0  0
 23 53  1  0  0  0  0
 24 25  1  0  0  0  0
 24 54  1  0  0  0  0
 24 55  1  0  0  0  0
 25 26  1  0  0  0  0
 25 32  1  0  0  0  0
 26 27  1  0  0  0  0
 26 31  2  0  0  0  0
 27 28  2  0  0  0  0
 27 56  1  0  0  0  0
 28 29  1  0  0  0  0
 28 57  1  0  0  0  0
 29 30  2  0  0  0  0
 29 58  1  0  0  0  0
 30 31  1  0  0  0  0
 30 59  1  0  0  0  0
 31 60  1  0  0  0  0
 32 33  2  0  0  0  0
 34 35  1  0  0  0  0
 34 61  1  0  0  0  0
 35 36  1  0  0  0  0
 37 38  1  0  0  0  0
 39 62  1  0  0  0  0
M  END
$$$$
