CHEMBL3355010
 OpenBabel04072215363D

 54 56  0  0  0  0  0  0  0  0999 V2000
    1.3667    1.5236    2.9591 C   0  0  0  0  0  0  0  0  0  0  0  0
    2.7722    1.4771    2.3935 C   0  0  0  0  0  0  0  0  0  0  0  0
    3.2206    0.1214    2.4000 O   0  0  0  0  0  0  0  0  0  0  0  0
    4.5053   -0.1206    1.9662 C   0  0  0  0  0  0  0  0  0  0  0  0
    5.3641    0.8032    1.4828 C   0  0  0  0  0  0  0  0  0  0  0  0
    6.7300    0.4056    1.0781 C   0  0  0  0  0  0  0  0  0  0  0  0
    7.5290    1.2317    0.6496 O   0  0  0  0  0  0  0  0  0  0  0  0
    7.0396   -0.9195    1.2223 N   0  0  0  0  0  0  0  0  0  0  0  0
    6.1652   -1.8631    1.7111 C   0  0  0  0  0  0  0  0  0  0  0  0
    4.9171   -1.5248    2.0816 C   0  0  0  0  0  0  0  0  0  0  0  0
    4.0596   -2.5835    2.6577 C   0  0  0  0  0  0  0  0  0  0  0  0
    3.2886   -3.4314    1.8497 C   0  0  0  0  0  0  0  0  0  0  0  0
    2.4756   -4.4195    2.4259 C   0  0  0  0  0  0  0  0  0  0  0  0
    2.4119   -4.5684    3.8187 C   0  0  0  0  0  0  0  0  0  0  0  0
    1.6258   -5.6772    4.4705 C   0  0  0  0  0  0  0  0  0  0  0  0
    0.1659   -5.7419    4.0840 C   0  0  0  0  0  0  0  0  0  0  0  0
   -0.1954   -6.4831    3.1616 O   0  0  0  0  0  0  0  0  0  0  0  0
   -0.6760   -4.9322    4.8156 N   0  0  0  0  0  0  0  0  0  0  0  0
   -2.0216   -5.0025    4.5380 C   0  0  0  0  0  0  0  0  0  0  0  0
   -2.8569   -6.0517    4.2527 C   0  0  0  0  0  0  0  0  0  0  0  0
   -4.0816   -5.4479    3.8762 C   0  0  0  0  0  0  0  0  0  0  0  0
   -5.3511   -6.1396    3.4098 C   0  0  0  0  0  0  0  0  0  0  0  0
   -6.3707   -5.1264    2.8377 C   0  0  0  0  0  0  0  0  0  0  0  0
   -5.0244   -7.1262    2.2596 C   0  0  0  0  0  0  0  0  0  0  0  0
   -6.0006   -6.9153    4.5822 C   0  0  0  0  0  0  0  0  0  0  0  0
   -5.3425   -6.7553    5.7543 F   0  0  0  0  0  0  0  0  0  0  0  0
   -7.2821   -6.5377    4.8035 F   0  0  0  0  0  0  0  0  0  0  0  0
   -6.0295   -8.2512    4.3456 F   0  0  0  0  0  0  0  0  0  0  0  0
   -4.0020   -4.1123    3.9985 N   0  0  0  0  0  0  0  0  0  0  0  0
   -2.7220   -3.8436    4.4645 O   0  0  0  0  0  0  0  0  0  0  0  0
    3.1817   -3.7100    4.6074 C   0  0  0  0  0  0  0  0  0  0  0  0
    3.1503   -3.8278    5.9431 F   0  0  0  0  0  0  0  0  0  0  0  0
    3.9972   -2.7317    4.0464 C   0  0  0  0  0  0  0  0  0  0  0  0
    0.9792    2.5465    2.9440 H   0  0  0  0  0  0  0  0  0  0  0  0
    1.3539    1.1570    3.9906 H   0  0  0  0  0  0  0  0  0  0  0  0
    0.6949    0.8805    2.3813 H   0  0  0  0  0  0  0  0  0  0  0  0
    3.4287    2.0941    3.0185 H   0  0  0  0  0  0  0  0  0  0  0  0
    2.7615    1.8624    1.3677 H   0  0  0  0  0  0  0  0  0  0  0  0
    5.1362    1.8525    1.3654 H   0  0  0  0  0  0  0  0  0  0  0  0
    7.9816   -1.1826    0.9646 H   0  0  0  0  0  0  0  0  0  0  0  0
    6.5573   -2.8732    1.7910 H   0  0  0  0  0  0  0  0  0  0  0  0
    3.3153   -3.3286    0.7667 H   0  0  0  0  0  0  0  0  0  0  0  0
    1.9008   -5.0776    1.7731 H   0  0  0  0  0  0  0  0  0  0  0  0
    1.6897   -5.6329    5.5643 H   0  0  0  0  0  0  0  0  0  0  0  0
    2.0801   -6.6346    4.1848 H   0  0  0  0  0  0  0  0  0  0  0  0
   -0.3208   -4.0560    5.1806 H   0  0  0  0  0  0  0  0  0  0  0  0
   -2.6071   -7.1015    4.2914 H   0  0  0  0  0  0  0  0  0  0  0  0
   -5.9647   -4.5975    1.9667 H   0  0  0  0  0  0  0  0  0  0  0  0
   -6.6493   -4.3725    3.5828 H   0  0  0  0  0  0  0  0  0  0  0  0
   -7.2906   -5.6287    2.5157 H   0  0  0  0  0  0  0  0  0  0  0  0
   -4.5885   -6.6096    1.3963 H   0  0  0  0  0  0  0  0  0  0  0  0
   -5.9278   -7.6443    1.9150 H   0  0  0  0  0  0  0  0  0  0  0  0
   -4.3078   -7.8945    2.5735 H   0  0  0  0  0  0  0  0  0  0  0  0
    4.5794   -2.0897    4.7014 H   0  0  0  0  0  0  0  0  0  0  0  0
  1  2  1  0  0  0  0
  1 34  1  0  0  0  0
  1 35  1  0  0  0  0
  1 36  1  0  0  0  0
  2  3  1  0  0  0  0
  2 37  1  0  0  0  0
  2 38  1  0  0  0  0
  3  4  1  0  0  0  0
  4  5  2  0  0  0  0
  4 10  1  0  0  0  0
  5  6  1  0  0  0  0
  5 39  1  0  0  0  0
  6  7  2  0  0  0  0
  6  8  1  0  0  0  0
  8  9  1  0  0  0  0
  8 40  1  0  0  0  0
  9 10  2  0  0  0  0
  9 41  1  0  0  0  0
 10 11  1  0  0  0  0
 11 12  1  0  0  0  0
 11 33  2  0  0  0  0
 12 13  2  0  0  0  0
 12 42  1  0  0  0  0
 13 14  1  0  0  0  0
 13 43  1  0  0  0  0
 14 15  1  0  0  0  0
 14 31  2  0  0  0  0
 15 16  1  0  0  0  0
 15 44  1  0  0  0  0
 15 45  1  0  0  0  0
 16 17  2  0  0  0  0
 16 18  1  0  0  0  0
 18 19  1  0  0  0  0
 18 46  1  0  0  0  0
 19 20  2  0  0  0  0
 19 30  1  0  0  0  0
 20 21  1  0  0  0  0
 20 47  1  0  0  0  0
 21 22  1  0  0  0  0
 21 29  2  0  0  0  0
 22 23  1  0  0  0  0
 22 24  1  0  0  0  0
 22 25  1  0  0  0  0
 23 48  1  0  0  0  0
 23 49  1  0  0  0  0
 23 50  1  0  0  0  0
 24 51  1  0  0  0  0
 24 52  1  0  0  0  0
 24 53  1  0  0  0  0
 25 26  1  0  0  0  0
 25 27  1  0  0  0  0
 25 28  1  0  0  0  0
 29 30  1  0  0  0  0
 31 32  1  0  0  0  0
 31 33  1  0  0  0  0
 33 54  1  0  0  0  0
M  END
$$$$
