CHEMBL231254
 OpenBabel04072215363D

 40 43  0  0  0  0  0  0  0  0999 V2000
    1.2375   -0.2035   -1.7885 N   0  0  0  0  0  0  0  0  0  0  0  0
    2.5927   -0.2129   -1.4772 C   0  0  0  0  0  0  0  0  0  0  0  0
    3.2666    0.8593   -1.9494 N   0  0  0  0  0  0  0  0  0  0  0  0
    4.5726    1.0067   -1.6821 C   0  0  0  0  0  0  0  0  0  0  0  0
    5.3111    0.1245   -0.9359 C   0  0  0  0  0  0  0  0  0  0  0  0
    4.6258   -0.9987   -0.4569 C   0  0  0  0  0  0  0  0  0  0  0  0
    5.3237   -2.2431    0.4961 S   0  0  0  0  0  0  0  0  0  0  0  0
    3.8632   -3.0948    0.5653 C   0  0  0  0  0  0  0  0  0  0  0  0
    2.8214   -2.4655   -0.0960 C   0  0  0  0  0  0  0  0  0  0  0  0
    1.4899   -3.0873   -0.0623 C   0  0  0  0  0  0  0  0  0  0  0  0
    1.0520   -3.7265    1.1032 C   0  0  0  0  0  0  0  0  0  0  0  0
   -0.2100   -4.3159    1.1734 C   0  0  0  0  0  0  0  0  0  0  0  0
   -1.0960   -4.2396    0.1031 C   0  0  0  0  0  0  0  0  0  0  0  0
   -2.4034   -4.7681    0.1410 N   0  0  0  0  0  0  0  0  0  0  0  0
   -2.9649   -5.4730    1.1943 C   0  0  0  0  0  0  0  0  0  0  0  0
   -2.4145   -5.7552    2.2582 O   0  0  0  0  0  0  0  0  0  0  0  0
   -4.3716   -5.9133    1.0315 C   0  0  0  0  0  0  0  0  0  0  0  0
   -4.9397   -6.2068   -0.2135 C   0  0  0  0  0  0  0  0  0  0  0  0
   -6.2590   -6.6606   -0.2798 C   0  0  0  0  0  0  0  0  0  0  0  0
   -7.0075   -6.8295    0.8871 C   0  0  0  0  0  0  0  0  0  0  0  0
   -6.4416   -6.5483    2.1285 C   0  0  0  0  0  0  0  0  0  0  0  0
   -5.1287   -6.0923    2.1988 C   0  0  0  0  0  0  0  0  0  0  0  0
   -0.6708   -3.6035   -1.0687 C   0  0  0  0  0  0  0  0  0  0  0  0
    0.6268   -3.0771   -1.1623 C   0  0  0  0  0  0  0  0  0  0  0  0
    3.2617   -1.2122   -0.7147 C   0  0  0  0  0  0  0  0  0  0  0  0
    0.9936    0.7138   -2.1466 H   0  0  0  0  0  0  0  0  0  0  0  0
    0.6540   -0.5365   -1.0320 H   0  0  0  0  0  0  0  0  0  0  0  0
    5.0298    1.9011   -2.0966 H   0  0  0  0  0  0  0  0  0  0  0  0
    6.3620    0.2865   -0.7279 H   0  0  0  0  0  0  0  0  0  0  0  0
    3.8397   -4.0303    1.1087 H   0  0  0  0  0  0  0  0  0  0  0  0
    1.6796   -3.7834    1.9898 H   0  0  0  0  0  0  0  0  0  0  0  0
   -0.4660   -4.8125    2.1029 H   0  0  0  0  0  0  0  0  0  0  0  0
   -2.9841   -4.5707   -0.6624 H   0  0  0  0  0  0  0  0  0  0  0  0
   -4.3678   -6.1320   -1.1322 H   0  0  0  0  0  0  0  0  0  0  0  0
   -6.7026   -6.9026   -1.2430 H   0  0  0  0  0  0  0  0  0  0  0  0
   -8.0277   -7.1967    0.8308 H   0  0  0  0  0  0  0  0  0  0  0  0
   -7.0141   -6.6933    3.0412 H   0  0  0  0  0  0  0  0  0  0  0  0
   -4.6845   -5.8866    3.1739 H   0  0  0  0  0  0  0  0  0  0  0  0
   -1.3278   -3.5161   -1.9293 H   0  0  0  0  0  0  0  0  0  0  0  0
    0.9412   -2.6465   -2.1109 H   0  0  0  0  0  0  0  0  0  0  0  0
  1  2  1  0  0  0  0
  1 26  1  0  0  0  0
  1 27  1  0  0  0  0
  2  3  1  0  0  0  0
  2 25  2  0  0  0  0
  3  4  2  0  0  0  0
  4  5  1  0  0  0  0
  4 28  1  0  0  0  0
  5  6  2  0  0  0  0
  5 29  1  0  0  0  0
  6  7  1  0  0  0  0
  6 25  1  0  0  0  0
  7  8  1  0  0  0  0
  8  9  2  0  0  0  0
  8 30  1  0  0  0  0
  9 10  1  0  0  0  0
  9 25  1  0  0  0  0
 10 11  1  0  0  0  0
 10 24  2  0  0  0  0
 11 12  2  0  0  0  0
 11 31  1  0  0  0  0
 12 13  1  0  0  0  0
 12 32  1  0  0  0  0
 13 14  1  0  0  0  0
 13 23  2  0  0  0  0
 14 15  1  0  0  0  0
 14 33  1  0  0  0  0
 15 16  2  0  0  0  0
 15 17  1  0  0  0  0
 17 18  1  0  0  0  0
 17 22  2  0  0  0  0
 18 19  2  0  0  0  0
 18 34  1  0  0  0  0
 19 20  1  0  0  0  0
 19 35  1  0  0  0  0
 20 21  2  0  0  0  0
 20 36  1  0  0  0  0
 21 22  1  0  0  0  0
 21 37  1  0  0  0  0
 22 38  1  0  0  0  0
 23 24  1  0  0  0  0
 23 39  1  0  0  0  0
 24 40  1  0  0  0  0
M  END
$$$$
