CHEMBL399438
 OpenBabel04072215373D

 63 68  0  0  1  0  0  0  0  0999 V2000
   -4.1236    0.1234   -1.5106 N   0  0  0  0  0  0  0  0  0  0  0  0
   -3.0620    0.1406   -1.0405 C   0  0  0  0  0  0  0  0  0  0  0  0
   -1.7452    0.2412   -0.4889 C   0  0  0  0  0  0  0  0  0  0  0  0
   -1.2713    1.5141   -0.2221 C   0  0  0  0  0  0  0  0  0  0  0  0
    0.0019    1.7945    0.1418 N   0  0  0  0  0  0  0  0  0  0  0  0
    0.8666    0.7862    0.1938 C   0  0  0  0  0  0  0  0  0  0  0  0
    2.1979    1.1253    0.4015 C   0  0  0  0  0  0  0  0  0  0  0  0
    3.2279    0.1777    0.4003 C   0  0  0  0  0  0  0  0  0  0  0  0
    4.6465    0.5700    0.4812 C   0  0  0  0  0  0  0  0  0  0  0  0
    5.5340   -0.1323    1.3092 C   0  0  0  0  0  0  0  0  0  0  0  0
    6.8922    0.1878    1.3548 C   0  0  0  0  0  0  0  0  0  0  0  0
    7.4169    1.2278    0.5790 C   0  0  0  0  0  0  0  0  0  0  0  0
    8.8679    1.6231    0.7363 C   0  0  0  0  0  0  0  0  0  0  0  0
    9.8915    0.9788   -0.0816 N   0  0  0  0  0  0  0  0  0  0  0  0
    9.8508    1.2266   -1.5230 C   0  0  0  0  0  0  0  0  0  0  0  0
    9.0500    0.1939   -2.3316 C   0  0  0  0  0  0  0  0  0  0  0  0
    9.4375   -1.1530   -2.0319 O   0  0  0  0  0  0  0  0  0  0  0  0
    9.3638   -1.4292   -0.6289 C   0  0  0  0  0  0  0  0  0  0  0  0
   10.1865   -0.4286    0.1951 C   0  0  0  0  0  0  0  0  0  0  0  0
    6.5384    1.9475   -0.2433 C   0  0  0  0  0  0  0  0  0  0  0  0
    5.1732    1.6207   -0.2891 C   0  0  0  0  0  0  0  0  0  0  0  0
    2.8577   -1.1646    0.2773 C   0  0  0  0  0  0  0  0  0  0  0  0
    1.5232   -1.5356    0.0875 C   0  0  0  0  0  0  0  0  0  0  0  0
    0.4916   -0.5707   -0.0031 C   0  0  0  0  0  0  0  0  0  0  0  0
   -0.8914   -0.8568   -0.3127 C   0  0  0  0  0  0  0  0  0  0  0  0
   -1.3070   -2.2137   -0.5483 N   0  0  0  0  0  0  0  0  0  0  0  0
   -2.6599   -2.7200   -0.1487 C   0  0  2  0  0  0  0  0  0  0  0  0
   -3.1395   -2.5126    1.2522 C   0  0  0  0  0  0  0  0  0  0  0  0
   -2.7161   -3.8979    0.8063 C   0  0  1  0  0  0  0  0  0  0  0  0
   -3.7368   -4.9895    1.0398 C   0  0  0  0  0  0  0  0  0  0  0  0
   -4.3526   -5.7657    0.0500 C   0  0  0  0  0  0  0  0  0  0  0  0
   -5.1029   -6.9114    0.3937 C   0  0  0  0  0  0  0  0  0  0  0  0
   -5.2504   -7.2887    1.7286 C   0  0  0  0  0  0  0  0  0  0  0  0
   -4.6915   -6.5071    2.7271 C   0  0  0  0  0  0  0  0  0  0  0  0
   -3.9550   -5.3700    2.3776 C   0  0  0  0  0  0  0  0  0  0  0  0
   -1.9045    2.3853   -0.3250 H   0  0  0  0  0  0  0  0  0  0  0  0
    2.4392    2.1788    0.5383 H   0  0  0  0  0  0  0  0  0  0  0  0
    5.1679   -0.9350    1.9448 H   0  0  0  0  0  0  0  0  0  0  0  0
    7.5400   -0.3759    2.0213 H   0  0  0  0  0  0  0  0  0  0  0  0
    9.1335    1.4766    1.7927 H   0  0  0  0  0  0  0  0  0  0  0  0
    8.9445    2.7104    0.6045 H   0  0  0  0  0  0  0  0  0  0  0  0
   10.8920    1.1726   -1.8712 H   0  0  0  0  0  0  0  0  0  0  0  0
    9.5176    2.2450   -1.7498 H   0  0  0  0  0  0  0  0  0  0  0  0
    9.2567    0.3464   -3.3966 H   0  0  0  0  0  0  0  0  0  0  0  0
    7.9713    0.3079   -2.1906 H   0  0  0  0  0  0  0  0  0  0  0  0
    9.7782   -2.4329   -0.4823 H   0  0  0  0  0  0  0  0  0  0  0  0
    8.3174   -1.4669   -0.3153 H   0  0  0  0  0  0  0  0  0  0  0  0
   11.2413   -0.5799   -0.0752 H   0  0  0  0  0  0  0  0  0  0  0  0
   10.1230   -0.6545    1.2651 H   0  0  0  0  0  0  0  0  0  0  0  0
    6.9016    2.7808   -0.8424 H   0  0  0  0  0  0  0  0  0  0  0  0
    4.5222    2.2000   -0.9451 H   0  0  0  0  0  0  0  0  0  0  0  0
    3.6178   -1.9437    0.2843 H   0  0  0  0  0  0  0  0  0  0  0  0
    1.3293   -2.5968   -0.0385 H   0  0  0  0  0  0  0  0  0  0  0  0
   -0.5843   -2.8572   -0.2390 H   0  0  0  0  0  0  0  0  0  0  0  0
   -3.3841   -2.6883   -0.9591 H   0  0  0  0  0  0  0  0  0  0  0  0
   -4.1966   -2.2922    1.3708 H   0  0  0  0  0  0  0  0  0  0  0  0
   -2.5042   -2.0197    1.9754 H   0  0  0  0  0  0  0  0  0  0  0  0
   -1.7222   -4.2378    1.0922 H   0  0  0  0  0  0  0  0  0  0  0  0
   -4.2264   -5.5262   -1.0000 H   0  0  0  0  0  0  0  0  0  0  0  0
   -5.5454   -7.5260   -0.3840 H   0  0  0  0  0  0  0  0  0  0  0  0
   -5.7905   -8.1982    1.9908 H   0  0  0  0  0  0  0  0  0  0  0  0
   -4.7899   -6.7878    3.7732 H   0  0  0  0  0  0  0  0  0  0  0  0
   -3.4979   -4.7881    3.1759 H   0  0  0  0  0  0  0  0  0  0  0  0
  1  2  3  0  0  0  0
  2  3  1  0  0  0  0
  3  4  1  0  0  0  0
  3 25  2  0  0  0  0
  4  5  2  0  0  0  0
  4 36  1  0  0  0  0
  5  6  1  0  0  0  0
  6  7  1  0  0  0  0
  6 24  2  0  0  0  0
  7  8  2  0  0  0  0
  7 37  1  0  0  0  0
  8  9  1  0  0  0  0
  8 22  1  0  0  0  0
  9 10  1  0  0  0  0
  9 21  2  0  0  0  0
 10 11  2  0  0  0  0
 10 38  1  0  0  0  0
 11 12  1  0  0  0  0
 11 39  1  0  0  0  0
 12 13  1  0  0  0  0
 12 20  2  0  0  0  0
 13 14  1  0  0  0  0
 13 40  1  0  0  0  0
 13 41  1  0  0  0  0
 14 15  1  0  0  0  0
 14 19  1  0  0  0  0
 15 16  1  0  0  0  0
 15 42  1  0  0  0  0
 15 43  1  0  0  0  0
 16 17  1  0  0  0  0
 16 44  1  0  0  0  0
 16 45  1  0  0  0  0
 17 18  1  0  0  0  0
 18 19  1  0  0  0  0
 18 46  1  0  0  0  0
 18 47  1  0  0  0  0
 19 48  1  0  0  0  0
 19 49  1  0  0  0  0
 20 21  1  0  0  0  0
 20 50  1  0  0  0  0
 21 51  1  0  0  0  0
 22 23  2  0  0  0  0
 22 52  1  0  0  0  0
 23 24  1  0  0  0  0
 23 53  1  0  0  0  0
 24 25  1  0  0  0  0
 25 26  1  0  0  0  0
 26 27  1  0  0  0  0
 26 54  1  0  0  0  0
 27 28  1  0  0  0  0
 27 29  1  0  0  0  0
 27 55  1  6  0  0  0
 28 29  1  0  0  0  0
 28 56  1  0  0  0  0
 28 57  1  0  0  0  0
 29 30  1  0  0  0  0
 29 58  1  1  0  0  0
 30 31  1  0  0  0  0
 30 35  2  0  0  0  0
 31 32  2  0  0  0  0
 31 59  1  0  0  0  0
 32 33  1  0  0  0  0
 32 60  1  0  0  0  0
 33 34  2  0  0  0  0
 33 61  1  0  0  0  0
 34 35  1  0  0  0  0
 34 62  1  0  0  0  0
 35 63  1  0  0  0  0
M  END
$$$$
