CHEMBL233225
 OpenBabel04072215363D

 54 58  0  0  0  0  0  0  0  0999 V2000
    2.0034   -0.0908   -1.4867 Cl  0  0  0  0  0  0  0  0  0  0  0  0
    0.3419   -0.1906   -1.0232 C   0  0  0  0  0  0  0  0  0  0  0  0
   -0.4116    0.9419   -1.2001 C   0  0  0  0  0  0  0  0  0  0  0  0
   -1.7031    1.0396   -0.8706 N   0  0  0  0  0  0  0  0  0  0  0  0
   -2.3207   -0.0633   -0.3026 C   0  0  0  0  0  0  0  0  0  0  0  0
   -3.6570    0.0186    0.0950 N   0  0  0  0  0  0  0  0  0  0  0  0
   -4.4941    1.1292   -0.0648 C   0  0  0  0  0  0  0  0  0  0  0  0
   -4.3287    2.0521   -1.0953 C   0  0  0  0  0  0  0  0  0  0  0  0
   -5.0553    3.2463   -1.1628 C   0  0  0  0  0  0  0  0  0  0  0  0
   -5.9780    3.5424   -0.1769 C   0  0  0  0  0  0  0  0  0  0  0  0
   -6.7195    4.8629   -0.1313 C   0  0  0  0  0  0  0  0  0  0  0  0
   -7.5971    5.1671   -1.3624 C   0  0  0  0  0  0  0  0  0  0  0  0
   -8.3112    6.4490   -1.2287 N   0  0  0  0  0  0  0  0  0  0  0  0
   -9.1800    6.7609   -2.3718 C   0  0  0  0  0  0  0  0  0  0  0  0
   -8.6334    8.0360   -2.9943 C   0  0  0  0  0  0  0  0  0  0  0  0
   -7.9619    8.7359   -1.8300 C   0  0  0  0  0  0  0  0  0  0  0  0
   -7.4121    7.5838   -1.0093 C   0  0  0  0  0  0  0  0  0  0  0  0
   -6.1719    2.6176    0.8678 C   0  0  0  0  0  0  0  0  0  0  0  0
   -5.4272    1.4247    0.9270 C   0  0  0  0  0  0  0  0  0  0  0  0
   -1.6215   -1.1920   -0.0829 N   0  0  0  0  0  0  0  0  0  0  0  0
   -0.2954   -1.2591   -0.4217 C   0  0  0  0  0  0  0  0  0  0  0  0
    0.3983   -2.4437    0.0965 C   0  0  0  0  0  0  0  0  0  0  0  0
    0.0007   -2.9707    1.3419 C   0  0  0  0  0  0  0  0  0  0  0  0
    0.7850   -3.8715    2.0619 C   0  0  0  0  0  0  0  0  0  0  0  0
    1.9115   -4.3989    1.4230 C   0  0  0  0  0  0  0  0  0  0  0  0
    2.9491   -5.2887    1.7544 C   0  0  0  0  0  0  0  0  0  0  0  0
    3.0639   -6.0662    0.6274 C   0  0  0  0  0  0  0  0  0  0  0  0
    2.8745   -5.1786   -0.3975 N   0  0  0  0  0  0  0  0  0  0  0  0
    2.0871   -4.1429    0.0687 C   0  0  0  0  0  0  0  0  0  0  0  0
    1.4505   -3.0853   -0.5919 C   0  0  0  0  0  0  0  0  0  0  0  0
   -0.0067    1.8590   -1.6087 H   0  0  0  0  0  0  0  0  0  0  0  0
   -3.9476   -0.7780    0.6014 H   0  0  0  0  0  0  0  0  0  0  0  0
   -3.6035    1.8671   -1.8891 H   0  0  0  0  0  0  0  0  0  0  0  0
   -4.8415    3.9377   -1.9771 H   0  0  0  0  0  0  0  0  0  0  0  0
   -5.9619    5.6384    0.0203 H   0  0  0  0  0  0  0  0  0  0  0  0
   -7.3638    4.8858    0.7532 H   0  0  0  0  0  0  0  0  0  0  0  0
   -8.3420    4.3650   -1.4612 H   0  0  0  0  0  0  0  0  0  0  0  0
   -7.0027    5.1580   -2.2854 H   0  0  0  0  0  0  0  0  0  0  0  0
  -10.1901    6.9525   -1.9866 H   0  0  0  0  0  0  0  0  0  0  0  0
   -9.2644    5.9575   -3.1095 H   0  0  0  0  0  0  0  0  0  0  0  0
   -9.4119    8.6494   -3.4499 H   0  0  0  0  0  0  0  0  0  0  0  0
   -7.8880    7.7902   -3.7600 H   0  0  0  0  0  0  0  0  0  0  0  0
   -8.7139    9.3008   -1.2570 H   0  0  0  0  0  0  0  0  0  0  0  0
   -7.1850    9.4262   -2.1555 H   0  0  0  0  0  0  0  0  0  0  0  0
   -7.3693    7.8466    0.0530 H   0  0  0  0  0  0  0  0  0  0  0  0
   -6.3899    7.3780   -1.3547 H   0  0  0  0  0  0  0  0  0  0  0  0
   -6.8663    2.8459    1.6751 H   0  0  0  0  0  0  0  0  0  0  0  0
   -5.5800    0.7691    1.7760 H   0  0  0  0  0  0  0  0  0  0  0  0
   -0.9371   -2.6429    1.7994 H   0  0  0  0  0  0  0  0  0  0  0  0
    0.4744   -4.2418    3.0303 H   0  0  0  0  0  0  0  0  0  0  0  0
    3.8033   -5.0672    2.4048 H   0  0  0  0  0  0  0  0  0  0  0  0
    3.4557   -7.0617    0.4722 H   0  0  0  0  0  0  0  0  0  0  0  0
    3.0508   -5.3702   -1.3662 H   0  0  0  0  0  0  0  0  0  0  0  0
    1.7303   -2.8264   -1.6014 H   0  0  0  0  0  0  0  0  0  0  0  0
  1  2  1  0  0  0  0
  2  3  1  0  0  0  0
  2 21  2  0  0  0  0
  3  4  2  0  0  0  0
  3 31  1  0  0  0  0
  4  5  1  0  0  0  0
  5  6  1  0  0  0  0
  5 20  2  0  0  0  0
  6  7  1  0  0  0  0
  6 32  1  0  0  0  0
  7  8  1  0  0  0  0
  7 19  2  0  0  0  0
  8  9  2  0  0  0  0
  8 33  1  0  0  0  0
  9 10  1  0  0  0  0
  9 34  1  0  0  0  0
 10 11  1  0  0  0  0
 10 18  2  0  0  0  0
 11 12  1  0  0  0  0
 11 35  1  0  0  0  0
 11 36  1  0  0  0  0
 12 13  1  0  0  0  0
 12 37  1  0  0  0  0
 12 38  1  0  0  0  0
 13 14  1  0  0  0  0
 13 17  1  0  0  0  0
 14 15  1  0  0  0  0
 14 39  1  0  0  0  0
 14 40  1  0  0  0  0
 15 16  1  0  0  0  0
 15 41  1  0  0  0  0
 15 42  1  0  0  0  0
 16 17  1  0  0  0  0
 16 43  1  0  0  0  0
 16 44  1  0  0  0  0
 17 45  1  0  0  0  0
 17 46  1  0  0  0  0
 18 19  1  0  0  0  0
 18 47  1  0  0  0  0
 19 48  1  0  0  0  0
 20 21  1  0  0  0  0
 21 22  1  0  0  0  0
 22 23  1  0  0  0  0
 22 30  2  0  0  0  0
 23 24  2  0  0  0  0
 23 49  1  0  0  0  0
 24 25  1  0  0  0  0
 24 50  1  0  0  0  0
 25 26  1  0  0  0  0
 25 29  2  0  0  0  0
 26 27  2  0  0  0  0
 26 51  1  0  0  0  0
 27 28  1  0  0  0  0
 27 52  1  0  0  0  0
 28 29  1  0  0  0  0
 28 53  1  0  0  0  0
 29 30  1  0  0  0  0
 30 54  1  0  0  0  0
M  END
$$$$
