CHEMBL4250210
 OpenBabel04072215383D

 36 38  0  0  0  0  0  0  0  0999 V2000
    3.1016    0.6376   -1.3676 C   0  0  0  0  0  0  0  0  0  0  0  0
    2.5839   -0.2026   -0.3077 N   0  0  0  0  0  0  0  0  0  0  0  0
    3.4183   -0.8792    0.5747 C   0  0  0  0  0  0  0  0  0  0  0  0
    4.8083   -0.9241    0.4557 C   0  0  0  0  0  0  0  0  0  0  0  0
    5.5882   -1.7471    1.2859 C   0  0  0  0  0  0  0  0  0  0  0  0
    4.9973   -2.6146    2.2134 C   0  0  0  0  0  0  0  0  0  0  0  0
    5.7290   -3.5729    2.9294 N   0  0  0  0  0  0  0  0  0  0  0  0
    7.1228   -3.2890    3.2768 C   0  0  0  0  0  0  0  0  0  0  0  0
    5.4370   -4.9573    3.0422 C   0  0  0  0  0  0  0  0  0  0  0  0
    5.8534   -5.5886    4.1818 N   0  0  0  0  0  0  0  0  0  0  0  0
    5.5935   -6.8910    4.3732 C   0  0  0  0  0  0  0  0  0  0  0  0
    4.9559   -7.7171    3.5468 N   0  0  0  0  0  0  0  0  0  0  0  0
    4.5960   -7.0994    2.4158 C   0  0  0  0  0  0  0  0  0  0  0  0
    3.9711   -7.7721    1.4172 O   0  0  0  0  0  0  0  0  0  0  0  0
    3.7880   -6.9016    0.4054 C   0  0  0  0  0  0  0  0  0  0  0  0
    4.2921   -5.6594    0.7157 C   0  0  0  0  0  0  0  0  0  0  0  0
    4.2972   -4.5232   -0.2373 C   0  0  0  0  0  0  0  0  0  0  0  0
    4.7946   -5.7638    2.0671 C   0  0  0  0  0  0  0  0  0  0  0  0
    3.6047   -2.5431    2.3566 C   0  0  0  0  0  0  0  0  0  0  0  0
    2.8319   -1.6933    1.5513 C   0  0  0  0  0  0  0  0  0  0  0  0
    2.2809    1.2156   -1.8044 H   0  0  0  0  0  0  0  0  0  0  0  0
    3.5340    0.0261   -2.1670 H   0  0  0  0  0  0  0  0  0  0  0  0
    3.8494    1.3482   -1.0033 H   0  0  0  0  0  0  0  0  0  0  0  0
    1.7276    0.1336    0.1237 H   0  0  0  0  0  0  0  0  0  0  0  0
    5.3226   -0.3432   -0.3032 H   0  0  0  0  0  0  0  0  0  0  0  0
    6.6610   -1.7640    1.1165 H   0  0  0  0  0  0  0  0  0  0  0  0
    7.3536   -2.2184    3.2536 H   0  0  0  0  0  0  0  0  0  0  0  0
    7.8031   -3.7983    2.5826 H   0  0  0  0  0  0  0  0  0  0  0  0
    7.3603   -3.6142    4.2970 H   0  0  0  0  0  0  0  0  0  0  0  0
    5.9426   -7.3212    5.3060 H   0  0  0  0  0  0  0  0  0  0  0  0
    3.3117   -7.3069   -0.4778 H   0  0  0  0  0  0  0  0  0  0  0  0
    4.1717   -4.8684   -1.2668 H   0  0  0  0  0  0  0  0  0  0  0  0
    5.2433   -3.9802   -0.2030 H   0  0  0  0  0  0  0  0  0  0  0  0
    3.4586   -3.8533   -0.0344 H   0  0  0  0  0  0  0  0  0  0  0  0
    3.0977   -3.1872    3.0723 H   0  0  0  0  0  0  0  0  0  0  0  0
    1.7495   -1.7267    1.6514 H   0  0  0  0  0  0  0  0  0  0  0  0
  1  2  1  0  0  0  0
  1 21  1  0  0  0  0
  1 22  1  0  0  0  0
  1 23  1  0  0  0  0
  2  3  1  0  0  0  0
  2 24  1  0  0  0  0
  3  4  1  0  0  0  0
  3 20  2  0  0  0  0
  4  5  2  0  0  0  0
  4 25  1  0  0  0  0
  5  6  1  0  0  0  0
  5 26  1  0  0  0  0
  6  7  1  0  0  0  0
  6 19  2  0  0  0  0
  7  8  1  0  0  0  0
  7  9  1  0  0  0  0
  8 27  1  0  0  0  0
  8 28  1  0  0  0  0
  8 29  1  0  0  0  0
  9 10  1  0  0  0  0
  9 18  2  0  0  0  0
 10 11  2  0  0  0  0
 11 12  1  0  0  0  0
 11 30  1  0  0  0  0
 12 13  2  0  0  0  0
 13 14  1  0  0  0  0
 13 18  1  0  0  0  0
 14 15  1  0  0  0  0
 15 16  2  0  0  0  0
 15 31  1  0  0  0  0
 16 17  1  0  0  0  0
 16 18  1  0  0  0  0
 17 32  1  0  0  0  0
 17 33  1  0  0  0  0
 17 34  1  0  0  0  0
 19 20  1  0  0  0  0
 19 35  1  0  0  0  0
 20 36  1  0  0  0  0
M  END
$$$$
