CHEMBL3690524
 OpenBabel04072215373D

 49 52  0  0  0  0  0  0  0  0999 V2000
    2.6517   -0.7938   -2.2965 C   0  0  0  0  0  0  0  0  0  0  0  0
    3.3309   -0.3559   -1.0355 C   0  0  0  0  0  0  0  0  0  0  0  0
    3.9138    0.8722   -1.0255 N   0  0  0  0  0  0  0  0  0  0  0  0
    4.5696    1.2628    0.1010 C   0  0  0  0  0  0  0  0  0  0  0  0
    5.2562    2.5770    0.0276 C   0  0  0  0  0  0  0  0  0  0  0  0
    5.7948    3.0707   -1.2453 C   0  0  0  0  0  0  0  0  0  0  0  0
    6.4581    4.2352   -1.2931 C   0  0  0  0  0  0  0  0  0  0  0  0
    6.5917    5.0066   -0.1370 N   0  0  0  0  0  0  0  0  0  0  0  0
    7.1514    6.2659    0.0688 C   0  0  0  0  0  0  0  0  0  0  0  0
    7.6259    7.1950   -0.9648 C   0  0  0  0  0  0  0  0  0  0  0  0
    6.9938    7.2502   -2.2146 C   0  0  0  0  0  0  0  0  0  0  0  0
    7.4188    8.1336   -3.1960 C   0  0  0  0  0  0  0  0  0  0  0  0
    8.4573    9.0141   -2.9248 C   0  0  0  0  0  0  0  0  0  0  0  0
    9.1025    9.0057   -1.6856 C   0  0  0  0  0  0  0  0  0  0  0  0
   10.1696    9.8903   -1.3881 N   0  0  0  0  0  0  0  0  0  0  0  0
   10.8718   10.6238   -2.3162 C   0  0  0  0  0  0  0  0  0  0  0  0
   10.7285   10.6114   -3.5319 O   0  0  0  0  0  0  0  0  0  0  0  0
   11.8696   11.3812   -1.7432 N   0  0  0  0  0  0  0  0  0  0  0  0
   12.6842   12.2130   -2.6455 C   0  0  0  0  0  0  0  0  0  0  0  0
   12.0585   13.5465   -3.0804 C   0  0  0  0  0  0  0  0  0  0  0  0
   10.9068   13.8082   -2.4203 F   0  0  0  0  0  0  0  0  0  0  0  0
   12.9097   14.5652   -2.7973 F   0  0  0  0  0  0  0  0  0  0  0  0
   11.8056   13.5932   -4.4047 F   0  0  0  0  0  0  0  0  0  0  0  0
    8.6767    8.0979   -0.7044 C   0  0  0  0  0  0  0  0  0  0  0  0
    7.0886    6.4330    1.4443 C   0  0  0  0  0  0  0  0  0  0  0  0
    6.4452    5.3970    2.0651 N   0  0  0  0  0  0  0  0  0  0  0  0
    6.1166    4.5713    1.0971 C   0  0  0  0  0  0  0  0  0  0  0  0
    5.4067    3.3363    1.1403 C   0  0  0  0  0  0  0  0  0  0  0  0
    4.6716    0.4349    1.2203 C   0  0  0  0  0  0  0  0  0  0  0  0
    4.0593   -0.8158    1.1996 C   0  0  0  0  0  0  0  0  0  0  0  0
    3.3833   -1.2101    0.0577 C   0  0  0  0  0  0  0  0  0  0  0  0
    2.8037   -2.4195    0.0148 F   0  0  0  0  0  0  0  0  0  0  0  0
    2.6959   -0.0088   -3.0581 H   0  0  0  0  0  0  0  0  0  0  0  0
    1.5996   -1.0259   -2.1046 H   0  0  0  0  0  0  0  0  0  0  0  0
    3.1480   -1.6832   -2.6983 H   0  0  0  0  0  0  0  0  0  0  0  0
    5.6495    2.4701   -2.1390 H   0  0  0  0  0  0  0  0  0  0  0  0
    6.8960    4.5947   -2.2131 H   0  0  0  0  0  0  0  0  0  0  0  0
    6.1373    6.6260   -2.4475 H   0  0  0  0  0  0  0  0  0  0  0  0
    6.9348    8.1521   -4.1681 H   0  0  0  0  0  0  0  0  0  0  0  0
    8.7199    9.7198   -3.7057 H   0  0  0  0  0  0  0  0  0  0  0  0
   10.5509    9.8535   -0.4537 H   0  0  0  0  0  0  0  0  0  0  0  0
   11.6785   11.7496   -0.8257 H   0  0  0  0  0  0  0  0  0  0  0  0
   12.9231   11.6271   -3.5417 H   0  0  0  0  0  0  0  0  0  0  0  0
   13.6274   12.3958   -2.1234 H   0  0  0  0  0  0  0  0  0  0  0  0
    9.1747    8.0760    0.2607 H   0  0  0  0  0  0  0  0  0  0  0  0
    7.4393    7.2811    2.0185 H   0  0  0  0  0  0  0  0  0  0  0  0
    5.0103    3.0482    2.1072 H   0  0  0  0  0  0  0  0  0  0  0  0
    5.2444    0.7334    2.0924 H   0  0  0  0  0  0  0  0  0  0  0  0
    4.1253   -1.4834    2.0513 H   0  0  0  0  0  0  0  0  0  0  0  0
  1  2  1  0  0  0  0
  1 33  1  0  0  0  0
  1 34  1  0  0  0  0
  1 35  1  0  0  0  0
  2  3  1  0  0  0  0
  2 31  2  0  0  0  0
  3  4  2  0  0  0  0
  4  5  1  0  0  0  0
  4 29  1  0  0  0  0
  5  6  1  0  0  0  0
  5 28  2  0  0  0  0
  6  7  2  0  0  0  0
  6 36  1  0  0  0  0
  7  8  1  0  0  0  0
  7 37  1  0  0  0  0
  8  9  1  0  0  0  0
  8 27  1  0  0  0  0
  9 10  1  0  0  0  0
  9 25  2  0  0  0  0
 10 11  1  0  0  0  0
 10 24  2  0  0  0  0
 11 12  2  0  0  0  0
 11 38  1  0  0  0  0
 12 13  1  0  0  0  0
 12 39  1  0  0  0  0
 13 14  2  0  0  0  0
 13 40  1  0  0  0  0
 14 15  1  0  0  0  0
 14 24  1  0  0  0  0
 15 16  1  0  0  0  0
 15 41  1  0  0  0  0
 16 17  2  0  0  0  0
 16 18  1  0  0  0  0
 18 19  1  0  0  0  0
 18 42  1  0  0  0  0
 19 20  1  0  0  0  0
 19 43  1  0  0  0  0
 19 44  1  0  0  0  0
 20 21  1  0  0  0  0
 20 22  1  0  0  0  0
 20 23  1  0  0  0  0
 24 45  1  0  0  0  0
 25 26  1  0  0  0  0
 25 46  1  0  0  0  0
 26 27  2  0  0  0  0
 27 28  1  0  0  0  0
 28 47  1  0  0  0  0
 29 30  2  0  0  0  0
 29 48  1  0  0  0  0
 30 31  1  0  0  0  0
 30 49  1  0  0  0  0
 31 32  1  0  0  0  0
M  END
$$$$
