CHEMBL502835
 OpenBabel04072215383D

 73 77  0  0  0  0  0  0  0  0999 V2000
    1.1260   -1.4029   -0.3639 C   0  0  0  0  0  0  0  0  0  0  0  0
    2.5313   -1.1433   -0.3185 O   0  0  0  0  0  0  0  0  0  0  0  0
    3.0355   -0.6846   -1.4931 C   0  0  0  0  0  0  0  0  0  0  0  0
    2.3961   -0.4650   -2.5073 O   0  0  0  0  0  0  0  0  0  0  0  0
    4.5169   -0.5225   -1.4085 C   0  0  0  0  0  0  0  0  0  0  0  0
    5.2608   -0.7783   -0.2351 C   0  0  0  0  0  0  0  0  0  0  0  0
    6.6691   -0.6779   -0.2223 C   0  0  0  0  0  0  0  0  0  0  0  0
    7.3250   -0.3366   -1.3932 C   0  0  0  0  0  0  0  0  0  0  0  0
    6.5590   -0.0616   -2.5355 C   0  0  0  0  0  0  0  0  0  0  0  0
    5.1803   -0.1361   -2.5756 C   0  0  0  0  0  0  0  0  0  0  0  0
    7.3710    0.2356   -3.6173 N   0  0  0  0  0  0  0  0  0  0  0  0
    8.7058    0.1205   -3.2912 C   0  0  0  0  0  0  0  0  0  0  0  0
    9.6191    0.1106   -4.0980 O   0  0  0  0  0  0  0  0  0  0  0  0
    8.7396   -0.1556   -1.7980 C   0  0  0  0  0  0  0  0  0  0  0  0
    9.9079   -0.2163   -1.1146 C   0  0  0  0  0  0  0  0  0  0  0  0
   11.1730    0.1945   -1.5451 N   0  0  0  0  0  0  0  0  0  0  0  0
   11.4053    1.4463   -2.1466 C   0  0  0  0  0  0  0  0  0  0  0  0
   10.6826    2.5567   -1.7249 C   0  0  0  0  0  0  0  0  0  0  0  0
   10.7010    3.7443   -2.4482 C   0  0  0  0  0  0  0  0  0  0  0  0
   11.5320    3.9305   -3.5553 C   0  0  0  0  0  0  0  0  0  0  0  0
   11.5162    5.1457   -4.3283 N   0  0  0  0  0  0  0  0  0  0  0  0
   11.8745    5.0660   -5.7428 C   0  0  0  0  0  0  0  0  0  0  0  0
   11.1390    6.4386   -3.8965 C   0  0  0  0  0  0  0  0  0  0  0  0
   11.0582    7.3763   -4.6983 O   0  0  0  0  0  0  0  0  0  0  0  0
   10.8571    6.6603   -2.4032 C   0  0  0  0  0  0  0  0  0  0  0  0
   11.0862    8.0317   -1.9069 N   0  0  0  0  0  0  0  0  0  0  0  0
   10.6495    8.0973   -0.4943 C   0  0  0  0  0  0  0  0  0  0  0  0
   10.9685    9.4533    0.1671 C   0  0  0  0  0  0  0  0  0  0  0  0
   12.3841    9.8602    0.0727 N   0  0  0  0  0  0  0  0  0  0  0  0
   13.2347    9.0667    0.9571 C   0  0  0  0  0  0  0  0  0  0  0  0
   12.8161    9.7529   -1.3374 C   0  0  0  0  0  0  0  0  0  0  0  0
   12.5111    8.3956   -2.0107 C   0  0  0  0  0  0  0  0  0  0  0  0
   12.3374    2.8364   -3.9159 C   0  0  0  0  0  0  0  0  0  0  0  0
   12.2688    1.6063   -3.2307 C   0  0  0  0  0  0  0  0  0  0  0  0
    9.9481   -0.7284    0.2681 C   0  0  0  0  0  0  0  0  0  0  0  0
   10.1916   -2.0952    0.4734 C   0  0  0  0  0  0  0  0  0  0  0  0
   10.3050   -2.5997    1.7662 C   0  0  0  0  0  0  0  0  0  0  0  0
   10.1729   -1.7465    2.8630 C   0  0  0  0  0  0  0  0  0  0  0  0
    9.9311   -0.3880    2.6676 C   0  0  0  0  0  0  0  0  0  0  0  0
    9.8225    0.1233    1.3723 C   0  0  0  0  0  0  0  0  0  0  0  0
    0.7846   -1.6006    0.6562 H   0  0  0  0  0  0  0  0  0  0  0  0
    0.9291   -2.2911   -0.9742 H   0  0  0  0  0  0  0  0  0  0  0  0
    0.5728   -0.5409   -0.7503 H   0  0  0  0  0  0  0  0  0  0  0  0
    4.7542   -1.0727    0.6832 H   0  0  0  0  0  0  0  0  0  0  0  0
    7.2058   -0.8867    0.6971 H   0  0  0  0  0  0  0  0  0  0  0  0
    4.6333    0.0722   -3.4901 H   0  0  0  0  0  0  0  0  0  0  0  0
    7.0610    0.3722   -4.5687 H   0  0  0  0  0  0  0  0  0  0  0  0
   11.7668   -0.5626   -1.8651 H   0  0  0  0  0  0  0  0  0  0  0  0
   10.0305    2.4898   -0.8595 H   0  0  0  0  0  0  0  0  0  0  0  0
    9.9695    4.4681   -2.1273 H   0  0  0  0  0  0  0  0  0  0  0  0
   11.8602    4.0465   -6.1329 H   0  0  0  0  0  0  0  0  0  0  0  0
   12.8656    5.5140   -5.8837 H   0  0  0  0  0  0  0  0  0  0  0  0
   11.1556    5.6343   -6.3390 H   0  0  0  0  0  0  0  0  0  0  0  0
   11.4776    5.9900   -1.8026 H   0  0  0  0  0  0  0  0  0  0  0  0
    9.7905    6.4449   -2.2712 H   0  0  0  0  0  0  0  0  0  0  0  0
   11.1170    7.2937    0.0912 H   0  0  0  0  0  0  0  0  0  0  0  0
    9.5656    7.9346   -0.4397 H   0  0  0  0  0  0  0  0  0  0  0  0
   10.6502    9.4320    1.2169 H   0  0  0  0  0  0  0  0  0  0  0  0
   10.3546   10.2272   -0.3119 H   0  0  0  0  0  0  0  0  0  0  0  0
   12.9092    9.1757    1.9974 H   0  0  0  0  0  0  0  0  0  0  0  0
   14.2672    9.4285    0.9130 H   0  0  0  0  0  0  0  0  0  0  0  0
   13.2414    7.9977    0.7178 H   0  0  0  0  0  0  0  0  0  0  0  0
   13.8884    9.9658   -1.4196 H   0  0  0  0  0  0  0  0  0  0  0  0
   12.3110   10.5434   -1.9082 H   0  0  0  0  0  0  0  0  0  0  0  0
   13.1414    7.6171   -1.5615 H   0  0  0  0  0  0  0  0  0  0  0  0
   12.8011    8.4707   -3.0645 H   0  0  0  0  0  0  0  0  0  0  0  0
   13.0285    2.8957   -4.7544 H   0  0  0  0  0  0  0  0  0  0  0  0
   12.8464    0.7643   -3.6018 H   0  0  0  0  0  0  0  0  0  0  0  0
   10.3177   -2.7599   -0.3769 H   0  0  0  0  0  0  0  0  0  0  0  0
   10.5121   -3.6564    1.9178 H   0  0  0  0  0  0  0  0  0  0  0  0
   10.2726   -2.1435    3.8707 H   0  0  0  0  0  0  0  0  0  0  0  0
    9.8407    0.2757    3.5230 H   0  0  0  0  0  0  0  0  0  0  0  0
    9.6609    1.1891    1.2304 H   0  0  0  0  0  0  0  0  0  0  0  0
  1  2  1  0  0  0  0
  1 41  1  0  0  0  0
  1 42  1  0  0  0  0
  1 43  1  0  0  0  0
  2  3  1  0  0  0  0
  3  4  2  0  0  0  0
  3  5  1  0  0  0  0
  5  6  1  0  0  0  0
  5 10  2  0  0  0  0
  6  7  2  0  0  0  0
  6 44  1  0  0  0  0
  7  8  1  0  0  0  0
  7 45  1  0  0  0  0
  8  9  2  0  0  0  0
  8 14  1  0  0  0  0
  9 10  1  0  0  0  0
  9 11  1  0  0  0  0
 10 46  1  0  0  0  0
 11 12  1  0  0  0  0
 11 47  1  0  0  0  0
 12 13  2  0  0  0  0
 12 14  1  0  0  0  0
 14 15  2  0  0  0  0
 15 16  1  0  0  0  0
 15 35  1  0  0  0  0
 16 17  1  0  0  0  0
 16 48  1  0  0  0  0
 17 18  1  0  0  0  0
 17 34  2  0  0  0  0
 18 19  2  0  0  0  0
 18 49  1  0  0  0  0
 19 20  1  0  0  0  0
 19 50  1  0  0  0  0
 20 21  1  0  0  0  0
 20 33  2  0  0  0  0
 21 22  1  0  0  0  0
 21 23  1  0  0  0  0
 22 51  1  0  0  0  0
 22 52  1  0  0  0  0
 22 53  1  0  0  0  0
 23 24  2  0  0  0  0
 23 25  1  0  0  0  0
 25 26  1  0  0  0  0
 25 54  1  0  0  0  0
 25 55  1  0  0  0  0
 26 27  1  0  0  0  0
 26 32  1  0  0  0  0
 27 28  1  0  0  0  0
 27 56  1  0  0  0  0
 27 57  1  0  0  0  0
 28 29  1  0  0  0  0
 28 58  1  0  0  0  0
 28 59  1  0  0  0  0
 29 30  1  0  0  0  0
 29 31  1  0  0  0  0
 30 60  1  0  0  0  0
 30 61  1  0  0  0  0
 30 62  1  0  0  0  0
 31 32  1  0  0  0  0
 31 63  1  0  0  0  0
 31 64  1  0  0  0  0
 32 65  1  0  0  0  0
 32 66  1  0  0  0  0
 33 34  1  0  0  0  0
 33 67  1  0  0  0  0
 34 68  1  0  0  0  0
 35 36  1  0  0  0  0
 35 40  2  0  0  0  0
 36 37  2  0  0  0  0
 36 69  1  0  0  0  0
 37 38  1  0  0  0  0
 37 70  1  0  0  0  0
 38 39  2  0  0  0  0
 38 71  1  0  0  0  0
 39 40  1  0  0  0  0
 39 72  1  0  0  0  0
 40 73  1  0  0  0  0
M  END
$$$$
