CHEMBL1999414
 OpenBabel04072215363D

 72 75  0  0  0  0  0  0  0  0999 V2000
    7.5378   -4.5695    2.6618 C   0  0  0  0  0  0  0  0  0  0  0  0
    6.7737   -4.0559    1.4451 C   0  0  0  0  0  0  0  0  0  0  0  0
    7.1326   -4.7073    0.1736 N   0  0  0  0  0  0  0  0  0  0  0  0
    7.0255   -6.1778    0.2045 C   0  0  0  0  0  0  0  0  0  0  0  0
    5.6211   -6.7548    0.3685 C   0  0  0  0  0  0  0  0  0  0  0  0
    6.3836   -4.1400   -0.9659 C   0  0  0  0  0  0  0  0  0  0  0  0
    6.5950   -2.6386   -1.2148 C   0  0  0  0  0  0  0  0  0  0  0  0
    8.0503   -2.2421   -1.4472 C   0  0  0  0  0  0  0  0  0  0  0  0
    8.5889   -2.7988   -2.6665 N   0  0  0  0  0  0  0  0  0  0  0  0
    8.3591   -2.2370   -3.9023 C   0  0  0  0  0  0  0  0  0  0  0  0
    7.6722   -1.2377   -4.0596 O   0  0  0  0  0  0  0  0  0  0  0  0
    8.9337   -2.9232   -5.0767 C   0  0  0  0  0  0  0  0  0  0  0  0
    8.3280   -2.7022   -6.2960 C   0  0  0  0  0  0  0  0  0  0  0  0
    8.7209   -3.2716   -7.4437 N   0  0  0  0  0  0  0  0  0  0  0  0
    9.7782   -4.0964   -7.4688 C   0  0  0  0  0  0  0  0  0  0  0  0
   10.0315   -4.6147   -8.7298 N   0  0  0  0  0  0  0  0  0  0  0  0
   10.5188   -4.3748   -6.2788 C   0  0  0  0  0  0  0  0  0  0  0  0
   11.7312   -5.1783   -6.0225 C   0  0  0  0  0  0  0  0  0  0  0  0
   12.5855   -5.9108   -6.9668 C   0  0  0  0  0  0  0  0  0  0  0  0
   12.8298   -5.3876   -8.2315 C   0  0  0  0  0  0  0  0  0  0  0  0
   13.5469   -6.1104   -9.1805 C   0  0  0  0  0  0  0  0  0  0  0  0
   14.1700   -7.3131   -8.8514 C   0  0  0  0  0  0  0  0  0  0  0  0
   14.9660   -8.0207   -9.7794 N   0  0  0  0  0  0  0  0  0  0  0  0
   15.5122   -7.4475  -10.9160 C   0  0  0  0  0  0  0  0  0  0  0  0
   15.4842   -6.2497  -11.1769 O   0  0  0  0  0  0  0  0  0  0  0  0
   16.0792   -8.3959  -11.7519 N   0  0  0  0  0  0  0  0  0  0  0  0
   16.7360   -7.9987  -12.9399 C   0  0  0  0  0  0  0  0  0  0  0  0
   17.5830   -6.8854  -12.9668 C   0  0  0  0  0  0  0  0  0  0  0  0
   18.1720   -6.4740  -14.1598 C   0  0  0  0  0  0  0  0  0  0  0  0
   17.9025   -7.1644  -15.3394 C   0  0  0  0  0  0  0  0  0  0  0  0
   17.0546   -8.2789  -15.3283 C   0  0  0  0  0  0  0  0  0  0  0  0
   16.6884   -8.9731  -16.6058 C   0  0  0  0  0  0  0  0  0  0  0  0
   16.5001   -8.7139  -14.1147 C   0  0  0  0  0  0  0  0  0  0  0  0
   13.9946   -7.8230   -7.5644 C   0  0  0  0  0  0  0  0  0  0  0  0
   13.1971   -7.1328   -6.6342 C   0  0  0  0  0  0  0  0  0  0  0  0
   12.0883   -5.1517   -4.6909 C   0  0  0  0  0  0  0  0  0  0  0  0
   11.0516   -4.2217   -3.7425 S   0  0  0  0  0  0  0  0  0  0  0  0
   10.0586   -3.7774   -5.0839 C   0  0  0  0  0  0  0  0  0  0  0  0
    7.3910   -3.8865    3.5055 H   0  0  0  0  0  0  0  0  0  0  0  0
    8.6133   -4.6240    2.4627 H   0  0  0  0  0  0  0  0  0  0  0  0
    7.1854   -5.5570    2.9741 H   0  0  0  0  0  0  0  0  0  0  0  0
    7.0181   -2.9904    1.3778 H   0  0  0  0  0  0  0  0  0  0  0  0
    5.6964   -4.1215    1.6374 H   0  0  0  0  0  0  0  0  0  0  0  0
    7.6693   -6.5781    0.9959 H   0  0  0  0  0  0  0  0  0  0  0  0
    7.4577   -6.5815   -0.7209 H   0  0  0  0  0  0  0  0  0  0  0  0
    5.0656   -6.2746    1.1787 H   0  0  0  0  0  0  0  0  0  0  0  0
    5.6830   -7.8228    0.6026 H   0  0  0  0  0  0  0  0  0  0  0  0
    5.0422   -6.6543   -0.5554 H   0  0  0  0  0  0  0  0  0  0  0  0
    5.3072   -4.3084   -0.8347 H   0  0  0  0  0  0  0  0  0  0  0  0
    6.6728   -4.6732   -1.8816 H   0  0  0  0  0  0  0  0  0  0  0  0
    6.1956   -2.0572   -0.3760 H   0  0  0  0  0  0  0  0  0  0  0  0
    5.9918   -2.3512   -2.0866 H   0  0  0  0  0  0  0  0  0  0  0  0
    8.6940   -2.5696   -0.6260 H   0  0  0  0  0  0  0  0  0  0  0  0
    8.1219   -1.1512   -1.5101 H   0  0  0  0  0  0  0  0  0  0  0  0
    9.0944   -3.6752   -2.5937 H   0  0  0  0  0  0  0  0  0  0  0  0
    7.4663   -2.0446   -6.3862 H   0  0  0  0  0  0  0  0  0  0  0  0
    9.2693   -4.3861   -9.3582 H   0  0  0  0  0  0  0  0  0  0  0  0
   10.3530   -5.5723   -8.7512 H   0  0  0  0  0  0  0  0  0  0  0  0
   12.4536   -4.4101   -8.5241 H   0  0  0  0  0  0  0  0  0  0  0  0
   13.5979   -5.6891  -10.1803 H   0  0  0  0  0  0  0  0  0  0  0  0
   15.3882   -8.8854   -9.4746 H   0  0  0  0  0  0  0  0  0  0  0  0
   15.5846   -9.2756  -11.7796 H   0  0  0  0  0  0  0  0  0  0  0  0
   17.7818   -6.3155  -12.0613 H   0  0  0  0  0  0  0  0  0  0  0  0
   18.8178   -5.6001  -14.1692 H   0  0  0  0  0  0  0  0  0  0  0  0
   18.3451   -6.8131  -16.2682 H   0  0  0  0  0  0  0  0  0  0  0  0
   17.1975   -8.5255  -17.4654 H   0  0  0  0  0  0  0  0  0  0  0  0
   15.6097   -8.8895  -16.7771 H   0  0  0  0  0  0  0  0  0  0  0  0
   16.9664  -10.0298  -16.5571 H   0  0  0  0  0  0  0  0  0  0  0  0
   15.8252   -9.5652  -14.1127 H   0  0  0  0  0  0  0  0  0  0  0  0
   14.4783   -8.7466   -7.2575 H   0  0  0  0  0  0  0  0  0  0  0  0
   13.0750   -7.5654   -5.6436 H   0  0  0  0  0  0  0  0  0  0  0  0
   12.9369   -5.6271   -4.2170 H   0  0  0  0  0  0  0  0  0  0  0  0
  1  2  1  0  0  0  0
  1 39  1  0  0  0  0
  1 40  1  0  0  0  0
  1 41  1  0  0  0  0
  2  3  1  0  0  0  0
  2 42  1  0  0  0  0
  2 43  1  0  0  0  0
  3  4  1  0  0  0  0
  3  6  1  0  0  0  0
  4  5  1  0  0  0  0
  4 44  1  0  0  0  0
  4 45  1  0  0  0  0
  5 46  1  0  0  0  0
  5 47  1  0  0  0  0
  5 48  1  0  0  0  0
  6  7  1  0  0  0  0
  6 49  1  0  0  0  0
  6 50  1  0  0  0  0
  7  8  1  0  0  0  0
  7 51  1  0  0  0  0
  7 52  1  0  0  0  0
  8  9  1  0  0  0  0
  8 53  1  0  0  0  0
  8 54  1  0  0  0  0
  9 10  1  0  0  0  0
  9 55  1  0  0  0  0
 10 11  2  0  0  0  0
 10 12  1  0  0  0  0
 12 13  1  0  0  0  0
 12 38  2  0  0  0  0
 13 14  2  0  0  0  0
 13 56  1  0  0  0  0
 14 15  1  0  0  0  0
 15 16  1  0  0  0  0
 15 17  2  0  0  0  0
 16 57  1  0  0  0  0
 16 58  1  0  0  0  0
 17 18  1  0  0  0  0
 17 38  1  0  0  0  0
 18 19  1  0  0  0  0
 18 36  2  0  0  0  0
 19 20  1  0  0  0  0
 19 35  2  0  0  0  0
 20 21  2  0  0  0  0
 20 59  1  0  0  0  0
 21 22  1  0  0  0  0
 21 60  1  0  0  0  0
 22 23  1  0  0  0  0
 22 34  2  0  0  0  0
 23 24  1  0  0  0  0
 23 61  1  0  0  0  0
 24 25  2  0  0  0  0
 24 26  1  0  0  0  0
 26 27  1  0  0  0  0
 26 62  1  0  0  0  0
 27 28  1  0  0  0  0
 27 33  2  0  0  0  0
 28 29  2  0  0  0  0
 28 63  1  0  0  0  0
 29 30  1  0  0  0  0
 29 64  1  0  0  0  0
 30 31  2  0  0  0  0
 30 65  1  0  0  0  0
 31 32  1  0  0  0  0
 31 33  1  0  0  0  0
 32 66  1  0  0  0  0
 32 67  1  0  0  0  0
 32 68  1  0  0  0  0
 33 69  1  0  0  0  0
 34 35  1  0  0  0  0
 34 70  1  0  0  0  0
 35 71  1  0  0  0  0
 36 37  1  0  0  0  0
 36 72  1  0  0  0  0
 37 38  1  0  0  0  0
M  END
$$$$
