CHEMBL329350
 OpenBabel04072215363D

 37 40  0  0  0  0  0  0  0  0999 V2000
    2.7400    1.1576   -0.5703 C   0  0  0  0  0  0  0  0  0  0  0  0
    2.2394   -0.0162    0.0566 O   0  0  0  0  0  0  0  0  0  0  0  0
    3.1412   -0.8043    0.7164 C   0  0  0  0  0  0  0  0  0  0  0  0
    4.5217   -0.6075    0.7693 C   0  0  0  0  0  0  0  0  0  0  0  0
    5.3298   -1.4854    1.5042 C   0  0  0  0  0  0  0  0  0  0  0  0
    4.7660   -2.5695    2.1849 C   0  0  0  0  0  0  0  0  0  0  0  0
    5.6064   -3.4821    2.9557 C   0  0  0  0  0  0  0  0  0  0  0  0
    6.1933   -4.7186    2.3559 C   0  0  0  0  0  0  0  0  0  0  0  0
    6.9487   -5.5869    2.9612 N   0  0  0  0  0  0  0  0  0  0  0  0
    7.2204   -5.3360    4.2841 C   0  0  0  0  0  0  0  0  0  0  0  0
    7.9670   -6.0150    5.2346 C   0  0  0  0  0  0  0  0  0  0  0  0
    8.7140   -7.2474    5.0226 C   0  0  0  0  0  0  0  0  0  0  0  0
    9.2736   -7.5586    3.7814 C   0  0  0  0  0  0  0  0  0  0  0  0
   10.0015   -8.7302    3.6507 C   0  0  0  0  0  0  0  0  0  0  0  0
   10.2110   -9.6019    4.6591 N   0  0  0  0  0  0  0  0  0  0  0  0
    9.6614   -9.2875    5.8493 C   0  0  0  0  0  0  0  0  0  0  0  0
    8.9175   -8.1399    6.0794 C   0  0  0  0  0  0  0  0  0  0  0  0
    7.8213   -5.2405    6.4067 C   0  0  0  0  0  0  0  0  0  0  0  0
    7.0670   -4.1559    6.2358 N   0  0  0  0  0  0  0  0  0  0  0  0
    6.6988   -4.2070    4.9337 N   0  0  0  0  0  0  0  0  0  0  0  0
    5.9020   -3.2931    4.2511 C   0  0  0  0  0  0  0  0  0  0  0  0
    3.3848   -2.7705    2.1219 C   0  0  0  0  0  0  0  0  0  0  0  0
    2.5820   -1.8928    1.3884 C   0  0  0  0  0  0  0  0  0  0  0  0
    1.8824    1.7372   -0.9258 H   0  0  0  0  0  0  0  0  0  0  0  0
    3.3557    0.9000   -1.4380 H   0  0  0  0  0  0  0  0  0  0  0  0
    3.2926    1.7881    0.1340 H   0  0  0  0  0  0  0  0  0  0  0  0
    5.0010    0.2173    0.2530 H   0  0  0  0  0  0  0  0  0  0  0  0
    6.4049   -1.3106    1.5400 H   0  0  0  0  0  0  0  0  0  0  0  0
    5.9494   -4.8899    1.2932 H   0  0  0  0  0  0  0  0  0  0  0  0
    9.1610   -6.9056    2.9231 H   0  0  0  0  0  0  0  0  0  0  0  0
   10.4521   -9.0020    2.7005 H   0  0  0  0  0  0  0  0  0  0  0  0
    9.8405  -10.0060    6.6441 H   0  0  0  0  0  0  0  0  0  0  0  0
    8.5037   -7.9661    7.0661 H   0  0  0  0  0  0  0  0  0  0  0  0
    8.2483   -5.4207    7.3851 H   0  0  0  0  0  0  0  0  0  0  0  0
    5.5515   -2.4515    4.8343 H   0  0  0  0  0  0  0  0  0  0  0  0
    2.9186   -3.6043    2.6420 H   0  0  0  0  0  0  0  0  0  0  0  0
    1.5067   -2.0559    1.3448 H   0  0  0  0  0  0  0  0  0  0  0  0
  1  2  1  0  0  0  0
  1 24  1  0  0  0  0
  1 25  1  0  0  0  0
  1 26  1  0  0  0  0
  2  3  1  0  0  0  0
  3  4  1  0  0  0  0
  3 23  2  0  0  0  0
  4  5  2  0  0  0  0
  4 27  1  0  0  0  0
  5  6  1  0  0  0  0
  5 28  1  0  0  0  0
  6  7  1  0  0  0  0
  6 22  2  0  0  0  0
  7  8  1  0  0  0  0
  7 21  2  0  0  0  0
  8  9  2  0  0  0  0
  8 29  1  0  0  0  0
  9 10  1  0  0  0  0
 10 11  2  0  0  0  0
 10 20  1  0  0  0  0
 11 12  1  0  0  0  0
 11 18  1  0  0  0  0
 12 13  1  0  0  0  0
 12 17  2  0  0  0  0
 13 14  2  0  0  0  0
 13 30  1  0  0  0  0
 14 15  1  0  0  0  0
 14 31  1  0  0  0  0
 15 16  2  0  0  0  0
 16 17  1  0  0  0  0
 16 32  1  0  0  0  0
 17 33  1  0  0  0  0
 18 19  2  0  0  0  0
 18 34  1  0  0  0  0
 19 20  1  0  0  0  0
 20 21  1  0  0  0  0
 21 35  1  0  0  0  0
 22 23  1  0  0  0  0
 22 36  1  0  0  0  0
 23 37  1  0  0  0  0
M  END
$$$$
