CHEMBL1242207
 OpenBabel04072215363D

 39 42  0  0  0  0  0  0  0  0999 V2000
    1.1133    0.2301   -0.0950 C   0  0  0  0  0  0  0  0  0  0  0  0
    2.6392    0.2209    0.0356 C   0  0  0  0  0  0  0  0  0  0  0  0
    3.3022    0.3428   -1.3365 C   0  0  0  0  0  0  0  0  0  0  0  0
    3.0989    1.2587    0.9554 N   0  0  0  0  0  0  0  0  0  0  0  0
    2.8051    2.5442    0.7014 N   0  0  0  0  0  0  0  0  0  0  0  0
    3.2242    3.2235    1.7888 C   0  0  0  0  0  0  0  0  0  0  0  0
    2.9271    4.6656    1.8480 C   0  0  0  0  0  0  0  0  0  0  0  0
    1.8077    5.1322    1.1349 C   0  0  0  0  0  0  0  0  0  0  0  0
    1.5007    6.4884    1.0670 C   0  0  0  0  0  0  0  0  0  0  0  0
    2.2610    7.4129    1.7863 C   0  0  0  0  0  0  0  0  0  0  0  0
    1.9915    8.7809    1.7476 C   0  0  0  0  0  0  0  0  0  0  0  0
    2.5961    9.6984    2.5322 N   0  0  0  0  0  0  0  0  0  0  0  0
    3.5335    9.2322    3.3822 C   0  0  0  0  0  0  0  0  0  0  0  0
    3.9520    7.9085    3.4271 C   0  0  0  0  0  0  0  0  0  0  0  0
    3.3216    6.9678    2.5978 C   0  0  0  0  0  0  0  0  0  0  0  0
    3.6906    5.6014    2.5575 C   0  0  0  0  0  0  0  0  0  0  0  0
    3.8463    2.3321    2.7215 C   0  0  0  0  0  0  0  0  0  0  0  0
    4.4452    2.3676    3.9919 C   0  0  0  0  0  0  0  0  0  0  0  0
    4.5942    3.4981    4.7896 N   0  0  0  0  0  0  0  0  0  0  0  0
    4.8962    1.2150    4.5377 N   0  0  0  0  0  0  0  0  0  0  0  0
    4.7361    0.0696    3.8509 C   0  0  0  0  0  0  0  0  0  0  0  0
    4.1678   -0.0907    2.6512 N   0  0  0  0  0  0  0  0  0  0  0  0
    3.7476    1.0770    2.1406 C   0  0  0  0  0  0  0  0  0  0  0  0
    0.7728   -0.5841   -0.7432 H   0  0  0  0  0  0  0  0  0  0  0  0
    0.7487    1.1712   -0.5229 H   0  0  0  0  0  0  0  0  0  0  0  0
    0.6368    0.1054    0.8837 H   0  0  0  0  0  0  0  0  0  0  0  0
    2.9336   -0.7427    0.4688 H   0  0  0  0  0  0  0  0  0  0  0  0
    3.0302    1.2795   -1.8361 H   0  0  0  0  0  0  0  0  0  0  0  0
    2.9961   -0.4840   -1.9869 H   0  0  0  0  0  0  0  0  0  0  0  0
    4.3934    0.3159   -1.2479 H   0  0  0  0  0  0  0  0  0  0  0  0
    1.1678    4.4288    0.6040 H   0  0  0  0  0  0  0  0  0  0  0  0
    0.6446    6.8061    0.4772 H   0  0  0  0  0  0  0  0  0  0  0  0
    1.2530    9.1874    1.0608 H   0  0  0  0  0  0  0  0  0  0  0  0
    3.9494    9.9765    4.0558 H   0  0  0  0  0  0  0  0  0  0  0  0
    4.7252    7.6167    4.1303 H   0  0  0  0  0  0  0  0  0  0  0  0
    4.5998    5.2955    3.0699 H   0  0  0  0  0  0  0  0  0  0  0  0
    3.7971    4.1178    4.7573 H   0  0  0  0  0  0  0  0  0  0  0  0
    4.8578    3.2071    5.7264 H   0  0  0  0  0  0  0  0  0  0  0  0
    5.1087   -0.8309    4.3328 H   0  0  0  0  0  0  0  0  0  0  0  0
  1  2  1  0  0  0  0
  1 24  1  0  0  0  0
  1 25  1  0  0  0  0
  1 26  1  0  0  0  0
  2  3  1  0  0  0  0
  2  4  1  0  0  0  0
  2 27  1  0  0  0  0
  3 28  1  0  0  0  0
  3 29  1  0  0  0  0
  3 30  1  0  0  0  0
  4  5  1  0  0  0  0
  4 23  1  0  0  0  0
  5  6  2  0  0  0  0
  6  7  1  0  0  0  0
  6 17  1  0  0  0  0
  7  8  1  0  0  0  0
  7 16  2  0  0  0  0
  8  9  2  0  0  0  0
  8 31  1  0  0  0  0
  9 10  1  0  0  0  0
  9 32  1  0  0  0  0
 10 11  1  0  0  0  0
 10 15  2  0  0  0  0
 11 12  2  0  0  0  0
 11 33  1  0  0  0  0
 12 13  1  0  0  0  0
 13 14  2  0  0  0  0
 13 34  1  0  0  0  0
 14 15  1  0  0  0  0
 14 35  1  0  0  0  0
 15 16  1  0  0  0  0
 16 36  1  0  0  0  0
 17 18  1  0  0  0  0
 17 23  2  0  0  0  0
 18 19  1  0  0  0  0
 18 20  2  0  0  0  0
 19 37  1  0  0  0  0
 19 38  1  0  0  0  0
 20 21  1  0  0  0  0
 21 22  2  0  0  0  0
 21 39  1  0  0  0  0
 22 23  1  0  0  0  0
M  END
$$$$
