CHEMBL255764
 OpenBabel04072215363D

 62 66  0  0  0  0  0  0  0  0999 V2000
    0.9160   -0.3273    0.2945 C   0  0  0  0  0  0  0  0  0  0  0  0
    2.3832    0.0652    0.0865 C   0  0  0  0  0  0  0  0  0  0  0  0
    3.2938   -0.4083    1.2230 C   0  0  0  0  0  0  0  0  0  0  0  0
    2.9224   -0.3214   -1.2761 C   0  0  0  0  0  0  0  0  0  0  0  0
    3.0201   -1.6499   -1.8341 C   0  0  0  0  0  0  0  0  0  0  0  0
    2.6419   -2.9720   -1.2379 C   0  0  0  0  0  0  0  0  0  0  0  0
    2.1418   -3.1176   -0.0265 N   0  0  0  0  0  0  0  0  0  0  0  0
    1.8772   -4.4446    0.1658 N   0  0  0  0  0  0  0  0  0  0  0  0
    2.2793   -5.0521   -0.9280 C   0  0  0  0  0  0  0  0  0  0  0  0
    2.2958   -6.5148   -1.2082 C   0  0  0  0  0  0  0  0  0  0  0  0
    3.5529   -7.1883   -0.8057 N   0  0  0  0  0  0  0  0  0  0  0  0
    3.8130   -7.0497    0.6327 C   0  0  0  0  0  0  0  0  0  0  0  0
    3.4762   -8.6090   -1.1506 C   0  0  0  0  0  0  0  0  0  0  0  0
    2.7599   -4.1881   -1.8783 O   0  0  0  0  0  0  0  0  0  0  0  0
    3.5351   -1.5331   -3.1056 C   0  0  0  0  0  0  0  0  0  0  0  0
    3.7520   -0.2134   -3.3568 N   0  0  0  0  0  0  0  0  0  0  0  0
    4.2120    0.2717   -4.5212 N   0  0  0  0  0  0  0  0  0  0  0  0
    4.3125    1.5608   -4.5475 C   0  0  0  0  0  0  0  0  0  0  0  0
    4.0234    2.4252   -3.5322 N   0  0  0  0  0  0  0  0  0  0  0  0
    3.5941    1.9699   -2.3857 C   0  0  0  0  0  0  0  0  0  0  0  0
    3.3543    2.8560   -1.3513 N   0  0  0  0  0  0  0  0  0  0  0  0
    3.0112    4.2194   -1.5133 C   0  0  0  0  0  0  0  0  0  0  0  0
    2.2184    4.6658   -2.5811 C   0  0  0  0  0  0  0  0  0  0  0  0
    1.8350    6.0157   -2.7038 C   0  0  0  0  0  0  0  0  0  0  0  0
    0.9657    6.3870   -3.8549 C   0  0  0  0  0  0  0  0  0  0  0  0
    0.6291    5.5162   -4.6539 O   0  0  0  0  0  0  0  0  0  0  0  0
    0.5524    7.7015   -3.9692 N   0  0  0  0  0  0  0  0  0  0  0  0
   -0.3225    8.1125   -5.0240 C   0  0  0  0  0  0  0  0  0  0  0  0
    0.2436    8.5935   -6.3318 C   0  0  0  0  0  0  0  0  0  0  0  0
   -0.4611    9.5552   -5.4211 C   0  0  0  0  0  0  0  0  0  0  0  0
    2.2630    6.9239   -1.7363 C   0  0  0  0  0  0  0  0  0  0  0  0
    1.9206    8.2198   -1.8032 F   0  0  0  0  0  0  0  0  0  0  0  0
    3.0435    6.5068   -0.6609 C   0  0  0  0  0  0  0  0  0  0  0  0
    3.3989    5.1643   -0.5549 C   0  0  0  0  0  0  0  0  0  0  0  0
    4.1364    4.7703    0.4949 F   0  0  0  0  0  0  0  0  0  0  0  0
    3.4205    0.5406   -2.2648 C   0  0  0  0  0  0  0  0  0  0  0  0
    0.5616    0.0000    1.2771 H   0  0  0  0  0  0  0  0  0  0  0  0
    0.7292   -1.3982    0.2385 H   0  0  0  0  0  0  0  0  0  0  0  0
    0.2821    0.1346   -0.4698 H   0  0  0  0  0  0  0  0  0  0  0  0
    2.3827    1.1564    0.1552 H   0  0  0  0  0  0  0  0  0  0  0  0
    3.3243   -1.4952    1.3235 H   0  0  0  0  0  0  0  0  0  0  0  0
    2.9582   -0.0009    2.1823 H   0  0  0  0  0  0  0  0  0  0  0  0
    4.3241   -0.0712    1.0592 H   0  0  0  0  0  0  0  0  0  0  0  0
    2.1402   -6.6528   -2.2855 H   0  0  0  0  0  0  0  0  0  0  0  0
    1.4367   -6.9747   -0.7013 H   0  0  0  0  0  0  0  0  0  0  0  0
    3.9696   -6.0035    0.9155 H   0  0  0  0  0  0  0  0  0  0  0  0
    4.7391   -7.5705    0.9024 H   0  0  0  0  0  0  0  0  0  0  0  0
    2.9998   -7.4588    1.2433 H   0  0  0  0  0  0  0  0  0  0  0  0
    3.3107   -8.7375   -2.2256 H   0  0  0  0  0  0  0  0  0  0  0  0
    2.6686   -9.1200   -0.6130 H   0  0  0  0  0  0  0  0  0  0  0  0
    4.4199   -9.1125   -0.9141 H   0  0  0  0  0  0  0  0  0  0  0  0
    3.7520   -2.2714   -3.8633 H   0  0  0  0  0  0  0  0  0  0  0  0
    4.6804    2.0296   -5.4796 H   0  0  0  0  0  0  0  0  0  0  0  0
    3.9116    2.6828   -0.5207 H   0  0  0  0  0  0  0  0  0  0  0  0
    1.8699    3.9503   -3.3262 H   0  0  0  0  0  0  0  0  0  0  0  0
    0.8299    8.3849   -3.2719 H   0  0  0  0  0  0  0  0  0  0  0  0
   -1.2249    7.5058   -5.0802 H   0  0  0  0  0  0  0  0  0  0  0  0
   -0.2586    8.2741   -7.2379 H   0  0  0  0  0  0  0  0  0  0  0  0
    1.3199    8.6711   -6.4273 H   0  0  0  0  0  0  0  0  0  0  0  0
   -1.4428    9.9031   -5.7231 H   0  0  0  0  0  0  0  0  0  0  0  0
    0.1385   10.3008   -4.9147 H   0  0  0  0  0  0  0  0  0  0  0  0
    3.3633    7.2189    0.0922 H   0  0  0  0  0  0  0  0  0  0  0  0
  1  2  1  0  0  0  0
  1 37  1  0  0  0  0
  1 38  1  0  0  0  0
  1 39  1  0  0  0  0
  2  3  1  0  0  0  0
  2  4  1  0  0  0  0
  2 40  1  0  0  0  0
  3 41  1  0  0  0  0
  3 42  1  0  0  0  0
  3 43  1  0  0  0  0
  4  5  1  0  0  0  0
  4 36  2  0  0  0  0
  5  6  1  0  0  0  0
  5 15  2  0  0  0  0
  6  7  2  0  0  0  0
  6 14  1  0  0  0  0
  7  8  1  0  0  0  0
  8  9  2  0  0  0  0
  9 10  1  0  0  0  0
  9 14  1  0  0  0  0
 10 11  1  0  0  0  0
 10 44  1  0  0  0  0
 10 45  1  0  0  0  0
 11 12  1  0  0  0  0
 11 13  1  0  0  0  0
 12 46  1  0  0  0  0
 12 47  1  0  0  0  0
 12 48  1  0  0  0  0
 13 49  1  0  0  0  0
 13 50  1  0  0  0  0
 13 51  1  0  0  0  0
 15 16  1  0  0  0  0
 15 52  1  0  0  0  0
 16 17  1  0  0  0  0
 16 36  1  0  0  0  0
 17 18  2  0  0  0  0
 18 19  1  0  0  0  0
 18 53  1  0  0  0  0
 19 20  2  0  0  0  0
 20 21  1  0  0  0  0
 20 36  1  0  0  0  0
 21 22  1  0  0  0  0
 21 54  1  0  0  0  0
 22 23  1  0  0  0  0
 22 34  2  0  0  0  0
 23 24  2  0  0  0  0
 23 55  1  0  0  0  0
 24 25  1  0  0  0  0
 24 31  1  0  0  0  0
 25 26  2  0  0  0  0
 25 27  1  0  0  0  0
 27 28  1  0  0  0  0
 27 56  1  0  0  0  0
 28 29  1  0  0  0  0
 28 30  1  0  0  0  0
 28 57  1  0  0  0  0
 29 30  1  0  0  0  0
 29 58  1  0  0  0  0
 29 59  1  0  0  0  0
 30 60  1  0  0  0  0
 30 61  1  0  0  0  0
 31 32  1  0  0  0  0
 31 33  2  0  0  0  0
 33 34  1  0  0  0  0
 33 62  1  0  0  0  0
 34 35  1  0  0  0  0
M  END
$$$$
