CHEMBL189947
 OpenBabel04072215363D

 51 54  0  0  0  0  0  0  0  0999 V2000
    9.0200    8.2345    4.1213 Cl  0  0  0  0  0  0  0  0  0  0  0  0
    8.1384    6.8136    3.7174 C   0  0  0  0  0  0  0  0  0  0  0  0
    7.3123    6.8088    2.5970 C   0  0  0  0  0  0  0  0  0  0  0  0
    6.6072    5.6501    2.2637 C   0  0  0  0  0  0  0  0  0  0  0  0
    6.7377    4.4833    3.0311 C   0  0  0  0  0  0  0  0  0  0  0  0
    5.9685    3.3208    2.7679 N   0  0  0  0  0  0  0  0  0  0  0  0
    5.6460    2.8679    1.4649 C   0  0  0  0  0  0  0  0  0  0  0  0
    4.5498    2.0266    1.2665 C   0  0  0  0  0  0  0  0  0  0  0  0
    4.2061    1.5082    0.0630 N   0  0  0  0  0  0  0  0  0  0  0  0
    5.0378    1.8352   -0.9536 C   0  0  0  0  0  0  0  0  0  0  0  0
    6.1560    2.6503   -0.7954 C   0  0  0  0  0  0  0  0  0  0  0  0
    7.0629    3.0109   -1.8912 C   0  0  0  0  0  0  0  0  0  0  0  0
    8.4257    3.2121   -1.6716 C   0  0  0  0  0  0  0  0  0  0  0  0
    9.3259    3.5239   -2.6346 N   0  0  0  0  0  0  0  0  0  0  0  0
    8.8344    3.6916   -3.8831 C   0  0  0  0  0  0  0  0  0  0  0  0
    7.4909    3.5659   -4.2367 C   0  0  0  0  0  0  0  0  0  0  0  0
    7.0846    3.8558   -5.5363 N   0  0  0  0  0  0  0  0  0  0  0  0
    5.6931    4.1628   -5.8290 C   0  0  0  0  0  0  0  0  0  0  0  0
    5.6286    5.0614   -7.0621 C   0  0  0  0  0  0  0  0  0  0  0  0
    4.1878    5.4916   -7.3386 C   0  0  0  0  0  0  0  0  0  0  0  0
    4.0895    6.4038   -8.5309 C   0  0  0  0  0  0  0  0  0  0  0  0
    3.9212    5.8826   -9.8202 C   0  0  0  0  0  0  0  0  0  0  0  0
    3.8396    6.7643  -10.8837 C   0  0  0  0  0  0  0  0  0  0  0  0
    3.9164    8.1068  -10.7605 N   0  0  0  0  0  0  0  0  0  0  0  0
    4.0875    8.5887   -9.5104 C   0  0  0  0  0  0  0  0  0  0  0  0
    4.1815    7.7923   -8.3817 C   0  0  0  0  0  0  0  0  0  0  0  0
    6.6165    3.1968   -3.2109 C   0  0  0  0  0  0  0  0  0  0  0  0
    6.4598    3.1636    0.4239 N   0  0  0  0  0  0  0  0  0  0  0  0
    7.5332    4.5223    4.1824 C   0  0  0  0  0  0  0  0  0  0  0  0
    8.2471    5.6778    4.5154 C   0  0  0  0  0  0  0  0  0  0  0  0
    7.2121    7.6956    1.9776 H   0  0  0  0  0  0  0  0  0  0  0  0
    5.9599    5.6657    1.3901 H   0  0  0  0  0  0  0  0  0  0  0  0
    5.1282    3.3691    3.3382 H   0  0  0  0  0  0  0  0  0  0  0  0
    3.8944    1.7508    2.0852 H   0  0  0  0  0  0  0  0  0  0  0  0
    4.7774    1.3972   -1.9111 H   0  0  0  0  0  0  0  0  0  0  0  0
    8.8518    3.1191   -0.6740 H   0  0  0  0  0  0  0  0  0  0  0  0
    9.5741    3.9869   -4.6234 H   0  0  0  0  0  0  0  0  0  0  0  0
    7.5561    3.2832   -6.2346 H   0  0  0  0  0  0  0  0  0  0  0  0
    5.2329    4.7052   -4.9937 H   0  0  0  0  0  0  0  0  0  0  0  0
    5.1280    3.2379   -5.9915 H   0  0  0  0  0  0  0  0  0  0  0  0
    6.0480    4.5372   -7.9301 H   0  0  0  0  0  0  0  0  0  0  0  0
    6.2585    5.9470   -6.9022 H   0  0  0  0  0  0  0  0  0  0  0  0
    3.7721    6.0023   -6.4598 H   0  0  0  0  0  0  0  0  0  0  0  0
    3.5563    4.6106   -7.5006 H   0  0  0  0  0  0  0  0  0  0  0  0
    3.8555    4.8144   -9.9903 H   0  0  0  0  0  0  0  0  0  0  0  0
    3.7063    6.4020  -11.8996 H   0  0  0  0  0  0  0  0  0  0  0  0
    4.1487    9.6700   -9.4374 H   0  0  0  0  0  0  0  0  0  0  0  0
    4.3232    8.2480   -7.4070 H   0  0  0  0  0  0  0  0  0  0  0  0
    5.5628    3.0643   -3.4352 H   0  0  0  0  0  0  0  0  0  0  0  0
    7.6250    3.6390    4.8096 H   0  0  0  0  0  0  0  0  0  0  0  0
    8.8864    5.6820    5.3941 H   0  0  0  0  0  0  0  0  0  0  0  0
  1  2  1  0  0  0  0
  2  3  1  0  0  0  0
  2 30  2  0  0  0  0
  3  4  2  0  0  0  0
  3 31  1  0  0  0  0
  4  5  1  0  0  0  0
  4 32  1  0  0  0  0
  5  6  1  0  0  0  0
  5 29  2  0  0  0  0
  6  7  1  0  0  0  0
  6 33  1  0  0  0  0
  7  8  1  0  0  0  0
  7 28  2  0  0  0  0
  8  9  2  0  0  0  0
  8 34  1  0  0  0  0
  9 10  1  0  0  0  0
 10 11  2  0  0  0  0
 10 35  1  0  0  0  0
 11 12  1  0  0  0  0
 11 28  1  0  0  0  0
 12 13  1  0  0  0  0
 12 27  2  0  0  0  0
 13 14  2  0  0  0  0
 13 36  1  0  0  0  0
 14 15  1  0  0  0  0
 15 16  2  0  0  0  0
 15 37  1  0  0  0  0
 16 17  1  0  0  0  0
 16 27  1  0  0  0  0
 17 18  1  0  0  0  0
 17 38  1  0  0  0  0
 18 19  1  0  0  0  0
 18 39  1  0  0  0  0
 18 40  1  0  0  0  0
 19 20  1  0  0  0  0
 19 41  1  0  0  0  0
 19 42  1  0  0  0  0
 20 21  1  0  0  0  0
 20 43  1  0  0  0  0
 20 44  1  0  0  0  0
 21 22  1  0  0  0  0
 21 26  2  0  0  0  0
 22 23  2  0  0  0  0
 22 45  1  0  0  0  0
 23 24  1  0  0  0  0
 23 46  1  0  0  0  0
 24 25  2  0  0  0  0
 25 26  1  0  0  0  0
 25 47  1  0  0  0  0
 26 48  1  0  0  0  0
 27 49  1  0  0  0  0
 29 30  1  0  0  0  0
 29 50  1  0  0  0  0
 30 51  1  0  0  0  0
M  END
$$$$
