CHEMBL1242470
 OpenBabel04072215363D

 39 41  0  0  0  0  0  0  0  0999 V2000
    3.0473   -0.0121   -1.1346 N   0  0  0  0  0  0  0  0  0  0  0  0
    4.2025    0.0210   -1.1167 C   0  0  0  0  0  0  0  0  0  0  0  0
    5.6712    0.0618   -1.0670 C   0  0  0  0  0  0  0  0  0  0  0  0
    6.2494   -0.9739   -0.1022 C   0  0  0  0  0  0  0  0  0  0  0  0
    5.8633   -0.7204    1.3627 C   0  0  0  0  0  0  0  0  0  0  0  0
    6.4450   -1.7574    2.3271 C   0  0  0  0  0  0  0  0  0  0  0  0
    7.8938   -1.7648    2.3563 N   0  0  0  0  0  0  0  0  0  0  0  0
    8.5704   -2.6050    1.5497 N   0  0  0  0  0  0  0  0  0  0  0  0
    9.8661   -2.3668    1.8277 C   0  0  0  0  0  0  0  0  0  0  0  0
   10.9075   -3.1614    1.1682 C   0  0  0  0  0  0  0  0  0  0  0  0
   12.0956   -3.4863    1.8433 C   0  0  0  0  0  0  0  0  0  0  0  0
   13.1178   -4.1919    1.2083 C   0  0  0  0  0  0  0  0  0  0  0  0
   12.9140   -4.6568   -0.0797 C   0  0  0  0  0  0  0  0  0  0  0  0
   13.8687   -5.3769   -0.6858 F   0  0  0  0  0  0  0  0  0  0  0  0
   11.7158   -4.4069   -0.7411 C   0  0  0  0  0  0  0  0  0  0  0  0
   11.4927   -4.9149   -1.9891 O   0  0  0  0  0  0  0  0  0  0  0  0
   10.7198   -3.6461   -0.1363 C   0  0  0  0  0  0  0  0  0  0  0  0
   10.0021   -1.3164    2.7953 C   0  0  0  0  0  0  0  0  0  0  0  0
   11.0156   -0.6100    3.4651 C   0  0  0  0  0  0  0  0  0  0  0  0
   12.3777   -0.7865    3.2810 N   0  0  0  0  0  0  0  0  0  0  0  0
   10.6614    0.3091    4.3880 N   0  0  0  0  0  0  0  0  0  0  0  0
    9.3531    0.5259    4.6195 C   0  0  0  0  0  0  0  0  0  0  0  0
    8.3027   -0.0588    4.0245 N   0  0  0  0  0  0  0  0  0  0  0  0
    8.6987   -0.9769    3.1258 C   0  0  0  0  0  0  0  0  0  0  0  0
    6.0101    1.0646   -0.7826 H   0  0  0  0  0  0  0  0  0  0  0  0
    6.0648   -0.1329   -2.0715 H   0  0  0  0  0  0  0  0  0  0  0  0
    7.3403   -0.9389   -0.2056 H   0  0  0  0  0  0  0  0  0  0  0  0
    5.9309   -1.9819   -0.3972 H   0  0  0  0  0  0  0  0  0  0  0  0
    4.7718   -0.7444    1.4653 H   0  0  0  0  0  0  0  0  0  0  0  0
    6.1896    0.2845    1.6565 H   0  0  0  0  0  0  0  0  0  0  0  0
    6.1084   -2.7674    2.0639 H   0  0  0  0  0  0  0  0  0  0  0  0
    6.0954   -1.5574    3.3467 H   0  0  0  0  0  0  0  0  0  0  0  0
   12.2364   -3.2091    2.8850 H   0  0  0  0  0  0  0  0  0  0  0  0
   14.0508   -4.3959    1.7237 H   0  0  0  0  0  0  0  0  0  0  0  0
   12.2579   -5.4818   -2.2037 H   0  0  0  0  0  0  0  0  0  0  0  0
    9.7934   -3.4524   -0.6735 H   0  0  0  0  0  0  0  0  0  0  0  0
   12.6858   -1.0469    2.3542 H   0  0  0  0  0  0  0  0  0  0  0  0
   12.9282   -0.0842    3.7604 H   0  0  0  0  0  0  0  0  0  0  0  0
    9.1233    1.2648    5.3813 H   0  0  0  0  0  0  0  0  0  0  0  0
  1  2  3  0  0  0  0
  2  3  1  0  0  0  0
  3  4  1  0  0  0  0
  3 25  1  0  0  0  0
  3 26  1  0  0  0  0
  4  5  1  0  0  0  0
  4 27  1  0  0  0  0
  4 28  1  0  0  0  0
  5  6  1  0  0  0  0
  5 29  1  0  0  0  0
  5 30  1  0  0  0  0
  6  7  1  0  0  0  0
  6 31  1  0  0  0  0
  6 32  1  0  0  0  0
  7  8  1  0  0  0  0
  7 24  1  0  0  0  0
  8  9  2  0  0  0  0
  9 10  1  0  0  0  0
  9 18  1  0  0  0  0
 10 11  1  0  0  0  0
 10 17  2  0  0  0  0
 11 12  2  0  0  0  0
 11 33  1  0  0  0  0
 12 13  1  0  0  0  0
 12 34  1  0  0  0  0
 13 14  1  0  0  0  0
 13 15  2  0  0  0  0
 15 16  1  0  0  0  0
 15 17  1  0  0  0  0
 16 35  1  0  0  0  0
 17 36  1  0  0  0  0
 18 19  1  0  0  0  0
 18 24  2  0  0  0  0
 19 20  1  0  0  0  0
 19 21  2  0  0  0  0
 20 37  1  0  0  0  0
 20 38  1  0  0  0  0
 21 22  1  0  0  0  0
 22 23  2  0  0  0  0
 22 39  1  0  0  0  0
 23 24  1  0  0  0  0
M  END
$$$$
