CHEMBL3944594
 OpenBabel04072215373D

 43 46  0  0  0  0  0  0  0  0999 V2000
    2.2616   -0.7872   -1.9411 N   0  0  0  0  0  0  0  0  0  0  0  0
    1.0000   -0.5268   -1.3919 C   0  0  0  0  0  0  0  0  0  0  0  0
    0.4150    0.7328   -1.5507 C   0  0  0  0  0  0  0  0  0  0  0  0
   -0.8814    0.9811   -1.0981 C   0  0  0  0  0  0  0  0  0  0  0  0
   -1.6268   -0.0481   -0.5280 C   0  0  0  0  0  0  0  0  0  0  0  0
   -1.0944   -1.3413   -0.4626 C   0  0  0  0  0  0  0  0  0  0  0  0
   -1.8822   -2.4882    0.0672 C   0  0  0  0  0  0  0  0  0  0  0  0
   -1.3008   -3.4093    0.6351 O   0  0  0  0  0  0  0  0  0  0  0  0
   -3.3657   -2.5329   -0.0561 C   0  0  0  0  0  0  0  0  0  0  0  0
   -4.0212   -1.9849   -1.1663 C   0  0  0  0  0  0  0  0  0  0  0  0
   -5.4215   -1.9504   -1.2324 C   0  0  0  0  0  0  0  0  0  0  0  0
   -6.1716   -2.5107   -0.1790 C   0  0  0  0  0  0  0  0  0  0  0  0
   -7.5562   -2.6595    0.1418 C   0  0  0  0  0  0  0  0  0  0  0  0
   -8.6511   -2.1796   -0.6569 C   0  0  0  0  0  0  0  0  0  0  0  0
   -9.9457   -2.3522   -0.3333 C   0  0  0  0  0  0  0  0  0  0  0  0
  -11.1137   -1.9164   -1.1132 C   0  0  0  0  0  0  0  0  0  0  0  0
  -11.0986   -1.7887   -2.5078 C   0  0  0  0  0  0  0  0  0  0  0  0
  -12.2654   -1.4575   -3.2050 C   0  0  0  0  0  0  0  0  0  0  0  0
  -13.4606   -1.2575   -2.5173 C   0  0  0  0  0  0  0  0  0  0  0  0
  -13.4904   -1.3818   -1.1312 C   0  0  0  0  0  0  0  0  0  0  0  0
  -12.3247   -1.7111   -0.4352 C   0  0  0  0  0  0  0  0  0  0  0  0
   -7.7145   -3.3168    1.3031 N   0  0  0  0  0  0  0  0  0  0  0  0
   -6.4662   -3.5823    1.7087 N   0  0  0  0  0  0  0  0  0  0  0  0
   -5.4900   -3.1041    0.8789 C   0  0  0  0  0  0  0  0  0  0  0  0
   -4.0944   -3.1417    0.9742 C   0  0  0  0  0  0  0  0  0  0  0  0
    0.2189   -1.5728   -0.8931 C   0  0  0  0  0  0  0  0  0  0  0  0
    2.8669    0.0274   -1.9777 H   0  0  0  0  0  0  0  0  0  0  0  0
    2.7281   -1.5881   -1.5241 H   0  0  0  0  0  0  0  0  0  0  0  0
    0.9730    1.5388   -2.0207 H   0  0  0  0  0  0  0  0  0  0  0  0
   -1.3114    1.9744   -1.1996 H   0  0  0  0  0  0  0  0  0  0  0  0
   -2.6237    0.1736   -0.1562 H   0  0  0  0  0  0  0  0  0  0  0  0
   -3.4558   -1.5683   -1.9971 H   0  0  0  0  0  0  0  0  0  0  0  0
   -5.9127   -1.4928   -2.0856 H   0  0  0  0  0  0  0  0  0  0  0  0
   -8.3944   -1.6460   -1.5660 H   0  0  0  0  0  0  0  0  0  0  0  0
  -10.1834   -2.8701    0.5956 H   0  0  0  0  0  0  0  0  0  0  0  0
  -10.1901   -1.9698   -3.0753 H   0  0  0  0  0  0  0  0  0  0  0  0
  -12.2436   -1.3717   -4.2883 H   0  0  0  0  0  0  0  0  0  0  0  0
  -14.3696   -1.0147   -3.0613 H   0  0  0  0  0  0  0  0  0  0  0  0
  -14.4212   -1.2345   -0.5898 H   0  0  0  0  0  0  0  0  0  0  0  0
  -12.3726   -1.8137    0.6471 H   0  0  0  0  0  0  0  0  0  0  0  0
   -6.3442   -4.0938    2.5748 H   0  0  0  0  0  0  0  0  0  0  0  0
   -3.5933   -3.6063    1.8204 H   0  0  0  0  0  0  0  0  0  0  0  0
    0.6293   -2.5789   -0.8373 H   0  0  0  0  0  0  0  0  0  0  0  0
  1  2  1  0  0  0  0
  1 27  1  0  0  0  0
  1 28  1  0  0  0  0
  2  3  1  0  0  0  0
  2 26  2  0  0  0  0
  3  4  2  0  0  0  0
  3 29  1  0  0  0  0
  4  5  1  0  0  0  0
  4 30  1  0  0  0  0
  5  6  2  0  0  0  0
  5 31  1  0  0  0  0
  6  7  1  0  0  0  0
  6 26  1  0  0  0  0
  7  8  2  0  0  0  0
  7  9  1  0  0  0  0
  9 10  1  0  0  0  0
  9 25  2  0  0  0  0
 10 11  2  0  0  0  0
 10 32  1  0  0  0  0
 11 12  1  0  0  0  0
 11 33  1  0  0  0  0
 12 13  1  0  0  0  0
 12 24  2  0  0  0  0
 13 14  1  0  0  0  0
 13 22  2  0  0  0  0
 14 15  2  0  0  0  0
 14 34  1  0  0  0  0
 15 16  1  0  0  0  0
 15 35  1  0  0  0  0
 16 17  1  0  0  0  0
 16 21  2  0  0  0  0
 17 18  2  0  0  0  0
 17 36  1  0  0  0  0
 18 19  1  0  0  0  0
 18 37  1  0  0  0  0
 19 20  2  0  0  0  0
 19 38  1  0  0  0  0
 20 21  1  0  0  0  0
 20 39  1  0  0  0  0
 21 40  1  0  0  0  0
 22 23  1  0  0  0  0
 23 24  1  0  0  0  0
 23 41  1  0  0  0  0
 24 25  1  0  0  0  0
 25 42  1  0  0  0  0
 26 43  1  0  0  0  0
M  END
$$$$
