CHEMBL3703196
 OpenBabel04072215373D

 61 65  0  0  0  0  0  0  0  0999 V2000
    5.6374   -0.9153    0.8219 C   0  0  0  0  0  0  0  0  0  0  0  0
    4.3784   -0.4270    0.1718 C   0  0  0  0  0  0  0  0  0  0  0  0
    3.2056   -1.0878    0.0579 C   0  0  0  0  0  0  0  0  0  0  0  0
    2.8486   -2.4945    0.3603 C   0  0  0  0  0  0  0  0  0  0  0  0
    3.6727   -3.2524    0.8609 O   0  0  0  0  0  0  0  0  0  0  0  0
    1.5703   -2.8532   -0.0453 N   0  0  0  0  0  0  0  0  0  0  0  0
    0.9860   -4.1345    0.0183 C   0  0  0  0  0  0  0  0  0  0  0  0
    1.5237   -5.1886    0.7622 C   0  0  0  0  0  0  0  0  0  0  0  0
    0.9569   -6.4681    0.7040 C   0  0  0  0  0  0  0  0  0  0  0  0
   -0.1557   -6.7124   -0.1001 C   0  0  0  0  0  0  0  0  0  0  0  0
   -0.6075   -8.0143   -0.1339 O   0  0  0  0  0  0  0  0  0  0  0  0
   -1.0637   -8.5621   -1.3163 C   0  0  0  0  0  0  0  0  0  0  0  0
   -0.7061   -8.1132   -2.5825 C   0  0  0  0  0  0  0  0  0  0  0  0
   -1.3134   -8.7077   -3.6643 C   0  0  0  0  0  0  0  0  0  0  0  0
   -2.1727   -9.7360   -3.5621 N   0  0  0  0  0  0  0  0  0  0  0  0
   -2.4561  -10.2336   -2.3463 C   0  0  0  0  0  0  0  0  0  0  0  0
   -3.3205  -11.3375   -2.2390 N   0  0  0  0  0  0  0  0  0  0  0  0
   -3.9281  -11.9417   -3.3260 C   0  0  0  0  0  0  0  0  0  0  0  0
   -3.8283  -11.6332   -4.4993 O   0  0  0  0  0  0  0  0  0  0  0  0
   -4.8184  -13.1092   -3.0295 C   0  0  0  0  0  0  0  0  0  0  0  0
   -5.6865  -13.2124   -1.8026 C   0  0  0  0  0  0  0  0  0  0  0  0
   -4.5136  -14.1375   -1.9688 C   0  0  0  0  0  0  0  0  0  0  0  0
   -1.9162   -9.6691   -1.1938 C   0  0  0  0  0  0  0  0  0  0  0  0
   -0.7569   -5.6318   -0.7489 C   0  0  0  0  0  0  0  0  0  0  0  0
   -1.8823   -5.7940   -1.4600 F   0  0  0  0  0  0  0  0  0  0  0  0
   -0.1857   -4.3574   -0.7096 C   0  0  0  0  0  0  0  0  0  0  0  0
    2.2439   -0.0551   -0.4012 C   0  0  0  0  0  0  0  0  0  0  0  0
    1.0715   -0.2975   -0.6564 O   0  0  0  0  0  0  0  0  0  0  0  0
    2.9368    1.1522   -0.4832 N   0  0  0  0  0  0  0  0  0  0  0  0
    2.3899    2.2796   -1.1163 C   0  0  0  0  0  0  0  0  0  0  0  0
    1.2193    2.8202   -0.5672 C   0  0  0  0  0  0  0  0  0  0  0  0
    0.6106    3.9311   -1.1440 C   0  0  0  0  0  0  0  0  0  0  0  0
    1.1482    4.4868   -2.3013 C   0  0  0  0  0  0  0  0  0  0  0  0
    2.3032    3.9421   -2.8679 C   0  0  0  0  0  0  0  0  0  0  0  0
    2.9388    2.8497   -2.2669 C   0  0  0  0  0  0  0  0  0  0  0  0
    4.3053    0.8791   -0.3509 N   0  0  0  0  0  0  0  0  0  0  0  0
    5.2028    1.9547    0.0611 C   0  0  0  0  0  0  0  0  0  0  0  0
    5.6137   -1.9727    1.0889 H   0  0  0  0  0  0  0  0  0  0  0  0
    5.8036   -0.3614    1.7548 H   0  0  0  0  0  0  0  0  0  0  0  0
    6.5036   -0.7582    0.1737 H   0  0  0  0  0  0  0  0  0  0  0  0
    1.0232   -2.1335   -0.5247 H   0  0  0  0  0  0  0  0  0  0  0  0
    2.3847   -5.0423    1.4066 H   0  0  0  0  0  0  0  0  0  0  0  0
    1.4033   -7.2731    1.2824 H   0  0  0  0  0  0  0  0  0  0  0  0
   -0.0102   -7.2997   -2.7472 H   0  0  0  0  0  0  0  0  0  0  0  0
   -1.1336   -8.3590   -4.6777 H   0  0  0  0  0  0  0  0  0  0  0  0
   -3.5024  -11.6986   -1.3217 H   0  0  0  0  0  0  0  0  0  0  0  0
   -5.2618  -13.5062   -3.9424 H   0  0  0  0  0  0  0  0  0  0  0  0
   -6.6840  -13.6205   -1.9416 H   0  0  0  0  0  0  0  0  0  0  0  0
   -5.6391  -12.4411   -1.0448 H   0  0  0  0  0  0  0  0  0  0  0  0
   -4.7128  -15.1759   -2.2231 H   0  0  0  0  0  0  0  0  0  0  0  0
   -3.6516  -14.0083   -1.3291 H   0  0  0  0  0  0  0  0  0  0  0  0
   -2.1459  -10.0634   -0.2115 H   0  0  0  0  0  0  0  0  0  0  0  0
   -0.6574   -3.5655   -1.2847 H   0  0  0  0  0  0  0  0  0  0  0  0
    0.7896    2.3853    0.3328 H   0  0  0  0  0  0  0  0  0  0  0  0
   -0.2848    4.3506   -0.6933 H   0  0  0  0  0  0  0  0  0  0  0  0
    0.6590    5.3390   -2.7664 H   0  0  0  0  0  0  0  0  0  0  0  0
    2.6977    4.3630   -3.7895 H   0  0  0  0  0  0  0  0  0  0  0  0
    3.8192    2.4178   -2.7343 H   0  0  0  0  0  0  0  0  0  0  0  0
    4.9163    2.9256   -0.3516 H   0  0  0  0  0  0  0  0  0  0  0  0
    6.2141    1.7451   -0.3064 H   0  0  0  0  0  0  0  0  0  0  0  0
    5.2415    2.0470    1.1509 H   0  0  0  0  0  0  0  0  0  0  0  0
  1  2  1  0  0  0  0
  1 38  1  0  0  0  0
  1 39  1  0  0  0  0
  1 40  1  0  0  0  0
  2  3  2  0  0  0  0
  2 36  1  0  0  0  0
  3  4  1  0  0  0  0
  3 27  1  0  0  0  0
  4  5  2  0  0  0  0
  4  6  1  0  0  0  0
  6  7  1  0  0  0  0
  6 41  1  0  0  0  0
  7  8  1  0  0  0  0
  7 26  2  0  0  0  0
  8  9  2  0  0  0  0
  8 42  1  0  0  0  0
  9 10  1  0  0  0  0
  9 43  1  0  0  0  0
 10 11  1  0  0  0  0
 10 24  2  0  0  0  0
 11 12  1  0  0  0  0
 12 13  1  0  0  0  0
 12 23  2  0  0  0  0
 13 14  2  0  0  0  0
 13 44  1  0  0  0  0
 14 15  1  0  0  0  0
 14 45  1  0  0  0  0
 15 16  2  0  0  0  0
 16 17  1  0  0  0  0
 16 23  1  0  0  0  0
 17 18  1  0  0  0  0
 17 46  1  0  0  0  0
 18 19  2  0  0  0  0
 18 20  1  0  0  0  0
 20 21  1  0  0  0  0
 20 22  1  0  0  0  0
 20 47  1  0  0  0  0
 21 22  1  0  0  0  0
 21 48  1  0  0  0  0
 21 49  1  0  0  0  0
 22 50  1  0  0  0  0
 22 51  1  0  0  0  0
 23 52  1  0  0  0  0
 24 25  1  0  0  0  0
 24 26  1  0  0  0  0
 26 53  1  0  0  0  0
 27 28  2  0  0  0  0
 27 29  1  0  0  0  0
 29 30  1  0  0  0  0
 29 36  1  0  0  0  0
 30 31  1  0  0  0  0
 30 35  2  0  0  0  0
 31 32  2  0  0  0  0
 31 54  1  0  0  0  0
 32 33  1  0  0  0  0
 32 55  1  0  0  0  0
 33 34  2  0  0  0  0
 33 56  1  0  0  0  0
 34 35  1  0  0  0  0
 34 57  1  0  0  0  0
 35 58  1  0  0  0  0
 36 37  1  0  0  0  0
 37 59  1  0  0  0  0
 37 60  1  0  0  0  0
 37 61  1  0  0  0  0
M  END
$$$$
