CHEMBL3676346
 OpenBabel04072215373D

 68 71  0  0  0  0  0  0  0  0999 V2000
    4.8142   -2.3173    0.3123 C   0  0  0  0  0  0  0  0  0  0  0  0
    4.2915   -1.1257   -0.0138 C   0  0  0  0  0  0  0  0  0  0  0  0
    5.1552    0.0811    0.0414 C   0  0  0  0  0  0  0  0  0  0  0  0
    6.3459   -0.0029    0.3276 O   0  0  0  0  0  0  0  0  0  0  0  0
    4.4994    1.2571   -0.2642 N   0  0  0  0  0  0  0  0  0  0  0  0
    5.2041    2.4322   -0.6007 C   0  0  0  0  0  0  0  0  0  0  0  0
    6.3483    2.3381   -1.4053 C   0  0  0  0  0  0  0  0  0  0  0  0
    7.0365    3.4829   -1.8403 C   0  0  0  0  0  0  0  0  0  0  0  0
    8.0736    3.5205   -2.7822 C   0  0  0  0  0  0  0  0  0  0  0  0
    8.4126    2.3484   -3.5103 N   0  0  0  0  0  0  0  0  0  0  0  0
    9.1652    2.3855   -4.7091 C   0  0  0  0  0  0  0  0  0  0  0  0
    8.8446    3.3081   -5.7199 C   0  0  0  0  0  0  0  0  0  0  0  0
    9.6761    3.4847   -6.8261 C   0  0  0  0  0  0  0  0  0  0  0  0
   10.8299    2.7140   -6.9446 C   0  0  0  0  0  0  0  0  0  0  0  0
   12.0022    3.0323   -8.3934 Br  0  0  0  0  0  0  0  0  0  0  0  0
   11.1227    1.7437   -5.9877 C   0  0  0  0  0  0  0  0  0  0  0  0
   12.2224    0.9835   -6.1035 F   0  0  0  0  0  0  0  0  0  0  0  0
   10.2911    1.5771   -4.8831 C   0  0  0  0  0  0  0  0  0  0  0  0
   10.5981    0.6623   -3.9488 F   0  0  0  0  0  0  0  0  0  0  0  0
    8.6932    4.6701   -3.1179 N   0  0  0  0  0  0  0  0  0  0  0  0
    8.2626    5.7904   -2.5399 C   0  0  0  0  0  0  0  0  0  0  0  0
    7.2521    5.8780   -1.6758 N   0  0  0  0  0  0  0  0  0  0  0  0
    6.6394    4.7363   -1.3565 C   0  0  0  0  0  0  0  0  0  0  0  0
    5.5127    4.8174   -0.5570 C   0  0  0  0  0  0  0  0  0  0  0  0
    4.7377    3.6996   -0.2251 C   0  0  0  0  0  0  0  0  0  0  0  0
    3.5607    3.7738    0.4840 O   0  0  0  0  0  0  0  0  0  0  0  0
    2.9957    5.0932    0.5391 C   0  0  0  0  0  0  0  0  0  0  0  0
    1.5600    5.0527    1.0506 C   0  0  0  0  0  0  0  0  0  0  0  0
    0.8967    6.3256    0.8614 N   0  0  0  0  0  0  0  0  0  0  0  0
    0.3653    6.7253   -0.3405 C   0  0  0  0  0  0  0  0  0  0  0  0
    0.3446    5.9994   -1.3318 O   0  0  0  0  0  0  0  0  0  0  0  0
   -0.1134    8.1694   -0.4050 C   0  0  0  0  0  0  0  0  0  0  0  0
   -0.5214    8.7858    0.9398 C   0  0  0  0  0  0  0  0  0  0  0  0
    0.5732    8.8103    1.9375 N   0  0  0  0  0  0  0  0  0  0  0  0
    1.6540    9.7363    1.5580 C   0  0  0  0  0  0  0  0  0  0  0  0
    2.8063    9.6645    2.5602 C   0  0  0  0  0  0  0  0  0  0  0  0
    2.3233    9.9574    3.9740 C   0  0  0  0  0  0  0  0  0  0  0  0
    1.1539    9.0475    4.3299 C   0  0  0  0  0  0  0  0  0  0  0  0
    0.0472    9.1263    3.2764 C   0  0  0  0  0  0  0  0  0  0  0  0
    4.2445   -3.2335    0.2112 H   0  0  0  0  0  0  0  0  0  0  0  0
    5.8381   -2.4076    0.6703 H   0  0  0  0  0  0  0  0  0  0  0  0
    3.2859   -1.0386   -0.4023 H   0  0  0  0  0  0  0  0  0  0  0  0
    3.5111    1.3508   -0.0628 H   0  0  0  0  0  0  0  0  0  0  0  0
    6.6766    1.3606   -1.7501 H   0  0  0  0  0  0  0  0  0  0  0  0
    8.6865    1.5927   -2.8875 H   0  0  0  0  0  0  0  0  0  0  0  0
    7.9587    3.9338   -5.6187 H   0  0  0  0  0  0  0  0  0  0  0  0
    9.4268    4.2453   -7.5620 H   0  0  0  0  0  0  0  0  0  0  0  0
    8.7629    6.7067   -2.8132 H   0  0  0  0  0  0  0  0  0  0  0  0
    5.2409    5.8149   -0.2232 H   0  0  0  0  0  0  0  0  0  0  0  0
    2.9966    5.5454   -0.4610 H   0  0  0  0  0  0  0  0  0  0  0  0
    3.5884    5.7211    1.2189 H   0  0  0  0  0  0  0  0  0  0  0  0
    1.5475    4.8298    2.1228 H   0  0  0  0  0  0  0  0  0  0  0  0
    0.9922    4.2689    0.5395 H   0  0  0  0  0  0  0  0  0  0  0  0
    1.0165    7.0540    1.5700 H   0  0  0  0  0  0  0  0  0  0  0  0
   -0.9920    8.1839   -1.0622 H   0  0  0  0  0  0  0  0  0  0  0  0
    0.6606    8.7644   -0.9013 H   0  0  0  0  0  0  0  0  0  0  0  0
   -1.3464    8.1771    1.3335 H   0  0  0  0  0  0  0  0  0  0  0  0
   -0.9194    9.7957    0.7795 H   0  0  0  0  0  0  0  0  0  0  0  0
    1.2804   10.7649    1.4829 H   0  0  0  0  0  0  0  0  0  0  0  0
    2.0666    9.4644    0.5810 H   0  0  0  0  0  0  0  0  0  0  0  0
    3.5878   10.3784    2.2773 H   0  0  0  0  0  0  0  0  0  0  0  0
    3.2600    8.6651    2.5268 H   0  0  0  0  0  0  0  0  0  0  0  0
    2.0067   11.0051    4.0421 H   0  0  0  0  0  0  0  0  0  0  0  0
    3.1418    9.8179    4.6881 H   0  0  0  0  0  0  0  0  0  0  0  0
    0.7533    9.3250    5.3110 H   0  0  0  0  0  0  0  0  0  0  0  0
    1.5096    8.0119    4.4112 H   0  0  0  0  0  0  0  0  0  0  0  0
   -0.4161   10.1209    3.2909 H   0  0  0  0  0  0  0  0  0  0  0  0
   -0.7264    8.3988    3.5504 H   0  0  0  0  0  0  0  0  0  0  0  0
  1  2  2  0  0  0  0
  1 40  1  0  0  0  0
  1 41  1  0  0  0  0
  2  3  1  0  0  0  0
  2 42  1  0  0  0  0
  3  4  2  0  0  0  0
  3  5  1  0  0  0  0
  5  6  1  0  0  0  0
  5 43  1  0  0  0  0
  6  7  1  0  0  0  0
  6 25  2  0  0  0  0
  7  8  2  0  0  0  0
  7 44  1  0  0  0  0
  8  9  1  0  0  0  0
  8 23  1  0  0  0  0
  9 10  1  0  0  0  0
  9 20  2  0  0  0  0
 10 11  1  0  0  0  0
 10 45  1  0  0  0  0
 11 12  1  0  0  0  0
 11 18  2  0  0  0  0
 12 13  2  0  0  0  0
 12 46  1  0  0  0  0
 13 14  1  0  0  0  0
 13 47  1  0  0  0  0
 14 15  1  0  0  0  0
 14 16  2  0  0  0  0
 16 17  1  0  0  0  0
 16 18  1  0  0  0  0
 18 19  1  0  0  0  0
 20 21  1  0  0  0  0
 21 22  2  0  0  0  0
 21 48  1  0  0  0  0
 22 23  1  0  0  0  0
 23 24  2  0  0  0  0
 24 25  1  0  0  0  0
 24 49  1  0  0  0  0
 25 26  1  0  0  0  0
 26 27  1  0  0  0  0
 27 28  1  0  0  0  0
 27 50  1  0  0  0  0
 27 51  1  0  0  0  0
 28 29  1  0  0  0  0
 28 52  1  0  0  0  0
 28 53  1  0  0  0  0
 29 30  1  0  0  0  0
 29 54  1  0  0  0  0
 30 31  2  0  0  0  0
 30 32  1  0  0  0  0
 32 33  1  0  0  0  0
 32 55  1  0  0  0  0
 32 56  1  0  0  0  0
 33 34  1  0  0  0  0
 33 57  1  0  0  0  0
 33 58  1  0  0  0  0
 34 35  1  0  0  0  0
 34 39  1  0  0  0  0
 35 36  1  0  0  0  0
 35 59  1  0  0  0  0
 35 60  1  0  0  0  0
 36 37  1  0  0  0  0
 36 61  1  0  0  0  0
 36 62  1  0  0  0  0
 37 38  1  0  0  0  0
 37 63  1  0  0  0  0
 37 64  1  0  0  0  0
 38 39  1  0  0  0  0
 38 65  1  0  0  0  0
 38 66  1  0  0  0  0
 39 67  1  0  0  0  0
 39 68  1  0  0  0  0
M  END
$$$$
