CHEMBL3397932
 OpenBabel04072215363D

 55 57  0  0  0  0  0  0  0  0999 V2000
    1.9275   -0.9873   -1.6351 C   0  0  0  0  0  0  0  0  0  0  0  0
    2.3837    0.3271   -2.0905 N   0  0  0  0  0  0  0  0  0  0  0  0
    1.2599    1.2649   -2.1189 C   0  0  0  0  0  0  0  0  0  0  0  0
    3.4734    0.8599   -1.2552 C   0  0  0  0  0  0  0  0  0  0  0  0
    4.7597    0.0293   -1.3068 C   0  0  0  0  0  0  0  0  0  0  0  0
    5.2837   -0.0978   -2.7319 C   0  0  0  0  0  0  0  0  0  0  0  0
    6.4711   -0.8888   -2.7139 O   0  0  0  0  0  0  0  0  0  0  0  0
    7.0574   -1.1110   -3.9304 C   0  0  0  0  0  0  0  0  0  0  0  0
    8.1574   -1.9611   -3.8859 C   0  0  0  0  0  0  0  0  0  0  0  0
    8.8590   -2.2749   -5.0513 C   0  0  0  0  0  0  0  0  0  0  0  0
    8.4701   -1.7544   -6.2927 C   0  0  0  0  0  0  0  0  0  0  0  0
    9.1368   -2.0575   -7.5013 N   0  0  0  0  0  0  0  0  0  0  0  0
   10.0136   -3.1121   -7.6638 C   0  0  0  0  0  0  0  0  0  0  0  0
   10.2314   -3.9876   -6.8272 O   0  0  0  0  0  0  0  0  0  0  0  0
   10.7171   -3.2295   -8.9656 C   0  0  0  0  0  0  0  0  0  0  0  0
   10.9634   -2.1477   -9.8126 C   0  0  0  0  0  0  0  0  0  0  0  0
   11.7242   -2.3444  -10.9645 C   0  0  0  0  0  0  0  0  0  0  0  0
   12.2455   -3.6109  -11.2633 C   0  0  0  0  0  0  0  0  0  0  0  0
   12.0262   -4.7149  -10.4218 C   0  0  0  0  0  0  0  0  0  0  0  0
   12.6313   -6.0419  -10.6789 C   0  0  0  0  0  0  0  0  0  0  0  0
   11.9741   -7.2370  -10.3227 C   0  0  0  0  0  0  0  0  0  0  0  0
   12.5643   -8.4889  -10.5312 C   0  0  0  0  0  0  0  0  0  0  0  0
   13.8198   -8.5773  -11.1234 C   0  0  0  0  0  0  0  0  0  0  0  0
   14.4771   -7.4096  -11.4882 C   0  0  0  0  0  0  0  0  0  0  0  0
   15.7019   -7.4418  -12.0882 O   0  0  0  0  0  0  0  0  0  0  0  0
   13.9066   -6.1603  -11.2556 C   0  0  0  0  0  0  0  0  0  0  0  0
   11.2408   -4.4944   -9.2831 C   0  0  0  0  0  0  0  0  0  0  0  0
    7.3833   -0.8838   -6.3363 C   0  0  0  0  0  0  0  0  0  0  0  0
    6.6829   -0.5771   -5.1680 C   0  0  0  0  0  0  0  0  0  0  0  0
    5.6340    0.2491   -5.2922 F   0  0  0  0  0  0  0  0  0  0  0  0
    1.1097   -1.3499   -2.2673 H   0  0  0  0  0  0  0  0  0  0  0  0
    1.5801   -0.9659   -0.5968 H   0  0  0  0  0  0  0  0  0  0  0  0
    2.7222   -1.7355   -1.7223 H   0  0  0  0  0  0  0  0  0  0  0  0
    0.4483    0.8780   -2.7453 H   0  0  0  0  0  0  0  0  0  0  0  0
    1.5668    2.2186   -2.5626 H   0  0  0  0  0  0  0  0  0  0  0  0
    0.8601    1.4595   -1.1173 H   0  0  0  0  0  0  0  0  0  0  0  0
    3.1501    0.9608   -0.2117 H   0  0  0  0  0  0  0  0  0  0  0  0
    3.7255    1.8700   -1.6059 H   0  0  0  0  0  0  0  0  0  0  0  0
    4.6158   -0.9635   -0.8644 H   0  0  0  0  0  0  0  0  0  0  0  0
    5.5260    0.5084   -0.6839 H   0  0  0  0  0  0  0  0  0  0  0  0
    5.5137    0.9047   -3.1088 H   0  0  0  0  0  0  0  0  0  0  0  0
    4.5345   -0.5872   -3.3641 H   0  0  0  0  0  0  0  0  0  0  0  0
    8.4780   -2.3901   -2.9396 H   0  0  0  0  0  0  0  0  0  0  0  0
    9.7211   -2.9277   -4.9504 H   0  0  0  0  0  0  0  0  0  0  0  0
    8.8421   -1.5514   -8.3270 H   0  0  0  0  0  0  0  0  0  0  0  0
   10.6233   -1.1446   -9.5725 H   0  0  0  0  0  0  0  0  0  0  0  0
   11.9430   -1.5077  -11.6235 H   0  0  0  0  0  0  0  0  0  0  0  0
   12.8447   -3.7202  -12.1661 H   0  0  0  0  0  0  0  0  0  0  0  0
   10.9837   -7.2120   -9.8709 H   0  0  0  0  0  0  0  0  0  0  0  0
   12.0381   -9.3911  -10.2290 H   0  0  0  0  0  0  0  0  0  0  0  0
   14.2675   -9.5523  -11.2837 H   0  0  0  0  0  0  0  0  0  0  0  0
   15.9156   -8.3650  -12.2970 H   0  0  0  0  0  0  0  0  0  0  0  0
   14.4819   -5.2767  -11.5186 H   0  0  0  0  0  0  0  0  0  0  0  0
   11.0629   -5.3142   -8.5884 H   0  0  0  0  0  0  0  0  0  0  0  0
    7.0408   -0.4466   -7.2685 H   0  0  0  0  0  0  0  0  0  0  0  0
  1  2  1  0  0  0  0
  1 31  1  0  0  0  0
  1 32  1  0  0  0  0
  1 33  1  0  0  0  0
  2  3  1  0  0  0  0
  2  4  1  0  0  0  0
  3 34  1  0  0  0  0
  3 35  1  0  0  0  0
  3 36  1  0  0  0  0
  4  5  1  0  0  0  0
  4 37  1  0  0  0  0
  4 38  1  0  0  0  0
  5  6  1  0  0  0  0
  5 39  1  0  0  0  0
  5 40  1  0  0  0  0
  6  7  1  0  0  0  0
  6 41  1  0  0  0  0
  6 42  1  0  0  0  0
  7  8  1  0  0  0  0
  8  9  1  0  0  0  0
  8 29  2  0  0  0  0
  9 10  2  0  0  0  0
  9 43  1  0  0  0  0
 10 11  1  0  0  0  0
 10 44  1  0  0  0  0
 11 12  1  0  0  0  0
 11 28  2  0  0  0  0
 12 13  1  0  0  0  0
 12 45  1  0  0  0  0
 13 14  2  0  0  0  0
 13 15  1  0  0  0  0
 15 16  1  0  0  0  0
 15 27  2  0  0  0  0
 16 17  2  0  0  0  0
 16 46  1  0  0  0  0
 17 18  1  0  0  0  0
 17 47  1  0  0  0  0
 18 19  2  0  0  0  0
 18 48  1  0  0  0  0
 19 20  1  0  0  0  0
 19 27  1  0  0  0  0
 20 21  1  0  0  0  0
 20 26  2  0  0  0  0
 21 22  2  0  0  0  0
 21 49  1  0  0  0  0
 22 23  1  0  0  0  0
 22 50  1  0  0  0  0
 23 24  2  0  0  0  0
 23 51  1  0  0  0  0
 24 25  1  0  0  0  0
 24 26  1  0  0  0  0
 25 52  1  0  0  0  0
 26 53  1  0  0  0  0
 27 54  1  0  0  0  0
 28 29  1  0  0  0  0
 28 55  1  0  0  0  0
 29 30  1  0  0  0  0
M  END
$$$$
