CHEMBL3752910
 OpenBabel04072215373D

 57 61  0  0  0  0  0  0  0  0999 V2000
    2.4656    0.2598   -0.0233 C   0  0  0  0  0  0  0  0  0  0  0  0
    0.9649    0.1271    0.0301 C   0  0  0  0  0  0  0  0  0  0  0  0
    0.2047    1.3155   -0.0255 C   0  0  0  0  0  0  0  0  0  0  0  0
   -1.1948    1.2928    0.0097 C   0  0  0  0  0  0  0  0  0  0  0  0
   -1.8849    0.0807    0.0861 C   0  0  0  0  0  0  0  0  0  0  0  0
   -3.4033    0.1108    0.1156 C   0  0  0  0  0  0  0  0  0  0  0  0
   -3.9433    1.1549   -0.2450 O   0  0  0  0  0  0  0  0  0  0  0  0
   -4.0896   -1.0077    0.6071 N   0  0  0  0  0  0  0  0  0  0  0  0
   -5.5136   -1.2009    0.6336 C   0  0  0  0  0  0  0  0  0  0  0  0
   -6.3996   -0.3910   -0.0753 C   0  0  0  0  0  0  0  0  0  0  0  0
   -7.7732   -0.6702   -0.1131 C   0  0  0  0  0  0  0  0  0  0  0  0
   -8.2915   -1.7858    0.5336 C   0  0  0  0  0  0  0  0  0  0  0  0
   -7.4479   -2.6228    1.2665 C   0  0  0  0  0  0  0  0  0  0  0  0
   -8.0647   -3.8710    1.8629 C   0  0  0  0  0  0  0  0  0  0  0  0
   -9.3099   -3.6646    2.3791 F   0  0  0  0  0  0  0  0  0  0  0  0
   -8.2536   -4.8571    0.9355 F   0  0  0  0  0  0  0  0  0  0  0  0
   -7.3366   -4.4378    2.8653 F   0  0  0  0  0  0  0  0  0  0  0  0
   -6.0636   -2.2977    1.3387 C   0  0  0  0  0  0  0  0  0  0  0  0
   -1.1188   -1.0961    0.1021 C   0  0  0  0  0  0  0  0  0  0  0  0
    0.3030   -1.1180    0.1420 C   0  0  0  0  0  0  0  0  0  0  0  0
    1.0491   -2.3356    0.2384 N   0  0  0  0  0  0  0  0  0  0  0  0
    0.6072   -3.6628    0.4944 C   0  0  0  0  0  0  0  0  0  0  0  0
   -0.7188   -3.8951    0.5872 N   0  0  0  0  0  0  0  0  0  0  0  0
   -1.1938   -5.1304    0.8281 C   0  0  0  0  0  0  0  0  0  0  0  0
   -2.6260   -5.3003    0.7821 C   0  0  0  0  0  0  0  0  0  0  0  0
   -3.2791   -6.3395    1.4570 C   0  0  0  0  0  0  0  0  0  0  0  0
   -4.6560   -6.4235    1.4174 C   0  0  0  0  0  0  0  0  0  0  0  0
   -5.3202   -5.5014    0.6418 C   0  0  0  0  0  0  0  0  0  0  0  0
   -4.7388   -4.5131   -0.0623 N   0  0  0  0  0  0  0  0  0  0  0  0
   -3.4054   -4.4304    0.0311 C   0  0  0  0  0  0  0  0  0  0  0  0
   -0.4821   -6.2310    1.0530 N   0  0  0  0  0  0  0  0  0  0  0  0
    0.8120   -5.9933    0.9364 C   0  0  0  0  0  0  0  0  0  0  0  0
    1.4548   -4.7871    0.6522 C   0  0  0  0  0  0  0  0  0  0  0  0
    2.8080   -5.1730    0.6039 C   0  0  0  0  0  0  0  0  0  0  0  0
    3.0152   -6.4788    0.8529 N   0  0  0  0  0  0  0  0  0  0  0  0
    1.7737   -6.9523    1.0661 N   0  0  0  0  0  0  0  0  0  0  0  0
    1.4892   -8.3372    1.3660 C   0  0  0  0  0  0  0  0  0  0  0  0
    2.7692    1.2825   -0.2797 H   0  0  0  0  0  0  0  0  0  0  0  0
    2.8869   -0.3939   -0.7942 H   0  0  0  0  0  0  0  0  0  0  0  0
    2.9063    0.0197    0.9487 H   0  0  0  0  0  0  0  0  0  0  0  0
    0.7030    2.2829   -0.0968 H   0  0  0  0  0  0  0  0  0  0  0  0
   -1.7399    2.2348   -0.0351 H   0  0  0  0  0  0  0  0  0  0  0  0
   -3.5446   -1.7534    1.0171 H   0  0  0  0  0  0  0  0  0  0  0  0
   -6.0545    0.4643   -0.6454 H   0  0  0  0  0  0  0  0  0  0  0  0
   -8.4385   -0.0193   -0.6734 H   0  0  0  0  0  0  0  0  0  0  0  0
   -9.3565   -2.0047    0.4576 H   0  0  0  0  0  0  0  0  0  0  0  0
   -5.4055   -2.9418    1.9204 H   0  0  0  0  0  0  0  0  0  0  0  0
   -1.6593   -2.0223    0.0490 H   0  0  0  0  0  0  0  0  0  0  0  0
    2.0407   -2.2064    0.3971 H   0  0  0  0  0  0  0  0  0  0  0  0
   -2.7132   -7.0834    2.0103 H   0  0  0  0  0  0  0  0  0  0  0  0
   -5.2020   -7.1815    1.9634 H   0  0  0  0  0  0  0  0  0  0  0  0
   -6.3908   -5.5295    0.5739 H   0  0  0  0  0  0  0  0  0  0  0  0
   -2.9648   -3.6200   -0.5451 H   0  0  0  0  0  0  0  0  0  0  0  0
    3.6661   -4.5600    0.3716 H   0  0  0  0  0  0  0  0  0  0  0  0
    2.4158   -8.9091    1.4012 H   0  0  0  0  0  0  0  0  0  0  0  0
    0.8252   -8.7311    0.5881 H   0  0  0  0  0  0  0  0  0  0  0  0
    0.9754   -8.3783    2.3328 H   0  0  0  0  0  0  0  0  0  0  0  0
  1  2  1  0  0  0  0
  1 38  1  0  0  0  0
  1 39  1  0  0  0  0
  1 40  1  0  0  0  0
  2  3  1  0  0  0  0
  2 20  2  0  0  0  0
  3  4  2  0  0  0  0
  3 41  1  0  0  0  0
  4  5  1  0  0  0  0
  4 42  1  0  0  0  0
  5  6  1  0  0  0  0
  5 19  2  0  0  0  0
  6  7  2  0  0  0  0
  6  8  1  0  0  0  0
  8  9  1  0  0  0  0
  8 43  1  0  0  0  0
  9 10  1  0  0  0  0
  9 18  2  0  0  0  0
 10 11  2  0  0  0  0
 10 44  1  0  0  0  0
 11 12  1  0  0  0  0
 11 45  1  0  0  0  0
 12 13  2  0  0  0  0
 12 46  1  0  0  0  0
 13 14  1  0  0  0  0
 13 18  1  0  0  0  0
 14 15  1  0  0  0  0
 14 16  1  0  0  0  0
 14 17  1  0  0  0  0
 18 47  1  0  0  0  0
 19 20  1  0  0  0  0
 19 48  1  0  0  0  0
 20 21  1  0  0  0  0
 21 22  1  0  0  0  0
 21 49  1  0  0  0  0
 22 23  1  0  0  0  0
 22 33  2  0  0  0  0
 23 24  2  0  0  0  0
 24 25  1  0  0  0  0
 24 31  1  0  0  0  0
 25 26  1  0  0  0  0
 25 30  2  0  0  0  0
 26 27  2  0  0  0  0
 26 50  1  0  0  0  0
 27 28  1  0  0  0  0
 27 51  1  0  0  0  0
 28 29  2  0  0  0  0
 28 52  1  0  0  0  0
 29 30  1  0  0  0  0
 30 53  1  0  0  0  0
 31 32  2  0  0  0  0
 32 33  1  0  0  0  0
 32 36  1  0  0  0  0
 33 34  1  0  0  0  0
 34 35  2  0  0  0  0
 34 54  1  0  0  0  0
 35 36  1  0  0  0  0
 36 37  1  0  0  0  0
 37 55  1  0  0  0  0
 37 56  1  0  0  0  0
 37 57  1  0  0  0  0
M  END
$$$$
