CHEMBL1164180
 OpenBabel04072215363D

 61 65  0  0  0  0  0  0  0  0999 V2000
    2.1297   -0.9208   -1.0399 C   0  0  0  0  0  0  0  0  0  0  0  0
    0.9832   -0.1479   -0.5598 N   0  0  0  0  0  0  0  0  0  0  0  0
   -0.2031   -0.3947   -1.4229 C   0  0  0  0  0  0  0  0  0  0  0  0
   -1.5124    0.2439   -0.8797 C   0  0  0  0  0  0  0  0  0  0  0  0
   -1.7224   -0.2822    0.4765 N   0  0  0  0  0  0  0  0  0  0  0  0
   -3.0020   -0.2716    1.0054 C   0  0  0  0  0  0  0  0  0  0  0  0
   -3.3165   -1.1611    2.0361 C   0  0  0  0  0  0  0  0  0  0  0  0
   -4.6103   -1.2278    2.5705 C   0  0  0  0  0  0  0  0  0  0  0  0
   -5.6102   -0.3933    2.0879 C   0  0  0  0  0  0  0  0  0  0  0  0
   -6.9656   -0.2788    2.6876 C   0  0  0  0  0  0  0  0  0  0  0  0
   -8.0153    0.2609    1.9413 C   0  0  0  0  0  0  0  0  0  0  0  0
   -9.0385    0.9565    2.4690 N   0  0  0  0  0  0  0  0  0  0  0  0
   -9.0372    1.0586    3.8037 C   0  0  0  0  0  0  0  0  0  0  0  0
   -8.3691    0.1425    4.6332 C   0  0  0  0  0  0  0  0  0  0  0  0
   -7.2376   -0.4609    4.0606 C   0  0  0  0  0  0  0  0  0  0  0  0
   -8.5613    0.1919    6.0764 N   0  0  0  0  0  0  0  0  0  0  0  0
  -10.0034    0.2111    6.4943 C   0  0  0  0  0  0  0  0  0  0  0  0
  -10.7597   -1.1007    6.6031 C   0  0  0  0  0  0  0  0  0  0  0  0
  -11.4237   -1.5528    5.4394 C   0  0  0  0  0  0  0  0  0  0  0  0
  -12.4077   -2.5403    5.5037 C   0  0  0  0  0  0  0  0  0  0  0  0
  -13.2659   -2.9913    4.0825 Cl  0  0  0  0  0  0  0  0  0  0  0  0
  -12.7421   -3.1187    6.7197 C   0  0  0  0  0  0  0  0  0  0  0  0
  -12.0563   -2.7330    7.8706 C   0  0  0  0  0  0  0  0  0  0  0  0
  -11.0541   -1.7322    7.8374 C   0  0  0  0  0  0  0  0  0  0  0  0
  -10.4130   -1.3946    9.1708 C   0  0  0  0  0  0  0  0  0  0  0  0
   -9.5307   -0.3625    9.1653 F   0  0  0  0  0  0  0  0  0  0  0  0
  -11.3500   -1.0614   10.1075 F   0  0  0  0  0  0  0  0  0  0  0  0
   -9.7378   -2.4554    9.6960 F   0  0  0  0  0  0  0  0  0  0  0  0
   -7.9829    1.5499    6.3537 C   0  0  0  0  0  0  0  0  0  0  0  0
   -8.7722    2.6873    5.6208 C   0  0  0  0  0  0  0  0  0  0  0  0
   -9.4060    2.2953    4.3473 N   0  0  0  0  0  0  0  0  0  0  0  0
   -5.1917    0.4601    1.0511 C   0  0  0  0  0  0  0  0  0  0  0  0
   -3.9541    0.5217    0.4912 N   0  0  0  0  0  0  0  0  0  0  0  0
   -0.6287    0.1132    1.3773 C   0  0  0  0  0  0  0  0  0  0  0  0
    0.6811   -0.5145    0.8460 C   0  0  0  0  0  0  0  0  0  0  0  0
    2.3870   -0.6359   -2.0654 H   0  0  0  0  0  0  0  0  0  0  0  0
    1.9396   -2.0009   -1.0215 H   0  0  0  0  0  0  0  0  0  0  0  0
    3.0127   -0.7211   -0.4228 H   0  0  0  0  0  0  0  0  0  0  0  0
   -0.3704   -1.4769   -1.5171 H   0  0  0  0  0  0  0  0  0  0  0  0
   -0.0086   -0.0045   -2.4285 H   0  0  0  0  0  0  0  0  0  0  0  0
   -2.3350   -0.0277   -1.5514 H   0  0  0  0  0  0  0  0  0  0  0  0
   -1.4230    1.3391   -0.8731 H   0  0  0  0  0  0  0  0  0  0  0  0
   -2.5505   -1.8337    2.4107 H   0  0  0  0  0  0  0  0  0  0  0  0
   -4.8023   -1.9357    3.3716 H   0  0  0  0  0  0  0  0  0  0  0  0
   -8.0039    0.2477    0.8540 H   0  0  0  0  0  0  0  0  0  0  0  0
   -6.5049   -0.9112    4.7246 H   0  0  0  0  0  0  0  0  0  0  0  0
  -10.6251    0.8481    5.8537 H   0  0  0  0  0  0  0  0  0  0  0  0
  -10.0788    0.7284    7.4569 H   0  0  0  0  0  0  0  0  0  0  0  0
  -11.2239   -1.0738    4.4815 H   0  0  0  0  0  0  0  0  0  0  0  0
  -13.5362   -3.8588    6.7828 H   0  0  0  0  0  0  0  0  0  0  0  0
  -12.3313   -3.1946    8.8207 H   0  0  0  0  0  0  0  0  0  0  0  0
   -6.9232    1.5710    6.0594 H   0  0  0  0  0  0  0  0  0  0  0  0
   -7.9856    1.7367    7.4341 H   0  0  0  0  0  0  0  0  0  0  0  0
   -8.0856    3.5204    5.4334 H   0  0  0  0  0  0  0  0  0  0  0  0
   -9.5561    3.0646    6.2820 H   0  0  0  0  0  0  0  0  0  0  0  0
  -10.3861    2.4912    4.1953 H   0  0  0  0  0  0  0  0  0  0  0  0
   -5.8740    1.2003    0.6260 H   0  0  0  0  0  0  0  0  0  0  0  0
   -0.7892   -0.2264    2.4062 H   0  0  0  0  0  0  0  0  0  0  0  0
   -0.5346    1.2079    1.4073 H   0  0  0  0  0  0  0  0  0  0  0  0
    0.5945   -1.6065    0.9384 H   0  0  0  0  0  0  0  0  0  0  0  0
    1.5089   -0.1939    1.4895 H   0  0  0  0  0  0  0  0  0  0  0  0
  1  2  1  0  0  0  0
  1 36  1  0  0  0  0
  1 37  1  0  0  0  0
  1 38  1  0  0  0  0
  2  3  1  0  0  0  0
  2 35  1  0  0  0  0
  3  4  1  0  0  0  0
  3 39  1  0  0  0  0
  3 40  1  0  0  0  0
  4  5  1  0  0  0  0
  4 41  1  0  0  0  0
  4 42  1  0  0  0  0
  5  6  1  0  0  0  0
  5 34  1  0  0  0  0
  6  7  1  0  0  0  0
  6 33  2  0  0  0  0
  7  8  2  0  0  0  0
  7 43  1  0  0  0  0
  8  9  1  0  0  0  0
  8 44  1  0  0  0  0
  9 10  1  0  0  0  0
  9 32  2  0  0  0  0
 10 11  1  0  0  0  0
 10 15  2  0  0  0  0
 11 12  2  0  0  0  0
 11 45  1  0  0  0  0
 12 13  1  0  0  0  0
 13 14  2  0  0  0  0
 13 31  1  0  0  0  0
 14 15  1  0  0  0  0
 14 16  1  0  0  0  0
 15 46  1  0  0  0  0
 16 17  1  0  0  0  0
 16 29  1  0  0  0  0
 17 18  1  0  0  0  0
 17 47  1  0  0  0  0
 17 48  1  0  0  0  0
 18 19  1  0  0  0  0
 18 24  2  0  0  0  0
 19 20  2  0  0  0  0
 19 49  1  0  0  0  0
 20 21  1  0  0  0  0
 20 22  1  0  0  0  0
 22 23  2  0  0  0  0
 22 50  1  0  0  0  0
 23 24  1  0  0  0  0
 23 51  1  0  0  0  0
 24 25  1  0  0  0  0
 25 26  1  0  0  0  0
 25 27  1  0  0  0  0
 25 28  1  0  0  0  0
 29 30  1  0  0  0  0
 29 52  1  0  0  0  0
 29 53  1  0  0  0  0
 30 31  1  0  0  0  0
 30 54  1  0  0  0  0
 30 55  1  0  0  0  0
 31 56  1  0  0  0  0
 32 33  1  0  0  0  0
 32 57  1  0  0  0  0
 34 35  1  0  0  0  0
 34 58  1  0  0  0  0
 34 59  1  0  0  0  0
 35 60  1  0  0  0  0
 35 61  1  0  0  0  0
M  END
$$$$
