CHEMBL484677
 OpenBabel04072215383D

 35 37  0  0  0  0  0  0  0  0999 V2000
    1.0605   -0.0959   -0.0071 C   0  0  0  0  0  0  0  0  0  0  0  0
    2.3542    0.1729    0.5234 O   0  0  0  0  0  0  0  0  0  0  0  0
    3.0810   -0.9140    0.9248 C   0  0  0  0  0  0  0  0  0  0  0  0
    2.6542   -2.2370    0.8695 C   0  0  0  0  0  0  0  0  0  0  0  0
    3.4900   -3.2667    1.3091 C   0  0  0  0  0  0  0  0  0  0  0  0
    4.7597   -2.9899    1.8182 C   0  0  0  0  0  0  0  0  0  0  0  0
    5.6395   -3.9836    2.2937 N   0  0  0  0  0  0  0  0  0  0  0  0
    5.3896   -5.3380    2.3487 C   0  0  0  0  0  0  0  0  0  0  0  0
    4.3373   -5.9044    2.0683 O   0  0  0  0  0  0  0  0  0  0  0  0
    6.5238   -6.2298    2.6917 C   0  0  0  0  0  0  0  0  0  0  0  0
    6.2406   -7.4554    3.3116 C   0  0  0  0  0  0  0  0  0  0  0  0
    7.0984   -8.5601    3.1362 C   0  0  0  0  0  0  0  0  0  0  0  0
    8.1627   -8.4857    2.2351 C   0  0  0  0  0  0  0  0  0  0  0  0
    8.4030   -7.2720    1.6162 C   0  0  0  0  0  0  0  0  0  0  0  0
    7.6961   -6.1319    1.9805 C   0  0  0  0  0  0  0  0  0  0  0  0
    8.2090   -5.0286    1.1803 C   0  0  0  0  0  0  0  0  0  0  0  0
    8.1509   -3.8626    1.4886 O   0  0  0  0  0  0  0  0  0  0  0  0
    8.8307   -5.5915    0.0742 N   0  0  0  0  0  0  0  0  0  0  0  0
    9.1880   -6.9729    0.3819 C   0  0  0  0  0  0  0  0  0  0  0  0
    5.1959   -1.6647    1.8518 C   0  0  0  0  0  0  0  0  0  0  0  0
    4.3552   -0.6288    1.4167 C   0  0  0  0  0  0  0  0  0  0  0  0
    0.6356    0.8515   -0.3525 H   0  0  0  0  0  0  0  0  0  0  0  0
    0.3982   -0.4993    0.7661 H   0  0  0  0  0  0  0  0  0  0  0  0
    1.1135   -0.7668   -0.8710 H   0  0  0  0  0  0  0  0  0  0  0  0
    1.6766   -2.5166    0.4924 H   0  0  0  0  0  0  0  0  0  0  0  0
    3.1120   -4.2794    1.2277 H   0  0  0  0  0  0  0  0  0  0  0  0
    6.5855   -3.6617    2.5036 H   0  0  0  0  0  0  0  0  0  0  0  0
    5.2948   -7.5936    3.8301 H   0  0  0  0  0  0  0  0  0  0  0  0
    6.8458   -9.5097    3.6047 H   0  0  0  0  0  0  0  0  0  0  0  0
    8.7264   -9.3767    1.9754 H   0  0  0  0  0  0  0  0  0  0  0  0
    8.2034   -5.5010   -0.7166 H   0  0  0  0  0  0  0  0  0  0  0  0
   10.2626   -7.0212    0.5432 H   0  0  0  0  0  0  0  0  0  0  0  0
    8.8732   -7.5999   -0.4583 H   0  0  0  0  0  0  0  0  0  0  0  0
    6.1885   -1.4123    2.2196 H   0  0  0  0  0  0  0  0  0  0  0  0
    4.6997    0.3974    1.4649 H   0  0  0  0  0  0  0  0  0  0  0  0
  1  2  1  0  0  0  0
  1 22  1  0  0  0  0
  1 23  1  0  0  0  0
  1 24  1  0  0  0  0
  2  3  1  0  0  0  0
  3  4  1  0  0  0  0
  3 21  2  0  0  0  0
  4  5  2  0  0  0  0
  4 25  1  0  0  0  0
  5  6  1  0  0  0  0
  5 26  1  0  0  0  0
  6  7  1  0  0  0  0
  6 20  2  0  0  0  0
  7  8  1  0  0  0  0
  7 27  1  0  0  0  0
  8  9  2  0  0  0  0
  8 10  1  0  0  0  0
 10 11  1  0  0  0  0
 10 15  2  0  0  0  0
 11 12  2  0  0  0  0
 11 28  1  0  0  0  0
 12 13  1  0  0  0  0
 12 29  1  0  0  0  0
 13 14  2  0  0  0  0
 13 30  1  0  0  0  0
 14 15  1  0  0  0  0
 14 19  1  0  0  0  0
 15 16  1  0  0  0  0
 16 17  2  0  0  0  0
 16 18  1  0  0  0  0
 18 19  1  0  0  0  0
 18 31  1  0  0  0  0
 19 32  1  0  0  0  0
 19 33  1  0  0  0  0
 20 21  1  0  0  0  0
 20 34  1  0  0  0  0
 21 35  1  0  0  0  0
M  END
$$$$
