CHEMBL2208034
 OpenBabel04072215363D

 61 65  0  0  1  0  0  0  0  0999 V2000
    3.5624   -0.6952   -2.8089 O   0  0  0  0  0  0  0  0  0  0  0  0
    2.6299   -0.2819   -2.1152 C   0  0  0  0  0  0  0  0  0  0  0  0
    1.2881   -0.3323   -2.4719 N   0  0  0  0  0  0  0  0  0  0  0  0
    0.7752   -1.0309   -3.5912 C   0  0  0  0  0  0  0  0  0  0  0  0
    1.5183   -2.0043   -4.2580 C   0  0  0  0  0  0  0  0  0  0  0  0
    0.9956   -2.6823   -5.3595 C   0  0  0  0  0  0  0  0  0  0  0  0
   -0.3006   -2.4346   -5.8286 C   0  0  0  0  0  0  0  0  0  0  0  0
   -0.8398   -3.1967   -6.9751 C   0  0  0  0  0  0  0  0  0  0  0  0
   -0.4863   -4.5117   -7.2138 C   0  0  0  0  0  0  0  0  0  0  0  0
   -1.0317   -5.1007   -8.3256 C   0  0  0  0  0  0  0  0  0  0  0  0
   -1.8715   -4.4687   -9.1593 N   0  0  0  0  0  0  0  0  0  0  0  0
   -2.1611   -3.1911   -8.8687 C   0  0  0  0  0  0  0  0  0  0  0  0
   -3.0325   -2.5503   -9.7476 N   0  0  0  0  0  0  0  0  0  0  0  0
   -3.0169   -1.2020  -10.1384 C   0  0  0  0  0  0  0  0  0  0  0  0
   -1.8836   -0.3941  -10.0360 C   0  0  0  0  0  0  0  0  0  0  0  0
   -1.9159    0.9484  -10.4380 C   0  0  0  0  0  0  0  0  0  0  0  0
   -3.0796    1.5419  -10.9375 C   0  0  0  0  0  0  0  0  0  0  0  0
   -3.1277    2.8653  -11.3184 N   0  0  0  0  0  0  0  0  0  0  0  0
   -1.9620    3.6071  -11.8191 C   0  0  0  0  0  0  0  0  0  0  0  0
   -1.6517    4.7974  -10.9022 C   0  0  0  0  0  0  0  0  0  0  0  0
   -2.8020    5.6451  -10.7353 O   0  0  0  0  0  0  0  0  0  0  0  0
   -3.8854    4.9000  -10.1530 C   0  0  0  0  0  0  0  0  0  0  0  0
   -4.3008    3.7059  -11.0313 C   0  0  0  0  0  0  0  0  0  0  0  0
   -4.2059    0.7130  -11.0483 C   0  0  0  0  0  0  0  0  0  0  0  0
   -4.1752   -0.6357  -10.6691 C   0  0  0  0  0  0  0  0  0  0  0  0
   -1.6806   -2.5376   -7.7952 N   0  0  0  0  0  0  0  0  0  0  0  0
   -1.0456   -1.4497   -5.1539 C   0  0  0  0  0  0  0  0  0  0  0  0
   -0.5223   -0.7654   -4.0380 C   0  0  0  0  0  0  0  0  0  0  0  0
    2.9227    0.4100   -0.7634 C   0  0  1  0  0  0  0  0  0  0  0  0
    2.2702   -0.2573    0.4319 C   0  0  0  0  0  0  0  0  0  0  0  0
    3.1790   -1.4417    0.7155 C   0  0  0  0  0  0  0  0  0  0  0  0
    4.5507   -1.0061    0.2224 C   0  0  0  0  0  0  0  0  0  0  0  0
    4.3665    0.2916   -0.4415 N   0  0  0  0  0  0  0  0  0  0  0  0
    0.6423    0.2619   -1.9670 H   0  0  0  0  0  0  0  0  0  0  0  0
    2.5164   -2.2828   -3.9387 H   0  0  0  0  0  0  0  0  0  0  0  0
    1.6416   -3.4042   -5.8518 H   0  0  0  0  0  0  0  0  0  0  0  0
    0.1775   -5.0664   -6.5652 H   0  0  0  0  0  0  0  0  0  0  0  0
   -0.7980   -6.1288   -8.5852 H   0  0  0  0  0  0  0  0  0  0  0  0
   -3.2349   -3.1895  -10.5083 H   0  0  0  0  0  0  0  0  0  0  0  0
   -0.9510   -0.7950   -9.6489 H   0  0  0  0  0  0  0  0  0  0  0  0
   -1.0079    1.5284  -10.3068 H   0  0  0  0  0  0  0  0  0  0  0  0
   -2.2201    3.9847  -12.8159 H   0  0  0  0  0  0  0  0  0  0  0  0
   -1.0721    2.9817  -11.9457 H   0  0  0  0  0  0  0  0  0  0  0  0
   -0.8567    5.4069  -11.3435 H   0  0  0  0  0  0  0  0  0  0  0  0
   -1.3100    4.4628   -9.9160 H   0  0  0  0  0  0  0  0  0  0  0  0
   -4.7313    5.5845  -10.0359 H   0  0  0  0  0  0  0  0  0  0  0  0
   -3.5865    4.5654   -9.1522 H   0  0  0  0  0  0  0  0  0  0  0  0
   -4.6978    4.0735  -11.9846 H   0  0  0  0  0  0  0  0  0  0  0  0
   -5.1028    3.1642  -10.5186 H   0  0  0  0  0  0  0  0  0  0  0  0
   -5.1316    1.1026  -11.4620 H   0  0  0  0  0  0  0  0  0  0  0  0
   -5.0760   -1.2358  -10.7740 H   0  0  0  0  0  0  0  0  0  0  0  0
   -2.0522   -1.2088   -5.4971 H   0  0  0  0  0  0  0  0  0  0  0  0
   -1.1412   -0.0154   -3.5524 H   0  0  0  0  0  0  0  0  0  0  0  0
    2.6415    1.4641   -0.8549 H   0  0  0  0  0  0  0  0  0  0  0  0
    1.2368   -0.5721    0.2662 H   0  0  0  0  0  0  0  0  0  0  0  0
    2.2851    0.4238    1.2929 H   0  0  0  0  0  0  0  0  0  0  0  0
    2.8384   -2.3163    0.1483 H   0  0  0  0  0  0  0  0  0  0  0  0
    3.1834   -1.7074    1.7770 H   0  0  0  0  0  0  0  0  0  0  0  0
    4.9636   -1.7506   -0.4684 H   0  0  0  0  0  0  0  0  0  0  0  0
    5.2555   -0.8958    1.0522 H   0  0  0  0  0  0  0  0  0  0  0  0
    4.8817    0.2743   -1.3302 H   0  0  0  0  0  0  0  0  0  0  0  0
  1  2  2  0  0  0  0
  2  3  1  0  0  0  0
  3  4  1  0  0  0  0
  3 34  1  0  0  0  0
  4  5  1  0  0  0  0
  4 28  2  0  0  0  0
  5  6  2  0  0  0  0
  5 35  1  0  0  0  0
  6  7  1  0  0  0  0
  6 36  1  0  0  0  0
  7  8  1  0  0  0  0
  7 27  2  0  0  0  0
  8  9  1  0  0  0  0
  8 26  2  0  0  0  0
  9 10  2  0  0  0  0
  9 37  1  0  0  0  0
 10 11  1  0  0  0  0
 10 38  1  0  0  0  0
 11 12  2  0  0  0  0
 12 13  1  0  0  0  0
 12 26  1  0  0  0  0
 13 14  1  0  0  0  0
 13 39  1  0  0  0  0
 14 15  1  0  0  0  0
 14 25  2  0  0  0  0
 15 16  2  0  0  0  0
 15 40  1  0  0  0  0
 16 17  1  0  0  0  0
 16 41  1  0  0  0  0
 17 18  1  0  0  0  0
 17 24  2  0  0  0  0
 18 19  1  0  0  0  0
 18 23  1  0  0  0  0
 19 20  1  0  0  0  0
 19 42  1  0  0  0  0
 19 43  1  0  0  0  0
 20 21  1  0  0  0  0
 20 44  1  0  0  0  0
 20 45  1  0  0  0  0
 21 22  1  0  0  0  0
 22 23  1  0  0  0  0
 22 46  1  0  0  0  0
 22 47  1  0  0  0  0
 23 48  1  0  0  0  0
 23 49  1  0  0  0  0
 24 25  1  0  0  0  0
 24 50  1  0  0  0  0
 25 51  1  0  0  0  0
 27 28  1  0  0  0  0
 27 52  1  0  0  0  0
 28 53  1  0  0  0  0
 29 30  1  0  0  0  0
 29 33  1  0  0  0  0
 29  2  1  0  0  0  0
 29 54  1  6  0  0  0
 30 31  1  0  0  0  0
 30 55  1  0  0  0  0
 30 56  1  0  0  0  0
 31 32  1  0  0  0  0
 31 57  1  0  0  0  0
 31 58  1  0  0  0  0
 32 33  1  0  0  0  0
 32 59  1  0  0  0  0
 32 60  1  0  0  0  0
 33 61  1  0  0  0  0
M  END
$$$$
