CHEMBL4100645
 OpenBabel04072215383D

 47 50  0  0  0  0  0  0  0  0999 V2000
    2.3604   -0.4139    1.6493 C   0  0  0  0  0  0  0  0  0  0  0  0
    0.8625   -0.3228    1.5899 C   0  0  0  0  0  0  0  0  0  0  0  0
    0.2346    0.8498    2.0203 C   0  0  0  0  0  0  0  0  0  0  0  0
   -1.1476    0.9530    1.9763 C   0  0  0  0  0  0  0  0  0  0  0  0
   -1.9129   -0.1125    1.5024 C   0  0  0  0  0  0  0  0  0  0  0  0
   -1.3209   -1.2993    1.0573 C   0  0  0  0  0  0  0  0  0  0  0  0
   -2.0811   -2.4005    0.5686 N   0  0  0  0  0  0  0  0  0  0  0  0
   -3.4595   -2.4171    0.4214 C   0  0  0  0  0  0  0  0  0  0  0  0
   -4.2091   -1.4735    0.6564 O   0  0  0  0  0  0  0  0  0  0  0  0
   -3.9446   -3.6512    0.0007 N   0  0  0  0  0  0  0  0  0  0  0  0
   -5.3449   -3.8018   -0.1793 C   0  0  0  0  0  0  0  0  0  0  0  0
   -6.0806   -2.8955   -0.9463 C   0  0  0  0  0  0  0  0  0  0  0  0
   -7.4801   -2.9612   -0.9835 C   0  0  0  0  0  0  0  0  0  0  0  0
   -8.1843   -3.9549   -0.2846 C   0  0  0  0  0  0  0  0  0  0  0  0
   -9.6656   -3.9586   -0.2119 C   0  0  0  0  0  0  0  0  0  0  0  0
  -10.4571   -3.5409   -1.3076 C   0  0  0  0  0  0  0  0  0  0  0  0
  -11.8394   -3.5274   -1.2103 C   0  0  0  0  0  0  0  0  0  0  0  0
  -12.6062   -3.0965   -2.2624 O   0  0  0  0  0  0  0  0  0  0  0  0
  -12.5477   -3.8854   -0.1327 N   0  0  0  0  0  0  0  0  0  0  0  0
  -11.7712   -4.2712    0.8994 C   0  0  0  0  0  0  0  0  0  0  0  0
  -12.2503   -4.6707    2.1037 N   0  0  0  0  0  0  0  0  0  0  0  0
  -11.2925   -4.9834    2.9896 N   0  0  0  0  0  0  0  0  0  0  0  0
  -10.1507   -4.7519    2.3242 C   0  0  0  0  0  0  0  0  0  0  0  0
   -8.8808   -4.9494    3.0703 C   0  0  0  0  0  0  0  0  0  0  0  0
  -10.3861   -4.3310    0.9657 C   0  0  0  0  0  0  0  0  0  0  0  0
   -7.4058   -4.9391    0.3424 C   0  0  0  0  0  0  0  0  0  0  0  0
   -6.0112   -4.8443    0.4480 C   0  0  0  0  0  0  0  0  0  0  0  0
    0.0788   -1.3951    1.1067 C   0  0  0  0  0  0  0  0  0  0  0  0
    2.7978    0.4994    2.0656 H   0  0  0  0  0  0  0  0  0  0  0  0
    2.7749   -0.5489    0.6459 H   0  0  0  0  0  0  0  0  0  0  0  0
    2.6681   -1.2459    2.2916 H   0  0  0  0  0  0  0  0  0  0  0  0
    0.8130    1.6903    2.3954 H   0  0  0  0  0  0  0  0  0  0  0  0
   -1.6438    1.8595    2.3091 H   0  0  0  0  0  0  0  0  0  0  0  0
   -2.9845    0.0387    1.5032 H   0  0  0  0  0  0  0  0  0  0  0  0
   -1.5694   -3.1920    0.2175 H   0  0  0  0  0  0  0  0  0  0  0  0
   -3.4571   -4.4437    0.3902 H   0  0  0  0  0  0  0  0  0  0  0  0
   -5.5745   -2.1021   -1.4922 H   0  0  0  0  0  0  0  0  0  0  0  0
   -8.0038   -2.1933   -1.5488 H   0  0  0  0  0  0  0  0  0  0  0  0
   -9.9809   -3.2356   -2.2338 H   0  0  0  0  0  0  0  0  0  0  0  0
  -12.0154   -2.8131   -2.9732 H   0  0  0  0  0  0  0  0  0  0  0  0
  -13.2203   -4.7441    2.3823 H   0  0  0  0  0  0  0  0  0  0  0  0
   -9.0589   -5.0667    4.1457 H   0  0  0  0  0  0  0  0  0  0  0  0
   -8.2096   -4.0959    2.9397 H   0  0  0  0  0  0  0  0  0  0  0  0
   -8.3817   -5.8689    2.7551 H   0  0  0  0  0  0  0  0  0  0  0  0
   -7.8898   -5.7981    0.7924 H   0  0  0  0  0  0  0  0  0  0  0  0
   -5.4839   -5.5479    1.0853 H   0  0  0  0  0  0  0  0  0  0  0  0
    0.5825   -2.3002    0.7748 H   0  0  0  0  0  0  0  0  0  0  0  0
  1  2  1  0  0  0  0
  1 29  1  0  0  0  0
  1 30  1  0  0  0  0
  1 31  1  0  0  0  0
  2  3  1  0  0  0  0
  2 28  2  0  0  0  0
  3  4  2  0  0  0  0
  3 32  1  0  0  0  0
  4  5  1  0  0  0  0
  4 33  1  0  0  0  0
  5  6  2  0  0  0  0
  5 34  1  0  0  0  0
  6  7  1  0  0  0  0
  6 28  1  0  0  0  0
  7  8  1  0  0  0  0
  7 35  1  0  0  0  0
  8  9  2  0  0  0  0
  8 10  1  0  0  0  0
 10 11  1  0  0  0  0
 10 36  1  0  0  0  0
 11 12  1  0  0  0  0
 11 27  2  0  0  0  0
 12 13  2  0  0  0  0
 12 37  1  0  0  0  0
 13 14  1  0  0  0  0
 13 38  1  0  0  0  0
 14 15  1  0  0  0  0
 14 26  2  0  0  0  0
 15 16  1  0  0  0  0
 15 25  2  0  0  0  0
 16 17  2  0  0  0  0
 16 39  1  0  0  0  0
 17 18  1  0  0  0  0
 17 19  1  0  0  0  0
 18 40  1  0  0  0  0
 19 20  2  0  0  0  0
 20 21  1  0  0  0  0
 20 25  1  0  0  0  0
 21 22  1  0  0  0  0
 21 41  1  0  0  0  0
 22 23  2  0  0  0  0
 23 24  1  0  0  0  0
 23 25  1  0  0  0  0
 24 42  1  0  0  0  0
 24 43  1  0  0  0  0
 24 44  1  0  0  0  0
 26 27  1  0  0  0  0
 26 45  1  0  0  0  0
 27 46  1  0  0  0  0
 28 47  1  0  0  0  0
M  END
$$$$
