CHEMBL231800
 OpenBabel04072215363D

 63 66  0  0  0  0  0  0  0  0999 V2000
    2.9674    0.9663   -0.3284 C   0  0  0  0  0  0  0  0  0  0  0  0
    2.5903   -0.2751    0.5030 C   0  0  0  0  0  0  0  0  0  0  0  0
    3.2232   -0.1171    1.9013 C   0  0  0  0  0  0  0  0  0  0  0  0
    1.1293   -0.2878    0.6755 N   0  0  0  0  0  0  0  0  0  0  0  0
    3.0147   -1.5510   -0.2281 C   0  0  0  0  0  0  0  0  0  0  0  0
    3.9039   -2.4778    0.3269 C   0  0  0  0  0  0  0  0  0  0  0  0
    4.2816   -3.6294   -0.3702 C   0  0  0  0  0  0  0  0  0  0  0  0
    3.8311   -3.8834   -1.6734 C   0  0  0  0  0  0  0  0  0  0  0  0
    4.3025   -5.0391   -2.4686 C   0  0  0  0  0  0  0  0  0  0  0  0
    3.3564   -5.5618   -3.2995 N   0  0  0  0  0  0  0  0  0  0  0  0
    3.6854   -6.6112   -4.0565 C   0  0  0  0  0  0  0  0  0  0  0  0
    2.7191   -7.1213   -4.9245 N   0  0  0  0  0  0  0  0  0  0  0  0
    2.8506   -8.2110   -5.7940 C   0  0  0  0  0  0  0  0  0  0  0  0
    3.6900   -9.2816   -5.4753 C   0  0  0  0  0  0  0  0  0  0  0  0
    4.0169  -10.2553   -6.4074 C   0  0  0  0  0  0  0  0  0  0  0  0
    3.4640  -10.2278   -7.6884 C   0  0  0  0  0  0  0  0  0  0  0  0
    3.8518  -11.2510   -8.7373 C   0  0  0  0  0  0  0  0  0  0  0  0
    4.2379  -12.6125   -8.1277 C   0  0  0  0  0  0  0  0  0  0  0  0
    4.5686  -13.6945   -9.0696 N   0  0  0  0  0  0  0  0  0  0  0  0
    3.4654  -14.0391   -9.9887 C   0  0  0  0  0  0  0  0  0  0  0  0
    2.2657  -14.7029   -9.2939 C   0  0  0  0  0  0  0  0  0  0  0  0
    2.6606  -15.8785   -8.5738 O   0  0  0  0  0  0  0  0  0  0  0  0
    3.6942  -15.5840   -7.6257 C   0  0  0  0  0  0  0  0  0  0  0  0
    4.9101  -14.9246   -8.3066 C   0  0  0  0  0  0  0  0  0  0  0  0
    2.5714   -9.1925   -8.0026 C   0  0  0  0  0  0  0  0  0  0  0  0
    2.2693   -8.1933   -7.0644 C   0  0  0  0  0  0  0  0  0  0  0  0
    4.9124   -7.1559   -4.0393 N   0  0  0  0  0  0  0  0  0  0  0  0
    5.8386   -6.6216   -3.2366 C   0  0  0  0  0  0  0  0  0  0  0  0
    5.5926   -5.5461   -2.4260 C   0  0  0  0  0  0  0  0  0  0  0  0
    6.6677   -5.0299   -1.6531 C   0  0  0  0  0  0  0  0  0  0  0  0
    7.5613   -4.6475   -1.0181 N   0  0  0  0  0  0  0  0  0  0  0  0
    2.8976   -2.9816   -2.2081 C   0  0  0  0  0  0  0  0  0  0  0  0
    2.4935   -1.8445   -1.4995 C   0  0  0  0  0  0  0  0  0  0  0  0
    2.7040    1.8928    0.1959 H   0  0  0  0  0  0  0  0  0  0  0  0
    2.4579    0.9904   -1.2988 H   0  0  0  0  0  0  0  0  0  0  0  0
    4.0457    0.9931   -0.5271 H   0  0  0  0  0  0  0  0  0  0  0  0
    2.8973    0.8093    2.3886 H   0  0  0  0  0  0  0  0  0  0  0  0
    4.3179   -0.0776    1.8402 H   0  0  0  0  0  0  0  0  0  0  0  0
    2.9532   -0.9463    2.5666 H   0  0  0  0  0  0  0  0  0  0  0  0
    0.8413    0.5119    1.2352 H   0  0  0  0  0  0  0  0  0  0  0  0
    0.8715   -1.1188    1.2072 H   0  0  0  0  0  0  0  0  0  0  0  0
    4.3338   -2.3356    1.3146 H   0  0  0  0  0  0  0  0  0  0  0  0
    4.9444   -4.3190    0.1473 H   0  0  0  0  0  0  0  0  0  0  0  0
    1.9413   -6.4926   -5.0410 H   0  0  0  0  0  0  0  0  0  0  0  0
    4.1420   -9.3570   -4.4897 H   0  0  0  0  0  0  0  0  0  0  0  0
    4.7315  -11.0100   -6.0961 H   0  0  0  0  0  0  0  0  0  0  0  0
    4.6876  -10.8524   -9.3245 H   0  0  0  0  0  0  0  0  0  0  0  0
    2.9969  -11.3753   -9.4099 H   0  0  0  0  0  0  0  0  0  0  0  0
    3.4402  -12.9095   -7.4372 H   0  0  0  0  0  0  0  0  0  0  0  0
    5.1389  -12.4642   -7.5197 H   0  0  0  0  0  0  0  0  0  0  0  0
    3.8699  -14.7422  -10.7287 H   0  0  0  0  0  0  0  0  0  0  0  0
    3.1424  -13.1674  -10.5658 H   0  0  0  0  0  0  0  0  0  0  0  0
    1.5356  -15.0124  -10.0482 H   0  0  0  0  0  0  0  0  0  0  0  0
    1.7581  -14.0111   -8.6120 H   0  0  0  0  0  0  0  0  0  0  0  0
    3.9988  -16.5278   -7.1629 H   0  0  0  0  0  0  0  0  0  0  0  0
    3.2803  -14.9592   -6.8259 H   0  0  0  0  0  0  0  0  0  0  0  0
    5.3479  -15.6418   -9.0121 H   0  0  0  0  0  0  0  0  0  0  0  0
    5.6894  -14.7124   -7.5643 H   0  0  0  0  0  0  0  0  0  0  0  0
    2.1246   -9.1374   -8.9930 H   0  0  0  0  0  0  0  0  0  0  0  0
    1.6130   -7.3785   -7.3580 H   0  0  0  0  0  0  0  0  0  0  0  0
    6.8110   -7.1051   -3.2823 H   0  0  0  0  0  0  0  0  0  0  0  0
    2.4740   -3.1533   -3.1967 H   0  0  0  0  0  0  0  0  0  0  0  0
    1.7588   -1.1808   -1.9534 H   0  0  0  0  0  0  0  0  0  0  0  0
  1  2  1  0  0  0  0
  1 34  1  0  0  0  0
  1 35  1  0  0  0  0
  1 36  1  0  0  0  0
  2  3  1  0  0  0  0
  2  4  1  0  0  0  0
  2  5  1  0  0  0  0
  3 37  1  0  0  0  0
  3 38  1  0  0  0  0
  3 39  1  0  0  0  0
  4 40  1  0  0  0  0
  4 41  1  0  0  0  0
  5  6  1  0  0  0  0
  5 33  2  0  0  0  0
  6  7  2  0  0  0  0
  6 42  1  0  0  0  0
  7  8  1  0  0  0  0
  7 43  1  0  0  0  0
  8  9  1  0  0  0  0
  8 32  2  0  0  0  0
  9 10  1  0  0  0  0
  9 29  2  0  0  0  0
 10 11  2  0  0  0  0
 11 12  1  0  0  0  0
 11 27  1  0  0  0  0
 12 13  1  0  0  0  0
 12 44  1  0  0  0  0
 13 14  1  0  0  0  0
 13 26  2  0  0  0  0
 14 15  2  0  0  0  0
 14 45  1  0  0  0  0
 15 16  1  0  0  0  0
 15 46  1  0  0  0  0
 16 17  1  0  0  0  0
 16 25  2  0  0  0  0
 17 18  1  0  0  0  0
 17 47  1  0  0  0  0
 17 48  1  0  0  0  0
 18 19  1  0  0  0  0
 18 49  1  0  0  0  0
 18 50  1  0  0  0  0
 19 20  1  0  0  0  0
 19 24  1  0  0  0  0
 20 21  1  0  0  0  0
 20 51  1  0  0  0  0
 20 52  1  0  0  0  0
 21 22  1  0  0  0  0
 21 53  1  0  0  0  0
 21 54  1  0  0  0  0
 22 23  1  0  0  0  0
 23 24  1  0  0  0  0
 23 55  1  0  0  0  0
 23 56  1  0  0  0  0
 24 57  1  0  0  0  0
 24 58  1  0  0  0  0
 25 26  1  0  0  0  0
 25 59  1  0  0  0  0
 26 60  1  0  0  0  0
 27 28  2  0  0  0  0
 28 29  1  0  0  0  0
 28 61  1  0  0  0  0
 29 30  1  0  0  0  0
 30 31  3  0  0  0  0
 32 33  1  0  0  0  0
 32 62  1  0  0  0  0
 33 63  1  0  0  0  0
M  END
$$$$
