CHEMBL2435999
 OpenBabel04072215363D

 85 90  0  0  0  0  0  0  0  0999 V2000
    2.7264    0.6761    0.9750 C   0  0  0  0  0  0  0  0  0  0  0  0
    2.4942    0.1197   -0.3122 O   0  0  0  0  0  0  0  0  0  0  0  0
    3.1839   -0.9994   -0.6905 C   0  0  0  0  0  0  0  0  0  0  0  0
    4.3349   -1.4555   -0.0346 C   0  0  0  0  0  0  0  0  0  0  0  0
    4.9514   -2.6833   -0.3841 C   0  0  0  0  0  0  0  0  0  0  0  0
    6.0801   -3.2220    0.2799 C   0  0  0  0  0  0  0  0  0  0  0  0
    6.5870   -2.5452    1.3719 O   0  0  0  0  0  0  0  0  0  0  0  0
    7.0935   -3.2581    2.4394 C   0  0  0  0  0  0  0  0  0  0  0  0
    8.1781   -2.6758    3.0899 C   0  0  0  0  0  0  0  0  0  0  0  0
    8.7119   -3.2672    4.2409 C   0  0  0  0  0  0  0  0  0  0  0  0
    8.1653   -4.4395    4.7752 C   0  0  0  0  0  0  0  0  0  0  0  0
    8.5933   -4.9963    6.0019 N   0  0  0  0  0  0  0  0  0  0  0  0
    9.3233   -4.3304    6.9779 C   0  0  0  0  0  0  0  0  0  0  0  0
    9.7635   -3.1871    6.8997 O   0  0  0  0  0  0  0  0  0  0  0  0
    9.5288   -5.0932    8.2519 C   0  0  0  0  0  0  0  0  0  0  0  0
   10.2031   -4.4739    9.3060 C   0  0  0  0  0  0  0  0  0  0  0  0
   10.4110   -5.1642   10.5061 C   0  0  0  0  0  0  0  0  0  0  0  0
   11.1266   -4.5414   11.6493 C   0  0  0  0  0  0  0  0  0  0  0  0
   10.7951   -4.8488   12.9814 C   0  0  0  0  0  0  0  0  0  0  0  0
   11.4647   -4.2616   14.0640 C   0  0  0  0  0  0  0  0  0  0  0  0
   12.4854   -3.3350   13.8492 C   0  0  0  0  0  0  0  0  0  0  0  0
   13.1945   -2.6818   14.9980 C   0  0  0  0  0  0  0  0  0  0  0  0
   12.8295   -3.0122   12.5352 C   0  0  0  0  0  0  0  0  0  0  0  0
   12.1642   -3.6102   11.4557 C   0  0  0  0  0  0  0  0  0  0  0  0
    9.9028   -6.4698   10.5669 C   0  0  0  0  0  0  0  0  0  0  0  0
    9.2297   -7.0067    9.4723 C   0  0  0  0  0  0  0  0  0  0  0  0
    9.0252   -6.3533    8.3084 N   0  0  0  0  0  0  0  0  0  0  0  0
    7.1172   -5.0566    4.0892 C   0  0  0  0  0  0  0  0  0  0  0  0
    6.5680   -4.4469    2.9542 C   0  0  0  0  0  0  0  0  0  0  0  0
    5.4994   -5.0294    2.3898 F   0  0  0  0  0  0  0  0  0  0  0  0
    6.6843   -4.3811   -0.1946 C   0  0  0  0  0  0  0  0  0  0  0  0
    6.0730   -5.0373   -1.2377 C   0  0  0  0  0  0  0  0  0  0  0  0
    4.9584   -4.5958   -1.8552 N   0  0  0  0  0  0  0  0  0  0  0  0
    4.4201   -3.4354   -1.4490 C   0  0  0  0  0  0  0  0  0  0  0  0
    3.3087   -2.9463   -2.1235 C   0  0  0  0  0  0  0  0  0  0  0  0
    2.7081   -1.7257   -1.7940 C   0  0  0  0  0  0  0  0  0  0  0  0
    1.6698   -1.3786   -2.6335 O   0  0  0  0  0  0  0  0  0  0  0  0
    1.4699    0.0278   -2.7955 C   0  0  0  0  0  0  0  0  0  0  0  0
    0.9103    0.3577   -4.1727 C   0  0  0  0  0  0  0  0  0  0  0  0
    0.7663    1.8803   -4.2758 C   0  0  0  0  0  0  0  0  0  0  0  0
    0.3128    2.3795   -5.5757 N   0  0  0  0  0  0  0  0  0  0  0  0
   -1.0335    1.9077   -5.9370 C   0  0  0  0  0  0  0  0  0  0  0  0
   -1.4534    2.4504   -7.3235 C   0  0  0  0  0  0  0  0  0  0  0  0
   -1.4434    3.9220   -7.4433 N   0  0  0  0  0  0  0  0  0  0  0  0
   -2.5753    4.5234   -6.7444 C   0  0  0  0  0  0  0  0  0  0  0  0
   -0.1523    4.4406   -6.9452 C   0  0  0  0  0  0  0  0  0  0  0  0
    0.3175    3.8603   -5.5883 C   0  0  0  0  0  0  0  0  0  0  0  0
    3.3942    1.5372    0.8787 H   0  0  0  0  0  0  0  0  0  0  0  0
    3.1162   -0.0335    1.7094 H   0  0  0  0  0  0  0  0  0  0  0  0
    1.7653    1.0302    1.3605 H   0  0  0  0  0  0  0  0  0  0  0  0
    4.7940   -0.8583    0.7479 H   0  0  0  0  0  0  0  0  0  0  0  0
    8.6093   -1.7489    2.7195 H   0  0  0  0  0  0  0  0  0  0  0  0
    9.5646   -2.7801    4.7049 H   0  0  0  0  0  0  0  0  0  0  0  0
    8.2184   -5.8976    6.2905 H   0  0  0  0  0  0  0  0  0  0  0  0
   10.5439   -3.4492    9.1827 H   0  0  0  0  0  0  0  0  0  0  0  0
    9.9902   -5.5448   13.2056 H   0  0  0  0  0  0  0  0  0  0  0  0
   11.1731   -4.5337   15.0760 H   0  0  0  0  0  0  0  0  0  0  0  0
   12.8368   -3.0639   15.9599 H   0  0  0  0  0  0  0  0  0  0  0  0
   13.0230   -1.6005   14.9809 H   0  0  0  0  0  0  0  0  0  0  0  0
   14.2701   -2.8768   14.9411 H   0  0  0  0  0  0  0  0  0  0  0  0
   13.6202   -2.2906   12.3386 H   0  0  0  0  0  0  0  0  0  0  0  0
   12.4833   -3.3333   10.4528 H   0  0  0  0  0  0  0  0  0  0  0  0
   10.0312   -7.0834   11.4537 H   0  0  0  0  0  0  0  0  0  0  0  0
    8.8282   -8.0164    9.5180 H   0  0  0  0  0  0  0  0  0  0  0  0
    6.6718   -5.9803    4.4450 H   0  0  0  0  0  0  0  0  0  0  0  0
    7.5842   -4.7863    0.2510 H   0  0  0  0  0  0  0  0  0  0  0  0
    6.4706   -5.9737   -1.6162 H   0  0  0  0  0  0  0  0  0  0  0  0
    2.9061   -3.5296   -2.9483 H   0  0  0  0  0  0  0  0  0  0  0  0
    2.4160    0.5719   -2.6916 H   0  0  0  0  0  0  0  0  0  0  0  0
    0.7524    0.3580   -2.0364 H   0  0  0  0  0  0  0  0  0  0  0  0
   -0.0496   -0.1600   -4.3099 H   0  0  0  0  0  0  0  0  0  0  0  0
    1.5794   -0.0293   -4.9556 H   0  0  0  0  0  0  0  0  0  0  0  0
    1.7587    2.3102   -4.0822 H   0  0  0  0  0  0  0  0  0  0  0  0
    0.1060    2.2369   -3.4747 H   0  0  0  0  0  0  0  0  0  0  0  0
   -1.7677    2.2023   -5.1772 H   0  0  0  0  0  0  0  0  0  0  0  0
   -1.0535    0.8142   -6.0003 H   0  0  0  0  0  0  0  0  0  0  0  0
   -2.4410    2.0546   -7.5894 H   0  0  0  0  0  0  0  0  0  0  0  0
   -0.7629    2.0458   -8.0760 H   0  0  0  0  0  0  0  0  0  0  0  0
   -3.5182    4.1132   -7.1237 H   0  0  0  0  0  0  0  0  0  0  0  0
   -2.6082    5.6013   -6.9372 H   0  0  0  0  0  0  0  0  0  0  0  0
   -2.5497    4.3709   -5.6610 H   0  0  0  0  0  0  0  0  0  0  0  0
   -0.1820    5.5360   -6.8846 H   0  0  0  0  0  0  0  0  0  0  0  0
    0.6131    4.2090   -7.6975 H   0  0  0  0  0  0  0  0  0  0  0  0
   -0.3227    4.2518   -4.7851 H   0  0  0  0  0  0  0  0  0  0  0  0
    1.3323    4.2277   -5.3953 H   0  0  0  0  0  0  0  0  0  0  0  0
  1  2  1  0  0  0  0
  1 48  1  0  0  0  0
  1 49  1  0  0  0  0
  1 50  1  0  0  0  0
  2  3  1  0  0  0  0
  3  4  1  0  0  0  0
  3 36  2  0  0  0  0
  4  5  2  0  0  0  0
  4 51  1  0  0  0  0
  5  6  1  0  0  0  0
  5 34  1  0  0  0  0
  6  7  1  0  0  0  0
  6 31  2  0  0  0  0
  7  8  1  0  0  0  0
  8  9  1  0  0  0  0
  8 29  2  0  0  0  0
  9 10  2  0  0  0  0
  9 52  1  0  0  0  0
 10 11  1  0  0  0  0
 10 53  1  0  0  0  0
 11 12  1  0  0  0  0
 11 28  2  0  0  0  0
 12 13  1  0  0  0  0
 12 54  1  0  0  0  0
 13 14  2  0  0  0  0
 13 15  1  0  0  0  0
 15 16  1  0  0  0  0
 15 27  2  0  0  0  0
 16 17  2  0  0  0  0
 16 55  1  0  0  0  0
 17 18  1  0  0  0  0
 17 25  1  0  0  0  0
 18 19  1  0  0  0  0
 18 24  2  0  0  0  0
 19 20  2  0  0  0  0
 19 56  1  0  0  0  0
 20 21  1  0  0  0  0
 20 57  1  0  0  0  0
 21 22  1  0  0  0  0
 21 23  2  0  0  0  0
 22 58  1  0  0  0  0
 22 59  1  0  0  0  0
 22 60  1  0  0  0  0
 23 24  1  0  0  0  0
 23 61  1  0  0  0  0
 24 62  1  0  0  0  0
 25 26  2  0  0  0  0
 25 63  1  0  0  0  0
 26 27  1  0  0  0  0
 26 64  1  0  0  0  0
 28 29  1  0  0  0  0
 28 65  1  0  0  0  0
 29 30  1  0  0  0  0
 31 32  1  0  0  0  0
 31 66  1  0  0  0  0
 32 33  2  0  0  0  0
 32 67  1  0  0  0  0
 33 34  1  0  0  0  0
 34 35  2  0  0  0  0
 35 36  1  0  0  0  0
 35 68  1  0  0  0  0
 36 37  1  0  0  0  0
 37 38  1  0  0  0  0
 38 39  1  0  0  0  0
 38 69  1  0  0  0  0
 38 70  1  0  0  0  0
 39 40  1  0  0  0  0
 39 71  1  0  0  0  0
 39 72  1  0  0  0  0
 40 41  1  0  0  0  0
 40 73  1  0  0  0  0
 40 74  1  0  0  0  0
 41 42  1  0  0  0  0
 41 47  1  0  0  0  0
 42 43  1  0  0  0  0
 42 75  1  0  0  0  0
 42 76  1  0  0  0  0
 43 44  1  0  0  0  0
 43 77  1  0  0  0  0
 43 78  1  0  0  0  0
 44 45  1  0  0  0  0
 44 46  1  0  0  0  0
 45 79  1  0  0  0  0
 45 80  1  0  0  0  0
 45 81  1  0  0  0  0
 46 47  1  0  0  0  0
 46 82  1  0  0  0  0
 46 83  1  0  0  0  0
 47 84  1  0  0  0  0
 47 85  1  0  0  0  0
M  END
$$$$
