CHEMBL221484
 OpenBabel04072215363D

 68 71  0  0  0  0  0  0  0  0999 V2000
    2.4656    0.2544    0.2773 C   0  0  0  0  0  0  0  0  0  0  0  0
    0.9755    0.3021    0.0675 C   0  0  0  0  0  0  0  0  0  0  0  0
    0.3479   -0.8924   -0.3439 C   0  0  0  0  0  0  0  0  0  0  0  0
   -1.0396   -0.9908   -0.4173 C   0  0  0  0  0  0  0  0  0  0  0  0
   -1.8299    0.0900   -0.0305 C   0  0  0  0  0  0  0  0  0  0  0  0
   -3.3016   -0.0422    0.0025 C   0  0  0  0  0  0  0  0  0  0  0  0
   -3.7532   -1.1561    0.2216 O   0  0  0  0  0  0  0  0  0  0  0  0
   -4.0415    1.1080   -0.2767 N   0  0  0  0  0  0  0  0  0  0  0  0
   -5.4568    1.1713   -0.3113 C   0  0  0  0  0  0  0  0  0  0  0  0
   -6.2577    0.2061    0.2989 C   0  0  0  0  0  0  0  0  0  0  0  0
   -7.6559    0.2331    0.1944 C   0  0  0  0  0  0  0  0  0  0  0  0
   -8.4979   -0.8312    0.8520 C   0  0  0  0  0  0  0  0  0  0  0  0
   -8.2920   -0.9321    2.3645 C   0  0  0  0  0  0  0  0  0  0  0  0
   -8.6608    0.3501    3.1237 C   0  0  0  0  0  0  0  0  0  0  0  0
   -8.4709    0.2081    4.5808 N   0  0  0  0  0  0  0  0  0  0  0  0
   -7.0757   -0.0761    4.9314 C   0  0  0  0  0  0  0  0  0  0  0  0
   -8.9122    1.4238    5.2677 C   0  0  0  0  0  0  0  0  0  0  0  0
   -8.2532    1.2505   -0.5502 C   0  0  0  0  0  0  0  0  0  0  0  0
   -7.4793    2.2524   -1.1498 C   0  0  0  0  0  0  0  0  0  0  0  0
   -8.1515    3.3225   -1.9723 C   0  0  0  0  0  0  0  0  0  0  0  0
   -9.5051    3.1767   -2.0548 F   0  0  0  0  0  0  0  0  0  0  0  0
   -7.9446    4.5732   -1.4743 F   0  0  0  0  0  0  0  0  0  0  0  0
   -7.7050    3.3534   -3.2589 F   0  0  0  0  0  0  0  0  0  0  0  0
   -6.0764    2.2226   -0.9998 C   0  0  0  0  0  0  0  0  0  0  0  0
   -1.2068    1.2732    0.3546 C   0  0  0  0  0  0  0  0  0  0  0  0
    0.1849    1.4465    0.2990 C   0  0  0  0  0  0  0  0  0  0  0  0
    0.7167    2.7365    0.5263 N   0  0  0  0  0  0  0  0  0  0  0  0
    0.0713    3.9761    0.2207 C   0  0  0  0  0  0  0  0  0  0  0  0
   -1.1409    3.9269   -0.4016 N   0  0  0  0  0  0  0  0  0  0  0  0
   -1.8871    5.0359   -0.5040 C   0  0  0  0  0  0  0  0  0  0  0  0
   -1.4697    6.2594   -0.0504 C   0  0  0  0  0  0  0  0  0  0  0  0
   -0.1983    6.3445    0.5116 C   0  0  0  0  0  0  0  0  0  0  0  0
    0.6128    5.2008    0.6754 C   0  0  0  0  0  0  0  0  0  0  0  0
    1.9237    5.2845    1.3579 C   0  0  0  0  0  0  0  0  0  0  0  0
    2.1912    6.2216    2.3440 C   0  0  0  0  0  0  0  0  0  0  0  0
    3.3783    6.0796    3.0237 C   0  0  0  0  0  0  0  0  0  0  0  0
    4.2803    5.1247    2.7506 N   0  0  0  0  0  0  0  0  0  0  0  0
    3.9624    4.3015    1.7451 C   0  0  0  0  0  0  0  0  0  0  0  0
    2.8334    4.3375    1.0223 N   0  0  0  0  0  0  0  0  0  0  0  0
    2.8425   -0.7687    0.1546 H   0  0  0  0  0  0  0  0  0  0  0  0
    2.7163    0.5478    1.3023 H   0  0  0  0  0  0  0  0  0  0  0  0
    2.9961    0.8881   -0.4376 H   0  0  0  0  0  0  0  0  0  0  0  0
    0.9411   -1.7651   -0.6044 H   0  0  0  0  0  0  0  0  0  0  0  0
   -1.5058   -1.9183   -0.7377 H   0  0  0  0  0  0  0  0  0  0  0  0
   -3.5345    1.9089   -0.6342 H   0  0  0  0  0  0  0  0  0  0  0  0
   -5.8055   -0.5897    0.8856 H   0  0  0  0  0  0  0  0  0  0  0  0
   -8.2408   -1.7956    0.3951 H   0  0  0  0  0  0  0  0  0  0  0  0
   -9.5610   -0.6647    0.6378 H   0  0  0  0  0  0  0  0  0  0  0  0
   -7.2477   -1.1995    2.5492 H   0  0  0  0  0  0  0  0  0  0  0  0
   -8.9015   -1.7599    2.7470 H   0  0  0  0  0  0  0  0  0  0  0  0
   -9.7201    0.5613    2.9234 H   0  0  0  0  0  0  0  0  0  0  0  0
   -8.0867    1.2065    2.7471 H   0  0  0  0  0  0  0  0  0  0  0  0
   -6.7709   -1.0656    4.5770 H   0  0  0  0  0  0  0  0  0  0  0  0
   -6.9500   -0.1106    6.0189 H   0  0  0  0  0  0  0  0  0  0  0  0
   -6.3838    0.6705    4.5253 H   0  0  0  0  0  0  0  0  0  0  0  0
   -9.9727    1.6168    5.0739 H   0  0  0  0  0  0  0  0  0  0  0  0
   -8.3383    2.3049    4.9583 H   0  0  0  0  0  0  0  0  0  0  0  0
   -8.8078    1.3092    6.3525 H   0  0  0  0  0  0  0  0  0  0  0  0
   -9.3376    1.2598   -0.6667 H   0  0  0  0  0  0  0  0  0  0  0  0
   -5.4779    2.9993   -1.4717 H   0  0  0  0  0  0  0  0  0  0  0  0
   -1.8299    2.0864    0.7143 H   0  0  0  0  0  0  0  0  0  0  0  0
    1.7191    2.8324    0.3702 H   0  0  0  0  0  0  0  0  0  0  0  0
   -2.8676    4.8927   -0.9469 H   0  0  0  0  0  0  0  0  0  0  0  0
   -2.1203    7.1226   -0.1186 H   0  0  0  0  0  0  0  0  0  0  0  0
    0.1311    7.3252    0.8473 H   0  0  0  0  0  0  0  0  0  0  0  0
    1.4958    7.0004    2.6247 H   0  0  0  0  0  0  0  0  0  0  0  0
    3.6290    6.7361    3.8519 H   0  0  0  0  0  0  0  0  0  0  0  0
    4.6727    3.5183    1.5064 H   0  0  0  0  0  0  0  0  0  0  0  0
  1  2  1  0  0  0  0
  1 40  1  0  0  0  0
  1 41  1  0  0  0  0
  1 42  1  0  0  0  0
  2  3  1  0  0  0  0
  2 26  2  0  0  0  0
  3  4  2  0  0  0  0
  3 43  1  0  0  0  0
  4  5  1  0  0  0  0
  4 44  1  0  0  0  0
  5  6  1  0  0  0  0
  5 25  2  0  0  0  0
  6  7  2  0  0  0  0
  6  8  1  0  0  0  0
  8  9  1  0  0  0  0
  8 45  1  0  0  0  0
  9 10  1  0  0  0  0
  9 24  2  0  0  0  0
 10 11  2  0  0  0  0
 10 46  1  0  0  0  0
 11 12  1  0  0  0  0
 11 18  1  0  0  0  0
 12 13  1  0  0  0  0
 12 47  1  0  0  0  0
 12 48  1  0  0  0  0
 13 14  1  0  0  0  0
 13 49  1  0  0  0  0
 13 50  1  0  0  0  0
 14 15  1  0  0  0  0
 14 51  1  0  0  0  0
 14 52  1  0  0  0  0
 15 16  1  0  0  0  0
 15 17  1  0  0  0  0
 16 53  1  0  0  0  0
 16 54  1  0  0  0  0
 16 55  1  0  0  0  0
 17 56  1  0  0  0  0
 17 57  1  0  0  0  0
 17 58  1  0  0  0  0
 18 19  2  0  0  0  0
 18 59  1  0  0  0  0
 19 20  1  0  0  0  0
 19 24  1  0  0  0  0
 20 21  1  0  0  0  0
 20 22  1  0  0  0  0
 20 23  1  0  0  0  0
 24 60  1  0  0  0  0
 25 26  1  0  0  0  0
 25 61  1  0  0  0  0
 26 27  1  0  0  0  0
 27 28  1  0  0  0  0
 27 62  1  0  0  0  0
 28 29  1  0  0  0  0
 28 33  2  0  0  0  0
 29 30  2  0  0  0  0
 30 31  1  0  0  0  0
 30 63  1  0  0  0  0
 31 32  2  0  0  0  0
 31 64  1  0  0  0  0
 32 33  1  0  0  0  0
 32 65  1  0  0  0  0
 33 34  1  0  0  0  0
 34 35  1  0  0  0  0
 34 39  2  0  0  0  0
 35 36  2  0  0  0  0
 35 66  1  0  0  0  0
 36 37  1  0  0  0  0
 36 67  1  0  0  0  0
 37 38  2  0  0  0  0
 38 39  1  0  0  0  0
 38 68  1  0  0  0  0
M  END
$$$$
