CHEMBL4582099
 OpenBabel04072215383D

 37 40  0  0  0  0  0  0  0  0999 V2000
    8.9434    6.4236    4.5288 C   0  0  0  0  0  0  0  0  0  0  0  0
    8.0446    5.8495    3.5861 O   0  0  0  0  0  0  0  0  0  0  0  0
    7.4155    4.6964    3.9665 C   0  0  0  0  0  0  0  0  0  0  0  0
    7.5912    4.0327    5.1783 C   0  0  0  0  0  0  0  0  0  0  0  0
    6.8589    2.8738    5.4569 C   0  0  0  0  0  0  0  0  0  0  0  0
    5.9351    2.3626    4.5369 C   0  0  0  0  0  0  0  0  0  0  0  0
    5.2089    1.1863    4.7774 N   0  0  0  0  0  0  0  0  0  0  0  0
    4.7513    0.7385    6.0186 C   0  0  0  0  0  0  0  0  0  0  0  0
    4.6863   -0.5819    6.1978 N   0  0  0  0  0  0  0  0  0  0  0  0
    4.2014   -1.0017    7.3808 C   0  0  0  0  0  0  0  0  0  0  0  0
    3.7646   -0.1666    8.3949 C   0  0  0  0  0  0  0  0  0  0  0  0
    3.8833    1.1781    8.1339 C   0  0  0  0  0  0  0  0  0  0  0  0
    4.3813    1.6232    6.9557 N   0  0  0  0  0  0  0  0  0  0  0  0
    3.4848    2.2256    9.0849 C   0  0  0  0  0  0  0  0  0  0  0  0
    3.6726    3.5924    8.7876 C   0  0  0  0  0  0  0  0  0  0  0  0
    3.2768    4.5876    9.6762 C   0  0  0  0  0  0  0  0  0  0  0  0
    2.7005    4.1948   10.8632 C   0  0  0  0  0  0  0  0  0  0  0  0
    2.5035    2.9048   11.1968 N   0  0  0  0  0  0  0  0  0  0  0  0
    2.8872    1.9432   10.3131 C   0  0  0  0  0  0  0  0  0  0  0  0
    2.4967    0.3109   10.8874 S   0  0  0  0  0  0  0  0  0  0  0  0
    3.2454   -0.7624    9.6543 C   0  0  0  0  0  0  0  0  0  0  0  0
    5.8049    3.0054    3.3022 C   0  0  0  0  0  0  0  0  0  0  0  0
    6.5247    4.1726    3.0274 C   0  0  0  0  0  0  0  0  0  0  0  0
    9.3138    7.3633    4.1092 H   0  0  0  0  0  0  0  0  0  0  0  0
    9.8043    5.7666    4.6918 H   0  0  0  0  0  0  0  0  0  0  0  0
    8.4396    6.6578    5.4720 H   0  0  0  0  0  0  0  0  0  0  0  0
    8.2858    4.3851    5.9331 H   0  0  0  0  0  0  0  0  0  0  0  0
    7.0185    2.3730    6.4090 H   0  0  0  0  0  0  0  0  0  0  0  0
    5.5661    0.3823    4.2775 H   0  0  0  0  0  0  0  0  0  0  0  0
    4.1697   -2.0839    7.4914 H   0  0  0  0  0  0  0  0  0  0  0  0
    4.1255    3.8914    7.8423 H   0  0  0  0  0  0  0  0  0  0  0  0
    3.4109    5.6371    9.4402 H   0  0  0  0  0  0  0  0  0  0  0  0
    2.3659    4.9218   11.5974 H   0  0  0  0  0  0  0  0  0  0  0  0
    2.4740   -1.4969    9.3940 H   0  0  0  0  0  0  0  0  0  0  0  0
    4.0572   -1.3097   10.1468 H   0  0  0  0  0  0  0  0  0  0  0  0
    5.1099    2.6211    2.5595 H   0  0  0  0  0  0  0  0  0  0  0  0
    6.3817    4.6809    2.0768 H   0  0  0  0  0  0  0  0  0  0  0  0
  1  2  1  0  0  0  0
  1 24  1  0  0  0  0
  1 25  1  0  0  0  0
  1 26  1  0  0  0  0
  2  3  1  0  0  0  0
  3  4  1  0  0  0  0
  3 23  2  0  0  0  0
  4  5  2  0  0  0  0
  4 27  1  0  0  0  0
  5  6  1  0  0  0  0
  5 28  1  0  0  0  0
  6  7  1  0  0  0  0
  6 22  2  0  0  0  0
  7  8  1  0  0  0  0
  7 29  1  0  0  0  0
  8  9  1  0  0  0  0
  8 13  2  0  0  0  0
  9 10  2  0  0  0  0
 10 11  1  0  0  0  0
 10 30  1  0  0  0  0
 11 12  2  0  0  0  0
 11 21  1  0  0  0  0
 12 13  1  0  0  0  0
 12 14  1  0  0  0  0
 14 15  1  0  0  0  0
 14 19  2  0  0  0  0
 15 16  2  0  0  0  0
 15 31  1  0  0  0  0
 16 17  1  0  0  0  0
 16 32  1  0  0  0  0
 17 18  2  0  0  0  0
 17 33  1  0  0  0  0
 18 19  1  0  0  0  0
 19 20  1  0  0  0  0
 20 21  1  0  0  0  0
 21 34  1  0  0  0  0
 21 35  1  0  0  0  0
 22 23  1  0  0  0  0
 22 36  1  0  0  0  0
 23 37  1  0  0  0  0
M  END
$$$$
