CHEMBL234065
 OpenBabel04072215363D

 44 46  0  0  0  0  0  0  0  0999 V2000
    1.9974    1.0311   -1.4100 C   0  0  0  0  0  0  0  0  0  0  0  0
    1.9851    0.6267   -0.0476 O   0  0  0  0  0  0  0  0  0  0  0  0
    2.8818    1.2278    0.7896 C   0  0  0  0  0  0  0  0  0  0  0  0
    3.8709    2.1368    0.4293 C   0  0  0  0  0  0  0  0  0  0  0  0
    4.7089    2.6918    1.4119 C   0  0  0  0  0  0  0  0  0  0  0  0
    4.5875    2.3558    2.7776 C   0  0  0  0  0  0  0  0  0  0  0  0
    5.4569    3.0030    3.7954 C   0  0  0  0  0  0  0  0  0  0  0  0
    5.7582    4.2923    3.5021 N   0  0  0  0  0  0  0  0  0  0  0  0
    6.5002    5.0178    4.3557 C   0  0  0  0  0  0  0  0  0  0  0  0
    6.7912    6.3476    4.0606 N   0  0  0  0  0  0  0  0  0  0  0  0
    5.9874    7.2455    3.3396 C   0  0  0  0  0  0  0  0  0  0  0  0
    4.5958    7.1054    3.2634 C   0  0  0  0  0  0  0  0  0  0  0  0
    3.8241    7.9637    2.4782 C   0  0  0  0  0  0  0  0  0  0  0  0
    4.4354    8.9772    1.7370 C   0  0  0  0  0  0  0  0  0  0  0  0
    3.6225    9.8480    0.8092 C   0  0  0  0  0  0  0  0  0  0  0  0
    3.0432   11.0914    1.4799 C   0  0  0  0  0  0  0  0  0  0  0  0
    4.0691   11.9677    1.9336 O   0  0  0  0  0  0  0  0  0  0  0  0
    5.8206    9.1575    1.8516 C   0  0  0  0  0  0  0  0  0  0  0  0
    6.5860    8.3073    2.6557 C   0  0  0  0  0  0  0  0  0  0  0  0
    6.9923    4.5235    5.4956 N   0  0  0  0  0  0  0  0  0  0  0  0
    6.6882    3.2390    5.7733 C   0  0  0  0  0  0  0  0  0  0  0  0
    5.9321    2.4212    4.9583 C   0  0  0  0  0  0  0  0  0  0  0  0
    5.7003    1.0753    5.3531 C   0  0  0  0  0  0  0  0  0  0  0  0
    5.5016   -0.0092    5.7146 N   0  0  0  0  0  0  0  0  0  0  0  0
    3.5770    1.4400    3.1089 C   0  0  0  0  0  0  0  0  0  0  0  0
    2.7517    0.8741    2.1293 C   0  0  0  0  0  0  0  0  0  0  0  0
    1.1448    0.5560   -1.9056 H   0  0  0  0  0  0  0  0  0  0  0  0
    2.9101    0.6877   -1.9067 H   0  0  0  0  0  0  0  0  0  0  0  0
    1.8741    2.1145   -1.5107 H   0  0  0  0  0  0  0  0  0  0  0  0
    4.0144    2.4495   -0.6001 H   0  0  0  0  0  0  0  0  0  0  0  0
    5.4599    3.4163    1.0973 H   0  0  0  0  0  0  0  0  0  0  0  0
    7.3267    6.7623    4.8106 H   0  0  0  0  0  0  0  0  0  0  0  0
    4.0920    6.3118    3.8094 H   0  0  0  0  0  0  0  0  0  0  0  0
    2.7488    7.8076    2.4306 H   0  0  0  0  0  0  0  0  0  0  0  0
    2.8037    9.2505    0.3882 H   0  0  0  0  0  0  0  0  0  0  0  0
    4.2543   10.1424   -0.0378 H   0  0  0  0  0  0  0  0  0  0  0  0
    2.3966   10.8385    2.3264 H   0  0  0  0  0  0  0  0  0  0  0  0
    2.4427   11.6466    0.7516 H   0  0  0  0  0  0  0  0  0  0  0  0
    4.5207   11.5115    2.6665 H   0  0  0  0  0  0  0  0  0  0  0  0
    6.3182    9.9476    1.2910 H   0  0  0  0  0  0  0  0  0  0  0  0
    7.6635    8.4449    2.6961 H   0  0  0  0  0  0  0  0  0  0  0  0
    7.0880    2.8775    6.7191 H   0  0  0  0  0  0  0  0  0  0  0  0
    3.3781    1.1567    4.1385 H   0  0  0  0  0  0  0  0  0  0  0  0
    1.9861    0.1590    2.4231 H   0  0  0  0  0  0  0  0  0  0  0  0
  1  2  1  0  0  0  0
  1 27  1  0  0  0  0
  1 28  1  0  0  0  0
  1 29  1  0  0  0  0
  2  3  1  0  0  0  0
  3  4  1  0  0  0  0
  3 26  2  0  0  0  0
  4  5  2  0  0  0  0
  4 30  1  0  0  0  0
  5  6  1  0  0  0  0
  5 31  1  0  0  0  0
  6  7  1  0  0  0  0
  6 25  2  0  0  0  0
  7  8  1  0  0  0  0
  7 22  2  0  0  0  0
  8  9  2  0  0  0  0
  9 10  1  0  0  0  0
  9 20  1  0  0  0  0
 10 11  1  0  0  0  0
 10 32  1  0  0  0  0
 11 12  1  0  0  0  0
 11 19  2  0  0  0  0
 12 13  2  0  0  0  0
 12 33  1  0  0  0  0
 13 14  1  0  0  0  0
 13 34  1  0  0  0  0
 14 15  1  0  0  0  0
 14 18  2  0  0  0  0
 15 16  1  0  0  0  0
 15 35  1  0  0  0  0
 15 36  1  0  0  0  0
 16 17  1  0  0  0  0
 16 37  1  0  0  0  0
 16 38  1  0  0  0  0
 17 39  1  0  0  0  0
 18 19  1  0  0  0  0
 18 40  1  0  0  0  0
 19 41  1  0  0  0  0
 20 21  2  0  0  0  0
 21 22  1  0  0  0  0
 21 42  1  0  0  0  0
 22 23  1  0  0  0  0
 23 24  3  0  0  0  0
 25 26  1  0  0  0  0
 25 43  1  0  0  0  0
 26 44  1  0  0  0  0
M  END
$$$$
