CHEMBL3893128
 OpenBabel04072215373D

 55 59  0  0  0  0  0  0  0  0999 V2000
    3.2635   -1.1602   -0.4572 C   0  0  0  0  0  0  0  0  0  0  0  0
    2.4339   -0.3590    0.3913 O   0  0  0  0  0  0  0  0  0  0  0  0
    3.1092    0.5585    1.1478 C   0  0  0  0  0  0  0  0  0  0  0  0
    4.2276    1.2449    0.6618 C   0  0  0  0  0  0  0  0  0  0  0  0
    4.9624    2.1197    1.4981 C   0  0  0  0  0  0  0  0  0  0  0  0
    6.1154    2.8152    1.1188 C   0  0  0  0  0  0  0  0  0  0  0  0
    6.6215    2.6690   -0.2008 N   0  0  0  0  0  0  0  0  0  0  0  0
    7.9489    2.9921   -0.5489 C   0  0  0  0  0  0  0  0  0  0  0  0
    9.0157    2.5229    0.2328 C   0  0  0  0  0  0  0  0  0  0  0  0
   10.3235    2.9263   -0.0250 C   0  0  0  0  0  0  0  0  0  0  0  0
   10.5828    3.7988   -1.0809 C   0  0  0  0  0  0  0  0  0  0  0  0
   12.2131    4.3241   -1.3023 Cl  0  0  0  0  0  0  0  0  0  0  0  0
    9.5325    4.2323   -1.8999 C   0  0  0  0  0  0  0  0  0  0  0  0
    9.7833    5.3041   -3.2320 Cl  0  0  0  0  0  0  0  0  0  0  0  0
    8.2202    3.8198   -1.6405 C   0  0  0  0  0  0  0  0  0  0  0  0
    6.7902    3.6038    1.9804 N   0  0  0  0  0  0  0  0  0  0  0  0
    6.3064    3.7074    3.2180 C   0  0  0  0  0  0  0  0  0  0  0  0
    5.2242    3.0858    3.6842 N   0  0  0  0  0  0  0  0  0  0  0  0
    4.5694    2.3039    2.8208 C   0  0  0  0  0  0  0  0  0  0  0  0
    3.4408    1.6484    3.2718 C   0  0  0  0  0  0  0  0  0  0  0  0
    2.6494    0.8456    2.4348 C   0  0  0  0  0  0  0  0  0  0  0  0
    1.4213    0.3446    2.8271 O   0  0  0  0  0  0  0  0  0  0  0  0
    0.7986    1.1131    3.8768 C   0  0  0  0  0  0  0  0  0  0  0  0
   -0.6487    1.3999    3.7247 C   0  0  0  0  0  0  0  0  0  0  0  0
   -1.5635    1.9292    4.7098 C   0  0  0  0  0  0  0  0  0  0  0  0
   -1.3917    2.1269    6.1705 C   0  0  0  0  0  0  0  0  0  0  0  0
   -0.2409    2.7149    6.7424 C   0  0  0  0  0  0  0  0  0  0  0  0
    0.9311    3.6270    5.8540 Cl  0  0  0  0  0  0  0  0  0  0  0  0
   -0.0206    2.7101    8.1315 C   0  0  0  0  0  0  0  0  0  0  0  0
   -0.9936    2.2398    8.9990 C   0  0  0  0  0  0  0  0  0  0  0  0
   -2.1898    1.7721    8.4746 C   0  0  0  0  0  0  0  0  0  0  0  0
   -2.3831    1.6897    7.0831 C   0  0  0  0  0  0  0  0  0  0  0  0
   -3.9027    0.9987    6.6070 Cl  0  0  0  0  0  0  0  0  0  0  0  0
   -2.7257    2.2380    4.1086 N   0  0  0  0  0  0  0  0  0  0  0  0
   -2.6159    1.8612    2.7895 O   0  0  0  0  0  0  0  0  0  0  0  0
   -1.3766    1.3707    2.5566 C   0  0  0  0  0  0  0  0  0  0  0  0
   -1.0535    0.9799    1.1703 C   0  0  0  0  0  0  0  0  0  0  0  0
    2.9116   -2.1947   -0.4066 H   0  0  0  0  0  0  0  0  0  0  0  0
    4.3215   -1.1722   -0.1665 H   0  0  0  0  0  0  0  0  0  0  0  0
    3.1693   -0.8093   -1.4897 H   0  0  0  0  0  0  0  0  0  0  0  0
    4.5581    1.0871   -0.3604 H   0  0  0  0  0  0  0  0  0  0  0  0
    5.9320    3.0089   -0.8637 H   0  0  0  0  0  0  0  0  0  0  0  0
    8.8200    1.8613    1.0752 H   0  0  0  0  0  0  0  0  0  0  0  0
   11.1254    2.5750    0.6192 H   0  0  0  0  0  0  0  0  0  0  0  0
    7.4105    4.1831   -2.2667 H   0  0  0  0  0  0  0  0  0  0  0  0
    6.8423    4.3524    3.9046 H   0  0  0  0  0  0  0  0  0  0  0  0
    3.1817    1.8079    4.3148 H   0  0  0  0  0  0  0  0  0  0  0  0
    1.2125    2.1201    3.8565 H   0  0  0  0  0  0  0  0  0  0  0  0
    1.0109    0.6241    4.8323 H   0  0  0  0  0  0  0  0  0  0  0  0
    0.9052    3.1095    8.5438 H   0  0  0  0  0  0  0  0  0  0  0  0
   -0.8339    2.2687   10.0741 H   0  0  0  0  0  0  0  0  0  0  0  0
   -2.9761    1.4540    9.1572 H   0  0  0  0  0  0  0  0  0  0  0  0
   -1.9039    1.1226    0.4971 H   0  0  0  0  0  0  0  0  0  0  0  0
   -0.7614   -0.0742    1.1292 H   0  0  0  0  0  0  0  0  0  0  0  0
   -0.2193    1.5807    0.7937 H   0  0  0  0  0  0  0  0  0  0  0  0
  1  2  1  0  0  0  0
  1 38  1  0  0  0  0
  1 39  1  0  0  0  0
  1 40  1  0  0  0  0
  2  3  1  0  0  0  0
  3  4  1  0  0  0  0
  3 21  2  0  0  0  0
  4  5  2  0  0  0  0
  4 41  1  0  0  0  0
  5  6  1  0  0  0  0
  5 19  1  0  0  0  0
  6  7  1  0  0  0  0
  6 16  2  0  0  0  0
  7  8  1  0  0  0  0
  7 42  1  0  0  0  0
  8  9  1  0  0  0  0
  8 15  2  0  0  0  0
  9 10  2  0  0  0  0
  9 43  1  0  0  0  0
 10 11  1  0  0  0  0
 10 44  1  0  0  0  0
 11 12  1  0  0  0  0
 11 13  2  0  0  0  0
 13 14  1  0  0  0  0
 13 15  1  0  0  0  0
 15 45  1  0  0  0  0
 16 17  1  0  0  0  0
 17 18  2  0  0  0  0
 17 46  1  0  0  0  0
 18 19  1  0  0  0  0
 19 20  2  0  0  0  0
 20 21  1  0  0  0  0
 20 47  1  0  0  0  0
 21 22  1  0  0  0  0
 22 23  1  0  0  0  0
 23 24  1  0  0  0  0
 23 48  1  0  0  0  0
 23 49  1  0  0  0  0
 24 25  1  0  0  0  0
 24 36  2  0  0  0  0
 25 26  1  0  0  0  0
 25 34  2  0  0  0  0
 26 27  1  0  0  0  0
 26 32  2  0  0  0  0
 27 28  1  0  0  0  0
 27 29  2  0  0  0  0
 29 30  1  0  0  0  0
 29 50  1  0  0  0  0
 30 31  2  0  0  0  0
 30 51  1  0  0  0  0
 31 32  1  0  0  0  0
 31 52  1  0  0  0  0
 32 33  1  0  0  0  0
 34 35  1  0  0  0  0
 35 36  1  0  0  0  0
 36 37  1  0  0  0  0
 37 53  1  0  0  0  0
 37 54  1  0  0  0  0
 37 55  1  0  0  0  0
M  END
$$$$
