CHEMBL3964812
 OpenBabel04072215373D

 55 59  0  0  1  0  0  0  0  0999 V2000
    1.0981    0.1946    0.8166 O   0  0  0  0  0  0  0  0  0  0  0  0
    2.1930   -0.0104    0.3065 C   0  0  0  0  0  0  0  0  0  0  0  0
    2.7610    0.7875   -0.6693 N   0  0  0  0  0  0  0  0  0  0  0  0
    2.1541    1.9222   -1.2515 C   0  0  0  0  0  0  0  0  0  0  0  0
    1.0316    2.5589   -0.7165 C   0  0  0  0  0  0  0  0  0  0  0  0
    0.4355    3.6269   -1.3799 C   0  0  0  0  0  0  0  0  0  0  0  0
    0.9762    4.0895   -2.5759 C   0  0  0  0  0  0  0  0  0  0  0  0
    2.1461    3.5182   -3.1005 C   0  0  0  0  0  0  0  0  0  0  0  0
    2.8825    4.1481   -4.2811 C   0  0  3  0  0  0  0  0  0  0  0  0
    2.0510    4.2260   -5.5799 C   0  0  0  0  0  0  0  0  0  0  0  0
    2.2621    5.4740   -6.3840 N   0  0  0  0  0  0  0  0  0  0  0  0
    2.2465    6.5522   -5.6655 C   0  0  0  0  0  0  0  0  0  0  0  0
    1.9615    7.8917   -6.1772 C   0  0  0  0  0  0  0  0  0  0  0  0
    2.6492    8.5645   -7.1704 C   0  0  0  0  0  0  0  0  0  0  0  0
    2.2092    9.8469   -7.5155 C   0  0  0  0  0  0  0  0  0  0  0  0
    1.0280   10.3700   -6.9633 C   0  0  0  0  0  0  0  0  0  0  0  0
    0.3815    9.7051   -5.9231 C   0  0  0  0  0  0  0  0  0  0  0  0
    0.9643    8.5401   -5.4490 C   0  0  0  0  0  0  0  0  0  0  0  0
    0.8600    8.2313   -4.0702 N   0  0  0  0  0  0  0  0  0  0  0  0
    1.9434    7.5450   -3.5093 C   0  0  0  0  0  0  0  0  0  0  0  0
    2.4348    7.8670   -2.4338 O   0  0  0  0  0  0  0  0  0  0  0  0
    2.3965    6.5149   -4.3057 N   0  0  0  0  0  0  0  0  0  0  0  0
    3.3555    5.5334   -3.8661 C   0  0  0  0  0  0  0  0  0  0  0  0
    2.7192    2.4240   -2.4311 C   0  0  0  0  0  0  0  0  0  0  0  0
    2.9923   -1.0983    0.6081 N   0  0  0  0  0  0  0  0  0  0  0  0
    2.6443   -2.1857    1.4418 C   0  0  0  0  0  0  0  0  0  0  0  0
    1.3954   -2.3261    2.0485 C   0  0  0  0  0  0  0  0  0  0  0  0
    1.0970   -3.4384    2.8639 C   0  0  0  0  0  0  0  0  0  0  0  0
   -0.2671   -3.5698    3.4964 C   0  0  0  0  0  0  0  0  0  0  0  0
   -1.1142   -2.5387    3.2176 F   0  0  0  0  0  0  0  0  0  0  0  0
   -0.9162   -4.6979    3.0926 F   0  0  0  0  0  0  0  0  0  0  0  0
   -0.2058   -3.6409    4.8550 F   0  0  0  0  0  0  0  0  0  0  0  0
    2.0837   -4.4159    3.0572 C   0  0  0  0  0  0  0  0  0  0  0  0
    3.3225   -4.2910    2.4479 C   0  0  0  0  0  0  0  0  0  0  0  0
    3.6016   -3.1781    1.6430 C   0  0  0  0  0  0  0  0  0  0  0  0
    4.8010   -3.0779    1.0548 F   0  0  0  0  0  0  0  0  0  0  0  0
    3.5725    0.4200   -1.1412 H   0  0  0  0  0  0  0  0  0  0  0  0
    0.5930    2.2543    0.2290 H   0  0  0  0  0  0  0  0  0  0  0  0
   -0.4414    4.1037   -0.9500 H   0  0  0  0  0  0  0  0  0  0  0  0
    0.4979    4.9367   -3.0591 H   0  0  0  0  0  0  0  0  0  0  0  0
    3.7681    3.5350   -4.4934 H   0  0  0  0  0  0  0  0  0  0  0  0
    0.9743    4.1463   -5.3765 H   0  0  0  0  0  0  0  0  0  0  0  0
    2.2800    3.3611   -6.2153 H   0  0  0  0  0  0  0  0  0  0  0  0
    3.5587    8.1505   -7.5943 H   0  0  0  0  0  0  0  0  0  0  0  0
    2.7916   10.4547   -8.2045 H   0  0  0  0  0  0  0  0  0  0  0  0
    0.6651   11.3443   -7.2822 H   0  0  0  0  0  0  0  0  0  0  0  0
   -0.4616   10.1627   -5.4152 H   0  0  0  0  0  0  0  0  0  0  0  0
   -0.0274    7.7976   -3.8418 H   0  0  0  0  0  0  0  0  0  0  0  0
    3.5634    5.6266   -2.7871 H   0  0  0  0  0  0  0  0  0  0  0  0
    4.3043    5.7540   -4.3835 H   0  0  0  0  0  0  0  0  0  0  0  0
    3.6221    1.9694   -2.8316 H   0  0  0  0  0  0  0  0  0  0  0  0
    3.9383   -1.1056    0.2521 H   0  0  0  0  0  0  0  0  0  0  0  0
    0.6072   -1.5927    1.9126 H   0  0  0  0  0  0  0  0  0  0  0  0
    1.8732   -5.2901    3.6824 H   0  0  0  0  0  0  0  0  0  0  0  0
    4.0969   -5.0463    2.5762 H   0  0  0  0  0  0  0  0  0  0  0  0
  1  2  2  0  0  0  0
  2  3  1  0  0  0  0
  2 25  1  0  0  0  0
  3  4  1  0  0  0  0
  3 37  1  0  0  0  0
  4  5  1  0  0  0  0
  4 24  2  0  0  0  0
  5  6  2  0  0  0  0
  5 38  1  0  0  0  0
  6  7  1  0  0  0  0
  6 39  1  0  0  0  0
  7  8  2  0  0  0  0
  7 40  1  0  0  0  0
  8  9  1  0  0  0  0
  8 24  1  0  0  0  0
  9 10  1  0  0  0  0
  9 23  1  0  0  0  0
  9 41  1  0  0  0  0
 10 11  1  0  0  0  0
 10 42  1  0  0  0  0
 10 43  1  0  0  0  0
 11 12  2  0  0  0  0
 12 13  1  0  0  0  0
 12 22  1  0  0  0  0
 13 14  1  0  0  0  0
 13 18  2  0  0  0  0
 14 15  2  0  0  0  0
 14 44  1  0  0  0  0
 15 16  1  0  0  0  0
 15 45  1  0  0  0  0
 16 17  2  0  0  0  0
 16 46  1  0  0  0  0
 17 18  1  0  0  0  0
 17 47  1  0  0  0  0
 18 19  1  0  0  0  0
 19 20  1  0  0  0  0
 19 48  1  0  0  0  0
 20 21  2  0  0  0  0
 20 22  1  0  0  0  0
 22 23  1  0  0  0  0
 23 49  1  0  0  0  0
 23 50  1  0  0  0  0
 24 51  1  0  0  0  0
 25 26  1  0  0  0  0
 25 52  1  0  0  0  0
 26 27  1  0  0  0  0
 26 35  2  0  0  0  0
 27 28  2  0  0  0  0
 27 53  1  0  0  0  0
 28 29  1  0  0  0  0
 28 33  1  0  0  0  0
 29 30  1  0  0  0  0
 29 31  1  0  0  0  0
 29 32  1  0  0  0  0
 33 34  2  0  0  0  0
 33 54  1  0  0  0  0
 34 35  1  0  0  0  0
 34 55  1  0  0  0  0
 35 36  1  0  0  0  0
M  END
$$$$
