CHEMBL193752
 OpenBabel04072215363D

 45 48  0  0  0  0  0  0  0  0999 V2000
    2.0363    0.9633    0.0044 C   0  0  0  0  0  0  0  0  0  0  0  0
    3.0570    0.1156   -0.5124 O   0  0  0  0  0  0  0  0  0  0  0  0
    3.5833   -0.8117    0.3430 C   0  0  0  0  0  0  0  0  0  0  0  0
    3.1880   -1.0194    1.6596 C   0  0  0  0  0  0  0  0  0  0  0  0
    3.8120   -2.0062    2.4309 C   0  0  0  0  0  0  0  0  0  0  0  0
    4.8981   -2.7472    1.9417 C   0  0  0  0  0  0  0  0  0  0  0  0
    5.6831   -3.6152    2.8294 C   0  0  0  0  0  0  0  0  0  0  0  0
    6.2165   -4.7268    2.2435 O   0  0  0  0  0  0  0  0  0  0  0  0
    6.8732   -5.4356    3.2077 C   0  0  0  0  0  0  0  0  0  0  0  0
    7.4684   -6.6069    2.9534 N   0  0  0  0  0  0  0  0  0  0  0  0
    8.0250   -7.1177    4.0551 C   0  0  0  0  0  0  0  0  0  0  0  0
    8.0484   -6.5843    5.2897 N   0  0  0  0  0  0  0  0  0  0  0  0
    7.4592   -5.3871    5.4943 C   0  0  0  0  0  0  0  0  0  0  0  0
    7.5552   -4.8829    6.7745 N   0  0  0  0  0  0  0  0  0  0  0  0
    6.8068   -4.7689    4.4221 C   0  0  0  0  0  0  0  0  0  0  0  0
    6.0330   -3.5876    4.1781 C   0  0  0  0  0  0  0  0  0  0  0  0
    5.5644   -2.5704    5.1087 C   0  0  0  0  0  0  0  0  0  0  0  0
    5.6581   -1.2061    4.8073 C   0  0  0  0  0  0  0  0  0  0  0  0
    4.9987   -0.2587    5.5982 C   0  0  0  0  0  0  0  0  0  0  0  0
    4.3192   -0.6535    6.7500 C   0  0  0  0  0  0  0  0  0  0  0  0
    3.6128    0.2255    7.5887 N   0  0  0  0  0  0  0  0  0  0  0  0
    3.4041    1.5660    7.4165 C   0  0  0  0  0  0  0  0  0  0  0  0
    2.6498    2.0917    8.4256 N   0  0  0  0  0  0  0  0  0  0  0  0
    3.7995    2.2893    6.5151 O   0  0  0  0  0  0  0  0  0  0  0  0
    4.3017   -2.0091    7.0993 C   0  0  0  0  0  0  0  0  0  0  0  0
    4.8880   -2.9633    6.2669 C   0  0  0  0  0  0  0  0  0  0  0  0
    5.2613   -2.5592    0.6033 C   0  0  0  0  0  0  0  0  0  0  0  0
    4.6048   -1.6046   -0.1877 C   0  0  0  0  0  0  0  0  0  0  0  0
    1.6452    1.5607   -0.8247 H   0  0  0  0  0  0  0  0  0  0  0  0
    2.4426    1.6521    0.7533 H   0  0  0  0  0  0  0  0  0  0  0  0
    1.1996    0.3868    0.4127 H   0  0  0  0  0  0  0  0  0  0  0  0
    2.4112   -0.4267    2.1311 H   0  0  0  0  0  0  0  0  0  0  0  0
    3.4531   -2.1513    3.4466 H   0  0  0  0  0  0  0  0  0  0  0  0
    8.5161   -8.0803    3.9466 H   0  0  0  0  0  0  0  0  0  0  0  0
    7.8395   -5.5615    7.4682 H   0  0  0  0  0  0  0  0  0  0  0  0
    7.0011   -4.0928    7.0551 H   0  0  0  0  0  0  0  0  0  0  0  0
    6.1689   -0.8662    3.9071 H   0  0  0  0  0  0  0  0  0  0  0  0
    5.0195    0.7777    5.2733 H   0  0  0  0  0  0  0  0  0  0  0  0
    3.2328   -0.1626    8.4381 H   0  0  0  0  0  0  0  0  0  0  0  0
    1.8871    1.5356    8.7811 H   0  0  0  0  0  0  0  0  0  0  0  0
    2.4163    3.0659    8.2659 H   0  0  0  0  0  0  0  0  0  0  0  0
    3.7894   -2.3470    7.9951 H   0  0  0  0  0  0  0  0  0  0  0  0
    4.7786   -4.0151    6.5177 H   0  0  0  0  0  0  0  0  0  0  0  0
    6.0780   -3.1314    0.1675 H   0  0  0  0  0  0  0  0  0  0  0  0
    4.9109   -1.4613   -1.2206 H   0  0  0  0  0  0  0  0  0  0  0  0
  1  2  1  0  0  0  0
  1 29  1  0  0  0  0
  1 30  1  0  0  0  0
  1 31  1  0  0  0  0
  2  3  1  0  0  0  0
  3  4  1  0  0  0  0
  3 28  2  0  0  0  0
  4  5  2  0  0  0  0
  4 32  1  0  0  0  0
  5  6  1  0  0  0  0
  5 33  1  0  0  0  0
  6  7  1  0  0  0  0
  6 27  2  0  0  0  0
  7  8  1  0  0  0  0
  7 16  2  0  0  0  0
  8  9  1  0  0  0  0
  9 10  1  0  0  0  0
  9 15  2  0  0  0  0
 10 11  2  0  0  0  0
 11 12  1  0  0  0  0
 11 34  1  0  0  0  0
 12 13  2  0  0  0  0
 13 14  1  0  0  0  0
 13 15  1  0  0  0  0
 14 35  1  0  0  0  0
 14 36  1  0  0  0  0
 15 16  1  0  0  0  0
 16 17  1  0  0  0  0
 17 18  1  0  0  0  0
 17 26  2  0  0  0  0
 18 19  2  0  0  0  0
 18 37  1  0  0  0  0
 19 20  1  0  0  0  0
 19 38  1  0  0  0  0
 20 21  1  0  0  0  0
 20 25  2  0  0  0  0
 21 22  1  0  0  0  0
 21 39  1  0  0  0  0
 22 23  1  0  0  0  0
 22 24  2  0  0  0  0
 23 40  1  0  0  0  0
 23 41  1  0  0  0  0
 25 26  1  0  0  0  0
 25 42  1  0  0  0  0
 26 43  1  0  0  0  0
 27 28  1  0  0  0  0
 27 44  1  0  0  0  0
 28 45  1  0  0  0  0
M  END
$$$$
