CHEMBL3979264
 OpenBabel04072215373D

 75 79  0  0  0  0  0  0  0  0999 V2000
    2.4783    1.2135   -0.1387 C   0  0  0  0  0  0  0  0  0  0  0  0
    2.2359   -0.1881   -0.1283 O   0  0  0  0  0  0  0  0  0  0  0  0
    3.0470   -1.0110    0.5996 C   0  0  0  0  0  0  0  0  0  0  0  0
    4.2110   -0.5776    1.2281 C   0  0  0  0  0  0  0  0  0  0  0  0
    4.9649   -1.4376    2.0634 C   0  0  0  0  0  0  0  0  0  0  0  0
    6.1017   -1.0370    2.7795 C   0  0  0  0  0  0  0  0  0  0  0  0
    6.4112    0.3428    2.8162 N   0  0  0  0  0  0  0  0  0  0  0  0
    7.6598    0.9674    2.9327 C   0  0  0  0  0  0  0  0  0  0  0  0
    7.6936    2.3403    3.1827 C   0  0  0  0  0  0  0  0  0  0  0  0
    8.8900    3.0528    3.1044 C   0  0  0  0  0  0  0  0  0  0  0  0
   10.0835    2.4245    2.7288 C   0  0  0  0  0  0  0  0  0  0  0  0
   11.2798    3.1544    2.4963 N   0  0  0  0  0  0  0  0  0  0  0  0
   11.3420    4.5201    2.3151 C   0  0  0  0  0  0  0  0  0  0  0  0
   10.3696    5.2714    2.3899 O   0  0  0  0  0  0  0  0  0  0  0  0
   12.6052    4.9716    1.9706 N   0  0  0  0  0  0  0  0  0  0  0  0
   12.7663    6.3553    1.7036 C   0  0  0  0  0  0  0  0  0  0  0  0
   12.2569    7.3181    2.5852 C   0  0  0  0  0  0  0  0  0  0  0  0
   12.2505    8.6648    2.2310 C   0  0  0  0  0  0  0  0  0  0  0  0
   12.7576    9.0538    0.9945 C   0  0  0  0  0  0  0  0  0  0  0  0
   13.3104    8.1029    0.1345 C   0  0  0  0  0  0  0  0  0  0  0  0
   13.3410    6.7537    0.4975 C   0  0  0  0  0  0  0  0  0  0  0  0
   10.0616    1.0404    2.5261 C   0  0  0  0  0  0  0  0  0  0  0  0
   11.4889    0.1810    2.0612 Cl  0  0  0  0  0  0  0  0  0  0  0  0
    8.8609    0.3238    2.6197 C   0  0  0  0  0  0  0  0  0  0  0  0
    6.8550   -1.8967    3.4785 N   0  0  0  0  0  0  0  0  0  0  0  0
    6.4379   -3.1643    3.4970 C   0  0  0  0  0  0  0  0  0  0  0  0
    5.3353   -3.6446    2.9089 N   0  0  0  0  0  0  0  0  0  0  0  0
    4.6082   -2.7814    2.1937 C   0  0  0  0  0  0  0  0  0  0  0  0
    3.4637   -3.2132    1.5414 C   0  0  0  0  0  0  0  0  0  0  0  0
    2.6864   -2.3603    0.7410 C   0  0  0  0  0  0  0  0  0  0  0  0
    1.6019   -2.9891    0.1770 O   0  0  0  0  0  0  0  0  0  0  0  0
    1.1582   -2.4543   -1.0678 C   0  0  0  0  0  0  0  0  0  0  0  0
    0.5313   -3.5611   -1.9067 C   0  0  0  0  0  0  0  0  0  0  0  0
    0.1728   -2.9890   -3.2816 C   0  0  0  0  0  0  0  0  0  0  0  0
   -0.4738   -3.9449   -4.1846 N   0  0  0  0  0  0  0  0  0  0  0  0
   -0.8594   -3.2673   -5.4409 C   0  0  0  0  0  0  0  0  0  0  0  0
   -1.5459   -4.2359   -6.4282 C   0  0  0  0  0  0  0  0  0  0  0  0
   -0.7509   -5.4323   -6.7688 N   0  0  0  0  0  0  0  0  0  0  0  0
    0.3628   -5.1076   -7.6561 C   0  0  0  0  0  0  0  0  0  0  0  0
   -0.2810   -6.0655   -5.5201 C   0  0  0  0  0  0  0  0  0  0  0  0
    0.3805   -5.1066   -4.4997 C   0  0  0  0  0  0  0  0  0  0  0  0
    3.1122    1.4734   -0.9924 H   0  0  0  0  0  0  0  0  0  0  0  0
    2.9051    1.5979    0.7917 H   0  0  0  0  0  0  0  0  0  0  0  0
    1.5130    1.7120   -0.2652 H   0  0  0  0  0  0  0  0  0  0  0  0
    4.5844    0.4285    1.0666 H   0  0  0  0  0  0  0  0  0  0  0  0
    5.6517    0.8601    3.2539 H   0  0  0  0  0  0  0  0  0  0  0  0
    6.7837    2.8916    3.4106 H   0  0  0  0  0  0  0  0  0  0  0  0
    8.8360    4.1134    3.3237 H   0  0  0  0  0  0  0  0  0  0  0  0
   12.1070    2.6057    2.2979 H   0  0  0  0  0  0  0  0  0  0  0  0
   13.1300    4.3427    1.3801 H   0  0  0  0  0  0  0  0  0  0  0  0
   11.8204    7.0188    3.5362 H   0  0  0  0  0  0  0  0  0  0  0  0
   11.8171    9.3983    2.9053 H   0  0  0  0  0  0  0  0  0  0  0  0
   12.7070   10.0968    0.6950 H   0  0  0  0  0  0  0  0  0  0  0  0
   13.6838    8.4105   -0.8385 H   0  0  0  0  0  0  0  0  0  0  0  0
   13.7287    6.0253   -0.2069 H   0  0  0  0  0  0  0  0  0  0  0  0
    8.8609   -0.7405    2.4031 H   0  0  0  0  0  0  0  0  0  0  0  0
    7.0494   -3.8720    4.0468 H   0  0  0  0  0  0  0  0  0  0  0  0
    3.1655   -4.2541    1.6483 H   0  0  0  0  0  0  0  0  0  0  0  0
    1.9978   -2.0464   -1.6435 H   0  0  0  0  0  0  0  0  0  0  0  0
    0.4113   -1.6760   -0.8756 H   0  0  0  0  0  0  0  0  0  0  0  0
   -0.3539   -3.9666   -1.4019 H   0  0  0  0  0  0  0  0  0  0  0  0
    1.2494   -4.3848   -1.9863 H   0  0  0  0  0  0  0  0  0  0  0  0
    1.0744   -2.5725   -3.7502 H   0  0  0  0  0  0  0  0  0  0  0  0
   -0.5149   -2.1482   -3.1179 H   0  0  0  0  0  0  0  0  0  0  0  0
    0.0183   -2.8129   -5.9199 H   0  0  0  0  0  0  0  0  0  0  0  0
   -1.5591   -2.4519   -5.2203 H   0  0  0  0  0  0  0  0  0  0  0  0
   -1.8266   -3.6956   -7.3405 H   0  0  0  0  0  0  0  0  0  0  0  0
   -2.4919   -4.5714   -5.9822 H   0  0  0  0  0  0  0  0  0  0  0  0
   -0.0052   -4.6370   -8.5746 H   0  0  0  0  0  0  0  0  0  0  0  0
    0.8798   -6.0238   -7.9622 H   0  0  0  0  0  0  0  0  0  0  0  0
    1.1008   -4.4377   -7.2039 H   0  0  0  0  0  0  0  0  0  0  0  0
    0.4092   -6.8871   -5.7483 H   0  0  0  0  0  0  0  0  0  0  0  0
   -1.1475   -6.5356   -5.0359 H   0  0  0  0  0  0  0  0  0  0  0  0
    1.3545   -4.7748   -4.8822 H   0  0  0  0  0  0  0  0  0  0  0  0
    0.5693   -5.6899   -3.5922 H   0  0  0  0  0  0  0  0  0  0  0  0
  1  2  1  0  0  0  0
  1 42  1  0  0  0  0
  1 43  1  0  0  0  0
  1 44  1  0  0  0  0
  2  3  1  0  0  0  0
  3  4  1  0  0  0  0
  3 30  2  0  0  0  0
  4  5  2  0  0  0  0
  4 45  1  0  0  0  0
  5  6  1  0  0  0  0
  5 28  1  0  0  0  0
  6  7  1  0  0  0  0
  6 25  2  0  0  0  0
  7  8  1  0  0  0  0
  7 46  1  0  0  0  0
  8  9  1  0  0  0  0
  8 24  2  0  0  0  0
  9 10  2  0  0  0  0
  9 47  1  0  0  0  0
 10 11  1  0  0  0  0
 10 48  1  0  0  0  0
 11 12  1  0  0  0  0
 11 22  2  0  0  0  0
 12 13  1  0  0  0  0
 12 49  1  0  0  0  0
 13 14  2  0  0  0  0
 13 15  1  0  0  0  0
 15 16  1  0  0  0  0
 15 50  1  0  0  0  0
 16 17  1  0  0  0  0
 16 21  2  0  0  0  0
 17 18  2  0  0  0  0
 17 51  1  0  0  0  0
 18 19  1  0  0  0  0
 18 52  1  0  0  0  0
 19 20  2  0  0  0  0
 19 53  1  0  0  0  0
 20 21  1  0  0  0  0
 20 54  1  0  0  0  0
 21 55  1  0  0  0  0
 22 23  1  0  0  0  0
 22 24  1  0  0  0  0
 24 56  1  0  0  0  0
 25 26  1  0  0  0  0
 26 27  2  0  0  0  0
 26 57  1  0  0  0  0
 27 28  1  0  0  0  0
 28 29  2  0  0  0  0
 29 30  1  0  0  0  0
 29 58  1  0  0  0  0
 30 31  1  0  0  0  0
 31 32  1  0  0  0  0
 32 33  1  0  0  0  0
 32 59  1  0  0  0  0
 32 60  1  0  0  0  0
 33 34  1  0  0  0  0
 33 61  1  0  0  0  0
 33 62  1  0  0  0  0
 34 35  1  0  0  0  0
 34 63  1  0  0  0  0
 34 64  1  0  0  0  0
 35 36  1  0  0  0  0
 35 41  1  0  0  0  0
 36 37  1  0  0  0  0
 36 65  1  0  0  0  0
 36 66  1  0  0  0  0
 37 38  1  0  0  0  0
 37 67  1  0  0  0  0
 37 68  1  0  0  0  0
 38 39  1  0  0  0  0
 38 40  1  0  0  0  0
 39 69  1  0  0  0  0
 39 70  1  0  0  0  0
 39 71  1  0  0  0  0
 40 41  1  0  0  0  0
 40 72  1  0  0  0  0
 40 73  1  0  0  0  0
 41 74  1  0  0  0  0
 41 75  1  0  0  0  0
M  END
$$$$
