CHEMBL259252
 OpenBabel04072215363D

 56 60  0  0  0  0  0  0  0  0999 V2000
    4.3033   -1.0280    0.8935 C   0  0  0  0  0  0  0  0  0  0  0  0
    3.8516    0.3018    0.6383 O   0  0  0  0  0  0  0  0  0  0  0  0
    4.1442    0.7606   -0.6196 C   0  0  0  0  0  0  0  0  0  0  0  0
    5.3241    0.4107   -1.2907 C   0  0  0  0  0  0  0  0  0  0  0  0
    5.6000    0.8239   -2.5876 C   0  0  0  0  0  0  0  0  0  0  0  0
    6.7578    0.4118   -3.1292 N   0  0  0  0  0  0  0  0  0  0  0  0
    7.0518    0.7959   -4.3858 C   0  0  0  0  0  0  0  0  0  0  0  0
    6.2570    1.6380   -5.1278 C   0  0  0  0  0  0  0  0  0  0  0  0
    5.0723    2.1006   -4.5567 C   0  0  0  0  0  0  0  0  0  0  0  0
    4.3996    2.9922   -5.3786 O   0  0  0  0  0  0  0  0  0  0  0  0
    3.6436    4.0034   -4.8392 C   0  0  0  0  0  0  0  0  0  0  0  0
    3.9574    4.6692   -3.6604 C   0  0  0  0  0  0  0  0  0  0  0  0
    2.9655    5.4065   -3.0165 C   0  0  0  0  0  0  0  0  0  0  0  0
    1.6929    5.6472   -3.6012 C   0  0  0  0  0  0  0  0  0  0  0  0
    0.6045    6.3376   -2.9877 C   0  0  0  0  0  0  0  0  0  0  0  0
    0.5902    6.8236   -1.5736 C   0  0  0  0  0  0  0  0  0  0  0  0
   -0.4351    6.7093   -0.9066 O   0  0  0  0  0  0  0  0  0  0  0  0
    1.7268    7.4324   -1.0819 N   0  0  0  0  0  0  0  0  0  0  0  0
    1.8046    7.9055    0.3137 C   0  0  0  0  0  0  0  0  0  0  0  0
    3.2283    8.2971    0.7767 C   0  0  0  0  0  0  0  0  0  0  0  0
    2.9065    7.6297    2.1283 C   0  0  0  0  0  0  0  0  0  0  0  0
    1.8520    6.7872    1.3859 C   0  0  0  0  0  0  0  0  0  0  0  0
   -0.6086    6.5101   -3.6796 C   0  0  0  0  0  0  0  0  0  0  0  0
   -0.7708    6.0243   -4.9712 C   0  0  0  0  0  0  0  0  0  0  0  0
    0.2665    5.3200   -5.5724 C   0  0  0  0  0  0  0  0  0  0  0  0
    1.4784    5.1089   -4.9007 C   0  0  0  0  0  0  0  0  0  0  0  0
    2.4490    4.2901   -5.4925 C   0  0  0  0  0  0  0  0  0  0  0  0
    4.6721    1.6326   -3.2692 C   0  0  0  0  0  0  0  0  0  0  0  0
    3.4504    1.9188   -2.5966 C   0  0  0  0  0  0  0  0  0  0  0  0
    3.2258    1.5822   -1.2602 C   0  0  0  0  0  0  0  0  0  0  0  0
    2.0571    2.0691   -0.7442 O   0  0  0  0  0  0  0  0  0  0  0  0
    2.1058    2.5303    0.6051 C   0  0  0  0  0  0  0  0  0  0  0  0
    3.6888   -1.4453    1.6948 H   0  0  0  0  0  0  0  0  0  0  0  0
    5.3433   -1.0149    1.2311 H   0  0  0  0  0  0  0  0  0  0  0  0
    4.1867   -1.6787    0.0173 H   0  0  0  0  0  0  0  0  0  0  0  0
    6.0743   -0.1994   -0.7987 H   0  0  0  0  0  0  0  0  0  0  0  0
    7.9820    0.4016   -4.7850 H   0  0  0  0  0  0  0  0  0  0  0  0
    6.5551    1.9393   -6.1266 H   0  0  0  0  0  0  0  0  0  0  0  0
    4.9093    4.4997   -3.1570 H   0  0  0  0  0  0  0  0  0  0  0  0
    3.1916    5.7216   -2.0016 H   0  0  0  0  0  0  0  0  0  0  0  0
    2.4655    7.6561   -1.7367 H   0  0  0  0  0  0  0  0  0  0  0  0
    1.0573    8.6808    0.5228 H   0  0  0  0  0  0  0  0  0  0  0  0
    3.4280    9.3708    0.8251 H   0  0  0  0  0  0  0  0  0  0  0  0
    4.0429    7.8067    0.2313 H   0  0  0  0  0  0  0  0  0  0  0  0
    2.4832    8.3144    2.8719 H   0  0  0  0  0  0  0  0  0  0  0  0
    3.7246    7.0676    2.5866 H   0  0  0  0  0  0  0  0  0  0  0  0
    0.9218    6.6189    1.9361 H   0  0  0  0  0  0  0  0  0  0  0  0
    2.2356    5.8234    1.0331 H   0  0  0  0  0  0  0  0  0  0  0  0
   -1.4440    7.0176   -3.1976 H   0  0  0  0  0  0  0  0  0  0  0  0
   -1.7145    6.1636   -5.4937 H   0  0  0  0  0  0  0  0  0  0  0  0
    0.1072    4.9115   -6.5689 H   0  0  0  0  0  0  0  0  0  0  0  0
    2.2477    3.7997   -6.4484 H   0  0  0  0  0  0  0  0  0  0  0  0
    2.6505    2.4511   -3.1024 H   0  0  0  0  0  0  0  0  0  0  0  0
    1.5351    3.4641    0.6611 H   0  0  0  0  0  0  0  0  0  0  0  0
    3.1155    2.7490    0.9703 H   0  0  0  0  0  0  0  0  0  0  0  0
    1.6113    1.8002    1.2520 H   0  0  0  0  0  0  0  0  0  0  0  0
  1  2  1  0  0  0  0
  1 33  1  0  0  0  0
  1 34  1  0  0  0  0
  1 35  1  0  0  0  0
  2  3  1  0  0  0  0
  3  4  1  0  0  0  0
  3 30  2  0  0  0  0
  4  5  2  0  0  0  0
  4 36  1  0  0  0  0
  5  6  1  0  0  0  0
  5 28  1  0  0  0  0
  6  7  2  0  0  0  0
  7  8  1  0  0  0  0
  7 37  1  0  0  0  0
  8  9  2  0  0  0  0
  8 38  1  0  0  0  0
  9 10  1  0  0  0  0
  9 28  1  0  0  0  0
 10 11  1  0  0  0  0
 11 12  1  0  0  0  0
 11 27  2  0  0  0  0
 12 13  2  0  0  0  0
 12 39  1  0  0  0  0
 13 14  1  0  0  0  0
 13 40  1  0  0  0  0
 14 15  1  0  0  0  0
 14 26  2  0  0  0  0
 15 16  1  0  0  0  0
 15 23  2  0  0  0  0
 16 17  2  0  0  0  0
 16 18  1  0  0  0  0
 18 19  1  0  0  0  0
 18 41  1  0  0  0  0
 19 20  1  0  0  0  0
 19 22  1  0  0  0  0
 19 42  1  0  0  0  0
 20 21  1  0  0  0  0
 20 43  1  0  0  0  0
 20 44  1  0  0  0  0
 21 22  1  0  0  0  0
 21 45  1  0  0  0  0
 21 46  1  0  0  0  0
 22 47  1  0  0  0  0
 22 48  1  0  0  0  0
 23 24  1  0  0  0  0
 23 49  1  0  0  0  0
 24 25  2  0  0  0  0
 24 50  1  0  0  0  0
 25 26  1  0  0  0  0
 25 51  1  0  0  0  0
 26 27  1  0  0  0  0
 27 52  1  0  0  0  0
 28 29  2  0  0  0  0
 29 30  1  0  0  0  0
 29 53  1  0  0  0  0
 30 31  1  0  0  0  0
 31 32  1  0  0  0  0
 32 54  1  0  0  0  0
 32 55  1  0  0  0  0
 32 56  1  0  0  0  0
M  END
$$$$
