CHEMBL3911948
 OpenBabel04072215373D

 65 69  0  0  0  0  0  0  0  0999 V2000
    0.7651   -2.7459    3.3079 C   0  0  0  0  0  0  0  0  0  0  0  0
    2.1372   -2.6011    3.6577 O   0  0  0  0  0  0  0  0  0  0  0  0
    3.0005   -2.1801    2.6710 C   0  0  0  0  0  0  0  0  0  0  0  0
    2.6187   -1.8973    1.3571 C   0  0  0  0  0  0  0  0  0  0  0  0
    3.5727   -1.4524    0.4444 C   0  0  0  0  0  0  0  0  0  0  0  0
    3.3322   -1.0759   -0.8503 O   0  0  0  0  0  0  0  0  0  0  0  0
    2.0028   -1.2245   -1.3343 C   0  0  0  0  0  0  0  0  0  0  0  0
    4.9059   -1.3036    0.8461 C   0  0  0  0  0  0  0  0  0  0  0  0
    5.3130   -1.5015    2.1682 C   0  0  0  0  0  0  0  0  0  0  0  0
    6.5688   -1.0596    2.6471 N   0  0  0  0  0  0  0  0  0  0  0  0
    7.1043    0.2540    2.0921 C   0  0  0  0  0  0  0  0  0  0  0  0
    6.1187    1.4032    1.8234 C   0  0  0  0  0  0  0  0  0  0  0  0
    6.7789    2.5473    1.1808 N   0  0  0  0  0  0  0  0  0  0  0  0
    6.9226    2.7570   -0.1803 C   0  0  0  0  0  0  0  0  0  0  0  0
    6.5713    1.8195   -1.2719 C   0  0  0  0  0  0  0  0  0  0  0  0
    7.4643    4.0181   -0.2869 C   0  0  0  0  0  0  0  0  0  0  0  0
    7.7067    4.5444    0.9399 N   0  0  0  0  0  0  0  0  0  0  0  0
    7.3091    3.6545    1.8177 C   0  0  0  0  0  0  0  0  0  0  0  0
    7.4291    3.8127    3.2900 C   0  0  0  0  0  0  0  0  0  0  0  0
    7.7240   -1.8669    2.9819 C   0  0  0  0  0  0  0  0  0  0  0  0
    8.5320   -1.3553    3.9963 C   0  0  0  0  0  0  0  0  0  0  0  0
    9.8754   -1.6846    4.0597 C   0  0  0  0  0  0  0  0  0  0  0  0
   10.4146   -2.6256    3.2200 C   0  0  0  0  0  0  0  0  0  0  0  0
   11.7503   -2.7101    3.2524 N   0  0  0  0  0  0  0  0  0  0  0  0
   12.2943   -3.7556    2.6169 C   0  0  0  0  0  0  0  0  0  0  0  0
   11.5180   -4.7474    2.0484 C   0  0  0  0  0  0  0  0  0  0  0  0
   12.1134   -6.0785    2.0591 C   0  0  0  0  0  0  0  0  0  0  0  0
   12.5247   -6.9945    1.0708 C   0  0  0  0  0  0  0  0  0  0  0  0
   13.1088   -8.0863    1.5899 N   0  0  0  0  0  0  0  0  0  0  0  0
   13.0466   -7.8786    2.9179 N   0  0  0  0  0  0  0  0  0  0  0  0
   13.3276   -8.9394    3.8575 C   0  0  0  0  0  0  0  0  0  0  0  0
   12.5869   -6.6373    3.2365 C   0  0  0  0  0  0  0  0  0  0  0  0
   10.1627   -4.5790    1.8700 N   0  0  0  0  0  0  0  0  0  0  0  0
    9.5821   -3.4482    2.4226 C   0  0  0  0  0  0  0  0  0  0  0  0
    8.2233   -2.9880    2.2724 C   0  0  0  0  0  0  0  0  0  0  0  0
    4.3393   -1.9856    3.0653 C   0  0  0  0  0  0  0  0  0  0  0  0
    0.2053   -3.0250    4.2088 H   0  0  0  0  0  0  0  0  0  0  0  0
    0.6211   -3.5488    2.5726 H   0  0  0  0  0  0  0  0  0  0  0  0
    0.3338   -1.8056    2.9419 H   0  0  0  0  0  0  0  0  0  0  0  0
    1.5875   -2.0097    1.0491 H   0  0  0  0  0  0  0  0  0  0  0  0
    1.9898   -0.8955   -2.3777 H   0  0  0  0  0  0  0  0  0  0  0  0
    1.2997   -0.5935   -0.7793 H   0  0  0  0  0  0  0  0  0  0  0  0
    1.6967   -2.2749   -1.3097 H   0  0  0  0  0  0  0  0  0  0  0  0
    5.6231   -0.9612    0.1089 H   0  0  0  0  0  0  0  0  0  0  0  0
    7.6996    0.0455    1.1934 H   0  0  0  0  0  0  0  0  0  0  0  0
    7.8035    0.6794    2.8254 H   0  0  0  0  0  0  0  0  0  0  0  0
    5.6648    1.7596    2.7512 H   0  0  0  0  0  0  0  0  0  0  0  0
    5.2942    1.1410    1.1602 H   0  0  0  0  0  0  0  0  0  0  0  0
    6.3460    0.8172   -0.9100 H   0  0  0  0  0  0  0  0  0  0  0  0
    7.4111    1.7277   -1.9729 H   0  0  0  0  0  0  0  0  0  0  0  0
    5.7081    2.1919   -1.8312 H   0  0  0  0  0  0  0  0  0  0  0  0
    7.7099    4.5662   -1.1879 H   0  0  0  0  0  0  0  0  0  0  0  0
    7.8759    4.7851    3.5272 H   0  0  0  0  0  0  0  0  0  0  0  0
    8.0766    3.0377    3.7078 H   0  0  0  0  0  0  0  0  0  0  0  0
    6.4497    3.7680    3.7681 H   0  0  0  0  0  0  0  0  0  0  0  0
    8.1540   -0.5923    4.6722 H   0  0  0  0  0  0  0  0  0  0  0  0
   10.5252   -1.1664    4.7595 H   0  0  0  0  0  0  0  0  0  0  0  0
   13.3735   -3.8403    2.6995 H   0  0  0  0  0  0  0  0  0  0  0  0
   12.4472   -6.9186   -0.0054 H   0  0  0  0  0  0  0  0  0  0  0  0
   13.1916   -9.9046    3.3647 H   0  0  0  0  0  0  0  0  0  0  0  0
   12.6160   -8.8570    4.6860 H   0  0  0  0  0  0  0  0  0  0  0  0
   14.3489   -8.8326    4.2300 H   0  0  0  0  0  0  0  0  0  0  0  0
   12.5858   -6.2809    4.2576 H   0  0  0  0  0  0  0  0  0  0  0  0
    7.5940   -3.4933    1.5377 H   0  0  0  0  0  0  0  0  0  0  0  0
    4.6022   -2.1499    4.1084 H   0  0  0  0  0  0  0  0  0  0  0  0
  1  2  1  0  0  0  0
  1 37  1  0  0  0  0
  1 38  1  0  0  0  0
  1 39  1  0  0  0  0
  2  3  1  0  0  0  0
  3  4  1  0  0  0  0
  3 36  2  0  0  0  0
  4  5  2  0  0  0  0
  4 40  1  0  0  0  0
  5  6  1  0  0  0  0
  5  8  1  0  0  0  0
  6  7  1  0  0  0  0
  7 41  1  0  0  0  0
  7 42  1  0  0  0  0
  7 43  1  0  0  0  0
  8  9  2  0  0  0  0
  8 44  1  0  0  0  0
  9 10  1  0  0  0  0
  9 36  1  0  0  0  0
 10 11  1  0  0  0  0
 10 20  1  0  0  0  0
 11 12  1  0  0  0  0
 11 45  1  0  0  0  0
 11 46  1  0  0  0  0
 12 13  1  0  0  0  0
 12 47  1  0  0  0  0
 12 48  1  0  0  0  0
 13 14  1  0  0  0  0
 13 18  1  0  0  0  0
 14 15  1  0  0  0  0
 14 16  2  0  0  0  0
 15 49  1  0  0  0  0
 15 50  1  0  0  0  0
 15 51  1  0  0  0  0
 16 17  1  0  0  0  0
 16 52  1  0  0  0  0
 17 18  2  0  0  0  0
 18 19  1  0  0  0  0
 19 53  1  0  0  0  0
 19 54  1  0  0  0  0
 19 55  1  0  0  0  0
 20 21  1  0  0  0  0
 20 35  2  0  0  0  0
 21 22  2  0  0  0  0
 21 56  1  0  0  0  0
 22 23  1  0  0  0  0
 22 57  1  0  0  0  0
 23 24  1  0  0  0  0
 23 34  2  0  0  0  0
 24 25  2  0  0  0  0
 25 26  1  0  0  0  0
 25 58  1  0  0  0  0
 26 27  1  0  0  0  0
 26 33  2  0  0  0  0
 27 28  1  0  0  0  0
 27 32  2  0  0  0  0
 28 29  2  0  0  0  0
 28 59  1  0  0  0  0
 29 30  1  0  0  0  0
 30 31  1  0  0  0  0
 30 32  1  0  0  0  0
 31 60  1  0  0  0  0
 31 61  1  0  0  0  0
 31 62  1  0  0  0  0
 32 63  1  0  0  0  0
 33 34  1  0  0  0  0
 34 35  1  0  0  0  0
 35 64  1  0  0  0  0
 36 65  1  0  0  0  0
M  END
$$$$
