CHEMBL2086757
 OpenBabel04072215363D

 64 69  0  0  0  0  0  0  0  0999 V2000
    0.9088    1.4096    4.5475 C   0  0  0  0  0  0  0  0  0  0  0  0
    2.2335    0.7680    4.9454 C   0  0  0  0  0  0  0  0  0  0  0  0
    3.4077    1.6140    4.6586 N   0  0  0  0  0  0  0  0  0  0  0  0
    4.6187    0.9414    5.1658 C   0  0  0  0  0  0  0  0  0  0  0  0
    5.8718    1.7745    4.9069 C   0  0  0  0  0  0  0  0  0  0  0  0
    6.0542    2.0533    3.4114 C   0  0  0  0  0  0  0  0  0  0  0  0
    6.3036    0.8176    2.6403 N   0  0  0  0  0  0  0  0  0  0  0  0
    7.4245    0.0275    2.9294 C   0  0  0  0  0  0  0  0  0  0  0  0
    8.6406    0.5623    3.3916 C   0  0  0  0  0  0  0  0  0  0  0  0
    9.7350   -0.2568    3.6615 C   0  0  0  0  0  0  0  0  0  0  0  0
    9.5888   -1.6082    3.4285 C   0  0  0  0  0  0  0  0  0  0  0  0
    8.4176   -2.1806    2.9218 C   0  0  0  0  0  0  0  0  0  0  0  0
    7.3389   -1.3517    2.6496 C   0  0  0  0  0  0  0  0  0  0  0  0
    8.6750   -3.6395    2.8391 C   0  0  0  0  0  0  0  0  0  0  0  0
    7.9127   -4.6491    2.3557 C   0  0  0  0  0  0  0  0  0  0  0  0
    6.5723   -4.4016    1.7816 C   0  0  0  0  0  0  0  0  0  0  0  0
    6.4318   -4.1288    0.4141 C   0  0  0  0  0  0  0  0  0  0  0  0
    5.1628   -3.9369   -0.1258 C   0  0  0  0  0  0  0  0  0  0  0  0
    5.0367   -3.6669   -1.4315 F   0  0  0  0  0  0  0  0  0  0  0  0
    4.0249   -4.0226    0.6642 C   0  0  0  0  0  0  0  0  0  0  0  0
    4.1695   -4.3068    2.0146 C   0  0  0  0  0  0  0  0  0  0  0  0
    3.0802   -4.4048    2.7877 F   0  0  0  0  0  0  0  0  0  0  0  0
    5.4269   -4.4966    2.5831 C   0  0  0  0  0  0  0  0  0  0  0  0
    8.4427   -5.9736    2.3016 C   0  0  0  0  0  0  0  0  0  0  0  0
    9.1115   -6.5861    1.3439 N   0  0  0  0  0  0  0  0  0  0  0  0
    9.3620   -7.8516    1.8194 C   0  0  0  0  0  0  0  0  0  0  0  0
   10.0777   -8.9064    1.2341 C   0  0  0  0  0  0  0  0  0  0  0  0
   10.1822  -10.1177    1.9309 C   0  0  0  0  0  0  0  0  0  0  0  0
    9.5781  -10.2790    3.1806 C   0  0  0  0  0  0  0  0  0  0  0  0
    8.8601   -9.2380    3.7811 C   0  0  0  0  0  0  0  0  0  0  0  0
    8.7839   -8.0383    3.0697 C   0  0  0  0  0  0  0  0  0  0  0  0
    8.2054   -6.8279    3.3537 N   0  0  0  0  0  0  0  0  0  0  0  0
   10.0682   -3.8443    3.4191 C   0  0  0  0  0  0  0  0  0  0  0  0
   10.6493   -4.8790    3.6810 O   0  0  0  0  0  0  0  0  0  0  0  0
   10.5431   -2.5769    3.6921 N   0  0  0  0  0  0  0  0  0  0  0  0
    4.7789    2.7191    2.8911 C   0  0  0  0  0  0  0  0  0  0  0  0
    3.5335    1.8945    3.2185 C   0  0  0  0  0  0  0  0  0  0  0  0
    0.0756    0.7788    4.8729 H   0  0  0  0  0  0  0  0  0  0  0  0
    0.8195    1.5233    3.4628 H   0  0  0  0  0  0  0  0  0  0  0  0
    0.7929    2.3936    5.0127 H   0  0  0  0  0  0  0  0  0  0  0  0
    2.3244   -0.2084    4.4519 H   0  0  0  0  0  0  0  0  0  0  0  0
    2.1898    0.5777    6.0255 H   0  0  0  0  0  0  0  0  0  0  0  0
    4.7325   -0.0550    4.7181 H   0  0  0  0  0  0  0  0  0  0  0  0
    4.5309    0.7944    6.2494 H   0  0  0  0  0  0  0  0  0  0  0  0
    6.7421    1.2654    5.3340 H   0  0  0  0  0  0  0  0  0  0  0  0
    5.7862    2.7299    5.4425 H   0  0  0  0  0  0  0  0  0  0  0  0
    6.8816    2.7560    3.2569 H   0  0  0  0  0  0  0  0  0  0  0  0
    6.2751    0.9937    1.6353 H   0  0  0  0  0  0  0  0  0  0  0  0
    8.7476    1.6303    3.5668 H   0  0  0  0  0  0  0  0  0  0  0  0
   10.6563    0.1611    4.0500 H   0  0  0  0  0  0  0  0  0  0  0  0
    6.4042   -1.7418    2.2668 H   0  0  0  0  0  0  0  0  0  0  0  0
    7.3004   -4.0781   -0.2381 H   0  0  0  0  0  0  0  0  0  0  0  0
    3.0419   -3.8778    0.2322 H   0  0  0  0  0  0  0  0  0  0  0  0
    5.4944   -4.7221    3.6429 H   0  0  0  0  0  0  0  0  0  0  0  0
   10.5450   -8.7729    0.2653 H   0  0  0  0  0  0  0  0  0  0  0  0
   10.7430  -10.9394    1.4921 H   0  0  0  0  0  0  0  0  0  0  0  0
    9.6740  -11.2302    3.7005 H   0  0  0  0  0  0  0  0  0  0  0  0
    8.3980   -9.3618    4.7542 H   0  0  0  0  0  0  0  0  0  0  0  0
    7.7145   -6.5964    4.2029 H   0  0  0  0  0  0  0  0  0  0  0  0
   11.4504   -2.4188    4.1027 H   0  0  0  0  0  0  0  0  0  0  0  0
    4.8389    2.8751    1.8074 H   0  0  0  0  0  0  0  0  0  0  0  0
    4.6801    3.7135    3.3475 H   0  0  0  0  0  0  0  0  0  0  0  0
    3.5399    0.9627    2.6386 H   0  0  0  0  0  0  0  0  0  0  0  0
    2.6758    2.4837    2.8774 H   0  0  0  0  0  0  0  0  0  0  0  0
  1  2  1  0  0  0  0
  1 38  1  0  0  0  0
  1 39  1  0  0  0  0
  1 40  1  0  0  0  0
  2  3  1  0  0  0  0
  2 41  1  0  0  0  0
  2 42  1  0  0  0  0
  3  4  1  0  0  0  0
  3 37  1  0  0  0  0
  4  5  1  0  0  0  0
  4 43  1  0  0  0  0
  4 44  1  0  0  0  0
  5  6  1  0  0  0  0
  5 45  1  0  0  0  0
  5 46  1  0  0  0  0
  6  7  1  0  0  0  0
  6 36  1  0  0  0  0
  6 47  1  0  0  0  0
  7  8  1  0  0  0  0
  7 48  1  0  0  0  0
  8  9  1  0  0  0  0
  8 13  2  0  0  0  0
  9 10  2  0  0  0  0
  9 49  1  0  0  0  0
 10 11  1  0  0  0  0
 10 50  1  0  0  0  0
 11 12  2  0  0  0  0
 11 35  1  0  0  0  0
 12 13  1  0  0  0  0
 12 14  1  0  0  0  0
 13 51  1  0  0  0  0
 14 15  2  3  0  0  0
 14 33  1  0  0  0  0
 15 16  1  0  0  0  0
 15 24  1  0  0  0  0
 16 17  1  0  0  0  0
 16 23  2  0  0  0  0
 17 18  2  0  0  0  0
 17 52  1  0  0  0  0
 18 19  1  0  0  0  0
 18 20  1  0  0  0  0
 20 21  2  0  0  0  0
 20 53  1  0  0  0  0
 21 22  1  0  0  0  0
 21 23  1  0  0  0  0
 23 54  1  0  0  0  0
 24 25  2  0  0  0  0
 24 32  1  0  0  0  0
 25 26  1  0  0  0  0
 26 27  1  0  0  0  0
 26 31  2  0  0  0  0
 27 28  2  0  0  0  0
 27 55  1  0  0  0  0
 28 29  1  0  0  0  0
 28 56  1  0  0  0  0
 29 30  2  0  0  0  0
 29 57  1  0  0  0  0
 30 31  1  0  0  0  0
 30 58  1  0  0  0  0
 31 32  1  0  0  0  0
 32 59  1  0  0  0  0
 33 34  2  0  0  0  0
 33 35  1  0  0  0  0
 35 60  1  0  0  0  0
 36 37  1  0  0  0  0
 36 61  1  0  0  0  0
 36 62  1  0  0  0  0
 37 63  1  0  0  0  0
 37 64  1  0  0  0  0
M  END
$$$$
