CHEMBL3752825
 OpenBabel04072215373D

 41 43  0  0  0  0  0  0  0  0999 V2000
    1.5607    0.6230    1.6688 C   0  0  0  0  0  0  0  0  0  0  0  0
    0.4917    0.1251    0.8429 N   0  0  0  0  0  0  0  0  0  0  0  0
    0.3392    0.3405   -0.4949 C   0  0  0  0  0  0  0  0  0  0  0  0
   -0.7185   -0.2779   -0.9609 N   0  0  0  0  0  0  0  0  0  0  0  0
   -1.2712   -0.9304    0.1207 C   0  0  0  0  0  0  0  0  0  0  0  0
   -2.4705   -1.7420    0.0224 C   0  0  0  0  0  0  0  0  0  0  0  0
   -3.3511   -1.5225   -1.0426 C   0  0  0  0  0  0  0  0  0  0  0  0
   -4.5181   -2.2741   -1.1734 C   0  0  0  0  0  0  0  0  0  0  0  0
   -4.8366   -3.2400   -0.2154 C   0  0  0  0  0  0  0  0  0  0  0  0
   -6.0108   -3.9405   -0.2594 O   0  0  0  0  0  0  0  0  0  0  0  0
   -7.1987   -3.1446   -0.3382 C   0  0  0  0  0  0  0  0  0  0  0  0
   -6.9906   -1.8338   -0.5834 F   0  0  0  0  0  0  0  0  0  0  0  0
   -7.9766   -3.6384   -1.3274 F   0  0  0  0  0  0  0  0  0  0  0  0
   -7.8810   -3.2521    0.8232 F   0  0  0  0  0  0  0  0  0  0  0  0
   -3.9285   -3.5287    0.8108 C   0  0  0  0  0  0  0  0  0  0  0  0
   -4.1795   -4.6193    1.6818 N   0  0  0  0  0  0  0  0  0  0  0  0
   -3.9402   -4.5438    3.0428 C   0  0  0  0  0  0  0  0  0  0  0  0
   -3.6356   -3.5068    3.6220 O   0  0  0  0  0  0  0  0  0  0  0  0
   -4.0961   -5.7736    3.6612 N   0  0  0  0  0  0  0  0  0  0  0  0
   -4.1047   -5.9535    5.0660 C   0  0  0  0  0  0  0  0  0  0  0  0
   -4.4785   -4.9384    5.9449 C   0  0  0  0  0  0  0  0  0  0  0  0
   -4.4350   -5.1842    7.3066 C   0  0  0  0  0  0  0  0  0  0  0  0
   -4.0617   -6.3632    7.8426 N   0  0  0  0  0  0  0  0  0  0  0  0
   -3.7256   -7.3396    6.9740 C   0  0  0  0  0  0  0  0  0  0  0  0
   -3.7465   -7.1942    5.5932 C   0  0  0  0  0  0  0  0  0  0  0  0
   -2.7581   -2.7636    0.9378 C   0  0  0  0  0  0  0  0  0  0  0  0
   -0.5400   -0.6692    1.2603 C   0  0  0  0  0  0  0  0  0  0  0  0
    2.2243    1.2518    1.0696 H   0  0  0  0  0  0  0  0  0  0  0  0
    2.1159   -0.2326    2.0617 H   0  0  0  0  0  0  0  0  0  0  0  0
    1.1292    1.2079    2.4844 H   0  0  0  0  0  0  0  0  0  0  0  0
    1.0213    0.9471   -1.0784 H   0  0  0  0  0  0  0  0  0  0  0  0
   -3.1331   -0.7463   -1.7750 H   0  0  0  0  0  0  0  0  0  0  0  0
   -5.1746   -2.0712   -2.0147 H   0  0  0  0  0  0  0  0  0  0  0  0
   -4.9335   -5.2369    1.4104 H   0  0  0  0  0  0  0  0  0  0  0  0
   -3.8668   -6.5754    3.0904 H   0  0  0  0  0  0  0  0  0  0  0  0
   -4.8110   -3.9671    5.5984 H   0  0  0  0  0  0  0  0  0  0  0  0
   -4.7077   -4.4103    8.0188 H   0  0  0  0  0  0  0  0  0  0  0  0
   -3.4186   -8.2741    7.4356 H   0  0  0  0  0  0  0  0  0  0  0  0
   -3.4543   -8.0266    4.9652 H   0  0  0  0  0  0  0  0  0  0  0  0
   -2.0516   -2.9872    1.7327 H   0  0  0  0  0  0  0  0  0  0  0  0
   -0.6660   -0.9637    2.2931 H   0  0  0  0  0  0  0  0  0  0  0  0
  1  2  1  0  0  0  0
  1 28  1  0  0  0  0
  1 29  1  0  0  0  0
  1 30  1  0  0  0  0
  2  3  1  0  0  0  0
  2 27  1  0  0  0  0
  3  4  2  0  0  0  0
  3 31  1  0  0  0  0
  4  5  1  0  0  0  0
  5  6  1  0  0  0  0
  5 27  2  0  0  0  0
  6  7  1  0  0  0  0
  6 26  2  0  0  0  0
  7  8  2  0  0  0  0
  7 32  1  0  0  0  0
  8  9  1  0  0  0  0
  8 33  1  0  0  0  0
  9 10  1  0  0  0  0
  9 15  2  0  0  0  0
 10 11  1  0  0  0  0
 11 12  1  0  0  0  0
 11 13  1  0  0  0  0
 11 14  1  0  0  0  0
 15 16  1  0  0  0  0
 15 26  1  0  0  0  0
 16 17  1  0  0  0  0
 16 34  1  0  0  0  0
 17 18  2  0  0  0  0
 17 19  1  0  0  0  0
 19 20  1  0  0  0  0
 19 35  1  0  0  0  0
 20 21  1  0  0  0  0
 20 25  2  0  0  0  0
 21 22  2  0  0  0  0
 21 36  1  0  0  0  0
 22 23  1  0  0  0  0
 22 37  1  0  0  0  0
 23 24  2  0  0  0  0
 24 25  1  0  0  0  0
 24 38  1  0  0  0  0
 25 39  1  0  0  0  0
 26 40  1  0  0  0  0
 27 41  1  0  0  0  0
M  END
$$$$
