CHEMBL2113062
 OpenBabel04072215363D

 53 60  0  0  1  0  0  0  0  0999 V2000
    0.9702    0.0686   -0.4871 C   0  0  0  0  0  0  0  0  0  0  0  0
    2.4964    0.0191   -0.3628 C   0  0  2  0  0  0  0  0  0  0  0  0
    2.8134   -1.3596   -0.0429 O   0  0  0  0  0  0  0  0  0  0  0  0
    4.1244   -1.3608    0.5360 C   0  0  2  0  0  0  0  0  0  0  0  0
    4.3535    0.0249    1.1909 C   0  0  0  0  0  0  0  0  0  0  0  0
    3.0801    0.8118    0.8686 C   0  0  2  0  0  0  0  0  0  0  0  0
    2.1860    0.8327    2.1151 C   0  0  0  0  0  0  0  0  0  0  0  0
    3.3527    2.1975    0.6527 O   0  0  0  0  0  0  0  0  0  0  0  0
    5.0393   -1.6262   -0.5598 N   0  0  0  0  0  0  0  0  0  0  0  0
    6.2073   -2.4083   -0.5806 C   0  0  0  0  0  0  0  0  0  0  0  0
    6.4530   -3.6416    0.0497 C   0  0  0  0  0  0  0  0  0  0  0  0
    7.6988   -4.2415   -0.1216 C   0  0  0  0  0  0  0  0  0  0  0  0
    8.7112   -3.6282   -0.8644 C   0  0  0  0  0  0  0  0  0  0  0  0
    8.4913   -2.3841   -1.4843 C   0  0  0  0  0  0  0  0  0  0  0  0
    7.2338   -1.7622   -1.3809 C   0  0  0  0  0  0  0  0  0  0  0  0
    6.6877   -0.5696   -1.9041 C   0  0  0  0  0  0  0  0  0  0  0  0
    7.3346    0.4902   -2.5726 C   0  0  0  0  0  0  0  0  0  0  0  0
    6.4948    1.6070   -2.7890 C   0  0  0  0  0  0  0  0  0  0  0  0
    5.1590    1.4090   -2.4323 C   0  0  0  0  0  0  0  0  0  0  0  0
    4.1101    2.3383   -2.4249 C   0  0  0  0  0  0  0  0  0  0  0  0
    3.9409    3.7306   -2.3543 C   0  0  0  0  0  0  0  0  0  0  0  0
    2.6601    4.2500   -2.5562 C   0  0  0  0  0  0  0  0  0  0  0  0
    1.6435    3.4287   -3.0410 C   0  0  0  0  0  0  0  0  0  0  0  0
    1.7617    2.0381   -3.0028 C   0  0  0  0  0  0  0  0  0  0  0  0
    2.9139    1.5398   -2.3933 C   0  0  0  0  0  0  0  0  0  0  0  0
    3.1652    0.3553   -1.6473 N   0  0  0  0  0  0  0  0  0  0  0  0
    4.5129    0.3118   -1.8688 C   0  0  0  0  0  0  0  0  0  0  0  0
    5.3716   -0.6857   -1.4679 C   0  0  0  0  0  0  0  0  0  0  0  0
    7.1804    2.6912   -3.4761 C   0  0  0  0  0  0  0  0  0  0  0  0
    8.5020    2.0921   -3.5602 N   0  0  0  0  0  0  0  0  0  0  0  0
    8.6347    0.7954   -3.0564 C   0  0  0  0  0  0  0  0  0  0  0  0
    9.7054    0.2033   -3.1078 O   0  0  0  0  0  0  0  0  0  0  0  0
    0.4859   -0.2846    0.4306 H   0  0  0  0  0  0  0  0  0  0  0  0
    0.6226   -0.6112   -1.2741 H   0  0  0  0  0  0  0  0  0  0  0  0
    0.5950    1.0731   -0.6983 H   0  0  0  0  0  0  0  0  0  0  0  0
    4.2075   -2.1702    1.2661 H   0  0  0  0  0  0  0  0  0  0  0  0
    5.2542    0.5393    0.8318 H   0  0  0  0  0  0  0  0  0  0  0  0
    4.5122   -0.0778    2.2698 H   0  0  0  0  0  0  0  0  0  0  0  0
    1.9798   -0.1674    2.5027 H   0  0  0  0  0  0  0  0  0  0  0  0
    1.2405    1.3498    1.9176 H   0  0  0  0  0  0  0  0  0  0  0  0
    2.6698    1.4171    2.9108 H   0  0  0  0  0  0  0  0  0  0  0  0
    4.0881    2.2883    0.0240 H   0  0  0  0  0  0  0  0  0  0  0  0
    5.6824   -4.1460    0.6210 H   0  0  0  0  0  0  0  0  0  0  0  0
    7.8913   -5.2205    0.3327 H   0  0  0  0  0  0  0  0  0  0  0  0
    9.6768   -4.1154   -0.9631 H   0  0  0  0  0  0  0  0  0  0  0  0
    9.2855   -1.9578   -2.0493 H   0  0  0  0  0  0  0  0  0  0  0  0
    4.7569    4.3775   -2.0472 H   0  0  0  0  0  0  0  0  0  0  0  0
    2.4684    5.3056   -2.3840 H   0  0  0  0  0  0  0  0  0  0  0  0
    0.7188    3.8733   -3.3992 H   0  0  0  0  0  0  0  0  0  0  0  0
    0.9745    1.3863   -3.3658 H   0  0  0  0  0  0  0  0  0  0  0  0
    7.2241    3.6121   -2.8936 H   0  0  0  0  0  0  0  0  0  0  0  0
    6.7948    2.8529   -4.4855 H   0  0  0  0  0  0  0  0  0  0  0  0
    9.2992    2.5291   -3.9947 H   0  0  0  0  0  0  0  0  0  0  0  0
  1 33  1  0  0  0  0
  1 34  1  0  0  0  0
  1 35  1  0  0  0  0
  2  1  1  6  0  0  0
  2  3  1  0  0  0  0
  2  6  1  0  0  0  0
  2 26  1  0  0  0  0
  3  4  1  0  0  0  0
  4  5  1  0  0  0  0
  4  9  1  0  0  0  0
  4 36  1  1  0  0  0
  5  6  1  0  0  0  0
  5 37  1  0  0  0  0
  5 38  1  0  0  0  0
  6  8  1  6  0  0  0
  6  7  1  0  0  0  0
  7 39  1  0  0  0  0
  7 40  1  0  0  0  0
  7 41  1  0  0  0  0
  8 42  1  0  0  0  0
  9 10  1  0  0  0  0
  9 28  1  0  0  0  0
 10 11  1  0  0  0  0
 10 15  2  0  0  0  0
 11 12  2  0  0  0  0
 11 43  1  0  0  0  0
 12 13  1  0  0  0  0
 12 44  1  0  0  0  0
 13 14  2  0  0  0  0
 13 45  1  0  0  0  0
 14 15  1  0  0  0  0
 14 46  1  0  0  0  0
 15 16  1  0  0  0  0
 16 17  1  0  0  0  0
 16 28  2  0  0  0  0
 17 18  2  0  0  0  0
 17 31  1  0  0  0  0
 18 19  1  0  0  0  0
 18 29  1  0  0  0  0
 19 20  1  0  0  0  0
 19 27  2  0  0  0  0
 20 21  1  0  0  0  0
 20 25  2  0  0  0  0
 21 22  2  0  0  0  0
 21 47  1  0  0  0  0
 22 23  1  0  0  0  0
 22 48  1  0  0  0  0
 23 24  2  0  0  0  0
 23 49  1  0  0  0  0
 24 25  1  0  0  0  0
 24 50  1  0  0  0  0
 25 26  1  0  0  0  0
 26 27  1  0  0  0  0
 27 28  1  0  0  0  0
 29 30  1  0  0  0  0
 29 51  1  0  0  0  0
 29 52  1  0  0  0  0
 30 31  1  0  0  0  0
 30 53  1  0  0  0  0
 31 32  2  0  0  0  0
M  END
$$$$
