CHEMBL243410
 OpenBabel04072215363D

 64 66  0  0  0  0  0  0  0  0999 V2000
    1.0649    0.7943    0.8098 C   0  0  0  0  0  0  0  0  0  0  0  0
    2.2370    0.1994    0.0532 C   0  0  0  0  0  0  0  0  0  0  0  0
    2.8057    1.1687   -0.8289 O   0  0  0  0  0  0  0  0  0  0  0  0
    4.1644    1.1161   -1.0262 C   0  0  0  0  0  0  0  0  0  0  0  0
    4.7573    2.3815   -1.1962 C   0  0  0  0  0  0  0  0  0  0  0  0
    6.1271    2.5533   -1.3818 C   0  0  0  0  0  0  0  0  0  0  0  0
    6.6279    3.7853   -1.5219 N   0  0  0  0  0  0  0  0  0  0  0  0
    7.9514    3.8809   -1.6916 C   0  0  0  0  0  0  0  0  0  0  0  0
    8.8130    2.8638   -1.7594 N   0  0  0  0  0  0  0  0  0  0  0  0
    8.3085    1.6223   -1.6245 C   0  0  0  0  0  0  0  0  0  0  0  0
    9.2096    0.5132   -1.6967 N   0  0  0  0  0  0  0  0  0  0  0  0
   10.5856    0.7206   -1.6141 C   0  0  0  0  0  0  0  0  0  0  0  0
   11.1529    1.5021   -0.6931 C   0  0  0  0  0  0  0  0  0  0  0  0
   12.5424    1.9565   -0.7913 C   0  0  0  0  0  0  0  0  0  0  0  0
   12.8826    2.9532   -0.1600 O   0  0  0  0  0  0  0  0  0  0  0  0
   13.4646    1.1912   -1.6724 C   0  0  0  0  0  0  0  0  0  0  0  0
   14.8420    1.3778   -1.6590 O   0  0  0  0  0  0  0  0  0  0  0  0
   15.4732    1.8588   -0.4528 C   0  0  0  0  0  0  0  0  0  0  0  0
   15.3002    0.9084    0.7320 C   0  0  0  0  0  0  0  0  0  0  0  0
   15.8495   -0.3007    0.4242 F   0  0  0  0  0  0  0  0  0  0  0  0
   16.9634    2.0188   -0.7384 C   0  0  0  0  0  0  0  0  0  0  0  0
   17.5942    2.4924    0.3699 F   0  0  0  0  0  0  0  0  0  0  0  0
   12.9318    0.3123   -2.5369 C   0  0  0  0  0  0  0  0  0  0  0  0
   11.4710    0.0539   -2.6278 C   0  0  0  0  0  0  0  0  0  0  0  0
   11.0132   -0.6937   -3.4769 O   0  0  0  0  0  0  0  0  0  0  0  0
    6.9387    1.4170   -1.4027 C   0  0  0  0  0  0  0  0  0  0  0  0
    6.3580    0.1539   -1.1972 C   0  0  0  0  0  0  0  0  0  0  0  0
    4.9751   -0.0271   -1.0637 C   0  0  0  0  0  0  0  0  0  0  0  0
    4.4427   -1.3404   -1.0586 N   0  0  0  0  0  0  0  0  0  0  0  0
    5.1528   -2.4827   -0.7744 C   0  0  0  0  0  0  0  0  0  0  0  0
    6.3207   -2.5335   -0.4009 O   0  0  0  0  0  0  0  0  0  0  0  0
    4.3608   -3.7297   -0.8902 C   0  0  0  0  0  0  0  0  0  0  0  0
    4.9766   -4.8706   -0.5368 C   0  0  0  0  0  0  0  0  0  0  0  0
    4.3998   -6.2475   -0.4981 C   0  0  0  0  0  0  0  0  0  0  0  0
    3.2527   -6.4922   -1.3801 N   0  0  0  0  0  0  0  0  0  0  0  0
    3.6289   -6.3915   -2.7956 C   0  0  0  0  0  0  0  0  0  0  0  0
    2.7446   -7.8451   -1.1198 C   0  0  0  0  0  0  0  0  0  0  0  0
    0.4885   -0.0037    1.2900 H   0  0  0  0  0  0  0  0  0  0  0  0
    0.4057    1.3602    0.1454 H   0  0  0  0  0  0  0  0  0  0  0  0
    1.4185    1.4768    1.5884 H   0  0  0  0  0  0  0  0  0  0  0  0
    1.8462   -0.6207   -0.5560 H   0  0  0  0  0  0  0  0  0  0  0  0
    2.9626   -0.1786    0.7818 H   0  0  0  0  0  0  0  0  0  0  0  0
    4.1286    3.2710   -1.1715 H   0  0  0  0  0  0  0  0  0  0  0  0
    8.3689    4.8776   -1.7823 H   0  0  0  0  0  0  0  0  0  0  0  0
    8.9615   -0.1015   -2.4763 H   0  0  0  0  0  0  0  0  0  0  0  0
   10.5636    1.9704    0.0859 H   0  0  0  0  0  0  0  0  0  0  0  0
   15.1050    2.8560   -0.1930 H   0  0  0  0  0  0  0  0  0  0  0  0
   14.2507    0.7275    0.9747 H   0  0  0  0  0  0  0  0  0  0  0  0
   15.7991    1.2870    1.6293 H   0  0  0  0  0  0  0  0  0  0  0  0
   17.1306    2.7329   -1.5509 H   0  0  0  0  0  0  0  0  0  0  0  0
   17.4284    1.0713   -1.0287 H   0  0  0  0  0  0  0  0  0  0  0  0
   13.5552   -0.2492   -3.2203 H   0  0  0  0  0  0  0  0  0  0  0  0
    7.0345   -0.6918   -1.1759 H   0  0  0  0  0  0  0  0  0  0  0  0
    3.4561   -1.4350   -1.2645 H   0  0  0  0  0  0  0  0  0  0  0  0
    3.3315   -3.7042   -1.2209 H   0  0  0  0  0  0  0  0  0  0  0  0
    6.0160   -4.8311   -0.2088 H   0  0  0  0  0  0  0  0  0  0  0  0
    4.0948   -6.4039    0.5458 H   0  0  0  0  0  0  0  0  0  0  0  0
    5.2040   -6.9690   -0.6972 H   0  0  0  0  0  0  0  0  0  0  0  0
    3.9167   -5.3703   -3.0646 H   0  0  0  0  0  0  0  0  0  0  0  0
    2.7715   -6.6353   -3.4326 H   0  0  0  0  0  0  0  0  0  0  0  0
    4.4564   -7.0607   -3.0567 H   0  0  0  0  0  0  0  0  0  0  0  0
    2.4253   -7.9456   -0.0764 H   0  0  0  0  0  0  0  0  0  0  0  0
    3.5002   -8.6142   -1.3230 H   0  0  0  0  0  0  0  0  0  0  0  0
    1.8668   -8.0519   -1.7406 H   0  0  0  0  0  0  0  0  0  0  0  0
  1  2  1  0  0  0  0
  1 38  1  0  0  0  0
  1 39  1  0  0  0  0
  1 40  1  0  0  0  0
  2  3  1  0  0  0  0
  2 41  1  0  0  0  0
  2 42  1  0  0  0  0
  3  4  1  0  0  0  0
  4  5  1  0  0  0  0
  4 28  2  0  0  0  0
  5  6  2  0  0  0  0
  5 43  1  0  0  0  0
  6  7  1  0  0  0  0
  6 26  1  0  0  0  0
  7  8  2  0  0  0  0
  8  9  1  0  0  0  0
  8 44  1  0  0  0  0
  9 10  2  0  0  0  0
 10 11  1  0  0  0  0
 10 26  1  0  0  0  0
 11 12  1  0  0  0  0
 11 45  1  0  0  0  0
 12 13  2  0  0  0  0
 12 24  1  0  0  0  0
 13 14  1  0  0  0  0
 13 46  1  0  0  0  0
 14 15  2  0  0  0  0
 14 16  1  0  0  0  0
 16 17  1  0  0  0  0
 16 23  2  0  0  0  0
 17 18  1  0  0  0  0
 18 19  1  0  0  0  0
 18 21  1  0  0  0  0
 18 47  1  0  0  0  0
 19 20  1  0  0  0  0
 19 48  1  0  0  0  0
 19 49  1  0  0  0  0
 21 22  1  0  0  0  0
 21 50  1  0  0  0  0
 21 51  1  0  0  0  0
 23 24  1  0  0  0  0
 23 52  1  0  0  0  0
 24 25  2  0  0  0  0
 26 27  2  0  0  0  0
 27 28  1  0  0  0  0
 27 53  1  0  0  0  0
 28 29  1  0  0  0  0
 29 30  1  0  0  0  0
 29 54  1  0  0  0  0
 30 31  2  0  0  0  0
 30 32  1  0  0  0  0
 32 33  2  0  0  0  0
 32 55  1  0  0  0  0
 33 34  1  0  0  0  0
 33 56  1  0  0  0  0
 34 35  1  0  0  0  0
 34 57  1  0  0  0  0
 34 58  1  0  0  0  0
 35 36  1  0  0  0  0
 35 37  1  0  0  0  0
 36 59  1  0  0  0  0
 36 60  1  0  0  0  0
 36 61  1  0  0  0  0
 37 62  1  0  0  0  0
 37 63  1  0  0  0  0
 37 64  1  0  0  0  0
M  END
$$$$
