CHEMBL597191
 OpenBabel04072215383D

 48 51  0  0  0  0  0  0  0  0999 V2000
   10.3579   -7.8148   -5.1200 C   0  0  0  0  0  0  0  0  0  0  0  0
   10.5100   -6.7887   -4.0205 C   0  0  0  0  0  0  0  0  0  0  0  0
    9.2123   -6.3953   -3.5689 O   0  0  0  0  0  0  0  0  0  0  0  0
    9.1926   -5.4881   -2.5436 C   0  0  0  0  0  0  0  0  0  0  0  0
   10.3198   -4.9000   -1.9735 C   0  0  0  0  0  0  0  0  0  0  0  0
   10.1799   -4.0051   -0.9056 C   0  0  0  0  0  0  0  0  0  0  0  0
    8.9362   -3.7045   -0.3597 C   0  0  0  0  0  0  0  0  0  0  0  0
    8.7974   -2.8402    0.7241 N   0  0  0  0  0  0  0  0  0  0  0  0
    9.6305   -1.8757    1.2783 C   0  0  0  0  0  0  0  0  0  0  0  0
    9.1534   -1.3506    2.4175 N   0  0  0  0  0  0  0  0  0  0  0  0
    9.6459   -0.1673    2.7981 C   0  0  0  0  0  0  0  0  0  0  0  0
   10.5800    0.5116    2.0586 C   0  0  0  0  0  0  0  0  0  0  0  0
   11.1745   -0.1946    1.0267 C   0  0  0  0  0  0  0  0  0  0  0  0
   10.7108   -1.3929    0.6299 N   0  0  0  0  0  0  0  0  0  0  0  0
   12.1847    0.4814    0.1895 C   0  0  0  0  0  0  0  0  0  0  0  0
   13.5355    0.1004    0.2091 C   0  0  0  0  0  0  0  0  0  0  0  0
   14.4949    0.8086   -0.5366 C   0  0  0  0  0  0  0  0  0  0  0  0
   14.1036    1.8453   -1.3844 C   0  0  0  0  0  0  0  0  0  0  0  0
   14.9259    2.6060   -2.1677 O   0  0  0  0  0  0  0  0  0  0  0  0
   16.3280    2.4960   -1.9399 C   0  0  0  0  0  0  0  0  0  0  0  0
   12.7583    2.2096   -1.4394 C   0  0  0  0  0  0  0  0  0  0  0  0
   11.8365    1.6140   -0.5750 C   0  0  0  0  0  0  0  0  0  0  0  0
   10.6112    2.2847   -0.3964 N   0  0  0  0  0  0  0  0  0  0  0  0
   10.0354    2.5536    0.8301 C   0  0  0  0  0  0  0  0  0  0  0  0
    9.0319    3.2642    0.8953 O   0  0  0  0  0  0  0  0  0  0  0  0
   10.7031    1.9979    2.0947 C   0  0  0  0  0  0  0  0  0  0  0  0
    7.8026   -4.2611   -0.9749 C   0  0  0  0  0  0  0  0  0  0  0  0
    7.9297   -5.1504   -2.0498 C   0  0  0  0  0  0  0  0  0  0  0  0
   11.3385   -8.1337   -5.4884 H   0  0  0  0  0  0  0  0  0  0  0  0
    9.7823   -7.4053   -5.9560 H   0  0  0  0  0  0  0  0  0  0  0  0
    9.8145   -8.6955   -4.7572 H   0  0  0  0  0  0  0  0  0  0  0  0
   11.0467   -5.9209   -4.4209 H   0  0  0  0  0  0  0  0  0  0  0  0
   11.0806   -7.2356   -3.1962 H   0  0  0  0  0  0  0  0  0  0  0  0
   11.3223   -5.1033   -2.3241 H   0  0  0  0  0  0  0  0  0  0  0  0
   11.0842   -3.5764   -0.4862 H   0  0  0  0  0  0  0  0  0  0  0  0
    7.9360   -2.8938    1.2482 H   0  0  0  0  0  0  0  0  0  0  0  0
    9.1738    0.2726    3.6711 H   0  0  0  0  0  0  0  0  0  0  0  0
   13.8619   -0.7156    0.8516 H   0  0  0  0  0  0  0  0  0  0  0  0
   15.5380    0.5274   -0.4285 H   0  0  0  0  0  0  0  0  0  0  0  0
   16.8309    3.2157   -2.5890 H   0  0  0  0  0  0  0  0  0  0  0  0
   16.6867    1.4959   -2.2055 H   0  0  0  0  0  0  0  0  0  0  0  0
   16.5806    2.7423   -0.9030 H   0  0  0  0  0  0  0  0  0  0  0  0
   12.4658    3.0459   -2.0699 H   0  0  0  0  0  0  0  0  0  0  0  0
   10.2509    2.8612   -1.1483 H   0  0  0  0  0  0  0  0  0  0  0  0
   10.1981    2.4151    2.9724 H   0  0  0  0  0  0  0  0  0  0  0  0
   11.7474    2.3272    2.1455 H   0  0  0  0  0  0  0  0  0  0  0  0
    6.8019   -4.0096   -0.6264 H   0  0  0  0  0  0  0  0  0  0  0  0
    7.0412   -5.5869   -2.5050 H   0  0  0  0  0  0  0  0  0  0  0  0
  1  2  1  0  0  0  0
  1 29  1  0  0  0  0
  1 30  1  0  0  0  0
  1 31  1  0  0  0  0
  2  3  1  0  0  0  0
  2 32  1  0  0  0  0
  2 33  1  0  0  0  0
  3  4  1  0  0  0  0
  4  5  1  0  0  0  0
  4 28  2  0  0  0  0
  5  6  2  0  0  0  0
  5 34  1  0  0  0  0
  6  7  1  0  0  0  0
  6 35  1  0  0  0  0
  7  8  1  0  0  0  0
  7 27  2  0  0  0  0
  8  9  1  0  0  0  0
  8 36  1  0  0  0  0
  9 10  1  0  0  0  0
  9 14  2  0  0  0  0
 10 11  2  0  0  0  0
 11 12  1  0  0  0  0
 11 37  1  0  0  0  0
 12 13  2  0  0  0  0
 12 26  1  0  0  0  0
 13 14  1  0  0  0  0
 13 15  1  0  0  0  0
 15 16  1  0  0  0  0
 15 22  2  0  0  0  0
 16 17  2  0  0  0  0
 16 38  1  0  0  0  0
 17 18  1  0  0  0  0
 17 39  1  0  0  0  0
 18 19  1  0  0  0  0
 18 21  2  0  0  0  0
 19 20  1  0  0  0  0
 20 40  1  0  0  0  0
 20 41  1  0  0  0  0
 20 42  1  0  0  0  0
 21 22  1  0  0  0  0
 21 43  1  0  0  0  0
 22 23  1  0  0  0  0
 23 24  1  0  0  0  0
 23 44  1  0  0  0  0
 24 25  2  0  0  0  0
 24 26  1  0  0  0  0
 26 45  1  0  0  0  0
 26 46  1  0  0  0  0
 27 28  1  0  0  0  0
 27 47  1  0  0  0  0
 28 48  1  0  0  0  0
M  END
$$$$
