CHEMBL453336
 OpenBabel04072215383D

 64 68  0  0  0  0  0  0  0  0999 V2000
    4.4460   -0.0346    2.5344 C   0  0  0  0  0  0  0  0  0  0  0  0
    4.8067    0.1029    1.1624 O   0  0  0  0  0  0  0  0  0  0  0  0
    4.3036    1.1869    0.4883 C   0  0  0  0  0  0  0  0  0  0  0  0
    3.9273    2.3658    1.1478 C   0  0  0  0  0  0  0  0  0  0  0  0
    3.4541    3.4968    0.4646 C   0  0  0  0  0  0  0  0  0  0  0  0
    2.9604    4.6611    1.2152 C   0  0  0  0  0  0  0  0  0  0  0  0
    2.9418    5.9722    0.9220 C   0  0  0  0  0  0  0  0  0  0  0  0
    3.5483    6.7696   -0.0885 C   0  0  0  0  0  0  0  0  0  0  0  0
    4.8025    7.2914    0.1448 C   0  0  0  0  0  0  0  0  0  0  0  0
    4.7319    8.6167   -0.2193 N   0  0  0  0  0  0  0  0  0  0  0  0
    5.6489    9.6269    0.2799 C   0  0  0  0  0  0  0  0  0  0  0  0
    6.9886    9.2928   -0.0736 O   0  0  0  0  0  0  0  0  0  0  0  0
    7.1857    9.3579   -1.4840 C   0  0  0  0  0  0  0  0  0  0  0  0
    8.6302    9.1228   -1.8156 C   0  0  0  0  0  0  0  0  0  0  0  0
    8.9562    8.4384   -2.9879 C   0  0  0  0  0  0  0  0  0  0  0  0
   10.2924    8.2489   -3.3515 C   0  0  0  0  0  0  0  0  0  0  0  0
   11.3071    8.7399   -2.5418 C   0  0  0  0  0  0  0  0  0  0  0  0
   10.9962    9.4344   -1.3682 C   0  0  0  0  0  0  0  0  0  0  0  0
    9.6609    9.6244   -1.0084 C   0  0  0  0  0  0  0  0  0  0  0  0
    3.5878    8.8459   -0.9616 C   0  0  0  0  0  0  0  0  0  0  0  0
    3.0694   10.0249   -1.5205 C   0  0  0  0  0  0  0  0  0  0  0  0
    1.8701    9.9452   -2.2311 C   0  0  0  0  0  0  0  0  0  0  0  0
    1.2117    8.7297   -2.3874 C   0  0  0  0  0  0  0  0  0  0  0  0
    1.6921    7.5735   -1.7596 C   0  0  0  0  0  0  0  0  0  0  0  0
    2.8916    7.6301   -1.0195 C   0  0  0  0  0  0  0  0  0  0  0  0
    2.3849    6.8334    2.0232 C   0  0  0  0  0  0  0  0  0  0  0  0
    2.1652    5.8801    3.0412 N   0  0  0  0  0  0  0  0  0  0  0  0
    2.4605    4.6098    2.6297 C   0  0  0  0  0  0  0  0  0  0  0  0
    2.3676    3.6273    3.3479 O   0  0  0  0  0  0  0  0  0  0  0  0
    3.4066    3.4428   -0.9308 C   0  0  0  0  0  0  0  0  0  0  0  0
    3.8225    2.2930   -1.6199 C   0  0  0  0  0  0  0  0  0  0  0  0
    3.7877    2.2060   -2.9944 O   0  0  0  0  0  0  0  0  0  0  0  0
    4.0716    3.4202   -3.6828 C   0  0  0  0  0  0  0  0  0  0  0  0
    4.2360    1.1429   -0.9138 C   0  0  0  0  0  0  0  0  0  0  0  0
    4.6023    0.0687   -1.6931 O   0  0  0  0  0  0  0  0  0  0  0  0
    4.3338   -1.2254   -1.1640 C   0  0  0  0  0  0  0  0  0  0  0  0
    4.8273   -0.9988    2.8838 H   0  0  0  0  0  0  0  0  0  0  0  0
    3.3577   -0.0385    2.6590 H   0  0  0  0  0  0  0  0  0  0  0  0
    4.9146    0.7372    3.1530 H   0  0  0  0  0  0  0  0  0  0  0  0
    4.0107    2.4174    2.2279 H   0  0  0  0  0  0  0  0  0  0  0  0
    5.6067    6.9537    0.7875 H   0  0  0  0  0  0  0  0  0  0  0  0
    5.5605    9.6228    1.3719 H   0  0  0  0  0  0  0  0  0  0  0  0
    5.3795   10.6193   -0.0915 H   0  0  0  0  0  0  0  0  0  0  0  0
    6.8853   10.3414   -1.8638 H   0  0  0  0  0  0  0  0  0  0  0  0
    6.5790    8.5853   -1.9688 H   0  0  0  0  0  0  0  0  0  0  0  0
    8.1764    8.0458   -3.6370 H   0  0  0  0  0  0  0  0  0  0  0  0
   10.5354    7.7084   -4.2607 H   0  0  0  0  0  0  0  0  0  0  0  0
   12.3476    8.5912   -2.8116 H   0  0  0  0  0  0  0  0  0  0  0  0
   11.7880    9.8136   -0.7273 H   0  0  0  0  0  0  0  0  0  0  0  0
    9.4264   10.1628   -0.0911 H   0  0  0  0  0  0  0  0  0  0  0  0
    3.5605   10.9847   -1.3942 H   0  0  0  0  0  0  0  0  0  0  0  0
    1.4456   10.8488   -2.6637 H   0  0  0  0  0  0  0  0  0  0  0  0
    0.2975    8.6858   -2.9749 H   0  0  0  0  0  0  0  0  0  0  0  0
    1.1456    6.6389   -1.8557 H   0  0  0  0  0  0  0  0  0  0  0  0
    1.4389    7.3060    1.7528 H   0  0  0  0  0  0  0  0  0  0  0  0
    3.0949    7.5841    2.3905 H   0  0  0  0  0  0  0  0  0  0  0  0
    1.9228    6.0831    4.0004 H   0  0  0  0  0  0  0  0  0  0  0  0
    3.0144    4.2917   -1.4797 H   0  0  0  0  0  0  0  0  0  0  0  0
    4.3019    3.1704   -4.7221 H   0  0  0  0  0  0  0  0  0  0  0  0
    4.9425    3.9331   -3.2596 H   0  0  0  0  0  0  0  0  0  0  0  0
    3.1950    4.0756   -3.6868 H   0  0  0  0  0  0  0  0  0  0  0  0
    4.2896   -1.9261   -2.0042 H   0  0  0  0  0  0  0  0  0  0  0  0
    3.3701   -1.2745   -0.6450 H   0  0  0  0  0  0  0  0  0  0  0  0
    5.1530   -1.5572   -0.5193 H   0  0  0  0  0  0  0  0  0  0  0  0
  1  2  1  0  0  0  0
  1 37  1  0  0  0  0
  1 38  1  0  0  0  0
  1 39  1  0  0  0  0
  2  3  1  0  0  0  0
  3  4  1  0  0  0  0
  3 34  2  0  0  0  0
  4  5  2  0  0  0  0
  4 40  1  0  0  0  0
  5  6  1  0  0  0  0
  5 30  1  0  0  0  0
  6  7  2  0  0  0  0
  6 28  1  0  0  0  0
  7  8  1  0  0  0  0
  7 26  1  0  0  0  0
  8  9  2  0  0  0  0
  8 25  1  0  0  0  0
  9 10  1  0  0  0  0
  9 41  1  0  0  0  0
 10 11  1  0  0  0  0
 10 20  1  0  0  0  0
 11 12  1  0  0  0  0
 11 42  1  0  0  0  0
 11 43  1  0  0  0  0
 12 13  1  0  0  0  0
 13 14  1  0  0  0  0
 13 44  1  0  0  0  0
 13 45  1  0  0  0  0
 14 15  1  0  0  0  0
 14 19  2  0  0  0  0
 15 16  2  0  0  0  0
 15 46  1  0  0  0  0
 16 17  1  0  0  0  0
 16 47  1  0  0  0  0
 17 18  2  0  0  0  0
 17 48  1  0  0  0  0
 18 19  1  0  0  0  0
 18 49  1  0  0  0  0
 19 50  1  0  0  0  0
 20 21  1  0  0  0  0
 20 25  2  0  0  0  0
 21 22  2  0  0  0  0
 21 51  1  0  0  0  0
 22 23  1  0  0  0  0
 22 52  1  0  0  0  0
 23 24  2  0  0  0  0
 23 53  1  0  0  0  0
 24 25  1  0  0  0  0
 24 54  1  0  0  0  0
 26 27  1  0  0  0  0
 26 55  1  0  0  0  0
 26 56  1  0  0  0  0
 27 28  1  0  0  0  0
 27 57  1  0  0  0  0
 28 29  2  0  0  0  0
 30 31  2  0  0  0  0
 30 58  1  0  0  0  0
 31 32  1  0  0  0  0
 31 34  1  0  0  0  0
 32 33  1  0  0  0  0
 33 59  1  0  0  0  0
 33 60  1  0  0  0  0
 33 61  1  0  0  0  0
 34 35  1  0  0  0  0
 35 36  1  0  0  0  0
 36 62  1  0  0  0  0
 36 63  1  0  0  0  0
 36 64  1  0  0  0  0
M  END
$$$$
