CHEMBL1254437
 OpenBabel04072215363D

 56 59  0  0  0  0  0  0  0  0999 V2000
    2.4459   -1.2481   -0.1629 C   0  0  0  0  0  0  0  0  0  0  0  0
    1.2308   -0.6905    0.3797 N   0  0  0  0  0  0  0  0  0  0  0  0
    1.2620    0.6098    0.7363 N   0  0  0  0  0  0  0  0  0  0  0  0
    0.0468    0.8610    1.2344 C   0  0  0  0  0  0  0  0  0  0  0  0
   -0.2955    2.2332    1.8008 C   0  0  0  0  0  0  0  0  0  0  0  0
   -0.1785    3.3179    0.7111 C   0  0  0  0  0  0  0  0  0  0  0  0
   -1.7355    2.2755    2.3572 C   0  0  0  0  0  0  0  0  0  0  0  0
    0.6668    2.5852    2.9534 C   0  0  0  0  0  0  0  0  0  0  0  0
   -0.7611   -0.2973    1.1598 C   0  0  0  0  0  0  0  0  0  0  0  0
   -0.0014   -1.2850    0.5638 C   0  0  0  0  0  0  0  0  0  0  0  0
   -0.4264   -2.5955    0.2721 N   0  0  0  0  0  0  0  0  0  0  0  0
   -1.8313   -2.9074    0.1808 C   0  0  0  0  0  0  0  0  0  0  0  0
   -2.6670   -2.0179    0.1783 O   0  0  0  0  0  0  0  0  0  0  0  0
   -2.0981   -4.2564    0.1210 N   0  0  0  0  0  0  0  0  0  0  0  0
   -3.4592   -4.7050    0.0876 C   0  0  0  0  0  0  0  0  0  0  0  0
   -4.3833   -4.1484   -0.8189 C   0  0  0  0  0  0  0  0  0  0  0  0
   -5.7126   -4.5934   -0.8424 C   0  0  0  0  0  0  0  0  0  0  0  0
   -6.1590   -5.5793    0.0375 C   0  0  0  0  0  0  0  0  0  0  0  0
   -7.4706   -5.9876   -0.0956 O   0  0  0  0  0  0  0  0  0  0  0  0
   -8.1623   -6.4185    1.0331 C   0  0  0  0  0  0  0  0  0  0  0  0
   -7.8381   -5.9259    2.2510 N   0  0  0  0  0  0  0  0  0  0  0  0
   -8.5222   -6.3739    3.3179 C   0  0  0  0  0  0  0  0  0  0  0  0
   -9.5206   -7.2618    3.3387 N   0  0  0  0  0  0  0  0  0  0  0  0
   -9.8630   -7.7153    2.1155 C   0  0  0  0  0  0  0  0  0  0  0  0
  -10.8731   -8.6416    1.7715 C   0  0  0  0  0  0  0  0  0  0  0  0
  -10.8509   -8.7799    0.4013 C   0  0  0  0  0  0  0  0  0  0  0  0
   -9.8515   -7.9731   -0.0890 N   0  0  0  0  0  0  0  0  0  0  0  0
   -9.5303   -7.8481   -1.4936 C   0  0  0  0  0  0  0  0  0  0  0  0
   -9.2233   -7.3143    0.9458 C   0  0  0  0  0  0  0  0  0  0  0  0
   -5.2417   -6.1494    0.9288 C   0  0  0  0  0  0  0  0  0  0  0  0
   -3.9107   -5.7098    0.9547 C   0  0  0  0  0  0  0  0  0  0  0  0
   -2.8582   -6.3574    2.1650 Cl  0  0  0  0  0  0  0  0  0  0  0  0
    3.2458   -0.5009   -0.0904 H   0  0  0  0  0  0  0  0  0  0  0  0
    2.2831   -1.4991   -1.2124 H   0  0  0  0  0  0  0  0  0  0  0  0
    2.7235   -2.1253    0.4234 H   0  0  0  0  0  0  0  0  0  0  0  0
   -0.8744    3.1302   -0.1148 H   0  0  0  0  0  0  0  0  0  0  0  0
    0.8316    3.3597    0.2880 H   0  0  0  0  0  0  0  0  0  0  0  0
   -0.4047    4.3109    1.1179 H   0  0  0  0  0  0  0  0  0  0  0  0
   -2.4743    2.0772    1.5712 H   0  0  0  0  0  0  0  0  0  0  0  0
   -1.9684    3.2564    2.7869 H   0  0  0  0  0  0  0  0  0  0  0  0
   -1.8820    1.5285    3.1465 H   0  0  0  0  0  0  0  0  0  0  0  0
    1.7082    2.6188    2.6129 H   0  0  0  0  0  0  0  0  0  0  0  0
    0.6072    1.8444    3.7592 H   0  0  0  0  0  0  0  0  0  0  0  0
    0.4299    3.5661    3.3815 H   0  0  0  0  0  0  0  0  0  0  0  0
   -1.7787   -0.3782    1.5132 H   0  0  0  0  0  0  0  0  0  0  0  0
    0.2617   -3.2989    0.0464 H   0  0  0  0  0  0  0  0  0  0  0  0
   -1.4478   -4.8800    0.5799 H   0  0  0  0  0  0  0  0  0  0  0  0
   -4.0805   -3.3817   -1.5225 H   0  0  0  0  0  0  0  0  0  0  0  0
   -6.4108   -4.1526   -1.5593 H   0  0  0  0  0  0  0  0  0  0  0  0
   -8.2229   -5.9720    4.2812 H   0  0  0  0  0  0  0  0  0  0  0  0
  -11.5445   -9.1447    2.4543 H   0  0  0  0  0  0  0  0  0  0  0  0
  -11.4666   -9.3842   -0.2541 H   0  0  0  0  0  0  0  0  0  0  0  0
  -10.2033   -8.4819   -2.0791 H   0  0  0  0  0  0  0  0  0  0  0  0
   -8.4987   -8.1752   -1.6418 H   0  0  0  0  0  0  0  0  0  0  0  0
   -9.6602   -6.8040   -1.7876 H   0  0  0  0  0  0  0  0  0  0  0  0
   -5.5656   -6.9194    1.6231 H   0  0  0  0  0  0  0  0  0  0  0  0
  1  2  1  0  0  0  0
  1 33  1  0  0  0  0
  1 34  1  0  0  0  0
  1 35  1  0  0  0  0
  2  3  1  0  0  0  0
  2 10  1  0  0  0  0
  3  4  2  0  0  0  0
  4  5  1  0  0  0  0
  4  9  1  0  0  0  0
  5  6  1  0  0  0  0
  5  7  1  0  0  0  0
  5  8  1  0  0  0  0
  6 36  1  0  0  0  0
  6 37  1  0  0  0  0
  6 38  1  0  0  0  0
  7 39  1  0  0  0  0
  7 40  1  0  0  0  0
  7 41  1  0  0  0  0
  8 42  1  0  0  0  0
  8 43  1  0  0  0  0
  8 44  1  0  0  0  0
  9 10  2  0  0  0  0
  9 45  1  0  0  0  0
 10 11  1  0  0  0  0
 11 12  1  0  0  0  0
 11 46  1  0  0  0  0
 12 13  2  0  0  0  0
 12 14  1  0  0  0  0
 14 15  1  0  0  0  0
 14 47  1  0  0  0  0
 15 16  1  0  0  0  0
 15 31  2  0  0  0  0
 16 17  2  0  0  0  0
 16 48  1  0  0  0  0
 17 18  1  0  0  0  0
 17 49  1  0  0  0  0
 18 19  1  0  0  0  0
 18 30  2  0  0  0  0
 19 20  1  0  0  0  0
 20 21  1  0  0  0  0
 20 29  2  0  0  0  0
 21 22  2  0  0  0  0
 22 23  1  0  0  0  0
 22 50  1  0  0  0  0
 23 24  2  0  0  0  0
 24 25  1  0  0  0  0
 24 29  1  0  0  0  0
 25 26  2  0  0  0  0
 25 51  1  0  0  0  0
 26 27  1  0  0  0  0
 26 52  1  0  0  0  0
 27 28  1  0  0  0  0
 27 29  1  0  0  0  0
 28 53  1  0  0  0  0
 28 54  1  0  0  0  0
 28 55  1  0  0  0  0
 30 31  1  0  0  0  0
 30 56  1  0  0  0  0
 31 32  1  0  0  0  0
M  END
$$$$
