CHEMBL1762531
 OpenBabel04072215363D

 67 71  0  0  0  0  0  0  0  0999 V2000
    2.1808    0.6815    1.1277 C   0  0  0  0  0  0  0  0  0  0  0  0
    3.4730    0.2434    0.5896 N   0  0  0  0  0  0  0  0  0  0  0  0
    4.1907   -0.7083    1.3442 C   0  0  0  0  0  0  0  0  0  0  0  0
    3.5572   -1.7170    2.0837 C   0  0  0  0  0  0  0  0  0  0  0  0
    4.2844   -2.5852    2.9013 C   0  0  0  0  0  0  0  0  0  0  0  0
    5.6720   -2.4778    2.9847 C   0  0  0  0  0  0  0  0  0  0  0  0
    6.4881   -3.5494    4.0667 Cl  0  0  0  0  0  0  0  0  0  0  0  0
    6.3562   -1.5190    2.2245 C   0  0  0  0  0  0  0  0  0  0  0  0
    7.8520   -1.3458    2.3245 C   0  0  0  0  0  0  0  0  0  0  0  0
    8.4193   -0.8025    1.1356 O   0  0  0  0  0  0  0  0  0  0  0  0
    5.5938   -0.6393    1.4234 C   0  0  0  0  0  0  0  0  0  0  0  0
    3.8254    0.7285   -0.6957 C   0  0  0  0  0  0  0  0  0  0  0  0
    3.3959    1.9822   -1.1133 C   0  0  0  0  0  0  0  0  0  0  0  0
    3.7658    2.3901   -2.3665 C   0  0  0  0  0  0  0  0  0  0  0  0
    4.5006    1.6416   -3.1822 N   0  0  0  0  0  0  0  0  0  0  0  0
    4.8952    0.4361   -2.7403 C   0  0  0  0  0  0  0  0  0  0  0  0
    5.6311   -0.3772   -3.6082 N   0  0  0  0  0  0  0  0  0  0  0  0
    6.4747    0.0417   -4.6555 C   0  0  0  0  0  0  0  0  0  0  0  0
    7.0947    1.2974   -4.6256 C   0  0  0  0  0  0  0  0  0  0  0  0
    7.8760    1.7924   -5.6738 C   0  0  0  0  0  0  0  0  0  0  0  0
    8.4748    3.0322   -5.5668 N   0  0  0  0  0  0  0  0  0  0  0  0
    9.6533    3.4258   -6.3467 C   0  0  0  0  0  0  0  0  0  0  0  0
   10.5241    4.3573   -5.4804 C   0  0  0  0  0  0  0  0  0  0  0  0
    9.7851    5.4898   -4.9857 O   0  0  0  0  0  0  0  0  0  0  0  0
    8.6566    5.0491   -4.2072 C   0  0  0  0  0  0  0  0  0  0  0  0
    7.7112    4.1813   -5.0490 C   0  0  0  0  0  0  0  0  0  0  0  0
    8.0485    0.9479   -6.7751 C   0  0  0  0  0  0  0  0  0  0  0  0
    7.4833   -0.3403   -6.8563 C   0  0  0  0  0  0  0  0  0  0  0  0
    7.7264   -1.1591   -7.9430 N   0  0  0  0  0  0  0  0  0  0  0  0
    8.9995   -1.1313   -8.6770 C   0  0  0  0  0  0  0  0  0  0  0  0
    8.7580   -0.7292  -10.1365 C   0  0  0  0  0  0  0  0  0  0  0  0
    7.8083   -1.6086  -10.7625 O   0  0  0  0  0  0  0  0  0  0  0  0
    6.5462   -1.5469  -10.0734 C   0  0  0  0  0  0  0  0  0  0  0  0
    6.6671   -1.9466   -8.5881 C   0  0  0  0  0  0  0  0  0  0  0  0
    6.6836   -0.7655   -5.7799 C   0  0  0  0  0  0  0  0  0  0  0  0
    4.5825   -0.0405   -1.5208 N   0  0  0  0  0  0  0  0  0  0  0  0
    1.9553    0.2771    2.1211 H   0  0  0  0  0  0  0  0  0  0  0  0
    1.3638    0.3890    0.4576 H   0  0  0  0  0  0  0  0  0  0  0  0
    2.1554    1.7665    1.2718 H   0  0  0  0  0  0  0  0  0  0  0  0
    2.4801   -1.8497    2.0320 H   0  0  0  0  0  0  0  0  0  0  0  0
    3.7547   -3.3384    3.4809 H   0  0  0  0  0  0  0  0  0  0  0  0
    8.3543   -2.3024    2.4915 H   0  0  0  0  0  0  0  0  0  0  0  0
    8.0910   -0.6747    3.1555 H   0  0  0  0  0  0  0  0  0  0  0  0
    7.9561   -1.2090    0.3825 H   0  0  0  0  0  0  0  0  0  0  0  0
    6.1053    0.1540    0.8775 H   0  0  0  0  0  0  0  0  0  0  0  0
    2.8170    2.6497   -0.4989 H   0  0  0  0  0  0  0  0  0  0  0  0
    3.4694    3.3566   -2.7572 H   0  0  0  0  0  0  0  0  0  0  0  0
    5.8073   -1.2890   -3.2164 H   0  0  0  0  0  0  0  0  0  0  0  0
    7.0016    1.8935   -3.7221 H   0  0  0  0  0  0  0  0  0  0  0  0
    9.3290    3.9506   -7.2531 H   0  0  0  0  0  0  0  0  0  0  0  0
   10.2621    2.5636   -6.6399 H   0  0  0  0  0  0  0  0  0  0  0  0
   11.3615    4.7403   -6.0713 H   0  0  0  0  0  0  0  0  0  0  0  0
   10.9409    3.8101   -4.6256 H   0  0  0  0  0  0  0  0  0  0  0  0
    8.1300    5.9385   -3.8484 H   0  0  0  0  0  0  0  0  0  0  0  0
    9.0189    4.4957   -3.3321 H   0  0  0  0  0  0  0  0  0  0  0  0
    7.3379    4.7628   -5.9016 H   0  0  0  0  0  0  0  0  0  0  0  0
    6.8429    3.9006   -4.4456 H   0  0  0  0  0  0  0  0  0  0  0  0
    8.6049    1.3236   -7.6273 H   0  0  0  0  0  0  0  0  0  0  0  0
    9.4163   -2.1453   -8.6504 H   0  0  0  0  0  0  0  0  0  0  0  0
    9.7479   -0.4761   -8.2189 H   0  0  0  0  0  0  0  0  0  0  0  0
    9.6946   -0.7967  -10.6993 H   0  0  0  0  0  0  0  0  0  0  0  0
    8.3951    0.3028  -10.2125 H   0  0  0  0  0  0  0  0  0  0  0  0
    5.8612   -2.2299  -10.5859 H   0  0  0  0  0  0  0  0  0  0  0  0
    6.1423   -0.5325  -10.1747 H   0  0  0  0  0  0  0  0  0  0  0  0
    6.9416   -3.0057   -8.5203 H   0  0  0  0  0  0  0  0  0  0  0  0
    5.6904   -1.8197   -8.1089 H   0  0  0  0  0  0  0  0  0  0  0  0
    6.2242   -1.7490   -5.8103 H   0  0  0  0  0  0  0  0  0  0  0  0
  1  2  1  0  0  0  0
  1 37  1  0  0  0  0
  1 38  1  0  0  0  0
  1 39  1  0  0  0  0
  2  3  1  0  0  0  0
  2 12  1  0  0  0  0
  3  4  1  0  0  0  0
  3 11  2  0  0  0  0
  4  5  2  0  0  0  0
  4 40  1  0  0  0  0
  5  6  1  0  0  0  0
  5 41  1  0  0  0  0
  6  7  1  0  0  0  0
  6  8  2  0  0  0  0
  8  9  1  0  0  0  0
  8 11  1  0  0  0  0
  9 10  1  0  0  0  0
  9 42  1  0  0  0  0
  9 43  1  0  0  0  0
 10 44  1  0  0  0  0
 11 45  1  0  0  0  0
 12 13  1  0  0  0  0
 12 36  2  0  0  0  0
 13 14  2  0  0  0  0
 13 46  1  0  0  0  0
 14 15  1  0  0  0  0
 14 47  1  0  0  0  0
 15 16  2  0  0  0  0
 16 17  1  0  0  0  0
 16 36  1  0  0  0  0
 17 18  1  0  0  0  0
 17 48  1  0  0  0  0
 18 19  1  0  0  0  0
 18 35  2  0  0  0  0
 19 20  2  0  0  0  0
 19 49  1  0  0  0  0
 20 21  1  0  0  0  0
 20 27  1  0  0  0  0
 21 22  1  0  0  0  0
 21 26  1  0  0  0  0
 22 23  1  0  0  0  0
 22 50  1  0  0  0  0
 22 51  1  0  0  0  0
 23 24  1  0  0  0  0
 23 52  1  0  0  0  0
 23 53  1  0  0  0  0
 24 25  1  0  0  0  0
 25 26  1  0  0  0  0
 25 54  1  0  0  0  0
 25 55  1  0  0  0  0
 26 56  1  0  0  0  0
 26 57  1  0  0  0  0
 27 28  2  0  0  0  0
 27 58  1  0  0  0  0
 28 29  1  0  0  0  0
 28 35  1  0  0  0  0
 29 30  1  0  0  0  0
 29 34  1  0  0  0  0
 30 31  1  0  0  0  0
 30 59  1  0  0  0  0
 30 60  1  0  0  0  0
 31 32  1  0  0  0  0
 31 61  1  0  0  0  0
 31 62  1  0  0  0  0
 32 33  1  0  0  0  0
 33 34  1  0  0  0  0
 33 63  1  0  0  0  0
 33 64  1  0  0  0  0
 34 65  1  0  0  0  0
 34 66  1  0  0  0  0
 35 67  1  0  0  0  0
M  END
$$$$
