CHEMBL4088941
 OpenBabel04072215383D

 41 44  0  0  1  0  0  0  0  0999 V2000
    1.0790   -1.6540    2.3213 C   0  0  0  0  0  0  0  0  0  0  0  0
    1.6872   -0.9717    1.0872 C   0  0  1  0  0  0  0  0  0  0  0  0
    2.8340   -0.1267    1.4410 N   0  0  0  0  0  0  0  0  0  0  0  0
    2.5961    0.9190    2.3374 C   0  0  0  0  0  0  0  0  0  0  0  0
    1.3765    1.5039    2.4231 N   0  0  0  0  0  0  0  0  0  0  0  0
    1.1639    2.4605    3.3408 C   0  0  0  0  0  0  0  0  0  0  0  0
   -0.0967    3.0270    3.3644 N   0  0  0  0  0  0  0  0  0  0  0  0
    2.0308    2.8904    4.2640 N   0  0  0  0  0  0  0  0  0  0  0  0
    3.2329    2.3160    4.1355 C   0  0  0  0  0  0  0  0  0  0  0  0
    4.3050    2.5690    4.9438 N   0  0  0  0  0  0  0  0  0  0  0  0
    5.4001    1.8498    4.5250 C   0  0  0  0  0  0  0  0  0  0  0  0
    6.7038    1.8087    5.0352 C   0  0  0  0  0  0  0  0  0  0  0  0
    7.6327    0.9945    4.3789 C   0  0  0  0  0  0  0  0  0  0  0  0
    7.2560    0.2519    3.2652 C   0  0  0  0  0  0  0  0  0  0  0  0
    8.1564   -0.5318    2.6023 O   0  0  0  0  0  0  0  0  0  0  0  0
    5.9496    0.2791    2.7779 C   0  0  0  0  0  0  0  0  0  0  0  0
    4.9953    1.0959    3.4177 C   0  0  0  0  0  0  0  0  0  0  0  0
    3.6061    1.3718    3.1999 C   0  0  0  0  0  0  0  0  0  0  0  0
    2.1560   -2.0812    0.1452 C   0  0  0  0  0  0  0  0  0  0  0  0
    1.2850   -2.5902   -0.8312 C   0  0  0  0  0  0  0  0  0  0  0  0
    1.6520   -3.6943   -1.6049 C   0  0  0  0  0  0  0  0  0  0  0  0
    2.8944   -4.2982   -1.4197 C   0  0  0  0  0  0  0  0  0  0  0  0
    3.7773   -3.7944   -0.4683 C   0  0  0  0  0  0  0  0  0  0  0  0
    3.4090   -2.6984    0.3117 C   0  0  0  0  0  0  0  0  0  0  0  0
    0.5963   -0.9352    2.9907 H   0  0  0  0  0  0  0  0  0  0  0  0
    1.8439   -2.1814    2.9037 H   0  0  0  0  0  0  0  0  0  0  0  0
    0.3163   -2.3872    2.0343 H   0  0  0  0  0  0  0  0  0  0  0  0
    0.9284   -0.3685    0.5710 H   0  0  0  0  0  0  0  0  0  0  0  0
    3.2339    0.2804    0.6005 H   0  0  0  0  0  0  0  0  0  0  0  0
   -0.7588    2.3946    2.9388 H   0  0  0  0  0  0  0  0  0  0  0  0
   -0.3009    3.3616    4.2954 H   0  0  0  0  0  0  0  0  0  0  0  0
    4.2792    3.2026    5.7272 H   0  0  0  0  0  0  0  0  0  0  0  0
    6.9922    2.3911    5.9047 H   0  0  0  0  0  0  0  0  0  0  0  0
    8.6511    0.9566    4.7548 H   0  0  0  0  0  0  0  0  0  0  0  0
    9.0236   -0.4373    3.0286 H   0  0  0  0  0  0  0  0  0  0  0  0
    5.6789   -0.3121    1.9087 H   0  0  0  0  0  0  0  0  0  0  0  0
    0.3009   -2.1494   -0.9741 H   0  0  0  0  0  0  0  0  0  0  0  0
    0.9601   -4.0960   -2.3407 H   0  0  0  0  0  0  0  0  0  0  0  0
    3.1714   -5.1683   -2.0088 H   0  0  0  0  0  0  0  0  0  0  0  0
    4.7449   -4.2647   -0.3158 H   0  0  0  0  0  0  0  0  0  0  0  0
    4.0972   -2.3404    1.0759 H   0  0  0  0  0  0  0  0  0  0  0  0
  1  2  1  0  0  0  0
  1 25  1  0  0  0  0
  1 26  1  0  0  0  0
  1 27  1  0  0  0  0
  2  3  1  0  0  0  0
  2 19  1  0  0  0  0
  2 28  1  6  0  0  0
  3  4  1  0  0  0  0
  3 29  1  0  0  0  0
  4  5  1  0  0  0  0
  4 18  2  0  0  0  0
  5  6  2  0  0  0  0
  6  7  1  0  0  0  0
  6  8  1  0  0  0  0
  7 30  1  0  0  0  0
  7 31  1  0  0  0  0
  8  9  2  0  0  0  0
  9 10  1  0  0  0  0
  9 18  1  0  0  0  0
 10 11  1  0  0  0  0
 10 32  1  0  0  0  0
 11 12  1  0  0  0  0
 11 17  2  0  0  0  0
 12 13  2  0  0  0  0
 12 33  1  0  0  0  0
 13 14  1  0  0  0  0
 13 34  1  0  0  0  0
 14 15  1  0  0  0  0
 14 16  2  0  0  0  0
 15 35  1  0  0  0  0
 16 17  1  0  0  0  0
 16 36  1  0  0  0  0
 17 18  1  0  0  0  0
 19 20  1  0  0  0  0
 19 24  2  0  0  0  0
 20 21  2  0  0  0  0
 20 37  1  0  0  0  0
 21 22  1  0  0  0  0
 21 38  1  0  0  0  0
 22 23  2  0  0  0  0
 22 39  1  0  0  0  0
 23 24  1  0  0  0  0
 23 40  1  0  0  0  0
 24 41  1  0  0  0  0
M  END
$$$$
