CHEMBL2337368
 OpenBabel04072215363D

 57 60  0  0  0  0  0  0  0  0999 V2000
   -2.0575   -5.0082   -3.7183 C   0  0  0  0  0  0  0  0  0  0  0  0
   -1.2016   -4.5242   -4.8924 C   0  0  0  0  0  0  0  0  0  0  0  0
   -1.8446   -3.2889   -5.5327 C   0  0  0  0  0  0  0  0  0  0  0  0
    0.2774   -4.3153   -4.5934 C   0  0  0  0  0  0  0  0  0  0  0  0
    1.1859   -4.4528   -5.6570 C   0  0  0  0  0  0  0  0  0  0  0  0
    2.5691   -4.3344   -5.4734 C   0  0  0  0  0  0  0  0  0  0  0  0
    3.1024   -4.0419   -4.2244 C   0  0  0  0  0  0  0  0  0  0  0  0
    4.4790   -3.9037   -4.0130 N   0  0  0  0  0  0  0  0  0  0  0  0
    5.6471   -4.2190   -4.7423 C   0  0  0  0  0  0  0  0  0  0  0  0
    6.7749   -3.8565   -4.0713 N   0  0  0  0  0  0  0  0  0  0  0  0
    7.6242   -4.8238   -3.7029 C   0  0  0  0  0  0  0  0  0  0  0  0
    8.8578   -4.5167   -3.1449 N   0  0  0  0  0  0  0  0  0  0  0  0
    9.2197   -3.2994   -2.6291 C   0  0  0  0  0  0  0  0  0  0  0  0
    8.4544   -2.3470   -2.4923 O   0  0  0  0  0  0  0  0  0  0  0  0
   10.7015   -3.1704   -2.2042 C   0  0  0  0  0  0  0  0  0  0  0  0
   11.6011   -3.1200   -3.4487 C   0  0  0  0  0  0  0  0  0  0  0  0
   10.8734   -1.8536   -1.4217 C   0  0  0  0  0  0  0  0  0  0  0  0
   11.1418   -4.3298   -1.2933 C   0  0  0  0  0  0  0  0  0  0  0  0
    7.4132   -6.1362   -3.8894 N   0  0  0  0  0  0  0  0  0  0  0  0
    6.4213   -6.3647   -4.7766 C   0  0  0  0  0  0  0  0  0  0  0  0
    6.3477   -7.4796   -5.5908 N   0  0  0  0  0  0  0  0  0  0  0  0
    7.0184   -6.9961   -6.7091 C   0  0  0  0  0  0  0  0  0  0  0  0
    8.0273   -7.5782   -7.4829 C   0  0  0  0  0  0  0  0  0  0  0  0
    8.6066   -6.7806   -8.4665 C   0  0  0  0  0  0  0  0  0  0  0  0
    8.1060   -5.5044   -8.7322 C   0  0  0  0  0  0  0  0  0  0  0  0
    7.0836   -4.9562   -7.9315 C   0  0  0  0  0  0  0  0  0  0  0  0
    6.4424   -3.4087   -8.2463 Cl  0  0  0  0  0  0  0  0  0  0  0  0
    6.5678   -5.6624   -6.8193 C   0  0  0  0  0  0  0  0  0  0  0  0
    5.8049   -5.3672   -5.5605 C   0  0  0  0  0  0  0  0  0  0  0  0
    2.1981   -3.8959   -3.1523 C   0  0  0  0  0  0  0  0  0  0  0  0
    0.8042   -4.0189   -3.3317 C   0  0  0  0  0  0  0  0  0  0  0  0
   -3.0565   -5.2899   -4.0741 H   0  0  0  0  0  0  0  0  0  0  0  0
   -2.1884   -4.2345   -2.9548 H   0  0  0  0  0  0  0  0  0  0  0  0
   -1.6173   -5.8914   -3.2440 H   0  0  0  0  0  0  0  0  0  0  0  0
   -1.2480   -5.3329   -5.6357 H   0  0  0  0  0  0  0  0  0  0  0  0
   -1.9152   -2.4551   -4.8263 H   0  0  0  0  0  0  0  0  0  0  0  0
   -2.8599   -3.5236   -5.8755 H   0  0  0  0  0  0  0  0  0  0  0  0
   -1.2785   -2.9445   -6.4047 H   0  0  0  0  0  0  0  0  0  0  0  0
    0.8176   -4.6572   -6.6596 H   0  0  0  0  0  0  0  0  0  0  0  0
    3.2174   -4.4357   -6.3361 H   0  0  0  0  0  0  0  0  0  0  0  0
    4.7546   -3.4753   -3.1343 H   0  0  0  0  0  0  0  0  0  0  0  0
    9.4742   -5.3187   -3.0968 H   0  0  0  0  0  0  0  0  0  0  0  0
   11.3153   -2.2909   -4.1064 H   0  0  0  0  0  0  0  0  0  0  0  0
   11.5347   -4.0414   -4.0363 H   0  0  0  0  0  0  0  0  0  0  0  0
   12.6526   -2.9770   -3.1719 H   0  0  0  0  0  0  0  0  0  0  0  0
   10.5982   -0.9871   -2.0356 H   0  0  0  0  0  0  0  0  0  0  0  0
   11.9065   -1.7109   -1.0883 H   0  0  0  0  0  0  0  0  0  0  0  0
   10.2279   -1.8400   -0.5345 H   0  0  0  0  0  0  0  0  0  0  0  0
   11.1476   -5.2882   -1.8216 H   0  0  0  0  0  0  0  0  0  0  0  0
   10.4708   -4.4290   -0.4336 H   0  0  0  0  0  0  0  0  0  0  0  0
   12.1572   -4.1684   -0.9132 H   0  0  0  0  0  0  0  0  0  0  0  0
    5.4473   -7.9044   -5.7562 H   0  0  0  0  0  0  0  0  0  0  0  0
    8.4087   -8.5687   -7.2545 H   0  0  0  0  0  0  0  0  0  0  0  0
    9.4581   -7.1657   -9.0256 H   0  0  0  0  0  0  0  0  0  0  0  0
    8.5495   -4.9262   -9.5383 H   0  0  0  0  0  0  0  0  0  0  0  0
    2.5681   -3.6807   -2.1505 H   0  0  0  0  0  0  0  0  0  0  0  0
    0.1522   -3.8809   -2.4709 H   0  0  0  0  0  0  0  0  0  0  0  0
  1  2  1  0  0  0  0
  1 32  1  0  0  0  0
  1 33  1  0  0  0  0
  1 34  1  0  0  0  0
  2  3  1  0  0  0  0
  2  4  1  0  0  0  0
  2 35  1  0  0  0  0
  3 36  1  0  0  0  0
  3 37  1  0  0  0  0
  3 38  1  0  0  0  0
  4  5  1  0  0  0  0
  4 31  2  0  0  0  0
  5  6  2  0  0  0  0
  5 39  1  0  0  0  0
  6  7  1  0  0  0  0
  6 40  1  0  0  0  0
  7  8  1  0  0  0  0
  7 30  2  0  0  0  0
  8  9  1  0  0  0  0
  8 41  1  0  0  0  0
  9 10  1  0  0  0  0
  9 29  2  0  0  0  0
 10 11  2  0  0  0  0
 11 12  1  0  0  0  0
 11 19  1  0  0  0  0
 12 13  1  0  0  0  0
 12 42  1  0  0  0  0
 13 14  2  0  0  0  0
 13 15  1  0  0  0  0
 15 16  1  0  0  0  0
 15 17  1  0  0  0  0
 15 18  1  0  0  0  0
 16 43  1  0  0  0  0
 16 44  1  0  0  0  0
 16 45  1  0  0  0  0
 17 46  1  0  0  0  0
 17 47  1  0  0  0  0
 17 48  1  0  0  0  0
 18 49  1  0  0  0  0
 18 50  1  0  0  0  0
 18 51  1  0  0  0  0
 19 20  2  0  0  0  0
 20 21  1  0  0  0  0
 20 29  1  0  0  0  0
 21 22  1  0  0  0  0
 21 52  1  0  0  0  0
 22 23  1  0  0  0  0
 22 28  2  0  0  0  0
 23 24  2  0  0  0  0
 23 53  1  0  0  0  0
 24 25  1  0  0  0  0
 24 54  1  0  0  0  0
 25 26  2  0  0  0  0
 25 55  1  0  0  0  0
 26 27  1  0  0  0  0
 26 28  1  0  0  0  0
 28 29  1  0  0  0  0
 30 31  1  0  0  0  0
 30 56  1  0  0  0  0
 31 57  1  0  0  0  0
M  END
$$$$
