CHEMBL3694718
 OpenBabel04072215373D

 50 54  0  0  0  0  0  0  0  0999 V2000
    0.9437   -0.0513    0.0134 C   0  0  0  0  0  0  0  0  0  0  0  0
    2.3839   -0.1019    0.0189 N   0  0  0  0  0  0  0  0  0  0  0  0
    3.2211    0.9786    0.0263 C   0  0  0  0  0  0  0  0  0  0  0  0
    4.4825    0.6103    0.0324 N   0  0  0  0  0  0  0  0  0  0  0  0
    4.4555   -0.7628    0.0285 C   0  0  0  0  0  0  0  0  0  0  0  0
    3.1603   -1.2307    0.0187 C   0  0  0  0  0  0  0  0  0  0  0  0
    2.7066   -2.5745    0.0097 C   0  0  0  0  0  0  0  0  0  0  0  0
    2.2927   -3.8109    0.0001 C   0  0  0  0  0  0  0  0  0  0  0  0
    1.8102   -5.2522   -0.0111 C   0  0  0  0  0  0  0  0  0  0  0  0
    2.7978   -6.3136    0.0279 C   0  0  0  0  0  0  0  0  0  0  0  0
    2.3766   -7.5875    0.0798 C   0  0  0  0  0  0  0  0  0  0  0  0
    1.0037   -7.8732    0.0459 N   0  0  0  0  0  0  0  0  0  0  0  0
    0.3122   -9.0855    0.0274 C   0  0  0  0  0  0  0  0  0  0  0  0
    0.8847  -10.4389   -0.0267 C   0  0  0  0  0  0  0  0  0  0  0  0
    2.0683  -10.6930   -0.7312 C   0  0  0  0  0  0  0  0  0  0  0  0
    2.6087  -11.9703   -0.7878 C   0  0  0  0  0  0  0  0  0  0  0  0
    1.9363  -13.0296   -0.1897 C   0  0  0  0  0  0  0  0  0  0  0  0
    0.7286  -12.8270    0.4897 C   0  0  0  0  0  0  0  0  0  0  0  0
    0.0018  -13.9053    1.0528 N   0  0  0  0  0  0  0  0  0  0  0  0
    0.5182  -15.1607    1.3088 C   0  0  0  0  0  0  0  0  0  0  0  0
    1.6940  -15.4938    1.1949 O   0  0  0  0  0  0  0  0  0  0  0  0
   -0.4261  -16.0450    1.7895 N   0  0  0  0  0  0  0  0  0  0  0  0
   -0.0297  -17.3704    2.1737 C   0  0  0  0  0  0  0  0  0  0  0  0
   -0.0408  -18.5018    1.1810 C   0  0  0  0  0  0  0  0  0  0  0  0
   -1.0226  -18.4823    2.3149 C   0  0  0  0  0  0  0  0  0  0  0  0
    0.2177  -11.5270    0.5762 C   0  0  0  0  0  0  0  0  0  0  0  0
   -1.0225   -8.7066    0.0246 C   0  0  0  0  0  0  0  0  0  0  0  0
   -1.1820   -7.3493    0.0221 N   0  0  0  0  0  0  0  0  0  0  0  0
    0.0370   -6.8644    0.0164 C   0  0  0  0  0  0  0  0  0  0  0  0
    0.4904   -5.5137   -0.0059 C   0  0  0  0  0  0  0  0  0  0  0  0
    0.6133    0.9908    0.0091 H   0  0  0  0  0  0  0  0  0  0  0  0
    0.5745   -0.5512    0.9126 H   0  0  0  0  0  0  0  0  0  0  0  0
    0.5808   -0.5566   -0.8852 H   0  0  0  0  0  0  0  0  0  0  0  0
    2.8653    2.0006    0.0262 H   0  0  0  0  0  0  0  0  0  0  0  0
    5.3715   -1.3392    0.0322 H   0  0  0  0  0  0  0  0  0  0  0  0
    3.8530   -6.0589    0.0276 H   0  0  0  0  0  0  0  0  0  0  0  0
    3.0779   -8.4038    0.1471 H   0  0  0  0  0  0  0  0  0  0  0  0
    2.5837   -9.9110   -1.2806 H   0  0  0  0  0  0  0  0  0  0  0  0
    3.5406  -12.1520   -1.3152 H   0  0  0  0  0  0  0  0  0  0  0  0
    2.3747  -14.0173   -0.3078 H   0  0  0  0  0  0  0  0  0  0  0  0
   -0.9016  -13.6968    1.4461 H   0  0  0  0  0  0  0  0  0  0  0  0
   -1.4013  -15.8626    1.6033 H   0  0  0  0  0  0  0  0  0  0  0  0
    0.8046  -17.3621    2.8722 H   0  0  0  0  0  0  0  0  0  0  0  0
    0.7806  -19.2090    1.2234 H   0  0  0  0  0  0  0  0  0  0  0  0
   -0.4032  -18.3099    0.1779 H   0  0  0  0  0  0  0  0  0  0  0  0
   -0.8696  -19.1818    3.1299 H   0  0  0  0  0  0  0  0  0  0  0  0
   -2.0626  -18.2946    2.0788 H   0  0  0  0  0  0  0  0  0  0  0  0
   -0.7022  -11.3509    1.1259 H   0  0  0  0  0  0  0  0  0  0  0  0
   -1.8868   -9.3580   -0.0014 H   0  0  0  0  0  0  0  0  0  0  0  0
   -0.2547   -4.7260   -0.0102 H   0  0  0  0  0  0  0  0  0  0  0  0
  1  2  1  0  0  0  0
  1 31  1  0  0  0  0
  1 32  1  0  0  0  0
  1 33  1  0  0  0  0
  2  3  1  0  0  0  0
  2  6  1  0  0  0  0
  3  4  2  0  0  0  0
  3 34  1  0  0  0  0
  4  5  1  0  0  0  0
  5  6  2  0  0  0  0
  5 35  1  0  0  0  0
  6  7  1  0  0  0  0
  7  8  3  0  0  0  0
  8  9  1  0  0  0  0
  9 10  1  0  0  0  0
  9 30  2  0  0  0  0
 10 11  2  0  0  0  0
 10 36  1  0  0  0  0
 11 12  1  0  0  0  0
 11 37  1  0  0  0  0
 12 13  1  0  0  0  0
 12 29  1  0  0  0  0
 13 14  1  0  0  0  0
 13 27  2  0  0  0  0
 14 15  1  0  0  0  0
 14 26  2  0  0  0  0
 15 16  2  0  0  0  0
 15 38  1  0  0  0  0
 16 17  1  0  0  0  0
 16 39  1  0  0  0  0
 17 18  2  0  0  0  0
 17 40  1  0  0  0  0
 18 19  1  0  0  0  0
 18 26  1  0  0  0  0
 19 20  1  0  0  0  0
 19 41  1  0  0  0  0
 20 21  2  0  0  0  0
 20 22  1  0  0  0  0
 22 23  1  0  0  0  0
 22 42  1  0  0  0  0
 23 24  1  0  0  0  0
 23 25  1  0  0  0  0
 23 43  1  0  0  0  0
 24 25  1  0  0  0  0
 24 44  1  0  0  0  0
 24 45  1  0  0  0  0
 25 46  1  0  0  0  0
 25 47  1  0  0  0  0
 26 48  1  0  0  0  0
 27 28  1  0  0  0  0
 27 49  1  0  0  0  0
 28 29  2  0  0  0  0
 29 30  1  0  0  0  0
 30 50  1  0  0  0  0
M  END
$$$$
