CHEMBL347074
 OpenBabel04072215363D

 48 51  0  0  0  0  0  0  0  0999 V2000
    2.1492   -0.3557   -1.2491 C   0  0  0  0  0  0  0  0  0  0  0  0
    0.8191   -0.1482   -0.6124 C   0  0  0  0  0  0  0  0  0  0  0  0
    0.1232    1.0822   -0.3565 C   0  0  0  0  0  0  0  0  0  0  0  0
    0.5801    2.4900   -0.6125 C   0  0  0  0  0  0  0  0  0  0  0  0
    0.7455    2.8105   -2.0921 C   0  0  0  0  0  0  0  0  0  0  0  0
    1.1564    4.2446   -2.3091 C   0  0  0  0  0  0  0  0  0  0  0  0
    1.3014    5.0869   -1.4400 O   0  0  0  0  0  0  0  0  0  0  0  0
    1.3609    4.5190   -3.6218 O   0  0  0  0  0  0  0  0  0  0  0  0
   -1.0592    0.7382    0.2771 C   0  0  0  0  0  0  0  0  0  0  0  0
   -1.0883   -0.6199    0.4560 N   0  0  0  0  0  0  0  0  0  0  0  0
    0.0613   -1.1666   -0.0508 C   0  0  0  0  0  0  0  0  0  0  0  0
    0.3358   -2.5424    0.1460 C   0  0  0  0  0  0  0  0  0  0  0  0
    0.9736   -2.9678    1.2487 C   0  0  0  0  0  0  0  0  0  0  0  0
    1.3130   -2.1362    2.4688 C   0  0  0  0  0  0  0  0  0  0  0  0
    1.0102   -0.9884    2.7373 O   0  0  0  0  0  0  0  0  0  0  0  0
    2.0249   -2.9848    3.2927 N   0  0  0  0  0  0  0  0  0  0  0  0
    2.1467   -4.2486    2.7372 C   0  0  0  0  0  0  0  0  0  0  0  0
    2.8009   -5.3173    3.3133 C   0  0  0  0  0  0  0  0  0  0  0  0
    2.8828   -6.5267    2.6043 C   0  0  0  0  0  0  0  0  0  0  0  0
    3.6118   -7.6819    3.1839 C   0  0  0  0  0  0  0  0  0  0  0  0
    3.1943   -9.0072    2.9741 C   0  0  0  0  0  0  0  0  0  0  0  0
    3.8986  -10.0876    3.5196 C   0  0  0  0  0  0  0  0  0  0  0  0
    5.0302   -9.8662    4.3000 C   0  0  0  0  0  0  0  0  0  0  0  0
    5.4550   -8.5661    4.5404 C   0  0  0  0  0  0  0  0  0  0  0  0
    4.7570   -7.4905    3.9842 C   0  0  0  0  0  0  0  0  0  0  0  0
    2.2666   -6.5834    1.3241 C   0  0  0  0  0  0  0  0  0  0  0  0
    1.5860   -5.4838    0.7612 C   0  0  0  0  0  0  0  0  0  0  0  0
    1.5271   -4.3105    1.4884 C   0  0  0  0  0  0  0  0  0  0  0  0
    2.6112    0.5756   -1.5781 H   0  0  0  0  0  0  0  0  0  0  0  0
    2.0415   -1.0094   -2.1225 H   0  0  0  0  0  0  0  0  0  0  0  0
    2.8389   -0.8370   -0.5478 H   0  0  0  0  0  0  0  0  0  0  0  0
    1.5217    2.6635   -0.0750 H   0  0  0  0  0  0  0  0  0  0  0  0
   -0.1460    3.1878   -0.1733 H   0  0  0  0  0  0  0  0  0  0  0  0
   -0.1965    2.6358   -2.6234 H   0  0  0  0  0  0  0  0  0  0  0  0
    1.5196    2.1781   -2.5359 H   0  0  0  0  0  0  0  0  0  0  0  0
    1.2109    3.7517   -4.2068 H   0  0  0  0  0  0  0  0  0  0  0  0
   -1.8515    1.3568    0.6775 H   0  0  0  0  0  0  0  0  0  0  0  0
   -1.7945   -1.1200    0.9756 H   0  0  0  0  0  0  0  0  0  0  0  0
    0.1481   -3.2133   -0.6849 H   0  0  0  0  0  0  0  0  0  0  0  0
    2.3881   -2.6876    4.1854 H   0  0  0  0  0  0  0  0  0  0  0  0
    3.2391   -5.2065    4.2994 H   0  0  0  0  0  0  0  0  0  0  0  0
    2.3013   -9.2202    2.3910 H   0  0  0  0  0  0  0  0  0  0  0  0
    3.5589  -11.1038    3.3365 H   0  0  0  0  0  0  0  0  0  0  0  0
    5.5784  -10.7050    4.7205 H   0  0  0  0  0  0  0  0  0  0  0  0
    6.3324   -8.3820    5.1554 H   0  0  0  0  0  0  0  0  0  0  0  0
    5.1347   -6.4893    4.1808 H   0  0  0  0  0  0  0  0  0  0  0  0
    2.3337   -7.4970    0.7335 H   0  0  0  0  0  0  0  0  0  0  0  0
    1.1445   -5.5653   -0.2266 H   0  0  0  0  0  0  0  0  0  0  0  0
  1  2  1  0  0  0  0
  1 29  1  0  0  0  0
  1 30  1  0  0  0  0
  1 31  1  0  0  0  0
  2  3  1  0  0  0  0
  2 11  2  0  0  0  0
  3  4  1  0  0  0  0
  3  9  2  0  0  0  0
  4  5  1  0  0  0  0
  4 32  1  0  0  0  0
  4 33  1  0  0  0  0
  5  6  1  0  0  0  0
  5 34  1  0  0  0  0
  5 35  1  0  0  0  0
  6  7  2  0  0  0  0
  6  8  1  0  0  0  0
  8 36  1  0  0  0  0
  9 10  1  0  0  0  0
  9 37  1  0  0  0  0
 10 11  1  0  0  0  0
 10 38  1  0  0  0  0
 11 12  1  0  0  0  0
 12 13  2  0  0  0  0
 12 39  1  0  0  0  0
 13 14  1  0  0  0  0
 13 28  1  0  0  0  0
 14 15  2  0  0  0  0
 14 16  1  0  0  0  0
 16 17  1  0  0  0  0
 16 40  1  0  0  0  0
 17 18  1  0  0  0  0
 17 28  2  0  0  0  0
 18 19  2  0  0  0  0
 18 41  1  0  0  0  0
 19 20  1  0  0  0  0
 19 26  1  0  0  0  0
 20 21  1  0  0  0  0
 20 25  2  0  0  0  0
 21 22  2  0  0  0  0
 21 42  1  0  0  0  0
 22 23  1  0  0  0  0
 22 43  1  0  0  0  0
 23 24  2  0  0  0  0
 23 44  1  0  0  0  0
 24 25  1  0  0  0  0
 24 45  1  0  0  0  0
 25 46  1  0  0  0  0
 26 27  2  0  0  0  0
 26 47  1  0  0  0  0
 27 28  1  0  0  0  0
 27 48  1  0  0  0  0
M  END
$$$$
