CHEMBL460191
 OpenBabel04072215383D

 39 41  0  0  0  0  0  0  0  0999 V2000
    4.4316   -2.5378    1.3671 C   0  0  0  0  0  0  0  0  0  0  0  0
    2.9817   -2.9125    1.3158 C   0  0  0  0  0  0  0  0  0  0  0  0
    2.1093   -2.2262    0.4703 C   0  0  0  0  0  0  0  0  0  0  0  0
    0.7638   -2.5911    0.3937 C   0  0  0  0  0  0  0  0  0  0  0  0
    0.2551   -3.6517    1.1522 C   0  0  0  0  0  0  0  0  0  0  0  0
   -1.0917   -4.0856    1.0910 N   0  0  0  0  0  0  0  0  0  0  0  0
   -2.0433   -3.6296    0.1960 C   0  0  0  0  0  0  0  0  0  0  0  0
   -1.7927   -2.8052   -0.6721 O   0  0  0  0  0  0  0  0  0  0  0  0
   -3.3874   -4.2249    0.3364 C   0  0  0  0  0  0  0  0  0  0  0  0
   -3.5337   -5.2549    1.1887 N   0  0  0  0  0  0  0  0  0  0  0  0
   -5.0642   -5.8596    1.0732 S   0  0  0  0  0  0  0  0  0  0  0  0
   -5.6136   -4.7461   -0.0897 C   0  0  0  0  0  0  0  0  0  0  0  0
   -4.6053   -3.8493   -0.3852 C   0  0  0  0  0  0  0  0  0  0  0  0
   -4.8495   -2.8484   -1.2876 N   0  0  0  0  0  0  0  0  0  0  0  0
   -4.1793   -1.5505   -1.2983 C   0  0  0  0  0  0  0  0  0  0  0  0
   -3.2774   -1.3535   -2.5008 C   0  0  0  0  0  0  0  0  0  0  0  0
   -3.1648   -2.2899   -3.5345 C   0  0  0  0  0  0  0  0  0  0  0  0
   -2.2758   -2.0463   -4.5712 C   0  0  0  0  0  0  0  0  0  0  0  0
   -1.5032   -0.9433   -4.6607 N   0  0  0  0  0  0  0  0  0  0  0  0
   -1.6086   -0.0570   -3.6495 C   0  0  0  0  0  0  0  0  0  0  0  0
   -2.4675   -0.2109   -2.5700 C   0  0  0  0  0  0  0  0  0  0  0  0
    1.1310   -4.3151    2.0131 C   0  0  0  0  0  0  0  0  0  0  0  0
    0.6811   -5.3315    2.7677 F   0  0  0  0  0  0  0  0  0  0  0  0
    2.4794   -3.9599    2.0972 C   0  0  0  0  0  0  0  0  0  0  0  0
    4.6484   -1.6930    0.7031 H   0  0  0  0  0  0  0  0  0  0  0  0
    5.0488   -3.3814    1.0438 H   0  0  0  0  0  0  0  0  0  0  0  0
    4.7118   -2.2454    2.3829 H   0  0  0  0  0  0  0  0  0  0  0  0
    2.4627   -1.4052   -0.1499 H   0  0  0  0  0  0  0  0  0  0  0  0
    0.1505   -2.0089   -0.2856 H   0  0  0  0  0  0  0  0  0  0  0  0
   -1.3775   -4.8472    1.7026 H   0  0  0  0  0  0  0  0  0  0  0  0
   -6.6227   -4.7869   -0.4753 H   0  0  0  0  0  0  0  0  0  0  0  0
   -5.7459   -2.8054   -1.7604 H   0  0  0  0  0  0  0  0  0  0  0  0
   -3.6403   -1.3608   -0.3615 H   0  0  0  0  0  0  0  0  0  0  0  0
   -4.9551   -0.7777   -1.3490 H   0  0  0  0  0  0  0  0  0  0  0  0
   -3.7228   -3.2193   -3.5192 H   0  0  0  0  0  0  0  0  0  0  0  0
   -2.1526   -2.7645   -5.3764 H   0  0  0  0  0  0  0  0  0  0  0  0
   -0.9547    0.8070   -3.7248 H   0  0  0  0  0  0  0  0  0  0  0  0
   -2.4731    0.5314   -1.7791 H   0  0  0  0  0  0  0  0  0  0  0  0
    3.1282   -4.5137    2.7678 H   0  0  0  0  0  0  0  0  0  0  0  0
  1  2  1  0  0  0  0
  1 25  1  0  0  0  0
  1 26  1  0  0  0  0
  1 27  1  0  0  0  0
  2  3  1  0  0  0  0
  2 24  2  0  0  0  0
  3  4  2  0  0  0  0
  3 28  1  0  0  0  0
  4  5  1  0  0  0  0
  4 29  1  0  0  0  0
  5  6  1  0  0  0  0
  5 22  2  0  0  0  0
  6  7  1  0  0  0  0
  6 30  1  0  0  0  0
  7  8  2  0  0  0  0
  7  9  1  0  0  0  0
  9 10  2  0  0  0  0
  9 13  1  0  0  0  0
 10 11  1  0  0  0  0
 11 12  1  0  0  0  0
 12 13  2  0  0  0  0
 12 31  1  0  0  0  0
 13 14  1  0  0  0  0
 14 15  1  0  0  0  0
 14 32  1  0  0  0  0
 15 16  1  0  0  0  0
 15 33  1  0  0  0  0
 15 34  1  0  0  0  0
 16 17  1  0  0  0  0
 16 21  2  0  0  0  0
 17 18  2  0  0  0  0
 17 35  1  0  0  0  0
 18 19  1  0  0  0  0
 18 36  1  0  0  0  0
 19 20  2  0  0  0  0
 20 21  1  0  0  0  0
 20 37  1  0  0  0  0
 21 38  1  0  0  0  0
 22 23  1  0  0  0  0
 22 24  1  0  0  0  0
 24 39  1  0  0  0  0
M  END
$$$$
