CHEMBL3690488
 OpenBabel04072215373D

 53 56  0  0  0  0  0  0  0  0999 V2000
    2.6312    0.3044   -1.3786 O   0  0  0  0  0  0  0  0  0  0  0  0
    2.5312   -0.6028   -0.5644 C   0  0  0  0  0  0  0  0  0  0  0  0
    1.4943   -1.5103   -0.6331 N   0  0  0  0  0  0  0  0  0  0  0  0
    0.4183   -1.2762   -1.6041 C   0  0  0  0  0  0  0  0  0  0  0  0
   -0.6692   -0.2959   -1.1429 C   0  0  0  0  0  0  0  0  0  0  0  0
   -0.4702    0.1138    0.1323 F   0  0  0  0  0  0  0  0  0  0  0  0
   -0.7469    0.7968   -1.9285 F   0  0  0  0  0  0  0  0  0  0  0  0
   -1.8811   -0.9044   -1.1706 F   0  0  0  0  0  0  0  0  0  0  0  0
    3.3806   -0.8858    0.4827 N   0  0  0  0  0  0  0  0  0  0  0  0
    4.5637   -0.1960    0.8289 C   0  0  0  0  0  0  0  0  0  0  0  0
    5.0429    0.9015    0.1158 C   0  0  0  0  0  0  0  0  0  0  0  0
    6.2634    1.4810    0.4481 C   0  0  0  0  0  0  0  0  0  0  0  0
    6.9997    0.9857    1.5197 C   0  0  0  0  0  0  0  0  0  0  0  0
    6.4913   -0.0357    2.3326 C   0  0  0  0  0  0  0  0  0  0  0  0
    7.1828   -0.4366    3.5672 C   0  0  0  0  0  0  0  0  0  0  0  0
    7.3146   -1.6830    4.1603 C   0  0  0  0  0  0  0  0  0  0  0  0
    8.0356   -1.6321    5.3273 N   0  0  0  0  0  0  0  0  0  0  0  0
    8.3466   -0.3654    5.4881 C   0  0  0  0  0  0  0  0  0  0  0  0
    9.0825    0.2923    6.5226 C   0  0  0  0  0  0  0  0  0  0  0  0
    9.2912    1.6255    6.4480 C   0  0  0  0  0  0  0  0  0  0  0  0
   10.0241    2.3208    7.5431 C   0  0  0  0  0  0  0  0  0  0  0  0
   11.2156    3.0735    7.0925 C   0  0  0  0  0  0  0  0  0  0  0  0
   11.7991    3.8633    7.9929 C   0  0  0  0  0  0  0  0  0  0  0  0
   11.2896    3.9441    9.3755 C   0  0  0  0  0  0  0  0  0  0  0  0
   11.8230    4.7244   10.1595 O   0  0  0  0  0  0  0  0  0  0  0  0
   10.2306    3.0966    9.6873 N   0  0  0  0  0  0  0  0  0  0  0  0
    9.7290    3.1106   11.0625 C   0  0  0  0  0  0  0  0  0  0  0  0
    8.5348    2.1960   11.3311 C   0  0  0  0  0  0  0  0  0  0  0  0
    8.8576    0.8393   11.0321 O   0  0  0  0  0  0  0  0  0  0  0  0
    9.5818    2.3026    8.7605 N   0  0  0  0  0  0  0  0  0  0  0  0
    8.7235    2.4187    5.3711 C   0  0  0  0  0  0  0  0  0  0  0  0
    7.9960    1.8093    4.4254 C   0  0  0  0  0  0  0  0  0  0  0  0
    7.8321    0.4206    4.4538 N   0  0  0  0  0  0  0  0  0  0  0  0
    5.2878   -0.6507    1.9469 C   0  0  0  0  0  0  0  0  0  0  0  0
    1.2153   -1.9257    0.2441 H   0  0  0  0  0  0  0  0  0  0  0  0
   -0.0277   -2.2546   -1.8063 H   0  0  0  0  0  0  0  0  0  0  0  0
    0.8560   -0.9190   -2.5442 H   0  0  0  0  0  0  0  0  0  0  0  0
    3.1762   -1.7202    1.0106 H   0  0  0  0  0  0  0  0  0  0  0  0
    4.5035    1.3219   -0.7265 H   0  0  0  0  0  0  0  0  0  0  0  0
    6.6390    2.3188   -0.1335 H   0  0  0  0  0  0  0  0  0  0  0  0
    7.9727    1.4288    1.7139 H   0  0  0  0  0  0  0  0  0  0  0  0
    6.9296   -2.6275    3.7977 H   0  0  0  0  0  0  0  0  0  0  0  0
    9.4508   -0.3088    7.3478 H   0  0  0  0  0  0  0  0  0  0  0  0
   11.5706    2.9860    6.0734 H   0  0  0  0  0  0  0  0  0  0  0  0
   12.6645    4.4716    7.7592 H   0  0  0  0  0  0  0  0  0  0  0  0
    9.4662    4.1449   11.3146 H   0  0  0  0  0  0  0  0  0  0  0  0
   10.5704    2.8168   11.7010 H   0  0  0  0  0  0  0  0  0  0  0  0
    7.6664    2.4838   10.7295 H   0  0  0  0  0  0  0  0  0  0  0  0
    8.2512    2.2488   12.3863 H   0  0  0  0  0  0  0  0  0  0  0  0
    9.1625    0.8717   10.1009 H   0  0  0  0  0  0  0  0  0  0  0  0
    8.8571    3.4962    5.3682 H   0  0  0  0  0  0  0  0  0  0  0  0
    7.5180    2.3744    3.6393 H   0  0  0  0  0  0  0  0  0  0  0  0
    4.8998   -1.4768    2.5377 H   0  0  0  0  0  0  0  0  0  0  0  0
  1  2  2  0  0  0  0
  2  3  1  0  0  0  0
  2  9  1  0  0  0  0
  3  4  1  0  0  0  0
  3 35  1  0  0  0  0
  4  5  1  0  0  0  0
  4 36  1  0  0  0  0
  4 37  1  0  0  0  0
  5  6  1  0  0  0  0
  5  7  1  0  0  0  0
  5  8  1  0  0  0  0
  9 10  1  0  0  0  0
  9 38  1  0  0  0  0
 10 11  1  0  0  0  0
 10 34  2  0  0  0  0
 11 12  2  0  0  0  0
 11 39  1  0  0  0  0
 12 13  1  0  0  0  0
 12 40  1  0  0  0  0
 13 14  2  0  0  0  0
 13 41  1  0  0  0  0
 14 15  1  0  0  0  0
 14 34  1  0  0  0  0
 15 16  2  0  0  0  0
 15 33  1  0  0  0  0
 16 17  1  0  0  0  0
 16 42  1  0  0  0  0
 17 18  2  0  0  0  0
 18 19  1  0  0  0  0
 18 33  1  0  0  0  0
 19 20  2  0  0  0  0
 19 43  1  0  0  0  0
 20 21  1  0  0  0  0
 20 31  1  0  0  0  0
 21 22  1  0  0  0  0
 21 30  2  0  0  0  0
 22 23  2  0  0  0  0
 22 44  1  0  0  0  0
 23 24  1  0  0  0  0
 23 45  1  0  0  0  0
 24 25  2  0  0  0  0
 24 26  1  0  0  0  0
 26 27  1  0  0  0  0
 26 30  1  0  0  0  0
 27 28  1  0  0  0  0
 27 46  1  0  0  0  0
 27 47  1  0  0  0  0
 28 29  1  0  0  0  0
 28 48  1  0  0  0  0
 28 49  1  0  0  0  0
 29 50  1  0  0  0  0
 31 32  2  0  0  0  0
 31 51  1  0  0  0  0
 32 33  1  0  0  0  0
 32 52  1  0  0  0  0
 34 53  1  0  0  0  0
M  END
$$$$
