CHEMBL224917
 OpenBabel04072215363D

 52 57  0  0  0  0  0  0  0  0999 V2000
   -1.6216    2.5153    3.3793 C   0  0  0  0  0  0  0  0  0  0  0  0
   -2.0971    1.4648    2.7707 C   0  0  0  0  0  0  0  0  0  0  0  0
   -2.5259    0.3818    1.9091 C   0  0  0  0  0  0  0  0  0  0  0  0
   -3.8389    0.0620    1.6502 C   0  0  0  0  0  0  0  0  0  0  0  0
   -4.0442   -1.0710    0.7558 C   0  0  0  0  0  0  0  0  0  0  0  0
   -5.4685   -1.4813    0.4181 C   0  0  0  0  0  0  0  0  0  0  0  0
   -6.4176   -0.9444    1.2166 N   0  0  0  0  0  0  0  0  0  0  0  0
   -6.8656    0.0659    0.4179 N   0  0  0  0  0  0  0  0  0  0  0  0
   -6.4817   -0.1195   -0.8849 C   0  0  0  0  0  0  0  0  0  0  0  0
   -6.0992   -1.4736   -0.8918 C   0  0  0  0  0  0  0  0  0  0  0  0
   -5.7495   -1.8593   -2.2937 C   0  0  0  0  0  0  0  0  0  0  0  0
   -5.0483   -0.5486   -2.6271 C   0  0  0  0  0  0  0  0  0  0  0  0
   -3.8106   -0.5728   -3.2437 C   0  0  0  0  0  0  0  0  0  0  0  0
   -2.8838    0.3715   -2.8120 C   0  0  0  0  0  0  0  0  0  0  0  0
   -1.4227    0.0017   -2.9662 C   0  0  0  0  0  0  0  0  0  0  0  0
   -0.9212    0.2420   -4.2986 N   0  0  0  0  0  0  0  0  0  0  0  0
   -0.6331    1.4421   -4.8648 C   0  0  0  0  0  0  0  0  0  0  0  0
   -0.1044    1.0988   -6.0818 C   0  0  0  0  0  0  0  0  0  0  0  0
   -0.0702   -0.2588   -6.2066 N   0  0  0  0  0  0  0  0  0  0  0  0
   -0.5653   -0.7815   -5.0949 N   0  0  0  0  0  0  0  0  0  0  0  0
   -3.3115    1.4738   -2.0266 C   0  0  0  0  0  0  0  0  0  0  0  0
   -4.6358    1.5721   -1.5355 C   0  0  0  0  0  0  0  0  0  0  0  0
   -5.4998    0.5195   -1.7931 C   0  0  0  0  0  0  0  0  0  0  0  0
   -2.8287   -1.5159    0.2843 C   0  0  0  0  0  0  0  0  0  0  0  0
   -1.5004   -0.6348    0.9831 S   0  0  0  0  0  0  0  0  0  0  0  0
   -1.0674    3.7400    4.0887 C   0  0  0  0  0  0  0  0  0  0  0  0
   -1.6636    3.8791    5.3722 O   0  0  0  0  0  0  0  0  0  0  0  0
   -1.2229    4.9414    6.1208 C   0  0  0  0  0  0  0  0  0  0  0  0
   -0.2840    5.8945    5.7199 C   0  0  0  0  0  0  0  0  0  0  0  0
    0.0797    6.9347    6.5730 C   0  0  0  0  0  0  0  0  0  0  0  0
   -0.5061    7.0364    7.8371 C   0  0  0  0  0  0  0  0  0  0  0  0
   -1.4421    6.0910    8.2350 C   0  0  0  0  0  0  0  0  0  0  0  0
   -1.8046    5.0486    7.3827 C   0  0  0  0  0  0  0  0  0  0  0  0
   -4.6517    0.6288    2.0848 H   0  0  0  0  0  0  0  0  0  0  0  0
   -7.6292    0.6335    0.7724 H   0  0  0  0  0  0  0  0  0  0  0  0
   -6.6513   -1.9390   -2.9166 H   0  0  0  0  0  0  0  0  0  0  0  0
   -5.1283   -2.7465   -2.3923 H   0  0  0  0  0  0  0  0  0  0  0  0
   -3.4969   -1.4539   -3.7968 H   0  0  0  0  0  0  0  0  0  0  0  0
   -1.2999   -1.0704   -2.7467 H   0  0  0  0  0  0  0  0  0  0  0  0
   -0.7883    0.5342   -2.2523 H   0  0  0  0  0  0  0  0  0  0  0  0
   -0.8168    2.3858   -4.3738 H   0  0  0  0  0  0  0  0  0  0  0  0
    0.2539    1.7463   -6.8657 H   0  0  0  0  0  0  0  0  0  0  0  0
   -2.5733    2.1933   -1.6725 H   0  0  0  0  0  0  0  0  0  0  0  0
   -4.8689    2.3289   -0.7919 H   0  0  0  0  0  0  0  0  0  0  0  0
   -2.6155   -2.2979   -0.4252 H   0  0  0  0  0  0  0  0  0  0  0  0
   -1.2974    4.6145    3.4680 H   0  0  0  0  0  0  0  0  0  0  0  0
    0.0184    3.6109    4.1750 H   0  0  0  0  0  0  0  0  0  0  0  0
    0.1895    5.8650    4.7438 H   0  0  0  0  0  0  0  0  0  0  0  0
    0.8085    7.6760    6.2509 H   0  0  0  0  0  0  0  0  0  0  0  0
   -0.2265    7.8486    8.5076 H   0  0  0  0  0  0  0  0  0  0  0  0
   -1.9026    6.1651    9.2256 H   0  0  0  0  0  0  0  0  0  0  0  0
   -2.5422    4.3168    7.7044 H   0  0  0  0  0  0  0  0  0  0  0  0
  1  2  3  0  0  0  0
  1 26  1  0  0  0  0
  2  3  1  0  0  0  0
  3  4  2  0  0  0  0
  3 25  1  0  0  0  0
  4  5  1  0  0  0  0
  4 34  1  0  0  0  0
  5  6  1  0  0  0  0
  5 24  2  0  0  0  0
  6  7  2  0  0  0  0
  6 10  1  0  0  0  0
  7  8  1  0  0  0  0
  8  9  1  0  0  0  0
  8 35  1  0  0  0  0
  9 10  2  0  0  0  0
  9 23  1  0  0  0  0
 10 11  1  0  0  0  0
 11 12  1  0  0  0  0
 11 36  1  0  0  0  0
 11 37  1  0  0  0  0
 12 13  1  0  0  0  0
 12 23  2  0  0  0  0
 13 14  2  0  0  0  0
 13 38  1  0  0  0  0
 14 15  1  0  0  0  0
 14 21  1  0  0  0  0
 15 16  1  0  0  0  0
 15 39  1  0  0  0  0
 15 40  1  0  0  0  0
 16 17  1  0  0  0  0
 16 20  1  0  0  0  0
 17 18  2  0  0  0  0
 17 41  1  0  0  0  0
 18 19  1  0  0  0  0
 18 42  1  0  0  0  0
 19 20  2  0  0  0  0
 21 22  2  0  0  0  0
 21 43  1  0  0  0  0
 22 23  1  0  0  0  0
 22 44  1  0  0  0  0
 24 25  1  0  0  0  0
 24 45  1  0  0  0  0
 26 27  1  0  0  0  0
 26 46  1  0  0  0  0
 26 47  1  0  0  0  0
 27 28  1  0  0  0  0
 28 29  1  0  0  0  0
 28 33  2  0  0  0  0
 29 30  2  0  0  0  0
 29 48  1  0  0  0  0
 30 31  1  0  0  0  0
 30 49  1  0  0  0  0
 31 32  2  0  0  0  0
 31 50  1  0  0  0  0
 32 33  1  0  0  0  0
 32 51  1  0  0  0  0
 33 52  1  0  0  0  0
M  END
$$$$
