CHEMBL3780632
 OpenBabel04072215373D

 50 54  0  0  0  0  0  0  0  0999 V2000
    0.5075    3.9169    1.8792 C   0  0  0  0  0  0  0  0  0  0  0  0
   -0.1144    2.8750    2.5613 C   0  0  0  0  0  0  0  0  0  0  0  0
   -1.3684    2.4197    2.1463 C   0  0  0  0  0  0  0  0  0  0  0  0
   -2.0315    2.9911    1.0416 C   0  0  0  0  0  0  0  0  0  0  0  0
   -3.3484    2.5012    0.5921 C   0  0  0  0  0  0  0  0  0  0  0  0
   -4.2910    1.9780    1.4664 C   0  0  0  0  0  0  0  0  0  0  0  0
   -5.4854    1.4949    1.0621 N   0  0  0  0  0  0  0  0  0  0  0  0
   -5.7421    1.5553   -0.2569 C   0  0  0  0  0  0  0  0  0  0  0  0
   -6.9429    1.0841   -0.7489 C   0  0  0  0  0  0  0  0  0  0  0  0
   -7.3234    1.0915   -2.0428 N   0  0  0  0  0  0  0  0  0  0  0  0
   -6.4327    1.6250   -2.8968 C   0  0  0  0  0  0  0  0  0  0  0  0
   -5.1846    2.1424   -2.5382 C   0  0  0  0  0  0  0  0  0  0  0  0
   -4.3427    2.7395   -3.5134 N   0  0  0  0  0  0  0  0  0  0  0  0
   -4.7192    3.4220   -4.6819 C   0  0  0  0  0  0  0  0  0  0  0  0
   -5.9082    4.1580   -4.7467 C   0  0  0  0  0  0  0  0  0  0  0  0
   -6.3379    4.7565   -5.9373 C   0  0  0  0  0  0  0  0  0  0  0  0
   -5.5974    4.6401   -7.1143 C   0  0  0  0  0  0  0  0  0  0  0  0
   -5.9988    5.2057   -8.3089 N   0  0  0  0  0  0  0  0  0  0  0  0
   -6.8170    6.4262   -8.3796 C   0  0  0  0  0  0  0  0  0  0  0  0
   -8.2213    6.1285   -8.9238 C   0  0  0  0  0  0  0  0  0  0  0  0
   -8.1662    5.4196  -10.1726 O   0  0  0  0  0  0  0  0  0  0  0  0
   -7.4811    4.1690   -9.9973 C   0  0  0  0  0  0  0  0  0  0  0  0
   -6.0302    4.3745   -9.5263 C   0  0  0  0  0  0  0  0  0  0  0  0
   -4.3884    3.9302   -7.0332 C   0  0  0  0  0  0  0  0  0  0  0  0
   -3.9490    3.3358   -5.8394 C   0  0  0  0  0  0  0  0  0  0  0  0
   -4.8161    2.0976   -1.1823 C   0  0  0  0  0  0  0  0  0  0  0  0
   -3.6160    2.5660   -0.7425 N   0  0  0  0  0  0  0  0  0  0  0  0
   -1.3834    4.0462    0.3750 C   0  0  0  0  0  0  0  0  0  0  0  0
   -0.1284    4.5045    0.7891 C   0  0  0  0  0  0  0  0  0  0  0  0
    1.4871    4.2638    2.1933 H   0  0  0  0  0  0  0  0  0  0  0  0
    0.3785    2.4090    3.4107 H   0  0  0  0  0  0  0  0  0  0  0  0
   -1.8105    1.5899    2.6945 H   0  0  0  0  0  0  0  0  0  0  0  0
   -4.1210    1.9282    2.5352 H   0  0  0  0  0  0  0  0  0  0  0  0
   -7.6741    0.6606   -0.0645 H   0  0  0  0  0  0  0  0  0  0  0  0
   -6.7517    1.6087   -3.9363 H   0  0  0  0  0  0  0  0  0  0  0  0
   -3.3815    2.4128   -3.4572 H   0  0  0  0  0  0  0  0  0  0  0  0
   -6.5241    4.2835   -3.8586 H   0  0  0  0  0  0  0  0  0  0  0  0
   -7.2855    5.2861   -5.9243 H   0  0  0  0  0  0  0  0  0  0  0  0
   -6.3123    7.1107   -9.0721 H   0  0  0  0  0  0  0  0  0  0  0  0
   -6.8823    6.9504   -7.4198 H   0  0  0  0  0  0  0  0  0  0  0  0
   -8.7522    7.0689   -9.1045 H   0  0  0  0  0  0  0  0  0  0  0  0
   -8.8123    5.5446   -8.2090 H   0  0  0  0  0  0  0  0  0  0  0  0
   -7.4849    3.6525  -10.9625 H   0  0  0  0  0  0  0  0  0  0  0  0
   -8.0458    3.5524   -9.2877 H   0  0  0  0  0  0  0  0  0  0  0  0
   -5.4665    4.8984  -10.3039 H   0  0  0  0  0  0  0  0  0  0  0  0
   -5.5669    3.3922   -9.3816 H   0  0  0  0  0  0  0  0  0  0  0  0
   -3.7514    3.8565   -7.9119 H   0  0  0  0  0  0  0  0  0  0  0  0
   -3.0030    2.8009   -5.8390 H   0  0  0  0  0  0  0  0  0  0  0  0
   -1.8624    4.5236   -0.4788 H   0  0  0  0  0  0  0  0  0  0  0  0
    0.3530    5.3192    0.2542 H   0  0  0  0  0  0  0  0  0  0  0  0
  1  2  1  0  0  0  0
  1 29  2  0  0  0  0
  1 30  1  0  0  0  0
  2  3  2  0  0  0  0
  2 31  1  0  0  0  0
  3  4  1  0  0  0  0
  3 32  1  0  0  0  0
  4  5  1  0  0  0  0
  4 28  2  0  0  0  0
  5  6  1  0  0  0  0
  5 27  2  0  0  0  0
  6  7  2  0  0  0  0
  6 33  1  0  0  0  0
  7  8  1  0  0  0  0
  8  9  1  0  0  0  0
  8 26  2  0  0  0  0
  9 10  2  0  0  0  0
  9 34  1  0  0  0  0
 10 11  1  0  0  0  0
 11 12  2  0  0  0  0
 11 35  1  0  0  0  0
 12 13  1  0  0  0  0
 12 26  1  0  0  0  0
 13 14  1  0  0  0  0
 13 36  1  0  0  0  0
 14 15  1  0  0  0  0
 14 25  2  0  0  0  0
 15 16  2  0  0  0  0
 15 37  1  0  0  0  0
 16 17  1  0  0  0  0
 16 38  1  0  0  0  0
 17 18  1  0  0  0  0
 17 24  2  0  0  0  0
 18 19  1  0  0  0  0
 18 23  1  0  0  0  0
 19 20  1  0  0  0  0
 19 39  1  0  0  0  0
 19 40  1  0  0  0  0
 20 21  1  0  0  0  0
 20 41  1  0  0  0  0
 20 42  1  0  0  0  0
 21 22  1  0  0  0  0
 22 23  1  0  0  0  0
 22 43  1  0  0  0  0
 22 44  1  0  0  0  0
 23 45  1  0  0  0  0
 23 46  1  0  0  0  0
 24 25  1  0  0  0  0
 24 47  1  0  0  0  0
 25 48  1  0  0  0  0
 26 27  1  0  0  0  0
 28 29  1  0  0  0  0
 28 49  1  0  0  0  0
 29 50  1  0  0  0  0
M  END
$$$$
