CHEMBL2018767
 OpenBabel04072215363D

 56 58  0  0  0  0  0  0  0  0999 V2000
    0.5216    0.7693   -2.2210 C   0  0  0  0  0  0  0  0  0  0  0  0
    2.0445    0.7588   -2.3086 C   0  0  0  0  0  0  0  0  0  0  0  0
    2.7145    1.5708   -1.2826 N   0  0  0  0  0  0  0  0  0  0  0  0
    2.3115    1.2678    0.0972 C   0  0  0  0  0  0  0  0  0  0  0  0
    2.7342   -0.0921    0.6410 C   0  0  0  0  0  0  0  0  0  0  0  0
    4.1770    1.5663   -1.5153 C   0  0  0  0  0  0  0  0  0  0  0  0
    4.9233    2.5503   -0.6120 C   0  0  0  0  0  0  0  0  0  0  0  0
    6.3120    2.5939   -0.9214 O   0  0  0  0  0  0  0  0  0  0  0  0
    6.9119    3.8174   -1.0372 C   0  0  0  0  0  0  0  0  0  0  0  0
    8.0657    3.7708   -1.8496 C   0  0  0  0  0  0  0  0  0  0  0  0
    8.7911    4.8975   -2.2053 C   0  0  0  0  0  0  0  0  0  0  0  0
    9.8679    4.7642   -3.0026 N   0  0  0  0  0  0  0  0  0  0  0  0
   10.5142    5.8866   -3.3345 C   0  0  0  0  0  0  0  0  0  0  0  0
   10.1985    7.1233   -2.9366 N   0  0  0  0  0  0  0  0  0  0  0  0
    9.1287    7.2510   -2.1301 C   0  0  0  0  0  0  0  0  0  0  0  0
    8.7528    8.5410   -1.6500 N   0  0  0  0  0  0  0  0  0  0  0  0
    9.3073    9.7982   -1.9773 C   0  0  0  0  0  0  0  0  0  0  0  0
    9.9065   10.0700   -3.2076 C   0  0  0  0  0  0  0  0  0  0  0  0
   10.4805   11.3166   -3.4723 C   0  0  0  0  0  0  0  0  0  0  0  0
   10.4331   12.3450   -2.5230 C   0  0  0  0  0  0  0  0  0  0  0  0
   11.1459   13.6348   -2.8103 C   0  0  0  0  0  0  0  0  0  0  0  0
    9.7305   12.1145   -1.3347 C   0  0  0  0  0  0  0  0  0  0  0  0
    9.5199   13.4662   -0.0151 Br  0  0  0  0  0  0  0  0  0  0  0  0
    9.1636   10.8602   -1.0722 C   0  0  0  0  0  0  0  0  0  0  0  0
    8.3665    6.1395   -1.7344 C   0  0  0  0  0  0  0  0  0  0  0  0
    7.2154    6.1951   -0.9035 C   0  0  0  0  0  0  0  0  0  0  0  0
    6.5153    5.0526   -0.5129 C   0  0  0  0  0  0  0  0  0  0  0  0
    5.4336    5.3284    0.2709 O   0  0  0  0  0  0  0  0  0  0  0  0
    5.3514    4.6479    1.5236 C   0  0  0  0  0  0  0  0  0  0  0  0
    0.0934    0.3601   -3.1417 H   0  0  0  0  0  0  0  0  0  0  0  0
    0.1331    1.7854   -2.0939 H   0  0  0  0  0  0  0  0  0  0  0  0
    0.1640    0.1516   -1.3907 H   0  0  0  0  0  0  0  0  0  0  0  0
    2.3082    1.1661   -3.2924 H   0  0  0  0  0  0  0  0  0  0  0  0
    2.4009   -0.2773   -2.2872 H   0  0  0  0  0  0  0  0  0  0  0  0
    1.2226    1.3632    0.1945 H   0  0  0  0  0  0  0  0  0  0  0  0
    2.6883    2.0470    0.7703 H   0  0  0  0  0  0  0  0  0  0  0  0
    2.4841   -0.9059   -0.0443 H   0  0  0  0  0  0  0  0  0  0  0  0
    2.2186   -0.2886    1.5862 H   0  0  0  0  0  0  0  0  0  0  0  0
    3.8113   -0.1229    0.8397 H   0  0  0  0  0  0  0  0  0  0  0  0
    4.3764    1.8749   -2.5500 H   0  0  0  0  0  0  0  0  0  0  0  0
    4.6036    0.5614   -1.4148 H   0  0  0  0  0  0  0  0  0  0  0  0
    4.8556    2.2090    0.4241 H   0  0  0  0  0  0  0  0  0  0  0  0
    4.4291    3.5160   -0.7390 H   0  0  0  0  0  0  0  0  0  0  0  0
    8.3830    2.8050   -2.2495 H   0  0  0  0  0  0  0  0  0  0  0  0
   11.3740    5.7880   -3.9814 H   0  0  0  0  0  0  0  0  0  0  0  0
    8.5978    8.4739   -0.6494 H   0  0  0  0  0  0  0  0  0  0  0  0
    9.9584    9.3058   -3.9781 H   0  0  0  0  0  0  0  0  0  0  0  0
   10.9801   11.4657   -4.4268 H   0  0  0  0  0  0  0  0  0  0  0  0
   11.6805   13.5896   -3.7651 H   0  0  0  0  0  0  0  0  0  0  0  0
   11.8947   13.8309   -2.0352 H   0  0  0  0  0  0  0  0  0  0  0  0
   10.4394   14.4677   -2.8642 H   0  0  0  0  0  0  0  0  0  0  0  0
    8.6254   10.7058   -0.1403 H   0  0  0  0  0  0  0  0  0  0  0  0
    6.8369    7.1601   -0.5682 H   0  0  0  0  0  0  0  0  0  0  0  0
    5.1625    5.3876    2.3065 H   0  0  0  0  0  0  0  0  0  0  0  0
    6.2452    4.0733    1.7792 H   0  0  0  0  0  0  0  0  0  0  0  0
    4.4708    3.9995    1.5131 H   0  0  0  0  0  0  0  0  0  0  0  0
  1  2  1  0  0  0  0
  1 30  1  0  0  0  0
  1 31  1  0  0  0  0
  1 32  1  0  0  0  0
  2  3  1  0  0  0  0
  2 33  1  0  0  0  0
  2 34  1  0  0  0  0
  3  4  1  0  0  0  0
  3  6  1  0  0  0  0
  4  5  1  0  0  0  0
  4 35  1  0  0  0  0
  4 36  1  0  0  0  0
  5 37  1  0  0  0  0
  5 38  1  0  0  0  0
  5 39  1  0  0  0  0
  6  7  1  0  0  0  0
  6 40  1  0  0  0  0
  6 41  1  0  0  0  0
  7  8  1  0  0  0  0
  7 42  1  0  0  0  0
  7 43  1  0  0  0  0
  8  9  1  0  0  0  0
  9 10  1  0  0  0  0
  9 27  2  0  0  0  0
 10 11  2  0  0  0  0
 10 44  1  0  0  0  0
 11 12  1  0  0  0  0
 11 25  1  0  0  0  0
 12 13  2  0  0  0  0
 13 14  1  0  0  0  0
 13 45  1  0  0  0  0
 14 15  2  0  0  0  0
 15 16  1  0  0  0  0
 15 25  1  0  0  0  0
 16 17  1  0  0  0  0
 16 46  1  0  0  0  0
 17 18  1  0  0  0  0
 17 24  2  0  0  0  0
 18 19  2  0  0  0  0
 18 47  1  0  0  0  0
 19 20  1  0  0  0  0
 19 48  1  0  0  0  0
 20 21  1  0  0  0  0
 20 22  2  0  0  0  0
 21 49  1  0  0  0  0
 21 50  1  0  0  0  0
 21 51  1  0  0  0  0
 22 23  1  0  0  0  0
 22 24  1  0  0  0  0
 24 52  1  0  0  0  0
 25 26  2  0  0  0  0
 26 27  1  0  0  0  0
 26 53  1  0  0  0  0
 27 28  1  0  0  0  0
 28 29  1  0  0  0  0
 29 54  1  0  0  0  0
 29 55  1  0  0  0  0
 29 56  1  0  0  0  0
M  END
$$$$
