CHEMBL295528
 OpenBabel04072215363D

 88 93  0  0  1  0  0  0  0  0999 V2000
    1.7256    1.6501    2.6891 C   0  0  0  0  0  0  0  0  0  0  0  0
    1.2565    2.0484    3.9872 O   0  0  0  0  0  0  0  0  0  0  0  0
    1.5287    3.3561    4.3247 C   0  0  0  0  0  0  0  0  0  0  0  0
    1.9668    4.2936    3.3778 C   0  0  0  0  0  0  0  0  0  0  0  0
    2.2842    5.6089    3.7324 C   0  0  0  0  0  0  0  0  0  0  0  0
    2.8461    6.4932    2.7339 C   0  0  0  0  0  0  0  0  0  0  0  0
    2.3886    6.4086    1.4801 N   0  0  0  0  0  0  0  0  0  0  0  0
    3.0918    7.3251    0.8075 N   0  0  0  0  0  0  0  0  0  0  0  0
    2.7983    7.5430   -0.5999 C   0  0  1  0  0  0  0  0  0  0  0  0
    3.6348    6.6025   -1.4674 C   0  0  0  0  0  0  0  0  0  0  0  0
    3.0377    5.2078   -1.6145 C   0  0  0  0  0  0  0  0  0  0  0  0
    1.5937    5.2173   -2.1545 C   0  0  2  0  0  0  0  0  0  0  0  0
    1.4004    5.4428   -3.5965 N   0  0  0  0  0  0  0  0  0  0  0  0
    2.4180    4.9291   -4.5224 C   0  0  0  0  0  0  0  0  0  0  0  0
    3.5292    5.9466   -4.8899 C   0  0  0  0  0  0  0  0  0  0  0  0
    3.0493    7.2949   -5.2585 N   0  0  0  0  0  0  0  0  0  0  0  0
    4.1410    8.2704   -5.2064 C   0  0  0  0  0  0  0  0  0  0  0  0
    1.9228    7.7630   -4.4318 C   0  0  0  0  0  0  0  0  0  0  0  0
    0.8588    6.6955   -4.1135 C   0  0  0  0  0  0  0  0  0  0  0  0
    0.7343    6.0695   -1.1921 C   0  0  0  0  0  0  0  0  0  0  0  0
    1.2847    7.4751   -0.9007 C   0  0  0  0  0  0  0  0  0  0  0  0
    4.0510    7.9379    1.5667 C   0  0  0  0  0  0  0  0  0  0  0  0
    4.9539    8.8482    1.1487 N   0  0  0  0  0  0  0  0  0  0  0  0
    5.7463    9.2361    2.1613 C   0  0  0  0  0  0  0  0  0  0  0  0
    5.7238    8.8201    3.4442 N   0  0  0  0  0  0  0  0  0  0  0  0
    4.8074    7.8993    3.8063 C   0  0  0  0  0  0  0  0  0  0  0  0
    4.8536    7.4830    5.1260 N   0  0  0  0  0  0  0  0  0  0  0  0
    3.9130    7.4254    2.8404 C   0  0  0  0  0  0  0  0  0  0  0  0
    2.0854    6.0267    5.0364 C   0  0  0  0  0  0  0  0  0  0  0  0
    1.6632    5.1100    5.9863 C   0  0  0  0  0  0  0  0  0  0  0  0
    1.3516    3.7751    5.6597 C   0  0  0  0  0  0  0  0  0  0  0  0
    0.9055    2.8740    6.6773 N   0  0  0  0  0  0  0  0  0  0  0  0
    0.3890    3.3119    7.8927 C   0  0  0  0  0  0  0  0  0  0  0  0
    0.0649    4.4811    8.0984 O   0  0  0  0  0  0  0  0  0  0  0  0
    0.1493    2.2654    8.9774 C   0  0  0  0  0  0  0  0  0  0  0  0
    0.4343    2.7860   10.4350 C   0  0  0  0  0  0  0  0  0  0  0  0
    1.9489    3.0904   10.5791 C   0  0  0  0  0  0  0  0  0  0  0  0
   -0.2921    4.1226   10.7683 C   0  0  0  0  0  0  0  0  0  0  0  0
   -0.0122    1.7180   11.4699 C   0  0  0  0  0  0  0  0  0  0  0  0
    0.8651    0.7222   11.9334 C   0  0  0  0  0  0  0  0  0  0  0  0
    0.5078   -0.1305   12.9841 C   0  0  0  0  0  0  0  0  0  0  0  0
   -0.7434   -0.0241   13.5815 C   0  0  0  0  0  0  0  0  0  0  0  0
   -1.6535    0.9092   13.1027 C   0  0  0  0  0  0  0  0  0  0  0  0
   -1.2984    1.7558   12.0482 C   0  0  0  0  0  0  0  0  0  0  0  0
    1.5581    0.5774    2.5657 H   0  0  0  0  0  0  0  0  0  0  0  0
    2.8041    1.8298    2.5902 H   0  0  0  0  0  0  0  0  0  0  0  0
    1.1750    2.1563    1.8854 H   0  0  0  0  0  0  0  0  0  0  0  0
    2.0770    4.0338    2.3266 H   0  0  0  0  0  0  0  0  0  0  0  0
    3.1239    8.5722   -0.7994 H   0  0  0  0  0  0  0  0  0  0  0  0
    4.6605    6.5159   -1.0911 H   0  0  0  0  0  0  0  0  0  0  0  0
    3.7266    7.0686   -2.4424 H   0  0  0  0  0  0  0  0  0  0  0  0
    3.0378    4.7160   -0.6323 H   0  0  0  0  0  0  0  0  0  0  0  0
    3.6933    4.5817   -2.2277 H   0  0  0  0  0  0  0  0  0  0  0  0
    1.2335    4.1865   -2.0162 H   0  0  0  0  0  0  0  0  0  0  0  0
    1.9073    4.6473   -5.4532 H   0  0  0  0  0  0  0  0  0  0  0  0
    2.8586    3.9937   -4.1577 H   0  0  0  0  0  0  0  0  0  0  0  0
    4.0978    5.5411   -5.7355 H   0  0  0  0  0  0  0  0  0  0  0  0
    4.2459    5.9951   -4.0658 H   0  0  0  0  0  0  0  0  0  0  0  0
    4.9236    8.0196   -5.9272 H   0  0  0  0  0  0  0  0  0  0  0  0
    4.5984    8.3256   -4.2094 H   0  0  0  0  0  0  0  0  0  0  0  0
    3.7774    9.2737   -5.4561 H   0  0  0  0  0  0  0  0  0  0  0  0
    1.4246    8.5847   -4.9613 H   0  0  0  0  0  0  0  0  0  0  0  0
    2.2911    8.1914   -3.4972 H   0  0  0  0  0  0  0  0  0  0  0  0
    0.3316    6.4627   -5.0496 H   0  0  0  0  0  0  0  0  0  0  0  0
    0.0756    7.1138   -3.4757 H   0  0  0  0  0  0  0  0  0  0  0  0
    0.6540    5.5232   -0.2426 H   0  0  0  0  0  0  0  0  0  0  0  0
   -0.3008    6.1394   -1.5474 H   0  0  0  0  0  0  0  0  0  0  0  0
    0.7156    7.9112   -0.0687 H   0  0  0  0  0  0  0  0  0  0  0  0
    1.0704    8.1275   -1.7504 H   0  0  0  0  0  0  0  0  0  0  0  0
    6.5061    9.9738    1.9202 H   0  0  0  0  0  0  0  0  0  0  0  0
    5.7063    7.7893    5.5753 H   0  0  0  0  0  0  0  0  0  0  0  0
    4.5996    6.5168    5.2827 H   0  0  0  0  0  0  0  0  0  0  0  0
    2.2630    7.0565    5.3345 H   0  0  0  0  0  0  0  0  0  0  0  0
    1.6050    5.4848    7.0003 H   0  0  0  0  0  0  0  0  0  0  0  0
    0.8045    1.9092    6.4100 H   0  0  0  0  0  0  0  0  0  0  0  0
    0.7497    1.3712    8.7701 H   0  0  0  0  0  0  0  0  0  0  0  0
   -0.9043    1.9719    8.8871 H   0  0  0  0  0  0  0  0  0  0  0  0
    2.2567    3.9221    9.9360 H   0  0  0  0  0  0  0  0  0  0  0  0
    2.5728    2.2343   10.3025 H   0  0  0  0  0  0  0  0  0  0  0  0
    2.1975    3.3673   11.6118 H   0  0  0  0  0  0  0  0  0  0  0  0
    0.1819    4.9915   10.3014 H   0  0  0  0  0  0  0  0  0  0  0  0
   -0.2690    4.3333   11.8451 H   0  0  0  0  0  0  0  0  0  0  0  0
   -1.3396    4.1071   10.4466 H   0  0  0  0  0  0  0  0  0  0  0  0
    1.8606    0.6081   11.5148 H   0  0  0  0  0  0  0  0  0  0  0  0
    1.2208   -0.8643   13.3507 H   0  0  0  0  0  0  0  0  0  0  0  0
   -1.0079   -0.6651   14.4177 H   0  0  0  0  0  0  0  0  0  0  0  0
   -2.6350    0.9989   13.5617 H   0  0  0  0  0  0  0  0  0  0  0  0
   -2.0426    2.4781   11.7210 H   0  0  0  0  0  0  0  0  0  0  0  0
  1  2  1  0  0  0  0
  1 45  1  0  0  0  0
  1 46  1  0  0  0  0
  1 47  1  0  0  0  0
  2  3  1  0  0  0  0
  3  4  1  0  0  0  0
  3 31  2  0  0  0  0
  4  5  2  0  0  0  0
  4 48  1  0  0  0  0
  5  6  1  0  0  0  0
  5 29  1  0  0  0  0
  6  7  2  0  0  0  0
  6 28  1  0  0  0  0
  7  8  1  0  0  0  0
  8 22  1  0  0  0  0
  9 10  1  0  0  0  0
  9 21  1  0  0  0  0
  9  8  1  0  0  0  0
  9 49  1  6  0  0  0
 10 11  1  0  0  0  0
 10 50  1  0  0  0  0
 10 51  1  0  0  0  0
 11 12  1  0  0  0  0
 11 52  1  0  0  0  0
 11 53  1  0  0  0  0
 12 20  1  0  0  0  0
 12 13  1  0  0  0  0
 12 54  1  1  0  0  0
 13 14  1  0  0  0  0
 13 19  1  0  0  0  0
 14 15  1  0  0  0  0
 14 55  1  0  0  0  0
 14 56  1  0  0  0  0
 15 16  1  0  0  0  0
 15 57  1  0  0  0  0
 15 58  1  0  0  0  0
 16 17  1  0  0  0  0
 16 18  1  0  0  0  0
 17 59  1  0  0  0  0
 17 60  1  0  0  0  0
 17 61  1  0  0  0  0
 18 19  1  0  0  0  0
 18 62  1  0  0  0  0
 18 63  1  0  0  0  0
 19 64  1  0  0  0  0
 19 65  1  0  0  0  0
 20 21  1  0  0  0  0
 20 66  1  0  0  0  0
 20 67  1  0  0  0  0
 21 68  1  0  0  0  0
 21 69  1  0  0  0  0
 22 23  1  0  0  0  0
 22 28  2  0  0  0  0
 23 24  2  0  0  0  0
 24 25  1  0  0  0  0
 24 70  1  0  0  0  0
 25 26  2  0  0  0  0
 26 27  1  0  0  0  0
 26 28  1  0  0  0  0
 27 71  1  0  0  0  0
 27 72  1  0  0  0  0
 29 30  2  0  0  0  0
 29 73  1  0  0  0  0
 30 31  1  0  0  0  0
 30 74  1  0  0  0  0
 31 32  1  0  0  0  0
 32 33  1  0  0  0  0
 32 75  1  0  0  0  0
 33 34  2  0  0  0  0
 33 35  1  0  0  0  0
 35 36  1  0  0  0  0
 35 76  1  0  0  0  0
 35 77  1  0  0  0  0
 36 37  1  0  0  0  0
 36 38  1  0  0  0  0
 36 39  1  0  0  0  0
 37 78  1  0  0  0  0
 37 79  1  0  0  0  0
 37 80  1  0  0  0  0
 38 81  1  0  0  0  0
 38 82  1  0  0  0  0
 38 83  1  0  0  0  0
 39 40  1  0  0  0  0
 39 44  2  0  0  0  0
 40 41  2  0  0  0  0
 40 84  1  0  0  0  0
 41 42  1  0  0  0  0
 41 85  1  0  0  0  0
 42 43  2  0  0  0  0
 42 86  1  0  0  0  0
 43 44  1  0  0  0  0
 43 87  1  0  0  0  0
 44 88  1  0  0  0  0
M  END
$$$$
