CHEMBL371206
 OpenBabel04072215373D

 50 53  0  0  0  0  0  0  0  0999 V2000
   -2.3813    0.9004   -0.8389 C   0  0  0  0  0  0  0  0  0  0  0  0
   -1.1761    0.0966   -1.2286 C   0  0  0  0  0  0  0  0  0  0  0  0
   -0.1623    0.6674   -2.0088 C   0  0  0  0  0  0  0  0  0  0  0  0
    0.9649   -0.0759   -2.3633 C   0  0  0  0  0  0  0  0  0  0  0  0
    2.0687    0.5123   -3.1925 C   0  0  0  0  0  0  0  0  0  0  0  0
    1.0754   -1.4004   -1.9152 C   0  0  0  0  0  0  0  0  0  0  0  0
    0.0888   -1.9812   -1.1090 C   0  0  0  0  0  0  0  0  0  0  0  0
    0.1960   -3.3031   -0.6098 N   0  0  0  0  0  0  0  0  0  0  0  0
    1.3990   -3.9650   -0.4446 C   0  0  0  0  0  0  0  0  0  0  0  0
    2.4981   -3.4378   -0.5717 O   0  0  0  0  0  0  0  0  0  0  0  0
    1.2198   -5.3086   -0.1329 N   0  0  0  0  0  0  0  0  0  0  0  0
    2.3391   -6.1456    0.0954 C   0  0  0  0  0  0  0  0  0  0  0  0
    3.4667   -5.6713    0.7657 C   0  0  0  0  0  0  0  0  0  0  0  0
    4.6446   -6.4182    0.7941 C   0  0  0  0  0  0  0  0  0  0  0  0
    4.6999   -7.7005    0.2357 C   0  0  0  0  0  0  0  0  0  0  0  0
    5.9700   -8.4514    0.1996 C   0  0  0  0  0  0  0  0  0  0  0  0
    6.8212   -8.5031    1.3071 C   0  0  0  0  0  0  0  0  0  0  0  0
    6.7152   -7.9304    2.6895 C   0  0  0  0  0  0  0  0  0  0  0  0
    8.2497   -9.3915    0.9810 S   0  0  0  0  0  0  0  0  0  0  0  0
    7.7581   -9.7520   -0.5955 C   0  0  0  0  0  0  0  0  0  0  0  0
    8.5589  -10.5054   -1.3670 N   0  0  0  0  0  0  0  0  0  0  0  0
    8.0548  -10.7073   -2.5796 C   0  0  0  0  0  0  0  0  0  0  0  0
    6.9011  -10.2332   -3.0623 N   0  0  0  0  0  0  0  0  0  0  0  0
    6.1298   -9.4666   -2.2669 C   0  0  0  0  0  0  0  0  0  0  0  0
    4.9769   -8.9889   -2.8804 N   0  0  0  0  0  0  0  0  0  0  0  0
    6.5324   -9.1971   -0.9373 C   0  0  0  0  0  0  0  0  0  0  0  0
    3.5211   -8.2198   -0.3208 C   0  0  0  0  0  0  0  0  0  0  0  0
    2.3518   -7.4442   -0.4097 C   0  0  0  0  0  0  0  0  0  0  0  0
   -1.0484   -1.2342   -0.7926 C   0  0  0  0  0  0  0  0  0  0  0  0
   -2.3331    1.9166   -1.2445 H   0  0  0  0  0  0  0  0  0  0  0  0
   -2.4455    0.9784    0.2511 H   0  0  0  0  0  0  0  0  0  0  0  0
   -3.2898    0.4267   -1.2229 H   0  0  0  0  0  0  0  0  0  0  0  0
   -0.2503    1.7007   -2.3414 H   0  0  0  0  0  0  0  0  0  0  0  0
    1.8478    1.5431   -3.4863 H   0  0  0  0  0  0  0  0  0  0  0  0
    2.2093   -0.0776   -4.1040 H   0  0  0  0  0  0  0  0  0  0  0  0
    3.0045    0.5162   -2.6229 H   0  0  0  0  0  0  0  0  0  0  0  0
    1.9520   -1.9685   -2.2163 H   0  0  0  0  0  0  0  0  0  0  0  0
   -0.5765   -3.6540   -0.0630 H   0  0  0  0  0  0  0  0  0  0  0  0
    0.4077   -5.7332   -0.5570 H   0  0  0  0  0  0  0  0  0  0  0  0
    3.4633   -4.6883    1.2326 H   0  0  0  0  0  0  0  0  0  0  0  0
    5.5201   -5.9554    1.2419 H   0  0  0  0  0  0  0  0  0  0  0  0
    5.7204   -7.5465    2.9225 H   0  0  0  0  0  0  0  0  0  0  0  0
    7.4347   -7.1117    2.8123 H   0  0  0  0  0  0  0  0  0  0  0  0
    6.9375   -8.6935    3.4435 H   0  0  0  0  0  0  0  0  0  0  0  0
    8.6461  -11.3177   -3.2542 H   0  0  0  0  0  0  0  0  0  0  0  0
    5.0402   -9.1576   -3.8795 H   0  0  0  0  0  0  0  0  0  0  0  0
    4.7519   -8.0349   -2.6249 H   0  0  0  0  0  0  0  0  0  0  0  0
    3.5093   -9.2205   -0.7499 H   0  0  0  0  0  0  0  0  0  0  0  0
    1.4941   -7.8478   -0.9411 H   0  0  0  0  0  0  0  0  0  0  0  0
   -1.8332   -1.6651   -0.1773 H   0  0  0  0  0  0  0  0  0  0  0  0
  1  2  1  0  0  0  0
  1 30  1  0  0  0  0
  1 31  1  0  0  0  0
  1 32  1  0  0  0  0
  2  3  1  0  0  0  0
  2 29  2  0  0  0  0
  3  4  2  0  0  0  0
  3 33  1  0  0  0  0
  4  5  1  0  0  0  0
  4  6  1  0  0  0  0
  5 34  1  0  0  0  0
  5 35  1  0  0  0  0
  5 36  1  0  0  0  0
  6  7  2  0  0  0  0
  6 37  1  0  0  0  0
  7  8  1  0  0  0  0
  7 29  1  0  0  0  0
  8  9  1  0  0  0  0
  8 38  1  0  0  0  0
  9 10  2  0  0  0  0
  9 11  1  0  0  0  0
 11 12  1  0  0  0  0
 11 39  1  0  0  0  0
 12 13  1  0  0  0  0
 12 28  2  0  0  0  0
 13 14  2  0  0  0  0
 13 40  1  0  0  0  0
 14 15  1  0  0  0  0
 14 41  1  0  0  0  0
 15 16  1  0  0  0  0
 15 27  2  0  0  0  0
 16 17  2  0  0  0  0
 16 26  1  0  0  0  0
 17 18  1  0  0  0  0
 17 19  1  0  0  0  0
 18 42  1  0  0  0  0
 18 43  1  0  0  0  0
 18 44  1  0  0  0  0
 19 20  1  0  0  0  0
 20 21  1  0  0  0  0
 20 26  2  0  0  0  0
 21 22  2  0  0  0  0
 22 23  1  0  0  0  0
 22 45  1  0  0  0  0
 23 24  2  0  0  0  0
 24 25  1  0  0  0  0
 24 26  1  0  0  0  0
 25 46  1  0  0  0  0
 25 47  1  0  0  0  0
 27 28  1  0  0  0  0
 27 48  1  0  0  0  0
 28 49  1  0  0  0  0
 29 50  1  0  0  0  0
M  END
$$$$
