CHEMBL3759261
 OpenBabel04072215373D

 53 55  0  0  0  0  0  0  0  0999 V2000
    2.7350    1.4338   -0.6933 C   0  0  0  0  0  0  0  0  0  0  0  0
    2.4908    0.2028   -0.0218 O   0  0  0  0  0  0  0  0  0  0  0  0
    3.1348   -0.0502    1.1576 C   0  0  0  0  0  0  0  0  0  0  0  0
    4.2748    0.6499    1.5683 C   0  0  0  0  0  0  0  0  0  0  0  0
    4.8714    0.4368    2.8020 C   0  0  0  0  0  0  0  0  0  0  0  0
    5.9299    1.1886    3.1153 N   0  0  0  0  0  0  0  0  0  0  0  0
    6.4799    0.9730    4.3129 C   0  0  0  0  0  0  0  0  0  0  0  0
    6.0852    0.0636    5.1995 N   0  0  0  0  0  0  0  0  0  0  0  0
    5.0290   -0.7040    4.8668 C   0  0  0  0  0  0  0  0  0  0  0  0
    4.6271   -1.7326    5.7675 N   0  0  0  0  0  0  0  0  0  0  0  0
    5.1303   -1.8524    7.0831 C   0  0  0  0  0  0  0  0  0  0  0  0
    5.1482   -0.7476    7.9434 C   0  0  0  0  0  0  0  0  0  0  0  0
    5.7257   -0.8327    9.2088 C   0  0  0  0  0  0  0  0  0  0  0  0
    6.2814   -2.0373    9.6278 C   0  0  0  0  0  0  0  0  0  0  0  0
    7.0443   -2.1312   11.1669 Cl  0  0  0  0  0  0  0  0  0  0  0  0
    6.2373   -3.1593    8.8037 C   0  0  0  0  0  0  0  0  0  0  0  0
    5.6565   -3.0708    7.5366 C   0  0  0  0  0  0  0  0  0  0  0  0
    4.3417   -0.5388    3.6530 C   0  0  0  0  0  0  0  0  0  0  0  0
    3.1976   -1.2678    3.2460 C   0  0  0  0  0  0  0  0  0  0  0  0
    2.6206   -1.0544    1.9914 C   0  0  0  0  0  0  0  0  0  0  0  0
    1.5402   -1.8643    1.7147 O   0  0  0  0  0  0  0  0  0  0  0  0
    1.5736   -2.4186    0.3975 C   0  0  0  0  0  0  0  0  0  0  0  0
    0.6056   -3.5976    0.2725 C   0  0  0  0  0  0  0  0  0  0  0  0
    0.6208   -4.0975   -1.1756 C   0  0  0  0  0  0  0  0  0  0  0  0
   -0.3682   -5.2280   -1.4372 C   0  0  0  0  0  0  0  0  0  0  0  0
   -0.3145   -5.6654   -2.9033 C   0  0  0  0  0  0  0  0  0  0  0  0
   -1.2646   -6.8086   -3.1837 C   0  0  0  0  0  0  0  0  0  0  0  0
   -1.9949   -7.3289   -2.3435 O   0  0  0  0  0  0  0  0  0  0  0  0
   -1.2430   -7.2412   -4.4893 N   0  0  0  0  0  0  0  0  0  0  0  0
   -2.2041   -8.2327   -4.8025 O   0  0  0  0  0  0  0  0  0  0  0  0
    3.4271    1.2623   -1.5230 H   0  0  0  0  0  0  0  0  0  0  0  0
    3.1022    2.2379   -0.0494 H   0  0  0  0  0  0  0  0  0  0  0  0
    1.7822    1.7767   -1.1067 H   0  0  0  0  0  0  0  0  0  0  0  0
    4.7399    1.3918    0.9274 H   0  0  0  0  0  0  0  0  0  0  0  0
    7.3285    1.5940    4.5837 H   0  0  0  0  0  0  0  0  0  0  0  0
    4.6264   -2.6185    5.2743 H   0  0  0  0  0  0  0  0  0  0  0  0
    4.7305    0.2010    7.6121 H   0  0  0  0  0  0  0  0  0  0  0  0
    5.7530    0.0464    9.8453 H   0  0  0  0  0  0  0  0  0  0  0  0
    6.6711   -4.0989    9.1342 H   0  0  0  0  0  0  0  0  0  0  0  0
    5.6546   -3.9490    6.8961 H   0  0  0  0  0  0  0  0  0  0  0  0
    2.7491   -2.0047    3.9083 H   0  0  0  0  0  0  0  0  0  0  0  0
    2.5876   -2.7629    0.1556 H   0  0  0  0  0  0  0  0  0  0  0  0
    1.2516   -1.6653   -0.3259 H   0  0  0  0  0  0  0  0  0  0  0  0
   -0.4038   -3.2820    0.5637 H   0  0  0  0  0  0  0  0  0  0  0  0
    0.8898   -4.3980    0.9663 H   0  0  0  0  0  0  0  0  0  0  0  0
    1.6337   -4.4356   -1.4274 H   0  0  0  0  0  0  0  0  0  0  0  0
    0.3885   -3.2607   -1.8465 H   0  0  0  0  0  0  0  0  0  0  0  0
   -1.3847   -4.8988   -1.1890 H   0  0  0  0  0  0  0  0  0  0  0  0
   -0.1402   -6.0804   -0.7862 H   0  0  0  0  0  0  0  0  0  0  0  0
    0.6996   -5.9911   -3.1629 H   0  0  0  0  0  0  0  0  0  0  0  0
   -0.5815   -4.8257   -3.5568 H   0  0  0  0  0  0  0  0  0  0  0  0
   -0.9407   -6.6513   -5.2581 H   0  0  0  0  0  0  0  0  0  0  0  0
   -2.6298   -8.3937   -3.9306 H   0  0  0  0  0  0  0  0  0  0  0  0
  1  2  1  0  0  0  0
  1 31  1  0  0  0  0
  1 32  1  0  0  0  0
  1 33  1  0  0  0  0
  2  3  1  0  0  0  0
  3  4  1  0  0  0  0
  3 20  2  0  0  0  0
  4  5  2  0  0  0  0
  4 34  1  0  0  0  0
  5  6  1  0  0  0  0
  5 18  1  0  0  0  0
  6  7  2  0  0  0  0
  7  8  1  0  0  0  0
  7 35  1  0  0  0  0
  8  9  2  0  0  0  0
  9 10  1  0  0  0  0
  9 18  1  0  0  0  0
 10 11  1  0  0  0  0
 10 36  1  0  0  0  0
 11 12  1  0  0  0  0
 11 17  2  0  0  0  0
 12 13  2  0  0  0  0
 12 37  1  0  0  0  0
 13 14  1  0  0  0  0
 13 38  1  0  0  0  0
 14 15  1  0  0  0  0
 14 16  2  0  0  0  0
 16 17  1  0  0  0  0
 16 39  1  0  0  0  0
 17 40  1  0  0  0  0
 18 19  2  0  0  0  0
 19 20  1  0  0  0  0
 19 41  1  0  0  0  0
 20 21  1  0  0  0  0
 21 22  1  0  0  0  0
 22 23  1  0  0  0  0
 22 42  1  0  0  0  0
 22 43  1  0  0  0  0
 23 24  1  0  0  0  0
 23 44  1  0  0  0  0
 23 45  1  0  0  0  0
 24 25  1  0  0  0  0
 24 46  1  0  0  0  0
 24 47  1  0  0  0  0
 25 26  1  0  0  0  0
 25 48  1  0  0  0  0
 25 49  1  0  0  0  0
 26 27  1  0  0  0  0
 26 50  1  0  0  0  0
 26 51  1  0  0  0  0
 27 28  2  0  0  0  0
 27 29  1  0  0  0  0
 29 30  1  0  0  0  0
 29 52  1  0  0  0  0
 30 53  1  0  0  0  0
M  END
$$$$
