CHEMBL4781578
 OpenBabel04072215383D

 66 68  0  0  0  0  0  0  0  0999 V2000
    4.7759    0.9723   -2.2745 C   0  0  0  0  0  0  0  0  0  0  0  0
    4.4448   -0.2732   -1.4563 C   0  0  0  0  0  0  0  0  0  0  0  0
    4.8907   -0.2941   -0.0466 N   0  0  0  0  0  0  0  0  0  0  0  0
    4.3410    0.8185    0.7590 C   0  0  0  0  0  0  0  0  0  0  0  0
    2.8235    0.8844    0.9169 C   0  0  0  0  0  0  0  0  0  0  0  0
    4.5389   -1.6112    0.5555 C   0  0  0  0  0  0  0  0  0  0  0  0
    5.1691   -2.8479   -0.1301 C   0  0  0  0  0  0  0  0  0  0  0  0
    6.6144   -2.8966   -0.1385 N   0  0  0  0  0  0  0  0  0  0  0  0
    7.2639   -3.9528   -0.7396 C   0  0  0  0  0  0  0  0  0  0  0  0
    6.6382   -4.8859   -1.2510 O   0  0  0  0  0  0  0  0  0  0  0  0
    8.7300   -3.8929   -0.7668 C   0  0  0  0  0  0  0  0  0  0  0  0
    9.5719   -3.2647    0.1471 C   0  0  0  0  0  0  0  0  0  0  0  0
    9.3069   -2.5148    1.4044 C   0  0  0  0  0  0  0  0  0  0  0  0
   10.8725   -3.5423   -0.2215 N   0  0  0  0  0  0  0  0  0  0  0  0
   10.9021   -4.3603   -1.3242 C   0  0  0  0  0  0  0  0  0  0  0  0
   12.1628   -4.8089   -1.8236 C   0  0  0  0  0  0  0  0  0  0  0  0
   12.7681   -5.9304   -1.4210 C   0  0  0  0  0  0  0  0  0  0  0  0
   12.2716   -6.8934   -0.3591 C   0  0  0  0  0  0  0  0  0  0  0  0
   11.3377   -6.7813    0.3997 O   0  0  0  0  0  0  0  0  0  0  0  0
   13.1583   -7.9574   -0.3868 N   0  0  0  0  0  0  0  0  0  0  0  0
   14.1926   -7.7356   -1.2858 C   0  0  0  0  0  0  0  0  0  0  0  0
   15.2641   -8.5766   -1.4967 C   0  0  0  0  0  0  0  0  0  0  0  0
   16.2308   -8.1593   -2.4060 C   0  0  0  0  0  0  0  0  0  0  0  0
   16.1213   -6.9178   -3.0775 C   0  0  0  0  0  0  0  0  0  0  0  0
   17.2522   -6.5501   -4.0211 C   0  0  0  0  0  0  0  0  0  0  0  0
   17.5310   -5.0644   -4.2032 C   0  0  0  0  0  0  0  0  0  0  0  0
   17.8825   -4.2994   -2.9427 C   0  0  0  0  0  0  0  0  0  0  0  0
   19.0069   -4.6511   -2.2632 N   0  0  0  0  0  0  0  0  0  0  0  0
   17.2153   -3.3495   -2.5627 O   0  0  0  0  0  0  0  0  0  0  0  0
   14.9873   -6.0999   -2.8589 C   0  0  0  0  0  0  0  0  0  0  0  0
   14.0281   -6.5152   -1.9461 C   0  0  0  0  0  0  0  0  0  0  0  0
    9.5912   -4.5787   -1.7072 C   0  0  0  0  0  0  0  0  0  0  0  0
    9.1274   -5.4227   -2.8459 C   0  0  0  0  0  0  0  0  0  0  0  0
    4.6838    0.7424   -3.3436 H   0  0  0  0  0  0  0  0  0  0  0  0
    5.8008    1.3120   -2.0978 H   0  0  0  0  0  0  0  0  0  0  0  0
    4.0820    1.7908   -2.0682 H   0  0  0  0  0  0  0  0  0  0  0  0
    4.9404   -1.0913   -1.9869 H   0  0  0  0  0  0  0  0  0  0  0  0
    3.3695   -0.4679   -1.5246 H   0  0  0  0  0  0  0  0  0  0  0  0
    4.6288    1.7697    0.2913 H   0  0  0  0  0  0  0  0  0  0  0  0
    4.8089    0.8300    1.7513 H   0  0  0  0  0  0  0  0  0  0  0  0
    2.3136    0.6709   -0.0240 H   0  0  0  0  0  0  0  0  0  0  0  0
    2.5350    1.8978    1.2173 H   0  0  0  0  0  0  0  0  0  0  0  0
    2.4576    0.2008    1.6888 H   0  0  0  0  0  0  0  0  0  0  0  0
    3.4491   -1.7388    0.5152 H   0  0  0  0  0  0  0  0  0  0  0  0
    4.8199   -1.6184    1.6160 H   0  0  0  0  0  0  0  0  0  0  0  0
    4.8453   -2.9224   -1.1721 H   0  0  0  0  0  0  0  0  0  0  0  0
    4.8117   -3.7591    0.3627 H   0  0  0  0  0  0  0  0  0  0  0  0
    7.1401   -2.0529    0.0529 H   0  0  0  0  0  0  0  0  0  0  0  0
    8.2444   -2.4519    1.6471 H   0  0  0  0  0  0  0  0  0  0  0  0
    9.6945   -1.4943    1.3344 H   0  0  0  0  0  0  0  0  0  0  0  0
    9.7850   -3.0147    2.2518 H   0  0  0  0  0  0  0  0  0  0  0  0
   11.6829   -3.2698    0.3153 H   0  0  0  0  0  0  0  0  0  0  0  0
   12.5898   -4.2236   -2.6366 H   0  0  0  0  0  0  0  0  0  0  0  0
   13.0685   -8.7464    0.2292 H   0  0  0  0  0  0  0  0  0  0  0  0
   15.3642   -9.5173   -0.9683 H   0  0  0  0  0  0  0  0  0  0  0  0
   17.0945   -8.7999   -2.5796 H   0  0  0  0  0  0  0  0  0  0  0  0
   17.0328   -6.9952   -5.0014 H   0  0  0  0  0  0  0  0  0  0  0  0
   18.1683   -7.0356   -3.6587 H   0  0  0  0  0  0  0  0  0  0  0  0
   16.6485   -4.5785   -4.6321 H   0  0  0  0  0  0  0  0  0  0  0  0
   18.3516   -4.9301   -4.9187 H   0  0  0  0  0  0  0  0  0  0  0  0
   19.6402   -5.3925   -2.5187 H   0  0  0  0  0  0  0  0  0  0  0  0
   19.2196   -4.1007   -1.4388 H   0  0  0  0  0  0  0  0  0  0  0  0
   14.8702   -5.1472   -3.3650 H   0  0  0  0  0  0  0  0  0  0  0  0
    9.9685   -5.8293   -3.4169 H   0  0  0  0  0  0  0  0  0  0  0  0
    8.5109   -4.8331   -3.5316 H   0  0  0  0  0  0  0  0  0  0  0  0
    8.5368   -6.2679   -2.4802 H   0  0  0  0  0  0  0  0  0  0  0  0
  1  2  1  0  0  0  0
  1 34  1  0  0  0  0
  1 35  1  0  0  0  0
  1 36  1  0  0  0  0
  2  3  1  0  0  0  0
  2 37  1  0  0  0  0
  2 38  1  0  0  0  0
  3  4  1  0  0  0  0
  3  6  1  0  0  0  0
  4  5  1  0  0  0  0
  4 39  1  0  0  0  0
  4 40  1  0  0  0  0
  5 41  1  0  0  0  0
  5 42  1  0  0  0  0
  5 43  1  0  0  0  0
  6  7  1  0  0  0  0
  6 44  1  0  0  0  0
  6 45  1  0  0  0  0
  7  8  1  0  0  0  0
  7 46  1  0  0  0  0
  7 47  1  0  0  0  0
  8  9  1  0  0  0  0
  8 48  1  0  0  0  0
  9 10  2  0  0  0  0
  9 11  1  0  0  0  0
 11 12  2  0  0  0  0
 11 32  1  0  0  0  0
 12 13  1  0  0  0  0
 12 14  1  0  0  0  0
 13 49  1  0  0  0  0
 13 50  1  0  0  0  0
 13 51  1  0  0  0  0
 14 15  1  0  0  0  0
 14 52  1  0  0  0  0
 15 16  1  0  0  0  0
 15 32  2  0  0  0  0
 16 17  2  0  0  0  0
 16 53  1  0  0  0  0
 17 18  1  0  0  0  0
 17 31  1  0  0  0  0
 18 19  2  0  0  0  0
 18 20  1  0  0  0  0
 20 21  1  0  0  0  0
 20 54  1  0  0  0  0
 21 22  1  0  0  0  0
 21 31  2  0  0  0  0
 22 23  2  0  0  0  0
 22 55  1  0  0  0  0
 23 24  1  0  0  0  0
 23 56  1  0  0  0  0
 24 25  1  0  0  0  0
 24 30  2  0  0  0  0
 25 26  1  0  0  0  0
 25 57  1  0  0  0  0
 25 58  1  0  0  0  0
 26 27  1  0  0  0  0
 26 59  1  0  0  0  0
 26 60  1  0  0  0  0
 27 28  1  0  0  0  0
 27 29  2  0  0  0  0
 28 61  1  0  0  0  0
 28 62  1  0  0  0  0
 30 31  1  0  0  0  0
 30 63  1  0  0  0  0
 32 33  1  0  0  0  0
 33 64  1  0  0  0  0
 33 65  1  0  0  0  0
 33 66  1  0  0  0  0
M  END
$$$$
