CHEMBL3741625
 OpenBabel04072215373D

 62 66  0  0  0  0  0  0  0  0999 V2000
   18.4397   -3.2633    5.7717 C   0  0  0  0  0  0  0  0  0  0  0  0
   17.2291   -2.5019    4.7230 S   0  0  0  0  0  0  0  0  0  0  0  0
   17.9594   -1.8736    3.6387 O   0  0  0  0  0  0  0  0  0  0  0  0
   16.2210   -3.5105    4.4633 O   0  0  0  0  0  0  0  0  0  0  0  0
   16.5388   -1.2380    5.7911 C   0  0  0  0  0  0  0  0  0  0  0  0
   15.5313   -0.3993    5.0462 C   0  0  0  0  0  0  0  0  0  0  0  0
   15.7535    0.9778    4.9059 C   0  0  0  0  0  0  0  0  0  0  0  0
   14.8447    1.7698    4.2151 C   0  0  0  0  0  0  0  0  0  0  0  0
   13.7017    1.1945    3.6666 C   0  0  0  0  0  0  0  0  0  0  0  0
   13.4237   -0.1710    3.8055 C   0  0  0  0  0  0  0  0  0  0  0  0
   12.3058   -0.7770    3.2083 N   0  0  0  0  0  0  0  0  0  0  0  0
   11.4255   -0.2923    2.2404 C   0  0  0  0  0  0  0  0  0  0  0  0
   10.2693   -0.9425    2.0637 N   0  0  0  0  0  0  0  0  0  0  0  0
    9.4366   -0.4535    1.1181 C   0  0  0  0  0  0  0  0  0  0  0  0
    9.7358    0.6097    0.2951 C   0  0  0  0  0  0  0  0  0  0  0  0
   10.9721    1.1598    0.4971 C   0  0  0  0  0  0  0  0  0  0  0  0
   11.4184    2.1534   -0.3847 O   0  0  0  0  0  0  0  0  0  0  0  0
   12.7865    2.3565   -0.4834 C   0  0  0  0  0  0  0  0  0  0  0  0
   13.7163    1.3291   -0.3061 C   0  0  0  0  0  0  0  0  0  0  0  0
   15.0701    1.6202   -0.1482 C   0  0  0  0  0  0  0  0  0  0  0  0
   15.5361    2.9164   -0.3771 C   0  0  0  0  0  0  0  0  0  0  0  0
   16.9019    3.2414   -0.3467 C   0  0  0  0  0  0  0  0  0  0  0  0
   17.2452    4.5005    0.5175 C   0  0  0  0  0  0  0  0  0  0  0  0
   16.4742    4.9523    1.3573 O   0  0  0  0  0  0  0  0  0  0  0  0
   18.4709    5.1169    0.2346 N   0  0  0  0  0  0  0  0  0  0  0  0
   18.9021    6.4193    0.8080 C   0  0  0  0  0  0  0  0  0  0  0  0
   18.6143    7.6837   -0.0594 C   0  0  0  0  0  0  0  0  0  0  0  0
   19.9705    8.2358    0.4425 C   0  0  0  0  0  0  0  0  0  0  0  0
   20.4093    6.7606    0.5744 C   0  0  0  0  0  0  0  0  0  0  0  0
   17.3643    3.4045   -1.6286 C   0  0  0  0  0  0  0  0  0  0  0  0
   16.5760    4.2033   -2.4571 C   0  0  0  0  0  0  0  0  0  0  0  0
   15.2676    4.5376   -2.0780 C   0  0  0  0  0  0  0  0  0  0  0  0
   14.6644    3.7725   -1.0609 C   0  0  0  0  0  0  0  0  0  0  0  0
   13.2656    3.5975   -0.9131 C   0  0  0  0  0  0  0  0  0  0  0  0
   11.7747    0.7587    1.4946 N   0  0  0  0  0  0  0  0  0  0  0  0
   14.3520   -0.9556    4.5083 C   0  0  0  0  0  0  0  0  0  0  0  0
   18.9070   -4.0774    5.2125 H   0  0  0  0  0  0  0  0  0  0  0  0
   17.9390   -3.6585    6.6567 H   0  0  0  0  0  0  0  0  0  0  0  0
   19.1909   -2.5216    6.0465 H   0  0  0  0  0  0  0  0  0  0  0  0
   17.3795   -0.6268    6.1369 H   0  0  0  0  0  0  0  0  0  0  0  0
   16.0733   -1.7260    6.6506 H   0  0  0  0  0  0  0  0  0  0  0  0
   16.6408    1.4513    5.3191 H   0  0  0  0  0  0  0  0  0  0  0  0
   15.0206    2.8356    4.0858 H   0  0  0  0  0  0  0  0  0  0  0  0
   13.0255    1.8527    3.1277 H   0  0  0  0  0  0  0  0  0  0  0  0
   11.9866   -1.6542    3.5887 H   0  0  0  0  0  0  0  0  0  0  0  0
    8.4877   -0.9764    1.0356 H   0  0  0  0  0  0  0  0  0  0  0  0
    9.0553    0.9630   -0.4639 H   0  0  0  0  0  0  0  0  0  0  0  0
   13.3957    0.2930   -0.2360 H   0  0  0  0  0  0  0  0  0  0  0  0
   15.7537    0.8085    0.0783 H   0  0  0  0  0  0  0  0  0  0  0  0
   19.0685    4.6643   -0.4361 H   0  0  0  0  0  0  0  0  0  0  0  0
   18.6037    6.5354    1.8576 H   0  0  0  0  0  0  0  0  0  0  0  0
   17.7441    8.2818    0.2218 H   0  0  0  0  0  0  0  0  0  0  0  0
   18.5973    7.5185   -1.1440 H   0  0  0  0  0  0  0  0  0  0  0  0
   19.9112    8.7683    1.4001 H   0  0  0  0  0  0  0  0  0  0  0  0
   20.5394    8.8506   -0.2615 H   0  0  0  0  0  0  0  0  0  0  0  0
   21.0907    6.5502    1.4022 H   0  0  0  0  0  0  0  0  0  0  0  0
   20.8438    6.3631   -0.3519 H   0  0  0  0  0  0  0  0  0  0  0  0
   18.3196    2.9868   -1.9164 H   0  0  0  0  0  0  0  0  0  0  0  0
   16.9712    4.5030   -3.4301 H   0  0  0  0  0  0  0  0  0  0  0  0
   14.6604    5.1684   -2.7252 H   0  0  0  0  0  0  0  0  0  0  0  0
   12.5769    4.3626   -1.2538 H   0  0  0  0  0  0  0  0  0  0  0  0
   14.1672   -2.0237    4.6106 H   0  0  0  0  0  0  0  0  0  0  0  0
  1  2  1  0  0  0  0
  1 37  1  0  0  0  0
  1 38  1  0  0  0  0
  1 39  1  0  0  0  0
  2  3  2  0  0  0  0
  2  4  2  0  0  0  0
  2  5  1  0  0  0  0
  5  6  1  0  0  0  0
  5 40  1  0  0  0  0
  5 41  1  0  0  0  0
  6  7  1  0  0  0  0
  6 36  2  0  0  0  0
  7  8  2  0  0  0  0
  7 42  1  0  0  0  0
  8  9  1  0  0  0  0
  8 43  1  0  0  0  0
  9 10  2  0  0  0  0
  9 44  1  0  0  0  0
 10 11  1  0  0  0  0
 10 36  1  0  0  0  0
 11 12  1  0  0  0  0
 11 45  1  0  0  0  0
 12 13  1  0  0  0  0
 12 35  2  0  0  0  0
 13 14  2  0  0  0  0
 14 15  1  0  0  0  0
 14 46  1  0  0  0  0
 15 16  2  0  0  0  0
 15 47  1  0  0  0  0
 16 17  1  0  0  0  0
 16 35  1  0  0  0  0
 17 18  1  0  0  0  0
 18 19  1  0  0  0  0
 18 34  2  0  0  0  0
 19 20  2  0  0  0  0
 19 48  1  0  0  0  0
 20 21  1  0  0  0  0
 20 49  1  0  0  0  0
 21 22  1  0  0  0  0
 21 33  2  0  0  0  0
 22 23  1  0  0  0  0
 22 30  2  0  0  0  0
 23 24  2  0  0  0  0
 23 25  1  0  0  0  0
 25 26  1  0  0  0  0
 25 50  1  0  0  0  0
 26 27  1  0  0  0  0
 26 29  1  0  0  0  0
 26 51  1  0  0  0  0
 27 28  1  0  0  0  0
 27 52  1  0  0  0  0
 27 53  1  0  0  0  0
 28 29  1  0  0  0  0
 28 54  1  0  0  0  0
 28 55  1  0  0  0  0
 29 56  1  0  0  0  0
 29 57  1  0  0  0  0
 30 31  1  0  0  0  0
 30 58  1  0  0  0  0
 31 32  2  0  0  0  0
 31 59  1  0  0  0  0
 32 33  1  0  0  0  0
 32 60  1  0  0  0  0
 33 34  1  0  0  0  0
 34 61  1  0  0  0  0
 36 62  1  0  0  0  0
M  END
$$$$
