CHEMBL4159244
 OpenBabel04072215383D

 48 50  0  0  0  0  0  0  0  0999 V2000
    5.3753    2.6641    4.2950 C   0  0  0  0  0  0  0  0  0  0  0  0
    5.8633    3.4178    3.2980 C   0  0  0  0  0  0  0  0  0  0  0  0
    5.3756    3.2052    1.9094 C   0  0  0  0  0  0  0  0  0  0  0  0
    4.4287    2.4577    1.6765 O   0  0  0  0  0  0  0  0  0  0  0  0
    6.1229    3.8720    0.9667 N   0  0  0  0  0  0  0  0  0  0  0  0
    5.8601    3.7553   -0.4026 C   0  0  0  0  0  0  0  0  0  0  0  0
    4.5632    3.7826   -0.8919 C   0  0  0  0  0  0  0  0  0  0  0  0
    4.3624    3.6077   -2.2532 C   0  0  0  0  0  0  0  0  0  0  0  0
    5.4598    3.3811   -3.0762 C   0  0  0  0  0  0  0  0  0  0  0  0
    6.7391    3.3886   -2.5228 C   0  0  0  0  0  0  0  0  0  0  0  0
    7.9620    3.1872   -3.3330 C   0  0  0  0  0  0  0  0  0  0  0  0
    9.1762    3.7365   -2.9046 C   0  0  0  0  0  0  0  0  0  0  0  0
   10.3407    3.6309   -3.6707 C   0  0  0  0  0  0  0  0  0  0  0  0
   10.3526    2.9547   -4.8830 C   0  0  0  0  0  0  0  0  0  0  0  0
   11.4934    2.8701   -5.7151 N   0  0  0  0  0  0  0  0  0  0  0  0
   12.7532    3.3502   -5.3910 C   0  0  0  0  0  0  0  0  0  0  0  0
   13.0841    3.8006   -4.2993 O   0  0  0  0  0  0  0  0  0  0  0  0
   13.6251    3.3183   -6.4761 N   0  0  0  0  0  0  0  0  0  0  0  0
   14.9525    3.7962   -6.3318 C   0  0  0  0  0  0  0  0  0  0  0  0
   15.4650    4.6681   -7.2920 C   0  0  0  0  0  0  0  0  0  0  0  0
   16.7310    5.2311   -7.1163 C   0  0  0  0  0  0  0  0  0  0  0  0
   17.5065    4.8895   -6.0064 C   0  0  0  0  0  0  0  0  0  0  0  0
   17.0229    3.9841   -5.0525 C   0  0  0  0  0  0  0  0  0  0  0  0
   17.8459    3.5965   -3.8498 C   0  0  0  0  0  0  0  0  0  0  0  0
   19.0698    4.1977   -3.8166 F   0  0  0  0  0  0  0  0  0  0  0  0
   17.2467    3.9141   -2.6698 F   0  0  0  0  0  0  0  0  0  0  0  0
   18.0942    2.2576   -3.7968 F   0  0  0  0  0  0  0  0  0  0  0  0
   15.7381    3.4449   -5.2256 C   0  0  0  0  0  0  0  0  0  0  0  0
    9.1597    2.3579   -5.3172 C   0  0  0  0  0  0  0  0  0  0  0  0
    7.9853    2.4725   -4.5446 C   0  0  0  0  0  0  0  0  0  0  0  0
    6.9402    3.6286   -1.1968 N   0  0  0  0  0  0  0  0  0  0  0  0
    5.6847    2.8193    5.3220 H   0  0  0  0  0  0  0  0  0  0  0  0
    4.6567    1.8717    4.1056 H   0  0  0  0  0  0  0  0  0  0  0  0
    6.5699    4.2129    3.4895 H   0  0  0  0  0  0  0  0  0  0  0  0
    7.0785    4.1136    1.1851 H   0  0  0  0  0  0  0  0  0  0  0  0
    3.7174    3.9530   -0.2336 H   0  0  0  0  0  0  0  0  0  0  0  0
    3.3582    3.6388   -2.6649 H   0  0  0  0  0  0  0  0  0  0  0  0
    5.3024    3.2285   -4.1378 H   0  0  0  0  0  0  0  0  0  0  0  0
    9.2299    4.2774   -1.9632 H   0  0  0  0  0  0  0  0  0  0  0  0
   11.2211    4.1154   -3.2636 H   0  0  0  0  0  0  0  0  0  0  0  0
   11.4178    2.3312   -6.5671 H   0  0  0  0  0  0  0  0  0  0  0  0
   13.1852    3.4868   -7.3687 H   0  0  0  0  0  0  0  0  0  0  0  0
   14.8656    4.9759   -8.1433 H   0  0  0  0  0  0  0  0  0  0  0  0
   17.1071    5.9554   -7.8351 H   0  0  0  0  0  0  0  0  0  0  0  0
   18.4892    5.3430   -5.8829 H   0  0  0  0  0  0  0  0  0  0  0  0
   15.3490    2.7550   -4.4774 H   0  0  0  0  0  0  0  0  0  0  0  0
    9.1210    1.8039   -6.2458 H   0  0  0  0  0  0  0  0  0  0  0  0
    7.0913    1.9742   -4.9112 H   0  0  0  0  0  0  0  0  0  0  0  0
  1  2  2  0  0  0  0
  1 32  1  0  0  0  0
  1 33  1  0  0  0  0
  2  3  1  0  0  0  0
  2 34  1  0  0  0  0
  3  4  2  0  0  0  0
  3  5  1  0  0  0  0
  5  6  1  0  0  0  0
  5 35  1  0  0  0  0
  6  7  1  0  0  0  0
  6 31  2  0  0  0  0
  7  8  2  0  0  0  0
  7 36  1  0  0  0  0
  8  9  1  0  0  0  0
  8 37  1  0  0  0  0
  9 10  2  0  0  0  0
  9 38  1  0  0  0  0
 10 11  1  0  0  0  0
 10 31  1  0  0  0  0
 11 12  1  0  0  0  0
 11 30  2  0  0  0  0
 12 13  2  0  0  0  0
 12 39  1  0  0  0  0
 13 14  1  0  0  0  0
 13 40  1  0  0  0  0
 14 15  1  0  0  0  0
 14 29  2  0  0  0  0
 15 16  1  0  0  0  0
 15 41  1  0  0  0  0
 16 17  2  0  0  0  0
 16 18  1  0  0  0  0
 18 19  1  0  0  0  0
 18 42  1  0  0  0  0
 19 20  1  0  0  0  0
 19 28  2  0  0  0  0
 20 21  2  0  0  0  0
 20 43  1  0  0  0  0
 21 22  1  0  0  0  0
 21 44  1  0  0  0  0
 22 23  2  0  0  0  0
 22 45  1  0  0  0  0
 23 24  1  0  0  0  0
 23 28  1  0  0  0  0
 24 25  1  0  0  0  0
 24 26  1  0  0  0  0
 24 27  1  0  0  0  0
 28 46  1  0  0  0  0
 29 30  1  0  0  0  0
 29 47  1  0  0  0  0
 30 48  1  0  0  0  0
M  END
$$$$
