CHEMBL1987756
 OpenBabel04072215363D

 47 49  0  0  0  0  0  0  0  0999 V2000
    3.2167    0.0311    1.3818 O   0  0  0  0  0  0  0  0  0  0  0  0
    2.6259   -0.1436    0.0772 S   0  0  0  0  0  0  0  0  0  0  0  0
    1.1966   -0.2577   -0.1001 O   0  0  0  0  0  0  0  0  0  0  0  0
    3.1607    1.1394   -0.8900 N   0  0  0  0  0  0  0  0  0  0  0  0
    2.6025    1.1901   -2.2419 C   0  0  0  0  0  0  0  0  0  0  0  0
    3.0474    2.4532   -2.9963 C   0  0  0  0  0  0  0  0  0  0  0  0
    2.5271    2.5106   -4.3691 N   0  0  0  0  0  0  0  0  0  0  0  0
    1.0648    2.5542   -4.3882 C   0  0  0  0  0  0  0  0  0  0  0  0
    0.5840    2.5566   -5.7985 C   0  0  0  0  0  0  0  0  0  0  0  0
   -0.2036    1.5963   -6.3123 C   0  0  0  0  0  0  0  0  0  0  0  0
   -0.6765    1.5851   -7.6999 C   0  0  0  0  0  0  0  0  0  0  0  0
    0.0834    2.1372   -8.7401 C   0  0  0  0  0  0  0  0  0  0  0  0
   -0.3792    2.1011  -10.0557 C   0  0  0  0  0  0  0  0  0  0  0  0
   -1.5974    1.4953  -10.3418 C   0  0  0  0  0  0  0  0  0  0  0  0
   -2.2215    1.4469  -12.1246 Br  0  0  0  0  0  0  0  0  0  0  0  0
   -2.3569    0.9193   -9.3243 C   0  0  0  0  0  0  0  0  0  0  0  0
   -1.8940    0.9602   -8.0064 C   0  0  0  0  0  0  0  0  0  0  0  0
    3.4036   -1.5633   -0.6795 C   0  0  0  0  0  0  0  0  0  0  0  0
    2.5562   -2.5424   -1.2269 C   0  0  0  0  0  0  0  0  0  0  0  0
    3.0961   -3.6844   -1.8063 C   0  0  0  0  0  0  0  0  0  0  0  0
    4.4773   -3.8462   -1.8543 C   0  0  0  0  0  0  0  0  0  0  0  0
    5.3382   -2.8695   -1.3239 C   0  0  0  0  0  0  0  0  0  0  0  0
    6.7246   -3.0297   -1.3887 C   0  0  0  0  0  0  0  0  0  0  0  0
    7.6273   -2.1466   -0.9106 N   0  0  0  0  0  0  0  0  0  0  0  0
    7.1308   -1.0569   -0.3040 C   0  0  0  0  0  0  0  0  0  0  0  0
    5.7736   -0.8025   -0.1714 C   0  0  0  0  0  0  0  0  0  0  0  0
    4.8229   -1.7068   -0.7069 C   0  0  0  0  0  0  0  0  0  0  0  0
    4.1569    1.3268   -0.8013 H   0  0  0  0  0  0  0  0  0  0  0  0
    1.5152    1.1914   -2.1406 H   0  0  0  0  0  0  0  0  0  0  0  0
    2.9129    0.3058   -2.8071 H   0  0  0  0  0  0  0  0  0  0  0  0
    4.1440    2.4740   -3.0488 H   0  0  0  0  0  0  0  0  0  0  0  0
    2.7594    3.3585   -2.4471 H   0  0  0  0  0  0  0  0  0  0  0  0
    2.8366    1.6866   -4.8853 H   0  0  0  0  0  0  0  0  0  0  0  0
    0.7062    3.4580   -3.8849 H   0  0  0  0  0  0  0  0  0  0  0  0
    0.6301    1.6894   -3.8784 H   0  0  0  0  0  0  0  0  0  0  0  0
    0.8946    3.4105   -6.3947 H   0  0  0  0  0  0  0  0  0  0  0  0
   -0.5349    0.7670   -5.6891 H   0  0  0  0  0  0  0  0  0  0  0  0
    1.0475    2.5968   -8.5398 H   0  0  0  0  0  0  0  0  0  0  0  0
    0.2230    2.5460  -10.8428 H   0  0  0  0  0  0  0  0  0  0  0  0
   -3.3068    0.4396   -9.5442 H   0  0  0  0  0  0  0  0  0  0  0  0
   -2.4967    0.5087   -7.2215 H   0  0  0  0  0  0  0  0  0  0  0  0
    1.4743   -2.4299   -1.1953 H   0  0  0  0  0  0  0  0  0  0  0  0
    2.4426   -4.4524   -2.2139 H   0  0  0  0  0  0  0  0  0  0  0  0
    4.8834   -4.7504   -2.3053 H   0  0  0  0  0  0  0  0  0  0  0  0
    7.1679   -3.9108   -1.8466 H   0  0  0  0  0  0  0  0  0  0  0  0
    7.8710   -0.3678    0.0942 H   0  0  0  0  0  0  0  0  0  0  0  0
    5.4890    0.0908    0.3732 H   0  0  0  0  0  0  0  0  0  0  0  0
  1  2  2  0  0  0  0
  2  3  2  0  0  0  0
  2  4  1  0  0  0  0
  2 18  1  0  0  0  0
  4  5  1  0  0  0  0
  4 28  1  0  0  0  0
  5  6  1  0  0  0  0
  5 29  1  0  0  0  0
  5 30  1  0  0  0  0
  6  7  1  0  0  0  0
  6 31  1  0  0  0  0
  6 32  1  0  0  0  0
  7  8  1  0  0  0  0
  7 33  1  0  0  0  0
  8  9  1  0  0  0  0
  8 34  1  0  0  0  0
  8 35  1  0  0  0  0
  9 10  2  3  0  0  0
  9 36  1  0  0  0  0
 10 11  1  0  0  0  0
 10 37  1  0  0  0  0
 11 12  1  0  0  0  0
 11 17  2  0  0  0  0
 12 13  2  0  0  0  0
 12 38  1  0  0  0  0
 13 14  1  0  0  0  0
 13 39  1  0  0  0  0
 14 15  1  0  0  0  0
 14 16  2  0  0  0  0
 16 17  1  0  0  0  0
 16 40  1  0  0  0  0
 17 41  1  0  0  0  0
 18 19  1  0  0  0  0
 18 27  2  0  0  0  0
 19 20  2  0  0  0  0
 19 42  1  0  0  0  0
 20 21  1  0  0  0  0
 20 43  1  0  0  0  0
 21 22  2  0  0  0  0
 21 44  1  0  0  0  0
 22 23  1  0  0  0  0
 22 27  1  0  0  0  0
 23 24  2  0  0  0  0
 23 45  1  0  0  0  0
 24 25  1  0  0  0  0
 25 26  2  0  0  0  0
 25 46  1  0  0  0  0
 26 27  1  0  0  0  0
 26 47  1  0  0  0  0
M  END
$$$$
