CHEMBL3741592
 OpenBabel04072215373D

 59 63  0  0  0  0  0  0  0  0999 V2000
    8.0897   -0.6782    3.0878 C   0  0  0  0  0  0  0  0  0  0  0  0
    6.5447   -1.4389    2.6379 S   0  0  0  0  0  0  0  0  0  0  0  0
    6.4522   -2.7099    3.3100 O   0  0  0  0  0  0  0  0  0  0  0  0
    5.5077   -0.4316    2.7774 O   0  0  0  0  0  0  0  0  0  0  0  0
    6.7759   -1.7586    0.8985 C   0  0  0  0  0  0  0  0  0  0  0  0
    6.3030   -0.8411   -0.0391 C   0  0  0  0  0  0  0  0  0  0  0  0
    6.5093   -1.0919   -1.3859 C   0  0  0  0  0  0  0  0  0  0  0  0
    7.1773   -2.2546   -1.7905 C   0  0  0  0  0  0  0  0  0  0  0  0
    7.6146   -3.2136   -0.8644 C   0  0  0  0  0  0  0  0  0  0  0  0
    8.2787   -4.3933   -1.2248 N   0  0  0  0  0  0  0  0  0  0  0  0
    8.4447   -5.0260   -2.4588 C   0  0  0  0  0  0  0  0  0  0  0  0
    8.7366   -6.3345   -2.3922 N   0  0  0  0  0  0  0  0  0  0  0  0
    8.8067   -7.0071   -3.5552 C   0  0  0  0  0  0  0  0  0  0  0  0
    8.6197   -6.4223   -4.7807 C   0  0  0  0  0  0  0  0  0  0  0  0
    8.4056   -5.0628   -4.7581 C   0  0  0  0  0  0  0  0  0  0  0  0
    8.2311   -4.2891   -5.8904 O   0  0  0  0  0  0  0  0  0  0  0  0
    8.7736   -4.7473   -7.0639 C   0  0  0  0  0  0  0  0  0  0  0  0
    7.9325   -4.8518   -8.1692 C   0  0  0  0  0  0  0  0  0  0  0  0
    8.3917   -5.5121   -9.3105 C   0  0  0  0  0  0  0  0  0  0  0  0
    9.7225   -5.9718   -9.3757 C   0  0  0  0  0  0  0  0  0  0  0  0
   10.2835   -6.6316  -10.4792 C   0  0  0  0  0  0  0  0  0  0  0  0
   11.0445   -7.9624  -10.0683 C   0  0  0  0  0  0  0  0  0  0  0  0
   10.8177   -8.5066   -8.9912 O   0  0  0  0  0  0  0  0  0  0  0  0
   11.9790   -8.4107  -11.0086 N   0  0  0  0  0  0  0  0  0  0  0  0
   12.9837   -9.4086  -10.8793 C   0  0  0  0  0  0  0  0  0  0  0  0
   13.2532  -10.1314   -9.7163 C   0  0  0  0  0  0  0  0  0  0  0  0
   14.2768  -11.0962   -9.6959 C   0  0  0  0  0  0  0  0  0  0  0  0
   15.0440  -11.3452  -10.8342 C   0  0  0  0  0  0  0  0  0  0  0  0
   14.7998  -10.6189  -11.9923 C   0  0  0  0  0  0  0  0  0  0  0  0
   13.7822   -9.6548  -12.0110 C   0  0  0  0  0  0  0  0  0  0  0  0
   11.1500   -5.7850  -11.1364 C   0  0  0  0  0  0  0  0  0  0  0  0
   12.0725   -5.1137  -10.3417 C   0  0  0  0  0  0  0  0  0  0  0  0
   11.8866   -5.0857   -8.9518 C   0  0  0  0  0  0  0  0  0  0  0  0
   10.6157   -5.4136   -8.4545 C   0  0  0  0  0  0  0  0  0  0  0  0
   10.1420   -4.9774   -7.2109 C   0  0  0  0  0  0  0  0  0  0  0  0
    8.2950   -4.3670   -3.6137 N   0  0  0  0  0  0  0  0  0  0  0  0
    7.4120   -2.9400    0.4970 C   0  0  0  0  0  0  0  0  0  0  0  0
    8.0520   -0.4475    4.1551 H   0  0  0  0  0  0  0  0  0  0  0  0
    8.2199    0.2432    2.5150 H   0  0  0  0  0  0  0  0  0  0  0  0
    8.9027   -1.3775    2.8862 H   0  0  0  0  0  0  0  0  0  0  0  0
    5.7808    0.0619    0.2675 H   0  0  0  0  0  0  0  0  0  0  0  0
    6.1670   -0.3852   -2.1353 H   0  0  0  0  0  0  0  0  0  0  0  0
    7.3248   -2.3972   -2.8551 H   0  0  0  0  0  0  0  0  0  0  0  0
    8.3873   -5.0933   -0.5028 H   0  0  0  0  0  0  0  0  0  0  0  0
    9.0201   -8.0686   -3.4674 H   0  0  0  0  0  0  0  0  0  0  0  0
    8.6569   -7.0083   -5.6883 H   0  0  0  0  0  0  0  0  0  0  0  0
    6.9293   -4.4339   -8.1373 H   0  0  0  0  0  0  0  0  0  0  0  0
    7.7339   -5.6088  -10.1715 H   0  0  0  0  0  0  0  0  0  0  0  0
   11.9867   -7.9297  -11.8949 H   0  0  0  0  0  0  0  0  0  0  0  0
   12.6919   -9.9625   -8.8030 H   0  0  0  0  0  0  0  0  0  0  0  0
   14.4755  -11.6574   -8.7858 H   0  0  0  0  0  0  0  0  0  0  0  0
   15.8285  -12.0990  -10.8161 H   0  0  0  0  0  0  0  0  0  0  0  0
   15.3969  -10.8001  -12.8834 H   0  0  0  0  0  0  0  0  0  0  0  0
   13.6255   -9.1006  -12.9324 H   0  0  0  0  0  0  0  0  0  0  0  0
   11.1250   -5.7082  -12.2177 H   0  0  0  0  0  0  0  0  0  0  0  0
   12.8962   -4.5780  -10.7986 H   0  0  0  0  0  0  0  0  0  0  0  0
   12.6161   -4.5835   -8.3241 H   0  0  0  0  0  0  0  0  0  0  0  0
   10.8298   -4.7069   -6.4148 H   0  0  0  0  0  0  0  0  0  0  0  0
    7.7434   -3.6543    1.2491 H   0  0  0  0  0  0  0  0  0  0  0  0
  1  2  1  0  0  0  0
  1 38  1  0  0  0  0
  1 39  1  0  0  0  0
  1 40  1  0  0  0  0
  2  3  2  0  0  0  0
  2  4  2  0  0  0  0
  2  5  1  0  0  0  0
  5  6  1  0  0  0  0
  5 37  2  0  0  0  0
  6  7  2  0  0  0  0
  6 41  1  0  0  0  0
  7  8  1  0  0  0  0
  7 42  1  0  0  0  0
  8  9  2  0  0  0  0
  8 43  1  0  0  0  0
  9 10  1  0  0  0  0
  9 37  1  0  0  0  0
 10 11  1  0  0  0  0
 10 44  1  0  0  0  0
 11 12  1  0  0  0  0
 11 36  2  0  0  0  0
 12 13  2  0  0  0  0
 13 14  1  0  0  0  0
 13 45  1  0  0  0  0
 14 15  2  0  0  0  0
 14 46  1  0  0  0  0
 15 16  1  0  0  0  0
 15 36  1  0  0  0  0
 16 17  1  0  0  0  0
 17 18  1  0  0  0  0
 17 35  2  0  0  0  0
 18 19  2  0  0  0  0
 18 47  1  0  0  0  0
 19 20  1  0  0  0  0
 19 48  1  0  0  0  0
 20 21  1  0  0  0  0
 20 34  2  0  0  0  0
 21 22  1  0  0  0  0
 21 31  2  0  0  0  0
 22 23  2  0  0  0  0
 22 24  1  0  0  0  0
 24 25  1  0  0  0  0
 24 49  1  0  0  0  0
 25 26  1  0  0  0  0
 25 30  2  0  0  0  0
 26 27  2  0  0  0  0
 26 50  1  0  0  0  0
 27 28  1  0  0  0  0
 27 51  1  0  0  0  0
 28 29  2  0  0  0  0
 28 52  1  0  0  0  0
 29 30  1  0  0  0  0
 29 53  1  0  0  0  0
 30 54  1  0  0  0  0
 31 32  1  0  0  0  0
 31 55  1  0  0  0  0
 32 33  2  0  0  0  0
 32 56  1  0  0  0  0
 33 34  1  0  0  0  0
 33 57  1  0  0  0  0
 34 35  1  0  0  0  0
 35 58  1  0  0  0  0
 37 59  1  0  0  0  0
M  END
$$$$
