CHEMBL493876
 OpenBabel04072215383D

 64 68  0  0  0  0  0  0  0  0999 V2000
   12.1381    1.5298   -4.8509 C   0  0  0  0  0  0  0  0  0  0  0  0
   11.2631    0.5128   -4.3532 O   0  0  0  0  0  0  0  0  0  0  0  0
   10.0025    0.5046   -4.8935 C   0  0  0  0  0  0  0  0  0  0  0  0
    9.7518    0.9469   -6.1976 C   0  0  0  0  0  0  0  0  0  0  0  0
    8.4742    1.0151   -6.7306 C   0  0  0  0  0  0  0  0  0  0  0  0
    8.3680    1.4766   -7.9846 N   0  0  0  0  0  0  0  0  0  0  0  0
    7.1371    1.5992   -8.5100 C   0  0  0  0  0  0  0  0  0  0  0  0
    5.9813    1.3145   -7.8179 C   0  0  0  0  0  0  0  0  0  0  0  0
    6.0691    0.8415   -6.4969 C   0  0  0  0  0  0  0  0  0  0  0  0
    4.7593    0.6173   -5.7446 C   0  0  0  0  0  0  0  0  0  0  0  0
    3.8983    1.8095   -5.7658 N   0  0  0  0  0  0  0  0  0  0  0  0
    4.3243    2.9141   -4.9106 C   0  0  0  0  0  0  0  0  0  0  0  0
    3.7051    2.9394   -3.5058 C   0  0  0  0  0  0  0  0  0  0  0  0
    2.1989    2.8127   -3.5289 C   0  0  0  0  0  0  0  0  0  0  0  0
    1.6293    2.1343   -4.6258 C   0  0  0  0  0  0  0  0  0  0  0  0
    0.2351    1.9673   -4.6803 C   0  0  0  0  0  0  0  0  0  0  0  0
   -0.5872    2.4633   -3.6719 C   0  0  0  0  0  0  0  0  0  0  0  0
   -0.0288    3.1168   -2.5736 C   0  0  0  0  0  0  0  0  0  0  0  0
    1.3630    3.2896   -2.4787 C   0  0  0  0  0  0  0  0  0  0  0  0
    1.9408    3.8413   -1.2014 C   0  0  0  0  0  0  0  0  0  0  0  0
    3.0225    3.3962   -0.8315 O   0  0  0  0  0  0  0  0  0  0  0  0
    1.1839    4.7998   -0.5153 N   0  0  0  0  0  0  0  0  0  0  0  0
    1.5150    5.3870    0.7355 C   0  0  0  0  0  0  0  0  0  0  0  0
    2.6837    5.0919    1.4425 C   0  0  0  0  0  0  0  0  0  0  0  0
    2.9742    5.7227    2.6558 C   0  0  0  0  0  0  0  0  0  0  0  0
    2.0887    6.6505    3.1829 C   0  0  0  0  0  0  0  0  0  0  0  0
    2.4036    7.2424    4.3419 F   0  0  0  0  0  0  0  0  0  0  0  0
    0.9014    6.9539    2.5282 C   0  0  0  0  0  0  0  0  0  0  0  0
   -0.0607    7.9377    3.1179 C   0  0  0  0  0  0  0  0  0  0  0  0
    0.3120    8.4960    4.3028 F   0  0  0  0  0  0  0  0  0  0  0  0
   -0.2995    8.9882    2.2790 F   0  0  0  0  0  0  0  0  0  0  0  0
   -1.2870    7.3814    3.3474 F   0  0  0  0  0  0  0  0  0  0  0  0
    0.6196    6.3148    1.2976 C   0  0  0  0  0  0  0  0  0  0  0  0
    2.4610    1.5388   -5.7491 C   0  0  0  0  0  0  0  0  0  0  0  0
    7.3645    0.6266   -5.9458 C   0  0  0  0  0  0  0  0  0  0  0  0
    7.6345    0.0555   -4.6804 C   0  0  0  0  0  0  0  0  0  0  0  0
    8.9341   -0.0030   -4.1505 C   0  0  0  0  0  0  0  0  0  0  0  0
    8.9913   -0.6271   -2.9343 O   0  0  0  0  0  0  0  0  0  0  0  0
    9.9073   -0.1153   -1.9760 C   0  0  0  0  0  0  0  0  0  0  0  0
   12.8431    1.7939   -4.0567 H   0  0  0  0  0  0  0  0  0  0  0  0
   11.6125    2.4519   -5.1290 H   0  0  0  0  0  0  0  0  0  0  0  0
   12.7093    1.1439   -5.7013 H   0  0  0  0  0  0  0  0  0  0  0  0
   10.5685    1.2598   -6.8429 H   0  0  0  0  0  0  0  0  0  0  0  0
    7.1058    1.9638   -9.5330 H   0  0  0  0  0  0  0  0  0  0  0  0
    5.0168    1.4729   -8.2903 H   0  0  0  0  0  0  0  0  0  0  0  0
    4.9061    0.2742   -4.7175 H   0  0  0  0  0  0  0  0  0  0  0  0
    4.2701   -0.2119   -6.2754 H   0  0  0  0  0  0  0  0  0  0  0  0
    4.0520    3.8450   -5.4256 H   0  0  0  0  0  0  0  0  0  0  0  0
    5.4167    2.9498   -4.8167 H   0  0  0  0  0  0  0  0  0  0  0  0
    3.9915    3.8954   -3.0518 H   0  0  0  0  0  0  0  0  0  0  0  0
    4.1181    2.1252   -2.8998 H   0  0  0  0  0  0  0  0  0  0  0  0
   -0.2161    1.4268   -5.5114 H   0  0  0  0  0  0  0  0  0  0  0  0
   -1.6623    2.3055   -3.7254 H   0  0  0  0  0  0  0  0  0  0  0  0
   -0.6968    3.4269   -1.7754 H   0  0  0  0  0  0  0  0  0  0  0  0
    0.3362    5.1266   -0.9546 H   0  0  0  0  0  0  0  0  0  0  0  0
    3.4137    4.3751    1.0796 H   0  0  0  0  0  0  0  0  0  0  0  0
    3.8929    5.4891    3.1873 H   0  0  0  0  0  0  0  0  0  0  0  0
   -0.3140    6.5528    0.7909 H   0  0  0  0  0  0  0  0  0  0  0  0
    2.0628    1.9397   -6.6903 H   0  0  0  0  0  0  0  0  0  0  0  0
    2.2631    0.4593   -5.7638 H   0  0  0  0  0  0  0  0  0  0  0  0
    6.8322   -0.3579   -4.0756 H   0  0  0  0  0  0  0  0  0  0  0  0
    9.3944   -0.1184   -1.0084 H   0  0  0  0  0  0  0  0  0  0  0  0
   10.2219    0.9145   -2.1666 H   0  0  0  0  0  0  0  0  0  0  0  0
   10.7709   -0.7826   -1.8977 H   0  0  0  0  0  0  0  0  0  0  0  0
  1  2  1  0  0  0  0
  1 40  1  0  0  0  0
  1 41  1  0  0  0  0
  1 42  1  0  0  0  0
  2  3  1  0  0  0  0
  3  4  1  0  0  0  0
  3 37  2  0  0  0  0
  4  5  2  0  0  0  0
  4 43  1  0  0  0  0
  5  6  1  0  0  0  0
  5 35  1  0  0  0  0
  6  7  2  0  0  0  0
  7  8  1  0  0  0  0
  7 44  1  0  0  0  0
  8  9  2  0  0  0  0
  8 45  1  0  0  0  0
  9 10  1  0  0  0  0
  9 35  1  0  0  0  0
 10 11  1  0  0  0  0
 10 46  1  0  0  0  0
 10 47  1  0  0  0  0
 11 12  1  0  0  0  0
 11 34  1  0  0  0  0
 12 13  1  0  0  0  0
 12 48  1  0  0  0  0
 12 49  1  0  0  0  0
 13 14  1  0  0  0  0
 13 50  1  0  0  0  0
 13 51  1  0  0  0  0
 14 15  1  0  0  0  0
 14 19  2  0  0  0  0
 15 16  2  0  0  0  0
 15 34  1  0  0  0  0
 16 17  1  0  0  0  0
 16 52  1  0  0  0  0
 17 18  2  0  0  0  0
 17 53  1  0  0  0  0
 18 19  1  0  0  0  0
 18 54  1  0  0  0  0
 19 20  1  0  0  0  0
 20 21  2  0  0  0  0
 20 22  1  0  0  0  0
 22 23  1  0  0  0  0
 22 55  1  0  0  0  0
 23 24  1  0  0  0  0
 23 33  2  0  0  0  0
 24 25  2  0  0  0  0
 24 56  1  0  0  0  0
 25 26  1  0  0  0  0
 25 57  1  0  0  0  0
 26 27  1  0  0  0  0
 26 28  2  0  0  0  0
 28 29  1  0  0  0  0
 28 33  1  0  0  0  0
 29 30  1  0  0  0  0
 29 31  1  0  0  0  0
 29 32  1  0  0  0  0
 33 58  1  0  0  0  0
 34 59  1  0  0  0  0
 34 60  1  0  0  0  0
 35 36  2  0  0  0  0
 36 37  1  0  0  0  0
 36 61  1  0  0  0  0
 37 38  1  0  0  0  0
 38 39  1  0  0  0  0
 39 62  1  0  0  0  0
 39 63  1  0  0  0  0
 39 64  1  0  0  0  0
M  END
$$$$
