CHEMBL411043
 OpenBabel04072215383D

 44 47  0  0  1  0  0  0  0  0999 V2000
    0.7047   -1.9549    0.5609 Cl  0  0  0  0  0  0  0  0  0  0  0  0
    2.0886   -0.8868    0.1360 C   0  0  3  0  0  0  0  0  0  0  0  0
    3.1960   -0.8949    1.1947 C   0  0  0  0  0  0  0  0  0  0  0  0
    2.7559   -0.4805    2.5100 N   0  0  0  0  0  0  0  0  0  0  0  0
    2.3816   -1.4226    3.4082 N   0  0  0  0  0  0  0  0  0  0  0  0
    2.0926   -0.7123    4.5009 C   0  0  0  0  0  0  0  0  0  0  0  0
    2.3127    0.6685    4.3303 C   0  0  0  0  0  0  0  0  0  0  0  0
    2.2123    1.8335    5.1039 C   0  0  0  0  0  0  0  0  0  0  0  0
    1.8406    1.7914    6.4373 N   0  0  0  0  0  0  0  0  0  0  0  0
    1.2111    2.9574    7.0256 C   0  0  0  0  0  0  0  0  0  0  0  0
    1.4820    2.9518    8.5135 C   0  0  0  0  0  0  0  0  0  0  0  0
    2.8014    3.0828    8.9757 C   0  0  0  0  0  0  0  0  0  0  0  0
    3.0814    3.0953   10.3418 C   0  0  0  0  0  0  0  0  0  0  0  0
    2.0441    2.9768   11.2636 C   0  0  0  0  0  0  0  0  0  0  0  0
    0.7292    2.8406   10.8192 C   0  0  0  0  0  0  0  0  0  0  0  0
    0.4469    2.8260    9.4503 C   0  0  0  0  0  0  0  0  0  0  0  0
    2.5672    3.0008    4.5129 N   0  0  0  0  0  0  0  0  0  0  0  0
    3.0008    2.9829    3.2329 C   0  0  0  0  0  0  0  0  0  0  0  0
    3.1135    1.9277    2.4019 N   0  0  0  0  0  0  0  0  0  0  0  0
    2.7513    0.7911    3.0218 C   0  0  0  0  0  0  0  0  0  0  0  0
    2.6191   -1.3128   -1.2243 C   0  0  0  0  0  0  0  0  0  0  0  0
    2.5589   -0.4303   -2.3134 C   0  0  0  0  0  0  0  0  0  0  0  0
    3.0469   -0.8126   -3.5645 C   0  0  0  0  0  0  0  0  0  0  0  0
    3.5987   -2.0779   -3.7481 C   0  0  0  0  0  0  0  0  0  0  0  0
    3.6621   -2.9675   -2.6775 C   0  0  0  0  0  0  0  0  0  0  0  0
    3.1754   -2.5896   -1.4267 C   0  0  0  0  0  0  0  0  0  0  0  0
    1.6583    0.1190    0.0687 H   0  0  0  0  0  0  0  0  0  0  0  0
    4.0069   -0.2179    0.8963 H   0  0  0  0  0  0  0  0  0  0  0  0
    3.6482   -1.8879    1.3067 H   0  0  0  0  0  0  0  0  0  0  0  0
    1.7393   -1.2308    5.3818 H   0  0  0  0  0  0  0  0  0  0  0  0
    1.4561    0.9114    6.7536 H   0  0  0  0  0  0  0  0  0  0  0  0
    0.1311    2.9161    6.8334 H   0  0  0  0  0  0  0  0  0  0  0  0
    1.5776    3.9062    6.6176 H   0  0  0  0  0  0  0  0  0  0  0  0
    3.6166    3.1696    8.2589 H   0  0  0  0  0  0  0  0  0  0  0  0
    4.1079    3.1965   10.6828 H   0  0  0  0  0  0  0  0  0  0  0  0
    2.2617    2.9901   12.3284 H   0  0  0  0  0  0  0  0  0  0  0  0
   -0.0772    2.7472   11.5425 H   0  0  0  0  0  0  0  0  0  0  0  0
   -0.5853    2.7193    9.1254 H   0  0  0  0  0  0  0  0  0  0  0  0
    3.3058    3.9440    2.8272 H   0  0  0  0  0  0  0  0  0  0  0  0
    2.1254    0.5613   -2.2007 H   0  0  0  0  0  0  0  0  0  0  0  0
    2.9901   -0.1224   -4.4042 H   0  0  0  0  0  0  0  0  0  0  0  0
    3.9729   -2.3755   -4.7242 H   0  0  0  0  0  0  0  0  0  0  0  0
    4.0817   -3.9610   -2.8206 H   0  0  0  0  0  0  0  0  0  0  0  0
    3.2189   -3.3113   -0.6123 H   0  0  0  0  0  0  0  0  0  0  0  0
  1  2  1  0  0  0  0
  2  3  1  0  0  0  0
  2 21  1  0  0  0  0
  2 27  1  0  0  0  0
  3  4  1  0  0  0  0
  3 28  1  0  0  0  0
  3 29  1  0  0  0  0
  4  5  1  0  0  0  0
  4 20  1  0  0  0  0
  5  6  2  0  0  0  0
  6  7  1  0  0  0  0
  6 30  1  0  0  0  0
  7  8  1  0  0  0  0
  7 20  2  0  0  0  0
  8  9  1  0  0  0  0
  8 17  2  0  0  0  0
  9 10  1  0  0  0  0
  9 31  1  0  0  0  0
 10 11  1  0  0  0  0
 10 32  1  0  0  0  0
 10 33  1  0  0  0  0
 11 12  1  0  0  0  0
 11 16  2  0  0  0  0
 12 13  2  0  0  0  0
 12 34  1  0  0  0  0
 13 14  1  0  0  0  0
 13 35  1  0  0  0  0
 14 15  2  0  0  0  0
 14 36  1  0  0  0  0
 15 16  1  0  0  0  0
 15 37  1  0  0  0  0
 16 38  1  0  0  0  0
 17 18  1  0  0  0  0
 18 19  2  0  0  0  0
 18 39  1  0  0  0  0
 19 20  1  0  0  0  0
 21 22  1  0  0  0  0
 21 26  2  0  0  0  0
 22 23  2  0  0  0  0
 22 40  1  0  0  0  0
 23 24  1  0  0  0  0
 23 41  1  0  0  0  0
 24 25  2  0  0  0  0
 24 42  1  0  0  0  0
 25 26  1  0  0  0  0
 25 43  1  0  0  0  0
 26 44  1  0  0  0  0
M  END
$$$$
