CHEMBL4238320
 OpenBabel04072215383D

 46 49  0  0  0  0  0  0  0  0999 V2000
    1.1443    0.5873   -0.3999 C   0  0  0  0  0  0  0  0  0  0  0  0
    2.4366    0.1363   -0.0070 O   0  0  0  0  0  0  0  0  0  0  0  0
    3.1245   -0.6205   -0.9271 C   0  0  0  0  0  0  0  0  0  0  0  0
    2.8041   -0.5814   -2.2866 C   0  0  0  0  0  0  0  0  0  0  0  0
    3.4784   -1.3477   -3.2365 C   0  0  0  0  0  0  0  0  0  0  0  0
    3.1147   -1.3009   -4.5874 N   0  0  0  0  0  0  0  0  0  0  0  0
    2.3295   -0.4124   -5.3239 C   0  0  0  0  0  0  0  0  0  0  0  0
    2.0373   -0.8419   -6.5667 N   0  0  0  0  0  0  0  0  0  0  0  0
    1.5815    0.0644   -7.4453 C   0  0  0  0  0  0  0  0  0  0  0  0
    1.4460    1.3923   -7.1356 C   0  0  0  0  0  0  0  0  0  0  0  0
    1.5980    1.7228   -5.7911 C   0  0  0  0  0  0  0  0  0  0  0  0
    2.0217    0.8234   -4.8826 N   0  0  0  0  0  0  0  0  0  0  0  0
    1.5700    3.1479   -5.4359 C   0  0  0  0  0  0  0  0  0  0  0  0
    0.6312    3.7059   -4.5554 C   0  0  0  0  0  0  0  0  0  0  0  0
    0.6029    5.0941   -4.3414 C   0  0  0  0  0  0  0  0  0  0  0  0
    1.5766    5.9205   -4.9093 C   0  0  0  0  0  0  0  0  0  0  0  0
    2.4811    5.3966   -5.8247 C   0  0  0  0  0  0  0  0  0  0  0  0
    2.3729    4.0503   -6.1714 C   0  0  0  0  0  0  0  0  0  0  0  0
    2.8586    3.5755   -7.8568 S   0  0  0  0  0  0  0  0  0  0  0  0
    1.3847    2.4849   -8.1495 C   0  0  0  0  0  0  0  0  0  0  0  0
    4.5750   -2.1120   -2.8086 C   0  0  0  0  0  0  0  0  0  0  0  0
    4.9457   -2.1300   -1.4572 C   0  0  0  0  0  0  0  0  0  0  0  0
    5.9850   -2.9016   -0.9721 O   0  0  0  0  0  0  0  0  0  0  0  0
    7.1123   -3.0452   -1.8248 C   0  0  0  0  0  0  0  0  0  0  0  0
    4.2006   -1.4139   -0.5009 C   0  0  0  0  0  0  0  0  0  0  0  0
    4.6440   -1.5124    0.7979 O   0  0  0  0  0  0  0  0  0  0  0  0
    3.6506   -1.4855    1.8129 C   0  0  0  0  0  0  0  0  0  0  0  0
    0.6559    1.0152    0.4789 H   0  0  0  0  0  0  0  0  0  0  0  0
    0.5231   -0.2428   -0.7564 H   0  0  0  0  0  0  0  0  0  0  0  0
    1.2162    1.3790   -1.1534 H   0  0  0  0  0  0  0  0  0  0  0  0
    1.9946    0.0485   -2.6344 H   0  0  0  0  0  0  0  0  0  0  0  0
    3.3675   -2.0953   -5.1632 H   0  0  0  0  0  0  0  0  0  0  0  0
    1.4066   -0.3067   -8.4478 H   0  0  0  0  0  0  0  0  0  0  0  0
   -0.1386    3.0832   -4.1091 H   0  0  0  0  0  0  0  0  0  0  0  0
   -0.1902    5.5367   -3.7437 H   0  0  0  0  0  0  0  0  0  0  0  0
    1.5785    6.9883   -4.7029 H   0  0  0  0  0  0  0  0  0  0  0  0
    3.1825    6.0490   -6.3360 H   0  0  0  0  0  0  0  0  0  0  0  0
    1.4035    2.1059   -9.1692 H   0  0  0  0  0  0  0  0  0  0  0  0
    0.4633    3.0750   -8.0246 H   0  0  0  0  0  0  0  0  0  0  0  0
    5.1283   -2.6919   -3.5397 H   0  0  0  0  0  0  0  0  0  0  0  0
    7.9477   -3.4029   -1.2122 H   0  0  0  0  0  0  0  0  0  0  0  0
    7.4128   -2.0922   -2.2719 H   0  0  0  0  0  0  0  0  0  0  0  0
    6.9226   -3.7996   -2.5946 H   0  0  0  0  0  0  0  0  0  0  0  0
    4.0757   -1.9375    2.7117 H   0  0  0  0  0  0  0  0  0  0  0  0
    2.7610   -2.0693    1.5387 H   0  0  0  0  0  0  0  0  0  0  0  0
    3.3862   -0.4555    2.0732 H   0  0  0  0  0  0  0  0  0  0  0  0
  1  2  1  0  0  0  0
  1 28  1  0  0  0  0
  1 29  1  0  0  0  0
  1 30  1  0  0  0  0
  2  3  1  0  0  0  0
  3  4  1  0  0  0  0
  3 25  2  0  0  0  0
  4  5  2  0  0  0  0
  4 31  1  0  0  0  0
  5  6  1  0  0  0  0
  5 21  1  0  0  0  0
  6  7  1  0  0  0  0
  6 32  1  0  0  0  0
  7  8  1  0  0  0  0
  7 12  2  0  0  0  0
  8  9  2  0  0  0  0
  9 10  1  0  0  0  0
  9 33  1  0  0  0  0
 10 11  2  0  0  0  0
 10 20  1  0  0  0  0
 11 12  1  0  0  0  0
 11 13  1  0  0  0  0
 13 14  1  0  0  0  0
 13 18  2  0  0  0  0
 14 15  2  0  0  0  0
 14 34  1  0  0  0  0
 15 16  1  0  0  0  0
 15 35  1  0  0  0  0
 16 17  2  0  0  0  0
 16 36  1  0  0  0  0
 17 18  1  0  0  0  0
 17 37  1  0  0  0  0
 18 19  1  0  0  0  0
 19 20  1  0  0  0  0
 20 38  1  0  0  0  0
 20 39  1  0  0  0  0
 21 22  2  0  0  0  0
 21 40  1  0  0  0  0
 22 23  1  0  0  0  0
 22 25  1  0  0  0  0
 23 24  1  0  0  0  0
 24 41  1  0  0  0  0
 24 42  1  0  0  0  0
 24 43  1  0  0  0  0
 25 26  1  0  0  0  0
 26 27  1  0  0  0  0
 27 44  1  0  0  0  0
 27 45  1  0  0  0  0
 27 46  1  0  0  0  0
M  END
$$$$
