CHEMBL4447901
 OpenBabel04072215383D

 57 62  0  0  0  0  0  0  0  0999 V2000
    3.5480    5.6097   -1.4953 N   0  0  0  0  0  0  0  0  0  0  0  0
    4.3339    4.4854   -1.3045 C   0  0  0  0  0  0  0  0  0  0  0  0
    5.6062    4.6184   -1.7284 N   0  0  0  0  0  0  0  0  0  0  0  0
    6.4693    3.6141   -1.5240 C   0  0  0  0  0  0  0  0  0  0  0  0
    6.2318    2.4491   -0.9245 N   0  0  0  0  0  0  0  0  0  0  0  0
    4.9575    2.3210   -0.5063 C   0  0  0  0  0  0  0  0  0  0  0  0
    4.3920    1.2438    0.1627 C   0  0  0  0  0  0  0  0  0  0  0  0
    3.0839    1.5403    0.4044 C   0  0  0  0  0  0  0  0  0  0  0  0
    2.7587    2.7784   -0.1134 N   0  0  0  0  0  0  0  0  0  0  0  0
    1.4575    3.3714   -0.0603 C   0  0  0  0  0  0  0  0  0  0  0  0
    0.6133    3.1228    1.0313 C   0  0  0  0  0  0  0  0  0  0  0  0
   -0.6695    3.6896    1.0920 C   0  0  0  0  0  0  0  0  0  0  0  0
   -1.1394    4.5266    0.0711 C   0  0  0  0  0  0  0  0  0  0  0  0
   -2.5659    5.0368    0.1007 C   0  0  0  0  0  0  0  0  0  0  0  0
   -2.7874    6.5411    0.0424 C   0  0  0  0  0  0  0  0  0  0  0  0
   -3.6320    7.0159   -0.7164 O   0  0  0  0  0  0  0  0  0  0  0  0
   -2.0249    7.2803    0.9296 N   0  0  0  0  0  0  0  0  0  0  0  0
   -2.1597    8.6780    1.0873 C   0  0  0  0  0  0  0  0  0  0  0  0
   -0.9842    9.4398    1.1725 C   0  0  0  0  0  0  0  0  0  0  0  0
   -1.0403   10.8290    1.3138 C   0  0  0  0  0  0  0  0  0  0  0  0
   -2.2788   11.4350    1.4449 C   0  0  0  0  0  0  0  0  0  0  0  0
   -3.4505   10.6827    1.4083 C   0  0  0  0  0  0  0  0  0  0  0  0
   -3.4082    9.3053    1.2006 C   0  0  0  0  0  0  0  0  0  0  0  0
   -4.6548   11.5349    1.6471 C   0  0  0  0  0  0  0  0  0  0  0  0
   -4.0781   12.9565    1.7668 C   0  0  0  0  0  0  0  0  0  0  0  0
   -2.5493   12.8890    1.6438 C   0  0  0  0  0  0  0  0  0  0  0  0
   -0.3010    4.7639   -1.0240 C   0  0  0  0  0  0  0  0  0  0  0  0
    0.9738    4.1747   -1.0966 C   0  0  0  0  0  0  0  0  0  0  0  0
    3.9536    3.2917   -0.6840 C   0  0  0  0  0  0  0  0  0  0  0  0
    2.3401    0.4117    1.0177 C   0  0  0  0  0  0  0  0  0  0  0  0
    3.3624   -0.7599    0.8163 C   0  0  0  0  0  0  0  0  0  0  0  0
    4.7664   -0.1058    0.6194 C   0  0  0  0  0  0  0  0  0  0  0  0
    4.1387    6.3825   -1.7844 H   0  0  0  0  0  0  0  0  0  0  0  0
    2.9152    5.8153   -0.7344 H   0  0  0  0  0  0  0  0  0  0  0  0
    7.4831    3.7740   -1.8757 H   0  0  0  0  0  0  0  0  0  0  0  0
    0.9303    2.5063    1.8677 H   0  0  0  0  0  0  0  0  0  0  0  0
   -1.3067    3.4470    1.9417 H   0  0  0  0  0  0  0  0  0  0  0  0
   -3.0800    4.6811    1.0018 H   0  0  0  0  0  0  0  0  0  0  0  0
   -3.0913    4.5885   -0.7526 H   0  0  0  0  0  0  0  0  0  0  0  0
   -1.1326    6.8772    1.1885 H   0  0  0  0  0  0  0  0  0  0  0  0
   -0.0135    8.9639    1.0708 H   0  0  0  0  0  0  0  0  0  0  0  0
   -0.1292   11.4180    1.3213 H   0  0  0  0  0  0  0  0  0  0  0  0
   -4.3298    8.7304    1.1729 H   0  0  0  0  0  0  0  0  0  0  0  0
   -5.1540   11.2480    2.5791 H   0  0  0  0  0  0  0  0  0  0  0  0
   -5.3662   11.4704    0.8186 H   0  0  0  0  0  0  0  0  0  0  0  0
   -4.3654   13.4115    2.7233 H   0  0  0  0  0  0  0  0  0  0  0  0
   -4.4959   13.6072    0.9885 H   0  0  0  0  0  0  0  0  0  0  0  0
   -2.0669   13.2545    2.5558 H   0  0  0  0  0  0  0  0  0  0  0  0
   -2.2001   13.4737    0.7863 H   0  0  0  0  0  0  0  0  0  0  0  0
   -0.6451    5.3722   -1.8601 H   0  0  0  0  0  0  0  0  0  0  0  0
    1.5451    4.3172   -2.0115 H   0  0  0  0  0  0  0  0  0  0  0  0
    1.3927    0.1903    0.5212 H   0  0  0  0  0  0  0  0  0  0  0  0
    2.1787    0.5762    2.0873 H   0  0  0  0  0  0  0  0  0  0  0  0
    3.0978   -1.3100   -0.0970 H   0  0  0  0  0  0  0  0  0  0  0  0
    3.3500   -1.4741    1.6452 H   0  0  0  0  0  0  0  0  0  0  0  0
    5.3619   -0.6566   -0.1142 H   0  0  0  0  0  0  0  0  0  0  0  0
    5.3083   -0.0620    1.5697 H   0  0  0  0  0  0  0  0  0  0  0  0
  1  2  1  0  0  0  0
  1 33  1  0  0  0  0
  1 34  1  0  0  0  0
  2  3  1  0  0  0  0
  2 29  2  0  0  0  0
  3  4  2  0  0  0  0
  4  5  1  0  0  0  0
  4 35  1  0  0  0  0
  5  6  2  0  0  0  0
  6  7  1  0  0  0  0
  6 29  1  0  0  0  0
  7  8  2  0  0  0  0
  7 32  1  0  0  0  0
  8  9  1  0  0  0  0
  8 30  1  0  0  0  0
  9 10  1  0  0  0  0
  9 29  1  0  0  0  0
 10 11  1  0  0  0  0
 10 28  2  0  0  0  0
 11 12  2  0  0  0  0
 11 36  1  0  0  0  0
 12 13  1  0  0  0  0
 12 37  1  0  0  0  0
 13 14  1  0  0  0  0
 13 27  2  0  0  0  0
 14 15  1  0  0  0  0
 14 38  1  0  0  0  0
 14 39  1  0  0  0  0
 15 16  2  0  0  0  0
 15 17  1  0  0  0  0
 17 18  1  0  0  0  0
 17 40  1  0  0  0  0
 18 19  1  0  0  0  0
 18 23  2  0  0  0  0
 19 20  2  0  0  0  0
 19 41  1  0  0  0  0
 20 21  1  0  0  0  0
 20 42  1  0  0  0  0
 21 22  2  0  0  0  0
 21 26  1  0  0  0  0
 22 23  1  0  0  0  0
 22 24  1  0  0  0  0
 23 43  1  0  0  0  0
 24 25  1  0  0  0  0
 24 44  1  0  0  0  0
 24 45  1  0  0  0  0
 25 26  1  0  0  0  0
 25 46  1  0  0  0  0
 25 47  1  0  0  0  0
 26 48  1  0  0  0  0
 26 49  1  0  0  0  0
 27 28  1  0  0  0  0
 27 50  1  0  0  0  0
 28 51  1  0  0  0  0
 30 31  1  0  0  0  0
 30 52  1  0  0  0  0
 30 53  1  0  0  0  0
 31 32  1  0  0  0  0
 31 54  1  0  0  0  0
 31 55  1  0  0  0  0
 32 56  1  0  0  0  0
 32 57  1  0  0  0  0
M  END
$$$$
