CHEMBL374985
 OpenBabel04072215373D

 56 59  0  0  0  0  0  0  0  0999 V2000
    7.1807    2.4422    9.7829 N   0  0  0  0  0  0  0  0  0  0  0  0
    7.6475    2.0331    8.5534 C   0  0  0  0  0  0  0  0  0  0  0  0
    8.3508    0.8972    8.5069 N   0  0  0  0  0  0  0  0  0  0  0  0
    8.7710    0.4966    7.2862 C   0  0  0  0  0  0  0  0  0  0  0  0
    8.5270    1.1945    6.1267 C   0  0  0  0  0  0  0  0  0  0  0  0
    8.9405    0.7185    4.8481 C   0  0  0  0  0  0  0  0  0  0  0  0
    9.2491    0.3003    3.7621 C   0  0  0  0  0  0  0  0  0  0  0  0
    9.5627   -0.1794    2.4504 C   0  0  0  0  0  0  0  0  0  0  0  0
    9.2096    0.5919    1.3381 C   0  0  0  0  0  0  0  0  0  0  0  0
    9.4865    0.1306    0.0529 C   0  0  0  0  0  0  0  0  0  0  0  0
   10.1195   -1.0975   -0.1184 C   0  0  0  0  0  0  0  0  0  0  0  0
   10.3718   -1.4904   -1.3730 F   0  0  0  0  0  0  0  0  0  0  0  0
   10.4718   -1.8891    0.9774 C   0  0  0  0  0  0  0  0  0  0  0  0
   11.0834   -3.2376    0.8051 C   0  0  0  0  0  0  0  0  0  0  0  0
   10.8469   -4.1053    1.6387 O   0  0  0  0  0  0  0  0  0  0  0  0
   11.9378   -3.3732   -0.2714 N   0  0  0  0  0  0  0  0  0  0  0  0
   12.5587   -4.5902   -0.6212 C   0  0  0  0  0  0  0  0  0  0  0  0
   13.8856   -4.7616   -0.2005 C   0  0  0  0  0  0  0  0  0  0  0  0
   14.5997   -5.9187   -0.5326 C   0  0  0  0  0  0  0  0  0  0  0  0
   16.0359   -6.0965   -0.1133 C   0  0  0  0  0  0  0  0  0  0  0  0
   16.5339   -5.0397    0.5888 F   0  0  0  0  0  0  0  0  0  0  0  0
   16.2269   -7.1913    0.6725 F   0  0  0  0  0  0  0  0  0  0  0  0
   16.8697   -6.2535   -1.1802 F   0  0  0  0  0  0  0  0  0  0  0  0
   13.9561   -6.9069   -1.2847 C   0  0  0  0  0  0  0  0  0  0  0  0
   12.6368   -6.7248   -1.7196 C   0  0  0  0  0  0  0  0  0  0  0  0
   11.9074   -5.5555   -1.4330 C   0  0  0  0  0  0  0  0  0  0  0  0
   10.6499   -5.3638   -1.9942 N   0  0  0  0  0  0  0  0  0  0  0  0
    9.7047   -6.4627   -2.2000 C   0  0  0  0  0  0  0  0  0  0  0  0
    9.4523   -6.6787   -3.6933 C   0  0  0  0  0  0  0  0  0  0  0  0
    9.0324   -5.3795   -4.3780 C   0  0  0  0  0  0  0  0  0  0  0  0
   10.0659   -4.2906   -4.1274 C   0  0  0  0  0  0  0  0  0  0  0  0
   10.3182   -4.0928   -2.6362 C   0  0  0  0  0  0  0  0  0  0  0  0
   10.1885   -1.4211    2.2713 C   0  0  0  0  0  0  0  0  0  0  0  0
    7.8242    2.3660    6.2976 C   0  0  0  0  0  0  0  0  0  0  0  0
    7.3855    2.8097    7.4974 N   0  0  0  0  0  0  0  0  0  0  0  0
    7.7395    2.0391   10.5210 H   0  0  0  0  0  0  0  0  0  0  0  0
    7.0363    3.4411    9.7911 H   0  0  0  0  0  0  0  0  0  0  0  0
    9.3177   -0.4414    7.2773 H   0  0  0  0  0  0  0  0  0  0  0  0
    8.7089    1.5502    1.4641 H   0  0  0  0  0  0  0  0  0  0  0  0
    9.2040    0.7135   -0.8191 H   0  0  0  0  0  0  0  0  0  0  0  0
   12.2753   -2.5448   -0.7425 H   0  0  0  0  0  0  0  0  0  0  0  0
   14.3582   -3.9914    0.4063 H   0  0  0  0  0  0  0  0  0  0  0  0
   14.4855   -7.8172   -1.5626 H   0  0  0  0  0  0  0  0  0  0  0  0
   12.2030   -7.4991   -2.3477 H   0  0  0  0  0  0  0  0  0  0  0  0
    8.7588   -6.2013   -1.7087 H   0  0  0  0  0  0  0  0  0  0  0  0
   10.0329   -7.3994   -1.7352 H   0  0  0  0  0  0  0  0  0  0  0  0
    8.6723   -7.4349   -3.8336 H   0  0  0  0  0  0  0  0  0  0  0  0
   10.3629   -7.0593   -4.1721 H   0  0  0  0  0  0  0  0  0  0  0  0
    8.0573   -5.0556   -3.9945 H   0  0  0  0  0  0  0  0  0  0  0  0
    8.9200   -5.5405   -5.4554 H   0  0  0  0  0  0  0  0  0  0  0  0
    9.7314   -3.3452   -4.5693 H   0  0  0  0  0  0  0  0  0  0  0  0
   11.0074   -4.5613   -4.6216 H   0  0  0  0  0  0  0  0  0  0  0  0
    9.4274   -3.6731   -2.1549 H   0  0  0  0  0  0  0  0  0  0  0  0
   11.1231   -3.3577   -2.5634 H   0  0  0  0  0  0  0  0  0  0  0  0
   10.4532   -2.0304    3.1340 H   0  0  0  0  0  0  0  0  0  0  0  0
    7.5781    3.0087    5.4583 H   0  0  0  0  0  0  0  0  0  0  0  0
  1  2  1  0  0  0  0
  1 36  1  0  0  0  0
  1 37  1  0  0  0  0
  2  3  1  0  0  0  0
  2 35  2  0  0  0  0
  3  4  2  0  0  0  0
  4  5  1  0  0  0  0
  4 38  1  0  0  0  0
  5  6  1  0  0  0  0
  5 34  2  0  0  0  0
  6  7  3  0  0  0  0
  7  8  1  0  0  0  0
  8  9  1  0  0  0  0
  8 33  2  0  0  0  0
  9 10  2  0  0  0  0
  9 39  1  0  0  0  0
 10 11  1  0  0  0  0
 10 40  1  0  0  0  0
 11 12  1  0  0  0  0
 11 13  2  0  0  0  0
 13 14  1  0  0  0  0
 13 33  1  0  0  0  0
 14 15  2  0  0  0  0
 14 16  1  0  0  0  0
 16 17  1  0  0  0  0
 16 41  1  0  0  0  0
 17 18  1  0  0  0  0
 17 26  2  0  0  0  0
 18 19  2  0  0  0  0
 18 42  1  0  0  0  0
 19 20  1  0  0  0  0
 19 24  1  0  0  0  0
 20 21  1  0  0  0  0
 20 22  1  0  0  0  0
 20 23  1  0  0  0  0
 24 25  2  0  0  0  0
 24 43  1  0  0  0  0
 25 26  1  0  0  0  0
 25 44  1  0  0  0  0
 26 27  1  0  0  0  0
 27 28  1  0  0  0  0
 27 32  1  0  0  0  0
 28 29  1  0  0  0  0
 28 45  1  0  0  0  0
 28 46  1  0  0  0  0
 29 30  1  0  0  0  0
 29 47  1  0  0  0  0
 29 48  1  0  0  0  0
 30 31  1  0  0  0  0
 30 49  1  0  0  0  0
 30 50  1  0  0  0  0
 31 32  1  0  0  0  0
 31 51  1  0  0  0  0
 31 52  1  0  0  0  0
 32 53  1  0  0  0  0
 32 54  1  0  0  0  0
 33 55  1  0  0  0  0
 34 35  1  0  0  0  0
 34 56  1  0  0  0  0
M  END
$$$$
