CHEMBL3690501
 OpenBabel04072215373D

 65 69  0  0  0  0  0  0  0  0999 V2000
    2.1529   -0.2615    0.6195 C   0  0  0  0  0  0  0  0  0  0  0  0
    2.2716   -0.9531   -0.7121 C   0  0  0  0  0  0  0  0  0  0  0  0
    1.7528   -2.0557   -0.8862 O   0  0  0  0  0  0  0  0  0  0  0  0
    2.9591   -0.2872   -1.7079 N   0  0  0  0  0  0  0  0  0  0  0  0
    3.6989    0.9810   -1.5394 C   0  0  0  0  0  0  0  0  0  0  0  0
    3.4977    1.9363   -2.7396 C   0  0  0  0  0  0  0  0  0  0  0  0
    3.7993    1.1866   -3.9601 N   0  0  0  0  0  0  0  0  0  0  0  0
    4.4133    1.8102   -5.0217 C   0  0  0  0  0  0  0  0  0  0  0  0
    5.1396    1.0440   -5.9354 C   0  0  0  0  0  0  0  0  0  0  0  0
    5.8507    1.6563   -6.9615 C   0  0  0  0  0  0  0  0  0  0  0  0
    5.8155    3.0402   -7.0773 C   0  0  0  0  0  0  0  0  0  0  0  0
    6.5953    3.7114   -8.1216 C   0  0  0  0  0  0  0  0  0  0  0  0
    7.9781    4.1280   -7.8953 C   0  0  0  0  0  0  0  0  0  0  0  0
    8.6874    4.6530   -8.9057 C   0  0  0  0  0  0  0  0  0  0  0  0
    8.1044    4.7808  -10.1677 N   0  0  0  0  0  0  0  0  0  0  0  0
    8.6373    5.1934  -11.3812 C   0  0  0  0  0  0  0  0  0  0  0  0
   10.0390    5.5216  -11.6730 C   0  0  0  0  0  0  0  0  0  0  0  0
   10.3182    6.5323  -12.6016 C   0  0  0  0  0  0  0  0  0  0  0  0
   11.6301    6.8122  -12.9690 C   0  0  0  0  0  0  0  0  0  0  0  0
   12.6848    6.1143  -12.3829 C   0  0  0  0  0  0  0  0  0  0  0  0
   12.4499    5.1323  -11.4206 C   0  0  0  0  0  0  0  0  0  0  0  0
   13.4897    4.4383  -10.7511 N   0  0  0  0  0  0  0  0  0  0  0  0
   14.8418    4.6547  -10.9130 C   0  0  0  0  0  0  0  0  0  0  0  0
   15.3753    5.4741  -11.6438 O   0  0  0  0  0  0  0  0  0  0  0  0
   15.6102    3.7822  -10.1716 N   0  0  0  0  0  0  0  0  0  0  0  0
   17.0717    3.9086  -10.2750 C   0  0  0  0  0  0  0  0  0  0  0  0
   17.7121    5.0626   -9.4875 C   0  0  0  0  0  0  0  0  0  0  0  0
   16.8288    5.6647   -8.6580 F   0  0  0  0  0  0  0  0  0  0  0  0
   18.7141    4.5832   -8.7069 F   0  0  0  0  0  0  0  0  0  0  0  0
   18.2481    6.0036  -10.2910 F   0  0  0  0  0  0  0  0  0  0  0  0
   11.1186    4.8146  -11.1045 C   0  0  0  0  0  0  0  0  0  0  0  0
    7.5406    5.2106  -12.2341 C   0  0  0  0  0  0  0  0  0  0  0  0
    6.4036    4.7531  -11.6308 N   0  0  0  0  0  0  0  0  0  0  0  0
    6.7639    4.4702  -10.4005 C   0  0  0  0  0  0  0  0  0  0  0  0
    6.0181    3.9017   -9.3287 C   0  0  0  0  0  0  0  0  0  0  0  0
    5.0736    3.7383   -6.1334 C   0  0  0  0  0  0  0  0  0  0  0  0
    4.3938    3.1565   -5.1124 N   0  0  0  0  0  0  0  0  0  0  0  0
    2.9430    0.0140   -4.1749 C   0  0  0  0  0  0  0  0  0  0  0  0
    3.1584   -0.9565   -3.0030 C   0  0  0  0  0  0  0  0  0  0  0  0
    1.5877   -0.8969    1.3076 H   0  0  0  0  0  0  0  0  0  0  0  0
    1.6133    0.6822    0.5042 H   0  0  0  0  0  0  0  0  0  0  0  0
    3.1444   -0.0922    1.0469 H   0  0  0  0  0  0  0  0  0  0  0  0
    4.7603    0.7093   -1.4651 H   0  0  0  0  0  0  0  0  0  0  0  0
    3.4262    1.4894   -0.6130 H   0  0  0  0  0  0  0  0  0  0  0  0
    4.1555    2.8025   -2.6038 H   0  0  0  0  0  0  0  0  0  0  0  0
    2.4609    2.2954   -2.7616 H   0  0  0  0  0  0  0  0  0  0  0  0
    5.2092   -0.0319   -5.8168 H   0  0  0  0  0  0  0  0  0  0  0  0
    6.4408    1.0491   -7.6419 H   0  0  0  0  0  0  0  0  0  0  0  0
    8.4112    3.9994   -6.9079 H   0  0  0  0  0  0  0  0  0  0  0  0
    9.7054    4.9911   -8.7763 H   0  0  0  0  0  0  0  0  0  0  0  0
    9.5177    7.1083  -13.0611 H   0  0  0  0  0  0  0  0  0  0  0  0
   11.8396    7.5759  -13.7137 H   0  0  0  0  0  0  0  0  0  0  0  0
   13.6856    6.3670  -12.7174 H   0  0  0  0  0  0  0  0  0  0  0  0
   13.2164    3.7266  -10.0903 H   0  0  0  0  0  0  0  0  0  0  0  0
   15.2371    3.4894   -9.2802 H   0  0  0  0  0  0  0  0  0  0  0  0
   17.3335    4.0163  -11.3350 H   0  0  0  0  0  0  0  0  0  0  0  0
   17.4872    2.9541   -9.9386 H   0  0  0  0  0  0  0  0  0  0  0  0
   10.9222    3.9928  -10.4226 H   0  0  0  0  0  0  0  0  0  0  0  0
    7.5266    5.5021  -13.2771 H   0  0  0  0  0  0  0  0  0  0  0  0
    4.9931    3.6041   -9.5349 H   0  0  0  0  0  0  0  0  0  0  0  0
    5.0118    4.8231   -6.1592 H   0  0  0  0  0  0  0  0  0  0  0  0
    3.1443   -0.5045   -5.1177 H   0  0  0  0  0  0  0  0  0  0  0  0
    1.8922    0.3319   -4.2042 H   0  0  0  0  0  0  0  0  0  0  0  0
    4.1926   -1.3246   -3.0141 H   0  0  0  0  0  0  0  0  0  0  0  0
    2.4987   -1.8223   -3.1122 H   0  0  0  0  0  0  0  0  0  0  0  0
  1  2  1  0  0  0  0
  1 40  1  0  0  0  0
  1 41  1  0  0  0  0
  1 42  1  0  0  0  0
  2  3  2  0  0  0  0
  2  4  1  0  0  0  0
  4  5  1  0  0  0  0
  4 39  1  0  0  0  0
  5  6  1  0  0  0  0
  5 43  1  0  0  0  0
  5 44  1  0  0  0  0
  6  7  1  0  0  0  0
  6 45  1  0  0  0  0
  6 46  1  0  0  0  0
  7  8  1  0  0  0  0
  7 38  1  0  0  0  0
  8  9  1  0  0  0  0
  8 37  2  0  0  0  0
  9 10  2  0  0  0  0
  9 47  1  0  0  0  0
 10 11  1  0  0  0  0
 10 48  1  0  0  0  0
 11 12  1  0  0  0  0
 11 36  2  0  0  0  0
 12 13  1  0  0  0  0
 12 35  2  0  0  0  0
 13 14  2  0  0  0  0
 13 49  1  0  0  0  0
 14 15  1  0  0  0  0
 14 50  1  0  0  0  0
 15 16  1  0  0  0  0
 15 34  1  0  0  0  0
 16 17  1  0  0  0  0
 16 32  2  0  0  0  0
 17 18  1  0  0  0  0
 17 31  2  0  0  0  0
 18 19  2  0  0  0  0
 18 51  1  0  0  0  0
 19 20  1  0  0  0  0
 19 52  1  0  0  0  0
 20 21  2  0  0  0  0
 20 53  1  0  0  0  0
 21 22  1  0  0  0  0
 21 31  1  0  0  0  0
 22 23  1  0  0  0  0
 22 54  1  0  0  0  0
 23 24  2  0  0  0  0
 23 25  1  0  0  0  0
 25 26  1  0  0  0  0
 25 55  1  0  0  0  0
 26 27  1  0  0  0  0
 26 56  1  0  0  0  0
 26 57  1  0  0  0  0
 27 28  1  0  0  0  0
 27 29  1  0  0  0  0
 27 30  1  0  0  0  0
 31 58  1  0  0  0  0
 32 33  1  0  0  0  0
 32 59  1  0  0  0  0
 33 34  2  0  0  0  0
 34 35  1  0  0  0  0
 35 60  1  0  0  0  0
 36 37  1  0  0  0  0
 36 61  1  0  0  0  0
 38 39  1  0  0  0  0
 38 62  1  0  0  0  0
 38 63  1  0  0  0  0
 39 64  1  0  0  0  0
 39 65  1  0  0  0  0
M  END
$$$$
