CHEMBL2113183
 OpenBabel04072215363D

 47 49  0  0  0  0  0  0  0  0999 V2000
    1.0300    0.1283    1.0072 C   0  0  0  0  0  0  0  0  0  0  0  0
    2.2767    0.2588    0.3519 O   0  0  0  0  0  0  0  0  0  0  0  0
    2.7651    1.6043    0.3172 C   0  0  0  0  0  0  0  0  0  0  0  0
    4.0765    1.5320   -0.4543 C   0  0  0  0  0  0  0  0  0  0  0  0
    4.7424    2.7716   -0.5774 O   0  0  0  0  0  0  0  0  0  0  0  0
    6.0991    2.7588   -0.7902 C   0  0  0  0  0  0  0  0  0  0  0  0
    6.6739    3.9763   -0.3454 C   0  0  0  0  0  0  0  0  0  0  0  0
    8.0412    4.2512   -0.3720 C   0  0  0  0  0  0  0  0  0  0  0  0
    8.5063    5.4004    0.1310 N   0  0  0  0  0  0  0  0  0  0  0  0
    9.8323    5.5899    0.0937 C   0  0  0  0  0  0  0  0  0  0  0  0
   10.7317    4.7561   -0.4348 N   0  0  0  0  0  0  0  0  0  0  0  0
   10.2559    3.6161   -0.9646 C   0  0  0  0  0  0  0  0  0  0  0  0
   11.1607    2.7184   -1.6025 N   0  0  0  0  0  0  0  0  0  0  0  0
   12.5441    2.7936   -1.4860 C   0  0  0  0  0  0  0  0  0  0  0  0
   13.2124    2.9755   -0.3454 C   0  0  0  0  0  0  0  0  0  0  0  0
   14.6706    3.0241   -0.2729 C   0  0  0  0  0  0  0  0  0  0  0  0
   15.2545    3.1585    0.7881 O   0  0  0  0  0  0  0  0  0  0  0  0
   15.4139    2.8819   -1.5287 C   0  0  0  0  0  0  0  0  0  0  0  0
   14.8246    2.6765   -2.7092 C   0  0  0  0  0  0  0  0  0  0  0  0
   15.6697    2.5633   -3.8046 O   0  0  0  0  0  0  0  0  0  0  0  0
   15.1147    2.3286   -5.0888 C   0  0  0  0  0  0  0  0  0  0  0  0
   13.3209    2.5826   -2.7664 C   0  0  0  0  0  0  0  0  0  0  0  0
   12.6961    2.3449   -3.8007 O   0  0  0  0  0  0  0  0  0  0  0  0
    8.8828    3.2871   -0.9260 C   0  0  0  0  0  0  0  0  0  0  0  0
    8.3322    2.0663   -1.3591 C   0  0  0  0  0  0  0  0  0  0  0  0
    6.9554    1.7767   -1.3027 C   0  0  0  0  0  0  0  0  0  0  0  0
    6.7584    0.4805   -1.6749 O   0  0  0  0  0  0  0  0  0  0  0  0
    5.6483    0.0543   -2.4387 C   0  0  0  0  0  0  0  0  0  0  0  0
    0.7558   -0.9308    0.9913 H   0  0  0  0  0  0  0  0  0  0  0  0
    0.2588    0.6952    0.4794 H   0  0  0  0  0  0  0  0  0  0  0  0
    1.1079    0.4536    2.0475 H   0  0  0  0  0  0  0  0  0  0  0  0
    2.9198    1.9908    1.3295 H   0  0  0  0  0  0  0  0  0  0  0  0
    2.0497    2.2550   -0.2008 H   0  0  0  0  0  0  0  0  0  0  0  0
    3.7798    1.2106   -1.4527 H   0  0  0  0  0  0  0  0  0  0  0  0
    4.7137    0.7842    0.0277 H   0  0  0  0  0  0  0  0  0  0  0  0
    6.0184    4.7348    0.0815 H   0  0  0  0  0  0  0  0  0  0  0  0
   10.2111    6.5091    0.5269 H   0  0  0  0  0  0  0  0  0  0  0  0
   10.8818    2.5787   -2.5749 H   0  0  0  0  0  0  0  0  0  0  0  0
   12.6943    3.0955    0.6035 H   0  0  0  0  0  0  0  0  0  0  0  0
   16.4993    2.9459   -1.4449 H   0  0  0  0  0  0  0  0  0  0  0  0
   15.9415    2.2771   -5.8026 H   0  0  0  0  0  0  0  0  0  0  0  0
   14.4650    3.1541   -5.3944 H   0  0  0  0  0  0  0  0  0  0  0  0
   14.5929    1.3659   -5.1201 H   0  0  0  0  0  0  0  0  0  0  0  0
    9.0011    1.2858   -1.7228 H   0  0  0  0  0  0  0  0  0  0  0  0
    5.9961   -0.6477   -3.2025 H   0  0  0  0  0  0  0  0  0  0  0  0
    5.1221    0.8643   -2.9491 H   0  0  0  0  0  0  0  0  0  0  0  0
    4.9908   -0.5282   -1.7847 H   0  0  0  0  0  0  0  0  0  0  0  0
  1  2  1  0  0  0  0
  1 29  1  0  0  0  0
  1 30  1  0  0  0  0
  1 31  1  0  0  0  0
  2  3  1  0  0  0  0
  3  4  1  0  0  0  0
  3 32  1  0  0  0  0
  3 33  1  0  0  0  0
  4  5  1  0  0  0  0
  4 34  1  0  0  0  0
  4 35  1  0  0  0  0
  5  6  1  0  0  0  0
  6  7  1  0  0  0  0
  6 26  2  0  0  0  0
  7  8  2  0  0  0  0
  7 36  1  0  0  0  0
  8  9  1  0  0  0  0
  8 24  1  0  0  0  0
  9 10  2  0  0  0  0
 10 11  1  0  0  0  0
 10 37  1  0  0  0  0
 11 12  2  0  0  0  0
 12 13  1  0  0  0  0
 12 24  1  0  0  0  0
 13 14  1  0  0  0  0
 13 38  1  0  0  0  0
 14 15  2  0  0  0  0
 14 22  1  0  0  0  0
 15 16  1  0  0  0  0
 15 39  1  0  0  0  0
 16 17  2  0  0  0  0
 16 18  1  0  0  0  0
 18 19  2  0  0  0  0
 18 40  1  0  0  0  0
 19 20  1  0  0  0  0
 19 22  1  0  0  0  0
 20 21  1  0  0  0  0
 21 41  1  0  0  0  0
 21 42  1  0  0  0  0
 21 43  1  0  0  0  0
 22 23  2  0  0  0  0
 24 25  2  0  0  0  0
 25 26  1  0  0  0  0
 25 44  1  0  0  0  0
 26 27  1  0  0  0  0
 27 28  1  0  0  0  0
 28 45  1  0  0  0  0
 28 46  1  0  0  0  0
 28 47  1  0  0  0  0
M  END
$$$$
