CHEMBL3612232
 OpenBabel04072215363D

 44 47  0  0  0  0  0  0  0  0999 V2000
    2.3265   -0.4781    1.7354 C   0  0  0  0  0  0  0  0  0  0  0  0
    0.8329   -0.3537    1.6852 C   0  0  0  0  0  0  0  0  0  0  0  0
    0.2204    0.8258    2.1234 C   0  0  0  0  0  0  0  0  0  0  0  0
   -1.1624    0.9490    2.0928 C   0  0  0  0  0  0  0  0  0  0  0  0
   -1.9445   -0.1021    1.6156 C   0  0  0  0  0  0  0  0  0  0  0  0
   -1.3657   -1.2909    1.1593 C   0  0  0  0  0  0  0  0  0  0  0  0
   -2.1281   -2.3854    0.6742 N   0  0  0  0  0  0  0  0  0  0  0  0
   -3.4952   -2.3788    0.4636 C   0  0  0  0  0  0  0  0  0  0  0  0
   -4.2172   -1.3972    0.5841 O   0  0  0  0  0  0  0  0  0  0  0  0
   -3.9976   -3.6361    0.1377 N   0  0  0  0  0  0  0  0  0  0  0  0
   -5.3932   -3.7921   -0.0853 C   0  0  0  0  0  0  0  0  0  0  0  0
   -6.1086   -2.8712   -0.8617 C   0  0  0  0  0  0  0  0  0  0  0  0
   -7.4959   -2.9562   -0.9668 C   0  0  0  0  0  0  0  0  0  0  0  0
   -8.1787   -3.9684   -0.2960 C   0  0  0  0  0  0  0  0  0  0  0  0
   -7.4730   -4.9151    0.4558 C   0  0  0  0  0  0  0  0  0  0  0  0
   -8.3508   -6.2246    1.2782 S   0  0  0  0  0  0  0  0  0  0  0  0
   -8.7536   -5.6045    2.8993 C   0  0  0  0  0  0  0  0  0  0  0  0
   -8.4149   -4.3330    3.3728 C   0  0  0  0  0  0  0  0  0  0  0  0
   -8.7713   -3.9658    4.6585 C   0  0  0  0  0  0  0  0  0  0  0  0
   -9.4405   -4.7376    5.5302 N   0  0  0  0  0  0  0  0  0  0  0  0
   -9.7808   -5.9741    5.0806 C   0  0  0  0  0  0  0  0  0  0  0  0
  -10.4932   -6.9358    5.8551 C   0  0  0  0  0  0  0  0  0  0  0  0
  -10.7136   -8.1054    5.1676 C   0  0  0  0  0  0  0  0  0  0  0  0
  -10.0616   -8.0497    3.5934 S   0  0  0  0  0  0  0  0  0  0  0  0
   -9.4644   -6.4349    3.7988 C   0  0  0  0  0  0  0  0  0  0  0  0
   -6.0734   -4.8449    0.5313 C   0  0  0  0  0  0  0  0  0  0  0  0
    0.0315   -1.4091    1.2030 C   0  0  0  0  0  0  0  0  0  0  0  0
    2.7868    0.4209    2.1619 H   0  0  0  0  0  0  0  0  0  0  0  0
    2.7306   -0.6122    0.7276 H   0  0  0  0  0  0  0  0  0  0  0  0
    2.6162   -1.3254    2.3638 H   0  0  0  0  0  0  0  0  0  0  0  0
    0.8168    1.6545    2.4990 H   0  0  0  0  0  0  0  0  0  0  0  0
   -1.6399    1.8654    2.4272 H   0  0  0  0  0  0  0  0  0  0  0  0
   -3.0164    0.0567    1.6229 H   0  0  0  0  0  0  0  0  0  0  0  0
   -1.6186   -3.1859    0.3270 H   0  0  0  0  0  0  0  0  0  0  0  0
   -3.5247   -4.4086    0.5829 H   0  0  0  0  0  0  0  0  0  0  0  0
   -5.5921   -2.0633   -1.3773 H   0  0  0  0  0  0  0  0  0  0  0  0
   -8.0395   -2.2214   -1.5552 H   0  0  0  0  0  0  0  0  0  0  0  0
   -9.2633   -4.0110   -0.3653 H   0  0  0  0  0  0  0  0  0  0  0  0
   -7.8754   -3.6157    2.7643 H   0  0  0  0  0  0  0  0  0  0  0  0
   -8.5106   -2.9796    5.0373 H   0  0  0  0  0  0  0  0  0  0  0  0
  -10.8253   -6.7641    6.8700 H   0  0  0  0  0  0  0  0  0  0  0  0
  -11.2260   -8.9923    5.5155 H   0  0  0  0  0  0  0  0  0  0  0  0
   -5.5326   -5.5742    1.1266 H   0  0  0  0  0  0  0  0  0  0  0  0
    0.5172   -2.3202    0.8618 H   0  0  0  0  0  0  0  0  0  0  0  0
  1  2  1  0  0  0  0
  1 28  1  0  0  0  0
  1 29  1  0  0  0  0
  1 30  1  0  0  0  0
  2  3  1  0  0  0  0
  2 27  2  0  0  0  0
  3  4  2  0  0  0  0
  3 31  1  0  0  0  0
  4  5  1  0  0  0  0
  4 32  1  0  0  0  0
  5  6  2  0  0  0  0
  5 33  1  0  0  0  0
  6  7  1  0  0  0  0
  6 27  1  0  0  0  0
  7  8  1  0  0  0  0
  7 34  1  0  0  0  0
  8  9  2  0  0  0  0
  8 10  1  0  0  0  0
 10 11  1  0  0  0  0
 10 35  1  0  0  0  0
 11 12  1  0  0  0  0
 11 26  2  0  0  0  0
 12 13  2  0  0  0  0
 12 36  1  0  0  0  0
 13 14  1  0  0  0  0
 13 37  1  0  0  0  0
 14 15  2  0  0  0  0
 14 38  1  0  0  0  0
 15 16  1  0  0  0  0
 15 26  1  0  0  0  0
 16 17  1  0  0  0  0
 17 18  1  0  0  0  0
 17 25  2  0  0  0  0
 18 19  2  0  0  0  0
 18 39  1  0  0  0  0
 19 20  1  0  0  0  0
 19 40  1  0  0  0  0
 20 21  2  0  0  0  0
 21 22  1  0  0  0  0
 21 25  1  0  0  0  0
 22 23  2  0  0  0  0
 22 41  1  0  0  0  0
 23 24  1  0  0  0  0
 23 42  1  0  0  0  0
 24 25  1  0  0  0  0
 26 43  1  0  0  0  0
 27 44  1  0  0  0  0
M  END
$$$$
