CHEMBL473287
 OpenBabel04072215383D

 36 38  0  0  0  0  0  0  0  0999 V2000
    1.1650    0.0138   -0.6425 O   0  0  0  0  0  0  0  0  0  0  0  0
    2.2195   -0.0550   -0.0116 C   0  0  0  0  0  0  0  0  0  0  0  0
    2.7540    0.9756    0.7538 N   0  0  0  0  0  0  0  0  0  0  0  0
    2.1568    2.2452    0.9339 C   0  0  0  0  0  0  0  0  0  0  0  0
    0.8080    2.4882    0.6429 C   0  0  0  0  0  0  0  0  0  0  0  0
    0.2618    3.7662    0.7542 C   0  0  0  0  0  0  0  0  0  0  0  0
    1.0580    4.8232    1.1756 C   0  0  0  0  0  0  0  0  0  0  0  0
    2.3909    4.5847    1.5088 C   0  0  0  0  0  0  0  0  0  0  0  0
    3.4668    6.0305    2.0834 Br  0  0  0  0  0  0  0  0  0  0  0  0
    2.9430    3.3019    1.4040 C   0  0  0  0  0  0  0  0  0  0  0  0
    3.0499   -1.2711   -0.0945 C   0  0  0  0  0  0  0  0  0  0  0  0
    4.1706   -1.3930    0.6317 N   0  0  0  0  0  0  0  0  0  0  0  0
    4.8525   -2.8738    0.3175 S   0  0  0  0  0  0  0  0  0  0  0  0
    3.7015   -3.3752   -0.8425 C   0  0  0  0  0  0  0  0  0  0  0  0
    2.7528   -2.3881   -0.9771 C   0  0  0  0  0  0  0  0  0  0  0  0
    1.6636   -2.4474   -1.7988 N   0  0  0  0  0  0  0  0  0  0  0  0
    1.7045   -3.0490   -3.1236 C   0  0  0  0  0  0  0  0  0  0  0  0
    0.8559   -2.3055   -4.1381 C   0  0  0  0  0  0  0  0  0  0  0  0
    0.7343   -0.9094   -4.1499 C   0  0  0  0  0  0  0  0  0  0  0  0
   -0.0229   -0.3065   -5.1479 C   0  0  0  0  0  0  0  0  0  0  0  0
   -0.6362   -0.9859   -6.1392 N   0  0  0  0  0  0  0  0  0  0  0  0
   -0.4891   -2.3268   -6.1327 C   0  0  0  0  0  0  0  0  0  0  0  0
    0.2372   -3.0182   -5.1713 C   0  0  0  0  0  0  0  0  0  0  0  0
    3.7005    0.8236    1.0907 H   0  0  0  0  0  0  0  0  0  0  0  0
    0.1378    1.6923    0.3337 H   0  0  0  0  0  0  0  0  0  0  0  0
   -0.7836    3.9262    0.5025 H   0  0  0  0  0  0  0  0  0  0  0  0
    0.6312    5.8199    1.2402 H   0  0  0  0  0  0  0  0  0  0  0  0
    3.9876    3.1468    1.6562 H   0  0  0  0  0  0  0  0  0  0  0  0
    3.7619   -4.3395   -1.3252 H   0  0  0  0  0  0  0  0  0  0  0  0
    0.9641   -1.7030   -1.7039 H   0  0  0  0  0  0  0  0  0  0  0  0
    1.3381   -4.0783   -3.0321 H   0  0  0  0  0  0  0  0  0  0  0  0
    2.7279   -3.0880   -3.5168 H   0  0  0  0  0  0  0  0  0  0  0  0
    1.2102   -0.2849   -3.4017 H   0  0  0  0  0  0  0  0  0  0  0  0
   -0.1535    0.7708   -5.1756 H   0  0  0  0  0  0  0  0  0  0  0  0
   -0.9775   -2.8484   -6.9494 H   0  0  0  0  0  0  0  0  0  0  0  0
    0.3200   -4.0981   -5.2431 H   0  0  0  0  0  0  0  0  0  0  0  0
  1  2  2  0  0  0  0
  2  3  1  0  0  0  0
  2 11  1  0  0  0  0
  3  4  1  0  0  0  0
  3 24  1  0  0  0  0
  4  5  1  0  0  0  0
  4 10  2  0  0  0  0
  5  6  2  0  0  0  0
  5 25  1  0  0  0  0
  6  7  1  0  0  0  0
  6 26  1  0  0  0  0
  7  8  2  0  0  0  0
  7 27  1  0  0  0  0
  8  9  1  0  0  0  0
  8 10  1  0  0  0  0
 10 28  1  0  0  0  0
 11 12  2  0  0  0  0
 11 15  1  0  0  0  0
 12 13  1  0  0  0  0
 13 14  1  0  0  0  0
 14 15  2  0  0  0  0
 14 29  1  0  0  0  0
 15 16  1  0  0  0  0
 16 17  1  0  0  0  0
 16 30  1  0  0  0  0
 17 18  1  0  0  0  0
 17 31  1  0  0  0  0
 17 32  1  0  0  0  0
 18 19  1  0  0  0  0
 18 23  2  0  0  0  0
 19 20  2  0  0  0  0
 19 33  1  0  0  0  0
 20 21  1  0  0  0  0
 20 34  1  0  0  0  0
 21 22  2  0  0  0  0
 22 23  1  0  0  0  0
 22 35  1  0  0  0  0
 23 36  1  0  0  0  0
M  END
$$$$
