CHEMBL169757
 OpenBabel04072215363D

 36 39  0  0  0  0  0  0  0  0999 V2000
    1.1116    0.2099    0.0363 N   0  0  0  0  0  0  0  0  0  0  0  0
    2.4874    0.0172    0.0105 C   0  0  0  0  0  0  0  0  0  0  0  0
    3.2208    1.1447    0.0542 N   0  0  0  0  0  0  0  0  0  0  0  0
    4.5558    1.0390    0.0567 C   0  0  0  0  0  0  0  0  0  0  0  0
    5.2853   -0.0772    0.0452 N   0  0  0  0  0  0  0  0  0  0  0  0
    4.5307   -1.1953   -0.0070 C   0  0  0  0  0  0  0  0  0  0  0  0
    3.1352   -1.2329   -0.0510 C   0  0  0  0  0  0  0  0  0  0  0  0
    2.7576   -2.6148   -0.1561 C   0  0  0  0  0  0  0  0  0  0  0  0
    1.4520   -3.2706   -0.2389 C   0  0  0  0  0  0  0  0  0  0  0  0
    0.3841   -2.6713   -0.9159 C   0  0  0  0  0  0  0  0  0  0  0  0
   -0.8763   -3.2750   -0.9511 C   0  0  0  0  0  0  0  0  0  0  0  0
   -1.0710   -4.5203   -0.3614 C   0  0  0  0  0  0  0  0  0  0  0  0
   -0.0080   -5.1572    0.2723 C   0  0  0  0  0  0  0  0  0  0  0  0
    1.2400   -4.5302    0.3465 C   0  0  0  0  0  0  0  0  0  0  0  0
    3.9351   -3.3409   -0.2064 C   0  0  0  0  0  0  0  0  0  0  0  0
    5.0189   -2.4916   -0.0956 N   0  0  0  0  0  0  0  0  0  0  0  0
    6.3855   -2.9064   -0.1014 C   0  0  0  0  0  0  0  0  0  0  0  0
    6.7569   -4.0790   -0.7759 C   0  0  0  0  0  0  0  0  0  0  0  0
    8.0970   -4.4722   -0.8155 C   0  0  0  0  0  0  0  0  0  0  0  0
    9.0678   -3.7182   -0.1616 C   0  0  0  0  0  0  0  0  0  0  0  0
    8.7031   -2.5644    0.5306 C   0  0  0  0  0  0  0  0  0  0  0  0
    7.3678   -2.1530    0.5542 C   0  0  0  0  0  0  0  0  0  0  0  0
    0.9056    1.1722    0.2812 H   0  0  0  0  0  0  0  0  0  0  0  0
    0.6117   -0.4919    0.5641 H   0  0  0  0  0  0  0  0  0  0  0  0
    5.1084    1.9728    0.0771 H   0  0  0  0  0  0  0  0  0  0  0  0
    0.5153   -1.7268   -1.4379 H   0  0  0  0  0  0  0  0  0  0  0  0
   -1.7009   -2.7728   -1.4507 H   0  0  0  0  0  0  0  0  0  0  0  0
   -2.0464   -4.9976   -0.4052 H   0  0  0  0  0  0  0  0  0  0  0  0
   -0.1488   -6.1408    0.7133 H   0  0  0  0  0  0  0  0  0  0  0  0
    2.0428   -5.0444    0.8698 H   0  0  0  0  0  0  0  0  0  0  0  0
    4.0863   -4.4093   -0.2745 H   0  0  0  0  0  0  0  0  0  0  0  0
    6.0346   -4.6734   -1.3281 H   0  0  0  0  0  0  0  0  0  0  0  0
    8.3847   -5.3611   -1.3704 H   0  0  0  0  0  0  0  0  0  0  0  0
   10.1095   -4.0253   -0.1918 H   0  0  0  0  0  0  0  0  0  0  0  0
    9.4576   -1.9813    1.0525 H   0  0  0  0  0  0  0  0  0  0  0  0
    7.1181   -1.2607    1.1225 H   0  0  0  0  0  0  0  0  0  0  0  0
  1  2  1  0  0  0  0
  1 23  1  0  0  0  0
  1 24  1  0  0  0  0
  2  3  1  0  0  0  0
  2  7  2  0  0  0  0
  3  4  2  0  0  0  0
  4  5  1  0  0  0  0
  4 25  1  0  0  0  0
  5  6  2  0  0  0  0
  6  7  1  0  0  0  0
  6 16  1  0  0  0  0
  7  8  1  0  0  0  0
  8  9  1  0  0  0  0
  8 15  2  0  0  0  0
  9 10  1  0  0  0  0
  9 14  2  0  0  0  0
 10 11  2  0  0  0  0
 10 26  1  0  0  0  0
 11 12  1  0  0  0  0
 11 27  1  0  0  0  0
 12 13  2  0  0  0  0
 12 28  1  0  0  0  0
 13 14  1  0  0  0  0
 13 29  1  0  0  0  0
 14 30  1  0  0  0  0
 15 16  1  0  0  0  0
 15 31  1  0  0  0  0
 16 17  1  0  0  0  0
 17 18  1  0  0  0  0
 17 22  2  0  0  0  0
 18 19  2  0  0  0  0
 18 32  1  0  0  0  0
 19 20  1  0  0  0  0
 19 33  1  0  0  0  0
 20 21  2  0  0  0  0
 20 34  1  0  0  0  0
 21 22  1  0  0  0  0
 21 35  1  0  0  0  0
 22 36  1  0  0  0  0
M  END
$$$$
