CHEMBL1254927
 OpenBabel04072215363D

 60 64  0  0  0  0  0  0  0  0999 V2000
    3.6360   -0.9869   -1.2539 C   0  0  0  0  0  0  0  0  0  0  0  0
    3.4860   -0.6569    0.1445 N   0  0  0  0  0  0  0  0  0  0  0  0
    4.1286    0.3807    0.7708 C   0  0  0  0  0  0  0  0  0  0  0  0
    3.7201    0.4039    2.0903 C   0  0  0  0  0  0  0  0  0  0  0  0
    2.7976   -0.6546    2.2580 C   0  0  0  0  0  0  0  0  0  0  0  0
    2.1365   -1.0237    3.3741 N   0  0  0  0  0  0  0  0  0  0  0  0
    1.3221   -2.0679    3.1881 C   0  0  0  0  0  0  0  0  0  0  0  0
    1.1152   -2.7587    2.0570 N   0  0  0  0  0  0  0  0  0  0  0  0
    1.8245   -2.4082    0.9578 C   0  0  0  0  0  0  0  0  0  0  0  0
    1.6816   -3.1452   -0.2165 O   0  0  0  0  0  0  0  0  0  0  0  0
    1.4944   -4.5062   -0.0860 C   0  0  0  0  0  0  0  0  0  0  0  0
    2.0740   -5.2568    0.9316 C   0  0  0  0  0  0  0  0  0  0  0  0
    1.8387   -6.6275    1.0247 C   0  0  0  0  0  0  0  0  0  0  0  0
    1.0512   -7.2990    0.0858 C   0  0  0  0  0  0  0  0  0  0  0  0
    0.8148   -8.6989    0.1775 N   0  0  0  0  0  0  0  0  0  0  0  0
    1.1663   -9.5177    1.2308 C   0  0  0  0  0  0  0  0  0  0  0  0
    1.6540   -9.1322    2.2937 O   0  0  0  0  0  0  0  0  0  0  0  0
    0.9430  -10.8596    0.9702 N   0  0  0  0  0  0  0  0  0  0  0  0
    1.2515  -11.8347    1.9496 C   0  0  0  0  0  0  0  0  0  0  0  0
    2.0226  -12.9420    1.5846 C   0  0  0  0  0  0  0  0  0  0  0  0
    2.3545  -13.9434    2.5089 C   0  0  0  0  0  0  0  0  0  0  0  0
    3.1464  -15.0197    2.1774 N   0  0  0  0  0  0  0  0  0  0  0  0
    4.2564  -14.9534    1.2173 C   0  0  0  0  0  0  0  0  0  0  0  0
    4.0137  -15.9369    0.0652 C   0  0  0  0  0  0  0  0  0  0  0  0
    3.7731  -17.2710    0.5476 O   0  0  0  0  0  0  0  0  0  0  0  0
    2.6254  -17.2912    1.4096 C   0  0  0  0  0  0  0  0  0  0  0  0
    2.8153  -16.3780    2.6335 C   0  0  0  0  0  0  0  0  0  0  0  0
    1.8481  -13.8108    3.8113 C   0  0  0  0  0  0  0  0  0  0  0  0
    1.0650  -12.7147    4.2060 C   0  0  0  0  0  0  0  0  0  0  0  0
    0.5242  -12.6253    5.6091 C   0  0  0  0  0  0  0  0  0  0  0  0
    0.8137  -13.7177    6.3720 F   0  0  0  0  0  0  0  0  0  0  0  0
    1.0005  -11.5557    6.3007 F   0  0  0  0  0  0  0  0  0  0  0  0
   -0.8340  -12.5160    5.6338 F   0  0  0  0  0  0  0  0  0  0  0  0
    0.7883  -11.7150    3.2649 C   0  0  0  0  0  0  0  0  0  0  0  0
    0.5135   -6.5430   -0.9762 C   0  0  0  0  0  0  0  0  0  0  0  0
   -0.4354   -7.2966   -2.2056 Cl  0  0  0  0  0  0  0  0  0  0  0  0
    0.7385   -5.1564   -1.0642 C   0  0  0  0  0  0  0  0  0  0  0  0
    2.6612   -1.3086    1.0379 C   0  0  0  0  0  0  0  0  0  0  0  0
    4.3424   -0.2924   -1.7169 H   0  0  0  0  0  0  0  0  0  0  0  0
    2.6611   -0.8971   -1.7395 H   0  0  0  0  0  0  0  0  0  0  0  0
    4.0200   -2.0072   -1.3311 H   0  0  0  0  0  0  0  0  0  0  0  0
    4.8265    1.0168    0.2403 H   0  0  0  0  0  0  0  0  0  0  0  0
    4.0427    1.1008    2.8472 H   0  0  0  0  0  0  0  0  0  0  0  0
    0.7725   -2.4074    4.0609 H   0  0  0  0  0  0  0  0  0  0  0  0
    2.6993   -4.7944    1.6925 H   0  0  0  0  0  0  0  0  0  0  0  0
    2.3007   -7.1316    1.8701 H   0  0  0  0  0  0  0  0  0  0  0  0
    0.2038   -9.0954   -0.5334 H   0  0  0  0  0  0  0  0  0  0  0  0
    1.1033  -11.1212    0.0074 H   0  0  0  0  0  0  0  0  0  0  0  0
    2.3909  -13.0125    0.5664 H   0  0  0  0  0  0  0  0  0  0  0  0
    5.1709  -15.2453    1.7487 H   0  0  0  0  0  0  0  0  0  0  0  0
    4.4284  -13.9442    0.8285 H   0  0  0  0  0  0  0  0  0  0  0  0
    4.8954  -15.9755   -0.5823 H   0  0  0  0  0  0  0  0  0  0  0  0
    3.1609  -15.6222   -0.5469 H   0  0  0  0  0  0  0  0  0  0  0  0
    2.4697  -18.3225    1.7397 H   0  0  0  0  0  0  0  0  0  0  0  0
    1.7421  -16.9875    0.8333 H   0  0  0  0  0  0  0  0  0  0  0  0
    3.6429  -16.7477    3.2497 H   0  0  0  0  0  0  0  0  0  0  0  0
    1.9019  -16.4132    3.2373 H   0  0  0  0  0  0  0  0  0  0  0  0
    2.0953  -14.5657    4.5564 H   0  0  0  0  0  0  0  0  0  0  0  0
    0.1932  -10.8516    3.5614 H   0  0  0  0  0  0  0  0  0  0  0  0
    0.3177   -4.5853   -1.8841 H   0  0  0  0  0  0  0  0  0  0  0  0
  1  2  1  0  0  0  0
  1 39  1  0  0  0  0
  1 40  1  0  0  0  0
  1 41  1  0  0  0  0
  2  3  1  0  0  0  0
  2 38  1  0  0  0  0
  3  4  2  0  0  0  0
  3 42  1  0  0  0  0
  4  5  1  0  0  0  0
  4 43  1  0  0  0  0
  5  6  1  0  0  0  0
  5 38  2  0  0  0  0
  6  7  2  0  0  0  0
  7  8  1  0  0  0  0
  7 44  1  0  0  0  0
  8  9  2  0  0  0  0
  9 10  1  0  0  0  0
  9 38  1  0  0  0  0
 10 11  1  0  0  0  0
 11 12  1  0  0  0  0
 11 37  2  0  0  0  0
 12 13  2  0  0  0  0
 12 45  1  0  0  0  0
 13 14  1  0  0  0  0
 13 46  1  0  0  0  0
 14 15  1  0  0  0  0
 14 35  2  0  0  0  0
 15 16  1  0  0  0  0
 15 47  1  0  0  0  0
 16 17  2  0  0  0  0
 16 18  1  0  0  0  0
 18 19  1  0  0  0  0
 18 48  1  0  0  0  0
 19 20  1  0  0  0  0
 19 34  2  0  0  0  0
 20 21  2  0  0  0  0
 20 49  1  0  0  0  0
 21 22  1  0  0  0  0
 21 28  1  0  0  0  0
 22 23  1  0  0  0  0
 22 27  1  0  0  0  0
 23 24  1  0  0  0  0
 23 50  1  0  0  0  0
 23 51  1  0  0  0  0
 24 25  1  0  0  0  0
 24 52  1  0  0  0  0
 24 53  1  0  0  0  0
 25 26  1  0  0  0  0
 26 27  1  0  0  0  0
 26 54  1  0  0  0  0
 26 55  1  0  0  0  0
 27 56  1  0  0  0  0
 27 57  1  0  0  0  0
 28 29  2  0  0  0  0
 28 58  1  0  0  0  0
 29 30  1  0  0  0  0
 29 34  1  0  0  0  0
 30 31  1  0  0  0  0
 30 32  1  0  0  0  0
 30 33  1  0  0  0  0
 34 59  1  0  0  0  0
 35 36  1  0  0  0  0
 35 37  1  0  0  0  0
 37 60  1  0  0  0  0
M  END
$$$$
