CHEMBL2409781
 OpenBabel04072215363D

 52 56  0  0  0  0  0  0  0  0999 V2000
   -2.3164    0.5729   -0.9130 C   0  0  0  0  0  0  0  0  0  0  0  0
   -1.0141   -0.0158   -0.5189 C   0  0  0  0  0  0  0  0  0  0  0  0
   -0.5953   -1.3688   -0.5325 C   0  0  0  0  0  0  0  0  0  0  0  0
    0.7125   -1.3723   -0.0730 C   0  0  0  0  0  0  0  0  0  0  0  0
    1.6658   -2.4517    0.1280 C   0  0  0  0  0  0  0  0  0  0  0  0
    2.8033   -2.2111    0.5151 O   0  0  0  0  0  0  0  0  0  0  0  0
    1.2463   -3.7469   -0.1813 N   0  0  0  0  0  0  0  0  0  0  0  0
    2.0478   -4.9108    0.0033 C   0  0  0  0  0  0  0  0  0  0  0  0
    3.1619   -4.9089    0.8519 C   0  0  0  0  0  0  0  0  0  0  0  0
    4.0283   -5.9954    0.9198 C   0  0  0  0  0  0  0  0  0  0  0  0
    3.7645   -7.1307    0.1713 C   0  0  0  0  0  0  0  0  0  0  0  0
    2.5863   -7.2187   -0.5753 C   0  0  0  0  0  0  0  0  0  0  0  0
    2.2495   -8.3494   -1.2976 O   0  0  0  0  0  0  0  0  0  0  0  0
    2.6484   -9.5981   -0.8028 C   0  0  0  0  0  0  0  0  0  0  0  0
    2.8633  -10.5875   -1.7584 C   0  0  0  0  0  0  0  0  0  0  0  0
    3.2525  -11.8639   -1.3407 C   0  0  0  0  0  0  0  0  0  0  0  0
    3.4187  -12.0846    0.0360 C   0  0  0  0  0  0  0  0  0  0  0  0
    3.7850  -13.2524    0.6699 N   0  0  0  0  0  0  0  0  0  0  0  0
    3.8444  -13.0405    1.9608 C   0  0  0  0  0  0  0  0  0  0  0  0
    4.1188  -13.9305    2.9644 N   0  0  0  0  0  0  0  0  0  0  0  0
    4.0913  -15.2849    2.7431 C   0  0  0  0  0  0  0  0  0  0  0  0
    3.8237  -15.8642    1.6999 O   0  0  0  0  0  0  0  0  0  0  0  0
    4.3480  -16.0832    3.9829 C   0  0  0  0  0  0  0  0  0  0  0  0
    4.3752  -17.5952    3.9360 C   0  0  0  0  0  0  0  0  0  0  0  0
    3.2175  -16.8919    4.5799 C   0  0  0  0  0  0  0  0  0  0  0  0
    3.5273  -11.4485    2.4966 S   0  0  0  0  0  0  0  0  0  0  0  0
    3.1833  -11.0070    0.8836 C   0  0  0  0  0  0  0  0  0  0  0  0
    2.7716   -9.7722    0.5353 N   0  0  0  0  0  0  0  0  0  0  0  0
    1.7377   -6.0985   -0.6798 C   0  0  0  0  0  0  0  0  0  0  0  0
    0.9815   -0.0413    0.1967 N   0  0  0  0  0  0  0  0  0  0  0  0
    2.1716    0.5936    0.7238 C   0  0  0  0  0  0  0  0  0  0  0  0
   -0.0498    0.7823   -0.0736 N   0  0  0  0  0  0  0  0  0  0  0  0
   -3.0085   -0.1918   -1.2749 H   0  0  0  0  0  0  0  0  0  0  0  0
   -2.1754    1.3112   -1.7097 H   0  0  0  0  0  0  0  0  0  0  0  0
   -2.7801    1.0788   -0.0594 H   0  0  0  0  0  0  0  0  0  0  0  0
   -1.1878   -2.2157   -0.8469 H   0  0  0  0  0  0  0  0  0  0  0  0
    0.3874   -3.8534   -0.7044 H   0  0  0  0  0  0  0  0  0  0  0  0
    3.3985   -4.0612    1.4877 H   0  0  0  0  0  0  0  0  0  0  0  0
    4.9071   -5.9487    1.5552 H   0  0  0  0  0  0  0  0  0  0  0  0
    4.4755   -7.9503    0.2113 H   0  0  0  0  0  0  0  0  0  0  0  0
    2.7396  -10.3737   -2.8149 H   0  0  0  0  0  0  0  0  0  0  0  0
    3.4310  -12.6685   -2.0462 H   0  0  0  0  0  0  0  0  0  0  0  0
    4.2107  -13.5635    3.8995 H   0  0  0  0  0  0  0  0  0  0  0  0
    5.0462  -15.6293    4.6800 H   0  0  0  0  0  0  0  0  0  0  0  0
    5.0775  -18.1152    4.5766 H   0  0  0  0  0  0  0  0  0  0  0  0
    4.2035  -18.0869    2.9831 H   0  0  0  0  0  0  0  0  0  0  0  0
    3.1322  -16.9388    5.6588 H   0  0  0  0  0  0  0  0  0  0  0  0
    2.2672  -16.9213    4.0561 H   0  0  0  0  0  0  0  0  0  0  0  0
    0.8623   -6.1605   -1.3181 H   0  0  0  0  0  0  0  0  0  0  0  0
    2.9785   -0.1035    0.9170 H   0  0  0  0  0  0  0  0  0  0  0  0
    1.9016    1.0865    1.6627 H   0  0  0  0  0  0  0  0  0  0  0  0
    2.5111    1.3325   -0.0041 H   0  0  0  0  0  0  0  0  0  0  0  0
  1  2  1  0  0  0  0
  1 33  1  0  0  0  0
  1 34  1  0  0  0  0
  1 35  1  0  0  0  0
  2  3  1  0  0  0  0
  2 32  2  0  0  0  0
  3  4  2  0  0  0  0
  3 36  1  0  0  0  0
  4  5  1  0  0  0  0
  4 30  1  0  0  0  0
  5  6  2  0  0  0  0
  5  7  1  0  0  0  0
  7  8  1  0  0  0  0
  7 37  1  0  0  0  0
  8  9  1  0  0  0  0
  8 29  2  0  0  0  0
  9 10  2  0  0  0  0
  9 38  1  0  0  0  0
 10 11  1  0  0  0  0
 10 39  1  0  0  0  0
 11 12  2  0  0  0  0
 11 40  1  0  0  0  0
 12 13  1  0  0  0  0
 12 29  1  0  0  0  0
 13 14  1  0  0  0  0
 14 15  1  0  0  0  0
 14 28  2  0  0  0  0
 15 16  2  0  0  0  0
 15 41  1  0  0  0  0
 16 17  1  0  0  0  0
 16 42  1  0  0  0  0
 17 18  1  0  0  0  0
 17 27  2  0  0  0  0
 18 19  2  0  0  0  0
 19 20  1  0  0  0  0
 19 26  1  0  0  0  0
 20 21  1  0  0  0  0
 20 43  1  0  0  0  0
 21 22  2  0  0  0  0
 21 23  1  0  0  0  0
 23 24  1  0  0  0  0
 23 25  1  0  0  0  0
 23 44  1  0  0  0  0
 24 25  1  0  0  0  0
 24 45  1  0  0  0  0
 24 46  1  0  0  0  0
 25 47  1  0  0  0  0
 25 48  1  0  0  0  0
 26 27  1  0  0  0  0
 27 28  1  0  0  0  0
 29 49  1  0  0  0  0
 30 31  1  0  0  0  0
 30 32  1  0  0  0  0
 31 50  1  0  0  0  0
 31 51  1  0  0  0  0
 31 52  1  0  0  0  0
M  END
$$$$
