CHEMBL4789638
 OpenBabel04072215383D

 65 69  0  0  0  0  0  0  0  0999 V2000
    4.1454   -2.9809   -0.5365 C   0  0  0  0  0  0  0  0  0  0  0  0
    4.7646   -1.7048   -0.3481 O   0  0  0  0  0  0  0  0  0  0  0  0
    4.9659   -1.3187    0.9469 C   0  0  0  0  0  0  0  0  0  0  0  0
    4.6155   -2.0732    2.0504 C   0  0  0  0  0  0  0  0  0  0  0  0
    4.8566   -1.6089    3.3323 C   0  0  0  0  0  0  0  0  0  0  0  0
    5.4708   -0.3683    3.5888 C   0  0  0  0  0  0  0  0  0  0  0  0
    5.6874    0.1269    4.8856 N   0  0  0  0  0  0  0  0  0  0  0  0
    5.4537   -0.5941    6.0526 C   0  0  0  0  0  0  0  0  0  0  0  0
    5.1635   -1.8008    6.0208 O   0  0  0  0  0  0  0  0  0  0  0  0
    5.5464    0.1161    7.2059 N   0  0  0  0  0  0  0  0  0  0  0  0
    5.1510   -0.4498    8.4394 C   0  0  0  0  0  0  0  0  0  0  0  0
    5.0062    0.3776    9.4793 N   0  0  0  0  0  0  0  0  0  0  0  0
    4.4143   -0.1197   10.5780 C   0  0  0  0  0  0  0  0  0  0  0  0
    4.1491    0.7044   11.7003 N   0  0  0  0  0  0  0  0  0  0  0  0
    4.7695    1.9342   12.0018 C   0  0  0  0  0  0  0  0  0  0  0  0
    4.0070    2.9577   12.5884 C   0  0  0  0  0  0  0  0  0  0  0  0
    4.5966    4.1711   12.9320 C   0  0  0  0  0  0  0  0  0  0  0  0
    3.9453    5.2478   13.4722 O   0  0  0  0  0  0  0  0  0  0  0  0
    2.5475    5.1058   13.6969 C   0  0  0  0  0  0  0  0  0  0  0  0
    5.9679    4.3546   12.7311 C   0  0  0  0  0  0  0  0  0  0  0  0
    6.7447    3.3304   12.1928 C   0  0  0  0  0  0  0  0  0  0  0  0
    8.0954    3.3947   11.9707 O   0  0  0  0  0  0  0  0  0  0  0  0
    8.8134    4.2844   12.8188 C   0  0  0  0  0  0  0  0  0  0  0  0
    6.1370    2.1360   11.8148 C   0  0  0  0  0  0  0  0  0  0  0  0
    3.9503   -1.4216   10.6614 C   0  0  0  0  0  0  0  0  0  0  0  0
    4.1704   -2.1965    9.5621 C   0  0  0  0  0  0  0  0  0  0  0  0
    3.3717   -3.7966    9.4179 S   0  0  0  0  0  0  0  0  0  0  0  0
    1.9861   -3.2524    8.4922 C   0  0  0  0  0  0  0  0  0  0  0  0
    1.9888   -2.9743    7.1435 C   0  0  0  0  0  0  0  0  0  0  0  0
    0.7290   -2.5751    6.8621 N   0  0  0  0  0  0  0  0  0  0  0  0
    0.2003   -1.9890    7.9861 C   0  0  0  0  0  0  0  0  0  0  0  0
   -0.6985   -0.9384    8.1754 C   0  0  0  0  0  0  0  0  0  0  0  0
   -1.0468   -0.6478    9.4962 C   0  0  0  0  0  0  0  0  0  0  0  0
   -0.6368   -1.4727   10.5468 C   0  0  0  0  0  0  0  0  0  0  0  0
    0.2688   -2.5186   10.3350 C   0  0  0  0  0  0  0  0  0  0  0  0
    0.7984   -2.6821    9.0421 C   0  0  0  0  0  0  0  0  0  0  0  0
    4.8108   -1.7430    8.4892 N   0  0  0  0  0  0  0  0  0  0  0  0
    5.8247    0.3961    2.4568 C   0  0  0  0  0  0  0  0  0  0  0  0
    5.5787   -0.0884    1.1672 C   0  0  0  0  0  0  0  0  0  0  0  0
    4.1173   -3.1869   -1.6070 H   0  0  0  0  0  0  0  0  0  0  0  0
    3.1156   -2.9683   -0.1670 H   0  0  0  0  0  0  0  0  0  0  0  0
    4.7245   -3.7793   -0.0631 H   0  0  0  0  0  0  0  0  0  0  0  0
    4.1361   -3.0616    1.9736 H   0  0  0  0  0  0  0  0  0  0  0  0
    4.5409   -2.2690    4.1276 H   0  0  0  0  0  0  0  0  0  0  0  0
    6.1430    1.0382    4.9813 H   0  0  0  0  0  0  0  0  0  0  0  0
    5.6472    1.1175    7.2409 H   0  0  0  0  0  0  0  0  0  0  0  0
    3.1487    0.7120   11.8719 H   0  0  0  0  0  0  0  0  0  0  0  0
    2.9487    2.7831   12.7534 H   0  0  0  0  0  0  0  0  0  0  0  0
    2.1820    6.0373   14.1389 H   0  0  0  0  0  0  0  0  0  0  0  0
    2.3424    4.2981   14.4078 H   0  0  0  0  0  0  0  0  0  0  0  0
    2.0092    4.9493   12.7557 H   0  0  0  0  0  0  0  0  0  0  0  0
    6.4017    5.3132   12.9935 H   0  0  0  0  0  0  0  0  0  0  0  0
    9.8811    4.0901   12.6778 H   0  0  0  0  0  0  0  0  0  0  0  0
    8.5797    4.1076   13.8747 H   0  0  0  0  0  0  0  0  0  0  0  0
    8.6273    5.3276   12.5439 H   0  0  0  0  0  0  0  0  0  0  0  0
    6.7505    1.3395   11.3965 H   0  0  0  0  0  0  0  0  0  0  0  0
    3.4185   -1.7900   11.5277 H   0  0  0  0  0  0  0  0  0  0  0  0
    2.7604   -3.0302    6.3793 H   0  0  0  0  0  0  0  0  0  0  0  0
    0.1413   -3.0050    6.1427 H   0  0  0  0  0  0  0  0  0  0  0  0
   -1.0238   -0.3156    7.3485 H   0  0  0  0  0  0  0  0  0  0  0  0
   -1.6518    0.2304    9.7046 H   0  0  0  0  0  0  0  0  0  0  0  0
   -0.9789   -1.2645   11.5566 H   0  0  0  0  0  0  0  0  0  0  0  0
    0.6322   -3.1170   11.1615 H   0  0  0  0  0  0  0  0  0  0  0  0
    6.3102    1.3637    2.5776 H   0  0  0  0  0  0  0  0  0  0  0  0
    5.8586    0.5265    0.2927 H   0  0  0  0  0  0  0  0  0  0  0  0
  1  2  1  0  0  0  0
  1 40  1  0  0  0  0
  1 41  1  0  0  0  0
  1 42  1  0  0  0  0
  2  3  1  0  0  0  0
  3  4  1  0  0  0  0
  3 39  2  0  0  0  0
  4  5  2  0  0  0  0
  4 43  1  0  0  0  0
  5  6  1  0  0  0  0
  5 44  1  0  0  0  0
  6  7  1  0  0  0  0
  6 38  2  0  0  0  0
  7  8  1  0  0  0  0
  7 45  1  0  0  0  0
  8  9  2  0  0  0  0
  8 10  1  0  0  0  0
 10 11  1  0  0  0  0
 10 46  1  0  0  0  0
 11 12  1  0  0  0  0
 11 37  2  0  0  0  0
 12 13  2  0  0  0  0
 13 14  1  0  0  0  0
 13 25  1  0  0  0  0
 14 15  1  0  0  0  0
 14 47  1  0  0  0  0
 15 16  1  0  0  0  0
 15 24  2  0  0  0  0
 16 17  2  0  0  0  0
 16 48  1  0  0  0  0
 17 18  1  0  0  0  0
 17 20  1  0  0  0  0
 18 19  1  0  0  0  0
 19 49  1  0  0  0  0
 19 50  1  0  0  0  0
 19 51  1  0  0  0  0
 20 21  2  0  0  0  0
 20 52  1  0  0  0  0
 21 22  1  0  0  0  0
 21 24  1  0  0  0  0
 22 23  1  0  0  0  0
 23 53  1  0  0  0  0
 23 54  1  0  0  0  0
 23 55  1  0  0  0  0
 24 56  1  0  0  0  0
 25 26  2  0  0  0  0
 25 57  1  0  0  0  0
 26 27  1  0  0  0  0
 26 37  1  0  0  0  0
 27 28  1  0  0  0  0
 28 29  2  0  0  0  0
 28 36  1  0  0  0  0
 29 30  1  0  0  0  0
 29 58  1  0  0  0  0
 30 31  1  0  0  0  0
 30 59  1  0  0  0  0
 31 32  1  0  0  0  0
 31 36  2  0  0  0  0
 32 33  2  0  0  0  0
 32 60  1  0  0  0  0
 33 34  1  0  0  0  0
 33 61  1  0  0  0  0
 34 35  2  0  0  0  0
 34 62  1  0  0  0  0
 35 36  1  0  0  0  0
 35 63  1  0  0  0  0
 38 39  1  0  0  0  0
 38 64  1  0  0  0  0
 39 65  1  0  0  0  0
M  END
$$$$
