CHEMBL2403372
 OpenBabel04072215363D

 53 57  0  0  0  0  0  0  0  0999 V2000
   -3.1012    0.3922    1.6720 O   0  0  0  0  0  0  0  0  0  0  0  0
   -1.9176    0.2440    1.4406 C   0  0  0  0  0  0  0  0  0  0  0  0
   -0.9017    1.0550    1.9117 N   0  0  0  0  0  0  0  0  0  0  0  0
    0.3480    0.5765    1.5433 C   0  0  0  0  0  0  0  0  0  0  0  0
    1.5586    1.1532    1.8481 C   0  0  0  0  0  0  0  0  0  0  0  0
    2.7077    0.5186    1.3656 C   0  0  0  0  0  0  0  0  0  0  0  0
    2.6228   -0.6610    0.5929 C   0  0  0  0  0  0  0  0  0  0  0  0
    3.8846   -1.3113    0.0662 C   0  0  0  0  0  0  0  0  0  0  0  0
    5.0220   -0.6438    0.4068 F   0  0  0  0  0  0  0  0  0  0  0  0
    4.0454   -2.5826    0.5248 F   0  0  0  0  0  0  0  0  0  0  0  0
    3.8940   -1.3961   -1.2921 F   0  0  0  0  0  0  0  0  0  0  0  0
    1.3656   -1.2286    0.3078 C   0  0  0  0  0  0  0  0  0  0  0  0
    0.2303   -0.5951    0.7890 C   0  0  0  0  0  0  0  0  0  0  0  0
   -1.2099   -0.8490    0.6642 C   0  0  0  0  0  0  0  0  0  0  0  0
   -1.7810   -1.8361   -0.0436 C   0  0  0  0  0  0  0  0  0  0  0  0
   -3.1803   -1.8979   -0.2080 C   0  0  0  0  0  0  0  0  0  0  0  0
   -4.0447   -1.4643   -1.1980 C   0  0  0  0  0  0  0  0  0  0  0  0
   -5.3722   -1.6333   -0.7158 C   0  0  0  0  0  0  0  0  0  0  0  0
   -5.2468   -2.2152    0.5202 C   0  0  0  0  0  0  0  0  0  0  0  0
   -3.9325   -2.4149    0.8136 N   0  0  0  0  0  0  0  0  0  0  0  0
   -6.3386   -2.4909    1.4440 C   0  0  0  0  0  0  0  0  0  0  0  0
   -7.6817   -2.3151    0.7488 C   0  0  0  0  0  0  0  0  0  0  0  0
   -7.8536   -1.5673   -0.4891 N   0  0  0  0  0  0  0  0  0  0  0  0
   -9.0884   -1.3589   -1.0936 C   0  0  0  0  0  0  0  0  0  0  0  0
   -9.1342   -0.7085   -2.1491 O   0  0  0  0  0  0  0  0  0  0  0  0
  -10.2641   -1.8920   -0.5634 N   0  0  0  0  0  0  0  0  0  0  0  0
  -10.5379   -2.8104    0.5623 C   0  0  0  0  0  0  0  0  0  0  0  0
  -10.9157   -4.1859    0.0152 C   0  0  0  0  0  0  0  0  0  0  0  0
  -12.1373   -4.0773   -0.7262 O   0  0  0  0  0  0  0  0  0  0  0  0
  -11.9836   -3.1618   -1.8265 C   0  0  0  0  0  0  0  0  0  0  0  0
  -11.4811   -1.7720   -1.3810 C   0  0  0  0  0  0  0  0  0  0  0  0
   -6.6745   -1.2305   -1.3267 C   0  0  0  0  0  0  0  0  0  0  0  0
   -1.0877    1.8792    2.4611 H   0  0  0  0  0  0  0  0  0  0  0  0
    1.6270    2.0675    2.4283 H   0  0  0  0  0  0  0  0  0  0  0  0
    3.6768    0.9638    1.5841 H   0  0  0  0  0  0  0  0  0  0  0  0
    1.2905   -2.1360   -0.2857 H   0  0  0  0  0  0  0  0  0  0  0  0
   -1.1833   -2.5736   -0.5678 H   0  0  0  0  0  0  0  0  0  0  0  0
   -3.7491   -0.9913   -2.1253 H   0  0  0  0  0  0  0  0  0  0  0  0
   -3.5754   -2.7656    1.6916 H   0  0  0  0  0  0  0  0  0  0  0  0
   -6.2775   -1.8285    2.3149 H   0  0  0  0  0  0  0  0  0  0  0  0
   -6.2779   -3.5169    1.8269 H   0  0  0  0  0  0  0  0  0  0  0  0
   -8.3207   -1.8194    1.4854 H   0  0  0  0  0  0  0  0  0  0  0  0
   -8.0262   -3.3243    0.5054 H   0  0  0  0  0  0  0  0  0  0  0  0
  -11.3855   -2.3799    1.1100 H   0  0  0  0  0  0  0  0  0  0  0  0
   -9.7696   -2.9375    1.3060 H   0  0  0  0  0  0  0  0  0  0  0  0
  -11.0779   -4.8867    0.8401 H   0  0  0  0  0  0  0  0  0  0  0  0
  -10.1293   -4.5990   -0.6291 H   0  0  0  0  0  0  0  0  0  0  0  0
  -12.9664   -3.0654   -2.2974 H   0  0  0  0  0  0  0  0  0  0  0  0
  -11.2999   -3.6131   -2.5536 H   0  0  0  0  0  0  0  0  0  0  0  0
  -12.2355   -1.2980   -0.7416 H   0  0  0  0  0  0  0  0  0  0  0  0
  -11.3477   -1.1339   -2.2587 H   0  0  0  0  0  0  0  0  0  0  0  0
   -6.6826   -0.1498   -1.5216 H   0  0  0  0  0  0  0  0  0  0  0  0
   -6.7896   -1.7438   -2.2894 H   0  0  0  0  0  0  0  0  0  0  0  0
  1  2  2  0  0  0  0
  2  3  1  0  0  0  0
  2 14  1  0  0  0  0
  3  4  1  0  0  0  0
  3 33  1  0  0  0  0
  4  5  1  0  0  0  0
  4 13  2  0  0  0  0
  5  6  2  0  0  0  0
  5 34  1  0  0  0  0
  6  7  1  0  0  0  0
  6 35  1  0  0  0  0
  7  8  1  0  0  0  0
  7 12  2  0  0  0  0
  8  9  1  0  0  0  0
  8 10  1  0  0  0  0
  8 11  1  0  0  0  0
 12 13  1  0  0  0  0
 12 36  1  0  0  0  0
 13 14  1  0  0  0  0
 14 15  2  0  0  0  0
 15 16  1  0  0  0  0
 15 37  1  0  0  0  0
 16 17  2  0  0  0  0
 16 20  1  0  0  0  0
 17 18  1  0  0  0  0
 17 38  1  0  0  0  0
 18 19  2  0  0  0  0
 18 32  1  0  0  0  0
 19 20  1  0  0  0  0
 19 21  1  0  0  0  0
 20 39  1  0  0  0  0
 21 22  1  0  0  0  0
 21 40  1  0  0  0  0
 21 41  1  0  0  0  0
 22 23  1  0  0  0  0
 22 42  1  0  0  0  0
 22 43  1  0  0  0  0
 23 24  1  0  0  0  0
 23 32  1  0  0  0  0
 24 25  2  0  0  0  0
 24 26  1  0  0  0  0
 26 27  1  0  0  0  0
 26 31  1  0  0  0  0
 27 28  1  0  0  0  0
 27 44  1  0  0  0  0
 27 45  1  0  0  0  0
 28 29  1  0  0  0  0
 28 46  1  0  0  0  0
 28 47  1  0  0  0  0
 29 30  1  0  0  0  0
 30 31  1  0  0  0  0
 30 48  1  0  0  0  0
 30 49  1  0  0  0  0
 31 50  1  0  0  0  0
 31 51  1  0  0  0  0
 32 52  1  0  0  0  0
 32 53  1  0  0  0  0
M  END
$$$$
