CHEMBL327720
 OpenBabel04072215363D

 52 55  0  0  1  0  0  0  0  0999 V2000
    2.9260   -0.5275   -3.8762 C   0  0  0  0  0  0  0  0  0  0  0  0
    2.5186    0.2127   -2.5932 C   0  0  3  0  0  0  0  0  0  0  0  0
    0.9749    0.2782   -2.5248 C   0  0  0  0  0  0  0  0  0  0  0  0
    0.4133    0.9932   -1.3639 N   0  0  0  0  0  0  0  0  0  0  0  0
    0.8084    2.4040   -1.3355 C   0  0  0  0  0  0  0  0  0  0  0  0
   -1.0521    0.8984   -1.3915 C   0  0  0  0  0  0  0  0  0  0  0  0
    3.1100   -0.4611   -1.3393 C   0  0  0  0  0  0  0  0  0  0  0  0
    4.5708   -0.4821   -1.3233 N   0  0  0  0  0  0  0  0  0  0  0  0
    5.3457    0.6514   -1.3024 C   0  0  0  0  0  0  0  0  0  0  0  0
    6.6752    0.2804   -1.3536 C   0  0  0  0  0  0  0  0  0  0  0  0
    7.7674    1.2405   -1.4070 C   0  0  0  0  0  0  0  0  0  0  0  0
    8.9788    1.0074   -0.7656 C   0  0  0  0  0  0  0  0  0  0  0  0
   10.0533    1.8305   -0.8281 N   0  0  0  0  0  0  0  0  0  0  0  0
    9.9022    2.9632   -1.5554 C   0  0  0  0  0  0  0  0  0  0  0  0
    8.7280    3.3297   -2.2090 C   0  0  0  0  0  0  0  0  0  0  0  0
    8.6036    4.5818   -2.9538 C   0  0  0  0  0  0  0  0  0  0  0  0
    7.7682    4.8337   -4.0937 C   0  0  0  0  0  0  0  0  0  0  0  0
    7.8546    6.1326   -4.5445 C   0  0  0  0  0  0  0  0  0  0  0  0
    8.9382    7.0623   -3.6091 S   0  0  0  0  0  0  0  0  0  0  0  0
    9.2862    5.7297   -2.5917 C   0  0  0  0  0  0  0  0  0  0  0  0
    7.6534    2.4368   -2.1311 C   0  0  0  0  0  0  0  0  0  0  0  0
    6.7030   -1.1538   -1.3638 C   0  0  0  0  0  0  0  0  0  0  0  0
    7.7372   -2.1169   -1.4143 C   0  0  0  0  0  0  0  0  0  0  0  0
    7.4298   -3.4794   -1.4128 C   0  0  0  0  0  0  0  0  0  0  0  0
    6.1054   -3.8999   -1.3866 C   0  0  0  0  0  0  0  0  0  0  0  0
    5.0596   -2.9744   -1.3594 C   0  0  0  0  0  0  0  0  0  0  0  0
    5.3752   -1.6038   -1.3427 C   0  0  0  0  0  0  0  0  0  0  0  0
    2.6426    0.0579   -4.7577 H   0  0  0  0  0  0  0  0  0  0  0  0
    2.4344   -1.5036   -3.9467 H   0  0  0  0  0  0  0  0  0  0  0  0
    4.0066   -0.6886   -3.9320 H   0  0  0  0  0  0  0  0  0  0  0  0
    2.9146    1.2323   -2.6766 H   0  0  0  0  0  0  0  0  0  0  0  0
    0.6014   -0.7551   -2.5008 H   0  0  0  0  0  0  0  0  0  0  0  0
    0.5959    0.7237   -3.4549 H   0  0  0  0  0  0  0  0  0  0  0  0
    1.8673    2.5039   -1.0774 H   0  0  0  0  0  0  0  0  0  0  0  0
    0.2574    2.9490   -0.5594 H   0  0  0  0  0  0  0  0  0  0  0  0
    0.6290    2.9051   -2.2933 H   0  0  0  0  0  0  0  0  0  0  0  0
   -1.3731   -0.1487   -1.3593 H   0  0  0  0  0  0  0  0  0  0  0  0
   -1.4791    1.3639   -2.2880 H   0  0  0  0  0  0  0  0  0  0  0  0
   -1.4888    1.3841   -0.5113 H   0  0  0  0  0  0  0  0  0  0  0  0
    2.7439   -1.4884   -1.2500 H   0  0  0  0  0  0  0  0  0  0  0  0
    2.8143    0.0689   -0.4264 H   0  0  0  0  0  0  0  0  0  0  0  0
    4.8832    1.6292   -1.2699 H   0  0  0  0  0  0  0  0  0  0  0  0
    9.1332    0.1242   -0.1511 H   0  0  0  0  0  0  0  0  0  0  0  0
   10.7967    3.5787   -1.5990 H   0  0  0  0  0  0  0  0  0  0  0  0
    7.1318    4.0962   -4.5682 H   0  0  0  0  0  0  0  0  0  0  0  0
    7.3322    6.5798   -5.3788 H   0  0  0  0  0  0  0  0  0  0  0  0
    9.9726    5.8748   -1.7682 H   0  0  0  0  0  0  0  0  0  0  0  0
    6.7187    2.6651   -2.6365 H   0  0  0  0  0  0  0  0  0  0  0  0
    8.7786   -1.8118   -1.4567 H   0  0  0  0  0  0  0  0  0  0  0  0
    8.2330   -4.2108   -1.4376 H   0  0  0  0  0  0  0  0  0  0  0  0
    5.8810   -4.9639   -1.3944 H   0  0  0  0  0  0  0  0  0  0  0  0
    4.0320   -3.3226   -1.3521 H   0  0  0  0  0  0  0  0  0  0  0  0
  1  2  1  0  0  0  0
  1 28  1  0  0  0  0
  1 29  1  0  0  0  0
  1 30  1  0  0  0  0
  2  3  1  0  0  0  0
  2  7  1  0  0  0  0
  2 31  1  0  0  0  0
  3  4  1  0  0  0  0
  3 32  1  0  0  0  0
  3 33  1  0  0  0  0
  4  5  1  0  0  0  0
  4  6  1  0  0  0  0
  5 34  1  0  0  0  0
  5 35  1  0  0  0  0
  5 36  1  0  0  0  0
  6 37  1  0  0  0  0
  6 38  1  0  0  0  0
  6 39  1  0  0  0  0
  7  8  1  0  0  0  0
  7 40  1  0  0  0  0
  7 41  1  0  0  0  0
  8  9  1  0  0  0  0
  8 27  1  0  0  0  0
  9 10  2  0  0  0  0
  9 42  1  0  0  0  0
 10 11  1  0  0  0  0
 10 22  1  0  0  0  0
 11 12  1  0  0  0  0
 11 21  2  0  0  0  0
 12 13  2  0  0  0  0
 12 43  1  0  0  0  0
 13 14  1  0  0  0  0
 14 15  2  0  0  0  0
 14 44  1  0  0  0  0
 15 16  1  0  0  0  0
 15 21  1  0  0  0  0
 16 17  1  0  0  0  0
 16 20  2  0  0  0  0
 17 18  2  0  0  0  0
 17 45  1  0  0  0  0
 18 19  1  0  0  0  0
 18 46  1  0  0  0  0
 19 20  1  0  0  0  0
 20 47  1  0  0  0  0
 21 48  1  0  0  0  0
 22 23  1  0  0  0  0
 22 27  2  0  0  0  0
 23 24  2  0  0  0  0
 23 49  1  0  0  0  0
 24 25  1  0  0  0  0
 24 50  1  0  0  0  0
 25 26  2  0  0  0  0
 25 51  1  0  0  0  0
 26 27  1  0  0  0  0
 26 52  1  0  0  0  0
M  END
$$$$
