CHEMBL3956493
 OpenBabel04072215373D

 63 66  0  0  0  0  0  0  0  0999 V2000
    0.5934   -2.1321   -3.5858 C   0  0  0  0  0  0  0  0  0  0  0  0
    1.8274   -2.8082   -3.3184 O   0  0  0  0  0  0  0  0  0  0  0  0
    2.7929   -2.1057   -2.6334 C   0  0  0  0  0  0  0  0  0  0  0  0
    2.6329   -0.7865   -2.2085 C   0  0  0  0  0  0  0  0  0  0  0  0
    3.6358   -0.1706   -1.4682 C   0  0  0  0  0  0  0  0  0  0  0  0
    3.5884    1.1028   -0.9671 O   0  0  0  0  0  0  0  0  0  0  0  0
    2.4959    1.9137   -1.3826 C   0  0  0  0  0  0  0  0  0  0  0  0
    4.8046   -0.8757   -1.1592 C   0  0  0  0  0  0  0  0  0  0  0  0
    5.0308   -2.1937   -1.5901 C   0  0  0  0  0  0  0  0  0  0  0  0
    6.1731   -2.9125   -1.1586 N   0  0  0  0  0  0  0  0  0  0  0  0
    6.6262   -2.6624    0.2878 C   0  0  0  0  0  0  0  0  0  0  0  0
    5.5514   -2.8408    1.3873 C   0  0  0  0  0  0  0  0  0  0  0  0
    6.0754   -2.4724    2.7674 C   0  0  0  0  0  0  0  0  0  0  0  0
    7.2778   -2.2920    2.9812 O   0  0  0  0  0  0  0  0  0  0  0  0
    5.1037   -2.2929    3.7641 N   0  0  0  0  0  0  0  0  0  0  0  0
    3.7819   -2.8896    3.8315 C   0  0  0  0  0  0  0  0  0  0  0  0
    5.6366   -2.1952    5.0771 O   0  0  0  0  0  0  0  0  0  0  0  0
    5.5370   -0.8399    5.5327 C   0  0  0  0  0  0  0  0  0  0  0  0
    7.1994   -3.5942   -1.9128 C   0  0  0  0  0  0  0  0  0  0  0  0
    7.5508   -4.8272   -1.3846 C   0  0  0  0  0  0  0  0  0  0  0  0
    8.7754   -5.3874   -1.6622 C   0  0  0  0  0  0  0  0  0  0  0  0
    9.6495   -4.8467   -2.5636 C   0  0  0  0  0  0  0  0  0  0  0  0
   10.8055   -5.4975   -2.5215 N   0  0  0  0  0  0  0  0  0  0  0  0
   11.7210   -5.1711   -3.4282 C   0  0  0  0  0  0  0  0  0  0  0  0
   11.4985   -4.2457   -4.4221 C   0  0  0  0  0  0  0  0  0  0  0  0
   12.6067   -4.2002   -5.4093 C   0  0  0  0  0  0  0  0  0  0  0  0
   12.8186   -4.9887   -6.5872 C   0  0  0  0  0  0  0  0  0  0  0  0
   14.1001   -5.0305   -6.9890 N   0  0  0  0  0  0  0  0  0  0  0  0
   14.7477   -4.3192   -6.0532 N   0  0  0  0  0  0  0  0  0  0  0  0
   16.1615   -4.0329   -6.1786 C   0  0  0  0  0  0  0  0  0  0  0  0
   13.9225   -3.9258   -5.0316 C   0  0  0  0  0  0  0  0  0  0  0  0
   10.3213   -3.4930   -4.4233 N   0  0  0  0  0  0  0  0  0  0  0  0
    9.3287   -3.7565   -3.4054 C   0  0  0  0  0  0  0  0  0  0  0  0
    8.0357   -3.1128   -2.9976 C   0  0  0  0  0  0  0  0  0  0  0  0
    3.9942   -2.7962   -2.3360 C   0  0  0  0  0  0  0  0  0  0  0  0
   -0.0761   -2.8209   -4.1116 H   0  0  0  0  0  0  0  0  0  0  0  0
    0.7478   -1.2652   -4.2391 H   0  0  0  0  0  0  0  0  0  0  0  0
    0.0879   -1.8336   -2.6590 H   0  0  0  0  0  0  0  0  0  0  0  0
    1.7280   -0.2425   -2.4425 H   0  0  0  0  0  0  0  0  0  0  0  0
    2.6462    2.9152   -0.9701 H   0  0  0  0  0  0  0  0  0  0  0  0
    1.5500    1.5281   -0.9872 H   0  0  0  0  0  0  0  0  0  0  0  0
    2.4606    2.0034   -2.4738 H   0  0  0  0  0  0  0  0  0  0  0  0
    5.5493   -0.3644   -0.5564 H   0  0  0  0  0  0  0  0  0  0  0  0
    7.0797   -1.6669    0.3463 H   0  0  0  0  0  0  0  0  0  0  0  0
    7.4389   -3.3488    0.5610 H   0  0  0  0  0  0  0  0  0  0  0  0
    5.2284   -3.8882    1.4301 H   0  0  0  0  0  0  0  0  0  0  0  0
    4.6733   -2.2163    1.1924 H   0  0  0  0  0  0  0  0  0  0  0  0
    3.4360   -3.1769    2.8458 H   0  0  0  0  0  0  0  0  0  0  0  0
    3.1012   -2.1414    4.2532 H   0  0  0  0  0  0  0  0  0  0  0  0
    3.7845   -3.7663    4.4893 H   0  0  0  0  0  0  0  0  0  0  0  0
    5.8868   -0.7713    6.5672 H   0  0  0  0  0  0  0  0  0  0  0  0
    4.4955   -0.5000    5.5066 H   0  0  0  0  0  0  0  0  0  0  0  0
    6.1620   -0.1938    4.9076 H   0  0  0  0  0  0  0  0  0  0  0  0
    6.9246   -5.3063   -0.6333 H   0  0  0  0  0  0  0  0  0  0  0  0
    9.0902   -6.2649   -1.1015 H   0  0  0  0  0  0  0  0  0  0  0  0
   12.6562   -5.7150   -3.3373 H   0  0  0  0  0  0  0  0  0  0  0  0
   12.1107   -5.5946   -7.1401 H   0  0  0  0  0  0  0  0  0  0  0  0
   16.5562   -4.4468   -7.1116 H   0  0  0  0  0  0  0  0  0  0  0  0
   16.7022   -4.4568   -5.3271 H   0  0  0  0  0  0  0  0  0  0  0  0
   16.2738   -2.9452   -6.1882 H   0  0  0  0  0  0  0  0  0  0  0  0
   14.3434   -3.5355   -4.1161 H   0  0  0  0  0  0  0  0  0  0  0  0
    7.7405   -2.1975   -3.5114 H   0  0  0  0  0  0  0  0  0  0  0  0
    4.0799   -3.8375   -2.6399 H   0  0  0  0  0  0  0  0  0  0  0  0
  1  2  1  0  0  0  0
  1 36  1  0  0  0  0
  1 37  1  0  0  0  0
  1 38  1  0  0  0  0
  2  3  1  0  0  0  0
  3  4  1  0  0  0  0
  3 35  2  0  0  0  0
  4  5  2  0  0  0  0
  4 39  1  0  0  0  0
  5  6  1  0  0  0  0
  5  8  1  0  0  0  0
  6  7  1  0  0  0  0
  7 40  1  0  0  0  0
  7 41  1  0  0  0  0
  7 42  1  0  0  0  0
  8  9  2  0  0  0  0
  8 43  1  0  0  0  0
  9 10  1  0  0  0  0
  9 35  1  0  0  0  0
 10 11  1  0  0  0  0
 10 19  1  0  0  0  0
 11 12  1  0  0  0  0
 11 44  1  0  0  0  0
 11 45  1  0  0  0  0
 12 13  1  0  0  0  0
 12 46  1  0  0  0  0
 12 47  1  0  0  0  0
 13 14  2  0  0  0  0
 13 15  1  0  0  0  0
 15 16  1  0  0  0  0
 15 17  1  0  0  0  0
 16 48  1  0  0  0  0
 16 49  1  0  0  0  0
 16 50  1  0  0  0  0
 17 18  1  0  0  0  0
 18 51  1  0  0  0  0
 18 52  1  0  0  0  0
 18 53  1  0  0  0  0
 19 20  1  0  0  0  0
 19 34  2  0  0  0  0
 20 21  2  0  0  0  0
 20 54  1  0  0  0  0
 21 22  1  0  0  0  0
 21 55  1  0  0  0  0
 22 23  1  0  0  0  0
 22 33  2  0  0  0  0
 23 24  2  0  0  0  0
 24 25  1  0  0  0  0
 24 56  1  0  0  0  0
 25 26  1  0  0  0  0
 25 32  2  0  0  0  0
 26 27  1  0  0  0  0
 26 31  2  0  0  0  0
 27 28  2  0  0  0  0
 27 57  1  0  0  0  0
 28 29  1  0  0  0  0
 29 30  1  0  0  0  0
 29 31  1  0  0  0  0
 30 58  1  0  0  0  0
 30 59  1  0  0  0  0
 30 60  1  0  0  0  0
 31 61  1  0  0  0  0
 32 33  1  0  0  0  0
 33 34  1  0  0  0  0
 34 62  1  0  0  0  0
 35 63  1  0  0  0  0
M  END
$$$$
