CHEMBL432903
 OpenBabel04072215383D

 66 69  0  0  0  0  0  0  0  0999 V2000
    4.8722   -2.3486   -1.1040 C   0  0  0  0  0  0  0  0  0  0  0  0
    4.4720   -1.7304    0.2326 C   0  0  0  0  0  0  0  0  0  0  0  0
    4.8497   -0.3138    0.3978 N   0  0  0  0  0  0  0  0  0  0  0  0
    4.3582    0.5614   -0.6831 C   0  0  0  0  0  0  0  0  0  0  0  0
    2.8432    0.7328   -0.7921 C   0  0  0  0  0  0  0  0  0  0  0  0
    4.4380    0.2043    1.7244 C   0  0  0  0  0  0  0  0  0  0  0  0
    5.0284   -0.5424    2.9332 C   0  0  0  0  0  0  0  0  0  0  0  0
    6.4747   -0.5468    2.9501 N   0  0  0  0  0  0  0  0  0  0  0  0
    7.1451   -1.1624    3.9812 C   0  0  0  0  0  0  0  0  0  0  0  0
    6.5508   -1.7259    4.8973 O   0  0  0  0  0  0  0  0  0  0  0  0
    8.6092   -1.1438    3.8989 C   0  0  0  0  0  0  0  0  0  0  0  0
    9.4338   -0.1596    3.3645 C   0  0  0  0  0  0  0  0  0  0  0  0
    9.1683    1.1564    2.7243 C   0  0  0  0  0  0  0  0  0  0  0  0
   10.7389   -0.5454    3.5754 N   0  0  0  0  0  0  0  0  0  0  0  0
   10.7949   -1.7348    4.2500 C   0  0  0  0  0  0  0  0  0  0  0  0
   12.0167   -2.3546    4.6218 C   0  0  0  0  0  0  0  0  0  0  0  0
   13.2881   -1.9612    4.4542 C   0  0  0  0  0  0  0  0  0  0  0  0
   13.8582   -0.6860    3.8927 C   0  0  0  0  0  0  0  0  0  0  0  0
   13.2602    0.2465    3.3924 O   0  0  0  0  0  0  0  0  0  0  0  0
   15.2236   -0.7901    4.0715 N   0  0  0  0  0  0  0  0  0  0  0  0
   15.5738   -2.0013    4.6469 C   0  0  0  0  0  0  0  0  0  0  0  0
   16.8305   -2.3563    4.9000 N   0  0  0  0  0  0  0  0  0  0  0  0
   16.9329   -3.5780    5.4376 C   0  0  0  0  0  0  0  0  0  0  0  0
   15.9140   -4.4198    5.7110 N   0  0  0  0  0  0  0  0  0  0  0  0
   14.6610   -4.0165    5.4109 C   0  0  0  0  0  0  0  0  0  0  0  0
   13.5809   -4.9043    5.6018 N   0  0  0  0  0  0  0  0  0  0  0  0
   13.5035   -5.9840    6.5027 C   0  0  0  0  0  0  0  0  0  0  0  0
   12.6911   -7.0873    6.1935 C   0  0  0  0  0  0  0  0  0  0  0  0
   12.5511   -8.1440    7.0943 C   0  0  0  0  0  0  0  0  0  0  0  0
   13.1997   -8.0925    8.3240 C   0  0  0  0  0  0  0  0  0  0  0  0
   13.0442   -9.1143    9.1774 F   0  0  0  0  0  0  0  0  0  0  0  0
   13.9819   -6.9927    8.6618 C   0  0  0  0  0  0  0  0  0  0  0  0
   14.7579   -6.9038   10.1960 Cl  0  0  0  0  0  0  0  0  0  0  0  0
   14.1307   -5.9424    7.7553 C   0  0  0  0  0  0  0  0  0  0  0  0
   14.4458   -2.7651    4.8826 C   0  0  0  0  0  0  0  0  0  0  0  0
    9.4838   -2.1486    4.4530 C   0  0  0  0  0  0  0  0  0  0  0  0
    9.0225   -3.3997    5.1310 C   0  0  0  0  0  0  0  0  0  0  0  0
    4.7719   -3.4383   -1.0499 H   0  0  0  0  0  0  0  0  0  0  0  0
    5.9147   -2.1234   -1.3513 H   0  0  0  0  0  0  0  0  0  0  0  0
    4.2312   -2.0008   -1.9195 H   0  0  0  0  0  0  0  0  0  0  0  0
    4.9894   -2.3253    0.9926 H   0  0  0  0  0  0  0  0  0  0  0  0
    3.3976   -1.8773    0.3919 H   0  0  0  0  0  0  0  0  0  0  0  0
    4.7463    0.2100   -1.6462 H   0  0  0  0  0  0  0  0  0  0  0  0
    4.8079    1.5558   -0.5599 H   0  0  0  0  0  0  0  0  0  0  0  0
    2.3135   -0.2232   -0.7630 H   0  0  0  0  0  0  0  0  0  0  0  0
    2.5916    1.2175   -1.7413 H   0  0  0  0  0  0  0  0  0  0  0  0
    2.4578    1.3677    0.0114 H   0  0  0  0  0  0  0  0  0  0  0  0
    3.3466    0.1898    1.8236 H   0  0  0  0  0  0  0  0  0  0  0  0
    4.7585    1.2526    1.7992 H   0  0  0  0  0  0  0  0  0  0  0  0
    4.6754   -1.5776    2.9803 H   0  0  0  0  0  0  0  0  0  0  0  0
    4.6893   -0.0584    3.8576 H   0  0  0  0  0  0  0  0  0  0  0  0
    6.9672   -0.3873    2.0799 H   0  0  0  0  0  0  0  0  0  0  0  0
    8.1095    1.4206    2.7219 H   0  0  0  0  0  0  0  0  0  0  0  0
    9.5222    1.1516    1.6881 H   0  0  0  0  0  0  0  0  0  0  0  0
    9.6965    1.9510    3.2626 H   0  0  0  0  0  0  0  0  0  0  0  0
   11.5447    0.0102    3.3019 H   0  0  0  0  0  0  0  0  0  0  0  0
   11.8593   -3.2905    5.1448 H   0  0  0  0  0  0  0  0  0  0  0  0
   15.8932   -0.0868    3.8068 H   0  0  0  0  0  0  0  0  0  0  0  0
   17.9311   -3.9375    5.6668 H   0  0  0  0  0  0  0  0  0  0  0  0
   13.1257   -5.0927    4.7135 H   0  0  0  0  0  0  0  0  0  0  0  0
   12.1655   -7.1379    5.2431 H   0  0  0  0  0  0  0  0  0  0  0  0
   11.9370   -9.0056    6.8490 H   0  0  0  0  0  0  0  0  0  0  0  0
   14.7253   -5.0766    8.0378 H   0  0  0  0  0  0  0  0  0  0  0  0
    9.8522   -4.0496    5.4221 H   0  0  0  0  0  0  0  0  0  0  0  0
    8.3799   -3.9782    4.4591 H   0  0  0  0  0  0  0  0  0  0  0  0
    8.4609   -3.1609    6.0392 H   0  0  0  0  0  0  0  0  0  0  0  0
  1  2  1  0  0  0  0
  1 38  1  0  0  0  0
  1 39  1  0  0  0  0
  1 40  1  0  0  0  0
  2  3  1  0  0  0  0
  2 41  1  0  0  0  0
  2 42  1  0  0  0  0
  3  4  1  0  0  0  0
  3  6  1  0  0  0  0
  4  5  1  0  0  0  0
  4 43  1  0  0  0  0
  4 44  1  0  0  0  0
  5 45  1  0  0  0  0
  5 46  1  0  0  0  0
  5 47  1  0  0  0  0
  6  7  1  0  0  0  0
  6 48  1  0  0  0  0
  6 49  1  0  0  0  0
  7  8  1  0  0  0  0
  7 50  1  0  0  0  0
  7 51  1  0  0  0  0
  8  9  1  0  0  0  0
  8 52  1  0  0  0  0
  9 10  2  0  0  0  0
  9 11  1  0  0  0  0
 11 12  2  0  0  0  0
 11 36  1  0  0  0  0
 12 13  1  0  0  0  0
 12 14  1  0  0  0  0
 13 53  1  0  0  0  0
 13 54  1  0  0  0  0
 13 55  1  0  0  0  0
 14 15  1  0  0  0  0
 14 56  1  0  0  0  0
 15 16  1  0  0  0  0
 15 36  2  0  0  0  0
 16 17  2  0  0  0  0
 16 57  1  0  0  0  0
 17 18  1  0  0  0  0
 17 35  1  0  0  0  0
 18 19  2  0  0  0  0
 18 20  1  0  0  0  0
 20 21  1  0  0  0  0
 20 58  1  0  0  0  0
 21 22  1  0  0  0  0
 21 35  2  0  0  0  0
 22 23  2  0  0  0  0
 23 24  1  0  0  0  0
 23 59  1  0  0  0  0
 24 25  2  0  0  0  0
 25 26  1  0  0  0  0
 25 35  1  0  0  0  0
 26 27  1  0  0  0  0
 26 60  1  0  0  0  0
 27 28  1  0  0  0  0
 27 34  2  0  0  0  0
 28 29  2  0  0  0  0
 28 61  1  0  0  0  0
 29 30  1  0  0  0  0
 29 62  1  0  0  0  0
 30 31  1  0  0  0  0
 30 32  2  0  0  0  0
 32 33  1  0  0  0  0
 32 34  1  0  0  0  0
 34 63  1  0  0  0  0
 36 37  1  0  0  0  0
 37 64  1  0  0  0  0
 37 65  1  0  0  0  0
 37 66  1  0  0  0  0
M  END
$$$$
