CHEMBL98653
 OpenBabel04072215383D

 29 31  0  0  0  0  0  0  0  0999 V2000
    1.3833   -0.1698    0.0085 C   0  0  0  0  0  0  0  0  0  0  0  0
    0.4978   -1.1160    0.5161 C   0  0  0  0  0  0  0  0  0  0  0  0
   -0.8793   -0.8863    0.4537 C   0  0  0  0  0  0  0  0  0  0  0  0
   -1.3930    0.2915   -0.1162 C   0  0  0  0  0  0  0  0  0  0  0  0
   -2.8445    0.5113   -0.1481 C   0  0  0  0  0  0  0  0  0  0  0  0
   -3.8140    0.0688    0.7311 C   0  0  0  0  0  0  0  0  0  0  0  0
   -5.1154    0.3780    0.4075 N   0  0  0  0  0  0  0  0  0  0  0  0
   -5.1659    1.0560   -0.7150 C   0  0  0  0  0  0  0  0  0  0  0  0
   -6.2839    1.4596   -1.3660 N   0  0  0  0  0  0  0  0  0  0  0  0
   -7.5807    0.9472   -1.1744 C   0  0  0  0  0  0  0  0  0  0  0  0
   -8.5027    1.0132   -2.2255 C   0  0  0  0  0  0  0  0  0  0  0  0
   -9.7680    0.4405   -2.0942 C   0  0  0  0  0  0  0  0  0  0  0  0
  -10.0918   -0.1760   -0.8997 C   0  0  0  0  0  0  0  0  0  0  0  0
   -9.2549   -0.2441    0.1517 N   0  0  0  0  0  0  0  0  0  0  0  0
   -8.0271    0.3154   -0.0116 C   0  0  0  0  0  0  0  0  0  0  0  0
   -3.6187    1.3963   -1.4028 S   0  0  0  0  0  0  0  0  0  0  0  0
   -0.4837    1.2327   -0.6224 C   0  0  0  0  0  0  0  0  0  0  0  0
    0.8932    1.0021   -0.5601 C   0  0  0  0  0  0  0  0  0  0  0  0
    2.4547   -0.3463    0.0585 H   0  0  0  0  0  0  0  0  0  0  0  0
    0.8752   -2.0329    0.9617 H   0  0  0  0  0  0  0  0  0  0  0  0
   -1.5462   -1.6506    0.8480 H   0  0  0  0  0  0  0  0  0  0  0  0
   -3.6275   -0.5020    1.6324 H   0  0  0  0  0  0  0  0  0  0  0  0
   -6.1463    1.9394   -2.2457 H   0  0  0  0  0  0  0  0  0  0  0  0
   -8.2383    1.4853   -3.1669 H   0  0  0  0  0  0  0  0  0  0  0  0
  -10.4794    0.4642   -2.9115 H   0  0  0  0  0  0  0  0  0  0  0  0
  -11.0579   -0.6494   -0.7524 H   0  0  0  0  0  0  0  0  0  0  0  0
   -7.3969    0.2309    0.8694 H   0  0  0  0  0  0  0  0  0  0  0  0
   -0.8305    2.1646   -1.0614 H   0  0  0  0  0  0  0  0  0  0  0  0
    1.5834    1.7421   -0.9567 H   0  0  0  0  0  0  0  0  0  0  0  0
  1  2  1  0  0  0  0
  1 18  2  0  0  0  0
  1 19  1  0  0  0  0
  2  3  2  0  0  0  0
  2 20  1  0  0  0  0
  3  4  1  0  0  0  0
  3 21  1  0  0  0  0
  4  5  1  0  0  0  0
  4 17  2  0  0  0  0
  5  6  2  0  0  0  0
  5 16  1  0  0  0  0
  6  7  1  0  0  0  0
  6 22  1  0  0  0  0
  7  8  2  0  0  0  0
  8  9  1  0  0  0  0
  8 16  1  0  0  0  0
  9 10  1  0  0  0  0
  9 23  1  0  0  0  0
 10 11  1  0  0  0  0
 10 15  2  0  0  0  0
 11 12  2  0  0  0  0
 11 24  1  0  0  0  0
 12 13  1  0  0  0  0
 12 25  1  0  0  0  0
 13 14  2  0  0  0  0
 13 26  1  0  0  0  0
 14 15  1  0  0  0  0
 15 27  1  0  0  0  0
 17 18  1  0  0  0  0
 17 28  1  0  0  0  0
 18 29  1  0  0  0  0
M  END
$$$$
