CHEMBL1940866
 OpenBabel04072215363D

 33 35  0  0  0  0  0  0  0  0999 V2000
   -1.4891    2.6908   -0.0034 C   0  0  0  0  0  0  0  0  0  0  0  0
   -1.7319    1.2044   -0.0009 C   0  0  0  0  0  0  0  0  0  0  0  0
   -3.0449    0.7105   -0.0061 C   0  0  0  0  0  0  0  0  0  0  0  0
   -3.2797   -0.6594   -0.0050 C   0  0  0  0  0  0  0  0  0  0  0  0
   -2.2035   -1.5459   -0.0057 C   0  0  0  0  0  0  0  0  0  0  0  0
   -0.8837   -1.0621    0.0012 C   0  0  0  0  0  0  0  0  0  0  0  0
    0.2251   -1.9297    0.0019 C   0  0  0  0  0  0  0  0  0  0  0  0
    1.5345   -1.4305    0.0176 C   0  0  0  0  0  0  0  0  0  0  0  0
    2.6416   -2.4073    0.0229 C   0  0  0  0  0  0  0  0  0  0  0  0
    3.7986   -2.2318   -0.6341 C   0  0  0  0  0  0  0  0  0  0  0  0
    4.8777   -3.2676   -0.6563 C   0  0  0  0  0  0  0  0  0  0  0  0
    4.8776   -4.1457    0.2084 O   0  0  0  0  0  0  0  0  0  0  0  0
    5.8893   -3.1419   -1.6943 C   0  0  0  0  0  0  0  0  0  0  0  0
    7.4971   -3.6394   -1.3349 S   0  0  0  0  0  0  0  0  0  0  0  0
    8.0588   -3.2099   -2.8904 C   0  0  0  0  0  0  0  0  0  0  0  0
    7.0480   -2.7142   -3.6800 C   0  0  0  0  0  0  0  0  0  0  0  0
    5.7963   -2.6877   -2.9984 C   0  0  0  0  0  0  0  0  0  0  0  0
    4.3845   -2.1659   -3.8252 Cl  0  0  0  0  0  0  0  0  0  0  0  0
    1.6450   -0.0403    0.0634 C   0  0  0  0  0  0  0  0  0  0  0  0
    3.1370    0.8132    0.2113 Cl  0  0  0  0  0  0  0  0  0  0  0  0
    0.6042    0.8208    0.0424 N   0  0  0  0  0  0  0  0  0  0  0  0
   -0.6413    0.3283    0.0101 C   0  0  0  0  0  0  0  0  0  0  0  0
   -2.4281    3.2534   -0.0126 H   0  0  0  0  0  0  0  0  0  0  0  0
   -0.9207    2.9798   -0.8942 H   0  0  0  0  0  0  0  0  0  0  0  0
   -0.9331    2.9855    0.8928 H   0  0  0  0  0  0  0  0  0  0  0  0
   -3.8896    1.3965   -0.0080 H   0  0  0  0  0  0  0  0  0  0  0  0
   -4.2989   -1.0370   -0.0042 H   0  0  0  0  0  0  0  0  0  0  0  0
   -2.4034   -2.6144   -0.0066 H   0  0  0  0  0  0  0  0  0  0  0  0
    0.0571   -3.0059   -0.0147 H   0  0  0  0  0  0  0  0  0  0  0  0
    2.4582   -3.3418    0.5524 H   0  0  0  0  0  0  0  0  0  0  0  0
    4.0071   -1.3318   -1.1965 H   0  0  0  0  0  0  0  0  0  0  0  0
    9.0975   -3.3506   -3.1569 H   0  0  0  0  0  0  0  0  0  0  0  0
    7.1964   -2.4002   -4.7066 H   0  0  0  0  0  0  0  0  0  0  0  0
  1  2  1  0  0  0  0
  1 23  1  0  0  0  0
  1 24  1  0  0  0  0
  1 25  1  0  0  0  0
  2  3  1  0  0  0  0
  2 22  2  0  0  0  0
  3  4  2  0  0  0  0
  3 26  1  0  0  0  0
  4  5  1  0  0  0  0
  4 27  1  0  0  0  0
  5  6  2  0  0  0  0
  5 28  1  0  0  0  0
  6  7  1  0  0  0  0
  6 22  1  0  0  0  0
  7  8  2  0  0  0  0
  7 29  1  0  0  0  0
  8  9  1  0  0  0  0
  8 19  1  0  0  0  0
  9 10  2  0  0  0  0
  9 30  1  0  0  0  0
 10 11  1  0  0  0  0
 10 31  1  0  0  0  0
 11 12  2  0  0  0  0
 11 13  1  0  0  0  0
 13 14  1  0  0  0  0
 13 17  2  0  0  0  0
 14 15  1  0  0  0  0
 15 16  2  0  0  0  0
 15 32  1  0  0  0  0
 16 17  1  0  0  0  0
 16 33  1  0  0  0  0
 17 18  1  0  0  0  0
 19 20  1  0  0  0  0
 19 21  2  0  0  0  0
 21 22  1  0  0  0  0
M  END
$$$$
