CHEMBL1253194
 OpenBabel04072215363D

 52 55  0  0  0  0  0  0  0  0999 V2000
    3.6680   -0.9146   -1.1476 C   0  0  0  0  0  0  0  0  0  0  0  0
    3.4440   -0.5788    0.2412 N   0  0  0  0  0  0  0  0  0  0  0  0
    4.0440    0.4677    0.8982 C   0  0  0  0  0  0  0  0  0  0  0  0
    3.5804    0.4775    2.1955 C   0  0  0  0  0  0  0  0  0  0  0  0
    2.6681   -0.5926    2.3257 C   0  0  0  0  0  0  0  0  0  0  0  0
    1.9671   -0.9824    3.4112 N   0  0  0  0  0  0  0  0  0  0  0  0
    1.1781   -2.0387    3.1838 C   0  0  0  0  0  0  0  0  0  0  0  0
    1.0324   -2.7246    2.0396 N   0  0  0  0  0  0  0  0  0  0  0  0
    1.7820   -2.3515    0.9787 C   0  0  0  0  0  0  0  0  0  0  0  0
    1.7217   -3.0782   -0.2009 O   0  0  0  0  0  0  0  0  0  0  0  0
    1.5682   -4.4416   -0.0890 C   0  0  0  0  0  0  0  0  0  0  0  0
    2.1241   -5.1971    0.9470 C   0  0  0  0  0  0  0  0  0  0  0  0
    1.9124   -6.5736    1.0143 C   0  0  0  0  0  0  0  0  0  0  0  0
    1.1878   -7.2216    0.0190 C   0  0  0  0  0  0  0  0  0  0  0  0
    0.9524   -8.6072    0.0423 N   0  0  0  0  0  0  0  0  0  0  0  0
    1.2857   -9.5356    0.9938 C   0  0  0  0  0  0  0  0  0  0  0  0
    1.8824   -9.3177    2.0458 O   0  0  0  0  0  0  0  0  0  0  0  0
    0.8450  -10.8146    0.7614 N   0  0  0  0  0  0  0  0  0  0  0  0
    0.2097  -11.2781   -0.3682 C   0  0  0  0  0  0  0  0  0  0  0  0
   -0.4549  -12.5161   -0.4816 C   0  0  0  0  0  0  0  0  0  0  0  0
   -1.0021  -12.4970   -1.7463 C   0  0  0  0  0  0  0  0  0  0  0  0
   -1.9035  -13.4215   -2.5088 C   0  0  0  0  0  0  0  0  0  0  0  0
   -3.2631  -13.4911   -1.7904 C   0  0  0  0  0  0  0  0  0  0  0  0
   -2.1341  -12.9227   -3.9491 C   0  0  0  0  0  0  0  0  0  0  0  0
   -1.2648  -14.8179   -2.5649 C   0  0  0  0  0  0  0  0  0  0  0  0
   -0.6301  -11.3485   -2.3669 O   0  0  0  0  0  0  0  0  0  0  0  0
    0.1203  -10.5898   -1.5100 N   0  0  0  0  0  0  0  0  0  0  0  0
    0.6742   -6.4601   -1.0516 C   0  0  0  0  0  0  0  0  0  0  0  0
   -0.2330   -7.1972   -2.3302 Cl  0  0  0  0  0  0  0  0  0  0  0  0
    0.8649   -5.0779   -1.1079 C   0  0  0  0  0  0  0  0  0  0  0  0
    2.5982   -1.2408    1.0992 C   0  0  0  0  0  0  0  0  0  0  0  0
    4.3755   -0.2054   -1.5854 H   0  0  0  0  0  0  0  0  0  0  0  0
    2.7135   -0.8541   -1.6769 H   0  0  0  0  0  0  0  0  0  0  0  0
    4.0815   -1.9254   -1.1992 H   0  0  0  0  0  0  0  0  0  0  0  0
    4.7490    1.1180    0.3952 H   0  0  0  0  0  0  0  0  0  0  0  0
    3.8640    1.1745    2.9716 H   0  0  0  0  0  0  0  0  0  0  0  0
    0.5933   -2.3937    4.0268 H   0  0  0  0  0  0  0  0  0  0  0  0
    2.7060   -4.7302    1.7362 H   0  0  0  0  0  0  0  0  0  0  0  0
    2.3275   -7.1084    1.8619 H   0  0  0  0  0  0  0  0  0  0  0  0
    0.4477   -8.9676   -0.7666 H   0  0  0  0  0  0  0  0  0  0  0  0
    0.9758  -11.4479    1.5362 H   0  0  0  0  0  0  0  0  0  0  0  0
   -0.5796  -13.2826    0.2671 H   0  0  0  0  0  0  0  0  0  0  0  0
   -3.7490  -12.5119   -1.7639 H   0  0  0  0  0  0  0  0  0  0  0  0
   -3.1528  -13.8281   -0.7523 H   0  0  0  0  0  0  0  0  0  0  0  0
   -3.9409  -14.1897   -2.2954 H   0  0  0  0  0  0  0  0  0  0  0  0
   -2.6152  -11.9365   -3.9599 H   0  0  0  0  0  0  0  0  0  0  0  0
   -2.7779  -13.6093   -4.5090 H   0  0  0  0  0  0  0  0  0  0  0  0
   -1.1884  -12.8306   -4.4969 H   0  0  0  0  0  0  0  0  0  0  0  0
   -1.0938  -15.2225   -1.5603 H   0  0  0  0  0  0  0  0  0  0  0  0
   -0.2929  -14.7856   -3.0725 H   0  0  0  0  0  0  0  0  0  0  0  0
   -1.9039  -15.5269   -3.1059 H   0  0  0  0  0  0  0  0  0  0  0  0
    0.4563   -4.4987   -1.9316 H   0  0  0  0  0  0  0  0  0  0  0  0
  1  2  1  0  0  0  0
  1 32  1  0  0  0  0
  1 33  1  0  0  0  0
  1 34  1  0  0  0  0
  2  3  1  0  0  0  0
  2 31  1  0  0  0  0
  3  4  2  0  0  0  0
  3 35  1  0  0  0  0
  4  5  1  0  0  0  0
  4 36  1  0  0  0  0
  5  6  1  0  0  0  0
  5 31  2  0  0  0  0
  6  7  2  0  0  0  0
  7  8  1  0  0  0  0
  7 37  1  0  0  0  0
  8  9  2  0  0  0  0
  9 10  1  0  0  0  0
  9 31  1  0  0  0  0
 10 11  1  0  0  0  0
 11 12  1  0  0  0  0
 11 30  2  0  0  0  0
 12 13  2  0  0  0  0
 12 38  1  0  0  0  0
 13 14  1  0  0  0  0
 13 39  1  0  0  0  0
 14 15  1  0  0  0  0
 14 28  2  0  0  0  0
 15 16  1  0  0  0  0
 15 40  1  0  0  0  0
 16 17  2  0  0  0  0
 16 18  1  0  0  0  0
 18 19  1  0  0  0  0
 18 41  1  0  0  0  0
 19 20  1  0  0  0  0
 19 27  2  0  0  0  0
 20 21  2  0  0  0  0
 20 42  1  0  0  0  0
 21 22  1  0  0  0  0
 21 26  1  0  0  0  0
 22 23  1  0  0  0  0
 22 24  1  0  0  0  0
 22 25  1  0  0  0  0
 23 43  1  0  0  0  0
 23 44  1  0  0  0  0
 23 45  1  0  0  0  0
 24 46  1  0  0  0  0
 24 47  1  0  0  0  0
 24 48  1  0  0  0  0
 25 49  1  0  0  0  0
 25 50  1  0  0  0  0
 25 51  1  0  0  0  0
 26 27  1  0  0  0  0
 28 29  1  0  0  0  0
 28 30  1  0  0  0  0
 30 52  1  0  0  0  0
M  END
$$$$
