CHEMBL3660298
 OpenBabel04072215373D

 59 62  0  0  0  0  0  0  0  0999 V2000
    2.7985    0.7993   -2.4710 C   0  0  0  0  0  0  0  0  0  0  0  0
    1.3992    0.5253   -2.0008 C   0  0  0  0  0  0  0  0  0  0  0  0
    0.8854   -0.7733   -2.0720 C   0  0  0  0  0  0  0  0  0  0  0  0
   -0.3953   -1.0381   -1.6053 C   0  0  0  0  0  0  0  0  0  0  0  0
   -1.1764   -0.0094   -1.0848 C   0  0  0  0  0  0  0  0  0  0  0  0
   -2.3368   -0.3811   -0.5308 F   0  0  0  0  0  0  0  0  0  0  0  0
   -0.7207    1.3186   -1.0596 C   0  0  0  0  0  0  0  0  0  0  0  0
   -1.4927    2.4344   -0.6315 N   0  0  0  0  0  0  0  0  0  0  0  0
   -2.8759    2.4579   -0.5621 C   0  0  0  0  0  0  0  0  0  0  0  0
   -3.6110    1.5406   -0.8844 O   0  0  0  0  0  0  0  0  0  0  0  0
   -3.3755    3.6942   -0.1509 N   0  0  0  0  0  0  0  0  0  0  0  0
   -4.7784    3.8138    0.0354 C   0  0  0  0  0  0  0  0  0  0  0  0
   -5.4604    2.8767    0.8176 C   0  0  0  0  0  0  0  0  0  0  0  0
   -6.8530    2.8857    0.8794 C   0  0  0  0  0  0  0  0  0  0  0  0
   -7.5799    3.8799    0.2194 C   0  0  0  0  0  0  0  0  0  0  0  0
   -8.9615    3.9597    0.2498 O   0  0  0  0  0  0  0  0  0  0  0  0
   -9.6214    3.6141    1.4162 C   0  0  0  0  0  0  0  0  0  0  0  0
   -9.0743    3.8356    2.6790 C   0  0  0  0  0  0  0  0  0  0  0  0
   -9.7635    3.3721    3.7756 C   0  0  0  0  0  0  0  0  0  0  0  0
  -10.9762    2.8006    3.6976 N   0  0  0  0  0  0  0  0  0  0  0  0
  -11.5529    2.6777    2.4721 C   0  0  0  0  0  0  0  0  0  0  0  0
  -12.9111    2.1493    2.5325 C   0  0  0  0  0  0  0  0  0  0  0  0
  -13.7911    1.9609    1.4856 C   0  0  0  0  0  0  0  0  0  0  0  0
  -14.9699    1.4883    2.0046 N   0  0  0  0  0  0  0  0  0  0  0  0
  -14.9164    1.4183    3.3855 C   0  0  0  0  0  0  0  0  0  0  0  0
  -16.0731    0.9778    4.1481 C   0  0  0  0  0  0  0  0  0  0  0  0
  -16.9193    0.2844    3.5785 O   0  0  0  0  0  0  0  0  0  0  0  0
  -16.2562    1.3574    5.4837 N   0  0  0  0  0  0  0  0  0  0  0  0
  -15.4791    2.3303    6.2385 C   0  0  0  0  0  0  0  0  0  0  0  0
  -17.4250    0.8474    6.1870 C   0  0  0  0  0  0  0  0  0  0  0  0
  -13.6139    1.7445    3.7130 C   0  0  0  0  0  0  0  0  0  0  0  0
  -10.8997    3.0593    1.3032 C   0  0  0  0  0  0  0  0  0  0  0  0
   -6.8990    4.8264   -0.5533 C   0  0  0  0  0  0  0  0  0  0  0  0
   -5.4968    4.8095   -0.6289 C   0  0  0  0  0  0  0  0  0  0  0  0
    0.5930    1.5649   -1.4930 C   0  0  0  0  0  0  0  0  0  0  0  0
    3.2865   -0.1174   -2.8215 H   0  0  0  0  0  0  0  0  0  0  0  0
    3.4009    1.2013   -1.6507 H   0  0  0  0  0  0  0  0  0  0  0  0
    2.7885    1.5101   -3.3025 H   0  0  0  0  0  0  0  0  0  0  0  0
    1.4820   -1.5905   -2.4707 H   0  0  0  0  0  0  0  0  0  0  0  0
   -0.7981   -2.0462   -1.6232 H   0  0  0  0  0  0  0  0  0  0  0  0
   -1.0137    3.3135   -0.5110 H   0  0  0  0  0  0  0  0  0  0  0  0
   -2.9170    4.4866   -0.5758 H   0  0  0  0  0  0  0  0  0  0  0  0
   -4.9137    2.1050    1.3556 H   0  0  0  0  0  0  0  0  0  0  0  0
   -7.3496    2.1031    1.4461 H   0  0  0  0  0  0  0  0  0  0  0  0
   -8.1144    4.3182    2.8176 H   0  0  0  0  0  0  0  0  0  0  0  0
   -9.3466    3.4442    4.7745 H   0  0  0  0  0  0  0  0  0  0  0  0
  -13.6930    2.1117    0.4189 H   0  0  0  0  0  0  0  0  0  0  0  0
  -15.7940    1.2343    1.4735 H   0  0  0  0  0  0  0  0  0  0  0  0
  -14.7008    2.8220    5.6648 H   0  0  0  0  0  0  0  0  0  0  0  0
  -15.0397    1.8268    7.1057 H   0  0  0  0  0  0  0  0  0  0  0  0
  -16.1556    3.1149    6.5941 H   0  0  0  0  0  0  0  0  0  0  0  0
  -18.0043    0.1360    5.5940 H   0  0  0  0  0  0  0  0  0  0  0  0
  -18.0739    1.6907    6.4458 H   0  0  0  0  0  0  0  0  0  0  0  0
  -17.0958    0.3511    7.1049 H   0  0  0  0  0  0  0  0  0  0  0  0
  -13.1766    1.7257    4.7026 H   0  0  0  0  0  0  0  0  0  0  0  0
  -11.3580    2.9351    0.3285 H   0  0  0  0  0  0  0  0  0  0  0  0
   -7.4602    5.5647   -1.1204 H   0  0  0  0  0  0  0  0  0  0  0  0
   -4.9939    5.5261   -1.2711 H   0  0  0  0  0  0  0  0  0  0  0  0
    0.9987    2.5737   -1.4655 H   0  0  0  0  0  0  0  0  0  0  0  0
  1  2  1  0  0  0  0
  1 36  1  0  0  0  0
  1 37  1  0  0  0  0
  1 38  1  0  0  0  0
  2  3  1  0  0  0  0
  2 35  2  0  0  0  0
  3  4  2  0  0  0  0
  3 39  1  0  0  0  0
  4  5  1  0  0  0  0
  4 40  1  0  0  0  0
  5  6  1  0  0  0  0
  5  7  2  0  0  0  0
  7  8  1  0  0  0  0
  7 35  1  0  0  0  0
  8  9  1  0  0  0  0
  8 41  1  0  0  0  0
  9 10  2  0  0  0  0
  9 11  1  0  0  0  0
 11 12  1  0  0  0  0
 11 42  1  0  0  0  0
 12 13  1  0  0  0  0
 12 34  2  0  0  0  0
 13 14  2  0  0  0  0
 13 43  1  0  0  0  0
 14 15  1  0  0  0  0
 14 44  1  0  0  0  0
 15 16  1  0  0  0  0
 15 33  2  0  0  0  0
 16 17  1  0  0  0  0
 17 18  1  0  0  0  0
 17 32  2  0  0  0  0
 18 19  2  0  0  0  0
 18 45  1  0  0  0  0
 19 20  1  0  0  0  0
 19 46  1  0  0  0  0
 20 21  2  0  0  0  0
 21 22  1  0  0  0  0
 21 32  1  0  0  0  0
 22 23  2  0  0  0  0
 22 31  1  0  0  0  0
 23 24  1  0  0  0  0
 23 47  1  0  0  0  0
 24 25  1  0  0  0  0
 24 48  1  0  0  0  0
 25 26  1  0  0  0  0
 25 31  2  0  0  0  0
 26 27  2  0  0  0  0
 26 28  1  0  0  0  0
 28 29  1  0  0  0  0
 28 30  1  0  0  0  0
 29 49  1  0  0  0  0
 29 50  1  0  0  0  0
 29 51  1  0  0  0  0
 30 52  1  0  0  0  0
 30 53  1  0  0  0  0
 30 54  1  0  0  0  0
 31 55  1  0  0  0  0
 32 56  1  0  0  0  0
 33 34  1  0  0  0  0
 33 57  1  0  0  0  0
 34 58  1  0  0  0  0
 35 59  1  0  0  0  0
M  END
$$$$
