CHEMBL402182
 OpenBabel04072215373D

 59 65  0  0  0  0  0  0  0  0999 V2000
    1.3996   -0.5666   -0.2007 C   0  0  0  0  0  0  0  0  0  0  0  0
    2.8745   -0.7528    0.1778 C   0  0  0  0  0  0  0  0  0  0  0  0
    3.0946   -0.5960    1.6779 C   0  0  0  0  0  0  0  0  0  0  0  0
    3.4643   -1.9552   -0.4300 N   0  0  0  0  0  0  0  0  0  0  0  0
    4.0983   -1.8977   -1.7058 C   0  0  0  0  0  0  0  0  0  0  0  0
    4.4679   -0.8118   -2.5313 C   0  0  0  0  0  0  0  0  0  0  0  0
    4.9688   -1.0755   -3.8226 C   0  0  0  0  0  0  0  0  0  0  0  0
    5.1488   -2.3860   -4.2701 C   0  0  0  0  0  0  0  0  0  0  0  0
    5.5535   -2.7609   -5.6553 C   0  0  0  0  0  0  0  0  0  0  0  0
    5.0609   -3.7998   -6.1009 O   0  0  0  0  0  0  0  0  0  0  0  0
    6.4930   -1.9465   -6.4017 C   0  0  0  0  0  0  0  0  0  0  0  0
    7.4780   -1.0809   -5.9679 C   0  0  0  0  0  0  0  0  0  0  0  0
    8.1998   -0.4979   -7.0504 C   0  0  0  0  0  0  0  0  0  0  0  0
    7.7555   -0.9465   -8.2729 C   0  0  0  0  0  0  0  0  0  0  0  0
    6.4851   -2.0713   -8.1154 S   0  0  0  0  0  0  0  0  0  0  0  0
    4.8045   -3.4494   -3.4388 C   0  0  0  0  0  0  0  0  0  0  0  0
    4.2334   -3.2061   -2.1822 C   0  0  0  0  0  0  0  0  0  0  0  0
    3.5834   -3.9470   -1.2266 C   0  0  0  0  0  0  0  0  0  0  0  0
    3.1072   -5.2455   -1.4953 C   0  0  0  0  0  0  0  0  0  0  0  0
    2.1026   -5.7118   -0.6307 C   0  0  0  0  0  0  0  0  0  0  0  0
    1.6519   -5.0060    0.5040 C   0  0  0  0  0  0  0  0  0  0  0  0
    2.6000   -4.0198    0.9613 C   0  0  0  0  0  0  0  0  0  0  0  0
    3.2296   -3.2941   -0.0793 C   0  0  0  0  0  0  0  0  0  0  0  0
    3.3843   -4.5217    2.2541 C   0  0  0  0  0  0  0  0  0  0  0  0
    3.1507   -6.0509    2.6147 C   0  0  0  0  0  0  0  0  0  0  0  0
    1.6790   -6.2643    2.6081 C   0  0  0  0  0  0  0  0  0  0  0  0
    0.9009   -6.6056    3.6344 N   0  0  0  0  0  0  0  0  0  0  0  0
   -0.3269   -6.2027    3.2178 N   0  0  0  0  0  0  0  0  0  0  0  0
   -1.4384   -6.2327    4.1374 C   0  0  0  0  0  0  0  0  0  0  0  0
   -0.3139   -5.5611    2.0027 C   0  0  0  0  0  0  0  0  0  0  0  0
    0.9585   -5.7351    1.5265 C   0  0  0  0  0  0  0  0  0  0  0  0
    1.7670   -7.0529   -1.0470 C   0  0  0  0  0  0  0  0  0  0  0  0
    0.9994   -7.9052   -0.6171 O   0  0  0  0  0  0  0  0  0  0  0  0
    2.5969   -7.2968   -2.1349 N   0  0  0  0  0  0  0  0  0  0  0  0
    3.4414   -6.2018   -2.5460 C   0  0  0  0  0  0  0  0  0  0  0  0
    1.0177    0.3858    0.1881 H   0  0  0  0  0  0  0  0  0  0  0  0
    0.7691   -1.3681    0.1955 H   0  0  0  0  0  0  0  0  0  0  0  0
    1.2711   -0.5436   -1.2893 H   0  0  0  0  0  0  0  0  0  0  0  0
    3.4080    0.0954   -0.2668 H   0  0  0  0  0  0  0  0  0  0  0  0
    2.5705   -1.3588    2.2578 H   0  0  0  0  0  0  0  0  0  0  0  0
    2.7246    0.3841    2.0080 H   0  0  0  0  0  0  0  0  0  0  0  0
    4.1610   -0.6391    1.9192 H   0  0  0  0  0  0  0  0  0  0  0  0
    4.3116    0.2177   -2.2221 H   0  0  0  0  0  0  0  0  0  0  0  0
    5.1669   -0.2317   -4.4786 H   0  0  0  0  0  0  0  0  0  0  0  0
    7.6952   -0.8823   -4.9251 H   0  0  0  0  0  0  0  0  0  0  0  0
    9.0112    0.2100   -6.9379 H   0  0  0  0  0  0  0  0  0  0  0  0
    8.1242   -0.6816   -9.2537 H   0  0  0  0  0  0  0  0  0  0  0  0
    4.9285   -4.4625   -3.8019 H   0  0  0  0  0  0  0  0  0  0  0  0
    3.0552   -3.9148    3.1043 H   0  0  0  0  0  0  0  0  0  0  0  0
    4.4597   -4.3719    2.1061 H   0  0  0  0  0  0  0  0  0  0  0  0
    3.6064   -6.3326    3.5674 H   0  0  0  0  0  0  0  0  0  0  0  0
    3.6015   -6.6894    1.8379 H   0  0  0  0  0  0  0  0  0  0  0  0
   -1.1838   -6.8575    4.9968 H   0  0  0  0  0  0  0  0  0  0  0  0
   -2.3085   -6.6415    3.6191 H   0  0  0  0  0  0  0  0  0  0  0  0
   -1.6331   -5.2073    4.4638 H   0  0  0  0  0  0  0  0  0  0  0  0
   -1.1655   -5.0027    1.6401 H   0  0  0  0  0  0  0  0  0  0  0  0
    2.5957   -8.2064   -2.5680 H   0  0  0  0  0  0  0  0  0  0  0  0
    3.1251   -5.8686   -3.5362 H   0  0  0  0  0  0  0  0  0  0  0  0
    4.4877   -6.5158   -2.5201 H   0  0  0  0  0  0  0  0  0  0  0  0
  1  2  1  0  0  0  0
  1 36  1  0  0  0  0
  1 37  1  0  0  0  0
  1 38  1  0  0  0  0
  2  3  1  0  0  0  0
  2  4  1  0  0  0  0
  2 39  1  0  0  0  0
  3 40  1  0  0  0  0
  3 41  1  0  0  0  0
  3 42  1  0  0  0  0
  4  5  1  0  0  0  0
  4 23  1  0  0  0  0
  5  6  1  0  0  0  0
  5 17  2  0  0  0  0
  6  7  2  0  0  0  0
  6 43  1  0  0  0  0
  7  8  1  0  0  0  0
  7 44  1  0  0  0  0
  8  9  1  0  0  0  0
  8 16  2  0  0  0  0
  9 10  2  0  0  0  0
  9 11  1  0  0  0  0
 11 12  2  0  0  0  0
 11 15  1  0  0  0  0
 12 13  1  0  0  0  0
 12 45  1  0  0  0  0
 13 14  2  0  0  0  0
 13 46  1  0  0  0  0
 14 15  1  0  0  0  0
 14 47  1  0  0  0  0
 16 17  1  0  0  0  0
 16 48  1  0  0  0  0
 17 18  1  0  0  0  0
 18 19  1  0  0  0  0
 18 23  2  0  0  0  0
 19 20  2  0  0  0  0
 19 35  1  0  0  0  0
 20 21  1  0  0  0  0
 20 32  1  0  0  0  0
 21 22  2  0  0  0  0
 21 31  1  0  0  0  0
 22 23  1  0  0  0  0
 22 24  1  0  0  0  0
 24 25  1  0  0  0  0
 24 49  1  0  0  0  0
 24 50  1  0  0  0  0
 25 26  1  0  0  0  0
 25 51  1  0  0  0  0
 25 52  1  0  0  0  0
 26 27  2  0  0  0  0
 26 31  1  0  0  0  0
 27 28  1  0  0  0  0
 28 29  1  0  0  0  0
 28 30  1  0  0  0  0
 29 53  1  0  0  0  0
 29 54  1  0  0  0  0
 29 55  1  0  0  0  0
 30 31  2  0  0  0  0
 30 56  1  0  0  0  0
 32 33  2  0  0  0  0
 32 34  1  0  0  0  0
 34 35  1  0  0  0  0
 34 57  1  0  0  0  0
 35 58  1  0  0  0  0
 35 59  1  0  0  0  0
M  END
$$$$
