CHEMBL1271560
 OpenBabel04072215363D

 33 35  0  0  0  0  0  0  0  0999 V2000
    0.9545    0.1571   -0.3909 O   0  0  0  0  0  0  0  0  0  0  0  0
    2.1372    0.0025   -0.0984 C   0  0  0  0  0  0  0  0  0  0  0  0
    2.7321   -1.1721    0.3167 N   0  0  0  0  0  0  0  0  0  0  0  0
    2.0748   -2.4266    0.4676 C   0  0  0  0  0  0  0  0  0  0  0  0
    0.8260   -2.6881   -0.1129 C   0  0  0  0  0  0  0  0  0  0  0  0
    0.1811   -3.9011    0.1035 C   0  0  0  0  0  0  0  0  0  0  0  0
    0.7828   -4.8659    0.8996 C   0  0  0  0  0  0  0  0  0  0  0  0
    2.0448   -4.6296    1.4644 C   0  0  0  0  0  0  0  0  0  0  0  0
    2.6543   -5.5971    2.2718 C   0  0  0  0  0  0  0  0  0  0  0  0
    3.9028   -5.3501    2.8237 C   0  0  0  0  0  0  0  0  0  0  0  0
    4.5039   -4.1375    2.5449 C   0  0  0  0  0  0  0  0  0  0  0  0
    3.9455   -3.1700    1.7789 N   0  0  0  0  0  0  0  0  0  0  0  0
    2.7223   -3.4065    1.2419 C   0  0  0  0  0  0  0  0  0  0  0  0
    2.9975    1.2106   -0.1373 C   0  0  0  0  0  0  0  0  0  0  0  0
    2.4107    2.4388    0.2129 C   0  0  0  0  0  0  0  0  0  0  0  0
    3.1350    3.6265    0.1229 C   0  0  0  0  0  0  0  0  0  0  0  0
    4.4522    3.5988   -0.3297 C   0  0  0  0  0  0  0  0  0  0  0  0
    5.0367    2.3735   -0.6877 C   0  0  0  0  0  0  0  0  0  0  0  0
    6.4178    2.3563   -1.1865 N   0  3  0  0  0  0  0  0  0  0  0  0
    7.0195    3.4372   -1.2573 O   0  0  0  0  0  0  0  0  0  0  0  0
    6.9003    1.2603   -1.5028 O   0  5  0  0  0  0  0  0  0  0  0  0
    4.3177    1.1707   -0.5934 C   0  0  0  0  0  0  0  0  0  0  0  0
    3.6565   -1.1498    0.7420 H   0  0  0  0  0  0  0  0  0  0  0  0
    0.3315   -1.9604   -0.7486 H   0  0  0  0  0  0  0  0  0  0  0  0
   -0.7933   -4.0821   -0.3429 H   0  0  0  0  0  0  0  0  0  0  0  0
    0.2606   -5.8036    1.0755 H   0  0  0  0  0  0  0  0  0  0  0  0
    2.1570   -6.5421    2.4773 H   0  0  0  0  0  0  0  0  0  0  0  0
    4.3900   -6.0849    3.4548 H   0  0  0  0  0  0  0  0  0  0  0  0
    5.4847   -3.9014    2.9490 H   0  0  0  0  0  0  0  0  0  0  0  0
    1.3728    2.4693    0.5441 H   0  0  0  0  0  0  0  0  0  0  0  0
    2.6646    4.5705    0.3906 H   0  0  0  0  0  0  0  0  0  0  0  0
    5.0015    4.5352   -0.4104 H   0  0  0  0  0  0  0  0  0  0  0  0
    4.7590    0.2292   -0.9104 H   0  0  0  0  0  0  0  0  0  0  0  0
  1  2  2  0  0  0  0
  2  3  1  0  0  0  0
  2 14  1  0  0  0  0
  3  4  1  0  0  0  0
  3 23  1  0  0  0  0
  4  5  1  0  0  0  0
  4 13  2  0  0  0  0
  5  6  2  0  0  0  0
  5 24  1  0  0  0  0
  6  7  1  0  0  0  0
  6 25  1  0  0  0  0
  7  8  2  0  0  0  0
  7 26  1  0  0  0  0
  8  9  1  0  0  0  0
  8 13  1  0  0  0  0
  9 10  2  0  0  0  0
  9 27  1  0  0  0  0
 10 11  1  0  0  0  0
 10 28  1  0  0  0  0
 11 12  2  0  0  0  0
 11 29  1  0  0  0  0
 12 13  1  0  0  0  0
 14 15  1  0  0  0  0
 14 22  2  0  0  0  0
 15 16  2  0  0  0  0
 15 30  1  0  0  0  0
 16 17  1  0  0  0  0
 16 31  1  0  0  0  0
 17 18  2  0  0  0  0
 17 32  1  0  0  0  0
 18 19  1  0  0  0  0
 18 22  1  0  0  0  0
 19 20  2  0  0  0  0
 19 21  1  0  0  0  0
 22 33  1  0  0  0  0
M  CHG  2  19   1  21  -1
M  END
$$$$
