CHEMBL445327
 OpenBabel04072215383D

 41 44  0  0  0  0  0  0  0  0999 V2000
   -6.5533   -3.4618   -1.5651 C   0  0  0  0  0  0  0  0  0  0  0  0
   -5.3994   -2.5247   -1.3740 C   0  0  0  0  0  0  0  0  0  0  0  0
   -4.2368   -2.9491   -0.7392 C   0  0  0  0  0  0  0  0  0  0  0  0
   -3.1655   -2.0636   -0.6069 C   0  0  0  0  0  0  0  0  0  0  0  0
   -1.9625   -2.4234    0.0213 N   0  0  0  0  0  0  0  0  0  0  0  0
   -1.3260   -3.6659   -0.0345 C   0  0  0  0  0  0  0  0  0  0  0  0
   -1.5346   -4.4862   -1.0756 N   0  0  0  0  0  0  0  0  0  0  0  0
   -0.8582   -5.6463   -1.0970 C   0  0  0  0  0  0  0  0  0  0  0  0
    0.0177   -6.0312   -0.1138 C   0  0  0  0  0  0  0  0  0  0  0  0
    0.1250   -5.1594    0.9466 C   0  0  0  0  0  0  0  0  0  0  0  0
    0.8828   -5.5446    2.0919 N   0  0  0  0  0  0  0  0  0  0  0  0
    2.0111   -6.3375    2.0799 C   0  0  0  0  0  0  0  0  0  0  0  0
    2.4955   -6.3186    3.3612 C   0  0  0  0  0  0  0  0  0  0  0  0
    1.6571   -5.6198    4.1809 N   0  0  0  0  0  0  0  0  0  0  0  0
    0.6435   -5.2100    3.4285 C   0  0  0  0  0  0  0  0  0  0  0  0
   -0.5713   -4.5738    3.9757 C   0  0  0  0  0  0  0  0  0  0  0  0
   -0.4743   -3.7647    5.1160 C   0  0  0  0  0  0  0  0  0  0  0  0
   -1.6022   -3.1209    5.6361 C   0  0  0  0  0  0  0  0  0  0  0  0
   -2.8424   -3.2711    5.0188 C   0  0  0  0  0  0  0  0  0  0  0  0
   -2.9665   -4.1053    3.9140 C   0  0  0  0  0  0  0  0  0  0  0  0
   -1.8469   -4.7806    3.4256 C   0  0  0  0  0  0  0  0  0  0  0  0
   -0.5197   -3.9709    0.9843 N   0  0  0  0  0  0  0  0  0  0  0  0
   -3.3258   -0.7606   -1.0710 C   0  0  0  0  0  0  0  0  0  0  0  0
   -4.5083   -0.4233   -1.7053 C   0  0  0  0  0  0  0  0  0  0  0  0
   -5.5452   -1.2721   -1.8645 N   0  0  0  0  0  0  0  0  0  0  0  0
   -6.3774   -4.4269   -1.0794 H   0  0  0  0  0  0  0  0  0  0  0  0
   -6.7127   -3.6401   -2.6329 H   0  0  0  0  0  0  0  0  0  0  0  0
   -7.4617   -3.0272   -1.1368 H   0  0  0  0  0  0  0  0  0  0  0  0
   -4.1640   -3.9627   -0.3587 H   0  0  0  0  0  0  0  0  0  0  0  0
   -1.8337   -2.0370    0.9470 H   0  0  0  0  0  0  0  0  0  0  0  0
   -1.0711   -6.2868   -1.9471 H   0  0  0  0  0  0  0  0  0  0  0  0
    0.5003   -6.9971   -0.1551 H   0  0  0  0  0  0  0  0  0  0  0  0
    2.4208   -6.7618    1.1735 H   0  0  0  0  0  0  0  0  0  0  0  0
    3.4053   -6.7700    3.7355 H   0  0  0  0  0  0  0  0  0  0  0  0
    0.4886   -3.6326    5.6067 H   0  0  0  0  0  0  0  0  0  0  0  0
   -1.5090   -2.4976    6.5213 H   0  0  0  0  0  0  0  0  0  0  0  0
   -3.7138   -2.7508    5.4064 H   0  0  0  0  0  0  0  0  0  0  0  0
   -3.9303   -4.2358    3.4290 H   0  0  0  0  0  0  0  0  0  0  0  0
   -1.9915   -5.4556    2.5871 H   0  0  0  0  0  0  0  0  0  0  0  0
   -2.5266   -0.0336   -0.9829 H   0  0  0  0  0  0  0  0  0  0  0  0
   -4.6534    0.5685   -2.1230 H   0  0  0  0  0  0  0  0  0  0  0  0
  1  2  1  0  0  0  0
  1 26  1  0  0  0  0
  1 27  1  0  0  0  0
  1 28  1  0  0  0  0
  2  3  1  0  0  0  0
  2 25  2  0  0  0  0
  3  4  2  0  0  0  0
  3 29  1  0  0  0  0
  4  5  1  0  0  0  0
  4 23  1  0  0  0  0
  5  6  1  0  0  0  0
  5 30  1  0  0  0  0
  6  7  1  0  0  0  0
  6 22  2  0  0  0  0
  7  8  2  0  0  0  0
  8  9  1  0  0  0  0
  8 31  1  0  0  0  0
  9 10  2  0  0  0  0
  9 32  1  0  0  0  0
 10 11  1  0  0  0  0
 10 22  1  0  0  0  0
 11 12  1  0  0  0  0
 11 15  1  0  0  0  0
 12 13  2  0  0  0  0
 12 33  1  0  0  0  0
 13 14  1  0  0  0  0
 13 34  1  0  0  0  0
 14 15  2  0  0  0  0
 15 16  1  0  0  0  0
 16 17  1  0  0  0  0
 16 21  2  0  0  0  0
 17 18  2  0  0  0  0
 17 35  1  0  0  0  0
 18 19  1  0  0  0  0
 18 36  1  0  0  0  0
 19 20  2  0  0  0  0
 19 37  1  0  0  0  0
 20 21  1  0  0  0  0
 20 38  1  0  0  0  0
 21 39  1  0  0  0  0
 23 24  2  0  0  0  0
 23 40  1  0  0  0  0
 24 25  1  0  0  0  0
 24 41  1  0  0  0  0
M  END
$$$$
