CHEMBL3972517
 OpenBabel04072215373D

 74 78  0  0  0  0  0  0  0  0999 V2000
    0.8874   -3.3397    3.0420 C   0  0  0  0  0  0  0  0  0  0  0  0
    2.2642   -3.1701    3.3201 O   0  0  0  0  0  0  0  0  0  0  0  0
    3.0001   -2.5255    2.3718 C   0  0  0  0  0  0  0  0  0  0  0  0
    2.5818   -2.0267    1.1894 C   0  0  0  0  0  0  0  0  0  0  0  0
    3.4339   -1.2228    0.4291 C   0  0  0  0  0  0  0  0  0  0  0  0
    3.0399   -0.6162   -0.7318 O   0  0  0  0  0  0  0  0  0  0  0  0
    1.6874   -0.8794   -1.0933 C   0  0  0  0  0  0  0  0  0  0  0  0
    4.7377   -0.9370    0.8594 C   0  0  0  0  0  0  0  0  0  0  0  0
    5.2123   -1.3934    2.0817 C   0  0  0  0  0  0  0  0  0  0  0  0
    6.5214   -0.9947    2.5605 N   0  0  0  0  0  0  0  0  0  0  0  0
    7.0663    0.3482    2.1513 C   0  0  0  0  0  0  0  0  0  0  0  0
    6.2181    1.5128    2.5797 C   0  0  0  0  0  0  0  0  0  0  0  0
    5.9440    1.7544    4.0168 C   0  0  0  0  0  0  0  0  0  0  0  0
    5.0927    2.9493    4.1771 N   0  0  0  0  0  0  0  0  0  0  0  0
    4.8694    3.1159    5.6125 C   0  0  0  0  0  0  0  0  0  0  0  0
    3.9356    4.2850    5.8649 C   0  0  0  0  0  0  0  0  0  0  0  0
    4.5291    5.5817    5.3147 C   0  0  0  0  0  0  0  0  0  0  0  0
    5.7275    5.9433    6.0184 O   0  0  0  0  0  0  0  0  0  0  0  0
    5.4765    6.1399    7.4036 C   0  0  0  0  0  0  0  0  0  0  0  0
    4.8619    5.4019    3.8425 C   0  0  0  0  0  0  0  0  0  0  0  0
    5.7327    4.1714    3.6447 C   0  0  0  0  0  0  0  0  0  0  0  0
    7.5915   -1.9473    2.8686 C   0  0  0  0  0  0  0  0  0  0  0  0
    7.5621   -3.1027    2.1274 C   0  0  0  0  0  0  0  0  0  0  0  0
    8.5028   -4.0271    2.3776 C   0  0  0  0  0  0  0  0  0  0  0  0
    9.4297   -3.9345    3.4191 C   0  0  0  0  0  0  0  0  0  0  0  0
    9.3992   -5.1295    3.8221 N   0  0  0  0  0  0  0  0  0  0  0  0
   10.3484   -5.7851    3.2575 C   0  0  0  0  0  0  0  0  0  0  0  0
   11.4654   -5.7236    3.8918 C   0  0  0  0  0  0  0  0  0  0  0  0
   11.7060   -7.5463    3.7097 C   0  0  0  0  0  0  0  0  0  0  0  0
   11.3904   -8.7514    2.8096 C   0  0  0  0  0  0  0  0  0  0  0  0
   12.1112   -9.9131    2.9600 N   0  0  0  0  0  0  0  0  0  0  0  0
   13.0339   -9.6601    3.8956 N   0  0  0  0  0  0  0  0  0  0  0  0
   14.0945  -10.6775    4.2281 C   0  0  0  0  0  0  0  0  0  0  0  0
   12.8004   -8.3127    4.3782 C   0  0  0  0  0  0  0  0  0  0  0  0
   11.2474   -4.2586    4.6387 N   0  0  0  0  0  0  0  0  0  0  0  0
    9.9769   -3.0684    4.2952 C   0  0  0  0  0  0  0  0  0  0  0  0
    8.6900   -1.8900    3.9341 C   0  0  0  0  0  0  0  0  0  0  0  0
    4.3158   -2.2980    2.6993 C   0  0  0  0  0  0  0  0  0  0  0  0
    0.4089   -3.7633    3.9315 H   0  0  0  0  0  0  0  0  0  0  0  0
    0.7715   -4.0492    2.2197 H   0  0  0  0  0  0  0  0  0  0  0  0
    0.3889   -2.3937    2.8225 H   0  0  0  0  0  0  0  0  0  0  0  0
    1.5889   -2.2715    0.8729 H   0  0  0  0  0  0  0  0  0  0  0  0
    1.4754   -0.3445   -2.0166 H   0  0  0  0  0  0  0  0  0  0  0  0
    0.9854   -0.5228   -0.3265 H   0  0  0  0  0  0  0  0  0  0  0  0
    1.5425   -1.9508   -1.2780 H   0  0  0  0  0  0  0  0  0  0  0  0
    5.3917   -0.3559    0.2186 H   0  0  0  0  0  0  0  0  0  0  0  0
    7.2187    0.4704    1.0659 H   0  0  0  0  0  0  0  0  0  0  0  0
    8.0133    0.4583    2.6696 H   0  0  0  0  0  0  0  0  0  0  0  0
    5.2193    1.3210    2.1645 H   0  0  0  0  0  0  0  0  0  0  0  0
    6.7647    2.4056    2.2387 H   0  0  0  0  0  0  0  0  0  0  0  0
    6.8962    1.8708    4.5308 H   0  0  0  0  0  0  0  0  0  0  0  0
    5.4047    0.8722    4.3664 H   0  0  0  0  0  0  0  0  0  0  0  0
    5.8320    3.2657    6.1212 H   0  0  0  0  0  0  0  0  0  0  0  0
    4.4138    2.2099    6.0239 H   0  0  0  0  0  0  0  0  0  0  0  0
    3.7566    4.3447    6.9382 H   0  0  0  0  0  0  0  0  0  0  0  0
    2.9589    4.1011    5.4120 H   0  0  0  0  0  0  0  0  0  0  0  0
    3.8108    6.4017    5.4110 H   0  0  0  0  0  0  0  0  0  0  0  0
    6.4027    6.4115    7.9070 H   0  0  0  0  0  0  0  0  0  0  0  0
    5.1422    5.2156    7.8774 H   0  0  0  0  0  0  0  0  0  0  0  0
    4.7219    6.9193    7.5338 H   0  0  0  0  0  0  0  0  0  0  0  0
    5.3973    6.2752    3.4512 H   0  0  0  0  0  0  0  0  0  0  0  0
    3.9367    5.2858    3.2630 H   0  0  0  0  0  0  0  0  0  0  0  0
    6.7139    4.3159    4.1114 H   0  0  0  0  0  0  0  0  0  0  0  0
    5.8873    4.1031    2.5687 H   0  0  0  0  0  0  0  0  0  0  0  0
    6.7828   -3.4505    1.4674 H   0  0  0  0  0  0  0  0  0  0  0  0
    8.4493   -5.0181    1.9356 H   0  0  0  0  0  0  0  0  0  0  0  0
    9.9327   -6.5760    2.6980 H   0  0  0  0  0  0  0  0  0  0  0  0
   10.6536   -8.9080    2.0319 H   0  0  0  0  0  0  0  0  0  0  0  0
   13.9691  -11.6577    3.7141 H   0  0  0  0  0  0  0  0  0  0  0  0
   14.1304  -10.9068    5.3047 H   0  0  0  0  0  0  0  0  0  0  0  0
   15.0859  -10.3104    3.9234 H   0  0  0  0  0  0  0  0  0  0  0  0
   13.4987   -8.0646    5.1607 H   0  0  0  0  0  0  0  0  0  0  0  0
    8.5516   -0.8946    4.4729 H   0  0  0  0  0  0  0  0  0  0  0  0
    4.5086   -2.9934    3.4874 H   0  0  0  0  0  0  0  0  0  0  0  0
  1  2  1  0  0  0  0
  1 39  1  0  0  0  0
  1 40  1  0  0  0  0
  1 41  1  0  0  0  0
  2  3  1  0  0  0  0
  3  4  1  0  0  0  0
  3 38  2  0  0  0  0
  4  5  2  0  0  0  0
  4 42  1  0  0  0  0
  5  6  1  0  0  0  0
  5  8  1  0  0  0  0
  6  7  1  0  0  0  0
  7 43  1  0  0  0  0
  7 44  1  0  0  0  0
  7 45  1  0  0  0  0
  8  9  2  0  0  0  0
  8 46  1  0  0  0  0
  9 10  1  0  0  0  0
  9 38  1  0  0  0  0
 10 11  1  0  0  0  0
 10 22  1  0  0  0  0
 11 12  1  0  0  0  0
 11 47  1  0  0  0  0
 11 48  1  0  0  0  0
 12 13  1  0  0  0  0
 12 49  1  0  0  0  0
 12 50  1  0  0  0  0
 13 14  1  0  0  0  0
 13 51  1  0  0  0  0
 13 52  1  0  0  0  0
 14 15  1  0  0  0  0
 14 21  1  0  0  0  0
 15 16  1  0  0  0  0
 15 53  1  0  0  0  0
 15 54  1  0  0  0  0
 16 17  1  0  0  0  0
 16 55  1  0  0  0  0
 16 56  1  0  0  0  0
 17 18  1  0  0  0  0
 17 20  1  0  0  0  0
 17 57  1  0  0  0  0
 18 19  1  0  0  0  0
 19 58  1  0  0  0  0
 19 59  1  0  0  0  0
 19 60  1  0  0  0  0
 20 21  1  0  0  0  0
 20 61  1  0  0  0  0
 20 62  1  0  0  0  0
 21 63  1  0  0  0  0
 21 64  1  0  0  0  0
 22 23  1  0  0  0  0
 22 37  2  0  0  0  0
 23 24  2  0  0  0  0
 23 65  1  0  0  0  0
 24 25  1  0  0  0  0
 24 66  1  0  0  0  0
 25 26  1  0  0  0  0
 25 36  2  0  0  0  0
 26 27  2  0  0  0  0
 27 28  1  0  0  0  0
 27 67  1  0  0  0  0
 28 29  1  0  0  0  0
 28 35  2  0  0  0  0
 29 30  1  0  0  0  0
 29 34  2  0  0  0  0
 30 31  2  0  0  0  0
 30 68  1  0  0  0  0
 31 32  1  0  0  0  0
 32 33  1  0  0  0  0
 32 34  1  0  0  0  0
 33 69  1  0  0  0  0
 33 70  1  0  0  0  0
 33 71  1  0  0  0  0
 34 72  1  0  0  0  0
 35 36  1  0  0  0  0
 36 37  1  0  0  0  0
 37 73  1  0  0  0  0
 38 74  1  0  0  0  0
M  END
$$$$
