CHEMBL379849
 OpenBabel04072215373D

 38 40  0  0  0  0  0  0  0  0999 V2000
    0.0026   -2.0191   -0.0372 O   0  0  0  0  0  0  0  0  0  0  0  0
    0.0025   -0.7913    0.0221 C   0  0  0  0  0  0  0  0  0  0  0  0
   -1.2782   -0.0098    0.0563 C   0  0  0  0  0  0  0  0  0  0  0  0
   -2.4177   -0.6927   -0.1600 C   0  0  0  0  0  0  0  0  0  0  0  0
   -3.7577   -0.0964   -0.1932 C   0  0  0  0  0  0  0  0  0  0  0  0
   -4.2725    0.3906   -1.4004 C   0  0  0  0  0  0  0  0  0  0  0  0
   -5.5589    0.9359   -1.4496 C   0  0  0  0  0  0  0  0  0  0  0  0
   -6.3392    0.9992   -0.2943 C   0  0  0  0  0  0  0  0  0  0  0  0
   -5.8282    0.5294    0.9151 C   0  0  0  0  0  0  0  0  0  0  0  0
   -4.5444   -0.0100    0.9600 C   0  0  0  0  0  0  0  0  0  0  0  0
   -4.0714   -0.4456    2.1374 F   0  0  0  0  0  0  0  0  0  0  0  0
   -1.1834    1.4612    0.3090 C   0  0  0  0  0  0  0  0  0  0  0  0
   -0.0094    2.0418   -0.3342 N   0  0  0  0  0  0  0  0  0  0  0  0
    1.1908    1.4691    0.2655 C   0  0  0  0  0  0  0  0  0  0  0  0
    1.2803   -0.0117    0.0556 C   0  0  0  0  0  0  0  0  0  0  0  0
    2.4298   -0.6965   -0.1100 C   0  0  0  0  0  0  0  0  0  0  0  0
    3.7516   -0.0627   -0.0777 C   0  0  0  0  0  0  0  0  0  0  0  0
    4.3168    0.4373   -1.2569 C   0  0  0  0  0  0  0  0  0  0  0  0
    5.5353    1.1211   -1.2171 C   0  0  0  0  0  0  0  0  0  0  0  0
    6.1990    1.3043   -0.0028 C   0  0  0  0  0  0  0  0  0  0  0  0
    5.6481    0.7983    1.1737 C   0  0  0  0  0  0  0  0  0  0  0  0
    4.4321    0.1214    1.1301 C   0  0  0  0  0  0  0  0  0  0  0  0
    3.9063   -0.3297    2.2790 F   0  0  0  0  0  0  0  0  0  0  0  0
   -2.4043   -1.7680   -0.3298 H   0  0  0  0  0  0  0  0  0  0  0  0
   -3.6769    0.3436   -2.3099 H   0  0  0  0  0  0  0  0  0  0  0  0
   -5.9542    1.3057   -2.3930 H   0  0  0  0  0  0  0  0  0  0  0  0
   -7.3440    1.4125   -0.3378 H   0  0  0  0  0  0  0  0  0  0  0  0
   -6.4227    0.5746    1.8222 H   0  0  0  0  0  0  0  0  0  0  0  0
   -1.1630    1.6512    1.3897 H   0  0  0  0  0  0  0  0  0  0  0  0
   -2.0589    1.9875   -0.0830 H   0  0  0  0  0  0  0  0  0  0  0  0
   -0.0081    3.0483   -0.1769 H   0  0  0  0  0  0  0  0  0  0  0  0
    1.2266    1.6908    1.3401 H   0  0  0  0  0  0  0  0  0  0  0  0
    2.0450    1.9827   -0.1874 H   0  0  0  0  0  0  0  0  0  0  0  0
    2.4355   -1.7755   -0.2543 H   0  0  0  0  0  0  0  0  0  0  0  0
    3.8025    0.3147   -2.2083 H   0  0  0  0  0  0  0  0  0  0  0  0
    5.9627    1.5193   -2.1346 H   0  0  0  0  0  0  0  0  0  0  0  0
    7.1425    1.8441    0.0264 H   0  0  0  0  0  0  0  0  0  0  0  0
    6.1512    0.9345    2.1259 H   0  0  0  0  0  0  0  0  0  0  0  0
  1  2  2  0  0  0  0
  2  3  1  0  0  0  0
  2 15  1  0  0  0  0
  3  4  2  0  0  0  0
  3 12  1  0  0  0  0
  4  5  1  0  0  0  0
  4 24  1  0  0  0  0
  5  6  1  0  0  0  0
  5 10  2  0  0  0  0
  6  7  2  0  0  0  0
  6 25  1  0  0  0  0
  7  8  1  0  0  0  0
  7 26  1  0  0  0  0
  8  9  2  0  0  0  0
  8 27  1  0  0  0  0
  9 10  1  0  0  0  0
  9 28  1  0  0  0  0
 10 11  1  0  0  0  0
 12 13  1  0  0  0  0
 12 29  1  0  0  0  0
 12 30  1  0  0  0  0
 13 14  1  0  0  0  0
 13 31  1  0  0  0  0
 14 15  1  0  0  0  0
 14 32  1  0  0  0  0
 14 33  1  0  0  0  0
 15 16  2  0  0  0  0
 16 17  1  0  0  0  0
 16 34  1  0  0  0  0
 17 18  1  0  0  0  0
 17 22  2  0  0  0  0
 18 19  2  0  0  0  0
 18 35  1  0  0  0  0
 19 20  1  0  0  0  0
 19 36  1  0  0  0  0
 20 21  2  0  0  0  0
 20 37  1  0  0  0  0
 21 22  1  0  0  0  0
 21 38  1  0  0  0  0
 22 23  1  0  0  0  0
M  END
$$$$
