CHEMBL3918251
 OpenBabel04072215373D

 70 74  0  0  0  0  0  0  0  0999 V2000
   -8.2994   16.3949    1.4500 C   0  0  0  0  0  0  0  0  0  0  0  0
   -7.9854   15.0854    0.7832 C   0  0  0  0  0  0  0  0  0  0  0  0
   -7.5882   15.0748   -0.5554 C   0  0  0  0  0  0  0  0  0  0  0  0
   -7.2668   13.8804   -1.1756 C   0  0  0  0  0  0  0  0  0  0  0  0
   -7.3541   12.6782   -0.4717 C   0  0  0  0  0  0  0  0  0  0  0  0
   -6.8898   11.5984   -1.1085 F   0  0  0  0  0  0  0  0  0  0  0  0
   -7.8051   12.6367    0.8563 C   0  0  0  0  0  0  0  0  0  0  0  0
   -7.9855   11.4357    1.6069 N   0  0  0  0  0  0  0  0  0  0  0  0
   -8.1190   10.1702    1.0611 C   0  0  0  0  0  0  0  0  0  0  0  0
   -8.1501    9.9027   -0.1275 O   0  0  0  0  0  0  0  0  0  0  0  0
   -8.3114    9.1857    2.0300 N   0  0  0  0  0  0  0  0  0  0  0  0
   -8.4669    7.8345    1.5987 C   0  0  0  0  0  0  0  0  0  0  0  0
   -7.5209    7.2063    0.7825 C   0  0  0  0  0  0  0  0  0  0  0  0
   -7.7364    5.8941    0.3356 C   0  0  0  0  0  0  0  0  0  0  0  0
   -8.9044    5.2102    0.6899 C   0  0  0  0  0  0  0  0  0  0  0  0
   -9.0547    3.9407    0.1701 O   0  0  0  0  0  0  0  0  0  0  0  0
   -9.7199    2.9743    0.9009 C   0  0  0  0  0  0  0  0  0  0  0  0
   -9.6603    2.8898    2.2927 C   0  0  0  0  0  0  0  0  0  0  0  0
  -10.3600    1.8886    2.9369 C   0  0  0  0  0  0  0  0  0  0  0  0
  -11.0746    0.9282    2.3287 N   0  0  0  0  0  0  0  0  0  0  0  0
  -11.0787    0.9643    0.9704 C   0  0  0  0  0  0  0  0  0  0  0  0
  -11.7320    0.0098    0.1406 C   0  0  0  0  0  0  0  0  0  0  0  0
  -11.5807    0.2725   -1.2044 C   0  0  0  0  0  0  0  0  0  0  0  0
  -12.1193   -0.5110   -2.3100 C   0  0  0  0  0  0  0  0  0  0  0  0
  -12.7895   -1.5282   -2.1515 O   0  0  0  0  0  0  0  0  0  0  0  0
  -11.8254   -0.0255   -3.5628 N   0  0  0  0  0  0  0  0  0  0  0  0
  -12.3080   -0.6344   -4.7846 C   0  0  0  0  0  0  0  0  0  0  0  0
  -11.8091    0.1156   -6.0198 C   0  0  0  0  0  0  0  0  0  0  0  0
  -12.3421    1.5568   -6.0652 C   0  0  0  0  0  0  0  0  0  0  0  0
  -11.9147    2.3308   -7.2422 N   0  0  0  0  0  0  0  0  0  0  0  0
  -10.4490    2.5051   -7.3623 C   0  0  0  0  0  0  0  0  0  0  0  0
   -9.8391    3.4686   -6.3299 C   0  0  0  0  0  0  0  0  0  0  0  0
  -10.4707    4.7531   -6.3792 O   0  0  0  0  0  0  0  0  0  0  0  0
  -11.8840    4.6349   -6.1787 C   0  0  0  0  0  0  0  0  0  0  0  0
  -12.5193    3.6885   -7.2164 C   0  0  0  0  0  0  0  0  0  0  0  0
  -10.6497    1.6921   -1.4520 S   0  0  0  0  0  0  0  0  0  0  0  0
  -10.4273    1.9546    0.2341 C   0  0  0  0  0  0  0  0  0  0  0  0
   -9.8683    5.8531    1.4675 C   0  0  0  0  0  0  0  0  0  0  0  0
   -9.6222    7.1371    1.9503 C   0  0  0  0  0  0  0  0  0  0  0  0
  -10.5501    7.7343    2.7153 F   0  0  0  0  0  0  0  0  0  0  0  0
   -8.0926   13.8638    1.4876 C   0  0  0  0  0  0  0  0  0  0  0  0
   -8.1400   17.2363    0.7626 H   0  0  0  0  0  0  0  0  0  0  0  0
   -7.6459   16.5524    2.3136 H   0  0  0  0  0  0  0  0  0  0  0  0
   -9.3460   16.4247    1.7677 H   0  0  0  0  0  0  0  0  0  0  0  0
   -7.5071   16.0043   -1.1204 H   0  0  0  0  0  0  0  0  0  0  0  0
   -6.9287   13.8569   -2.2079 H   0  0  0  0  0  0  0  0  0  0  0  0
   -8.1597   11.5320    2.5934 H   0  0  0  0  0  0  0  0  0  0  0  0
   -8.9643    9.4610    2.7513 H   0  0  0  0  0  0  0  0  0  0  0  0
   -6.6194    7.7328    0.4756 H   0  0  0  0  0  0  0  0  0  0  0  0
   -6.9968    5.4183   -0.3046 H   0  0  0  0  0  0  0  0  0  0  0  0
   -9.0884    3.5980    2.8816 H   0  0  0  0  0  0  0  0  0  0  0  0
  -10.3589    1.8330    4.0229 H   0  0  0  0  0  0  0  0  0  0  0  0
  -12.2876   -0.8393    0.5209 H   0  0  0  0  0  0  0  0  0  0  0  0
  -11.2594    0.8116   -3.6051 H   0  0  0  0  0  0  0  0  0  0  0  0
  -13.4027   -0.6651   -4.7509 H   0  0  0  0  0  0  0  0  0  0  0  0
  -11.9487   -1.6696   -4.8037 H   0  0  0  0  0  0  0  0  0  0  0  0
  -12.1239   -0.4234   -6.9212 H   0  0  0  0  0  0  0  0  0  0  0  0
  -10.7141    0.1091   -5.9977 H   0  0  0  0  0  0  0  0  0  0  0  0
  -12.0692    2.0771   -5.1422 H   0  0  0  0  0  0  0  0  0  0  0  0
  -13.4386    1.4974   -6.0743 H   0  0  0  0  0  0  0  0  0  0  0  0
  -10.2570    2.9138   -8.3634 H   0  0  0  0  0  0  0  0  0  0  0  0
   -9.9251    1.5452   -7.3399 H   0  0  0  0  0  0  0  0  0  0  0  0
   -8.7775    3.6187   -6.5518 H   0  0  0  0  0  0  0  0  0  0  0  0
   -9.9085    3.0700   -5.3114 H   0  0  0  0  0  0  0  0  0  0  0  0
  -12.3161    5.6356   -6.2780 H   0  0  0  0  0  0  0  0  0  0  0  0
  -12.0721    4.3026   -5.1515 H   0  0  0  0  0  0  0  0  0  0  0  0
  -12.3813    4.1269   -8.2132 H   0  0  0  0  0  0  0  0  0  0  0  0
  -13.6020    3.6251   -7.0570 H   0  0  0  0  0  0  0  0  0  0  0  0
  -10.8167    5.3826    1.7007 H   0  0  0  0  0  0  0  0  0  0  0  0
   -8.4226   13.8831    2.5207 H   0  0  0  0  0  0  0  0  0  0  0  0
  1  2  1  0  0  0  0
  1 42  1  0  0  0  0
  1 43  1  0  0  0  0
  1 44  1  0  0  0  0
  2  3  1  0  0  0  0
  2 41  2  0  0  0  0
  3  4  2  0  0  0  0
  3 45  1  0  0  0  0
  4  5  1  0  0  0  0
  4 46  1  0  0  0  0
  5  6  1  0  0  0  0
  5  7  2  0  0  0  0
  7  8  1  0  0  0  0
  7 41  1  0  0  0  0
  8  9  1  0  0  0  0
  8 47  1  0  0  0  0
  9 10  2  0  0  0  0
  9 11  1  0  0  0  0
 11 12  1  0  0  0  0
 11 48  1  0  0  0  0
 12 13  1  0  0  0  0
 12 39  2  0  0  0  0
 13 14  2  0  0  0  0
 13 49  1  0  0  0  0
 14 15  1  0  0  0  0
 14 50  1  0  0  0  0
 15 16  1  0  0  0  0
 15 38  2  0  0  0  0
 16 17  1  0  0  0  0
 17 18  1  0  0  0  0
 17 37  2  0  0  0  0
 18 19  2  0  0  0  0
 18 51  1  0  0  0  0
 19 20  1  0  0  0  0
 19 52  1  0  0  0  0
 20 21  2  0  0  0  0
 21 22  1  0  0  0  0
 21 37  1  0  0  0  0
 22 23  2  0  0  0  0
 22 53  1  0  0  0  0
 23 24  1  0  0  0  0
 23 36  1  0  0  0  0
 24 25  2  0  0  0  0
 24 26  1  0  0  0  0
 26 27  1  0  0  0  0
 26 54  1  0  0  0  0
 27 28  1  0  0  0  0
 27 55  1  0  0  0  0
 27 56  1  0  0  0  0
 28 29  1  0  0  0  0
 28 57  1  0  0  0  0
 28 58  1  0  0  0  0
 29 30  1  0  0  0  0
 29 59  1  0  0  0  0
 29 60  1  0  0  0  0
 30 31  1  0  0  0  0
 30 35  1  0  0  0  0
 31 32  1  0  0  0  0
 31 61  1  0  0  0  0
 31 62  1  0  0  0  0
 32 33  1  0  0  0  0
 32 63  1  0  0  0  0
 32 64  1  0  0  0  0
 33 34  1  0  0  0  0
 34 35  1  0  0  0  0
 34 65  1  0  0  0  0
 34 66  1  0  0  0  0
 35 67  1  0  0  0  0
 35 68  1  0  0  0  0
 36 37  1  0  0  0  0
 38 39  1  0  0  0  0
 38 69  1  0  0  0  0
 39 40  1  0  0  0  0
 41 70  1  0  0  0  0
M  END
$$$$
