CHEMBL3694659
 OpenBabel04072215373D

 55 58  0  0  0  0  0  0  0  0999 V2000
    3.4654   -0.3649    1.2033 C   0  0  0  0  0  0  0  0  0  0  0  0
    2.4681   -0.0431    0.0913 C   0  0  0  0  0  0  0  0  0  0  0  0
    1.0684    0.1363    0.6994 C   0  0  0  0  0  0  0  0  0  0  0  0
    2.9115    1.1048   -0.6978 N   0  0  0  0  0  0  0  0  0  0  0  0
    2.6338    2.4209   -0.4215 C   0  0  0  0  0  0  0  0  0  0  0  0
    3.1937    3.1357   -1.4510 C   0  0  0  0  0  0  0  0  0  0  0  0
    3.8510    2.3041   -2.3143 N   0  0  0  0  0  0  0  0  0  0  0  0
    3.6924    1.0851   -1.8376 C   0  0  0  0  0  0  0  0  0  0  0  0
    4.2840   -0.0492   -2.4677 C   0  0  0  0  0  0  0  0  0  0  0  0
    4.8101   -1.0915   -3.0480 C   0  0  0  0  0  0  0  0  0  0  0  0
    5.4233   -2.3067   -3.7246 C   0  0  0  0  0  0  0  0  0  0  0  0
    6.4178   -2.1688   -4.7623 C   0  0  0  0  0  0  0  0  0  0  0  0
    6.8749   -3.2855   -5.3547 C   0  0  0  0  0  0  0  0  0  0  0  0
    6.3624   -4.5421   -4.9888 N   0  0  0  0  0  0  0  0  0  0  0  0
    6.6143   -5.8241   -5.4722 C   0  0  0  0  0  0  0  0  0  0  0  0
    7.5025   -6.1990   -6.5756 C   0  0  0  0  0  0  0  0  0  0  0  0
    7.6756   -5.3635   -7.6857 C   0  0  0  0  0  0  0  0  0  0  0  0
    8.4814   -5.7457   -8.7453 C   0  0  0  0  0  0  0  0  0  0  0  0
    9.0653   -7.0064   -8.7431 C   0  0  0  0  0  0  0  0  0  0  0  0
    8.9054   -7.8859   -7.6683 C   0  0  0  0  0  0  0  0  0  0  0  0
    9.4459   -9.1957   -7.6775 N   0  0  0  0  0  0  0  0  0  0  0  0
   10.4277   -9.6232   -8.5344 C   0  0  0  0  0  0  0  0  0  0  0  0
   11.0466   -8.9197   -9.3367 O   0  0  0  0  0  0  0  0  0  0  0  0
   10.6902  -10.9655   -8.4777 N   0  0  0  0  0  0  0  0  0  0  0  0
   11.7557  -11.4959   -9.3402 C   0  0  0  0  0  0  0  0  0  0  0  0
   13.1996  -11.3486   -8.8319 C   0  0  0  0  0  0  0  0  0  0  0  0
   13.2618  -10.8162   -7.5909 F   0  0  0  0  0  0  0  0  0  0  0  0
   13.7860  -12.5715   -8.7634 F   0  0  0  0  0  0  0  0  0  0  0  0
   13.9586  -10.5919   -9.6533 F   0  0  0  0  0  0  0  0  0  0  0  0
    8.1383   -7.4614   -6.5764 C   0  0  0  0  0  0  0  0  0  0  0  0
    5.7915   -6.6420   -4.7119 C   0  0  0  0  0  0  0  0  0  0  0  0
    5.0666   -5.9423   -3.7927 N   0  0  0  0  0  0  0  0  0  0  0  0
    5.4077   -4.6874   -3.9809 C   0  0  0  0  0  0  0  0  0  0  0  0
    4.9453   -3.5093   -3.3458 C   0  0  0  0  0  0  0  0  0  0  0  0
    3.1134   -1.2085    1.8077 H   0  0  0  0  0  0  0  0  0  0  0  0
    3.6046    0.4922    1.8718 H   0  0  0  0  0  0  0  0  0  0  0  0
    4.4439   -0.6320    0.7921 H   0  0  0  0  0  0  0  0  0  0  0  0
    2.4135   -0.8940   -0.5984 H   0  0  0  0  0  0  0  0  0  0  0  0
    1.0381    0.9651    1.4162 H   0  0  0  0  0  0  0  0  0  0  0  0
    0.7649   -0.7659    1.2425 H   0  0  0  0  0  0  0  0  0  0  0  0
    0.3192    0.3320   -0.0744 H   0  0  0  0  0  0  0  0  0  0  0  0
    2.0668    2.7377    0.4421 H   0  0  0  0  0  0  0  0  0  0  0  0
    3.1630    4.2059   -1.6092 H   0  0  0  0  0  0  0  0  0  0  0  0
    6.7707   -1.1828   -5.0426 H   0  0  0  0  0  0  0  0  0  0  0  0
    7.6333   -3.2344   -6.1198 H   0  0  0  0  0  0  0  0  0  0  0  0
    7.1643   -4.4105   -7.7710 H   0  0  0  0  0  0  0  0  0  0  0  0
    8.6267   -5.0803   -9.5917 H   0  0  0  0  0  0  0  0  0  0  0  0
    9.6167   -7.2845   -9.6350 H   0  0  0  0  0  0  0  0  0  0  0  0
    9.1242   -9.8338   -6.9627 H   0  0  0  0  0  0  0  0  0  0  0  0
   10.4142  -11.4946   -7.6600 H   0  0  0  0  0  0  0  0  0  0  0  0
   11.6867  -10.9940  -10.3153 H   0  0  0  0  0  0  0  0  0  0  0  0
   11.5253  -12.5493   -9.5160 H   0  0  0  0  0  0  0  0  0  0  0  0
    8.0404   -8.1037   -5.7021 H   0  0  0  0  0  0  0  0  0  0  0  0
    5.6707   -7.7143   -4.8020 H   0  0  0  0  0  0  0  0  0  0  0  0
    4.1863   -3.6123   -2.5794 H   0  0  0  0  0  0  0  0  0  0  0  0
  1  2  1  0  0  0  0
  1 35  1  0  0  0  0
  1 36  1  0  0  0  0
  1 37  1  0  0  0  0
  2  3  1  0  0  0  0
  2  4  1  0  0  0  0
  2 38  1  0  0  0  0
  3 39  1  0  0  0  0
  3 40  1  0  0  0  0
  3 41  1  0  0  0  0
  4  5  1  0  0  0  0
  4  8  1  0  0  0  0
  5  6  2  0  0  0  0
  5 42  1  0  0  0  0
  6  7  1  0  0  0  0
  6 43  1  0  0  0  0
  7  8  2  0  0  0  0
  8  9  1  0  0  0  0
  9 10  3  0  0  0  0
 10 11  1  0  0  0  0
 11 12  1  0  0  0  0
 11 34  2  0  0  0  0
 12 13  2  0  0  0  0
 12 44  1  0  0  0  0
 13 14  1  0  0  0  0
 13 45  1  0  0  0  0
 14 15  1  0  0  0  0
 14 33  1  0  0  0  0
 15 16  1  0  0  0  0
 15 31  2  0  0  0  0
 16 17  1  0  0  0  0
 16 30  2  0  0  0  0
 17 18  2  0  0  0  0
 17 46  1  0  0  0  0
 18 19  1  0  0  0  0
 18 47  1  0  0  0  0
 19 20  2  0  0  0  0
 19 48  1  0  0  0  0
 20 21  1  0  0  0  0
 20 30  1  0  0  0  0
 21 22  1  0  0  0  0
 21 49  1  0  0  0  0
 22 23  2  0  0  0  0
 22 24  1  0  0  0  0
 24 25  1  0  0  0  0
 24 50  1  0  0  0  0
 25 26  1  0  0  0  0
 25 51  1  0  0  0  0
 25 52  1  0  0  0  0
 26 27  1  0  0  0  0
 26 28  1  0  0  0  0
 26 29  1  0  0  0  0
 30 53  1  0  0  0  0
 31 32  1  0  0  0  0
 31 54  1  0  0  0  0
 32 33  2  0  0  0  0
 33 34  1  0  0  0  0
 34 55  1  0  0  0  0
M  END
$$$$
