CHEMBL1992342
 OpenBabel04072215363D

 41 43  0  0  0  0  0  0  0  0999 V2000
    4.3571    2.0713   -0.7253 C   0  0  0  0  0  0  0  0  0  0  0  0
    4.2747    0.5731   -0.9782 C   0  0  0  0  0  0  0  0  0  0  0  0
    4.9394   -0.2464    0.1314 C   0  0  0  0  0  0  0  0  0  0  0  0
    4.8267   -2.0119   -0.2455 S   0  0  0  0  0  0  0  0  0  0  0  0
    3.4222   -2.3592   -0.2572 O   0  0  0  0  0  0  0  0  0  0  0  0
    5.6822   -2.2970   -1.3677 O   0  0  0  0  0  0  0  0  0  0  0  0
    5.4621   -2.7359    1.1484 N   0  0  0  0  0  0  0  0  0  0  0  0
    6.8578   -3.0498    1.1870 C   0  0  0  0  0  0  0  0  0  0  0  0
    7.7433   -2.0828    1.6497 C   0  0  0  0  0  0  0  0  0  0  0  0
    9.1009   -2.3789    1.7468 C   0  0  0  0  0  0  0  0  0  0  0  0
    9.6370   -3.6470    1.4084 C   0  0  0  0  0  0  0  0  0  0  0  0
   11.0724   -3.9586    1.6914 C   0  0  0  0  0  0  0  0  0  0  0  0
   11.6681   -3.3412    2.8122 C   0  0  0  0  0  0  0  0  0  0  0  0
   13.0231   -3.4488    3.1106 C   0  0  0  0  0  0  0  0  0  0  0  0
   13.7797   -4.2847    2.2909 C   0  0  0  0  0  0  0  0  0  0  0  0
   15.1171   -4.4710    2.2225 N   0  0  0  0  0  0  0  0  0  0  0  0
   15.4826   -5.5309    1.5070 N   0  0  0  0  0  0  0  0  0  0  0  0
   14.3804   -5.8193    0.8249 C   0  0  0  0  0  0  0  0  0  0  0  0
   14.4725   -6.7430   -0.1501 N   0  0  0  0  0  0  0  0  0  0  0  0
   13.2483   -5.0502    1.2538 C   0  0  0  0  0  0  0  0  0  0  0  0
   11.8779   -4.8373    0.9136 C   0  0  0  0  0  0  0  0  0  0  0  0
    8.7312   -4.5823    0.8908 C   0  0  0  0  0  0  0  0  0  0  0  0
    7.3511   -4.2810    0.7766 C   0  0  0  0  0  0  0  0  0  0  0  0
    3.8746    2.6175   -1.5421 H   0  0  0  0  0  0  0  0  0  0  0  0
    5.3980    2.4042   -0.6660 H   0  0  0  0  0  0  0  0  0  0  0  0
    3.8515    2.3433    0.2066 H   0  0  0  0  0  0  0  0  0  0  0  0
    4.7470    0.3501   -1.9416 H   0  0  0  0  0  0  0  0  0  0  0  0
    3.2198    0.2889   -1.0737 H   0  0  0  0  0  0  0  0  0  0  0  0
    4.4499   -0.0723    1.0920 H   0  0  0  0  0  0  0  0  0  0  0  0
    6.0022    0.0051    0.2039 H   0  0  0  0  0  0  0  0  0  0  0  0
    4.8369   -3.4845    1.4637 H   0  0  0  0  0  0  0  0  0  0  0  0
    7.3818   -1.1136    1.9902 H   0  0  0  0  0  0  0  0  0  0  0  0
    9.7518   -1.5954    2.1368 H   0  0  0  0  0  0  0  0  0  0  0  0
   11.0714   -2.7219    3.4803 H   0  0  0  0  0  0  0  0  0  0  0  0
   13.4601   -2.9031    3.9403 H   0  0  0  0  0  0  0  0  0  0  0  0
   15.8500   -3.8531    2.5661 H   0  0  0  0  0  0  0  0  0  0  0  0
   13.7107   -7.3896   -0.3187 H   0  0  0  0  0  0  0  0  0  0  0  0
   15.3750   -7.2105   -0.1340 H   0  0  0  0  0  0  0  0  0  0  0  0
   11.4764   -5.3244    0.0288 H   0  0  0  0  0  0  0  0  0  0  0  0
    9.0719   -5.5768    0.6112 H   0  0  0  0  0  0  0  0  0  0  0  0
    6.6830   -5.0455    0.3864 H   0  0  0  0  0  0  0  0  0  0  0  0
  1  2  1  0  0  0  0
  1 24  1  0  0  0  0
  1 25  1  0  0  0  0
  1 26  1  0  0  0  0
  2  3  1  0  0  0  0
  2 27  1  0  0  0  0
  2 28  1  0  0  0  0
  3  4  1  0  0  0  0
  3 29  1  0  0  0  0
  3 30  1  0  0  0  0
  4  5  2  0  0  0  0
  4  6  2  0  0  0  0
  4  7  1  0  0  0  0
  7  8  1  0  0  0  0
  7 31  1  0  0  0  0
  8  9  1  0  0  0  0
  8 23  2  0  0  0  0
  9 10  2  0  0  0  0
  9 32  1  0  0  0  0
 10 11  1  0  0  0  0
 10 33  1  0  0  0  0
 11 12  1  0  0  0  0
 11 22  2  0  0  0  0
 12 13  1  0  0  0  0
 12 21  2  0  0  0  0
 13 14  2  0  0  0  0
 13 34  1  0  0  0  0
 14 15  1  0  0  0  0
 14 35  1  0  0  0  0
 15 16  1  0  0  0  0
 15 20  2  0  0  0  0
 16 17  1  0  0  0  0
 16 36  1  0  0  0  0
 17 18  2  0  0  0  0
 18 19  1  0  0  0  0
 18 20  1  0  0  0  0
 19 37  1  0  0  0  0
 19 38  1  0  0  0  0
 20 21  1  0  0  0  0
 21 39  1  0  0  0  0
 22 23  1  0  0  0  0
 22 40  1  0  0  0  0
 23 41  1  0  0  0  0
M  END
$$$$
