CHEMBL4214146
 OpenBabel04072215383D

 56 58  0  0  1  0  0  0  0  0999 V2000
    1.3985    3.1080    1.1963 C   0  0  0  0  0  0  0  0  0  0  0  0
    2.8153    2.7044    0.8432 C   0  0  0  0  0  0  0  0  0  0  0  0
    3.2553    1.7124    1.7735 O   0  0  0  0  0  0  0  0  0  0  0  0
    4.5547    1.2565    1.6283 C   0  0  0  0  0  0  0  0  0  0  0  0
    5.4145    1.6233    0.6611 C   0  0  0  0  0  0  0  0  0  0  0  0
    6.7938    1.0821    0.6380 C   0  0  0  0  0  0  0  0  0  0  0  0
    7.5931    1.4234   -0.2189 O   0  0  0  0  0  0  0  0  0  0  0  0
    7.0957    0.1954    1.6351 N   0  0  0  0  0  0  0  0  0  0  0  0
    6.2208   -0.1899    2.6179 C   0  0  0  0  0  0  0  0  0  0  0  0
    4.9615    0.2955    2.6583 C   0  0  0  0  0  0  0  0  0  0  0  0
    4.1073   -0.1143    3.7930 C   0  0  0  0  0  0  0  0  0  0  0  0
    3.3466   -1.2920    3.7646 C   0  0  0  0  0  0  0  0  0  0  0  0
    2.5526   -1.6563    4.8658 C   0  0  0  0  0  0  0  0  0  0  0  0
    2.4936   -0.8372    6.0039 C   0  0  0  0  0  0  0  0  0  0  0  0
    1.7282   -1.2526    7.2362 C   0  0  0  0  0  0  0  0  0  0  0  0
    0.2519   -1.5024    7.0105 C   0  0  0  0  0  0  0  0  0  0  0  0
   -0.1684   -2.6332    6.7704 O   0  0  0  0  0  0  0  0  0  0  0  0
   -0.5380   -0.3582    7.0604 N   0  0  0  0  0  0  0  0  0  0  0  0
   -1.9285   -0.4406    6.8467 C   0  0  0  0  0  0  0  0  0  0  0  0
   -2.7098   -1.3390    7.5616 C   0  0  0  0  0  0  0  0  0  0  0  0
   -4.0651   -1.4820    7.2624 C   0  0  0  0  0  0  0  0  0  0  0  0
   -4.6890   -0.7232    6.2445 C   0  0  0  0  0  0  0  0  0  0  0  0
   -6.1506   -1.0166    5.8904 C   0  0  3  0  0  0  0  0  0  0  0  0
   -6.2635   -2.0971    4.8152 C   0  0  0  0  0  0  0  0  0  0  0  0
   -6.9541   -1.4679    7.0991 C   0  0  0  0  0  0  0  0  0  0  0  0
   -7.6208   -1.8423    8.1019 N   0  0  0  0  0  0  0  0  0  0  0  0
   -3.9044    0.2413    5.5614 C   0  0  0  0  0  0  0  0  0  0  0  0
   -4.4143    1.1732    4.4773 C   0  0  0  0  0  0  0  0  0  0  0  0
   -5.7322    1.0509    4.1713 F   0  0  0  0  0  0  0  0  0  0  0  0
   -4.2405    2.4812    4.8177 F   0  0  0  0  0  0  0  0  0  0  0  0
   -3.7547    1.0046    3.2985 F   0  0  0  0  0  0  0  0  0  0  0  0
   -2.5287    0.3721    5.8875 C   0  0  0  0  0  0  0  0  0  0  0  0
    3.2345    0.3472    5.9997 C   0  0  0  0  0  0  0  0  0  0  0  0
    3.1801    1.1690    7.0579 F   0  0  0  0  0  0  0  0  0  0  0  0
    4.0326    0.7066    4.9212 C   0  0  0  0  0  0  0  0  0  0  0  0
    1.0242    3.8496    0.4848 H   0  0  0  0  0  0  0  0  0  0  0  0
    1.3578    3.5334    2.2040 H   0  0  0  0  0  0  0  0  0  0  0  0
    0.7340    2.2382    1.1859 H   0  0  0  0  0  0  0  0  0  0  0  0
    3.4624    3.5875    0.9030 H   0  0  0  0  0  0  0  0  0  0  0  0
    2.8313    2.2957   -0.1721 H   0  0  0  0  0  0  0  0  0  0  0  0
    5.1882    2.3314   -0.1290 H   0  0  0  0  0  0  0  0  0  0  0  0
    8.0482   -0.1566    1.6288 H   0  0  0  0  0  0  0  0  0  0  0  0
    6.6106   -0.8891    3.3535 H   0  0  0  0  0  0  0  0  0  0  0  0
    3.3656   -1.9401    2.8885 H   0  0  0  0  0  0  0  0  0  0  0  0
    1.9877   -2.5873    4.8288 H   0  0  0  0  0  0  0  0  0  0  0  0
    1.8345   -0.5174    8.0427 H   0  0  0  0  0  0  0  0  0  0  0  0
    2.1663   -2.1821    7.6232 H   0  0  0  0  0  0  0  0  0  0  0  0
   -0.0722    0.5044    6.8045 H   0  0  0  0  0  0  0  0  0  0  0  0
   -2.2763   -1.9401    8.3587 H   0  0  0  0  0  0  0  0  0  0  0  0
   -4.6192   -2.2196    7.8444 H   0  0  0  0  0  0  0  0  0  0  0  0
   -6.6582   -0.1063    5.5677 H   0  0  0  0  0  0  0  0  0  0  0  0
   -5.8708   -3.0578    5.1716 H   0  0  0  0  0  0  0  0  0  0  0  0
   -5.7174   -1.8263    3.9067 H   0  0  0  0  0  0  0  0  0  0  0  0
   -7.3135   -2.2616    4.5441 H   0  0  0  0  0  0  0  0  0  0  0  0
   -1.9145    1.0711    5.3201 H   0  0  0  0  0  0  0  0  0  0  0  0
    4.6116    1.6277    4.9707 H   0  0  0  0  0  0  0  0  0  0  0  0
  1  2  1  0  0  0  0
  1 36  1  0  0  0  0
  1 37  1  0  0  0  0
  1 38  1  0  0  0  0
  2  3  1  0  0  0  0
  2 39  1  0  0  0  0
  2 40  1  0  0  0  0
  3  4  1  0  0  0  0
  4  5  2  0  0  0  0
  4 10  1  0  0  0  0
  5  6  1  0  0  0  0
  5 41  1  0  0  0  0
  6  7  2  0  0  0  0
  6  8  1  0  0  0  0
  8  9  1  0  0  0  0
  8 42  1  0  0  0  0
  9 10  2  0  0  0  0
  9 43  1  0  0  0  0
 10 11  1  0  0  0  0
 11 12  1  0  0  0  0
 11 35  2  0  0  0  0
 12 13  2  0  0  0  0
 12 44  1  0  0  0  0
 13 14  1  0  0  0  0
 13 45  1  0  0  0  0
 14 15  1  0  0  0  0
 14 33  2  0  0  0  0
 15 16  1  0  0  0  0
 15 46  1  0  0  0  0
 15 47  1  0  0  0  0
 16 17  2  0  0  0  0
 16 18  1  0  0  0  0
 18 19  1  0  0  0  0
 18 48  1  0  0  0  0
 19 20  1  0  0  0  0
 19 32  2  0  0  0  0
 20 21  2  0  0  0  0
 20 49  1  0  0  0  0
 21 22  1  0  0  0  0
 21 50  1  0  0  0  0
 22 23  1  0  0  0  0
 22 27  2  0  0  0  0
 23 24  1  0  0  0  0
 23 25  1  0  0  0  0
 23 51  1  0  0  0  0
 24 52  1  0  0  0  0
 24 53  1  0  0  0  0
 24 54  1  0  0  0  0
 25 26  3  0  0  0  0
 27 28  1  0  0  0  0
 27 32  1  0  0  0  0
 28 29  1  0  0  0  0
 28 30  1  0  0  0  0
 28 31  1  0  0  0  0
 32 55  1  0  0  0  0
 33 34  1  0  0  0  0
 33 35  1  0  0  0  0
 35 56  1  0  0  0  0
M  END
$$$$
