CHEMBL1241487
 OpenBabel04072215363D

 41 44  0  0  0  0  0  0  0  0999 V2000
    1.7678   -1.1729    1.0418 N   0  0  0  0  0  0  0  0  0  0  0  0
    0.5435   -0.5959    0.6688 C   0  0  0  0  0  0  0  0  0  0  0  0
    0.5233    0.6410    0.0309 C   0  0  0  0  0  0  0  0  0  0  0  0
   -0.6850    1.3190   -0.1626 C   0  0  0  0  0  0  0  0  0  0  0  0
   -1.9056    0.7615    0.2408 C   0  0  0  0  0  0  0  0  0  0  0  0
   -3.1750    1.4704    0.0258 C   0  0  0  0  0  0  0  0  0  0  0  0
   -4.1748    1.3329    0.9169 N   0  0  0  0  0  0  0  0  0  0  0  0
   -5.1430    2.1647    0.4829 N   0  0  0  0  0  0  0  0  0  0  0  0
   -6.3615    2.3444    1.2435 C   0  0  0  0  0  0  0  0  0  0  0  0
   -6.1397    2.8666    2.6625 C   0  0  0  0  0  0  0  0  0  0  0  0
   -7.3930    2.4678    3.4382 C   0  0  0  0  0  0  0  0  0  0  0  0
   -8.1074    1.4076    2.6022 C   0  0  0  0  0  0  0  0  0  0  0  0
   -7.1581    1.0591    1.4630 C   0  0  0  0  0  0  0  0  0  0  0  0
   -4.8245    2.7906   -0.6955 C   0  0  0  0  0  0  0  0  0  0  0  0
   -5.5927    3.6631   -1.3744 N   0  0  0  0  0  0  0  0  0  0  0  0
   -4.9758    4.0954   -2.4843 C   0  0  0  0  0  0  0  0  0  0  0  0
   -3.7621    3.7451   -2.9465 N   0  0  0  0  0  0  0  0  0  0  0  0
   -3.0293    2.8626   -2.2379 C   0  0  0  0  0  0  0  0  0  0  0  0
   -1.8013    2.5256   -2.7901 N   0  0  0  0  0  0  0  0  0  0  0  0
   -3.5548    2.3512   -1.0396 C   0  0  0  0  0  0  0  0  0  0  0  0
   -1.8835   -0.4705    0.9123 C   0  0  0  0  0  0  0  0  0  0  0  0
   -0.6675   -1.1183    1.1434 C   0  0  0  0  0  0  0  0  0  0  0  0
   -0.6287   -2.3051    1.8317 O   0  0  0  0  0  0  0  0  0  0  0  0
    2.5170   -1.0342    0.3744 H   0  0  0  0  0  0  0  0  0  0  0  0
    1.6392   -2.1439    1.3207 H   0  0  0  0  0  0  0  0  0  0  0  0
    1.4498    1.1079   -0.2917 H   0  0  0  0  0  0  0  0  0  0  0  0
   -0.6420    2.3123   -0.6017 H   0  0  0  0  0  0  0  0  0  0  0  0
   -6.9960    3.0607    0.7032 H   0  0  0  0  0  0  0  0  0  0  0  0
   -5.9800    3.9508    2.6794 H   0  0  0  0  0  0  0  0  0  0  0  0
   -5.2611    2.4062    3.1317 H   0  0  0  0  0  0  0  0  0  0  0  0
   -8.0491    3.3314    3.5930 H   0  0  0  0  0  0  0  0  0  0  0  0
   -7.1277    2.0808    4.4283 H   0  0  0  0  0  0  0  0  0  0  0  0
   -9.0420    1.8202    2.2041 H   0  0  0  0  0  0  0  0  0  0  0  0
   -8.3671    0.5257    3.1966 H   0  0  0  0  0  0  0  0  0  0  0  0
   -7.6994    0.7489    0.5630 H   0  0  0  0  0  0  0  0  0  0  0  0
   -6.5096    0.2278    1.7630 H   0  0  0  0  0  0  0  0  0  0  0  0
   -5.5229    4.8121   -3.0893 H   0  0  0  0  0  0  0  0  0  0  0  0
   -1.7390    2.8557   -3.7467 H   0  0  0  0  0  0  0  0  0  0  0  0
   -1.5134    1.5669   -2.6414 H   0  0  0  0  0  0  0  0  0  0  0  0
   -2.8140   -0.9041    1.2689 H   0  0  0  0  0  0  0  0  0  0  0  0
   -1.5071   -2.4568    2.2174 H   0  0  0  0  0  0  0  0  0  0  0  0
  1  2  1  0  0  0  0
  1 24  1  0  0  0  0
  1 25  1  0  0  0  0
  2  3  1  0  0  0  0
  2 22  2  0  0  0  0
  3  4  2  0  0  0  0
  3 26  1  0  0  0  0
  4  5  1  0  0  0  0
  4 27  1  0  0  0  0
  5  6  1  0  0  0  0
  5 21  2  0  0  0  0
  6  7  2  0  0  0  0
  6 20  1  0  0  0  0
  7  8  1  0  0  0  0
  8  9  1  0  0  0  0
  8 14  1  0  0  0  0
  9 10  1  0  0  0  0
  9 13  1  0  0  0  0
  9 28  1  0  0  0  0
 10 11  1  0  0  0  0
 10 29  1  0  0  0  0
 10 30  1  0  0  0  0
 11 12  1  0  0  0  0
 11 31  1  0  0  0  0
 11 32  1  0  0  0  0
 12 13  1  0  0  0  0
 12 33  1  0  0  0  0
 12 34  1  0  0  0  0
 13 35  1  0  0  0  0
 13 36  1  0  0  0  0
 14 15  1  0  0  0  0
 14 20  2  0  0  0  0
 15 16  2  0  0  0  0
 16 17  1  0  0  0  0
 16 37  1  0  0  0  0
 17 18  2  0  0  0  0
 18 19  1  0  0  0  0
 18 20  1  0  0  0  0
 19 38  1  0  0  0  0
 19 39  1  0  0  0  0
 21 22  1  0  0  0  0
 21 40  1  0  0  0  0
 22 23  1  0  0  0  0
 23 41  1  0  0  0  0
M  END
$$$$
