CHEMBL3897215
 OpenBabel04072215373D

 63 67  0  0  1  0  0  0  0  0999 V2000
    0.8871   11.4147    3.3095 C   0  0  0  0  0  0  0  0  0  0  0  0
   -0.4535   10.9596    2.7347 C   0  0  0  0  0  0  0  0  0  0  0  0
   -0.6729    9.5039    2.8351 N   0  0  0  0  0  0  0  0  0  0  0  0
   -2.0081    9.1587    2.3154 C   0  0  0  0  0  0  0  0  0  0  0  0
   -2.2860    7.6594    2.4512 C   0  0  0  0  0  0  0  0  0  0  0  0
   -1.2254    6.8171    1.7432 C   0  0  0  0  0  0  0  0  0  0  0  0
    0.1840    7.2273    2.1854 C   0  0  3  0  0  0  0  0  0  0  0  0
    1.2474    6.6074    1.3182 C   0  0  0  0  0  0  0  0  0  0  0  0
    1.3216    6.8219    0.0238 N   0  0  0  0  0  0  0  0  0  0  0  0
    2.5280    6.3611   -0.4794 C   0  0  0  0  0  0  0  0  0  0  0  0
    2.7849    6.6418   -1.9193 C   0  0  0  0  0  0  0  0  0  0  0  0
    4.1101    6.3219   -2.3795 O   0  0  0  0  0  0  0  0  0  0  0  0
    4.3936    6.8209   -3.6328 C   0  0  0  0  0  0  0  0  0  0  0  0
    3.3758    7.2177   -4.5283 C   0  0  0  0  0  0  0  0  0  0  0  0
    3.6281    7.8065   -5.7573 C   0  0  0  0  0  0  0  0  0  0  0  0
    2.5934    8.1914   -6.5098 N   0  0  0  0  0  0  0  0  0  0  0  0
    2.8857    8.7680   -7.6791 C   0  0  0  0  0  0  0  0  0  0  0  0
    4.1116    8.9731   -8.1646 N   0  0  0  0  0  0  0  0  0  0  0  0
    5.1469    8.5726   -7.4035 C   0  0  0  0  0  0  0  0  0  0  0  0
    6.4790    8.7450   -7.8674 N   0  0  0  0  0  0  0  0  0  0  0  0
    6.9306    9.4096   -9.0235 C   0  0  0  0  0  0  0  0  0  0  0  0
    6.2265   10.4652   -9.6134 C   0  0  0  0  0  0  0  0  0  0  0  0
    6.7215   11.1132  -10.7494 C   0  0  0  0  0  0  0  0  0  0  0  0
    7.9547   10.7423  -11.2889 C   0  0  0  0  0  0  0  0  0  0  0  0
    8.4936   11.5697  -12.7007 Cl  0  0  0  0  0  0  0  0  0  0  0  0
    8.6947    9.7330  -10.6728 C   0  0  0  0  0  0  0  0  0  0  0  0
   10.2452    9.2375  -11.2552 Cl  0  0  0  0  0  0  0  0  0  0  0  0
    8.1908    9.0835   -9.5427 C   0  0  0  0  0  0  0  0  0  0  0  0
    4.9523    7.9854   -6.1421 C   0  0  0  0  0  0  0  0  0  0  0  0
    5.9847    7.5781   -5.2668 C   0  0  0  0  0  0  0  0  0  0  0  0
    5.7228    6.9782   -4.0297 C   0  0  0  0  0  0  0  0  0  0  0  0
    6.8754    6.6933   -3.3606 O   0  0  0  0  0  0  0  0  0  0  0  0
    6.8917    5.6620   -2.3889 C   0  0  0  0  0  0  0  0  0  0  0  0
    3.3264    5.7195    0.4442 C   0  0  0  0  0  0  0  0  0  0  0  0
    2.5631    5.7266    1.9832 S   0  0  0  0  0  0  0  0  0  0  0  0
    0.3556    8.7578    2.0912 C   0  0  0  0  0  0  0  0  0  0  0  0
    0.9254   12.5075    3.3557 H   0  0  0  0  0  0  0  0  0  0  0  0
    1.7283   11.0931    2.6867 H   0  0  0  0  0  0  0  0  0  0  0  0
    1.0365   11.0266    4.3223 H   0  0  0  0  0  0  0  0  0  0  0  0
   -0.5295   11.2984    1.6933 H   0  0  0  0  0  0  0  0  0  0  0  0
   -1.2404   11.4739    3.2997 H   0  0  0  0  0  0  0  0  0  0  0  0
   -2.1070    9.4553    1.2618 H   0  0  0  0  0  0  0  0  0  0  0  0
   -2.7781    9.7019    2.8773 H   0  0  0  0  0  0  0  0  0  0  0  0
   -3.2730    7.4307    2.0319 H   0  0  0  0  0  0  0  0  0  0  0  0
   -2.3216    7.3881    3.5137 H   0  0  0  0  0  0  0  0  0  0  0  0
   -1.3421    6.9404    0.6586 H   0  0  0  0  0  0  0  0  0  0  0  0
   -1.3945    5.7540    1.9544 H   0  0  0  0  0  0  0  0  0  0  0  0
    0.3201    6.9222    3.2318 H   0  0  0  0  0  0  0  0  0  0  0  0
    2.6039    7.7175   -2.0593 H   0  0  0  0  0  0  0  0  0  0  0  0
    2.0463    6.0623   -2.4877 H   0  0  0  0  0  0  0  0  0  0  0  0
    2.3218    7.0989   -4.2895 H   0  0  0  0  0  0  0  0  0  0  0  0
    2.0508    9.1000   -8.2888 H   0  0  0  0  0  0  0  0  0  0  0  0
    6.9924    7.8831   -7.7114 H   0  0  0  0  0  0  0  0  0  0  0  0
    5.2777   10.7996   -9.2035 H   0  0  0  0  0  0  0  0  0  0  0  0
    6.1317   11.9079  -11.2013 H   0  0  0  0  0  0  0  0  0  0  0  0
    8.7855    8.3062   -9.0683 H   0  0  0  0  0  0  0  0  0  0  0  0
    7.0261    7.7483   -5.5306 H   0  0  0  0  0  0  0  0  0  0  0  0
    7.8913    5.2113   -2.4226 H   0  0  0  0  0  0  0  0  0  0  0  0
    6.1721    4.8618   -2.5803 H   0  0  0  0  0  0  0  0  0  0  0  0
    6.7607    6.0949   -1.3941 H   0  0  0  0  0  0  0  0  0  0  0  0
    4.3021    5.2810    0.2958 H   0  0  0  0  0  0  0  0  0  0  0  0
    0.3544    9.0787    1.0391 H   0  0  0  0  0  0  0  0  0  0  0  0
    1.3499    8.9883    2.4901 H   0  0  0  0  0  0  0  0  0  0  0  0
  1  2  1  0  0  0  0
  1 37  1  0  0  0  0
  1 38  1  0  0  0  0
  1 39  1  0  0  0  0
  2  3  1  0  0  0  0
  2 40  1  0  0  0  0
  2 41  1  0  0  0  0
  3  4  1  0  0  0  0
  3 36  1  0  0  0  0
  4  5  1  0  0  0  0
  4 42  1  0  0  0  0
  4 43  1  0  0  0  0
  5  6  1  0  0  0  0
  5 44  1  0  0  0  0
  5 45  1  0  0  0  0
  6  7  1  0  0  0  0
  6 46  1  0  0  0  0
  6 47  1  0  0  0  0
  7  8  1  0  0  0  0
  7 36  1  0  0  0  0
  7 48  1  0  0  0  0
  8  9  2  0  0  0  0
  8 35  1  0  0  0  0
  9 10  1  0  0  0  0
 10 11  1  0  0  0  0
 10 34  2  0  0  0  0
 11 12  1  0  0  0  0
 11 49  1  0  0  0  0
 11 50  1  0  0  0  0
 12 13  1  0  0  0  0
 13 14  1  0  0  0  0
 13 31  2  0  0  0  0
 14 15  2  0  0  0  0
 14 51  1  0  0  0  0
 15 16  1  0  0  0  0
 15 29  1  0  0  0  0
 16 17  2  0  0  0  0
 17 18  1  0  0  0  0
 17 52  1  0  0  0  0
 18 19  2  0  0  0  0
 19 20  1  0  0  0  0
 19 29  1  0  0  0  0
 20 21  1  0  0  0  0
 20 53  1  0  0  0  0
 21 22  1  0  0  0  0
 21 28  2  0  0  0  0
 22 23  2  0  0  0  0
 22 54  1  0  0  0  0
 23 24  1  0  0  0  0
 23 55  1  0  0  0  0
 24 25  1  0  0  0  0
 24 26  2  0  0  0  0
 26 27  1  0  0  0  0
 26 28  1  0  0  0  0
 28 56  1  0  0  0  0
 29 30  2  0  0  0  0
 30 31  1  0  0  0  0
 30 57  1  0  0  0  0
 31 32  1  0  0  0  0
 32 33  1  0  0  0  0
 33 58  1  0  0  0  0
 33 59  1  0  0  0  0
 33 60  1  0  0  0  0
 34 35  1  0  0  0  0
 34 61  1  0  0  0  0
 36 62  1  0  0  0  0
 36 63  1  0  0  0  0
M  END
$$$$
