CHEMBL2006564
 OpenBabel04072215363D

 47 50  0  0  0  0  0  0  0  0999 V2000
    1.8938   -0.3527   -3.4327 C   0  0  0  0  0  0  0  0  0  0  0  0
    2.0974    0.9304   -2.6338 C   0  0  0  0  0  0  0  0  0  0  0  0
    2.9112    0.7272   -1.4269 N   0  0  0  0  0  0  0  0  0  0  0  0
    2.2710    0.3346   -0.2549 C   0  0  0  0  0  0  0  0  0  0  0  0
    3.0631    0.3135    1.0356 C   0  0  0  0  0  0  0  0  0  0  0  0
    1.0622    0.0853   -0.2148 O   0  0  0  0  0  0  0  0  0  0  0  0
    4.3193    0.7574   -1.5935 C   0  0  0  0  0  0  0  0  0  0  0  0
    5.1008   -0.3662   -1.3123 C   0  0  0  0  0  0  0  0  0  0  0  0
    6.4801   -0.3339   -1.5402 C   0  0  0  0  0  0  0  0  0  0  0  0
    7.1018    0.8160   -2.0451 C   0  0  0  0  0  0  0  0  0  0  0  0
    8.4834    0.8739   -2.2870 N   0  0  0  0  0  0  0  0  0  0  0  0
    9.2817   -0.1577   -2.7942 C   0  0  0  0  0  0  0  0  0  0  0  0
   10.5907   -0.1218   -2.4486 N   0  0  0  0  0  0  0  0  0  0  0  0
   11.4582   -1.0470   -2.9560 C   0  0  0  0  0  0  0  0  0  0  0  0
   12.8334   -1.0239   -2.6606 N   0  0  0  0  0  0  0  0  0  0  0  0
   13.3394   -0.4129   -1.4399 C   0  0  0  0  0  0  0  0  0  0  0  0
   14.8192   -0.4320   -1.1626 C   0  0  0  0  0  0  0  0  0  0  0  0
   13.8881   -1.2491   -0.3167 C   0  0  0  0  0  0  0  0  0  0  0  0
   10.9340   -2.0165   -3.8278 C   0  0  0  0  0  0  0  0  0  0  0  0
   11.5021   -3.0750   -4.5107 N   0  0  0  0  0  0  0  0  0  0  0  0
   10.5028   -3.6230   -5.1723 C   0  0  0  0  0  0  0  0  0  0  0  0
    9.3201   -2.9751   -4.9402 N   0  0  0  0  0  0  0  0  0  0  0  0
    9.5811   -1.9496   -4.0817 C   0  0  0  0  0  0  0  0  0  0  0  0
    8.7074   -1.0667   -3.6066 N   0  0  0  0  0  0  0  0  0  0  0  0
    6.3202    1.9543   -2.2642 C   0  0  0  0  0  0  0  0  0  0  0  0
    4.9359    1.9168   -2.0719 C   0  0  0  0  0  0  0  0  0  0  0  0
    1.2765   -0.1521   -4.3148 H   0  0  0  0  0  0  0  0  0  0  0  0
    1.3923   -1.1213   -2.8359 H   0  0  0  0  0  0  0  0  0  0  0  0
    2.8482   -0.7644   -3.7767 H   0  0  0  0  0  0  0  0  0  0  0  0
    1.1172    1.3211   -2.3370 H   0  0  0  0  0  0  0  0  0  0  0  0
    2.5549    1.6909   -3.2749 H   0  0  0  0  0  0  0  0  0  0  0  0
    4.1040    0.6183    0.9333 H   0  0  0  0  0  0  0  0  0  0  0  0
    3.0269   -0.6936    1.4593 H   0  0  0  0  0  0  0  0  0  0  0  0
    2.5970    1.0164    1.7338 H   0  0  0  0  0  0  0  0  0  0  0  0
    4.6467   -1.2870   -0.9558 H   0  0  0  0  0  0  0  0  0  0  0  0
    7.0671   -1.2262   -1.3342 H   0  0  0  0  0  0  0  0  0  0  0  0
    9.0176    1.4013   -1.6085 H   0  0  0  0  0  0  0  0  0  0  0  0
   13.2938   -1.8488   -3.0412 H   0  0  0  0  0  0  0  0  0  0  0  0
   12.8188    0.5027   -1.1676 H   0  0  0  0  0  0  0  0  0  0  0  0
   15.2614    0.4562   -0.7272 H   0  0  0  0  0  0  0  0  0  0  0  0
   15.4680   -0.9557   -1.8547 H   0  0  0  0  0  0  0  0  0  0  0  0
   13.7086   -0.9171    0.6992 H   0  0  0  0  0  0  0  0  0  0  0  0
   13.9110   -2.3259   -0.4330 H   0  0  0  0  0  0  0  0  0  0  0  0
   10.5696   -4.4801   -5.8294 H   0  0  0  0  0  0  0  0  0  0  0  0
    8.4148   -3.1931   -5.3281 H   0  0  0  0  0  0  0  0  0  0  0  0
    6.7803    2.8681   -2.6327 H   0  0  0  0  0  0  0  0  0  0  0  0
    4.3506    2.8103   -2.2719 H   0  0  0  0  0  0  0  0  0  0  0  0
  1  2  1  0  0  0  0
  1 27  1  0  0  0  0
  1 28  1  0  0  0  0
  1 29  1  0  0  0  0
  2  3  1  0  0  0  0
  2 30  1  0  0  0  0
  2 31  1  0  0  0  0
  3  4  1  0  0  0  0
  3  7  1  0  0  0  0
  4  5  1  0  0  0  0
  4  6  2  0  0  0  0
  5 32  1  0  0  0  0
  5 33  1  0  0  0  0
  5 34  1  0  0  0  0
  7  8  1  0  0  0  0
  7 26  2  0  0  0  0
  8  9  2  0  0  0  0
  8 35  1  0  0  0  0
  9 10  1  0  0  0  0
  9 36  1  0  0  0  0
 10 11  1  0  0  0  0
 10 25  2  0  0  0  0
 11 12  1  0  0  0  0
 11 37  1  0  0  0  0
 12 13  1  0  0  0  0
 12 24  2  0  0  0  0
 13 14  2  0  0  0  0
 14 15  1  0  0  0  0
 14 19  1  0  0  0  0
 15 16  1  0  0  0  0
 15 38  1  0  0  0  0
 16 17  1  0  0  0  0
 16 18  1  0  0  0  0
 16 39  1  0  0  0  0
 17 18  1  0  0  0  0
 17 40  1  0  0  0  0
 17 41  1  0  0  0  0
 18 42  1  0  0  0  0
 18 43  1  0  0  0  0
 19 20  1  0  0  0  0
 19 23  2  0  0  0  0
 20 21  2  0  0  0  0
 21 22  1  0  0  0  0
 21 44  1  0  0  0  0
 22 23  1  0  0  0  0
 22 45  1  0  0  0  0
 23 24  1  0  0  0  0
 25 26  1  0  0  0  0
 25 46  1  0  0  0  0
 26 47  1  0  0  0  0
M  END
$$$$
