CHEMBL4205052
 OpenBabel04072215383D

 48 51  0  0  1  0  0  0  0  0999 V2000
    2.0584    3.9108   -2.2356 C   0  0  0  0  0  0  0  0  0  0  0  0
    3.3943    3.4337   -2.0099 N   0  0  0  0  0  0  0  0  0  0  0  0
    3.6645    2.0937   -1.8411 C   0  0  0  0  0  0  0  0  0  0  0  0
    2.8103    1.2152   -1.8892 O   0  0  0  0  0  0  0  0  0  0  0  0
    5.1082    1.7683   -1.6079 C   0  0  0  0  0  0  0  0  0  0  0  0
    5.4874    0.4405   -1.4787 C   0  0  0  0  0  0  0  0  0  0  0  0
    6.8462    0.1592   -1.3930 C   0  0  0  0  0  0  0  0  0  0  0  0
    7.3797   -1.1120   -1.3402 O   0  0  0  0  0  0  0  0  0  0  0  0
    6.7411   -2.1443   -1.9851 C   0  0  0  0  0  0  0  0  0  0  0  0
    6.0499   -2.0108   -3.1931 C   0  0  0  0  0  0  0  0  0  0  0  0
    5.3642   -3.1002   -3.7305 C   0  0  0  0  0  0  0  0  0  0  0  0
    5.4208   -4.3477   -3.1008 C   0  0  0  0  0  0  0  0  0  0  0  0
    4.6628   -5.4737   -3.6887 C   0  0  0  0  0  0  0  0  0  0  0  0
    3.9068   -5.3512   -4.7378 N   0  0  0  0  0  0  0  0  0  0  0  0
    3.4699   -6.5894   -5.0422 N   0  0  0  0  0  0  0  0  0  0  0  0
    3.6965   -7.5683   -3.9811 C   0  0  3  0  0  0  0  0  0  0  0  0
    4.1948   -8.8834   -4.5284 C   0  0  0  0  0  0  0  0  0  0  0  0
    5.3690   -8.9448   -5.3004 C   0  0  0  0  0  0  0  0  0  0  0  0
    5.8432  -10.1619   -5.7873 C   0  0  0  0  0  0  0  0  0  0  0  0
    5.1427  -11.3340   -5.5209 C   0  0  0  0  0  0  0  0  0  0  0  0
    3.9676  -11.2880   -4.7718 C   0  0  0  0  0  0  0  0  0  0  0  0
    3.4950  -10.0708   -4.2774 C   0  0  0  0  0  0  0  0  0  0  0  0
    4.7140   -6.8538   -3.0948 C   0  0  0  0  0  0  0  0  0  0  0  0
    6.1974   -4.5057   -1.9483 C   0  0  0  0  0  0  0  0  0  0  0  0
    6.8526   -3.4029   -1.3919 C   0  0  0  0  0  0  0  0  0  0  0  0
    7.7594    1.2062   -1.3228 C   0  0  0  0  0  0  0  0  0  0  0  0
    7.2829    2.5038   -1.4144 C   0  0  0  0  0  0  0  0  0  0  0  0
    5.9791    2.8168   -1.5777 N   0  0  0  0  0  0  0  0  0  0  0  0
    2.0798    4.9996   -2.3170 H   0  0  0  0  0  0  0  0  0  0  0  0
    1.4239    3.6089   -1.3980 H   0  0  0  0  0  0  0  0  0  0  0  0
    1.6680    3.4722   -3.1582 H   0  0  0  0  0  0  0  0  0  0  0  0
    4.1849    4.0718   -1.9709 H   0  0  0  0  0  0  0  0  0  0  0  0
    4.7338   -0.3386   -1.4848 H   0  0  0  0  0  0  0  0  0  0  0  0
    6.0046   -1.0606   -3.7173 H   0  0  0  0  0  0  0  0  0  0  0  0
    4.7821   -2.9665   -4.6406 H   0  0  0  0  0  0  0  0  0  0  0  0
    2.5279   -6.6169   -5.4303 H   0  0  0  0  0  0  0  0  0  0  0  0
    2.7670   -7.7088   -3.4147 H   0  0  0  0  0  0  0  0  0  0  0  0
    5.9157   -8.0317   -5.5323 H   0  0  0  0  0  0  0  0  0  0  0  0
    6.7544  -10.1887   -6.3784 H   0  0  0  0  0  0  0  0  0  0  0  0
    5.5079  -12.2831   -5.9033 H   0  0  0  0  0  0  0  0  0  0  0  0
    3.4158  -12.2028   -4.5737 H   0  0  0  0  0  0  0  0  0  0  0  0
    2.5741  -10.0585   -3.6989 H   0  0  0  0  0  0  0  0  0  0  0  0
    5.7339   -7.2441   -3.1595 H   0  0  0  0  0  0  0  0  0  0  0  0
    4.3853   -6.8317   -2.0512 H   0  0  0  0  0  0  0  0  0  0  0  0
    6.2999   -5.4702   -1.4602 H   0  0  0  0  0  0  0  0  0  0  0  0
    7.4411   -3.5250   -0.4857 H   0  0  0  0  0  0  0  0  0  0  0  0
    8.8208    1.0133   -1.2076 H   0  0  0  0  0  0  0  0  0  0  0  0
    7.9626    3.3508   -1.3653 H   0  0  0  0  0  0  0  0  0  0  0  0
  1  2  1  0  0  0  0
  1 29  1  0  0  0  0
  1 30  1  0  0  0  0
  1 31  1  0  0  0  0
  2  3  1  0  0  0  0
  2 32  1  0  0  0  0
  3  4  2  0  0  0  0
  3  5  1  0  0  0  0
  5  6  1  0  0  0  0
  5 28  2  0  0  0  0
  6  7  2  0  0  0  0
  6 33  1  0  0  0  0
  7  8  1  0  0  0  0
  7 26  1  0  0  0  0
  8  9  1  0  0  0  0
  9 10  1  0  0  0  0
  9 25  2  0  0  0  0
 10 11  2  0  0  0  0
 10 34  1  0  0  0  0
 11 12  1  0  0  0  0
 11 35  1  0  0  0  0
 12 13  1  0  0  0  0
 12 24  2  0  0  0  0
 13 14  2  0  0  0  0
 13 23  1  0  0  0  0
 14 15  1  0  0  0  0
 15 16  1  0  0  0  0
 15 36  1  0  0  0  0
 16 17  1  0  0  0  0
 16 23  1  0  0  0  0
 16 37  1  0  0  0  0
 17 18  1  0  0  0  0
 17 22  2  0  0  0  0
 18 19  2  0  0  0  0
 18 38  1  0  0  0  0
 19 20  1  0  0  0  0
 19 39  1  0  0  0  0
 20 21  2  0  0  0  0
 20 40  1  0  0  0  0
 21 22  1  0  0  0  0
 21 41  1  0  0  0  0
 22 42  1  0  0  0  0
 23 43  1  0  0  0  0
 23 44  1  0  0  0  0
 24 25  1  0  0  0  0
 24 45  1  0  0  0  0
 25 46  1  0  0  0  0
 26 27  2  0  0  0  0
 26 47  1  0  0  0  0
 27 28  1  0  0  0  0
 27 48  1  0  0  0  0
M  END
$$$$
