CHEMBL2086748
 OpenBabel04072215363D

 61 66  0  0  0  0  0  0  0  0999 V2000
   -0.4591    3.5870    4.9177 C   0  0  0  0  0  0  0  0  0  0  0  0
   -0.0692    2.2495    4.4713 N   0  0  0  0  0  0  0  0  0  0  0  0
   -1.0726    1.2554    4.9047 C   0  0  0  0  0  0  0  0  0  0  0  0
   -0.7263   -0.1587    4.3990 C   0  0  0  0  0  0  0  0  0  0  0  0
   -0.6463   -0.2035    2.9061 N   0  0  0  0  0  0  0  0  0  0  0  0
   -2.0985   -0.1262    2.0069 S   0  0  0  0  0  0  0  0  0  0  0  0
   -2.9121    0.9423    2.5238 O   0  0  0  0  0  0  0  0  0  0  0  0
   -1.7487   -0.1503    0.6017 O   0  0  0  0  0  0  0  0  0  0  0  0
   -2.9424   -1.6662    2.3582 C   0  0  0  0  0  0  0  0  0  0  0  0
   -4.2421   -1.6177    2.9033 C   0  0  0  0  0  0  0  0  0  0  0  0
   -4.9169   -2.8084    3.1753 C   0  0  0  0  0  0  0  0  0  0  0  0
   -4.2892   -4.0012    2.8465 C   0  0  0  0  0  0  0  0  0  0  0  0
   -2.9996   -4.0850    2.2912 C   0  0  0  0  0  0  0  0  0  0  0  0
   -2.3145   -2.8955    2.0581 C   0  0  0  0  0  0  0  0  0  0  0  0
   -2.7118   -5.5521    2.1157 C   0  0  0  0  0  0  0  0  0  0  0  0
   -1.6181   -6.2070    1.6338 C   0  0  0  0  0  0  0  0  0  0  0  0
   -0.4024   -5.4248    1.2684 C   0  0  0  0  0  0  0  0  0  0  0  0
    0.5575   -5.1545    2.2555 C   0  0  0  0  0  0  0  0  0  0  0  0
    1.7484   -4.4990    1.9322 C   0  0  0  0  0  0  0  0  0  0  0  0
    2.0074   -4.1351    0.6126 C   0  0  0  0  0  0  0  0  0  0  0  0
    1.0612   -4.3946   -0.3785 C   0  0  0  0  0  0  0  0  0  0  0  0
   -0.1499   -5.0170   -0.0510 C   0  0  0  0  0  0  0  0  0  0  0  0
   -1.5880   -7.6515    1.4570 C   0  0  0  0  0  0  0  0  0  0  0  0
   -1.0348   -8.6513    2.1377 N   0  0  0  0  0  0  0  0  0  0  0  0
   -1.1351   -9.7872    1.3350 C   0  0  0  0  0  0  0  0  0  0  0  0
   -0.7426  -11.1254    1.5154 C   0  0  0  0  0  0  0  0  0  0  0  0
   -0.8549  -12.0361    0.4445 C   0  0  0  0  0  0  0  0  0  0  0  0
   -1.3885  -11.6362   -0.7853 C   0  0  0  0  0  0  0  0  0  0  0  0
   -1.8648  -10.3363   -0.9603 C   0  0  0  0  0  0  0  0  0  0  0  0
   -1.7158   -9.4493    0.1123 C   0  0  0  0  0  0  0  0  0  0  0  0
   -2.0749   -8.1325    0.2595 N   0  0  0  0  0  0  0  0  0  0  0  0
   -3.9469   -6.2655    2.6526 C   0  0  0  0  0  0  0  0  0  0  0  0
   -4.1648   -7.4568    2.7475 O   0  0  0  0  0  0  0  0  0  0  0  0
   -4.8197   -5.2659    3.0481 N   0  0  0  0  0  0  0  0  0  0  0  0
    0.3963    0.7895    2.4668 C   0  0  0  0  0  0  0  0  0  0  0  0
    0.1034    2.2112    3.0012 C   0  0  0  0  0  0  0  0  0  0  0  0
   -0.5915    3.6031    6.0057 H   0  0  0  0  0  0  0  0  0  0  0  0
   -1.3942    3.9261    4.4568 H   0  0  0  0  0  0  0  0  0  0  0  0
    0.3268    4.3134    4.6858 H   0  0  0  0  0  0  0  0  0  0  0  0
   -2.0719    1.5517    4.5745 H   0  0  0  0  0  0  0  0  0  0  0  0
   -1.1048    1.2290    5.9989 H   0  0  0  0  0  0  0  0  0  0  0  0
   -1.4124   -0.9147    4.7866 H   0  0  0  0  0  0  0  0  0  0  0  0
    0.2673   -0.4316    4.7906 H   0  0  0  0  0  0  0  0  0  0  0  0
   -4.7214   -0.6652    3.1272 H   0  0  0  0  0  0  0  0  0  0  0  0
   -5.9003   -2.7849    3.6389 H   0  0  0  0  0  0  0  0  0  0  0  0
   -1.3005   -2.8828    1.6706 H   0  0  0  0  0  0  0  0  0  0  0  0
    0.3944   -5.4826    3.2800 H   0  0  0  0  0  0  0  0  0  0  0  0
    2.4827   -4.2951    2.7076 H   0  0  0  0  0  0  0  0  0  0  0  0
    2.9504   -3.6577    0.3562 H   0  0  0  0  0  0  0  0  0  0  0  0
    1.2774   -4.1283   -1.4111 H   0  0  0  0  0  0  0  0  0  0  0  0
   -0.8726   -5.2015   -0.8410 H   0  0  0  0  0  0  0  0  0  0  0  0
   -0.3336  -11.4649    2.4626 H   0  0  0  0  0  0  0  0  0  0  0  0
   -0.5093  -13.0632    0.5541 H   0  0  0  0  0  0  0  0  0  0  0  0
   -1.4365  -12.3391   -1.6145 H   0  0  0  0  0  0  0  0  0  0  0  0
   -2.3154  -10.0261   -1.8952 H   0  0  0  0  0  0  0  0  0  0  0  0
   -2.5675   -7.5983   -0.4326 H   0  0  0  0  0  0  0  0  0  0  0  0
   -5.7121   -5.4683    3.4757 H   0  0  0  0  0  0  0  0  0  0  0  0
    0.4871    0.7943    1.3760 H   0  0  0  0  0  0  0  0  0  0  0  0
    1.3675    0.4445    2.8465 H   0  0  0  0  0  0  0  0  0  0  0  0
   -0.7822    2.6153    2.4958 H   0  0  0  0  0  0  0  0  0  0  0  0
    0.9500    2.8543    2.7289 H   0  0  0  0  0  0  0  0  0  0  0  0
  1  2  1  0  0  0  0
  1 37  1  0  0  0  0
  1 38  1  0  0  0  0
  1 39  1  0  0  0  0
  2  3  1  0  0  0  0
  2 36  1  0  0  0  0
  3  4  1  0  0  0  0
  3 40  1  0  0  0  0
  3 41  1  0  0  0  0
  4  5  1  0  0  0  0
  4 42  1  0  0  0  0
  4 43  1  0  0  0  0
  5  6  1  0  0  0  0
  5 35  1  0  0  0  0
  6  7  2  0  0  0  0
  6  8  2  0  0  0  0
  6  9  1  0  0  0  0
  9 10  1  0  0  0  0
  9 14  2  0  0  0  0
 10 11  2  0  0  0  0
 10 44  1  0  0  0  0
 11 12  1  0  0  0  0
 11 45  1  0  0  0  0
 12 13  2  0  0  0  0
 12 34  1  0  0  0  0
 13 14  1  0  0  0  0
 13 15  1  0  0  0  0
 14 46  1  0  0  0  0
 15 16  2  3  0  0  0
 15 32  1  0  0  0  0
 16 17  1  0  0  0  0
 16 23  1  0  0  0  0
 17 18  1  0  0  0  0
 17 22  2  0  0  0  0
 18 19  2  0  0  0  0
 18 47  1  0  0  0  0
 19 20  1  0  0  0  0
 19 48  1  0  0  0  0
 20 21  2  0  0  0  0
 20 49  1  0  0  0  0
 21 22  1  0  0  0  0
 21 50  1  0  0  0  0
 22 51  1  0  0  0  0
 23 24  2  0  0  0  0
 23 31  1  0  0  0  0
 24 25  1  0  0  0  0
 25 26  1  0  0  0  0
 25 30  2  0  0  0  0
 26 27  2  0  0  0  0
 26 52  1  0  0  0  0
 27 28  1  0  0  0  0
 27 53  1  0  0  0  0
 28 29  2  0  0  0  0
 28 54  1  0  0  0  0
 29 30  1  0  0  0  0
 29 55  1  0  0  0  0
 30 31  1  0  0  0  0
 31 56  1  0  0  0  0
 32 33  2  0  0  0  0
 32 34  1  0  0  0  0
 34 57  1  0  0  0  0
 35 36  1  0  0  0  0
 35 58  1  0  0  0  0
 35 59  1  0  0  0  0
 36 60  1  0  0  0  0
 36 61  1  0  0  0  0
M  END
$$$$
