CHEMBL3968030
 OpenBabel04072215373D

 59 62  0  0  1  0  0  0  0  0999 V2000
    6.1946    3.0578   -4.0902 C   0  0  0  0  0  0  0  0  0  0  0  0
    5.5143    1.8649   -3.4295 C   0  0  0  0  0  0  0  0  0  0  0  0
    4.6716    2.1921   -2.2607 N   0  0  0  0  0  0  0  0  0  0  0  0
    3.5848    3.1310   -2.5963 C   0  0  0  0  0  0  0  0  0  0  0  0
    2.7236    3.4886   -1.3624 C   0  0  0  0  0  0  0  0  0  0  0  0
    2.1371    2.3420   -0.6443 N   0  0  0  0  0  0  0  0  0  0  0  0
    1.0242    1.7411   -1.3734 C   0  0  0  0  0  0  0  0  0  0  0  0
    3.1972    1.3516   -0.3775 C   0  0  0  0  0  0  0  0  0  0  0  0
    4.0701    0.9781   -1.6128 C   0  0  3  0  0  0  0  0  0  0  0  0
    5.1680    0.0163   -1.1547 C   0  0  0  0  0  0  0  0  0  0  0  0
    4.6826   -1.1993   -0.6000 O   0  0  0  0  0  0  0  0  0  0  0  0
    5.2315   -2.3417   -1.1251 C   0  0  0  0  0  0  0  0  0  0  0  0
    4.3092   -3.4118   -1.1364 C   0  0  0  0  0  0  0  0  0  0  0  0
    4.6041   -4.6601   -1.6695 C   0  0  0  0  0  0  0  0  0  0  0  0
    3.6856   -5.6346   -1.6500 N   0  0  0  0  0  0  0  0  0  0  0  0
    4.0453   -6.8122   -2.1594 C   0  0  0  0  0  0  0  0  0  0  0  0
    5.2426   -7.1214   -2.6666 N   0  0  0  0  0  0  0  0  0  0  0  0
    6.1659   -6.1444   -2.6767 C   0  0  0  0  0  0  0  0  0  0  0  0
    7.4927   -6.4074   -3.1263 N   0  0  0  0  0  0  0  0  0  0  0  0
    8.0149   -7.6000   -3.6636 C   0  0  0  0  0  0  0  0  0  0  0  0
    7.2351   -8.5001   -4.3983 C   0  0  0  0  0  0  0  0  0  0  0  0
    7.7944   -9.6847   -4.9079 C   0  0  0  0  0  0  0  0  0  0  0  0
    9.1453   -9.9496   -4.7174 C   0  0  0  0  0  0  0  0  0  0  0  0
    9.7591  -11.4468   -5.3346 Cl  0  0  0  0  0  0  0  0  0  0  0  0
    9.9588   -9.0202   -4.0602 C   0  0  0  0  0  0  0  0  0  0  0  0
   11.6490   -9.2615   -3.8342 Cl  0  0  0  0  0  0  0  0  0  0  0  0
    9.3873   -7.8477   -3.5563 C   0  0  0  0  0  0  0  0  0  0  0  0
    5.8752   -4.8512   -2.2092 C   0  0  0  0  0  0  0  0  0  0  0  0
    6.7921   -3.7768   -2.2405 C   0  0  0  0  0  0  0  0  0  0  0  0
    6.5087   -2.5405   -1.6615 C   0  0  0  0  0  0  0  0  0  0  0  0
    7.5507   -1.6718   -1.8352 O   0  0  0  0  0  0  0  0  0  0  0  0
    7.9377   -0.8041   -0.7779 C   0  0  0  0  0  0  0  0  0  0  0  0
    6.9131    2.6990   -4.8364 H   0  0  0  0  0  0  0  0  0  0  0  0
    6.7524    3.6483   -3.3558 H   0  0  0  0  0  0  0  0  0  0  0  0
    5.4814    3.7045   -4.6056 H   0  0  0  0  0  0  0  0  0  0  0  0
    6.3550    1.2400   -3.1150 H   0  0  0  0  0  0  0  0  0  0  0  0
    4.9472    1.2965   -4.1751 H   0  0  0  0  0  0  0  0  0  0  0  0
    2.9520    2.7126   -3.3887 H   0  0  0  0  0  0  0  0  0  0  0  0
    4.0047    4.0693   -2.9718 H   0  0  0  0  0  0  0  0  0  0  0  0
    1.9330    4.1904   -1.6600 H   0  0  0  0  0  0  0  0  0  0  0  0
    3.3533    4.0390   -0.6535 H   0  0  0  0  0  0  0  0  0  0  0  0
    0.2390    2.4835   -1.5525 H   0  0  0  0  0  0  0  0  0  0  0  0
    0.5684    0.9461   -0.7732 H   0  0  0  0  0  0  0  0  0  0  0  0
    1.3153    1.3137   -2.3373 H   0  0  0  0  0  0  0  0  0  0  0  0
    2.7533    0.4484    0.0626 H   0  0  0  0  0  0  0  0  0  0  0  0
    3.8465    1.7652    0.4065 H   0  0  0  0  0  0  0  0  0  0  0  0
    3.4356    0.4496   -2.3365 H   0  0  0  0  0  0  0  0  0  0  0  0
    5.7675    0.5147   -0.3888 H   0  0  0  0  0  0  0  0  0  0  0  0
    5.7595   -0.2076   -2.0334 H   0  0  0  0  0  0  0  0  0  0  0  0
    3.3118   -3.2503   -0.7298 H   0  0  0  0  0  0  0  0  0  0  0  0
    3.2999   -7.6039   -2.1536 H   0  0  0  0  0  0  0  0  0  0  0  0
    8.1338   -6.0193   -2.4414 H   0  0  0  0  0  0  0  0  0  0  0  0
    6.1850   -8.3039   -4.5774 H   0  0  0  0  0  0  0  0  0  0  0  0
    7.1511  -10.3753   -5.4327 H   0  0  0  0  0  0  0  0  0  0  0  0
   10.0344   -7.1279   -3.0470 H   0  0  0  0  0  0  0  0  0  0  0  0
    7.7562   -3.8958   -2.7316 H   0  0  0  0  0  0  0  0  0  0  0  0
    9.0112   -0.9178   -0.6041 H   0  0  0  0  0  0  0  0  0  0  0  0
    7.4072   -0.9783    0.1616 H   0  0  0  0  0  0  0  0  0  0  0  0
    7.7993    0.2277   -1.1202 H   0  0  0  0  0  0  0  0  0  0  0  0
  1  2  1  0  0  0  0
  1 33  1  0  0  0  0
  1 34  1  0  0  0  0
  1 35  1  0  0  0  0
  2  3  1  0  0  0  0
  2 36  1  0  0  0  0
  2 37  1  0  0  0  0
  3  4  1  0  0  0  0
  3  9  1  0  0  0  0
  4  5  1  0  0  0  0
  4 38  1  0  0  0  0
  4 39  1  0  0  0  0
  5  6  1  0  0  0  0
  5 40  1  0  0  0  0
  5 41  1  0  0  0  0
  6  7  1  0  0  0  0
  6  8  1  0  0  0  0
  7 42  1  0  0  0  0
  7 43  1  0  0  0  0
  7 44  1  0  0  0  0
  8  9  1  0  0  0  0
  8 45  1  0  0  0  0
  8 46  1  0  0  0  0
  9 10  1  0  0  0  0
  9 47  1  0  0  0  0
 10 11  1  0  0  0  0
 10 48  1  0  0  0  0
 10 49  1  0  0  0  0
 11 12  1  0  0  0  0
 12 13  1  0  0  0  0
 12 30  2  0  0  0  0
 13 14  2  0  0  0  0
 13 50  1  0  0  0  0
 14 15  1  0  0  0  0
 14 28  1  0  0  0  0
 15 16  2  0  0  0  0
 16 17  1  0  0  0  0
 16 51  1  0  0  0  0
 17 18  2  0  0  0  0
 18 19  1  0  0  0  0
 18 28  1  0  0  0  0
 19 20  1  0  0  0  0
 19 52  1  0  0  0  0
 20 21  1  0  0  0  0
 20 27  2  0  0  0  0
 21 22  2  0  0  0  0
 21 53  1  0  0  0  0
 22 23  1  0  0  0  0
 22 54  1  0  0  0  0
 23 24  1  0  0  0  0
 23 25  2  0  0  0  0
 25 26  1  0  0  0  0
 25 27  1  0  0  0  0
 27 55  1  0  0  0  0
 28 29  2  0  0  0  0
 29 30  1  0  0  0  0
 29 56  1  0  0  0  0
 30 31  1  0  0  0  0
 31 32  1  0  0  0  0
 32 57  1  0  0  0  0
 32 58  1  0  0  0  0
 32 59  1  0  0  0  0
M  END
$$$$
