CHEMBL1940178
 OpenBabel04072215363D

 63 68  0  0  0  0  0  0  0  0999 V2000
    1.4688   -1.0895    0.6081 C   0  0  0  0  0  0  0  0  0  0  0  0
    2.6674   -0.3571   -0.0079 C   0  0  0  0  0  0  0  0  0  0  0  0
    2.9352    1.0191    0.5805 C   0  0  0  0  0  0  0  0  0  0  0  0
    3.7835    1.0234    1.7076 C   0  0  0  0  0  0  0  0  0  0  0  0
    4.1484    2.2032    2.3603 C   0  0  0  0  0  0  0  0  0  0  0  0
    3.6727    3.4400    1.9031 C   0  0  0  0  0  0  0  0  0  0  0  0
    2.8483    3.4230    0.7622 C   0  0  0  0  0  0  0  0  0  0  0  0
    2.4640    2.2497    0.0682 C   0  0  0  0  0  0  0  0  0  0  0  0
    1.6816    2.3790   -1.0677 N   0  0  0  0  0  0  0  0  0  0  0  0
    1.6925    3.5762   -1.9168 C   0  0  0  0  0  0  0  0  0  0  0  0
    0.2911    4.2360   -1.9389 C   0  0  0  0  0  0  0  0  0  0  0  0
   -0.8216    3.3444   -2.3518 N   0  0  0  0  0  0  0  0  0  0  0  0
   -0.8217    2.9702   -3.7819 C   0  0  0  0  0  0  0  0  0  0  0  0
   -1.0681    3.9806   -4.8701 C   0  0  0  0  0  0  0  0  0  0  0  0
   -2.1341    2.9837   -4.5309 C   0  0  0  0  0  0  0  0  0  0  0  0
   -0.7822    2.1603   -1.4674 C   0  0  0  0  0  0  0  0  0  0  0  0
    0.5875    1.4620   -1.3735 C   0  0  0  0  0  0  0  0  0  0  0  0
    4.0132    4.7791    2.5910 C   0  0  0  0  0  0  0  0  0  0  0  0
    4.7905    5.6761    1.6029 C   0  0  0  0  0  0  0  0  0  0  0  0
    2.7071    5.4697    3.0428 C   0  0  0  0  0  0  0  0  0  0  0  0
    4.8801    4.5291    3.7999 C   0  0  0  0  0  0  0  0  0  0  0  0
    5.3538    5.4824    4.6672 N   0  0  0  0  0  0  0  0  0  0  0  0
    6.1284    4.8864    5.6407 C   0  0  0  0  0  0  0  0  0  0  0  0
    6.8242    5.4495    6.7247 C   0  0  0  0  0  0  0  0  0  0  0  0
    7.5436    4.5738    7.5580 C   0  0  0  0  0  0  0  0  0  0  0  0
    8.2748    5.1122    8.6663 C   0  0  0  0  0  0  0  0  0  0  0  0
    8.8645    5.5659    9.5699 N   0  0  0  0  0  0  0  0  0  0  0  0
    7.5575    3.2006    7.3204 C   0  0  0  0  0  0  0  0  0  0  0  0
    6.8572    2.6602    6.2401 C   0  0  0  0  0  0  0  0  0  0  0  0
    6.1360    3.5156    5.3866 C   0  0  0  0  0  0  0  0  0  0  0  0
    5.3489    3.3042    4.2287 C   0  0  0  0  0  0  0  0  0  0  0  0
    5.0347    2.0742    3.5431 C   0  0  0  0  0  0  0  0  0  0  0  0
    5.4584    0.9793    3.9099 O   0  0  0  0  0  0  0  0  0  0  0  0
    1.5295   -2.1580    0.3912 H   0  0  0  0  0  0  0  0  0  0  0  0
    0.4960   -0.8050    0.2093 H   0  0  0  0  0  0  0  0  0  0  0  0
    1.4091   -0.9311    1.6884 H   0  0  0  0  0  0  0  0  0  0  0  0
    2.6108   -0.3045   -1.0999 H   0  0  0  0  0  0  0  0  0  0  0  0
    3.5480   -0.9870    0.1844 H   0  0  0  0  0  0  0  0  0  0  0  0
    4.1809    0.0781    2.0792 H   0  0  0  0  0  0  0  0  0  0  0  0
    2.4642    4.3775    0.4134 H   0  0  0  0  0  0  0  0  0  0  0  0
    1.9822    3.2658   -2.9259 H   0  0  0  0  0  0  0  0  0  0  0  0
    2.4575    4.3009   -1.6196 H   0  0  0  0  0  0  0  0  0  0  0  0
    0.3103    5.1382   -2.5578 H   0  0  0  0  0  0  0  0  0  0  0  0
    0.0525    4.5815   -0.9214 H   0  0  0  0  0  0  0  0  0  0  0  0
   -0.1477    2.1574   -4.0498 H   0  0  0  0  0  0  0  0  0  0  0  0
   -0.5256    3.8457   -5.8001 H   0  0  0  0  0  0  0  0  0  0  0  0
   -1.2687    5.0165   -4.6288 H   0  0  0  0  0  0  0  0  0  0  0  0
   -2.3292    2.1907   -5.2444 H   0  0  0  0  0  0  0  0  0  0  0  0
   -3.0290    3.3582   -4.0462 H   0  0  0  0  0  0  0  0  0  0  0  0
   -1.5410    1.4223   -1.7587 H   0  0  0  0  0  0  0  0  0  0  0  0
   -1.0633    2.4818   -0.4540 H   0  0  0  0  0  0  0  0  0  0  0  0
    0.8278    0.9057   -2.2858 H   0  0  0  0  0  0  0  0  0  0  0  0
    0.4600    0.7682   -0.5704 H   0  0  0  0  0  0  0  0  0  0  0  0
    4.2200    5.8861    0.6914 H   0  0  0  0  0  0  0  0  0  0  0  0
    5.7297    5.1980    1.2955 H   0  0  0  0  0  0  0  0  0  0  0  0
    5.0490    6.6429    2.0509 H   0  0  0  0  0  0  0  0  0  0  0  0
    2.0235    5.6617    2.2083 H   0  0  0  0  0  0  0  0  0  0  0  0
    2.9032    6.4361    3.5213 H   0  0  0  0  0  0  0  0  0  0  0  0
    2.1653    4.8491    3.7681 H   0  0  0  0  0  0  0  0  0  0  0  0
    5.1752    6.4758    4.6065 H   0  0  0  0  0  0  0  0  0  0  0  0
    6.8053    6.5181    6.9046 H   0  0  0  0  0  0  0  0  0  0  0  0
    8.1146    2.5302    7.9701 H   0  0  0  0  0  0  0  0  0  0  0  0
    6.8671    1.5862    6.0566 H   0  0  0  0  0  0  0  0  0  0  0  0
  1  2  1  0  0  0  0
  1 34  1  0  0  0  0
  1 35  1  0  0  0  0
  1 36  1  0  0  0  0
  2  3  1  0  0  0  0
  2 37  1  0  0  0  0
  2 38  1  0  0  0  0
  3  4  1  0  0  0  0
  3  8  2  0  0  0  0
  4  5  2  0  0  0  0
  4 39  1  0  0  0  0
  5  6  1  0  0  0  0
  5 32  1  0  0  0  0
  6  7  2  0  0  0  0
  6 18  1  0  0  0  0
  7  8  1  0  0  0  0
  7 40  1  0  0  0  0
  8  9  1  0  0  0  0
  9 10  1  0  0  0  0
  9 17  1  0  0  0  0
 10 11  1  0  0  0  0
 10 41  1  0  0  0  0
 10 42  1  0  0  0  0
 11 12  1  0  0  0  0
 11 43  1  0  0  0  0
 11 44  1  0  0  0  0
 12 13  1  0  0  0  0
 12 16  1  0  0  0  0
 13 14  1  0  0  0  0
 13 15  1  0  0  0  0
 13 45  1  0  0  0  0
 14 15  1  0  0  0  0
 14 46  1  0  0  0  0
 14 47  1  0  0  0  0
 15 48  1  0  0  0  0
 15 49  1  0  0  0  0
 16 17  1  0  0  0  0
 16 50  1  0  0  0  0
 16 51  1  0  0  0  0
 17 52  1  0  0  0  0
 17 53  1  0  0  0  0
 18 19  1  0  0  0  0
 18 20  1  0  0  0  0
 18 21  1  0  0  0  0
 19 54  1  0  0  0  0
 19 55  1  0  0  0  0
 19 56  1  0  0  0  0
 20 57  1  0  0  0  0
 20 58  1  0  0  0  0
 20 59  1  0  0  0  0
 21 22  1  0  0  0  0
 21 31  2  0  0  0  0
 22 23  1  0  0  0  0
 22 60  1  0  0  0  0
 23 24  1  0  0  0  0
 23 30  2  0  0  0  0
 24 25  2  0  0  0  0
 24 61  1  0  0  0  0
 25 26  1  0  0  0  0
 25 28  1  0  0  0  0
 26 27  3  0  0  0  0
 28 29  2  0  0  0  0
 28 62  1  0  0  0  0
 29 30  1  0  0  0  0
 29 63  1  0  0  0  0
 30 31  1  0  0  0  0
 31 32  1  0  0  0  0
 32 33  2  0  0  0  0
M  END
$$$$
