CHEMBL3656091
 OpenBabel04072215373D

 59 62  0  0  0  0  0  0  0  0999 V2000
   -0.6192   -2.1206   -2.4971 C   0  0  0  0  0  0  0  0  0  0  0  0
    0.6489   -1.3232   -2.7389 C   0  0  0  0  0  0  0  0  0  0  0  0
    1.6122   -2.0640   -3.5211 N   0  0  0  0  0  0  0  0  0  0  0  0
    2.5181   -2.9147   -2.9250 C   0  0  0  0  0  0  0  0  0  0  0  0
    2.5610   -3.0939   -1.7117 O   0  0  0  0  0  0  0  0  0  0  0  0
    3.4555   -3.5815   -3.8313 C   0  0  0  0  0  0  0  0  0  0  0  0
    3.5394   -3.5418   -5.2143 C   0  0  0  0  0  0  0  0  0  0  0  0
    4.6014   -4.3201   -5.6082 N   0  0  0  0  0  0  0  0  0  0  0  0
    5.2265   -4.8684   -4.5125 C   0  0  0  0  0  0  0  0  0  0  0  0
    6.3866   -5.7475   -4.6185 C   0  0  0  0  0  0  0  0  0  0  0  0
    6.9614   -6.3142   -3.4902 C   0  0  0  0  0  0  0  0  0  0  0  0
    7.9645   -7.2646   -3.6540 C   0  0  0  0  0  0  0  0  0  0  0  0
    8.5290   -7.9582   -2.6010 O   0  0  0  0  0  0  0  0  0  0  0  0
    7.7207   -8.3527   -1.5483 C   0  0  0  0  0  0  0  0  0  0  0  0
    6.3680   -8.6670   -1.6877 C   0  0  0  0  0  0  0  0  0  0  0  0
    5.5993   -8.9978   -0.5713 C   0  0  0  0  0  0  0  0  0  0  0  0
    6.1802   -9.1092    0.6928 C   0  0  0  0  0  0  0  0  0  0  0  0
    5.4253   -9.4676    1.8373 N   0  0  0  0  0  0  0  0  0  0  0  0
    4.2192  -10.1503    1.7866 C   0  0  0  0  0  0  0  0  0  0  0  0
    3.7753  -10.6862    0.7788 O   0  0  0  0  0  0  0  0  0  0  0  0
    3.5517  -10.1191    3.0016 N   0  0  0  0  0  0  0  0  0  0  0  0
    2.2872  -10.7412    3.1502 C   0  0  0  0  0  0  0  0  0  0  0  0
    1.2644  -10.0407    3.7899 C   0  0  0  0  0  0  0  0  0  0  0  0
   -0.0125  -10.5999    3.8840 C   0  0  0  0  0  0  0  0  0  0  0  0
   -0.2582  -11.8826    3.3911 C   0  0  0  0  0  0  0  0  0  0  0  0
    0.7687  -12.6166    2.7901 C   0  0  0  0  0  0  0  0  0  0  0  0
    0.5312  -14.0162    2.3030 C   0  0  0  0  0  0  0  0  0  0  0  0
    2.0375  -12.0307    2.6604 C   0  0  0  0  0  0  0  0  0  0  0  0
    7.5475   -8.8371    0.8130 C   0  0  0  0  0  0  0  0  0  0  0  0
    8.1404   -8.9353    2.0156 F   0  0  0  0  0  0  0  0  0  0  0  0
    8.3213   -8.4664   -0.2930 C   0  0  0  0  0  0  0  0  0  0  0  0
    8.4526   -7.5185   -4.9293 C   0  0  0  0  0  0  0  0  0  0  0  0
    7.8549   -6.8638   -5.9969 C   0  0  0  0  0  0  0  0  0  0  0  0
    6.8173   -6.0013   -5.8760 N   0  0  0  0  0  0  0  0  0  0  0  0
    4.5139   -4.4378   -3.4082 C   0  0  0  0  0  0  0  0  0  0  0  0
   -1.3327   -1.5327   -1.9111 H   0  0  0  0  0  0  0  0  0  0  0  0
   -0.4077   -3.0460   -1.9517 H   0  0  0  0  0  0  0  0  0  0  0  0
   -1.0941   -2.3932   -3.4453 H   0  0  0  0  0  0  0  0  0  0  0  0
    1.0990   -1.0405   -1.7806 H   0  0  0  0  0  0  0  0  0  0  0  0
    0.4207   -0.4064   -3.2903 H   0  0  0  0  0  0  0  0  0  0  0  0
    1.5885   -1.9971   -4.5265 H   0  0  0  0  0  0  0  0  0  0  0  0
    2.9469   -3.0320   -5.9608 H   0  0  0  0  0  0  0  0  0  0  0  0
    4.9071   -4.4866   -6.5594 H   0  0  0  0  0  0  0  0  0  0  0  0
    6.5978   -6.0583   -2.5030 H   0  0  0  0  0  0  0  0  0  0  0  0
    5.8723   -8.6373   -2.6540 H   0  0  0  0  0  0  0  0  0  0  0  0
    4.5339   -9.1497   -0.7218 H   0  0  0  0  0  0  0  0  0  0  0  0
    5.9198   -9.4784    2.7214 H   0  0  0  0  0  0  0  0  0  0  0  0
    3.6946   -9.2675    3.5258 H   0  0  0  0  0  0  0  0  0  0  0  0
    1.4254   -9.0340    4.1637 H   0  0  0  0  0  0  0  0  0  0  0  0
   -0.8229  -10.0310    4.3317 H   0  0  0  0  0  0  0  0  0  0  0  0
   -1.2574  -12.3037    3.4772 H   0  0  0  0  0  0  0  0  0  0  0  0
   -0.5195  -14.3059    2.4127 H   0  0  0  0  0  0  0  0  0  0  0  0
    1.1337  -14.7218    2.8845 H   0  0  0  0  0  0  0  0  0  0  0  0
    0.7928  -14.1056    1.2440 H   0  0  0  0  0  0  0  0  0  0  0  0
    2.8350  -12.5928    2.1781 H   0  0  0  0  0  0  0  0  0  0  0  0
    9.3810   -8.2707   -0.1665 H   0  0  0  0  0  0  0  0  0  0  0  0
    9.2659   -8.2158   -5.0917 H   0  0  0  0  0  0  0  0  0  0  0  0
    8.1987   -7.0316   -7.0143 H   0  0  0  0  0  0  0  0  0  0  0  0
    4.7203   -4.6919   -2.3764 H   0  0  0  0  0  0  0  0  0  0  0  0
  1  2  1  0  0  0  0
  1 36  1  0  0  0  0
  1 37  1  0  0  0  0
  1 38  1  0  0  0  0
  2  3  1  0  0  0  0
  2 39  1  0  0  0  0
  2 40  1  0  0  0  0
  3  4  1  0  0  0  0
  3 41  1  0  0  0  0
  4  5  2  0  0  0  0
  4  6  1  0  0  0  0
  6  7  2  0  0  0  0
  6 35  1  0  0  0  0
  7  8  1  0  0  0  0
  7 42  1  0  0  0  0
  8  9  1  0  0  0  0
  8 43  1  0  0  0  0
  9 10  1  0  0  0  0
  9 35  2  0  0  0  0
 10 11  1  0  0  0  0
 10 34  2  0  0  0  0
 11 12  2  0  0  0  0
 11 44  1  0  0  0  0
 12 13  1  0  0  0  0
 12 32  1  0  0  0  0
 13 14  1  0  0  0  0
 14 15  1  0  0  0  0
 14 31  2  0  0  0  0
 15 16  2  0  0  0  0
 15 45  1  0  0  0  0
 16 17  1  0  0  0  0
 16 46  1  0  0  0  0
 17 18  1  0  0  0  0
 17 29  2  0  0  0  0
 18 19  1  0  0  0  0
 18 47  1  0  0  0  0
 19 20  2  0  0  0  0
 19 21  1  0  0  0  0
 21 22  1  0  0  0  0
 21 48  1  0  0  0  0
 22 23  1  0  0  0  0
 22 28  2  0  0  0  0
 23 24  2  0  0  0  0
 23 49  1  0  0  0  0
 24 25  1  0  0  0  0
 24 50  1  0  0  0  0
 25 26  2  0  0  0  0
 25 51  1  0  0  0  0
 26 27  1  0  0  0  0
 26 28  1  0  0  0  0
 27 52  1  0  0  0  0
 27 53  1  0  0  0  0
 27 54  1  0  0  0  0
 28 55  1  0  0  0  0
 29 30  1  0  0  0  0
 29 31  1  0  0  0  0
 31 56  1  0  0  0  0
 32 33  2  0  0  0  0
 32 57  1  0  0  0  0
 33 34  1  0  0  0  0
 33 58  1  0  0  0  0
 35 59  1  0  0  0  0
M  END
$$$$
