CHEMBL605957
 OpenBabel04072215383D

 46 49  0  0  0  0  0  0  0  0999 V2000
    0.8197   -1.1418    2.0460 C   0  0  0  0  0  0  0  0  0  0  0  0
    2.0319   -0.5933    1.5440 O   0  0  0  0  0  0  0  0  0  0  0  0
    2.9623   -1.4802    1.0555 C   0  0  0  0  0  0  0  0  0  0  0  0
    2.6099   -2.7512    0.5587 C   0  0  0  0  0  0  0  0  0  0  0  0
    3.5711   -3.6098   -0.0049 C   0  0  0  0  0  0  0  0  0  0  0  0
    3.2048   -4.9448   -0.4976 C   0  0  0  0  0  0  0  0  0  0  0  0
    2.7049   -5.3421   -1.6902 C   0  0  0  0  0  0  0  0  0  0  0  0
    2.2891   -4.5336   -2.7863 C   0  0  0  0  0  0  0  0  0  0  0  0
    2.8720   -3.3338   -3.1332 C   0  0  0  0  0  0  0  0  0  0  0  0
    2.1295   -2.8461   -4.1797 N   0  0  0  0  0  0  0  0  0  0  0  0
    0.8491   -3.2774   -3.9228 C   0  0  0  0  0  0  0  0  0  0  0  0
   -0.3766   -2.6272   -4.0162 C   0  0  0  0  0  0  0  0  0  0  0  0
   -1.5042   -3.3958   -3.7295 C   0  0  0  0  0  0  0  0  0  0  0  0
   -1.3913   -4.7700   -3.5015 C   0  0  0  0  0  0  0  0  0  0  0  0
   -2.9693   -5.7923   -3.2834 Br  0  0  0  0  0  0  0  0  0  0  0  0
   -0.1441   -5.3906   -3.3539 C   0  0  0  0  0  0  0  0  0  0  0  0
    0.9968   -4.5639   -3.4165 C   0  0  0  0  0  0  0  0  0  0  0  0
    2.5263   -6.8256   -1.6350 C   0  0  0  0  0  0  0  0  0  0  0  0
    2.1632   -7.5463   -2.5486 O   0  0  0  0  0  0  0  0  0  0  0  0
    2.8383   -7.1944   -0.3938 N   0  0  0  0  0  0  0  0  0  0  0  0
    3.1856   -6.1369    0.3788 C   0  0  0  0  0  0  0  0  0  0  0  0
    3.3683   -6.1382    1.5735 O   0  0  0  0  0  0  0  0  0  0  0  0
    4.8900   -3.1548   -0.1185 C   0  0  0  0  0  0  0  0  0  0  0  0
    5.2527   -1.8800    0.3451 C   0  0  0  0  0  0  0  0  0  0  0  0
    6.5397   -1.3976    0.2783 O   0  0  0  0  0  0  0  0  0  0  0  0
    7.3162   -1.8261   -0.8333 C   0  0  0  0  0  0  0  0  0  0  0  0
    4.2989   -1.0466    0.9706 C   0  0  0  0  0  0  0  0  0  0  0  0
    4.7845    0.1757    1.3793 O   0  0  0  0  0  0  0  0  0  0  0  0
    4.2028    0.7763    2.5299 C   0  0  0  0  0  0  0  0  0  0  0  0
    0.2235   -0.3200    2.4568 H   0  0  0  0  0  0  0  0  0  0  0  0
    1.0210   -1.8533    2.8524 H   0  0  0  0  0  0  0  0  0  0  0  0
    0.2250   -1.6001    1.2498 H   0  0  0  0  0  0  0  0  0  0  0  0
    1.5843   -3.0979    0.5923 H   0  0  0  0  0  0  0  0  0  0  0  0
    3.6844   -2.7498   -2.7225 H   0  0  0  0  0  0  0  0  0  0  0  0
    2.4992   -2.8948   -5.1162 H   0  0  0  0  0  0  0  0  0  0  0  0
   -0.4387   -1.5611   -4.2070 H   0  0  0  0  0  0  0  0  0  0  0  0
   -2.4739   -2.9089   -3.6942 H   0  0  0  0  0  0  0  0  0  0  0  0
   -0.0740   -6.4398   -3.0797 H   0  0  0  0  0  0  0  0  0  0  0  0
    2.7398   -8.1369   -0.0364 H   0  0  0  0  0  0  0  0  0  0  0  0
    5.6383   -3.8098   -0.5518 H   0  0  0  0  0  0  0  0  0  0  0  0
    8.1754   -1.1539   -0.9196 H   0  0  0  0  0  0  0  0  0  0  0  0
    6.7529   -1.7680   -1.7711 H   0  0  0  0  0  0  0  0  0  0  0  0
    7.7014   -2.8370   -0.6684 H   0  0  0  0  0  0  0  0  0  0  0  0
    4.9030    1.5360    2.8968 H   0  0  0  0  0  0  0  0  0  0  0  0
    4.0433    0.0595    3.3426 H   0  0  0  0  0  0  0  0  0  0  0  0
    3.2817    1.3041    2.2700 H   0  0  0  0  0  0  0  0  0  0  0  0
  1  2  1  0  0  0  0
  1 30  1  0  0  0  0
  1 31  1  0  0  0  0
  1 32  1  0  0  0  0
  2  3  1  0  0  0  0
  3  4  1  0  0  0  0
  3 27  2  0  0  0  0
  4  5  2  0  0  0  0
  4 33  1  0  0  0  0
  5  6  1  0  0  0  0
  5 23  1  0  0  0  0
  6  7  2  0  0  0  0
  6 21  1  0  0  0  0
  7  8  1  0  0  0  0
  7 18  1  0  0  0  0
  8  9  2  0  0  0  0
  8 17  1  0  0  0  0
  9 10  1  0  0  0  0
  9 34  1  0  0  0  0
 10 11  1  0  0  0  0
 10 35  1  0  0  0  0
 11 12  1  0  0  0  0
 11 17  2  0  0  0  0
 12 13  2  0  0  0  0
 12 36  1  0  0  0  0
 13 14  1  0  0  0  0
 13 37  1  0  0  0  0
 14 15  1  0  0  0  0
 14 16  2  0  0  0  0
 16 17  1  0  0  0  0
 16 38  1  0  0  0  0
 18 19  2  0  0  0  0
 18 20  1  0  0  0  0
 20 21  1  0  0  0  0
 20 39  1  0  0  0  0
 21 22  2  0  0  0  0
 23 24  2  0  0  0  0
 23 40  1  0  0  0  0
 24 25  1  0  0  0  0
 24 27  1  0  0  0  0
 25 26  1  0  0  0  0
 26 41  1  0  0  0  0
 26 42  1  0  0  0  0
 26 43  1  0  0  0  0
 27 28  1  0  0  0  0
 28 29  1  0  0  0  0
 29 44  1  0  0  0  0
 29 45  1  0  0  0  0
 29 46  1  0  0  0  0
M  END
$$$$
