CHEMBL1095356
 OpenBabel04072215363D

 69 74  0  0  0  0  0  0  0  0999 V2000
    8.2895    5.0481    7.2676 C   0  0  0  0  0  0  0  0  0  0  0  0
    8.7492    4.1231    6.2478 N   0  0  0  0  0  0  0  0  0  0  0  0
    9.7177    3.1144    6.6561 C   0  0  0  0  0  0  0  0  0  0  0  0
    8.4015    4.4323    4.9260 C   0  0  0  0  0  0  0  0  0  0  0  0
    7.7722    5.4541    4.6463 O   0  0  0  0  0  0  0  0  0  0  0  0
    8.8017    3.5489    3.7907 C   0  0  0  0  0  0  0  0  0  0  0  0
    8.8550    2.1600    3.8932 C   0  0  0  0  0  0  0  0  0  0  0  0
    9.2805    1.3865    2.8084 C   0  0  0  0  0  0  0  0  0  0  0  0
    9.5895    1.9797    1.5757 C   0  0  0  0  0  0  0  0  0  0  0  0
   10.0330    1.1390    0.4521 C   0  0  0  0  0  0  0  0  0  0  0  0
    9.7355   -0.1863    0.1909 C   0  0  0  0  0  0  0  0  0  0  0  0
   10.3369   -0.6727   -1.0037 C   0  0  0  0  0  0  0  0  0  0  0  0
   10.1899   -1.9325   -1.4950 N   0  0  0  0  0  0  0  0  0  0  0  0
   10.7915   -2.1713   -2.6745 C   0  0  0  0  0  0  0  0  0  0  0  0
   11.5337   -1.2530   -3.3916 C   0  0  0  0  0  0  0  0  0  0  0  0
   11.7348    0.0159   -2.8500 C   0  0  0  0  0  0  0  0  0  0  0  0
   12.4450    1.0076   -3.4873 O   0  0  0  0  0  0  0  0  0  0  0  0
   13.6576    0.7048   -4.0561 C   0  0  0  0  0  0  0  0  0  0  0  0
   14.4812   -0.3376   -3.6385 C   0  0  0  0  0  0  0  0  0  0  0  0
   15.6759   -0.5976   -4.3105 C   0  0  0  0  0  0  0  0  0  0  0  0
   16.0966    0.2151   -5.3646 C   0  0  0  0  0  0  0  0  0  0  0  0
   17.3145    0.0179   -6.0460 N   0  0  0  0  0  0  0  0  0  0  0  0
   18.2047   -1.0225   -5.8455 C   0  0  0  0  0  0  0  0  0  0  0  0
   18.0224   -2.0233   -5.1680 O   0  0  0  0  0  0  0  0  0  0  0  0
   19.4774   -0.8220   -6.5076 C   0  0  0  0  0  0  0  0  0  0  0  0
   19.7495   -0.3373   -7.7912 C   0  0  0  0  0  0  0  0  0  0  0  0
   21.0487   -0.1887   -8.0113 N   0  0  0  0  0  0  0  0  0  0  0  0
   21.6592   -0.7001   -6.9028 N   0  0  0  0  0  0  0  0  0  0  0  0
   23.0820   -0.7523   -6.8772 C   0  0  0  0  0  0  0  0  0  0  0  0
   23.8000    0.1931   -7.6279 C   0  0  0  0  0  0  0  0  0  0  0  0
   25.1946    0.2221   -7.5770 C   0  0  0  0  0  0  0  0  0  0  0  0
   25.8835   -0.7094   -6.8048 C   0  0  0  0  0  0  0  0  0  0  0  0
   25.1801   -1.6840   -6.1005 C   0  0  0  0  0  0  0  0  0  0  0  0
   23.7833   -1.7111   -6.1401 C   0  0  0  0  0  0  0  0  0  0  0  0
   20.7282   -1.0428   -5.9425 C   0  0  0  0  0  0  0  0  0  0  0  0
   21.0802   -1.4045   -4.5575 C   0  0  0  0  0  0  0  0  0  0  0  0
   20.0450   -1.2572   -3.6930 F   0  0  0  0  0  0  0  0  0  0  0  0
   21.4951   -2.6896   -4.4475 F   0  0  0  0  0  0  0  0  0  0  0  0
   22.0689   -0.6161   -4.0649 F   0  0  0  0  0  0  0  0  0  0  0  0
   15.3034    1.3049   -5.7383 C   0  0  0  0  0  0  0  0  0  0  0  0
   14.0935    1.5373   -5.0855 C   0  0  0  0  0  0  0  0  0  0  0  0
   13.3465    2.5846   -5.4674 F   0  0  0  0  0  0  0  0  0  0  0  0
   11.0955    0.3056   -1.6378 C   0  0  0  0  0  0  0  0  0  0  0  0
   11.0975    1.7634   -0.7381 S   0  0  0  0  0  0  0  0  0  0  0  0
    9.4525    3.3690    1.4622 C   0  0  0  0  0  0  0  0  0  0  0  0
    9.0680    4.1482    2.5583 C   0  0  0  0  0  0  0  0  0  0  0  0
    8.4861    4.6568    8.2675 H   0  0  0  0  0  0  0  0  0  0  0  0
    7.2156    5.2129    7.1520 H   0  0  0  0  0  0  0  0  0  0  0  0
    8.8130    6.0010    7.1334 H   0  0  0  0  0  0  0  0  0  0  0  0
   10.1452    3.3618    7.6313 H   0  0  0  0  0  0  0  0  0  0  0  0
   10.5292    3.0363    5.9284 H   0  0  0  0  0  0  0  0  0  0  0  0
    9.2009    2.1548    6.7536 H   0  0  0  0  0  0  0  0  0  0  0  0
    8.5555    1.6482    4.8005 H   0  0  0  0  0  0  0  0  0  0  0  0
    9.3655    0.3106    2.9445 H   0  0  0  0  0  0  0  0  0  0  0  0
    9.0906   -0.7955    0.8103 H   0  0  0  0  0  0  0  0  0  0  0  0
   10.6523   -3.1797   -3.0578 H   0  0  0  0  0  0  0  0  0  0  0  0
   11.9603   -1.5336   -4.3481 H   0  0  0  0  0  0  0  0  0  0  0  0
   14.2185   -0.9711   -2.7952 H   0  0  0  0  0  0  0  0  0  0  0  0
   16.2633   -1.4396   -3.9585 H   0  0  0  0  0  0  0  0  0  0  0  0
   17.5864    0.7503   -6.6903 H   0  0  0  0  0  0  0  0  0  0  0  0
   19.0521   -0.0612   -8.5767 H   0  0  0  0  0  0  0  0  0  0  0  0
   23.2836    0.9401   -8.2283 H   0  0  0  0  0  0  0  0  0  0  0  0
   25.7408    0.9769   -8.1360 H   0  0  0  0  0  0  0  0  0  0  0  0
   26.9692   -0.6841   -6.7609 H   0  0  0  0  0  0  0  0  0  0  0  0
   25.7183   -2.4306   -5.5226 H   0  0  0  0  0  0  0  0  0  0  0  0
   23.2909   -2.5271   -5.6248 H   0  0  0  0  0  0  0  0  0  0  0  0
   15.5947    1.9844   -6.5328 H   0  0  0  0  0  0  0  0  0  0  0  0
    9.6250    3.8743    0.5127 H   0  0  0  0  0  0  0  0  0  0  0  0
    8.9717    5.2241    2.4379 H   0  0  0  0  0  0  0  0  0  0  0  0
  1  2  1  0  0  0  0
  1 47  1  0  0  0  0
  1 48  1  0  0  0  0
  1 49  1  0  0  0  0
  2  3  1  0  0  0  0
  2  4  1  0  0  0  0
  3 50  1  0  0  0  0
  3 51  1  0  0  0  0
  3 52  1  0  0  0  0
  4  5  2  0  0  0  0
  4  6  1  0  0  0  0
  6  7  1  0  0  0  0
  6 46  2  0  0  0  0
  7  8  2  0  0  0  0
  7 53  1  0  0  0  0
  8  9  1  0  0  0  0
  8 54  1  0  0  0  0
  9 10  1  0  0  0  0
  9 45  2  0  0  0  0
 10 11  2  0  0  0  0
 10 44  1  0  0  0  0
 11 12  1  0  0  0  0
 11 55  1  0  0  0  0
 12 13  1  0  0  0  0
 12 43  2  0  0  0  0
 13 14  2  0  0  0  0
 14 15  1  0  0  0  0
 14 56  1  0  0  0  0
 15 16  2  0  0  0  0
 15 57  1  0  0  0  0
 16 17  1  0  0  0  0
 16 43  1  0  0  0  0
 17 18  1  0  0  0  0
 18 19  1  0  0  0  0
 18 41  2  0  0  0  0
 19 20  2  0  0  0  0
 19 58  1  0  0  0  0
 20 21  1  0  0  0  0
 20 59  1  0  0  0  0
 21 22  1  0  0  0  0
 21 40  2  0  0  0  0
 22 23  1  0  0  0  0
 22 60  1  0  0  0  0
 23 24  2  0  0  0  0
 23 25  1  0  0  0  0
 25 26  1  0  0  0  0
 25 35  2  0  0  0  0
 26 27  2  0  0  0  0
 26 61  1  0  0  0  0
 27 28  1  0  0  0  0
 28 29  1  0  0  0  0
 28 35  1  0  0  0  0
 29 30  1  0  0  0  0
 29 34  2  0  0  0  0
 30 31  2  0  0  0  0
 30 62  1  0  0  0  0
 31 32  1  0  0  0  0
 31 63  1  0  0  0  0
 32 33  2  0  0  0  0
 32 64  1  0  0  0  0
 33 34  1  0  0  0  0
 33 65  1  0  0  0  0
 34 66  1  0  0  0  0
 35 36  1  0  0  0  0
 36 37  1  0  0  0  0
 36 38  1  0  0  0  0
 36 39  1  0  0  0  0
 40 41  1  0  0  0  0
 40 67  1  0  0  0  0
 41 42  1  0  0  0  0
 43 44  1  0  0  0  0
 45 46  1  0  0  0  0
 45 68  1  0  0  0  0
 46 69  1  0  0  0  0
M  END
$$$$
