CHEMBL1095357
 OpenBabel04072215363D

 80 85  0  0  0  0  0  0  0  0999 V2000
    4.7119   -1.4063    0.3969 C   0  0  0  0  0  0  0  0  0  0  0  0
    4.7387   -1.1344   -1.0444 N   0  0  0  0  0  0  0  0  0  0  0  0
    3.3904   -1.3147   -1.5927 C   0  0  0  0  0  0  0  0  0  0  0  0
    5.1982    0.2466   -1.3201 C   0  0  0  0  0  0  0  0  0  0  0  0
    6.6412    0.5180   -0.8625 C   0  0  0  0  0  0  0  0  0  0  0  0
    7.1046    1.8885   -1.1373 N   0  0  0  0  0  0  0  0  0  0  0  0
    8.3387    2.0157   -1.8988 C   0  0  0  0  0  0  0  0  0  0  0  0
    6.4965    2.9139   -0.4039 C   0  0  0  0  0  0  0  0  0  0  0  0
    5.6066    2.6963    0.4264 O   0  0  0  0  0  0  0  0  0  0  0  0
    6.9280    4.3315   -0.5687 C   0  0  0  0  0  0  0  0  0  0  0  0
    7.3739    4.8484   -1.7822 C   0  0  0  0  0  0  0  0  0  0  0  0
    7.8760    6.1481   -1.8546 C   0  0  0  0  0  0  0  0  0  0  0  0
    7.8490    6.9912   -0.7374 C   0  0  0  0  0  0  0  0  0  0  0  0
    8.3796    8.3549   -0.8513 C   0  0  0  0  0  0  0  0  0  0  0  0
    8.4547    9.1620   -1.9713 C   0  0  0  0  0  0  0  0  0  0  0  0
    9.0316   10.4337   -1.7064 C   0  0  0  0  0  0  0  0  0  0  0  0
    9.2022   11.4200   -2.6265 N   0  0  0  0  0  0  0  0  0  0  0  0
    9.7230   12.5681   -2.1579 C   0  0  0  0  0  0  0  0  0  0  0  0
   10.0944   12.7983   -0.8476 C   0  0  0  0  0  0  0  0  0  0  0  0
    9.9720   11.7624    0.0774 C   0  0  0  0  0  0  0  0  0  0  0  0
   10.3000   11.8876    1.4076 O   0  0  0  0  0  0  0  0  0  0  0  0
   11.4767   12.5035    1.7527 C   0  0  0  0  0  0  0  0  0  0  0  0
   12.5990   12.5636    0.9312 C   0  0  0  0  0  0  0  0  0  0  0  0
   13.7369   13.2498    1.3527 C   0  0  0  0  0  0  0  0  0  0  0  0
   13.7986   13.8298    2.6224 C   0  0  0  0  0  0  0  0  0  0  0  0
   14.9534   14.4777    3.1104 N   0  0  0  0  0  0  0  0  0  0  0  0
   16.1265   14.6856    2.4047 C   0  0  0  0  0  0  0  0  0  0  0  0
   16.2955   14.5174    1.2057 O   0  0  0  0  0  0  0  0  0  0  0  0
   17.2371   15.1097    3.2333 C   0  0  0  0  0  0  0  0  0  0  0  0
   17.2634   16.0347    4.2834 C   0  0  0  0  0  0  0  0  0  0  0  0
   18.4496   16.0889    4.8779 N   0  0  0  0  0  0  0  0  0  0  0  0
   19.2593   15.2726    4.1423 N   0  0  0  0  0  0  0  0  0  0  0  0
   20.6274   15.1517    4.5242 C   0  0  0  0  0  0  0  0  0  0  0  0
   20.9707   15.3641    5.8697 C   0  0  0  0  0  0  0  0  0  0  0  0
   22.2836   15.1670    6.3011 C   0  0  0  0  0  0  0  0  0  0  0  0
   23.2679   14.7829    5.3933 C   0  0  0  0  0  0  0  0  0  0  0  0
   22.9467   14.6231    4.0491 C   0  0  0  0  0  0  0  0  0  0  0  0
   21.6338   14.8186    3.6127 C   0  0  0  0  0  0  0  0  0  0  0  0
   18.5405   14.6317    3.1496 C   0  0  0  0  0  0  0  0  0  0  0  0
   19.0893   13.5442    2.3166 C   0  0  0  0  0  0  0  0  0  0  0  0
   18.1338   12.8038    1.7020 F   0  0  0  0  0  0  0  0  0  0  0  0
   19.9033   14.0046    1.3361 F   0  0  0  0  0  0  0  0  0  0  0  0
   19.8030   12.6564    3.0547 F   0  0  0  0  0  0  0  0  0  0  0  0
   12.6936   13.7165    3.4707 C   0  0  0  0  0  0  0  0  0  0  0  0
   11.5449   13.0579    3.0292 C   0  0  0  0  0  0  0  0  0  0  0  0
   10.4955   12.9652    3.8601 F   0  0  0  0  0  0  0  0  0  0  0  0
    9.4026   10.5660   -0.3724 C   0  0  0  0  0  0  0  0  0  0  0  0
    9.0724    9.1345    0.5069 S   0  0  0  0  0  0  0  0  0  0  0  0
    7.2912    6.5003    0.4525 C   0  0  0  0  0  0  0  0  0  0  0  0
    6.8492    5.1776    0.5425 C   0  0  0  0  0  0  0  0  0  0  0  0
    4.3390   -2.4183    0.5882 H   0  0  0  0  0  0  0  0  0  0  0  0
    4.0805   -0.6950    0.9410 H   0  0  0  0  0  0  0  0  0  0  0  0
    5.7180   -1.3801    0.8268 H   0  0  0  0  0  0  0  0  0  0  0  0
    3.0216   -2.3254   -1.3856 H   0  0  0  0  0  0  0  0  0  0  0  0
    3.3992   -1.2002   -2.6821 H   0  0  0  0  0  0  0  0  0  0  0  0
    2.6745   -0.5969   -1.1744 H   0  0  0  0  0  0  0  0  0  0  0  0
    4.5031    0.9673   -0.8742 H   0  0  0  0  0  0  0  0  0  0  0  0
    5.1639    0.4209   -2.4043 H   0  0  0  0  0  0  0  0  0  0  0  0
    7.3103   -0.1968   -1.3521 H   0  0  0  0  0  0  0  0  0  0  0  0
    6.7546    0.3762    0.2207 H   0  0  0  0  0  0  0  0  0  0  0  0
    8.8579    1.0547   -1.9879 H   0  0  0  0  0  0  0  0  0  0  0  0
    9.0190    2.7217   -1.4142 H   0  0  0  0  0  0  0  0  0  0  0  0
    8.0964    2.3479   -2.9108 H   0  0  0  0  0  0  0  0  0  0  0  0
    7.3454    4.2640   -2.6925 H   0  0  0  0  0  0  0  0  0  0  0  0
    8.2963    6.4855   -2.7991 H   0  0  0  0  0  0  0  0  0  0  0  0
    8.0943    8.8754   -2.9507 H   0  0  0  0  0  0  0  0  0  0  0  0
    9.8414   13.3498   -2.9044 H   0  0  0  0  0  0  0  0  0  0  0  0
   10.4915   13.7659   -0.5626 H   0  0  0  0  0  0  0  0  0  0  0  0
   12.6201   12.0912   -0.0468 H   0  0  0  0  0  0  0  0  0  0  0  0
   14.5681   13.2847    0.6564 H   0  0  0  0  0  0  0  0  0  0  0  0
   14.9401   14.7273    4.0922 H   0  0  0  0  0  0  0  0  0  0  0  0
   16.4623   16.6595    4.6588 H   0  0  0  0  0  0  0  0  0  0  0  0
   20.2162   15.6421    6.6040 H   0  0  0  0  0  0  0  0  0  0  0  0
   22.5349   15.2998    7.3506 H   0  0  0  0  0  0  0  0  0  0  0  0
   24.2873   14.6171    5.7303 H   0  0  0  0  0  0  0  0  0  0  0  0
   23.7171   14.3465    3.3324 H   0  0  0  0  0  0  0  0  0  0  0  0
   21.4589   14.7447    2.5472 H   0  0  0  0  0  0  0  0  0  0  0  0
   12.6905   14.1295    4.4740 H   0  0  0  0  0  0  0  0  0  0  0  0
    7.1936    7.1352    1.3313 H   0  0  0  0  0  0  0  0  0  0  0  0
    6.4420    4.8147    1.4850 H   0  0  0  0  0  0  0  0  0  0  0  0
  1  2  1  0  0  0  0
  1 51  1  0  0  0  0
  1 52  1  0  0  0  0
  1 53  1  0  0  0  0
  2  3  1  0  0  0  0
  2  4  1  0  0  0  0
  3 54  1  0  0  0  0
  3 55  1  0  0  0  0
  3 56  1  0  0  0  0
  4  5  1  0  0  0  0
  4 57  1  0  0  0  0
  4 58  1  0  0  0  0
  5  6  1  0  0  0  0
  5 59  1  0  0  0  0
  5 60  1  0  0  0  0
  6  7  1  0  0  0  0
  6  8  1  0  0  0  0
  7 61  1  0  0  0  0
  7 62  1  0  0  0  0
  7 63  1  0  0  0  0
  8  9  2  0  0  0  0
  8 10  1  0  0  0  0
 10 11  1  0  0  0  0
 10 50  2  0  0  0  0
 11 12  2  0  0  0  0
 11 64  1  0  0  0  0
 12 13  1  0  0  0  0
 12 65  1  0  0  0  0
 13 14  1  0  0  0  0
 13 49  2  0  0  0  0
 14 15  2  0  0  0  0
 14 48  1  0  0  0  0
 15 16  1  0  0  0  0
 15 66  1  0  0  0  0
 16 17  1  0  0  0  0
 16 47  2  0  0  0  0
 17 18  2  0  0  0  0
 18 19  1  0  0  0  0
 18 67  1  0  0  0  0
 19 20  2  0  0  0  0
 19 68  1  0  0  0  0
 20 21  1  0  0  0  0
 20 47  1  0  0  0  0
 21 22  1  0  0  0  0
 22 23  1  0  0  0  0
 22 45  2  0  0  0  0
 23 24  2  0  0  0  0
 23 69  1  0  0  0  0
 24 25  1  0  0  0  0
 24 70  1  0  0  0  0
 25 26  1  0  0  0  0
 25 44  2  0  0  0  0
 26 27  1  0  0  0  0
 26 71  1  0  0  0  0
 27 28  2  0  0  0  0
 27 29  1  0  0  0  0
 29 30  1  0  0  0  0
 29 39  2  0  0  0  0
 30 31  2  0  0  0  0
 30 72  1  0  0  0  0
 31 32  1  0  0  0  0
 32 33  1  0  0  0  0
 32 39  1  0  0  0  0
 33 34  1  0  0  0  0
 33 38  2  0  0  0  0
 34 35  2  0  0  0  0
 34 73  1  0  0  0  0
 35 36  1  0  0  0  0
 35 74  1  0  0  0  0
 36 37  2  0  0  0  0
 36 75  1  0  0  0  0
 37 38  1  0  0  0  0
 37 76  1  0  0  0  0
 38 77  1  0  0  0  0
 39 40  1  0  0  0  0
 40 41  1  0  0  0  0
 40 42  1  0  0  0  0
 40 43  1  0  0  0  0
 44 45  1  0  0  0  0
 44 78  1  0  0  0  0
 45 46  1  0  0  0  0
 47 48  1  0  0  0  0
 49 50  1  0  0  0  0
 49 79  1  0  0  0  0
 50 80  1  0  0  0  0
M  END
$$$$
