CHEMBL3973469
 OpenBabel04072215373D

 54 57  0  0  0  0  0  0  0  0999 V2000
    2.4885   -0.2164   -0.0353 C   0  0  0  0  0  0  0  0  0  0  0  0
    0.9960   -0.0756    0.0248 C   0  0  0  0  0  0  0  0  0  0  0  0
    0.4216    1.2004   -0.0057 C   0  0  0  0  0  0  0  0  0  0  0  0
   -0.9614    1.3891    0.0611 C   0  0  0  0  0  0  0  0  0  0  0  0
   -1.5594    2.6760    0.0430 N   0  0  0  0  0  0  0  0  0  0  0  0
   -0.8938    3.8786   -0.1429 C   0  0  0  0  0  0  0  0  0  0  0  0
    0.2962    4.0067   -0.4075 O   0  0  0  0  0  0  0  0  0  0  0  0
   -1.7277    4.9716    0.0650 N   0  0  0  0  0  0  0  0  0  0  0  0
   -1.2123    6.2856   -0.0454 C   0  0  0  0  0  0  0  0  0  0  0  0
   -1.4553    7.1901    0.9820 C   0  0  0  0  0  0  0  0  0  0  0  0
   -0.8929    8.4669    0.9257 C   0  0  0  0  0  0  0  0  0  0  0  0
   -0.1329    8.8733   -0.1808 C   0  0  0  0  0  0  0  0  0  0  0  0
    0.4914   10.4808   -0.1282 Cl  0  0  0  0  0  0  0  0  0  0  0  0
    0.0850    7.9959   -1.2472 C   0  0  0  0  0  0  0  0  0  0  0  0
    0.8470    8.3438   -2.5007 C   0  0  0  0  0  0  0  0  0  0  0  0
    1.2565    9.6346   -2.6201 F   0  0  0  0  0  0  0  0  0  0  0  0
    1.9730    7.5901   -2.6500 F   0  0  0  0  0  0  0  0  0  0  0  0
    0.1015    8.1073   -3.6211 F   0  0  0  0  0  0  0  0  0  0  0  0
   -0.4490    6.6894   -1.1497 C   0  0  0  0  0  0  0  0  0  0  0  0
   -1.7827    0.2600    0.1848 C   0  0  0  0  0  0  0  0  0  0  0  0
   -1.2253   -1.0302    0.1971 C   0  0  0  0  0  0  0  0  0  0  0  0
   -1.9517   -2.1874    0.4103 O   0  0  0  0  0  0  0  0  0  0  0  0
   -3.1886   -2.3420   -0.2045 C   0  0  0  0  0  0  0  0  0  0  0  0
   -4.0182   -3.3230    0.3136 C   0  0  0  0  0  0  0  0  0  0  0  0
   -5.2304   -3.4783   -0.3208 C   0  0  0  0  0  0  0  0  0  0  0  0
   -6.1211   -4.4684    0.1345 N   0  0  0  0  0  0  0  0  0  0  0  0
   -7.3473   -4.7163   -0.4529 C   0  0  0  0  0  0  0  0  0  0  0  0
   -7.8592   -4.1172   -1.3887 O   0  0  0  0  0  0  0  0  0  0  0  0
   -8.1112   -5.8455    0.1684 C   0  0  0  0  0  0  0  0  0  0  0  0
   -9.2679   -6.4635   -0.5937 C   0  0  0  0  0  0  0  0  0  0  0  0
   -9.5393   -5.6086    0.6087 C   0  0  0  0  0  0  0  0  0  0  0  0
   -5.5831   -2.7169   -1.3595 N   0  0  0  0  0  0  0  0  0  0  0  0
   -4.7052   -1.8091   -1.7920 C   0  0  0  0  0  0  0  0  0  0  0  0
   -3.5019   -1.5858   -1.2659 N   0  0  0  0  0  0  0  0  0  0  0  0
    0.1625   -1.1921    0.1194 C   0  0  0  0  0  0  0  0  0  0  0  0
    2.9814    0.7631   -0.0305 H   0  0  0  0  0  0  0  0  0  0  0  0
    2.7870   -0.7345   -0.9509 H   0  0  0  0  0  0  0  0  0  0  0  0
    2.8515   -0.7673    0.8373 H   0  0  0  0  0  0  0  0  0  0  0  0
    1.1004    2.0433   -0.0746 H   0  0  0  0  0  0  0  0  0  0  0  0
   -2.5689    2.7072    0.0338 H   0  0  0  0  0  0  0  0  0  0  0  0
   -2.4210    4.8216    0.7840 H   0  0  0  0  0  0  0  0  0  0  0  0
   -2.0187    6.8989    1.8637 H   0  0  0  0  0  0  0  0  0  0  0  0
   -1.0422    9.1464    1.7626 H   0  0  0  0  0  0  0  0  0  0  0  0
   -0.2651    5.9834   -1.9618 H   0  0  0  0  0  0  0  0  0  0  0  0
   -2.8577    0.3772    0.2753 H   0  0  0  0  0  0  0  0  0  0  0  0
   -3.7076   -3.9206    1.1593 H   0  0  0  0  0  0  0  0  0  0  0  0
   -5.8406   -5.0317    0.9228 H   0  0  0  0  0  0  0  0  0  0  0  0
   -7.5267   -6.5363    0.7669 H   0  0  0  0  0  0  0  0  0  0  0  0
   -9.4320   -7.5305   -0.5118 H   0  0  0  0  0  0  0  0  0  0  0  0
   -9.5183   -6.0562   -1.5700 H   0  0  0  0  0  0  0  0  0  0  0  0
   -9.8962   -6.1009    1.5044 H   0  0  0  0  0  0  0  0  0  0  0  0
   -9.9716   -4.6272    0.4375 H   0  0  0  0  0  0  0  0  0  0  0  0
   -4.9951   -1.2123   -2.6482 H   0  0  0  0  0  0  0  0  0  0  0  0
    0.5940   -2.1898    0.1437 H   0  0  0  0  0  0  0  0  0  0  0  0
  1  2  1  0  0  0  0
  1 36  1  0  0  0  0
  1 37  1  0  0  0  0
  1 38  1  0  0  0  0
  2  3  1  0  0  0  0
  2 35  2  0  0  0  0
  3  4  2  0  0  0  0
  3 39  1  0  0  0  0
  4  5  1  0  0  0  0
  4 20  1  0  0  0  0
  5  6  1  0  0  0  0
  5 40  1  0  0  0  0
  6  7  2  0  0  0  0
  6  8  1  0  0  0  0
  8  9  1  0  0  0  0
  8 41  1  0  0  0  0
  9 10  1  0  0  0  0
  9 19  2  0  0  0  0
 10 11  2  0  0  0  0
 10 42  1  0  0  0  0
 11 12  1  0  0  0  0
 11 43  1  0  0  0  0
 12 13  1  0  0  0  0
 12 14  2  0  0  0  0
 14 15  1  0  0  0  0
 14 19  1  0  0  0  0
 15 16  1  0  0  0  0
 15 17  1  0  0  0  0
 15 18  1  0  0  0  0
 19 44  1  0  0  0  0
 20 21  2  0  0  0  0
 20 45  1  0  0  0  0
 21 22  1  0  0  0  0
 21 35  1  0  0  0  0
 22 23  1  0  0  0  0
 23 24  1  0  0  0  0
 23 34  2  0  0  0  0
 24 25  2  0  0  0  0
 24 46  1  0  0  0  0
 25 26  1  0  0  0  0
 25 32  1  0  0  0  0
 26 27  1  0  0  0  0
 26 47  1  0  0  0  0
 27 28  2  0  0  0  0
 27 29  1  0  0  0  0
 29 30  1  0  0  0  0
 29 31  1  0  0  0  0
 29 48  1  0  0  0  0
 30 31  1  0  0  0  0
 30 49  1  0  0  0  0
 30 50  1  0  0  0  0
 31 51  1  0  0  0  0
 31 52  1  0  0  0  0
 32 33  2  0  0  0  0
 33 34  1  0  0  0  0
 33 53  1  0  0  0  0
 35 54  1  0  0  0  0
M  END
$$$$
