CHEMBL4638978
 OpenBabel04072215383D

 79 82  0  0  0  0  0  0  0  0999 V2000
   -0.3876    4.3772   -0.7029 C   0  0  0  0  0  0  0  0  0  0  0  0
    0.1763    3.0248   -0.2894 C   0  0  0  0  0  0  0  0  0  0  0  0
   -0.7284    1.9489   -0.7346 N   0  0  0  0  0  0  0  0  0  0  0  0
   -0.2195    0.3446   -0.4253 S   0  0  0  0  0  0  0  0  0  0  0  0
    0.6357    0.3434    0.7411 O   0  0  0  0  0  0  0  0  0  0  0  0
   -1.3963   -0.4907   -0.5114 O   0  0  0  0  0  0  0  0  0  0  0  0
    0.7656   -0.0186   -1.8597 C   0  0  0  0  0  0  0  0  0  0  0  0
    0.0596   -0.0300   -3.0818 C   0  0  0  0  0  0  0  0  0  0  0  0
    0.7270   -0.2295   -4.2833 C   0  0  0  0  0  0  0  0  0  0  0  0
    2.1032   -0.3750   -4.2732 C   0  0  0  0  0  0  0  0  0  0  0  0
    2.7932   -0.3914   -3.0600 C   0  0  0  0  0  0  0  0  0  0  0  0
    2.1419   -0.3061   -1.8141 C   0  0  0  0  0  0  0  0  0  0  0  0
    2.8707   -0.5351   -0.6193 N   0  0  0  0  0  0  0  0  0  0  0  0
    3.9027   -1.4907   -0.4637 C   0  0  0  0  0  0  0  0  0  0  0  0
    4.7673   -1.7401   -1.4444 N   0  0  0  0  0  0  0  0  0  0  0  0
    5.6102   -2.7425   -1.2366 C   0  0  0  0  0  0  0  0  0  0  0  0
    5.6612   -3.5026   -0.1573 N   0  0  0  0  0  0  0  0  0  0  0  0
    4.7696   -3.1858    0.7734 C   0  0  0  0  0  0  0  0  0  0  0  0
    4.7234   -4.0631    1.8572 N   0  0  0  0  0  0  0  0  0  0  0  0
    3.7083   -4.2677    2.7975 C   0  0  0  0  0  0  0  0  0  0  0  0
    2.8077   -3.2781    3.1627 C   0  0  0  0  0  0  0  0  0  0  0  0
    1.8119   -3.5208    4.1090 C   0  0  0  0  0  0  0  0  0  0  0  0
    1.6427   -4.7660    4.7419 C   0  0  0  0  0  0  0  0  0  0  0  0
    0.6436   -4.9155    5.7100 N   0  0  0  0  0  0  0  0  0  0  0  0
    1.0016   -5.5241    7.0119 C   0  0  0  0  0  0  0  0  0  0  0  0
   -0.2839   -6.1467    7.6253 C   0  0  0  0  0  0  0  0  0  0  0  0
   -1.3239   -5.1172    7.8583 N   0  0  0  0  0  0  0  0  0  0  0  0
   -2.5333   -5.7013    8.4290 C   0  0  0  0  0  0  0  0  0  0  0  0
   -1.6348   -4.4524    6.5725 C   0  0  0  0  0  0  0  0  0  0  0  0
   -0.3846   -3.8636    5.8836 C   0  0  0  0  0  0  0  0  0  0  0  0
    2.5032   -5.8006    4.2962 C   0  0  0  0  0  0  0  0  0  0  0  0
    2.4694   -7.1442    4.6029 O   0  0  0  0  0  0  0  0  0  0  0  0
    1.2070   -7.7216    4.9062 C   0  0  0  0  0  0  0  0  0  0  0  0
    0.8579   -8.9129    4.0353 C   0  0  0  0  0  0  0  0  0  0  0  0
   -0.3977   -9.3825    4.5358 O   0  0  0  0  0  0  0  0  0  0  0  0
   -0.9252  -10.4639    3.7795 C   0  0  0  0  0  0  0  0  0  0  0  0
   -2.2786  -10.8454    4.3693 C   0  0  0  0  0  0  0  0  0  0  0  0
   -2.8062  -11.9464    3.6284 O   0  0  0  0  0  0  0  0  0  0  0  0
   -4.0657  -12.3572    4.1328 C   0  0  0  0  0  0  0  0  0  0  0  0
    3.5485   -5.5241    3.3868 C   0  0  0  0  0  0  0  0  0  0  0  0
    3.9090   -2.1703    0.6701 N   0  0  0  0  0  0  0  0  0  0  0  0
    0.2462    5.1840   -0.3191 H   0  0  0  0  0  0  0  0  0  0  0  0
   -1.4003    4.5282   -0.3126 H   0  0  0  0  0  0  0  0  0  0  0  0
   -0.4333    4.4739   -1.7930 H   0  0  0  0  0  0  0  0  0  0  0  0
    0.2518    2.9966    0.8017 H   0  0  0  0  0  0  0  0  0  0  0  0
    1.1680    2.8955   -0.7308 H   0  0  0  0  0  0  0  0  0  0  0  0
   -1.0215    2.0522   -1.7070 H   0  0  0  0  0  0  0  0  0  0  0  0
   -1.0224    0.0926   -3.0965 H   0  0  0  0  0  0  0  0  0  0  0  0
    0.1803   -0.2624   -5.2208 H   0  0  0  0  0  0  0  0  0  0  0  0
    2.6532   -0.5066   -5.2011 H   0  0  0  0  0  0  0  0  0  0  0  0
    3.8726   -0.4993   -3.1150 H   0  0  0  0  0  0  0  0  0  0  0  0
    2.3023   -0.5539    0.2362 H   0  0  0  0  0  0  0  0  0  0  0  0
    6.2944   -2.9794   -2.0432 H   0  0  0  0  0  0  0  0  0  0  0  0
    5.3316   -4.8466    1.6685 H   0  0  0  0  0  0  0  0  0  0  0  0
    2.8576   -2.2796    2.7413 H   0  0  0  0  0  0  0  0  0  0  0  0
    1.1758   -2.6729    4.3420 H   0  0  0  0  0  0  0  0  0  0  0  0
    1.4000   -4.7550    7.6840 H   0  0  0  0  0  0  0  0  0  0  0  0
    1.7810   -6.2844    6.9369 H   0  0  0  0  0  0  0  0  0  0  0  0
   -0.0221   -6.6374    8.5689 H   0  0  0  0  0  0  0  0  0  0  0  0
   -0.6778   -6.9237    6.9538 H   0  0  0  0  0  0  0  0  0  0  0  0
   -2.3064   -6.2198    9.3663 H   0  0  0  0  0  0  0  0  0  0  0  0
   -3.0202   -6.4099    7.7494 H   0  0  0  0  0  0  0  0  0  0  0  0
   -3.2503   -4.9092    8.6720 H   0  0  0  0  0  0  0  0  0  0  0  0
   -2.3489   -3.6381    6.7421 H   0  0  0  0  0  0  0  0  0  0  0  0
   -2.1057   -5.1637    5.8795 H   0  0  0  0  0  0  0  0  0  0  0  0
    0.0217   -3.0409    6.4879 H   0  0  0  0  0  0  0  0  0  0  0  0
   -0.7158   -3.4583    4.9210 H   0  0  0  0  0  0  0  0  0  0  0  0
    0.3679   -7.0355    4.8208 H   0  0  0  0  0  0  0  0  0  0  0  0
    1.2565   -8.0843    5.9411 H   0  0  0  0  0  0  0  0  0  0  0  0
    1.6179   -9.6979    4.1084 H   0  0  0  0  0  0  0  0  0  0  0  0
    0.7671   -8.6038    2.9882 H   0  0  0  0  0  0  0  0  0  0  0  0
   -0.2415  -11.3142    3.8249 H   0  0  0  0  0  0  0  0  0  0  0  0
   -1.0452  -10.1669    2.7340 H   0  0  0  0  0  0  0  0  0  0  0  0
   -2.9643   -9.9887    4.3223 H   0  0  0  0  0  0  0  0  0  0  0  0
   -2.1655  -11.1140    5.4282 H   0  0  0  0  0  0  0  0  0  0  0  0
   -4.4151  -13.1928    3.5219 H   0  0  0  0  0  0  0  0  0  0  0  0
   -4.7950  -11.5431    4.0643 H   0  0  0  0  0  0  0  0  0  0  0  0
   -3.9747  -12.6951    5.1703 H   0  0  0  0  0  0  0  0  0  0  0  0
    4.2126   -6.3383    3.1045 H   0  0  0  0  0  0  0  0  0  0  0  0
  1  2  1  0  0  0  0
  1 42  1  0  0  0  0
  1 43  1  0  0  0  0
  1 44  1  0  0  0  0
  2  3  1  0  0  0  0
  2 45  1  0  0  0  0
  2 46  1  0  0  0  0
  3  4  1  0  0  0  0
  3 47  1  0  0  0  0
  4  5  2  0  0  0  0
  4  6  2  0  0  0  0
  4  7  1  0  0  0  0
  7  8  1  0  0  0  0
  7 12  2  0  0  0  0
  8  9  2  0  0  0  0
  8 48  1  0  0  0  0
  9 10  1  0  0  0  0
  9 49  1  0  0  0  0
 10 11  2  0  0  0  0
 10 50  1  0  0  0  0
 11 12  1  0  0  0  0
 11 51  1  0  0  0  0
 12 13  1  0  0  0  0
 13 14  1  0  0  0  0
 13 52  1  0  0  0  0
 14 15  1  0  0  0  0
 14 41  2  0  0  0  0
 15 16  2  0  0  0  0
 16 17  1  0  0  0  0
 16 53  1  0  0  0  0
 17 18  2  0  0  0  0
 18 19  1  0  0  0  0
 18 41  1  0  0  0  0
 19 20  1  0  0  0  0
 19 54  1  0  0  0  0
 20 21  1  0  0  0  0
 20 40  2  0  0  0  0
 21 22  2  0  0  0  0
 21 55  1  0  0  0  0
 22 23  1  0  0  0  0
 22 56  1  0  0  0  0
 23 24  1  0  0  0  0
 23 31  2  0  0  0  0
 24 25  1  0  0  0  0
 24 30  1  0  0  0  0
 25 26  1  0  0  0  0
 25 57  1  0  0  0  0
 25 58  1  0  0  0  0
 26 27  1  0  0  0  0
 26 59  1  0  0  0  0
 26 60  1  0  0  0  0
 27 28  1  0  0  0  0
 27 29  1  0  0  0  0
 28 61  1  0  0  0  0
 28 62  1  0  0  0  0
 28 63  1  0  0  0  0
 29 30  1  0  0  0  0
 29 64  1  0  0  0  0
 29 65  1  0  0  0  0
 30 66  1  0  0  0  0
 30 67  1  0  0  0  0
 31 32  1  0  0  0  0
 31 40  1  0  0  0  0
 32 33  1  0  0  0  0
 33 34  1  0  0  0  0
 33 68  1  0  0  0  0
 33 69  1  0  0  0  0
 34 35  1  0  0  0  0
 34 70  1  0  0  0  0
 34 71  1  0  0  0  0
 35 36  1  0  0  0  0
 36 37  1  0  0  0  0
 36 72  1  0  0  0  0
 36 73  1  0  0  0  0
 37 38  1  0  0  0  0
 37 74  1  0  0  0  0
 37 75  1  0  0  0  0
 38 39  1  0  0  0  0
 39 76  1  0  0  0  0
 39 77  1  0  0  0  0
 39 78  1  0  0  0  0
 40 79  1  0  0  0  0
M  END
$$$$
