CHEMBL3980495
 OpenBabel04072215373D

 45 48  0  0  0  0  0  0  0  0999 V2000
    2.1768   -0.4398   -1.8949 C   0  0  0  0  0  0  0  0  0  0  0  0
    0.7398   -0.2650   -1.5025 C   0  0  0  0  0  0  0  0  0  0  0  0
    0.1445    0.9820   -1.6350 C   0  0  0  0  0  0  0  0  0  0  0  0
   -1.1925    1.1686   -1.2854 C   0  0  0  0  0  0  0  0  0  0  0  0
   -1.9903    0.1294   -0.7875 C   0  0  0  0  0  0  0  0  0  0  0  0
   -3.3654    0.3086   -0.4274 N   0  0  0  0  0  0  0  0  0  0  0  0
   -4.0201    1.5356   -0.4463 C   0  0  0  0  0  0  0  0  0  0  0  0
   -3.4581    2.5915   -0.7222 O   0  0  0  0  0  0  0  0  0  0  0  0
   -5.3689    1.4902   -0.1141 N   0  0  0  0  0  0  0  0  0  0  0  0
   -6.1867    2.6660   -0.1745 C   0  0  0  0  0  0  0  0  0  0  0  0
   -5.8848    3.7364   -1.0304 C   0  0  0  0  0  0  0  0  0  0  0  0
   -6.5765    4.9499   -0.9680 C   0  0  0  0  0  0  0  0  0  0  0  0
   -7.6343    5.1071   -0.0810 C   0  0  0  0  0  0  0  0  0  0  0  0
   -8.2946    6.3807   -0.0050 C   0  0  0  0  0  0  0  0  0  0  0  0
   -8.8263    7.4643    0.0113 C   0  0  0  0  0  0  0  0  0  0  0  0
   -9.5494    8.7146    0.0038 C   0  0  0  0  0  0  0  0  0  0  0  0
  -11.0317    8.7161    0.0313 C   0  0  0  0  0  0  0  0  0  0  0  0
  -11.6422    9.9062    0.0309 C   0  0  0  0  0  0  0  0  0  0  0  0
  -10.8564   11.0783    0.0008 C   0  0  0  0  0  0  0  0  0  0  0  0
  -11.2098   12.3498   -0.0008 N   0  0  0  0  0  0  0  0  0  0  0  0
  -10.0281   13.0447   -0.0423 C   0  0  0  0  0  0  0  0  0  0  0  0
   -8.9514   12.1870   -0.0684 C   0  0  0  0  0  0  0  0  0  0  0  0
   -9.4795   10.9255   -0.0337 N   0  0  0  0  0  0  0  0  0  0  0  0
   -8.7698    9.7501   -0.0318 N   0  0  0  0  0  0  0  0  0  0  0  0
   -8.0173    4.0159    0.7085 C   0  0  0  0  0  0  0  0  0  0  0  0
   -7.3022    2.7974    0.6585 C   0  0  0  0  0  0  0  0  0  0  0  0
   -1.3901   -1.1289   -0.6571 C   0  0  0  0  0  0  0  0  0  0  0  0
   -0.0359   -1.3221   -1.0091 C   0  0  0  0  0  0  0  0  0  0  0  0
    2.6070    0.5057   -2.2488 H   0  0  0  0  0  0  0  0  0  0  0  0
    2.2649   -1.1635   -2.7103 H   0  0  0  0  0  0  0  0  0  0  0  0
    2.7724   -0.7692   -1.0389 H   0  0  0  0  0  0  0  0  0  0  0  0
    0.7035    1.8350   -2.0136 H   0  0  0  0  0  0  0  0  0  0  0  0
   -1.5649    2.1730   -1.4367 H   0  0  0  0  0  0  0  0  0  0  0  0
   -3.8783   -0.5095   -0.1409 H   0  0  0  0  0  0  0  0  0  0  0  0
   -5.6681    0.7536    0.5053 H   0  0  0  0  0  0  0  0  0  0  0  0
   -5.0797    3.6682   -1.7570 H   0  0  0  0  0  0  0  0  0  0  0  0
   -6.2563    5.7688   -1.6078 H   0  0  0  0  0  0  0  0  0  0  0  0
  -11.5613    7.7738    0.0494 H   0  0  0  0  0  0  0  0  0  0  0  0
  -12.7219    9.9974    0.0509 H   0  0  0  0  0  0  0  0  0  0  0  0
  -10.0190   14.1289   -0.0527 H   0  0  0  0  0  0  0  0  0  0  0  0
   -7.8866   12.3593   -0.1051 H   0  0  0  0  0  0  0  0  0  0  0  0
   -8.8599    4.1098    1.3894 H   0  0  0  0  0  0  0  0  0  0  0  0
   -7.6089    1.9863    1.3132 H   0  0  0  0  0  0  0  0  0  0  0  0
   -1.9487   -1.9801   -0.2780 H   0  0  0  0  0  0  0  0  0  0  0  0
    0.4115   -2.3078   -0.8957 H   0  0  0  0  0  0  0  0  0  0  0  0
  1  2  1  0  0  0  0
  1 29  1  0  0  0  0
  1 30  1  0  0  0  0
  1 31  1  0  0  0  0
  2  3  1  0  0  0  0
  2 28  2  0  0  0  0
  3  4  2  0  0  0  0
  3 32  1  0  0  0  0
  4  5  1  0  0  0  0
  4 33  1  0  0  0  0
  5  6  1  0  0  0  0
  5 27  2  0  0  0  0
  6  7  1  0  0  0  0
  6 34  1  0  0  0  0
  7  8  2  0  0  0  0
  7  9  1  0  0  0  0
  9 10  1  0  0  0  0
  9 35  1  0  0  0  0
 10 11  1  0  0  0  0
 10 26  2  0  0  0  0
 11 12  2  0  0  0  0
 11 36  1  0  0  0  0
 12 13  1  0  0  0  0
 12 37  1  0  0  0  0
 13 14  1  0  0  0  0
 13 25  2  0  0  0  0
 14 15  3  0  0  0  0
 15 16  1  0  0  0  0
 16 17  1  0  0  0  0
 16 24  2  0  0  0  0
 17 18  2  0  0  0  0
 17 38  1  0  0  0  0
 18 19  1  0  0  0  0
 18 39  1  0  0  0  0
 19 20  2  0  0  0  0
 19 23  1  0  0  0  0
 20 21  1  0  0  0  0
 21 22  2  0  0  0  0
 21 40  1  0  0  0  0
 22 23  1  0  0  0  0
 22 41  1  0  0  0  0
 23 24  1  0  0  0  0
 25 26  1  0  0  0  0
 25 42  1  0  0  0  0
 26 43  1  0  0  0  0
 27 28  1  0  0  0  0
 27 44  1  0  0  0  0
 28 45  1  0  0  0  0
M  END
$$$$
