CHEMBL272693
 OpenBabel04072215363D

 55 59  0  0  0  0  0  0  0  0999 V2000
    4.3927  -13.3347    2.2424 C   0  0  0  0  0  0  0  0  0  0  0  0
    4.7282  -12.6785    1.0204 O   0  0  0  0  0  0  0  0  0  0  0  0
    4.9804  -11.3344    1.1005 C   0  0  0  0  0  0  0  0  0  0  0  0
    5.4035  -10.7214    2.2909 C   0  0  0  0  0  0  0  0  0  0  0  0
    5.5213   -9.3434    2.4223 C   0  0  0  0  0  0  0  0  0  0  0  0
    5.8020   -8.8411    3.6361 N   0  0  0  0  0  0  0  0  0  0  0  0
    5.8351   -7.5001    3.7829 C   0  0  0  0  0  0  0  0  0  0  0  0
    5.5822   -6.6125    2.7581 C   0  0  0  0  0  0  0  0  0  0  0  0
    5.2955   -7.1364    1.4992 C   0  0  0  0  0  0  0  0  0  0  0  0
    5.0897   -6.1907    0.5136 O   0  0  0  0  0  0  0  0  0  0  0  0
    3.9757   -6.2350   -0.3000 C   0  0  0  0  0  0  0  0  0  0  0  0
    4.0503   -5.4576   -1.4517 C   0  0  0  0  0  0  0  0  0  0  0  0
    2.9937   -5.4421   -2.3729 C   0  0  0  0  0  0  0  0  0  0  0  0
    1.8438   -6.2542   -2.2053 C   0  0  0  0  0  0  0  0  0  0  0  0
    0.7312   -6.3324   -3.0985 C   0  0  0  0  0  0  0  0  0  0  0  0
    0.5486   -5.5001   -4.3287 C   0  0  0  0  0  0  0  0  0  0  0  0
   -0.5677   -5.0268   -4.5207 O   0  0  0  0  0  0  0  0  0  0  0  0
    1.6238   -5.4062   -5.1918 N   0  0  0  0  0  0  0  0  0  0  0  0
    1.6486   -4.6914   -6.4155 C   0  0  0  0  0  0  0  0  0  0  0  0
    0.6243   -3.8573   -6.8545 C   0  0  0  0  0  0  0  0  0  0  0  0
    0.7461   -3.2411   -8.0927 C   0  0  0  0  0  0  0  0  0  0  0  0
    1.8092   -3.3902   -8.9069 N   0  0  0  0  0  0  0  0  0  0  0  0
    2.7996   -4.1861   -8.4558 C   0  0  0  0  0  0  0  0  0  0  0  0
    2.7728   -4.8404   -7.2329 C   0  0  0  0  0  0  0  0  0  0  0  0
   -0.3562   -7.1805   -2.8124 C   0  0  0  0  0  0  0  0  0  0  0  0
   -0.3687   -7.9607   -1.6644 C   0  0  0  0  0  0  0  0  0  0  0  0
    0.6951   -7.8825   -0.7742 C   0  0  0  0  0  0  0  0  0  0  0  0
    1.7878   -7.0367   -1.0181 C   0  0  0  0  0  0  0  0  0  0  0  0
    2.8200   -6.9763   -0.0644 C   0  0  0  0  0  0  0  0  0  0  0  0
    5.2995   -8.5359    1.2938 C   0  0  0  0  0  0  0  0  0  0  0  0
    5.0669   -9.1694    0.0561 C   0  0  0  0  0  0  0  0  0  0  0  0
    4.8302  -10.5398   -0.0417 C   0  0  0  0  0  0  0  0  0  0  0  0
    4.4453  -10.8980   -1.3038 O   0  0  0  0  0  0  0  0  0  0  0  0
    3.7771  -12.1328   -1.4997 C   0  0  0  0  0  0  0  0  0  0  0  0
    3.7392  -14.1783    2.0061 H   0  0  0  0  0  0  0  0  0  0  0  0
    3.8402  -12.6930    2.9413 H   0  0  0  0  0  0  0  0  0  0  0  0
    5.3009  -13.7221    2.7133 H   0  0  0  0  0  0  0  0  0  0  0  0
    5.6220  -11.3147    3.1745 H   0  0  0  0  0  0  0  0  0  0  0  0
    6.0673   -7.1493    4.7847 H   0  0  0  0  0  0  0  0  0  0  0  0
    5.6058   -5.5452    2.9330 H   0  0  0  0  0  0  0  0  0  0  0  0
    4.9374   -4.8576   -1.6396 H   0  0  0  0  0  0  0  0  0  0  0  0
    3.0958   -4.7769   -3.2260 H   0  0  0  0  0  0  0  0  0  0  0  0
    2.4363   -5.9728   -4.9831 H   0  0  0  0  0  0  0  0  0  0  0  0
   -0.2687   -3.6628   -6.2732 H   0  0  0  0  0  0  0  0  0  0  0  0
   -0.0430   -2.5937   -8.4705 H   0  0  0  0  0  0  0  0  0  0  0  0
    3.6450   -4.2922   -9.1300 H   0  0  0  0  0  0  0  0  0  0  0  0
    3.6114   -5.4633   -6.9461 H   0  0  0  0  0  0  0  0  0  0  0  0
   -1.2108   -7.2221   -3.4870 H   0  0  0  0  0  0  0  0  0  0  0  0
   -1.2133   -8.6120   -1.4538 H   0  0  0  0  0  0  0  0  0  0  0  0
    0.6624   -8.4958    0.1253 H   0  0  0  0  0  0  0  0  0  0  0  0
    2.7220   -7.5546    0.8515 H   0  0  0  0  0  0  0  0  0  0  0  0
    4.9794   -8.5808   -0.8578 H   0  0  0  0  0  0  0  0  0  0  0  0
    3.2437  -12.0632   -2.4543 H   0  0  0  0  0  0  0  0  0  0  0  0
    3.0246  -12.3375   -0.7322 H   0  0  0  0  0  0  0  0  0  0  0  0
    4.5063  -12.9422   -1.5850 H   0  0  0  0  0  0  0  0  0  0  0  0
  1  2  1  0  0  0  0
  1 35  1  0  0  0  0
  1 36  1  0  0  0  0
  1 37  1  0  0  0  0
  2  3  1  0  0  0  0
  3  4  1  0  0  0  0
  3 32  2  0  0  0  0
  4  5  2  0  0  0  0
  4 38  1  0  0  0  0
  5  6  1  0  0  0  0
  5 30  1  0  0  0  0
  6  7  2  0  0  0  0
  7  8  1  0  0  0  0
  7 39  1  0  0  0  0
  8  9  2  0  0  0  0
  8 40  1  0  0  0  0
  9 10  1  0  0  0  0
  9 30  1  0  0  0  0
 10 11  1  0  0  0  0
 11 12  1  0  0  0  0
 11 29  2  0  0  0  0
 12 13  2  0  0  0  0
 12 41  1  0  0  0  0
 13 14  1  0  0  0  0
 13 42  1  0  0  0  0
 14 15  1  0  0  0  0
 14 28  2  0  0  0  0
 15 16  1  0  0  0  0
 15 25  2  0  0  0  0
 16 17  2  0  0  0  0
 16 18  1  0  0  0  0
 18 19  1  0  0  0  0
 18 43  1  0  0  0  0
 19 20  1  0  0  0  0
 19 24  2  0  0  0  0
 20 21  2  0  0  0  0
 20 44  1  0  0  0  0
 21 22  1  0  0  0  0
 21 45  1  0  0  0  0
 22 23  2  0  0  0  0
 23 24  1  0  0  0  0
 23 46  1  0  0  0  0
 24 47  1  0  0  0  0
 25 26  1  0  0  0  0
 25 48  1  0  0  0  0
 26 27  2  0  0  0  0
 26 49  1  0  0  0  0
 27 28  1  0  0  0  0
 27 50  1  0  0  0  0
 28 29  1  0  0  0  0
 29 51  1  0  0  0  0
 30 31  2  0  0  0  0
 31 32  1  0  0  0  0
 31 52  1  0  0  0  0
 32 33  1  0  0  0  0
 33 34  1  0  0  0  0
 34 53  1  0  0  0  0
 34 54  1  0  0  0  0
 34 55  1  0  0  0  0
M  END
$$$$
