CHEMBL3905131
 OpenBabel04072215373D

 74 77  0  0  1  0  0  0  0  0999 V2000
   -0.4679    0.3026   -5.6878 C   0  0  0  0  0  0  0  0  0  0  0  0
   -0.1344    1.3638   -4.6323 C   0  0  1  0  0  0  0  0  0  0  0  0
    1.3118    1.4867   -4.3883 N   0  0  0  0  0  0  0  0  0  0  0  0
    1.9833    0.3666   -3.8861 C   0  0  0  0  0  0  0  0  0  0  0  0
    1.3451   -0.5587   -3.1277 N   0  0  0  0  0  0  0  0  0  0  0  0
    2.0147   -1.6701   -2.7499 C   0  0  0  0  0  0  0  0  0  0  0  0
    3.2913   -2.0110   -3.0168 N   0  0  0  0  0  0  0  0  0  0  0  0
    3.8896   -1.0669   -3.7507 C   0  0  0  0  0  0  0  0  0  0  0  0
    5.1886   -1.1409   -4.1884 N   0  0  0  0  0  0  0  0  0  0  0  0
    5.4863   -0.0241   -4.9465 C   0  0  0  0  0  0  0  0  0  0  0  0
    6.7827    0.1921   -5.5761 C   0  0  0  0  0  0  0  0  0  0  0  0
    6.8701    0.9412   -6.7586 C   0  0  0  0  0  0  0  0  0  0  0  0
    8.1122    1.2129   -7.3452 C   0  0  0  0  0  0  0  0  0  0  0  0
    9.2875    0.7344   -6.7535 C   0  0  0  0  0  0  0  0  0  0  0  0
   10.6452    0.9930   -7.3106 C   0  0  0  0  0  0  0  0  0  0  0  0
   11.6165    1.0590   -6.5563 O   0  0  0  0  0  0  0  0  0  0  0  0
   10.7542    1.1358   -8.6786 N   0  0  0  0  0  0  0  0  0  0  0  0
   12.0533    1.3183   -9.3055 C   0  0  0  0  0  0  0  0  0  0  0  0
   12.7544   -0.0107   -9.6450 C   0  0  0  0  0  0  0  0  0  0  0  0
   11.9532   -0.8208  -10.5759 N   0  0  0  0  0  0  0  0  0  0  0  0
   12.6356   -2.0797  -10.8835 C   0  0  0  0  0  0  0  0  0  0  0  0
   11.7839   -2.9017  -11.8511 C   0  0  0  0  0  0  0  0  0  0  0  0
   12.4679   -4.2266  -12.1956 C   0  0  0  0  0  0  0  0  0  0  0  0
   11.6166   -5.0479  -13.1615 C   0  0  0  0  0  0  0  0  0  0  0  0
   12.2827   -6.3753  -13.5164 C   0  0  0  0  0  0  0  0  0  0  0  0
   11.4373   -7.1872  -14.4695 C   0  0  0  0  0  0  0  0  0  0  0  0
   10.3428   -6.8211  -14.9191 O   0  0  0  0  0  0  0  0  0  0  0  0
   11.9947   -8.3834  -14.8330 N   0  0  0  0  0  0  0  0  0  0  0  0
   11.2349   -9.1844  -15.7157 O   0  0  0  0  0  0  0  0  0  0  0  0
    9.1994   -0.0068   -5.5674 C   0  0  0  0  0  0  0  0  0  0  0  0
    7.9575   -0.2880   -4.9935 C   0  0  0  0  0  0  0  0  0  0  0  0
    4.3513    0.7675   -4.9562 C   0  0  0  0  0  0  0  0  0  0  0  0
    3.3367    0.1184   -4.2064 C   0  0  0  0  0  0  0  0  0  0  0  0
   -0.6248    2.7132   -5.1573 C   0  0  0  0  0  0  0  0  0  0  0  0
   -1.6157    3.4288   -4.4669 C   0  0  0  0  0  0  0  0  0  0  0  0
   -1.9562    4.7266   -4.8556 C   0  0  0  0  0  0  0  0  0  0  0  0
   -1.3224    5.3167   -5.9467 C   0  0  0  0  0  0  0  0  0  0  0  0
   -0.3811    4.5968   -6.6785 C   0  0  0  0  0  0  0  0  0  0  0  0
   -0.0471    3.2959   -6.2992 C   0  0  0  0  0  0  0  0  0  0  0  0
   -0.2630   -0.7136   -5.3358 H   0  0  0  0  0  0  0  0  0  0  0  0
    0.1062    0.4562   -6.6076 H   0  0  0  0  0  0  0  0  0  0  0  0
   -1.5313    0.3421   -5.9504 H   0  0  0  0  0  0  0  0  0  0  0  0
   -0.6574    1.1353   -3.6931 H   0  0  0  0  0  0  0  0  0  0  0  0
    1.5046    2.2814   -3.7807 H   0  0  0  0  0  0  0  0  0  0  0  0
    1.4468   -2.3895   -2.1693 H   0  0  0  0  0  0  0  0  0  0  0  0
    5.8028   -1.9069   -3.9886 H   0  0  0  0  0  0  0  0  0  0  0  0
    5.9688    1.3284   -7.2289 H   0  0  0  0  0  0  0  0  0  0  0  0
    8.1284    1.8255   -8.2419 H   0  0  0  0  0  0  0  0  0  0  0  0
    9.9631    0.9642   -9.2829 H   0  0  0  0  0  0  0  0  0  0  0  0
   12.6832    1.9006   -8.6241 H   0  0  0  0  0  0  0  0  0  0  0  0
   11.9005    1.9148  -10.2092 H   0  0  0  0  0  0  0  0  0  0  0  0
   12.9227   -0.5713   -8.7177 H   0  0  0  0  0  0  0  0  0  0  0  0
   13.7364    0.2067  -10.0879 H   0  0  0  0  0  0  0  0  0  0  0  0
   11.7866   -0.2999  -11.4337 H   0  0  0  0  0  0  0  0  0  0  0  0
   12.7948   -2.6539   -9.9639 H   0  0  0  0  0  0  0  0  0  0  0  0
   13.6149   -1.8813  -11.3356 H   0  0  0  0  0  0  0  0  0  0  0  0
   11.6089   -2.3309  -12.7718 H   0  0  0  0  0  0  0  0  0  0  0  0
   10.8021   -3.1017  -11.4033 H   0  0  0  0  0  0  0  0  0  0  0  0
   12.6425   -4.8012  -11.2778 H   0  0  0  0  0  0  0  0  0  0  0  0
   13.4480   -4.0281  -12.6457 H   0  0  0  0  0  0  0  0  0  0  0  0
   11.4386   -4.4697  -14.0772 H   0  0  0  0  0  0  0  0  0  0  0  0
   10.6327   -5.2389  -12.7142 H   0  0  0  0  0  0  0  0  0  0  0  0
   12.4460   -6.9699  -12.6097 H   0  0  0  0  0  0  0  0  0  0  0  0
   13.2555   -6.1929  -13.9882 H   0  0  0  0  0  0  0  0  0  0  0  0
   12.7775   -8.8267  -14.3627 H   0  0  0  0  0  0  0  0  0  0  0  0
   10.4540   -8.6137  -15.8926 H   0  0  0  0  0  0  0  0  0  0  0  0
   10.1027   -0.3739   -5.0836 H   0  0  0  0  0  0  0  0  0  0  0  0
    7.9237   -0.8619   -4.0705 H   0  0  0  0  0  0  0  0  0  0  0  0
    4.2612    1.7224   -5.4607 H   0  0  0  0  0  0  0  0  0  0  0  0
   -2.0910    3.0006   -3.5886 H   0  0  0  0  0  0  0  0  0  0  0  0
   -2.6875    5.2894   -4.2822 H   0  0  0  0  0  0  0  0  0  0  0  0
   -1.5524    6.3435   -6.2197 H   0  0  0  0  0  0  0  0  0  0  0  0
    0.1217    5.0605   -7.5234 H   0  0  0  0  0  0  0  0  0  0  0  0
    0.7120    2.7579   -6.8649 H   0  0  0  0  0  0  0  0  0  0  0  0
  1  2  1  0  0  0  0
  1 40  1  0  0  0  0
  1 41  1  0  0  0  0
  1 42  1  0  0  0  0
  2  3  1  0  0  0  0
  2 34  1  0  0  0  0
  2 43  1  1  0  0  0
  3  4  1  0  0  0  0
  3 44  1  0  0  0  0
  4  5  1  0  0  0  0
  4 33  2  0  0  0  0
  5  6  2  0  0  0  0
  6  7  1  0  0  0  0
  6 45  1  0  0  0  0
  7  8  2  0  0  0  0
  8  9  1  0  0  0  0
  8 33  1  0  0  0  0
  9 10  1  0  0  0  0
  9 46  1  0  0  0  0
 10 11  1  0  0  0  0
 10 32  2  0  0  0  0
 11 12  1  0  0  0  0
 11 31  2  0  0  0  0
 12 13  2  0  0  0  0
 12 47  1  0  0  0  0
 13 14  1  0  0  0  0
 13 48  1  0  0  0  0
 14 15  1  0  0  0  0
 14 30  2  0  0  0  0
 15 16  2  0  0  0  0
 15 17  1  0  0  0  0
 17 18  1  0  0  0  0
 17 49  1  0  0  0  0
 18 19  1  0  0  0  0
 18 50  1  0  0  0  0
 18 51  1  0  0  0  0
 19 20  1  0  0  0  0
 19 52  1  0  0  0  0
 19 53  1  0  0  0  0
 20 21  1  0  0  0  0
 20 54  1  0  0  0  0
 21 22  1  0  0  0  0
 21 55  1  0  0  0  0
 21 56  1  0  0  0  0
 22 23  1  0  0  0  0
 22 57  1  0  0  0  0
 22 58  1  0  0  0  0
 23 24  1  0  0  0  0
 23 59  1  0  0  0  0
 23 60  1  0  0  0  0
 24 25  1  0  0  0  0
 24 61  1  0  0  0  0
 24 62  1  0  0  0  0
 25 26  1  0  0  0  0
 25 63  1  0  0  0  0
 25 64  1  0  0  0  0
 26 27  2  0  0  0  0
 26 28  1  0  0  0  0
 28 29  1  0  0  0  0
 28 65  1  0  0  0  0
 29 66  1  0  0  0  0
 30 31  1  0  0  0  0
 30 67  1  0  0  0  0
 31 68  1  0  0  0  0
 32 33  1  0  0  0  0
 32 69  1  0  0  0  0
 34 35  1  0  0  0  0
 34 39  2  0  0  0  0
 35 36  2  0  0  0  0
 35 70  1  0  0  0  0
 36 37  1  0  0  0  0
 36 71  1  0  0  0  0
 37 38  2  0  0  0  0
 37 72  1  0  0  0  0
 38 39  1  0  0  0  0
 38 73  1  0  0  0  0
 39 74  1  0  0  0  0
M  END
$$$$
