CHEMBL2005824
 OpenBabel04072215363D

 56 61  0  0  0  0  0  0  0  0999 V2000
    0.2900    0.0191    0.0826 O   0  0  0  0  0  0  0  0  0  0  0  0
    1.2366    0.6419    0.5490 C   0  0  0  0  0  0  0  0  0  0  0  0
    2.0335    0.2405    1.6117 N   0  0  0  0  0  0  0  0  0  0  0  0
    1.9516   -1.0046    2.2799 C   0  0  0  0  0  0  0  0  0  0  0  0
    1.2389   -2.0962    1.7787 C   0  0  0  0  0  0  0  0  0  0  0  0
    1.1551   -3.2867    2.5020 C   0  0  0  0  0  0  0  0  0  0  0  0
    1.7676   -3.3899    3.7479 C   0  0  0  0  0  0  0  0  0  0  0  0
    2.4884   -2.3111    4.2731 C   0  0  0  0  0  0  0  0  0  0  0  0
    3.0806   -2.4435    5.5996 C   0  0  0  0  0  0  0  0  0  0  0  0
    3.6395   -3.6469    5.9980 N   0  0  0  0  0  0  0  0  0  0  0  0
    4.0790   -3.3889    7.1932 C   0  0  0  0  0  0  0  0  0  0  0  0
    4.9292   -4.3142    8.3913 S   0  0  0  0  0  0  0  0  0  0  0  0
    4.9537   -2.8795    9.4248 C   0  0  0  0  0  0  0  0  0  0  0  0
    4.3388   -1.8216    8.8684 C   0  0  0  0  0  0  0  0  0  0  0  0
    3.8438   -2.1131    7.6119 N   0  0  0  0  0  0  0  0  0  0  0  0
    3.1292   -1.4755    6.6188 C   0  0  0  0  0  0  0  0  0  0  0  0
    2.5759   -0.1285    6.7317 C   0  0  0  0  0  0  0  0  0  0  0  0
    1.3917    0.2162    6.1156 C   0  0  0  0  0  0  0  0  0  0  0  0
    1.0607    1.5410    6.1588 C   0  0  0  0  0  0  0  0  0  0  0  0
    1.8091    2.4542    6.7878 N   0  0  0  0  0  0  0  0  0  0  0  0
    2.9145    2.0321    7.4249 C   0  0  0  0  0  0  0  0  0  0  0  0
    3.6735    2.9599    8.1313 N   0  0  0  0  0  0  0  0  0  0  0  0
    3.8597    4.3264    7.8448 C   0  0  0  0  0  0  0  0  0  0  0  0
    3.7026    4.8150    6.5367 C   0  0  0  0  0  0  0  0  0  0  0  0
    3.8538    6.1700    6.2390 C   0  0  0  0  0  0  0  0  0  0  0  0
    4.1455    7.0742    7.2535 C   0  0  0  0  0  0  0  0  0  0  0  0
    4.2967    6.6193    8.5633 C   0  0  0  0  0  0  0  0  0  0  0  0
    4.1627    5.2560    8.8554 C   0  0  0  0  0  0  0  0  0  0  0  0
    4.3544    4.7539   10.5000 Cl  0  0  0  0  0  0  0  0  0  0  0  0
    3.3266    0.7545    7.4240 N   0  0  0  0  0  0  0  0  0  0  0  0
    2.6162   -1.1384    3.5071 C   0  0  0  0  0  0  0  0  0  0  0  0
    1.5311    1.9818   -0.0220 C   0  0  0  0  0  0  0  0  0  0  0  0
    0.4621    2.7220   -0.5480 C   0  0  0  0  0  0  0  0  0  0  0  0
    0.6908    3.9554   -1.1563 C   0  0  0  0  0  0  0  0  0  0  0  0
    1.9897    4.4514   -1.2480 C   0  0  0  0  0  0  0  0  0  0  0  0
    3.0593    3.7180   -0.7298 C   0  0  0  0  0  0  0  0  0  0  0  0
    2.8349    2.4822   -0.1163 C   0  0  0  0  0  0  0  0  0  0  0  0
    2.6330    0.9401    2.0308 H   0  0  0  0  0  0  0  0  0  0  0  0
    0.7460   -2.0601    0.8116 H   0  0  0  0  0  0  0  0  0  0  0  0
    0.6043   -4.1295    2.0918 H   0  0  0  0  0  0  0  0  0  0  0  0
    1.6801   -4.3186    4.3094 H   0  0  0  0  0  0  0  0  0  0  0  0
    5.4267   -2.8952   10.3979 H   0  0  0  0  0  0  0  0  0  0  0  0
    4.2264   -0.8391    9.2979 H   0  0  0  0  0  0  0  0  0  0  0  0
    0.7664   -0.4916    5.5895 H   0  0  0  0  0  0  0  0  0  0  0  0
    0.1727    1.9223    5.6642 H   0  0  0  0  0  0  0  0  0  0  0  0
    4.3881    2.5309    8.7000 H   0  0  0  0  0  0  0  0  0  0  0  0
    3.4744    4.1321    5.7215 H   0  0  0  0  0  0  0  0  0  0  0  0
    3.7361    6.5111    5.2137 H   0  0  0  0  0  0  0  0  0  0  0  0
    4.2494    8.1315    7.0243 H   0  0  0  0  0  0  0  0  0  0  0  0
    4.5110    7.3335    9.3540 H   0  0  0  0  0  0  0  0  0  0  0  0
    3.2109   -0.3127    3.8885 H   0  0  0  0  0  0  0  0  0  0  0  0
   -0.5515    2.3279   -0.4969 H   0  0  0  0  0  0  0  0  0  0  0  0
   -0.1420    4.5174   -1.5719 H   0  0  0  0  0  0  0  0  0  0  0  0
    2.1702    5.4041   -1.7402 H   0  0  0  0  0  0  0  0  0  0  0  0
    4.0720    4.1022   -0.8259 H   0  0  0  0  0  0  0  0  0  0  0  0
    3.6859    1.9064    0.2357 H   0  0  0  0  0  0  0  0  0  0  0  0
  1  2  2  0  0  0  0
  2  3  1  0  0  0  0
  2 32  1  0  0  0  0
  3  4  1  0  0  0  0
  3 38  1  0  0  0  0
  4  5  1  0  0  0  0
  4 31  2  0  0  0  0
  5  6  2  0  0  0  0
  5 39  1  0  0  0  0
  6  7  1  0  0  0  0
  6 40  1  0  0  0  0
  7  8  2  0  0  0  0
  7 41  1  0  0  0  0
  8  9  1  0  0  0  0
  8 31  1  0  0  0  0
  9 10  1  0  0  0  0
  9 16  2  0  0  0  0
 10 11  2  0  0  0  0
 11 12  1  0  0  0  0
 11 15  1  0  0  0  0
 12 13  1  0  0  0  0
 13 14  2  0  0  0  0
 13 42  1  0  0  0  0
 14 15  1  0  0  0  0
 14 43  1  0  0  0  0
 15 16  1  0  0  0  0
 16 17  1  0  0  0  0
 17 18  1  0  0  0  0
 17 30  2  0  0  0  0
 18 19  2  0  0  0  0
 18 44  1  0  0  0  0
 19 20  1  0  0  0  0
 19 45  1  0  0  0  0
 20 21  2  0  0  0  0
 21 22  1  0  0  0  0
 21 30  1  0  0  0  0
 22 23  1  0  0  0  0
 22 46  1  0  0  0  0
 23 24  1  0  0  0  0
 23 28  2  0  0  0  0
 24 25  2  0  0  0  0
 24 47  1  0  0  0  0
 25 26  1  0  0  0  0
 25 48  1  0  0  0  0
 26 27  2  0  0  0  0
 26 49  1  0  0  0  0
 27 28  1  0  0  0  0
 27 50  1  0  0  0  0
 28 29  1  0  0  0  0
 31 51  1  0  0  0  0
 32 33  1  0  0  0  0
 32 37  2  0  0  0  0
 33 34  2  0  0  0  0
 33 52  1  0  0  0  0
 34 35  1  0  0  0  0
 34 53  1  0  0  0  0
 35 36  2  0  0  0  0
 35 54  1  0  0  0  0
 36 37  1  0  0  0  0
 36 55  1  0  0  0  0
 37 56  1  0  0  0  0
M  END
$$$$
