CHEMBL3967761
 OpenBabel04072215373D

 68 72  0  0  0  0  0  0  0  0999 V2000
    8.2382    3.7686   -4.7466 C   0  0  0  0  0  0  0  0  0  0  0  0
    8.2455    3.2224   -3.4249 O   0  0  0  0  0  0  0  0  0  0  0  0
    7.6341    3.9561   -2.4362 C   0  0  0  0  0  0  0  0  0  0  0  0
    7.0230    5.1935   -2.6411 C   0  0  0  0  0  0  0  0  0  0  0  0
    6.3621    5.8213   -1.5910 C   0  0  0  0  0  0  0  0  0  0  0  0
    5.6775    7.0051   -1.6676 O   0  0  0  0  0  0  0  0  0  0  0  0
    5.7068    7.6907   -2.9138 C   0  0  0  0  0  0  0  0  0  0  0  0
    6.3330    5.2160   -0.3275 C   0  0  0  0  0  0  0  0  0  0  0  0
    6.9452    3.9790   -0.0681 C   0  0  0  0  0  0  0  0  0  0  0  0
    6.7471    3.2833    1.1520 N   0  0  0  0  0  0  0  0  0  0  0  0
    5.3910    3.4726    1.8065 C   0  0  0  0  0  0  0  0  0  0  0  0
    4.1646    3.0898    0.9590 C   0  0  0  0  0  0  0  0  0  0  0  0
    4.1003    1.6859    0.7131 O   0  0  0  0  0  0  0  0  0  0  0  0
    7.6868    2.9186    2.1860 C   0  0  0  0  0  0  0  0  0  0  0  0
    7.3813    1.7274    2.8451 C   0  0  0  0  0  0  0  0  0  0  0  0
    7.7335    1.5646    4.1682 C   0  0  0  0  0  0  0  0  0  0  0  0
    8.5529    2.4610    4.8096 C   0  0  0  0  0  0  0  0  0  0  0  0
    8.6420    2.2762    6.1323 N   0  0  0  0  0  0  0  0  0  0  0  0
    9.6135    2.9411    6.7673 C   0  0  0  0  0  0  0  0  0  0  0  0
   10.5579    3.6779    6.0675 C   0  0  0  0  0  0  0  0  0  0  0  0
   11.8888    3.6716    6.6957 C   0  0  0  0  0  0  0  0  0  0  0  0
   12.7152    4.6448    7.2938 C   0  0  0  0  0  0  0  0  0  0  0  0
   13.7995    4.1196    7.8903 N   0  0  0  0  0  0  0  0  0  0  0  0
   13.6966    2.7912    7.6590 N   0  0  0  0  0  0  0  0  0  0  0  0
   14.7946    1.8752    8.0096 C   0  0  0  0  0  0  0  0  0  0  0  0
   16.1812    2.4493    7.6801 C   0  0  0  0  0  0  0  0  0  0  0  0
   16.3312    2.6430    6.1716 C   0  0  0  0  0  0  0  0  0  0  0  0
   16.0792    1.4185    5.3928 N   0  0  0  0  0  0  0  0  0  0  0  0
   15.9728    1.7740    3.9693 C   0  0  0  0  0  0  0  0  0  0  0  0
   14.8767    0.6754    5.7880 C   0  0  0  0  0  0  0  0  0  0  0  0
   14.7347    0.5088    7.3019 C   0  0  0  0  0  0  0  0  0  0  0  0
   12.4885    2.4824    7.0937 C   0  0  0  0  0  0  0  0  0  0  0  0
   10.3633    4.0086    4.7471 N   0  0  0  0  0  0  0  0  0  0  0  0
    9.2619    3.4438    4.0836 C   0  0  0  0  0  0  0  0  0  0  0  0
    8.7192    3.7132    2.7617 C   0  0  0  0  0  0  0  0  0  0  0  0
    7.6077    3.3660   -1.1505 C   0  0  0  0  0  0  0  0  0  0  0  0
    8.6660    3.0271   -5.4293 H   0  0  0  0  0  0  0  0  0  0  0  0
    8.8627    4.6676   -4.7999 H   0  0  0  0  0  0  0  0  0  0  0  0
    7.2212    3.9796   -5.0984 H   0  0  0  0  0  0  0  0  0  0  0  0
    7.0418    5.6571   -3.6196 H   0  0  0  0  0  0  0  0  0  0  0  0
    5.1490    8.6242   -2.7944 H   0  0  0  0  0  0  0  0  0  0  0  0
    5.2141    7.1071   -3.6990 H   0  0  0  0  0  0  0  0  0  0  0  0
    6.7324    7.9489   -3.1974 H   0  0  0  0  0  0  0  0  0  0  0  0
    5.7867    5.7326    0.4553 H   0  0  0  0  0  0  0  0  0  0  0  0
    5.3002    4.5031    2.1640 H   0  0  0  0  0  0  0  0  0  0  0  0
    5.2950    2.8516    2.7066 H   0  0  0  0  0  0  0  0  0  0  0  0
    4.1018    3.6309    0.0120 H   0  0  0  0  0  0  0  0  0  0  0  0
    3.2647    3.3413    1.5338 H   0  0  0  0  0  0  0  0  0  0  0  0
    3.9432    1.5732   -0.2409 H   0  0  0  0  0  0  0  0  0  0  0  0
    6.6991    1.0118    2.3891 H   0  0  0  0  0  0  0  0  0  0  0  0
    7.3211    0.7307    4.7295 H   0  0  0  0  0  0  0  0  0  0  0  0
    9.6929    2.7536    7.8340 H   0  0  0  0  0  0  0  0  0  0  0  0
   12.5674    5.7142    7.3635 H   0  0  0  0  0  0  0  0  0  0  0  0
   14.7144    1.7201    9.0935 H   0  0  0  0  0  0  0  0  0  0  0  0
   16.9611    1.7637    8.0400 H   0  0  0  0  0  0  0  0  0  0  0  0
   16.3522    3.4002    8.1980 H   0  0  0  0  0  0  0  0  0  0  0  0
   17.3589    2.9724    5.9729 H   0  0  0  0  0  0  0  0  0  0  0  0
   15.6721    3.4571    5.8486 H   0  0  0  0  0  0  0  0  0  0  0  0
   16.8917    2.2538    3.6176 H   0  0  0  0  0  0  0  0  0  0  0  0
   15.1365    2.4619    3.7859 H   0  0  0  0  0  0  0  0  0  0  0  0
   15.8158    0.8816    3.3538 H   0  0  0  0  0  0  0  0  0  0  0  0
   14.9151   -0.3241    5.3370 H   0  0  0  0  0  0  0  0  0  0  0  0
   13.9781    1.1543    5.3854 H   0  0  0  0  0  0  0  0  0  0  0  0
   15.5485   -0.1325    7.6696 H   0  0  0  0  0  0  0  0  0  0  0  0
   13.8067   -0.0245    7.5397 H   0  0  0  0  0  0  0  0  0  0  0  0
   12.1658    1.4569    6.9747 H   0  0  0  0  0  0  0  0  0  0  0  0
    9.0815    4.5920    2.2260 H   0  0  0  0  0  0  0  0  0  0  0  0
    8.0464    2.3781   -1.0235 H   0  0  0  0  0  0  0  0  0  0  0  0
  1  2  1  0  0  0  0
  1 37  1  0  0  0  0
  1 38  1  0  0  0  0
  1 39  1  0  0  0  0
  2  3  1  0  0  0  0
  3  4  1  0  0  0  0
  3 36  2  0  0  0  0
  4  5  2  0  0  0  0
  4 40  1  0  0  0  0
  5  6  1  0  0  0  0
  5  8  1  0  0  0  0
  6  7  1  0  0  0  0
  7 41  1  0  0  0  0
  7 42  1  0  0  0  0
  7 43  1  0  0  0  0
  8  9  2  0  0  0  0
  8 44  1  0  0  0  0
  9 10  1  0  0  0  0
  9 36  1  0  0  0  0
 10 11  1  0  0  0  0
 10 14  1  0  0  0  0
 11 12  1  0  0  0  0
 11 45  1  0  0  0  0
 11 46  1  0  0  0  0
 12 13  1  0  0  0  0
 12 47  1  0  0  0  0
 12 48  1  0  0  0  0
 13 49  1  0  0  0  0
 14 15  1  0  0  0  0
 14 35  2  0  0  0  0
 15 16  2  0  0  0  0
 15 50  1  0  0  0  0
 16 17  1  0  0  0  0
 16 51  1  0  0  0  0
 17 18  1  0  0  0  0
 17 34  2  0  0  0  0
 18 19  2  0  0  0  0
 19 20  1  0  0  0  0
 19 52  1  0  0  0  0
 20 21  1  0  0  0  0
 20 33  2  0  0  0  0
 21 22  1  0  0  0  0
 21 32  2  0  0  0  0
 22 23  2  0  0  0  0
 22 53  1  0  0  0  0
 23 24  1  0  0  0  0
 24 25  1  0  0  0  0
 24 32  1  0  0  0  0
 25 26  1  0  0  0  0
 25 31  1  0  0  0  0
 25 54  1  0  0  0  0
 26 27  1  0  0  0  0
 26 55  1  0  0  0  0
 26 56  1  0  0  0  0
 27 28  1  0  0  0  0
 27 57  1  0  0  0  0
 27 58  1  0  0  0  0
 28 29  1  0  0  0  0
 28 30  1  0  0  0  0
 29 59  1  0  0  0  0
 29 60  1  0  0  0  0
 29 61  1  0  0  0  0
 30 31  1  0  0  0  0
 30 62  1  0  0  0  0
 30 63  1  0  0  0  0
 31 64  1  0  0  0  0
 31 65  1  0  0  0  0
 32 66  1  0  0  0  0
 33 34  1  0  0  0  0
 34 35  1  0  0  0  0
 35 67  1  0  0  0  0
 36 68  1  0  0  0  0
M  END
$$$$
