CHEMBL176078
 OpenBabel04072215363D

 45 48  0  0  0  0  0  0  0  0999 V2000
    1.5544    2.4862    0.0397 C   0  0  0  0  0  0  0  0  0  0  0  0
    2.3021    2.1417   -1.2402 C   0  0  0  0  0  0  0  0  0  0  0  0
    3.1553    0.9647   -1.0365 N   0  0  0  0  0  0  0  0  0  0  0  0
    2.6688   -0.3178   -1.5411 C   0  0  0  0  0  0  0  0  0  0  0  0
    2.6545   -1.4296   -0.5089 C   0  0  0  0  0  0  0  0  0  0  0  0
    2.3760   -1.1871    0.8438 C   0  0  0  0  0  0  0  0  0  0  0  0
    2.2018   -2.2459    1.7381 C   0  0  0  0  0  0  0  0  0  0  0  0
    2.3069   -3.5617    1.2932 C   0  0  0  0  0  0  0  0  0  0  0  0
    2.6128   -3.8204   -0.0405 C   0  0  0  0  0  0  0  0  0  0  0  0
    2.7850   -2.7622   -0.9357 C   0  0  0  0  0  0  0  0  0  0  0  0
    4.5312    1.1635   -1.1174 C   0  0  0  0  0  0  0  0  0  0  0  0
    5.3440    0.1233   -1.2444 N   0  0  0  0  0  0  0  0  0  0  0  0
    6.6241    0.4327   -1.3252 C   0  0  0  0  0  0  0  0  0  0  0  0
    7.4552   -0.6377   -1.4368 O   0  0  0  0  0  0  0  0  0  0  0  0
    7.1820    1.6300   -1.3165 N   0  0  0  0  0  0  0  0  0  0  0  0
    6.3034    2.6015   -1.1625 C   0  0  0  0  0  0  0  0  0  0  0  0
    6.7942    3.9116   -1.1428 N   0  0  0  0  0  0  0  0  0  0  0  0
    6.2335    5.0366   -0.5089 C   0  0  0  0  0  0  0  0  0  0  0  0
    6.5876    6.3127   -0.9558 C   0  0  0  0  0  0  0  0  0  0  0  0
    6.0614    7.4667   -0.3564 C   0  0  0  0  0  0  0  0  0  0  0  0
    5.1635    7.3490    0.7222 C   0  0  0  0  0  0  0  0  0  0  0  0
    4.5837    8.3948    1.4228 N   0  0  0  0  0  0  0  0  0  0  0  0
    3.8059    7.9106    2.3641 C   0  0  0  0  0  0  0  0  0  0  0  0
    3.7012    6.2063    2.4695 S   0  0  0  0  0  0  0  0  0  0  0  0
    4.8048    6.0726    1.1533 C   0  0  0  0  0  0  0  0  0  0  0  0
    5.3193    4.9143    0.5500 C   0  0  0  0  0  0  0  0  0  0  0  0
    4.9928    2.4049   -1.0579 N   0  0  0  0  0  0  0  0  0  0  0  0
    0.9395    3.3796   -0.1122 H   0  0  0  0  0  0  0  0  0  0  0  0
    2.2464    2.6866    0.8642 H   0  0  0  0  0  0  0  0  0  0  0  0
    0.8901    1.6707    0.3419 H   0  0  0  0  0  0  0  0  0  0  0  0
    2.8489    3.0328   -1.5709 H   0  0  0  0  0  0  0  0  0  0  0  0
    1.5742    1.9519   -2.0376 H   0  0  0  0  0  0  0  0  0  0  0  0
    3.2323   -0.6235   -2.4334 H   0  0  0  0  0  0  0  0  0  0  0  0
    1.6280   -0.2166   -1.8758 H   0  0  0  0  0  0  0  0  0  0  0  0
    2.2780   -0.1682    1.2090 H   0  0  0  0  0  0  0  0  0  0  0  0
    1.9675   -2.0410    2.7794 H   0  0  0  0  0  0  0  0  0  0  0  0
    2.1456   -4.3842    1.9849 H   0  0  0  0  0  0  0  0  0  0  0  0
    2.6983   -4.8466   -0.3883 H   0  0  0  0  0  0  0  0  0  0  0  0
    3.0007   -2.9857   -1.9783 H   0  0  0  0  0  0  0  0  0  0  0  0
    6.7974   -1.3494   -1.3641 H   0  0  0  0  0  0  0  0  0  0  0  0
    7.8059    3.8972   -1.1682 H   0  0  0  0  0  0  0  0  0  0  0  0
    7.2649    6.4254   -1.8000 H   0  0  0  0  0  0  0  0  0  0  0  0
    6.3395    8.4526   -0.7153 H   0  0  0  0  0  0  0  0  0  0  0  0
    3.2546    8.5485    3.0420 H   0  0  0  0  0  0  0  0  0  0  0  0
    5.0224    3.9411    0.9281 H   0  0  0  0  0  0  0  0  0  0  0  0
  1  2  1  0  0  0  0
  1 28  1  0  0  0  0
  1 29  1  0  0  0  0
  1 30  1  0  0  0  0
  2  3  1  0  0  0  0
  2 31  1  0  0  0  0
  2 32  1  0  0  0  0
  3  4  1  0  0  0  0
  3 11  1  0  0  0  0
  4  5  1  0  0  0  0
  4 33  1  0  0  0  0
  4 34  1  0  0  0  0
  5  6  1  0  0  0  0
  5 10  2  0  0  0  0
  6  7  2  0  0  0  0
  6 35  1  0  0  0  0
  7  8  1  0  0  0  0
  7 36  1  0  0  0  0
  8  9  2  0  0  0  0
  8 37  1  0  0  0  0
  9 10  1  0  0  0  0
  9 38  1  0  0  0  0
 10 39  1  0  0  0  0
 11 12  1  0  0  0  0
 11 27  2  0  0  0  0
 12 13  2  0  0  0  0
 13 14  1  0  0  0  0
 13 15  1  0  0  0  0
 14 40  1  0  0  0  0
 15 16  2  0  0  0  0
 16 17  1  0  0  0  0
 16 27  1  0  0  0  0
 17 18  1  0  0  0  0
 17 41  1  0  0  0  0
 18 19  1  0  0  0  0
 18 26  2  0  0  0  0
 19 20  2  0  0  0  0
 19 42  1  0  0  0  0
 20 21  1  0  0  0  0
 20 43  1  0  0  0  0
 21 22  1  0  0  0  0
 21 25  2  0  0  0  0
 22 23  2  0  0  0  0
 23 24  1  0  0  0  0
 23 44  1  0  0  0  0
 24 25  1  0  0  0  0
 25 26  1  0  0  0  0
 26 45  1  0  0  0  0
M  END
$$$$
