CHEMBL222728
 OpenBabel04072215363D

 43 46  0  0  0  0  0  0  0  0999 V2000
   -1.0706    2.1039   -3.1947 N   0  0  0  0  0  0  0  0  0  0  0  0
   -1.3602    1.0043   -2.4875 C   0  0  0  0  0  0  0  0  0  0  0  0
   -1.7672   -0.0931   -3.1288 N   0  0  0  0  0  0  0  0  0  0  0  0
   -1.9584   -0.9742   -2.1533 N   0  0  0  0  0  0  0  0  0  0  0  0
   -1.7001   -0.5011   -0.8976 C   0  0  0  0  0  0  0  0  0  0  0  0
   -1.7969   -1.1515    0.3421 C   0  0  0  0  0  0  0  0  0  0  0  0
   -1.4353   -0.4223    1.4642 C   0  0  0  0  0  0  0  0  0  0  0  0
   -1.0053    0.8931    1.3543 C   0  0  0  0  0  0  0  0  0  0  0  0
   -0.9174    1.5681    0.1099 C   0  0  0  0  0  0  0  0  0  0  0  0
   -0.4531    2.9693    0.0480 C   0  0  0  0  0  0  0  0  0  0  0  0
    0.4399    3.3870   -0.9402 C   0  0  0  0  0  0  0  0  0  0  0  0
    0.7878    4.7286   -1.0958 C   0  0  0  0  0  0  0  0  0  0  0  0
    0.3606    5.6983   -0.1917 C   0  0  0  0  0  0  0  0  0  0  0  0
    0.7459    7.0576   -0.2905 N   0  0  0  0  0  0  0  0  0  0  0  0
    1.4148    7.6213   -1.3644 C   0  0  0  0  0  0  0  0  0  0  0  0
    1.6452    7.0563   -2.4314 O   0  0  0  0  0  0  0  0  0  0  0  0
    1.8512    8.9098   -1.0931 N   0  0  0  0  0  0  0  0  0  0  0  0
    2.5816    9.6249   -2.0745 C   0  0  0  0  0  0  0  0  0  0  0  0
    3.7818   10.2378   -1.7107 C   0  0  0  0  0  0  0  0  0  0  0  0
    4.5595   10.8804   -2.6783 C   0  0  0  0  0  0  0  0  0  0  0  0
    4.1190   10.9505   -4.0009 C   0  0  0  0  0  0  0  0  0  0  0  0
    2.9058   10.3658   -4.3545 C   0  0  0  0  0  0  0  0  0  0  0  0
    2.2974   10.4778   -6.1420 Br  0  0  0  0  0  0  0  0  0  0  0  0
    2.1392    9.6963   -3.4021 C   0  0  0  0  0  0  0  0  0  0  0  0
   -0.4447    5.2884    0.8750 C   0  0  0  0  0  0  0  0  0  0  0  0
   -0.8586    3.9452    0.9786 C   0  0  0  0  0  0  0  0  0  0  0  0
   -1.2835    0.8216   -1.0613 C   0  0  0  0  0  0  0  0  0  0  0  0
   -1.2629    2.0838   -4.1879 H   0  0  0  0  0  0  0  0  0  0  0  0
   -1.0853    3.0309   -2.7875 H   0  0  0  0  0  0  0  0  0  0  0  0
   -2.2787   -1.9039   -2.4026 H   0  0  0  0  0  0  0  0  0  0  0  0
   -2.1279   -2.1822    0.4179 H   0  0  0  0  0  0  0  0  0  0  0  0
   -1.4840   -0.8961    2.4477 H   0  0  0  0  0  0  0  0  0  0  0  0
   -0.7068    1.4118    2.2661 H   0  0  0  0  0  0  0  0  0  0  0  0
    0.8612    2.6723   -1.6438 H   0  0  0  0  0  0  0  0  0  0  0  0
    1.4117    4.9641   -1.9507 H   0  0  0  0  0  0  0  0  0  0  0  0
    0.3976    7.6920    0.4145 H   0  0  0  0  0  0  0  0  0  0  0  0
    2.1310    9.0552   -0.1334 H   0  0  0  0  0  0  0  0  0  0  0  0
    4.1597   10.1635   -0.6953 H   0  0  0  0  0  0  0  0  0  0  0  0
    5.5192   11.3119   -2.4053 H   0  0  0  0  0  0  0  0  0  0  0  0
    4.7288   11.4544   -4.7463 H   0  0  0  0  0  0  0  0  0  0  0  0
    1.2040    9.2265   -3.6945 H   0  0  0  0  0  0  0  0  0  0  0  0
   -0.7786    5.9947    1.6281 H   0  0  0  0  0  0  0  0  0  0  0  0
   -1.5148    3.6719    1.8029 H   0  0  0  0  0  0  0  0  0  0  0  0
  1  2  1  0  0  0  0
  1 28  1  0  0  0  0
  1 29  1  0  0  0  0
  2  3  2  0  0  0  0
  2 27  1  0  0  0  0
  3  4  1  0  0  0  0
  4  5  1  0  0  0  0
  4 30  1  0  0  0  0
  5  6  1  0  0  0  0
  5 27  2  0  0  0  0
  6  7  2  0  0  0  0
  6 31  1  0  0  0  0
  7  8  1  0  0  0  0
  7 32  1  0  0  0  0
  8  9  2  0  0  0  0
  8 33  1  0  0  0  0
  9 10  1  0  0  0  0
  9 27  1  0  0  0  0
 10 11  1  0  0  0  0
 10 26  2  0  0  0  0
 11 12  2  0  0  0  0
 11 34  1  0  0  0  0
 12 13  1  0  0  0  0
 12 35  1  0  0  0  0
 13 14  1  0  0  0  0
 13 25  2  0  0  0  0
 14 15  1  0  0  0  0
 14 36  1  0  0  0  0
 15 16  2  0  0  0  0
 15 17  1  0  0  0  0
 17 18  1  0  0  0  0
 17 37  1  0  0  0  0
 18 19  1  0  0  0  0
 18 24  2  0  0  0  0
 19 20  2  0  0  0  0
 19 38  1  0  0  0  0
 20 21  1  0  0  0  0
 20 39  1  0  0  0  0
 21 22  2  0  0  0  0
 21 40  1  0  0  0  0
 22 23  1  0  0  0  0
 22 24  1  0  0  0  0
 24 41  1  0  0  0  0
 25 26  1  0  0  0  0
 25 42  1  0  0  0  0
 26 43  1  0  0  0  0
M  END
$$$$
