CHEMBL3656085
 OpenBabel04072215373D

 74 77  0  0  1  0  0  0  0  0999 V2000
   12.1875   -2.4870   -1.7686 C   0  0  0  0  0  0  0  0  0  0  0  0
   11.0846   -2.1458   -0.9286 O   0  0  0  0  0  0  0  0  0  0  0  0
    9.8696   -2.2207   -1.5447 C   0  0  0  0  0  0  0  0  0  0  0  0
    9.6879   -2.5395   -2.7097 O   0  0  0  0  0  0  0  0  0  0  0  0
    8.7967   -1.8168   -0.5660 C   0  0  0  0  0  0  0  0  0  0  0  0
    7.3967   -1.8425   -1.1826 C   0  0  0  0  0  0  0  0  0  0  0  0
    6.2956   -1.4608   -0.1798 C   0  0  2  0  0  0  0  0  0  0  0  0
    4.9661   -1.6037   -0.7724 N   0  0  0  0  0  0  0  0  0  0  0  0
    4.3211   -2.8137   -0.7971 C   0  0  0  0  0  0  0  0  0  0  0  0
    4.8344   -3.8318   -0.3322 O   0  0  0  0  0  0  0  0  0  0  0  0
    2.9930   -2.8348   -1.4082 C   0  0  0  0  0  0  0  0  0  0  0  0
    2.2774   -1.8108   -2.0061 C   0  0  0  0  0  0  0  0  0  0  0  0
    1.0769   -2.3173   -2.4507 N   0  0  0  0  0  0  0  0  0  0  0  0
    0.9752   -3.6541   -2.1413 C   0  0  0  0  0  0  0  0  0  0  0  0
   -0.2087   -4.4544   -2.4483 C   0  0  0  0  0  0  0  0  0  0  0  0
   -0.2725   -5.7999   -2.1131 C   0  0  0  0  0  0  0  0  0  0  0  0
   -1.4747   -6.4860   -2.2774 C   0  0  0  0  0  0  0  0  0  0  0  0
   -1.6747   -7.7979   -1.8791 O   0  0  0  0  0  0  0  0  0  0  0  0
   -0.9863   -8.2673   -0.7767 C   0  0  0  0  0  0  0  0  0  0  0  0
   -0.6876   -7.4695    0.3222 C   0  0  0  0  0  0  0  0  0  0  0  0
    0.1521   -7.9445    1.3283 C   0  0  0  0  0  0  0  0  0  0  0  0
    0.6461   -9.2491    1.3138 C   0  0  0  0  0  0  0  0  0  0  0  0
    1.5620   -9.7308    2.2871 N   0  0  0  0  0  0  0  0  0  0  0  0
    2.0702   -8.9875    3.3417 C   0  0  0  0  0  0  0  0  0  0  0  0
    1.7505   -7.8355    3.6145 O   0  0  0  0  0  0  0  0  0  0  0  0
    3.0307   -9.6746    4.0719 N   0  0  0  0  0  0  0  0  0  0  0  0
    3.6386   -9.0055    5.1729 C   0  0  0  0  0  0  0  0  0  0  0  0
    2.8706   -8.4070    6.1820 C   0  0  0  0  0  0  0  0  0  0  0  0
    3.4779   -7.6777    7.2117 C   0  0  0  0  0  0  0  0  0  0  0  0
    2.6543   -7.0441    8.2951 C   0  0  0  0  0  0  0  0  0  0  0  0
    4.8720   -7.5344    7.2133 C   0  0  0  0  0  0  0  0  0  0  0  0
    5.6450   -8.1372    6.2181 C   0  0  0  0  0  0  0  0  0  0  0  0
    5.0269   -8.8864    5.2206 C   0  0  0  0  0  0  0  0  0  0  0  0
    5.7761   -9.4364    4.2525 F   0  0  0  0  0  0  0  0  0  0  0  0
    0.2302  -10.0950    0.2769 C   0  0  0  0  0  0  0  0  0  0  0  0
   -0.5809   -9.6037   -0.7667 C   0  0  0  0  0  0  0  0  0  0  0  0
   -2.5373   -5.8348   -2.8903 C   0  0  0  0  0  0  0  0  0  0  0  0
   -2.3689   -4.5030   -3.2456 C   0  0  0  0  0  0  0  0  0  0  0  0
   -1.2389   -3.7887   -3.0198 N   0  0  0  0  0  0  0  0  0  0  0  0
    2.1551   -3.9866   -1.4981 C   0  0  0  0  0  0  0  0  0  0  0  0
    6.4603   -0.0101    0.2900 C   0  0  0  0  0  0  0  0  0  0  0  0
    5.9093    0.9592   -0.2230 O   0  0  0  0  0  0  0  0  0  0  0  0
    7.3467    0.0443    1.3260 O   0  0  0  0  0  0  0  0  0  0  0  0
    7.7123    1.3592    1.7441 C   0  0  0  0  0  0  0  0  0  0  0  0
   13.1057   -2.3691   -1.1862 H   0  0  0  0  0  0  0  0  0  0  0  0
   12.2377   -1.8159   -2.6319 H   0  0  0  0  0  0  0  0  0  0  0  0
   12.1114   -3.5301   -2.0896 H   0  0  0  0  0  0  0  0  0  0  0  0
    9.0470   -0.8049   -0.2345 H   0  0  0  0  0  0  0  0  0  0  0  0
    8.8384   -2.4977    0.2888 H   0  0  0  0  0  0  0  0  0  0  0  0
    7.1959   -2.8476   -1.5773 H   0  0  0  0  0  0  0  0  0  0  0  0
    7.3624   -1.1659   -2.0419 H   0  0  0  0  0  0  0  0  0  0  0  0
    6.3341   -2.1076    0.6969 H   0  0  0  0  0  0  0  0  0  0  0  0
    4.5170   -0.7810   -1.1605 H   0  0  0  0  0  0  0  0  0  0  0  0
    2.5054   -0.7661   -2.1651 H   0  0  0  0  0  0  0  0  0  0  0  0
    0.3474   -1.8030   -2.9302 H   0  0  0  0  0  0  0  0  0  0  0  0
    0.5914   -6.2888   -1.6800 H   0  0  0  0  0  0  0  0  0  0  0  0
   -1.0396   -6.4443    0.3945 H   0  0  0  0  0  0  0  0  0  0  0  0
    0.4104   -7.2282    2.0994 H   0  0  0  0  0  0  0  0  0  0  0  0
    1.8565  -10.6940    2.2154 H   0  0  0  0  0  0  0  0  0  0  0  0
    3.6743  -10.2085    3.5014 H   0  0  0  0  0  0  0  0  0  0  0  0
    1.7834   -8.4954    6.1509 H   0  0  0  0  0  0  0  0  0  0  0  0
    1.5862   -7.2438    8.1584 H   0  0  0  0  0  0  0  0  0  0  0  0
    2.7952   -5.9585    8.2981 H   0  0  0  0  0  0  0  0  0  0  0  0
    2.9458   -7.4474    9.2704 H   0  0  0  0  0  0  0  0  0  0  0  0
    5.3594   -6.9447    7.9874 H   0  0  0  0  0  0  0  0  0  0  0  0
    6.7223   -8.0096    6.2046 H   0  0  0  0  0  0  0  0  0  0  0  0
    0.5445  -11.1343    0.2431 H   0  0  0  0  0  0  0  0  0  0  0  0
   -0.8724  -10.2621   -1.5821 H   0  0  0  0  0  0  0  0  0  0  0  0
   -3.4763   -6.3434   -3.0750 H   0  0  0  0  0  0  0  0  0  0  0  0
   -3.1735   -3.9517   -3.7252 H   0  0  0  0  0  0  0  0  0  0  0  0
    2.4138   -4.9642   -1.1076 H   0  0  0  0  0  0  0  0  0  0  0  0
    8.5815    1.2690    2.4023 H   0  0  0  0  0  0  0  0  0  0  0  0
    6.8918    1.8154    2.3040 H   0  0  0  0  0  0  0  0  0  0  0  0
    7.9981    1.9799    0.8889 H   0  0  0  0  0  0  0  0  0  0  0  0
  1  2  1  0  0  0  0
  1 45  1  0  0  0  0
  1 46  1  0  0  0  0
  1 47  1  0  0  0  0
  2  3  1  0  0  0  0
  3  4  2  0  0  0  0
  3  5  1  0  0  0  0
  5  6  1  0  0  0  0
  5 48  1  0  0  0  0
  5 49  1  0  0  0  0
  6 50  1  0  0  0  0
  6 51  1  0  0  0  0
  7 41  1  0  0  0  0
  7  8  1  0  0  0  0
  7  6  1  0  0  0  0
  7 52  1  1  0  0  0
  8  9  1  0  0  0  0
  8 53  1  0  0  0  0
  9 10  2  0  0  0  0
  9 11  1  0  0  0  0
 11 12  2  0  0  0  0
 11 40  1  0  0  0  0
 12 13  1  0  0  0  0
 12 54  1  0  0  0  0
 13 14  1  0  0  0  0
 13 55  1  0  0  0  0
 14 15  1  0  0  0  0
 14 40  2  0  0  0  0
 15 16  1  0  0  0  0
 15 39  2  0  0  0  0
 16 17  2  0  0  0  0
 16 56  1  0  0  0  0
 17 18  1  0  0  0  0
 17 37  1  0  0  0  0
 18 19  1  0  0  0  0
 19 20  1  0  0  0  0
 19 36  2  0  0  0  0
 20 21  2  0  0  0  0
 20 57  1  0  0  0  0
 21 22  1  0  0  0  0
 21 58  1  0  0  0  0
 22 23  1  0  0  0  0
 22 35  2  0  0  0  0
 23 24  1  0  0  0  0
 23 59  1  0  0  0  0
 24 25  2  0  0  0  0
 24 26  1  0  0  0  0
 26 27  1  0  0  0  0
 26 60  1  0  0  0  0
 27 28  1  0  0  0  0
 27 33  2  0  0  0  0
 28 29  2  0  0  0  0
 28 61  1  0  0  0  0
 29 30  1  0  0  0  0
 29 31  1  0  0  0  0
 30 62  1  0  0  0  0
 30 63  1  0  0  0  0
 30 64  1  0  0  0  0
 31 32  2  0  0  0  0
 31 65  1  0  0  0  0
 32 33  1  0  0  0  0
 32 66  1  0  0  0  0
 33 34  1  0  0  0  0
 35 36  1  0  0  0  0
 35 67  1  0  0  0  0
 36 68  1  0  0  0  0
 37 38  2  0  0  0  0
 37 69  1  0  0  0  0
 38 39  1  0  0  0  0
 38 70  1  0  0  0  0
 40 71  1  0  0  0  0
 41 42  2  0  0  0  0
 41 43  1  0  0  0  0
 43 44  1  0  0  0  0
 44 72  1  0  0  0  0
 44 73  1  0  0  0  0
 44 74  1  0  0  0  0
M  END
$$$$
