CHEMBL3960128
 OpenBabel04072215373D

 78 83  0  0  0  0  0  0  0  0999 V2000
    4.7858    4.1763   -4.0792 C   0  0  0  0  0  0  0  0  0  0  0  0
    4.7533    3.3625   -2.9186 O   0  0  0  0  0  0  0  0  0  0  0  0
    5.7777    3.5583   -2.0367 C   0  0  0  0  0  0  0  0  0  0  0  0
    6.8048    4.4357   -2.1517 C   0  0  0  0  0  0  0  0  0  0  0  0
    7.7199    4.6115   -1.1126 C   0  0  0  0  0  0  0  0  0  0  0  0
    8.7076    5.5606   -1.1634 O   0  0  0  0  0  0  0  0  0  0  0  0
    8.7081    6.3354   -2.3629 C   0  0  0  0  0  0  0  0  0  0  0  0
    7.6225    3.8634    0.0682 C   0  0  0  0  0  0  0  0  0  0  0  0
    6.5540    2.9854    0.2874 C   0  0  0  0  0  0  0  0  0  0  0  0
    6.4516    2.2948    1.5825 N   0  0  0  0  0  0  0  0  0  0  0  0
    5.0597    1.9274    2.1078 C   0  0  0  0  0  0  0  0  0  0  0  0
    4.4803    3.0078    2.9374 C   0  0  0  0  0  0  0  0  0  0  0  0
    5.0966    3.5721    4.2412 C   0  0  0  0  0  0  0  0  0  0  0  0
    3.6700    3.0818    4.1972 C   0  0  0  0  0  0  0  0  0  0  0  0
    7.4240    2.4958    2.6642 C   0  0  0  0  0  0  0  0  0  0  0  0
    7.5883    1.4006    3.4702 C   0  0  0  0  0  0  0  0  0  0  0  0
    8.4804    1.4626    4.4731 C   0  0  0  0  0  0  0  0  0  0  0  0
    9.1052    2.6087    4.8432 C   0  0  0  0  0  0  0  0  0  0  0  0
    8.9845    2.5477    6.0962 N   0  0  0  0  0  0  0  0  0  0  0  0
    9.9785    1.9729    6.6713 C   0  0  0  0  0  0  0  0  0  0  0  0
   10.9682    2.7816    6.8462 C   0  0  0  0  0  0  0  0  0  0  0  0
   11.5742    2.0350    8.3770 C   0  0  0  0  0  0  0  0  0  0  0  0
   12.8269    2.5697    9.1631 C   0  0  0  0  0  0  0  0  0  0  0  0
   13.4575    1.8111   10.0962 N   0  0  0  0  0  0  0  0  0  0  0  0
   12.8290    0.6145   10.0524 N   0  0  0  0  0  0  0  0  0  0  0  0
   13.2282   -0.5366   11.0804 C   0  0  0  0  0  0  0  0  0  0  0  0
   14.7372   -0.4903   11.5457 C   0  0  0  0  0  0  0  0  0  0  0  0
   12.4266   -0.3850   12.4043 C   0  0  0  0  0  0  0  0  0  0  0  0
   12.9984   -1.9850   10.4824 C   0  0  0  0  0  0  0  0  0  0  0  0
   12.2277   -2.7781   11.0247 O   0  0  0  0  0  0  0  0  0  0  0  0
   13.5326   -2.3942    9.2645 N   0  0  0  0  0  0  0  0  0  0  0  0
   14.4610   -1.6735    8.4087 C   0  0  0  0  0  0  0  0  0  0  0  0
   13.8821   -1.5875    6.9958 C   0  0  0  0  0  0  0  0  0  0  0  0
   13.6614   -2.9274    6.4186 N   0  0  0  0  0  0  0  0  0  0  0  0
   12.7799   -3.6971    7.3294 C   0  0  0  0  0  0  0  0  0  0  0  0
   13.3283   -3.7681    8.7748 C   0  0  0  0  0  0  0  0  0  0  0  0
   11.8232    0.7072    8.9269 C   0  0  0  0  0  0  0  0  0  0  0  0
   10.7255    3.8741    5.6567 N   0  0  0  0  0  0  0  0  0  0  0  0
    9.5053    3.7611    4.3636 C   0  0  0  0  0  0  0  0  0  0  0  0
    8.3104    3.6835    3.0667 C   0  0  0  0  0  0  0  0  0  0  0  0
    5.7288    2.8209   -0.8729 C   0  0  0  0  0  0  0  0  0  0  0  0
    3.8384    4.0464   -4.6089 H   0  0  0  0  0  0  0  0  0  0  0  0
    5.5986    3.8367   -4.7254 H   0  0  0  0  0  0  0  0  0  0  0  0
    4.8875    5.2397   -3.8501 H   0  0  0  0  0  0  0  0  0  0  0  0
    6.8904    4.9880   -3.0641 H   0  0  0  0  0  0  0  0  0  0  0  0
    9.5084    7.0691   -2.2965 H   0  0  0  0  0  0  0  0  0  0  0  0
    7.7624    6.8809   -2.4985 H   0  0  0  0  0  0  0  0  0  0  0  0
    8.9062    5.6931   -3.2304 H   0  0  0  0  0  0  0  0  0  0  0  0
    8.3893    3.9901    0.8277 H   0  0  0  0  0  0  0  0  0  0  0  0
    4.9904    0.9608    2.6256 H   0  0  0  0  0  0  0  0  0  0  0  0
    4.4497    1.9279    1.2041 H   0  0  0  0  0  0  0  0  0  0  0  0
    3.8660    3.4767    2.1861 H   0  0  0  0  0  0  0  0  0  0  0  0
    5.2477    4.6434    4.4172 H   0  0  0  0  0  0  0  0  0  0  0  0
    5.8917    3.0449    4.7624 H   0  0  0  0  0  0  0  0  0  0  0  0
    2.9075    3.8688    4.2340 H   0  0  0  0  0  0  0  0  0  0  0  0
    3.2685    2.1572    4.5653 H   0  0  0  0  0  0  0  0  0  0  0  0
    6.9693    0.5155    3.5044 H   0  0  0  0  0  0  0  0  0  0  0  0
    8.4958    0.6808    5.2322 H   0  0  0  0  0  0  0  0  0  0  0  0
    9.7185    1.0628    7.1359 H   0  0  0  0  0  0  0  0  0  0  0  0
   13.3306    3.5186    9.0117 H   0  0  0  0  0  0  0  0  0  0  0  0
   14.9863    0.4131   12.1170 H   0  0  0  0  0  0  0  0  0  0  0  0
   15.4176   -0.5746   10.6983 H   0  0  0  0  0  0  0  0  0  0  0  0
   15.0019   -1.3255   12.2208 H   0  0  0  0  0  0  0  0  0  0  0  0
   12.6155    0.5436   12.9475 H   0  0  0  0  0  0  0  0  0  0  0  0
   12.7264   -1.1053   13.1721 H   0  0  0  0  0  0  0  0  0  0  0  0
   11.3604   -0.5118   12.2111 H   0  0  0  0  0  0  0  0  0  0  0  0
   15.4150   -2.2164    8.4011 H   0  0  0  0  0  0  0  0  0  0  0  0
   14.7426   -0.7150    8.8003 H   0  0  0  0  0  0  0  0  0  0  0  0
   14.5593   -1.0143    6.3614 H   0  0  0  0  0  0  0  0  0  0  0  0
   12.9240   -1.0583    7.0164 H   0  0  0  0  0  0  0  0  0  0  0  0
   14.5635   -3.4046    6.3710 H   0  0  0  0  0  0  0  0  0  0  0  0
   12.6501   -4.7042    6.9244 H   0  0  0  0  0  0  0  0  0  0  0  0
   11.7942   -3.2147    7.3444 H   0  0  0  0  0  0  0  0  0  0  0  0
   14.2984   -4.2842    8.7584 H   0  0  0  0  0  0  0  0  0  0  0  0
   12.6353   -4.3264    9.4094 H   0  0  0  0  0  0  0  0  0  0  0  0
   11.4669   -0.2739    8.7091 H   0  0  0  0  0  0  0  0  0  0  0  0
    8.0707    4.5389    2.3409 H   0  0  0  0  0  0  0  0  0  0  0  0
    5.0192    2.0406   -1.0960 H   0  0  0  0  0  0  0  0  0  0  0  0
  1  2  1  0  0  0  0
  1 42  1  0  0  0  0
  1 43  1  0  0  0  0
  1 44  1  0  0  0  0
  2  3  1  0  0  0  0
  3  4  1  0  0  0  0
  3 41  2  0  0  0  0
  4  5  2  0  0  0  0
  4 45  1  0  0  0  0
  5  6  1  0  0  0  0
  5  8  1  0  0  0  0
  6  7  1  0  0  0  0
  7 46  1  0  0  0  0
  7 47  1  0  0  0  0
  7 48  1  0  0  0  0
  8  9  2  0  0  0  0
  8 49  1  0  0  0  0
  9 10  1  0  0  0  0
  9 41  1  0  0  0  0
 10 11  1  0  0  0  0
 10 15  1  0  0  0  0
 11 12  1  0  0  0  0
 11 50  1  0  0  0  0
 11 51  1  0  0  0  0
 12 13  1  0  0  0  0
 12 14  1  0  0  0  0
 12 52  1  0  0  0  0
 13 14  1  0  0  0  0
 13 53  1  0  0  0  0
 13 54  1  0  0  0  0
 14 55  1  0  0  0  0
 14 56  1  0  0  0  0
 15 16  1  0  0  0  0
 15 40  2  0  0  0  0
 16 17  2  0  0  0  0
 16 57  1  0  0  0  0
 17 18  1  0  0  0  0
 17 58  1  0  0  0  0
 18 19  1  0  0  0  0
 18 39  2  0  0  0  0
 19 20  2  0  0  0  0
 20 21  1  0  0  0  0
 20 59  1  0  0  0  0
 21 22  1  0  0  0  0
 21 38  2  0  0  0  0
 22 23  1  0  0  0  0
 22 37  2  0  0  0  0
 23 24  2  0  0  0  0
 23 60  1  0  0  0  0
 24 25  1  0  0  0  0
 25 26  1  0  0  0  0
 25 37  1  0  0  0  0
 26 27  1  0  0  0  0
 26 28  1  0  0  0  0
 26 29  1  0  0  0  0
 27 61  1  0  0  0  0
 27 62  1  0  0  0  0
 27 63  1  0  0  0  0
 28 64  1  0  0  0  0
 28 65  1  0  0  0  0
 28 66  1  0  0  0  0
 29 30  2  0  0  0  0
 29 31  1  0  0  0  0
 31 32  1  0  0  0  0
 31 36  1  0  0  0  0
 32 33  1  0  0  0  0
 32 67  1  0  0  0  0
 32 68  1  0  0  0  0
 33 34  1  0  0  0  0
 33 69  1  0  0  0  0
 33 70  1  0  0  0  0
 34 35  1  0  0  0  0
 34 71  1  0  0  0  0
 35 36  1  0  0  0  0
 35 72  1  0  0  0  0
 35 73  1  0  0  0  0
 36 74  1  0  0  0  0
 36 75  1  0  0  0  0
 37 76  1  0  0  0  0
 38 39  1  0  0  0  0
 39 40  1  0  0  0  0
 40 77  1  0  0  0  0
 41 78  1  0  0  0  0
M  END
$$$$
