CHEMBL3939852
 OpenBabel04072215373D

 65 69  0  0  0  0  0  0  0  0999 V2000
    0.9958    0.2530   -0.3306 C   0  0  0  0  0  0  0  0  0  0  0  0
    2.0110   -0.6371    0.1222 O   0  0  0  0  0  0  0  0  0  0  0  0
    2.8449   -1.1272   -0.8434 C   0  0  0  0  0  0  0  0  0  0  0  0
    2.7630   -0.8778   -2.1868 C   0  0  0  0  0  0  0  0  0  0  0  0
    3.7058   -1.4176   -3.0519 C   0  0  0  0  0  0  0  0  0  0  0  0
    3.6940   -1.2562   -4.4081 O   0  0  0  0  0  0  0  0  0  0  0  0
    2.6193   -0.4559   -4.8796 C   0  0  0  0  0  0  0  0  0  0  0  0
    4.7642   -2.1660   -2.5535 C   0  0  0  0  0  0  0  0  0  0  0  0
    4.9585   -2.3678   -1.2014 C   0  0  0  0  0  0  0  0  0  0  0  0
    6.1418   -3.0021   -0.7439 N   0  0  0  0  0  0  0  0  0  0  0  0
    6.6557   -2.5710    0.6353 C   0  0  0  0  0  0  0  0  0  0  0  0
    5.7337   -2.8080    1.8151 C   0  0  0  0  0  0  0  0  0  0  0  0
    6.0227   -3.0889    3.0927 C   0  0  0  0  0  0  0  0  0  0  0  0
    7.3728   -2.9354    3.5859 C   0  0  0  0  0  0  0  0  0  0  0  0
    7.8485   -3.6943    4.6340 C   0  0  0  0  0  0  0  0  0  0  0  0
    9.1325   -3.4466    5.0980 C   0  0  0  0  0  0  0  0  0  0  0  0
    9.6659   -4.2078    6.2682 C   0  0  0  0  0  0  0  0  0  0  0  0
    9.8974   -2.4804    4.4462 C   0  0  0  0  0  0  0  0  0  0  0  0
    9.3409   -1.7759    3.3961 C   0  0  0  0  0  0  0  0  0  0  0  0
    8.0876   -1.9631    2.9768 N   0  0  0  0  0  0  0  0  0  0  0  0
    7.2000   -3.6335   -1.5440 C   0  0  0  0  0  0  0  0  0  0  0  0
    7.8169   -4.6925   -0.9302 C   0  0  0  0  0  0  0  0  0  0  0  0
    8.8421   -5.2951   -1.5672 C   0  0  0  0  0  0  0  0  0  0  0  0
    9.3808   -4.8524   -2.7325 C   0  0  0  0  0  0  0  0  0  0  0  0
   10.6420   -4.8881   -2.5682 N   0  0  0  0  0  0  0  0  0  0  0  0
   11.1260   -5.9648   -3.1149 C   0  0  0  0  0  0  0  0  0  0  0  0
   11.4825   -5.9873   -4.3984 C   0  0  0  0  0  0  0  0  0  0  0  0
   12.7781   -7.1246   -3.8771 C   0  0  0  0  0  0  0  0  0  0  0  0
   12.9193   -8.1869   -2.7619 C   0  0  0  0  0  0  0  0  0  0  0  0
   14.0779   -8.8792   -2.6678 N   0  0  0  0  0  0  0  0  0  0  0  0
   14.8429   -8.4054   -3.6607 N   0  0  0  0  0  0  0  0  0  0  0  0
   16.1631   -9.0461   -3.9385 C   0  0  0  0  0  0  0  0  0  0  0  0
   14.1300   -7.3386   -4.3460 C   0  0  0  0  0  0  0  0  0  0  0  0
   10.2713   -4.9943   -4.7301 N   0  0  0  0  0  0  0  0  0  0  0  0
    8.9972   -4.2365   -3.7901 C   0  0  0  0  0  0  0  0  0  0  0  0
    7.7377   -3.3721   -2.9410 C   0  0  0  0  0  0  0  0  0  0  0  0
    3.8503   -1.9852   -0.4157 C   0  0  0  0  0  0  0  0  0  0  0  0
    0.4415    0.6185    0.5378 H   0  0  0  0  0  0  0  0  0  0  0  0
    0.2975   -0.2885   -0.9755 H   0  0  0  0  0  0  0  0  0  0  0  0
    1.4155    1.1238   -0.8498 H   0  0  0  0  0  0  0  0  0  0  0  0
    1.9186   -0.3279   -2.5627 H   0  0  0  0  0  0  0  0  0  0  0  0
    2.7159   -0.3613   -5.9592 H   0  0  0  0  0  0  0  0  0  0  0  0
    2.6539    0.5517   -4.4451 H   0  0  0  0  0  0  0  0  0  0  0  0
    1.6605   -0.9403   -4.6610 H   0  0  0  0  0  0  0  0  0  0  0  0
    5.4140   -2.6455   -3.2620 H   0  0  0  0  0  0  0  0  0  0  0  0
    6.8931   -1.5014    0.6176 H   0  0  0  0  0  0  0  0  0  0  0  0
    7.5914   -3.1024    0.8459 H   0  0  0  0  0  0  0  0  0  0  0  0
    4.7254   -2.4724    1.7633 H   0  0  0  0  0  0  0  0  0  0  0  0
    5.2152   -3.2086    3.8133 H   0  0  0  0  0  0  0  0  0  0  0  0
    7.2485   -4.4783    5.0747 H   0  0  0  0  0  0  0  0  0  0  0  0
    8.9185   -4.9076    6.6603 H   0  0  0  0  0  0  0  0  0  0  0  0
    9.9271   -3.5181    7.0762 H   0  0  0  0  0  0  0  0  0  0  0  0
   10.5460   -4.7834    5.9724 H   0  0  0  0  0  0  0  0  0  0  0  0
   10.9164   -2.2771    4.7418 H   0  0  0  0  0  0  0  0  0  0  0  0
    9.8963   -1.0253    2.8478 H   0  0  0  0  0  0  0  0  0  0  0  0
    7.6802   -5.0296    0.0875 H   0  0  0  0  0  0  0  0  0  0  0  0
    9.4537   -6.0302   -1.0719 H   0  0  0  0  0  0  0  0  0  0  0  0
   11.3129   -6.6444   -2.3141 H   0  0  0  0  0  0  0  0  0  0  0  0
   12.2190   -8.5104   -1.9922 H   0  0  0  0  0  0  0  0  0  0  0  0
   16.4517   -9.8317   -3.2055 H   0  0  0  0  0  0  0  0  0  0  0  0
   16.9829   -8.3155   -3.9373 H   0  0  0  0  0  0  0  0  0  0  0  0
   16.1394   -9.5464   -4.9153 H   0  0  0  0  0  0  0  0  0  0  0  0
   14.7350   -6.8857   -5.1071 H   0  0  0  0  0  0  0  0  0  0  0  0
    7.3146   -2.4096   -3.3073 H   0  0  0  0  0  0  0  0  0  0  0  0
    3.5743   -2.4734    0.5066 H   0  0  0  0  0  0  0  0  0  0  0  0
  1  2  1  0  0  0  0
  1 38  1  0  0  0  0
  1 39  1  0  0  0  0
  1 40  1  0  0  0  0
  2  3  1  0  0  0  0
  3  4  1  0  0  0  0
  3 37  2  0  0  0  0
  4  5  2  0  0  0  0
  4 41  1  0  0  0  0
  5  6  1  0  0  0  0
  5  8  1  0  0  0  0
  6  7  1  0  0  0  0
  7 42  1  0  0  0  0
  7 43  1  0  0  0  0
  7 44  1  0  0  0  0
  8  9  2  0  0  0  0
  8 45  1  0  0  0  0
  9 10  1  0  0  0  0
  9 37  1  0  0  0  0
 10 11  1  0  0  0  0
 10 21  1  0  0  0  0
 11 12  1  0  0  0  0
 11 46  1  0  0  0  0
 11 47  1  0  0  0  0
 12 13  2  0  0  0  0
 12 48  1  0  0  0  0
 13 14  1  0  0  0  0
 13 49  1  0  0  0  0
 14 15  1  0  0  0  0
 14 20  2  0  0  0  0
 15 16  2  0  0  0  0
 15 50  1  0  0  0  0
 16 17  1  0  0  0  0
 16 18  1  0  0  0  0
 17 51  1  0  0  0  0
 17 52  1  0  0  0  0
 17 53  1  0  0  0  0
 18 19  2  0  0  0  0
 18 54  1  0  0  0  0
 19 20  1  0  0  0  0
 19 55  1  0  0  0  0
 21 22  1  0  0  0  0
 21 36  2  0  0  0  0
 22 23  2  0  0  0  0
 22 56  1  0  0  0  0
 23 24  1  0  0  0  0
 23 57  1  0  0  0  0
 24 25  1  0  0  0  0
 24 35  2  0  0  0  0
 25 26  2  0  0  0  0
 26 27  1  0  0  0  0
 26 58  1  0  0  0  0
 27 28  1  0  0  0  0
 27 34  2  0  0  0  0
 28 29  1  0  0  0  0
 28 33  2  0  0  0  0
 29 30  2  0  0  0  0
 29 59  1  0  0  0  0
 30 31  1  0  0  0  0
 31 32  1  0  0  0  0
 31 33  1  0  0  0  0
 32 60  1  0  0  0  0
 32 61  1  0  0  0  0
 32 62  1  0  0  0  0
 33 63  1  0  0  0  0
 34 35  1  0  0  0  0
 35 36  1  0  0  0  0
 36 64  1  0  0  0  0
 37 65  1  0  0  0  0
M  END
$$$$
