CHEMBL3694714
 OpenBabel04072215373D

 53 56  0  0  0  0  0  0  0  0999 V2000
    1.0103   -0.0771   -0.0113 C   0  0  0  0  0  0  0  0  0  0  0  0
    2.4542   -0.0656   -0.0254 N   0  0  0  0  0  0  0  0  0  0  0  0
    3.2844    1.0337   -0.0394 C   0  0  0  0  0  0  0  0  0  0  0  0
    2.8353    2.4416   -0.0119 C   0  0  0  0  0  0  0  0  0  0  0  0
    2.0692    2.6608   -1.1850 O   0  0  0  0  0  0  0  0  0  0  0  0
    4.5566    0.4991   -0.0564 C   0  0  0  0  0  0  0  0  0  0  0  0
    4.5205   -0.8698   -0.0574 N   0  0  0  0  0  0  0  0  0  0  0  0
    3.2452   -1.1913   -0.0345 C   0  0  0  0  0  0  0  0  0  0  0  0
    2.7798   -2.5361   -0.0214 C   0  0  0  0  0  0  0  0  0  0  0  0
    2.3412   -3.7640   -0.0164 C   0  0  0  0  0  0  0  0  0  0  0  0
    1.8299   -5.1954   -0.0106 C   0  0  0  0  0  0  0  0  0  0  0  0
    2.8076   -6.2632    0.0112 C   0  0  0  0  0  0  0  0  0  0  0  0
    2.3699   -7.5301    0.0470 C   0  0  0  0  0  0  0  0  0  0  0  0
    0.9949   -7.7974    0.0133 N   0  0  0  0  0  0  0  0  0  0  0  0
    0.2991   -9.0016   -0.0266 C   0  0  0  0  0  0  0  0  0  0  0  0
    0.8848  -10.3476   -0.0597 C   0  0  0  0  0  0  0  0  0  0  0  0
    0.2343  -11.4027    0.5913 C   0  0  0  0  0  0  0  0  0  0  0  0
    0.8042  -12.6736    0.6235 C   0  0  0  0  0  0  0  0  0  0  0  0
    2.0447  -12.8992    0.0288 C   0  0  0  0  0  0  0  0  0  0  0  0
    2.7021  -11.8760   -0.6526 C   0  0  0  0  0  0  0  0  0  0  0  0
    3.9861  -12.0327   -1.2242 N   0  0  0  0  0  0  0  0  0  0  0  0
    4.5958  -13.2381   -1.4905 C   0  0  0  0  0  0  0  0  0  0  0  0
    4.0669  -14.3357   -1.4308 O   0  0  0  0  0  0  0  0  0  0  0  0
    5.9234  -13.1129   -1.8042 N   0  0  0  0  0  0  0  0  0  0  0  0
    6.6554  -14.3309   -2.1774 C   0  0  0  0  0  0  0  0  0  0  0  0
    6.3957  -14.8585   -3.5970 C   0  0  0  0  0  0  0  0  0  0  0  0
    5.6457  -14.0050   -4.3319 F   0  0  0  0  0  0  0  0  0  0  0  0
    7.5745  -15.0054   -4.2540 F   0  0  0  0  0  0  0  0  0  0  0  0
    5.7873  -16.0616   -3.5951 F   0  0  0  0  0  0  0  0  0  0  0  0
    2.0943  -10.6188   -0.7240 C   0  0  0  0  0  0  0  0  0  0  0  0
   -1.0337   -8.6163    0.0325 C   0  0  0  0  0  0  0  0  0  0  0  0
   -1.1842   -7.2569    0.0516 N   0  0  0  0  0  0  0  0  0  0  0  0
    0.0384   -6.7799    0.0202 C   0  0  0  0  0  0  0  0  0  0  0  0
    0.5056   -5.4362    0.0101 C   0  0  0  0  0  0  0  0  0  0  0  0
    0.6149    0.9389    0.0137 H   0  0  0  0  0  0  0  0  0  0  0  0
    0.6781   -0.6119    0.8823 H   0  0  0  0  0  0  0  0  0  0  0  0
    0.6610   -0.5834   -0.9152 H   0  0  0  0  0  0  0  0  0  0  0  0
    3.6768    3.1414   -0.0054 H   0  0  0  0  0  0  0  0  0  0  0  0
    2.2122    2.6438    0.8644 H   0  0  0  0  0  0  0  0  0  0  0  0
    2.6638    2.5035   -1.9390 H   0  0  0  0  0  0  0  0  0  0  0  0
    5.4999    1.0312   -0.0635 H   0  0  0  0  0  0  0  0  0  0  0  0
    3.8651   -6.0208    0.0162 H   0  0  0  0  0  0  0  0  0  0  0  0
    3.0621   -8.3550    0.1084 H   0  0  0  0  0  0  0  0  0  0  0  0
   -0.7169  -11.2495    1.0964 H   0  0  0  0  0  0  0  0  0  0  0  0
    0.2960  -13.4886    1.1320 H   0  0  0  0  0  0  0  0  0  0  0  0
    2.4822  -13.8876    0.1331 H   0  0  0  0  0  0  0  0  0  0  0  0
    4.4489  -11.1988   -1.5566 H   0  0  0  0  0  0  0  0  0  0  0  0
    6.2729  -12.2255   -2.1334 H   0  0  0  0  0  0  0  0  0  0  0  0
    6.4001  -15.1159   -1.4566 H   0  0  0  0  0  0  0  0  0  0  0  0
    7.7198  -14.1103   -2.0470 H   0  0  0  0  0  0  0  0  0  0  0  0
    2.5646   -9.8475   -1.3266 H   0  0  0  0  0  0  0  0  0  0  0  0
   -1.9034   -9.2617    0.0520 H   0  0  0  0  0  0  0  0  0  0  0  0
   -0.2277   -4.6382    0.0208 H   0  0  0  0  0  0  0  0  0  0  0  0
  1  2  1  0  0  0  0
  1 35  1  0  0  0  0
  1 36  1  0  0  0  0
  1 37  1  0  0  0  0
  2  3  1  0  0  0  0
  2  8  1  0  0  0  0
  3  4  1  0  0  0  0
  3  6  2  0  0  0  0
  4  5  1  0  0  0  0
  4 38  1  0  0  0  0
  4 39  1  0  0  0  0
  5 40  1  0  0  0  0
  6  7  1  0  0  0  0
  6 41  1  0  0  0  0
  7  8  2  0  0  0  0
  8  9  1  0  0  0  0
  9 10  3  0  0  0  0
 10 11  1  0  0  0  0
 11 12  1  0  0  0  0
 11 34  2  0  0  0  0
 12 13  2  0  0  0  0
 12 42  1  0  0  0  0
 13 14  1  0  0  0  0
 13 43  1  0  0  0  0
 14 15  1  0  0  0  0
 14 33  1  0  0  0  0
 15 16  1  0  0  0  0
 15 31  2  0  0  0  0
 16 17  1  0  0  0  0
 16 30  2  0  0  0  0
 17 18  2  0  0  0  0
 17 44  1  0  0  0  0
 18 19  1  0  0  0  0
 18 45  1  0  0  0  0
 19 20  2  0  0  0  0
 19 46  1  0  0  0  0
 20 21  1  0  0  0  0
 20 30  1  0  0  0  0
 21 22  1  0  0  0  0
 21 47  1  0  0  0  0
 22 23  2  0  0  0  0
 22 24  1  0  0  0  0
 24 25  1  0  0  0  0
 24 48  1  0  0  0  0
 25 26  1  0  0  0  0
 25 49  1  0  0  0  0
 25 50  1  0  0  0  0
 26 27  1  0  0  0  0
 26 28  1  0  0  0  0
 26 29  1  0  0  0  0
 30 51  1  0  0  0  0
 31 32  1  0  0  0  0
 31 52  1  0  0  0  0
 32 33  2  0  0  0  0
 33 34  1  0  0  0  0
 34 53  1  0  0  0  0
M  END
$$$$
