CHEMBL3676371
 OpenBabel04072215373D

 64 66  0  0  0  0  0  0  0  0999 V2000
    2.3339    2.1720    0.4736 C   0  0  0  0  0  0  0  0  0  0  0  0
    2.8983    0.9667    0.3303 C   0  0  0  0  0  0  0  0  0  0  0  0
    3.5721    0.2885    1.4708 C   0  0  0  0  0  0  0  0  0  0  0  0
    3.3571    0.5970    2.6351 O   0  0  0  0  0  0  0  0  0  0  0  0
    4.4698   -0.6683    1.0251 N   0  0  0  0  0  0  0  0  0  0  0  0
    5.2693   -1.3489    1.9632 C   0  0  0  0  0  0  0  0  0  0  0  0
    6.4446   -0.7252    2.3839 C   0  0  0  0  0  0  0  0  0  0  0  0
    7.2384   -1.3045    3.3971 C   0  0  0  0  0  0  0  0  0  0  0  0
    8.3764   -0.7082    3.9608 C   0  0  0  0  0  0  0  0  0  0  0  0
    8.7699    0.5989    3.5651 N   0  0  0  0  0  0  0  0  0  0  0  0
    9.6152    1.4225    4.3481 C   0  0  0  0  0  0  0  0  0  0  0  0
    9.4288    1.5201    5.7340 C   0  0  0  0  0  0  0  0  0  0  0  0
   10.3272    2.2269    6.5309 C   0  0  0  0  0  0  0  0  0  0  0  0
   11.4155    2.8780    5.9448 C   0  0  0  0  0  0  0  0  0  0  0  0
   12.6446    3.7280    7.1171 Br  0  0  0  0  0  0  0  0  0  0  0  0
   11.5736    2.8635    4.5537 C   0  0  0  0  0  0  0  0  0  0  0  0
   12.8752    3.6854    3.7661 Cl  0  0  0  0  0  0  0  0  0  0  0  0
   10.6645    2.1451    3.7685 C   0  0  0  0  0  0  0  0  0  0  0  0
   10.8088    2.1025    2.4318 F   0  0  0  0  0  0  0  0  0  0  0  0
    9.0954   -1.3192    4.9229 N   0  0  0  0  0  0  0  0  0  0  0  0
    8.6648   -2.5092    5.3420 C   0  0  0  0  0  0  0  0  0  0  0  0
    7.5751   -3.1446    4.9081 N   0  0  0  0  0  0  0  0  0  0  0  0
    6.8648   -2.5380    3.9506 C   0  0  0  0  0  0  0  0  0  0  0  0
    5.7062   -3.1543    3.4943 C   0  0  0  0  0  0  0  0  0  0  0  0
    4.9083   -2.5945    2.4904 C   0  0  0  0  0  0  0  0  0  0  0  0
    3.8380   -3.3764    2.1233 O   0  0  0  0  0  0  0  0  0  0  0  0
    3.4573   -3.2912    0.7483 C   0  0  0  0  0  0  0  0  0  0  0  0
    2.8547   -4.6103    0.2586 C   0  0  0  0  0  0  0  0  0  0  0  0
    2.5211   -4.5514   -1.1587 N   0  0  0  0  0  0  0  0  0  0  0  0
    3.5012   -4.6586   -2.1233 C   0  0  0  0  0  0  0  0  0  0  0  0
    4.6699   -4.9373   -1.8678 O   0  0  0  0  0  0  0  0  0  0  0  0
    3.0300   -4.3532   -3.5485 C   0  0  0  0  0  0  0  0  0  0  0  0
    2.6859   -2.9146   -3.7154 N   0  0  0  0  0  0  0  0  0  0  0  0
    3.8273   -2.0268   -3.4156 C   0  0  0  0  0  0  0  0  0  0  0  0
    5.0493   -2.1339   -4.3237 C   0  0  0  0  0  0  0  0  0  0  0  0
    2.1277   -2.7129   -5.0687 C   0  0  0  0  0  0  0  0  0  0  0  0
    1.6754   -1.2851   -5.3579 C   0  0  0  0  0  0  0  0  0  0  0  0
    1.8086    2.6412   -0.3513 H   0  0  0  0  0  0  0  0  0  0  0  0
    2.3722    2.7116    1.4174 H   0  0  0  0  0  0  0  0  0  0  0  0
    2.8361    0.4320   -0.6090 H   0  0  0  0  0  0  0  0  0  0  0  0
    4.9428   -0.3860    0.1763 H   0  0  0  0  0  0  0  0  0  0  0  0
    6.7094    0.2444    1.9711 H   0  0  0  0  0  0  0  0  0  0  0  0
    9.0183    0.6166    2.5794 H   0  0  0  0  0  0  0  0  0  0  0  0
    8.5932    1.0063    6.2067 H   0  0  0  0  0  0  0  0  0  0  0  0
   10.1783    2.2372    7.6078 H   0  0  0  0  0  0  0  0  0  0  0  0
    9.2480   -2.9957    6.1168 H   0  0  0  0  0  0  0  0  0  0  0  0
    5.4156   -4.1058    3.9354 H   0  0  0  0  0  0  0  0  0  0  0  0
    4.3179   -3.0599    0.1098 H   0  0  0  0  0  0  0  0  0  0  0  0
    2.6990   -2.5071    0.6420 H   0  0  0  0  0  0  0  0  0  0  0  0
    1.9403   -4.8493    0.8110 H   0  0  0  0  0  0  0  0  0  0  0  0
    3.5613   -5.4318    0.4277 H   0  0  0  0  0  0  0  0  0  0  0  0
    1.6616   -4.0916   -1.4405 H   0  0  0  0  0  0  0  0  0  0  0  0
    2.1435   -4.9741   -3.7305 H   0  0  0  0  0  0  0  0  0  0  0  0
    3.8009   -4.6798   -4.2561 H   0  0  0  0  0  0  0  0  0  0  0  0
    4.1492   -2.1841   -2.3796 H   0  0  0  0  0  0  0  0  0  0  0  0
    3.4802   -0.9865   -3.4190 H   0  0  0  0  0  0  0  0  0  0  0  0
    5.4692   -3.1435   -4.3303 H   0  0  0  0  0  0  0  0  0  0  0  0
    5.8326   -1.4580   -3.9639 H   0  0  0  0  0  0  0  0  0  0  0  0
    4.8170   -1.8456   -5.3530 H   0  0  0  0  0  0  0  0  0  0  0  0
    1.2437   -3.3545   -5.1762 H   0  0  0  0  0  0  0  0  0  0  0  0
    2.8383   -3.0277   -5.8429 H   0  0  0  0  0  0  0  0  0  0  0  0
    0.9861   -0.9264   -4.5869 H   0  0  0  0  0  0  0  0  0  0  0  0
    1.1532   -1.2465   -6.3194 H   0  0  0  0  0  0  0  0  0  0  0  0
    2.5197   -0.5921   -5.4218 H   0  0  0  0  0  0  0  0  0  0  0  0
  1  2  2  0  0  0  0
  1 38  1  0  0  0  0
  1 39  1  0  0  0  0
  2  3  1  0  0  0  0
  2 40  1  0  0  0  0
  3  4  2  0  0  0  0
  3  5  1  0  0  0  0
  5  6  1  0  0  0  0
  5 41  1  0  0  0  0
  6  7  1  0  0  0  0
  6 25  2  0  0  0  0
  7  8  2  0  0  0  0
  7 42  1  0  0  0  0
  8  9  1  0  0  0  0
  8 23  1  0  0  0  0
  9 10  1  0  0  0  0
  9 20  2  0  0  0  0
 10 11  1  0  0  0  0
 10 43  1  0  0  0  0
 11 12  1  0  0  0  0
 11 18  2  0  0  0  0
 12 13  2  0  0  0  0
 12 44  1  0  0  0  0
 13 14  1  0  0  0  0
 13 45  1  0  0  0  0
 14 15  1  0  0  0  0
 14 16  2  0  0  0  0
 16 17  1  0  0  0  0
 16 18  1  0  0  0  0
 18 19  1  0  0  0  0
 20 21  1  0  0  0  0
 21 22  2  0  0  0  0
 21 46  1  0  0  0  0
 22 23  1  0  0  0  0
 23 24  2  0  0  0  0
 24 25  1  0  0  0  0
 24 47  1  0  0  0  0
 25 26  1  0  0  0  0
 26 27  1  0  0  0  0
 27 28  1  0  0  0  0
 27 48  1  0  0  0  0
 27 49  1  0  0  0  0
 28 29  1  0  0  0  0
 28 50  1  0  0  0  0
 28 51  1  0  0  0  0
 29 30  1  0  0  0  0
 29 52  1  0  0  0  0
 30 31  2  0  0  0  0
 30 32  1  0  0  0  0
 32 33  1  0  0  0  0
 32 53  1  0  0  0  0
 32 54  1  0  0  0  0
 33 34  1  0  0  0  0
 33 36  1  0  0  0  0
 34 35  1  0  0  0  0
 34 55  1  0  0  0  0
 34 56  1  0  0  0  0
 35 57  1  0  0  0  0
 35 58  1  0  0  0  0
 35 59  1  0  0  0  0
 36 37  1  0  0  0  0
 36 60  1  0  0  0  0
 36 61  1  0  0  0  0
 37 62  1  0  0  0  0
 37 63  1  0  0  0  0
 37 64  1  0  0  0  0
M  END
$$$$
