CHEMBL75196
 OpenBabel04072215383D

 40 43  0  0  0  0  0  0  0  0999 V2000
   -2.6773   -6.4012    3.2409 Cl  0  0  0  0  0  0  0  0  0  0  0  0
   -2.9526   -4.9592    2.3311 C   0  0  0  0  0  0  0  0  0  0  0  0
   -4.1606   -4.8483    1.6416 C   0  0  0  0  0  0  0  0  0  0  0  0
   -4.4399   -3.6975    0.9025 C   0  0  0  0  0  0  0  0  0  0  0  0
   -3.5296   -2.6358    0.8636 C   0  0  0  0  0  0  0  0  0  0  0  0
   -3.7530   -1.4920    0.0569 N   0  0  0  0  0  0  0  0  0  0  0  0
   -5.0174   -0.8354   -0.0535 C   0  0  0  0  0  0  0  0  0  0  0  0
   -5.9229   -1.0191    0.9313 N   0  0  0  0  0  0  0  0  0  0  0  0
   -7.1088   -0.3556    0.9350 N   0  0  0  0  0  0  0  0  0  0  0  0
   -7.3784    0.5609   -0.0176 C   0  0  0  0  0  0  0  0  0  0  0  0
   -8.7722    1.1424    0.0606 C   0  0  0  0  0  0  0  0  0  0  0  0
   -9.7777    0.4154   -0.8028 C   0  0  0  0  0  0  0  0  0  0  0  0
  -10.0768   -0.9337   -0.5687 C   0  0  0  0  0  0  0  0  0  0  0  0
  -10.9773   -1.5745   -1.4030 C   0  0  0  0  0  0  0  0  0  0  0  0
  -11.6037   -0.9717   -2.4351 N   0  0  0  0  0  0  0  0  0  0  0  0
  -11.3201    0.3331   -2.6337 C   0  0  0  0  0  0  0  0  0  0  0  0
  -10.4311    1.0609   -1.8555 C   0  0  0  0  0  0  0  0  0  0  0  0
   -6.4607    0.8452   -1.0485 C   0  0  0  0  0  0  0  0  0  0  0  0
   -6.6732    1.8394   -2.0368 C   0  0  0  0  0  0  0  0  0  0  0  0
   -5.7739    2.0413   -3.0845 C   0  0  0  0  0  0  0  0  0  0  0  0
   -4.6467    1.2454   -3.1818 C   0  0  0  0  0  0  0  0  0  0  0  0
   -4.3864    0.2949   -2.1950 C   0  0  0  0  0  0  0  0  0  0  0  0
   -5.2606    0.0921   -1.0928 C   0  0  0  0  0  0  0  0  0  0  0  0
   -2.2988   -2.7748    1.5110 C   0  0  0  0  0  0  0  0  0  0  0  0
   -2.0156   -3.9227    2.2597 C   0  0  0  0  0  0  0  0  0  0  0  0
   -0.4880   -4.0007    3.0647 Cl  0  0  0  0  0  0  0  0  0  0  0  0
   -4.8942   -5.6500    1.6747 H   0  0  0  0  0  0  0  0  0  0  0  0
   -5.3845   -3.6343    0.3658 H   0  0  0  0  0  0  0  0  0  0  0  0
   -3.3818   -1.6857   -0.8659 H   0  0  0  0  0  0  0  0  0  0  0  0
   -8.7523    2.2164   -0.1705 H   0  0  0  0  0  0  0  0  0  0  0  0
   -9.1231    1.0945    1.1023 H   0  0  0  0  0  0  0  0  0  0  0  0
   -9.6125   -1.4827    0.2454 H   0  0  0  0  0  0  0  0  0  0  0  0
  -11.2227   -2.6243   -1.2613 H   0  0  0  0  0  0  0  0  0  0  0  0
  -11.8420    0.7957   -3.4665 H   0  0  0  0  0  0  0  0  0  0  0  0
  -10.2587    2.1083   -2.0763 H   0  0  0  0  0  0  0  0  0  0  0  0
   -7.5477    2.4839   -2.0028 H   0  0  0  0  0  0  0  0  0  0  0  0
   -5.9617    2.8138   -3.8255 H   0  0  0  0  0  0  0  0  0  0  0  0
   -3.9592    1.3671   -4.0156 H   0  0  0  0  0  0  0  0  0  0  0  0
   -3.4847   -0.2989   -2.3161 H   0  0  0  0  0  0  0  0  0  0  0  0
   -1.5693   -1.9689    1.4577 H   0  0  0  0  0  0  0  0  0  0  0  0
  1  2  1  0  0  0  0
  2  3  1  0  0  0  0
  2 25  2  0  0  0  0
  3  4  2  0  0  0  0
  3 27  1  0  0  0  0
  4  5  1  0  0  0  0
  4 28  1  0  0  0  0
  5  6  1  0  0  0  0
  5 24  2  0  0  0  0
  6  7  1  0  0  0  0
  6 29  1  0  0  0  0
  7  8  1  0  0  0  0
  7 23  2  0  0  0  0
  8  9  2  0  0  0  0
  9 10  1  0  0  0  0
 10 11  1  0  0  0  0
 10 18  2  0  0  0  0
 11 12  1  0  0  0  0
 11 30  1  0  0  0  0
 11 31  1  0  0  0  0
 12 13  1  0  0  0  0
 12 17  2  0  0  0  0
 13 14  2  0  0  0  0
 13 32  1  0  0  0  0
 14 15  1  0  0  0  0
 14 33  1  0  0  0  0
 15 16  2  0  0  0  0
 16 17  1  0  0  0  0
 16 34  1  0  0  0  0
 17 35  1  0  0  0  0
 18 19  1  0  0  0  0
 18 23  1  0  0  0  0
 19 20  2  0  0  0  0
 19 36  1  0  0  0  0
 20 21  1  0  0  0  0
 20 37  1  0  0  0  0
 21 22  2  0  0  0  0
 21 38  1  0  0  0  0
 22 23  1  0  0  0  0
 22 39  1  0  0  0  0
 24 25  1  0  0  0  0
 24 40  1  0  0  0  0
 25 26  1  0  0  0  0
M  END
$$$$
