CHEMBL525909
 OpenBabel04072215383D

 70 73  0  0  0  0  0  0  0  0999 V2000
    1.1614    1.6653   -2.1219 C   0  0  0  0  0  0  0  0  0  0  0  0
    2.5294    1.4477   -1.7662 O   0  0  0  0  0  0  0  0  0  0  0  0
    3.2513    2.5902   -1.6604 C   0  0  0  0  0  0  0  0  0  0  0  0
    2.8210    3.7231   -1.8129 O   0  0  0  0  0  0  0  0  0  0  0  0
    4.6821    2.3014   -1.3659 C   0  0  0  0  0  0  0  0  0  0  0  0
    5.1786    0.9919   -1.1815 C   0  0  0  0  0  0  0  0  0  0  0  0
    6.5471    0.7578   -0.9444 C   0  0  0  0  0  0  0  0  0  0  0  0
    7.4140    1.8381   -0.9009 C   0  0  0  0  0  0  0  0  0  0  0  0
    6.8952    3.1281   -1.0718 C   0  0  0  0  0  0  0  0  0  0  0  0
    5.5569    3.3908   -1.2971 C   0  0  0  0  0  0  0  0  0  0  0  0
    7.9023    4.0805   -1.0095 N   0  0  0  0  0  0  0  0  0  0  0  0
    9.1417    3.4932   -0.8350 C   0  0  0  0  0  0  0  0  0  0  0  0
   10.2112    4.0631   -0.9432 O   0  0  0  0  0  0  0  0  0  0  0  0
    8.8642    2.0139   -0.6549 C   0  0  0  0  0  0  0  0  0  0  0  0
    9.8457    1.1373   -0.3379 C   0  0  0  0  0  0  0  0  0  0  0  0
   11.1513    1.4262    0.0819 N   0  0  0  0  0  0  0  0  0  0  0  0
   11.4266    2.3006    1.1732 C   0  0  0  0  0  0  0  0  0  0  0  0
   10.6629    2.2879    2.3482 C   0  0  0  0  0  0  0  0  0  0  0  0
   10.8817    3.2318    3.3654 C   0  0  0  0  0  0  0  0  0  0  0  0
   11.8852    4.1963    3.2370 C   0  0  0  0  0  0  0  0  0  0  0  0
   11.9603    5.2966    4.1369 N   0  0  0  0  0  0  0  0  0  0  0  0
   11.7896    6.6762    3.6301 C   0  0  0  0  0  0  0  0  0  0  0  0
   11.3835    6.9091    2.1681 C   0  0  0  0  0  0  0  0  0  0  0  0
   11.2177    8.3970    1.8260 C   0  0  0  0  0  0  0  0  0  0  0  0
   12.4055    9.2392    2.0631 N   0  0  0  0  0  0  0  0  0  0  0  0
   13.5948    8.7621    1.3550 C   0  0  0  0  0  0  0  0  0  0  0  0
   12.1262   10.6247    1.6678 C   0  0  0  0  0  0  0  0  0  0  0  0
   12.0925    5.1984    5.5256 C   0  0  0  0  0  0  0  0  0  0  0  0
   12.4157    3.8729    6.1698 C   0  0  0  0  0  0  0  0  0  0  0  0
   12.0439    6.1966    6.2559 O   0  0  0  0  0  0  0  0  0  0  0  0
   12.7299    4.1255    2.1237 C   0  0  0  0  0  0  0  0  0  0  0  0
   12.5090    3.1845    1.1070 C   0  0  0  0  0  0  0  0  0  0  0  0
    9.6370   -0.3164   -0.5141 C   0  0  0  0  0  0  0  0  0  0  0  0
    9.8808   -0.9022   -1.7680 C   0  0  0  0  0  0  0  0  0  0  0  0
    9.7612   -2.2829   -1.9403 C   0  0  0  0  0  0  0  0  0  0  0  0
    9.3934   -3.0874   -0.8628 C   0  0  0  0  0  0  0  0  0  0  0  0
    9.1466   -2.5135    0.3853 C   0  0  0  0  0  0  0  0  0  0  0  0
    9.2726   -1.1333    0.5613 C   0  0  0  0  0  0  0  0  0  0  0  0
    0.6356    0.7092   -2.0552 H   0  0  0  0  0  0  0  0  0  0  0  0
    1.0958    2.0264   -3.1532 H   0  0  0  0  0  0  0  0  0  0  0  0
    0.6793    2.3704   -1.4365 H   0  0  0  0  0  0  0  0  0  0  0  0
    4.5036    0.1386   -1.2228 H   0  0  0  0  0  0  0  0  0  0  0  0
    6.8908   -0.2612   -0.8043 H   0  0  0  0  0  0  0  0  0  0  0  0
    5.1977    4.4076   -1.4241 H   0  0  0  0  0  0  0  0  0  0  0  0
    7.7936    5.0682   -1.1845 H   0  0  0  0  0  0  0  0  0  0  0  0
   11.7144    1.7046   -0.7217 H   0  0  0  0  0  0  0  0  0  0  0  0
    9.8594    1.5669    2.4672 H   0  0  0  0  0  0  0  0  0  0  0  0
   10.2112    3.2388    4.2199 H   0  0  0  0  0  0  0  0  0  0  0  0
   12.7174    7.2100    3.8648 H   0  0  0  0  0  0  0  0  0  0  0  0
   11.0064    7.1337    4.2519 H   0  0  0  0  0  0  0  0  0  0  0  0
   10.4300    6.3997    1.9728 H   0  0  0  0  0  0  0  0  0  0  0  0
   12.1085    6.4816    1.4752 H   0  0  0  0  0  0  0  0  0  0  0  0
   10.3831    8.7900    2.4198 H   0  0  0  0  0  0  0  0  0  0  0  0
   10.9126    8.4674    0.7726 H   0  0  0  0  0  0  0  0  0  0  0  0
   13.9260    7.7955    1.7479 H   0  0  0  0  0  0  0  0  0  0  0  0
   14.4376    9.4461    1.5100 H   0  0  0  0  0  0  0  0  0  0  0  0
   13.4245    8.6640    0.2793 H   0  0  0  0  0  0  0  0  0  0  0  0
   11.2723   11.0246    2.2247 H   0  0  0  0  0  0  0  0  0  0  0  0
   11.9128   10.7118    0.5957 H   0  0  0  0  0  0  0  0  0  0  0  0
   12.9807   11.2713    1.8993 H   0  0  0  0  0  0  0  0  0  0  0  0
   11.9814    3.0118    5.6719 H   0  0  0  0  0  0  0  0  0  0  0  0
   12.0153    3.8882    7.1909 H   0  0  0  0  0  0  0  0  0  0  0  0
   13.5014    3.7577    6.2259 H   0  0  0  0  0  0  0  0  0  0  0  0
   13.5475    4.8337    2.0100 H   0  0  0  0  0  0  0  0  0  0  0  0
   13.1494    3.2032    0.2292 H   0  0  0  0  0  0  0  0  0  0  0  0
   10.1898   -0.2883   -2.6113 H   0  0  0  0  0  0  0  0  0  0  0  0
    9.9742   -2.7316   -2.9080 H   0  0  0  0  0  0  0  0  0  0  0  0
    9.3151   -4.1643   -0.9904 H   0  0  0  0  0  0  0  0  0  0  0  0
    8.8752   -3.1434    1.2286 H   0  0  0  0  0  0  0  0  0  0  0  0
    9.1004   -0.6995    1.5420 H   0  0  0  0  0  0  0  0  0  0  0  0
  1  2  1  0  0  0  0
  1 39  1  0  0  0  0
  1 40  1  0  0  0  0
  1 41  1  0  0  0  0
  2  3  1  0  0  0  0
  3  4  2  0  0  0  0
  3  5  1  0  0  0  0
  5  6  1  0  0  0  0
  5 10  2  0  0  0  0
  6  7  2  0  0  0  0
  6 42  1  0  0  0  0
  7  8  1  0  0  0  0
  7 43  1  0  0  0  0
  8  9  2  0  0  0  0
  8 14  1  0  0  0  0
  9 10  1  0  0  0  0
  9 11  1  0  0  0  0
 10 44  1  0  0  0  0
 11 12  1  0  0  0  0
 11 45  1  0  0  0  0
 12 13  2  0  0  0  0
 12 14  1  0  0  0  0
 14 15  2  0  0  0  0
 15 16  1  0  0  0  0
 15 33  1  0  0  0  0
 16 17  1  0  0  0  0
 16 46  1  0  0  0  0
 17 18  1  0  0  0  0
 17 32  2  0  0  0  0
 18 19  2  0  0  0  0
 18 47  1  0  0  0  0
 19 20  1  0  0  0  0
 19 48  1  0  0  0  0
 20 21  1  0  0  0  0
 20 31  2  0  0  0  0
 21 22  1  0  0  0  0
 21 28  1  0  0  0  0
 22 23  1  0  0  0  0
 22 49  1  0  0  0  0
 22 50  1  0  0  0  0
 23 24  1  0  0  0  0
 23 51  1  0  0  0  0
 23 52  1  0  0  0  0
 24 25  1  0  0  0  0
 24 53  1  0  0  0  0
 24 54  1  0  0  0  0
 25 26  1  0  0  0  0
 25 27  1  0  0  0  0
 26 55  1  0  0  0  0
 26 56  1  0  0  0  0
 26 57  1  0  0  0  0
 27 58  1  0  0  0  0
 27 59  1  0  0  0  0
 27 60  1  0  0  0  0
 28 29  1  0  0  0  0
 28 30  2  0  0  0  0
 29 61  1  0  0  0  0
 29 62  1  0  0  0  0
 29 63  1  0  0  0  0
 31 32  1  0  0  0  0
 31 64  1  0  0  0  0
 32 65  1  0  0  0  0
 33 34  1  0  0  0  0
 33 38  2  0  0  0  0
 34 35  2  0  0  0  0
 34 66  1  0  0  0  0
 35 36  1  0  0  0  0
 35 67  1  0  0  0  0
 36 37  2  0  0  0  0
 36 68  1  0  0  0  0
 37 38  1  0  0  0  0
 37 69  1  0  0  0  0
 38 70  1  0  0  0  0
M  END
$$$$
