CHEMBL3970244
 OpenBabel04072215373D

 53 56  0  0  0  0  0  0  0  0999 V2000
    1.1088    0.2693   -0.8927 O   0  0  0  0  0  0  0  0  0  0  0  0
    2.1913    0.0868   -0.3551 C   0  0  0  0  0  0  0  0  0  0  0  0
    2.7598   -1.1642   -0.1589 N   0  0  0  0  0  0  0  0  0  0  0  0
    2.1571   -2.4073   -0.4733 C   0  0  0  0  0  0  0  0  0  0  0  0
    1.0030   -2.5499   -1.2533 C   0  0  0  0  0  0  0  0  0  0  0  0
    0.3867   -3.7988   -1.4122 C   0  0  0  0  0  0  0  0  0  0  0  0
    0.9258   -4.9281   -0.8005 C   0  0  0  0  0  0  0  0  0  0  0  0
    0.2186   -6.1024   -0.9535 O   0  0  0  0  0  0  0  0  0  0  0  0
    0.1581   -6.9970    0.0997 C   0  0  0  0  0  0  0  0  0  0  0  0
    0.2143   -6.6341    1.4368 C   0  0  0  0  0  0  0  0  0  0  0  0
    0.2463   -7.6421    2.3760 C   0  0  0  0  0  0  0  0  0  0  0  0
    0.1490   -8.9456    2.0630 N   0  0  0  0  0  0  0  0  0  0  0  0
    0.0099   -9.2917    0.7724 C   0  0  0  0  0  0  0  0  0  0  0  0
   -0.1355  -10.6445    0.4276 N   0  0  0  0  0  0  0  0  0  0  0  0
   -0.0485  -11.6885    1.3275 C   0  0  0  0  0  0  0  0  0  0  0  0
    0.2113  -11.6345    2.5239 O   0  0  0  0  0  0  0  0  0  0  0  0
   -0.3392  -13.0194    0.7100 C   0  0  0  0  0  0  0  0  0  0  0  0
   -1.5215  -13.8132    1.2201 C   0  0  0  0  0  0  0  0  0  0  0  0
   -0.1284  -14.2927    1.5021 C   0  0  0  0  0  0  0  0  0  0  0  0
   -0.0026   -8.3428   -0.2433 C   0  0  0  0  0  0  0  0  0  0  0  0
    2.1426   -4.8046   -0.1280 C   0  0  0  0  0  0  0  0  0  0  0  0
    2.7549   -5.8757    0.3979 F   0  0  0  0  0  0  0  0  0  0  0  0
    2.7442   -3.5588    0.0552 C   0  0  0  0  0  0  0  0  0  0  0  0
    2.9887    1.1005    0.1673 N   0  0  0  0  0  0  0  0  0  0  0  0
    2.6495    2.4756    0.2432 C   0  0  0  0  0  0  0  0  0  0  0  0
    1.4046    2.9861   -0.1249 C   0  0  0  0  0  0  0  0  0  0  0  0
    1.1740    4.3647   -0.1112 C   0  0  0  0  0  0  0  0  0  0  0  0
    2.1746    5.2588    0.2859 C   0  0  0  0  0  0  0  0  0  0  0  0
    1.8508    6.9317    0.0133 Cl  0  0  0  0  0  0  0  0  0  0  0  0
    3.3931    4.7614    0.7590 C   0  0  0  0  0  0  0  0  0  0  0  0
    4.4829    5.4655    1.1827 O   0  0  0  0  0  0  0  0  0  0  0  0
    4.3251    6.6327    1.9803 C   0  0  0  0  0  0  0  0  0  0  0  0
    3.0846    6.7973    2.4774 F   0  0  0  0  0  0  0  0  0  0  0  0
    5.1682    6.5334    3.0358 F   0  0  0  0  0  0  0  0  0  0  0  0
    4.6884    7.7167    1.2644 F   0  0  0  0  0  0  0  0  0  0  0  0
    3.6249    3.3714    0.7062 C   0  0  0  0  0  0  0  0  0  0  0  0
    3.5777   -1.2024    0.4293 H   0  0  0  0  0  0  0  0  0  0  0  0
    0.5408   -1.7004   -1.7493 H   0  0  0  0  0  0  0  0  0  0  0  0
   -0.5272   -3.8735   -1.9964 H   0  0  0  0  0  0  0  0  0  0  0  0
    0.2827   -5.6014    1.7628 H   0  0  0  0  0  0  0  0  0  0  0  0
    0.3617   -7.4297    3.4335 H   0  0  0  0  0  0  0  0  0  0  0  0
   -0.3214  -10.8591   -0.5383 H   0  0  0  0  0  0  0  0  0  0  0  0
   -0.1194  -13.0957   -0.3502 H   0  0  0  0  0  0  0  0  0  0  0  0
   -2.1159  -14.3665    0.5043 H   0  0  0  0  0  0  0  0  0  0  0  0
   -2.0875  -13.4105    2.0546 H   0  0  0  0  0  0  0  0  0  0  0  0
    0.2266  -15.1706    0.9765 H   0  0  0  0  0  0  0  0  0  0  0  0
    0.2404  -14.2110    2.5203 H   0  0  0  0  0  0  0  0  0  0  0  0
   -0.1106   -8.6258   -1.2835 H   0  0  0  0  0  0  0  0  0  0  0  0
    3.6544   -3.5151    0.6458 H   0  0  0  0  0  0  0  0  0  0  0  0
    3.9361    0.8539    0.4171 H   0  0  0  0  0  0  0  0  0  0  0  0
    0.5907    2.3527   -0.4566 H   0  0  0  0  0  0  0  0  0  0  0  0
    0.2097    4.7315   -0.4563 H   0  0  0  0  0  0  0  0  0  0  0  0
    4.6008    2.9991    1.0182 H   0  0  0  0  0  0  0  0  0  0  0  0
  1  2  2  0  0  0  0
  2  3  1  0  0  0  0
  2 24  1  0  0  0  0
  3  4  1  0  0  0  0
  3 37  1  0  0  0  0
  4  5  1  0  0  0  0
  4 23  2  0  0  0  0
  5  6  2  0  0  0  0
  5 38  1  0  0  0  0
  6  7  1  0  0  0  0
  6 39  1  0  0  0  0
  7  8  1  0  0  0  0
  7 21  2  0  0  0  0
  8  9  1  0  0  0  0
  9 10  1  0  0  0  0
  9 20  2  0  0  0  0
 10 11  2  0  0  0  0
 10 40  1  0  0  0  0
 11 12  1  0  0  0  0
 11 41  1  0  0  0  0
 12 13  2  0  0  0  0
 13 14  1  0  0  0  0
 13 20  1  0  0  0  0
 14 15  1  0  0  0  0
 14 42  1  0  0  0  0
 15 16  2  0  0  0  0
 15 17  1  0  0  0  0
 17 18  1  0  0  0  0
 17 19  1  0  0  0  0
 17 43  1  0  0  0  0
 18 19  1  0  0  0  0
 18 44  1  0  0  0  0
 18 45  1  0  0  0  0
 19 46  1  0  0  0  0
 19 47  1  0  0  0  0
 20 48  1  0  0  0  0
 21 22  1  0  0  0  0
 21 23  1  0  0  0  0
 23 49  1  0  0  0  0
 24 25  1  0  0  0  0
 24 50  1  0  0  0  0
 25 26  1  0  0  0  0
 25 36  2  0  0  0  0
 26 27  2  0  0  0  0
 26 51  1  0  0  0  0
 27 28  1  0  0  0  0
 27 52  1  0  0  0  0
 28 29  1  0  0  0  0
 28 30  2  0  0  0  0
 30 31  1  0  0  0  0
 30 36  1  0  0  0  0
 31 32  1  0  0  0  0
 32 33  1  0  0  0  0
 32 34  1  0  0  0  0
 32 35  1  0  0  0  0
 36 53  1  0  0  0  0
M  END
$$$$
