CHEMBL4640302
 OpenBabel04072215383D

 76 81  0  0  0  0  0  0  0  0999 V2000
   19.3144    3.6220   -5.0372 C   0  0  0  0  0  0  0  0  0  0  0  0
   18.0754    3.4464   -4.3447 O   0  0  0  0  0  0  0  0  0  0  0  0
   18.2151    2.8195   -3.1545 C   0  0  0  0  0  0  0  0  0  0  0  0
   19.2723    2.4211   -2.6757 O   0  0  0  0  0  0  0  0  0  0  0  0
   16.9053    2.6295   -2.4865 C   0  0  0  0  0  0  0  0  0  0  0  0
   15.6769    3.0555   -3.0381 C   0  0  0  0  0  0  0  0  0  0  0  0
   14.4512    2.7749   -2.3995 C   0  0  0  0  0  0  0  0  0  0  0  0
   14.4696    2.0486   -1.2210 C   0  0  0  0  0  0  0  0  0  0  0  0
   15.7064    1.6534   -0.6888 C   0  0  0  0  0  0  0  0  0  0  0  0
   16.9199    1.9381   -1.2714 C   0  0  0  0  0  0  0  0  0  0  0  0
   15.5409    0.8657    0.4362 N   0  0  0  0  0  0  0  0  0  0  0  0
   14.2124    0.5999    0.6638 C   0  0  0  0  0  0  0  0  0  0  0  0
   13.7967   -0.2805    1.3918 O   0  0  0  0  0  0  0  0  0  0  0  0
   13.4546    1.4969   -0.3010 C   0  0  0  0  0  0  0  0  0  0  0  0
   12.1105    1.6026   -0.2210 C   0  0  0  0  0  0  0  0  0  0  0  0
   11.3168    1.1032    0.7999 N   0  0  0  0  0  0  0  0  0  0  0  0
   11.4515    1.2864    2.1891 C   0  0  0  0  0  0  0  0  0  0  0  0
   10.8244    0.3818    3.0437 C   0  0  0  0  0  0  0  0  0  0  0  0
   10.9333    0.5122    4.4287 C   0  0  0  0  0  0  0  0  0  0  0  0
   11.7284    1.5207    4.9609 C   0  0  0  0  0  0  0  0  0  0  0  0
   11.8342    1.6529    6.3898 N   0  0  0  0  0  0  0  0  0  0  0  0
   11.8369    0.6158    7.3379 C   0  0  0  0  0  0  0  0  0  0  0  0
   11.8728   -0.8501    7.0520 C   0  0  0  0  0  0  0  0  0  0  0  0
   11.8942    1.1773    8.6005 C   0  0  0  0  0  0  0  0  0  0  0  0
   11.9639    2.5715    8.4512 C   0  0  0  0  0  0  0  0  0  0  0  0
   11.9340    2.8597    7.0952 C   0  0  0  0  0  0  0  0  0  0  0  0
   11.8899    4.2307    6.4789 C   0  0  0  0  0  0  0  0  0  0  0  0
   13.0006    5.0815    6.9337 N   0  0  0  0  0  0  0  0  0  0  0  0
   14.3122    4.5594    6.5046 C   0  0  0  0  0  0  0  0  0  0  0  0
   15.4567    5.4712    7.0066 C   0  0  0  0  0  0  0  0  0  0  0  0
   15.3632    6.8851    6.5850 N   0  0  0  0  0  0  0  0  0  0  0  0
   15.7240    7.0472    5.1801 C   0  0  0  0  0  0  0  0  0  0  0  0
   14.0007    7.3853    6.8613 C   0  0  0  0  0  0  0  0  0  0  0  0
   12.8446    6.4554    6.4155 C   0  0  0  0  0  0  0  0  0  0  0  0
   12.3782    2.4023    4.1608 N   0  0  0  0  0  0  0  0  0  0  0  0
   12.2434    2.2506    2.8118 C   0  0  0  0  0  0  0  0  0  0  0  0
   11.3295    2.1298   -1.3648 C   0  0  0  0  0  0  0  0  0  0  0  0
   10.8746    1.2283   -2.3419 C   0  0  0  0  0  0  0  0  0  0  0  0
   10.1147    1.6733   -3.4253 C   0  0  0  0  0  0  0  0  0  0  0  0
    9.7978    3.0238   -3.5428 C   0  0  0  0  0  0  0  0  0  0  0  0
   10.2312    3.9279   -2.5708 C   0  0  0  0  0  0  0  0  0  0  0  0
   10.9899    3.4826   -1.4799 C   0  0  0  0  0  0  0  0  0  0  0  0
   19.1315    4.2660   -5.9005 H   0  0  0  0  0  0  0  0  0  0  0  0
   19.6852    2.6551   -5.3924 H   0  0  0  0  0  0  0  0  0  0  0  0
   20.0562    4.1069   -4.3954 H   0  0  0  0  0  0  0  0  0  0  0  0
   15.6627    3.5918   -3.9852 H   0  0  0  0  0  0  0  0  0  0  0  0
   13.5252    3.1016   -2.8612 H   0  0  0  0  0  0  0  0  0  0  0  0
   17.8474    1.5945   -0.8232 H   0  0  0  0  0  0  0  0  0  0  0  0
   16.2759    0.3568    0.9113 H   0  0  0  0  0  0  0  0  0  0  0  0
   10.4013    0.7683    0.5163 H   0  0  0  0  0  0  0  0  0  0  0  0
   10.2567   -0.4506    2.6371 H   0  0  0  0  0  0  0  0  0  0  0  0
   10.3608   -0.1610    5.0554 H   0  0  0  0  0  0  0  0  0  0  0  0
   12.0512   -1.1072    6.0082 H   0  0  0  0  0  0  0  0  0  0  0  0
   10.9332   -1.3128    7.3728 H   0  0  0  0  0  0  0  0  0  0  0  0
   12.6874   -1.3201    7.6154 H   0  0  0  0  0  0  0  0  0  0  0  0
   11.9179    0.6274    9.5319 H   0  0  0  0  0  0  0  0  0  0  0  0
   12.0268    3.3079    9.2392 H   0  0  0  0  0  0  0  0  0  0  0  0
   10.9509    4.6837    6.8306 H   0  0  0  0  0  0  0  0  0  0  0  0
   11.8177    4.2352    5.3935 H   0  0  0  0  0  0  0  0  0  0  0  0
   14.3579    4.4635    5.4122 H   0  0  0  0  0  0  0  0  0  0  0  0
   14.4866    3.5617    6.9228 H   0  0  0  0  0  0  0  0  0  0  0  0
   16.4230    5.0493    6.7036 H   0  0  0  0  0  0  0  0  0  0  0  0
   15.4599    5.4485    8.1050 H   0  0  0  0  0  0  0  0  0  0  0  0
   16.7467    6.6928    5.0071 H   0  0  0  0  0  0  0  0  0  0  0  0
   15.7160    8.1083    4.9073 H   0  0  0  0  0  0  0  0  0  0  0  0
   15.0574    6.5139    4.4955 H   0  0  0  0  0  0  0  0  0  0  0  0
   13.8646    8.3772    6.4124 H   0  0  0  0  0  0  0  0  0  0  0  0
   13.9167    7.5412    7.9454 H   0  0  0  0  0  0  0  0  0  0  0  0
   12.7865    6.4503    5.3191 H   0  0  0  0  0  0  0  0  0  0  0  0
   11.9049    6.8833    6.7860 H   0  0  0  0  0  0  0  0  0  0  0  0
   12.7981    2.9816    2.2317 H   0  0  0  0  0  0  0  0  0  0  0  0
   11.1049    0.1678   -2.2555 H   0  0  0  0  0  0  0  0  0  0  0  0
    9.7671    0.9642   -4.1730 H   0  0  0  0  0  0  0  0  0  0  0  0
    9.2052    3.3716   -4.3867 H   0  0  0  0  0  0  0  0  0  0  0  0
    9.9715    4.9794   -2.6597 H   0  0  0  0  0  0  0  0  0  0  0  0
   11.3074    4.1984   -0.7254 H   0  0  0  0  0  0  0  0  0  0  0  0
  1  2  1  0  0  0  0
  1 43  1  0  0  0  0
  1 44  1  0  0  0  0
  1 45  1  0  0  0  0
  2  3  1  0  0  0  0
  3  4  2  0  0  0  0
  3  5  1  0  0  0  0
  5  6  1  0  0  0  0
  5 10  2  0  0  0  0
  6  7  2  0  0  0  0
  6 46  1  0  0  0  0
  7  8  1  0  0  0  0
  7 47  1  0  0  0  0
  8  9  2  0  0  0  0
  8 14  1  0  0  0  0
  9 10  1  0  0  0  0
  9 11  1  0  0  0  0
 10 48  1  0  0  0  0
 11 12  1  0  0  0  0
 11 49  1  0  0  0  0
 12 13  2  0  0  0  0
 12 14  1  0  0  0  0
 14 15  2  0  0  0  0
 15 16  1  0  0  0  0
 15 37  1  0  0  0  0
 16 17  1  0  0  0  0
 16 50  1  0  0  0  0
 17 18  1  0  0  0  0
 17 36  2  0  0  0  0
 18 19  2  0  0  0  0
 18 51  1  0  0  0  0
 19 20  1  0  0  0  0
 19 52  1  0  0  0  0
 20 21  1  0  0  0  0
 20 35  2  0  0  0  0
 21 22  1  0  0  0  0
 21 26  1  0  0  0  0
 22 23  1  0  0  0  0
 22 24  2  0  0  0  0
 23 53  1  0  0  0  0
 23 54  1  0  0  0  0
 23 55  1  0  0  0  0
 24 25  1  0  0  0  0
 24 56  1  0  0  0  0
 25 26  2  0  0  0  0
 25 57  1  0  0  0  0
 26 27  1  0  0  0  0
 27 28  1  0  0  0  0
 27 58  1  0  0  0  0
 27 59  1  0  0  0  0
 28 29  1  0  0  0  0
 28 34  1  0  0  0  0
 29 30  1  0  0  0  0
 29 60  1  0  0  0  0
 29 61  1  0  0  0  0
 30 31  1  0  0  0  0
 30 62  1  0  0  0  0
 30 63  1  0  0  0  0
 31 32  1  0  0  0  0
 31 33  1  0  0  0  0
 32 64  1  0  0  0  0
 32 65  1  0  0  0  0
 32 66  1  0  0  0  0
 33 34  1  0  0  0  0
 33 67  1  0  0  0  0
 33 68  1  0  0  0  0
 34 69  1  0  0  0  0
 34 70  1  0  0  0  0
 35 36  1  0  0  0  0
 36 71  1  0  0  0  0
 37 38  1  0  0  0  0
 37 42  2  0  0  0  0
 38 39  2  0  0  0  0
 38 72  1  0  0  0  0
 39 40  1  0  0  0  0
 39 73  1  0  0  0  0
 40 41  2  0  0  0  0
 40 74  1  0  0  0  0
 41 42  1  0  0  0  0
 41 75  1  0  0  0  0
 42 76  1  0  0  0  0
M  END
$$$$
