CHEMBL4581670
 OpenBabel04072215383D

 52 56  0  0  0  0  0  0  0  0999 V2000
    3.5587    5.6122   -1.5899 N   0  0  0  0  0  0  0  0  0  0  0  0
    4.3488    4.4923   -1.3990 C   0  0  0  0  0  0  0  0  0  0  0  0
    5.6211    4.6310   -1.8195 N   0  0  0  0  0  0  0  0  0  0  0  0
    6.4922    3.6269   -1.6323 C   0  0  0  0  0  0  0  0  0  0  0  0
    6.2525    2.4593   -1.0433 N   0  0  0  0  0  0  0  0  0  0  0  0
    4.9791    2.3233   -0.6276 C   0  0  0  0  0  0  0  0  0  0  0  0
    4.4162    1.2383    0.0295 C   0  0  0  0  0  0  0  0  0  0  0  0
    3.1054    1.5293    0.2753 C   0  0  0  0  0  0  0  0  0  0  0  0
    2.7770    2.7665   -0.2361 N   0  0  0  0  0  0  0  0  0  0  0  0
    1.4739    3.3588   -0.1800 C   0  0  0  0  0  0  0  0  0  0  0  0
    0.6254    3.1024    0.9050 C   0  0  0  0  0  0  0  0  0  0  0  0
   -0.6584    3.6688    0.9640 C   0  0  0  0  0  0  0  0  0  0  0  0
   -1.1253    4.5126   -0.0520 C   0  0  0  0  0  0  0  0  0  0  0  0
   -2.5565    5.0131   -0.0319 C   0  0  0  0  0  0  0  0  0  0  0  0
   -2.7841    6.5170   -0.0808 C   0  0  0  0  0  0  0  0  0  0  0  0
   -3.5826    7.0074   -0.8779 O   0  0  0  0  0  0  0  0  0  0  0  0
   -2.0845    7.2496    0.8640 N   0  0  0  0  0  0  0  0  0  0  0  0
   -2.2454    8.6460    1.0155 C   0  0  0  0  0  0  0  0  0  0  0  0
   -1.1028    9.4267    1.1341 C   0  0  0  0  0  0  0  0  0  0  0  0
   -1.2562   10.7946    1.2583 C   0  0  0  0  0  0  0  0  0  0  0  0
   -2.4524   11.4100    1.3502 N   0  0  0  0  0  0  0  0  0  0  0  0
   -3.5758   10.6379    1.2831 C   0  0  0  0  0  0  0  0  0  0  0  0
   -4.9359   11.2981    1.4792 C   0  0  0  0  0  0  0  0  0  0  0  0
   -4.8773   12.6417    1.7146 F   0  0  0  0  0  0  0  0  0  0  0  0
   -5.7637   11.1480    0.4054 F   0  0  0  0  0  0  0  0  0  0  0  0
   -5.6184   10.7749    2.5421 F   0  0  0  0  0  0  0  0  0  0  0  0
   -3.5025    9.2547    1.0851 C   0  0  0  0  0  0  0  0  0  0  0  0
   -0.2825    4.7582   -1.1425 C   0  0  0  0  0  0  0  0  0  0  0  0
    0.9921    4.1692   -1.2142 C   0  0  0  0  0  0  0  0  0  0  0  0
    3.9700    3.2889   -0.7947 C   0  0  0  0  0  0  0  0  0  0  0  0
    2.3709    0.3897    0.8767 C   0  0  0  0  0  0  0  0  0  0  0  0
    3.3965   -0.7764    0.6636 C   0  0  0  0  0  0  0  0  0  0  0  0
    4.7965   -0.1132    0.4738 C   0  0  0  0  0  0  0  0  0  0  0  0
    4.1492    6.3912   -1.8644 H   0  0  0  0  0  0  0  0  0  0  0  0
    2.9186    5.8042   -0.8324 H   0  0  0  0  0  0  0  0  0  0  0  0
    7.5039    3.7970   -1.9796 H   0  0  0  0  0  0  0  0  0  0  0  0
    0.9389    2.4763    1.7359 H   0  0  0  0  0  0  0  0  0  0  0  0
   -1.3001    3.4146    1.8069 H   0  0  0  0  0  0  0  0  0  0  0  0
   -3.0763    4.6466    0.8618 H   0  0  0  0  0  0  0  0  0  0  0  0
   -3.0731    4.5691   -0.8929 H   0  0  0  0  0  0  0  0  0  0  0  0
   -1.1990    6.8514    1.1552 H   0  0  0  0  0  0  0  0  0  0  0  0
   -0.1096    8.9993    1.0641 H   0  0  0  0  0  0  0  0  0  0  0  0
   -0.3939   11.4551    1.2840 H   0  0  0  0  0  0  0  0  0  0  0  0
   -4.4141    8.6653    1.0360 H   0  0  0  0  0  0  0  0  0  0  0  0
   -0.6230    5.3697   -1.9771 H   0  0  0  0  0  0  0  0  0  0  0  0
    1.5666    4.3159   -2.1271 H   0  0  0  0  0  0  0  0  0  0  0  0
    1.4221    0.1686    0.3813 H   0  0  0  0  0  0  0  0  0  0  0  0
    2.2100    0.5453    1.9478 H   0  0  0  0  0  0  0  0  0  0  0  0
    3.1349   -1.3179   -0.2555 H   0  0  0  0  0  0  0  0  0  0  0  0
    3.3864   -1.4996    1.4846 H   0  0  0  0  0  0  0  0  0  0  0  0
    5.3972   -0.6562   -0.2621 H   0  0  0  0  0  0  0  0  0  0  0  0
    5.3376   -0.0760    1.4259 H   0  0  0  0  0  0  0  0  0  0  0  0
  1  2  1  0  0  0  0
  1 34  1  0  0  0  0
  1 35  1  0  0  0  0
  2  3  1  0  0  0  0
  2 30  2  0  0  0  0
  3  4  2  0  0  0  0
  4  5  1  0  0  0  0
  4 36  1  0  0  0  0
  5  6  2  0  0  0  0
  6  7  1  0  0  0  0
  6 30  1  0  0  0  0
  7  8  2  0  0  0  0
  7 33  1  0  0  0  0
  8  9  1  0  0  0  0
  8 31  1  0  0  0  0
  9 10  1  0  0  0  0
  9 30  1  0  0  0  0
 10 11  1  0  0  0  0
 10 29  2  0  0  0  0
 11 12  2  0  0  0  0
 11 37  1  0  0  0  0
 12 13  1  0  0  0  0
 12 38  1  0  0  0  0
 13 14  1  0  0  0  0
 13 28  2  0  0  0  0
 14 15  1  0  0  0  0
 14 39  1  0  0  0  0
 14 40  1  0  0  0  0
 15 16  2  0  0  0  0
 15 17  1  0  0  0  0
 17 18  1  0  0  0  0
 17 41  1  0  0  0  0
 18 19  1  0  0  0  0
 18 27  2  0  0  0  0
 19 20  2  0  0  0  0
 19 42  1  0  0  0  0
 20 21  1  0  0  0  0
 20 43  1  0  0  0  0
 21 22  2  0  0  0  0
 22 23  1  0  0  0  0
 22 27  1  0  0  0  0
 23 24  1  0  0  0  0
 23 25  1  0  0  0  0
 23 26  1  0  0  0  0
 27 44  1  0  0  0  0
 28 29  1  0  0  0  0
 28 45  1  0  0  0  0
 29 46  1  0  0  0  0
 31 32  1  0  0  0  0
 31 47  1  0  0  0  0
 31 48  1  0  0  0  0
 32 33  1  0  0  0  0
 32 49  1  0  0  0  0
 32 50  1  0  0  0  0
 33 51  1  0  0  0  0
 33 52  1  0  0  0  0
M  END
$$$$
