CHEMBL3297816
 OpenBabel04072215363D

 31 33  0  0  0  0  0  0  0  0999 V2000
    1.2177    0.2507   -0.0483 C   0  0  0  0  0  0  0  0  0  0  0  0
    2.7154    0.1976   -0.0654 C   0  0  0  0  0  0  0  0  0  0  0  0
    3.2701   -1.0297   -0.0773 N   0  0  0  0  0  0  0  0  0  0  0  0
    4.6188   -1.1766   -0.0961 C   0  0  0  0  0  0  0  0  0  0  0  0
    5.1865   -2.4562   -0.1198 N   0  0  0  0  0  0  0  0  0  0  0  0
    4.6699   -3.6309    0.4535 C   0  0  0  0  0  0  0  0  0  0  0  0
    5.0597   -4.8726   -0.0594 C   0  0  0  0  0  0  0  0  0  0  0  0
    4.5224   -6.0569    0.4553 C   0  0  0  0  0  0  0  0  0  0  0  0
    3.6002   -6.0128    1.4990 C   0  0  0  0  0  0  0  0  0  0  0  0
    3.2093   -4.7850    2.0222 C   0  0  0  0  0  0  0  0  0  0  0  0
    3.7335   -3.6039    1.4947 C   0  0  0  0  0  0  0  0  0  0  0  0
    5.3921   -0.0138   -0.1093 C   0  0  0  0  0  0  0  0  0  0  0  0
    6.7733    0.3140   -0.1098 C   0  0  0  0  0  0  0  0  0  0  0  0
    6.8437    1.6892   -0.0789 C   0  0  0  0  0  0  0  0  0  0  0  0
    7.9691    2.6423   -0.0522 C   0  0  0  0  0  0  0  0  0  0  0  0
    5.5904    2.2256   -0.0642 O   0  0  0  0  0  0  0  0  0  0  0  0
    4.7024    1.1896   -0.0796 C   0  0  0  0  0  0  0  0  0  0  0  0
    3.3748    1.3649   -0.0598 N   0  0  0  0  0  0  0  0  0  0  0  0
    0.7863   -0.7561   -0.0412 H   0  0  0  0  0  0  0  0  0  0  0  0
    0.8500    0.7728   -0.9365 H   0  0  0  0  0  0  0  0  0  0  0  0
    0.8720    0.7760    0.8469 H   0  0  0  0  0  0  0  0  0  0  0  0
    6.1849   -2.4814   -0.2659 H   0  0  0  0  0  0  0  0  0  0  0  0
    5.7567   -4.9291   -0.8918 H   0  0  0  0  0  0  0  0  0  0  0  0
    4.8139   -7.0150    0.0334 H   0  0  0  0  0  0  0  0  0  0  0  0
    3.1783   -6.9294    1.8989 H   0  0  0  0  0  0  0  0  0  0  0  0
    2.4889   -4.7354    2.8351 H   0  0  0  0  0  0  0  0  0  0  0  0
    3.4120   -2.6569    1.9198 H   0  0  0  0  0  0  0  0  0  0  0  0
    7.6139   -0.3652   -0.1138 H   0  0  0  0  0  0  0  0  0  0  0  0
    8.9265    2.1123   -0.0483 H   0  0  0  0  0  0  0  0  0  0  0  0
    7.9236    3.2679    0.8447 H   0  0  0  0  0  0  0  0  0  0  0  0
    7.9419    3.2913   -0.9326 H   0  0  0  0  0  0  0  0  0  0  0  0
  1  2  1  0  0  0  0
  1 19  1  0  0  0  0
  1 20  1  0  0  0  0
  1 21  1  0  0  0  0
  2  3  1  0  0  0  0
  2 18  2  0  0  0  0
  3  4  2  0  0  0  0
  4  5  1  0  0  0  0
  4 12  1  0  0  0  0
  5  6  1  0  0  0  0
  5 22  1  0  0  0  0
  6  7  1  0  0  0  0
  6 11  2  0  0  0  0
  7  8  2  0  0  0  0
  7 23  1  0  0  0  0
  8  9  1  0  0  0  0
  8 24  1  0  0  0  0
  9 10  2  0  0  0  0
  9 25  1  0  0  0  0
 10 11  1  0  0  0  0
 10 26  1  0  0  0  0
 11 27  1  0  0  0  0
 12 13  1  0  0  0  0
 12 17  2  0  0  0  0
 13 14  2  0  0  0  0
 13 28  1  0  0  0  0
 14 15  1  0  0  0  0
 14 16  1  0  0  0  0
 15 29  1  0  0  0  0
 15 30  1  0  0  0  0
 15 31  1  0  0  0  0
 16 17  1  0  0  0  0
 17 18  1  0  0  0  0
M  END
$$$$
