CHEMBL3953141
 OpenBabel04072215373D

 51 54  0  0  0  0  0  0  0  0999 V2000
    2.6594   -3.2501   -1.0139 O   0  0  0  0  0  0  0  0  0  0  0  0
    2.2342   -2.1678   -0.6425 C   0  0  0  0  0  0  0  0  0  0  0  0
    0.9147   -1.7576   -0.7715 N   0  0  0  0  0  0  0  0  0  0  0  0
   -0.1193   -2.5259   -1.3612 C   0  0  0  0  0  0  0  0  0  0  0  0
   -0.0192   -3.9031   -1.5734 C   0  0  0  0  0  0  0  0  0  0  0  0
   -1.0384   -4.6050   -2.2215 C   0  0  0  0  0  0  0  0  0  0  0  0
   -2.1742   -3.9341   -2.6507 C   0  0  0  0  0  0  0  0  0  0  0  0
   -3.1249   -4.6342   -3.2816 F   0  0  0  0  0  0  0  0  0  0  0  0
   -2.3221   -2.5679   -2.4331 C   0  0  0  0  0  0  0  0  0  0  0  0
   -3.5462   -1.8449   -2.9081 C   0  0  0  0  0  0  0  0  0  0  0  0
   -4.4391   -2.5999   -3.6018 F   0  0  0  0  0  0  0  0  0  0  0  0
   -4.2474   -1.2960   -1.8757 F   0  0  0  0  0  0  0  0  0  0  0  0
   -3.2330   -0.8010   -3.7289 F   0  0  0  0  0  0  0  0  0  0  0  0
   -1.2891   -1.8689   -1.7687 C   0  0  0  0  0  0  0  0  0  0  0  0
    3.0308   -1.1859   -0.0862 N   0  0  0  0  0  0  0  0  0  0  0  0
    4.4530   -1.1825   -0.0784 C   0  0  0  0  0  0  0  0  0  0  0  0
    5.2115   -1.9988   -0.9278 C   0  0  0  0  0  0  0  0  0  0  0  0
    6.6075   -1.9094   -0.9577 C   0  0  0  0  0  0  0  0  0  0  0  0
    7.2698   -0.9937   -0.1441 C   0  0  0  0  0  0  0  0  0  0  0  0
    8.6332   -0.8918   -0.3194 O   0  0  0  0  0  0  0  0  0  0  0  0
    9.4296   -0.6724    0.7979 C   0  0  0  0  0  0  0  0  0  0  0  0
   10.6834   -0.1393    0.5727 C   0  0  0  0  0  0  0  0  0  0  0  0
   11.4631    0.0374    1.6940 C   0  0  0  0  0  0  0  0  0  0  0  0
   12.7750    0.5254    1.5447 N   0  0  0  0  0  0  0  0  0  0  0  0
   13.6574    0.6550    2.6008 C   0  0  0  0  0  0  0  0  0  0  0  0
   13.4352    0.4313    3.7823 O   0  0  0  0  0  0  0  0  0  0  0  0
   15.0307    1.1054    2.2067 C   0  0  0  0  0  0  0  0  0  0  0  0
   16.2276    0.5448    2.9477 C   0  0  0  0  0  0  0  0  0  0  0  0
   15.8210    1.9733    3.1630 C   0  0  0  0  0  0  0  0  0  0  0  0
   11.0136   -0.2645    2.9177 N   0  0  0  0  0  0  0  0  0  0  0  0
    9.7936   -0.7888    3.0241 C   0  0  0  0  0  0  0  0  0  0  0  0
    8.9698   -1.0301    2.0081 N   0  0  0  0  0  0  0  0  0  0  0  0
    6.5292   -0.1713    0.7087 C   0  0  0  0  0  0  0  0  0  0  0  0
    5.1354   -0.2821    0.7559 C   0  0  0  0  0  0  0  0  0  0  0  0
    4.2748    0.7212    1.8745 Cl  0  0  0  0  0  0  0  0  0  0  0  0
    0.7425   -0.7700   -0.6514 H   0  0  0  0  0  0  0  0  0  0  0  0
    0.8443   -4.4765   -1.2485 H   0  0  0  0  0  0  0  0  0  0  0  0
   -0.9407   -5.6720   -2.3984 H   0  0  0  0  0  0  0  0  0  0  0  0
   -1.4049   -0.7988   -1.6056 H   0  0  0  0  0  0  0  0  0  0  0  0
    2.5875   -0.5103    0.5229 H   0  0  0  0  0  0  0  0  0  0  0  0
    4.7448   -2.7058   -1.6077 H   0  0  0  0  0  0  0  0  0  0  0  0
    7.1678   -2.5541   -1.6309 H   0  0  0  0  0  0  0  0  0  0  0  0
   11.0145    0.1056   -0.4264 H   0  0  0  0  0  0  0  0  0  0  0  0
   13.0959    0.7446    0.6146 H   0  0  0  0  0  0  0  0  0  0  0  0
   15.1811    1.3031    1.1506 H   0  0  0  0  0  0  0  0  0  0  0  0
   17.1389    0.3543    2.3952 H   0  0  0  0  0  0  0  0  0  0  0  0
   16.0475   -0.1566    3.7578 H   0  0  0  0  0  0  0  0  0  0  0  0
   16.4550    2.7497    2.7543 H   0  0  0  0  0  0  0  0  0  0  0  0
   15.3672    2.2285    4.1164 H   0  0  0  0  0  0  0  0  0  0  0  0
    9.4487   -1.0337    4.0212 H   0  0  0  0  0  0  0  0  0  0  0  0
    7.0294    0.5540    1.3433 H   0  0  0  0  0  0  0  0  0  0  0  0
  1  2  2  0  0  0  0
  2  3  1  0  0  0  0
  2 15  1  0  0  0  0
  3  4  1  0  0  0  0
  3 36  1  0  0  0  0
  4  5  1  0  0  0  0
  4 14  2  0  0  0  0
  5  6  2  0  0  0  0
  5 37  1  0  0  0  0
  6  7  1  0  0  0  0
  6 38  1  0  0  0  0
  7  8  1  0  0  0  0
  7  9  2  0  0  0  0
  9 10  1  0  0  0  0
  9 14  1  0  0  0  0
 10 11  1  0  0  0  0
 10 12  1  0  0  0  0
 10 13  1  0  0  0  0
 14 39  1  0  0  0  0
 15 16  1  0  0  0  0
 15 40  1  0  0  0  0
 16 17  1  0  0  0  0
 16 34  2  0  0  0  0
 17 18  2  0  0  0  0
 17 41  1  0  0  0  0
 18 19  1  0  0  0  0
 18 42  1  0  0  0  0
 19 20  1  0  0  0  0
 19 33  2  0  0  0  0
 20 21  1  0  0  0  0
 21 22  1  0  0  0  0
 21 32  2  0  0  0  0
 22 23  2  0  0  0  0
 22 43  1  0  0  0  0
 23 24  1  0  0  0  0
 23 30  1  0  0  0  0
 24 25  1  0  0  0  0
 24 44  1  0  0  0  0
 25 26  2  0  0  0  0
 25 27  1  0  0  0  0
 27 28  1  0  0  0  0
 27 29  1  0  0  0  0
 27 45  1  0  0  0  0
 28 29  1  0  0  0  0
 28 46  1  0  0  0  0
 28 47  1  0  0  0  0
 29 48  1  0  0  0  0
 29 49  1  0  0  0  0
 30 31  2  0  0  0  0
 31 32  1  0  0  0  0
 31 50  1  0  0  0  0
 33 34  1  0  0  0  0
 33 51  1  0  0  0  0
 34 35  1  0  0  0  0
M  END
$$$$
