CHEMBL4590229
 OpenBabel04072215383D

 50 53  0  0  0  0  0  0  0  0999 V2000
    1.1978   -0.6602   -0.4313 O   0  0  0  0  0  0  0  0  0  0  0  0
    2.2942   -0.2702   -0.0482 C   0  0  0  0  0  0  0  0  0  0  0  0
    2.8663   -0.6489    1.1606 N   0  0  0  0  0  0  0  0  0  0  0  0
    2.2533   -1.4972    2.1199 C   0  0  0  0  0  0  0  0  0  0  0  0
    1.1394   -2.2982    1.8416 C   0  0  0  0  0  0  0  0  0  0  0  0
    0.5029   -3.0425    2.8471 C   0  0  0  0  0  0  0  0  0  0  0  0
    0.9773   -3.0324    4.1577 C   0  0  0  0  0  0  0  0  0  0  0  0
    0.3166   -3.7912    5.1441 N   0  0  0  0  0  0  0  0  0  0  0  0
    0.8339   -4.5820    6.1947 C   0  0  0  0  0  0  0  0  0  0  0  0
    2.1166   -5.1390    6.0671 C   0  0  0  0  0  0  0  0  0  0  0  0
    2.6345   -5.9503    7.0654 C   0  0  0  0  0  0  0  0  0  0  0  0
    1.8839   -6.1323    8.2277 C   0  0  0  0  0  0  0  0  0  0  0  0
    2.3449   -7.1158    9.1799 N   0  3  0  0  0  0  0  0  0  0  0  0
    3.4146   -6.8702    9.7627 O   0  0  0  0  0  0  0  0  0  0  0  0
    1.6952   -8.1623    9.2768 O   0  5  0  0  0  0  0  0  0  0  0  0
    0.6791   -5.4860    8.4861 C   0  0  0  0  0  0  0  0  0  0  0  0
    0.1185   -5.5569    9.7098 N   0  0  0  0  0  0  0  0  0  0  0  0
   -1.0508   -4.9448    9.8996 C   0  0  0  0  0  0  0  0  0  0  0  0
   -1.7693   -4.3528    8.9468 N   0  0  0  0  0  0  0  0  0  0  0  0
   -1.1681   -4.2991    7.7478 C   0  0  0  0  0  0  0  0  0  0  0  0
   -1.9970   -3.7913    6.7942 O   0  0  0  0  0  0  0  0  0  0  0  0
    0.1105   -4.7662    7.4292 C   0  0  0  0  0  0  0  0  0  0  0  0
    2.1381   -2.2967    4.4183 C   0  0  0  0  0  0  0  0  0  0  0  0
    2.7656   -1.5307    3.4190 C   0  0  0  0  0  0  0  0  0  0  0  0
    3.0931    0.6059   -0.7736 N   0  0  0  0  0  0  0  0  0  0  0  0
    2.6956    1.2523   -1.9761 C   0  0  0  0  0  0  0  0  0  0  0  0
    1.3591    1.3415   -2.3838 C   0  0  0  0  0  0  0  0  0  0  0  0
    1.0040    1.9553   -3.5853 C   0  0  0  0  0  0  0  0  0  0  0  0
    1.9812    2.5332   -4.3842 C   0  0  0  0  0  0  0  0  0  0  0  0
    3.3223    2.5157   -3.9769 C   0  0  0  0  0  0  0  0  0  0  0  0
    4.3700    3.2311   -4.7935 C   0  0  0  0  0  0  0  0  0  0  0  0
    3.8623    3.9033   -5.8651 F   0  0  0  0  0  0  0  0  0  0  0  0
    5.0429    4.1616   -4.0600 F   0  0  0  0  0  0  0  0  0  0  0  0
    5.3173    2.3917   -5.2927 F   0  0  0  0  0  0  0  0  0  0  0  0
    3.6736    1.8539   -2.7786 C   0  0  0  0  0  0  0  0  0  0  0  0
    3.6734   -0.1249    1.4682 H   0  0  0  0  0  0  0  0  0  0  0  0
    0.7299   -2.3749    0.8402 H   0  0  0  0  0  0  0  0  0  0  0  0
   -0.3639   -3.6422    2.5750 H   0  0  0  0  0  0  0  0  0  0  0  0
   -0.7022   -3.7283    5.1232 H   0  0  0  0  0  0  0  0  0  0  0  0
    2.6942   -4.9905    5.1578 H   0  0  0  0  0  0  0  0  0  0  0  0
    3.5978   -6.4359    6.9333 H   0  0  0  0  0  0  0  0  0  0  0  0
   -1.4389   -4.9315   10.9129 H   0  0  0  0  0  0  0  0  0  0  0  0
   -2.8230   -3.7271    7.3135 H   0  0  0  0  0  0  0  0  0  0  0  0
    2.5449   -2.2686    5.4313 H   0  0  0  0  0  0  0  0  0  0  0  0
    3.6358   -0.9390    3.6913 H   0  0  0  0  0  0  0  0  0  0  0  0
    4.0711    0.6459   -0.5330 H   0  0  0  0  0  0  0  0  0  0  0  0
    0.5488    0.9509   -1.7757 H   0  0  0  0  0  0  0  0  0  0  0  0
   -0.0419    1.9899   -3.8815 H   0  0  0  0  0  0  0  0  0  0  0  0
    1.6869    3.0170   -5.3144 H   0  0  0  0  0  0  0  0  0  0  0  0
    4.7222    1.8180   -2.4895 H   0  0  0  0  0  0  0  0  0  0  0  0
  1  2  2  0  0  0  0
  2  3  1  0  0  0  0
  2 25  1  0  0  0  0
  3  4  1  0  0  0  0
  3 36  1  0  0  0  0
  4  5  1  0  0  0  0
  4 24  2  0  0  0  0
  5  6  2  0  0  0  0
  5 37  1  0  0  0  0
  6  7  1  0  0  0  0
  6 38  1  0  0  0  0
  7  8  1  0  0  0  0
  7 23  2  0  0  0  0
  8  9  1  0  0  0  0
  8 39  1  0  0  0  0
  9 10  1  0  0  0  0
  9 22  2  0  0  0  0
 10 11  2  0  0  0  0
 10 40  1  0  0  0  0
 11 12  1  0  0  0  0
 11 41  1  0  0  0  0
 12 13  1  0  0  0  0
 12 16  2  0  0  0  0
 13 14  2  0  0  0  0
 13 15  1  0  0  0  0
 16 17  1  0  0  0  0
 16 22  1  0  0  0  0
 17 18  2  0  0  0  0
 18 19  1  0  0  0  0
 18 42  1  0  0  0  0
 19 20  2  0  0  0  0
 20 21  1  0  0  0  0
 20 22  1  0  0  0  0
 21 43  1  0  0  0  0
 23 24  1  0  0  0  0
 23 44  1  0  0  0  0
 24 45  1  0  0  0  0
 25 26  1  0  0  0  0
 25 46  1  0  0  0  0
 26 27  1  0  0  0  0
 26 35  2  0  0  0  0
 27 28  2  0  0  0  0
 27 47  1  0  0  0  0
 28 29  1  0  0  0  0
 28 48  1  0  0  0  0
 29 30  2  0  0  0  0
 29 49  1  0  0  0  0
 30 31  1  0  0  0  0
 30 35  1  0  0  0  0
 31 32  1  0  0  0  0
 31 33  1  0  0  0  0
 31 34  1  0  0  0  0
 35 50  1  0  0  0  0
M  CHG  2  13   1  15  -1
M  END
$$$$
