CHEMBL1088429
 OpenBabel04072215363D

 55 59  0  0  0  0  0  0  0  0999 V2000
    2.5775    0.0365    0.0597 C   0  0  0  0  0  0  0  0  0  0  0  0
    1.0709    0.0297    0.1746 C   0  0  0  0  0  0  0  0  0  0  0  0
    0.3976    1.2562    0.1444 C   0  0  0  0  0  0  0  0  0  0  0  0
   -0.9956    1.3047    0.1712 C   0  0  0  0  0  0  0  0  0  0  0  0
   -1.7384    0.1287    0.1377 C   0  0  0  0  0  0  0  0  0  0  0  0
   -3.1557    0.0938    0.1154 N   0  0  0  0  0  0  0  0  0  0  0  0
   -3.9877    1.1292    0.4893 C   0  0  0  0  0  0  0  0  0  0  0  0
   -3.6342    2.2187    0.9358 O   0  0  0  0  0  0  0  0  0  0  0  0
   -5.4518    0.8636    0.4108 C   0  0  0  0  0  0  0  0  0  0  0  0
   -6.0164    0.0753   -0.5970 C   0  0  0  0  0  0  0  0  0  0  0  0
   -7.4045   -0.0741   -0.6661 C   0  0  0  0  0  0  0  0  0  0  0  0
   -8.2305    0.5476    0.2739 C   0  0  0  0  0  0  0  0  0  0  0  0
   -7.6811    1.3232    1.3044 C   0  0  0  0  0  0  0  0  0  0  0  0
   -8.5560    1.9696    2.3516 C   0  0  0  0  0  0  0  0  0  0  0  0
   -9.8841    1.7161    2.1795 F   0  0  0  0  0  0  0  0  0  0  0  0
   -8.2581    1.5420    3.6097 F   0  0  0  0  0  0  0  0  0  0  0  0
   -8.4362    3.3249    2.3763 F   0  0  0  0  0  0  0  0  0  0  0  0
   -6.2866    1.4857    1.3539 C   0  0  0  0  0  0  0  0  0  0  0  0
   -1.0623   -1.0943    0.1405 C   0  0  0  0  0  0  0  0  0  0  0  0
    0.3247   -1.1678    0.2906 C   0  0  0  0  0  0  0  0  0  0  0  0
    1.0068   -2.3789    0.5082 N   0  0  0  0  0  0  0  0  0  0  0  0
    0.6421   -3.5320    1.1445 C   0  0  0  0  0  0  0  0  0  0  0  0
    1.6026   -4.2346    1.7209 N   0  0  0  0  0  0  0  0  0  0  0  0
    1.7315   -5.2946    0.8639 C   0  0  0  0  0  0  0  0  0  0  0  0
    2.8255   -6.1428    0.6632 C   0  0  0  0  0  0  0  0  0  0  0  0
    2.7571   -7.0670   -0.3826 C   0  0  0  0  0  0  0  0  0  0  0  0
    1.5993   -7.1960   -1.1562 C   0  0  0  0  0  0  0  0  0  0  0  0
    0.4688   -6.4051   -0.9213 C   0  0  0  0  0  0  0  0  0  0  0  0
    0.5891   -5.4291    0.0711 C   0  0  0  0  0  0  0  0  0  0  0  0
   -0.2515   -4.4566    0.5999 N   0  0  0  0  0  0  0  0  0  0  0  0
   -1.6678   -4.5315    0.7056 C   0  0  0  0  0  0  0  0  0  0  0  0
   -2.3253   -3.8237    1.6891 C   0  0  0  0  0  0  0  0  0  0  0  0
   -3.6931   -3.9861    1.7050 C   0  0  0  0  0  0  0  0  0  0  0  0
   -4.6658   -3.1434    2.8392 Cl  0  0  0  0  0  0  0  0  0  0  0  0
   -4.3905   -4.7587    0.8579 N   0  0  0  0  0  0  0  0  0  0  0  0
   -3.6536   -5.4310   -0.0270 C   0  0  0  0  0  0  0  0  0  0  0  0
   -2.3218   -5.3574   -0.1444 N   0  0  0  0  0  0  0  0  0  0  0  0
    2.9717    1.0536   -0.0419 H   0  0  0  0  0  0  0  0  0  0  0  0
    2.8869   -0.5176   -0.8348 H   0  0  0  0  0  0  0  0  0  0  0  0
    3.0461   -0.4065    0.9430 H   0  0  0  0  0  0  0  0  0  0  0  0
    0.9539    2.1913    0.1078 H   0  0  0  0  0  0  0  0  0  0  0  0
   -1.4712    2.2808    0.1710 H   0  0  0  0  0  0  0  0  0  0  0  0
   -3.5791   -0.8104   -0.0406 H   0  0  0  0  0  0  0  0  0  0  0  0
   -5.4007   -0.3941   -1.3585 H   0  0  0  0  0  0  0  0  0  0  0  0
   -7.8497   -0.6672   -1.4630 H   0  0  0  0  0  0  0  0  0  0  0  0
   -9.3111    0.4264    0.1968 H   0  0  0  0  0  0  0  0  0  0  0  0
   -5.8445    2.1061    2.1353 H   0  0  0  0  0  0  0  0  0  0  0  0
   -1.6377   -1.9978    0.0328 H   0  0  0  0  0  0  0  0  0  0  0  0
    1.9872   -2.2012    0.7143 H   0  0  0  0  0  0  0  0  0  0  0  0
    3.7232   -6.0241    1.2596 H   0  0  0  0  0  0  0  0  0  0  0  0
    3.6249   -7.6834   -0.6035 H   0  0  0  0  0  0  0  0  0  0  0  0
    1.5769   -7.9219   -1.9655 H   0  0  0  0  0  0  0  0  0  0  0  0
   -0.4300   -6.5107   -1.5192 H   0  0  0  0  0  0  0  0  0  0  0  0
   -1.8281   -3.1943    2.4149 H   0  0  0  0  0  0  0  0  0  0  0  0
   -4.1749   -6.0874   -0.7130 H   0  0  0  0  0  0  0  0  0  0  0  0
  1  2  1  0  0  0  0
  1 38  1  0  0  0  0
  1 39  1  0  0  0  0
  1 40  1  0  0  0  0
  2  3  1  0  0  0  0
  2 20  2  0  0  0  0
  3  4  2  0  0  0  0
  3 41  1  0  0  0  0
  4  5  1  0  0  0  0
  4 42  1  0  0  0  0
  5  6  1  0  0  0  0
  5 19  2  0  0  0  0
  6  7  1  0  0  0  0
  6 43  1  0  0  0  0
  7  8  2  0  0  0  0
  7  9  1  0  0  0  0
  9 10  1  0  0  0  0
  9 18  2  0  0  0  0
 10 11  2  0  0  0  0
 10 44  1  0  0  0  0
 11 12  1  0  0  0  0
 11 45  1  0  0  0  0
 12 13  2  0  0  0  0
 12 46  1  0  0  0  0
 13 14  1  0  0  0  0
 13 18  1  0  0  0  0
 14 15  1  0  0  0  0
 14 16  1  0  0  0  0
 14 17  1  0  0  0  0
 18 47  1  0  0  0  0
 19 20  1  0  0  0  0
 19 48  1  0  0  0  0
 20 21  1  0  0  0  0
 21 22  1  0  0  0  0
 21 49  1  0  0  0  0
 22 23  2  0  0  0  0
 22 30  1  0  0  0  0
 23 24  1  0  0  0  0
 24 25  1  0  0  0  0
 24 29  2  0  0  0  0
 25 26  2  0  0  0  0
 25 50  1  0  0  0  0
 26 27  1  0  0  0  0
 26 51  1  0  0  0  0
 27 28  2  0  0  0  0
 27 52  1  0  0  0  0
 28 29  1  0  0  0  0
 28 53  1  0  0  0  0
 29 30  1  0  0  0  0
 30 31  1  0  0  0  0
 31 32  1  0  0  0  0
 31 37  2  0  0  0  0
 32 33  2  0  0  0  0
 32 54  1  0  0  0  0
 33 34  1  0  0  0  0
 33 35  1  0  0  0  0
 35 36  2  0  0  0  0
 36 37  1  0  0  0  0
 36 55  1  0  0  0  0
M  END
$$$$
