CHEMBL410892
 OpenBabel04072215383D

 68 73  0  0  0  0  0  0  0  0999 V2000
   -2.3814    1.0635   -0.9153 C   0  0  0  0  0  0  0  0  0  0  0  0
   -1.1924    0.3868   -0.2899 C   0  0  0  0  0  0  0  0  0  0  0  0
   -1.2484   -1.0052   -0.1052 C   0  0  0  0  0  0  0  0  0  0  0  0
   -0.1745   -1.6982    0.4423 C   0  0  0  0  0  0  0  0  0  0  0  0
    0.9739   -1.0100    0.8174 C   0  0  0  0  0  0  0  0  0  0  0  0
    1.0578    0.3859    0.6794 C   0  0  0  0  0  0  0  0  0  0  0  0
    2.3031    1.0669    1.1798 C   0  0  0  0  0  0  0  0  0  0  0  0
   -0.0390    1.0934    0.1290 C   0  0  0  0  0  0  0  0  0  0  0  0
    0.0180    2.5065    0.0127 N   0  0  0  0  0  0  0  0  0  0  0  0
    0.5359    3.1254   -1.1112 C   0  0  0  0  0  0  0  0  0  0  0  0
    0.9520    2.5581   -2.1169 O   0  0  0  0  0  0  0  0  0  0  0  0
    0.5710    4.5940   -1.0933 C   0  0  0  0  0  0  0  0  0  0  0  0
    1.1276    5.2820   -2.1244 C   0  0  0  0  0  0  0  0  0  0  0  0
    1.1248    6.6176   -2.1546 N   0  0  0  0  0  0  0  0  0  0  0  0
    0.5756    7.3274   -1.1546 C   0  0  0  0  0  0  0  0  0  0  0  0
    0.6214    8.7294   -1.2114 N   0  0  0  0  0  0  0  0  0  0  0  0
    1.6162    9.4689   -1.8793 C   0  0  0  0  0  0  0  0  0  0  0  0
    2.2278    8.9567   -3.0194 C   0  0  0  0  0  0  0  0  0  0  0  0
    3.3729    9.5079   -3.5415 C   0  0  0  0  0  0  0  0  0  0  0  0
    3.9406   10.6446   -2.9920 C   0  0  0  0  0  0  0  0  0  0  0  0
    5.1335   11.1451   -3.4643 O   0  0  0  0  0  0  0  0  0  0  0  0
    5.6831   10.3383   -4.5349 C   0  0  0  0  0  0  0  0  0  0  0  0
    6.9990   10.8911   -5.0643 C   0  0  0  0  0  0  0  0  0  0  0  0
    7.5722   10.0839   -6.1655 N   0  0  0  0  0  0  0  0  0  0  0  0
    6.6907   10.0119   -7.3353 C   0  0  0  0  0  0  0  0  0  0  0  0
    8.8657   10.6425   -6.5629 C   0  0  0  0  0  0  0  0  0  0  0  0
    3.2786   11.2599   -1.9201 C   0  0  0  0  0  0  0  0  0  0  0  0
    2.1160   10.6725   -1.3692 C   0  0  0  0  0  0  0  0  0  0  0  0
    0.0236    6.7329   -0.0912 N   0  0  0  0  0  0  0  0  0  0  0  0
    0.0411    5.3682   -0.0846 C   0  0  0  0  0  0  0  0  0  0  0  0
   -0.5143    4.6549    0.9912 N   0  0  0  0  0  0  0  0  0  0  0  0
   -1.1416    5.1200    2.1294 C   0  0  0  0  0  0  0  0  0  0  0  0
   -1.4464    6.4015    2.6134 C   0  0  0  0  0  0  0  0  0  0  0  0
   -2.1363    6.4827    3.8274 C   0  0  0  0  0  0  0  0  0  0  0  0
   -2.5034    5.3345    4.5280 C   0  0  0  0  0  0  0  0  0  0  0  0
   -2.1853    4.0683    4.0416 C   0  0  0  0  0  0  0  0  0  0  0  0
   -1.4870    3.9530    2.8157 C   0  0  0  0  0  0  0  0  0  0  0  0
   -1.0926    2.8375    2.1557 N   0  0  0  0  0  0  0  0  0  0  0  0
   -0.5184    3.2682    1.0461 C   0  0  0  0  0  0  0  0  0  0  0  0
   -3.1291    0.3287   -1.2382 H   0  0  0  0  0  0  0  0  0  0  0  0
   -2.0829    1.6237   -1.8063 H   0  0  0  0  0  0  0  0  0  0  0  0
   -2.8716    1.7299   -0.2003 H   0  0  0  0  0  0  0  0  0  0  0  0
   -2.1412   -1.5617   -0.3822 H   0  0  0  0  0  0  0  0  0  0  0  0
   -0.2366   -2.7736    0.5877 H   0  0  0  0  0  0  0  0  0  0  0  0
    1.7986   -1.5706    1.2519 H   0  0  0  0  0  0  0  0  0  0  0  0
    2.9823    0.3463    1.6523 H   0  0  0  0  0  0  0  0  0  0  0  0
    2.0461    1.8048    1.9447 H   0  0  0  0  0  0  0  0  0  0  0  0
    2.8557    1.5472    0.3667 H   0  0  0  0  0  0  0  0  0  0  0  0
    1.5995    4.8027   -2.9756 H   0  0  0  0  0  0  0  0  0  0  0  0
    0.2133    9.1480   -0.3915 H   0  0  0  0  0  0  0  0  0  0  0  0
    1.8910    8.0574   -3.5172 H   0  0  0  0  0  0  0  0  0  0  0  0
    3.8123    8.9540   -4.3598 H   0  0  0  0  0  0  0  0  0  0  0  0
    4.9603   10.3289   -5.3608 H   0  0  0  0  0  0  0  0  0  0  0  0
    5.8686    9.3113   -4.1800 H   0  0  0  0  0  0  0  0  0  0  0  0
    7.6991   10.9014   -4.2201 H   0  0  0  0  0  0  0  0  0  0  0  0
    6.8478   11.9322   -5.3678 H   0  0  0  0  0  0  0  0  0  0  0  0
    5.7633    9.4765   -7.1075 H   0  0  0  0  0  0  0  0  0  0  0  0
    7.1626    9.4381   -8.1414 H   0  0  0  0  0  0  0  0  0  0  0  0
    6.4357   11.0052   -7.7207 H   0  0  0  0  0  0  0  0  0  0  0  0
    9.5589   10.6526   -5.7152 H   0  0  0  0  0  0  0  0  0  0  0  0
    8.7696   11.6644   -6.9470 H   0  0  0  0  0  0  0  0  0  0  0  0
    9.3288   10.0241   -7.3400 H   0  0  0  0  0  0  0  0  0  0  0  0
    3.6681   12.1690   -1.4656 H   0  0  0  0  0  0  0  0  0  0  0  0
    1.6415   11.1348   -0.5067 H   0  0  0  0  0  0  0  0  0  0  0  0
   -1.1730    7.3040    2.0750 H   0  0  0  0  0  0  0  0  0  0  0  0
   -2.3969    7.4611    4.2265 H   0  0  0  0  0  0  0  0  0  0  0  0
   -3.0484    5.4262    5.4654 H   0  0  0  0  0  0  0  0  0  0  0  0
   -2.4716    3.1702    4.5737 H   0  0  0  0  0  0  0  0  0  0  0  0
  1  2  1  0  0  0  0
  1 40  1  0  0  0  0
  1 41  1  0  0  0  0
  1 42  1  0  0  0  0
  2  3  1  0  0  0  0
  2  8  2  0  0  0  0
  3  4  2  0  0  0  0
  3 43  1  0  0  0  0
  4  5  1  0  0  0  0
  4 44  1  0  0  0  0
  5  6  2  0  0  0  0
  5 45  1  0  0  0  0
  6  7  1  0  0  0  0
  6  8  1  0  0  0  0
  7 46  1  0  0  0  0
  7 47  1  0  0  0  0
  7 48  1  0  0  0  0
  8  9  1  0  0  0  0
  9 10  1  0  0  0  0
  9 39  1  0  0  0  0
 10 11  2  0  0  0  0
 10 12  1  0  0  0  0
 12 13  1  0  0  0  0
 12 30  2  0  0  0  0
 13 14  2  0  0  0  0
 13 49  1  0  0  0  0
 14 15  1  0  0  0  0
 15 16  1  0  0  0  0
 15 29  2  0  0  0  0
 16 17  1  0  0  0  0
 16 50  1  0  0  0  0
 17 18  1  0  0  0  0
 17 28  2  0  0  0  0
 18 19  2  0  0  0  0
 18 51  1  0  0  0  0
 19 20  1  0  0  0  0
 19 52  1  0  0  0  0
 20 21  1  0  0  0  0
 20 27  2  0  0  0  0
 21 22  1  0  0  0  0
 22 23  1  0  0  0  0
 22 53  1  0  0  0  0
 22 54  1  0  0  0  0
 23 24  1  0  0  0  0
 23 55  1  0  0  0  0
 23 56  1  0  0  0  0
 24 25  1  0  0  0  0
 24 26  1  0  0  0  0
 25 57  1  0  0  0  0
 25 58  1  0  0  0  0
 25 59  1  0  0  0  0
 26 60  1  0  0  0  0
 26 61  1  0  0  0  0
 26 62  1  0  0  0  0
 27 28  1  0  0  0  0
 27 63  1  0  0  0  0
 28 64  1  0  0  0  0
 29 30  1  0  0  0  0
 30 31  1  0  0  0  0
 31 32  1  0  0  0  0
 31 39  1  0  0  0  0
 32 33  1  0  0  0  0
 32 37  2  0  0  0  0
 33 34  2  0  0  0  0
 33 65  1  0  0  0  0
 34 35  1  0  0  0  0
 34 66  1  0  0  0  0
 35 36  2  0  0  0  0
 35 67  1  0  0  0  0
 36 37  1  0  0  0  0
 36 68  1  0  0  0  0
 37 38  1  0  0  0  0
 38 39  2  0  0  0  0
M  END
$$$$
