CHEMBL2005449
 OpenBabel04072215363D

 37 39  0  0  0  0  0  0  0  0999 V2000
    6.3248   -0.2629   -2.3713 C   0  0  0  0  0  0  0  0  0  0  0  0
    5.1640   -0.0022   -1.4955 C   0  0  0  0  0  0  0  0  0  0  0  0
    4.3154    1.0762   -1.4022 C   0  0  0  0  0  0  0  0  0  0  0  0
    3.4513    0.7966   -0.3168 C   0  0  0  0  0  0  0  0  0  0  0  0
    2.5292    1.6247    0.2095 N   0  0  0  0  0  0  0  0  0  0  0  0
    2.3948    3.0061    0.0825 C   0  0  0  0  0  0  0  0  0  0  0  0
    2.9607    3.6486   -0.9439 N   0  0  0  0  0  0  0  0  0  0  0  0
    2.8155    4.9752   -0.9694 C   0  0  0  0  0  0  0  0  0  0  0  0
    3.6332    5.7482   -2.2650 Cl  0  0  0  0  0  0  0  0  0  0  0  0
    2.1276    5.6985   -0.0427 C   0  0  0  0  0  0  0  0  0  0  0  0
    1.5951    4.9723    0.9945 C   0  0  0  0  0  0  0  0  0  0  0  0
    0.9791    5.6925    2.0174 N   0  0  0  0  0  0  0  0  0  0  0  0
    0.7516    5.0141    3.2821 C   0  0  0  0  0  0  0  0  0  0  0  0
    0.5541    6.0662    4.3552 C   0  0  0  0  0  0  0  0  0  0  0  0
   -0.5709    6.0537    5.1897 C   0  0  0  0  0  0  0  0  0  0  0  0
   -0.7180    7.0155    6.1937 C   0  0  0  0  0  0  0  0  0  0  0  0
    0.2554    7.9971    6.3758 C   0  0  0  0  0  0  0  0  0  0  0  0
    1.3784    8.0215    5.5537 C   0  0  0  0  0  0  0  0  0  0  0  0
    1.5281    7.0612    4.5530 C   0  0  0  0  0  0  0  0  0  0  0  0
    1.7124    3.6344    1.0561 N   0  0  0  0  0  0  0  0  0  0  0  0
    3.6933   -0.4211    0.1795 N   0  0  0  0  0  0  0  0  0  0  0  0
    4.7378   -0.8726   -0.5346 N   0  0  0  0  0  0  0  0  0  0  0  0
    6.4890    0.5745   -3.0580 H   0  0  0  0  0  0  0  0  0  0  0  0
    6.1691   -1.1658   -2.9686 H   0  0  0  0  0  0  0  0  0  0  0  0
    7.2347   -0.3890   -1.7757 H   0  0  0  0  0  0  0  0  0  0  0  0
    4.3559    1.9657   -2.0140 H   0  0  0  0  0  0  0  0  0  0  0  0
    2.0544    1.3124    1.0434 H   0  0  0  0  0  0  0  0  0  0  0  0
    2.0661    6.7751   -0.0820 H   0  0  0  0  0  0  0  0  0  0  0  0
    0.1630    6.1985    1.6873 H   0  0  0  0  0  0  0  0  0  0  0  0
    1.6157    4.4054    3.5771 H   0  0  0  0  0  0  0  0  0  0  0  0
   -0.1229    4.3571    3.2100 H   0  0  0  0  0  0  0  0  0  0  0  0
   -1.3400    5.2948    5.0690 H   0  0  0  0  0  0  0  0  0  0  0  0
   -1.5922    6.9976    6.8395 H   0  0  0  0  0  0  0  0  0  0  0  0
    0.1411    8.7409    7.1600 H   0  0  0  0  0  0  0  0  0  0  0  0
    2.1401    8.7841    5.6925 H   0  0  0  0  0  0  0  0  0  0  0  0
    2.4107    7.0888    3.9161 H   0  0  0  0  0  0  0  0  0  0  0  0
    5.1232   -1.7806   -0.2979 H   0  0  0  0  0  0  0  0  0  0  0  0
  1  2  1  0  0  0  0
  1 23  1  0  0  0  0
  1 24  1  0  0  0  0
  1 25  1  0  0  0  0
  2  3  2  0  0  0  0
  2 22  1  0  0  0  0
  3  4  1  0  0  0  0
  3 26  1  0  0  0  0
  4  5  1  0  0  0  0
  4 21  2  0  0  0  0
  5  6  1  0  0  0  0
  5 27  1  0  0  0  0
  6  7  1  0  0  0  0
  6 20  2  0  0  0  0
  7  8  2  0  0  0  0
  8  9  1  0  0  0  0
  8 10  1  0  0  0  0
 10 11  2  0  0  0  0
 10 28  1  0  0  0  0
 11 12  1  0  0  0  0
 11 20  1  0  0  0  0
 12 13  1  0  0  0  0
 12 29  1  0  0  0  0
 13 14  1  0  0  0  0
 13 30  1  0  0  0  0
 13 31  1  0  0  0  0
 14 15  1  0  0  0  0
 14 19  2  0  0  0  0
 15 16  2  0  0  0  0
 15 32  1  0  0  0  0
 16 17  1  0  0  0  0
 16 33  1  0  0  0  0
 17 18  2  0  0  0  0
 17 34  1  0  0  0  0
 18 19  1  0  0  0  0
 18 35  1  0  0  0  0
 19 36  1  0  0  0  0
 21 22  1  0  0  0  0
 22 37  1  0  0  0  0
M  END
$$$$
