CHEMBL1682348
 OpenBabel04072215363D

 34 37  0  0  0  0  0  0  0  0999 V2000
   -1.0422    1.0731    0.5242 Cl  0  0  0  0  0  0  0  0  0  0  0  0
    0.2195    0.3871   -0.4232 C   0  0  0  0  0  0  0  0  0  0  0  0
    0.4566    0.8655   -1.7091 C   0  0  0  0  0  0  0  0  0  0  0  0
    1.4765    0.3061   -2.4755 C   0  0  0  0  0  0  0  0  0  0  0  0
    2.2549   -0.7286   -1.9552 C   0  0  0  0  0  0  0  0  0  0  0  0
    2.0331   -1.2096   -0.6530 C   0  0  0  0  0  0  0  0  0  0  0  0
    2.8869   -2.3184   -0.0858 C   0  0  0  0  0  0  0  0  0  0  0  0
    4.2792   -1.9203    0.0210 N   0  0  0  0  0  0  0  0  0  0  0  0
    4.8969   -1.3158    1.0757 C   0  0  0  0  0  0  0  0  0  0  0  0
    6.1888   -1.1212    0.6276 C   0  0  0  0  0  0  0  0  0  0  0  0
    7.2653   -0.4765    1.3527 C   0  0  0  0  0  0  0  0  0  0  0  0
    7.3352   -0.5469    2.7516 C   0  0  0  0  0  0  0  0  0  0  0  0
    8.3763    0.0527    3.4702 C   0  0  0  0  0  0  0  0  0  0  0  0
    9.3167    0.7761    2.7346 C   0  0  0  0  0  0  0  0  0  0  0  0
   10.4053    1.5105    3.1221 N   0  0  0  0  0  0  0  0  0  0  0  0
   11.0688    2.0900    2.1053 N   0  0  0  0  0  0  0  0  0  0  0  0
   10.3814    1.7002    1.0276 C   0  0  0  0  0  0  0  0  0  0  0  0
    9.2766    0.8805    1.3503 C   0  0  0  0  0  0  0  0  0  0  0  0
    8.2578    0.2224    0.6381 C   0  0  0  0  0  0  0  0  0  0  0  0
    6.3052   -1.6222   -0.6418 N   0  0  0  0  0  0  0  0  0  0  0  0
    5.1361   -2.1412   -0.9929 N   0  0  0  0  0  0  0  0  0  0  0  0
    0.9992   -0.6434    0.1074 C   0  0  0  0  0  0  0  0  0  0  0  0
   -0.1469    1.6726   -2.1192 H   0  0  0  0  0  0  0  0  0  0  0  0
    1.6715    0.6787   -3.4785 H   0  0  0  0  0  0  0  0  0  0  0  0
    3.0493   -1.1487   -2.5711 H   0  0  0  0  0  0  0  0  0  0  0  0
    2.8284   -3.2130   -0.7159 H   0  0  0  0  0  0  0  0  0  0  0  0
    2.5544   -2.6003    0.9206 H   0  0  0  0  0  0  0  0  0  0  0  0
    4.3849   -1.0597    1.9888 H   0  0  0  0  0  0  0  0  0  0  0  0
    6.5788   -1.0937    3.3098 H   0  0  0  0  0  0  0  0  0  0  0  0
    8.4353   -0.0356    4.5493 H   0  0  0  0  0  0  0  0  0  0  0  0
   10.7384    1.6709    4.0647 H   0  0  0  0  0  0  0  0  0  0  0  0
   10.7049    2.0357    0.0511 H   0  0  0  0  0  0  0  0  0  0  0  0
    8.2225    0.2783   -0.4461 H   0  0  0  0  0  0  0  0  0  0  0  0
    0.7973   -0.9974    1.1158 H   0  0  0  0  0  0  0  0  0  0  0  0
  1  2  1  0  0  0  0
  2  3  1  0  0  0  0
  2 22  2  0  0  0  0
  3  4  2  0  0  0  0
  3 23  1  0  0  0  0
  4  5  1  0  0  0  0
  4 24  1  0  0  0  0
  5  6  2  0  0  0  0
  5 25  1  0  0  0  0
  6  7  1  0  0  0  0
  6 22  1  0  0  0  0
  7  8  1  0  0  0  0
  7 26  1  0  0  0  0
  7 27  1  0  0  0  0
  8  9  1  0  0  0  0
  8 21  1  0  0  0  0
  9 10  2  0  0  0  0
  9 28  1  0  0  0  0
 10 11  1  0  0  0  0
 10 20  1  0  0  0  0
 11 12  1  0  0  0  0
 11 19  2  0  0  0  0
 12 13  2  0  0  0  0
 12 29  1  0  0  0  0
 13 14  1  0  0  0  0
 13 30  1  0  0  0  0
 14 15  1  0  0  0  0
 14 18  2  0  0  0  0
 15 16  1  0  0  0  0
 15 31  1  0  0  0  0
 16 17  2  0  0  0  0
 17 18  1  0  0  0  0
 17 32  1  0  0  0  0
 18 19  1  0  0  0  0
 19 33  1  0  0  0  0
 20 21  2  0  0  0  0
 22 34  1  0  0  0  0
M  END
$$$$
