CHEMBL231454
 OpenBabel04072215363D

 45 48  0  0  0  0  0  0  0  0999 V2000
    2.3583   -0.4773    1.6021 C   0  0  0  0  0  0  0  0  0  0  0  0
    0.8617   -0.3600    1.5855 C   0  0  0  0  0  0  0  0  0  0  0  0
    0.2535    0.8125    2.0435 C   0  0  0  0  0  0  0  0  0  0  0  0
   -1.1275    0.9298    2.0366 C   0  0  0  0  0  0  0  0  0  0  0  0
   -1.9197   -0.1233    1.5756 C   0  0  0  0  0  0  0  0  0  0  0  0
   -1.3430   -1.3070    1.0979 C   0  0  0  0  0  0  0  0  0  0  0  0
   -2.1081   -2.4033    0.6097 N   0  0  0  0  0  0  0  0  0  0  0  0
   -3.4816   -2.4043    0.4122 C   0  0  0  0  0  0  0  0  0  0  0  0
   -4.2126   -1.4340    0.5853 O   0  0  0  0  0  0  0  0  0  0  0  0
   -3.9634   -3.6514    0.0226 N   0  0  0  0  0  0  0  0  0  0  0  0
   -5.3533   -3.8136   -0.2334 C   0  0  0  0  0  0  0  0  0  0  0  0
   -6.0656   -2.8515   -0.9564 C   0  0  0  0  0  0  0  0  0  0  0  0
   -7.4522   -2.9113   -1.0307 C   0  0  0  0  0  0  0  0  0  0  0  0
   -8.1337   -3.9168   -0.3487 C   0  0  0  0  0  0  0  0  0  0  0  0
   -7.4373   -4.9244    0.3458 C   0  0  0  0  0  0  0  0  0  0  0  0
   -8.1870   -5.9476    1.0971 C   0  0  0  0  0  0  0  0  0  0  0  0
   -9.3577   -6.4453    0.5511 C   0  0  0  0  0  0  0  0  0  0  0  0
  -10.1345   -7.5867    1.5318 S   0  0  0  0  0  0  0  0  0  0  0  0
   -8.9130   -7.4836    2.7340 C   0  0  0  0  0  0  0  0  0  0  0  0
   -8.8930   -8.2257    3.9209 C   0  0  0  0  0  0  0  0  0  0  0  0
   -7.8296   -7.9958    4.7578 C   0  0  0  0  0  0  0  0  0  0  0  0
   -6.8583   -7.1058    4.5081 N   0  0  0  0  0  0  0  0  0  0  0  0
   -6.8795   -6.3708    3.3729 C   0  0  0  0  0  0  0  0  0  0  0  0
   -5.8405   -5.4489    3.2850 N   0  0  0  0  0  0  0  0  0  0  0  0
   -7.9135   -6.5523    2.4090 C   0  0  0  0  0  0  0  0  0  0  0  0
   -6.0336   -4.9018    0.3258 C   0  0  0  0  0  0  0  0  0  0  0  0
    0.0549   -1.4165    1.1131 C   0  0  0  0  0  0  0  0  0  0  0  0
    2.8247    0.4214    2.0229 H   0  0  0  0  0  0  0  0  0  0  0  0
    2.7396   -0.6024    0.5848 H   0  0  0  0  0  0  0  0  0  0  0  0
    2.6676   -1.3270    2.2178 H   0  0  0  0  0  0  0  0  0  0  0  0
    0.8524    1.6438    2.4107 H   0  0  0  0  0  0  0  0  0  0  0  0
   -1.6057    1.8384    2.3932 H   0  0  0  0  0  0  0  0  0  0  0  0
   -2.9903    0.0266    1.6069 H   0  0  0  0  0  0  0  0  0  0  0  0
   -1.5991   -3.1950    0.2510 H   0  0  0  0  0  0  0  0  0  0  0  0
   -3.5010   -4.4334    0.4665 H   0  0  0  0  0  0  0  0  0  0  0  0
   -5.5491   -2.0239   -1.4376 H   0  0  0  0  0  0  0  0  0  0  0  0
   -8.0003   -2.1469   -1.5757 H   0  0  0  0  0  0  0  0  0  0  0  0
   -9.2210   -3.8875   -0.3576 H   0  0  0  0  0  0  0  0  0  0  0  0
   -9.8129   -6.1889   -0.3961 H   0  0  0  0  0  0  0  0  0  0  0  0
   -9.6693   -8.9407    4.1662 H   0  0  0  0  0  0  0  0  0  0  0  0
   -7.7311   -8.5384    5.6952 H   0  0  0  0  0  0  0  0  0  0  0  0
   -5.3991   -5.3904    4.1979 H   0  0  0  0  0  0  0  0  0  0  0  0
   -6.1432   -4.5557    2.9141 H   0  0  0  0  0  0  0  0  0  0  0  0
   -5.4730   -5.6851    0.8278 H   0  0  0  0  0  0  0  0  0  0  0  0
    0.5399   -2.3214    0.7544 H   0  0  0  0  0  0  0  0  0  0  0  0
  1  2  1  0  0  0  0
  1 28  1  0  0  0  0
  1 29  1  0  0  0  0
  1 30  1  0  0  0  0
  2  3  1  0  0  0  0
  2 27  2  0  0  0  0
  3  4  2  0  0  0  0
  3 31  1  0  0  0  0
  4  5  1  0  0  0  0
  4 32  1  0  0  0  0
  5  6  2  0  0  0  0
  5 33  1  0  0  0  0
  6  7  1  0  0  0  0
  6 27  1  0  0  0  0
  7  8  1  0  0  0  0
  7 34  1  0  0  0  0
  8  9  2  0  0  0  0
  8 10  1  0  0  0  0
 10 11  1  0  0  0  0
 10 35  1  0  0  0  0
 11 12  1  0  0  0  0
 11 26  2  0  0  0  0
 12 13  2  0  0  0  0
 12 36  1  0  0  0  0
 13 14  1  0  0  0  0
 13 37  1  0  0  0  0
 14 15  2  0  0  0  0
 14 38  1  0  0  0  0
 15 16  1  0  0  0  0
 15 26  1  0  0  0  0
 16 17  2  0  0  0  0
 16 25  1  0  0  0  0
 17 18  1  0  0  0  0
 17 39  1  0  0  0  0
 18 19  1  0  0  0  0
 19 20  1  0  0  0  0
 19 25  2  0  0  0  0
 20 21  2  0  0  0  0
 20 40  1  0  0  0  0
 21 22  1  0  0  0  0
 21 41  1  0  0  0  0
 22 23  2  0  0  0  0
 23 24  1  0  0  0  0
 23 25  1  0  0  0  0
 24 42  1  0  0  0  0
 24 43  1  0  0  0  0
 26 44  1  0  0  0  0
 27 45  1  0  0  0  0
M  END
$$$$
