CHEMBL3977503
 OpenBabel04072215373D

 52 55  0  0  1  0  0  0  0  0999 V2000
    2.7607   -0.5168   -0.9318 C   0  0  0  0  0  0  0  0  0  0  0  0
    2.4549   -0.0417    0.3791 O   0  0  0  0  0  0  0  0  0  0  0  0
    3.2129    0.9866    0.8744 C   0  0  0  0  0  0  0  0  0  0  0  0
    4.3757    1.4584    0.2593 C   0  0  0  0  0  0  0  0  0  0  0  0
    5.0593    2.5992    0.7524 C   0  0  0  0  0  0  0  0  0  0  0  0
    6.1580    3.2102    0.1308 C   0  0  0  0  0  0  0  0  0  0  0  0
    6.5648    2.7488   -1.1415 N   0  0  0  0  0  0  0  0  0  0  0  0
    7.8737    2.7425   -1.6698 C   0  0  0  0  0  0  0  0  0  0  0  0
    8.9682    2.5847   -0.8100 C   0  0  0  0  0  0  0  0  0  0  0  0
   10.2474    2.3782   -1.3150 C   0  0  0  0  0  0  0  0  0  0  0  0
   10.4567    2.3232   -2.6929 C   0  0  0  0  0  0  0  0  0  0  0  0
   12.2238    1.9178   -3.2684 Br  0  0  0  0  0  0  0  0  0  0  0  0
    9.3889    2.5229   -3.5798 C   0  0  0  0  0  0  0  0  0  0  0  0
    9.6512    2.4863   -5.2967 Cl  0  0  0  0  0  0  0  0  0  0  0  0
    8.0973    2.7302   -3.0622 C   0  0  0  0  0  0  0  0  0  0  0  0
    6.7288    2.9770   -4.1131 Cl  0  0  0  0  0  0  0  0  0  0  0  0
    6.8064    4.2585    0.6731 N   0  0  0  0  0  0  0  0  0  0  0  0
    6.3355    4.7120    1.8373 C   0  0  0  0  0  0  0  0  0  0  0  0
    5.2945    4.2161    2.5096 N   0  0  0  0  0  0  0  0  0  0  0  0
    4.6684    3.1730    1.9562 C   0  0  0  0  0  0  0  0  0  0  0  0
    3.5692    2.6463    2.6034 C   0  0  0  0  0  0  0  0  0  0  0  0
    2.7849    1.6133    2.0554 C   0  0  0  0  0  0  0  0  0  0  0  0
    1.5931    1.2135    2.6361 O   0  0  0  0  0  0  0  0  0  0  0  0
    1.0085    2.2442    3.4569 C   0  0  0  0  0  0  0  0  0  0  0  0
   -0.4943    2.0899    3.7209 C   0  0  3  0  0  0  0  0  0  0  0  0
   -1.3300    1.9426    2.4393 C   0  0  0  0  0  0  0  0  0  0  0  0
   -1.2915    3.1764    1.6279 N   0  0  0  0  0  0  0  0  0  0  0  0
   -2.0873    3.0119    0.4154 C   0  0  0  0  0  0  0  0  0  0  0  0
   -1.7851    4.3034    2.4422 C   0  0  0  0  0  0  0  0  0  0  0  0
   -1.0130    4.4362    3.7651 C   0  0  0  0  0  0  0  0  0  0  0  0
   -0.9873    3.2042    4.5101 O   0  0  0  0  0  0  0  0  0  0  0  0
    3.5261   -1.2988   -0.8821 H   0  0  0  0  0  0  0  0  0  0  0  0
    3.0686    0.2764   -1.6223 H   0  0  0  0  0  0  0  0  0  0  0  0
    1.8518   -0.9543   -1.3550 H   0  0  0  0  0  0  0  0  0  0  0  0
    4.7840    0.9620   -0.6148 H   0  0  0  0  0  0  0  0  0  0  0  0
    5.8479    2.9460   -1.8374 H   0  0  0  0  0  0  0  0  0  0  0  0
    8.8269    2.5870    0.2675 H   0  0  0  0  0  0  0  0  0  0  0  0
   11.0715    2.2318   -0.6179 H   0  0  0  0  0  0  0  0  0  0  0  0
    6.8367    5.5685    2.2742 H   0  0  0  0  0  0  0  0  0  0  0  0
    3.3144    3.1069    3.5525 H   0  0  0  0  0  0  0  0  0  0  0  0
    1.1685    3.2172    2.9816 H   0  0  0  0  0  0  0  0  0  0  0  0
    1.5151    2.2519    4.4307 H   0  0  0  0  0  0  0  0  0  0  0  0
   -0.6467    1.1898    4.3286 H   0  0  0  0  0  0  0  0  0  0  0  0
   -2.3687    1.7240    2.7247 H   0  0  0  0  0  0  0  0  0  0  0  0
   -0.9611    1.0905    1.8578 H   0  0  0  0  0  0  0  0  0  0  0  0
   -1.6962    2.1845   -0.1874 H   0  0  0  0  0  0  0  0  0  0  0  0
   -2.0279    3.9113   -0.2061 H   0  0  0  0  0  0  0  0  0  0  0  0
   -3.1417    2.8095    0.6344 H   0  0  0  0  0  0  0  0  0  0  0  0
   -2.8487    4.1626    2.6722 H   0  0  0  0  0  0  0  0  0  0  0  0
   -1.6849    5.2400    1.8806 H   0  0  0  0  0  0  0  0  0  0  0  0
   -1.4985    5.1902    4.3971 H   0  0  0  0  0  0  0  0  0  0  0  0
    0.0112    4.7955    3.6011 H   0  0  0  0  0  0  0  0  0  0  0  0
  1  2  1  0  0  0  0
  1 32  1  0  0  0  0
  1 33  1  0  0  0  0
  1 34  1  0  0  0  0
  2  3  1  0  0  0  0
  3  4  1  0  0  0  0
  3 22  2  0  0  0  0
  4  5  2  0  0  0  0
  4 35  1  0  0  0  0
  5  6  1  0  0  0  0
  5 20  1  0  0  0  0
  6  7  1  0  0  0  0
  6 17  2  0  0  0  0
  7  8  1  0  0  0  0
  7 36  1  0  0  0  0
  8  9  1  0  0  0  0
  8 15  2  0  0  0  0
  9 10  2  0  0  0  0
  9 37  1  0  0  0  0
 10 11  1  0  0  0  0
 10 38  1  0  0  0  0
 11 12  1  0  0  0  0
 11 13  2  0  0  0  0
 13 14  1  0  0  0  0
 13 15  1  0  0  0  0
 15 16  1  0  0  0  0
 17 18  1  0  0  0  0
 18 19  2  0  0  0  0
 18 39  1  0  0  0  0
 19 20  1  0  0  0  0
 20 21  2  0  0  0  0
 21 22  1  0  0  0  0
 21 40  1  0  0  0  0
 22 23  1  0  0  0  0
 23 24  1  0  0  0  0
 24 25  1  0  0  0  0
 24 41  1  0  0  0  0
 24 42  1  0  0  0  0
 25 26  1  0  0  0  0
 25 31  1  0  0  0  0
 25 43  1  0  0  0  0
 26 27  1  0  0  0  0
 26 44  1  0  0  0  0
 26 45  1  0  0  0  0
 27 28  1  0  0  0  0
 27 29  1  0  0  0  0
 28 46  1  0  0  0  0
 28 47  1  0  0  0  0
 28 48  1  0  0  0  0
 29 30  1  0  0  0  0
 29 49  1  0  0  0  0
 29 50  1  0  0  0  0
 30 31  1  0  0  0  0
 30 51  1  0  0  0  0
 30 52  1  0  0  0  0
M  END
$$$$
