CHEMBL387971
 OpenBabel04072215373D

 62 66  0  0  0  0  0  0  0  0999 V2000
   17.4633   -1.4239   -3.4723 C   0  0  0  0  0  0  0  0  0  0  0  0
   16.0985   -1.8214   -3.4988 O   0  0  0  0  0  0  0  0  0  0  0  0
   15.2865   -0.8926   -4.2197 C   0  0  0  0  0  0  0  0  0  0  0  0
   13.8400   -1.3796   -4.1958 C   0  0  0  0  0  0  0  0  0  0  0  0
   13.0021   -0.4781   -4.9217 O   0  0  0  0  0  0  0  0  0  0  0  0
   11.6375   -0.9076   -4.9037 C   0  0  0  0  0  0  0  0  0  0  0  0
   10.7795    0.1120   -5.5232 C   0  0  0  0  0  0  0  0  0  0  0  0
   10.0790    0.9857   -5.9686 C   0  0  0  0  0  0  0  0  0  0  0  0
    9.2662    2.0816   -6.4178 C   0  0  0  0  0  0  0  0  0  0  0  0
    9.3652    2.7065   -7.6431 C   0  0  0  0  0  0  0  0  0  0  0  0
    8.4918    3.8589   -7.7882 C   0  0  0  0  0  0  0  0  0  0  0  0
    8.4956    4.6523   -9.0753 C   0  0  0  0  0  0  0  0  0  0  0  0
    9.5822    4.5249   -9.8594 N   0  0  0  0  0  0  0  0  0  0  0  0
    9.0538    4.0008  -10.9848 N   0  0  0  0  0  0  0  0  0  0  0  0
    7.6881    3.8809  -10.9000 C   0  0  0  0  0  0  0  0  0  0  0  0
    7.3615    4.8562   -9.9350 C   0  0  0  0  0  0  0  0  0  0  0  0
    5.9298    4.7334   -9.7171 C   0  0  0  0  0  0  0  0  0  0  0  0
    5.1066    5.6175   -9.5755 O   0  0  0  0  0  0  0  0  0  0  0  0
    5.6799    3.2861   -9.8884 C   0  0  0  0  0  0  0  0  0  0  0  0
    5.0129    2.6541   -8.8595 C   0  0  0  0  0  0  0  0  0  0  0  0
    5.5833    1.4804   -8.3876 C   0  0  0  0  0  0  0  0  0  0  0  0
    5.2567    1.0759   -6.9531 C   0  0  0  0  0  0  0  0  0  0  0  0
    3.9413    0.4777   -6.7960 N   0  0  0  0  0  0  0  0  0  0  0  0
    3.9067   -0.8545   -7.4167 C   0  0  0  0  0  0  0  0  0  0  0  0
    2.5272   -1.5051   -7.2296 C   0  0  0  0  0  0  0  0  0  0  0  0
    2.1167   -1.6564   -5.8200 N   0  0  0  0  0  0  0  0  0  0  0  0
    2.9056   -2.6831   -5.1429 C   0  0  0  0  0  0  0  0  0  0  0  0
    2.2380   -0.3472   -5.1431 C   0  0  0  0  0  0  0  0  0  0  0  0
    3.5843    0.3823   -5.3647 C   0  0  0  0  0  0  0  0  0  0  0  0
    6.5797    0.8173   -9.1398 C   0  0  0  0  0  0  0  0  0  0  0  0
    7.1919    1.4341  -10.2585 C   0  0  0  0  0  0  0  0  0  0  0  0
    6.7943    2.7318  -10.5741 C   0  0  0  0  0  0  0  0  0  0  0  0
    7.6889    3.9925   -6.6779 C   0  0  0  0  0  0  0  0  0  0  0  0
    8.0752    2.8393   -5.4529 S   0  0  0  0  0  0  0  0  0  0  0  0
   18.0316   -2.1845   -2.9288 H   0  0  0  0  0  0  0  0  0  0  0  0
   17.5754   -0.4683   -2.9512 H   0  0  0  0  0  0  0  0  0  0  0  0
   17.8636   -1.3506   -4.4880 H   0  0  0  0  0  0  0  0  0  0  0  0
   15.6379   -0.8114   -5.2551 H   0  0  0  0  0  0  0  0  0  0  0  0
   15.3543    0.1017   -3.7624 H   0  0  0  0  0  0  0  0  0  0  0  0
   13.4992   -1.4534   -3.1556 H   0  0  0  0  0  0  0  0  0  0  0  0
   13.7825   -2.3844   -4.6336 H   0  0  0  0  0  0  0  0  0  0  0  0
   11.3159   -1.0567   -3.8665 H   0  0  0  0  0  0  0  0  0  0  0  0
   11.5493   -1.8670   -5.4268 H   0  0  0  0  0  0  0  0  0  0  0  0
   10.0467    2.3724   -8.4181 H   0  0  0  0  0  0  0  0  0  0  0  0
    9.6266    4.0189  -11.8179 H   0  0  0  0  0  0  0  0  0  0  0  0
    4.2775    3.1935   -8.2686 H   0  0  0  0  0  0  0  0  0  0  0  0
    5.2875    2.0056   -6.3694 H   0  0  0  0  0  0  0  0  0  0  0  0
    6.0578    0.4469   -6.5438 H   0  0  0  0  0  0  0  0  0  0  0  0
    4.6945   -1.4948   -7.0009 H   0  0  0  0  0  0  0  0  0  0  0  0
    4.0945   -0.7735   -8.4928 H   0  0  0  0  0  0  0  0  0  0  0  0
    2.5122   -2.4751   -7.7390 H   0  0  0  0  0  0  0  0  0  0  0  0
    1.7788   -0.8871   -7.7442 H   0  0  0  0  0  0  0  0  0  0  0  0
    2.8613   -3.6274   -5.6966 H   0  0  0  0  0  0  0  0  0  0  0  0
    2.4886   -2.8810   -4.1501 H   0  0  0  0  0  0  0  0  0  0  0  0
    3.9601   -2.4156   -5.0191 H   0  0  0  0  0  0  0  0  0  0  0  0
    2.0525   -0.4593   -4.0670 H   0  0  0  0  0  0  0  0  0  0  0  0
    1.4315    0.2999   -5.5144 H   0  0  0  0  0  0  0  0  0  0  0  0
    4.3757   -0.1317   -4.8021 H   0  0  0  0  0  0  0  0  0  0  0  0
    3.4984    1.3910   -4.9394 H   0  0  0  0  0  0  0  0  0  0  0  0
    7.0128   -0.1113   -8.7593 H   0  0  0  0  0  0  0  0  0  0  0  0
    8.0929    1.0014  -10.6809 H   0  0  0  0  0  0  0  0  0  0  0  0
    6.9024    4.7075   -6.4855 H   0  0  0  0  0  0  0  0  0  0  0  0
  1  2  1  0  0  0  0
  1 35  1  0  0  0  0
  1 36  1  0  0  0  0
  1 37  1  0  0  0  0
  2  3  1  0  0  0  0
  3  4  1  0  0  0  0
  3 38  1  0  0  0  0
  3 39  1  0  0  0  0
  4  5  1  0  0  0  0
  4 40  1  0  0  0  0
  4 41  1  0  0  0  0
  5  6  1  0  0  0  0
  6  7  1  0  0  0  0
  6 42  1  0  0  0  0
  6 43  1  0  0  0  0
  7  8  3  0  0  0  0
  8  9  1  0  0  0  0
  9 10  2  0  0  0  0
  9 34  1  0  0  0  0
 10 11  1  0  0  0  0
 10 44  1  0  0  0  0
 11 12  1  0  0  0  0
 11 33  2  0  0  0  0
 12 13  2  0  0  0  0
 12 16  1  0  0  0  0
 13 14  1  0  0  0  0
 14 15  1  0  0  0  0
 14 45  1  0  0  0  0
 15 16  2  0  0  0  0
 15 32  1  0  0  0  0
 16 17  1  0  0  0  0
 17 18  2  0  0  0  0
 17 19  1  0  0  0  0
 19 20  1  0  0  0  0
 19 32  2  0  0  0  0
 20 21  2  0  0  0  0
 20 46  1  0  0  0  0
 21 22  1  0  0  0  0
 21 30  1  0  0  0  0
 22 23  1  0  0  0  0
 22 47  1  0  0  0  0
 22 48  1  0  0  0  0
 23 24  1  0  0  0  0
 23 29  1  0  0  0  0
 24 25  1  0  0  0  0
 24 49  1  0  0  0  0
 24 50  1  0  0  0  0
 25 26  1  0  0  0  0
 25 51  1  0  0  0  0
 25 52  1  0  0  0  0
 26 27  1  0  0  0  0
 26 28  1  0  0  0  0
 27 53  1  0  0  0  0
 27 54  1  0  0  0  0
 27 55  1  0  0  0  0
 28 29  1  0  0  0  0
 28 56  1  0  0  0  0
 28 57  1  0  0  0  0
 29 58  1  0  0  0  0
 29 59  1  0  0  0  0
 30 31  2  0  0  0  0
 30 60  1  0  0  0  0
 31 32  1  0  0  0  0
 31 61  1  0  0  0  0
 33 34  1  0  0  0  0
 33 62  1  0  0  0  0
M  END
$$$$
