CHEMBL1241587
 OpenBabel04072215363D

 39 42  0  0  0  0  0  0  0  0999 V2000
    1.5065    0.8392    0.7098 C   0  0  0  0  0  0  0  0  0  0  0  0
    2.5201   -0.1046    0.0641 C   0  0  0  0  0  0  0  0  0  0  0  0
    3.7171    0.6654   -0.4930 C   0  0  0  0  0  0  0  0  0  0  0  0
    2.9385   -1.1538    0.9877 N   0  0  0  0  0  0  0  0  0  0  0  0
    3.5913   -0.8417    2.1240 N   0  0  0  0  0  0  0  0  0  0  0  0
    3.8249   -2.0261    2.7227 C   0  0  0  0  0  0  0  0  0  0  0  0
    4.6053   -2.0666    3.9684 C   0  0  0  0  0  0  0  0  0  0  0  0
    5.4477   -3.1586    4.2662 C   0  0  0  0  0  0  0  0  0  0  0  0
    6.2028   -3.1971    5.4424 C   0  0  0  0  0  0  0  0  0  0  0  0
    6.1508   -2.1055    6.2801 C   0  0  0  0  0  0  0  0  0  0  0  0
    5.3671   -1.0053    5.9920 C   0  0  0  0  0  0  0  0  0  0  0  0
    4.5763   -0.9720    4.8525 C   0  0  0  0  0  0  0  0  0  0  0  0
    5.5899    0.0448    7.0065 C   0  0  0  0  0  0  0  0  0  0  0  0
    6.5402   -0.6899    7.9569 C   0  0  0  0  0  0  0  0  0  0  0  0
    6.8874   -1.9884    7.4244 O   0  0  0  0  0  0  0  0  0  0  0  0
    3.2407   -3.1009    1.9750 C   0  0  0  0  0  0  0  0  0  0  0  0
    3.0702   -4.4926    2.0627 C   0  0  0  0  0  0  0  0  0  0  0  0
    3.4384   -5.2831    3.1427 N   0  0  0  0  0  0  0  0  0  0  0  0
    2.4766   -5.1427    1.0394 N   0  0  0  0  0  0  0  0  0  0  0  0
    2.0479   -4.4300   -0.0175 C   0  0  0  0  0  0  0  0  0  0  0  0
    2.1085   -3.1027   -0.1925 N   0  0  0  0  0  0  0  0  0  0  0  0
    2.7183   -2.4959    0.8407 C   0  0  0  0  0  0  0  0  0  0  0  0
    1.1666    1.5919   -0.0094 H   0  0  0  0  0  0  0  0  0  0  0  0
    1.9338    1.3649    1.5705 H   0  0  0  0  0  0  0  0  0  0  0  0
    0.6276    0.2866    1.0594 H   0  0  0  0  0  0  0  0  0  0  0  0
    2.0225   -0.5994   -0.7791 H   0  0  0  0  0  0  0  0  0  0  0  0
    4.2581    1.1994    0.2958 H   0  0  0  0  0  0  0  0  0  0  0  0
    3.3897    1.4024   -1.2339 H   0  0  0  0  0  0  0  0  0  0  0  0
    4.4246   -0.0127   -0.9830 H   0  0  0  0  0  0  0  0  0  0  0  0
    5.5547   -3.9852    3.5681 H   0  0  0  0  0  0  0  0  0  0  0  0
    6.8385   -4.0452    5.6713 H   0  0  0  0  0  0  0  0  0  0  0  0
    3.9714   -0.0961    4.6307 H   0  0  0  0  0  0  0  0  0  0  0  0
    4.6704    0.3497    7.5131 H   0  0  0  0  0  0  0  0  0  0  0  0
    6.0769    0.9221    6.5688 H   0  0  0  0  0  0  0  0  0  0  0  0
    6.0787   -0.8359    8.9401 H   0  0  0  0  0  0  0  0  0  0  0  0
    7.4653   -0.1208    8.1055 H   0  0  0  0  0  0  0  0  0  0  0  0
    3.3541   -4.8313    4.0451 H   0  0  0  0  0  0  0  0  0  0  0  0
    3.0030   -6.1965    3.0726 H   0  0  0  0  0  0  0  0  0  0  0  0
    1.5926   -5.0007   -0.8210 H   0  0  0  0  0  0  0  0  0  0  0  0
  1  2  1  0  0  0  0
  1 23  1  0  0  0  0
  1 24  1  0  0  0  0
  1 25  1  0  0  0  0
  2  3  1  0  0  0  0
  2  4  1  0  0  0  0
  2 26  1  0  0  0  0
  3 27  1  0  0  0  0
  3 28  1  0  0  0  0
  3 29  1  0  0  0  0
  4  5  1  0  0  0  0
  4 22  1  0  0  0  0
  5  6  2  0  0  0  0
  6  7  1  0  0  0  0
  6 16  1  0  0  0  0
  7  8  1  0  0  0  0
  7 12  2  0  0  0  0
  8  9  2  0  0  0  0
  8 30  1  0  0  0  0
  9 10  1  0  0  0  0
  9 31  1  0  0  0  0
 10 11  2  0  0  0  0
 10 15  1  0  0  0  0
 11 12  1  0  0  0  0
 11 13  1  0  0  0  0
 12 32  1  0  0  0  0
 13 14  1  0  0  0  0
 13 33  1  0  0  0  0
 13 34  1  0  0  0  0
 14 15  1  0  0  0  0
 14 35  1  0  0  0  0
 14 36  1  0  0  0  0
 16 17  1  0  0  0  0
 16 22  2  0  0  0  0
 17 18  1  0  0  0  0
 17 19  2  0  0  0  0
 18 37  1  0  0  0  0
 18 38  1  0  0  0  0
 19 20  1  0  0  0  0
 20 21  2  0  0  0  0
 20 39  1  0  0  0  0
 21 22  1  0  0  0  0
M  END
$$$$
