CHEMBL3900858
 OpenBabel04072215373D

 70 74  0  0  0  0  0  0  0  0999 V2000
    4.2034   -1.9182   -0.8687 C   0  0  0  0  0  0  0  0  0  0  0  0
    3.1356   -1.4548   -0.0426 O   0  0  0  0  0  0  0  0  0  0  0  0
    3.4871   -0.7684    1.0821 C   0  0  0  0  0  0  0  0  0  0  0  0
    4.5577    0.1258    1.0698 C   0  0  0  0  0  0  0  0  0  0  0  0
    4.9987    0.7532    2.2529 C   0  0  0  0  0  0  0  0  0  0  0  0
    6.1347    1.5783    2.3302 C   0  0  0  0  0  0  0  0  0  0  0  0
    6.8810    1.8538    1.1498 N   0  0  0  0  0  0  0  0  0  0  0  0
    8.1951    2.3695    1.1415 C   0  0  0  0  0  0  0  0  0  0  0  0
    9.1847    1.8132    1.9631 C   0  0  0  0  0  0  0  0  0  0  0  0
   10.4655    2.3640    2.0205 C   0  0  0  0  0  0  0  0  0  0  0  0
   10.7775    3.4815    1.2470 C   0  0  0  0  0  0  0  0  0  0  0  0
   12.3592    4.1547    1.4103 Cl  0  0  0  0  0  0  0  0  0  0  0  0
    9.8129    4.0204    0.3887 C   0  0  0  0  0  0  0  0  0  0  0  0
   10.1305    5.3980   -0.6069 Cl  0  0  0  0  0  0  0  0  0  0  0  0
    8.5313    3.4567    0.3272 C   0  0  0  0  0  0  0  0  0  0  0  0
    6.5505    2.1032    3.4984 N   0  0  0  0  0  0  0  0  0  0  0  0
    5.8152    1.8252    4.5765 C   0  0  0  0  0  0  0  0  0  0  0  0
    4.7153    1.0651    4.6108 N   0  0  0  0  0  0  0  0  0  0  0  0
    4.3182    0.5231    3.4535 C   0  0  0  0  0  0  0  0  0  0  0  0
    3.2014   -0.3096    3.4347 C   0  0  0  0  0  0  0  0  0  0  0  0
    2.7585   -0.9462    2.2647 C   0  0  0  0  0  0  0  0  0  0  0  0
    1.6642   -1.7664    2.4386 O   0  0  0  0  0  0  0  0  0  0  0  0
    0.7713   -1.8428    1.3211 C   0  0  0  0  0  0  0  0  0  0  0  0
   -0.4091   -2.6787    1.6616 C   0  0  0  0  0  0  0  0  0  0  0  0
   -1.6489   -2.5554    1.2391 N   0  0  0  0  0  0  0  0  0  0  0  0
   -2.2216   -3.7390    1.6210 C   0  0  0  0  0  0  0  0  0  0  0  0
   -3.5045   -3.9952    1.2827 N   0  0  0  0  0  0  0  0  0  0  0  0
   -4.3585   -3.0282    0.5811 C   0  0  0  0  0  0  0  0  0  0  0  0
   -5.6524   -2.7399    1.3814 C   0  0  0  0  0  0  0  0  0  0  0  0
   -6.2765   -3.9713    1.8793 N   0  0  0  0  0  0  0  0  0  0  0  0
   -7.5954   -4.3387    1.7239 C   0  0  0  0  0  0  0  0  0  0  0  0
   -8.0338   -5.3814    2.1933 O   0  0  0  0  0  0  0  0  0  0  0  0
   -8.3415   -3.4529    1.0039 O   0  0  0  0  0  0  0  0  0  0  0  0
   -9.7331   -3.7824    0.7240 C   0  0  0  0  0  0  0  0  0  0  0  0
  -10.5633   -3.8602    2.0142 C   0  0  0  0  0  0  0  0  0  0  0  0
  -10.2928   -2.6272   -0.1252 C   0  0  0  0  0  0  0  0  0  0  0  0
   -9.8432   -5.0665   -0.1138 C   0  0  0  0  0  0  0  0  0  0  0  0
   -5.3706   -4.8823    2.5866 C   0  0  0  0  0  0  0  0  0  0  0  0
   -4.1647   -5.2317    1.7061 C   0  0  0  0  0  0  0  0  0  0  0  0
   -1.3861   -4.5497    2.2876 N   0  0  0  0  0  0  0  0  0  0  0  0
   -0.1794   -3.8576    2.3038 O   0  0  0  0  0  0  0  0  0  0  0  0
    4.0301   -2.9767   -1.0830 H   0  0  0  0  0  0  0  0  0  0  0  0
    5.1978   -1.8387   -0.4162 H   0  0  0  0  0  0  0  0  0  0  0  0
    4.1786   -1.3643   -1.8115 H   0  0  0  0  0  0  0  0  0  0  0  0
    5.0881    0.3117    0.1400 H   0  0  0  0  0  0  0  0  0  0  0  0
    6.2757    2.3005    0.4688 H   0  0  0  0  0  0  0  0  0  0  0  0
    8.9515    0.9493    2.5827 H   0  0  0  0  0  0  0  0  0  0  0  0
   11.2041    1.9250    2.6863 H   0  0  0  0  0  0  0  0  0  0  0  0
    7.7883    3.8969   -0.3323 H   0  0  0  0  0  0  0  0  0  0  0  0
    6.1535    2.2488    5.5183 H   0  0  0  0  0  0  0  0  0  0  0  0
    2.6670   -0.4804    4.3683 H   0  0  0  0  0  0  0  0  0  0  0  0
    1.2305   -2.3532    0.4741 H   0  0  0  0  0  0  0  0  0  0  0  0
    0.4386   -0.8379    1.0382 H   0  0  0  0  0  0  0  0  0  0  0  0
   -4.6287   -3.4538   -0.3934 H   0  0  0  0  0  0  0  0  0  0  0  0
   -3.8501   -2.0785    0.3803 H   0  0  0  0  0  0  0  0  0  0  0  0
   -6.3501   -2.1595    0.7716 H   0  0  0  0  0  0  0  0  0  0  0  0
   -5.4044   -2.1403    2.2653 H   0  0  0  0  0  0  0  0  0  0  0  0
  -10.4959   -2.9201    2.5738 H   0  0  0  0  0  0  0  0  0  0  0  0
  -10.2190   -4.6461    2.6912 H   0  0  0  0  0  0  0  0  0  0  0  0
  -11.6187   -4.0584    1.7975 H   0  0  0  0  0  0  0  0  0  0  0  0
  -10.2376   -1.6760    0.4149 H   0  0  0  0  0  0  0  0  0  0  0  0
  -11.3397   -2.8046   -0.3991 H   0  0  0  0  0  0  0  0  0  0  0  0
   -9.7150   -2.5000   -1.0475 H   0  0  0  0  0  0  0  0  0  0  0  0
   -9.4806   -5.9497    0.4182 H   0  0  0  0  0  0  0  0  0  0  0  0
   -9.2393   -4.9840   -1.0249 H   0  0  0  0  0  0  0  0  0  0  0  0
  -10.8807   -5.2677   -0.4022 H   0  0  0  0  0  0  0  0  0  0  0  0
   -5.8793   -5.8031    2.8877 H   0  0  0  0  0  0  0  0  0  0  0  0
   -5.0439   -4.3695    3.4988 H   0  0  0  0  0  0  0  0  0  0  0  0
   -4.5022   -5.7742    0.8134 H   0  0  0  0  0  0  0  0  0  0  0  0
   -3.5013   -5.9087    2.2559 H   0  0  0  0  0  0  0  0  0  0  0  0
  1  2  1  0  0  0  0
  1 42  1  0  0  0  0
  1 43  1  0  0  0  0
  1 44  1  0  0  0  0
  2  3  1  0  0  0  0
  3  4  1  0  0  0  0
  3 21  2  0  0  0  0
  4  5  2  0  0  0  0
  4 45  1  0  0  0  0
  5  6  1  0  0  0  0
  5 19  1  0  0  0  0
  6  7  1  0  0  0  0
  6 16  2  0  0  0  0
  7  8  1  0  0  0  0
  7 46  1  0  0  0  0
  8  9  1  0  0  0  0
  8 15  2  0  0  0  0
  9 10  2  0  0  0  0
  9 47  1  0  0  0  0
 10 11  1  0  0  0  0
 10 48  1  0  0  0  0
 11 12  1  0  0  0  0
 11 13  2  0  0  0  0
 13 14  1  0  0  0  0
 13 15  1  0  0  0  0
 15 49  1  0  0  0  0
 16 17  1  0  0  0  0
 17 18  2  0  0  0  0
 17 50  1  0  0  0  0
 18 19  1  0  0  0  0
 19 20  2  0  0  0  0
 20 21  1  0  0  0  0
 20 51  1  0  0  0  0
 21 22  1  0  0  0  0
 22 23  1  0  0  0  0
 23 24  1  0  0  0  0
 23 52  1  0  0  0  0
 23 53  1  0  0  0  0
 24 25  2  0  0  0  0
 24 41  1  0  0  0  0
 25 26  1  0  0  0  0
 26 27  1  0  0  0  0
 26 40  2  0  0  0  0
 27 28  1  0  0  0  0
 27 39  1  0  0  0  0
 28 29  1  0  0  0  0
 28 54  1  0  0  0  0
 28 55  1  0  0  0  0
 29 30  1  0  0  0  0
 29 56  1  0  0  0  0
 29 57  1  0  0  0  0
 30 31  1  0  0  0  0
 30 38  1  0  0  0  0
 31 32  2  0  0  0  0
 31 33  1  0  0  0  0
 33 34  1  0  0  0  0
 34 35  1  0  0  0  0
 34 36  1  0  0  0  0
 34 37  1  0  0  0  0
 35 58  1  0  0  0  0
 35 59  1  0  0  0  0
 35 60  1  0  0  0  0
 36 61  1  0  0  0  0
 36 62  1  0  0  0  0
 36 63  1  0  0  0  0
 37 64  1  0  0  0  0
 37 65  1  0  0  0  0
 37 66  1  0  0  0  0
 38 39  1  0  0  0  0
 38 67  1  0  0  0  0
 38 68  1  0  0  0  0
 39 69  1  0  0  0  0
 39 70  1  0  0  0  0
 40 41  1  0  0  0  0
M  END
$$$$
