CHEMBL181636
 OpenBabel04072215363D

 48 50  0  0  0  0  0  0  0  0999 V2000
    1.3223   -0.6960   -2.6754 C   0  0  0  0  0  0  0  0  0  0  0  0
    2.7297   -0.6467   -2.4344 O   0  0  0  0  0  0  0  0  0  0  0  0
    3.0849   -0.7264   -1.1122 C   0  0  0  0  0  0  0  0  0  0  0  0
    2.2587   -0.7945   -0.2157 O   0  0  0  0  0  0  0  0  0  0  0  0
    4.5483   -0.7357   -0.9315 C   0  0  0  0  0  0  0  0  0  0  0  0
    5.3909   -0.5481   -2.0057 C   0  0  0  0  0  0  0  0  0  0  0  0
    6.6757   -0.6230   -1.5968 N   0  0  0  0  0  0  0  0  0  0  0  0
    7.7003   -0.4766   -2.4470 N   0  0  0  0  0  0  0  0  0  0  0  0
    8.8581   -0.6185   -1.9019 C   0  0  0  0  0  0  0  0  0  0  0  0
    9.0974   -0.8901   -0.5921 N   0  0  0  0  0  0  0  0  0  0  0  0
    8.1088   -1.0339    0.2506 C   0  0  0  0  0  0  0  0  0  0  0  0
    8.4500   -1.2928    1.5608 N   0  0  0  0  0  0  0  0  0  0  0  0
    9.5002   -2.1632    1.9537 C   0  0  0  0  0  0  0  0  0  0  0  0
   10.1201   -1.9805    3.1967 C   0  0  0  0  0  0  0  0  0  0  0  0
   11.1094   -2.8636    3.6472 C   0  0  0  0  0  0  0  0  0  0  0  0
   11.4868   -3.9740    2.8802 C   0  0  0  0  0  0  0  0  0  0  0  0
   12.5631   -4.8912    3.3833 C   0  0  0  0  0  0  0  0  0  0  0  0
   10.8336   -4.1796    1.6614 C   0  0  0  0  0  0  0  0  0  0  0  0
   11.1028   -5.2459    0.8490 O   0  0  0  0  0  0  0  0  0  0  0  0
    9.8502   -3.2958    1.2084 C   0  0  0  0  0  0  0  0  0  0  0  0
    6.7466   -0.8726   -0.2467 C   0  0  0  0  0  0  0  0  0  0  0  0
    5.4173   -0.9170    0.2544 C   0  0  0  0  0  0  0  0  0  0  0  0
    4.8561   -1.1198    1.6971 C   0  0  0  0  0  0  0  0  0  0  0  0
    5.9080   -1.3225    2.7974 C   0  0  0  0  0  0  0  0  0  0  0  0
    4.0535    0.1290    2.1431 C   0  0  0  0  0  0  0  0  0  0  0  0
    3.9756   -2.3892    1.7876 C   0  0  0  0  0  0  0  0  0  0  0  0
    1.1537   -0.5102   -3.7398 H   0  0  0  0  0  0  0  0  0  0  0  0
    0.7980    0.0758   -2.1045 H   0  0  0  0  0  0  0  0  0  0  0  0
    0.9366   -1.6906   -2.4317 H   0  0  0  0  0  0  0  0  0  0  0  0
    5.1710   -0.3726   -3.0511 H   0  0  0  0  0  0  0  0  0  0  0  0
    9.7510   -0.5077   -2.5419 H   0  0  0  0  0  0  0  0  0  0  0  0
    8.4624   -0.4434    2.1116 H   0  0  0  0  0  0  0  0  0  0  0  0
    9.8477   -1.1405    3.8306 H   0  0  0  0  0  0  0  0  0  0  0  0
   11.5804   -2.6761    4.6102 H   0  0  0  0  0  0  0  0  0  0  0  0
   12.9399   -4.5754    4.3620 H   0  0  0  0  0  0  0  0  0  0  0  0
   13.4100   -4.8941    2.6892 H   0  0  0  0  0  0  0  0  0  0  0  0
   12.1781   -5.9103    3.4918 H   0  0  0  0  0  0  0  0  0  0  0  0
   11.8060   -5.7840    1.2429 H   0  0  0  0  0  0  0  0  0  0  0  0
    9.3579   -3.5082    0.2631 H   0  0  0  0  0  0  0  0  0  0  0  0
    6.5271   -0.4312    2.9330 H   0  0  0  0  0  0  0  0  0  0  0  0
    6.5245   -2.2014    2.5936 H   0  0  0  0  0  0  0  0  0  0  0  0
    5.4377   -1.5140    3.7707 H   0  0  0  0  0  0  0  0  0  0  0  0
    4.7012    1.0125    2.1964 H   0  0  0  0  0  0  0  0  0  0  0  0
    3.6116   -0.0186    3.1360 H   0  0  0  0  0  0  0  0  0  0  0  0
    3.2354    0.3888    1.4728 H   0  0  0  0  0  0  0  0  0  0  0  0
    4.5654   -3.2883    1.5736 H   0  0  0  0  0  0  0  0  0  0  0  0
    3.1317   -2.3992    1.1018 H   0  0  0  0  0  0  0  0  0  0  0  0
    3.5554   -2.5019    2.7952 H   0  0  0  0  0  0  0  0  0  0  0  0
  1  2  1  0  0  0  0
  1 27  1  0  0  0  0
  1 28  1  0  0  0  0
  1 29  1  0  0  0  0
  2  3  1  0  0  0  0
  3  4  2  0  0  0  0
  3  5  1  0  0  0  0
  5  6  2  0  0  0  0
  5 22  1  0  0  0  0
  6  7  1  0  0  0  0
  6 30  1  0  0  0  0
  7  8  1  0  0  0  0
  7 21  1  0  0  0  0
  8  9  2  0  0  0  0
  9 10  1  0  0  0  0
  9 31  1  0  0  0  0
 10 11  2  0  0  0  0
 11 12  1  0  0  0  0
 11 21  1  0  0  0  0
 12 13  1  0  0  0  0
 12 32  1  0  0  0  0
 13 14  1  0  0  0  0
 13 20  2  0  0  0  0
 14 15  2  0  0  0  0
 14 33  1  0  0  0  0
 15 16  1  0  0  0  0
 15 34  1  0  0  0  0
 16 17  1  0  0  0  0
 16 18  2  0  0  0  0
 17 35  1  0  0  0  0
 17 36  1  0  0  0  0
 17 37  1  0  0  0  0
 18 19  1  0  0  0  0
 18 20  1  0  0  0  0
 19 38  1  0  0  0  0
 20 39  1  0  0  0  0
 21 22  2  0  0  0  0
 22 23  1  0  0  0  0
 23 24  1  0  0  0  0
 23 25  1  0  0  0  0
 23 26  1  0  0  0  0
 24 40  1  0  0  0  0
 24 41  1  0  0  0  0
 24 42  1  0  0  0  0
 25 43  1  0  0  0  0
 25 44  1  0  0  0  0
 25 45  1  0  0  0  0
 26 46  1  0  0  0  0
 26 47  1  0  0  0  0
 26 48  1  0  0  0  0
M  END
$$$$
