CHEMBL1979318
 OpenBabel04072215363D

 31 33  0  0  1  0  0  0  0  0999 V2000
    1.0967   -0.3114    0.1460 C   0  0  0  0  0  0  0  0  0  0  0  0
    2.5690   -0.1225    0.1614 C   0  0  0  0  0  0  0  0  0  0  0  0
    3.3869   -1.1886    0.1885 N   0  0  0  0  0  0  0  0  0  0  0  0
    4.6269   -0.6593    0.1905 N   0  0  0  0  0  0  0  0  0  0  0  0
    4.6172    0.6966    0.1584 C   0  0  0  0  0  0  0  0  0  0  0  0
    3.3025    1.0868    0.1328 C   0  0  0  0  0  0  0  0  0  0  0  0
    2.9585    2.5400    0.1040 C   0  0  3  0  0  0  0  0  0  0  0  0
    1.9597    2.7265   -1.0309 C   0  0  0  0  0  0  0  0  0  0  0  0
    2.3504    2.4099   -2.3534 C   0  0  0  0  0  0  0  0  0  0  0  0
    1.4708    2.5445   -3.4266 C   0  0  0  0  0  0  0  0  0  0  0  0
    0.1801    3.0100   -3.2110 C   0  0  0  0  0  0  0  0  0  0  0  0
   -0.2280    3.3491   -1.9233 C   0  0  0  0  0  0  0  0  0  0  0  0
    0.6512    3.2160   -0.8385 C   0  0  0  0  0  0  0  0  0  0  0  0
   -0.1311    3.7867    1.0310 I   0  0  0  0  0  0  0  0  0  0  0  0
    4.2332    3.3689   -0.0532 C   0  0  0  0  0  0  0  0  0  0  0  0
    4.0453    4.8550   -0.3112 C   0  0  0  0  0  0  0  0  0  0  0  0
    3.8895    6.0879   -0.5251 N   0  0  0  0  0  0  0  0  0  0  0  0
    5.4868    2.8456   -0.0056 C   0  0  0  0  0  0  0  0  0  0  0  0
    6.6548    3.5647   -0.1011 N   0  0  0  0  0  0  0  0  0  0  0  0
    5.7039    1.4624    0.1368 O   0  0  0  0  0  0  0  0  0  0  0  0
    0.8249   -1.3703    0.1978 H   0  0  0  0  0  0  0  0  0  0  0  0
    0.6655    0.0937   -0.7746 H   0  0  0  0  0  0  0  0  0  0  0  0
    0.6386    0.1979    0.9993 H   0  0  0  0  0  0  0  0  0  0  0  0
    5.4258   -1.2829    0.2034 H   0  0  0  0  0  0  0  0  0  0  0  0
    2.5374    2.7890    1.0804 H   0  0  0  0  0  0  0  0  0  0  0  0
    3.3527    2.0334   -2.5568 H   0  0  0  0  0  0  0  0  0  0  0  0
    1.7944    2.2808   -4.4303 H   0  0  0  0  0  0  0  0  0  0  0  0
   -0.5090    3.1122   -4.0451 H   0  0  0  0  0  0  0  0  0  0  0  0
   -1.2410    3.7195   -1.7806 H   0  0  0  0  0  0  0  0  0  0  0  0
    6.5928    4.4731   -0.5535 H   0  0  0  0  0  0  0  0  0  0  0  0
    7.4379    3.0024   -0.4231 H   0  0  0  0  0  0  0  0  0  0  0  0
  1  2  1  0  0  0  0
  1 21  1  0  0  0  0
  1 22  1  0  0  0  0
  1 23  1  0  0  0  0
  2  3  2  0  0  0  0
  2  6  1  0  0  0  0
  3  4  1  0  0  0  0
  4  5  1  0  0  0  0
  4 24  1  0  0  0  0
  5  6  2  0  0  0  0
  5 20  1  0  0  0  0
  6  7  1  0  0  0  0
  7  8  1  0  0  0  0
  7 15  1  0  0  0  0
  7 25  1  0  0  0  0
  8  9  1  0  0  0  0
  8 13  2  0  0  0  0
  9 10  2  0  0  0  0
  9 26  1  0  0  0  0
 10 11  1  0  0  0  0
 10 27  1  0  0  0  0
 11 12  2  0  0  0  0
 11 28  1  0  0  0  0
 12 13  1  0  0  0  0
 12 29  1  0  0  0  0
 13 14  1  0  0  0  0
 15 16  1  0  0  0  0
 15 18  2  0  0  0  0
 16 17  3  0  0  0  0
 18 19  1  0  0  0  0
 18 20  1  0  0  0  0
 19 30  1  0  0  0  0
 19 31  1  0  0  0  0
M  END
$$$$
