CHEMBL371510
 OpenBabel04072215373D

 44 47  0  0  0  0  0  0  0  0999 V2000
    2.9238   -5.8874   -0.6856 C   0  0  0  0  0  0  0  0  0  0  0  0
    1.4734   -6.2649   -0.7909 C   0  0  0  0  0  0  0  0  0  0  0  0
    1.1195   -7.5642   -1.1691 C   0  0  0  0  0  0  0  0  0  0  0  0
   -0.2201   -7.9164   -1.2732 C   0  0  0  0  0  0  0  0  0  0  0  0
   -1.2143   -6.9763   -1.0044 C   0  0  0  0  0  0  0  0  0  0  0  0
   -0.8906   -5.6722   -0.6152 C   0  0  0  0  0  0  0  0  0  0  0  0
   -1.8682   -4.6829   -0.3487 N   0  0  0  0  0  0  0  0  0  0  0  0
   -3.2311   -4.9050   -0.2468 C   0  0  0  0  0  0  0  0  0  0  0  0
   -3.7730   -6.0029   -0.2506 O   0  0  0  0  0  0  0  0  0  0  0  0
   -3.9444   -3.7160   -0.1726 N   0  0  0  0  0  0  0  0  0  0  0  0
   -5.3575   -3.7068   -0.0672 C   0  0  0  0  0  0  0  0  0  0  0  0
   -6.0552   -4.6371    0.7086 C   0  0  0  0  0  0  0  0  0  0  0  0
   -7.4553   -4.6455    0.7122 C   0  0  0  0  0  0  0  0  0  0  0  0
   -8.1895   -3.7073   -0.0341 C   0  0  0  0  0  0  0  0  0  0  0  0
   -9.6602   -3.7292   -0.0233 C   0  0  0  0  0  0  0  0  0  0  0  0
  -10.3230   -3.9966    1.1656 C   0  0  0  0  0  0  0  0  0  0  0  0
  -12.0184   -3.9584    1.0178 S   0  0  0  0  0  0  0  0  0  0  0  0
  -11.9161   -3.5643   -0.6317 C   0  0  0  0  0  0  0  0  0  0  0  0
  -13.0477   -3.3744   -1.3296 N   0  0  0  0  0  0  0  0  0  0  0  0
  -12.8139   -3.0716   -2.6039 C   0  0  0  0  0  0  0  0  0  0  0  0
  -11.6231   -2.9721   -3.2069 N   0  0  0  0  0  0  0  0  0  0  0  0
  -10.5084   -3.1854   -2.4823 C   0  0  0  0  0  0  0  0  0  0  0  0
   -9.3225   -3.1052   -3.2020 N   0  0  0  0  0  0  0  0  0  0  0  0
  -10.6102   -3.4816   -1.1049 C   0  0  0  0  0  0  0  0  0  0  0  0
   -7.4800   -2.7411   -0.7565 C   0  0  0  0  0  0  0  0  0  0  0  0
   -6.0845   -2.7550   -0.7758 C   0  0  0  0  0  0  0  0  0  0  0  0
   -5.4336   -1.8681   -1.5451 F   0  0  0  0  0  0  0  0  0  0  0  0
    0.4630   -5.3230   -0.5143 C   0  0  0  0  0  0  0  0  0  0  0  0
    3.5747   -6.7273   -0.9590 H   0  0  0  0  0  0  0  0  0  0  0  0
    3.1681   -5.5984    0.3405 H   0  0  0  0  0  0  0  0  0  0  0  0
    3.1509   -5.0599   -1.3647 H   0  0  0  0  0  0  0  0  0  0  0  0
    1.8804   -8.3079   -1.3877 H   0  0  0  0  0  0  0  0  0  0  0  0
   -0.5007   -8.9238   -1.5688 H   0  0  0  0  0  0  0  0  0  0  0  0
   -2.2422   -7.3055   -1.1161 H   0  0  0  0  0  0  0  0  0  0  0  0
   -1.5363   -3.7746   -0.0568 H   0  0  0  0  0  0  0  0  0  0  0  0
   -3.5456   -2.9414   -0.6897 H   0  0  0  0  0  0  0  0  0  0  0  0
   -5.5252   -5.3739    1.3092 H   0  0  0  0  0  0  0  0  0  0  0  0
   -7.9560   -5.4107    1.3033 H   0  0  0  0  0  0  0  0  0  0  0  0
   -9.8975   -4.2089    2.1374 H   0  0  0  0  0  0  0  0  0  0  0  0
  -13.6847   -2.8915   -3.2261 H   0  0  0  0  0  0  0  0  0  0  0  0
   -9.5316   -3.0831   -4.1954 H   0  0  0  0  0  0  0  0  0  0  0  0
   -8.6281   -3.7895   -2.9300 H   0  0  0  0  0  0  0  0  0  0  0  0
   -7.9903   -1.9729   -1.3295 H   0  0  0  0  0  0  0  0  0  0  0  0
    0.7460   -4.3148   -0.2199 H   0  0  0  0  0  0  0  0  0  0  0  0
  1  2  1  0  0  0  0
  1 29  1  0  0  0  0
  1 30  1  0  0  0  0
  1 31  1  0  0  0  0
  2  3  1  0  0  0  0
  2 28  2  0  0  0  0
  3  4  2  0  0  0  0
  3 32  1  0  0  0  0
  4  5  1  0  0  0  0
  4 33  1  0  0  0  0
  5  6  2  0  0  0  0
  5 34  1  0  0  0  0
  6  7  1  0  0  0  0
  6 28  1  0  0  0  0
  7  8  1  0  0  0  0
  7 35  1  0  0  0  0
  8  9  2  0  0  0  0
  8 10  1  0  0  0  0
 10 11  1  0  0  0  0
 10 36  1  0  0  0  0
 11 12  1  0  0  0  0
 11 26  2  0  0  0  0
 12 13  2  0  0  0  0
 12 37  1  0  0  0  0
 13 14  1  0  0  0  0
 13 38  1  0  0  0  0
 14 15  1  0  0  0  0
 14 25  2  0  0  0  0
 15 16  2  0  0  0  0
 15 24  1  0  0  0  0
 16 17  1  0  0  0  0
 16 39  1  0  0  0  0
 17 18  1  0  0  0  0
 18 19  1  0  0  0  0
 18 24  2  0  0  0  0
 19 20  2  0  0  0  0
 20 21  1  0  0  0  0
 20 40  1  0  0  0  0
 21 22  2  0  0  0  0
 22 23  1  0  0  0  0
 22 24  1  0  0  0  0
 23 41  1  0  0  0  0
 23 42  1  0  0  0  0
 25 26  1  0  0  0  0
 25 43  1  0  0  0  0
 26 27  1  0  0  0  0
 28 44  1  0  0  0  0
M  END
$$$$
