CHEMBL2011305
 OpenBabel04072215363D

 41 44  0  0  0  0  0  0  0  0999 V2000
    2.2129   -0.3177   -0.3740 F   0  0  0  0  0  0  0  0  0  0  0  0
    0.8849   -0.1693   -0.3042 C   0  0  0  0  0  0  0  0  0  0  0  0
    0.2940    0.1265    0.9161 C   0  0  0  0  0  0  0  0  0  0  0  0
   -1.0958    0.2579    0.9925 C   0  0  0  0  0  0  0  0  0  0  0  0
   -1.8975    0.0405   -0.1406 C   0  0  0  0  0  0  0  0  0  0  0  0
   -3.3506    0.0206   -0.0227 C   0  0  0  0  0  0  0  0  0  0  0  0
   -4.1982    0.5487   -0.9719 C   0  0  0  0  0  0  0  0  0  0  0  0
   -5.4863    0.3509   -0.5298 N   0  0  0  0  0  0  0  0  0  0  0  0
   -6.6982    0.6921   -1.1983 C   0  0  0  0  0  0  0  0  0  0  0  0
   -6.6863    1.1974   -2.5059 C   0  0  0  0  0  0  0  0  0  0  0  0
   -7.8877    1.5181   -3.1482 C   0  0  0  0  0  0  0  0  0  0  0  0
   -9.1184    1.3499   -2.4977 C   0  0  0  0  0  0  0  0  0  0  0  0
  -10.4169    1.7069   -3.1791 C   0  0  0  0  0  0  0  0  0  0  0  0
  -10.2519    2.1870   -4.4449 F   0  0  0  0  0  0  0  0  0  0  0  0
  -11.2598    0.6437   -3.2922 F   0  0  0  0  0  0  0  0  0  0  0  0
  -11.1116    2.6667   -2.5064 F   0  0  0  0  0  0  0  0  0  0  0  0
   -9.1245    0.8413   -1.1904 C   0  0  0  0  0  0  0  0  0  0  0  0
   -7.9271    0.5102   -0.5466 C   0  0  0  0  0  0  0  0  0  0  0  0
   -5.5043   -0.2508    0.6836 N   0  0  0  0  0  0  0  0  0  0  0  0
   -4.2219   -0.5270    0.9722 C   0  0  0  0  0  0  0  0  0  0  0  0
   -3.8829   -1.3027    2.1717 C   0  0  0  0  0  0  0  0  0  0  0  0
   -2.7982   -2.1845    2.1781 C   0  0  0  0  0  0  0  0  0  0  0  0
   -2.4796   -2.8434    3.3525 C   0  0  0  0  0  0  0  0  0  0  0  0
   -3.1841   -2.7169    4.4955 N   0  0  0  0  0  0  0  0  0  0  0  0
   -4.2581   -1.9009    4.4565 C   0  0  0  0  0  0  0  0  0  0  0  0
   -4.6409   -1.1782    3.3377 C   0  0  0  0  0  0  0  0  0  0  0  0
   -1.2755   -0.2239   -1.3703 C   0  0  0  0  0  0  0  0  0  0  0  0
    0.1157   -0.3248   -1.4508 C   0  0  0  0  0  0  0  0  0  0  0  0
    0.9081    0.2374    1.8030 H   0  0  0  0  0  0  0  0  0  0  0  0
   -1.5442    0.4915    1.9548 H   0  0  0  0  0  0  0  0  0  0  0  0
   -3.9859    1.0479   -1.9042 H   0  0  0  0  0  0  0  0  0  0  0  0
   -5.7664    1.3384   -3.0638 H   0  0  0  0  0  0  0  0  0  0  0  0
   -7.8559    1.9019   -4.1681 H   0  0  0  0  0  0  0  0  0  0  0  0
  -10.0681    0.7009   -0.6634 H   0  0  0  0  0  0  0  0  0  0  0  0
   -7.9689    0.1180    0.4682 H   0  0  0  0  0  0  0  0  0  0  0  0
   -2.1936   -2.3588    1.2951 H   0  0  0  0  0  0  0  0  0  0  0  0
   -1.6209   -3.5066    3.4042 H   0  0  0  0  0  0  0  0  0  0  0  0
   -4.8235   -1.8393    5.3822 H   0  0  0  0  0  0  0  0  0  0  0  0
   -5.5111   -0.5316    3.3785 H   0  0  0  0  0  0  0  0  0  0  0  0
   -1.8638   -0.3839   -2.2705 H   0  0  0  0  0  0  0  0  0  0  0  0
    0.6023   -0.5456   -2.3962 H   0  0  0  0  0  0  0  0  0  0  0  0
  1  2  1  0  0  0  0
  2  3  1  0  0  0  0
  2 28  2  0  0  0  0
  3  4  2  0  0  0  0
  3 29  1  0  0  0  0
  4  5  1  0  0  0  0
  4 30  1  0  0  0  0
  5  6  1  0  0  0  0
  5 27  2  0  0  0  0
  6  7  2  0  0  0  0
  6 20  1  0  0  0  0
  7  8  1  0  0  0  0
  7 31  1  0  0  0  0
  8  9  1  0  0  0  0
  8 19  1  0  0  0  0
  9 10  1  0  0  0  0
  9 18  2  0  0  0  0
 10 11  2  0  0  0  0
 10 32  1  0  0  0  0
 11 12  1  0  0  0  0
 11 33  1  0  0  0  0
 12 13  1  0  0  0  0
 12 17  2  0  0  0  0
 13 14  1  0  0  0  0
 13 15  1  0  0  0  0
 13 16  1  0  0  0  0
 17 18  1  0  0  0  0
 17 34  1  0  0  0  0
 18 35  1  0  0  0  0
 19 20  2  0  0  0  0
 20 21  1  0  0  0  0
 21 22  1  0  0  0  0
 21 26  2  0  0  0  0
 22 23  2  0  0  0  0
 22 36  1  0  0  0  0
 23 24  1  0  0  0  0
 23 37  1  0  0  0  0
 24 25  2  0  0  0  0
 25 26  1  0  0  0  0
 25 38  1  0  0  0  0
 26 39  1  0  0  0  0
 27 28  1  0  0  0  0
 27 40  1  0  0  0  0
 28 41  1  0  0  0  0
M  END
$$$$
