CHEMBL4103897
 OpenBabel04072215383D

 43 46  0  0  0  0  0  0  0  0999 V2000
   -3.4178    3.0908    1.9706 C   0  0  0  0  0  0  0  0  0  0  0  0
   -3.0245    1.6897    1.6646 C   0  0  0  0  0  0  0  0  0  0  0  0
   -3.8187    0.7240    2.1539 N   0  0  0  0  0  0  0  0  0  0  0  0
   -3.2626   -0.4051    1.7005 N   0  0  0  0  0  0  0  0  0  0  0  0
   -2.1462   -0.2115    0.9557 C   0  0  0  0  0  0  0  0  0  0  0  0
   -1.4393   -1.2049    0.3884 N   0  0  0  0  0  0  0  0  0  0  0  0
   -0.3790   -0.7601   -0.3065 C   0  0  0  0  0  0  0  0  0  0  0  0
   -0.0062    0.5676   -0.4196 C   0  0  0  0  0  0  0  0  0  0  0  0
   -0.7658    1.5949    0.1921 C   0  0  0  0  0  0  0  0  0  0  0  0
   -0.3567    3.0092    0.0508 C   0  0  0  0  0  0  0  0  0  0  0  0
    0.2548    3.4650   -1.1279 C   0  0  0  0  0  0  0  0  0  0  0  0
    0.6913    4.7864   -1.2717 C   0  0  0  0  0  0  0  0  0  0  0  0
    0.4937    5.7224   -0.2588 C   0  0  0  0  0  0  0  0  0  0  0  0
    0.9133    7.0691   -0.3432 N   0  0  0  0  0  0  0  0  0  0  0  0
    1.6878    7.6012   -1.3457 C   0  0  0  0  0  0  0  0  0  0  0  0
    2.1046    7.0073   -2.3338 O   0  0  0  0  0  0  0  0  0  0  0  0
    2.0178    8.9235   -1.1415 N   0  0  0  0  0  0  0  0  0  0  0  0
    2.8903    9.5915   -2.1228 C   0  0  0  0  0  0  0  0  0  0  0  0
    3.1794   11.0860   -1.8811 C   0  0  0  0  0  0  0  0  0  0  0  0
    3.0924   11.2621   -3.4156 C   0  0  0  0  0  0  0  0  0  0  0  0
    2.1748   10.0237   -3.4254 C   0  0  0  0  0  0  0  0  0  0  0  0
   -0.1287    5.2970    0.9137 C   0  0  0  0  0  0  0  0  0  0  0  0
   -0.4892    3.9506    1.0783 C   0  0  0  0  0  0  0  0  0  0  0  0
   -1.9137    1.1606    0.9145 C   0  0  0  0  0  0  0  0  0  0  0  0
   -4.4567    3.1441    2.3168 H   0  0  0  0  0  0  0  0  0  0  0  0
   -3.3364    3.7308    1.0886 H   0  0  0  0  0  0  0  0  0  0  0  0
   -2.8067    3.4962    2.7825 H   0  0  0  0  0  0  0  0  0  0  0  0
   -3.6933   -1.2929    1.9267 H   0  0  0  0  0  0  0  0  0  0  0  0
    0.2073   -1.5387   -0.7909 H   0  0  0  0  0  0  0  0  0  0  0  0
    0.8885    0.7955   -0.9911 H   0  0  0  0  0  0  0  0  0  0  0  0
    0.4279    2.7969   -1.9692 H   0  0  0  0  0  0  0  0  0  0  0  0
    1.1863    5.0392   -2.2027 H   0  0  0  0  0  0  0  0  0  0  0  0
    0.7173    7.6602    0.4490 H   0  0  0  0  0  0  0  0  0  0  0  0
    1.5438    9.4411   -0.4168 H   0  0  0  0  0  0  0  0  0  0  0  0
    3.8090    9.0153   -2.2997 H   0  0  0  0  0  0  0  0  0  0  0  0
    4.1559   11.3090   -1.4419 H   0  0  0  0  0  0  0  0  0  0  0  0
    2.4031   11.6262   -1.3282 H   0  0  0  0  0  0  0  0  0  0  0  0
    4.0438   11.1022   -3.9371 H   0  0  0  0  0  0  0  0  0  0  0  0
    2.6419   12.1920   -3.7689 H   0  0  0  0  0  0  0  0  0  0  0  0
    2.2962    9.3498   -4.2777 H   0  0  0  0  0  0  0  0  0  0  0  0
    1.1107   10.2615   -3.3092 H   0  0  0  0  0  0  0  0  0  0  0  0
   -0.3137    5.9885    1.7315 H   0  0  0  0  0  0  0  0  0  0  0  0
   -0.8522    3.6444    2.0513 H   0  0  0  0  0  0  0  0  0  0  0  0
  1  2  1  0  0  0  0
  1 25  1  0  0  0  0
  1 26  1  0  0  0  0
  1 27  1  0  0  0  0
  2  3  2  0  0  0  0
  2 24  1  0  0  0  0
  3  4  1  0  0  0  0
  4  5  1  0  0  0  0
  4 28  1  0  0  0  0
  5  6  1  0  0  0  0
  5 24  2  0  0  0  0
  6  7  2  0  0  0  0
  7  8  1  0  0  0  0
  7 29  1  0  0  0  0
  8  9  2  0  0  0  0
  8 30  1  0  0  0  0
  9 10  1  0  0  0  0
  9 24  1  0  0  0  0
 10 11  1  0  0  0  0
 10 23  2  0  0  0  0
 11 12  2  0  0  0  0
 11 31  1  0  0  0  0
 12 13  1  0  0  0  0
 12 32  1  0  0  0  0
 13 14  1  0  0  0  0
 13 22  2  0  0  0  0
 14 15  1  0  0  0  0
 14 33  1  0  0  0  0
 15 16  2  0  0  0  0
 15 17  1  0  0  0  0
 17 18  1  0  0  0  0
 17 34  1  0  0  0  0
 18 19  1  0  0  0  0
 18 21  1  0  0  0  0
 18 35  1  0  0  0  0
 19 20  1  0  0  0  0
 19 36  1  0  0  0  0
 19 37  1  0  0  0  0
 20 21  1  0  0  0  0
 20 38  1  0  0  0  0
 20 39  1  0  0  0  0
 21 40  1  0  0  0  0
 21 41  1  0  0  0  0
 22 23  1  0  0  0  0
 22 42  1  0  0  0  0
 23 43  1  0  0  0  0
M  END
$$$$
