CHEMBL4245780
 OpenBabel04072215383D

 67 70  0  0  0  0  0  0  0  0999 V2000
    1.0149   -0.4344    0.7254 C   0  0  0  0  0  0  0  0  0  0  0  0
    2.4685   -0.3030    0.2821 C   0  0  0  0  0  0  0  0  0  0  0  0
    2.8974   -1.2852   -0.7279 N   0  0  0  0  0  0  0  0  0  0  0  0
    2.0493   -1.3134   -1.9319 C   0  0  0  0  0  0  0  0  0  0  0  0
    2.0976   -0.0746   -2.8213 C   0  0  0  0  0  0  0  0  0  0  0  0
    4.3408   -1.0989   -1.0026 C   0  0  0  0  0  0  0  0  0  0  0  0
    4.9405   -2.1063   -1.9895 C   0  0  0  0  0  0  0  0  0  0  0  0
    6.3481   -1.8704   -2.1389 O   0  0  0  0  0  0  0  0  0  0  0  0
    6.9594   -2.7003   -3.0450 C   0  0  0  0  0  0  0  0  0  0  0  0
    6.3071   -3.3346   -4.0942 C   0  0  0  0  0  0  0  0  0  0  0  0
    7.0058   -4.1636   -4.9694 C   0  0  0  0  0  0  0  0  0  0  0  0
    8.3740   -4.3866   -4.8289 C   0  0  0  0  0  0  0  0  0  0  0  0
    9.1230   -5.1340   -5.7595 N   0  0  0  0  0  0  0  0  0  0  0  0
    8.9052   -5.3158   -7.1433 C   0  0  0  0  0  0  0  0  0  0  0  0
    7.6334   -5.2487   -7.5766 N   0  0  0  0  0  0  0  0  0  0  0  0
    7.3724   -5.2602   -8.8830 C   0  0  0  0  0  0  0  0  0  0  0  0
    5.9765   -5.1127   -9.3058 C   0  0  0  0  0  0  0  0  0  0  0  0
    5.6583   -4.5401  -10.5463 C   0  0  0  0  0  0  0  0  0  0  0  0
    4.3369   -4.3628  -10.9555 C   0  0  0  0  0  0  0  0  0  0  0  0
    3.2853   -4.7633  -10.1285 C   0  0  0  0  0  0  0  0  0  0  0  0
    1.9550   -4.6403  -10.4140 O   0  0  0  0  0  0  0  0  0  0  0  0
    1.6273   -4.0758  -11.6787 C   0  0  0  0  0  0  0  0  0  0  0  0
    3.5774   -5.3350   -8.8949 C   0  0  0  0  0  0  0  0  0  0  0  0
    4.9052   -5.5094   -8.4810 C   0  0  0  0  0  0  0  0  0  0  0  0
    8.3107   -5.3208   -9.8166 N   0  0  0  0  0  0  0  0  0  0  0  0
    9.5811   -5.4126   -9.3657 C   0  0  0  0  0  0  0  0  0  0  0  0
   10.6697   -5.3815  -10.7094 Cl  0  0  0  0  0  0  0  0  0  0  0  0
    9.9889   -5.4471   -8.0279 C   0  0  0  0  0  0  0  0  0  0  0  0
   11.4068   -5.5927   -7.5827 C   0  0  0  0  0  0  0  0  0  0  0  0
   11.9313   -4.8573   -6.5033 C   0  0  0  0  0  0  0  0  0  0  0  0
   13.2133   -5.0973   -5.9935 C   0  0  0  0  0  0  0  0  0  0  0  0
   14.0420   -6.0245   -6.6072 C   0  0  0  0  0  0  0  0  0  0  0  0
   13.5881   -6.7140   -7.7258 C   0  0  0  0  0  0  0  0  0  0  0  0
   12.2794   -6.5198   -8.1864 C   0  0  0  0  0  0  0  0  0  0  0  0
    9.0307   -3.7330   -3.7772 C   0  0  0  0  0  0  0  0  0  0  0  0
    8.3348   -2.8825   -2.8990 C   0  0  0  0  0  0  0  0  0  0  0  0
    0.8429    0.1751    1.6180 H   0  0  0  0  0  0  0  0  0  0  0  0
    0.7635   -1.4710    0.9726 H   0  0  0  0  0  0  0  0  0  0  0  0
    0.3244   -0.0806   -0.0478 H   0  0  0  0  0  0  0  0  0  0  0  0
    3.0863   -0.4414    1.1785 H   0  0  0  0  0  0  0  0  0  0  0  0
    2.6441    0.7223   -0.0648 H   0  0  0  0  0  0  0  0  0  0  0  0
    1.0081   -1.5028   -1.6453 H   0  0  0  0  0  0  0  0  0  0  0  0
    2.3035   -2.1924   -2.5353 H   0  0  0  0  0  0  0  0  0  0  0  0
    1.9495    0.8473   -2.2526 H   0  0  0  0  0  0  0  0  0  0  0  0
    1.3023   -0.1279   -3.5723 H   0  0  0  0  0  0  0  0  0  0  0  0
    3.0498   -0.0027   -3.3555 H   0  0  0  0  0  0  0  0  0  0  0  0
    4.9008   -1.1913   -0.0628 H   0  0  0  0  0  0  0  0  0  0  0  0
    4.5417   -0.0837   -1.3682 H   0  0  0  0  0  0  0  0  0  0  0  0
    4.4416   -1.9638   -2.9504 H   0  0  0  0  0  0  0  0  0  0  0  0
    4.7826   -3.1288   -1.6246 H   0  0  0  0  0  0  0  0  0  0  0  0
    5.2489   -3.2091   -4.2941 H   0  0  0  0  0  0  0  0  0  0  0  0
    6.4341   -4.6411   -5.7536 H   0  0  0  0  0  0  0  0  0  0  0  0
    9.7273   -5.8318   -5.3432 H   0  0  0  0  0  0  0  0  0  0  0  0
    6.4598   -4.2012  -11.2061 H   0  0  0  0  0  0  0  0  0  0  0  0
    4.1647   -3.9057  -11.9236 H   0  0  0  0  0  0  0  0  0  0  0  0
    0.5371   -3.9960  -11.7397 H   0  0  0  0  0  0  0  0  0  0  0  0
    1.9634   -4.7237  -12.4951 H   0  0  0  0  0  0  0  0  0  0  0  0
    2.0375   -3.0666  -11.7820 H   0  0  0  0  0  0  0  0  0  0  0  0
    2.7671   -5.6555   -8.2407 H   0  0  0  0  0  0  0  0  0  0  0  0
    5.1045   -5.9576   -7.5064 H   0  0  0  0  0  0  0  0  0  0  0  0
   11.3405   -4.0820   -6.0171 H   0  0  0  0  0  0  0  0  0  0  0  0
   13.5579   -4.5551   -5.1163 H   0  0  0  0  0  0  0  0  0  0  0  0
   15.0415   -6.2097   -6.2199 H   0  0  0  0  0  0  0  0  0  0  0  0
   14.2409   -7.4183   -8.2330 H   0  0  0  0  0  0  0  0  0  0  0  0
   11.9625   -7.1223   -9.0340 H   0  0  0  0  0  0  0  0  0  0  0  0
   10.1069   -3.8344   -3.6528 H   0  0  0  0  0  0  0  0  0  0  0  0
    8.8661   -2.3670   -2.1085 H   0  0  0  0  0  0  0  0  0  0  0  0
  1  2  1  0  0  0  0
  1 37  1  0  0  0  0
  1 38  1  0  0  0  0
  1 39  1  0  0  0  0
  2  3  1  0  0  0  0
  2 40  1  0  0  0  0
  2 41  1  0  0  0  0
  3  4  1  0  0  0  0
  3  6  1  0  0  0  0
  4  5  1  0  0  0  0
  4 42  1  0  0  0  0
  4 43  1  0  0  0  0
  5 44  1  0  0  0  0
  5 45  1  0  0  0  0
  5 46  1  0  0  0  0
  6  7  1  0  0  0  0
  6 47  1  0  0  0  0
  6 48  1  0  0  0  0
  7  8  1  0  0  0  0
  7 49  1  0  0  0  0
  7 50  1  0  0  0  0
  8  9  1  0  0  0  0
  9 10  1  0  0  0  0
  9 36  2  0  0  0  0
 10 11  2  0  0  0  0
 10 51  1  0  0  0  0
 11 12  1  0  0  0  0
 11 52  1  0  0  0  0
 12 13  1  0  0  0  0
 12 35  2  0  0  0  0
 13 14  1  0  0  0  0
 13 53  1  0  0  0  0
 14 15  1  0  0  0  0
 14 28  2  0  0  0  0
 15 16  2  0  0  0  0
 16 17  1  0  0  0  0
 16 25  1  0  0  0  0
 17 18  1  0  0  0  0
 17 24  2  0  0  0  0
 18 19  2  0  0  0  0
 18 54  1  0  0  0  0
 19 20  1  0  0  0  0
 19 55  1  0  0  0  0
 20 21  1  0  0  0  0
 20 23  2  0  0  0  0
 21 22  1  0  0  0  0
 22 56  1  0  0  0  0
 22 57  1  0  0  0  0
 22 58  1  0  0  0  0
 23 24  1  0  0  0  0
 23 59  1  0  0  0  0
 24 60  1  0  0  0  0
 25 26  2  0  0  0  0
 26 27  1  0  0  0  0
 26 28  1  0  0  0  0
 28 29  1  0  0  0  0
 29 30  1  0  0  0  0
 29 34  2  0  0  0  0
 30 31  2  0  0  0  0
 30 61  1  0  0  0  0
 31 32  1  0  0  0  0
 31 62  1  0  0  0  0
 32 33  2  0  0  0  0
 32 63  1  0  0  0  0
 33 34  1  0  0  0  0
 33 64  1  0  0  0  0
 34 65  1  0  0  0  0
 35 36  1  0  0  0  0
 35 66  1  0  0  0  0
 36 67  1  0  0  0  0
M  END
$$$$
