CHEMBL3681244
 OpenBabel04072215373D

 53 58  0  0  0  0  0  0  0  0999 V2000
   -3.5811   -0.8098   -0.0291 C   0  0  0  0  0  0  0  0  0  0  0  0
   -2.1022   -0.7328    0.0292 C   0  0  0  0  0  0  0  0  0  0  0  0
   -1.2530   -1.7218   -0.1457 N   0  0  0  0  0  0  0  0  0  0  0  0
   -0.0047   -1.1711    0.0149 C   0  0  0  0  0  0  0  0  0  0  0  0
    1.2569   -1.7789   -0.0617 C   0  0  0  0  0  0  0  0  0  0  0  0
    2.3982   -0.9787    0.1420 C   0  0  0  0  0  0  0  0  0  0  0  0
    3.6987   -1.5339    0.0267 N   0  0  0  0  0  0  0  0  0  0  0  0
    4.7412   -0.9983    0.6994 N   0  0  0  0  0  0  0  0  0  0  0  0
    5.7968   -1.7238    0.3486 C   0  0  0  0  0  0  0  0  0  0  0  0
    5.4844   -2.7179   -0.5958 C   0  0  0  0  0  0  0  0  0  0  0  0
    6.3489   -3.5880   -1.3661 C   0  0  0  0  0  0  0  0  0  0  0  0
    6.0279   -3.9469   -2.4942 O   0  0  0  0  0  0  0  0  0  0  0  0
    7.6575   -3.8936   -0.8264 C   0  0  0  0  0  0  0  0  0  0  0  0
    8.7973   -3.9129   -1.6045 C   0  0  0  0  0  0  0  0  0  0  0  0
    9.8757   -4.2180   -0.7655 C   0  0  0  0  0  0  0  0  0  0  0  0
   11.2343   -4.3973   -0.9947 C   0  0  0  0  0  0  0  0  0  0  0  0
   11.3827   -5.7644   -1.0371 C   0  0  0  0  0  0  0  0  0  0  0  0
   11.0711   -6.4924    0.1239 C   0  0  0  0  0  0  0  0  0  0  0  0
   11.8858   -7.7224    0.3109 C   0  0  0  0  0  0  0  0  0  0  0  0
   12.5160   -8.0579    1.5112 C   0  0  0  0  0  0  0  0  0  0  0  0
   13.5752   -8.9902    1.5367 C   0  0  0  0  0  0  0  0  0  0  0  0
   14.0196   -9.6077    0.3628 C   0  0  0  0  0  0  0  0  0  0  0  0
   13.3719   -9.3441   -0.8280 C   0  0  0  0  0  0  0  0  0  0  0  0
   12.3083   -8.4404   -0.8445 C   0  0  0  0  0  0  0  0  0  0  0  0
   10.0303   -5.9634    0.9418 C   0  0  0  0  0  0  0  0  0  0  0  0
    9.3105   -4.8927    0.3281 C   0  0  0  0  0  0  0  0  0  0  0  0
    8.0439   -4.3305    0.4436 N   0  0  0  0  0  0  0  0  0  0  0  0
    4.1218   -2.5718   -0.8123 C   0  0  0  0  0  0  0  0  0  0  0  0
    3.3455   -3.2193   -1.7305 N   0  0  0  0  0  0  0  0  0  0  0  0
    2.2659    0.3791    0.4753 C   0  0  0  0  0  0  0  0  0  0  0  0
    1.0112    0.9981    0.5447 C   0  0  0  0  0  0  0  0  0  0  0  0
   -0.0970    0.1848    0.3090 C   0  0  0  0  0  0  0  0  0  0  0  0
   -1.4428    0.4418    0.2959 N   0  0  0  0  0  0  0  0  0  0  0  0
   -3.9086   -1.8414   -0.1905 H   0  0  0  0  0  0  0  0  0  0  0  0
   -3.9682   -0.1964   -0.8486 H   0  0  0  0  0  0  0  0  0  0  0  0
   -4.0225   -0.4564    0.9086 H   0  0  0  0  0  0  0  0  0  0  0  0
    1.3117   -2.8445   -0.2350 H   0  0  0  0  0  0  0  0  0  0  0  0
    6.7669   -1.4542    0.7453 H   0  0  0  0  0  0  0  0  0  0  0  0
    8.8422   -3.7167   -2.6691 H   0  0  0  0  0  0  0  0  0  0  0  0
   11.8526   -3.9634   -0.1880 H   0  0  0  0  0  0  0  0  0  0  0  0
   11.0865   -6.2585   -1.9729 H   0  0  0  0  0  0  0  0  0  0  0  0
   12.2619   -7.5401    2.4309 H   0  0  0  0  0  0  0  0  0  0  0  0
   14.0950   -9.1956    2.4723 H   0  0  0  0  0  0  0  0  0  0  0  0
   14.8799  -10.2737    0.3785 H   0  0  0  0  0  0  0  0  0  0  0  0
   13.7149   -9.7908   -1.7580 H   0  0  0  0  0  0  0  0  0  0  0  0
   11.8629   -8.2369   -1.8183 H   0  0  0  0  0  0  0  0  0  0  0  0
    9.6544   -6.4865    1.8144 H   0  0  0  0  0  0  0  0  0  0  0  0
    7.4137   -4.4644    1.2244 H   0  0  0  0  0  0  0  0  0  0  0  0
    3.8366   -3.7220   -2.4802 H   0  0  0  0  0  0  0  0  0  0  0  0
    2.5091   -2.7675   -2.1002 H   0  0  0  0  0  0  0  0  0  0  0  0
    3.1540    0.9927    0.6343 H   0  0  0  0  0  0  0  0  0  0  0  0
    0.9175    2.0574    0.7550 H   0  0  0  0  0  0  0  0  0  0  0  0
   -1.8759    1.3373    0.4595 H   0  0  0  0  0  0  0  0  0  0  0  0
  1  2  1  0  0  0  0
  1 34  1  0  0  0  0
  1 35  1  0  0  0  0
  1 36  1  0  0  0  0
  2  3  2  0  0  0  0
  2 33  1  0  0  0  0
  3  4  1  0  0  0  0
  4  5  1  0  0  0  0
  4 32  2  0  0  0  0
  5  6  2  0  0  0  0
  5 37  1  0  0  0  0
  6  7  1  0  0  0  0
  6 30  1  0  0  0  0
  7  8  1  0  0  0  0
  7 28  1  0  0  0  0
  8  9  2  0  0  0  0
  9 10  1  0  0  0  0
  9 38  1  0  0  0  0
 10 11  1  0  0  0  0
 10 28  2  0  0  0  0
 11 12  2  0  0  0  0
 11 13  1  0  0  0  0
 13 14  2  0  0  0  0
 13 27  1  0  0  0  0
 14 15  1  0  0  0  0
 14 39  1  0  0  0  0
 15 16  1  0  0  0  0
 15 26  2  0  0  0  0
 16 17  2  0  0  0  0
 16 40  1  0  0  0  0
 17 18  1  0  0  0  0
 17 41  1  0  0  0  0
 18 19  1  0  0  0  0
 18 25  2  0  0  0  0
 19 20  1  0  0  0  0
 19 24  2  0  0  0  0
 20 21  2  0  0  0  0
 20 42  1  0  0  0  0
 21 22  1  0  0  0  0
 21 43  1  0  0  0  0
 22 23  2  0  0  0  0
 22 44  1  0  0  0  0
 23 24  1  0  0  0  0
 23 45  1  0  0  0  0
 24 46  1  0  0  0  0
 25 26  1  0  0  0  0
 25 47  1  0  0  0  0
 26 27  1  0  0  0  0
 27 48  1  0  0  0  0
 28 29  1  0  0  0  0
 29 49  1  0  0  0  0
 29 50  1  0  0  0  0
 30 31  2  0  0  0  0
 30 51  1  0  0  0  0
 31 32  1  0  0  0  0
 31 52  1  0  0  0  0
 32 33  1  0  0  0  0
 33 53  1  0  0  0  0
M  END
$$$$
