CHEMBL1965495
 OpenBabel04072215363D

 28 30  0  0  0  0  0  0  0  0999 V2000
    2.6644   -2.2165   -0.1671 C   0  0  0  0  0  0  0  0  0  0  0  0
    2.0580   -0.8616   -0.0653 C   0  0  0  0  0  0  0  0  0  0  0  0
    2.9184    0.1698   -0.0646 N   0  0  0  0  0  0  0  0  0  0  0  0
    2.1308    1.2475   -0.0328 N   0  0  0  0  0  0  0  0  0  0  0  0
    0.8033    0.9582   -0.0004 C   0  0  0  0  0  0  0  0  0  0  0  0
   -0.1615    1.8903    0.0011 N   0  0  0  0  0  0  0  0  0  0  0  0
   -1.3943    1.3605    0.0507 C   0  0  0  0  0  0  0  0  0  0  0  0
   -1.6947   -0.0009    0.1207 C   0  0  0  0  0  0  0  0  0  0  0  0
   -3.0835   -0.3185    0.2257 C   0  0  0  0  0  0  0  0  0  0  0  0
   -4.2296   -0.5307    0.2798 N   0  0  0  0  0  0  0  0  0  0  0  0
   -0.6512   -0.9722    0.1025 C   0  0  0  0  0  0  0  0  0  0  0  0
   -0.8937   -2.4425    0.1605 C   0  0  0  0  0  0  0  0  0  0  0  0
   -1.9691   -3.0683   -0.5023 C   0  0  0  0  0  0  0  0  0  0  0  0
   -2.1681   -4.4553   -0.4541 C   0  0  0  0  0  0  0  0  0  0  0  0
   -1.2467   -5.2699    0.1884 C   0  0  0  0  0  0  0  0  0  0  0  0
   -0.1829   -4.6874    0.8609 C   0  0  0  0  0  0  0  0  0  0  0  0
   -0.0590   -3.2934    0.9016 C   0  0  0  0  0  0  0  0  0  0  0  0
    0.6795   -0.4315    0.0248 C   0  0  0  0  0  0  0  0  0  0  0  0
    3.7125   -2.1550   -0.4853 H   0  0  0  0  0  0  0  0  0  0  0  0
    2.1391   -2.8338   -0.8998 H   0  0  0  0  0  0  0  0  0  0  0  0
    2.6781   -2.7164    0.8051 H   0  0  0  0  0  0  0  0  0  0  0  0
    2.5501    2.1685   -0.0442 H   0  0  0  0  0  0  0  0  0  0  0  0
   -2.1905    2.1047    0.0381 H   0  0  0  0  0  0  0  0  0  0  0  0
   -2.6948   -2.4988   -1.0784 H   0  0  0  0  0  0  0  0  0  0  0  0
   -3.0397   -4.8948   -0.9348 H   0  0  0  0  0  0  0  0  0  0  0  0
   -1.3667   -6.3500    0.1790 H   0  0  0  0  0  0  0  0  0  0  0  0
    0.5493   -5.3121    1.3671 H   0  0  0  0  0  0  0  0  0  0  0  0
    0.7221   -2.8786    1.5309 H   0  0  0  0  0  0  0  0  0  0  0  0
  1  2  1  0  0  0  0
  1 19  1  0  0  0  0
  1 20  1  0  0  0  0
  1 21  1  0  0  0  0
  2  3  2  0  0  0  0
  2 18  1  0  0  0  0
  3  4  1  0  0  0  0
  4  5  1  0  0  0  0
  4 22  1  0  0  0  0
  5  6  1  0  0  0  0
  5 18  2  0  0  0  0
  6  7  2  0  0  0  0
  7  8  1  0  0  0  0
  7 23  1  0  0  0  0
  8  9  1  0  0  0  0
  8 11  2  0  0  0  0
  9 10  3  0  0  0  0
 11 12  1  0  0  0  0
 11 18  1  0  0  0  0
 12 13  1  0  0  0  0
 12 17  2  0  0  0  0
 13 14  2  0  0  0  0
 13 24  1  0  0  0  0
 14 15  1  0  0  0  0
 14 25  1  0  0  0  0
 15 16  2  0  0  0  0
 15 26  1  0  0  0  0
 16 17  1  0  0  0  0
 16 27  1  0  0  0  0
 17 28  1  0  0  0  0
M  END
$$$$
