CHEMBL3740781
 OpenBabel04072215373D

 62 66  0  0  0  0  0  0  0  0999 V2000
   10.8112   -8.0162   -1.5738 C   0  0  0  0  0  0  0  0  0  0  0  0
   12.5821   -7.8357   -1.4667 S   0  0  0  0  0  0  0  0  0  0  0  0
   12.8967   -7.2970   -0.1574 O   0  0  0  0  0  0  0  0  0  0  0  0
   13.1403   -9.1141   -1.8959 O   0  0  0  0  0  0  0  0  0  0  0  0
   13.0022   -6.6408   -2.7283 C   0  0  0  0  0  0  0  0  0  0  0  0
   12.2380   -5.3506   -2.5782 C   0  0  0  0  0  0  0  0  0  0  0  0
   11.3765   -4.9376   -3.6038 C   0  0  0  0  0  0  0  0  0  0  0  0
   10.7130   -3.7102   -3.5148 C   0  0  0  0  0  0  0  0  0  0  0  0
   10.9061   -2.9025   -2.3908 C   0  0  0  0  0  0  0  0  0  0  0  0
   11.7239   -3.2923   -1.3298 C   0  0  0  0  0  0  0  0  0  0  0  0
   11.9604   -2.4670   -0.2020 N   0  0  0  0  0  0  0  0  0  0  0  0
   11.1033   -1.4727    0.3359 C   0  0  0  0  0  0  0  0  0  0  0  0
   11.5914   -0.6248    1.3183 C   0  0  0  0  0  0  0  0  0  0  0  0
   10.7422    0.3735    1.7475 C   0  0  0  0  0  0  0  0  0  0  0  0
   11.1831    1.1869    2.7999 O   0  0  0  0  0  0  0  0  0  0  0  0
   10.2426    1.8911    3.5297 C   0  0  0  0  0  0  0  0  0  0  0  0
    8.9222    1.4675    3.6898 C   0  0  0  0  0  0  0  0  0  0  0  0
    7.9722    2.3251    4.2381 C   0  0  0  0  0  0  0  0  0  0  0  0
    8.3688    3.5354    4.8123 C   0  0  0  0  0  0  0  0  0  0  0  0
    7.4713    4.3156    5.5312 C   0  0  0  0  0  0  0  0  0  0  0  0
    7.4420    5.8530    5.3677 C   0  0  0  0  0  0  0  0  0  0  0  0
    6.6494    6.4675    6.0845 O   0  0  0  0  0  0  0  0  0  0  0  0
    8.3441    6.4630    4.4943 N   0  0  0  0  0  0  0  0  0  0  0  0
    8.7372    7.8415    4.4994 C   0  0  0  0  0  0  0  0  0  0  0  0
    8.3493    8.7689    5.4713 C   0  0  0  0  0  0  0  0  0  0  0  0
    8.8074   10.0941    5.4353 C   0  0  0  0  0  0  0  0  0  0  0  0
    9.6679   10.5222    4.4283 C   0  0  0  0  0  0  0  0  0  0  0  0
   10.0745    9.6117    3.4567 C   0  0  0  0  0  0  0  0  0  0  0  0
    9.6184    8.2832    3.4987 C   0  0  0  0  0  0  0  0  0  0  0  0
    7.6426    4.0878    6.8819 C   0  0  0  0  0  0  0  0  0  0  0  0
    8.9618    4.1424    7.3344 C   0  0  0  0  0  0  0  0  0  0  0  0
   10.0206    4.0970    6.4023 C   0  0  0  0  0  0  0  0  0  0  0  0
    9.7303    3.6388    5.1074 C   0  0  0  0  0  0  0  0  0  0  0  0
   10.6700    2.9900    4.2812 C   0  0  0  0  0  0  0  0  0  0  0  0
    9.5281    0.5812    1.2075 N   0  0  0  0  0  0  0  0  0  0  0  0
    9.1260   -0.3143    0.3113 C   0  0  0  0  0  0  0  0  0  0  0  0
    9.8520   -1.3368   -0.1389 N   0  0  0  0  0  0  0  0  0  0  0  0
   12.4205   -4.5062   -1.4649 C   0  0  0  0  0  0  0  0  0  0  0  0
   10.5129   -8.7760   -0.8466 H   0  0  0  0  0  0  0  0  0  0  0  0
   10.5544   -8.3503   -2.5802 H   0  0  0  0  0  0  0  0  0  0  0  0
   10.3312   -7.0701   -1.3328 H   0  0  0  0  0  0  0  0  0  0  0  0
   12.7867   -7.1171   -3.6917 H   0  0  0  0  0  0  0  0  0  0  0  0
   14.0791   -6.4564   -2.6754 H   0  0  0  0  0  0  0  0  0  0  0  0
   11.2292   -5.5443   -4.4946 H   0  0  0  0  0  0  0  0  0  0  0  0
   10.0641   -3.3800   -4.3182 H   0  0  0  0  0  0  0  0  0  0  0  0
   10.3903   -1.9408   -2.3761 H   0  0  0  0  0  0  0  0  0  0  0  0
   12.4461   -2.9602    0.5386 H   0  0  0  0  0  0  0  0  0  0  0  0
   12.5856   -0.7292    1.7282 H   0  0  0  0  0  0  0  0  0  0  0  0
    8.6077    0.4758    3.3767 H   0  0  0  0  0  0  0  0  0  0  0  0
    6.9414    1.9830    4.3070 H   0  0  0  0  0  0  0  0  0  0  0  0
    8.8262    5.8711    3.8290 H   0  0  0  0  0  0  0  0  0  0  0  0
    7.7047    8.4858    6.2950 H   0  0  0  0  0  0  0  0  0  0  0  0
    8.4909   10.7959    6.2063 H   0  0  0  0  0  0  0  0  0  0  0  0
   10.0112   11.5556    4.3940 H   0  0  0  0  0  0  0  0  0  0  0  0
   10.7404    9.9384    2.6613 H   0  0  0  0  0  0  0  0  0  0  0  0
    9.9595    7.6018    2.7239 H   0  0  0  0  0  0  0  0  0  0  0  0
    6.7915    4.1266    7.5530 H   0  0  0  0  0  0  0  0  0  0  0  0
    9.1531    4.2146    8.3998 H   0  0  0  0  0  0  0  0  0  0  0  0
   11.0420    4.1734    6.7595 H   0  0  0  0  0  0  0  0  0  0  0  0
   11.7291    3.2157    4.3592 H   0  0  0  0  0  0  0  0  0  0  0  0
    8.1194   -0.2108   -0.0778 H   0  0  0  0  0  0  0  0  0  0  0  0
   13.1224   -4.7996   -0.6856 H   0  0  0  0  0  0  0  0  0  0  0  0
  1  2  1  0  0  0  0
  1 39  1  0  0  0  0
  1 40  1  0  0  0  0
  1 41  1  0  0  0  0
  2  3  2  0  0  0  0
  2  4  2  0  0  0  0
  2  5  1  0  0  0  0
  5  6  1  0  0  0  0
  5 42  1  0  0  0  0
  5 43  1  0  0  0  0
  6  7  1  0  0  0  0
  6 38  2  0  0  0  0
  7  8  2  0  0  0  0
  7 44  1  0  0  0  0
  8  9  1  0  0  0  0
  8 45  1  0  0  0  0
  9 10  2  0  0  0  0
  9 46  1  0  0  0  0
 10 11  1  0  0  0  0
 10 38  1  0  0  0  0
 11 12  1  0  0  0  0
 11 47  1  0  0  0  0
 12 13  1  0  0  0  0
 12 37  2  0  0  0  0
 13 14  2  0  0  0  0
 13 48  1  0  0  0  0
 14 15  1  0  0  0  0
 14 35  1  0  0  0  0
 15 16  1  0  0  0  0
 16 17  1  0  0  0  0
 16 34  2  0  0  0  0
 17 18  2  0  0  0  0
 17 49  1  0  0  0  0
 18 19  1  0  0  0  0
 18 50  1  0  0  0  0
 19 20  1  0  0  0  0
 19 33  2  0  0  0  0
 20 21  1  0  0  0  0
 20 30  2  0  0  0  0
 21 22  2  0  0  0  0
 21 23  1  0  0  0  0
 23 24  1  0  0  0  0
 23 51  1  0  0  0  0
 24 25  1  0  0  0  0
 24 29  2  0  0  0  0
 25 26  2  0  0  0  0
 25 52  1  0  0  0  0
 26 27  1  0  0  0  0
 26 53  1  0  0  0  0
 27 28  2  0  0  0  0
 27 54  1  0  0  0  0
 28 29  1  0  0  0  0
 28 55  1  0  0  0  0
 29 56  1  0  0  0  0
 30 31  1  0  0  0  0
 30 57  1  0  0  0  0
 31 32  2  0  0  0  0
 31 58  1  0  0  0  0
 32 33  1  0  0  0  0
 32 59  1  0  0  0  0
 33 34  1  0  0  0  0
 34 60  1  0  0  0  0
 35 36  2  0  0  0  0
 36 37  1  0  0  0  0
 36 61  1  0  0  0  0
 38 62  1  0  0  0  0
M  END
$$$$
