CHEMBL3953910
 OpenBabel04072215373D

 72 76  0  0  1  0  0  0  0  0999 V2000
   -0.9264   -0.1491   -2.5880 C   0  0  0  0  0  0  0  0  0  0  0  0
    0.3898   -0.3689   -1.8158 C   0  0  3  0  0  0  0  0  0  0  0  0
    1.4882    0.4661   -2.4941 C   0  0  0  0  0  0  0  0  0  0  0  0
    1.4050    1.8695   -2.4937 C   0  0  0  0  0  0  0  0  0  0  0  0
    2.4890    2.6812   -2.8317 C   0  0  0  0  0  0  0  0  0  0  0  0
    2.4544    4.0901   -2.6370 N   0  0  0  0  0  0  0  0  0  0  0  0
    1.6121    4.7096   -1.7206 C   0  0  0  0  0  0  0  0  0  0  0  0
    0.8745    4.1225   -0.9404 O   0  0  0  0  0  0  0  0  0  0  0  0
    1.6779    6.0971   -1.7883 N   0  0  0  0  0  0  0  0  0  0  0  0
    0.9326    6.8994   -0.8815 C   0  0  0  0  0  0  0  0  0  0  0  0
    0.8096    6.5553    0.4729 C   0  0  0  0  0  0  0  0  0  0  0  0
    0.0127    7.3096    1.3434 C   0  0  0  0  0  0  0  0  0  0  0  0
   -0.6332    8.4581    0.8804 C   0  0  0  0  0  0  0  0  0  0  0  0
   -1.4450    9.2495    1.6728 O   0  0  0  0  0  0  0  0  0  0  0  0
   -1.0684    9.5365    2.9717 C   0  0  0  0  0  0  0  0  0  0  0  0
    0.2565    9.5720    3.3973 C   0  0  0  0  0  0  0  0  0  0  0  0
    0.4964    9.8244    4.7276 C   0  0  0  0  0  0  0  0  0  0  0  0
   -0.4720   10.0976    5.6147 N   0  0  0  0  0  0  0  0  0  0  0  0
   -1.7499   10.1393    5.1979 C   0  0  0  0  0  0  0  0  0  0  0  0
   -2.7571   10.4773    6.1219 N   0  0  0  0  0  0  0  0  0  0  0  0
   -2.5072   10.7362    7.4617 C   0  0  0  0  0  0  0  0  0  0  0  0
   -1.4366   10.6877    8.0426 O   0  0  0  0  0  0  0  0  0  0  0  0
   -3.7286   11.1049    8.2562 C   0  0  0  0  0  0  0  0  0  0  0  0
   -3.5951   12.1115    9.3824 C   0  0  0  0  0  0  0  0  0  0  0  0
   -3.8286   10.6644    9.7034 C   0  0  0  0  0  0  0  0  0  0  0  0
   -2.0893    9.8607    3.8765 C   0  0  0  0  0  0  0  0  0  0  0  0
   -0.5158    8.7891   -0.4703 C   0  0  0  0  0  0  0  0  0  0  0  0
   -1.1873    9.8421   -0.9629 F   0  0  0  0  0  0  0  0  0  0  0  0
    0.2770    8.0383   -1.3466 C   0  0  0  0  0  0  0  0  0  0  0  0
    3.6501    2.0718   -3.3137 C   0  0  0  0  0  0  0  0  0  0  0  0
    3.7482    0.6646   -3.3837 C   0  0  0  0  0  0  0  0  0  0  0  0
    5.0142   -0.0217   -3.8370 C   0  0  0  0  0  0  0  0  0  0  0  0
    6.0136    0.8394   -4.1754 F   0  0  0  0  0  0  0  0  0  0  0  0
    5.5338   -0.8363   -2.8761 F   0  0  0  0  0  0  0  0  0  0  0  0
    4.8156   -0.8129   -4.9272 F   0  0  0  0  0  0  0  0  0  0  0  0
    2.6648   -0.1275   -2.9603 C   0  0  0  0  0  0  0  0  0  0  0  0
    0.2969   -0.0169   -0.3730 N   0  0  0  0  0  0  0  0  0  0  0  0
    1.5789   -0.1937    0.3532 C   0  0  0  0  0  0  0  0  0  0  0  0
    1.9480   -1.6689    0.6123 C   0  0  0  0  0  0  0  0  0  0  0  0
    0.9292   -2.3598    1.4180 N   0  0  0  0  0  0  0  0  0  0  0  0
   -0.3973   -2.1895    0.7971 C   0  0  0  0  0  0  0  0  0  0  0  0
   -0.7446   -0.7359    0.3877 C   0  0  0  0  0  0  0  0  0  0  0  0
   -0.7934   -0.3947   -3.6488 H   0  0  0  0  0  0  0  0  0  0  0  0
   -1.2747    0.8887   -2.5357 H   0  0  0  0  0  0  0  0  0  0  0  0
   -1.7338   -0.7880   -2.2200 H   0  0  0  0  0  0  0  0  0  0  0  0
    0.6405   -1.4314   -1.9230 H   0  0  0  0  0  0  0  0  0  0  0  0
    0.4709    2.3112   -2.1500 H   0  0  0  0  0  0  0  0  0  0  0  0
    3.2843    4.6088   -2.8912 H   0  0  0  0  0  0  0  0  0  0  0  0
    1.8244    6.4666   -2.7174 H   0  0  0  0  0  0  0  0  0  0  0  0
    1.3234    5.6809    0.8705 H   0  0  0  0  0  0  0  0  0  0  0  0
   -0.0895    6.9804    2.3748 H   0  0  0  0  0  0  0  0  0  0  0  0
    1.0919    9.3898    2.7332 H   0  0  0  0  0  0  0  0  0  0  0  0
    1.5026    9.8128    5.1372 H   0  0  0  0  0  0  0  0  0  0  0  0
   -3.7034   10.5354    5.7822 H   0  0  0  0  0  0  0  0  0  0  0  0
   -4.6629   11.1348    7.7052 H   0  0  0  0  0  0  0  0  0  0  0  0
   -4.4067   12.8064    9.5588 H   0  0  0  0  0  0  0  0  0  0  0  0
   -2.6114   12.5199    9.5946 H   0  0  0  0  0  0  0  0  0  0  0  0
   -4.7974   10.3834   10.0966 H   0  0  0  0  0  0  0  0  0  0  0  0
   -3.0001   10.1059   10.1295 H   0  0  0  0  0  0  0  0  0  0  0  0
   -3.1200    9.8890    3.5390 H   0  0  0  0  0  0  0  0  0  0  0  0
    0.3141    8.3256   -2.3926 H   0  0  0  0  0  0  0  0  0  0  0  0
    4.5119    2.6760   -3.5923 H   0  0  0  0  0  0  0  0  0  0  0  0
    2.7658   -1.2125   -2.9458 H   0  0  0  0  0  0  0  0  0  0  0  0
    1.4910    0.3205    1.3205 H   0  0  0  0  0  0  0  0  0  0  0  0
    2.4133    0.3131   -0.1412 H   0  0  0  0  0  0  0  0  0  0  0  0
    2.9035   -1.7122    1.1468 H   0  0  0  0  0  0  0  0  0  0  0  0
    2.0990   -2.2076   -0.3304 H   0  0  0  0  0  0  0  0  0  0  0  0
    0.9072   -1.9117    2.3352 H   0  0  0  0  0  0  0  0  0  0  0  0
   -1.1485   -2.5376    1.5162 H   0  0  0  0  0  0  0  0  0  0  0  0
   -0.4685   -2.8487   -0.0749 H   0  0  0  0  0  0  0  0  0  0  0  0
   -0.9152   -0.1630    1.3101 H   0  0  0  0  0  0  0  0  0  0  0  0
   -1.7125   -0.7193   -0.1212 H   0  0  0  0  0  0  0  0  0  0  0  0
  1  2  1  0  0  0  0
  1 43  1  0  0  0  0
  1 44  1  0  0  0  0
  1 45  1  0  0  0  0
  2  3  1  0  0  0  0
  2 37  1  0  0  0  0
  2 46  1  0  0  0  0
  3  4  1  0  0  0  0
  3 36  2  0  0  0  0
  4  5  2  0  0  0  0
  4 47  1  0  0  0  0
  5  6  1  0  0  0  0
  5 30  1  0  0  0  0
  6  7  1  0  0  0  0
  6 48  1  0  0  0  0
  7  8  2  0  0  0  0
  7  9  1  0  0  0  0
  9 10  1  0  0  0  0
  9 49  1  0  0  0  0
 10 11  1  0  0  0  0
 10 29  2  0  0  0  0
 11 12  2  0  0  0  0
 11 50  1  0  0  0  0
 12 13  1  0  0  0  0
 12 51  1  0  0  0  0
 13 14  1  0  0  0  0
 13 27  2  0  0  0  0
 14 15  1  0  0  0  0
 15 16  1  0  0  0  0
 15 26  2  0  0  0  0
 16 17  2  0  0  0  0
 16 52  1  0  0  0  0
 17 18  1  0  0  0  0
 17 53  1  0  0  0  0
 18 19  2  0  0  0  0
 19 20  1  0  0  0  0
 19 26  1  0  0  0  0
 20 21  1  0  0  0  0
 20 54  1  0  0  0  0
 21 22  2  0  0  0  0
 21 23  1  0  0  0  0
 23 24  1  0  0  0  0
 23 25  1  0  0  0  0
 23 55  1  0  0  0  0
 24 25  1  0  0  0  0
 24 56  1  0  0  0  0
 24 57  1  0  0  0  0
 25 58  1  0  0  0  0
 25 59  1  0  0  0  0
 26 60  1  0  0  0  0
 27 28  1  0  0  0  0
 27 29  1  0  0  0  0
 29 61  1  0  0  0  0
 30 31  2  0  0  0  0
 30 62  1  0  0  0  0
 31 32  1  0  0  0  0
 31 36  1  0  0  0  0
 32 33  1  0  0  0  0
 32 34  1  0  0  0  0
 32 35  1  0  0  0  0
 36 63  1  0  0  0  0
 37 38  1  0  0  0  0
 37 42  1  0  0  0  0
 38 39  1  0  0  0  0
 38 64  1  0  0  0  0
 38 65  1  0  0  0  0
 39 40  1  0  0  0  0
 39 66  1  0  0  0  0
 39 67  1  0  0  0  0
 40 41  1  0  0  0  0
 40 68  1  0  0  0  0
 41 42  1  0  0  0  0
 41 69  1  0  0  0  0
 41 70  1  0  0  0  0
 42 71  1  0  0  0  0
 42 72  1  0  0  0  0
M  END
$$$$
