CHEMBL4286642
 OpenBabel04072215383D

 40 43  0  0  0  0  0  0  0  0999 V2000
    2.8444    1.7152   -1.3732 C   0  0  0  0  0  0  0  0  0  0  0  0
    3.0201    0.3228   -0.2244 S   0  0  0  0  0  0  0  0  0  0  0  0
    3.4397   -0.9522   -1.3841 C   0  0  0  0  0  0  0  0  0  0  0  0
    3.0480   -2.2030   -1.0989 N   0  0  0  0  0  0  0  0  0  0  0  0
    3.3074   -3.1382   -2.0372 C   0  0  0  0  0  0  0  0  0  0  0  0
    3.9344   -2.8726   -3.2375 C   0  0  0  0  0  0  0  0  0  0  0  0
    4.2754   -1.5442   -3.4410 C   0  0  0  0  0  0  0  0  0  0  0  0
    4.0741   -0.5933   -2.5072 N   0  0  0  0  0  0  0  0  0  0  0  0
    4.7459   -1.0549   -4.6687 N   0  0  0  0  0  0  0  0  0  0  0  0
    4.0890   -1.3853   -5.8004 C   0  0  0  0  0  0  0  0  0  0  0  0
    3.6644   -0.5090   -6.7124 N   0  0  0  0  0  0  0  0  0  0  0  0
    2.9538   -1.2642   -7.5695 N   0  0  0  0  0  0  0  0  0  0  0  0
    2.9075   -2.5931   -7.2440 C   0  0  0  0  0  0  0  0  0  0  0  0
    2.1735   -3.5961   -8.0408 C   0  0  0  0  0  0  0  0  0  0  0  0
    3.6658   -2.6955   -6.1085 C   0  0  0  0  0  0  0  0  0  0  0  0
    4.0282   -3.8959   -5.5092 N   0  0  0  0  0  0  0  0  0  0  0  0
    4.2022   -3.9657   -4.2221 C   0  0  0  0  0  0  0  0  0  0  0  0
    4.7699   -5.2789   -3.7072 C   0  0  0  0  0  0  0  0  0  0  0  0
    5.6558   -5.2473   -2.6121 C   0  0  0  0  0  0  0  0  0  0  0  0
    6.2958   -6.4073   -2.1700 C   0  0  0  0  0  0  0  0  0  0  0  0
    6.0854   -7.6108   -2.8306 C   0  0  0  0  0  0  0  0  0  0  0  0
    5.2137   -7.6625   -3.9161 C   0  0  0  0  0  0  0  0  0  0  0  0
    4.5349   -6.5122   -4.3616 C   0  0  0  0  0  0  0  0  0  0  0  0
    3.5968   -6.6677   -5.5300 C   0  0  0  0  0  0  0  0  0  0  0  0
    2.4776    2.5892   -0.8281 H   0  0  0  0  0  0  0  0  0  0  0  0
    2.1265    1.4797   -2.1650 H   0  0  0  0  0  0  0  0  0  0  0  0
    3.8079    1.9743   -1.8220 H   0  0  0  0  0  0  0  0  0  0  0  0
    2.9640   -4.1371   -1.7807 H   0  0  0  0  0  0  0  0  0  0  0  0
    4.8849   -0.0553   -4.5638 H   0  0  0  0  0  0  0  0  0  0  0  0
    2.5205   -0.8052   -8.3620 H   0  0  0  0  0  0  0  0  0  0  0  0
    1.6016   -3.1288   -8.8487 H   0  0  0  0  0  0  0  0  0  0  0  0
    1.4675   -4.1413   -7.4053 H   0  0  0  0  0  0  0  0  0  0  0  0
    2.8648   -4.3184   -8.4850 H   0  0  0  0  0  0  0  0  0  0  0  0
    5.8967   -4.3181   -2.1015 H   0  0  0  0  0  0  0  0  0  0  0  0
    6.9799   -6.3644   -1.3260 H   0  0  0  0  0  0  0  0  0  0  0  0
    6.6071   -8.5092   -2.5102 H   0  0  0  0  0  0  0  0  0  0  0  0
    5.0717   -8.6139   -4.4263 H   0  0  0  0  0  0  0  0  0  0  0  0
    3.4720   -7.7212   -5.8046 H   0  0  0  0  0  0  0  0  0  0  0  0
    3.9835   -6.1620   -6.4192 H   0  0  0  0  0  0  0  0  0  0  0  0
    2.6031   -6.2861   -5.2744 H   0  0  0  0  0  0  0  0  0  0  0  0
  1  2  1  0  0  0  0
  1 25  1  0  0  0  0
  1 26  1  0  0  0  0
  1 27  1  0  0  0  0
  2  3  1  0  0  0  0
  3  4  1  0  0  0  0
  3  8  2  0  0  0  0
  4  5  2  0  0  0  0
  5  6  1  0  0  0  0
  5 28  1  0  0  0  0
  6  7  2  0  0  0  0
  6 17  1  0  0  0  0
  7  8  1  0  0  0  0
  7  9  1  0  0  0  0
  9 10  1  0  0  0  0
  9 29  1  0  0  0  0
 10 11  2  0  0  0  0
 10 15  1  0  0  0  0
 11 12  1  0  0  0  0
 12 13  1  0  0  0  0
 12 30  1  0  0  0  0
 13 14  1  0  0  0  0
 13 15  2  0  0  0  0
 14 31  1  0  0  0  0
 14 32  1  0  0  0  0
 14 33  1  0  0  0  0
 15 16  1  0  0  0  0
 16 17  2  0  0  0  0
 17 18  1  0  0  0  0
 18 19  1  0  0  0  0
 18 23  2  0  0  0  0
 19 20  2  0  0  0  0
 19 34  1  0  0  0  0
 20 21  1  0  0  0  0
 20 35  1  0  0  0  0
 21 22  2  0  0  0  0
 21 36  1  0  0  0  0
 22 23  1  0  0  0  0
 22 37  1  0  0  0  0
 23 24  1  0  0  0  0
 24 38  1  0  0  0  0
 24 39  1  0  0  0  0
 24 40  1  0  0  0  0
M  END
$$$$
