CHEMBL511843
 OpenBabel04072215383D

 52 55  0  0  0  0  0  0  0  0999 V2000
    5.7346    4.0696   -2.7395 C   0  0  0  0  0  0  0  0  0  0  0  0
    5.7603    2.7868   -2.0915 N   0  0  0  0  0  0  0  0  0  0  0  0
    4.6811    2.3182   -1.3775 C   0  0  0  0  0  0  0  0  0  0  0  0
    3.6458    2.9604   -1.2367 O   0  0  0  0  0  0  0  0  0  0  0  0
    4.8495    1.0038   -0.7919 C   0  0  0  0  0  0  0  0  0  0  0  0
    3.8800    0.2929   -0.0562 C   0  0  0  0  0  0  0  0  0  0  0  0
    4.2988   -0.9034    0.3539 N   0  0  0  0  0  0  0  0  0  0  0  0
    5.5687   -0.9995   -0.1356 N   0  0  0  0  0  0  0  0  0  0  0  0
    6.4550   -2.0979    0.0271 C   0  0  0  0  0  0  0  0  0  0  0  0
    5.9529   -3.2186    0.6887 N   0  0  0  0  0  0  0  0  0  0  0  0
    7.7099   -1.9802   -0.4588 C   0  0  0  0  0  0  0  0  0  0  0  0
    8.7268   -3.0330   -0.3612 C   0  0  0  0  0  0  0  0  0  0  0  0
    8.8132   -4.0057   -1.3580 C   0  0  0  0  0  0  0  0  0  0  0  0
    9.7907   -5.0017   -1.2880 C   0  0  0  0  0  0  0  0  0  0  0  0
   10.7024   -5.0426   -0.2284 C   0  0  0  0  0  0  0  0  0  0  0  0
   11.7279   -6.0138   -0.1506 N   0  0  0  0  0  0  0  0  0  0  0  0
   12.2605   -6.6694   -1.2506 C   0  0  0  0  0  0  0  0  0  0  0  0
   12.0051   -6.3909   -2.4169 O   0  0  0  0  0  0  0  0  0  0  0  0
   13.1097   -7.7001   -0.8683 N   0  0  0  0  0  0  0  0  0  0  0  0
   13.8107   -8.4605   -1.8343 C   0  0  0  0  0  0  0  0  0  0  0  0
   14.4501   -7.8496   -2.9173 C   0  0  0  0  0  0  0  0  0  0  0  0
   15.0996   -8.6214   -3.8802 C   0  0  0  0  0  0  0  0  0  0  0  0
   15.0906  -10.0113   -3.7804 C   0  0  0  0  0  0  0  0  0  0  0  0
   14.4488  -10.6379   -2.7054 C   0  0  0  0  0  0  0  0  0  0  0  0
   14.3574  -12.1338   -2.6372 C   0  0  0  0  0  0  0  0  0  0  0  0
   13.8432   -9.8522   -1.7113 C   0  0  0  0  0  0  0  0  0  0  0  0
   10.5835   -4.0997    0.7972 C   0  0  0  0  0  0  0  0  0  0  0  0
    9.6085   -3.0927    0.7255 C   0  0  0  0  0  0  0  0  0  0  0  0
    8.0067   -0.7006   -1.1805 C   0  0  0  0  0  0  0  0  0  0  0  0
    7.2015    0.3061   -1.3566 N   0  0  0  0  0  0  0  0  0  0  0  0
    5.9503    0.1643   -0.8151 C   0  0  0  0  0  0  0  0  0  0  0  0
    6.6306    4.1729   -3.3549 H   0  0  0  0  0  0  0  0  0  0  0  0
    5.7096    4.8550   -1.9793 H   0  0  0  0  0  0  0  0  0  0  0  0
    4.8413    4.1472   -3.3657 H   0  0  0  0  0  0  0  0  0  0  0  0
    6.5974    2.2101   -2.1222 H   0  0  0  0  0  0  0  0  0  0  0  0
    2.8766    0.6149    0.1936 H   0  0  0  0  0  0  0  0  0  0  0  0
    5.1181   -2.9929    1.2364 H   0  0  0  0  0  0  0  0  0  0  0  0
    6.6464   -3.7691    1.1853 H   0  0  0  0  0  0  0  0  0  0  0  0
    8.1234   -4.0051   -2.1998 H   0  0  0  0  0  0  0  0  0  0  0  0
    9.8123   -5.7464   -2.0798 H   0  0  0  0  0  0  0  0  0  0  0  0
   12.3145   -6.0080    0.6716 H   0  0  0  0  0  0  0  0  0  0  0  0
   12.8126   -8.1931   -0.0384 H   0  0  0  0  0  0  0  0  0  0  0  0
   14.4467   -6.7677   -3.0255 H   0  0  0  0  0  0  0  0  0  0  0  0
   15.5911   -8.1370   -4.7199 H   0  0  0  0  0  0  0  0  0  0  0  0
   15.5732  -10.6003   -4.5572 H   0  0  0  0  0  0  0  0  0  0  0  0
   14.8527  -12.6061   -3.4922 H   0  0  0  0  0  0  0  0  0  0  0  0
   13.3064  -12.4426   -2.6528 H   0  0  0  0  0  0  0  0  0  0  0  0
   14.8297  -12.5034   -1.7228 H   0  0  0  0  0  0  0  0  0  0  0  0
   13.3347  -10.3421   -0.8855 H   0  0  0  0  0  0  0  0  0  0  0  0
   11.2618   -4.1117    1.6464 H   0  0  0  0  0  0  0  0  0  0  0  0
    9.5509   -2.3530    1.5216 H   0  0  0  0  0  0  0  0  0  0  0  0
    9.0231   -0.6291   -1.6058 H   0  0  0  0  0  0  0  0  0  0  0  0
  1  2  1  0  0  0  0
  1 32  1  0  0  0  0
  1 33  1  0  0  0  0
  1 34  1  0  0  0  0
  2  3  1  0  0  0  0
  2 35  1  0  0  0  0
  3  4  2  0  0  0  0
  3  5  1  0  0  0  0
  5  6  1  0  0  0  0
  5 31  2  0  0  0  0
  6  7  2  0  0  0  0
  6 36  1  0  0  0  0
  7  8  1  0  0  0  0
  8  9  1  0  0  0  0
  8 31  1  0  0  0  0
  9 10  1  0  0  0  0
  9 11  2  0  0  0  0
 10 37  1  0  0  0  0
 10 38  1  0  0  0  0
 11 12  1  0  0  0  0
 11 29  1  0  0  0  0
 12 13  1  0  0  0  0
 12 28  2  0  0  0  0
 13 14  2  0  0  0  0
 13 39  1  0  0  0  0
 14 15  1  0  0  0  0
 14 40  1  0  0  0  0
 15 16  1  0  0  0  0
 15 27  2  0  0  0  0
 16 17  1  0  0  0  0
 16 41  1  0  0  0  0
 17 18  2  0  0  0  0
 17 19  1  0  0  0  0
 19 20  1  0  0  0  0
 19 42  1  0  0  0  0
 20 21  1  0  0  0  0
 20 26  2  0  0  0  0
 21 22  2  0  0  0  0
 21 43  1  0  0  0  0
 22 23  1  0  0  0  0
 22 44  1  0  0  0  0
 23 24  2  0  0  0  0
 23 45  1  0  0  0  0
 24 25  1  0  0  0  0
 24 26  1  0  0  0  0
 25 46  1  0  0  0  0
 25 47  1  0  0  0  0
 25 48  1  0  0  0  0
 26 49  1  0  0  0  0
 27 28  1  0  0  0  0
 27 50  1  0  0  0  0
 28 51  1  0  0  0  0
 29 30  2  0  0  0  0
 29 52  1  0  0  0  0
 30 31  1  0  0  0  0
M  END
$$$$
