CHEMBL3912287
 OpenBabel04072215373D

 55 58  0  0  1  0  0  0  0  0999 V2000
    2.7689   -0.3473   -1.0976 C   0  0  0  0  0  0  0  0  0  0  0  0
    2.4201   -0.3485    0.2868 O   0  0  0  0  0  0  0  0  0  0  0  0
    3.1962    0.3858    1.1442 C   0  0  0  0  0  0  0  0  0  0  0  0
    4.4053    0.9841    0.7782 C   0  0  0  0  0  0  0  0  0  0  0  0
    5.1083    1.8370    1.6647 C   0  0  0  0  0  0  0  0  0  0  0  0
    6.2259    2.6092    1.3225 C   0  0  0  0  0  0  0  0  0  0  0  0
    6.6214    2.6561   -0.0342 N   0  0  0  0  0  0  0  0  0  0  0  0
    7.9273    2.7437   -0.5527 C   0  0  0  0  0  0  0  0  0  0  0  0
    8.9911    2.1889    0.1836 C   0  0  0  0  0  0  0  0  0  0  0  0
   10.2670    2.0817   -0.3578 C   0  0  0  0  0  0  0  0  0  0  0  0
   10.4985    2.5311   -1.6493 C   0  0  0  0  0  0  0  0  0  0  0  0
    9.4716    3.1351   -2.3830 C   0  0  0  0  0  0  0  0  0  0  0  0
    9.9359    3.7149   -4.1356 Br  0  0  0  0  0  0  0  0  0  0  0  0
    8.1766    3.2751   -1.8400 C   0  0  0  0  0  0  0  0  0  0  0  0
    7.0754    3.9999   -2.5729 C   0  0  0  0  0  0  0  0  0  0  0  0
    6.8935    3.3523    2.2255 N   0  0  0  0  0  0  0  0  0  0  0  0
    6.4113    3.3529    3.4709 C   0  0  0  0  0  0  0  0  0  0  0  0
    5.3363    2.6846    3.8947 N   0  0  0  0  0  0  0  0  0  0  0  0
    4.6981    1.9465    2.9861 C   0  0  0  0  0  0  0  0  0  0  0  0
    3.5559    1.2748    3.3702 C   0  0  0  0  0  0  0  0  0  0  0  0
    2.7417    0.5708    2.4604 C   0  0  0  0  0  0  0  0  0  0  0  0
    1.4926    0.0871    2.8235 O   0  0  0  0  0  0  0  0  0  0  0  0
    0.9405    0.7839    3.9583 C   0  0  0  0  0  0  0  0  0  0  0  0
   -0.5828    0.6879    4.1292 C   0  0  3  0  0  0  0  0  0  0  0  0
   -1.3714    1.0737    2.8684 C   0  0  0  0  0  0  0  0  0  0  0  0
   -1.1880    2.5015    2.5403 N   0  0  0  0  0  0  0  0  0  0  0  0
   -1.9326    2.8437    1.3352 C   0  0  0  0  0  0  0  0  0  0  0  0
   -1.6210    3.3204    3.6902 C   0  0  0  0  0  0  0  0  0  0  0  0
   -0.9046    2.9131    4.9904 C   0  0  0  0  0  0  0  0  0  0  0  0
   -1.0135    1.5018    5.2558 O   0  0  0  0  0  0  0  0  0  0  0  0
    3.4469   -1.1796   -1.3169 H   0  0  0  0  0  0  0  0  0  0  0  0
    3.2030    0.5968   -1.4452 H   0  0  0  0  0  0  0  0  0  0  0  0
    1.8531   -0.4889   -1.6780 H   0  0  0  0  0  0  0  0  0  0  0  0
    4.8394    0.8102   -0.2015 H   0  0  0  0  0  0  0  0  0  0  0  0
    5.8855    3.0372   -0.6134 H   0  0  0  0  0  0  0  0  0  0  0  0
    8.8215    1.8048    1.1854 H   0  0  0  0  0  0  0  0  0  0  0  0
   11.0652    1.6323    0.2242 H   0  0  0  0  0  0  0  0  0  0  0  0
   11.4904    2.4108   -2.0756 H   0  0  0  0  0  0  0  0  0  0  0  0
    7.3826    4.4271   -3.5291 H   0  0  0  0  0  0  0  0  0  0  0  0
    6.7251    4.8408   -1.9628 H   0  0  0  0  0  0  0  0  0  0  0  0
    6.2380    3.3258   -2.7768 H   0  0  0  0  0  0  0  0  0  0  0  0
    6.9298    3.9610    4.2031 H   0  0  0  0  0  0  0  0  0  0  0  0
    3.2701    1.3811    4.4140 H   0  0  0  0  0  0  0  0  0  0  0  0
    1.1956    1.8446    3.8812 H   0  0  0  0  0  0  0  0  0  0  0  0
    1.3992    0.3860    4.8727 H   0  0  0  0  0  0  0  0  0  0  0  0
   -0.8358   -0.3473    4.3872 H   0  0  0  0  0  0  0  0  0  0  0  0
   -2.4380    0.8759    3.0571 H   0  0  0  0  0  0  0  0  0  0  0  0
   -1.0582    0.4407    2.0347 H   0  0  0  0  0  0  0  0  0  0  0  0
   -1.5950    2.2295    0.4926 H   0  0  0  0  0  0  0  0  0  0  0  0
   -1.7510    3.8871    1.0578 H   0  0  0  0  0  0  0  0  0  0  0  0
   -3.0119    2.6975    1.4560 H   0  0  0  0  0  0  0  0  0  0  0  0
   -2.7019    3.2132    3.8419 H   0  0  0  0  0  0  0  0  0  0  0  0
   -1.4147    4.3792    3.4916 H   0  0  0  0  0  0  0  0  0  0  0  0
   -1.3547    3.4434    5.8364 H   0  0  0  0  0  0  0  0  0  0  0  0
    0.1503    3.2119    4.9786 H   0  0  0  0  0  0  0  0  0  0  0  0
  1  2  1  0  0  0  0
  1 31  1  0  0  0  0
  1 32  1  0  0  0  0
  1 33  1  0  0  0  0
  2  3  1  0  0  0  0
  3  4  1  0  0  0  0
  3 21  2  0  0  0  0
  4  5  2  0  0  0  0
  4 34  1  0  0  0  0
  5  6  1  0  0  0  0
  5 19  1  0  0  0  0
  6  7  1  0  0  0  0
  6 16  2  0  0  0  0
  7  8  1  0  0  0  0
  7 35  1  0  0  0  0
  8  9  1  0  0  0  0
  8 14  2  0  0  0  0
  9 10  2  0  0  0  0
  9 36  1  0  0  0  0
 10 11  1  0  0  0  0
 10 37  1  0  0  0  0
 11 12  2  0  0  0  0
 11 38  1  0  0  0  0
 12 13  1  0  0  0  0
 12 14  1  0  0  0  0
 14 15  1  0  0  0  0
 15 39  1  0  0  0  0
 15 40  1  0  0  0  0
 15 41  1  0  0  0  0
 16 17  1  0  0  0  0
 17 18  2  0  0  0  0
 17 42  1  0  0  0  0
 18 19  1  0  0  0  0
 19 20  2  0  0  0  0
 20 21  1  0  0  0  0
 20 43  1  0  0  0  0
 21 22  1  0  0  0  0
 22 23  1  0  0  0  0
 23 24  1  0  0  0  0
 23 44  1  0  0  0  0
 23 45  1  0  0  0  0
 24 25  1  0  0  0  0
 24 30  1  0  0  0  0
 24 46  1  0  0  0  0
 25 26  1  0  0  0  0
 25 47  1  0  0  0  0
 25 48  1  0  0  0  0
 26 27  1  0  0  0  0
 26 28  1  0  0  0  0
 27 49  1  0  0  0  0
 27 50  1  0  0  0  0
 27 51  1  0  0  0  0
 28 29  1  0  0  0  0
 28 52  1  0  0  0  0
 28 53  1  0  0  0  0
 29 30  1  0  0  0  0
 29 54  1  0  0  0  0
 29 55  1  0  0  0  0
M  END
$$$$
