CHEMBL1761943
 OpenBabel04072215363D

 57 61  0  0  0  0  0  0  0  0999 V2000
    9.7795    3.2504   -4.3592 C   0  0  0  0  0  0  0  0  0  0  0  0
    9.8026    4.4115   -3.5218 O   0  0  0  0  0  0  0  0  0  0  0  0
    8.7784    4.5339   -2.6266 C   0  0  0  0  0  0  0  0  0  0  0  0
    8.1302    3.3910   -2.1145 C   0  0  0  0  0  0  0  0  0  0  0  0
    6.9832    3.4900   -1.3236 C   0  0  0  0  0  0  0  0  0  0  0  0
    6.3805    2.3381   -0.9820 N   0  0  0  0  0  0  0  0  0  0  0  0
    5.2336    2.4546   -0.3009 C   0  0  0  0  0  0  0  0  0  0  0  0
    4.6590    3.5942    0.0883 N   0  0  0  0  0  0  0  0  0  0  0  0
    5.3374    4.7257   -0.1905 C   0  0  0  0  0  0  0  0  0  0  0  0
    4.7924    5.9447    0.2454 O   0  0  0  0  0  0  0  0  0  0  0  0
    3.8939    5.8934    1.2987 C   0  0  0  0  0  0  0  0  0  0  0  0
    4.1302    5.1229    2.4332 C   0  0  0  0  0  0  0  0  0  0  0  0
    3.1577    5.0171    3.4366 C   0  0  0  0  0  0  0  0  0  0  0  0
    1.9451    5.7096    3.3700 C   0  0  0  0  0  0  0  0  0  0  0  0
    0.9141    5.5609    4.3493 N   0  0  0  0  0  0  0  0  0  0  0  0
    0.9554    4.7218    5.4689 C   0  0  0  0  0  0  0  0  0  0  0  0
    1.9047    4.0199    5.7919 O   0  0  0  0  0  0  0  0  0  0  0  0
   -0.2635    4.7159    6.1702 N   0  0  0  0  0  0  0  0  0  0  0  0
   -0.4762    3.7217    7.1910 C   0  0  0  0  0  0  0  0  0  0  0  0
   -1.5739    2.8644    6.9831 C   0  0  0  0  0  0  0  0  0  0  0  0
   -1.7993    1.7723    7.8266 C   0  0  0  0  0  0  0  0  0  0  0  0
   -0.8784    1.4764    8.8224 C   0  0  0  0  0  0  0  0  0  0  0  0
    0.1966    2.3409    9.0777 C   0  0  0  0  0  0  0  0  0  0  0  0
    1.0783    2.0285   10.1113 C   0  0  0  0  0  0  0  0  0  0  0  0
    1.7897    3.0383   10.7388 C   0  0  0  0  0  0  0  0  0  0  0  0
    1.8297    4.2957   10.1531 C   0  0  0  0  0  0  0  0  0  0  0  0
    1.2102    4.5137    8.9114 C   0  0  0  0  0  0  0  0  0  0  0  0
    0.3364    3.5486    8.3514 C   0  0  0  0  0  0  0  0  0  0  0  0
    1.7574    6.5690    2.2713 C   0  0  0  0  0  0  0  0  0  0  0  0
    2.7268    6.6615    1.2425 C   0  0  0  0  0  0  0  0  0  0  0  0
    6.5222    4.7446   -0.9422 C   0  0  0  0  0  0  0  0  0  0  0  0
    7.2451    5.8907   -1.3402 C   0  0  0  0  0  0  0  0  0  0  0  0
    8.3470    5.7981   -2.2106 C   0  0  0  0  0  0  0  0  0  0  0  0
    8.8322    7.0325   -2.5440 O   0  0  0  0  0  0  0  0  0  0  0  0
    9.7977    7.1673   -3.5704 C   0  0  0  0  0  0  0  0  0  0  0  0
   10.2073    3.5048   -5.3298 H   0  0  0  0  0  0  0  0  0  0  0  0
    8.7664    2.8691   -4.5496 H   0  0  0  0  0  0  0  0  0  0  0  0
   10.3952    2.4620   -3.9066 H   0  0  0  0  0  0  0  0  0  0  0  0
    8.4881    2.3985   -2.3428 H   0  0  0  0  0  0  0  0  0  0  0  0
    4.7179    1.5336   -0.0498 H   0  0  0  0  0  0  0  0  0  0  0  0
    5.0459    4.5486    2.5382 H   0  0  0  0  0  0  0  0  0  0  0  0
    3.3933    4.3502    4.2559 H   0  0  0  0  0  0  0  0  0  0  0  0
    0.0790    6.1122    4.2112 H   0  0  0  0  0  0  0  0  0  0  0  0
   -1.0467    4.8365    5.5601 H   0  0  0  0  0  0  0  0  0  0  0  0
   -2.2587    3.0194    6.1416 H   0  0  0  0  0  0  0  0  0  0  0  0
   -2.6757    1.1410    7.7029 H   0  0  0  0  0  0  0  0  0  0  0  0
   -1.0511    0.6207    9.4748 H   0  0  0  0  0  0  0  0  0  0  0  0
    1.2052    0.9994   10.4404 H   0  0  0  0  0  0  0  0  0  0  0  0
    2.3001    2.8371   11.6779 H   0  0  0  0  0  0  0  0  0  0  0  0
    2.3702    5.0973   10.6470 H   0  0  0  0  0  0  0  0  0  0  0  0
    1.3477    5.4703    8.4189 H   0  0  0  0  0  0  0  0  0  0  0  0
    0.8499    7.1622    2.1803 H   0  0  0  0  0  0  0  0  0  0  0  0
    2.5508    7.3180    0.3921 H   0  0  0  0  0  0  0  0  0  0  0  0
    6.9180    6.8772   -1.0150 H   0  0  0  0  0  0  0  0  0  0  0  0
    9.7989    8.2215   -3.8715 H   0  0  0  0  0  0  0  0  0  0  0  0
    9.5518    6.5917   -4.4666 H   0  0  0  0  0  0  0  0  0  0  0  0
   10.7984    6.9332   -3.1941 H   0  0  0  0  0  0  0  0  0  0  0  0
  1  2  1  0  0  0  0
  1 36  1  0  0  0  0
  1 37  1  0  0  0  0
  1 38  1  0  0  0  0
  2  3  1  0  0  0  0
  3  4  1  0  0  0  0
  3 33  2  0  0  0  0
  4  5  2  0  0  0  0
  4 39  1  0  0  0  0
  5  6  1  0  0  0  0
  5 31  1  0  0  0  0
  6  7  2  0  0  0  0
  7  8  1  0  0  0  0
  7 40  1  0  0  0  0
  8  9  2  0  0  0  0
  9 10  1  0  0  0  0
  9 31  1  0  0  0  0
 10 11  1  0  0  0  0
 11 12  1  0  0  0  0
 11 30  2  0  0  0  0
 12 13  2  0  0  0  0
 12 41  1  0  0  0  0
 13 14  1  0  0  0  0
 13 42  1  0  0  0  0
 14 15  1  0  0  0  0
 14 29  2  0  0  0  0
 15 16  1  0  0  0  0
 15 43  1  0  0  0  0
 16 17  2  0  0  0  0
 16 18  1  0  0  0  0
 18 19  1  0  0  0  0
 18 44  1  0  0  0  0
 19 20  1  0  0  0  0
 19 28  2  0  0  0  0
 20 21  2  0  0  0  0
 20 45  1  0  0  0  0
 21 22  1  0  0  0  0
 21 46  1  0  0  0  0
 22 23  2  0  0  0  0
 22 47  1  0  0  0  0
 23 24  1  0  0  0  0
 23 28  1  0  0  0  0
 24 25  2  0  0  0  0
 24 48  1  0  0  0  0
 25 26  1  0  0  0  0
 25 49  1  0  0  0  0
 26 27  2  0  0  0  0
 26 50  1  0  0  0  0
 27 28  1  0  0  0  0
 27 51  1  0  0  0  0
 29 30  1  0  0  0  0
 29 52  1  0  0  0  0
 30 53  1  0  0  0  0
 31 32  2  0  0  0  0
 32 33  1  0  0  0  0
 32 54  1  0  0  0  0
 33 34  1  0  0  0  0
 34 35  1  0  0  0  0
 35 55  1  0  0  0  0
 35 56  1  0  0  0  0
 35 57  1  0  0  0  0
M  END
$$$$
