CHEMBL358728
 OpenBabel04072215363D

 55 58  0  0  0  0  0  0  0  0999 V2000
    1.7311    1.1682   -5.0672 C   0  0  0  0  0  0  0  0  0  0  0  0
    3.0667    0.8686   -4.6835 O   0  0  0  0  0  0  0  0  0  0  0  0
    3.2219    0.0314   -3.6130 C   0  0  0  0  0  0  0  0  0  0  0  0
    2.2089   -0.4248   -2.7752 C   0  0  0  0  0  0  0  0  0  0  0  0
    2.5168   -1.2712   -1.7108 C   0  0  0  0  0  0  0  0  0  0  0  0
    3.8360   -1.6704   -1.4854 C   0  0  0  0  0  0  0  0  0  0  0  0
    4.8775   -1.2454   -2.3247 C   0  0  0  0  0  0  0  0  0  0  0  0
    6.2711   -1.7031   -2.1256 C   0  0  0  0  0  0  0  0  0  0  0  0
    7.3581   -0.8438   -2.4277 C   0  0  0  0  0  0  0  0  0  0  0  0
    8.6865   -1.2568   -2.3102 C   0  0  0  0  0  0  0  0  0  0  0  0
    8.9328   -2.5402   -1.8630 C   0  0  0  0  0  0  0  0  0  0  0  0
    7.8808   -3.3874   -1.5274 C   0  0  0  0  0  0  0  0  0  0  0  0
    6.5587   -3.0042   -1.6586 C   0  0  0  0  0  0  0  0  0  0  0  0
    8.3688   -4.6088   -1.0722 N   0  0  0  0  0  0  0  0  0  0  0  0
    9.7577   -4.6359   -1.0871 C   0  0  0  0  0  0  0  0  0  0  0  0
   10.4707   -5.5497   -0.7180 O   0  0  0  0  0  0  0  0  0  0  0  0
   10.1724   -3.2988   -1.6492 C   0  0  0  0  0  0  0  0  0  0  0  0
   11.3622   -2.7889   -1.9935 C   0  0  0  0  0  0  0  0  0  0  0  0
   12.6524   -3.3728   -1.9476 C   0  0  0  0  0  0  0  0  0  0  0  0
   12.8747   -4.6307   -1.4595 N   0  0  0  0  0  0  0  0  0  0  0  0
   14.2006   -4.9580   -1.5718 C   0  0  0  0  0  0  0  0  0  0  0  0
   14.6740   -6.2966   -1.1313 C   0  0  0  0  0  0  0  0  0  0  0  0
   14.8726   -3.8678   -2.1092 C   0  0  0  0  0  0  0  0  0  0  0  0
   16.3485   -3.7532   -2.3668 C   0  0  0  0  0  0  0  0  0  0  0  0
   16.8450   -4.7240   -3.4331 C   0  0  0  0  0  0  0  0  0  0  0  0
   18.3080   -4.5168   -3.7298 C   0  0  0  0  0  0  0  0  0  0  0  0
   19.0224   -3.6631   -3.2302 O   0  0  0  0  0  0  0  0  0  0  0  0
   18.7740   -5.4049   -4.6407 O   0  0  0  0  0  0  0  0  0  0  0  0
   13.8795   -2.8584   -2.3523 C   0  0  0  0  0  0  0  0  0  0  0  0
   14.0860   -1.4961   -2.9301 C   0  0  0  0  0  0  0  0  0  0  0  0
    4.5393   -0.3768   -3.3804 C   0  0  0  0  0  0  0  0  0  0  0  0
    1.7717    1.7689   -5.9806 H   0  0  0  0  0  0  0  0  0  0  0  0
    1.2262    1.7615   -4.2980 H   0  0  0  0  0  0  0  0  0  0  0  0
    1.1718    0.2544   -5.2940 H   0  0  0  0  0  0  0  0  0  0  0  0
    1.1732   -0.1386   -2.9196 H   0  0  0  0  0  0  0  0  0  0  0  0
    1.7267   -1.6236   -1.0528 H   0  0  0  0  0  0  0  0  0  0  0  0
    4.0390   -2.3172   -0.6348 H   0  0  0  0  0  0  0  0  0  0  0  0
    7.1777    0.1749   -2.7662 H   0  0  0  0  0  0  0  0  0  0  0  0
    9.4882   -0.5749   -2.5710 H   0  0  0  0  0  0  0  0  0  0  0  0
    5.7654   -3.7074   -1.4286 H   0  0  0  0  0  0  0  0  0  0  0  0
    7.8096   -5.3819   -0.7447 H   0  0  0  0  0  0  0  0  0  0  0  0
   11.3657   -1.7830   -2.4049 H   0  0  0  0  0  0  0  0  0  0  0  0
   12.1603   -5.2429   -1.0747 H   0  0  0  0  0  0  0  0  0  0  0  0
   13.8492   -6.9070   -0.7447 H   0  0  0  0  0  0  0  0  0  0  0  0
   15.4228   -6.2013   -0.3392 H   0  0  0  0  0  0  0  0  0  0  0  0
   15.1149   -6.8459   -1.9677 H   0  0  0  0  0  0  0  0  0  0  0  0
   16.8882   -3.9155   -1.4253 H   0  0  0  0  0  0  0  0  0  0  0  0
   16.5992   -2.7316   -2.6733 H   0  0  0  0  0  0  0  0  0  0  0  0
   16.2810   -4.5882   -4.3627 H   0  0  0  0  0  0  0  0  0  0  0  0
   16.7221   -5.7560   -3.0917 H   0  0  0  0  0  0  0  0  0  0  0  0
   18.0950   -6.0320   -4.9552 H   0  0  0  0  0  0  0  0  0  0  0  0
   15.1295   -1.2907   -3.1742 H   0  0  0  0  0  0  0  0  0  0  0  0
   13.7540   -0.7314   -2.2200 H   0  0  0  0  0  0  0  0  0  0  0  0
   13.5031   -1.3856   -3.8509 H   0  0  0  0  0  0  0  0  0  0  0  0
    5.3052   -0.0155   -4.0643 H   0  0  0  0  0  0  0  0  0  0  0  0
  1  2  1  0  0  0  0
  1 32  1  0  0  0  0
  1 33  1  0  0  0  0
  1 34  1  0  0  0  0
  2  3  1  0  0  0  0
  3  4  1  0  0  0  0
  3 31  2  0  0  0  0
  4  5  2  0  0  0  0
  4 35  1  0  0  0  0
  5  6  1  0  0  0  0
  5 36  1  0  0  0  0
  6  7  2  0  0  0  0
  6 37  1  0  0  0  0
  7  8  1  0  0  0  0
  7 31  1  0  0  0  0
  8  9  1  0  0  0  0
  8 13  2  0  0  0  0
  9 10  2  0  0  0  0
  9 38  1  0  0  0  0
 10 11  1  0  0  0  0
 10 39  1  0  0  0  0
 11 12  2  0  0  0  0
 11 17  1  0  0  0  0
 12 13  1  0  0  0  0
 12 14  1  0  0  0  0
 13 40  1  0  0  0  0
 14 15  1  0  0  0  0
 14 41  1  0  0  0  0
 15 16  2  0  0  0  0
 15 17  1  0  0  0  0
 17 18  2  0  0  0  0
 18 19  1  0  0  0  0
 18 42  1  0  0  0  0
 19 20  1  0  0  0  0
 19 29  2  0  0  0  0
 20 21  1  0  0  0  0
 20 43  1  0  0  0  0
 21 22  1  0  0  0  0
 21 23  2  0  0  0  0
 22 44  1  0  0  0  0
 22 45  1  0  0  0  0
 22 46  1  0  0  0  0
 23 24  1  0  0  0  0
 23 29  1  0  0  0  0
 24 25  1  0  0  0  0
 24 47  1  0  0  0  0
 24 48  1  0  0  0  0
 25 26  1  0  0  0  0
 25 49  1  0  0  0  0
 25 50  1  0  0  0  0
 26 27  2  0  0  0  0
 26 28  1  0  0  0  0
 28 51  1  0  0  0  0
 29 30  1  0  0  0  0
 30 52  1  0  0  0  0
 30 53  1  0  0  0  0
 30 54  1  0  0  0  0
 31 55  1  0  0  0  0
M  END
$$$$
