CHEMBL274654
 OpenBabel04072215363D

 41 43  0  0  0  0  0  0  0  0999 V2000
    2.5239    0.4148   -0.0015 C   0  0  0  0  0  0  0  0  0  0  0  0
    1.0652    0.1238    0.0078 C   0  0  0  0  0  0  0  0  0  0  0  0
    0.6119   -1.1722   -0.0027 N   0  0  0  0  0  0  0  0  0  0  0  0
   -0.7567   -1.1983    0.0176 C   0  0  0  0  0  0  0  0  0  0  0  0
   -1.3957   -2.4610    0.0712 C   0  0  0  0  0  0  0  0  0  0  0  0
   -1.7682   -3.1483   -1.0182 C   0  0  0  0  0  0  0  0  0  0  0  0
   -1.5871   -2.7532   -2.4658 C   0  0  0  0  0  0  0  0  0  0  0  0
   -1.1165   -1.7349   -2.9337 O   0  0  0  0  0  0  0  0  0  0  0  0
   -2.0692   -3.8286   -3.1925 N   0  0  0  0  0  0  0  0  0  0  0  0
   -2.5491   -4.8364   -2.3631 C   0  0  0  0  0  0  0  0  0  0  0  0
   -3.0975   -6.0375   -2.7613 C   0  0  0  0  0  0  0  0  0  0  0  0
   -3.5338   -6.9061   -1.7621 C   0  0  0  0  0  0  0  0  0  0  0  0
   -3.4150   -6.5517   -0.4019 C   0  0  0  0  0  0  0  0  0  0  0  0
   -2.8473   -5.3286   -0.0224 C   0  0  0  0  0  0  0  0  0  0  0  0
   -2.4080   -4.4731   -1.0187 C   0  0  0  0  0  0  0  0  0  0  0  0
   -1.2070    0.1101   -0.0118 C   0  0  0  0  0  0  0  0  0  0  0  0
   -2.6317    0.5415   -0.0587 C   0  0  0  0  0  0  0  0  0  0  0  0
   -0.0432    0.9615   -0.0069 C   0  0  0  0  0  0  0  0  0  0  0  0
   -0.0285    2.4691   -0.0496 C   0  0  0  0  0  0  0  0  0  0  0  0
   -0.6605    3.0978    1.1900 C   0  0  0  0  0  0  0  0  0  0  0  0
   -0.6605    4.6035    1.1359 C   0  0  0  0  0  0  0  0  0  0  0  0
   -0.1844    5.2872    0.2453 O   0  0  0  0  0  0  0  0  0  0  0  0
   -1.2755    5.1477    2.2155 O   0  0  0  0  0  0  0  0  0  0  0  0
    3.1164   -0.5075   -0.0095 H   0  0  0  0  0  0  0  0  0  0  0  0
    2.8058    0.9836    0.8898 H   0  0  0  0  0  0  0  0  0  0  0  0
    2.7990    0.9944   -0.8882 H   0  0  0  0  0  0  0  0  0  0  0  0
    1.2051   -1.9896   -0.0376 H   0  0  0  0  0  0  0  0  0  0  0  0
   -1.5798   -2.8649    1.0626 H   0  0  0  0  0  0  0  0  0  0  0  0
   -2.0694   -3.8402   -4.2017 H   0  0  0  0  0  0  0  0  0  0  0  0
   -3.1874   -6.3034   -3.8110 H   0  0  0  0  0  0  0  0  0  0  0  0
   -3.9727   -7.8636   -2.0316 H   0  0  0  0  0  0  0  0  0  0  0  0
   -3.7707   -7.2432    0.3576 H   0  0  0  0  0  0  0  0  0  0  0  0
   -2.7642   -5.0712    1.0280 H   0  0  0  0  0  0  0  0  0  0  0  0
   -3.3130   -0.3115   -0.1235 H   0  0  0  0  0  0  0  0  0  0  0  0
   -2.8094    1.1837   -0.9268 H   0  0  0  0  0  0  0  0  0  0  0  0
   -2.8976    1.0920    0.8478 H   0  0  0  0  0  0  0  0  0  0  0  0
   -0.5526    2.8031   -0.9541 H   0  0  0  0  0  0  0  0  0  0  0  0
    1.0034    2.8296   -0.1493 H   0  0  0  0  0  0  0  0  0  0  0  0
   -0.1227    2.7815    2.0898 H   0  0  0  0  0  0  0  0  0  0  0  0
   -1.7051    2.7908    1.2816 H   0  0  0  0  0  0  0  0  0  0  0  0
   -1.6177    4.4843    2.8449 H   0  0  0  0  0  0  0  0  0  0  0  0
  1  2  1  0  0  0  0
  1 24  1  0  0  0  0
  1 25  1  0  0  0  0
  1 26  1  0  0  0  0
  2  3  1  0  0  0  0
  2 18  2  0  0  0  0
  3  4  1  0  0  0  0
  3 27  1  0  0  0  0
  4  5  1  0  0  0  0
  4 16  2  0  0  0  0
  5  6  2  0  0  0  0
  5 28  1  0  0  0  0
  6  7  1  0  0  0  0
  6 15  1  0  0  0  0
  7  8  2  0  0  0  0
  7  9  1  0  0  0  0
  9 10  1  0  0  0  0
  9 29  1  0  0  0  0
 10 11  1  0  0  0  0
 10 15  2  0  0  0  0
 11 12  2  0  0  0  0
 11 30  1  0  0  0  0
 12 13  1  0  0  0  0
 12 31  1  0  0  0  0
 13 14  2  0  0  0  0
 13 32  1  0  0  0  0
 14 15  1  0  0  0  0
 14 33  1  0  0  0  0
 16 17  1  0  0  0  0
 16 18  1  0  0  0  0
 17 34  1  0  0  0  0
 17 35  1  0  0  0  0
 17 36  1  0  0  0  0
 18 19  1  0  0  0  0
 19 20  1  0  0  0  0
 19 37  1  0  0  0  0
 19 38  1  0  0  0  0
 20 21  1  0  0  0  0
 20 39  1  0  0  0  0
 20 40  1  0  0  0  0
 21 22  2  0  0  0  0
 21 23  1  0  0  0  0
 23 41  1  0  0  0  0
M  END
$$$$
