CHEMBL1929554
 OpenBabel04072215363D

 47 51  0  0  0  0  0  0  0  0999 V2000
    1.4298    0.2584   -0.2853 N   0  0  0  0  0  0  0  0  0  0  0  0
    2.8167    0.1775   -0.2611 C   0  0  0  0  0  0  0  0  0  0  0  0
    3.3096   -1.0700   -0.1960 N   0  0  0  0  0  0  0  0  0  0  0  0
    4.6463   -1.2665   -0.1584 C   0  0  0  0  0  0  0  0  0  0  0  0
    5.2213   -2.5398   -0.0736 N   0  0  0  0  0  0  0  0  0  0  0  0
    4.6605   -3.7527    0.3675 C   0  0  0  0  0  0  0  0  0  0  0  0
    3.2913   -4.0273    0.3427 C   0  0  0  0  0  0  0  0  0  0  0  0
    2.7871   -5.2186    0.8770 C   0  0  0  0  0  0  0  0  0  0  0  0
    3.6578   -6.1554    1.4307 C   0  0  0  0  0  0  0  0  0  0  0  0
    3.0321   -7.6014    2.1133 Cl  0  0  0  0  0  0  0  0  0  0  0  0
    5.0164   -5.9331    1.4408 C   0  0  0  0  0  0  0  0  0  0  0  0
    5.5079   -4.7405    0.9022 C   0  0  0  0  0  0  0  0  0  0  0  0
    6.8325   -4.5231    0.9301 F   0  0  0  0  0  0  0  0  0  0  0  0
    5.4565   -0.1308   -0.1670 C   0  0  0  0  0  0  0  0  0  0  0  0
    6.8561    0.1172   -0.1446 C   0  0  0  0  0  0  0  0  0  0  0  0
    7.0535    1.4750   -0.2531 C   0  0  0  0  0  0  0  0  0  0  0  0
    8.3115    2.2239   -0.4805 C   0  0  0  0  0  0  0  0  0  0  0  0
    8.9841    2.8769    0.6937 C   0  0  0  0  0  0  0  0  0  0  0  0
    8.6850    4.2203    0.9365 C   0  0  0  0  0  0  0  0  0  0  0  0
    9.4947    5.0004    1.7633 C   0  0  0  0  0  0  0  0  0  0  0  0
   10.6901    4.4660    2.2249 C   0  0  0  0  0  0  0  0  0  0  0  0
   10.9542    3.1027    2.0776 C   0  0  0  0  0  0  0  0  0  0  0  0
   12.1320    2.5537    2.5886 C   0  0  0  0  0  0  0  0  0  0  0  0
   12.1274    1.2636    3.0778 C   0  0  0  0  0  0  0  0  0  0  0  0
   11.1359    0.4109    2.6292 C   0  0  0  0  0  0  0  0  0  0  0  0
   10.1857    0.8681    1.6978 C   0  0  0  0  0  0  0  0  0  0  0  0
   10.0151    2.2606    1.4571 C   0  0  0  0  0  0  0  0  0  0  0  0
    5.8063    2.0784   -0.2376 N   0  0  0  0  0  0  0  0  0  0  0  0
    4.8224    1.0948   -0.2070 C   0  0  0  0  0  0  0  0  0  0  0  0
    3.5124    1.3187   -0.2593 N   0  0  0  0  0  0  0  0  0  0  0  0
    1.0540   -0.5968    0.1007 H   0  0  0  0  0  0  0  0  0  0  0  0
    1.1307    1.1236    0.1369 H   0  0  0  0  0  0  0  0  0  0  0  0
    6.2318   -2.5267    0.0073 H   0  0  0  0  0  0  0  0  0  0  0  0
    2.5911   -3.3237   -0.0890 H   0  0  0  0  0  0  0  0  0  0  0  0
    1.7151   -5.3953    0.8622 H   0  0  0  0  0  0  0  0  0  0  0  0
    5.7221   -6.6430    1.8539 H   0  0  0  0  0  0  0  0  0  0  0  0
    7.6416   -0.6235   -0.1463 H   0  0  0  0  0  0  0  0  0  0  0  0
    8.1255    2.9884   -1.2519 H   0  0  0  0  0  0  0  0  0  0  0  0
    9.0386    1.5453   -0.9830 H   0  0  0  0  0  0  0  0  0  0  0  0
    7.8195    4.6889    0.4711 H   0  0  0  0  0  0  0  0  0  0  0  0
    9.2246    6.0321    2.0006 H   0  0  0  0  0  0  0  0  0  0  0  0
   11.3463    5.0836    2.8336 H   0  0  0  0  0  0  0  0  0  0  0  0
   13.0689    3.0883    2.4975 H   0  0  0  0  0  0  0  0  0  0  0  0
   12.9050    0.9281    3.7592 H   0  0  0  0  0  0  0  0  0  0  0  0
   11.1331   -0.6261    2.9550 H   0  0  0  0  0  0  0  0  0  0  0  0
    9.5135    0.1438    1.2534 H   0  0  0  0  0  0  0  0  0  0  0  0
    5.6130    3.0661   -0.3110 H   0  0  0  0  0  0  0  0  0  0  0  0
  1  2  1  0  0  0  0
  1 31  1  0  0  0  0
  1 32  1  0  0  0  0
  2  3  1  0  0  0  0
  2 30  2  0  0  0  0
  3  4  2  0  0  0  0
  4  5  1  0  0  0  0
  4 14  1  0  0  0  0
  5  6  1  0  0  0  0
  5 33  1  0  0  0  0
  6  7  1  0  0  0  0
  6 12  2  0  0  0  0
  7  8  2  0  0  0  0
  7 34  1  0  0  0  0
  8  9  1  0  0  0  0
  8 35  1  0  0  0  0
  9 10  1  0  0  0  0
  9 11  2  0  0  0  0
 11 12  1  0  0  0  0
 11 36  1  0  0  0  0
 12 13  1  0  0  0  0
 14 15  1  0  0  0  0
 14 29  2  0  0  0  0
 15 16  2  0  0  0  0
 15 37  1  0  0  0  0
 16 17  1  0  0  0  0
 16 28  1  0  0  0  0
 17 18  1  0  0  0  0
 17 38  1  0  0  0  0
 17 39  1  0  0  0  0
 18 19  1  0  0  0  0
 18 27  2  0  0  0  0
 19 20  2  0  0  0  0
 19 40  1  0  0  0  0
 20 21  1  0  0  0  0
 20 41  1  0  0  0  0
 21 22  2  0  0  0  0
 21 42  1  0  0  0  0
 22 23  1  0  0  0  0
 22 27  1  0  0  0  0
 23 24  2  0  0  0  0
 23 43  1  0  0  0  0
 24 25  1  0  0  0  0
 24 44  1  0  0  0  0
 25 26  2  0  0  0  0
 25 45  1  0  0  0  0
 26 27  1  0  0  0  0
 26 46  1  0  0  0  0
 28 29  1  0  0  0  0
 28 47  1  0  0  0  0
 29 30  1  0  0  0  0
M  END
$$$$
