CHEMBL3944739
 OpenBabel04072215373D

 48 50  0  0  0  0  0  0  0  0999 V2000
    1.6177    1.4764   -1.1207 C   0  0  0  0  0  0  0  0  0  0  0  0
    2.7809    0.7559   -0.9078 O   0  0  0  0  0  0  0  0  0  0  0  0
    3.2524   -0.2285   -1.7218 C   0  0  0  0  0  0  0  0  0  0  0  0
    2.5913   -0.5740   -2.9097 C   0  0  0  0  0  0  0  0  0  0  0  0
    3.0635   -1.6104   -3.6967 C   0  0  0  0  0  0  0  0  0  0  0  0
    4.2080   -2.3229   -3.3382 C   0  0  0  0  0  0  0  0  0  0  0  0
    4.5677   -3.6970   -4.3892 Cl  0  0  0  0  0  0  0  0  0  0  0  0
    4.9458   -1.9759   -2.1586 C   0  0  0  0  0  0  0  0  0  0  0  0
    6.1495   -2.6970   -1.7713 N   0  0  0  0  0  0  0  0  0  0  0  0
    6.4789   -2.9168   -0.3521 C   0  0  0  0  0  0  0  0  0  0  0  0
    7.8854   -2.3903    0.0098 C   0  0  0  0  0  0  0  0  0  0  0  0
    7.9629   -1.0023   -0.1653 O   0  0  0  0  0  0  0  0  0  0  0  0
    7.0587   -3.2162   -2.7653 C   0  0  0  0  0  0  0  0  0  0  0  0
    7.8100   -4.3942   -2.5363 C   0  0  0  0  0  0  0  0  0  0  0  0
    8.6939   -4.8815   -3.4974 C   0  0  0  0  0  0  0  0  0  0  0  0
    8.8545   -4.2054   -4.7045 C   0  0  0  0  0  0  0  0  0  0  0  0
    9.7027   -4.6793   -5.6490 N   0  0  0  0  0  0  0  0  0  0  0  0
    9.8627   -4.0419   -6.8350 C   0  0  0  0  0  0  0  0  0  0  0  0
    9.1347   -2.8661   -7.0966 C   0  0  0  0  0  0  0  0  0  0  0  0
    9.2613   -2.1567   -8.3856 C   0  0  0  0  0  0  0  0  0  0  0  0
    8.6132   -0.9949   -8.7597 C   0  0  0  0  0  0  0  0  0  0  0  0
    8.9820   -0.6728  -10.0153 N   0  0  0  0  0  0  0  0  0  0  0  0
    9.8365   -1.5929  -10.4383 N   0  0  0  0  0  0  0  0  0  0  0  0
   10.0304   -2.5100   -9.4763 C   0  0  0  0  0  0  0  0  0  0  0  0
    8.2919   -2.3852   -6.1413 N   0  0  0  0  0  0  0  0  0  0  0  0
    8.1292   -3.0267   -4.9522 C   0  0  0  0  0  0  0  0  0  0  0  0
    7.2504   -2.5312   -3.9878 C   0  0  0  0  0  0  0  0  0  0  0  0
    4.4223   -0.9246   -1.3562 C   0  0  0  0  0  0  0  0  0  0  0  0
    1.4116   -0.9113    2.3252 Cl  0  0  0  0  0  0  0  0  0  0  0  0
    1.4616    2.1874   -0.2847 H   0  0  0  0  0  0  0  0  0  0  0  0
    0.7426    0.7922   -1.1640 H   0  0  0  0  0  0  0  0  0  0  0  0
    1.6870    2.0532   -2.0689 H   0  0  0  0  0  0  0  0  0  0  0  0
    1.6933   -0.0623   -3.2289 H   0  0  0  0  0  0  0  0  0  0  0  0
    2.5153   -1.8764   -4.5920 H   0  0  0  0  0  0  0  0  0  0  0  0
    6.4448   -4.0014   -0.1288 H   0  0  0  0  0  0  0  0  0  0  0  0
    5.7368   -2.4597    0.3292 H   0  0  0  0  0  0  0  0  0  0  0  0
    8.6844   -2.9047   -0.5727 H   0  0  0  0  0  0  0  0  0  0  0  0
    8.1083   -2.6294    1.0707 H   0  0  0  0  0  0  0  0  0  0  0  0
    8.3438   -0.8480   -1.0691 H   0  0  0  0  0  0  0  0  0  0  0  0
    7.7120   -4.9584   -1.6218 H   0  0  0  0  0  0  0  0  0  0  0  0
    9.2514   -5.7900   -3.3036 H   0  0  0  0  0  0  0  0  0  0  0  0
   10.5415   -4.4565   -7.5639 H   0  0  0  0  0  0  0  0  0  0  0  0
    7.9171   -0.4194   -8.1641 H   0  0  0  0  0  0  0  0  0  0  0  0
   10.2809   -1.5934  -11.3823 H   0  0  0  0  0  0  0  0  0  0  0  0
   10.6818   -3.3679   -9.5750 H   0  0  0  0  0  0  0  0  0  0  0  0
    6.7109   -1.6128   -4.1927 H   0  0  0  0  0  0  0  0  0  0  0  0
    4.9170   -0.6214   -0.4445 H   0  0  0  0  0  0  0  0  0  0  0  0
    1.9910    0.2669    1.9164 H   0  0  0  0  0  0  0  0  0  0  0  0
  1  2  1  0  0  0  0
  1 30  1  0  0  0  0
  1 31  1  0  0  0  0
  1 32  1  0  0  0  0
  2  3  1  0  0  0  0
  3  4  1  0  0  0  0
  3 28  2  0  0  0  0
  4  5  2  0  0  0  0
  4 33  1  0  0  0  0
  5  6  1  0  0  0  0
  5 34  1  0  0  0  0
  6  7  1  0  0  0  0
  6  8  2  0  0  0  0
  8  9  1  0  0  0  0
  8 28  1  0  0  0  0
  9 10  1  0  0  0  0
  9 13  1  0  0  0  0
 10 11  1  0  0  0  0
 10 35  1  0  0  0  0
 10 36  1  0  0  0  0
 11 12  1  0  0  0  0
 11 37  1  0  0  0  0
 11 38  1  0  0  0  0
 12 39  1  0  0  0  0
 13 14  1  0  0  0  0
 13 27  2  0  0  0  0
 14 15  2  0  0  0  0
 14 40  1  0  0  0  0
 15 16  1  0  0  0  0
 15 41  1  0  0  0  0
 16 17  1  0  0  0  0
 16 26  2  0  0  0  0
 17 18  2  0  0  0  0
 18 19  1  0  0  0  0
 18 42  1  0  0  0  0
 19 20  1  0  0  0  0
 19 25  2  0  0  0  0
 20 21  1  0  0  0  0
 20 24  2  0  0  0  0
 21 22  2  0  0  0  0
 21 43  1  0  0  0  0
 22 23  1  0  0  0  0
 23 24  1  0  0  0  0
 23 44  1  0  0  0  0
 24 45  1  0  0  0  0
 25 26  1  0  0  0  0
 26 27  1  0  0  0  0
 27 46  1  0  0  0  0
 28 47  1  0  0  0  0
 29 48  1  0  0  0  0
M  END
$$$$
