CHEMBL4173415
 OpenBabel04072215383D

 53 57  0  0  0  0  0  0  0  0999 V2000
    0.4852   -2.6448    5.2177 C   0  0  0  0  0  0  0  0  0  0  0  0
    1.8674   -2.8321    4.7912 N   0  0  0  0  0  0  0  0  0  0  0  0
    2.4783   -4.1274    5.0783 C   0  0  0  0  0  0  0  0  0  0  0  0
    2.7056   -1.7187    4.6899 C   0  0  0  0  0  0  0  0  0  0  0  0
    2.2383   -0.4117    4.9119 C   0  0  0  0  0  0  0  0  0  0  0  0
    3.0854    0.6960    4.8688 C   0  0  0  0  0  0  0  0  0  0  0  0
    4.4337    0.5347    4.5873 C   0  0  0  0  0  0  0  0  0  0  0  0
    5.2691    1.6355    4.4206 N   0  0  0  0  0  0  0  0  0  0  0  0
    5.4911    2.6350    5.3011 C   0  0  0  0  0  0  0  0  0  0  0  0
    5.9852    3.7917    4.9203 N   0  0  0  0  0  0  0  0  0  0  0  0
    7.1501    3.8536    5.6318 C   0  0  0  0  0  0  0  0  0  0  0  0
    8.2885    4.6045    5.3535 C   0  0  0  0  0  0  0  0  0  0  0  0
    9.4641    4.2513    6.0215 C   0  0  0  0  0  0  0  0  0  0  0  0
   10.6910    4.7720    5.6711 O   0  0  0  0  0  0  0  0  0  0  0  0
   10.9414    4.9816    4.3192 C   0  0  0  0  0  0  0  0  0  0  0  0
   10.3515    4.2048    3.3685 N   0  0  0  0  0  0  0  0  0  0  0  0
   10.5941    4.4937    2.0749 C   0  0  0  0  0  0  0  0  0  0  0  0
   11.3934    5.4539    1.5797 N   0  0  0  0  0  0  0  0  0  0  0  0
   11.9792    6.1620    2.5658 C   0  0  0  0  0  0  0  0  0  0  0  0
   11.8112    5.9796    3.9237 C   0  0  0  0  0  0  0  0  0  0  0  0
   12.6270    6.9585    4.5225 C   0  0  0  0  0  0  0  0  0  0  0  0
   13.2802    7.7034    3.6237 N   0  0  0  0  0  0  0  0  0  0  0  0
   12.8667    7.1926    2.4387 N   0  0  0  0  0  0  0  0  0  0  0  0
   13.3510    7.7468    1.2004 C   0  0  0  0  0  0  0  0  0  0  0  0
    9.4440    3.3503    7.0963 C   0  0  0  0  0  0  0  0  0  0  0  0
    8.2645    2.7021    7.4909 C   0  0  0  0  0  0  0  0  0  0  0  0
    7.1526    2.9358    6.6818 C   0  0  0  0  0  0  0  0  0  0  0  0
    5.8878    2.4034    6.6006 N   0  0  0  0  0  0  0  0  0  0  0  0
    5.1050    1.8630    7.6786 C   0  0  0  0  0  0  0  0  0  0  0  0
    4.9048   -0.7354    4.2586 C   0  0  0  0  0  0  0  0  0  0  0  0
    4.0563   -1.8441    4.3261 C   0  0  0  0  0  0  0  0  0  0  0  0
   -0.0369   -3.6005    5.3276 H   0  0  0  0  0  0  0  0  0  0  0  0
   -0.0697   -2.0704    4.4666 H   0  0  0  0  0  0  0  0  0  0  0  0
    0.4298   -2.1301    6.1838 H   0  0  0  0  0  0  0  0  0  0  0  0
    1.7288   -4.8738    5.3613 H   0  0  0  0  0  0  0  0  0  0  0  0
    3.1932   -4.0582    5.9066 H   0  0  0  0  0  0  0  0  0  0  0  0
    2.9881   -4.5171    4.1906 H   0  0  0  0  0  0  0  0  0  0  0  0
    1.1944   -0.2146    5.1285 H   0  0  0  0  0  0  0  0  0  0  0  0
    2.6789    1.6908    5.0291 H   0  0  0  0  0  0  0  0  0  0  0  0
    5.3108    1.9380    3.4513 H   0  0  0  0  0  0  0  0  0  0  0  0
    8.2644    5.3063    4.5316 H   0  0  0  0  0  0  0  0  0  0  0  0
   10.0746    3.8823    1.3432 H   0  0  0  0  0  0  0  0  0  0  0  0
   12.7706    7.1559    5.5780 H   0  0  0  0  0  0  0  0  0  0  0  0
   14.0225    8.5829    1.4116 H   0  0  0  0  0  0  0  0  0  0  0  0
   12.4946    8.0970    0.6185 H   0  0  0  0  0  0  0  0  0  0  0  0
   13.8888    6.9632    0.6613 H   0  0  0  0  0  0  0  0  0  0  0  0
   10.3729    3.1146    7.6106 H   0  0  0  0  0  0  0  0  0  0  0  0
    8.2576    1.9678    8.2888 H   0  0  0  0  0  0  0  0  0  0  0  0
    5.5275    2.2016    8.6320 H   0  0  0  0  0  0  0  0  0  0  0  0
    5.1056    0.7751    7.6326 H   0  0  0  0  0  0  0  0  0  0  0  0
    4.0845    2.2596    7.6026 H   0  0  0  0  0  0  0  0  0  0  0  0
    5.9411   -0.8720    3.9565 H   0  0  0  0  0  0  0  0  0  0  0  0
    4.4772   -2.8101    4.0641 H   0  0  0  0  0  0  0  0  0  0  0  0
  1  2  1  0  0  0  0
  1 32  1  0  0  0  0
  1 33  1  0  0  0  0
  1 34  1  0  0  0  0
  2  3  1  0  0  0  0
  2  4  1  0  0  0  0
  3 35  1  0  0  0  0
  3 36  1  0  0  0  0
  3 37  1  0  0  0  0
  4  5  1  0  0  0  0
  4 31  2  0  0  0  0
  5  6  2  0  0  0  0
  5 38  1  0  0  0  0
  6  7  1  0  0  0  0
  6 39  1  0  0  0  0
  7  8  1  0  0  0  0
  7 30  2  0  0  0  0
  8  9  1  0  0  0  0
  8 40  1  0  0  0  0
  9 10  2  0  0  0  0
  9 28  1  0  0  0  0
 10 11  1  0  0  0  0
 11 12  1  0  0  0  0
 11 27  2  0  0  0  0
 12 13  2  0  0  0  0
 12 41  1  0  0  0  0
 13 14  1  0  0  0  0
 13 25  1  0  0  0  0
 14 15  1  0  0  0  0
 15 16  1  0  0  0  0
 15 20  2  0  0  0  0
 16 17  2  0  0  0  0
 17 18  1  0  0  0  0
 17 42  1  0  0  0  0
 18 19  2  0  0  0  0
 19 20  1  0  0  0  0
 19 23  1  0  0  0  0
 20 21  1  0  0  0  0
 21 22  2  0  0  0  0
 21 43  1  0  0  0  0
 22 23  1  0  0  0  0
 23 24  1  0  0  0  0
 24 44  1  0  0  0  0
 24 45  1  0  0  0  0
 24 46  1  0  0  0  0
 25 26  2  0  0  0  0
 25 47  1  0  0  0  0
 26 27  1  0  0  0  0
 26 48  1  0  0  0  0
 27 28  1  0  0  0  0
 28 29  1  0  0  0  0
 29 49  1  0  0  0  0
 29 50  1  0  0  0  0
 29 51  1  0  0  0  0
 30 31  1  0  0  0  0
 30 52  1  0  0  0  0
 31 53  1  0  0  0  0
M  END
$$$$
