CHEMBL435227
 OpenBabel04072215383D

 41 43  0  0  0  0  0  0  0  0999 V2000
    2.3962   -0.2138   -0.1332 C   0  0  0  0  0  0  0  0  0  0  0  0
    0.9122   -0.0797   -0.1163 C   0  0  0  0  0  0  0  0  0  0  0  0
    0.0934    1.1072   -0.0997 C   0  0  0  0  0  0  0  0  0  0  0  0
    0.4987    2.5601   -0.0316 C   0  0  0  0  0  0  0  0  0  0  0  0
    1.3082    3.0150   -1.2385 C   0  0  0  0  0  0  0  0  0  0  0  0
    1.6862    4.4745   -1.1907 C   0  0  0  0  0  0  0  0  0  0  0  0
    1.3964    5.2664   -0.3093 O   0  0  0  0  0  0  0  0  0  0  0  0
    2.4217    4.8334   -2.2736 O   0  0  0  0  0  0  0  0  0  0  0  0
   -1.2190    0.6656   -0.0859 C   0  0  0  0  0  0  0  0  0  0  0  0
   -1.2317   -0.7046   -0.0485 N   0  0  0  0  0  0  0  0  0  0  0  0
    0.0552   -1.1700   -0.0255 C   0  0  0  0  0  0  0  0  0  0  0  0
    0.3113   -2.5563    0.1499 C   0  0  0  0  0  0  0  0  0  0  0  0
    0.4576   -3.0891    1.3760 C   0  0  0  0  0  0  0  0  0  0  0  0
    0.1537   -2.3781    2.6832 C   0  0  0  0  0  0  0  0  0  0  0  0
   -0.3445   -1.2877    2.8806 O   0  0  0  0  0  0  0  0  0  0  0  0
    0.5105   -3.2804    3.6657 N   0  0  0  0  0  0  0  0  0  0  0  0
    0.9745   -4.4682    3.1253 C   0  0  0  0  0  0  0  0  0  0  0  0
    1.3909   -5.5625    3.8545 C   0  0  0  0  0  0  0  0  0  0  0  0
    1.8379   -6.6695    3.1400 C   0  0  0  0  0  0  0  0  0  0  0  0
    1.8823   -6.6576    1.7238 C   0  0  0  0  0  0  0  0  0  0  0  0
    2.3644   -7.9140    1.0838 C   0  0  0  0  0  0  0  0  0  0  0  0
    2.2406   -9.0019    1.6224 O   0  0  0  0  0  0  0  0  0  0  0  0
    2.9894   -7.7558   -0.0980 O   0  0  0  0  0  0  0  0  0  0  0  0
    1.4421   -5.5263    1.0024 C   0  0  0  0  0  0  0  0  0  0  0  0
    0.9722   -4.4355    1.7302 C   0  0  0  0  0  0  0  0  0  0  0  0
    2.9179    0.7417   -0.1764 H   0  0  0  0  0  0  0  0  0  0  0  0
    2.6975   -0.8061   -1.0061 H   0  0  0  0  0  0  0  0  0  0  0  0
    2.7407   -0.7432    0.7619 H   0  0  0  0  0  0  0  0  0  0  0  0
    1.0511    2.7389    0.8997 H   0  0  0  0  0  0  0  0  0  0  0  0
   -0.4076    3.1798    0.0402 H   0  0  0  0  0  0  0  0  0  0  0  0
    0.7310    2.8486   -2.1540 H   0  0  0  0  0  0  0  0  0  0  0  0
    2.2403    2.4486   -1.2989 H   0  0  0  0  0  0  0  0  0  0  0  0
    2.5759    4.1002   -2.9004 H   0  0  0  0  0  0  0  0  0  0  0  0
   -2.1489    1.2176   -0.0411 H   0  0  0  0  0  0  0  0  0  0  0  0
   -2.0648   -1.2702    0.0391 H   0  0  0  0  0  0  0  0  0  0  0  0
    0.5387   -3.1328   -0.7415 H   0  0  0  0  0  0  0  0  0  0  0  0
    0.4031   -3.0722    4.6471 H   0  0  0  0  0  0  0  0  0  0  0  0
    1.3607   -5.5740    4.9381 H   0  0  0  0  0  0  0  0  0  0  0  0
    2.1568   -7.5573    3.6848 H   0  0  0  0  0  0  0  0  0  0  0  0
    3.1756   -6.8421   -0.3723 H   0  0  0  0  0  0  0  0  0  0  0  0
    1.4447   -5.5068   -0.0820 H   0  0  0  0  0  0  0  0  0  0  0  0
  1  2  1  0  0  0  0
  1 26  1  0  0  0  0
  1 27  1  0  0  0  0
  1 28  1  0  0  0  0
  2  3  1  0  0  0  0
  2 11  2  0  0  0  0
  3  4  1  0  0  0  0
  3  9  2  0  0  0  0
  4  5  1  0  0  0  0
  4 29  1  0  0  0  0
  4 30  1  0  0  0  0
  5  6  1  0  0  0  0
  5 31  1  0  0  0  0
  5 32  1  0  0  0  0
  6  7  2  0  0  0  0
  6  8  1  0  0  0  0
  8 33  1  0  0  0  0
  9 10  1  0  0  0  0
  9 34  1  0  0  0  0
 10 11  1  0  0  0  0
 10 35  1  0  0  0  0
 11 12  1  0  0  0  0
 12 13  2  0  0  0  0
 12 36  1  0  0  0  0
 13 14  1  0  0  0  0
 13 25  1  0  0  0  0
 14 15  2  0  0  0  0
 14 16  1  0  0  0  0
 16 17  1  0  0  0  0
 16 37  1  0  0  0  0
 17 18  1  0  0  0  0
 17 25  2  0  0  0  0
 18 19  2  0  0  0  0
 18 38  1  0  0  0  0
 19 20  1  0  0  0  0
 19 39  1  0  0  0  0
 20 21  1  0  0  0  0
 20 24  2  0  0  0  0
 21 22  2  0  0  0  0
 21 23  1  0  0  0  0
 23 40  1  0  0  0  0
 24 25  1  0  0  0  0
 24 41  1  0  0  0  0
M  END
$$$$
