CHEMBL4172854
 OpenBabel04072215383D

 45 48  0  0  0  0  0  0  0  0999 V2000
    0.2553   -1.9482    1.8761 C   0  0  0  0  0  0  0  0  0  0  0  0
   -0.1211   -0.9040    0.9032 C   0  0  0  0  0  0  0  0  0  0  0  0
    0.4163   -0.4898   -0.2929 C   0  0  0  0  0  0  0  0  0  0  0  0
   -0.4082    0.5659   -0.7453 C   0  0  0  0  0  0  0  0  0  0  0  0
   -1.4104    0.7491    0.1954 C   0  0  0  0  0  0  0  0  0  0  0  0
   -2.4739    1.7154    0.1537 C   0  0  0  0  0  0  0  0  0  0  0  0
   -2.5676    2.6088   -0.8089 N   0  0  0  0  0  0  0  0  0  0  0  0
   -3.6915    3.3334   -0.5370 C   0  0  0  0  0  0  0  0  0  0  0  0
   -4.2297    4.4062   -1.2646 C   0  0  0  0  0  0  0  0  0  0  0  0
   -5.4051    5.0095   -0.8114 C   0  0  0  0  0  0  0  0  0  0  0  0
   -6.0401    4.5379    0.3322 C   0  0  0  0  0  0  0  0  0  0  0  0
   -5.5194    3.4634    1.0688 C   0  0  0  0  0  0  0  0  0  0  0  0
   -4.3206    2.8818    0.6252 C   0  0  0  0  0  0  0  0  0  0  0  0
   -3.5002    1.8645    1.0772 N   0  0  0  0  0  0  0  0  0  0  0  0
   -3.5765    1.0838    2.3070 C   0  0  0  0  0  0  0  0  0  0  0  0
   -4.7846    1.2789    3.1795 C   0  0  0  0  0  0  0  0  0  0  0  0
   -5.7940    0.5884    3.0220 O   0  0  0  0  0  0  0  0  0  0  0  0
   -4.6573    2.2566    4.1670 N   0  0  0  0  0  0  0  0  0  0  0  0
   -5.7520    2.4962    4.9348 N   0  0  0  0  0  0  0  0  0  0  0  0
   -5.6964    3.3970    5.8628 C   0  0  0  0  0  0  0  0  0  0  0  0
   -6.9270    3.6991    6.6423 C   0  0  0  0  0  0  0  0  0  0  0  0
   -8.0968    2.9797    6.3337 C   0  0  0  0  0  0  0  0  0  0  0  0
   -9.2996    3.2606    6.9781 C   0  0  0  0  0  0  0  0  0  0  0  0
   -9.3495    4.2597    7.9445 C   0  0  0  0  0  0  0  0  0  0  0  0
   -8.1897    4.9693    8.2715 C   0  0  0  0  0  0  0  0  0  0  0  0
   -6.9780    4.6922    7.6259 C   0  0  0  0  0  0  0  0  0  0  0  0
   -5.5999    5.6241    8.0864 Cl  0  0  0  0  0  0  0  0  0  0  0  0
   -1.2209   -0.1606    1.2065 O   0  0  0  0  0  0  0  0  0  0  0  0
    1.1245   -2.5148    1.5273 H   0  0  0  0  0  0  0  0  0  0  0  0
   -0.5703   -2.6501    2.0267 H   0  0  0  0  0  0  0  0  0  0  0  0
    0.5077   -1.4965    2.8402 H   0  0  0  0  0  0  0  0  0  0  0  0
    1.2924   -0.8952   -0.7796 H   0  0  0  0  0  0  0  0  0  0  0  0
   -0.3005    1.1427   -1.6546 H   0  0  0  0  0  0  0  0  0  0  0  0
   -3.7325    4.7511   -2.1644 H   0  0  0  0  0  0  0  0  0  0  0  0
   -5.8275    5.8440   -1.3670 H   0  0  0  0  0  0  0  0  0  0  0  0
   -6.9661    5.0066    0.6607 H   0  0  0  0  0  0  0  0  0  0  0  0
   -6.0648    3.1090    1.9370 H   0  0  0  0  0  0  0  0  0  0  0  0
   -2.6670    1.2886    2.8830 H   0  0  0  0  0  0  0  0  0  0  0  0
   -3.5751    0.0274    2.0122 H   0  0  0  0  0  0  0  0  0  0  0  0
   -3.8745    2.9027    4.1919 H   0  0  0  0  0  0  0  0  0  0  0  0
   -4.7721    3.9518    6.0792 H   0  0  0  0  0  0  0  0  0  0  0  0
   -8.0792    2.1973    5.5749 H   0  0  0  0  0  0  0  0  0  0  0  0
  -10.1955    2.7039    6.7134 H   0  0  0  0  0  0  0  0  0  0  0  0
  -10.2907    4.4876    8.4390 H   0  0  0  0  0  0  0  0  0  0  0  0
   -8.2469    5.7455    9.0319 H   0  0  0  0  0  0  0  0  0  0  0  0
  1  2  1  0  0  0  0
  1 29  1  0  0  0  0
  1 30  1  0  0  0  0
  1 31  1  0  0  0  0
  2  3  2  0  0  0  0
  2 28  1  0  0  0  0
  3  4  1  0  0  0  0
  3 32  1  0  0  0  0
  4  5  2  0  0  0  0
  4 33  1  0  0  0  0
  5  6  1  0  0  0  0
  5 28  1  0  0  0  0
  6  7  2  0  0  0  0
  6 14  1  0  0  0  0
  7  8  1  0  0  0  0
  8  9  1  0  0  0  0
  8 13  2  0  0  0  0
  9 10  2  0  0  0  0
  9 34  1  0  0  0  0
 10 11  1  0  0  0  0
 10 35  1  0  0  0  0
 11 12  2  0  0  0  0
 11 36  1  0  0  0  0
 12 13  1  0  0  0  0
 12 37  1  0  0  0  0
 13 14  1  0  0  0  0
 14 15  1  0  0  0  0
 15 16  1  0  0  0  0
 15 38  1  0  0  0  0
 15 39  1  0  0  0  0
 16 17  2  0  0  0  0
 16 18  1  0  0  0  0
 18 19  1  0  0  0  0
 18 40  1  0  0  0  0
 19 20  2  0  0  0  0
 20 21  1  0  0  0  0
 20 41  1  0  0  0  0
 21 22  1  0  0  0  0
 21 26  2  0  0  0  0
 22 23  2  0  0  0  0
 22 42  1  0  0  0  0
 23 24  1  0  0  0  0
 23 43  1  0  0  0  0
 24 25  2  0  0  0  0
 24 44  1  0  0  0  0
 25 26  1  0  0  0  0
 25 45  1  0  0  0  0
 26 27  1  0  0  0  0
M  END
$$$$
