CHEMBL3948354
 OpenBabel04072215373D

 70 74  0  0  0  0  0  0  0  0999 V2000
    2.4986    1.0510    0.8832 C   0  0  0  0  0  0  0  0  0  0  0  0
    2.3969    0.0022   -0.0740 O   0  0  0  0  0  0  0  0  0  0  0  0
    3.1099   -1.1503    0.0880 C   0  0  0  0  0  0  0  0  0  0  0  0
    4.2125   -1.2357    0.9316 C   0  0  0  0  0  0  0  0  0  0  0  0
    4.8738   -2.4629    1.1624 C   0  0  0  0  0  0  0  0  0  0  0  0
    5.9426   -2.6093    2.0606 C   0  0  0  0  0  0  0  0  0  0  0  0
    6.2859   -1.5176    2.8910 N   0  0  0  0  0  0  0  0  0  0  0  0
    7.5301   -1.1495    3.4188 C   0  0  0  0  0  0  0  0  0  0  0  0
    7.5714   -0.1631    4.4035 C   0  0  0  0  0  0  0  0  0  0  0  0
    8.7839    0.3915    4.8141 C   0  0  0  0  0  0  0  0  0  0  0  0
    9.9918    0.0142    4.2194 C   0  0  0  0  0  0  0  0  0  0  0  0
   11.2200    0.6769    4.5057 N   0  0  0  0  0  0  0  0  0  0  0  0
   11.3161    1.9045    5.1271 C   0  0  0  0  0  0  0  0  0  0  0  0
   10.3613    2.5413    5.5626 O   0  0  0  0  0  0  0  0  0  0  0  0
   12.6171    2.3928    5.1592 N   0  0  0  0  0  0  0  0  0  0  0  0
   12.8470    3.6668    5.7374 C   0  0  0  0  0  0  0  0  0  0  0  0
   12.2874    4.0051    6.9766 C   0  0  0  0  0  0  0  0  0  0  0  0
   12.3821    5.3071    7.4640 C   0  0  0  0  0  0  0  0  0  0  0  0
   13.0418    6.2770    6.7151 C   0  0  0  0  0  0  0  0  0  0  0  0
   13.6391    5.9342    5.5004 C   0  0  0  0  0  0  0  0  0  0  0  0
   13.5657    4.6229    5.0206 C   0  0  0  0  0  0  0  0  0  0  0  0
    9.9595   -1.0176    3.2714 C   0  0  0  0  0  0  0  0  0  0  0  0
   11.4066   -1.5608    2.4916 Cl  0  0  0  0  0  0  0  0  0  0  0  0
    8.7415   -1.5853    2.8726 C   0  0  0  0  0  0  0  0  0  0  0  0
    6.6128   -3.7608    2.1902 N   0  0  0  0  0  0  0  0  0  0  0  0
    6.1770   -4.7872    1.4540 C   0  0  0  0  0  0  0  0  0  0  0  0
    5.1335   -4.7763    0.6159 N   0  0  0  0  0  0  0  0  0  0  0  0
    4.4891   -3.6099    0.4670 C   0  0  0  0  0  0  0  0  0  0  0  0
    3.4215   -3.5053   -0.4216 C   0  0  0  0  0  0  0  0  0  0  0  0
    2.7413   -2.2948   -0.6431 C   0  0  0  0  0  0  0  0  0  0  0  0
    1.7568   -2.3822   -1.6116 O   0  0  0  0  0  0  0  0  0  0  0  0
    1.5076   -1.1583   -2.3133 C   0  0  0  0  0  0  0  0  0  0  0  0
    1.0071   -1.3816   -3.7543 C   0  0  0  0  0  0  0  0  0  0  0  0
    0.7600   -0.1057   -4.4732 N   0  0  0  0  0  0  0  0  0  0  0  0
    1.9632    0.7413   -4.5468 C   0  0  0  0  0  0  0  0  0  0  0  0
    1.6614    2.0881   -5.1984 C   0  0  0  0  0  0  0  0  0  0  0  0
    1.0804    1.9043   -6.5896 C   0  0  0  0  0  0  0  0  0  0  0  0
   -0.1143    0.9584   -6.5395 C   0  0  0  0  0  0  0  0  0  0  0  0
    0.2260   -0.3544   -5.8225 C   0  0  0  0  0  0  0  0  0  0  0  0
    2.9495    1.9241    0.4023 H   0  0  0  0  0  0  0  0  0  0  0  0
    3.0533    0.8114    1.7928 H   0  0  0  0  0  0  0  0  0  0  0  0
    1.4852    1.3161    1.1976 H   0  0  0  0  0  0  0  0  0  0  0  0
    4.6240   -0.3444    1.3946 H   0  0  0  0  0  0  0  0  0  0  0  0
    5.4987   -1.2806    3.4936 H   0  0  0  0  0  0  0  0  0  0  0  0
    6.6577    0.2225    4.8518 H   0  0  0  0  0  0  0  0  0  0  0  0
    8.7353    1.1444    5.5944 H   0  0  0  0  0  0  0  0  0  0  0  0
   12.0445    0.2862    4.0790 H   0  0  0  0  0  0  0  0  0  0  0  0
   13.1749    2.1640    4.3498 H   0  0  0  0  0  0  0  0  0  0  0  0
   11.7397    3.2643    7.5549 H   0  0  0  0  0  0  0  0  0  0  0  0
   11.9123    5.5645    8.4094 H   0  0  0  0  0  0  0  0  0  0  0  0
   13.0785    7.3025    7.0727 H   0  0  0  0  0  0  0  0  0  0  0  0
   14.1349    6.7004    4.9104 H   0  0  0  0  0  0  0  0  0  0  0  0
   13.9978    4.3898    4.0526 H   0  0  0  0  0  0  0  0  0  0  0  0
    8.7417   -2.3433    2.0948 H   0  0  0  0  0  0  0  0  0  0  0  0
    6.7192   -5.7226    1.5464 H   0  0  0  0  0  0  0  0  0  0  0  0
    3.1212   -4.3891   -0.9768 H   0  0  0  0  0  0  0  0  0  0  0  0
    2.4465   -0.6055   -2.3800 H   0  0  0  0  0  0  0  0  0  0  0  0
    0.7506   -0.5865   -1.7646 H   0  0  0  0  0  0  0  0  0  0  0  0
    0.0742   -1.9589   -3.7034 H   0  0  0  0  0  0  0  0  0  0  0  0
    1.7235   -2.0106   -4.2988 H   0  0  0  0  0  0  0  0  0  0  0  0
    2.7669    0.2272   -5.0896 H   0  0  0  0  0  0  0  0  0  0  0  0
    2.3400    0.9818   -3.5493 H   0  0  0  0  0  0  0  0  0  0  0  0
    2.5785    2.6858   -5.2494 H   0  0  0  0  0  0  0  0  0  0  0  0
    0.9531    2.6455   -4.5715 H   0  0  0  0  0  0  0  0  0  0  0  0
    1.8497    1.4949   -7.2553 H   0  0  0  0  0  0  0  0  0  0  0  0
    0.7808    2.8750   -6.9993 H   0  0  0  0  0  0  0  0  0  0  0  0
   -0.4552    0.7483   -7.5594 H   0  0  0  0  0  0  0  0  0  0  0  0
   -0.9449    1.4533   -6.0201 H   0  0  0  0  0  0  0  0  0  0  0  0
    0.9447   -0.9244   -6.4259 H   0  0  0  0  0  0  0  0  0  0  0  0
   -0.6916   -0.9513   -5.7578 H   0  0  0  0  0  0  0  0  0  0  0  0
  1  2  1  0  0  0  0
  1 40  1  0  0  0  0
  1 41  1  0  0  0  0
  1 42  1  0  0  0  0
  2  3  1  0  0  0  0
  3  4  1  0  0  0  0
  3 30  2  0  0  0  0
  4  5  2  0  0  0  0
  4 43  1  0  0  0  0
  5  6  1  0  0  0  0
  5 28  1  0  0  0  0
  6  7  1  0  0  0  0
  6 25  2  0  0  0  0
  7  8  1  0  0  0  0
  7 44  1  0  0  0  0
  8  9  1  0  0  0  0
  8 24  2  0  0  0  0
  9 10  2  0  0  0  0
  9 45  1  0  0  0  0
 10 11  1  0  0  0  0
 10 46  1  0  0  0  0
 11 12  1  0  0  0  0
 11 22  2  0  0  0  0
 12 13  1  0  0  0  0
 12 47  1  0  0  0  0
 13 14  2  0  0  0  0
 13 15  1  0  0  0  0
 15 16  1  0  0  0  0
 15 48  1  0  0  0  0
 16 17  1  0  0  0  0
 16 21  2  0  0  0  0
 17 18  2  0  0  0  0
 17 49  1  0  0  0  0
 18 19  1  0  0  0  0
 18 50  1  0  0  0  0
 19 20  2  0  0  0  0
 19 51  1  0  0  0  0
 20 21  1  0  0  0  0
 20 52  1  0  0  0  0
 21 53  1  0  0  0  0
 22 23  1  0  0  0  0
 22 24  1  0  0  0  0
 24 54  1  0  0  0  0
 25 26  1  0  0  0  0
 26 27  2  0  0  0  0
 26 55  1  0  0  0  0
 27 28  1  0  0  0  0
 28 29  2  0  0  0  0
 29 30  1  0  0  0  0
 29 56  1  0  0  0  0
 30 31  1  0  0  0  0
 31 32  1  0  0  0  0
 32 33  1  0  0  0  0
 32 57  1  0  0  0  0
 32 58  1  0  0  0  0
 33 34  1  0  0  0  0
 33 59  1  0  0  0  0
 33 60  1  0  0  0  0
 34 35  1  0  0  0  0
 34 39  1  0  0  0  0
 35 36  1  0  0  0  0
 35 61  1  0  0  0  0
 35 62  1  0  0  0  0
 36 37  1  0  0  0  0
 36 63  1  0  0  0  0
 36 64  1  0  0  0  0
 37 38  1  0  0  0  0
 37 65  1  0  0  0  0
 37 66  1  0  0  0  0
 38 39  1  0  0  0  0
 38 67  1  0  0  0  0
 38 68  1  0  0  0  0
 39 69  1  0  0  0  0
 39 70  1  0  0  0  0
M  END
$$$$
