CHEMBL13976
 OpenBabel04072215363D

 50 52  0  0  0  0  0  0  0  0999 V2000
    2.6129    0.5985   -0.0025 C   0  0  0  0  0  0  0  0  0  0  0  0
    1.1545    0.3034    0.0241 C   0  0  0  0  0  0  0  0  0  0  0  0
    0.7347   -1.0073    0.0363 N   0  0  0  0  0  0  0  0  0  0  0  0
   -0.6315   -1.0894    0.0178 C   0  0  0  0  0  0  0  0  0  0  0  0
   -1.3231   -2.3299    0.0243 C   0  0  0  0  0  0  0  0  0  0  0  0
   -0.8470   -3.5838    0.0378 C   0  0  0  0  0  0  0  0  0  0  0  0
    0.5612   -4.1257    0.0491 C   0  0  0  0  0  0  0  0  0  0  0  0
    1.6073   -3.5051    0.0501 O   0  0  0  0  0  0  0  0  0  0  0  0
    0.4232   -5.5059    0.0600 N   0  0  0  0  0  0  0  0  0  0  0  0
   -0.9148   -5.8838    0.0580 C   0  0  0  0  0  0  0  0  0  0  0  0
   -1.4156   -7.1706    0.0686 C   0  0  0  0  0  0  0  0  0  0  0  0
   -2.8050   -7.3166    0.0649 C   0  0  0  0  0  0  0  0  0  0  0  0
   -3.6364   -6.1873    0.0509 C   0  0  0  0  0  0  0  0  0  0  0  0
   -4.9649   -6.3548    0.0486 F   0  0  0  0  0  0  0  0  0  0  0  0
   -3.1179   -4.8955    0.0397 C   0  0  0  0  0  0  0  0  0  0  0  0
   -1.7406   -4.7557    0.0435 C   0  0  0  0  0  0  0  0  0  0  0  0
   -1.1124    0.2133   -0.0103 C   0  0  0  0  0  0  0  0  0  0  0  0
   -2.5432    0.6476   -0.0245 C   0  0  0  0  0  0  0  0  0  0  0  0
    0.0205    1.1091   -0.0141 C   0  0  0  0  0  0  0  0  0  0  0  0
   -0.0750    2.5728   -0.0798 C   0  0  0  0  0  0  0  0  0  0  0  0
   -1.0423    3.1435   -0.5794 O   0  0  0  0  0  0  0  0  0  0  0  0
    0.9495    3.2742    0.5054 N   0  0  0  0  0  0  0  0  0  0  0  0
    0.9107    4.7188    0.5792 C   0  0  0  0  0  0  0  0  0  0  0  0
    2.1517    5.3162    1.2631 C   0  0  0  0  0  0  0  0  0  0  0  0
    3.4427    4.9205    0.6594 N   0  0  0  0  0  0  0  0  0  0  0  0
    3.5490    5.3782   -0.7298 C   0  0  0  0  0  0  0  0  0  0  0  0
    4.5476    5.4805    1.4437 C   0  0  0  0  0  0  0  0  0  0  0  0
    3.2053   -0.3226   -0.0490 H   0  0  0  0  0  0  0  0  0  0  0  0
    2.9221    1.1291    0.9022 H   0  0  0  0  0  0  0  0  0  0  0  0
    2.8689    1.2027   -0.8778 H   0  0  0  0  0  0  0  0  0  0  0  0
    1.3653   -1.8039    0.0392 H   0  0  0  0  0  0  0  0  0  0  0  0
   -2.4043   -2.2221    0.0138 H   0  0  0  0  0  0  0  0  0  0  0  0
    1.2136   -6.1324    0.0693 H   0  0  0  0  0  0  0  0  0  0  0  0
   -0.7661   -8.0380    0.0784 H   0  0  0  0  0  0  0  0  0  0  0  0
   -3.2580   -8.3027    0.0735 H   0  0  0  0  0  0  0  0  0  0  0  0
   -3.7920   -4.0471    0.0283 H   0  0  0  0  0  0  0  0  0  0  0  0
   -3.2368   -0.1960    0.0229 H   0  0  0  0  0  0  0  0  0  0  0  0
   -2.7684    1.2032   -0.9399 H   0  0  0  0  0  0  0  0  0  0  0  0
   -2.7511    1.2886    0.8387 H   0  0  0  0  0  0  0  0  0  0  0  0
    1.6885    2.7856    0.9871 H   0  0  0  0  0  0  0  0  0  0  0  0
    0.0125    5.0005    1.1411 H   0  0  0  0  0  0  0  0  0  0  0  0
    0.7842    5.1119   -0.4356 H   0  0  0  0  0  0  0  0  0  0  0  0
    2.1432    4.9709    2.3058 H   0  0  0  0  0  0  0  0  0  0  0  0
    2.0511    6.4089    1.2869 H   0  0  0  0  0  0  0  0  0  0  0  0
    2.8114    4.8836   -1.3692 H   0  0  0  0  0  0  0  0  0  0  0  0
    4.5287    5.1190   -1.1470 H   0  0  0  0  0  0  0  0  0  0  0  0
    3.4155    6.4628   -0.8174 H   0  0  0  0  0  0  0  0  0  0  0  0
    4.5154    5.1112    2.4746 H   0  0  0  0  0  0  0  0  0  0  0  0
    4.5235    6.5764    1.4679 H   0  0  0  0  0  0  0  0  0  0  0  0
    5.5120    5.1669    1.0288 H   0  0  0  0  0  0  0  0  0  0  0  0
  1  2  1  0  0  0  0
  1 28  1  0  0  0  0
  1 29  1  0  0  0  0
  1 30  1  0  0  0  0
  2  3  1  0  0  0  0
  2 19  2  0  0  0  0
  3  4  1  0  0  0  0
  3 31  1  0  0  0  0
  4  5  1  0  0  0  0
  4 17  2  0  0  0  0
  5  6  2  0  0  0  0
  5 32  1  0  0  0  0
  6  7  1  0  0  0  0
  6 16  1  0  0  0  0
  7  8  2  0  0  0  0
  7  9  1  0  0  0  0
  9 10  1  0  0  0  0
  9 33  1  0  0  0  0
 10 11  1  0  0  0  0
 10 16  2  0  0  0  0
 11 12  2  0  0  0  0
 11 34  1  0  0  0  0
 12 13  1  0  0  0  0
 12 35  1  0  0  0  0
 13 14  1  0  0  0  0
 13 15  2  0  0  0  0
 15 16  1  0  0  0  0
 15 36  1  0  0  0  0
 17 18  1  0  0  0  0
 17 19  1  0  0  0  0
 18 37  1  0  0  0  0
 18 38  1  0  0  0  0
 18 39  1  0  0  0  0
 19 20  1  0  0  0  0
 20 21  2  0  0  0  0
 20 22  1  0  0  0  0
 22 23  1  0  0  0  0
 22 40  1  0  0  0  0
 23 24  1  0  0  0  0
 23 41  1  0  0  0  0
 23 42  1  0  0  0  0
 24 25  1  0  0  0  0
 24 43  1  0  0  0  0
 24 44  1  0  0  0  0
 25 26  1  0  0  0  0
 25 27  1  0  0  0  0
 26 45  1  0  0  0  0
 26 46  1  0  0  0  0
 26 47  1  0  0  0  0
 27 48  1  0  0  0  0
 27 49  1  0  0  0  0
 27 50  1  0  0  0  0
M  END
$$$$
