CHEMBL392313
 OpenBabel04072215373D

 49 52  0  0  0  0  0  0  0  0999 V2000
    1.1347    0.2222    0.5081 O   0  0  0  0  0  0  0  0  0  0  0  0
    2.2289   -0.1481    0.0989 C   0  0  0  0  0  0  0  0  0  0  0  0
    2.6846    0.0276   -1.2012 N   0  0  0  0  0  0  0  0  0  0  0  0
    1.9602    0.5445   -2.2970 C   0  0  0  0  0  0  0  0  0  0  0  0
    0.7260    1.1806   -2.1751 C   0  0  0  0  0  0  0  0  0  0  0  0
    0.0089    1.5739   -3.3102 C   0  0  0  0  0  0  0  0  0  0  0  0
    0.5478    1.3922   -4.5831 C   0  0  0  0  0  0  0  0  0  0  0  0
   -0.0977    1.7137   -5.7562 O   0  0  0  0  0  0  0  0  0  0  0  0
   -0.9556    2.7896   -5.7996 C   0  0  0  0  0  0  0  0  0  0  0  0
   -0.7599    3.9758   -5.0871 C   0  0  0  0  0  0  0  0  0  0  0  0
   -1.6856    5.0150   -5.1890 C   0  0  0  0  0  0  0  0  0  0  0  0
   -2.7778    4.8956   -6.0466 C   0  0  0  0  0  0  0  0  0  0  0  0
   -2.9458    3.7366   -6.8036 C   0  0  0  0  0  0  0  0  0  0  0  0
   -2.0365    2.6839   -6.6789 C   0  0  0  0  0  0  0  0  0  0  0  0
    1.7914    0.7751   -4.7152 C   0  0  0  0  0  0  0  0  0  0  0  0
    2.5017    0.3641   -3.5790 C   0  0  0  0  0  0  0  0  0  0  0  0
    3.1563   -0.8521    0.9657 C   0  0  0  0  0  0  0  0  0  0  0  0
    4.2696   -1.6162    0.6445 C   0  0  0  0  0  0  0  0  0  0  0  0
    4.7684   -2.0985    1.8597 C   0  0  0  0  0  0  0  0  0  0  0  0
    4.0389   -1.6947    2.8925 N   0  0  0  0  0  0  0  0  0  0  0  0
    3.0543   -0.9413    2.3438 N   0  0  0  0  0  0  0  0  0  0  0  0
    2.0298   -0.3895    3.2331 C   0  0  0  0  0  0  0  0  0  0  0  0
    2.5457   -0.1447    4.6605 C   0  0  0  0  0  0  0  0  0  0  0  0
    1.5387    0.3284    5.6803 C   0  0  0  0  0  0  0  0  0  0  0  0
    0.4108   -0.4311    6.0032 C   0  0  0  0  0  0  0  0  0  0  0  0
   -0.3906   -0.0242    7.0609 C   0  0  0  0  0  0  0  0  0  0  0  0
   -0.1557    1.0775    7.8049 N   0  0  0  0  0  0  0  0  0  0  0  0
    0.9330    1.8035    7.4780 C   0  0  0  0  0  0  0  0  0  0  0  0
    1.7936    1.4753    6.4402 C   0  0  0  0  0  0  0  0  0  0  0  0
    3.6017   -0.3333   -1.4185 H   0  0  0  0  0  0  0  0  0  0  0  0
    0.2817    1.3867   -1.2075 H   0  0  0  0  0  0  0  0  0  0  0  0
   -0.9720    2.0185   -3.1712 H   0  0  0  0  0  0  0  0  0  0  0  0
    0.1020    4.1012   -4.4386 H   0  0  0  0  0  0  0  0  0  0  0  0
   -1.5489    5.9196   -4.6023 H   0  0  0  0  0  0  0  0  0  0  0  0
   -3.4920    5.7106   -6.1322 H   0  0  0  0  0  0  0  0  0  0  0  0
   -3.7845    3.6527   -7.4896 H   0  0  0  0  0  0  0  0  0  0  0  0
   -2.1725    1.7807   -7.2684 H   0  0  0  0  0  0  0  0  0  0  0  0
    2.2043    0.5989   -5.7044 H   0  0  0  0  0  0  0  0  0  0  0  0
    3.4586   -0.1269   -3.7186 H   0  0  0  0  0  0  0  0  0  0  0  0
    4.6652   -1.8355   -0.3372 H   0  0  0  0  0  0  0  0  0  0  0  0
    5.6238   -2.7361    2.0390 H   0  0  0  0  0  0  0  0  0  0  0  0
    1.2025   -1.1082    3.2199 H   0  0  0  0  0  0  0  0  0  0  0  0
    1.6817    0.5582    2.8100 H   0  0  0  0  0  0  0  0  0  0  0  0
    3.3723    0.5783    4.6028 H   0  0  0  0  0  0  0  0  0  0  0  0
    2.9848   -1.0663    5.0731 H   0  0  0  0  0  0  0  0  0  0  0  0
    0.1769   -1.3562    5.4801 H   0  0  0  0  0  0  0  0  0  0  0  0
   -1.2596   -0.6034    7.3619 H   0  0  0  0  0  0  0  0  0  0  0  0
    1.1152    2.6729    8.1034 H   0  0  0  0  0  0  0  0  0  0  0  0
    2.6685    2.0944    6.2577 H   0  0  0  0  0  0  0  0  0  0  0  0
  1  2  2  0  0  0  0
  2  3  1  0  0  0  0
  2 17  1  0  0  0  0
  3  4  1  0  0  0  0
  3 30  1  0  0  0  0
  4  5  1  0  0  0  0
  4 16  2  0  0  0  0
  5  6  2  0  0  0  0
  5 31  1  0  0  0  0
  6  7  1  0  0  0  0
  6 32  1  0  0  0  0
  7  8  1  0  0  0  0
  7 15  2  0  0  0  0
  8  9  1  0  0  0  0
  9 10  1  0  0  0  0
  9 14  2  0  0  0  0
 10 11  2  0  0  0  0
 10 33  1  0  0  0  0
 11 12  1  0  0  0  0
 11 34  1  0  0  0  0
 12 13  2  0  0  0  0
 12 35  1  0  0  0  0
 13 14  1  0  0  0  0
 13 36  1  0  0  0  0
 14 37  1  0  0  0  0
 15 16  1  0  0  0  0
 15 38  1  0  0  0  0
 16 39  1  0  0  0  0
 17 18  2  0  0  0  0
 17 21  1  0  0  0  0
 18 19  1  0  0  0  0
 18 40  1  0  0  0  0
 19 20  2  0  0  0  0
 19 41  1  0  0  0  0
 20 21  1  0  0  0  0
 21 22  1  0  0  0  0
 22 23  1  0  0  0  0
 22 42  1  0  0  0  0
 22 43  1  0  0  0  0
 23 24  1  0  0  0  0
 23 44  1  0  0  0  0
 23 45  1  0  0  0  0
 24 25  1  0  0  0  0
 24 29  2  0  0  0  0
 25 26  2  0  0  0  0
 25 46  1  0  0  0  0
 26 27  1  0  0  0  0
 26 47  1  0  0  0  0
 27 28  2  0  0  0  0
 28 29  1  0  0  0  0
 28 48  1  0  0  0  0
 29 49  1  0  0  0  0
M  END
$$$$
