CHEMBL3696074
 OpenBabel04072215373D

 69 72  0  0  0  0  0  0  0  0999 V2000
    2.5298   -4.2849    3.2103 C   0  0  0  0  0  0  0  0  0  0  0  0
    1.1581   -4.8113    2.9069 C   0  0  0  0  0  0  0  0  0  0  0  0
    0.8931   -6.1744    3.0701 C   0  0  0  0  0  0  0  0  0  0  0  0
   -0.3694   -6.6768    2.7940 C   0  0  0  0  0  0  0  0  0  0  0  0
   -1.3759   -5.8216    2.3499 C   0  0  0  0  0  0  0  0  0  0  0  0
   -1.1512   -4.4516    2.1823 C   0  0  0  0  0  0  0  0  0  0  0  0
   -2.1485   -3.5599    1.7164 N   0  0  0  0  0  0  0  0  0  0  0  0
   -3.4785   -3.8919    1.5036 C   0  0  0  0  0  0  0  0  0  0  0  0
   -3.9810   -4.9769    1.7722 O   0  0  0  0  0  0  0  0  0  0  0  0
   -4.1995   -2.8732    0.8878 N   0  0  0  0  0  0  0  0  0  0  0  0
   -5.5715   -3.0795    0.5977 C   0  0  0  0  0  0  0  0  0  0  0  0
   -6.4284   -3.6426    1.5473 C   0  0  0  0  0  0  0  0  0  0  0  0
   -7.7559   -3.9245    1.2261 C   0  0  0  0  0  0  0  0  0  0  0  0
   -8.2622   -3.6361   -0.0492 C   0  0  0  0  0  0  0  0  0  0  0  0
   -9.6913   -3.8688   -0.3246 C   0  0  0  0  0  0  0  0  0  0  0  0
  -10.5382   -3.6292    0.6866 N   0  0  0  0  0  0  0  0  0  0  0  0
  -12.0903   -3.8433    0.1931 S   0  0  0  0  0  0  0  0  0  0  0  0
  -11.7021   -4.2716   -1.4035 C   0  0  0  0  0  0  0  0  0  0  0  0
  -12.7303   -4.4830   -2.3132 N   0  0  0  0  0  0  0  0  0  0  0  0
  -13.6962   -5.4162   -1.9955 C   0  0  0  0  0  0  0  0  0  0  0  0
  -13.6254   -6.2049   -1.0596 O   0  0  0  0  0  0  0  0  0  0  0  0
  -14.7792   -5.3692   -2.8432 N   0  0  0  0  0  0  0  0  0  0  0  0
  -15.8810   -6.3021   -2.6950 C   0  0  0  0  0  0  0  0  0  0  0  0
  -16.6378   -6.1466   -1.3695 C   0  0  0  0  0  0  0  0  0  0  0  0
  -17.6928   -7.2483   -1.2060 C   0  0  0  0  0  0  0  0  0  0  0  0
  -18.4112   -7.1997    0.0818 N   0  0  0  0  0  0  0  0  0  0  0  0
  -17.5348   -7.4152    1.2602 C   0  0  0  0  0  0  0  0  0  0  0  0
  -16.9999   -8.8517    1.3783 C   0  0  0  0  0  0  0  0  0  0  0  0
  -18.0769   -9.7973    1.4391 O   0  0  0  0  0  0  0  0  0  0  0  0
  -18.9346   -9.6733    0.2980 C   0  0  0  0  0  0  0  0  0  0  0  0
  -19.4705   -8.2373    0.1366 C   0  0  0  0  0  0  0  0  0  0  0  0
  -10.3264   -4.2966   -1.5652 C   0  0  0  0  0  0  0  0  0  0  0  0
   -9.7268   -4.7391   -2.8095 C   0  0  0  0  0  0  0  0  0  0  0  0
   -8.5599   -5.4401   -2.7104 N   0  0  0  0  0  0  0  0  0  0  0  0
  -10.2643   -4.5743   -3.9015 O   0  0  0  0  0  0  0  0  0  0  0  0
   -7.4039   -3.0485   -0.9904 C   0  0  0  0  0  0  0  0  0  0  0  0
   -6.0686   -2.7590   -0.6650 C   0  0  0  0  0  0  0  0  0  0  0  0
    0.1298   -3.9531    2.4644 C   0  0  0  0  0  0  0  0  0  0  0  0
    3.2071   -5.0933    3.5113 H   0  0  0  0  0  0  0  0  0  0  0  0
    2.4884   -3.5647    4.0329 H   0  0  0  0  0  0  0  0  0  0  0  0
    2.9603   -3.8093    2.3240 H   0  0  0  0  0  0  0  0  0  0  0  0
    1.6693   -6.8579    3.4126 H   0  0  0  0  0  0  0  0  0  0  0  0
   -0.5835   -7.7344    2.9195 H   0  0  0  0  0  0  0  0  0  0  0  0
   -2.3360   -6.2839    2.1429 H   0  0  0  0  0  0  0  0  0  0  0  0
   -1.9026   -2.5769    1.6659 H   0  0  0  0  0  0  0  0  0  0  0  0
   -3.6728   -2.3174    0.2313 H   0  0  0  0  0  0  0  0  0  0  0  0
   -6.0745   -3.8732    2.5502 H   0  0  0  0  0  0  0  0  0  0  0  0
   -8.3955   -4.3624    1.9918 H   0  0  0  0  0  0  0  0  0  0  0  0
  -12.4512   -4.4830   -3.2891 H   0  0  0  0  0  0  0  0  0  0  0  0
  -14.6904   -4.8475   -3.7038 H   0  0  0  0  0  0  0  0  0  0  0  0
  -15.4636   -7.3118   -2.7791 H   0  0  0  0  0  0  0  0  0  0  0  0
  -16.5602   -6.1416   -3.5380 H   0  0  0  0  0  0  0  0  0  0  0  0
  -17.1056   -5.1565   -1.3161 H   0  0  0  0  0  0  0  0  0  0  0  0
  -15.9262   -6.1965   -0.5435 H   0  0  0  0  0  0  0  0  0  0  0  0
  -17.2210   -8.2241   -1.3663 H   0  0  0  0  0  0  0  0  0  0  0  0
  -18.4253   -7.1206   -2.0138 H   0  0  0  0  0  0  0  0  0  0  0  0
  -18.1356   -7.1990    2.1540 H   0  0  0  0  0  0  0  0  0  0  0  0
  -16.7111   -6.6969    1.2922 H   0  0  0  0  0  0  0  0  0  0  0  0
  -16.4212   -8.9542    2.3019 H   0  0  0  0  0  0  0  0  0  0  0  0
  -16.3346   -9.1112    0.5469 H   0  0  0  0  0  0  0  0  0  0  0  0
  -19.7729  -10.3620    0.4444 H   0  0  0  0  0  0  0  0  0  0  0  0
  -18.3934  -10.0067   -0.5944 H   0  0  0  0  0  0  0  0  0  0  0  0
  -20.1082   -8.0085    1.0008 H   0  0  0  0  0  0  0  0  0  0  0  0
  -20.1192   -8.1718   -0.7445 H   0  0  0  0  0  0  0  0  0  0  0  0
   -8.2032   -5.7791   -1.8254 H   0  0  0  0  0  0  0  0  0  0  0  0
   -8.1887   -5.8535   -3.5552 H   0  0  0  0  0  0  0  0  0  0  0  0
   -7.7584   -2.7988   -1.9874 H   0  0  0  0  0  0  0  0  0  0  0  0
   -5.4222   -2.3316   -1.4259 H   0  0  0  0  0  0  0  0  0  0  0  0
    0.3456   -2.8944    2.3423 H   0  0  0  0  0  0  0  0  0  0  0  0
  1  2  1  0  0  0  0
  1 39  1  0  0  0  0
  1 40  1  0  0  0  0
  1 41  1  0  0  0  0
  2  3  1  0  0  0  0
  2 38  2  0  0  0  0
  3  4  2  0  0  0  0
  3 42  1  0  0  0  0
  4  5  1  0  0  0  0
  4 43  1  0  0  0  0
  5  6  2  0  0  0  0
  5 44  1  0  0  0  0
  6  7  1  0  0  0  0
  6 38  1  0  0  0  0
  7  8  1  0  0  0  0
  7 45  1  0  0  0  0
  8  9  2  0  0  0  0
  8 10  1  0  0  0  0
 10 11  1  0  0  0  0
 10 46  1  0  0  0  0
 11 12  1  0  0  0  0
 11 37  2  0  0  0  0
 12 13  2  0  0  0  0
 12 47  1  0  0  0  0
 13 14  1  0  0  0  0
 13 48  1  0  0  0  0
 14 15  1  0  0  0  0
 14 36  2  0  0  0  0
 15 16  2  0  0  0  0
 15 32  1  0  0  0  0
 16 17  1  0  0  0  0
 17 18  1  0  0  0  0
 18 19  1  0  0  0  0
 18 32  2  0  0  0  0
 19 20  1  0  0  0  0
 19 49  1  0  0  0  0
 20 21  2  0  0  0  0
 20 22  1  0  0  0  0
 22 23  1  0  0  0  0
 22 50  1  0  0  0  0
 23 24  1  0  0  0  0
 23 51  1  0  0  0  0
 23 52  1  0  0  0  0
 24 25  1  0  0  0  0
 24 53  1  0  0  0  0
 24 54  1  0  0  0  0
 25 26  1  0  0  0  0
 25 55  1  0  0  0  0
 25 56  1  0  0  0  0
 26 27  1  0  0  0  0
 26 31  1  0  0  0  0
 27 28  1  0  0  0  0
 27 57  1  0  0  0  0
 27 58  1  0  0  0  0
 28 29  1  0  0  0  0
 28 59  1  0  0  0  0
 28 60  1  0  0  0  0
 29 30  1  0  0  0  0
 30 31  1  0  0  0  0
 30 61  1  0  0  0  0
 30 62  1  0  0  0  0
 31 63  1  0  0  0  0
 31 64  1  0  0  0  0
 32 33  1  0  0  0  0
 33 34  1  0  0  0  0
 33 35  2  0  0  0  0
 34 65  1  0  0  0  0
 34 66  1  0  0  0  0
 36 37  1  0  0  0  0
 36 67  1  0  0  0  0
 37 68  1  0  0  0  0
 38 69  1  0  0  0  0
M  END
$$$$
