CHEMBL225036
 OpenBabel04072215363D

 56 60  0  0  0  0  0  0  0  0999 V2000
    5.1614    5.1935    3.0558 C   0  0  0  0  0  0  0  0  0  0  0  0
    5.5576    4.1749    2.1468 O   0  0  0  0  0  0  0  0  0  0  0  0
    6.8171    4.4770    1.5581 C   0  0  0  0  0  0  0  0  0  0  0  0
    7.2025    3.3736    0.5863 C   0  0  0  0  0  0  0  0  0  0  0  0
    7.5331    2.4270   -0.2472 C   0  0  0  0  0  0  0  0  0  0  0  0
    7.8453    1.2620   -1.0111 C   0  0  0  0  0  0  0  0  0  0  0  0
    9.1259    0.8401   -1.2606 C   0  0  0  0  0  0  0  0  0  0  0  0
    9.2206   -0.2395   -2.2267 C   0  0  0  0  0  0  0  0  0  0  0  0
   10.6030   -0.6501   -2.7131 C   0  0  0  0  0  0  0  0  0  0  0  0
   11.5741    0.2370   -2.4061 N   0  0  0  0  0  0  0  0  0  0  0  0
   12.1219   -0.3368   -1.3149 N   0  0  0  0  0  0  0  0  0  0  0  0
   11.7394   -1.6577   -1.2077 C   0  0  0  0  0  0  0  0  0  0  0  0
   11.3173   -1.9130   -2.5125 C   0  0  0  0  0  0  0  0  0  0  0  0
   11.0644   -3.3526   -2.6689 C   0  0  0  0  0  0  0  0  0  0  0  0
   10.2990   -3.4702   -1.3739 C   0  0  0  0  0  0  0  0  0  0  0  0
    9.0261   -4.0308   -1.3635 C   0  0  0  0  0  0  0  0  0  0  0  0
    8.1247   -3.4746   -0.4679 C   0  0  0  0  0  0  0  0  0  0  0  0
    6.6897   -3.3187   -0.9469 C   0  0  0  0  0  0  0  0  0  0  0  0
    5.8350   -4.4912   -1.0062 N   0  0  0  0  0  0  0  0  0  0  0  0
    5.5669   -5.0012    0.3404 C   0  0  0  0  0  0  0  0  0  0  0  0
    4.6261   -6.2152    0.2393 C   0  0  0  0  0  0  0  0  0  0  0  0
    3.3058   -5.9070   -0.3505 N   0  0  0  0  0  0  0  0  0  0  0  0
    2.5057   -5.0767    0.5491 C   0  0  0  0  0  0  0  0  0  0  0  0
    3.5038   -5.2465   -1.6577 C   0  0  0  0  0  0  0  0  0  0  0  0
    4.5484   -4.1017   -1.6486 C   0  0  0  0  0  0  0  0  0  0  0  0
    8.6086   -2.7134    0.6247 C   0  0  0  0  0  0  0  0  0  0  0  0
    9.9394   -2.2150    0.6563 C   0  0  0  0  0  0  0  0  0  0  0  0
   10.7698   -2.5117   -0.4113 C   0  0  0  0  0  0  0  0  0  0  0  0
    7.9645   -0.6984   -2.5287 C   0  0  0  0  0  0  0  0  0  0  0  0
    6.7162    0.1885   -1.6947 S   0  0  0  0  0  0  0  0  0  0  0  0
    4.1899    4.9233    3.4778 H   0  0  0  0  0  0  0  0  0  0  0  0
    5.0627    6.1531    2.5385 H   0  0  0  0  0  0  0  0  0  0  0  0
    5.8850    5.2807    3.8724 H   0  0  0  0  0  0  0  0  0  0  0  0
    7.5857    4.5502    2.3356 H   0  0  0  0  0  0  0  0  0  0  0  0
    6.7599    5.4261    1.0134 H   0  0  0  0  0  0  0  0  0  0  0  0
    9.9814    1.3462   -0.8329 H   0  0  0  0  0  0  0  0  0  0  0  0
   13.0423    0.0241   -1.0888 H   0  0  0  0  0  0  0  0  0  0  0  0
   12.0132   -3.9084   -2.5592 H   0  0  0  0  0  0  0  0  0  0  0  0
   10.5431   -3.6706   -3.5646 H   0  0  0  0  0  0  0  0  0  0  0  0
    8.6856   -4.5818   -2.2366 H   0  0  0  0  0  0  0  0  0  0  0  0
    6.7775   -2.9898   -1.9892 H   0  0  0  0  0  0  0  0  0  0  0  0
    6.2136   -2.4971   -0.4048 H   0  0  0  0  0  0  0  0  0  0  0  0
    5.1320   -4.2208    0.9791 H   0  0  0  0  0  0  0  0  0  0  0  0
    6.5006   -5.3199    0.8161 H   0  0  0  0  0  0  0  0  0  0  0  0
    4.5060   -6.6688    1.2262 H   0  0  0  0  0  0  0  0  0  0  0  0
    5.1143   -6.9774   -0.3846 H   0  0  0  0  0  0  0  0  0  0  0  0
    2.4828   -5.5103    1.5546 H   0  0  0  0  0  0  0  0  0  0  0  0
    1.4702   -5.0382    0.1971 H   0  0  0  0  0  0  0  0  0  0  0  0
    2.8700   -4.0473    0.6363 H   0  0  0  0  0  0  0  0  0  0  0  0
    2.5461   -4.8601   -2.0383 H   0  0  0  0  0  0  0  0  0  0  0  0
    3.8267   -5.9984   -2.3821 H   0  0  0  0  0  0  0  0  0  0  0  0
    4.1172   -3.2282   -1.1388 H   0  0  0  0  0  0  0  0  0  0  0  0
    4.7307   -3.7971   -2.6879 H   0  0  0  0  0  0  0  0  0  0  0  0
    7.8901   -2.3435    1.3572 H   0  0  0  0  0  0  0  0  0  0  0  0
   10.1971   -1.4667    1.3961 H   0  0  0  0  0  0  0  0  0  0  0  0
    7.6608   -1.5040   -3.1771 H   0  0  0  0  0  0  0  0  0  0  0  0
  1  2  1  0  0  0  0
  1 31  1  0  0  0  0
  1 32  1  0  0  0  0
  1 33  1  0  0  0  0
  2  3  1  0  0  0  0
  3  4  1  0  0  0  0
  3 34  1  0  0  0  0
  3 35  1  0  0  0  0
  4  5  3  0  0  0  0
  5  6  1  0  0  0  0
  6  7  2  0  0  0  0
  6 30  1  0  0  0  0
  7  8  1  0  0  0  0
  7 36  1  0  0  0  0
  8  9  1  0  0  0  0
  8 29  2  0  0  0  0
  9 10  2  0  0  0  0
  9 13  1  0  0  0  0
 10 11  1  0  0  0  0
 11 12  1  0  0  0  0
 11 37  1  0  0  0  0
 12 13  2  0  0  0  0
 12 28  1  0  0  0  0
 13 14  1  0  0  0  0
 14 15  1  0  0  0  0
 14 38  1  0  0  0  0
 14 39  1  0  0  0  0
 15 16  1  0  0  0  0
 15 28  2  0  0  0  0
 16 17  2  0  0  0  0
 16 40  1  0  0  0  0
 17 18  1  0  0  0  0
 17 26  1  0  0  0  0
 18 19  1  0  0  0  0
 18 41  1  0  0  0  0
 18 42  1  0  0  0  0
 19 20  1  0  0  0  0
 19 25  1  0  0  0  0
 20 21  1  0  0  0  0
 20 43  1  0  0  0  0
 20 44  1  0  0  0  0
 21 22  1  0  0  0  0
 21 45  1  0  0  0  0
 21 46  1  0  0  0  0
 22 23  1  0  0  0  0
 22 24  1  0  0  0  0
 23 47  1  0  0  0  0
 23 48  1  0  0  0  0
 23 49  1  0  0  0  0
 24 25  1  0  0  0  0
 24 50  1  0  0  0  0
 24 51  1  0  0  0  0
 25 52  1  0  0  0  0
 25 53  1  0  0  0  0
 26 27  2  0  0  0  0
 26 54  1  0  0  0  0
 27 28  1  0  0  0  0
 27 55  1  0  0  0  0
 29 30  1  0  0  0  0
 29 56  1  0  0  0  0
M  END
$$$$
