CHEMBL1082693
 OpenBabel04072215363D

 78 83  0  0  0  0  0  0  0  0999 V2000
    2.5646    0.1908    0.3338 C   0  0  0  0  0  0  0  0  0  0  0  0
    1.1699    0.1481   -0.0960 N   0  0  0  0  0  0  0  0  0  0  0  0
    0.5027   -1.0748    0.4127 C   0  0  0  0  0  0  0  0  0  0  0  0
   -1.0011   -1.1450    0.0415 C   0  0  0  0  0  0  0  0  0  0  0  0
   -1.6694    0.0762    0.5075 N   0  0  0  0  0  0  0  0  0  0  0  0
   -2.9619    0.0836    0.9875 C   0  0  0  0  0  0  0  0  0  0  0  0
   -3.3752    1.0875    1.8727 C   0  0  0  0  0  0  0  0  0  0  0  0
   -4.6526    1.0990    2.4372 C   0  0  0  0  0  0  0  0  0  0  0  0
   -5.5687    0.0894    2.1436 C   0  0  0  0  0  0  0  0  0  0  0  0
   -6.8847    0.0649    2.7594 C   0  0  0  0  0  0  0  0  0  0  0  0
   -8.1102   -0.4219    2.2606 C   0  0  0  0  0  0  0  0  0  0  0  0
   -9.1198   -0.2991    3.1215 N   0  0  0  0  0  0  0  0  0  0  0  0
   -8.5467    0.2608    4.2289 N   0  0  0  0  0  0  0  0  0  0  0  0
   -9.2040    0.5977    5.4437 C   0  0  0  0  0  0  0  0  0  0  0  0
  -10.5547    0.2623    5.5421 N   0  0  0  0  0  0  0  0  0  0  0  0
   -8.4857    1.2216    6.4031 C   0  0  0  0  0  0  0  0  0  0  0  0
   -9.0158    1.6325    7.7035 C   0  0  0  0  0  0  0  0  0  0  0  0
   -9.0788    0.7061    8.7423 C   0  0  0  0  0  0  0  0  0  0  0  0
   -9.5477    1.0872   10.0009 C   0  0  0  0  0  0  0  0  0  0  0  0
   -9.9702    2.3974   10.2492 C   0  0  0  0  0  0  0  0  0  0  0  0
  -10.4507    2.8423   11.5079 N   0  0  0  0  0  0  0  0  0  0  0  0
  -10.6250    2.0765   12.6419 C   0  0  0  0  0  0  0  0  0  0  0  0
  -10.4034    0.8646   12.6800 O   0  0  0  0  0  0  0  0  0  0  0  0
  -11.0795    2.7361   13.7888 N   0  0  0  0  0  0  0  0  0  0  0  0
  -11.4452    4.1494   13.8904 C   0  0  0  0  0  0  0  0  0  0  0  0
  -11.4220    1.8628   14.9480 C   0  0  0  0  0  0  0  0  0  0  0  0
  -12.8925    1.4111   14.8598 C   0  0  0  0  0  0  0  0  0  0  0  0
  -13.3108    0.5411   16.0421 C   0  0  0  0  0  0  0  0  0  0  0  0
  -12.9995    1.2167   17.3722 C   0  0  0  0  0  0  0  0  0  0  0  0
  -11.5184    1.5637   17.4723 C   0  0  0  0  0  0  0  0  0  0  0  0
  -11.0888    2.4735   16.3215 C   0  0  0  0  0  0  0  0  0  0  0  0
   -9.9104    3.3236    9.1989 C   0  0  0  0  0  0  0  0  0  0  0  0
   -9.4352    2.9469    7.9337 C   0  0  0  0  0  0  0  0  0  0  0  0
   -7.0384    1.4302    6.0978 C   0  0  0  0  0  0  0  0  0  0  0  0
   -6.4215    1.1121    5.0031 N   0  0  0  0  0  0  0  0  0  0  0  0
   -7.1866    0.5246    4.0306 C   0  0  0  0  0  0  0  0  0  0  0  0
   -5.1822   -0.9136    1.2497 C   0  0  0  0  0  0  0  0  0  0  0  0
   -3.8962   -0.9147    0.6868 C   0  0  0  0  0  0  0  0  0  0  0  0
   -1.0530    1.3168    0.0094 C   0  0  0  0  0  0  0  0  0  0  0  0
    0.4411    1.3398    0.3983 C   0  0  0  0  0  0  0  0  0  0  0  0
    3.1118   -0.6727   -0.0592 H   0  0  0  0  0  0  0  0  0  0  0  0
    2.6660    0.1976    1.4251 H   0  0  0  0  0  0  0  0  0  0  0  0
    3.0581    1.0849   -0.0631 H   0  0  0  0  0  0  0  0  0  0  0  0
    0.5908   -1.1204    1.5076 H   0  0  0  0  0  0  0  0  0  0  0  0
    1.0013   -1.9626    0.0070 H   0  0  0  0  0  0  0  0  0  0  0  0
   -1.4174   -2.0414    0.5158 H   0  0  0  0  0  0  0  0  0  0  0  0
   -1.1208   -1.2479   -1.0442 H   0  0  0  0  0  0  0  0  0  0  0  0
   -2.6800    1.8601    2.1893 H   0  0  0  0  0  0  0  0  0  0  0  0
   -4.9017    1.9002    3.1277 H   0  0  0  0  0  0  0  0  0  0  0  0
   -8.3088   -0.8571    1.2895 H   0  0  0  0  0  0  0  0  0  0  0  0
  -10.9698    0.1011    4.6207 H   0  0  0  0  0  0  0  0  0  0  0  0
  -11.0990    0.8668    6.1495 H   0  0  0  0  0  0  0  0  0  0  0  0
   -8.7633   -0.3240    8.5905 H   0  0  0  0  0  0  0  0  0  0  0  0
   -9.5572    0.3227   10.7680 H   0  0  0  0  0  0  0  0  0  0  0  0
  -10.7425    3.8013   11.5334 H   0  0  0  0  0  0  0  0  0  0  0  0
  -11.2036    4.7361   13.0076 H   0  0  0  0  0  0  0  0  0  0  0  0
  -10.9031    4.6003   14.7258 H   0  0  0  0  0  0  0  0  0  0  0  0
  -12.5212    4.2245   14.0668 H   0  0  0  0  0  0  0  0  0  0  0  0
  -10.8102    0.9529   14.8797 H   0  0  0  0  0  0  0  0  0  0  0  0
  -13.0567    0.8545   13.9286 H   0  0  0  0  0  0  0  0  0  0  0  0
  -13.5504    2.2868   14.8147 H   0  0  0  0  0  0  0  0  0  0  0  0
  -12.7905   -0.4233   15.9909 H   0  0  0  0  0  0  0  0  0  0  0  0
  -14.3838    0.3278   15.9785 H   0  0  0  0  0  0  0  0  0  0  0  0
  -13.2848    0.5576   18.1995 H   0  0  0  0  0  0  0  0  0  0  0  0
  -13.5987    2.1310   17.4694 H   0  0  0  0  0  0  0  0  0  0  0  0
  -10.9228    0.6424   17.4620 H   0  0  0  0  0  0  0  0  0  0  0  0
  -11.3202    2.0620   18.4278 H   0  0  0  0  0  0  0  0  0  0  0  0
  -10.0098    2.6602   16.3882 H   0  0  0  0  0  0  0  0  0  0  0  0
  -11.5886    3.4392   16.4514 H   0  0  0  0  0  0  0  0  0  0  0  0
  -10.2264    4.3538    9.3460 H   0  0  0  0  0  0  0  0  0  0  0  0
   -9.3930    3.6857    7.1371 H   0  0  0  0  0  0  0  0  0  0  0  0
   -6.4499    1.8997    6.9053 H   0  0  0  0  0  0  0  0  0  0  0  0
   -5.8592   -1.7251    0.9951 H   0  0  0  0  0  0  0  0  0  0  0  0
   -3.6435   -1.7156   -0.0022 H   0  0  0  0  0  0  0  0  0  0  0  0
   -1.5277    2.2224    0.4005 H   0  0  0  0  0  0  0  0  0  0  0  0
   -1.1563    1.3580   -1.0827 H   0  0  0  0  0  0  0  0  0  0  0  0
    0.5184    1.4056    1.4927 H   0  0  0  0  0  0  0  0  0  0  0  0
    0.8926    2.2474   -0.0187 H   0  0  0  0  0  0  0  0  0  0  0  0
  1  2  1  0  0  0  0
  1 41  1  0  0  0  0
  1 42  1  0  0  0  0
  1 43  1  0  0  0  0
  2  3  1  0  0  0  0
  2 40  1  0  0  0  0
  3  4  1  0  0  0  0
  3 44  1  0  0  0  0
  3 45  1  0  0  0  0
  4  5  1  0  0  0  0
  4 46  1  0  0  0  0
  4 47  1  0  0  0  0
  5  6  1  0  0  0  0
  5 39  1  0  0  0  0
  6  7  1  0  0  0  0
  6 38  2  0  0  0  0
  7  8  2  0  0  0  0
  7 48  1  0  0  0  0
  8  9  1  0  0  0  0
  8 49  1  0  0  0  0
  9 10  1  0  0  0  0
  9 37  2  0  0  0  0
 10 11  1  0  0  0  0
 10 36  2  0  0  0  0
 11 12  2  0  0  0  0
 11 50  1  0  0  0  0
 12 13  1  0  0  0  0
 13 14  1  0  0  0  0
 13 36  1  0  0  0  0
 14 15  1  0  0  0  0
 14 16  2  0  0  0  0
 15 51  1  0  0  0  0
 15 52  1  0  0  0  0
 16 17  1  0  0  0  0
 16 34  1  0  0  0  0
 17 18  1  0  0  0  0
 17 33  2  0  0  0  0
 18 19  2  0  0  0  0
 18 53  1  0  0  0  0
 19 20  1  0  0  0  0
 19 54  1  0  0  0  0
 20 21  1  0  0  0  0
 20 32  2  0  0  0  0
 21 22  1  0  0  0  0
 21 55  1  0  0  0  0
 22 23  2  0  0  0  0
 22 24  1  0  0  0  0
 24 25  1  0  0  0  0
 24 26  1  0  0  0  0
 25 56  1  0  0  0  0
 25 57  1  0  0  0  0
 25 58  1  0  0  0  0
 26 27  1  0  0  0  0
 26 31  1  0  0  0  0
 26 59  1  0  0  0  0
 27 28  1  0  0  0  0
 27 60  1  0  0  0  0
 27 61  1  0  0  0  0
 28 29  1  0  0  0  0
 28 62  1  0  0  0  0
 28 63  1  0  0  0  0
 29 30  1  0  0  0  0
 29 64  1  0  0  0  0
 29 65  1  0  0  0  0
 30 31  1  0  0  0  0
 30 66  1  0  0  0  0
 30 67  1  0  0  0  0
 31 68  1  0  0  0  0
 31 69  1  0  0  0  0
 32 33  1  0  0  0  0
 32 70  1  0  0  0  0
 33 71  1  0  0  0  0
 34 35  2  0  0  0  0
 34 72  1  0  0  0  0
 35 36  1  0  0  0  0
 37 38  1  0  0  0  0
 37 73  1  0  0  0  0
 38 74  1  0  0  0  0
 39 40  1  0  0  0  0
 39 75  1  0  0  0  0
 39 76  1  0  0  0  0
 40 77  1  0  0  0  0
 40 78  1  0  0  0  0
M  END
$$$$
