CHEMBL3959195
 OpenBabel04072215373D

 59 63  0  0  1  0  0  0  0  0999 V2000
    6.4243    5.7791    0.3943 C   0  0  0  0  0  0  0  0  0  0  0  0
    4.9077    5.8565    0.5010 C   0  0  0  0  0  0  0  0  0  0  0  0
    4.2130    4.7004   -0.0462 N   0  0  0  0  0  0  0  0  0  0  0  0
    4.4152    3.4360    0.6512 C   0  0  0  0  0  0  0  0  0  0  0  0
    3.5185    2.3444    0.0512 C   0  0  0  0  0  0  0  0  0  0  0  0
    3.7490    2.1514   -1.4569 C   0  0  3  0  0  0  0  0  0  0  0  0
    2.4385    2.3036   -2.1498 N   0  0  0  0  0  0  0  0  0  0  0  0
    2.6483    2.9077   -3.2761 C   0  0  0  0  0  0  0  0  0  0  0  0
    1.5774    3.6089   -4.0334 C   0  0  0  0  0  0  0  0  0  0  0  0
    1.5565    4.9763   -3.5444 O   0  0  0  0  0  0  0  0  0  0  0  0
    0.4280    5.6725   -3.8816 C   0  0  0  0  0  0  0  0  0  0  0  0
   -0.3449    5.2607   -4.9833 C   0  0  0  0  0  0  0  0  0  0  0  0
   -1.5617    5.8267   -5.3016 C   0  0  0  0  0  0  0  0  0  0  0  0
   -2.2433    5.2977   -6.3149 N   0  0  0  0  0  0  0  0  0  0  0  0
   -3.4127    5.8696   -6.5920 C   0  0  0  0  0  0  0  0  0  0  0  0
   -3.9293    6.9365   -5.9721 N   0  0  0  0  0  0  0  0  0  0  0  0
   -3.2162    7.4682   -4.9637 C   0  0  0  0  0  0  0  0  0  0  0  0
   -3.6801    8.6273   -4.2888 N   0  0  0  0  0  0  0  0  0  0  0  0
   -4.8900    9.3196   -4.4924 C   0  0  0  0  0  0  0  0  0  0  0  0
   -6.0546    8.6815   -4.9293 C   0  0  0  0  0  0  0  0  0  0  0  0
   -7.2332    9.4031   -5.1276 C   0  0  0  0  0  0  0  0  0  0  0  0
   -7.2735   10.7661   -4.8440 C   0  0  0  0  0  0  0  0  0  0  0  0
   -8.7556   11.6012   -5.1366 Cl  0  0  0  0  0  0  0  0  0  0  0  0
   -6.1378   11.4036   -4.3361 C   0  0  0  0  0  0  0  0  0  0  0  0
   -6.1199   13.0800   -3.9231 Cl  0  0  0  0  0  0  0  0  0  0  0  0
   -4.9577   10.6757   -4.1525 C   0  0  0  0  0  0  0  0  0  0  0  0
   -2.0024    6.9028   -4.5433 C   0  0  0  0  0  0  0  0  0  0  0  0
   -1.2260    7.3567   -3.4523 C   0  0  0  0  0  0  0  0  0  0  0  0
   -0.0062    6.7664   -3.1227 C   0  0  0  0  0  0  0  0  0  0  0  0
    0.5206    7.3239   -1.9966 O   0  0  0  0  0  0  0  0  0  0  0  0
    1.9239    7.4640   -1.8726 C   0  0  0  0  0  0  0  0  0  0  0  0
    4.3068    3.1394   -3.7835 S   0  0  0  0  0  0  0  0  0  0  0  0
    4.7002    3.2148   -2.0242 C   0  0  3  0  0  0  0  0  0  0  0  0
    4.3179    4.6095   -1.4999 C   0  0  0  0  0  0  0  0  0  0  0  0
    6.8628    6.7453    0.6571 H   0  0  0  0  0  0  0  0  0  0  0  0
    6.7555    5.5350   -0.6203 H   0  0  0  0  0  0  0  0  0  0  0  0
    6.8267    5.0232    1.0737 H   0  0  0  0  0  0  0  0  0  0  0  0
    4.5588    6.7557   -0.0258 H   0  0  0  0  0  0  0  0  0  0  0  0
    4.6139    6.0036    1.5458 H   0  0  0  0  0  0  0  0  0  0  0  0
    4.1626    3.5492    1.7110 H   0  0  0  0  0  0  0  0  0  0  0  0
    5.4616    3.1152    0.5961 H   0  0  0  0  0  0  0  0  0  0  0  0
    2.4661    2.5871    0.2532 H   0  0  0  0  0  0  0  0  0  0  0  0
    3.7127    1.3969    0.5689 H   0  0  0  0  0  0  0  0  0  0  0  0
    4.1305    1.1369   -1.6412 H   0  0  0  0  0  0  0  0  0  0  0  0
    0.6286    3.1054   -3.8204 H   0  0  0  0  0  0  0  0  0  0  0  0
    1.8223    3.5869   -5.1010 H   0  0  0  0  0  0  0  0  0  0  0  0
   -0.0312    4.4464   -5.6271 H   0  0  0  0  0  0  0  0  0  0  0  0
   -4.0045    5.4266   -7.3833 H   0  0  0  0  0  0  0  0  0  0  0  0
   -2.9029    9.2728   -4.1859 H   0  0  0  0  0  0  0  0  0  0  0  0
   -6.0620    7.6145   -5.1331 H   0  0  0  0  0  0  0  0  0  0  0  0
   -8.1094    8.8830   -5.5069 H   0  0  0  0  0  0  0  0  0  0  0  0
   -4.0817   11.1811   -3.7483 H   0  0  0  0  0  0  0  0  0  0  0  0
   -1.5888    8.1619   -2.8173 H   0  0  0  0  0  0  0  0  0  0  0  0
    2.1156    8.4259   -1.3864 H   0  0  0  0  0  0  0  0  0  0  0  0
    2.4606    7.4665   -2.8252 H   0  0  0  0  0  0  0  0  0  0  0  0
    2.2927    6.6926   -1.1978 H   0  0  0  0  0  0  0  0  0  0  0  0
    5.7518    2.9823   -1.8317 H   0  0  0  0  0  0  0  0  0  0  0  0
    3.3268    4.8995   -1.8563 H   0  0  0  0  0  0  0  0  0  0  0  0
    4.9892    5.3598   -1.9344 H   0  0  0  0  0  0  0  0  0  0  0  0
  1  2  1  0  0  0  0
  1 35  1  0  0  0  0
  1 36  1  0  0  0  0
  1 37  1  0  0  0  0
  2  3  1  0  0  0  0
  2 38  1  0  0  0  0
  2 39  1  0  0  0  0
  3  4  1  0  0  0  0
  3 34  1  0  0  0  0
  4  5  1  0  0  0  0
  4 40  1  0  0  0  0
  4 41  1  0  0  0  0
  5  6  1  0  0  0  0
  5 42  1  0  0  0  0
  5 43  1  0  0  0  0
  6  7  1  0  0  0  0
  6 33  1  0  0  0  0
  6 44  1  0  0  0  0
  7  8  2  0  0  0  0
  8  9  1  0  0  0  0
  8 32  1  0  0  0  0
  9 10  1  0  0  0  0
  9 45  1  0  0  0  0
  9 46  1  0  0  0  0
 10 11  1  0  0  0  0
 11 12  1  0  0  0  0
 11 29  2  0  0  0  0
 12 13  2  0  0  0  0
 12 47  1  0  0  0  0
 13 14  1  0  0  0  0
 13 27  1  0  0  0  0
 14 15  2  0  0  0  0
 15 16  1  0  0  0  0
 15 48  1  0  0  0  0
 16 17  2  0  0  0  0
 17 18  1  0  0  0  0
 17 27  1  0  0  0  0
 18 19  1  0  0  0  0
 18 49  1  0  0  0  0
 19 20  1  0  0  0  0
 19 26  2  0  0  0  0
 20 21  2  0  0  0  0
 20 50  1  0  0  0  0
 21 22  1  0  0  0  0
 21 51  1  0  0  0  0
 22 23  1  0  0  0  0
 22 24  2  0  0  0  0
 24 25  1  0  0  0  0
 24 26  1  0  0  0  0
 26 52  1  0  0  0  0
 27 28  2  0  0  0  0
 28 29  1  0  0  0  0
 28 53  1  0  0  0  0
 29 30  1  0  0  0  0
 30 31  1  0  0  0  0
 31 54  1  0  0  0  0
 31 55  1  0  0  0  0
 31 56  1  0  0  0  0
 32 33  1  0  0  0  0
 33 34  1  0  0  0  0
 33 57  1  0  0  0  0
 34 58  1  0  0  0  0
 34 59  1  0  0  0  0
M  END
$$$$
