CHEMBL217092
 OpenBabel04072215363D

 70 75  0  0  0  0  0  0  0  0999 V2000
   -4.9152    4.4288    2.8660 C   0  0  0  0  0  0  0  0  0  0  0  0
   -3.6903    3.6580    2.7116 N   0  0  0  0  0  0  0  0  0  0  0  0
   -3.7241    2.4242    3.5152 C   0  0  0  0  0  0  0  0  0  0  0  0
   -2.4037    1.6434    3.3433 C   0  0  0  0  0  0  0  0  0  0  0  0
   -2.0801    1.2685    1.9436 N   0  0  0  0  0  0  0  0  0  0  0  0
   -2.9680    0.2390    1.3727 C   0  0  0  0  0  0  0  0  0  0  0  0
   -2.9044   -1.0878    2.1226 C   0  0  0  0  0  0  0  0  0  0  0  0
   -3.4090   -0.9532    3.4664 O   0  0  0  0  0  0  0  0  0  0  0  0
   -3.9367   -2.0806    4.0040 C   0  0  0  0  0  0  0  0  0  0  0  0
   -3.5544   -3.3370    3.5550 C   0  0  0  0  0  0  0  0  0  0  0  0
   -4.2066   -4.4826    4.0092 C   0  0  0  0  0  0  0  0  0  0  0  0
   -3.8572   -5.6921    3.4750 O   0  0  0  0  0  0  0  0  0  0  0  0
   -3.4710   -5.7781    2.0832 C   0  0  0  0  0  0  0  0  0  0  0  0
   -1.9657   -5.6200    1.7769 C   0  0  0  0  0  0  0  0  0  0  0  0
   -1.7276   -5.8888    0.2959 C   0  0  0  0  0  0  0  0  0  0  0  0
   -2.5813   -5.0583   -0.4952 O   0  0  0  0  0  0  0  0  0  0  0  0
   -3.9640   -5.3706   -0.3210 C   0  0  0  0  0  0  0  0  0  0  0  0
   -4.4115   -5.0708    1.0988 C   0  0  0  0  0  0  0  0  0  0  0  0
   -5.2343   -4.4125    4.9944 C   0  0  0  0  0  0  0  0  0  0  0  0
   -6.0016   -5.4702    5.5787 C   0  0  0  0  0  0  0  0  0  0  0  0
   -5.7187   -6.8403    5.2972 N   0  0  0  0  0  0  0  0  0  0  0  0
   -6.0257   -7.9790    6.0894 C   0  0  0  0  0  0  0  0  0  0  0  0
   -6.3983   -9.2393    5.5559 C   0  0  0  0  0  0  0  0  0  0  0  0
   -6.5042   -9.5012    3.8457 Cl  0  0  0  0  0  0  0  0  0  0  0  0
   -6.7876  -10.3249    6.3874 C   0  0  0  0  0  0  0  0  0  0  0  0
   -6.8200  -10.1770    7.7737 C   0  0  0  0  0  0  0  0  0  0  0  0
   -6.4047   -8.9701    8.2854 C   0  0  0  0  0  0  0  0  0  0  0  0
   -5.9939   -7.9273    7.4761 C   0  0  0  0  0  0  0  0  0  0  0  0
   -5.6210   -6.8437    8.2203 O   0  0  0  0  0  0  0  0  0  0  0  0
   -5.8032   -7.3346    9.5525 C   0  0  0  0  0  0  0  0  0  0  0  0
   -6.4413   -8.6250    9.6023 O   0  0  0  0  0  0  0  0  0  0  0  0
   -7.0180   -5.2056    6.4208 N   0  0  0  0  0  0  0  0  0  0  0  0
   -7.2322   -3.9322    6.7416 C   0  0  0  0  0  0  0  0  0  0  0  0
   -6.5587   -2.8709    6.3131 N   0  0  0  0  0  0  0  0  0  0  0  0
   -5.5764   -3.1108    5.4539 C   0  0  0  0  0  0  0  0  0  0  0  0
   -4.9192   -1.9811    4.9725 C   0  0  0  0  0  0  0  0  0  0  0  0
   -2.1355    2.4958    1.1240 C   0  0  0  0  0  0  0  0  0  0  0  0
   -3.4309    3.3270    1.2994 C   0  0  0  0  0  0  0  0  0  0  0  0
   -5.0593    4.7111    3.9148 H   0  0  0  0  0  0  0  0  0  0  0  0
   -5.8004    3.8786    2.5296 H   0  0  0  0  0  0  0  0  0  0  0  0
   -4.8482    5.3621    2.2967 H   0  0  0  0  0  0  0  0  0  0  0  0
   -4.5801    1.7928    3.2390 H   0  0  0  0  0  0  0  0  0  0  0  0
   -3.8425    2.6747    4.5766 H   0  0  0  0  0  0  0  0  0  0  0  0
   -2.3834    0.7938    4.0243 H   0  0  0  0  0  0  0  0  0  0  0  0
   -1.5804    2.2603    3.7247 H   0  0  0  0  0  0  0  0  0  0  0  0
   -2.6393    0.0286    0.3438 H   0  0  0  0  0  0  0  0  0  0  0  0
   -4.0107    0.5684    1.3086 H   0  0  0  0  0  0  0  0  0  0  0  0
   -1.8597   -1.4259    2.1188 H   0  0  0  0  0  0  0  0  0  0  0  0
   -3.5266   -1.8060    1.5764 H   0  0  0  0  0  0  0  0  0  0  0  0
   -2.7850   -3.4026    2.8372 H   0  0  0  0  0  0  0  0  0  0  0  0
   -3.6543   -6.8354    1.8647 H   0  0  0  0  0  0  0  0  0  0  0  0
   -1.3743   -6.3061    2.3942 H   0  0  0  0  0  0  0  0  0  0  0  0
   -1.5687   -4.6250    1.9981 H   0  0  0  0  0  0  0  0  0  0  0  0
   -1.9023   -6.9439    0.0514 H   0  0  0  0  0  0  0  0  0  0  0  0
   -0.6901   -5.6601    0.0285 H   0  0  0  0  0  0  0  0  0  0  0  0
   -4.1332   -6.4269   -0.5617 H   0  0  0  0  0  0  0  0  0  0  0  0
   -4.5441   -4.7721   -1.0287 H   0  0  0  0  0  0  0  0  0  0  0  0
   -5.4350   -5.4283    1.2644 H   0  0  0  0  0  0  0  0  0  0  0  0
   -4.4483   -3.9871    1.2487 H   0  0  0  0  0  0  0  0  0  0  0  0
   -5.7329   -7.0166    4.3023 H   0  0  0  0  0  0  0  0  0  0  0  0
   -7.1377  -11.2631    5.9543 H   0  0  0  0  0  0  0  0  0  0  0  0
   -7.2125  -10.9507    8.4251 H   0  0  0  0  0  0  0  0  0  0  0  0
   -6.3849   -6.6066   10.1303 H   0  0  0  0  0  0  0  0  0  0  0  0
   -4.8137   -7.4376   10.0100 H   0  0  0  0  0  0  0  0  0  0  0  0
   -8.0872   -3.7524    7.4009 H   0  0  0  0  0  0  0  0  0  0  0  0
   -5.2089   -0.9925    5.3307 H   0  0  0  0  0  0  0  0  0  0  0  0
   -1.9973    2.2434    0.0658 H   0  0  0  0  0  0  0  0  0  0  0  0
   -1.2735    3.1183    1.3956 H   0  0  0  0  0  0  0  0  0  0  0  0
   -4.2806    2.7770    0.8736 H   0  0  0  0  0  0  0  0  0  0  0  0
   -3.3200    4.2487    0.7194 H   0  0  0  0  0  0  0  0  0  0  0  0
  1  2  1  0  0  0  0
  1 39  1  0  0  0  0
  1 40  1  0  0  0  0
  1 41  1  0  0  0  0
  2  3  1  0  0  0  0
  2 38  1  0  0  0  0
  3  4  1  0  0  0  0
  3 42  1  0  0  0  0
  3 43  1  0  0  0  0
  4  5  1  0  0  0  0
  4 44  1  0  0  0  0
  4 45  1  0  0  0  0
  5  6  1  0  0  0  0
  5 37  1  0  0  0  0
  6  7  1  0  0  0  0
  6 46  1  0  0  0  0
  6 47  1  0  0  0  0
  7  8  1  0  0  0  0
  7 48  1  0  0  0  0
  7 49  1  0  0  0  0
  8  9  1  0  0  0  0
  9 10  1  0  0  0  0
  9 36  2  0  0  0  0
 10 11  2  0  0  0  0
 10 50  1  0  0  0  0
 11 12  1  0  0  0  0
 11 19  1  0  0  0  0
 12 13  1  0  0  0  0
 13 14  1  0  0  0  0
 13 18  1  0  0  0  0
 13 51  1  0  0  0  0
 14 15  1  0  0  0  0
 14 52  1  0  0  0  0
 14 53  1  0  0  0  0
 15 16  1  0  0  0  0
 15 54  1  0  0  0  0
 15 55  1  0  0  0  0
 16 17  1  0  0  0  0
 17 18  1  0  0  0  0
 17 56  1  0  0  0  0
 17 57  1  0  0  0  0
 18 58  1  0  0  0  0
 18 59  1  0  0  0  0
 19 20  1  0  0  0  0
 19 35  2  0  0  0  0
 20 21  1  0  0  0  0
 20 32  2  0  0  0  0
 21 22  1  0  0  0  0
 21 60  1  0  0  0  0
 22 23  1  0  0  0  0
 22 28  2  0  0  0  0
 23 24  1  0  0  0  0
 23 25  2  0  0  0  0
 25 26  1  0  0  0  0
 25 61  1  0  0  0  0
 26 27  2  0  0  0  0
 26 62  1  0  0  0  0
 27 28  1  0  0  0  0
 27 31  1  0  0  0  0
 28 29  1  0  0  0  0
 29 30  1  0  0  0  0
 30 31  1  0  0  0  0
 30 63  1  0  0  0  0
 30 64  1  0  0  0  0
 32 33  1  0  0  0  0
 33 34  2  0  0  0  0
 33 65  1  0  0  0  0
 34 35  1  0  0  0  0
 35 36  1  0  0  0  0
 36 66  1  0  0  0  0
 37 38  1  0  0  0  0
 37 67  1  0  0  0  0
 37 68  1  0  0  0  0
 38 69  1  0  0  0  0
 38 70  1  0  0  0  0
M  END
$$$$
