CHEMBL486437
 OpenBabel04072215383D

 69 72  0  0  0  0  0  0  0  0999 V2000
    6.5624   -0.7322    4.4932 C   0  0  0  0  0  0  0  0  0  0  0  0
    5.5324    0.0572    3.9160 O   0  0  0  0  0  0  0  0  0  0  0  0
    4.5906   -0.5950    3.1592 C   0  0  0  0  0  0  0  0  0  0  0  0
    4.3094   -1.9675    3.3234 C   0  0  0  0  0  0  0  0  0  0  0  0
    3.2790   -2.5846    2.6051 C   0  0  0  0  0  0  0  0  0  0  0  0
    2.9588   -4.0109    2.7517 C   0  0  0  0  0  0  0  0  0  0  0  0
    3.0850   -4.8806    3.7697 C   0  0  0  0  0  0  0  0  0  0  0  0
    3.7619   -4.8656    5.0147 C   0  0  0  0  0  0  0  0  0  0  0  0
    5.0390   -5.3779    5.0516 C   0  0  0  0  0  0  0  0  0  0  0  0
    5.1081   -6.1573    6.1839 N   0  0  0  0  0  0  0  0  0  0  0  0
    6.0520   -7.2522    6.3537 C   0  0  0  0  0  0  0  0  0  0  0  0
    7.2966   -6.9669    5.7092 O   0  0  0  0  0  0  0  0  0  0  0  0
    7.9918   -5.9211    6.3803 C   0  0  0  0  0  0  0  0  0  0  0  0
    9.3114   -5.6630    5.6697 C   0  0  0  0  0  0  0  0  0  0  0  0
   10.2129   -4.1477    6.3859 Si  0  0  0  0  0  0  0  0  0  0  0  0
   11.8604   -3.9450    5.5418 C   0  0  0  0  0  0  0  0  0  0  0  0
    9.1430   -2.6323    6.0983 C   0  0  0  0  0  0  0  0  0  0  0  0
   10.4210   -4.4264    8.2290 C   0  0  0  0  0  0  0  0  0  0  0  0
    4.0348   -5.8829    7.0090 C   0  0  0  0  0  0  0  0  0  0  0  0
    3.6696   -6.4342    8.2473 C   0  0  0  0  0  0  0  0  0  0  0  0
    2.5004   -5.9640    8.8551 C   0  0  0  0  0  0  0  0  0  0  0  0
    1.7259   -4.9832    8.2460 C   0  0  0  0  0  0  0  0  0  0  0  0
    2.0559   -4.4981    6.9740 C   0  0  0  0  0  0  0  0  0  0  0  0
    3.2225   -4.9601    6.3341 C   0  0  0  0  0  0  0  0  0  0  0  0
    2.6150   -6.2738    3.4378 C   0  0  0  0  0  0  0  0  0  0  0  0
    2.3067   -6.1485    2.0637 N   0  0  0  0  0  0  0  0  0  0  0  0
    2.5136   -4.8750    1.6098 C   0  0  0  0  0  0  0  0  0  0  0  0
    2.4098   -4.5459    0.4391 O   0  0  0  0  0  0  0  0  0  0  0  0
    2.5252   -1.8018    1.7201 C   0  0  0  0  0  0  0  0  0  0  0  0
    2.7776   -0.4363    1.5516 C   0  0  0  0  0  0  0  0  0  0  0  0
    2.0628    0.3559    0.6835 O   0  0  0  0  0  0  0  0  0  0  0  0
    0.6928    0.0048    0.5166 C   0  0  0  0  0  0  0  0  0  0  0  0
    3.8368    0.1709    2.2498 C   0  0  0  0  0  0  0  0  0  0  0  0
    3.9936    1.5183    2.0197 O   0  0  0  0  0  0  0  0  0  0  0  0
    5.3241    2.0183    2.0474 C   0  0  0  0  0  0  0  0  0  0  0  0
    7.2776   -0.0518    4.9648 H   0  0  0  0  0  0  0  0  0  0  0  0
    7.0957   -1.3031    3.7260 H   0  0  0  0  0  0  0  0  0  0  0  0
    6.1723   -1.3873    5.2786 H   0  0  0  0  0  0  0  0  0  0  0  0
    4.8772   -2.5562    4.0242 H   0  0  0  0  0  0  0  0  0  0  0  0
    5.7675   -5.5102    4.2583 H   0  0  0  0  0  0  0  0  0  0  0  0
    5.6047   -8.1260    5.8630 H   0  0  0  0  0  0  0  0  0  0  0  0
    6.2033   -7.4610    7.4163 H   0  0  0  0  0  0  0  0  0  0  0  0
    8.1584   -6.2122    7.4229 H   0  0  0  0  0  0  0  0  0  0  0  0
    7.3872   -5.0081    6.3712 H   0  0  0  0  0  0  0  0  0  0  0  0
    9.1400   -5.5089    4.5972 H   0  0  0  0  0  0  0  0  0  0  0  0
    9.9516   -6.5490    5.7522 H   0  0  0  0  0  0  0  0  0  0  0  0
   11.7265   -3.7778    4.4688 H   0  0  0  0  0  0  0  0  0  0  0  0
   12.4764   -4.8394    5.6716 H   0  0  0  0  0  0  0  0  0  0  0  0
   12.4049   -3.0909    5.9539 H   0  0  0  0  0  0  0  0  0  0  0  0
    8.9923   -2.4725    5.0269 H   0  0  0  0  0  0  0  0  0  0  0  0
    9.6108   -1.7382    6.5190 H   0  0  0  0  0  0  0  0  0  0  0  0
    8.1609   -2.7521    6.5663 H   0  0  0  0  0  0  0  0  0  0  0  0
   10.9996   -5.3355    8.4171 H   0  0  0  0  0  0  0  0  0  0  0  0
    9.4458   -4.5403    8.7134 H   0  0  0  0  0  0  0  0  0  0  0  0
   10.9346   -3.5828    8.6970 H   0  0  0  0  0  0  0  0  0  0  0  0
    4.2531   -7.2146    8.7227 H   0  0  0  0  0  0  0  0  0  0  0  0
    2.1956   -6.3813    9.8114 H   0  0  0  0  0  0  0  0  0  0  0  0
    0.8386   -4.6115    8.7535 H   0  0  0  0  0  0  0  0  0  0  0  0
    1.4223   -3.7533    6.4975 H   0  0  0  0  0  0  0  0  0  0  0  0
    1.7150   -6.5577    3.9907 H   0  0  0  0  0  0  0  0  0  0  0  0
    3.3887   -7.0392    3.5567 H   0  0  0  0  0  0  0  0  0  0  0  0
    2.1672   -6.9162    1.4226 H   0  0  0  0  0  0  0  0  0  0  0  0
    1.7326   -2.2723    1.1417 H   0  0  0  0  0  0  0  0  0  0  0  0
    0.1788    0.8630    0.0730 H   0  0  0  0  0  0  0  0  0  0  0  0
    0.2096   -0.2113    1.4762 H   0  0  0  0  0  0  0  0  0  0  0  0
    0.5882   -0.8378   -0.1738 H   0  0  0  0  0  0  0  0  0  0  0  0
    5.3546    2.9213    1.4297 H   0  0  0  0  0  0  0  0  0  0  0  0
    6.0500    1.3110    1.6309 H   0  0  0  0  0  0  0  0  0  0  0  0
    5.5955    2.3173    3.0640 H   0  0  0  0  0  0  0  0  0  0  0  0
  1  2  1  0  0  0  0
  1 36  1  0  0  0  0
  1 37  1  0  0  0  0
  1 38  1  0  0  0  0
  2  3  1  0  0  0  0
  3  4  1  0  0  0  0
  3 33  2  0  0  0  0
  4  5  2  0  0  0  0
  4 39  1  0  0  0  0
  5  6  1  0  0  0  0
  5 29  1  0  0  0  0
  6  7  2  0  0  0  0
  6 27  1  0  0  0  0
  7  8  1  0  0  0  0
  7 25  1  0  0  0  0
  8  9  2  0  0  0  0
  8 24  1  0  0  0  0
  9 10  1  0  0  0  0
  9 40  1  0  0  0  0
 10 11  1  0  0  0  0
 10 19  1  0  0  0  0
 11 12  1  0  0  0  0
 11 41  1  0  0  0  0
 11 42  1  0  0  0  0
 12 13  1  0  0  0  0
 13 14  1  0  0  0  0
 13 43  1  0  0  0  0
 13 44  1  0  0  0  0
 14 15  1  0  0  0  0
 14 45  1  0  0  0  0
 14 46  1  0  0  0  0
 15 16  1  0  0  0  0
 15 17  1  0  0  0  0
 15 18  1  0  0  0  0
 16 47  1  0  0  0  0
 16 48  1  0  0  0  0
 16 49  1  0  0  0  0
 17 50  1  0  0  0  0
 17 51  1  0  0  0  0
 17 52  1  0  0  0  0
 18 53  1  0  0  0  0
 18 54  1  0  0  0  0
 18 55  1  0  0  0  0
 19 20  1  0  0  0  0
 19 24  2  0  0  0  0
 20 21  2  0  0  0  0
 20 56  1  0  0  0  0
 21 22  1  0  0  0  0
 21 57  1  0  0  0  0
 22 23  2  0  0  0  0
 22 58  1  0  0  0  0
 23 24  1  0  0  0  0
 23 59  1  0  0  0  0
 25 26  1  0  0  0  0
 25 60  1  0  0  0  0
 25 61  1  0  0  0  0
 26 27  1  0  0  0  0
 26 62  1  0  0  0  0
 27 28  2  0  0  0  0
 29 30  2  0  0  0  0
 29 63  1  0  0  0  0
 30 31  1  0  0  0  0
 30 33  1  0  0  0  0
 31 32  1  0  0  0  0
 32 64  1  0  0  0  0
 32 65  1  0  0  0  0
 32 66  1  0  0  0  0
 33 34  1  0  0  0  0
 34 35  1  0  0  0  0
 35 67  1  0  0  0  0
 35 68  1  0  0  0  0
 35 69  1  0  0  0  0
M  END
$$$$
