CHEMBL3690409
 OpenBabel04072215373D

 56 60  0  0  1  0  0  0  0  0999 V2000
    5.4023   -3.1885    1.1816 O   0  0  0  0  0  0  0  0  0  0  0  0
    6.2688   -3.3730    0.3387 C   0  0  0  0  0  0  0  0  0  0  0  0
    6.8853   -4.6006    0.1957 N   0  0  0  0  0  0  0  0  0  0  0  0
    6.6082   -5.6385    1.1940 C   0  0  0  0  0  0  0  0  0  0  0  0
    7.4289   -5.5232    2.4862 C   0  0  0  0  0  0  0  0  0  0  0  0
    8.3344   -4.5185    2.4182 F   0  0  0  0  0  0  0  0  0  0  0  0
    6.6569   -5.3220    3.5722 F   0  0  0  0  0  0  0  0  0  0  0  0
    8.1317   -6.6652    2.6902 F   0  0  0  0  0  0  0  0  0  0  0  0
    6.7505   -2.4663   -0.5755 N   0  0  0  0  0  0  0  0  0  0  0  0
    6.3386   -1.1291   -0.7520 C   0  0  0  0  0  0  0  0  0  0  0  0
    5.3044   -0.5292   -0.0380 C   0  0  0  0  0  0  0  0  0  0  0  0
    4.9240    0.7845   -0.3173 C   0  0  0  0  0  0  0  0  0  0  0  0
    5.5702    1.5071   -1.3194 C   0  0  0  0  0  0  0  0  0  0  0  0
    6.6248    0.9341   -2.0396 C   0  0  0  0  0  0  0  0  0  0  0  0
    7.3240    1.7206   -3.0634 C   0  0  0  0  0  0  0  0  0  0  0  0
    7.6022    3.0791   -3.0811 C   0  0  0  0  0  0  0  0  0  0  0  0
    8.3413    3.4418   -4.1718 N   0  0  0  0  0  0  0  0  0  0  0  0
    8.5226    2.3270   -4.8406 C   0  0  0  0  0  0  0  0  0  0  0  0
    9.2649    2.0786   -6.0286 C   0  0  0  0  0  0  0  0  0  0  0  0
    9.3270    0.8377   -6.5701 C   0  0  0  0  0  0  0  0  0  0  0  0
   10.1282    0.5638   -7.7230 C   0  0  0  0  0  0  0  0  0  0  0  0
    9.9486   -0.3745   -8.7587 C   0  0  0  0  0  0  0  0  0  0  0  0
   10.9388   -0.3386   -9.6560 N   0  0  0  0  0  0  0  0  0  0  0  0
   11.7533    0.6353   -9.1951 N   0  0  0  0  0  0  0  0  0  0  0  0
   12.9742    0.9465   -9.9207 C   0  0  3  0  0  0  0  0  0  0  0  0
   14.1550    0.1271   -9.4201 C   0  0  0  0  0  0  0  0  0  0  0  0
   14.7573    1.0054   -8.3412 C   0  0  0  0  0  0  0  0  0  0  0  0
   14.5997    2.3834   -8.8205 N   0  0  0  0  0  0  0  0  0  0  0  0
   13.4494    2.3929   -9.7482 C   0  0  0  0  0  0  0  0  0  0  0  0
   11.3155    1.1849   -8.0261 C   0  0  0  0  0  0  0  0  0  0  0  0
    8.5780   -0.2537   -5.9366 C   0  0  0  0  0  0  0  0  0  0  0  0
    7.8728   -0.0239   -4.8186 C   0  0  0  0  0  0  0  0  0  0  0  0
    7.8773    1.2487   -4.2457 N   0  0  0  0  0  0  0  0  0  0  0  0
    7.0132   -0.3768   -1.7215 C   0  0  0  0  0  0  0  0  0  0  0  0
    7.8301   -4.5779   -0.1622 H   0  0  0  0  0  0  0  0  0  0  0  0
    6.8183   -6.5955    0.7061 H   0  0  0  0  0  0  0  0  0  0  0  0
    5.5394   -5.6246    1.4363 H   0  0  0  0  0  0  0  0  0  0  0  0
    7.4336   -2.8160   -1.2296 H   0  0  0  0  0  0  0  0  0  0  0  0
    4.7651   -1.0576    0.7412 H   0  0  0  0  0  0  0  0  0  0  0  0
    4.1154    1.2422    0.2470 H   0  0  0  0  0  0  0  0  0  0  0  0
    5.2405    2.5230   -1.5254 H   0  0  0  0  0  0  0  0  0  0  0  0
    7.3288    3.8174   -2.3346 H   0  0  0  0  0  0  0  0  0  0  0  0
    9.7825    2.9243   -6.4650 H   0  0  0  0  0  0  0  0  0  0  0  0
    9.1424   -1.0828   -8.9022 H   0  0  0  0  0  0  0  0  0  0  0  0
   12.7688    0.7351  -10.9770 H   0  0  0  0  0  0  0  0  0  0  0  0
   14.8800   -0.0079  -10.2322 H   0  0  0  0  0  0  0  0  0  0  0  0
   13.8788   -0.8619   -9.0402 H   0  0  0  0  0  0  0  0  0  0  0  0
   15.8087    0.7645   -8.1571 H   0  0  0  0  0  0  0  0  0  0  0  0
   14.2206    0.8848   -7.3934 H   0  0  0  0  0  0  0  0  0  0  0  0
   15.4388    2.6584   -9.3329 H   0  0  0  0  0  0  0  0  0  0  0  0
   13.7873    2.7880  -10.7129 H   0  0  0  0  0  0  0  0  0  0  0  0
   12.6731    3.0747   -9.3854 H   0  0  0  0  0  0  0  0  0  0  0  0
   11.8760    1.9516   -7.5079 H   0  0  0  0  0  0  0  0  0  0  0  0
    8.6149   -1.2485   -6.3698 H   0  0  0  0  0  0  0  0  0  0  0  0
    7.3004   -0.8056   -4.3414 H   0  0  0  0  0  0  0  0  0  0  0  0
    7.8737   -0.8171   -2.2164 H   0  0  0  0  0  0  0  0  0  0  0  0
  1  2  2  0  0  0  0
  2  3  1  0  0  0  0
  2  9  1  0  0  0  0
  3  4  1  0  0  0  0
  3 35  1  0  0  0  0
  4  5  1  0  0  0  0
  4 36  1  0  0  0  0
  4 37  1  0  0  0  0
  5  6  1  0  0  0  0
  5  7  1  0  0  0  0
  5  8  1  0  0  0  0
  9 10  1  0  0  0  0
  9 38  1  0  0  0  0
 10 11  1  0  0  0  0
 10 34  2  0  0  0  0
 11 12  2  0  0  0  0
 11 39  1  0  0  0  0
 12 13  1  0  0  0  0
 12 40  1  0  0  0  0
 13 14  2  0  0  0  0
 13 41  1  0  0  0  0
 14 15  1  0  0  0  0
 14 34  1  0  0  0  0
 15 16  2  0  0  0  0
 15 33  1  0  0  0  0
 16 17  1  0  0  0  0
 16 42  1  0  0  0  0
 17 18  2  0  0  0  0
 18 19  1  0  0  0  0
 18 33  1  0  0  0  0
 19 20  2  0  0  0  0
 19 43  1  0  0  0  0
 20 21  1  0  0  0  0
 20 31  1  0  0  0  0
 21 22  1  0  0  0  0
 21 30  2  0  0  0  0
 22 23  2  0  0  0  0
 22 44  1  0  0  0  0
 23 24  1  0  0  0  0
 24 25  1  0  0  0  0
 24 30  1  0  0  0  0
 25 26  1  0  0  0  0
 25 29  1  0  0  0  0
 25 45  1  0  0  0  0
 26 27  1  0  0  0  0
 26 46  1  0  0  0  0
 26 47  1  0  0  0  0
 27 28  1  0  0  0  0
 27 48  1  0  0  0  0
 27 49  1  0  0  0  0
 28 29  1  0  0  0  0
 28 50  1  0  0  0  0
 29 51  1  0  0  0  0
 29 52  1  0  0  0  0
 30 53  1  0  0  0  0
 31 32  2  0  0  0  0
 31 54  1  0  0  0  0
 32 33  1  0  0  0  0
 32 55  1  0  0  0  0
 34 56  1  0  0  0  0
M  END
$$$$
