CHEMBL1084451
 OpenBabel04072215363D

 77 83  0  0  0  0  0  0  0  0999 V2000
   -5.0086  -10.4389    1.5475 C   0  0  0  0  0  0  0  0  0  0  0  0
   -5.8634   -9.2352    1.1666 C   0  0  0  0  0  0  0  0  0  0  0  0
   -5.6106   -8.0328    1.9866 N   0  0  0  0  0  0  0  0  0  0  0  0
   -4.2264   -7.5563    1.8192 C   0  0  0  0  0  0  0  0  0  0  0  0
   -3.9734   -6.2095    2.4968 C   0  0  0  0  0  0  0  0  0  0  0  0
   -4.9509   -5.1333    2.0001 C   0  0  0  0  0  0  0  0  0  0  0  0
   -4.7721   -4.7846    0.4964 C   0  0  0  0  0  0  0  0  0  0  0  0
   -3.4094   -4.3429    0.2753 N   0  0  0  0  0  0  0  0  0  0  0  0
   -2.8745   -4.3871   -0.9967 C   0  0  0  0  0  0  0  0  0  0  0  0
   -1.5418   -4.4002   -1.0426 N   0  0  0  0  0  0  0  0  0  0  0  0
   -0.9657   -4.4310   -2.2545 C   0  0  0  0  0  0  0  0  0  0  0  0
   -1.6671   -4.3686   -3.4325 C   0  0  0  0  0  0  0  0  0  0  0  0
   -3.0392   -4.3007   -3.3191 C   0  0  0  0  0  0  0  0  0  0  0  0
   -3.9471   -4.0658   -4.4732 C   0  0  0  0  0  0  0  0  0  0  0  0
   -5.1327   -3.3289   -4.2490 C   0  0  0  0  0  0  0  0  0  0  0  0
   -6.0215   -3.0309   -5.2789 C   0  0  0  0  0  0  0  0  0  0  0  0
   -5.7352   -3.5163   -6.5323 C   0  0  0  0  0  0  0  0  0  0  0  0
   -4.6349   -4.2383   -6.8039 N   0  0  0  0  0  0  0  0  0  0  0  0
   -3.7329   -4.4600   -5.8046 C   0  0  0  0  0  0  0  0  0  0  0  0
   -2.5434   -5.1046   -6.1640 O   0  0  0  0  0  0  0  0  0  0  0  0
   -2.1488   -5.0444   -7.5019 C   0  0  0  0  0  0  0  0  0  0  0  0
   -2.2661   -3.8589   -8.2280 C   0  0  0  0  0  0  0  0  0  0  0  0
   -2.0245   -3.8509   -9.5984 C   0  0  0  0  0  0  0  0  0  0  0  0
   -1.6049   -5.0030  -10.2767 C   0  0  0  0  0  0  0  0  0  0  0  0
   -1.5455   -5.0171  -11.7038 N   0  0  0  0  0  0  0  0  0  0  0  0
   -2.3077   -4.2452  -12.5210 C   0  0  0  0  0  0  0  0  0  0  0  0
   -3.2152   -3.3371  -12.2390 N   0  0  0  0  0  0  0  0  0  0  0  0
   -3.6748   -2.8624  -13.4376 C   0  0  0  0  0  0  0  0  0  0  0  0
   -4.6366   -1.8773  -13.7011 C   0  0  0  0  0  0  0  0  0  0  0  0
   -4.9059   -1.5428  -15.0328 C   0  0  0  0  0  0  0  0  0  0  0  0
   -4.2366   -2.1845  -16.0792 C   0  0  0  0  0  0  0  0  0  0  0  0
   -3.2867   -3.1850  -15.8344 C   0  0  0  0  0  0  0  0  0  0  0  0
   -3.0347   -3.4931  -14.4961 C   0  0  0  0  0  0  0  0  0  0  0  0
   -2.1899   -4.3857  -13.8851 N   0  0  0  0  0  0  0  0  0  0  0  0
   -1.2384   -6.1477   -9.5015 C   0  0  0  0  0  0  0  0  0  0  0  0
   -0.5680   -7.2722  -10.0513 C   0  0  0  0  0  0  0  0  0  0  0  0
   -0.2460   -8.3925   -9.2832 C   0  0  0  0  0  0  0  0  0  0  0  0
   -0.5972   -8.4322   -7.9458 C   0  0  0  0  0  0  0  0  0  0  0  0
   -1.2447   -7.3389   -7.3641 C   0  0  0  0  0  0  0  0  0  0  0  0
   -1.5504   -6.1771   -8.1058 C   0  0  0  0  0  0  0  0  0  0  0  0
   -3.6460   -4.3400   -2.0941 N   0  0  0  0  0  0  0  0  0  0  0  0
   -6.3613   -5.6513    2.3090 C   0  0  0  0  0  0  0  0  0  0  0  0
   -6.6228   -7.0134    1.6586 C   0  0  0  0  0  0  0  0  0  0  0  0
   -5.3171  -11.3107    0.9614 H   0  0  0  0  0  0  0  0  0  0  0  0
   -5.1230  -10.6855    2.6069 H   0  0  0  0  0  0  0  0  0  0  0  0
   -3.9475  -10.2699    1.3391 H   0  0  0  0  0  0  0  0  0  0  0  0
   -6.9133   -9.5343    1.2852 H   0  0  0  0  0  0  0  0  0  0  0  0
   -5.7147   -9.0130    0.1015 H   0  0  0  0  0  0  0  0  0  0  0  0
   -3.9597   -7.4893    0.7579 H   0  0  0  0  0  0  0  0  0  0  0  0
   -3.5370   -8.2759    2.2764 H   0  0  0  0  0  0  0  0  0  0  0  0
   -2.9335   -5.9019    2.3361 H   0  0  0  0  0  0  0  0  0  0  0  0
   -4.0865   -6.3269    3.5828 H   0  0  0  0  0  0  0  0  0  0  0  0
   -4.7788   -4.2213    2.5873 H   0  0  0  0  0  0  0  0  0  0  0  0
   -5.4798   -3.9948    0.2152 H   0  0  0  0  0  0  0  0  0  0  0  0
   -4.9895   -5.6575   -0.1275 H   0  0  0  0  0  0  0  0  0  0  0  0
   -3.1942   -3.4304    0.6602 H   0  0  0  0  0  0  0  0  0  0  0  0
    0.1175   -4.4905   -2.2471 H   0  0  0  0  0  0  0  0  0  0  0  0
   -1.1382   -4.3298   -4.3736 H   0  0  0  0  0  0  0  0  0  0  0  0
   -5.3597   -2.9539   -3.2514 H   0  0  0  0  0  0  0  0  0  0  0  0
   -6.9109   -2.4377   -5.1005 H   0  0  0  0  0  0  0  0  0  0  0  0
   -6.3851   -3.3233   -7.3807 H   0  0  0  0  0  0  0  0  0  0  0  0
   -2.6255   -2.9466   -7.7663 H   0  0  0  0  0  0  0  0  0  0  0  0
   -2.2123   -2.9271  -10.1390 H   0  0  0  0  0  0  0  0  0  0  0  0
   -1.2590   -5.9146  -12.0667 H   0  0  0  0  0  0  0  0  0  0  0  0
   -5.1474   -1.3850  -12.8807 H   0  0  0  0  0  0  0  0  0  0  0  0
   -5.6393   -0.7705  -15.2513 H   0  0  0  0  0  0  0  0  0  0  0  0
   -4.4587   -1.8986  -17.1056 H   0  0  0  0  0  0  0  0  0  0  0  0
   -2.7721   -3.6826  -16.6489 H   0  0  0  0  0  0  0  0  0  0  0  0
   -1.5561   -5.0112  -14.3538 H   0  0  0  0  0  0  0  0  0  0  0  0
   -0.2396   -7.2820  -11.0845 H   0  0  0  0  0  0  0  0  0  0  0  0
    0.2879   -9.2257   -9.7350 H   0  0  0  0  0  0  0  0  0  0  0  0
   -0.3567   -9.3043   -7.3439 H   0  0  0  0  0  0  0  0  0  0  0  0
   -1.4960   -7.3939   -6.3073 H   0  0  0  0  0  0  0  0  0  0  0  0
   -7.1118   -4.9290    1.9685 H   0  0  0  0  0  0  0  0  0  0  0  0
   -6.4824   -5.7425    3.3950 H   0  0  0  0  0  0  0  0  0  0  0  0
   -6.7058   -6.8827    0.5735 H   0  0  0  0  0  0  0  0  0  0  0  0
   -7.6021   -7.3646    2.0066 H   0  0  0  0  0  0  0  0  0  0  0  0
  1  2  1  0  0  0  0
  1 44  1  0  0  0  0
  1 45  1  0  0  0  0
  1 46  1  0  0  0  0
  2  3  1  0  0  0  0
  2 47  1  0  0  0  0
  2 48  1  0  0  0  0
  3  4  1  0  0  0  0
  3 43  1  0  0  0  0
  4  5  1  0  0  0  0
  4 49  1  0  0  0  0
  4 50  1  0  0  0  0
  5  6  1  0  0  0  0
  5 51  1  0  0  0  0
  5 52  1  0  0  0  0
  6  7  1  0  0  0  0
  6 42  1  0  0  0  0
  6 53  1  0  0  0  0
  7  8  1  0  0  0  0
  7 54  1  0  0  0  0
  7 55  1  0  0  0  0
  8  9  1  0  0  0  0
  8 56  1  0  0  0  0
  9 10  1  0  0  0  0
  9 41  2  0  0  0  0
 10 11  2  0  0  0  0
 11 12  1  0  0  0  0
 11 57  1  0  0  0  0
 12 13  2  0  0  0  0
 12 58  1  0  0  0  0
 13 14  1  0  0  0  0
 13 41  1  0  0  0  0
 14 15  1  0  0  0  0
 14 19  2  0  0  0  0
 15 16  2  0  0  0  0
 15 59  1  0  0  0  0
 16 17  1  0  0  0  0
 16 60  1  0  0  0  0
 17 18  2  0  0  0  0
 17 61  1  0  0  0  0
 18 19  1  0  0  0  0
 19 20  1  0  0  0  0
 20 21  1  0  0  0  0
 21 22  1  0  0  0  0
 21 40  2  0  0  0  0
 22 23  2  0  0  0  0
 22 62  1  0  0  0  0
 23 24  1  0  0  0  0
 23 63  1  0  0  0  0
 24 25  1  0  0  0  0
 24 35  2  0  0  0  0
 25 26  1  0  0  0  0
 25 64  1  0  0  0  0
 26 27  2  0  0  0  0
 26 34  1  0  0  0  0
 27 28  1  0  0  0  0
 28 29  1  0  0  0  0
 28 33  2  0  0  0  0
 29 30  2  0  0  0  0
 29 65  1  0  0  0  0
 30 31  1  0  0  0  0
 30 66  1  0  0  0  0
 31 32  2  0  0  0  0
 31 67  1  0  0  0  0
 32 33  1  0  0  0  0
 32 68  1  0  0  0  0
 33 34  1  0  0  0  0
 34 69  1  0  0  0  0
 35 36  1  0  0  0  0
 35 40  1  0  0  0  0
 36 37  2  0  0  0  0
 36 70  1  0  0  0  0
 37 38  1  0  0  0  0
 37 71  1  0  0  0  0
 38 39  2  0  0  0  0
 38 72  1  0  0  0  0
 39 40  1  0  0  0  0
 39 73  1  0  0  0  0
 42 43  1  0  0  0  0
 42 74  1  0  0  0  0
 42 75  1  0  0  0  0
 43 76  1  0  0  0  0
 43 77  1  0  0  0  0
M  END
$$$$
