CHEMBL233874
 OpenBabel04072215363D

 36 38  0  0  0  0  0  0  0  0999 V2000
   -5.0078   -4.8538    2.2995 C   0  0  0  0  0  0  0  0  0  0  0  0
   -4.5603   -3.5831    1.6426 C   0  0  0  0  0  0  0  0  0  0  0  0
   -5.4822   -2.7422    1.0150 C   0  0  0  0  0  0  0  0  0  0  0  0
   -5.0644   -1.5364    0.4494 C   0  0  0  0  0  0  0  0  0  0  0  0
   -3.7254   -1.1402    0.5072 C   0  0  0  0  0  0  0  0  0  0  0  0
   -3.2773    0.0696   -0.0468 N   0  0  0  0  0  0  0  0  0  0  0  0
   -3.9994    1.2612   -0.1008 C   0  0  0  0  0  0  0  0  0  0  0  0
   -3.7204    2.0882   -1.1140 N   0  0  0  0  0  0  0  0  0  0  0  0
   -4.3688    3.2691   -1.1193 C   0  0  0  0  0  0  0  0  0  0  0  0
   -5.2787    3.6604   -0.1595 C   0  0  0  0  0  0  0  0  0  0  0  0
   -5.8341    4.9689   -0.2370 C   0  0  0  0  0  0  0  0  0  0  0  0
   -6.2835    6.0341   -0.3366 N   0  0  0  0  0  0  0  0  0  0  0  0
   -5.5475    2.7384    0.8359 C   0  0  0  0  0  0  0  0  0  0  0  0
   -6.5084    2.9181    1.9585 C   0  0  0  0  0  0  0  0  0  0  0  0
   -7.7053    3.6477    1.8332 C   0  0  0  0  0  0  0  0  0  0  0  0
   -8.5724    3.8353    2.9161 C   0  0  0  0  0  0  0  0  0  0  0  0
   -8.2871    3.2596    4.1481 C   0  0  0  0  0  0  0  0  0  0  0  0
   -7.1390    2.4894    4.2948 C   0  0  0  0  0  0  0  0  0  0  0  0
   -6.2626    2.3236    3.2148 C   0  0  0  0  0  0  0  0  0  0  0  0
   -4.8951    1.5496    0.8585 N   0  0  0  0  0  0  0  0  0  0  0  0
   -2.7949   -2.0118    1.0858 C   0  0  0  0  0  0  0  0  0  0  0  0
   -3.2105   -3.2140    1.6659 C   0  0  0  0  0  0  0  0  0  0  0  0
   -6.0842   -5.0112    2.1730 H   0  0  0  0  0  0  0  0  0  0  0  0
   -4.7994   -4.8138    3.3734 H   0  0  0  0  0  0  0  0  0  0  0  0
   -4.4888   -5.7109    1.8601 H   0  0  0  0  0  0  0  0  0  0  0  0
   -6.5355   -3.0074    0.9699 H   0  0  0  0  0  0  0  0  0  0  0  0
   -5.8054   -0.9007   -0.0285 H   0  0  0  0  0  0  0  0  0  0  0  0
   -2.7691   -0.0409   -0.9148 H   0  0  0  0  0  0  0  0  0  0  0  0
   -4.1117    3.9201   -1.9529 H   0  0  0  0  0  0  0  0  0  0  0  0
   -8.0075    4.0829    0.8843 H   0  0  0  0  0  0  0  0  0  0  0  0
   -9.4739    4.4299    2.7883 H   0  0  0  0  0  0  0  0  0  0  0  0
   -8.9636    3.4019    4.9866 H   0  0  0  0  0  0  0  0  0  0  0  0
   -6.9206    2.0157    5.2488 H   0  0  0  0  0  0  0  0  0  0  0  0
   -5.3725    1.7117    3.3640 H   0  0  0  0  0  0  0  0  0  0  0  0
   -1.7446   -1.7339    1.1306 H   0  0  0  0  0  0  0  0  0  0  0  0
   -2.4756   -3.8525    2.1503 H   0  0  0  0  0  0  0  0  0  0  0  0
  1  2  1  0  0  0  0
  1 23  1  0  0  0  0
  1 24  1  0  0  0  0
  1 25  1  0  0  0  0
  2  3  1  0  0  0  0
  2 22  2  0  0  0  0
  3  4  2  0  0  0  0
  3 26  1  0  0  0  0
  4  5  1  0  0  0  0
  4 27  1  0  0  0  0
  5  6  1  0  0  0  0
  5 21  2  0  0  0  0
  6  7  1  0  0  0  0
  6 28  1  0  0  0  0
  7  8  1  0  0  0  0
  7 20  2  0  0  0  0
  8  9  2  0  0  0  0
  9 10  1  0  0  0  0
  9 29  1  0  0  0  0
 10 11  1  0  0  0  0
 10 13  2  0  0  0  0
 11 12  3  0  0  0  0
 13 14  1  0  0  0  0
 13 20  1  0  0  0  0
 14 15  1  0  0  0  0
 14 19  2  0  0  0  0
 15 16  2  0  0  0  0
 15 30  1  0  0  0  0
 16 17  1  0  0  0  0
 16 31  1  0  0  0  0
 17 18  2  0  0  0  0
 17 32  1  0  0  0  0
 18 19  1  0  0  0  0
 18 33  1  0  0  0  0
 19 34  1  0  0  0  0
 21 22  1  0  0  0  0
 21 35  1  0  0  0  0
 22 36  1  0  0  0  0
M  END
$$$$
