CHEMBL3656026
 OpenBabel04072215373D

 60 63  0  0  0  0  0  0  0  0999 V2000
    1.7813    1.7574   -1.3298 C   0  0  0  0  0  0  0  0  0  0  0  0
    2.3831    0.4879   -1.0757 O   0  0  0  0  0  0  0  0  0  0  0  0
    3.3451    0.1387   -1.9747 C   0  0  0  0  0  0  0  0  0  0  0  0
    3.7027    0.8182   -2.9310 O   0  0  0  0  0  0  0  0  0  0  0  0
    3.9156   -1.2230   -1.6255 C   0  0  0  0  0  0  0  0  0  0  0  0
    4.9365   -1.6151   -2.5772 N   0  0  0  0  0  0  0  0  0  0  0  0
    5.6103   -2.7968   -2.4272 C   0  0  0  0  0  0  0  0  0  0  0  0
    5.3670   -3.5777   -1.5138 O   0  0  0  0  0  0  0  0  0  0  0  0
    6.6406   -3.0747   -3.4273 C   0  0  0  0  0  0  0  0  0  0  0  0
    7.0604   -2.3101   -4.5040 C   0  0  0  0  0  0  0  0  0  0  0  0
    8.0819   -2.9768   -5.1401 N   0  0  0  0  0  0  0  0  0  0  0  0
    8.3139   -4.1871   -4.5303 C   0  0  0  0  0  0  0  0  0  0  0  0
    9.3302   -5.1255   -4.9894 C   0  0  0  0  0  0  0  0  0  0  0  0
    9.4853   -6.3587   -4.3752 C   0  0  0  0  0  0  0  0  0  0  0  0
   10.5498   -7.1632   -4.7584 C   0  0  0  0  0  0  0  0  0  0  0  0
   10.8370   -8.3708   -4.1659 O   0  0  0  0  0  0  0  0  0  0  0  0
   10.6077   -8.5373   -2.8168 C   0  0  0  0  0  0  0  0  0  0  0  0
   10.2299   -9.8228   -2.4241 C   0  0  0  0  0  0  0  0  0  0  0  0
   10.0059  -10.1206   -1.0683 C   0  0  0  0  0  0  0  0  0  0  0  0
    9.7141  -11.5355   -0.7295 C   0  0  0  0  0  0  0  0  0  0  0  0
   10.2438  -12.3837   -1.4412 O   0  0  0  0  0  0  0  0  0  0  0  0
    8.8383  -11.7732    0.3183 N   0  0  0  0  0  0  0  0  0  0  0  0
    8.4611  -13.0679    0.7672 C   0  0  0  0  0  0  0  0  0  0  0  0
    9.1671  -14.2228    0.4279 C   0  0  0  0  0  0  0  0  0  0  0  0
    8.7525  -15.4931    0.8535 C   0  0  0  0  0  0  0  0  0  0  0  0
    9.5403  -16.7071    0.4528 C   0  0  0  0  0  0  0  0  0  0  0  0
    7.6104  -15.6058    1.6496 C   0  0  0  0  0  0  0  0  0  0  0  0
    6.9024  -14.4597    2.0176 C   0  0  0  0  0  0  0  0  0  0  0  0
    7.3323  -13.2050    1.5839 C   0  0  0  0  0  0  0  0  0  0  0  0
    6.6313  -12.1199    1.9391 F   0  0  0  0  0  0  0  0  0  0  0  0
   10.1650   -9.1309   -0.0965 C   0  0  0  0  0  0  0  0  0  0  0  0
   10.5586   -7.8470   -0.4866 C   0  0  0  0  0  0  0  0  0  0  0  0
   10.7948   -7.5653   -1.8321 C   0  0  0  0  0  0  0  0  0  0  0  0
   11.2181   -6.3326   -2.1467 F   0  0  0  0  0  0  0  0  0  0  0  0
   11.3546   -6.7705   -5.8187 C   0  0  0  0  0  0  0  0  0  0  0  0
   11.0974   -5.5425   -6.4070 C   0  0  0  0  0  0  0  0  0  0  0  0
   10.1128   -4.6999   -6.0101 N   0  0  0  0  0  0  0  0  0  0  0  0
    7.4439   -4.2515   -3.4571 C   0  0  0  0  0  0  0  0  0  0  0  0
    1.0252    1.9337   -0.5595 H   0  0  0  0  0  0  0  0  0  0  0  0
    1.2876    1.7586   -2.3063 H   0  0  0  0  0  0  0  0  0  0  0  0
    2.5289    2.5543   -1.2706 H   0  0  0  0  0  0  0  0  0  0  0  0
    3.1183   -1.9726   -1.6488 H   0  0  0  0  0  0  0  0  0  0  0  0
    4.3690   -1.1859   -0.6300 H   0  0  0  0  0  0  0  0  0  0  0  0
    5.1469   -0.9898   -3.3465 H   0  0  0  0  0  0  0  0  0  0  0  0
    6.7405   -1.3473   -4.8751 H   0  0  0  0  0  0  0  0  0  0  0  0
    8.6053   -2.6521   -5.9444 H   0  0  0  0  0  0  0  0  0  0  0  0
    8.8154   -6.6625   -3.5830 H   0  0  0  0  0  0  0  0  0  0  0  0
   10.1310  -10.6057   -3.1752 H   0  0  0  0  0  0  0  0  0  0  0  0
    8.3020  -11.0010    0.6976 H   0  0  0  0  0  0  0  0  0  0  0  0
   10.0731  -14.1659   -0.1715 H   0  0  0  0  0  0  0  0  0  0  0  0
   10.3781  -16.4408   -0.2004 H   0  0  0  0  0  0  0  0  0  0  0  0
    8.9041  -17.4076   -0.0959 H   0  0  0  0  0  0  0  0  0  0  0  0
    9.9518  -17.1997    1.3386 H   0  0  0  0  0  0  0  0  0  0  0  0
    7.2705  -16.5850    1.9851 H   0  0  0  0  0  0  0  0  0  0  0  0
    6.0114  -14.5414    2.6351 H   0  0  0  0  0  0  0  0  0  0  0  0
   10.0548   -9.3529    0.9622 H   0  0  0  0  0  0  0  0  0  0  0  0
   10.7101   -7.0627    0.2496 H   0  0  0  0  0  0  0  0  0  0  0  0
   12.1660   -7.3962   -6.1692 H   0  0  0  0  0  0  0  0  0  0  0  0
   11.7041   -5.1862   -7.2350 H   0  0  0  0  0  0  0  0  0  0  0  0
    7.3746   -5.0610   -2.7404 H   0  0  0  0  0  0  0  0  0  0  0  0
  1  2  1  0  0  0  0
  1 39  1  0  0  0  0
  1 40  1  0  0  0  0
  1 41  1  0  0  0  0
  2  3  1  0  0  0  0
  3  4  2  0  0  0  0
  3  5  1  0  0  0  0
  5  6  1  0  0  0  0
  5 42  1  0  0  0  0
  5 43  1  0  0  0  0
  6  7  1  0  0  0  0
  6 44  1  0  0  0  0
  7  8  2  0  0  0  0
  7  9  1  0  0  0  0
  9 10  2  0  0  0  0
  9 38  1  0  0  0  0
 10 11  1  0  0  0  0
 10 45  1  0  0  0  0
 11 12  1  0  0  0  0
 11 46  1  0  0  0  0
 12 13  1  0  0  0  0
 12 38  2  0  0  0  0
 13 14  1  0  0  0  0
 13 37  2  0  0  0  0
 14 15  2  0  0  0  0
 14 47  1  0  0  0  0
 15 16  1  0  0  0  0
 15 35  1  0  0  0  0
 16 17  1  0  0  0  0
 17 18  1  0  0  0  0
 17 33  2  0  0  0  0
 18 19  2  0  0  0  0
 18 48  1  0  0  0  0
 19 20  1  0  0  0  0
 19 31  1  0  0  0  0
 20 21  2  0  0  0  0
 20 22  1  0  0  0  0
 22 23  1  0  0  0  0
 22 49  1  0  0  0  0
 23 24  1  0  0  0  0
 23 29  2  0  0  0  0
 24 25  2  0  0  0  0
 24 50  1  0  0  0  0
 25 26  1  0  0  0  0
 25 27  1  0  0  0  0
 26 51  1  0  0  0  0
 26 52  1  0  0  0  0
 26 53  1  0  0  0  0
 27 28  2  0  0  0  0
 27 54  1  0  0  0  0
 28 29  1  0  0  0  0
 28 55  1  0  0  0  0
 29 30  1  0  0  0  0
 31 32  2  0  0  0  0
 31 56  1  0  0  0  0
 32 33  1  0  0  0  0
 32 57  1  0  0  0  0
 33 34  1  0  0  0  0
 35 36  2  0  0  0  0
 35 58  1  0  0  0  0
 36 37  1  0  0  0  0
 36 59  1  0  0  0  0
 38 60  1  0  0  0  0
M  END
$$$$
