CHEMBL499864
 OpenBabel04072215383D

 34 36  0  0  0  0  0  0  0  0999 V2000
    0.8778    0.0916   -0.0103 C   0  0  0  0  0  0  0  0  0  0  0  0
    2.3149   -0.0059   -0.0059 N   0  0  0  0  0  0  0  0  0  0  0  0
    3.1884    1.0401    0.0554 C   0  0  0  0  0  0  0  0  0  0  0  0
    4.4338    0.6233    0.0876 N   0  0  0  0  0  0  0  0  0  0  0  0
    4.3626   -0.7535    0.0192 C   0  0  0  0  0  0  0  0  0  0  0  0
    5.5506   -1.5936    0.0006 C   0  0  0  0  0  0  0  0  0  0  0  0
    6.6974   -1.1978    0.7002 C   0  0  0  0  0  0  0  0  0  0  0  0
    7.8637   -1.9665    0.6414 C   0  0  0  0  0  0  0  0  0  0  0  0
    7.8949   -3.1324   -0.1226 C   0  0  0  0  0  0  0  0  0  0  0  0
    6.7578   -3.5445   -0.8104 C   0  0  0  0  0  0  0  0  0  0  0  0
    5.5946   -2.7779   -0.7486 C   0  0  0  0  0  0  0  0  0  0  0  0
    3.0420   -1.1675   -0.0282 C   0  0  0  0  0  0  0  0  0  0  0  0
    2.4971   -2.4820   -0.0554 C   0  0  0  0  0  0  0  0  0  0  0  0
    2.1163   -3.6203   -0.0686 C   0  0  0  0  0  0  0  0  0  0  0  0
    1.7499   -5.0029   -0.0328 C   0  0  0  0  0  0  0  0  0  0  0  0
    2.6612   -5.9828   -0.3523 C   0  0  0  0  0  0  0  0  0  0  0  0
    2.2051   -7.2651   -0.1932 C   0  0  0  0  0  0  0  0  0  0  0  0
    0.9614   -7.5584    0.2278 N   0  0  0  0  0  0  0  0  0  0  0  0
    0.1589   -6.5288    0.5114 C   0  0  0  0  0  0  0  0  0  0  0  0
   -1.1161   -6.8213    0.9375 N   0  0  0  0  0  0  0  0  0  0  0  0
    0.4948   -5.2415    0.3816 N   0  0  0  0  0  0  0  0  0  0  0  0
    0.5803    1.1431   -0.0085 H   0  0  0  0  0  0  0  0  0  0  0  0
    0.4991   -0.4034    0.8880 H   0  0  0  0  0  0  0  0  0  0  0  0
    0.4980   -0.3999   -0.9100 H   0  0  0  0  0  0  0  0  0  0  0  0
    2.8727    2.0758    0.0805 H   0  0  0  0  0  0  0  0  0  0  0  0
    6.6888   -0.2805    1.2866 H   0  0  0  0  0  0  0  0  0  0  0  0
    8.7506   -1.6467    1.1820 H   0  0  0  0  0  0  0  0  0  0  0  0
    8.8099   -3.7148   -0.1919 H   0  0  0  0  0  0  0  0  0  0  0  0
    6.7762   -4.4481   -1.4116 H   0  0  0  0  0  0  0  0  0  0  0  0
    4.7339   -3.1036   -1.3230 H   0  0  0  0  0  0  0  0  0  0  0  0
    3.6672   -5.7677   -0.6838 H   0  0  0  0  0  0  0  0  0  0  0  0
    2.8424   -8.1215   -0.3932 H   0  0  0  0  0  0  0  0  0  0  0  0
   -1.3705   -7.7489    0.6291 H   0  0  0  0  0  0  0  0  0  0  0  0
   -1.7422   -6.0631    0.7102 H   0  0  0  0  0  0  0  0  0  0  0  0
  1  2  1  0  0  0  0
  1 22  1  0  0  0  0
  1 23  1  0  0  0  0
  1 24  1  0  0  0  0
  2  3  1  0  0  0  0
  2 12  1  0  0  0  0
  3  4  2  0  0  0  0
  3 25  1  0  0  0  0
  4  5  1  0  0  0  0
  5  6  1  0  0  0  0
  5 12  2  0  0  0  0
  6  7  1  0  0  0  0
  6 11  2  0  0  0  0
  7  8  2  0  0  0  0
  7 26  1  0  0  0  0
  8  9  1  0  0  0  0
  8 27  1  0  0  0  0
  9 10  2  0  0  0  0
  9 28  1  0  0  0  0
 10 11  1  0  0  0  0
 10 29  1  0  0  0  0
 11 30  1  0  0  0  0
 12 13  1  0  0  0  0
 13 14  3  0  0  0  0
 14 15  1  0  0  0  0
 15 16  1  0  0  0  0
 15 21  2  0  0  0  0
 16 17  2  0  0  0  0
 16 31  1  0  0  0  0
 17 18  1  0  0  0  0
 17 32  1  0  0  0  0
 18 19  2  0  0  0  0
 19 20  1  0  0  0  0
 19 21  1  0  0  0  0
 20 33  1  0  0  0  0
 20 34  1  0  0  0  0
M  END
$$$$
