CHEMBL4203429
 OpenBabel04072215383D

 70 72  0  0  0  0  0  0  0  0999 V2000
    3.0728   -3.0568  -13.5865 C   0  0  0  0  0  0  0  0  0  0  0  0
    4.0715   -1.9364  -13.3706 C   0  0  0  0  0  0  0  0  0  0  0  0
    4.1784   -1.6839  -11.9689 O   0  0  0  0  0  0  0  0  0  0  0  0
    4.9992   -0.6462  -11.5772 C   0  0  0  0  0  0  0  0  0  0  0  0
    5.7650    0.0995  -12.4001 C   0  0  0  0  0  0  0  0  0  0  0  0
    6.5804    1.2113  -11.8413 C   0  0  0  0  0  0  0  0  0  0  0  0
    7.2797    1.9114  -12.5728 O   0  0  0  0  0  0  0  0  0  0  0  0
    6.4878    1.4113  -10.4916 N   0  0  0  0  0  0  0  0  0  0  0  0
    5.7064    0.6388   -9.6540 C   0  0  0  0  0  0  0  0  0  0  0  0
    4.9678   -0.3767  -10.1369 C   0  0  0  0  0  0  0  0  0  0  0  0
    4.1092   -1.1173   -9.1859 C   0  0  0  0  0  0  0  0  0  0  0  0
    4.6037   -2.1827   -8.4176 C   0  0  0  0  0  0  0  0  0  0  0  0
    3.7524   -2.9046   -7.5664 C   0  0  0  0  0  0  0  0  0  0  0  0
    2.3913   -2.5776   -7.4695 C   0  0  0  0  0  0  0  0  0  0  0  0
    1.4618   -3.2918   -6.5135 C   0  0  0  0  0  0  0  0  0  0  0  0
    1.4146   -4.7999   -6.6753 C   0  0  0  0  0  0  0  0  0  0  0  0
    2.1608   -5.5347   -6.0327 O   0  0  0  0  0  0  0  0  0  0  0  0
    0.5022   -5.2363   -7.6283 N   0  0  0  0  0  0  0  0  0  0  0  0
    0.4265   -6.5987   -7.9776 C   0  0  0  0  0  0  0  0  0  0  0  0
    0.5883   -6.9388   -9.3082 C   0  0  0  0  0  0  0  0  0  0  0  0
    0.6298   -8.2811   -9.6755 C   0  0  0  0  0  0  0  0  0  0  0  0
    0.3778   -9.3223   -8.7592 C   0  0  0  0  0  0  0  0  0  0  0  0
    0.2720  -10.7290   -9.3303 C   0  0  0  0  0  0  0  0  0  0  0  0
   -0.9453  -11.0382  -10.2871 C   0  0  0  0  0  0  0  0  0  0  0  0
   -0.9392  -12.5668  -10.5195 C   0  0  0  0  0  0  0  0  0  0  0  0
   -2.2506  -10.6359   -9.5756 C   0  0  0  0  0  0  0  0  0  0  0  0
   -0.8043  -10.3076  -11.6505 C   0  0  0  0  0  0  0  0  0  0  0  0
   -2.0723  -10.6055  -12.8783 S   0  0  0  0  0  0  0  0  0  0  0  0
   -1.5413   -9.6002  -14.2452 C   0  0  0  0  0  0  0  0  0  0  0  0
   -1.9967  -11.9835  -13.3199 O   0  0  0  0  0  0  0  0  0  0  0  0
   -3.3158  -10.0295  -12.4060 O   0  0  0  0  0  0  0  0  0  0  0  0
    0.2486   -8.9837   -7.3894 C   0  0  0  0  0  0  0  0  0  0  0  0
    0.1459   -9.9562   -6.2238 C   0  0  0  0  0  0  0  0  0  0  0  0
    0.3155  -11.2721   -6.5195 F   0  0  0  0  0  0  0  0  0  0  0  0
    1.0824   -9.6963   -5.2634 F   0  0  0  0  0  0  0  0  0  0  0  0
   -1.0574   -9.8776   -5.5875 F   0  0  0  0  0  0  0  0  0  0  0  0
    0.2636   -7.6098   -7.0272 C   0  0  0  0  0  0  0  0  0  0  0  0
    1.9191   -1.5093   -8.2373 C   0  0  0  0  0  0  0  0  0  0  0  0
    0.6266   -1.1647   -8.1727 F   0  0  0  0  0  0  0  0  0  0  0  0
    2.7554   -0.7841   -9.0818 C   0  0  0  0  0  0  0  0  0  0  0  0
    2.9768   -3.2856  -14.6518 H   0  0  0  0  0  0  0  0  0  0  0  0
    2.0889   -2.7777  -13.1955 H   0  0  0  0  0  0  0  0  0  0  0  0
    3.3849   -3.9619  -13.0558 H   0  0  0  0  0  0  0  0  0  0  0  0
    3.7156   -1.0383  -13.8887 H   0  0  0  0  0  0  0  0  0  0  0  0
    5.0452   -2.2393  -13.7716 H   0  0  0  0  0  0  0  0  0  0  0  0
    5.8448   -0.0363  -13.4639 H   0  0  0  0  0  0  0  0  0  0  0  0
    7.0302    2.1776  -10.1218 H   0  0  0  0  0  0  0  0  0  0  0  0
    5.7225    0.9262   -8.6082 H   0  0  0  0  0  0  0  0  0  0  0  0
    5.6509   -2.4670   -8.4867 H   0  0  0  0  0  0  0  0  0  0  0  0
    4.1643   -3.7222   -6.9708 H   0  0  0  0  0  0  0  0  0  0  0  0
    0.4391   -2.9062   -6.5969 H   0  0  0  0  0  0  0  0  0  0  0  0
    1.7815   -3.0774   -5.4861 H   0  0  0  0  0  0  0  0  0  0  0  0
    0.3057   -4.5683   -8.3657 H   0  0  0  0  0  0  0  0  0  0  0  0
    0.7669   -6.1773  -10.0627 H   0  0  0  0  0  0  0  0  0  0  0  0
    0.8901   -8.5051  -10.7038 H   0  0  0  0  0  0  0  0  0  0  0  0
    0.2165  -11.4502   -8.5158 H   0  0  0  0  0  0  0  0  0  0  0  0
    1.2169  -10.9653   -9.8379 H   0  0  0  0  0  0  0  0  0  0  0  0
   -0.8002  -13.1200   -9.5839 H   0  0  0  0  0  0  0  0  0  0  0  0
   -0.1236  -12.8556  -11.1931 H   0  0  0  0  0  0  0  0  0  0  0  0
   -1.8803  -12.9186  -10.9524 H   0  0  0  0  0  0  0  0  0  0  0  0
   -2.2866  -11.0332   -8.5554 H   0  0  0  0  0  0  0  0  0  0  0  0
   -3.1339  -11.0177  -10.0954 H   0  0  0  0  0  0  0  0  0  0  0  0
   -2.3480   -9.5460   -9.5144 H   0  0  0  0  0  0  0  0  0  0  0  0
    0.1538  -10.5602  -12.1205 H   0  0  0  0  0  0  0  0  0  0  0  0
   -0.8563   -9.2259  -11.5136 H   0  0  0  0  0  0  0  0  0  0  0  0
   -0.6338  -10.0280  -14.6744 H   0  0  0  0  0  0  0  0  0  0  0  0
   -1.3615   -8.5818  -13.8942 H   0  0  0  0  0  0  0  0  0  0  0  0
   -2.3412   -9.5950  -14.9900 H   0  0  0  0  0  0  0  0  0  0  0  0
    0.1439   -7.3376   -5.9768 H   0  0  0  0  0  0  0  0  0  0  0  0
    2.3415    0.0368   -9.6615 H   0  0  0  0  0  0  0  0  0  0  0  0
  1  2  1  0  0  0  0
  1 41  1  0  0  0  0
  1 42  1  0  0  0  0
  1 43  1  0  0  0  0
  2  3  1  0  0  0  0
  2 44  1  0  0  0  0
  2 45  1  0  0  0  0
  3  4  1  0  0  0  0
  4  5  2  0  0  0  0
  4 10  1  0  0  0  0
  5  6  1  0  0  0  0
  5 46  1  0  0  0  0
  6  7  2  0  0  0  0
  6  8  1  0  0  0  0
  8  9  1  0  0  0  0
  8 47  1  0  0  0  0
  9 10  2  0  0  0  0
  9 48  1  0  0  0  0
 10 11  1  0  0  0  0
 11 12  1  0  0  0  0
 11 40  2  0  0  0  0
 12 13  2  0  0  0  0
 12 49  1  0  0  0  0
 13 14  1  0  0  0  0
 13 50  1  0  0  0  0
 14 15  1  0  0  0  0
 14 38  2  0  0  0  0
 15 16  1  0  0  0  0
 15 51  1  0  0  0  0
 15 52  1  0  0  0  0
 16 17  2  0  0  0  0
 16 18  1  0  0  0  0
 18 19  1  0  0  0  0
 18 53  1  0  0  0  0
 19 20  1  0  0  0  0
 19 37  2  0  0  0  0
 20 21  2  0  0  0  0
 20 54  1  0  0  0  0
 21 22  1  0  0  0  0
 21 55  1  0  0  0  0
 22 23  1  0  0  0  0
 22 32  2  0  0  0  0
 23 24  1  0  0  0  0
 23 56  1  0  0  0  0
 23 57  1  0  0  0  0
 24 25  1  0  0  0  0
 24 26  1  0  0  0  0
 24 27  1  0  0  0  0
 25 58  1  0  0  0  0
 25 59  1  0  0  0  0
 25 60  1  0  0  0  0
 26 61  1  0  0  0  0
 26 62  1  0  0  0  0
 26 63  1  0  0  0  0
 27 28  1  0  0  0  0
 27 64  1  0  0  0  0
 27 65  1  0  0  0  0
 28 29  1  0  0  0  0
 28 30  2  0  0  0  0
 28 31  2  0  0  0  0
 29 66  1  0  0  0  0
 29 67  1  0  0  0  0
 29 68  1  0  0  0  0
 32 33  1  0  0  0  0
 32 37  1  0  0  0  0
 33 34  1  0  0  0  0
 33 35  1  0  0  0  0
 33 36  1  0  0  0  0
 37 69  1  0  0  0  0
 38 39  1  0  0  0  0
 38 40  1  0  0  0  0
 40 70  1  0  0  0  0
M  END
$$$$
