CHEMBL3968038
 OpenBabel04072215373D

 63 65  0  0  0  0  0  0  0  0999 V2000
    2.1830   -2.3928   -5.4580 C   0  0  0  0  0  0  0  0  0  0  0  0
    1.8508   -1.6372   -4.3424 O   0  0  0  0  0  0  0  0  0  0  0  0
    2.8013   -1.1368   -3.5450 C   0  0  0  0  0  0  0  0  0  0  0  0
    2.3744   -0.4439   -2.5305 C   0  0  0  0  0  0  0  0  0  0  0  0
    3.1615   -0.0054   -1.5540 C   0  0  0  0  0  0  0  0  0  0  0  0
    2.5995    0.7360   -0.5879 O   0  0  0  0  0  0  0  0  0  0  0  0
    3.3460    1.2382    0.4776 C   0  0  0  0  0  0  0  0  0  0  0  0
    4.4708   -0.4391   -1.5505 C   0  0  0  0  0  0  0  0  0  0  0  0
    4.9830   -1.2103   -2.5990 C   0  0  0  0  0  0  0  0  0  0  0  0
    6.2783   -1.8816   -2.5034 N   0  0  0  0  0  0  0  0  0  0  0  0
    6.8107   -2.3534   -1.1843 C   0  0  0  0  0  0  0  0  0  0  0  0
    8.1659   -1.7879   -0.6655 C   0  0  0  0  0  0  0  0  0  0  0  0
    8.7522   -0.9793   -1.3502 O   0  0  0  0  0  0  0  0  0  0  0  0
    8.9676   -2.3583    0.2413 N   0  0  0  0  0  0  0  0  0  0  0  0
   10.3823   -1.9643    0.2983 C   0  0  0  0  0  0  0  0  0  0  0  0
   11.0840   -2.7322    1.3847 C   0  0  0  0  0  0  0  0  0  0  0  0
   10.4735   -2.4650    2.6807 N   0  0  0  0  0  0  0  0  0  0  0  0
    7.2229   -1.7472   -3.6312 C   0  0  0  0  0  0  0  0  0  0  0  0
    8.0477   -2.8532   -3.7730 C   0  0  0  0  0  0  0  0  0  0  0  0
    8.9007   -2.9102   -4.6828 C   0  0  0  0  0  0  0  0  0  0  0  0
    9.0220   -1.9827   -5.4810 C   0  0  0  0  0  0  0  0  0  0  0  0
    9.8705   -2.3058   -6.1507 N   0  0  0  0  0  0  0  0  0  0  0  0
   10.6984   -2.6570   -6.7644 C   0  0  0  0  0  0  0  0  0  0  0  0
   11.0127   -1.8037   -7.6256 C   0  0  0  0  0  0  0  0  0  0  0  0
   12.5775   -2.8209   -8.2396 C   0  0  0  0  0  0  0  0  0  0  0  0
   13.0562   -4.2306   -8.3664 C   0  0  0  0  0  0  0  0  0  0  0  0
   14.1313   -4.3524   -9.2543 N   0  0  0  0  0  0  0  0  0  0  0  0
   14.4485   -3.1645   -9.7550 N   0  0  0  0  0  0  0  0  0  0  0  0
   15.4922   -2.9459  -10.8430 C   0  0  0  0  0  0  0  0  0  0  0  0
   13.6053   -2.2177   -9.1614 C   0  0  0  0  0  0  0  0  0  0  0  0
    9.7714   -0.5697   -7.2771 N   0  0  0  0  0  0  0  0  0  0  0  0
    8.6628   -0.8658   -5.8903 C   0  0  0  0  0  0  0  0  0  0  0  0
    7.4494   -0.6193   -4.6463 C   0  0  0  0  0  0  0  0  0  0  0  0
    4.1601   -1.2178   -3.7423 C   0  0  0  0  0  0  0  0  0  0  0  0
    0.1385   -1.4503    1.2345 Cl  0  0  0  0  0  0  0  0  0  0  0  0
    1.1046   -2.6324   -6.0246 H   0  0  0  0  0  0  0  0  0  0  0  0
    3.0337   -3.0855   -4.8973 H   0  0  0  0  0  0  0  0  0  0  0  0
    2.7769   -2.1669   -6.3484 H   0  0  0  0  0  0  0  0  0  0  0  0
    1.3748   -0.1909   -2.5631 H   0  0  0  0  0  0  0  0  0  0  0  0
    2.7145    1.8408    1.1151 H   0  0  0  0  0  0  0  0  0  0  0  0
    4.2049    1.8754    0.1231 H   0  0  0  0  0  0  0  0  0  0  0  0
    3.7805    0.3915    1.0637 H   0  0  0  0  0  0  0  0  0  0  0  0
    5.0883   -0.1626   -0.7645 H   0  0  0  0  0  0  0  0  0  0  0  0
    7.0363   -3.4403   -1.2062 H   0  0  0  0  0  0  0  0  0  0  0  0
    5.9869   -2.1535   -0.4992 H   0  0  0  0  0  0  0  0  0  0  0  0
    8.5971   -3.1599    0.7529 H   0  0  0  0  0  0  0  0  0  0  0  0
   10.4520   -0.8681    0.5047 H   0  0  0  0  0  0  0  0  0  0  0  0
   10.9205   -2.1377   -0.6686 H   0  0  0  0  0  0  0  0  0  0  0  0
   12.1509   -2.4316    1.3867 H   0  0  0  0  0  0  0  0  0  0  0  0
   11.0057   -3.8086    1.1493 H   0  0  0  0  0  0  0  0  0  0  0  0
   10.5701   -1.4482    2.9049 H   0  0  0  0  0  0  0  0  0  0  0  0
   10.9990   -3.0054    3.4044 H   0  0  0  0  0  0  0  0  0  0  0  0
    8.1336   -3.7575   -3.2313 H   0  0  0  0  0  0  0  0  0  0  0  0
    9.5403   -3.7650   -4.8504 H   0  0  0  0  0  0  0  0  0  0  0  0
   11.1793   -3.5022   -6.3944 H   0  0  0  0  0  0  0  0  0  0  0  0
   12.6933   -5.1843   -8.0685 H   0  0  0  0  0  0  0  0  0  0  0  0
   16.0388   -3.8760  -11.1707 H   0  0  0  0  0  0  0  0  0  0  0  0
   16.2877   -2.2147  -10.5422 H   0  0  0  0  0  0  0  0  0  0  0  0
   15.0240   -2.5374  -11.7723 H   0  0  0  0  0  0  0  0  0  0  0  0
   13.7137   -1.1910   -9.4433 H   0  0  0  0  0  0  0  0  0  0  0  0
    6.7346    0.2083   -4.2048 H   0  0  0  0  0  0  0  0  0  0  0  0
    4.4832   -1.4177   -4.7480 H   0  0  0  0  0  0  0  0  0  0  0  0
    1.5513   -1.0380    1.2586 H   0  0  0  0  0  0  0  0  0  0  0  0
  1  2  1  0  0  0  0
  1 36  1  0  0  0  0
  1 37  1  0  0  0  0
  1 38  1  0  0  0  0
  2  3  1  0  0  0  0
  3  4  1  0  0  0  0
  3 34  2  0  0  0  0
  4  5  2  0  0  0  0
  4 39  1  0  0  0  0
  5  6  1  0  0  0  0
  5  8  1  0  0  0  0
  6  7  1  0  0  0  0
  7 40  1  0  0  0  0
  7 41  1  0  0  0  0
  7 42  1  0  0  0  0
  8  9  2  0  0  0  0
  8 43  1  0  0  0  0
  9 10  1  0  0  0  0
  9 34  1  0  0  0  0
 10 11  1  0  0  0  0
 10 18  1  0  0  0  0
 11 12  1  0  0  0  0
 11 44  1  0  0  0  0
 11 45  1  0  0  0  0
 12 13  2  0  0  0  0
 12 14  1  0  0  0  0
 14 15  1  0  0  0  0
 14 46  1  0  0  0  0
 15 16  1  0  0  0  0
 15 47  1  0  0  0  0
 15 48  1  0  0  0  0
 16 17  1  0  0  0  0
 16 49  1  0  0  0  0
 16 50  1  0  0  0  0
 17 51  1  0  0  0  0
 17 52  1  0  0  0  0
 18 19  1  0  0  0  0
 18 33  2  0  0  0  0
 19 20  2  0  0  0  0
 19 53  1  0  0  0  0
 20 21  1  0  0  0  0
 20 54  1  0  0  0  0
 21 22  1  0  0  0  0
 21 32  2  0  0  0  0
 22 23  2  0  0  0  0
 23 24  1  0  0  0  0
 23 55  1  0  0  0  0
 24 25  1  0  0  0  0
 24 31  2  0  0  0  0
 25 26  1  0  0  0  0
 25 30  2  0  0  0  0
 26 27  2  0  0  0  0
 26 56  1  0  0  0  0
 27 28  1  0  0  0  0
 28 29  1  0  0  0  0
 28 30  1  0  0  0  0
 29 57  1  0  0  0  0
 29 58  1  0  0  0  0
 29 59  1  0  0  0  0
 30 60  1  0  0  0  0
 31 32  1  0  0  0  0
 32 33  1  0  0  0  0
 33 61  1  0  0  0  0
 34 62  1  0  0  0  0
 35 63  1  0  0  0  0
M  END
$$$$
