CHEMBL4789042
 OpenBabel04072215383D

 64 69  0  0  0  0  0  0  0  0999 V2000
    1.2722   -0.1055    0.3158 O   0  0  0  0  0  0  0  0  0  0  0  0
    2.4848    0.0394    0.1634 C   0  0  0  0  0  0  0  0  0  0  0  0
    3.0803    0.9560   -0.6619 N   0  0  0  0  0  0  0  0  0  0  0  0
    2.4667    1.8531   -1.5409 C   0  0  0  0  0  0  0  0  0  0  0  0
    1.1174    2.1987   -1.4866 C   0  0  0  0  0  0  0  0  0  0  0  0
    0.5765    3.0937   -2.4148 C   0  0  0  0  0  0  0  0  0  0  0  0
    1.3785    3.6322   -3.4185 C   0  0  0  0  0  0  0  0  0  0  0  0
    2.7265    3.2893   -3.4855 C   0  0  0  0  0  0  0  0  0  0  0  0
    3.2721    2.4171   -2.5429 C   0  0  0  0  0  0  0  0  0  0  0  0
    3.3044   -0.8538    0.7758 N   0  0  0  0  0  0  0  0  0  0  0  0
    4.6865   -0.8617    0.8855 C   0  0  0  0  0  0  0  0  0  0  0  0
    5.2062   -2.0105    1.3153 N   0  0  0  0  0  0  0  0  0  0  0  0
    6.5428   -2.0409    1.4282 C   0  0  0  0  0  0  0  0  0  0  0  0
    7.3009   -3.5671    1.9754 S   0  0  0  0  0  0  0  0  0  0  0  0
    7.5186   -3.1286    3.6527 C   0  0  0  0  0  0  0  0  0  0  0  0
    6.5478   -3.2514    4.6185 C   0  0  0  0  0  0  0  0  0  0  0  0
    7.0954   -2.7705    5.7746 N   0  0  0  0  0  0  0  0  0  0  0  0
    8.1483   -1.9448    5.4507 C   0  0  0  0  0  0  0  0  0  0  0  0
    8.7375   -0.8871    6.1478 C   0  0  0  0  0  0  0  0  0  0  0  0
    9.8705   -0.3026    5.5754 C   0  0  0  0  0  0  0  0  0  0  0  0
   10.4515   -0.8375    4.4257 C   0  0  0  0  0  0  0  0  0  0  0  0
    9.8313   -1.8827    3.7298 C   0  0  0  0  0  0  0  0  0  0  0  0
    8.5938   -2.3681    4.1977 C   0  0  0  0  0  0  0  0  0  0  0  0
    7.3329   -0.9527    1.1860 C   0  0  0  0  0  0  0  0  0  0  0  0
    6.7147    0.2123    0.8015 C   0  0  0  0  0  0  0  0  0  0  0  0
    7.4955    1.3370    0.5854 N   0  0  0  0  0  0  0  0  0  0  0  0
    6.9398    2.4515   -0.1969 C   0  0  0  0  0  0  0  0  0  0  0  0
    8.1279    3.2082   -0.8313 C   0  0  0  0  0  0  0  0  0  0  0  0
    9.0966    3.6268    0.2002 N   0  0  0  0  0  0  0  0  0  0  0  0
    9.6087    4.9016    0.1531 C   0  0  0  0  0  0  0  0  0  0  0  0
   10.8671    5.2159    0.6628 C   0  0  0  0  0  0  0  0  0  0  0  0
   11.3271    6.5346    0.6352 C   0  0  0  0  0  0  0  0  0  0  0  0
   10.5229    7.5247    0.0983 C   0  0  0  0  0  0  0  0  0  0  0  0
    9.2983    7.1379   -0.4042 C   0  0  0  0  0  0  0  0  0  0  0  0
    8.8425    5.8673   -0.3951 N   0  0  0  0  0  0  0  0  0  0  0  0
    9.5389    2.6040    1.1531 C   0  0  0  0  0  0  0  0  0  0  0  0
    8.3259    1.8195    1.7126 C   0  0  0  0  0  0  0  0  0  0  0  0
    5.3914    0.2388    0.5753 N   0  0  0  0  0  0  0  0  0  0  0  0
    4.1006    0.8885   -0.6901 H   0  0  0  0  0  0  0  0  0  0  0  0
    0.4653    1.8049   -0.7144 H   0  0  0  0  0  0  0  0  0  0  0  0
   -0.4755    3.3626   -2.3539 H   0  0  0  0  0  0  0  0  0  0  0  0
    0.9515    4.3127   -4.1495 H   0  0  0  0  0  0  0  0  0  0  0  0
    3.3511    3.6930   -4.2780 H   0  0  0  0  0  0  0  0  0  0  0  0
    4.3212    2.1467   -2.6259 H   0  0  0  0  0  0  0  0  0  0  0  0
    2.8484   -1.6475    1.1982 H   0  0  0  0  0  0  0  0  0  0  0  0
    5.5392   -3.6416    4.5846 H   0  0  0  0  0  0  0  0  0  0  0  0
    6.7330   -2.9209    6.7061 H   0  0  0  0  0  0  0  0  0  0  0  0
    8.2996   -0.4928    7.0591 H   0  0  0  0  0  0  0  0  0  0  0  0
   10.3155    0.5708    6.0474 H   0  0  0  0  0  0  0  0  0  0  0  0
   11.3771   -0.4143    4.0434 H   0  0  0  0  0  0  0  0  0  0  0  0
   10.2707   -2.2700    2.8153 H   0  0  0  0  0  0  0  0  0  0  0  0
    8.4093   -1.0056    1.2889 H   0  0  0  0  0  0  0  0  0  0  0  0
    6.3585    3.1254    0.4458 H   0  0  0  0  0  0  0  0  0  0  0  0
    6.2866    2.0931   -1.0000 H   0  0  0  0  0  0  0  0  0  0  0  0
    7.7415    4.0309   -1.4387 H   0  0  0  0  0  0  0  0  0  0  0  0
    8.6452    2.5256   -1.5197 H   0  0  0  0  0  0  0  0  0  0  0  0
   11.5184    4.4438    1.0535 H   0  0  0  0  0  0  0  0  0  0  0  0
   12.3089    6.7807    1.0223 H   0  0  0  0  0  0  0  0  0  0  0  0
   10.8386    8.5605    0.0686 H   0  0  0  0  0  0  0  0  0  0  0  0
    8.6147    7.8631   -0.8325 H   0  0  0  0  0  0  0  0  0  0  0  0
   10.0677    3.0367    2.0096 H   0  0  0  0  0  0  0  0  0  0  0  0
   10.2197    1.9100    0.6489 H   0  0  0  0  0  0  0  0  0  0  0  0
    7.7228    2.4809    2.3532 H   0  0  0  0  0  0  0  0  0  0  0  0
    8.6951    1.0114    2.3499 H   0  0  0  0  0  0  0  0  0  0  0  0
  1  2  2  0  0  0  0
  2  3  1  0  0  0  0
  2 10  1  0  0  0  0
  3  4  1  0  0  0  0
  3 39  1  0  0  0  0
  4  5  1  0  0  0  0
  4  9  2  0  0  0  0
  5  6  2  0  0  0  0
  5 40  1  0  0  0  0
  6  7  1  0  0  0  0
  6 41  1  0  0  0  0
  7  8  2  0  0  0  0
  7 42  1  0  0  0  0
  8  9  1  0  0  0  0
  8 43  1  0  0  0  0
  9 44  1  0  0  0  0
 10 11  1  0  0  0  0
 10 45  1  0  0  0  0
 11 12  1  0  0  0  0
 11 38  2  0  0  0  0
 12 13  2  0  0  0  0
 13 14  1  0  0  0  0
 13 24  1  0  0  0  0
 14 15  1  0  0  0  0
 15 16  2  0  0  0  0
 15 23  1  0  0  0  0
 16 17  1  0  0  0  0
 16 46  1  0  0  0  0
 17 18  1  0  0  0  0
 17 47  1  0  0  0  0
 18 19  1  0  0  0  0
 18 23  2  0  0  0  0
 19 20  2  0  0  0  0
 19 48  1  0  0  0  0
 20 21  1  0  0  0  0
 20 49  1  0  0  0  0
 21 22  2  0  0  0  0
 21 50  1  0  0  0  0
 22 23  1  0  0  0  0
 22 51  1  0  0  0  0
 24 25  2  0  0  0  0
 24 52  1  0  0  0  0
 25 26  1  0  0  0  0
 25 38  1  0  0  0  0
 26 27  1  0  0  0  0
 26 37  1  0  0  0  0
 27 28  1  0  0  0  0
 27 53  1  0  0  0  0
 27 54  1  0  0  0  0
 28 29  1  0  0  0  0
 28 55  1  0  0  0  0
 28 56  1  0  0  0  0
 29 30  1  0  0  0  0
 29 36  1  0  0  0  0
 30 31  1  0  0  0  0
 30 35  2  0  0  0  0
 31 32  2  0  0  0  0
 31 57  1  0  0  0  0
 32 33  1  0  0  0  0
 32 58  1  0  0  0  0
 33 34  2  0  0  0  0
 33 59  1  0  0  0  0
 34 35  1  0  0  0  0
 34 60  1  0  0  0  0
 36 37  1  0  0  0  0
 36 61  1  0  0  0  0
 36 62  1  0  0  0  0
 37 63  1  0  0  0  0
 37 64  1  0  0  0  0
M  END
$$$$
