CHEMBL469467
 OpenBabel04072215383D

 55 59  0  0  0  0  0  0  0  0999 V2000
    2.3659   -0.3975    1.4966 C   0  0  0  0  0  0  0  0  0  0  0  0
    0.8675   -0.2986    1.4612 C   0  0  0  0  0  0  0  0  0  0  0  0
    0.2522    0.8863    1.8772 C   0  0  0  0  0  0  0  0  0  0  0  0
   -1.1299    0.9975    1.8516 C   0  0  0  0  0  0  0  0  0  0  0  0
   -1.9095   -0.0718    1.4118 C   0  0  0  0  0  0  0  0  0  0  0  0
   -1.3320   -1.2711    0.9810 C   0  0  0  0  0  0  0  0  0  0  0  0
   -2.1019   -2.3792    0.5274 N   0  0  0  0  0  0  0  0  0  0  0  0
   -3.4832   -2.3951    0.3818 C   0  0  0  0  0  0  0  0  0  0  0  0
   -4.2270   -1.4430    0.5927 O   0  0  0  0  0  0  0  0  0  0  0  0
   -3.9767   -3.6498    0.0224 N   0  0  0  0  0  0  0  0  0  0  0  0
   -5.3831   -3.8085   -0.1206 C   0  0  0  0  0  0  0  0  0  0  0  0
   -6.1276   -2.9409   -0.9296 C   0  0  0  0  0  0  0  0  0  0  0  0
   -7.5245   -3.0138   -0.9590 C   0  0  0  0  0  0  0  0  0  0  0  0
   -8.1960   -3.9475   -0.1653 C   0  0  0  0  0  0  0  0  0  0  0  0
   -9.6649   -3.9595   -0.1196 C   0  0  0  0  0  0  0  0  0  0  0  0
  -10.3953   -3.1358    0.8973 C   0  0  0  0  0  0  0  0  0  0  0  0
  -11.6800   -3.0463    1.0668 N   0  0  0  0  0  0  0  0  0  0  0  0
  -12.4499   -3.7948    0.2131 C   0  0  0  0  0  0  0  0  0  0  0  0
  -13.8170   -3.9554    0.0839 C   0  0  0  0  0  0  0  0  0  0  0  0
  -14.8528   -3.3047    0.8817 C   0  0  0  0  0  0  0  0  0  0  0  0
  -16.1148   -3.0537    0.3194 C   0  0  0  0  0  0  0  0  0  0  0  0
  -17.1369   -2.4745    1.0782 C   0  0  0  0  0  0  0  0  0  0  0  0
  -16.9105   -2.1371    2.4093 C   0  0  0  0  0  0  0  0  0  0  0  0
  -15.6621   -2.3725    2.9799 C   0  0  0  0  0  0  0  0  0  0  0  0
  -14.6400   -2.9516    2.2208 C   0  0  0  0  0  0  0  0  0  0  0  0
  -13.9625   -4.8857   -0.9672 C   0  0  0  0  0  0  0  0  0  0  0  0
  -12.8038   -5.2868   -1.4896 N   0  0  0  0  0  0  0  0  0  0  0  0
  -11.8616   -4.5895   -0.7831 N   0  0  0  0  0  0  0  0  0  0  0  0
  -10.4547   -4.6592   -0.9627 C   0  0  0  0  0  0  0  0  0  0  0  0
   -9.9915   -5.4705   -2.0015 N   0  0  0  0  0  0  0  0  0  0  0  0
   -7.4478   -4.8471    0.6078 C   0  0  0  0  0  0  0  0  0  0  0  0
   -6.0453   -4.7943    0.6123 C   0  0  0  0  0  0  0  0  0  0  0  0
    0.0695   -1.3748    1.0128 C   0  0  0  0  0  0  0  0  0  0  0  0
    2.8150    0.5252    1.8843 H   0  0  0  0  0  0  0  0  0  0  0  0
    2.7616   -0.5571    0.4894 H   0  0  0  0  0  0  0  0  0  0  0  0
    2.6802   -1.2150    2.1519 H   0  0  0  0  0  0  0  0  0  0  0  0
    0.8422    1.7314    2.2241 H   0  0  0  0  0  0  0  0  0  0  0  0
   -1.6144    1.9158    2.1716 H   0  0  0  0  0  0  0  0  0  0  0  0
   -2.9816    0.0837    1.4210 H   0  0  0  0  0  0  0  0  0  0  0  0
   -1.5954   -3.1798    0.1788 H   0  0  0  0  0  0  0  0  0  0  0  0
   -3.4845   -4.4197    0.4523 H   0  0  0  0  0  0  0  0  0  0  0  0
   -5.6271   -2.1785   -1.5231 H   0  0  0  0  0  0  0  0  0  0  0  0
   -8.0781   -2.3142   -1.5824 H   0  0  0  0  0  0  0  0  0  0  0  0
   -9.7463   -2.5398    1.5679 H   0  0  0  0  0  0  0  0  0  0  0  0
  -16.3201   -3.2977   -0.7201 H   0  0  0  0  0  0  0  0  0  0  0  0
  -18.1088   -2.2888    0.6281 H   0  0  0  0  0  0  0  0  0  0  0  0
  -17.7048   -1.6904    3.0019 H   0  0  0  0  0  0  0  0  0  0  0  0
  -15.4808   -2.1101    4.0189 H   0  0  0  0  0  0  0  0  0  0  0  0
  -13.6789   -3.1323    2.6962 H   0  0  0  0  0  0  0  0  0  0  0  0
  -14.8781   -5.3014   -1.3695 H   0  0  0  0  0  0  0  0  0  0  0  0
  -10.7051   -6.1443   -2.2911 H   0  0  0  0  0  0  0  0  0  0  0  0
   -9.0743   -5.8754   -1.8419 H   0  0  0  0  0  0  0  0  0  0  0  0
   -7.9512   -5.5742    1.2420 H   0  0  0  0  0  0  0  0  0  0  0  0
   -5.4952   -5.4692    1.2615 H   0  0  0  0  0  0  0  0  0  0  0  0
    0.5619   -2.2906    0.6931 H   0  0  0  0  0  0  0  0  0  0  0  0
  1  2  1  0  0  0  0
  1 34  1  0  0  0  0
  1 35  1  0  0  0  0
  1 36  1  0  0  0  0
  2  3  1  0  0  0  0
  2 33  2  0  0  0  0
  3  4  2  0  0  0  0
  3 37  1  0  0  0  0
  4  5  1  0  0  0  0
  4 38  1  0  0  0  0
  5  6  2  0  0  0  0
  5 39  1  0  0  0  0
  6  7  1  0  0  0  0
  6 33  1  0  0  0  0
  7  8  1  0  0  0  0
  7 40  1  0  0  0  0
  8  9  2  0  0  0  0
  8 10  1  0  0  0  0
 10 11  1  0  0  0  0
 10 41  1  0  0  0  0
 11 12  1  0  0  0  0
 11 32  2  0  0  0  0
 12 13  2  0  0  0  0
 12 42  1  0  0  0  0
 13 14  1  0  0  0  0
 13 43  1  0  0  0  0
 14 15  1  0  0  0  0
 14 31  2  0  0  0  0
 15 16  1  0  0  0  0
 15 29  2  0  0  0  0
 16 17  2  0  0  0  0
 16 44  1  0  0  0  0
 17 18  1  0  0  0  0
 18 19  2  0  0  0  0
 18 28  1  0  0  0  0
 19 20  1  0  0  0  0
 19 26  1  0  0  0  0
 20 21  1  0  0  0  0
 20 25  2  0  0  0  0
 21 22  2  0  0  0  0
 21 45  1  0  0  0  0
 22 23  1  0  0  0  0
 22 46  1  0  0  0  0
 23 24  2  0  0  0  0
 23 47  1  0  0  0  0
 24 25  1  0  0  0  0
 24 48  1  0  0  0  0
 25 49  1  0  0  0  0
 26 27  2  0  0  0  0
 26 50  1  0  0  0  0
 27 28  1  0  0  0  0
 28 29  1  0  0  0  0
 29 30  1  0  0  0  0
 30 51  1  0  0  0  0
 30 52  1  0  0  0  0
 31 32  1  0  0  0  0
 31 53  1  0  0  0  0
 32 54  1  0  0  0  0
 33 55  1  0  0  0  0
M  END
$$$$
