CHEMBL1681942
 OpenBabel04072215363D

 45 47  0  0  0  0  0  0  0  0999 V2000
    8.9716   -6.3426   -5.0832 C   0  0  0  0  0  0  0  0  0  0  0  0
    8.4473   -5.8853   -3.8377 O   0  0  0  0  0  0  0  0  0  0  0  0
    7.4077   -4.9927   -4.1172 N   0  0  0  0  0  0  0  0  0  0  0  0
    6.8697   -4.5631   -3.0179 C   0  0  0  0  0  0  0  0  0  0  0  0
    5.7428   -3.6191   -3.0650 C   0  0  0  0  0  0  0  0  0  0  0  0
    4.8910   -3.5566   -4.1651 C   0  0  0  0  0  0  0  0  0  0  0  0
    4.9563   -4.4605   -5.2245 N   0  0  0  0  0  0  0  0  0  0  0  0
    3.8599   -2.6988   -4.2411 N   0  0  0  0  0  0  0  0  0  0  0  0
    3.6990   -1.8666   -3.2096 C   0  0  0  0  0  0  0  0  0  0  0  0
    4.4740   -1.8145   -2.1240 N   0  0  0  0  0  0  0  0  0  0  0  0
    5.4748   -2.7238   -2.0475 C   0  0  0  0  0  0  0  0  0  0  0  0
    6.2686   -2.7162   -0.8949 O   0  0  0  0  0  0  0  0  0  0  0  0
    5.6911   -2.1631    0.2388 C   0  0  0  0  0  0  0  0  0  0  0  0
    4.4080   -2.5313    0.6345 C   0  0  0  0  0  0  0  0  0  0  0  0
    3.7829   -1.8607    1.6843 C   0  0  0  0  0  0  0  0  0  0  0  0
    4.4199   -0.8317    2.3842 C   0  0  0  0  0  0  0  0  0  0  0  0
    3.7210   -0.0396    3.3476 N   0  0  0  0  0  0  0  0  0  0  0  0
    2.3451    0.0430    3.4082 C   0  0  0  0  0  0  0  0  0  0  0  0
    1.5796   -0.5938    2.6845 O   0  0  0  0  0  0  0  0  0  0  0  0
    1.8664    0.9626    4.3311 N   0  0  0  0  0  0  0  0  0  0  0  0
    0.4584    1.1640    4.3868 C   0  0  0  0  0  0  0  0  0  0  0  0
   -0.4187    0.0822    4.4777 C   0  0  0  0  0  0  0  0  0  0  0  0
   -1.7757    0.3173    4.3366 C   0  0  0  0  0  0  0  0  0  0  0  0
   -2.2994    1.5425    4.1317 N   0  0  0  0  0  0  0  0  0  0  0  0
   -1.4277    2.5734    4.0780 C   0  0  0  0  0  0  0  0  0  0  0  0
   -0.0551    2.4444    4.2306 C   0  0  0  0  0  0  0  0  0  0  0  0
    5.7684   -0.5748    2.0710 C   0  0  0  0  0  0  0  0  0  0  0  0
    6.6665    0.6145    2.9519 Cl  0  0  0  0  0  0  0  0  0  0  0  0
    6.4004   -1.2377    0.9976 C   0  0  0  0  0  0  0  0  0  0  0  0
    9.8831   -6.9139   -4.8928 H   0  0  0  0  0  0  0  0  0  0  0  0
    9.2176   -5.4931   -5.7295 H   0  0  0  0  0  0  0  0  0  0  0  0
    8.2435   -6.9894   -5.5837 H   0  0  0  0  0  0  0  0  0  0  0  0
    7.2446   -4.8810   -2.0291 H   0  0  0  0  0  0  0  0  0  0  0  0
    5.9209   -4.6409   -5.5053 H   0  0  0  0  0  0  0  0  0  0  0  0
    4.3472   -4.1545   -5.9753 H   0  0  0  0  0  0  0  0  0  0  0  0
    2.8572   -1.1840   -3.2508 H   0  0  0  0  0  0  0  0  0  0  0  0
    3.8412   -3.2788    0.0920 H   0  0  0  0  0  0  0  0  0  0  0  0
    2.7668   -2.1697    1.9056 H   0  0  0  0  0  0  0  0  0  0  0  0
    4.2735    0.6275    3.8707 H   0  0  0  0  0  0  0  0  0  0  0  0
    2.4408    1.7896    4.4309 H   0  0  0  0  0  0  0  0  0  0  0  0
   -0.0600   -0.9356    4.6065 H   0  0  0  0  0  0  0  0  0  0  0  0
   -2.4895   -0.5008    4.3610 H   0  0  0  0  0  0  0  0  0  0  0  0
   -1.8780    3.5397    3.8679 H   0  0  0  0  0  0  0  0  0  0  0  0
    0.5821    3.3142    4.1311 H   0  0  0  0  0  0  0  0  0  0  0  0
    7.4281   -0.9925    0.7374 H   0  0  0  0  0  0  0  0  0  0  0  0
  1  2  1  0  0  0  0
  1 30  1  0  0  0  0
  1 31  1  0  0  0  0
  1 32  1  0  0  0  0
  2  3  1  0  0  0  0
  3  4  2  0  0  0  0
  4  5  1  0  0  0  0
  4 33  1  0  0  0  0
  5  6  1  0  0  0  0
  5 11  2  0  0  0  0
  6  7  1  0  0  0  0
  6  8  2  0  0  0  0
  7 34  1  0  0  0  0
  7 35  1  0  0  0  0
  8  9  1  0  0  0  0
  9 10  2  0  0  0  0
  9 36  1  0  0  0  0
 10 11  1  0  0  0  0
 11 12  1  0  0  0  0
 12 13  1  0  0  0  0
 13 14  1  0  0  0  0
 13 29  2  0  0  0  0
 14 15  2  0  0  0  0
 14 37  1  0  0  0  0
 15 16  1  0  0  0  0
 15 38  1  0  0  0  0
 16 17  1  0  0  0  0
 16 27  2  0  0  0  0
 17 18  1  0  0  0  0
 17 39  1  0  0  0  0
 18 19  2  0  0  0  0
 18 20  1  0  0  0  0
 20 21  1  0  0  0  0
 20 40  1  0  0  0  0
 21 22  1  0  0  0  0
 21 26  2  0  0  0  0
 22 23  2  0  0  0  0
 22 41  1  0  0  0  0
 23 24  1  0  0  0  0
 23 42  1  0  0  0  0
 24 25  2  0  0  0  0
 25 26  1  0  0  0  0
 25 43  1  0  0  0  0
 26 44  1  0  0  0  0
 27 28  1  0  0  0  0
 27 29  1  0  0  0  0
 29 45  1  0  0  0  0
M  END
$$$$
