CHEMBL3577120
 OpenBabel04072215363D

 58 60  0  0  0  0  0  0  0  0999 V2000
    2.8047   -1.4479   -1.0763 C   0  0  0  0  0  0  0  0  0  0  0  0
    3.3490   -0.3443   -0.3018 N   0  0  0  0  0  0  0  0  0  0  0  0
    3.8040   -0.7087    0.9792 C   0  0  0  0  0  0  0  0  0  0  0  0
    4.0699    0.3048    1.8943 C   0  0  0  0  0  0  0  0  0  0  0  0
    4.5158    0.0057    3.1701 C   0  0  0  0  0  0  0  0  0  0  0  0
    4.7291    0.9925    4.0524 N   0  0  0  0  0  0  0  0  0  0  0  0
    5.1714    0.6968    5.3110 C   0  0  0  0  0  0  0  0  0  0  0  0
    5.4000    1.9259    6.1447 C   0  0  0  0  0  0  0  0  0  0  0  0
    5.3928   -0.6166    5.7654 C   0  0  0  0  0  0  0  0  0  0  0  0
    5.9012   -0.9874    7.1207 C   0  0  0  0  0  0  0  0  0  0  0  0
    5.5569   -0.2903    8.2956 C   0  0  0  0  0  0  0  0  0  0  0  0
    6.1620   -0.5656    9.5289 C   0  0  0  0  0  0  0  0  0  0  0  0
    7.0745   -1.6014    9.6267 C   0  0  0  0  0  0  0  0  0  0  0  0
    7.6386   -1.8755   10.8123 F   0  0  0  0  0  0  0  0  0  0  0  0
    7.3299   -2.4088    8.5269 C   0  0  0  0  0  0  0  0  0  0  0  0
    8.1611   -3.5245    8.6757 N   0  0  0  0  0  0  0  0  0  0  0  0
    7.9190   -4.8031    8.2650 C   0  0  0  0  0  0  0  0  0  0  0  0
    8.7952   -5.6573    8.3766 O   0  0  0  0  0  0  0  0  0  0  0  0
    6.6393   -5.0810    7.8362 N   0  0  0  0  0  0  0  0  0  0  0  0
    6.3026   -6.4793    7.6596 C   0  0  0  0  0  0  0  0  0  0  0  0
    4.8702   -6.7328    7.1823 C   0  0  0  0  0  0  0  0  0  0  0  0
    4.5636   -8.2325    6.8872 C   0  0  0  0  0  0  0  0  0  0  0  0
    4.7280   -9.0932    8.1533 C   0  0  0  0  0  0  0  0  0  0  0  0
    3.1105   -8.3778    6.3969 C   0  0  0  0  0  0  0  0  0  0  0  0
    5.4949   -8.7700    5.7854 C   0  0  0  0  0  0  0  0  0  0  0  0
    6.7763   -2.0826    7.2826 C   0  0  0  0  0  0  0  0  0  0  0  0
    5.1579   -1.6272    4.8108 C   0  0  0  0  0  0  0  0  0  0  0  0
    4.7275   -1.3264    3.5068 C   0  0  0  0  0  0  0  0  0  0  0  0
    4.4943   -2.2829    2.5212 C   0  0  0  0  0  0  0  0  0  0  0  0
    4.0339   -2.0003    1.2821 N   0  0  0  0  0  0  0  0  0  0  0  0
    2.2713   -1.0436   -1.9430 H   0  0  0  0  0  0  0  0  0  0  0  0
    2.0790   -2.0369   -0.5030 H   0  0  0  0  0  0  0  0  0  0  0  0
    3.5994   -2.1015   -1.4496 H   0  0  0  0  0  0  0  0  0  0  0  0
    2.6873    0.4221   -0.2269 H   0  0  0  0  0  0  0  0  0  0  0  0
    3.9157    1.3431    1.6222 H   0  0  0  0  0  0  0  0  0  0  0  0
    5.3618    2.8275    5.5226 H   0  0  0  0  0  0  0  0  0  0  0  0
    6.3825    1.9071    6.6246 H   0  0  0  0  0  0  0  0  0  0  0  0
    4.6083    2.0345    6.8905 H   0  0  0  0  0  0  0  0  0  0  0  0
    4.8046    0.4927    8.2811 H   0  0  0  0  0  0  0  0  0  0  0  0
    5.9078    0.0105   10.4134 H   0  0  0  0  0  0  0  0  0  0  0  0
    8.8941   -3.4810    9.3750 H   0  0  0  0  0  0  0  0  0  0  0  0
    5.9281   -4.5039    8.2644 H   0  0  0  0  0  0  0  0  0  0  0  0
    6.4704   -6.9719    8.6234 H   0  0  0  0  0  0  0  0  0  0  0  0
    7.0243   -6.8798    6.9440 H   0  0  0  0  0  0  0  0  0  0  0  0
    4.6745   -6.1345    6.2819 H   0  0  0  0  0  0  0  0  0  0  0  0
    4.1651   -6.3602    7.9435 H   0  0  0  0  0  0  0  0  0  0  0  0
    4.0427   -8.7669    8.9438 H   0  0  0  0  0  0  0  0  0  0  0  0
    5.7462   -9.0494    8.5515 H   0  0  0  0  0  0  0  0  0  0  0  0
    4.5141  -10.1475    7.9429 H   0  0  0  0  0  0  0  0  0  0  0  0
    2.3955   -8.0627    7.1647 H   0  0  0  0  0  0  0  0  0  0  0  0
    2.8847   -9.4221    6.1462 H   0  0  0  0  0  0  0  0  0  0  0  0
    2.9300   -7.7774    5.4991 H   0  0  0  0  0  0  0  0  0  0  0  0
    6.5437   -8.7698    6.0973 H   0  0  0  0  0  0  0  0  0  0  0  0
    5.4124   -8.1669    4.8743 H   0  0  0  0  0  0  0  0  0  0  0  0
    5.2454   -9.8047    5.5257 H   0  0  0  0  0  0  0  0  0  0  0  0
    7.0877   -2.6701    6.4203 H   0  0  0  0  0  0  0  0  0  0  0  0
    5.3086   -2.6733    5.0705 H   0  0  0  0  0  0  0  0  0  0  0  0
    4.6770   -3.3386    2.7030 H   0  0  0  0  0  0  0  0  0  0  0  0
  1  2  1  0  0  0  0
  1 31  1  0  0  0  0
  1 32  1  0  0  0  0
  1 33  1  0  0  0  0
  2  3  1  0  0  0  0
  2 34  1  0  0  0  0
  3  4  1  0  0  0  0
  3 30  2  0  0  0  0
  4  5  2  0  0  0  0
  4 35  1  0  0  0  0
  5  6  1  0  0  0  0
  5 28  1  0  0  0  0
  6  7  2  0  0  0  0
  7  8  1  0  0  0  0
  7  9  1  0  0  0  0
  8 36  1  0  0  0  0
  8 37  1  0  0  0  0
  8 38  1  0  0  0  0
  9 10  1  0  0  0  0
  9 27  2  0  0  0  0
 10 11  1  0  0  0  0
 10 26  2  0  0  0  0
 11 12  2  0  0  0  0
 11 39  1  0  0  0  0
 12 13  1  0  0  0  0
 12 40  1  0  0  0  0
 13 14  1  0  0  0  0
 13 15  2  0  0  0  0
 15 16  1  0  0  0  0
 15 26  1  0  0  0  0
 16 17  1  0  0  0  0
 16 41  1  0  0  0  0
 17 18  2  0  0  0  0
 17 19  1  0  0  0  0
 19 20  1  0  0  0  0
 19 42  1  0  0  0  0
 20 21  1  0  0  0  0
 20 43  1  0  0  0  0
 20 44  1  0  0  0  0
 21 22  1  0  0  0  0
 21 45  1  0  0  0  0
 21 46  1  0  0  0  0
 22 23  1  0  0  0  0
 22 24  1  0  0  0  0
 22 25  1  0  0  0  0
 23 47  1  0  0  0  0
 23 48  1  0  0  0  0
 23 49  1  0  0  0  0
 24 50  1  0  0  0  0
 24 51  1  0  0  0  0
 24 52  1  0  0  0  0
 25 53  1  0  0  0  0
 25 54  1  0  0  0  0
 25 55  1  0  0  0  0
 26 56  1  0  0  0  0
 27 28  1  0  0  0  0
 27 57  1  0  0  0  0
 28 29  2  0  0  0  0
 29 30  1  0  0  0  0
 29 58  1  0  0  0  0
M  END
$$$$
