CHEMBL328029
 OpenBabel04072215363D

 36 39  0  0  0  0  0  0  0  0999 V2000
   -2.9127    0.7600    1.1563 O   0  0  0  0  0  0  0  0  0  0  0  0
   -1.7572    0.4035    1.0551 C   0  0  0  0  0  0  0  0  0  0  0  0
   -0.6537    1.1414    1.4495 N   0  0  0  0  0  0  0  0  0  0  0  0
    0.5329    0.4990    1.1289 C   0  0  0  0  0  0  0  0  0  0  0  0
    1.8062    0.9813    1.3615 C   0  0  0  0  0  0  0  0  0  0  0  0
    2.8749    0.1935    0.9382 C   0  0  0  0  0  0  0  0  0  0  0  0
    2.6443   -1.0408    0.3026 C   0  0  0  0  0  0  0  0  0  0  0  0
    1.3392   -1.5132    0.0838 C   0  0  0  0  0  0  0  0  0  0  0  0
    0.2790   -0.7298    0.5066 C   0  0  0  0  0  0  0  0  0  0  0  0
   -1.1895   -0.8667    0.4596 C   0  0  0  0  0  0  0  0  0  0  0  0
   -1.8866   -1.9258    0.0137 C   0  0  0  0  0  0  0  0  0  0  0  0
   -3.3000   -1.9978    0.0921 C   0  0  0  0  0  0  0  0  0  0  0  0
   -4.1700   -2.4712    1.0587 C   0  0  0  0  0  0  0  0  0  0  0  0
   -5.4899   -2.1885    0.6258 C   0  0  0  0  0  0  0  0  0  0  0  0
   -5.3884   -1.6036   -0.6194 C   0  0  0  0  0  0  0  0  0  0  0  0
   -4.0609   -1.4950   -0.9412 N   0  0  0  0  0  0  0  0  0  0  0  0
   -6.5254   -1.1234   -1.4520 C   0  0  0  0  0  0  0  0  0  0  0  0
   -7.7674   -0.9303   -0.5598 C   0  0  0  0  0  0  0  0  0  0  0  0
   -7.9874   -2.1276    0.3850 C   0  0  0  0  0  0  0  0  0  0  0  0
   -6.7930   -2.3552    1.3341 C   0  0  0  0  0  0  0  0  0  0  0  0
   -0.7412    2.0467    1.8830 H   0  0  0  0  0  0  0  0  0  0  0  0
    1.9732    1.9349    1.8491 H   0  0  0  0  0  0  0  0  0  0  0  0
    3.8951    0.5374    1.0984 H   0  0  0  0  0  0  0  0  0  0  0  0
    3.4966   -1.6348   -0.0228 H   0  0  0  0  0  0  0  0  0  0  0  0
    1.1844   -2.4679   -0.4080 H   0  0  0  0  0  0  0  0  0  0  0  0
   -1.3708   -2.8028   -0.3656 H   0  0  0  0  0  0  0  0  0  0  0  0
   -3.8814   -2.9084    2.0054 H   0  0  0  0  0  0  0  0  0  0  0  0
   -3.6970   -1.0547   -1.7749 H   0  0  0  0  0  0  0  0  0  0  0  0
   -6.7465   -1.8706   -2.2236 H   0  0  0  0  0  0  0  0  0  0  0  0
   -6.2798   -0.1832   -1.9568 H   0  0  0  0  0  0  0  0  0  0  0  0
   -8.6526   -0.7833   -1.1892 H   0  0  0  0  0  0  0  0  0  0  0  0
   -7.6487   -0.0196    0.0420 H   0  0  0  0  0  0  0  0  0  0  0  0
   -8.1494   -3.0293   -0.2192 H   0  0  0  0  0  0  0  0  0  0  0  0
   -8.8980   -1.9735    0.9760 H   0  0  0  0  0  0  0  0  0  0  0  0
   -6.8648   -3.3498    1.7871 H   0  0  0  0  0  0  0  0  0  0  0  0
   -6.8411   -1.6199    2.1472 H   0  0  0  0  0  0  0  0  0  0  0  0
  1  2  2  0  0  0  0
  2  3  1  0  0  0  0
  2 10  1  0  0  0  0
  3  4  1  0  0  0  0
  3 21  1  0  0  0  0
  4  5  1  0  0  0  0
  4  9  2  0  0  0  0
  5  6  2  0  0  0  0
  5 22  1  0  0  0  0
  6  7  1  0  0  0  0
  6 23  1  0  0  0  0
  7  8  2  0  0  0  0
  7 24  1  0  0  0  0
  8  9  1  0  0  0  0
  8 25  1  0  0  0  0
  9 10  1  0  0  0  0
 10 11  2  0  0  0  0
 11 12  1  0  0  0  0
 11 26  1  0  0  0  0
 12 13  2  0  0  0  0
 12 16  1  0  0  0  0
 13 14  1  0  0  0  0
 13 27  1  0  0  0  0
 14 15  2  0  0  0  0
 14 20  1  0  0  0  0
 15 16  1  0  0  0  0
 15 17  1  0  0  0  0
 16 28  1  0  0  0  0
 17 18  1  0  0  0  0
 17 29  1  0  0  0  0
 17 30  1  0  0  0  0
 18 19  1  0  0  0  0
 18 31  1  0  0  0  0
 18 32  1  0  0  0  0
 19 20  1  0  0  0  0
 19 33  1  0  0  0  0
 19 34  1  0  0  0  0
 20 35  1  0  0  0  0
 20 36  1  0  0  0  0
M  END
$$$$
