CHEMBL4438418
 OpenBabel04072215383D

 51 54  0  0  0  0  0  0  0  0999 V2000
    8.2011   13.2530   -4.9804 O   0  0  0  0  0  0  0  0  0  0  0  0
    7.3607   13.4648   -5.8360 C   0  0  0  0  0  0  0  0  0  0  0  0
    6.6664   14.6208   -5.9186 O   0  0  0  0  0  0  0  0  0  0  0  0
    6.9651   12.4605   -6.8483 C   0  0  0  0  0  0  0  0  0  0  0  0
    7.0017   11.1111   -6.4824 C   0  0  0  0  0  0  0  0  0  0  0  0
    6.6681   10.1267   -7.4134 C   0  0  0  0  0  0  0  0  0  0  0  0
    6.2807   10.4678   -8.7170 C   0  0  0  0  0  0  0  0  0  0  0  0
    6.0674    9.4813   -9.7160 N   0  0  0  0  0  0  0  0  0  0  0  0
    5.4531    8.2270   -9.4601 C   0  0  0  0  0  0  0  0  0  0  0  0
    5.7022    7.1689  -10.3107 C   0  0  0  0  0  0  0  0  0  0  0  0
    5.0543    5.9892  -10.0263 C   0  0  0  0  0  0  0  0  0  0  0  0
    4.1907    5.8455   -9.0095 N   0  0  0  0  0  0  0  0  0  0  0  0
    3.9596    6.9416   -8.2757 C   0  0  0  0  0  0  0  0  0  0  0  0
    2.7940    6.8085   -6.9436 S   0  0  0  0  0  0  0  0  0  0  0  0
    2.2306    8.5425   -6.8780 C   0  0  0  0  0  0  0  0  0  0  0  0
    1.5743    8.9771   -8.1787 C   0  0  0  0  0  0  0  0  0  0  0  0
    0.9480    8.1966   -8.8981 O   0  0  0  0  0  0  0  0  0  0  0  0
    1.6243   10.4184   -8.5840 C   0  0  0  0  0  0  0  0  0  0  0  0
    2.1329   11.4383   -7.7766 C   0  0  0  0  0  0  0  0  0  0  0  0
    2.1281   12.7713   -8.2283 C   0  0  0  0  0  0  0  0  0  0  0  0
    1.6277   13.1264   -9.4954 C   0  0  0  0  0  0  0  0  0  0  0  0
    1.6301   14.5277   -9.9889 C   0  0  0  0  0  0  0  0  0  0  0  0
    2.6330   15.4443   -9.6230 C   0  0  0  0  0  0  0  0  0  0  0  0
    2.6479   16.7530  -10.1221 C   0  0  0  0  0  0  0  0  0  0  0  0
    1.6631   17.1751  -11.0094 C   0  0  0  0  0  0  0  0  0  0  0  0
    0.6548   16.2956  -11.3837 C   0  0  0  0  0  0  0  0  0  0  0  0
    0.6350   14.9944  -10.8708 C   0  0  0  0  0  0  0  0  0  0  0  0
    1.1226   12.0817  -10.2879 C   0  0  0  0  0  0  0  0  0  0  0  0
    1.1116   10.7560   -9.8403 C   0  0  0  0  0  0  0  0  0  0  0  0
    4.5711    8.1225   -8.4520 N   0  0  0  0  0  0  0  0  0  0  0  0
    6.2901   11.8181   -9.0873 C   0  0  0  0  0  0  0  0  0  0  0  0
    6.6204   12.8133   -8.1615 C   0  0  0  0  0  0  0  0  0  0  0  0
    5.9080   14.5967   -6.5297 H   0  0  0  0  0  0  0  0  0  0  0  0
    7.3050   10.8225   -5.4773 H   0  0  0  0  0  0  0  0  0  0  0  0
    6.7294    9.0824   -7.1106 H   0  0  0  0  0  0  0  0  0  0  0  0
    6.9562    9.3301  -10.1881 H   0  0  0  0  0  0  0  0  0  0  0  0
    6.3841    7.2399  -11.1469 H   0  0  0  0  0  0  0  0  0  0  0  0
    5.2141    5.0988  -10.6276 H   0  0  0  0  0  0  0  0  0  0  0  0
    3.0874    9.1671   -6.6192 H   0  0  0  0  0  0  0  0  0  0  0  0
    1.4851    8.6318   -6.0815 H   0  0  0  0  0  0  0  0  0  0  0  0
    2.5310   11.2416   -6.7861 H   0  0  0  0  0  0  0  0  0  0  0  0
    2.5111   13.5365   -7.5564 H   0  0  0  0  0  0  0  0  0  0  0  0
    3.4356   15.1481   -8.9536 H   0  0  0  0  0  0  0  0  0  0  0  0
    3.4352   17.4407   -9.8237 H   0  0  0  0  0  0  0  0  0  0  0  0
    1.6800   18.1860  -11.4077 H   0  0  0  0  0  0  0  0  0  0  0  0
   -0.1204   16.6162  -12.0754 H   0  0  0  0  0  0  0  0  0  0  0  0
   -0.1845   14.3463  -11.1744 H   0  0  0  0  0  0  0  0  0  0  0  0
    0.7331   12.2773  -11.2848 H   0  0  0  0  0  0  0  0  0  0  0  0
    0.6979    9.9867  -10.4909 H   0  0  0  0  0  0  0  0  0  0  0  0
    6.0361   12.0978  -10.1070 H   0  0  0  0  0  0  0  0  0  0  0  0
    6.6452   13.8488   -8.4889 H   0  0  0  0  0  0  0  0  0  0  0  0
  1  2  2  0  0  0  0
  2  3  1  0  0  0  0
  2  4  1  0  0  0  0
  3 33  1  0  0  0  0
  4  5  1  0  0  0  0
  4 32  2  0  0  0  0
  5  6  2  0  0  0  0
  5 34  1  0  0  0  0
  6  7  1  0  0  0  0
  6 35  1  0  0  0  0
  7  8  1  0  0  0  0
  7 31  2  0  0  0  0
  8  9  1  0  0  0  0
  8 36  1  0  0  0  0
  9 10  1  0  0  0  0
  9 30  2  0  0  0  0
 10 11  2  0  0  0  0
 10 37  1  0  0  0  0
 11 12  1  0  0  0  0
 11 38  1  0  0  0  0
 12 13  2  0  0  0  0
 13 14  1  0  0  0  0
 13 30  1  0  0  0  0
 14 15  1  0  0  0  0
 15 16  1  0  0  0  0
 15 39  1  0  0  0  0
 15 40  1  0  0  0  0
 16 17  2  0  0  0  0
 16 18  1  0  0  0  0
 18 19  1  0  0  0  0
 18 29  2  0  0  0  0
 19 20  2  0  0  0  0
 19 41  1  0  0  0  0
 20 21  1  0  0  0  0
 20 42  1  0  0  0  0
 21 22  1  0  0  0  0
 21 28  2  0  0  0  0
 22 23  1  0  0  0  0
 22 27  2  0  0  0  0
 23 24  2  0  0  0  0
 23 43  1  0  0  0  0
 24 25  1  0  0  0  0
 24 44  1  0  0  0  0
 25 26  2  0  0  0  0
 25 45  1  0  0  0  0
 26 27  1  0  0  0  0
 26 46  1  0  0  0  0
 27 47  1  0  0  0  0
 28 29  1  0  0  0  0
 28 48  1  0  0  0  0
 29 49  1  0  0  0  0
 31 32  1  0  0  0  0
 31 50  1  0  0  0  0
 32 51  1  0  0  0  0
M  END
$$$$
