CHEMBL2071197
 OpenBabel04072215363D

 47 50  0  0  1  0  0  0  0  0999 V2000
    4.8529    3.7399    6.3018 C   0  0  0  0  0  0  0  0  0  0  0  0
    5.0244    2.5096    5.6135 O   0  0  0  0  0  0  0  0  0  0  0  0
    3.8927    1.7748    5.4115 C   0  0  0  0  0  0  0  0  0  0  0  0
    2.9340    1.6294    6.3788 C   0  0  0  0  0  0  0  0  0  0  0  0
    1.8113    0.9352    6.1948 N   0  0  0  0  0  0  0  0  0  0  0  0
    1.6535    0.3116    5.0198 C   0  0  0  0  0  0  0  0  0  0  0  0
    0.4318   -0.3363    4.8152 N   0  0  0  0  0  0  0  0  0  0  0  0
   -0.7601    0.1215    5.2583 C   0  0  0  0  0  0  0  0  0  0  0  0
   -1.1038    1.4531    5.5918 C   0  0  0  0  0  0  0  0  0  0  0  0
   -2.3759    1.5702    5.9784 N   0  0  0  0  0  0  0  0  0  0  0  0
   -2.8377    0.3092    5.9007 N   0  0  0  0  0  0  0  0  0  0  0  0
   -4.2056    0.0358    6.2655 C   0  0  0  0  0  0  0  0  0  0  0  0
   -1.9113   -0.5964    5.4561 C   0  0  0  0  0  0  0  0  0  0  0  0
    2.5853    0.2866    4.0483 N   0  0  0  0  0  0  0  0  0  0  0  0
    3.6910    1.0457    4.2309 C   0  0  0  0  0  0  0  0  0  0  0  0
    4.5829    1.0912    3.1462 N   0  0  0  0  0  0  0  0  0  0  0  0
    6.0076    1.1722    3.4371 C   0  0  1  0  0  0  0  0  0  0  0  0
    6.9930    0.2034    2.7326 C   0  0  1  0  0  0  0  0  0  0  0  0
    6.5094   -0.4790    1.4664 C   0  0  0  0  0  0  0  0  0  0  0  0
    7.3865   -1.3865    0.9410 N   0  0  0  0  0  0  0  0  0  0  0  0
    5.4297   -0.2843    0.9226 O   0  0  0  0  0  0  0  0  0  0  0  0
    8.1884    1.1527    2.4353 C   0  0  2  0  0  0  0  0  0  0  0  0
    8.6855    1.8062    3.7157 C   0  0  0  0  0  0  0  0  0  0  0  0
    7.7717    2.7165    4.0928 C   0  0  0  0  0  0  0  0  0  0  0  0
    6.6160    2.5812    3.1249 C   0  0  1  0  0  0  0  0  0  0  0  0
    7.4431    2.3605    1.8555 C   0  0  0  0  0  0  0  0  0  0  0  0
    5.8068    4.2739    6.2576 H   0  0  0  0  0  0  0  0  0  0  0  0
    4.6202    3.5786    7.3576 H   0  0  0  0  0  0  0  0  0  0  0  0
    4.0937    4.3582    5.8141 H   0  0  0  0  0  0  0  0  0  0  0  0
    3.0317    2.0625    7.3669 H   0  0  0  0  0  0  0  0  0  0  0  0
    0.5485   -1.1953    4.3003 H   0  0  0  0  0  0  0  0  0  0  0  0
   -0.4830    2.3385    5.5499 H   0  0  0  0  0  0  0  0  0  0  0  0
   -4.6974    0.9668    6.5622 H   0  0  0  0  0  0  0  0  0  0  0  0
   -4.2048   -0.6663    7.1020 H   0  0  0  0  0  0  0  0  0  0  0  0
   -4.7123   -0.3911    5.3975 H   0  0  0  0  0  0  0  0  0  0  0  0
   -2.1453   -1.6454    5.3564 H   0  0  0  0  0  0  0  0  0  0  0  0
    4.3026    0.4466    2.4038 H   0  0  0  0  0  0  0  0  0  0  0  0
    6.1540    0.9213    4.4955 H   0  0  0  0  0  0  0  0  0  0  0  0
    7.2848   -0.5894    3.4348 H   0  0  0  0  0  0  0  0  0  0  0  0
    8.1266   -1.7921    1.4973 H   0  0  0  0  0  0  0  0  0  0  0  0
    7.0518   -1.9200    0.1481 H   0  0  0  0  0  0  0  0  0  0  0  0
    8.9830    0.7643    1.7972 H   0  0  0  0  0  0  0  0  0  0  0  0
    9.5848    1.5571    4.2617 H   0  0  0  0  0  0  0  0  0  0  0  0
    7.7826    3.3329    4.9803 H   0  0  0  0  0  0  0  0  0  0  0  0
    5.9365    3.4343    3.0869 H   0  0  0  0  0  0  0  0  0  0  0  0
    8.1118    3.2000    1.6156 H   0  0  0  0  0  0  0  0  0  0  0  0
    6.8444    2.1334    0.9690 H   0  0  0  0  0  0  0  0  0  0  0  0
  1  2  1  0  0  0  0
  1 27  1  0  0  0  0
  1 28  1  0  0  0  0
  1 29  1  0  0  0  0
  2  3  1  0  0  0  0
  3  4  1  0  0  0  0
  3 15  2  0  0  0  0
  4  5  2  0  0  0  0
  4 30  1  0  0  0  0
  5  6  1  0  0  0  0
  6  7  1  0  0  0  0
  6 14  2  0  0  0  0
  7  8  1  0  0  0  0
  7 31  1  0  0  0  0
  8  9  1  0  0  0  0
  8 13  2  0  0  0  0
  9 10  2  0  0  0  0
  9 32  1  0  0  0  0
 10 11  1  0  0  0  0
 11 12  1  0  0  0  0
 11 13  1  0  0  0  0
 12 33  1  0  0  0  0
 12 34  1  0  0  0  0
 12 35  1  0  0  0  0
 13 36  1  0  0  0  0
 14 15  1  0  0  0  0
 15 16  1  0  0  0  0
 16 37  1  0  0  0  0
 17 18  1  0  0  0  0
 17 25  1  0  0  0  0
 17 16  1  0  0  0  0
 17 38  1  1  0  0  0
 18 19  1  0  0  0  0
 18 22  1  0  0  0  0
 18 39  1  1  0  0  0
 19 20  1  0  0  0  0
 19 21  2  0  0  0  0
 20 40  1  0  0  0  0
 20 41  1  0  0  0  0
 22 23  1  0  0  0  0
 22 26  1  0  0  0  0
 22 42  1  6  0  0  0
 23 24  2  0  0  0  0
 23 43  1  0  0  0  0
 24 25  1  0  0  0  0
 24 44  1  0  0  0  0
 25 26  1  0  0  0  0
 25 45  1  6  0  0  0
 26 46  1  0  0  0  0
 26 47  1  0  0  0  0
M  END
$$$$
