CHEMBL250853
 OpenBabel04072215363D

 36 39  0  0  0  0  0  0  0  0999 V2000
   -2.2141   -0.3443   -1.3316 C   0  0  0  0  0  0  0  0  0  0  0  0
   -0.9709   -0.2165   -0.5310 C   0  0  0  0  0  0  0  0  0  0  0  0
   -0.4469    1.0588   -0.3431 N   0  0  0  0  0  0  0  0  0  0  0  0
    0.6759    1.0343    0.3511 N   0  0  0  0  0  0  0  0  0  0  0  0
    1.1391   -0.5083    0.7673 S   0  0  0  0  0  0  0  0  0  0  0  0
   -0.2488   -1.2388    0.0744 C   0  0  0  0  0  0  0  0  0  0  0  0
   -0.4691   -2.6569    0.0623 C   0  0  0  0  0  0  0  0  0  0  0  0
   -1.0990   -3.2397   -0.9335 N   0  0  0  0  0  0  0  0  0  0  0  0
   -1.0598   -4.5933   -0.6852 N   0  0  0  0  0  0  0  0  0  0  0  0
   -0.3919   -4.9631    0.4717 C   0  0  0  0  0  0  0  0  0  0  0  0
   -0.1779   -6.0871    0.8774 O   0  0  0  0  0  0  0  0  0  0  0  0
   -0.0307   -3.6598    1.0674 C   0  0  0  0  0  0  0  0  0  0  0  0
    0.4752   -3.4398    2.2844 C   0  0  0  0  0  0  0  0  0  0  0  0
    0.8958   -4.4186    3.2219 C   0  0  0  0  0  0  0  0  0  0  0  0
    2.1927   -4.8714    3.2764 C   0  0  0  0  0  0  0  0  0  0  0  0
    2.2938   -5.6938    4.3638 N   0  0  0  0  0  0  0  0  0  0  0  0
    3.5158   -6.3414    4.7860 C   0  0  0  0  0  0  0  0  0  0  0  0
    1.0817   -5.7742    5.0201 C   0  0  0  0  0  0  0  0  0  0  0  0
    0.7257   -6.4538    6.1968 C   0  0  0  0  0  0  0  0  0  0  0  0
   -0.5924   -6.3570    6.6449 C   0  0  0  0  0  0  0  0  0  0  0  0
   -1.5375   -5.6246    5.9336 C   0  0  0  0  0  0  0  0  0  0  0  0
   -1.1766   -4.9490    4.7601 C   0  0  0  0  0  0  0  0  0  0  0  0
   -2.5324   -3.9908    3.8416 Br  0  0  0  0  0  0  0  0  0  0  0  0
    0.1589   -5.0023    4.2948 C   0  0  0  0  0  0  0  0  0  0  0  0
   -2.5801    0.6391   -1.6432 H   0  0  0  0  0  0  0  0  0  0  0  0
   -3.0011   -0.8296   -0.7468 H   0  0  0  0  0  0  0  0  0  0  0  0
   -2.0290   -0.9333   -2.2350 H   0  0  0  0  0  0  0  0  0  0  0  0
   -1.4574   -5.2581   -1.3374 H   0  0  0  0  0  0  0  0  0  0  0  0
    0.5758   -2.4252    2.6537 H   0  0  0  0  0  0  0  0  0  0  0  0
    3.0490   -4.6613    2.6476 H   0  0  0  0  0  0  0  0  0  0  0  0
    4.3147   -6.1139    4.0748 H   0  0  0  0  0  0  0  0  0  0  0  0
    3.3452   -7.4197    4.8171 H   0  0  0  0  0  0  0  0  0  0  0  0
    3.7835   -5.9587    5.7741 H   0  0  0  0  0  0  0  0  0  0  0  0
    1.4532   -7.0355    6.7553 H   0  0  0  0  0  0  0  0  0  0  0  0
   -0.8861   -6.8663    7.5605 H   0  0  0  0  0  0  0  0  0  0  0  0
   -2.5594   -5.5802    6.2992 H   0  0  0  0  0  0  0  0  0  0  0  0
  1  2  1  0  0  0  0
  1 25  1  0  0  0  0
  1 26  1  0  0  0  0
  1 27  1  0  0  0  0
  2  3  1  0  0  0  0
  2  6  2  0  0  0  0
  3  4  2  0  0  0  0
  4  5  1  0  0  0  0
  5  6  1  0  0  0  0
  6  7  1  0  0  0  0
  7  8  2  0  0  0  0
  7 12  1  0  0  0  0
  8  9  1  0  0  0  0
  9 10  1  0  0  0  0
  9 28  1  0  0  0  0
 10 11  2  0  0  0  0
 10 12  1  0  0  0  0
 12 13  2  0  0  0  0
 13 14  1  0  0  0  0
 13 29  1  0  0  0  0
 14 15  2  0  0  0  0
 14 24  1  0  0  0  0
 15 16  1  0  0  0  0
 15 30  1  0  0  0  0
 16 17  1  0  0  0  0
 16 18  1  0  0  0  0
 17 31  1  0  0  0  0
 17 32  1  0  0  0  0
 17 33  1  0  0  0  0
 18 19  1  0  0  0  0
 18 24  2  0  0  0  0
 19 20  2  0  0  0  0
 19 34  1  0  0  0  0
 20 21  1  0  0  0  0
 20 35  1  0  0  0  0
 21 22  2  0  0  0  0
 21 36  1  0  0  0  0
 22 23  1  0  0  0  0
 22 24  1  0  0  0  0
M  END
$$$$
