CHEMBL3690393
 OpenBabel04072215373D

 48 52  0  0  0  0  0  0  0  0999 V2000
    1.1590    0.4873    0.6155 O   0  0  0  0  0  0  0  0  0  0  0  0
    2.2289    0.0764    0.1737 C   0  0  0  0  0  0  0  0  0  0  0  0
    2.7330    0.2997   -1.0948 N   0  0  0  0  0  0  0  0  0  0  0  0
    2.1176    1.0409   -2.1296 C   0  0  0  0  0  0  0  0  0  0  0  0
    1.0263    1.8838   -1.9218 C   0  0  0  0  0  0  0  0  0  0  0  0
    0.4043    2.5083   -2.9991 C   0  0  0  0  0  0  0  0  0  0  0  0
    0.8778    2.3008   -4.2920 C   0  0  0  0  0  0  0  0  0  0  0  0
    2.0405    1.5547   -4.5244 C   0  0  0  0  0  0  0  0  0  0  0  0
    2.6247    1.4386   -5.8689 C   0  0  0  0  0  0  0  0  0  0  0  0
    3.2832    0.3796   -6.4726 C   0  0  0  0  0  0  0  0  0  0  0  0
    3.6907    0.6775   -7.7463 N   0  0  0  0  0  0  0  0  0  0  0  0
    3.3041    1.9172   -7.9513 C   0  0  0  0  0  0  0  0  0  0  0  0
    3.4678    2.7642   -9.0861 C   0  0  0  0  0  0  0  0  0  0  0  0
    2.9990    4.0337   -9.0665 C   0  0  0  0  0  0  0  0  0  0  0  0
    3.2343    4.8869  -10.2384 C   0  0  0  0  0  0  0  0  0  0  0  0
    2.3071    4.9197  -11.2876 C   0  0  0  0  0  0  0  0  0  0  0  0
    2.5321    5.7461  -12.3886 C   0  0  0  0  0  0  0  0  0  0  0  0
    3.6748    6.5383  -12.4304 C   0  0  0  0  0  0  0  0  0  0  0  0
    3.8914    7.3260  -13.4911 F   0  0  0  0  0  0  0  0  0  0  0  0
    4.5952    6.5281  -11.3882 C   0  0  0  0  0  0  0  0  0  0  0  0
    4.3740    5.7026  -10.2864 C   0  0  0  0  0  0  0  0  0  0  0  0
    2.3228    4.5486   -7.8816 C   0  0  0  0  0  0  0  0  0  0  0  0
    2.1969    3.7663   -6.8008 C   0  0  0  0  0  0  0  0  0  0  0  0
    2.6622    2.4476   -6.8329 N   0  0  0  0  0  0  0  0  0  0  0  0
    2.6402    0.9107   -3.4282 C   0  0  0  0  0  0  0  0  0  0  0  0
    3.0995   -0.6875    0.9365 N   0  0  0  0  0  0  0  0  0  0  0  0
    2.7500   -1.1523    2.2450 C   0  0  0  0  0  0  0  0  0  0  0  0
    3.7055   -1.9593    3.0820 C   0  0  0  0  0  0  0  0  0  0  0  0
    2.5102   -2.6218    2.4641 C   0  0  0  0  0  0  0  0  0  0  0  0
    3.5458   -0.2329   -1.3527 H   0  0  0  0  0  0  0  0  0  0  0  0
    0.6305    2.0722   -0.9285 H   0  0  0  0  0  0  0  0  0  0  0  0
   -0.4573    3.1492   -2.8310 H   0  0  0  0  0  0  0  0  0  0  0  0
    0.3175    2.7423   -5.1113 H   0  0  0  0  0  0  0  0  0  0  0  0
    3.4811   -0.5948   -6.0499 H   0  0  0  0  0  0  0  0  0  0  0  0
    3.9932    2.3582   -9.9445 H   0  0  0  0  0  0  0  0  0  0  0  0
    1.4098    4.3059  -11.2495 H   0  0  0  0  0  0  0  0  0  0  0  0
    1.8258    5.7771  -13.2117 H   0  0  0  0  0  0  0  0  0  0  0  0
    5.4758    7.1600  -11.4397 H   0  0  0  0  0  0  0  0  0  0  0  0
    5.0900    5.6973   -9.4670 H   0  0  0  0  0  0  0  0  0  0  0  0
    1.9465    5.5669   -7.8867 H   0  0  0  0  0  0  0  0  0  0  0  0
    1.7405    4.1385   -5.8969 H   0  0  0  0  0  0  0  0  0  0  0  0
    3.5189    0.2920   -3.5930 H   0  0  0  0  0  0  0  0  0  0  0  0
    3.8871   -1.1185    0.4803 H   0  0  0  0  0  0  0  0  0  0  0  0
    2.1144   -0.4581    2.7938 H   0  0  0  0  0  0  0  0  0  0  0  0
    3.6905   -1.8074    4.1565 H   0  0  0  0  0  0  0  0  0  0  0  0
    4.6831   -2.2039    2.6867 H   0  0  0  0  0  0  0  0  0  0  0  0
    1.6846   -2.9021    3.1072 H   0  0  0  0  0  0  0  0  0  0  0  0
    2.6779   -3.3016    1.6373 H   0  0  0  0  0  0  0  0  0  0  0  0
  1  2  2  0  0  0  0
  2  3  1  0  0  0  0
  2 26  1  0  0  0  0
  3  4  1  0  0  0  0
  3 30  1  0  0  0  0
  4  5  1  0  0  0  0
  4 25  2  0  0  0  0
  5  6  2  0  0  0  0
  5 31  1  0  0  0  0
  6  7  1  0  0  0  0
  6 32  1  0  0  0  0
  7  8  2  0  0  0  0
  7 33  1  0  0  0  0
  8  9  1  0  0  0  0
  8 25  1  0  0  0  0
  9 10  2  0  0  0  0
  9 24  1  0  0  0  0
 10 11  1  0  0  0  0
 10 34  1  0  0  0  0
 11 12  2  0  0  0  0
 12 13  1  0  0  0  0
 12 24  1  0  0  0  0
 13 14  2  0  0  0  0
 13 35  1  0  0  0  0
 14 15  1  0  0  0  0
 14 22  1  0  0  0  0
 15 16  1  0  0  0  0
 15 21  2  0  0  0  0
 16 17  2  0  0  0  0
 16 36  1  0  0  0  0
 17 18  1  0  0  0  0
 17 37  1  0  0  0  0
 18 19  1  0  0  0  0
 18 20  2  0  0  0  0
 20 21  1  0  0  0  0
 20 38  1  0  0  0  0
 21 39  1  0  0  0  0
 22 23  2  0  0  0  0
 22 40  1  0  0  0  0
 23 24  1  0  0  0  0
 23 41  1  0  0  0  0
 25 42  1  0  0  0  0
 26 27  1  0  0  0  0
 26 43  1  0  0  0  0
 27 28  1  0  0  0  0
 27 29  1  0  0  0  0
 27 44  1  0  0  0  0
 28 29  1  0  0  0  0
 28 45  1  0  0  0  0
 28 46  1  0  0  0  0
 29 47  1  0  0  0  0
 29 48  1  0  0  0  0
M  END
$$$$
