CHEMBL1978973
 OpenBabel04072215363D

 39 41  0  0  0  0  0  0  0  0999 V2000
    2.4359   -0.1414    0.7997 C   0  0  0  0  0  0  0  0  0  0  0  0
    0.9670   -0.1158    0.5044 C   0  0  0  0  0  0  0  0  0  0  0  0
    0.1170   -1.1451    0.9100 C   0  0  0  0  0  0  0  0  0  0  0  0
   -1.2598   -1.0704    0.6534 C   0  0  0  0  0  0  0  0  0  0  0  0
   -1.8397    0.0392    0.0059 C   0  0  0  0  0  0  0  0  0  0  0  0
   -3.3157    0.1230   -0.1742 C   0  0  0  0  0  0  0  0  0  0  0  0
   -3.9899   -0.4191    0.8734 N   0  0  0  0  0  0  0  0  0  0  0  0
   -5.3221   -0.3488    0.9514 C   0  0  0  0  0  0  0  0  0  0  0  0
   -5.9372   -0.9062    2.0664 C   0  0  0  0  0  0  0  0  0  0  0  0
   -7.3133   -0.8098    2.2785 C   0  0  0  0  0  0  0  0  0  0  0  0
   -8.0898   -0.1316    1.3545 C   0  0  0  0  0  0  0  0  0  0  0  0
   -9.9391    0.0974    1.6621 Br  0  0  0  0  0  0  0  0  0  0  0  0
   -7.5033    0.3901    0.2034 C   0  0  0  0  0  0  0  0  0  0  0  0
   -6.1052    0.2649   -0.0326 C   0  0  0  0  0  0  0  0  0  0  0  0
   -5.4137    0.7179   -1.1870 C   0  0  0  0  0  0  0  0  0  0  0  0
   -6.2410    1.1367   -2.3468 C   0  0  0  0  0  0  0  0  0  0  0  0
   -7.2052    0.5441   -2.7909 O   0  0  0  0  0  0  0  0  0  0  0  0
   -5.8358    2.2954   -2.8831 O   0  0  0  0  0  0  0  0  0  0  0  0
   -3.9987    0.6579   -1.2811 C   0  0  0  0  0  0  0  0  0  0  0  0
   -3.2681    1.1279   -2.5238 C   0  0  0  0  0  0  0  0  0  0  0  0
   -2.9399    2.6139   -2.5202 C   0  0  0  0  0  0  0  0  0  0  0  0
   -3.2866    3.4208   -1.6671 O   0  0  0  0  0  0  0  0  0  0  0  0
   -2.1427    2.9710   -3.5572 O   0  0  0  0  0  0  0  0  0  0  0  0
   -0.9616    1.0724   -0.3567 C   0  0  0  0  0  0  0  0  0  0  0  0
    0.4191    0.9834   -0.1536 C   0  0  0  0  0  0  0  0  0  0  0  0
    2.7097   -1.0047    1.4136 H   0  0  0  0  0  0  0  0  0  0  0  0
    2.7178    0.7618    1.3524 H   0  0  0  0  0  0  0  0  0  0  0  0
    3.0093   -0.1832   -0.1314 H   0  0  0  0  0  0  0  0  0  0  0  0
    0.5077   -2.0030    1.4525 H   0  0  0  0  0  0  0  0  0  0  0  0
   -1.8957   -1.8819    1.0071 H   0  0  0  0  0  0  0  0  0  0  0  0
   -5.3222   -1.4212    2.8022 H   0  0  0  0  0  0  0  0  0  0  0  0
   -7.7536   -1.2477    3.1702 H   0  0  0  0  0  0  0  0  0  0  0  0
   -8.1361    0.9163   -0.5084 H   0  0  0  0  0  0  0  0  0  0  0  0
   -6.5069    2.5035   -3.5688 H   0  0  0  0  0  0  0  0  0  0  0  0
   -3.8514    0.9010   -3.4226 H   0  0  0  0  0  0  0  0  0  0  0  0
   -2.3376    0.5616   -2.6421 H   0  0  0  0  0  0  0  0  0  0  0  0
   -1.8962    2.2367   -4.1515 H   0  0  0  0  0  0  0  0  0  0  0  0
   -1.3295    2.0090   -0.7558 H   0  0  0  0  0  0  0  0  0  0  0  0
    1.0552    1.8068   -0.4721 H   0  0  0  0  0  0  0  0  0  0  0  0
  1  2  1  0  0  0  0
  1 26  1  0  0  0  0
  1 27  1  0  0  0  0
  1 28  1  0  0  0  0
  2  3  1  0  0  0  0
  2 25  2  0  0  0  0
  3  4  2  0  0  0  0
  3 29  1  0  0  0  0
  4  5  1  0  0  0  0
  4 30  1  0  0  0  0
  5  6  1  0  0  0  0
  5 24  2  0  0  0  0
  6  7  1  0  0  0  0
  6 19  2  0  0  0  0
  7  8  2  0  0  0  0
  8  9  1  0  0  0  0
  8 14  1  0  0  0  0
  9 10  2  0  0  0  0
  9 31  1  0  0  0  0
 10 11  1  0  0  0  0
 10 32  1  0  0  0  0
 11 12  1  0  0  0  0
 11 13  2  0  0  0  0
 13 14  1  0  0  0  0
 13 33  1  0  0  0  0
 14 15  2  0  0  0  0
 15 16  1  0  0  0  0
 15 19  1  0  0  0  0
 16 17  2  0  0  0  0
 16 18  1  0  0  0  0
 18 34  1  0  0  0  0
 19 20  1  0  0  0  0
 20 21  1  0  0  0  0
 20 35  1  0  0  0  0
 20 36  1  0  0  0  0
 21 22  2  0  0  0  0
 21 23  1  0  0  0  0
 23 37  1  0  0  0  0
 24 25  1  0  0  0  0
 24 38  1  0  0  0  0
 25 39  1  0  0  0  0
M  END
$$$$
