CHEMBL199737
 OpenBabel04072215363D

 26 27  0  0  0  0  0  0  0  0999 V2000
    0.9719   -0.3636    0.1337 C   0  0  0  0  0  0  0  0  0  0  0  0
    2.4621   -0.2800   -0.0576 C   0  0  0  0  0  0  0  0  0  0  0  0
    3.0126   -0.7067   -1.0682 O   0  0  0  0  0  0  0  0  0  0  0  0
    3.1059    0.2322    1.0590 N   0  0  0  0  0  0  0  0  0  0  0  0
    4.4915    0.3280    1.0981 C   0  0  0  0  0  0  0  0  0  0  0  0
    5.3146    0.8938    0.1118 C   0  0  0  0  0  0  0  0  0  0  0  0
    4.9219    1.6670   -1.0542 C   0  0  0  0  0  0  0  0  0  0  0  0
    5.7931    1.6743   -2.1112 N   0  0  0  0  0  0  0  0  0  0  0  0
    3.8819    2.3210   -1.1437 O   0  0  0  0  0  0  0  0  0  0  0  0
    7.0191    0.6948    0.4997 S   0  0  0  0  0  0  0  0  0  0  0  0
    6.6123   -0.0080    1.9423 C   0  0  0  0  0  0  0  0  0  0  0  0
    7.2145   -0.5523    3.0186 N   0  0  0  0  0  0  0  0  0  0  0  0
    6.3087   -1.0223    3.9236 N   0  0  0  0  0  0  0  0  0  0  0  0
    5.1075   -0.7658    3.3596 C   0  0  0  0  0  0  0  0  0  0  0  0
    3.8528   -1.1800    4.0257 C   0  0  0  0  0  0  0  0  0  0  0  0
    5.2981   -0.1191    2.1432 C   0  0  0  0  0  0  0  0  0  0  0  0
    0.5078   -0.7521   -0.7770 H   0  0  0  0  0  0  0  0  0  0  0  0
    0.5675    0.6307    0.3397 H   0  0  0  0  0  0  0  0  0  0  0  0
    0.7408   -1.0387    0.9631 H   0  0  0  0  0  0  0  0  0  0  0  0
    2.6288    0.1157    1.9412 H   0  0  0  0  0  0  0  0  0  0  0  0
    6.5560    1.0145   -2.1551 H   0  0  0  0  0  0  0  0  0  0  0  0
    5.4639    2.1017   -2.9644 H   0  0  0  0  0  0  0  0  0  0  0  0
    8.2039   -0.6622    3.2138 H   0  0  0  0  0  0  0  0  0  0  0  0
    4.0462   -1.7024    4.9680 H   0  0  0  0  0  0  0  0  0  0  0  0
    3.2832   -1.8546    3.3782 H   0  0  0  0  0  0  0  0  0  0  0  0
    3.2299   -0.3068    4.2453 H   0  0  0  0  0  0  0  0  0  0  0  0
  1  2  1  0  0  0  0
  1 17  1  0  0  0  0
  1 18  1  0  0  0  0
  1 19  1  0  0  0  0
  2  3  2  0  0  0  0
  2  4  1  0  0  0  0
  4  5  1  0  0  0  0
  4 20  1  0  0  0  0
  5  6  2  0  0  0  0
  5 16  1  0  0  0  0
  6  7  1  0  0  0  0
  6 10  1  0  0  0  0
  7  8  1  0  0  0  0
  7  9  2  0  0  0  0
  8 21  1  0  0  0  0
  8 22  1  0  0  0  0
 10 11  1  0  0  0  0
 11 12  1  0  0  0  0
 11 16  2  0  0  0  0
 12 13  1  0  0  0  0
 12 23  1  0  0  0  0
 13 14  2  0  0  0  0
 14 15  1  0  0  0  0
 14 16  1  0  0  0  0
 15 24  1  0  0  0  0
 15 25  1  0  0  0  0
 15 26  1  0  0  0  0
M  END
$$$$
