CHEMBL3690429
 OpenBabel04072215373D

 61 65  0  0  0  0  0  0  0  0999 V2000
    5.3832   -3.1185    0.5645 O   0  0  0  0  0  0  0  0  0  0  0  0
    6.2616   -3.1469   -0.2882 C   0  0  0  0  0  0  0  0  0  0  0  0
    6.8864   -4.3263   -0.6410 N   0  0  0  0  0  0  0  0  0  0  0  0
    6.6054   -5.5270    0.1540 C   0  0  0  0  0  0  0  0  0  0  0  0
    7.3902   -5.6257    1.4691 C   0  0  0  0  0  0  0  0  0  0  0  0
    8.2860   -4.6180    1.5967 F   0  0  0  0  0  0  0  0  0  0  0  0
    6.5878   -5.6162    2.5514 F   0  0  0  0  0  0  0  0  0  0  0  0
    8.1005   -6.7810    1.4970 F   0  0  0  0  0  0  0  0  0  0  0  0
    6.7418   -2.0871   -1.0208 N   0  0  0  0  0  0  0  0  0  0  0  0
    6.3085   -0.7468   -0.9715 C   0  0  0  0  0  0  0  0  0  0  0  0
    5.2417   -0.2973   -0.1962 C   0  0  0  0  0  0  0  0  0  0  0  0
    4.8448    1.0394   -0.2527 C   0  0  0  0  0  0  0  0  0  0  0  0
    5.5091    1.9369   -1.0901 C   0  0  0  0  0  0  0  0  0  0  0  0
    6.5929    1.5156   -1.8682 C   0  0  0  0  0  0  0  0  0  0  0  0
    7.3175    2.4808   -2.7024 C   0  0  0  0  0  0  0  0  0  0  0  0
    7.5879    3.8200   -2.4595 C   0  0  0  0  0  0  0  0  0  0  0  0
    8.3740    4.3760   -3.4306 N   0  0  0  0  0  0  0  0  0  0  0  0
    8.5781    3.4106   -4.2972 C   0  0  0  0  0  0  0  0  0  0  0  0
    9.3349    3.3987   -5.5030 C   0  0  0  0  0  0  0  0  0  0  0  0
    9.3847    2.2848   -6.2677 C   0  0  0  0  0  0  0  0  0  0  0  0
   10.1676    2.3366   -7.5055 C   0  0  0  0  0  0  0  0  0  0  0  0
   11.5225    2.0660   -7.5160 C   0  0  0  0  0  0  0  0  0  0  0  0
   12.1871    2.1202   -8.7346 C   0  0  0  0  0  0  0  0  0  0  0  0
   11.4817    2.4090   -9.8977 C   0  0  0  0  0  0  0  0  0  0  0  0
   12.1781    2.3617  -11.0964 N   0  0  0  0  0  0  0  0  0  0  0  0
   11.4683    2.2596  -12.3686 C   0  0  0  0  0  0  0  0  0  0  0  0
   12.2426    1.2166  -13.1834 C   0  0  0  0  0  0  0  0  0  0  0  0
   11.8599    1.2281  -14.6477 C   0  0  0  0  0  0  0  0  0  0  0  0
   11.9791    2.5440  -15.1790 O   0  0  0  0  0  0  0  0  0  0  0  0
   11.0663    3.4458  -14.5566 C   0  0  0  0  0  0  0  0  0  0  0  0
   11.3989    3.6135  -13.0796 C   0  0  0  0  0  0  0  0  0  0  0  0
   10.1555    2.6370   -9.8425 N   0  0  0  0  0  0  0  0  0  0  0  0
    9.4915    2.6150   -8.6389 N   0  0  0  0  0  0  0  0  0  0  0  0
    8.6475    1.0866   -5.8723 C   0  0  0  0  0  0  0  0  0  0  0  0
    7.9231    1.0981   -4.7429 C   0  0  0  0  0  0  0  0  0  0  0  0
    7.9128    2.2396   -3.9356 N   0  0  0  0  0  0  0  0  0  0  0  0
    6.9927    0.1728   -1.7786 C   0  0  0  0  0  0  0  0  0  0  0  0
    7.8326   -4.2363   -0.9816 H   0  0  0  0  0  0  0  0  0  0  0  0
    6.8466   -6.3808   -0.4870 H   0  0  0  0  0  0  0  0  0  0  0  0
    5.5304   -5.5710    0.3638 H   0  0  0  0  0  0  0  0  0  0  0  0
    7.4484   -2.3072   -1.7049 H   0  0  0  0  0  0  0  0  0  0  0  0
    4.6878   -0.9621    0.4597 H   0  0  0  0  0  0  0  0  0  0  0  0
    4.0118    1.3792    0.3586 H   0  0  0  0  0  0  0  0  0  0  0  0
    5.1684    2.9693   -1.1194 H   0  0  0  0  0  0  0  0  0  0  0  0
    7.2774    4.4061   -1.6032 H   0  0  0  0  0  0  0  0  0  0  0  0
    9.8491    4.3139   -5.7796 H   0  0  0  0  0  0  0  0  0  0  0  0
   12.0548    1.8005   -6.6093 H   0  0  0  0  0  0  0  0  0  0  0  0
   13.2460    1.8869   -8.7843 H   0  0  0  0  0  0  0  0  0  0  0  0
   13.0021    2.9535  -11.1019 H   0  0  0  0  0  0  0  0  0  0  0  0
   10.4460    1.8801  -12.2352 H   0  0  0  0  0  0  0  0  0  0  0  0
   12.0810    0.2184  -12.7579 H   0  0  0  0  0  0  0  0  0  0  0  0
   13.3184    1.4223  -13.1014 H   0  0  0  0  0  0  0  0  0  0  0  0
   10.8416    0.8553  -14.8036 H   0  0  0  0  0  0  0  0  0  0  0  0
   12.5399    0.5767  -15.2063 H   0  0  0  0  0  0  0  0  0  0  0  0
   10.0416    3.0853  -14.7038 H   0  0  0  0  0  0  0  0  0  0  0  0
   11.1521    4.4085  -15.0709 H   0  0  0  0  0  0  0  0  0  0  0  0
   10.6503    4.2582  -12.6030 H   0  0  0  0  0  0  0  0  0  0  0  0
   12.3633    4.1292  -12.9927 H   0  0  0  0  0  0  0  0  0  0  0  0
    8.6811    0.2138   -6.5175 H   0  0  0  0  0  0  0  0  0  0  0  0
    7.3308    0.2466   -4.4409 H   0  0  0  0  0  0  0  0  0  0  0  0
    7.8722   -0.1628   -2.3196 H   0  0  0  0  0  0  0  0  0  0  0  0
  1  2  2  0  0  0  0
  2  3  1  0  0  0  0
  2  9  1  0  0  0  0
  3  4  1  0  0  0  0
  3 38  1  0  0  0  0
  4  5  1  0  0  0  0
  4 39  1  0  0  0  0
  4 40  1  0  0  0  0
  5  6  1  0  0  0  0
  5  7  1  0  0  0  0
  5  8  1  0  0  0  0
  9 10  1  0  0  0  0
  9 41  1  0  0  0  0
 10 11  1  0  0  0  0
 10 37  2  0  0  0  0
 11 12  2  0  0  0  0
 11 42  1  0  0  0  0
 12 13  1  0  0  0  0
 12 43  1  0  0  0  0
 13 14  2  0  0  0  0
 13 44  1  0  0  0  0
 14 15  1  0  0  0  0
 14 37  1  0  0  0  0
 15 16  2  0  0  0  0
 15 36  1  0  0  0  0
 16 17  1  0  0  0  0
 16 45  1  0  0  0  0
 17 18  2  0  0  0  0
 18 19  1  0  0  0  0
 18 36  1  0  0  0  0
 19 20  2  0  0  0  0
 19 46  1  0  0  0  0
 20 21  1  0  0  0  0
 20 34  1  0  0  0  0
 21 22  1  0  0  0  0
 21 33  2  0  0  0  0
 22 23  2  0  0  0  0
 22 47  1  0  0  0  0
 23 24  1  0  0  0  0
 23 48  1  0  0  0  0
 24 25  1  0  0  0  0
 24 32  2  0  0  0  0
 25 26  1  0  0  0  0
 25 49  1  0  0  0  0
 26 27  1  0  0  0  0
 26 31  1  0  0  0  0
 26 50  1  0  0  0  0
 27 28  1  0  0  0  0
 27 51  1  0  0  0  0
 27 52  1  0  0  0  0
 28 29  1  0  0  0  0
 28 53  1  0  0  0  0
 28 54  1  0  0  0  0
 29 30  1  0  0  0  0
 30 31  1  0  0  0  0
 30 55  1  0  0  0  0
 30 56  1  0  0  0  0
 31 57  1  0  0  0  0
 31 58  1  0  0  0  0
 32 33  1  0  0  0  0
 34 35  2  0  0  0  0
 34 59  1  0  0  0  0
 35 36  1  0  0  0  0
 35 60  1  0  0  0  0
 37 61  1  0  0  0  0
M  END
$$$$
