CHEMBL428741
 OpenBabel04072215383D

 68 71  0  0  0  0  0  0  0  0999 V2000
    0.7370    0.3870    0.0540 C   0  0  0  0  0  0  0  0  0  0  0  0
    2.1951    0.3728   -0.3477 C   0  0  0  0  0  0  0  0  0  0  0  0
    2.9211    1.3199    0.4254 O   0  0  0  0  0  0  0  0  0  0  0  0
    4.2725    1.4201    0.2202 C   0  0  0  0  0  0  0  0  0  0  0  0
    4.8975    2.3740    1.0471 C   0  0  0  0  0  0  0  0  0  0  0  0
    6.2805    2.6422    1.0213 C   0  0  0  0  0  0  0  0  0  0  0  0
    6.7991    3.5534    1.8507 N   0  0  0  0  0  0  0  0  0  0  0  0
    8.1335    3.7108    1.8139 C   0  0  0  0  0  0  0  0  0  0  0  0
    8.9950    3.0596    1.0201 N   0  0  0  0  0  0  0  0  0  0  0  0
    8.4686    2.1856    0.1536 C   0  0  0  0  0  0  0  0  0  0  0  0
    9.4028    1.5061   -0.6611 N   0  0  0  0  0  0  0  0  0  0  0  0
    9.2303    1.1759   -2.0004 C   0  0  0  0  0  0  0  0  0  0  0  0
    9.2191    2.0225   -3.0478 C   0  0  0  0  0  0  0  0  0  0  0  0
    8.8098    1.5988   -4.4096 C   0  0  0  0  0  0  0  0  0  0  0  0
    8.7959    2.4280   -5.3166 O   0  0  0  0  0  0  0  0  0  0  0  0
    8.3706    0.1784   -4.6030 C   0  0  0  0  0  0  0  0  0  0  0  0
    7.8464   -0.3141   -5.7886 O   0  0  0  0  0  0  0  0  0  0  0  0
    8.3195    0.2885   -6.9882 C   0  0  0  0  0  0  0  0  0  0  0  0
    8.2401   -0.7538   -8.0769 C   0  0  0  0  0  0  0  0  0  0  0  0
    9.3323   -1.6023   -8.3250 C   0  0  0  0  0  0  0  0  0  0  0  0
    9.2761   -2.5582   -9.3423 C   0  0  0  0  0  0  0  0  0  0  0  0
    8.1216   -2.6852  -10.1113 C   0  0  0  0  0  0  0  0  0  0  0  0
    7.0292   -1.8669   -9.8469 C   0  0  0  0  0  0  0  0  0  0  0  0
    5.9155   -1.9982  -10.5791 F   0  0  0  0  0  0  0  0  0  0  0  0
    7.0745   -0.9096   -8.8376 C   0  0  0  0  0  0  0  0  0  0  0  0
    8.4494   -0.6642   -3.5733 C   0  0  0  0  0  0  0  0  0  0  0  0
    8.9665   -0.2744   -2.2597 C   0  0  0  0  0  0  0  0  0  0  0  0
    9.0719   -1.1229   -1.3778 O   0  0  0  0  0  0  0  0  0  0  0  0
    7.0702    1.9260    0.1260 C   0  0  0  0  0  0  0  0  0  0  0  0
    6.4292    0.9787   -0.6918 C   0  0  0  0  0  0  0  0  0  0  0  0
    5.0580    0.7447   -0.7092 C   0  0  0  0  0  0  0  0  0  0  0  0
    4.6138   -0.1997   -1.6598 N   0  0  0  0  0  0  0  0  0  0  0  0
    4.8340   -0.0112   -3.0129 C   0  0  0  0  0  0  0  0  0  0  0  0
    5.4469    0.9329   -3.4998 O   0  0  0  0  0  0  0  0  0  0  0  0
    4.2245   -1.0727   -3.8599 C   0  0  0  0  0  0  0  0  0  0  0  0
    4.4296   -1.0550   -5.1879 C   0  0  0  0  0  0  0  0  0  0  0  0
    3.9774   -2.0722   -6.1980 C   0  0  0  0  0  0  0  0  0  0  0  0
    2.8069   -2.8886   -5.8405 N   0  0  0  0  0  0  0  0  0  0  0  0
    1.5881   -2.0751   -5.7569 C   0  0  0  0  0  0  0  0  0  0  0  0
    2.6124   -3.9155   -6.8769 C   0  0  0  0  0  0  0  0  0  0  0  0
    0.1474   -0.1993   -0.6577 H   0  0  0  0  0  0  0  0  0  0  0  0
    0.3505    1.4075    0.0965 H   0  0  0  0  0  0  0  0  0  0  0  0
    0.6200   -0.0574    1.0472 H   0  0  0  0  0  0  0  0  0  0  0  0
    2.2599    0.6239   -1.4122 H   0  0  0  0  0  0  0  0  0  0  0  0
    2.5687   -0.6363   -0.1462 H   0  0  0  0  0  0  0  0  0  0  0  0
    4.2895    2.9410    1.7458 H   0  0  0  0  0  0  0  0  0  0  0  0
    8.5484    4.4440    2.5020 H   0  0  0  0  0  0  0  0  0  0  0  0
   10.3476    1.7567   -0.3937 H   0  0  0  0  0  0  0  0  0  0  0  0
    9.4433    3.0752   -2.9447 H   0  0  0  0  0  0  0  0  0  0  0  0
    9.3620    0.6162   -6.8998 H   0  0  0  0  0  0  0  0  0  0  0  0
    7.6894    1.1478   -7.2430 H   0  0  0  0  0  0  0  0  0  0  0  0
   10.2384   -1.5163   -7.7279 H   0  0  0  0  0  0  0  0  0  0  0  0
   10.1332   -3.1986   -9.5348 H   0  0  0  0  0  0  0  0  0  0  0  0
    8.0655   -3.4163  -10.9112 H   0  0  0  0  0  0  0  0  0  0  0  0
    6.2023   -0.2878   -8.6588 H   0  0  0  0  0  0  0  0  0  0  0  0
    8.1018   -1.6862   -3.6575 H   0  0  0  0  0  0  0  0  0  0  0  0
    7.0018    0.3125   -1.3065 H   0  0  0  0  0  0  0  0  0  0  0  0
    3.9974   -0.9387   -1.3667 H   0  0  0  0  0  0  0  0  0  0  0  0
    3.6558   -1.8654   -3.3916 H   0  0  0  0  0  0  0  0  0  0  0  0
    5.0211   -0.2454   -5.6160 H   0  0  0  0  0  0  0  0  0  0  0  0
    4.8407   -2.7357   -6.3478 H   0  0  0  0  0  0  0  0  0  0  0  0
    3.8100   -1.5645   -7.1572 H   0  0  0  0  0  0  0  0  0  0  0  0
    1.6412   -1.3594   -4.9311 H   0  0  0  0  0  0  0  0  0  0  0  0
    0.7202   -2.7111   -5.5464 H   0  0  0  0  0  0  0  0  0  0  0  0
    1.3913   -1.5214   -6.6819 H   0  0  0  0  0  0  0  0  0  0  0  0
    3.4900   -4.5677   -6.9503 H   0  0  0  0  0  0  0  0  0  0  0  0
    2.4288   -3.4753   -7.8650 H   0  0  0  0  0  0  0  0  0  0  0  0
    1.7624   -4.5604   -6.6279 H   0  0  0  0  0  0  0  0  0  0  0  0
  1  2  1  0  0  0  0
  1 41  1  0  0  0  0
  1 42  1  0  0  0  0
  1 43  1  0  0  0  0
  2  3  1  0  0  0  0
  2 44  1  0  0  0  0
  2 45  1  0  0  0  0
  3  4  1  0  0  0  0
  4  5  1  0  0  0  0
  4 31  2  0  0  0  0
  5  6  2  0  0  0  0
  5 46  1  0  0  0  0
  6  7  1  0  0  0  0
  6 29  1  0  0  0  0
  7  8  2  0  0  0  0
  8  9  1  0  0  0  0
  8 47  1  0  0  0  0
  9 10  2  0  0  0  0
 10 11  1  0  0  0  0
 10 29  1  0  0  0  0
 11 12  1  0  0  0  0
 11 48  1  0  0  0  0
 12 13  2  0  0  0  0
 12 27  1  0  0  0  0
 13 14  1  0  0  0  0
 13 49  1  0  0  0  0
 14 15  2  0  0  0  0
 14 16  1  0  0  0  0
 16 17  1  0  0  0  0
 16 26  2  0  0  0  0
 17 18  1  0  0  0  0
 18 19  1  0  0  0  0
 18 50  1  0  0  0  0
 18 51  1  0  0  0  0
 19 20  1  0  0  0  0
 19 25  2  0  0  0  0
 20 21  2  0  0  0  0
 20 52  1  0  0  0  0
 21 22  1  0  0  0  0
 21 53  1  0  0  0  0
 22 23  2  0  0  0  0
 22 54  1  0  0  0  0
 23 24  1  0  0  0  0
 23 25  1  0  0  0  0
 25 55  1  0  0  0  0
 26 27  1  0  0  0  0
 26 56  1  0  0  0  0
 27 28  2  0  0  0  0
 29 30  2  0  0  0  0
 30 31  1  0  0  0  0
 30 57  1  0  0  0  0
 31 32  1  0  0  0  0
 32 33  1  0  0  0  0
 32 58  1  0  0  0  0
 33 34  2  0  0  0  0
 33 35  1  0  0  0  0
 35 36  2  0  0  0  0
 35 59  1  0  0  0  0
 36 37  1  0  0  0  0
 36 60  1  0  0  0  0
 37 38  1  0  0  0  0
 37 61  1  0  0  0  0
 37 62  1  0  0  0  0
 38 39  1  0  0  0  0
 38 40  1  0  0  0  0
 39 63  1  0  0  0  0
 39 64  1  0  0  0  0
 39 65  1  0  0  0  0
 40 66  1  0  0  0  0
 40 67  1  0  0  0  0
 40 68  1  0  0  0  0
M  END
$$$$
