CHEMBL404322
 OpenBabel04072215373D

 48 53  0  0  0  0  0  0  0  0999 V2000
    1.3786   -0.4267   -1.0038 C   0  0  0  0  0  0  0  0  0  0  0  0
    2.5252    0.0685   -0.1397 C   0  0  0  0  0  0  0  0  0  0  0  0
    2.9023    1.3150   -0.0612 N   0  0  0  0  0  0  0  0  0  0  0  0
    2.1395    2.1380   -0.9039 O   0  0  0  0  0  0  0  0  0  0  0  0
    3.2221   -0.9644    0.6785 C   0  0  0  0  0  0  0  0  0  0  0  0
    2.8125   -2.2882    0.6209 C   0  0  0  0  0  0  0  0  0  0  0  0
    3.4080   -3.2665    1.4315 C   0  0  0  0  0  0  0  0  0  0  0  0
    4.4509   -2.8706    2.3009 C   0  0  0  0  0  0  0  0  0  0  0  0
    5.2184   -3.5794    3.2162 N   0  0  0  0  0  0  0  0  0  0  0  0
    6.1414   -2.7486    3.8148 C   0  0  0  0  0  0  0  0  0  0  0  0
    7.1639   -2.7239    4.8236 C   0  0  0  0  0  0  0  0  0  0  0  0
    8.3452   -2.7319    6.0133 C   0  0  0  0  0  0  0  0  0  0  0  0
    7.9052   -1.1100    5.1315 C   0  0  0  0  0  0  0  0  0  0  0  0
    6.6907   -0.5626    3.9164 C   0  0  0  0  0  0  0  0  0  0  0  0
    5.8808   -1.5502    3.3427 C   0  0  0  0  0  0  0  0  0  0  0  0
    4.8934   -1.5305    2.3679 C   0  0  0  0  0  0  0  0  0  0  0  0
    4.2615   -0.5899    1.5336 C   0  0  0  0  0  0  0  0  0  0  0  0
    6.5231    0.9050    3.2863 C   0  0  0  0  0  0  0  0  0  0  0  0
    7.7479    1.4320    3.7503 N   0  0  0  0  0  0  0  0  0  0  0  0
    8.3464    0.6131    4.9960 C   0  0  0  0  0  0  0  0  0  0  0  0
    8.9359    1.4012    5.7486 O   0  0  0  0  0  0  0  0  0  0  0  0
    8.4155   -4.7022    6.7356 C   0  0  0  0  0  0  0  0  0  0  0  0
    8.2426   -6.4239    7.1572 C   0  0  0  0  0  0  0  0  0  0  0  0
    7.4249   -7.7305    6.3954 N   0  0  0  0  0  0  0  0  0  0  0  0
    7.0911   -9.3114    6.3707 C   0  0  0  0  0  0  0  0  0  0  0  0
    6.9073   -7.0218    5.4678 N   0  0  0  0  0  0  0  0  0  0  0  0
    7.3509   -5.7906    5.7269 C   0  0  0  0  0  0  0  0  0  0  0  0
    6.5721   -5.0355    4.8868 C   0  0  0  0  0  0  0  0  0  0  0  0
    7.2697   -3.9498    5.3271 C   0  0  0  0  0  0  0  0  0  0  0  0
    0.9171    0.3859   -1.5605 H   0  0  0  0  0  0  0  0  0  0  0  0
    0.6088   -0.8869   -0.3743 H   0  0  0  0  0  0  0  0  0  0  0  0
    1.7249   -1.1661   -1.7312 H   0  0  0  0  0  0  0  0  0  0  0  0
    2.5250    3.0245   -0.7757 H   0  0  0  0  0  0  0  0  0  0  0  0
    2.0249   -2.5630   -0.0772 H   0  0  0  0  0  0  0  0  0  0  0  0
    3.0347   -4.2857    1.3501 H   0  0  0  0  0  0  0  0  0  0  0  0
    5.1153   -4.5651    3.4225 H   0  0  0  0  0  0  0  0  0  0  0  0
    4.5440    0.4494    1.5595 H   0  0  0  0  0  0  0  0  0  0  0  0
    5.6446    1.5232    3.6273 H   0  0  0  0  0  0  0  0  0  0  0  0
    6.4313    1.0534    2.1663 H   0  0  0  0  0  0  0  0  0  0  0  0
    7.9751    2.4059    3.4207 H   0  0  0  0  0  0  0  0  0  0  0  0
    8.4875   -7.0826    8.0177 H   0  0  0  0  0  0  0  0  0  0  0  0
    7.4600   -9.9211    7.2112 H   0  0  0  0  0  0  0  0  0  0  0  0
    7.4748   -9.8032    5.4322 H   0  0  0  0  0  0  0  0  0  0  0  0
    5.9857   -9.5583    6.2759 H   0  0  0  0  0  0  0  0  0  0  0  0
    5.5917   -4.8359    5.2936 H   0  0  0  0  0  0  0  0  0  0  0  0
    6.9064   -5.1604    3.8718 H   0  0  0  0  0  0  0  0  0  0  0  0
    8.4957   -4.2056    4.9100 H   0  0  0  0  0  0  0  0  0  0  0  0
    6.8240   -3.6994    6.5319 H   0  0  0  0  0  0  0  0  0  0  0  0
  1  2  1  0  0  0  0
  1 30  1  0  0  0  0
  1 31  1  0  0  0  0
  1 32  1  0  0  0  0
  2  3  2  0  0  0  0
  2  5  1  0  0  0  0
  3  4  1  0  0  0  0
  4 33  1  0  0  0  0
  5  6  1  0  0  0  0
  5 17  2  0  0  0  0
  6  7  2  0  0  0  0
  6 34  1  0  0  0  0
  7  8  1  0  0  0  0
  7 35  1  0  0  0  0
  8  9  1  0  0  0  0
  8 16  2  0  0  0  0
  9 10  1  0  0  0  0
  9 36  1  0  0  0  0
 10 11  1  0  0  0  0
 10 15  2  0  0  0  0
 11 12  2  0  0  0  0
 11 29  1  0  0  0  0
 12 13  1  0  0  0  0
 12 22  1  0  0  0  0
 13 14  2  0  0  0  0
 13 20  1  0  0  0  0
 14 15  1  0  0  0  0
 14 18  1  0  0  0  0
 15 16  1  0  0  0  0
 16 17  1  0  0  0  0
 17 37  1  0  0  0  0
 18 19  1  0  0  0  0
 18 38  1  0  0  0  0
 18 39  1  0  0  0  0
 19 20  1  0  0  0  0
 19 40  1  0  0  0  0
 20 21  2  0  0  0  0
 22 23  2  0  0  0  0
 22 27  1  0  0  0  0
 23 24  1  0  0  0  0
 23 41  1  0  0  0  0
 24 25  1  0  0  0  0
 24 26  1  0  0  0  0
 25 42  1  0  0  0  0
 25 43  1  0  0  0  0
 25 44  1  0  0  0  0
 26 27  2  0  0  0  0
 27 28  1  0  0  0  0
 28 29  1  0  0  0  0
 28 45  1  0  0  0  0
 28 46  1  0  0  0  0
 29 47  1  0  0  0  0
 29 48  1  0  0  0  0
M  END
$$$$
