CHEMBL387817
 OpenBabel04072215373D

 47 50  0  0  0  0  0  0  0  0999 V2000
   -2.6250    0.6799   -2.1933 N   0  0  0  0  0  0  0  0  0  0  0  0
   -1.3463    0.6011   -1.8105 C   0  0  0  0  0  0  0  0  0  0  0  0
   -0.4503    1.5536   -1.8227 N   0  0  0  0  0  0  0  0  0  0  0  0
    0.6957    0.9861   -1.3183 C   0  0  0  0  0  0  0  0  0  0  0  0
    1.9643    1.5457   -1.1057 C   0  0  0  0  0  0  0  0  0  0  0  0
    2.9837    0.7333   -0.5812 C   0  0  0  0  0  0  0  0  0  0  0  0
    2.7450   -0.6086   -0.2665 C   0  0  0  0  0  0  0  0  0  0  0  0
    3.8285   -1.3132    0.2371 O   0  0  0  0  0  0  0  0  0  0  0  0
    3.9434   -2.6533   -0.0567 C   0  0  0  0  0  0  0  0  0  0  0  0
    3.5499   -3.2009   -1.2743 C   0  0  0  0  0  0  0  0  0  0  0  0
    3.5766   -4.5798   -1.4584 C   0  0  0  0  0  0  0  0  0  0  0  0
    4.0624   -5.4392   -0.4658 C   0  0  0  0  0  0  0  0  0  0  0  0
    4.0155   -6.8501   -0.5856 N   0  0  0  0  0  0  0  0  0  0  0  0
    3.5281   -7.5396   -1.6739 C   0  0  0  0  0  0  0  0  0  0  0  0
    3.1637   -7.0277   -2.7282 O   0  0  0  0  0  0  0  0  0  0  0  0
    3.4368   -8.9092   -1.4563 N   0  0  0  0  0  0  0  0  0  0  0  0
    2.9317   -9.7158   -2.5144 C   0  0  0  0  0  0  0  0  0  0  0  0
    3.4104   -9.5680   -3.8254 C   0  0  0  0  0  0  0  0  0  0  0  0
    2.7957  -10.2324   -4.8954 C   0  0  0  0  0  0  0  0  0  0  0  0
    3.2842  -10.0287   -6.3102 C   0  0  0  0  0  0  0  0  0  0  0  0
    4.3672   -9.2097   -6.4082 F   0  0  0  0  0  0  0  0  0  0  0  0
    3.6540  -11.2012   -6.8973 F   0  0  0  0  0  0  0  0  0  0  0  0
    2.3315   -9.4912   -7.1207 F   0  0  0  0  0  0  0  0  0  0  0  0
    1.6983  -11.0683   -4.6311 C   0  0  0  0  0  0  0  0  0  0  0  0
    1.2487  -11.2565   -3.3199 C   0  0  0  0  0  0  0  0  0  0  0  0
    1.8802  -10.5964   -2.2692 C   0  0  0  0  0  0  0  0  0  0  0  0
    1.4085  -10.7423   -1.0215 F   0  0  0  0  0  0  0  0  0  0  0  0
    4.5758   -4.8728    0.7040 C   0  0  0  0  0  0  0  0  0  0  0  0
    4.5160   -3.4834    0.9087 C   0  0  0  0  0  0  0  0  0  0  0  0
    1.4634   -1.1654   -0.4187 C   0  0  0  0  0  0  0  0  0  0  0  0
    0.4811   -0.3459   -0.9822 C   0  0  0  0  0  0  0  0  0  0  0  0
   -0.8260   -0.5709   -1.3308 N   0  0  0  0  0  0  0  0  0  0  0  0
   -2.8893    1.5337   -2.6804 H   0  0  0  0  0  0  0  0  0  0  0  0
   -3.1542   -0.1328   -2.4836 H   0  0  0  0  0  0  0  0  0  0  0  0
    2.1469    2.5861   -1.3514 H   0  0  0  0  0  0  0  0  0  0  0  0
    3.9724    1.1567   -0.4258 H   0  0  0  0  0  0  0  0  0  0  0  0
    3.1724   -2.5757   -2.0785 H   0  0  0  0  0  0  0  0  0  0  0  0
    3.1839   -4.9347   -2.4036 H   0  0  0  0  0  0  0  0  0  0  0  0
    4.4184   -7.4006    0.1645 H   0  0  0  0  0  0  0  0  0  0  0  0
    3.1053   -9.1631   -0.5330 H   0  0  0  0  0  0  0  0  0  0  0  0
    4.2410   -8.8900   -4.0211 H   0  0  0  0  0  0  0  0  0  0  0  0
    1.1843  -11.5663   -5.4524 H   0  0  0  0  0  0  0  0  0  0  0  0
    0.3895  -11.8888   -3.1179 H   0  0  0  0  0  0  0  0  0  0  0  0
    5.0064   -5.4948    1.4837 H   0  0  0  0  0  0  0  0  0  0  0  0
    4.8944   -3.0545    1.8323 H   0  0  0  0  0  0  0  0  0  0  0  0
    1.2430   -2.1909   -0.1451 H   0  0  0  0  0  0  0  0  0  0  0  0
   -1.3292   -1.4375   -1.2358 H   0  0  0  0  0  0  0  0  0  0  0  0
  1  2  1  0  0  0  0
  1 33  1  0  0  0  0
  1 34  1  0  0  0  0
  2  3  2  0  0  0  0
  2 32  1  0  0  0  0
  3  4  1  0  0  0  0
  4  5  1  0  0  0  0
  4 31  2  0  0  0  0
  5  6  2  0  0  0  0
  5 35  1  0  0  0  0
  6  7  1  0  0  0  0
  6 36  1  0  0  0  0
  7  8  1  0  0  0  0
  7 30  2  0  0  0  0
  8  9  1  0  0  0  0
  9 10  1  0  0  0  0
  9 29  2  0  0  0  0
 10 11  2  0  0  0  0
 10 37  1  0  0  0  0
 11 12  1  0  0  0  0
 11 38  1  0  0  0  0
 12 13  1  0  0  0  0
 12 28  2  0  0  0  0
 13 14  1  0  0  0  0
 13 39  1  0  0  0  0
 14 15  2  0  0  0  0
 14 16  1  0  0  0  0
 16 17  1  0  0  0  0
 16 40  1  0  0  0  0
 17 18  1  0  0  0  0
 17 26  2  0  0  0  0
 18 19  2  0  0  0  0
 18 41  1  0  0  0  0
 19 20  1  0  0  0  0
 19 24  1  0  0  0  0
 20 21  1  0  0  0  0
 20 22  1  0  0  0  0
 20 23  1  0  0  0  0
 24 25  2  0  0  0  0
 24 42  1  0  0  0  0
 25 26  1  0  0  0  0
 25 43  1  0  0  0  0
 26 27  1  0  0  0  0
 28 29  1  0  0  0  0
 28 44  1  0  0  0  0
 29 45  1  0  0  0  0
 30 31  1  0  0  0  0
 30 46  1  0  0  0  0
 31 32  1  0  0  0  0
 32 47  1  0  0  0  0
M  END
$$$$
