CHEMBL3774563
 OpenBabel04072215373D

 41 43  0  0  0  0  0  0  0  0999 V2000
    0.9227    0.0011   -0.7789 C   0  0  0  0  0  0  0  0  0  0  0  0
    2.3383    0.1144   -0.7372 O   0  0  0  0  0  0  0  0  0  0  0  0
    2.8662    1.3706   -0.6047 C   0  0  0  0  0  0  0  0  0  0  0  0
    2.1268    2.5454   -0.4977 C   0  0  0  0  0  0  0  0  0  0  0  0
    2.7715    3.7889   -0.3861 C   0  0  0  0  0  0  0  0  0  0  0  0
    4.1649    3.8964   -0.3421 C   0  0  0  0  0  0  0  0  0  0  0  0
    4.8799    5.1200   -0.3026 N   0  0  0  0  0  0  0  0  0  0  0  0
    4.4354    6.4680   -0.2284 C   0  0  0  0  0  0  0  0  0  0  0  0
    3.1150    6.7232   -0.2178 N   0  0  0  0  0  0  0  0  0  0  0  0
    2.7307    7.9992   -0.1910 C   0  0  0  0  0  0  0  0  0  0  0  0
    3.5363    9.0578   -0.1662 N   0  0  0  0  0  0  0  0  0  0  0  0
    4.8449    8.8101   -0.1956 C   0  0  0  0  0  0  0  0  0  0  0  0
    5.6902    9.9080   -0.1795 C   0  0  0  0  0  0  0  0  0  0  0  0
    7.0869    9.7971   -0.2174 C   0  0  0  0  0  0  0  0  0  0  0  0
    7.9119   10.8900   -0.1994 O   0  0  0  0  0  0  0  0  0  0  0  0
    7.3133   12.1812   -0.1494 C   0  0  0  0  0  0  0  0  0  0  0  0
    7.6514    8.5170   -0.2779 C   0  0  0  0  0  0  0  0  0  0  0  0
    8.9756    8.1662   -0.3243 O   0  0  0  0  0  0  0  0  0  0  0  0
    9.9584    9.1932   -0.3265 C   0  0  0  0  0  0  0  0  0  0  0  0
    6.8004    7.3971   -0.2939 C   0  0  0  0  0  0  0  0  0  0  0  0
    5.3855    7.5203   -0.2418 C   0  0  0  0  0  0  0  0  0  0  0  0
    4.9027    2.7063   -0.4650 C   0  0  0  0  0  0  0  0  0  0  0  0
    4.2612    1.4667   -0.5877 C   0  0  0  0  0  0  0  0  0  0  0  0
    5.0073    0.3220   -0.7027 O   0  0  0  0  0  0  0  0  0  0  0  0
    0.6747   -1.0549   -0.9250 H   0  0  0  0  0  0  0  0  0  0  0  0
    0.5019    0.5583   -1.6226 H   0  0  0  0  0  0  0  0  0  0  0  0
    0.4758    0.3201    0.1684 H   0  0  0  0  0  0  0  0  0  0  0  0
    1.0419    2.5415   -0.5045 H   0  0  0  0  0  0  0  0  0  0  0  0
    2.1367    4.6654   -0.3187 H   0  0  0  0  0  0  0  0  0  0  0  0
    5.7516    5.0013    0.1994 H   0  0  0  0  0  0  0  0  0  0  0  0
    1.6646    8.1945   -0.1936 H   0  0  0  0  0  0  0  0  0  0  0  0
    5.2059   10.8791   -0.1380 H   0  0  0  0  0  0  0  0  0  0  0  0
    8.1152   12.9251   -0.1526 H   0  0  0  0  0  0  0  0  0  0  0  0
    6.7415   12.3136    0.7753 H   0  0  0  0  0  0  0  0  0  0  0  0
    6.6905   12.3621   -1.0321 H   0  0  0  0  0  0  0  0  0  0  0  0
   10.9413    8.7133   -0.3724 H   0  0  0  0  0  0  0  0  0  0  0  0
    9.9289    9.7740    0.6009 H   0  0  0  0  0  0  0  0  0  0  0  0
    9.8692    9.8273   -1.2144 H   0  0  0  0  0  0  0  0  0  0  0  0
    7.2629    6.4144   -0.3576 H   0  0  0  0  0  0  0  0  0  0  0  0
    5.9871    2.7518   -0.4824 H   0  0  0  0  0  0  0  0  0  0  0  0
    5.9488    0.5489   -0.6798 H   0  0  0  0  0  0  0  0  0  0  0  0
  1  2  1  0  0  0  0
  1 25  1  0  0  0  0
  1 26  1  0  0  0  0
  1 27  1  0  0  0  0
  2  3  1  0  0  0  0
  3  4  1  0  0  0  0
  3 23  2  0  0  0  0
  4  5  2  0  0  0  0
  4 28  1  0  0  0  0
  5  6  1  0  0  0  0
  5 29  1  0  0  0  0
  6  7  1  0  0  0  0
  6 22  2  0  0  0  0
  7  8  1  0  0  0  0
  7 30  1  0  0  0  0
  8  9  1  0  0  0  0
  8 21  2  0  0  0  0
  9 10  2  0  0  0  0
 10 11  1  0  0  0  0
 10 31  1  0  0  0  0
 11 12  2  0  0  0  0
 12 13  1  0  0  0  0
 12 21  1  0  0  0  0
 13 14  2  0  0  0  0
 13 32  1  0  0  0  0
 14 15  1  0  0  0  0
 14 17  1  0  0  0  0
 15 16  1  0  0  0  0
 16 33  1  0  0  0  0
 16 34  1  0  0  0  0
 16 35  1  0  0  0  0
 17 18  1  0  0  0  0
 17 20  2  0  0  0  0
 18 19  1  0  0  0  0
 19 36  1  0  0  0  0
 19 37  1  0  0  0  0
 19 38  1  0  0  0  0
 20 21  1  0  0  0  0
 20 39  1  0  0  0  0
 22 23  1  0  0  0  0
 22 40  1  0  0  0  0
 23 24  1  0  0  0  0
 24 41  1  0  0  0  0
M  END
$$$$
