CHEMBL3894814
 OpenBabel04072215373D

 52 55  0  0  0  0  0  0  0  0999 V2000
    1.2909   -0.1920   -0.4928 C   0  0  0  0  0  0  0  0  0  0  0  0
    2.7789   -0.4546   -0.4730 C   0  0  0  0  0  0  0  0  0  0  0  0
    3.2144   -1.4650    0.0695 O   0  0  0  0  0  0  0  0  0  0  0  0
    3.5008    0.5326   -1.1200 N   0  0  0  0  0  0  0  0  0  0  0  0
    4.8749    0.5450   -1.2142 C   0  0  0  0  0  0  0  0  0  0  0  0
    5.6321    1.5218   -1.8253 C   0  0  0  0  0  0  0  0  0  0  0  0
    6.9429    1.1536   -1.6271 N   0  0  0  0  0  0  0  0  0  0  0  0
    8.0628    1.8582   -2.0098 N   0  0  0  0  0  0  0  0  0  0  0  0
    9.1588    1.2534   -1.6669 C   0  0  0  0  0  0  0  0  0  0  0  0
   10.3572    1.9778   -2.0361 C   0  0  0  0  0  0  0  0  0  0  0  0
   11.4087    2.5012   -2.3119 C   0  0  0  0  0  0  0  0  0  0  0  0
   12.6620    3.1185   -2.6702 C   0  0  0  0  0  0  0  0  0  0  0  0
   12.7712    4.5043   -2.7073 C   0  0  0  0  0  0  0  0  0  0  0  0
   13.9605    5.1091   -3.1409 C   0  0  0  0  0  0  0  0  0  0  0  0
   15.0790    4.3567   -3.5277 C   0  0  0  0  0  0  0  0  0  0  0  0
   16.2894    4.9509   -4.0040 N   0  0  0  0  0  0  0  0  0  0  0  0
   16.6226    6.2839   -3.8079 C   0  0  0  0  0  0  0  0  0  0  0  0
   15.9478    7.0291   -3.1080 O   0  0  0  0  0  0  0  0  0  0  0  0
   17.7629    6.7010   -4.4936 N   0  0  0  0  0  0  0  0  0  0  0  0
   18.2435    8.0418   -4.4246 C   0  0  0  0  0  0  0  0  0  0  0  0
   17.9143    8.8946   -3.3620 C   0  0  0  0  0  0  0  0  0  0  0  0
   18.2234   10.2528   -3.3856 C   0  0  0  0  0  0  0  0  0  0  0  0
   18.9178   10.7820   -4.4626 C   0  0  0  0  0  0  0  0  0  0  0  0
   19.3376    9.9467   -5.5042 C   0  0  0  0  0  0  0  0  0  0  0  0
   20.0916   10.5431   -6.6586 C   0  0  0  0  0  0  0  0  0  0  0  0
   19.0217    8.5695   -5.4690 C   0  0  0  0  0  0  0  0  0  0  0  0
   14.9721    2.9636   -3.4627 C   0  0  0  0  0  0  0  0  0  0  0  0
   13.7743    2.3512   -3.0307 C   0  0  0  0  0  0  0  0  0  0  0  0
    9.2744   -0.0506   -0.9701 C   0  0  0  0  0  0  0  0  0  0  0  0
    8.1358   -0.6661   -0.6344 C   0  0  0  0  0  0  0  0  0  0  0  0
    6.9053   -0.0534   -0.9482 C   0  0  0  0  0  0  0  0  0  0  0  0
    5.6728   -0.4281   -0.6932 N   0  0  0  0  0  0  0  0  0  0  0  0
    0.7855   -0.8870    0.1869 H   0  0  0  0  0  0  0  0  0  0  0  0
    0.9008   -0.3455   -1.5034 H   0  0  0  0  0  0  0  0  0  0  0  0
    1.0738    0.8265   -0.1590 H   0  0  0  0  0  0  0  0  0  0  0  0
    3.0054    1.3112   -1.5333 H   0  0  0  0  0  0  0  0  0  0  0  0
    5.3826    2.4286   -2.3531 H   0  0  0  0  0  0  0  0  0  0  0  0
   11.9368    5.1393   -2.4175 H   0  0  0  0  0  0  0  0  0  0  0  0
   13.9587    6.1945   -3.1848 H   0  0  0  0  0  0  0  0  0  0  0  0
   17.0250    4.3311   -4.3094 H   0  0  0  0  0  0  0  0  0  0  0  0
   18.0427    6.1557   -5.2948 H   0  0  0  0  0  0  0  0  0  0  0  0
   17.3846    8.5316   -2.4873 H   0  0  0  0  0  0  0  0  0  0  0  0
   17.8927   10.8909   -2.5711 H   0  0  0  0  0  0  0  0  0  0  0  0
   19.1210   11.8498   -4.4823 H   0  0  0  0  0  0  0  0  0  0  0  0
   20.1197   11.6378   -6.5897 H   0  0  0  0  0  0  0  0  0  0  0  0
   19.5993   10.2922   -7.6027 H   0  0  0  0  0  0  0  0  0  0  0  0
   21.1238   10.1824   -6.6713 H   0  0  0  0  0  0  0  0  0  0  0  0
   19.3484    7.9357   -6.2891 H   0  0  0  0  0  0  0  0  0  0  0  0
   15.8098    2.3267   -3.7367 H   0  0  0  0  0  0  0  0  0  0  0  0
   13.7195    1.2655   -2.9881 H   0  0  0  0  0  0  0  0  0  0  0  0
   10.2530   -0.4581   -0.7600 H   0  0  0  0  0  0  0  0  0  0  0  0
    8.1234   -1.6208   -0.1246 H   0  0  0  0  0  0  0  0  0  0  0  0
  1  2  1  0  0  0  0
  1 33  1  0  0  0  0
  1 34  1  0  0  0  0
  1 35  1  0  0  0  0
  2  3  2  0  0  0  0
  2  4  1  0  0  0  0
  4  5  1  0  0  0  0
  4 36  1  0  0  0  0
  5  6  2  0  0  0  0
  5 32  1  0  0  0  0
  6  7  1  0  0  0  0
  6 37  1  0  0  0  0
  7  8  1  0  0  0  0
  7 31  1  0  0  0  0
  8  9  2  0  0  0  0
  9 10  1  0  0  0  0
  9 29  1  0  0  0  0
 10 11  3  0  0  0  0
 11 12  1  0  0  0  0
 12 13  1  0  0  0  0
 12 28  2  0  0  0  0
 13 14  2  0  0  0  0
 13 38  1  0  0  0  0
 14 15  1  0  0  0  0
 14 39  1  0  0  0  0
 15 16  1  0  0  0  0
 15 27  2  0  0  0  0
 16 17  1  0  0  0  0
 16 40  1  0  0  0  0
 17 18  2  0  0  0  0
 17 19  1  0  0  0  0
 19 20  1  0  0  0  0
 19 41  1  0  0  0  0
 20 21  1  0  0  0  0
 20 26  2  0  0  0  0
 21 22  2  0  0  0  0
 21 42  1  0  0  0  0
 22 23  1  0  0  0  0
 22 43  1  0  0  0  0
 23 24  2  0  0  0  0
 23 44  1  0  0  0  0
 24 25  1  0  0  0  0
 24 26  1  0  0  0  0
 25 45  1  0  0  0  0
 25 46  1  0  0  0  0
 25 47  1  0  0  0  0
 26 48  1  0  0  0  0
 27 28  1  0  0  0  0
 27 49  1  0  0  0  0
 28 50  1  0  0  0  0
 29 30  2  0  0  0  0
 29 51  1  0  0  0  0
 30 31  1  0  0  0  0
 30 52  1  0  0  0  0
 31 32  2  0  0  0  0
M  END
$$$$
