CHEMBL3125893
 OpenBabel04072215363D

 66 70  0  0  0  0  0  0  0  0999 V2000
    2.0932    0.7590    0.6445 C   0  0  0  0  0  0  0  0  0  0  0  0
    2.9433    0.3083   -0.4124 O   0  0  0  0  0  0  0  0  0  0  0  0
    2.2765   -0.0463   -1.5390 C   0  0  0  0  0  0  0  0  0  0  0  0
    1.0699    0.0379   -1.6971 O   0  0  0  0  0  0  0  0  0  0  0  0
    3.2138   -0.5059   -2.5927 C   0  0  0  0  0  0  0  0  0  0  0  0
    4.3759   -1.2600   -2.3004 C   0  0  0  0  0  0  0  0  0  0  0  0
    4.6390   -1.5820   -0.9793 O   0  0  0  0  0  0  0  0  0  0  0  0
    5.2308   -2.7878   -0.6691 C   0  0  0  0  0  0  0  0  0  0  0  0
    6.0770   -2.7967    0.4393 C   0  0  0  0  0  0  0  0  0  0  0  0
    6.7598   -3.9623    0.7777 C   0  0  0  0  0  0  0  0  0  0  0  0
    6.5808   -5.1237    0.0216 C   0  0  0  0  0  0  0  0  0  0  0  0
    5.6726   -5.1508   -1.0392 C   0  0  0  0  0  0  0  0  0  0  0  0
    5.3861   -6.3022   -1.8091 N   0  0  0  0  0  0  0  0  0  0  0  0
    5.9119   -7.5648   -1.6197 C   0  0  0  0  0  0  0  0  0  0  0  0
    6.7220   -7.8916   -0.7596 O   0  0  0  0  0  0  0  0  0  0  0  0
    5.4222   -8.6348   -2.5327 C   0  0  0  0  0  0  0  0  0  0  0  0
    4.9812   -8.3870   -3.8350 C   0  0  0  0  0  0  0  0  0  0  0  0
    4.5892   -9.4534   -4.6403 C   0  0  0  0  0  0  0  0  0  0  0  0
    4.6594  -10.7727   -4.1646 C   0  0  0  0  0  0  0  0  0  0  0  0
    5.1233  -11.0555   -2.8673 C   0  0  0  0  0  0  0  0  0  0  0  0
    5.2838  -12.4899   -2.3258 C   0  0  0  0  0  0  0  0  0  0  0  0
    6.7556  -12.7311   -1.9206 C   0  0  0  0  0  0  0  0  0  0  0  0
    4.3812  -12.6984   -1.0918 C   0  0  0  0  0  0  0  0  0  0  0  0
    4.9238  -13.5366   -3.3211 C   0  0  0  0  0  0  0  0  0  0  0  0
    4.6459  -14.3551   -4.0939 N   0  0  0  0  0  0  0  0  0  0  0  0
    5.4817   -9.9587   -2.0618 C   0  0  0  0  0  0  0  0  0  0  0  0
    4.9876   -3.9759   -1.3689 C   0  0  0  0  0  0  0  0  0  0  0  0
    5.2494   -1.6422   -3.3242 C   0  0  0  0  0  0  0  0  0  0  0  0
    4.9429   -1.3761   -4.6568 C   0  0  0  0  0  0  0  0  0  0  0  0
    3.7717   -0.6689   -4.9794 C   0  0  0  0  0  0  0  0  0  0  0  0
    3.3916   -0.3423   -6.2655 N   0  0  0  0  0  0  0  0  0  0  0  0
    2.2370    0.2719   -6.2443 C   0  0  0  0  0  0  0  0  0  0  0  0
    1.6649    0.6725   -7.4196 N   0  0  0  0  0  0  0  0  0  0  0  0
    0.3830    1.1028   -7.6329 C   0  0  0  0  0  0  0  0  0  0  0  0
   -0.5207    1.2176   -6.8196 O   0  0  0  0  0  0  0  0  0  0  0  0
    0.1526    1.4465   -9.0758 C   0  0  0  0  0  0  0  0  0  0  0  0
   -0.4163    2.8024   -9.4210 C   0  0  0  0  0  0  0  0  0  0  0  0
   -1.2265    1.5640   -9.6760 C   0  0  0  0  0  0  0  0  0  0  0  0
    1.5796    0.5761   -4.7144 S   0  0  0  0  0  0  0  0  0  0  0  0
    2.9153   -0.2444   -3.9557 C   0  0  0  0  0  0  0  0  0  0  0  0
    2.6981    0.8653    1.5493 H   0  0  0  0  0  0  0  0  0  0  0  0
    1.2978    0.0342    0.8488 H   0  0  0  0  0  0  0  0  0  0  0  0
    1.6702    1.7352    0.3897 H   0  0  0  0  0  0  0  0  0  0  0  0
    6.2164   -1.8982    1.0347 H   0  0  0  0  0  0  0  0  0  0  0  0
    7.4370   -3.9770    1.6287 H   0  0  0  0  0  0  0  0  0  0  0  0
    7.1589   -5.9975    0.3044 H   0  0  0  0  0  0  0  0  0  0  0  0
    4.6669   -6.1918   -2.5098 H   0  0  0  0  0  0  0  0  0  0  0  0
    4.9690   -7.3869   -4.2554 H   0  0  0  0  0  0  0  0  0  0  0  0
    4.2492   -9.2724   -5.6577 H   0  0  0  0  0  0  0  0  0  0  0  0
    4.3597  -11.5641   -4.8473 H   0  0  0  0  0  0  0  0  0  0  0  0
    7.0784  -12.0675   -1.1106 H   0  0  0  0  0  0  0  0  0  0  0  0
    7.4324  -12.5675   -2.7688 H   0  0  0  0  0  0  0  0  0  0  0  0
    6.9100  -13.7602   -1.5733 H   0  0  0  0  0  0  0  0  0  0  0  0
    4.6529  -12.0358   -0.2627 H   0  0  0  0  0  0  0  0  0  0  0  0
    4.4516  -13.7283   -0.7191 H   0  0  0  0  0  0  0  0  0  0  0  0
    3.3275  -12.5111   -1.3327 H   0  0  0  0  0  0  0  0  0  0  0  0
    5.8402  -10.1228   -1.0451 H   0  0  0  0  0  0  0  0  0  0  0  0
    4.2717   -3.9794   -2.1847 H   0  0  0  0  0  0  0  0  0  0  0  0
    6.1720   -2.1769   -3.1067 H   0  0  0  0  0  0  0  0  0  0  0  0
    5.5983   -1.7167   -5.4536 H   0  0  0  0  0  0  0  0  0  0  0  0
    2.2705    0.5225   -8.2117 H   0  0  0  0  0  0  0  0  0  0  0  0
    0.9010    1.0552   -9.7605 H   0  0  0  0  0  0  0  0  0  0  0  0
    0.0145    3.3258  -10.2660 H   0  0  0  0  0  0  0  0  0  0  0  0
   -0.7445    3.4500   -8.6146 H   0  0  0  0  0  0  0  0  0  0  0  0
   -1.3591    1.2543  -10.7073 H   0  0  0  0  0  0  0  0  0  0  0  0
   -2.0894    1.3819   -9.0455 H   0  0  0  0  0  0  0  0  0  0  0  0
  1  2  1  0  0  0  0
  1 41  1  0  0  0  0
  1 42  1  0  0  0  0
  1 43  1  0  0  0  0
  2  3  1  0  0  0  0
  3  4  2  0  0  0  0
  3  5  1  0  0  0  0
  5  6  1  0  0  0  0
  5 40  2  0  0  0  0
  6  7  1  0  0  0  0
  6 28  2  0  0  0  0
  7  8  1  0  0  0  0
  8  9  1  0  0  0  0
  8 27  2  0  0  0  0
  9 10  2  0  0  0  0
  9 44  1  0  0  0  0
 10 11  1  0  0  0  0
 10 45  1  0  0  0  0
 11 12  2  0  0  0  0
 11 46  1  0  0  0  0
 12 13  1  0  0  0  0
 12 27  1  0  0  0  0
 13 14  1  0  0  0  0
 13 47  1  0  0  0  0
 14 15  2  0  0  0  0
 14 16  1  0  0  0  0
 16 17  1  0  0  0  0
 16 26  2  0  0  0  0
 17 18  2  0  0  0  0
 17 48  1  0  0  0  0
 18 19  1  0  0  0  0
 18 49  1  0  0  0  0
 19 20  2  0  0  0  0
 19 50  1  0  0  0  0
 20 21  1  0  0  0  0
 20 26  1  0  0  0  0
 21 22  1  0  0  0  0
 21 23  1  0  0  0  0
 21 24  1  0  0  0  0
 22 51  1  0  0  0  0
 22 52  1  0  0  0  0
 22 53  1  0  0  0  0
 23 54  1  0  0  0  0
 23 55  1  0  0  0  0
 23 56  1  0  0  0  0
 24 25  3  0  0  0  0
 26 57  1  0  0  0  0
 27 58  1  0  0  0  0
 28 29  1  0  0  0  0
 28 59  1  0  0  0  0
 29 30  2  0  0  0  0
 29 60  1  0  0  0  0
 30 31  1  0  0  0  0
 30 40  1  0  0  0  0
 31 32  2  0  0  0  0
 32 33  1  0  0  0  0
 32 39  1  0  0  0  0
 33 34  1  0  0  0  0
 33 61  1  0  0  0  0
 34 35  2  0  0  0  0
 34 36  1  0  0  0  0
 36 37  1  0  0  0  0
 36 38  1  0  0  0  0
 36 62  1  0  0  0  0
 37 38  1  0  0  0  0
 37 63  1  0  0  0  0
 37 64  1  0  0  0  0
 38 65  1  0  0  0  0
 38 66  1  0  0  0  0
 39 40  1  0  0  0  0
M  END
$$$$
