CHEMBL383593
 OpenBabel04072215373D

 70 73  0  0  0  0  0  0  0  0999 V2000
    1.0743    2.9519   -0.9989 C   0  0  0  0  0  0  0  0  0  0  0  0
    1.6036    3.6753   -2.1053 O   0  0  0  0  0  0  0  0  0  0  0  0
    2.9481    3.9560   -1.9733 C   0  0  0  0  0  0  0  0  0  0  0  0
    3.5570    4.5449   -3.0641 C   0  0  0  0  0  0  0  0  0  0  0  0
    4.9196    4.8144   -2.9889 C   0  0  0  0  0  0  0  0  0  0  0  0
    5.6129    4.5047   -1.8201 C   0  0  0  0  0  0  0  0  0  0  0  0
    7.3306    4.7057   -1.8444 Cl  0  0  0  0  0  0  0  0  0  0  0  0
    4.9074    3.9601   -0.7316 C   0  0  0  0  0  0  0  0  0  0  0  0
    5.5047    3.6424    0.4918 N   0  0  0  0  0  0  0  0  0  0  0  0
    6.2860    4.5143    1.2878 C   0  0  0  0  0  0  0  0  0  0  0  0
    6.3160    5.8195    0.9430 N   0  0  0  0  0  0  0  0  0  0  0  0
    7.0865    6.6209    1.6758 C   0  0  0  0  0  0  0  0  0  0  0  0
    7.8007    6.2575    2.7390 N   0  0  0  0  0  0  0  0  0  0  0  0
    7.7563    4.9675    3.0807 C   0  0  0  0  0  0  0  0  0  0  0  0
    8.5024    4.5950    4.1816 C   0  0  0  0  0  0  0  0  0  0  0  0
    8.5740    3.2732    4.6055 C   0  0  0  0  0  0  0  0  0  0  0  0
    9.3483    3.0574    5.7082 O   0  0  0  0  0  0  0  0  0  0  0  0
    9.9372    1.7655    5.8342 C   0  0  0  0  0  0  0  0  0  0  0  0
   11.4202    1.9666    6.0980 C   0  0  0  0  0  0  0  0  0  0  0  0
   12.1188    0.6124    6.1909 C   0  0  0  0  0  0  0  0  0  0  0  0
   13.5728    0.7114    6.3792 N   0  0  0  0  0  0  0  0  0  0  0  0
   14.1770   -0.6420    6.4652 C   0  0  0  0  0  0  0  0  0  0  0  0
   13.8854   -1.3988    7.7814 C   0  0  0  0  0  0  0  0  0  0  0  0
   14.1496   -0.5718    8.9659 N   0  0  0  0  0  0  0  0  0  0  0  0
   14.8069   -1.1352   10.0387 C   0  0  0  0  0  0  0  0  0  0  0  0
   15.0849   -0.3072   11.2694 C   0  0  0  0  0  0  0  0  0  0  0  0
   15.2096   -2.3030   10.0152 O   0  0  0  0  0  0  0  0  0  0  0  0
   13.5790    0.7793    8.9052 C   0  0  0  0  0  0  0  0  0  0  0  0
   13.9638    1.4691    7.5838 C   0  0  0  0  0  0  0  0  0  0  0  0
    7.8509    2.3009    3.9392 C   0  0  0  0  0  0  0  0  0  0  0  0
    7.0444    2.6450    2.8531 C   0  0  0  0  0  0  0  0  0  0  0  0
    6.2600    1.7214    2.1977 O   0  0  0  0  0  0  0  0  0  0  0  0
    5.9181    0.4990    2.8723 C   0  0  0  0  0  0  0  0  0  0  0  0
    4.9787    0.7769    4.0399 C   0  0  0  0  0  0  0  0  0  0  0  0
    5.2196   -0.4069    1.8576 C   0  0  0  0  0  0  0  0  0  0  0  0
    7.0071    3.9988    2.3894 C   0  0  0  0  0  0  0  0  0  0  0  0
    3.5879    3.6539   -0.8195 N   0  0  0  0  0  0  0  0  0  0  0  0
    0.0041    2.8078   -1.1745 H   0  0  0  0  0  0  0  0  0  0  0  0
    1.1838    3.5115   -0.0638 H   0  0  0  0  0  0  0  0  0  0  0  0
    1.5376    1.9622   -0.9221 H   0  0  0  0  0  0  0  0  0  0  0  0
    2.9925    4.7698   -3.9617 H   0  0  0  0  0  0  0  0  0  0  0  0
    5.4362    5.2460   -3.8386 H   0  0  0  0  0  0  0  0  0  0  0  0
    4.8073    3.1951    1.0804 H   0  0  0  0  0  0  0  0  0  0  0  0
    7.1404    7.6616    1.3780 H   0  0  0  0  0  0  0  0  0  0  0  0
    9.0620    5.3570    4.7220 H   0  0  0  0  0  0  0  0  0  0  0  0
    9.8348    1.1376    4.9441 H   0  0  0  0  0  0  0  0  0  0  0  0
    9.4596    1.2552    6.6789 H   0  0  0  0  0  0  0  0  0  0  0  0
   11.5250    2.5499    7.0191 H   0  0  0  0  0  0  0  0  0  0  0  0
   11.8584    2.5718    5.2943 H   0  0  0  0  0  0  0  0  0  0  0  0
   11.9359    0.0743    5.2512 H   0  0  0  0  0  0  0  0  0  0  0  0
   11.6407    0.0233    6.9818 H   0  0  0  0  0  0  0  0  0  0  0  0
   15.2639   -0.5258    6.3666 H   0  0  0  0  0  0  0  0  0  0  0  0
   13.8656   -1.2515    5.6075 H   0  0  0  0  0  0  0  0  0  0  0  0
   14.4784   -2.3180    7.7997 H   0  0  0  0  0  0  0  0  0  0  0  0
   12.8310   -1.6998    7.8263 H   0  0  0  0  0  0  0  0  0  0  0  0
   14.5069    0.6093   11.3491 H   0  0  0  0  0  0  0  0  0  0  0  0
   16.1498   -0.0582   11.2900 H   0  0  0  0  0  0  0  0  0  0  0  0
   14.8371   -0.9068   12.1507 H   0  0  0  0  0  0  0  0  0  0  0  0
   13.9142    1.4105    9.7225 H   0  0  0  0  0  0  0  0  0  0  0  0
   12.4917    0.6799    9.0006 H   0  0  0  0  0  0  0  0  0  0  0  0
   15.0540    1.5956    7.5643 H   0  0  0  0  0  0  0  0  0  0  0  0
   13.5659    2.4890    7.5623 H   0  0  0  0  0  0  0  0  0  0  0  0
    7.8916    1.2808    4.2929 H   0  0  0  0  0  0  0  0  0  0  0  0
    6.8195   -0.0375    3.1944 H   0  0  0  0  0  0  0  0  0  0  0  0
    4.0952    1.3310    3.7015 H   0  0  0  0  0  0  0  0  0  0  0  0
    5.4519    1.3963    4.8084 H   0  0  0  0  0  0  0  0  0  0  0  0
    4.6523   -0.1534    4.5183 H   0  0  0  0  0  0  0  0  0  0  0  0
    4.2805    0.0406    1.5138 H   0  0  0  0  0  0  0  0  0  0  0  0
    5.0005   -1.3850    2.2954 H   0  0  0  0  0  0  0  0  0  0  0  0
    5.8473   -0.5530    0.9717 H   0  0  0  0  0  0  0  0  0  0  0  0
  1  2  1  0  0  0  0
  1 38  1  0  0  0  0
  1 39  1  0  0  0  0
  1 40  1  0  0  0  0
  2  3  1  0  0  0  0
  3  4  1  0  0  0  0
  3 37  2  0  0  0  0
  4  5  2  0  0  0  0
  4 41  1  0  0  0  0
  5  6  1  0  0  0  0
  5 42  1  0  0  0  0
  6  7  1  0  0  0  0
  6  8  2  0  0  0  0
  8  9  1  0  0  0  0
  8 37  1  0  0  0  0
  9 10  1  0  0  0  0
  9 43  1  0  0  0  0
 10 11  1  0  0  0  0
 10 36  2  0  0  0  0
 11 12  2  0  0  0  0
 12 13  1  0  0  0  0
 12 44  1  0  0  0  0
 13 14  2  0  0  0  0
 14 15  1  0  0  0  0
 14 36  1  0  0  0  0
 15 16  2  0  0  0  0
 15 45  1  0  0  0  0
 16 17  1  0  0  0  0
 16 30  1  0  0  0  0
 17 18  1  0  0  0  0
 18 19  1  0  0  0  0
 18 46  1  0  0  0  0
 18 47  1  0  0  0  0
 19 20  1  0  0  0  0
 19 48  1  0  0  0  0
 19 49  1  0  0  0  0
 20 21  1  0  0  0  0
 20 50  1  0  0  0  0
 20 51  1  0  0  0  0
 21 22  1  0  0  0  0
 21 29  1  0  0  0  0
 22 23  1  0  0  0  0
 22 52  1  0  0  0  0
 22 53  1  0  0  0  0
 23 24  1  0  0  0  0
 23 54  1  0  0  0  0
 23 55  1  0  0  0  0
 24 25  1  0  0  0  0
 24 28  1  0  0  0  0
 25 26  1  0  0  0  0
 25 27  2  0  0  0  0
 26 56  1  0  0  0  0
 26 57  1  0  0  0  0
 26 58  1  0  0  0  0
 28 29  1  0  0  0  0
 28 59  1  0  0  0  0
 28 60  1  0  0  0  0
 29 61  1  0  0  0  0
 29 62  1  0  0  0  0
 30 31  2  0  0  0  0
 30 63  1  0  0  0  0
 31 32  1  0  0  0  0
 31 36  1  0  0  0  0
 32 33  1  0  0  0  0
 33 34  1  0  0  0  0
 33 35  1  0  0  0  0
 33 64  1  0  0  0  0
 34 65  1  0  0  0  0
 34 66  1  0  0  0  0
 34 67  1  0  0  0  0
 35 68  1  0  0  0  0
 35 69  1  0  0  0  0
 35 70  1  0  0  0  0
M  END
$$$$
