CHEMBL1999910
 OpenBabel04072215363D

 39 42  0  0  0  0  0  0  0  0999 V2000
    3.2986   -1.9573   -2.1748 O   0  0  0  0  0  0  0  0  0  0  0  0
    3.0458   -2.7761   -1.0078 S   0  0  0  0  0  0  0  0  0  0  0  0
    3.8715   -3.9222   -0.6984 O   0  0  0  0  0  0  0  0  0  0  0  0
    3.0146   -1.7190    0.3095 N   0  0  0  0  0  0  0  0  0  0  0  0
    2.7786   -2.2449    1.6085 C   0  0  0  0  0  0  0  0  0  0  0  0
    1.4761   -2.2277    2.1324 C   0  0  0  0  0  0  0  0  0  0  0  0
    1.2072   -2.7805    3.3871 C   0  0  0  0  0  0  0  0  0  0  0  0
    2.2597   -3.3274    4.1080 C   0  0  0  0  0  0  0  0  0  0  0  0
    3.5664   -3.3317    3.5777 C   0  0  0  0  0  0  0  0  0  0  0  0
    3.8389   -2.8082    2.3248 C   0  0  0  0  0  0  0  0  0  0  0  0
    4.4457   -3.9654    4.5979 C   0  0  0  0  0  0  0  0  0  0  0  0
    5.7191   -4.2060    4.6213 N   0  0  0  0  0  0  0  0  0  0  0  0
    6.3669   -3.7824    3.4631 O   0  0  0  0  0  0  0  0  0  0  0  0
    3.5710   -4.3283    5.7382 C   0  0  0  0  0  0  0  0  0  0  0  0
    3.8984   -4.9361    6.9377 C   0  0  0  0  0  0  0  0  0  0  0  0
    2.8632   -5.1612    7.8470 C   0  0  0  0  0  0  0  0  0  0  0  0
    1.5441   -4.7803    7.5398 C   0  0  0  0  0  0  0  0  0  0  0  0
    1.2365   -4.1654    6.3198 C   0  0  0  0  0  0  0  0  0  0  0  0
    2.2639   -3.9390    5.4178 C   0  0  0  0  0  0  0  0  0  0  0  0
    1.3601   -3.3425   -1.1289 C   0  0  0  0  0  0  0  0  0  0  0  0
    0.9533   -4.4743   -0.4137 C   0  0  0  0  0  0  0  0  0  0  0  0
   -0.3473   -4.9572   -0.5677 C   0  0  0  0  0  0  0  0  0  0  0  0
   -1.2270   -4.3251   -1.4481 C   0  0  0  0  0  0  0  0  0  0  0  0
   -0.8076   -3.2046   -2.1684 C   0  0  0  0  0  0  0  0  0  0  0  0
   -1.8917   -2.4457   -3.2672 Cl  0  0  0  0  0  0  0  0  0  0  0  0
    0.4836   -2.7056   -2.0144 C   0  0  0  0  0  0  0  0  0  0  0  0
    2.5951   -0.8202    0.0779 H   0  0  0  0  0  0  0  0  0  0  0  0
    0.6578   -1.7966    1.5607 H   0  0  0  0  0  0  0  0  0  0  0  0
    0.1961   -2.7780    3.7800 H   0  0  0  0  0  0  0  0  0  0  0  0
    4.8401   -2.8196    1.9101 H   0  0  0  0  0  0  0  0  0  0  0  0
    7.2858   -4.0657    3.6246 H   0  0  0  0  0  0  0  0  0  0  0  0
    4.9209   -5.2220    7.1595 H   0  0  0  0  0  0  0  0  0  0  0  0
    3.0773   -5.6346    8.8027 H   0  0  0  0  0  0  0  0  0  0  0  0
    0.7522   -4.9657    8.2631 H   0  0  0  0  0  0  0  0  0  0  0  0
    0.2143   -3.8761    6.0989 H   0  0  0  0  0  0  0  0  0  0  0  0
    1.6432   -4.9856    0.2559 H   0  0  0  0  0  0  0  0  0  0  0  0
   -0.6704   -5.8375   -0.0158 H   0  0  0  0  0  0  0  0  0  0  0  0
   -2.2322   -4.7181   -1.5815 H   0  0  0  0  0  0  0  0  0  0  0  0
    0.8059   -1.8457   -2.5972 H   0  0  0  0  0  0  0  0  0  0  0  0
  1  2  2  0  0  0  0
  2  3  2  0  0  0  0
  2  4  1  0  0  0  0
  2 20  1  0  0  0  0
  4  5  1  0  0  0  0
  4 27  1  0  0  0  0
  5  6  1  0  0  0  0
  5 10  2  0  0  0  0
  6  7  2  0  0  0  0
  6 28  1  0  0  0  0
  7  8  1  0  0  0  0
  7 29  1  0  0  0  0
  8  9  2  0  0  0  0
  8 19  1  0  0  0  0
  9 10  1  0  0  0  0
  9 11  1  0  0  0  0
 10 30  1  0  0  0  0
 11 12  2  3  0  0  0
 11 14  1  0  0  0  0
 12 13  1  0  0  0  0
 13 31  1  0  0  0  0
 14 15  1  0  0  0  0
 14 19  2  0  0  0  0
 15 16  2  0  0  0  0
 15 32  1  0  0  0  0
 16 17  1  0  0  0  0
 16 33  1  0  0  0  0
 17 18  2  0  0  0  0
 17 34  1  0  0  0  0
 18 19  1  0  0  0  0
 18 35  1  0  0  0  0
 20 21  1  0  0  0  0
 20 26  2  0  0  0  0
 21 22  2  0  0  0  0
 21 36  1  0  0  0  0
 22 23  1  0  0  0  0
 22 37  1  0  0  0  0
 23 24  2  0  0  0  0
 23 38  1  0  0  0  0
 24 25  1  0  0  0  0
 24 26  1  0  0  0  0
 26 39  1  0  0  0  0
M  END
$$$$
