CHEMBL3945277
 OpenBabel04072215373D

 68 70  0  0  1  0  0  0  0  0999 V2000
    2.0798   -3.9462    3.5701 C   0  0  0  0  0  0  0  0  0  0  0  0
    3.2407   -3.2244    3.7750 O   0  0  0  0  0  0  0  0  0  0  0  0
    3.6571   -2.1731    3.0211 C   0  0  0  0  0  0  0  0  0  0  0  0
    2.8665   -1.6559    1.9773 C   0  0  0  0  0  0  0  0  0  0  0  0
    3.3069   -0.5789    1.2216 C   0  0  0  0  0  0  0  0  0  0  0  0
    2.4925   -0.1055    0.2350 O   0  0  0  0  0  0  0  0  0  0  0  0
    2.7250    0.9964   -0.5687 C   0  0  0  0  0  0  0  0  0  0  0  0
    4.5614   -0.0171    1.5074 C   0  0  0  0  0  0  0  0  0  0  0  0
    5.4059   -0.5068    2.5557 C   0  0  0  0  0  0  0  0  0  0  0  0
    6.6802    0.1349    2.8785 N   0  0  0  0  0  0  0  0  0  0  0  0
    7.1277    1.3684    2.1187 C   0  0  0  0  0  0  0  0  0  0  0  0
    8.5336    1.1509    1.4578 C   0  0  3  0  0  0  0  0  0  0  0  0
    8.4051    0.0158    0.4357 C   0  0  0  0  0  0  0  0  0  0  0  0
    9.1063    2.3429    0.7755 N   0  0  0  0  0  0  0  0  0  0  0  0
    9.5721    3.5172    1.5625 C   0  0  0  0  0  0  0  0  0  0  0  0
   10.4741    3.1585    2.7498 C   0  0  0  0  0  0  0  0  0  0  0  0
   10.3834    4.4424    0.6392 C   0  0  0  0  0  0  0  0  0  0  0  0
    7.6753   -0.3265    3.8759 C   0  0  0  0  0  0  0  0  0  0  0  0
    8.3126    0.7410    4.5286 C   0  0  0  0  0  0  0  0  0  0  0  0
    9.5571    0.6219    5.0208 C   0  0  0  0  0  0  0  0  0  0  0  0
   10.1830   -0.5620    5.0189 C   0  0  0  0  0  0  0  0  0  0  0  0
   11.4959   -0.5121    5.2160 N   0  0  0  0  0  0  0  0  0  0  0  0
   12.2241   -1.5973    5.3705 C   0  0  0  0  0  0  0  0  0  0  0  0
   11.5651   -2.7860    5.6573 C   0  0  0  0  0  0  0  0  0  0  0  0
   12.2719   -3.4898    6.8302 C   0  0  0  0  0  0  0  0  0  0  0  0
   13.2483   -2.7998    7.5908 C   0  0  0  0  0  0  0  0  0  0  0  0
   13.5871   -3.4828    8.6776 N   0  0  0  0  0  0  0  0  0  0  0  0
   12.8842   -4.5929    8.6766 N   0  0  0  0  0  0  0  0  0  0  0  0
   12.9797   -5.4872    9.8180 C   0  0  0  0  0  0  0  0  0  0  0  0
   12.0850   -4.6651    7.5684 C   0  0  0  0  0  0  0  0  0  0  0  0
   10.2335   -2.9225    5.2126 N   0  0  0  0  0  0  0  0  0  0  0  0
    9.5334   -1.7798    4.7761 C   0  0  0  0  0  0  0  0  0  0  0  0
    8.2239   -1.6729    4.1081 C   0  0  0  0  0  0  0  0  0  0  0  0
    4.9117   -1.5928    3.3052 C   0  0  0  0  0  0  0  0  0  0  0  0
   -0.6227   -1.4388   -1.3970 Cl  0  0  0  0  0  0  0  0  0  0  0  0
    2.0131   -4.7517    4.3283 H   0  0  0  0  0  0  0  0  0  0  0  0
    2.0957   -4.4115    2.5605 H   0  0  0  0  0  0  0  0  0  0  0  0
    1.1861   -3.2921    3.6687 H   0  0  0  0  0  0  0  0  0  0  0  0
    1.8948   -2.0756    1.7452 H   0  0  0  0  0  0  0  0  0  0  0  0
    1.8859    1.1133   -1.2860 H   0  0  0  0  0  0  0  0  0  0  0  0
    3.6619    0.8645   -1.1509 H   0  0  0  0  0  0  0  0  0  0  0  0
    2.7866    1.9197    0.0479 H   0  0  0  0  0  0  0  0  0  0  0  0
    4.8156    0.8053    0.8830 H   0  0  0  0  0  0  0  0  0  0  0  0
    7.1549    2.2589    2.7692 H   0  0  0  0  0  0  0  0  0  0  0  0
    6.4662    1.7306    1.3328 H   0  0  0  0  0  0  0  0  0  0  0  0
    9.2678    0.8094    2.2071 H   0  0  0  0  0  0  0  0  0  0  0  0
    7.7924    0.3471   -0.4301 H   0  0  0  0  0  0  0  0  0  0  0  0
    7.9148   -0.8749    0.8838 H   0  0  0  0  0  0  0  0  0  0  0  0
    9.4087   -0.2934    0.0812 H   0  0  0  0  0  0  0  0  0  0  0  0
    8.4690    2.6667    0.0119 H   0  0  0  0  0  0  0  0  0  0  0  0
    8.6996    4.0907    1.9434 H   0  0  0  0  0  0  0  0  0  0  0  0
   11.3271    2.5171    2.4427 H   0  0  0  0  0  0  0  0  0  0  0  0
    9.8778    2.6642    3.5175 H   0  0  0  0  0  0  0  0  0  0  0  0
   10.8806    4.0798    3.2261 H   0  0  0  0  0  0  0  0  0  0  0  0
   11.2850    3.9168    0.2530 H   0  0  0  0  0  0  0  0  0  0  0  0
   10.7230    5.3486    1.1902 H   0  0  0  0  0  0  0  0  0  0  0  0
    9.7693    4.7776   -0.2205 H   0  0  0  0  0  0  0  0  0  0  0  0
    7.9413    1.7352    4.5259 H   0  0  0  0  0  0  0  0  0  0  0  0
   10.0857    1.5035    5.3506 H   0  0  0  0  0  0  0  0  0  0  0  0
   13.2687   -1.4204    5.5457 H   0  0  0  0  0  0  0  0  0  0  0  0
   13.6536   -1.8069    7.4669 H   0  0  0  0  0  0  0  0  0  0  0  0
   13.6285   -5.0159   10.5988 H   0  0  0  0  0  0  0  0  0  0  0  0
   13.4324   -6.4506    9.5257 H   0  0  0  0  0  0  0  0  0  0  0  0
   11.9767   -5.6137   10.2680 H   0  0  0  0  0  0  0  0  0  0  0  0
   11.3897   -5.4669    7.3737 H   0  0  0  0  0  0  0  0  0  0  0  0
    7.7473   -2.5643    3.7040 H   0  0  0  0  0  0  0  0  0  0  0  0
    5.4842   -1.9929    4.1262 H   0  0  0  0  0  0  0  0  0  0  0  0
    0.7431   -1.5747   -1.3174 H   0  0  0  0  0  0  0  0  0  0  0  0
  1  2  1  0  0  0  0
  1 36  1  0  0  0  0
  1 37  1  0  0  0  0
  1 38  1  0  0  0  0
  2  3  1  0  0  0  0
  3  4  1  0  0  0  0
  3 34  2  0  0  0  0
  4  5  2  0  0  0  0
  4 39  1  0  0  0  0
  5  6  1  0  0  0  0
  5  8  1  0  0  0  0
  6  7  1  0  0  0  0
  7 40  1  0  0  0  0
  7 41  1  0  0  0  0
  7 42  1  0  0  0  0
  8  9  2  0  0  0  0
  8 43  1  0  0  0  0
  9 10  1  0  0  0  0
  9 34  1  0  0  0  0
 10 11  1  0  0  0  0
 10 18  1  0  0  0  0
 11 12  1  0  0  0  0
 11 44  1  0  0  0  0
 11 45  1  0  0  0  0
 12 13  1  0  0  0  0
 12 14  1  0  0  0  0
 12 46  1  0  0  0  0
 13 47  1  0  0  0  0
 13 48  1  0  0  0  0
 13 49  1  0  0  0  0
 14 15  1  0  0  0  0
 14 50  1  0  0  0  0
 15 16  1  0  0  0  0
 15 17  1  0  0  0  0
 15 51  1  0  0  0  0
 16 52  1  0  0  0  0
 16 53  1  0  0  0  0
 16 54  1  0  0  0  0
 17 55  1  0  0  0  0
 17 56  1  0  0  0  0
 17 57  1  0  0  0  0
 18 19  1  0  0  0  0
 18 33  2  0  0  0  0
 19 20  2  0  0  0  0
 19 58  1  0  0  0  0
 20 21  1  0  0  0  0
 20 59  1  0  0  0  0
 21 22  1  0  0  0  0
 21 32  2  0  0  0  0
 22 23  2  0  0  0  0
 23 24  1  0  0  0  0
 23 60  1  0  0  0  0
 24 25  1  0  0  0  0
 24 31  2  0  0  0  0
 25 26  1  0  0  0  0
 25 30  2  0  0  0  0
 26 27  2  0  0  0  0
 26 61  1  0  0  0  0
 27 28  1  0  0  0  0
 28 29  1  0  0  0  0
 28 30  1  0  0  0  0
 29 62  1  0  0  0  0
 29 63  1  0  0  0  0
 29 64  1  0  0  0  0
 30 65  1  0  0  0  0
 31 32  1  0  0  0  0
 32 33  1  0  0  0  0
 33 66  1  0  0  0  0
 34 67  1  0  0  0  0
 35 68  1  0  0  0  0
M  END
$$$$
