CHEMBL3898568
 OpenBabel04072215373D

 62 66  0  0  1  0  0  0  0  0999 V2000
    0.8550    0.2047   -0.1248 C   0  0  0  0  0  0  0  0  0  0  0  0
    1.9545    0.7569   -0.8625 O   0  0  0  0  0  0  0  0  0  0  0  0
    2.7911    1.5902   -0.1582 C   0  0  0  0  0  0  0  0  0  0  0  0
    2.5345    2.0419    1.1277 C   0  0  0  0  0  0  0  0  0  0  0  0
    3.4515    2.8622    1.7806 C   0  0  0  0  0  0  0  0  0  0  0  0
    3.3216    3.3311    3.0584 O   0  0  0  0  0  0  0  0  0  0  0  0
    2.1942    2.8501    3.7706 C   0  0  0  0  0  0  0  0  0  0  0  0
    4.6393    3.2406    1.1633 C   0  0  0  0  0  0  0  0  0  0  0  0
    4.9881    2.7567   -0.0834 C   0  0  0  0  0  0  0  0  0  0  0  0
    6.3104    2.9785   -0.5597 N   0  0  0  0  0  0  0  0  0  0  0  0
    6.7485    1.8913   -1.5524 C   0  0  0  0  0  0  0  0  0  0  0  0
    8.0488    1.2313   -1.0662 C   0  0  0  0  0  0  0  0  0  0  0  0
    8.6853    0.2484   -1.9489 N   0  0  0  0  0  0  0  0  0  0  0  0
    9.9384   -0.2300   -1.3309 C   0  0  0  0  0  0  0  0  0  0  0  0
    9.9621   -1.7401   -1.5339 C   0  0  0  0  0  0  0  0  0  0  0  0
    8.9362   -1.9782   -2.6322 C   0  0  2  0  0  0  0  0  0  0  0  0
    9.5237   -1.7202   -3.9614 C   0  0  0  0  0  0  0  0  0  0  0  0
   10.0148   -1.5109   -4.9914 N   0  0  0  0  0  0  0  0  0  0  0  0
    7.8802   -0.9367   -2.2695 C   0  0  0  0  0  0  0  0  0  0  0  0
    7.2197    4.1128   -0.4340 C   0  0  0  0  0  0  0  0  0  0  0  0
    7.7495    4.4547   -1.6506 C   0  0  0  0  0  0  0  0  0  0  0  0
    8.8733    5.2008   -1.6969 C   0  0  0  0  0  0  0  0  0  0  0  0
    9.5066    5.5807   -0.5753 C   0  0  0  0  0  0  0  0  0  0  0  0
   10.7487    5.5626   -0.9371 N   0  0  0  0  0  0  0  0  0  0  0  0
   11.1705    6.7759   -1.0521 C   0  0  0  0  0  0  0  0  0  0  0  0
   11.1138    7.6319   -0.0239 C   0  0  0  0  0  0  0  0  0  0  0  0
   12.3710    8.5255   -0.2667 C   0  0  0  0  0  0  0  0  0  0  0  0
   12.7146    9.9359   -0.4439 C   0  0  0  0  0  0  0  0  0  0  0  0
   13.8108   10.1731   -1.1937 N   0  0  0  0  0  0  0  0  0  0  0  0
   14.2225    8.9501   -1.6175 N   0  0  0  0  0  0  0  0  0  0  0  0
   13.4345    7.9927   -1.0476 C   0  0  0  0  0  0  0  0  0  0  0  0
   10.0986    7.2561    0.9441 N   0  0  0  0  0  0  0  0  0  0  0  0
    9.0339    6.0645    0.5884 C   0  0  0  0  0  0  0  0  0  0  0  0
    7.7599    4.9709    0.6726 C   0  0  0  0  0  0  0  0  0  0  0  0
    3.9934    1.9826   -0.7701 C   0  0  0  0  0  0  0  0  0  0  0  0
    0.3443   -0.5432   -0.7396 H   0  0  0  0  0  0  0  0  0  0  0  0
    0.1238    0.9832    0.1223 H   0  0  0  0  0  0  0  0  0  0  0  0
    1.2002   -0.3069    0.7824 H   0  0  0  0  0  0  0  0  0  0  0  0
    1.6183    1.7563    1.6221 H   0  0  0  0  0  0  0  0  0  0  0  0
    2.2524    3.2420    4.7868 H   0  0  0  0  0  0  0  0  0  0  0  0
    2.1989    1.7552    3.8295 H   0  0  0  0  0  0  0  0  0  0  0  0
    1.2721    3.2189    3.3106 H   0  0  0  0  0  0  0  0  0  0  0  0
    5.3291    3.8684    1.7067 H   0  0  0  0  0  0  0  0  0  0  0  0
    6.8225    2.2549   -2.5864 H   0  0  0  0  0  0  0  0  0  0  0  0
    6.0297    1.0698   -1.6486 H   0  0  0  0  0  0  0  0  0  0  0  0
    7.8328    0.7693   -0.0962 H   0  0  0  0  0  0  0  0  0  0  0  0
    8.7934    2.0136   -0.8963 H   0  0  0  0  0  0  0  0  0  0  0  0
   10.0067   -0.0007   -0.2610 H   0  0  0  0  0  0  0  0  0  0  0  0
   10.7878    0.2476   -1.8308 H   0  0  0  0  0  0  0  0  0  0  0  0
    9.6235   -2.2264   -0.6087 H   0  0  0  0  0  0  0  0  0  0  0  0
   10.9639   -2.1125   -1.7669 H   0  0  0  0  0  0  0  0  0  0  0  0
    8.5352   -2.9961   -2.5914 H   0  0  0  0  0  0  0  0  0  0  0  0
    7.3192   -1.2758   -1.3880 H   0  0  0  0  0  0  0  0  0  0  0  0
    7.1708   -0.7525   -3.0836 H   0  0  0  0  0  0  0  0  0  0  0  0
    7.5153    3.9918   -2.5923 H   0  0  0  0  0  0  0  0  0  0  0  0
    9.3913    5.2575   -2.6513 H   0  0  0  0  0  0  0  0  0  0  0  0
   11.6268    6.9493   -2.0019 H   0  0  0  0  0  0  0  0  0  0  0  0
   12.2158   10.8447   -0.1312 H   0  0  0  0  0  0  0  0  0  0  0  0
   14.9642    8.8618   -2.3115 H   0  0  0  0  0  0  0  0  0  0  0  0
   13.6079    6.9781   -1.3827 H   0  0  0  0  0  0  0  0  0  0  0  0
    7.3523    4.8033    1.6887 H   0  0  0  0  0  0  0  0  0  0  0  0
    4.1274    1.6592   -1.8030 H   0  0  0  0  0  0  0  0  0  0  0  0
  1  2  1  0  0  0  0
  1 36  1  0  0  0  0
  1 37  1  0  0  0  0
  1 38  1  0  0  0  0
  2  3  1  0  0  0  0
  3  4  1  0  0  0  0
  3 35  2  0  0  0  0
  4  5  2  0  0  0  0
  4 39  1  0  0  0  0
  5  6  1  0  0  0  0
  5  8  1  0  0  0  0
  6  7  1  0  0  0  0
  7 40  1  0  0  0  0
  7 41  1  0  0  0  0
  7 42  1  0  0  0  0
  8  9  2  0  0  0  0
  8 43  1  0  0  0  0
  9 10  1  0  0  0  0
  9 35  1  0  0  0  0
 10 11  1  0  0  0  0
 10 20  1  0  0  0  0
 11 12  1  0  0  0  0
 11 44  1  0  0  0  0
 11 45  1  0  0  0  0
 12 13  1  0  0  0  0
 12 46  1  0  0  0  0
 12 47  1  0  0  0  0
 13 14  1  0  0  0  0
 13 19  1  0  0  0  0
 14 15  1  0  0  0  0
 14 48  1  0  0  0  0
 14 49  1  0  0  0  0
 15 16  1  0  0  0  0
 15 50  1  0  0  0  0
 15 51  1  0  0  0  0
 16 17  1  0  0  0  0
 16 19  1  0  0  0  0
 16 52  1  1  0  0  0
 17 18  3  0  0  0  0
 19 53  1  0  0  0  0
 19 54  1  0  0  0  0
 20 21  1  0  0  0  0
 20 34  2  0  0  0  0
 21 22  2  0  0  0  0
 21 55  1  0  0  0  0
 22 23  1  0  0  0  0
 22 56  1  0  0  0  0
 23 24  1  0  0  0  0
 23 33  2  0  0  0  0
 24 25  2  0  0  0  0
 25 26  1  0  0  0  0
 25 57  1  0  0  0  0
 26 27  1  0  0  0  0
 26 32  2  0  0  0  0
 27 28  1  0  0  0  0
 27 31  2  0  0  0  0
 28 29  2  0  0  0  0
 28 58  1  0  0  0  0
 29 30  1  0  0  0  0
 30 31  1  0  0  0  0
 30 59  1  0  0  0  0
 31 60  1  0  0  0  0
 32 33  1  0  0  0  0
 33 34  1  0  0  0  0
 34 61  1  0  0  0  0
 35 62  1  0  0  0  0
M  END
$$$$
