CHEMBL3979670
 OpenBabel04072215373D

 67 70  0  0  0  0  0  0  0  0999 V2000
    0.4681    1.0461    0.3003 C   0  0  0  0  0  0  0  0  0  0  0  0
    1.8348    1.2292    0.0983 O   0  0  0  0  0  0  0  0  0  0  0  0
    2.7749    1.3884    1.0860 C   0  0  0  0  0  0  0  0  0  0  0  0
    2.4813    1.1222    2.4212 C   0  0  0  0  0  0  0  0  0  0  0  0
    3.4362    1.3145    3.4132 C   0  0  0  0  0  0  0  0  0  0  0  0
    3.0912    1.0341    4.6846 O   0  0  0  0  0  0  0  0  0  0  0  0
    3.9326    1.1870    5.7621 C   0  0  0  0  0  0  0  0  0  0  0  0
    4.7351    1.7721    3.0873 C   0  0  0  0  0  0  0  0  0  0  0  0
    5.1113    1.9994    1.7887 C   0  0  0  0  0  0  0  0  0  0  0  0
    6.4781    2.4118    1.4792 N   0  0  0  0  0  0  0  0  0  0  0  0
    6.8911    2.0618    0.0521 C   0  0  0  0  0  0  0  0  0  0  0  0
    8.2214    1.2818    0.0635 C   0  0  0  0  0  0  0  0  0  0  0  0
    8.8224    0.9863   -1.2654 N   0  0  0  0  0  0  0  0  0  0  0  0
    9.2147    2.2306   -1.9943 C   0  0  0  0  0  0  0  0  0  0  0  0
   10.3095    2.0283   -3.0320 C   0  0  0  0  0  0  0  0  0  0  0  0
   10.9605    0.8665   -3.1851 C   0  0  0  0  0  0  0  0  0  0  0  0
   10.6732   -0.3069   -2.3039 C   0  0  0  0  0  0  0  0  0  0  0  0
   10.0081    0.1445   -1.0067 C   0  0  0  0  0  0  0  0  0  0  0  0
    7.4481    3.2141    2.3059 C   0  0  0  0  0  0  0  0  0  0  0  0
    8.0518    4.1235    1.4743 C   0  0  0  0  0  0  0  0  0  0  0  0
    9.0998    4.8468    1.7883 C   0  0  0  0  0  0  0  0  0  0  0  0
    9.6398    4.8263    2.9921 C   0  0  0  0  0  0  0  0  0  0  0  0
   10.7709    5.4683    2.9695 N   0  0  0  0  0  0  0  0  0  0  0  0
   11.4896    5.6935    4.0032 C   0  0  0  0  0  0  0  0  0  0  0  0
   11.0484    5.4327    5.2917 C   0  0  0  0  0  0  0  0  0  0  0  0
   12.0897    6.3043    6.2214 C   0  0  0  0  0  0  0  0  0  0  0  0
   12.5999    7.4981    5.6119 C   0  0  0  0  0  0  0  0  0  0  0  0
   13.5213    8.1036    6.3346 N   0  0  0  0  0  0  0  0  0  0  0  0
   13.6657    7.4510    7.4551 N   0  0  0  0  0  0  0  0  0  0  0  0
   14.7007    7.9748    8.3724 C   0  0  0  0  0  0  0  0  0  0  0  0
   12.7828    6.3716    7.4924 C   0  0  0  0  0  0  0  0  0  0  0  0
    9.8882    4.5355    5.3497 N   0  0  0  0  0  0  0  0  0  0  0  0
    9.1558    4.1817    4.1449 C   0  0  0  0  0  0  0  0  0  0  0  0
    7.9575    3.2596    3.7662 C   0  0  0  0  0  0  0  0  0  0  0  0
    4.0821    1.8073    0.7697 C   0  0  0  0  0  0  0  0  0  0  0  0
    2.0178   -0.9779   -2.0969 Cl  0  0  0  0  0  0  0  0  0  0  0  0
   -0.0156    0.7934   -0.6701 H   0  0  0  0  0  0  0  0  0  0  0  0
    0.0257    1.9774    0.6910 H   0  0  0  0  0  0  0  0  0  0  0  0
    0.2706    0.1962    0.9822 H   0  0  0  0  0  0  0  0  0  0  0  0
    1.5063    0.7603    2.7099 H   0  0  0  0  0  0  0  0  0  0  0  0
    3.4075    0.8578    6.6727 H   0  0  0  0  0  0  0  0  0  0  0  0
    4.1993    2.2624    5.8549 H   0  0  0  0  0  0  0  0  0  0  0  0
    4.8420    0.5699    5.6148 H   0  0  0  0  0  0  0  0  0  0  0  0
    5.4691    1.9187    3.8517 H   0  0  0  0  0  0  0  0  0  0  0  0
    6.9452    2.9408   -0.6200 H   0  0  0  0  0  0  0  0  0  0  0  0
    6.1968    1.4204   -0.5167 H   0  0  0  0  0  0  0  0  0  0  0  0
    7.9807    0.3289    0.5791 H   0  0  0  0  0  0  0  0  0  0  0  0
    8.9707    1.8235    0.6746 H   0  0  0  0  0  0  0  0  0  0  0  0
    9.5681    3.0221   -1.2986 H   0  0  0  0  0  0  0  0  0  0  0  0
    8.3220    2.6089   -2.5381 H   0  0  0  0  0  0  0  0  0  0  0  0
   10.5760    2.8578   -3.6819 H   0  0  0  0  0  0  0  0  0  0  0  0
   11.7076    0.7643   -3.9681 H   0  0  0  0  0  0  0  0  0  0  0  0
   11.6268   -0.8040   -2.0195 H   0  0  0  0  0  0  0  0  0  0  0  0
   10.0490   -1.0310   -2.8680 H   0  0  0  0  0  0  0  0  0  0  0  0
   10.7503    0.7219   -0.4081 H   0  0  0  0  0  0  0  0  0  0  0  0
    9.7286   -0.7676   -0.4347 H   0  0  0  0  0  0  0  0  0  0  0  0
    7.7830    4.3056    0.4760 H   0  0  0  0  0  0  0  0  0  0  0  0
    9.5343    5.4431    1.0080 H   0  0  0  0  0  0  0  0  0  0  0  0
   12.3837    6.1800    3.7245 H   0  0  0  0  0  0  0  0  0  0  0  0
   12.3565    7.9448    4.6601 H   0  0  0  0  0  0  0  0  0  0  0  0
   15.2558    8.8216    7.8689 H   0  0  0  0  0  0  0  0  0  0  0  0
   15.4879    7.2299    8.5996 H   0  0  0  0  0  0  0  0  0  0  0  0
   14.2627    8.4241    9.2835 H   0  0  0  0  0  0  0  0  0  0  0  0
   12.7413    5.6942    8.3332 H   0  0  0  0  0  0  0  0  0  0  0  0
    7.5247    2.6019    4.5264 H   0  0  0  0  0  0  0  0  0  0  0  0
    4.2560    2.0095   -0.2828 H   0  0  0  0  0  0  0  0  0  0  0  0
    1.7342   -1.2793   -0.7831 H   0  0  0  0  0  0  0  0  0  0  0  0
  1  2  1  0  0  0  0
  1 37  1  0  0  0  0
  1 38  1  0  0  0  0
  1 39  1  0  0  0  0
  2  3  1  0  0  0  0
  3  4  1  0  0  0  0
  3 35  2  0  0  0  0
  4  5  2  0  0  0  0
  4 40  1  0  0  0  0
  5  6  1  0  0  0  0
  5  8  1  0  0  0  0
  6  7  1  0  0  0  0
  7 41  1  0  0  0  0
  7 42  1  0  0  0  0
  7 43  1  0  0  0  0
  8  9  2  0  0  0  0
  8 44  1  0  0  0  0
  9 10  1  0  0  0  0
  9 35  1  0  0  0  0
 10 11  1  0  0  0  0
 10 19  1  0  0  0  0
 11 12  1  0  0  0  0
 11 45  1  0  0  0  0
 11 46  1  0  0  0  0
 12 13  1  0  0  0  0
 12 47  1  0  0  0  0
 12 48  1  0  0  0  0
 13 14  1  0  0  0  0
 13 18  1  0  0  0  0
 14 15  1  0  0  0  0
 14 49  1  0  0  0  0
 14 50  1  0  0  0  0
 15 16  2  0  0  0  0
 15 51  1  0  0  0  0
 16 17  1  0  0  0  0
 16 52  1  0  0  0  0
 17 18  1  0  0  0  0
 17 53  1  0  0  0  0
 17 54  1  0  0  0  0
 18 55  1  0  0  0  0
 18 56  1  0  0  0  0
 19 20  1  0  0  0  0
 19 34  2  0  0  0  0
 20 21  2  0  0  0  0
 20 57  1  0  0  0  0
 21 22  1  0  0  0  0
 21 58  1  0  0  0  0
 22 23  1  0  0  0  0
 22 33  2  0  0  0  0
 23 24  2  0  0  0  0
 24 25  1  0  0  0  0
 24 59  1  0  0  0  0
 25 26  1  0  0  0  0
 25 32  2  0  0  0  0
 26 27  1  0  0  0  0
 26 31  2  0  0  0  0
 27 28  2  0  0  0  0
 27 60  1  0  0  0  0
 28 29  1  0  0  0  0
 29 30  1  0  0  0  0
 29 31  1  0  0  0  0
 30 61  1  0  0  0  0
 30 62  1  0  0  0  0
 30 63  1  0  0  0  0
 31 64  1  0  0  0  0
 32 33  1  0  0  0  0
 33 34  1  0  0  0  0
 34 65  1  0  0  0  0
 35 66  1  0  0  0  0
 36 67  1  0  0  0  0
M  END
$$$$
