CHEMBL3928627
 OpenBabel04072215373D

 49 53  0  0  0  0  0  0  0  0999 V2000
    0.7963   -0.0936   -0.0951 C   0  0  0  0  0  0  0  0  0  0  0  0
    2.0321    0.6091   -0.1373 O   0  0  0  0  0  0  0  0  0  0  0  0
    2.8238    0.5692    0.9785 C   0  0  0  0  0  0  0  0  0  0  0  0
    2.5733   -0.1302    2.1406 C   0  0  0  0  0  0  0  0  0  0  0  0
    3.5253   -0.0780    3.1486 C   0  0  0  0  0  0  0  0  0  0  0  0
    3.3400   -0.8210    4.2494 F   0  0  0  0  0  0  0  0  0  0  0  0
    4.6737    0.7239    3.0541 C   0  0  0  0  0  0  0  0  0  0  0  0
    4.9213    1.5330    1.9385 C   0  0  0  0  0  0  0  0  0  0  0  0
    6.0086    2.4534    1.8589 N   0  0  0  0  0  0  0  0  0  0  0  0
    6.8970    2.7164    3.0308 C   0  0  0  0  0  0  0  0  0  0  0  0
    6.2542    3.0880    4.3485 C   0  0  0  0  0  0  0  0  0  0  0  0
    5.3263    4.2604    4.5468 C   0  0  0  0  0  0  0  0  0  0  0  0
    6.7319    4.3512    5.0492 C   0  0  0  0  0  0  0  0  0  0  0  0
    6.5536    3.0211    0.6552 C   0  0  0  0  0  0  0  0  0  0  0  0
    5.7380    3.5645   -0.3419 C   0  0  0  0  0  0  0  0  0  0  0  0
    6.2609    4.0192   -1.5562 C   0  0  0  0  0  0  0  0  0  0  0  0
    7.6242    4.0913   -1.7588 C   0  0  0  0  0  0  0  0  0  0  0  0
    8.0690    4.6151   -2.9125 N   0  0  0  0  0  0  0  0  0  0  0  0
    9.4105    4.7647   -3.0118 C   0  0  0  0  0  0  0  0  0  0  0  0
   10.2848    4.4035   -2.0007 C   0  0  0  0  0  0  0  0  0  0  0  0
   11.7131    4.6726   -2.1092 C   0  0  0  0  0  0  0  0  0  0  0  0
   12.4628    5.2814   -3.1440 C   0  0  0  0  0  0  0  0  0  0  0  0
   13.7614    5.3652   -2.8548 N   0  0  0  0  0  0  0  0  0  0  0  0
   13.8560    4.8172   -1.6284 N   0  0  0  0  0  0  0  0  0  0  0  0
   12.6513    4.3941   -1.1452 C   0  0  0  0  0  0  0  0  0  0  0  0
    9.8369    3.8209   -0.8587 N   0  0  0  0  0  0  0  0  0  0  0  0
    8.5002    3.6639   -0.7389 C   0  0  0  0  0  0  0  0  0  0  0  0
    7.9504    3.0940    0.4138 C   0  0  0  0  0  0  0  0  0  0  0  0
    4.0001    1.3379    0.8829 C   0  0  0  0  0  0  0  0  0  0  0  0
    0.3116    0.0276   -1.0694 H   0  0  0  0  0  0  0  0  0  0  0  0
    0.1275    0.3259    0.6635 H   0  0  0  0  0  0  0  0  0  0  0  0
    0.9558   -1.1645    0.0643 H   0  0  0  0  0  0  0  0  0  0  0  0
    1.6896   -0.7382    2.2840 H   0  0  0  0  0  0  0  0  0  0  0  0
    5.3670    0.6561    3.8815 H   0  0  0  0  0  0  0  0  0  0  0  0
    7.5415    3.5771    2.8052 H   0  0  0  0  0  0  0  0  0  0  0  0
    7.5703    1.8641    3.1807 H   0  0  0  0  0  0  0  0  0  0  0  0
    6.1430    2.2300    5.0005 H   0  0  0  0  0  0  0  0  0  0  0  0
    4.5433    4.1693    5.2922 H   0  0  0  0  0  0  0  0  0  0  0  0
    5.0515    4.8531    3.6821 H   0  0  0  0  0  0  0  0  0  0  0  0
    6.9094    4.2957    6.1198 H   0  0  0  0  0  0  0  0  0  0  0  0
    7.4066    5.0285    4.5372 H   0  0  0  0  0  0  0  0  0  0  0  0
    4.6654    3.6696   -0.1914 H   0  0  0  0  0  0  0  0  0  0  0  0
    5.5826    4.3618   -2.3358 H   0  0  0  0  0  0  0  0  0  0  0  0
    9.7416    5.2130   -3.9401 H   0  0  0  0  0  0  0  0  0  0  0  0
   12.1242    5.6707   -4.0902 H   0  0  0  0  0  0  0  0  0  0  0  0
   14.7667    4.7653   -1.1901 H   0  0  0  0  0  0  0  0  0  0  0  0
   12.5688    3.9462   -0.1579 H   0  0  0  0  0  0  0  0  0  0  0  0
    8.6597    2.7078    1.1420 H   0  0  0  0  0  0  0  0  0  0  0  0
    4.1540    1.7766   -0.0924 H   0  0  0  0  0  0  0  0  0  0  0  0
  1  2  1  0  0  0  0
  1 30  1  0  0  0  0
  1 31  1  0  0  0  0
  1 32  1  0  0  0  0
  2  3  1  0  0  0  0
  3  4  1  0  0  0  0
  3 29  2  0  0  0  0
  4  5  2  0  0  0  0
  4 33  1  0  0  0  0
  5  6  1  0  0  0  0
  5  7  1  0  0  0  0
  7  8  2  0  0  0  0
  7 34  1  0  0  0  0
  8  9  1  0  0  0  0
  8 29  1  0  0  0  0
  9 10  1  0  0  0  0
  9 14  1  0  0  0  0
 10 11  1  0  0  0  0
 10 35  1  0  0  0  0
 10 36  1  0  0  0  0
 11 12  1  0  0  0  0
 11 13  1  0  0  0  0
 11 37  1  0  0  0  0
 12 13  1  0  0  0  0
 12 38  1  0  0  0  0
 12 39  1  0  0  0  0
 13 40  1  0  0  0  0
 13 41  1  0  0  0  0
 14 15  1  0  0  0  0
 14 28  2  0  0  0  0
 15 16  2  0  0  0  0
 15 42  1  0  0  0  0
 16 17  1  0  0  0  0
 16 43  1  0  0  0  0
 17 18  1  0  0  0  0
 17 27  2  0  0  0  0
 18 19  2  0  0  0  0
 19 20  1  0  0  0  0
 19 44  1  0  0  0  0
 20 21  1  0  0  0  0
 20 26  2  0  0  0  0
 21 22  1  0  0  0  0
 21 25  2  0  0  0  0
 22 23  2  0  0  0  0
 22 45  1  0  0  0  0
 23 24  1  0  0  0  0
 24 25  1  0  0  0  0
 24 46  1  0  0  0  0
 25 47  1  0  0  0  0
 26 27  1  0  0  0  0
 27 28  1  0  0  0  0
 28 48  1  0  0  0  0
 29 49  1  0  0  0  0
M  END
$$$$
