CHEMBL4075266
 OpenBabel04072215383D

 58 62  0  0  0  0  0  0  0  0999 V2000
   -3.7893    4.4165   -3.9430 N   0  0  0  0  0  0  0  0  0  0  0  0
   -4.6001    3.4955   -3.4053 C   0  0  0  0  0  0  0  0  0  0  0  0
   -5.5547    2.9507   -4.1543 N   0  0  0  0  0  0  0  0  0  0  0  0
   -6.1575    2.0939   -3.3308 N   0  0  0  0  0  0  0  0  0  0  0  0
   -5.6268    2.0494   -2.0715 C   0  0  0  0  0  0  0  0  0  0  0  0
   -6.0085    1.2758   -0.9724 C   0  0  0  0  0  0  0  0  0  0  0  0
   -5.2723    1.4234    0.1953 C   0  0  0  0  0  0  0  0  0  0  0  0
   -4.2031    2.3150    0.2499 C   0  0  0  0  0  0  0  0  0  0  0  0
   -3.8168    3.1209   -0.8540 C   0  0  0  0  0  0  0  0  0  0  0  0
   -2.7073    4.0896   -0.7087 C   0  0  0  0  0  0  0  0  0  0  0  0
   -1.7529    4.2867   -1.7097 C   0  0  0  0  0  0  0  0  0  0  0  0
   -0.8160    5.3245   -1.6355 C   0  0  0  0  0  0  0  0  0  0  0  0
   -0.7248    6.1223   -0.4972 C   0  0  0  0  0  0  0  0  0  0  0  0
    0.1883    7.1892   -0.3801 N   0  0  0  0  0  0  0  0  0  0  0  0
    0.8360    7.8046   -1.4308 C   0  0  0  0  0  0  0  0  0  0  0  0
    0.6541    7.6224   -2.6275 O   0  0  0  0  0  0  0  0  0  0  0  0
    1.9120    8.7593   -1.0273 C   0  0  0  0  0  0  0  0  0  0  0  0
    3.2183    8.1115   -0.7061 C   0  0  0  0  0  0  0  0  0  0  0  0
    3.5661    8.0631    0.4646 O   0  0  0  0  0  0  0  0  0  0  0  0
    3.8769    7.6078   -1.8117 N   0  0  0  0  0  0  0  0  0  0  0  0
    5.1458    6.9962   -1.8241 C   0  0  0  0  0  0  0  0  0  0  0  0
    5.9365    6.8804   -0.6816 C   0  0  0  0  0  0  0  0  0  0  0  0
    7.2024    6.2828   -0.7250 C   0  0  0  0  0  0  0  0  0  0  0  0
    8.0274    6.1647    0.5336 C   0  0  0  0  0  0  0  0  0  0  0  0
    7.3957    6.6162    1.6517 F   0  0  0  0  0  0  0  0  0  0  0  0
    8.3795    4.8765    0.7995 F   0  0  0  0  0  0  0  0  0  0  0  0
    9.1925    6.8643    0.4547 F   0  0  0  0  0  0  0  0  0  0  0  0
    7.6821    5.7991   -1.9491 C   0  0  0  0  0  0  0  0  0  0  0  0
    6.9012    5.8882   -3.1128 C   0  0  0  0  0  0  0  0  0  0  0  0
    7.4012    5.3329   -4.4270 C   0  0  0  0  0  0  0  0  0  0  0  0
    8.6298    4.7526   -4.3421 F   0  0  0  0  0  0  0  0  0  0  0  0
    6.5759    4.3745   -4.9288 F   0  0  0  0  0  0  0  0  0  0  0  0
    7.5015    6.2841   -5.3944 F   0  0  0  0  0  0  0  0  0  0  0  0
    5.6321    6.4953   -3.0382 C   0  0  0  0  0  0  0  0  0  0  0  0
    1.5751   10.0545   -0.2873 C   0  0  0  0  0  0  0  0  0  0  0  0
    1.9462   10.1127   -1.7327 C   0  0  0  0  0  0  0  0  0  0  0  0
   -1.5562    5.8366    0.5830 C   0  0  0  0  0  0  0  0  0  0  0  0
   -2.5548    4.8579    0.4630 C   0  0  0  0  0  0  0  0  0  0  0  0
   -4.5691    2.9674   -2.0647 C   0  0  0  0  0  0  0  0  0  0  0  0
   -4.0038    4.7241   -4.8845 H   0  0  0  0  0  0  0  0  0  0  0  0
   -3.2985    5.1018   -3.3840 H   0  0  0  0  0  0  0  0  0  0  0  0
   -6.9372    1.5556   -3.6888 H   0  0  0  0  0  0  0  0  0  0  0  0
   -6.8412    0.5815   -1.0244 H   0  0  0  0  0  0  0  0  0  0  0  0
   -5.5318    0.8370    1.0739 H   0  0  0  0  0  0  0  0  0  0  0  0
   -3.6489    2.3799    1.1853 H   0  0  0  0  0  0  0  0  0  0  0  0
   -1.7476    3.6532   -2.5955 H   0  0  0  0  0  0  0  0  0  0  0  0
   -0.1557    5.4658   -2.4862 H   0  0  0  0  0  0  0  0  0  0  0  0
    0.3629    7.5490    0.5525 H   0  0  0  0  0  0  0  0  0  0  0  0
    3.3788    7.6631   -2.6965 H   0  0  0  0  0  0  0  0  0  0  0  0
    5.5930    7.2542    0.2787 H   0  0  0  0  0  0  0  0  0  0  0  0
    8.6702    5.3386   -1.9910 H   0  0  0  0  0  0  0  0  0  0  0  0
    5.0263    6.5629   -3.9429 H   0  0  0  0  0  0  0  0  0  0  0  0
    2.2942   10.4418    0.4240 H   0  0  0  0  0  0  0  0  0  0  0  0
    0.5442   10.2544   -0.0205 H   0  0  0  0  0  0  0  0  0  0  0  0
    2.9108   10.5267   -2.0078 H   0  0  0  0  0  0  0  0  0  0  0  0
    1.1576   10.3437   -2.4496 H   0  0  0  0  0  0  0  0  0  0  0  0
   -1.4849    6.3985    1.5104 H   0  0  0  0  0  0  0  0  0  0  0  0
   -3.2334    4.7185    1.3029 H   0  0  0  0  0  0  0  0  0  0  0  0
  1  2  1  0  0  0  0
  1 40  1  0  0  0  0
  1 41  1  0  0  0  0
  2  3  2  0  0  0  0
  2 39  1  0  0  0  0
  3  4  1  0  0  0  0
  4  5  1  0  0  0  0
  4 42  1  0  0  0  0
  5  6  1  0  0  0  0
  5 39  2  0  0  0  0
  6  7  2  0  0  0  0
  6 43  1  0  0  0  0
  7  8  1  0  0  0  0
  7 44  1  0  0  0  0
  8  9  2  0  0  0  0
  8 45  1  0  0  0  0
  9 10  1  0  0  0  0
  9 39  1  0  0  0  0
 10 11  1  0  0  0  0
 10 38  2  0  0  0  0
 11 12  2  0  0  0  0
 11 46  1  0  0  0  0
 12 13  1  0  0  0  0
 12 47  1  0  0  0  0
 13 14  1  0  0  0  0
 13 37  2  0  0  0  0
 14 15  1  0  0  0  0
 14 48  1  0  0  0  0
 15 16  2  0  0  0  0
 15 17  1  0  0  0  0
 17 18  1  0  0  0  0
 17 35  1  0  0  0  0
 17 36  1  0  0  0  0
 18 19  2  0  0  0  0
 18 20  1  0  0  0  0
 20 21  1  0  0  0  0
 20 49  1  0  0  0  0
 21 22  1  0  0  0  0
 21 34  2  0  0  0  0
 22 23  2  0  0  0  0
 22 50  1  0  0  0  0
 23 24  1  0  0  0  0
 23 28  1  0  0  0  0
 24 25  1  0  0  0  0
 24 26  1  0  0  0  0
 24 27  1  0  0  0  0
 28 29  2  0  0  0  0
 28 51  1  0  0  0  0
 29 30  1  0  0  0  0
 29 34  1  0  0  0  0
 30 31  1  0  0  0  0
 30 32  1  0  0  0  0
 30 33  1  0  0  0  0
 34 52  1  0  0  0  0
 35 36  1  0  0  0  0
 35 53  1  0  0  0  0
 35 54  1  0  0  0  0
 36 55  1  0  0  0  0
 36 56  1  0  0  0  0
 37 38  1  0  0  0  0
 37 57  1  0  0  0  0
 38 58  1  0  0  0  0
M  END
$$$$
