CHEMBL4175773
 OpenBabel04072215383D

 54 56  0  0  0  0  0  0  0  0999 V2000
    1.0713    0.2363   -0.1159 C   0  0  0  0  0  0  0  0  0  0  0  0
    2.4028    0.2812   -0.0166 C   0  0  0  0  0  0  0  0  0  0  0  0
    3.0383    0.3888    1.3249 C   0  0  0  0  0  0  0  0  0  0  0  0
    2.3846    0.2628    2.3539 O   0  0  0  0  0  0  0  0  0  0  0  0
    4.3744    0.7012    1.2467 N   0  0  0  0  0  0  0  0  0  0  0  0
    5.1577    0.9238    2.3789 C   0  0  0  0  0  0  0  0  0  0  0  0
    5.0426    0.1259    3.5054 C   0  0  0  0  0  0  0  0  0  0  0  0
    5.8222    0.4302    4.6162 C   0  0  0  0  0  0  0  0  0  0  0  0
    6.6968    1.5278    4.6016 C   0  0  0  0  0  0  0  0  0  0  0  0
    7.5578    1.8321    5.7575 C   0  0  0  0  0  0  0  0  0  0  0  0
    8.1301    0.7764    6.4695 C   0  0  0  0  0  0  0  0  0  0  0  0
    8.9355    0.9946    7.5822 C   0  0  0  0  0  0  0  0  0  0  0  0
    9.2168    2.2808    8.0435 C   0  0  0  0  0  0  0  0  0  0  0  0
   10.0244    2.5211    9.1915 N   0  0  0  0  0  0  0  0  0  0  0  0
   10.4878    1.5344   10.0460 C   0  0  0  0  0  0  0  0  0  0  0  0
   10.1944    0.3481    9.9420 O   0  0  0  0  0  0  0  0  0  0  0  0
   11.3302    2.0035   11.0437 N   0  0  0  0  0  0  0  0  0  0  0  0
   12.0349    1.1328   11.9291 C   0  0  0  0  0  0  0  0  0  0  0  0
   12.3209   -0.1943   11.5901 C   0  0  0  0  0  0  0  0  0  0  0  0
   12.9303   -1.0616   12.4910 C   0  0  0  0  0  0  0  0  0  0  0  0
   13.3052   -0.5928   13.7480 C   0  0  0  0  0  0  0  0  0  0  0  0
   13.0899    0.7491   14.0973 C   0  0  0  0  0  0  0  0  0  0  0  0
   13.5614    1.2701   15.4469 C   0  0  0  0  0  0  0  0  0  0  0  0
   12.9362    0.5042   16.6162 C   0  0  0  0  0  0  0  0  0  0  0  0
   15.0914    1.2282   15.5359 C   0  0  0  0  0  0  0  0  0  0  0  0
   12.4543    1.6087   13.1766 C   0  0  0  0  0  0  0  0  0  0  0  0
    8.6801    3.3562    7.3271 C   0  0  0  0  0  0  0  0  0  0  0  0
    7.8553    3.1328    6.2017 C   0  0  0  0  0  0  0  0  0  0  0  0
    6.7413    2.2449    3.4075 C   0  0  0  0  0  0  0  0  0  0  0  0
    6.0295    1.9471    2.2882 N   0  0  0  0  0  0  0  0  0  0  0  0
    0.5846    0.1318   -1.0813 H   0  0  0  0  0  0  0  0  0  0  0  0
    0.4279    0.3062    0.7595 H   0  0  0  0  0  0  0  0  0  0  0  0
    3.0360    0.2069   -0.8876 H   0  0  0  0  0  0  0  0  0  0  0  0
    4.7233    1.1556    0.4162 H   0  0  0  0  0  0  0  0  0  0  0  0
    4.3801   -0.7336    3.5285 H   0  0  0  0  0  0  0  0  0  0  0  0
    5.7307   -0.2039    5.4958 H   0  0  0  0  0  0  0  0  0  0  0  0
    7.9688   -0.2575    6.1672 H   0  0  0  0  0  0  0  0  0  0  0  0
    9.3311    0.1019    8.0504 H   0  0  0  0  0  0  0  0  0  0  0  0
   10.2440    3.4804    9.4095 H   0  0  0  0  0  0  0  0  0  0  0  0
   11.2047    2.9592   11.3436 H   0  0  0  0  0  0  0  0  0  0  0  0
   12.0772   -0.6008   10.6114 H   0  0  0  0  0  0  0  0  0  0  0  0
   13.1045   -2.0965   12.2160 H   0  0  0  0  0  0  0  0  0  0  0  0
   13.7825   -1.2820   14.4372 H   0  0  0  0  0  0  0  0  0  0  0  0
   13.2542    2.3186   15.5453 H   0  0  0  0  0  0  0  0  0  0  0  0
   13.2195   -0.5546   16.6175 H   0  0  0  0  0  0  0  0  0  0  0  0
   11.8435    0.5554   16.5851 H   0  0  0  0  0  0  0  0  0  0  0  0
   13.2659    0.9265   17.5737 H   0  0  0  0  0  0  0  0  0  0  0  0
   15.4702    0.1996   15.5190 H   0  0  0  0  0  0  0  0  0  0  0  0
   15.4381    1.6947   16.4633 H   0  0  0  0  0  0  0  0  0  0  0  0
   15.5465    1.7624   14.6953 H   0  0  0  0  0  0  0  0  0  0  0  0
   12.2680    2.6429   13.4550 H   0  0  0  0  0  0  0  0  0  0  0  0
    8.8757    4.3814    7.6312 H   0  0  0  0  0  0  0  0  0  0  0  0
    7.4337    3.9964    5.6896 H   0  0  0  0  0  0  0  0  0  0  0  0
    7.3886    3.1108    3.2982 H   0  0  0  0  0  0  0  0  0  0  0  0
  1  2  2  0  0  0  0
  1 31  1  0  0  0  0
  1 32  1  0  0  0  0
  2  3  1  0  0  0  0
  2 33  1  0  0  0  0
  3  4  2  0  0  0  0
  3  5  1  0  0  0  0
  5  6  1  0  0  0  0
  5 34  1  0  0  0  0
  6  7  1  0  0  0  0
  6 30  2  0  0  0  0
  7  8  2  0  0  0  0
  7 35  1  0  0  0  0
  8  9  1  0  0  0  0
  8 36  1  0  0  0  0
  9 10  1  0  0  0  0
  9 29  2  0  0  0  0
 10 11  1  0  0  0  0
 10 28  2  0  0  0  0
 11 12  2  0  0  0  0
 11 37  1  0  0  0  0
 12 13  1  0  0  0  0
 12 38  1  0  0  0  0
 13 14  1  0  0  0  0
 13 27  2  0  0  0  0
 14 15  1  0  0  0  0
 14 39  1  0  0  0  0
 15 16  2  0  0  0  0
 15 17  1  0  0  0  0
 17 18  1  0  0  0  0
 17 40  1  0  0  0  0
 18 19  1  0  0  0  0
 18 26  2  0  0  0  0
 19 20  2  0  0  0  0
 19 41  1  0  0  0  0
 20 21  1  0  0  0  0
 20 42  1  0  0  0  0
 21 22  2  0  0  0  0
 21 43  1  0  0  0  0
 22 23  1  0  0  0  0
 22 26  1  0  0  0  0
 23 24  1  0  0  0  0
 23 25  1  0  0  0  0
 23 44  1  0  0  0  0
 24 45  1  0  0  0  0
 24 46  1  0  0  0  0
 24 47  1  0  0  0  0
 25 48  1  0  0  0  0
 25 49  1  0  0  0  0
 25 50  1  0  0  0  0
 26 51  1  0  0  0  0
 27 28  1  0  0  0  0
 27 52  1  0  0  0  0
 28 53  1  0  0  0  0
 29 30  1  0  0  0  0
 29 54  1  0  0  0  0
M  END
$$$$
