CHEMBL203731
 OpenBabel04072215363D

 55 58  0  0  0  0  0  0  0  0999 V2000
   -1.7247   -1.3756   -1.8301 C   0  0  0  0  0  0  0  0  0  0  0  0
   -1.0199   -0.6972   -0.7663 N   0  0  0  0  0  0  0  0  0  0  0  0
   -1.1702    0.6213   -0.4382 C   0  0  0  0  0  0  0  0  0  0  0  0
   -0.3451    0.9786    0.5214 N   0  0  0  0  0  0  0  0  0  0  0  0
    0.3084   -0.1654    0.8686 C   0  0  0  0  0  0  0  0  0  0  0  0
    1.2088   -0.1990    1.8648 N   0  0  0  0  0  0  0  0  0  0  0  0
    2.0194    0.9409    2.2362 C   0  0  0  0  0  0  0  0  0  0  0  0
    3.4887    0.6374    2.0169 C   0  0  0  0  0  0  0  0  0  0  0  0
    3.9802    0.3534    0.7329 C   0  0  0  0  0  0  0  0  0  0  0  0
    5.3305    0.1318    0.5522 C   0  0  0  0  0  0  0  0  0  0  0  0
    6.2386    0.1689    1.5573 N   0  0  0  0  0  0  0  0  0  0  0  0
    5.7535    0.4479    2.7919 C   0  0  0  0  0  0  0  0  0  0  0  0
    4.4159    0.6808    3.0663 C   0  0  0  0  0  0  0  0  0  0  0  0
   -0.0821   -1.2308    0.0870 C   0  0  0  0  0  0  0  0  0  0  0  0
    0.3778   -2.5752    0.0680 C   0  0  0  0  0  0  0  0  0  0  0  0
    0.0053   -3.4698   -0.8263 N   0  0  0  0  0  0  0  0  0  0  0  0
    0.6816   -4.6254   -0.5347 N   0  0  0  0  0  0  0  0  0  0  0  0
    1.4403   -4.3698    0.5093 C   0  0  0  0  0  0  0  0  0  0  0  0
    2.3382   -5.1183    1.1731 N   0  0  0  0  0  0  0  0  0  0  0  0
    3.0795   -6.1807    0.6229 C   0  0  0  0  0  0  0  0  0  0  0  0
    2.9726   -6.5785   -0.7110 C   0  0  0  0  0  0  0  0  0  0  0  0
    3.6912   -7.6679   -1.2097 C   0  0  0  0  0  0  0  0  0  0  0  0
    4.5271   -8.4299   -0.3855 C   0  0  0  0  0  0  0  0  0  0  0  0
    5.2897   -9.6573   -0.9073 C   0  0  0  0  0  0  0  0  0  0  0  0
    4.9930   -9.9612   -2.3944 C   0  0  0  0  0  0  0  0  0  0  0  0
    6.8082   -9.4315   -0.7628 C   0  0  0  0  0  0  0  0  0  0  0  0
    4.8980  -10.9135   -0.1006 C   0  0  0  0  0  0  0  0  0  0  0  0
    4.6330   -8.0308    0.9579 C   0  0  0  0  0  0  0  0  0  0  0  0
    3.9141   -6.9335    1.4545 C   0  0  0  0  0  0  0  0  0  0  0  0
    1.2783   -3.0945    0.9670 O   0  0  0  0  0  0  0  0  0  0  0  0
   -2.4163   -0.6821   -2.3151 H   0  0  0  0  0  0  0  0  0  0  0  0
   -2.2872   -2.2101   -1.4028 H   0  0  0  0  0  0  0  0  0  0  0  0
   -0.9958   -1.7292   -2.5644 H   0  0  0  0  0  0  0  0  0  0  0  0
   -1.8839    1.2707   -0.9291 H   0  0  0  0  0  0  0  0  0  0  0  0
    1.3404   -1.0339    2.4234 H   0  0  0  0  0  0  0  0  0  0  0  0
    1.8346    1.1627    3.2926 H   0  0  0  0  0  0  0  0  0  0  0  0
    1.7670    1.8473    1.6706 H   0  0  0  0  0  0  0  0  0  0  0  0
    3.3059    0.3188   -0.1196 H   0  0  0  0  0  0  0  0  0  0  0  0
    5.7460   -0.0877   -0.4272 H   0  0  0  0  0  0  0  0  0  0  0  0
    6.5053    0.4857    3.5768 H   0  0  0  0  0  0  0  0  0  0  0  0
    4.1086    0.9038    4.0854 H   0  0  0  0  0  0  0  0  0  0  0  0
    2.7624   -4.7030    1.9919 H   0  0  0  0  0  0  0  0  0  0  0  0
    2.3409   -6.0440   -1.4148 H   0  0  0  0  0  0  0  0  0  0  0  0
    3.5612   -7.8911   -2.2644 H   0  0  0  0  0  0  0  0  0  0  0  0
    5.3033   -9.1347   -3.0441 H   0  0  0  0  0  0  0  0  0  0  0  0
    3.9227  -10.1381   -2.5592 H   0  0  0  0  0  0  0  0  0  0  0  0
    5.5234  -10.8577   -2.7345 H   0  0  0  0  0  0  0  0  0  0  0  0
    7.1419   -8.5727   -1.3565 H   0  0  0  0  0  0  0  0  0  0  0  0
    7.3692  -10.3107   -1.1008 H   0  0  0  0  0  0  0  0  0  0  0  0
    7.0994   -9.2456    0.2770 H   0  0  0  0  0  0  0  0  0  0  0  0
    3.8256  -11.1232   -0.1857 H   0  0  0  0  0  0  0  0  0  0  0  0
    5.1320  -10.8123    0.9649 H   0  0  0  0  0  0  0  0  0  0  0  0
    5.4394  -11.7952   -0.4640 H   0  0  0  0  0  0  0  0  0  0  0  0
    5.2762   -8.5742    1.6463 H   0  0  0  0  0  0  0  0  0  0  0  0
    4.0150   -6.6810    2.5070 H   0  0  0  0  0  0  0  0  0  0  0  0
  1  2  1  0  0  0  0
  1 31  1  0  0  0  0
  1 32  1  0  0  0  0
  1 33  1  0  0  0  0
  2  3  1  0  0  0  0
  2 14  1  0  0  0  0
  3  4  2  0  0  0  0
  3 34  1  0  0  0  0
  4  5  1  0  0  0  0
  5  6  1  0  0  0  0
  5 14  2  0  0  0  0
  6  7  1  0  0  0  0
  6 35  1  0  0  0  0
  7  8  1  0  0  0  0
  7 36  1  0  0  0  0
  7 37  1  0  0  0  0
  8  9  1  0  0  0  0
  8 13  2  0  0  0  0
  9 10  2  0  0  0  0
  9 38  1  0  0  0  0
 10 11  1  0  0  0  0
 10 39  1  0  0  0  0
 11 12  2  0  0  0  0
 12 13  1  0  0  0  0
 12 40  1  0  0  0  0
 13 41  1  0  0  0  0
 14 15  1  0  0  0  0
 15 16  2  0  0  0  0
 15 30  1  0  0  0  0
 16 17  1  0  0  0  0
 17 18  2  0  0  0  0
 18 19  1  0  0  0  0
 18 30  1  0  0  0  0
 19 20  1  0  0  0  0
 19 42  1  0  0  0  0
 20 21  1  0  0  0  0
 20 29  2  0  0  0  0
 21 22  2  0  0  0  0
 21 43  1  0  0  0  0
 22 23  1  0  0  0  0
 22 44  1  0  0  0  0
 23 24  1  0  0  0  0
 23 28  2  0  0  0  0
 24 25  1  0  0  0  0
 24 26  1  0  0  0  0
 24 27  1  0  0  0  0
 25 45  1  0  0  0  0
 25 46  1  0  0  0  0
 25 47  1  0  0  0  0
 26 48  1  0  0  0  0
 26 49  1  0  0  0  0
 26 50  1  0  0  0  0
 27 51  1  0  0  0  0
 27 52  1  0  0  0  0
 27 53  1  0  0  0  0
 28 29  1  0  0  0  0
 28 54  1  0  0  0  0
 29 55  1  0  0  0  0
M  END
$$$$
