CHEMBL461139
 OpenBabel04072215383D

 54 58  0  0  0  0  0  0  0  0999 V2000
    9.0539    5.5296    4.4798 O   0  0  0  0  0  0  0  0  0  0  0  0
    8.3374    4.6336    4.9014 C   0  0  0  0  0  0  0  0  0  0  0  0
    8.2938    4.2754    6.2352 N   0  0  0  0  0  0  0  0  0  0  0  0
    7.4942    3.2572    6.7232 C   0  0  0  0  0  0  0  0  0  0  0  0
    6.6958    2.5238    6.0095 N   0  0  0  0  0  0  0  0  0  0  0  0
    6.7184    2.8520    4.6984 C   0  0  0  0  0  0  0  0  0  0  0  0
    5.9764    2.2238    3.7422 N   0  0  0  0  0  0  0  0  0  0  0  0
    6.2311    2.7825    2.5024 C   0  0  0  0  0  0  0  0  0  0  0  0
    5.6171    2.2948    1.2670 C   0  0  0  0  0  0  0  0  0  0  0  0
    4.2956    1.8514    1.2399 C   0  0  0  0  0  0  0  0  0  0  0  0
    3.7870    1.3819    0.0402 C   0  0  0  0  0  0  0  0  0  0  0  0
    4.5000    1.3101   -1.1034 N   0  0  0  0  0  0  0  0  0  0  0  0
    5.7862    1.7362   -1.0717 C   0  0  0  0  0  0  0  0  0  0  0  0
    6.6057    1.5528   -2.2900 C   0  0  0  0  0  0  0  0  0  0  0  0
    6.1247    1.0148   -3.4184 C   0  0  0  0  0  0  0  0  0  0  0  0
    6.8961    0.6031   -4.6074 C   0  0  0  0  0  0  0  0  0  0  0  0
    6.4016   -0.5054   -5.3100 C   0  0  0  0  0  0  0  0  0  0  0  0
    7.0759   -1.0211   -6.4193 C   0  0  0  0  0  0  0  0  0  0  0  0
    8.2619   -0.4408   -6.8795 C   0  0  0  0  0  0  0  0  0  0  0  0
    9.0489   -1.1398   -7.9716 C   0  0  0  0  0  0  0  0  0  0  0  0
    8.7738   -0.8733   -9.3809 N   0  0  0  0  0  0  0  0  0  0  0  0
    9.0687    0.4664   -9.8833 C   0  0  0  0  0  0  0  0  0  0  0  0
    7.8912    1.4496   -9.8082 C   0  0  0  0  0  0  0  0  0  0  0  0
    6.6894    0.9168  -10.3792 O   0  0  0  0  0  0  0  0  0  0  0  0
    6.3461   -0.3646   -9.8401 C   0  0  0  0  0  0  0  0  0  0  0  0
    7.5096   -1.3613   -9.9341 C   0  0  0  0  0  0  0  0  0  0  0  0
    8.7433    0.6949   -6.2024 C   0  0  0  0  0  0  0  0  0  0  0  0
    8.0627    1.2102   -5.0804 C   0  0  0  0  0  0  0  0  0  0  0  0
    6.3643    2.2466    0.0860 C   0  0  0  0  0  0  0  0  0  0  0  0
    7.1652    3.7926    2.7041 C   0  0  0  0  0  0  0  0  0  0  0  0
    7.4614    3.8312    4.0816 C   0  0  0  0  0  0  0  0  0  0  0  0
    8.8912    4.8006    6.8510 H   0  0  0  0  0  0  0  0  0  0  0  0
    7.5904    3.1075    7.8090 H   0  0  0  0  0  0  0  0  0  0  0  0
    5.3635    1.4440    3.9266 H   0  0  0  0  0  0  0  0  0  0  0  0
    3.6624    1.8773    2.1182 H   0  0  0  0  0  0  0  0  0  0  0  0
    2.7601    1.0310   -0.0290 H   0  0  0  0  0  0  0  0  0  0  0  0
    7.6590    1.7976   -2.1925 H   0  0  0  0  0  0  0  0  0  0  0  0
    5.0684    0.7504   -3.4552 H   0  0  0  0  0  0  0  0  0  0  0  0
    5.4997   -1.0084   -4.9710 H   0  0  0  0  0  0  0  0  0  0  0  0
    6.6794   -1.9121   -6.8983 H   0  0  0  0  0  0  0  0  0  0  0  0
    8.9310   -2.2208   -7.8101 H   0  0  0  0  0  0  0  0  0  0  0  0
   10.1192   -0.9767   -7.7863 H   0  0  0  0  0  0  0  0  0  0  0  0
    9.3223    0.3462  -10.9464 H   0  0  0  0  0  0  0  0  0  0  0  0
    9.9647    0.8873   -9.4144 H   0  0  0  0  0  0  0  0  0  0  0  0
    8.1428    2.3362  -10.4006 H   0  0  0  0  0  0  0  0  0  0  0  0
    7.7027    1.7851   -8.7843 H   0  0  0  0  0  0  0  0  0  0  0  0
    5.5119   -0.7421  -10.4423 H   0  0  0  0  0  0  0  0  0  0  0  0
    5.9757   -0.2528   -8.8180 H   0  0  0  0  0  0  0  0  0  0  0  0
    7.6904   -1.5412  -11.0039 H   0  0  0  0  0  0  0  0  0  0  0  0
    7.2307   -2.3359   -9.5190 H   0  0  0  0  0  0  0  0  0  0  0  0
    9.6721    1.1664   -6.5150 H   0  0  0  0  0  0  0  0  0  0  0  0
    8.4729    2.0832   -4.5700 H   0  0  0  0  0  0  0  0  0  0  0  0
    7.4030    2.5670    0.0796 H   0  0  0  0  0  0  0  0  0  0  0  0
    7.5873    4.4334    1.9397 H   0  0  0  0  0  0  0  0  0  0  0  0
  1  2  2  0  0  0  0
  2  3  1  0  0  0  0
  2 31  1  0  0  0  0
  3  4  1  0  0  0  0
  3 32  1  0  0  0  0
  4  5  2  0  0  0  0
  4 33  1  0  0  0  0
  5  6  1  0  0  0  0
  6  7  1  0  0  0  0
  6 31  2  0  0  0  0
  7  8  1  0  0  0  0
  7 34  1  0  0  0  0
  8  9  1  0  0  0  0
  8 30  2  0  0  0  0
  9 10  1  0  0  0  0
  9 29  2  0  0  0  0
 10 11  2  0  0  0  0
 10 35  1  0  0  0  0
 11 12  1  0  0  0  0
 11 36  1  0  0  0  0
 12 13  2  0  0  0  0
 13 14  1  0  0  0  0
 13 29  1  0  0  0  0
 14 15  2  0  0  0  0
 14 37  1  0  0  0  0
 15 16  1  0  0  0  0
 15 38  1  0  0  0  0
 16 17  1  0  0  0  0
 16 28  2  0  0  0  0
 17 18  2  0  0  0  0
 17 39  1  0  0  0  0
 18 19  1  0  0  0  0
 18 40  1  0  0  0  0
 19 20  1  0  0  0  0
 19 27  2  0  0  0  0
 20 21  1  0  0  0  0
 20 41  1  0  0  0  0
 20 42  1  0  0  0  0
 21 22  1  0  0  0  0
 21 26  1  0  0  0  0
 22 23  1  0  0  0  0
 22 43  1  0  0  0  0
 22 44  1  0  0  0  0
 23 24  1  0  0  0  0
 23 45  1  0  0  0  0
 23 46  1  0  0  0  0
 24 25  1  0  0  0  0
 25 26  1  0  0  0  0
 25 47  1  0  0  0  0
 25 48  1  0  0  0  0
 26 49  1  0  0  0  0
 26 50  1  0  0  0  0
 27 28  1  0  0  0  0
 27 51  1  0  0  0  0
 28 52  1  0  0  0  0
 29 53  1  0  0  0  0
 30 31  1  0  0  0  0
 30 54  1  0  0  0  0
M  END
$$$$
