CHEMBL2016922
 OpenBabel04072215363D

 51 55  0  0  0  0  0  0  0  0999 V2000
    1.0838    0.1011   -0.5497 O   0  0  0  0  0  0  0  0  0  0  0  0
    2.2355   -0.0454   -0.1185 C   0  0  0  0  0  0  0  0  0  0  0  0
    2.7963    0.9089    0.9509 C   0  0  0  0  0  0  0  0  0  0  0  0
    3.5121    2.0327    0.3133 N   0  0  0  0  0  0  0  0  0  0  0  0
    4.0591    2.9710    1.3023 C   0  0  0  0  0  0  0  0  0  0  0  0
    3.0549    4.1016    1.3924 C   0  0  0  0  0  0  0  0  0  0  0  0
    2.6054    4.2466   -0.0432 C   0  0  0  0  0  0  0  0  0  0  0  0
    2.6411    2.8236   -0.5844 C   0  0  0  0  0  0  0  0  0  0  0  0
    3.0793   -1.0462   -0.6234 N   0  0  0  0  0  0  0  0  0  0  0  0
    2.4856   -1.8007   -1.7454 C   0  0  0  0  0  0  0  0  0  0  0  0
    3.2778   -2.9416   -2.3911 C   0  0  0  0  0  0  0  0  0  0  0  0
    4.3470   -3.4153   -1.5201 C   0  0  0  0  0  0  0  0  0  0  0  0
    5.1564   -4.4726   -1.7956 N   0  0  0  0  0  0  0  0  0  0  0  0
    5.9437   -4.6069   -0.7429 C   0  0  0  0  0  0  0  0  0  0  0  0
    6.9678   -5.5629   -0.5026 C   0  0  0  0  0  0  0  0  0  0  0  0
    7.2784   -6.4282   -1.4847 C   0  0  0  0  0  0  0  0  0  0  0  0
    8.3081   -7.4465   -1.2967 C   0  0  0  0  0  0  0  0  0  0  0  0
    8.6710   -8.3165   -2.3275 C   0  0  0  0  0  0  0  0  0  0  0  0
    9.6524   -9.2851   -2.1082 C   0  0  0  0  0  0  0  0  0  0  0  0
   10.2641   -9.3935   -0.8579 C   0  0  0  0  0  0  0  0  0  0  0  0
    9.9020   -8.5299    0.1779 C   0  0  0  0  0  0  0  0  0  0  0  0
    8.9319   -7.5575   -0.0496 C   0  0  0  0  0  0  0  0  0  0  0  0
    8.5812   -6.6638    0.9724 N   0  0  0  0  0  0  0  0  0  0  0  0
    7.6783   -5.6461    0.8131 C   0  0  0  0  0  0  0  0  0  0  0  0
    7.4588   -4.8470    1.7244 O   0  0  0  0  0  0  0  0  0  0  0  0
    5.6404   -3.6489    0.2069 N   0  0  0  0  0  0  0  0  0  0  0  0
    4.6563   -2.8532   -0.3054 C   0  0  0  0  0  0  0  0  0  0  0  0
    4.0304   -1.6774    0.3072 C   0  0  0  0  0  0  0  0  0  0  0  0
    3.4771    0.3613    1.6078 H   0  0  0  0  0  0  0  0  0  0  0  0
    1.9703    1.2508    1.5850 H   0  0  0  0  0  0  0  0  0  0  0  0
    5.0103    3.3515    0.9091 H   0  0  0  0  0  0  0  0  0  0  0  0
    4.2682    2.5299    2.2822 H   0  0  0  0  0  0  0  0  0  0  0  0
    3.4930    5.0228    1.7875 H   0  0  0  0  0  0  0  0  0  0  0  0
    2.2098    3.8171    2.0301 H   0  0  0  0  0  0  0  0  0  0  0  0
    3.3169    4.8729   -0.5941 H   0  0  0  0  0  0  0  0  0  0  0  0
    1.6145    4.7047   -0.1223 H   0  0  0  0  0  0  0  0  0  0  0  0
    3.0623    2.8161   -1.5948 H   0  0  0  0  0  0  0  0  0  0  0  0
    1.6183    2.4396   -0.6592 H   0  0  0  0  0  0  0  0  0  0  0  0
    2.2524   -1.0671   -2.5295 H   0  0  0  0  0  0  0  0  0  0  0  0
    1.5200   -2.1898   -1.3996 H   0  0  0  0  0  0  0  0  0  0  0  0
    3.6954   -2.6221   -3.3529 H   0  0  0  0  0  0  0  0  0  0  0  0
    2.5857   -3.7661   -2.6049 H   0  0  0  0  0  0  0  0  0  0  0  0
    6.7593   -6.4003   -2.4401 H   0  0  0  0  0  0  0  0  0  0  0  0
    8.1993   -8.2463   -3.3048 H   0  0  0  0  0  0  0  0  0  0  0  0
    9.9392   -9.9570   -2.9137 H   0  0  0  0  0  0  0  0  0  0  0  0
   11.0272  -10.1489   -0.6933 H   0  0  0  0  0  0  0  0  0  0  0  0
   10.3878   -8.6225    1.1435 H   0  0  0  0  0  0  0  0  0  0  0  0
    9.0233   -6.7289    1.8784 H   0  0  0  0  0  0  0  0  0  0  0  0
    6.0871   -3.5838    1.1190 H   0  0  0  0  0  0  0  0  0  0  0  0
    4.7919   -0.9400    0.5863 H   0  0  0  0  0  0  0  0  0  0  0  0
    3.4741   -1.9608    1.2078 H   0  0  0  0  0  0  0  0  0  0  0  0
  1  2  2  0  0  0  0
  2  3  1  0  0  0  0
  2  9  1  0  0  0  0
  3  4  1  0  0  0  0
  3 29  1  0  0  0  0
  3 30  1  0  0  0  0
  4  5  1  0  0  0  0
  4  8  1  0  0  0  0
  5  6  1  0  0  0  0
  5 31  1  0  0  0  0
  5 32  1  0  0  0  0
  6  7  1  0  0  0  0
  6 33  1  0  0  0  0
  6 34  1  0  0  0  0
  7  8  1  0  0  0  0
  7 35  1  0  0  0  0
  7 36  1  0  0  0  0
  8 37  1  0  0  0  0
  8 38  1  0  0  0  0
  9 10  1  0  0  0  0
  9 28  1  0  0  0  0
 10 11  1  0  0  0  0
 10 39  1  0  0  0  0
 10 40  1  0  0  0  0
 11 12  1  0  0  0  0
 11 41  1  0  0  0  0
 11 42  1  0  0  0  0
 12 13  1  0  0  0  0
 12 27  2  0  0  0  0
 13 14  2  0  0  0  0
 14 15  1  0  0  0  0
 14 26  1  0  0  0  0
 15 16  2  0  0  0  0
 15 24  1  0  0  0  0
 16 17  1  0  0  0  0
 16 43  1  0  0  0  0
 17 18  1  0  0  0  0
 17 22  2  0  0  0  0
 18 19  2  0  0  0  0
 18 44  1  0  0  0  0
 19 20  1  0  0  0  0
 19 45  1  0  0  0  0
 20 21  2  0  0  0  0
 20 46  1  0  0  0  0
 21 22  1  0  0  0  0
 21 47  1  0  0  0  0
 22 23  1  0  0  0  0
 23 24  1  0  0  0  0
 23 48  1  0  0  0  0
 24 25  2  0  0  0  0
 26 27  1  0  0  0  0
 26 49  1  0  0  0  0
 27 28  1  0  0  0  0
 28 50  1  0  0  0  0
 28 51  1  0  0  0  0
M  END
$$$$
