CHEMBL3954328
 OpenBabel04072215373D

 50 54  0  0  0  0  0  0  0  0999 V2000
    1.1457   -0.5586   -0.1003 O   0  0  0  0  0  0  0  0  0  0  0  0
    2.2804   -0.0958   -0.0143 C   0  0  0  0  0  0  0  0  0  0  0  0
    2.8748    0.4246    1.1261 N   0  0  0  0  0  0  0  0  0  0  0  0
    2.2793    0.4552    2.4122 C   0  0  0  0  0  0  0  0  0  0  0  0
    1.1591   -0.3025    2.7430 C   0  0  0  0  0  0  0  0  0  0  0  0
    0.5910   -0.2128    4.0067 C   0  0  0  0  0  0  0  0  0  0  0  0
    1.1475    0.6331    4.9649 C   0  0  0  0  0  0  0  0  0  0  0  0
    2.2919    1.3949    4.6930 C   0  0  0  0  0  0  0  0  0  0  0  0
    2.8512    2.1981    5.6730 N   0  0  0  0  0  0  0  0  0  0  0  0
    4.2840    2.4954    5.6972 C   0  0  0  0  0  0  0  0  0  0  0  0
    4.5217    3.9596    5.3174 C   0  0  0  0  0  0  0  0  0  0  0  0
    3.5666    4.8709    6.0412 C   0  0  0  0  0  0  0  0  0  0  0  0
    2.4547    4.3898    6.6341 C   0  0  0  0  0  0  0  0  0  0  0  0
    1.6110    5.4082    7.3264 C   0  0  0  0  0  0  0  0  0  0  0  0
    1.8517    6.6834    7.4014 N   0  0  0  0  0  0  0  0  0  0  0  0
    2.9867    7.1133    6.7710 C   0  0  0  0  0  0  0  0  0  0  0  0
    3.5355    8.3650    6.6361 C   0  0  0  0  0  0  0  0  0  0  0  0
    4.7034    8.1753    5.8833 C   0  0  0  0  0  0  0  0  0  0  0  0
    4.9048    6.8991    5.5563 N   0  0  0  0  0  0  0  0  0  0  0  0
    3.8467    6.2377    6.0963 N   0  0  0  0  0  0  0  0  0  0  0  0
    2.0116    2.9584    6.6135 C   0  0  0  0  0  0  0  0  0  0  0  0
    2.8450    1.2817    3.3985 C   0  0  0  0  0  0  0  0  0  0  0  0
    3.0700   -0.0181   -1.2710 C   0  0  0  0  0  0  0  0  0  0  0  0
    2.3654    0.1889   -2.4654 C   0  0  0  0  0  0  0  0  0  0  0  0
    3.0373    0.2368   -3.6837 C   0  0  0  0  0  0  0  0  0  0  0  0
    4.4217    0.0821   -3.7161 C   0  0  0  0  0  0  0  0  0  0  0  0
    5.1474   -0.1273   -2.5311 C   0  0  0  0  0  0  0  0  0  0  0  0
    6.6498   -0.2683   -2.5650 C   0  0  0  0  0  0  0  0  0  0  0  0
    7.1823   -0.1497   -3.8124 F   0  0  0  0  0  0  0  0  0  0  0  0
    7.2661    0.6788   -1.8043 F   0  0  0  0  0  0  0  0  0  0  0  0
    7.0751   -1.4683   -2.0855 F   0  0  0  0  0  0  0  0  0  0  0  0
    4.4585   -0.1919   -1.3043 C   0  0  0  0  0  0  0  0  0  0  0  0
    3.7366    0.9422    1.0155 H   0  0  0  0  0  0  0  0  0  0  0  0
    0.7076   -0.9926    2.0369 H   0  0  0  0  0  0  0  0  0  0  0  0
   -0.2805   -0.8135    4.2478 H   0  0  0  0  0  0  0  0  0  0  0  0
    0.6927    0.6512    5.9519 H   0  0  0  0  0  0  0  0  0  0  0  0
    4.8691    1.8297    5.0531 H   0  0  0  0  0  0  0  0  0  0  0  0
    4.6548    2.3147    6.7152 H   0  0  0  0  0  0  0  0  0  0  0  0
    4.3834    4.0918    4.2378 H   0  0  0  0  0  0  0  0  0  0  0  0
    5.5606    4.2117    5.5547 H   0  0  0  0  0  0  0  0  0  0  0  0
    0.7062    5.0181    7.8188 H   0  0  0  0  0  0  0  0  0  0  0  0
    3.1326    9.2848    7.0345 H   0  0  0  0  0  0  0  0  0  0  0  0
    5.4209    8.9164    5.5581 H   0  0  0  0  0  0  0  0  0  0  0  0
    0.9516    2.9266    6.3351 H   0  0  0  0  0  0  0  0  0  0  0  0
    2.1097    2.5276    7.6169 H   0  0  0  0  0  0  0  0  0  0  0  0
    3.7041    1.8920    3.1349 H   0  0  0  0  0  0  0  0  0  0  0  0
    1.2828    0.3084   -2.4453 H   0  0  0  0  0  0  0  0  0  0  0  0
    2.4797    0.3937   -4.6042 H   0  0  0  0  0  0  0  0  0  0  0  0
    4.9344    0.1233   -4.6767 H   0  0  0  0  0  0  0  0  0  0  0  0
    5.0114   -0.4064   -0.3917 H   0  0  0  0  0  0  0  0  0  0  0  0
  1  2  2  0  0  0  0
  2  3  1  0  0  0  0
  2 23  1  0  0  0  0
  3  4  1  0  0  0  0
  3 33  1  0  0  0  0
  4  5  1  0  0  0  0
  4 22  2  0  0  0  0
  5  6  2  0  0  0  0
  5 34  1  0  0  0  0
  6  7  1  0  0  0  0
  6 35  1  0  0  0  0
  7  8  2  0  0  0  0
  7 36  1  0  0  0  0
  8  9  1  0  0  0  0
  8 22  1  0  0  0  0
  9 10  1  0  0  0  0
  9 21  1  0  0  0  0
 10 11  1  0  0  0  0
 10 37  1  0  0  0  0
 10 38  1  0  0  0  0
 11 12  1  0  0  0  0
 11 39  1  0  0  0  0
 11 40  1  0  0  0  0
 12 13  2  0  0  0  0
 12 20  1  0  0  0  0
 13 14  1  0  0  0  0
 13 21  1  0  0  0  0
 14 15  2  0  0  0  0
 14 41  1  0  0  0  0
 15 16  1  0  0  0  0
 16 17  2  0  0  0  0
 16 20  1  0  0  0  0
 17 18  1  0  0  0  0
 17 42  1  0  0  0  0
 18 19  2  0  0  0  0
 18 43  1  0  0  0  0
 19 20  1  0  0  0  0
 21 44  1  0  0  0  0
 21 45  1  0  0  0  0
 22 46  1  0  0  0  0
 23 24  1  0  0  0  0
 23 32  2  0  0  0  0
 24 25  2  0  0  0  0
 24 47  1  0  0  0  0
 25 26  1  0  0  0  0
 25 48  1  0  0  0  0
 26 27  2  0  0  0  0
 26 49  1  0  0  0  0
 27 28  1  0  0  0  0
 27 32  1  0  0  0  0
 28 29  1  0  0  0  0
 28 30  1  0  0  0  0
 28 31  1  0  0  0  0
 32 50  1  0  0  0  0
M  END
$$$$
