CHEMBL361898
 OpenBabel04072215363D

 59 62  0  0  0  0  0  0  0  0999 V2000
    3.0111    0.6420    3.8228 O   0  0  0  0  0  0  0  0  0  0  0  0
    1.7921    0.6090    3.6474 C   0  0  0  0  0  0  0  0  0  0  0  0
    1.1583   -0.4214    2.7254 C   0  0  0  0  0  0  0  0  0  0  0  0
    2.1721   -1.3928    2.1114 C   0  0  0  0  0  0  0  0  0  0  0  0
    2.8771   -2.2862    3.1363 C   0  0  0  0  0  0  0  0  0  0  0  0
    1.8903   -3.1069    3.8421 N   0  0  0  0  0  0  0  0  0  0  0  0
    2.3366   -3.9532    4.8649 C   0  0  0  0  0  0  0  0  0  0  0  0
    1.6380   -5.1214    5.1714 C   0  0  0  0  0  0  0  0  0  0  0  0
    1.9478   -5.9757    6.1726 N   0  0  0  0  0  0  0  0  0  0  0  0
    2.9945   -5.6253    6.9577 C   0  0  0  0  0  0  0  0  0  0  0  0
    3.7369   -4.4534    6.8177 C   0  0  0  0  0  0  0  0  0  0  0  0
    4.8090   -4.1049    7.7639 C   0  0  0  0  0  0  0  0  0  0  0  0
    5.1775   -2.7949    8.0594 C   0  0  0  0  0  0  0  0  0  0  0  0
    6.1798   -2.4781    8.9124 N   0  0  0  0  0  0  0  0  0  0  0  0
    6.8099   -3.5394    9.4667 C   0  0  0  0  0  0  0  0  0  0  0  0
    6.4477   -4.8658    9.2321 C   0  0  0  0  0  0  0  0  0  0  0  0
    7.1757   -5.9209    9.8273 N   0  0  0  0  0  0  0  0  0  0  0  0
    6.6356   -7.1839   10.1741 C   0  0  0  0  0  0  0  0  0  0  0  0
    5.2858   -7.3470   10.5224 C   0  0  0  0  0  0  0  0  0  0  0  0
    4.7923   -8.5904   10.9222 C   0  0  0  0  0  0  0  0  0  0  0  0
    5.6475   -9.6848   10.9906 C   0  0  0  0  0  0  0  0  0  0  0  0
    6.9954   -9.5294   10.6685 C   0  0  0  0  0  0  0  0  0  0  0  0
    8.0528  -10.8818   10.7612 Cl  0  0  0  0  0  0  0  0  0  0  0  0
    7.4911   -8.2841   10.2747 C   0  0  0  0  0  0  0  0  0  0  0  0
    5.4404   -5.1440    8.3683 N   0  0  0  0  0  0  0  0  0  0  0  0
    3.3843   -3.6276    5.7330 C   0  0  0  0  0  0  0  0  0  0  0  0
    0.9408    1.5167    4.2614 N   0  0  0  0  0  0  0  0  0  0  0  0
   -0.5007    1.6275    4.0402 C   0  0  0  0  0  0  0  0  0  0  0  0
   -0.8425    2.9921    3.4411 C   0  0  0  0  0  0  0  0  0  0  0  0
   -0.2608    4.1336    4.2777 C   0  0  0  0  0  0  0  0  0  0  0  0
    1.2343    3.9335    4.5307 C   0  0  0  0  0  0  0  0  0  0  0  0
    1.5103    2.5528    5.1190 C   0  0  0  0  0  0  0  0  0  0  0  0
    0.6726    0.1202    1.9050 H   0  0  0  0  0  0  0  0  0  0  0  0
    0.3925   -0.9785    3.2749 H   0  0  0  0  0  0  0  0  0  0  0  0
    2.9298   -0.8291    1.5533 H   0  0  0  0  0  0  0  0  0  0  0  0
    1.6487   -2.0252    1.3834 H   0  0  0  0  0  0  0  0  0  0  0  0
    3.4605   -1.6731    3.8253 H   0  0  0  0  0  0  0  0  0  0  0  0
    3.5818   -2.9405    2.6084 H   0  0  0  0  0  0  0  0  0  0  0  0
    1.2758   -3.5969    3.1946 H   0  0  0  0  0  0  0  0  0  0  0  0
    0.7743   -5.4202    4.5840 H   0  0  0  0  0  0  0  0  0  0  0  0
    3.2142   -6.3359    7.7518 H   0  0  0  0  0  0  0  0  0  0  0  0
    4.6672   -1.9408    7.6260 H   0  0  0  0  0  0  0  0  0  0  0  0
    7.6225   -3.2851   10.1401 H   0  0  0  0  0  0  0  0  0  0  0  0
    7.7592   -5.5899   10.5889 H   0  0  0  0  0  0  0  0  0  0  0  0
    4.6025   -6.5041   10.4883 H   0  0  0  0  0  0  0  0  0  0  0  0
    3.7411   -8.6960   11.1779 H   0  0  0  0  0  0  0  0  0  0  0  0
    5.2624  -10.6570   11.2966 H   0  0  0  0  0  0  0  0  0  0  0  0
    8.5435   -8.1795   10.0213 H   0  0  0  0  0  0  0  0  0  0  0  0
    3.9390   -2.7085    5.5736 H   0  0  0  0  0  0  0  0  0  0  0  0
   -0.9907    1.5058    5.0129 H   0  0  0  0  0  0  0  0  0  0  0  0
   -0.8789    0.8392    3.3870 H   0  0  0  0  0  0  0  0  0  0  0  0
   -1.9298    3.1042    3.3649 H   0  0  0  0  0  0  0  0  0  0  0  0
   -0.4376    3.0530    2.4230 H   0  0  0  0  0  0  0  0  0  0  0  0
   -0.7879    4.1856    5.2383 H   0  0  0  0  0  0  0  0  0  0  0  0
   -0.4260    5.0893    3.7680 H   0  0  0  0  0  0  0  0  0  0  0  0
    1.6059    4.7094    5.2086 H   0  0  0  0  0  0  0  0  0  0  0  0
    1.7764    4.0414    3.5828 H   0  0  0  0  0  0  0  0  0  0  0  0
    1.0465    2.4551    6.1073 H   0  0  0  0  0  0  0  0  0  0  0  0
    2.5878    2.4191    5.2519 H   0  0  0  0  0  0  0  0  0  0  0  0
  1  2  2  0  0  0  0
  2  3  1  0  0  0  0
  2 27  1  0  0  0  0
  3  4  1  0  0  0  0
  3 33  1  0  0  0  0
  3 34  1  0  0  0  0
  4  5  1  0  0  0  0
  4 35  1  0  0  0  0
  4 36  1  0  0  0  0
  5  6  1  0  0  0  0
  5 37  1  0  0  0  0
  5 38  1  0  0  0  0
  6  7  1  0  0  0  0
  6 39  1  0  0  0  0
  7  8  1  0  0  0  0
  7 26  2  0  0  0  0
  8  9  2  0  0  0  0
  8 40  1  0  0  0  0
  9 10  1  0  0  0  0
 10 11  2  0  0  0  0
 10 41  1  0  0  0  0
 11 12  1  0  0  0  0
 11 26  1  0  0  0  0
 12 13  1  0  0  0  0
 12 25  2  0  0  0  0
 13 14  2  0  0  0  0
 13 42  1  0  0  0  0
 14 15  1  0  0  0  0
 15 16  2  0  0  0  0
 15 43  1  0  0  0  0
 16 17  1  0  0  0  0
 16 25  1  0  0  0  0
 17 18  1  0  0  0  0
 17 44  1  0  0  0  0
 18 19  1  0  0  0  0
 18 24  2  0  0  0  0
 19 20  2  0  0  0  0
 19 45  1  0  0  0  0
 20 21  1  0  0  0  0
 20 46  1  0  0  0  0
 21 22  2  0  0  0  0
 21 47  1  0  0  0  0
 22 23  1  0  0  0  0
 22 24  1  0  0  0  0
 24 48  1  0  0  0  0
 26 49  1  0  0  0  0
 27 28  1  0  0  0  0
 27 32  1  0  0  0  0
 28 29  1  0  0  0  0
 28 50  1  0  0  0  0
 28 51  1  0  0  0  0
 29 30  1  0  0  0  0
 29 52  1  0  0  0  0
 29 53  1  0  0  0  0
 30 31  1  0  0  0  0
 30 54  1  0  0  0  0
 30 55  1  0  0  0  0
 31 32  1  0  0  0  0
 31 56  1  0  0  0  0
 31 57  1  0  0  0  0
 32 58  1  0  0  0  0
 32 59  1  0  0  0  0
M  END
$$$$
