CHEMBL3671580
 OpenBabel04072215373D

 50 52  0  0  0  0  0  0  0  0999 V2000
    3.1187    0.1005   -2.7761 C   0  0  0  0  0  0  0  0  0  0  0  0
    3.3282    0.2844   -1.4664 C   0  0  0  0  0  0  0  0  0  0  0  0
    4.1716    1.4165   -1.0035 C   0  0  0  0  0  0  0  0  0  0  0  0
    4.4536    2.3518   -1.7437 O   0  0  0  0  0  0  0  0  0  0  0  0
    4.5445    1.2943    0.3201 N   0  0  0  0  0  0  0  0  0  0  0  0
    5.2555    2.3084    0.9868 C   0  0  0  0  0  0  0  0  0  0  0  0
    6.4170    2.7678    0.3633 C   0  0  0  0  0  0  0  0  0  0  0  0
    7.1168    3.8932    0.8440 C   0  0  0  0  0  0  0  0  0  0  0  0
    8.2617    4.4406    0.2382 C   0  0  0  0  0  0  0  0  0  0  0  0
    8.7896    3.8154   -0.9319 N   0  0  0  0  0  0  0  0  0  0  0  0
   10.0175    4.0903   -1.5784 C   0  0  0  0  0  0  0  0  0  0  0  0
   11.1304    4.5957   -0.8871 C   0  0  0  0  0  0  0  0  0  0  0  0
   12.3254    4.8783   -1.5473 C   0  0  0  0  0  0  0  0  0  0  0  0
   12.4405    4.6056   -2.9024 C   0  0  0  0  0  0  0  0  0  0  0  0
   13.5925    4.9022   -3.5230 F   0  0  0  0  0  0  0  0  0  0  0  0
   11.3825    4.0267   -3.5933 C   0  0  0  0  0  0  0  0  0  0  0  0
   11.5364    3.6412   -5.2665 Cl  0  0  0  0  0  0  0  0  0  0  0  0
   10.1791    3.7550   -2.9330 C   0  0  0  0  0  0  0  0  0  0  0  0
    8.8625    5.5271    0.7373 N   0  0  0  0  0  0  0  0  0  0  0  0
    8.3251    6.0749    1.8360 C   0  0  0  0  0  0  0  0  0  0  0  0
    7.2519    5.6346    2.4827 N   0  0  0  0  0  0  0  0  0  0  0  0
    6.6482    4.5471    1.9905 C   0  0  0  0  0  0  0  0  0  0  0  0
    5.5285    4.0414    2.6416 C   0  0  0  0  0  0  0  0  0  0  0  0
    4.8440    2.9027    2.1886 C   0  0  0  0  0  0  0  0  0  0  0  0
    3.7592    2.5710    2.9689 O   0  0  0  0  0  0  0  0  0  0  0  0
    3.4853    1.1761    3.0351 C   0  0  0  0  0  0  0  0  0  0  0  0
    2.9767    0.7455    4.4127 C   0  0  0  0  0  0  0  0  0  0  0  0
    2.7304   -0.6917    4.4665 N   0  0  0  0  0  0  0  0  0  0  0  0
    3.7415   -1.6110    4.2767 C   0  0  0  0  0  0  0  0  0  0  0  0
    3.3005   -3.0481    4.3063 C   0  0  0  0  0  0  0  0  0  0  0  0
    4.9076   -1.3053    4.0572 O   0  0  0  0  0  0  0  0  0  0  0  0
    2.4797   -0.6985   -3.1346 H   0  0  0  0  0  0  0  0  0  0  0  0
    3.5749    0.7497   -3.5201 H   0  0  0  0  0  0  0  0  0  0  0  0
    2.8563   -0.3524   -0.7302 H   0  0  0  0  0  0  0  0  0  0  0  0
    4.3081    0.4567    0.8296 H   0  0  0  0  0  0  0  0  0  0  0  0
    6.7846    2.2352   -0.5074 H   0  0  0  0  0  0  0  0  0  0  0  0
    8.0372    3.6735   -1.5999 H   0  0  0  0  0  0  0  0  0  0  0  0
   11.0741    4.7898    0.1797 H   0  0  0  0  0  0  0  0  0  0  0  0
   13.1619    5.3109   -1.0064 H   0  0  0  0  0  0  0  0  0  0  0  0
    9.3627    3.2970   -3.4851 H   0  0  0  0  0  0  0  0  0  0  0  0
    8.8211    6.9575    2.2280 H   0  0  0  0  0  0  0  0  0  0  0  0
    5.1722    4.5572    3.5250 H   0  0  0  0  0  0  0  0  0  0  0  0
    4.3914    0.6062    2.8253 H   0  0  0  0  0  0  0  0  0  0  0  0
    2.7210    0.9389    2.2861 H   0  0  0  0  0  0  0  0  0  0  0  0
    2.0361    1.2549    4.6498 H   0  0  0  0  0  0  0  0  0  0  0  0
    3.6981    1.0106    5.1934 H   0  0  0  0  0  0  0  0  0  0  0  0
    1.8334   -1.0132    4.8089 H   0  0  0  0  0  0  0  0  0  0  0  0
    2.2125   -3.1397    4.3327 H   0  0  0  0  0  0  0  0  0  0  0  0
    3.7293   -3.5378    5.1832 H   0  0  0  0  0  0  0  0  0  0  0  0
    3.6618   -3.5412    3.3973 H   0  0  0  0  0  0  0  0  0  0  0  0
  1  2  2  0  0  0  0
  1 32  1  0  0  0  0
  1 33  1  0  0  0  0
  2  3  1  0  0  0  0
  2 34  1  0  0  0  0
  3  4  2  0  0  0  0
  3  5  1  0  0  0  0
  5  6  1  0  0  0  0
  5 35  1  0  0  0  0
  6  7  1  0  0  0  0
  6 24  2  0  0  0  0
  7  8  2  0  0  0  0
  7 36  1  0  0  0  0
  8  9  1  0  0  0  0
  8 22  1  0  0  0  0
  9 10  1  0  0  0  0
  9 19  2  0  0  0  0
 10 11  1  0  0  0  0
 10 37  1  0  0  0  0
 11 12  1  0  0  0  0
 11 18  2  0  0  0  0
 12 13  2  0  0  0  0
 12 38  1  0  0  0  0
 13 14  1  0  0  0  0
 13 39  1  0  0  0  0
 14 15  1  0  0  0  0
 14 16  2  0  0  0  0
 16 17  1  0  0  0  0
 16 18  1  0  0  0  0
 18 40  1  0  0  0  0
 19 20  1  0  0  0  0
 20 21  2  0  0  0  0
 20 41  1  0  0  0  0
 21 22  1  0  0  0  0
 22 23  2  0  0  0  0
 23 24  1  0  0  0  0
 23 42  1  0  0  0  0
 24 25  1  0  0  0  0
 25 26  1  0  0  0  0
 26 27  1  0  0  0  0
 26 43  1  0  0  0  0
 26 44  1  0  0  0  0
 27 28  1  0  0  0  0
 27 45  1  0  0  0  0
 27 46  1  0  0  0  0
 28 29  1  0  0  0  0
 28 47  1  0  0  0  0
 29 30  1  0  0  0  0
 29 31  2  0  0  0  0
 30 48  1  0  0  0  0
 30 49  1  0  0  0  0
 30 50  1  0  0  0  0
M  END
$$$$
