CHEMBL2088113
 OpenBabel04072215363D

 42 44  0  0  0  0  0  0  0  0999 V2000
    5.3781    4.2573   -3.6452 C   0  0  0  0  0  0  0  0  0  0  0  0
    5.9445    2.9912   -3.0220 C   0  0  0  0  0  0  0  0  0  0  0  0
    6.8942    3.3082   -1.8613 C   0  0  0  0  0  0  0  0  0  0  0  0
    7.4119    2.0669   -1.2234 C   0  0  0  0  0  0  0  0  0  0  0  0
    7.2215    1.5239    0.0294 C   0  0  0  0  0  0  0  0  0  0  0  0
    7.7769    0.2246   -0.0380 C   0  0  0  0  0  0  0  0  0  0  0  0
    7.5861   -0.6841    0.9437 N   0  0  0  0  0  0  0  0  0  0  0  0
    7.6439   -2.0858    0.8657 C   0  0  0  0  0  0  0  0  0  0  0  0
    8.1900   -2.6975    1.9497 N   0  0  0  0  0  0  0  0  0  0  0  0
    8.2632   -4.0386    1.9573 C   0  0  0  0  0  0  0  0  0  0  0  0
    8.8251   -4.7272    3.0246 N   0  0  0  0  0  0  0  0  0  0  0  0
    9.9964   -4.0885    3.5937 C   0  0  0  0  0  0  0  0  0  0  0  0
   10.6249   -4.9487    4.6658 C   0  0  0  0  0  0  0  0  0  0  0  0
    9.8921   -5.7874    5.5126 C   0  0  0  0  0  0  0  0  0  0  0  0
   10.5373   -6.5021    6.5160 C   0  0  0  0  0  0  0  0  0  0  0  0
   11.9099   -6.3512    6.6581 C   0  0  0  0  0  0  0  0  0  0  0  0
   12.6513   -5.5460    5.8758 N   0  0  0  0  0  0  0  0  0  0  0  0
   11.9945   -4.8609    4.9061 C   0  0  0  0  0  0  0  0  0  0  0  0
    7.8050   -4.8174    0.9750 N   0  0  0  0  0  0  0  0  0  0  0  0
    7.2340   -4.1922   -0.0710 C   0  0  0  0  0  0  0  0  0  0  0  0
    7.1245   -2.8259   -0.1904 C   0  0  0  0  0  0  0  0  0  0  0  0
    6.1055   -2.1642   -1.6438 Br  0  0  0  0  0  0  0  0  0  0  0  0
    8.4374    0.0475   -1.1851 N   0  0  0  0  0  0  0  0  0  0  0  0
    8.1959    1.1643   -1.8858 N   0  0  0  0  0  0  0  0  0  0  0  0
    4.7156    4.0029   -4.4788 H   0  0  0  0  0  0  0  0  0  0  0  0
    6.1782    4.8976   -4.0300 H   0  0  0  0  0  0  0  0  0  0  0  0
    4.7996    4.8300   -2.9135 H   0  0  0  0  0  0  0  0  0  0  0  0
    6.4696    2.4189   -3.7978 H   0  0  0  0  0  0  0  0  0  0  0  0
    5.1173    2.3604   -2.6725 H   0  0  0  0  0  0  0  0  0  0  0  0
    6.3609    3.9026   -1.1094 H   0  0  0  0  0  0  0  0  0  0  0  0
    7.7331    3.9175   -2.2162 H   0  0  0  0  0  0  0  0  0  0  0  0
    6.6413    1.9503    0.8342 H   0  0  0  0  0  0  0  0  0  0  0  0
    7.7760   -0.3960    1.8960 H   0  0  0  0  0  0  0  0  0  0  0  0
    8.9916   -5.6672    2.6762 H   0  0  0  0  0  0  0  0  0  0  0  0
    9.7363   -3.1255    4.0501 H   0  0  0  0  0  0  0  0  0  0  0  0
   10.7379   -3.9146    2.8022 H   0  0  0  0  0  0  0  0  0  0  0  0
    8.8139   -5.8831    5.3966 H   0  0  0  0  0  0  0  0  0  0  0  0
    9.9848   -7.1606    7.1812 H   0  0  0  0  0  0  0  0  0  0  0  0
   12.4550   -6.8839    7.4306 H   0  0  0  0  0  0  0  0  0  0  0  0
   12.6322   -4.2116    4.3107 H   0  0  0  0  0  0  0  0  0  0  0  0
    6.8191   -4.8572   -0.8233 H   0  0  0  0  0  0  0  0  0  0  0  0
    8.5445    1.2186   -2.8373 H   0  0  0  0  0  0  0  0  0  0  0  0
  1  2  1  0  0  0  0
  1 25  1  0  0  0  0
  1 26  1  0  0  0  0
  1 27  1  0  0  0  0
  2  3  1  0  0  0  0
  2 28  1  0  0  0  0
  2 29  1  0  0  0  0
  3  4  1  0  0  0  0
  3 30  1  0  0  0  0
  3 31  1  0  0  0  0
  4  5  2  0  0  0  0
  4 24  1  0  0  0  0
  5  6  1  0  0  0  0
  5 32  1  0  0  0  0
  6  7  1  0  0  0  0
  6 23  2  0  0  0  0
  7  8  1  0  0  0  0
  7 33  1  0  0  0  0
  8  9  1  0  0  0  0
  8 21  2  0  0  0  0
  9 10  2  0  0  0  0
 10 11  1  0  0  0  0
 10 19  1  0  0  0  0
 11 12  1  0  0  0  0
 11 34  1  0  0  0  0
 12 13  1  0  0  0  0
 12 35  1  0  0  0  0
 12 36  1  0  0  0  0
 13 14  1  0  0  0  0
 13 18  2  0  0  0  0
 14 15  2  0  0  0  0
 14 37  1  0  0  0  0
 15 16  1  0  0  0  0
 15 38  1  0  0  0  0
 16 17  2  0  0  0  0
 16 39  1  0  0  0  0
 17 18  1  0  0  0  0
 18 40  1  0  0  0  0
 19 20  2  0  0  0  0
 20 21  1  0  0  0  0
 20 41  1  0  0  0  0
 21 22  1  0  0  0  0
 23 24  1  0  0  0  0
 24 42  1  0  0  0  0
M  END
$$$$
