CHEMBL365109
 OpenBabel04072215373D

 52 54  0  0  0  0  0  0  0  0999 V2000
    6.2419   -0.7412   -0.2257 C   0  0  0  0  0  0  0  0  0  0  0  0
    5.2831    0.2721   -0.8271 C   0  0  0  0  0  0  0  0  0  0  0  0
    5.2755    1.4320    0.0124 O   0  0  0  0  0  0  0  0  0  0  0  0
    4.4192    1.3850    1.0763 C   0  0  0  0  0  0  0  0  0  0  0  0
    3.4820    0.6022    1.1655 O   0  0  0  0  0  0  0  0  0  0  0  0
    4.8312    2.2999    2.1456 C   0  0  0  0  0  0  0  0  0  0  0  0
    5.9216    3.1386    2.0478 C   0  0  0  0  0  0  0  0  0  0  0  0
    6.1052    3.7660    3.2348 N   0  0  0  0  0  0  0  0  0  0  0  0
    7.1069    4.6263    3.4620 N   0  0  0  0  0  0  0  0  0  0  0  0
    7.1556    5.0643    4.6713 C   0  0  0  0  0  0  0  0  0  0  0  0
    6.3057    4.7328    5.6855 N   0  0  0  0  0  0  0  0  0  0  0  0
    5.3226    3.9001    5.4779 C   0  0  0  0  0  0  0  0  0  0  0  0
    4.4854    3.6003    6.5326 N   0  0  0  0  0  0  0  0  0  0  0  0
    4.9145    3.5338    7.8818 C   0  0  0  0  0  0  0  0  0  0  0  0
    4.0220    3.8485    8.9158 C   0  0  0  0  0  0  0  0  0  0  0  0
    4.4021    3.7131   10.2534 C   0  0  0  0  0  0  0  0  0  0  0  0
    5.6687    3.2299   10.5702 C   0  0  0  0  0  0  0  0  0  0  0  0
    5.9852    3.1000   11.8680 F   0  0  0  0  0  0  0  0  0  0  0  0
    6.5686    2.8744    9.5670 C   0  0  0  0  0  0  0  0  0  0  0  0
    7.9045    2.2789    9.8538 C   0  0  0  0  0  0  0  0  0  0  0  0
    8.6652    2.0264    8.9258 O   0  0  0  0  0  0  0  0  0  0  0  0
    8.1770    2.0035   11.1747 N   0  0  0  0  0  0  0  0  0  0  0  0
    9.4892    1.5712   11.4677 O   0  0  0  0  0  0  0  0  0  0  0  0
    9.4699    0.1472   11.5424 C   0  0  0  0  0  0  0  0  0  0  0  0
    6.1831    3.0329    8.2257 C   0  0  0  0  0  0  0  0  0  0  0  0
    5.1602    3.3632    4.1430 C   0  0  0  0  0  0  0  0  0  0  0  0
    4.2965    2.4641    3.4950 C   0  0  0  0  0  0  0  0  0  0  0  0
    3.0922    1.6652    3.9778 C   0  0  0  0  0  0  0  0  0  0  0  0
    3.5008    0.2929    4.5185 C   0  0  0  0  0  0  0  0  0  0  0  0
    2.1338    2.3585    4.9371 C   0  0  0  0  0  0  0  0  0  0  0  0
    6.3060   -1.6412   -0.8416 H   0  0  0  0  0  0  0  0  0  0  0  0
    5.9267   -1.0256    0.7841 H   0  0  0  0  0  0  0  0  0  0  0  0
    7.2425   -0.3052   -0.1281 H   0  0  0  0  0  0  0  0  0  0  0  0
    4.2801   -0.1479   -0.9582 H   0  0  0  0  0  0  0  0  0  0  0  0
    5.6404    0.5827   -1.8141 H   0  0  0  0  0  0  0  0  0  0  0  0
    6.6165    3.3063    1.2360 H   0  0  0  0  0  0  0  0  0  0  0  0
    7.9529    5.7814    4.9293 H   0  0  0  0  0  0  0  0  0  0  0  0
    3.5960    4.0771    6.4413 H   0  0  0  0  0  0  0  0  0  0  0  0
    3.0218    4.2118    8.6919 H   0  0  0  0  0  0  0  0  0  0  0  0
    3.7120    3.9687   11.0523 H   0  0  0  0  0  0  0  0  0  0  0  0
    7.6867    2.4687   11.9312 H   0  0  0  0  0  0  0  0  0  0  0  0
   10.4645   -0.2001   11.8292 H   0  0  0  0  0  0  0  0  0  0  0  0
    9.2133   -0.2831   10.5690 H   0  0  0  0  0  0  0  0  0  0  0  0
    8.7499   -0.1826   12.2990 H   0  0  0  0  0  0  0  0  0  0  0  0
    6.8764    2.7384    7.4396 H   0  0  0  0  0  0  0  0  0  0  0  0
    2.4678    1.4837    3.0939 H   0  0  0  0  0  0  0  0  0  0  0  0
    4.1768    0.3835    5.3746 H   0  0  0  0  0  0  0  0  0  0  0  0
    4.0134   -0.2972    3.7505 H   0  0  0  0  0  0  0  0  0  0  0  0
    2.6209   -0.2786    4.8350 H   0  0  0  0  0  0  0  0  0  0  0  0
    2.4993    2.3519    5.9633 H   0  0  0  0  0  0  0  0  0  0  0  0
    1.1810    1.8147    4.9656 H   0  0  0  0  0  0  0  0  0  0  0  0
    1.9193    3.3857    4.6274 H   0  0  0  0  0  0  0  0  0  0  0  0
  1  2  1  0  0  0  0
  1 31  1  0  0  0  0
  1 32  1  0  0  0  0
  1 33  1  0  0  0  0
  2  3  1  0  0  0  0
  2 34  1  0  0  0  0
  2 35  1  0  0  0  0
  3  4  1  0  0  0  0
  4  5  2  0  0  0  0
  4  6  1  0  0  0  0
  6  7  2  0  0  0  0
  6 27  1  0  0  0  0
  7  8  1  0  0  0  0
  7 36  1  0  0  0  0
  8  9  1  0  0  0  0
  8 26  1  0  0  0  0
  9 10  2  0  0  0  0
 10 11  1  0  0  0  0
 10 37  1  0  0  0  0
 11 12  2  0  0  0  0
 12 13  1  0  0  0  0
 12 26  1  0  0  0  0
 13 14  1  0  0  0  0
 13 38  1  0  0  0  0
 14 15  1  0  0  0  0
 14 25  2  0  0  0  0
 15 16  2  0  0  0  0
 15 39  1  0  0  0  0
 16 17  1  0  0  0  0
 16 40  1  0  0  0  0
 17 18  1  0  0  0  0
 17 19  2  0  0  0  0
 19 20  1  0  0  0  0
 19 25  1  0  0  0  0
 20 21  2  0  0  0  0
 20 22  1  0  0  0  0
 22 23  1  0  0  0  0
 22 41  1  0  0  0  0
 23 24  1  0  0  0  0
 24 42  1  0  0  0  0
 24 43  1  0  0  0  0
 24 44  1  0  0  0  0
 25 45  1  0  0  0  0
 26 27  2  0  0  0  0
 27 28  1  0  0  0  0
 28 29  1  0  0  0  0
 28 30  1  0  0  0  0
 28 46  1  0  0  0  0
 29 47  1  0  0  0  0
 29 48  1  0  0  0  0
 29 49  1  0  0  0  0
 30 50  1  0  0  0  0
 30 51  1  0  0  0  0
 30 52  1  0  0  0  0
M  END
$$$$
