CHEMBL219584
 OpenBabel04072215363D

 49 52  0  0  0  0  0  0  0  0999 V2000
    0.9756    0.0758    0.0824 C   0  0  0  0  0  0  0  0  0  0  0  0
    2.4793    0.0351    0.0226 C   0  0  0  0  0  0  0  0  0  0  0  0
    3.1902    1.2416   -0.0039 C   0  0  0  0  0  0  0  0  0  0  0  0
    4.5757    1.2406   -0.1411 C   0  0  0  0  0  0  0  0  0  0  0  0
    5.2854    0.0356   -0.2400 C   0  0  0  0  0  0  0  0  0  0  0  0
    6.7602    0.1486   -0.4130 C   0  0  0  0  0  0  0  0  0  0  0  0
    7.2963    1.1391    0.0769 O   0  0  0  0  0  0  0  0  0  0  0  0
    7.3932   -0.8070   -1.2022 N   0  0  0  0  0  0  0  0  0  0  0  0
    8.7748   -0.7607   -1.5341 C   0  0  0  0  0  0  0  0  0  0  0  0
    9.6978   -0.0021   -0.8041 C   0  0  0  0  0  0  0  0  0  0  0  0
   11.0224    0.1216   -1.2160 C   0  0  0  0  0  0  0  0  0  0  0  0
   11.4387   -0.4960   -2.3865 C   0  0  0  0  0  0  0  0  0  0  0  0
   10.5438   -1.2744   -3.1353 C   0  0  0  0  0  0  0  0  0  0  0  0
   10.9851   -1.8439   -4.4609 C   0  0  0  0  0  0  0  0  0  0  0  0
   12.2574   -1.4903   -4.8018 F   0  0  0  0  0  0  0  0  0  0  0  0
   10.9536   -3.2031   -4.4941 F   0  0  0  0  0  0  0  0  0  0  0  0
   10.1995   -1.4235   -5.4916 F   0  0  0  0  0  0  0  0  0  0  0  0
    9.2224   -1.4488   -2.6700 C   0  0  0  0  0  0  0  0  0  0  0  0
    4.5949   -1.1791   -0.1572 C   0  0  0  0  0  0  0  0  0  0  0  0
    3.1919   -1.1800   -0.0443 C   0  0  0  0  0  0  0  0  0  0  0  0
    2.4942   -2.4361   -0.0346 C   0  0  0  0  0  0  0  0  0  0  0  0
    1.8780   -3.4737   -0.0651 C   0  0  0  0  0  0  0  0  0  0  0  0
    1.1664   -4.7139   -0.1424 C   0  0  0  0  0  0  0  0  0  0  0  0
   -0.1787   -4.7613   -0.4763 C   0  0  0  0  0  0  0  0  0  0  0  0
   -0.8903   -5.9082   -0.6266 N   0  0  0  0  0  0  0  0  0  0  0  0
   -0.2424   -7.0768   -0.4599 C   0  0  0  0  0  0  0  0  0  0  0  0
   -0.9105   -8.2783   -0.6717 C   0  0  0  0  0  0  0  0  0  0  0  0
   -0.2571   -9.5116   -0.5726 C   0  0  0  0  0  0  0  0  0  0  0  0
    1.0811   -9.5578   -0.2002 C   0  0  0  0  0  0  0  0  0  0  0  0
    1.7656   -8.3715    0.0538 C   0  0  0  0  0  0  0  0  0  0  0  0
    1.1231   -7.1315   -0.1031 C   0  0  0  0  0  0  0  0  0  0  0  0
    1.8201   -5.9252    0.0597 C   0  0  0  0  0  0  0  0  0  0  0  0
    0.6051    1.1042    0.1596 H   0  0  0  0  0  0  0  0  0  0  0  0
    0.6057   -0.4723    0.9541 H   0  0  0  0  0  0  0  0  0  0  0  0
    0.5523   -0.3562   -0.8308 H   0  0  0  0  0  0  0  0  0  0  0  0
    2.6712    2.1957    0.0624 H   0  0  0  0  0  0  0  0  0  0  0  0
    5.1060    2.1922   -0.1817 H   0  0  0  0  0  0  0  0  0  0  0  0
    6.8098   -1.4123   -1.7659 H   0  0  0  0  0  0  0  0  0  0  0  0
    9.4101    0.5317    0.0962 H   0  0  0  0  0  0  0  0  0  0  0  0
   11.7107    0.7343   -0.6398 H   0  0  0  0  0  0  0  0  0  0  0  0
   12.4622   -0.3471   -2.7269 H   0  0  0  0  0  0  0  0  0  0  0  0
    8.5370   -2.0685   -3.2450 H   0  0  0  0  0  0  0  0  0  0  0  0
    5.1317   -2.1240   -0.1667 H   0  0  0  0  0  0  0  0  0  0  0  0
   -0.7512   -3.8538   -0.6574 H   0  0  0  0  0  0  0  0  0  0  0  0
   -1.9626   -8.2544   -0.9458 H   0  0  0  0  0  0  0  0  0  0  0  0
   -0.7945  -10.4304   -0.7941 H   0  0  0  0  0  0  0  0  0  0  0  0
    1.5942  -10.5127   -0.1181 H   0  0  0  0  0  0  0  0  0  0  0  0
    2.8101   -8.4175    0.3520 H   0  0  0  0  0  0  0  0  0  0  0  0
    2.8768   -5.9293    0.3175 H   0  0  0  0  0  0  0  0  0  0  0  0
  1  2  1  0  0  0  0
  1 33  1  0  0  0  0
  1 34  1  0  0  0  0
  1 35  1  0  0  0  0
  2  3  1  0  0  0  0
  2 20  2  0  0  0  0
  3  4  2  0  0  0  0
  3 36  1  0  0  0  0
  4  5  1  0  0  0  0
  4 37  1  0  0  0  0
  5  6  1  0  0  0  0
  5 19  2  0  0  0  0
  6  7  2  0  0  0  0
  6  8  1  0  0  0  0
  8  9  1  0  0  0  0
  8 38  1  0  0  0  0
  9 10  1  0  0  0  0
  9 18  2  0  0  0  0
 10 11  2  0  0  0  0
 10 39  1  0  0  0  0
 11 12  1  0  0  0  0
 11 40  1  0  0  0  0
 12 13  2  0  0  0  0
 12 41  1  0  0  0  0
 13 14  1  0  0  0  0
 13 18  1  0  0  0  0
 14 15  1  0  0  0  0
 14 16  1  0  0  0  0
 14 17  1  0  0  0  0
 18 42  1  0  0  0  0
 19 20  1  0  0  0  0
 19 43  1  0  0  0  0
 20 21  1  0  0  0  0
 21 22  3  0  0  0  0
 22 23  1  0  0  0  0
 23 24  1  0  0  0  0
 23 32  2  0  0  0  0
 24 25  2  0  0  0  0
 24 44  1  0  0  0  0
 25 26  1  0  0  0  0
 26 27  1  0  0  0  0
 26 31  2  0  0  0  0
 27 28  2  0  0  0  0
 27 45  1  0  0  0  0
 28 29  1  0  0  0  0
 28 46  1  0  0  0  0
 29 30  2  0  0  0  0
 29 47  1  0  0  0  0
 30 31  1  0  0  0  0
 30 48  1  0  0  0  0
 31 32  1  0  0  0  0
 32 49  1  0  0  0  0
M  END
$$$$
