CHEMBL3612227
 OpenBabel04072215363D

 41 44  0  0  0  0  0  0  0  0999 V2000
    2.5108    0.7773    1.0902 O   0  0  0  0  0  0  0  0  0  0  0  0
    2.1435   -0.1630    0.3959 C   0  0  0  0  0  0  0  0  0  0  0  0
    0.8157   -0.4690    0.1354 N   0  0  0  0  0  0  0  0  0  0  0  0
   -0.3117    0.2153    0.6491 C   0  0  0  0  0  0  0  0  0  0  0  0
   -0.2463    1.4655    1.2717 C   0  0  0  0  0  0  0  0  0  0  0  0
   -1.3905    2.0535    1.8172 C   0  0  0  0  0  0  0  0  0  0  0  0
   -2.6170    1.4019    1.7356 C   0  0  0  0  0  0  0  0  0  0  0  0
   -2.7023    0.1710    1.0900 C   0  0  0  0  0  0  0  0  0  0  0  0
   -1.5574   -0.4153    0.5409 C   0  0  0  0  0  0  0  0  0  0  0  0
    2.9975   -1.0788   -0.1989 N   0  0  0  0  0  0  0  0  0  0  0  0
    4.4021   -1.1554   -0.0378 C   0  0  0  0  0  0  0  0  0  0  0  0
    5.1363   -0.2984    0.7887 C   0  0  0  0  0  0  0  0  0  0  0  0
    6.5246   -0.4156    0.8907 C   0  0  0  0  0  0  0  0  0  0  0  0
    7.1937   -1.4078    0.1817 C   0  0  0  0  0  0  0  0  0  0  0  0
    6.4745   -2.2994   -0.6162 C   0  0  0  0  0  0  0  0  0  0  0  0
    7.3323   -3.5870   -1.5025 S   0  0  0  0  0  0  0  0  0  0  0  0
    7.2299   -4.9388   -0.3486 C   0  0  0  0  0  0  0  0  0  0  0  0
    7.8830   -4.8964    0.8841 C   0  0  0  0  0  0  0  0  0  0  0  0
    7.8178   -5.9947    1.7189 C   0  0  0  0  0  0  0  0  0  0  0  0
    7.1687   -7.1378    1.4440 N   0  0  0  0  0  0  0  0  0  0  0  0
    6.5348   -7.1853    0.2420 C   0  0  0  0  0  0  0  0  0  0  0  0
    5.8037   -8.3126   -0.2343 C   0  0  0  0  0  0  0  0  0  0  0  0
    5.2590   -8.0992   -1.4779 C   0  0  0  0  0  0  0  0  0  0  0  0
    5.6285   -6.5452   -2.0778 S   0  0  0  0  0  0  0  0  0  0  0  0
    6.5380   -6.1243   -0.6691 C   0  0  0  0  0  0  0  0  0  0  0  0
    5.0838   -2.1580   -0.7370 C   0  0  0  0  0  0  0  0  0  0  0  0
    0.6316   -1.3567   -0.3020 H   0  0  0  0  0  0  0  0  0  0  0  0
    0.6851    2.0168    1.3514 H   0  0  0  0  0  0  0  0  0  0  0  0
   -1.3136    3.0184    2.3117 H   0  0  0  0  0  0  0  0  0  0  0  0
   -3.5020    1.8545    2.1749 H   0  0  0  0  0  0  0  0  0  0  0  0
   -3.6598   -0.3386    1.0238 H   0  0  0  0  0  0  0  0  0  0  0  0
   -1.6531   -1.3823    0.0550 H   0  0  0  0  0  0  0  0  0  0  0  0
    2.5889   -1.7246   -0.8556 H   0  0  0  0  0  0  0  0  0  0  0  0
    4.6649    0.4869    1.3700 H   0  0  0  0  0  0  0  0  0  0  0  0
    7.0757    0.2748    1.5245 H   0  0  0  0  0  0  0  0  0  0  0  0
    8.2754   -1.4774    0.2613 H   0  0  0  0  0  0  0  0  0  0  0  0
    8.4472   -4.0237    1.1945 H   0  0  0  0  0  0  0  0  0  0  0  0
    8.3228   -5.9816    2.6823 H   0  0  0  0  0  0  0  0  0  0  0  0
    5.6918   -9.2342    0.3216 H   0  0  0  0  0  0  0  0  0  0  0  0
    4.6626   -8.7841   -2.0649 H   0  0  0  0  0  0  0  0  0  0  0  0
    4.5397   -2.8431   -1.3831 H   0  0  0  0  0  0  0  0  0  0  0  0
  1  2  2  0  0  0  0
  2  3  1  0  0  0  0
  2 10  1  0  0  0  0
  3  4  1  0  0  0  0
  3 27  1  0  0  0  0
  4  5  1  0  0  0  0
  4  9  2  0  0  0  0
  5  6  2  0  0  0  0
  5 28  1  0  0  0  0
  6  7  1  0  0  0  0
  6 29  1  0  0  0  0
  7  8  2  0  0  0  0
  7 30  1  0  0  0  0
  8  9  1  0  0  0  0
  8 31  1  0  0  0  0
  9 32  1  0  0  0  0
 10 11  1  0  0  0  0
 10 33  1  0  0  0  0
 11 12  1  0  0  0  0
 11 26  2  0  0  0  0
 12 13  2  0  0  0  0
 12 34  1  0  0  0  0
 13 14  1  0  0  0  0
 13 35  1  0  0  0  0
 14 15  2  0  0  0  0
 14 36  1  0  0  0  0
 15 16  1  0  0  0  0
 15 26  1  0  0  0  0
 16 17  1  0  0  0  0
 17 18  1  0  0  0  0
 17 25  2  0  0  0  0
 18 19  2  0  0  0  0
 18 37  1  0  0  0  0
 19 20  1  0  0  0  0
 19 38  1  0  0  0  0
 20 21  2  0  0  0  0
 21 22  1  0  0  0  0
 21 25  1  0  0  0  0
 22 23  2  0  0  0  0
 22 39  1  0  0  0  0
 23 24  1  0  0  0  0
 23 40  1  0  0  0  0
 24 25  1  0  0  0  0
 26 41  1  0  0  0  0
M  END
$$$$
