CHEMBL4436907
 OpenBabel04072215383D

 47 50  0  0  0  0  0  0  0  0999 V2000
    2.7137   -0.5165    1.3279 O   0  0  0  0  0  0  0  0  0  0  0  0
    2.3021   -0.6841    0.1864 C   0  0  0  0  0  0  0  0  0  0  0  0
    0.9587   -0.8102   -0.1452 N   0  0  0  0  0  0  0  0  0  0  0  0
   -0.1096   -0.8612    0.7852 C   0  0  0  0  0  0  0  0  0  0  0  0
    0.0211   -0.4985    2.1294 C   0  0  0  0  0  0  0  0  0  0  0  0
   -1.0293   -0.6896    3.0316 C   0  0  0  0  0  0  0  0  0  0  0  0
   -2.2312   -1.2240    2.5866 C   0  0  0  0  0  0  0  0  0  0  0  0
   -3.5039   -1.5102    3.7061 Cl  0  0  0  0  0  0  0  0  0  0  0  0
   -2.4006   -1.5343    1.2398 C   0  0  0  0  0  0  0  0  0  0  0  0
   -1.3454   -1.3439    0.3383 C   0  0  0  0  0  0  0  0  0  0  0  0
    3.1185   -0.8156   -0.9256 N   0  0  0  0  0  0  0  0  0  0  0  0
    4.5281   -0.9308   -0.9107 C   0  0  0  0  0  0  0  0  0  0  0  0
    5.2784   -1.0341    0.2617 C   0  0  0  0  0  0  0  0  0  0  0  0
    6.6722   -1.1553    0.2233 C   0  0  0  0  0  0  0  0  0  0  0  0
    7.3541   -1.1558   -1.0023 C   0  0  0  0  0  0  0  0  0  0  0  0
    8.8518   -1.1480   -1.1159 C   0  0  0  0  0  0  0  0  0  0  0  0
    9.3872   -1.3128   -2.2076 O   0  0  0  0  0  0  0  0  0  0  0  0
    9.5315   -0.8738    0.0563 N   0  0  0  0  0  0  0  0  0  0  0  0
   10.7018   -0.1515    0.0193 N   0  0  0  0  0  0  0  0  0  0  0  0
   11.0294    0.3147    1.1859 C   0  0  0  0  0  0  0  0  0  0  0  0
   10.5931   -0.2336    2.5561 C   0  0  0  0  0  0  0  0  0  0  0  0
   10.5357   -1.3991    2.8767 O   0  0  0  0  0  0  0  0  0  0  0  0
   10.1911    0.8732    3.2591 N   0  0  0  0  0  0  0  0  0  0  0  0
   10.5094    2.0337    2.5601 C   0  0  0  0  0  0  0  0  0  0  0  0
   10.1219    3.3142    2.8780 C   0  0  0  0  0  0  0  0  0  0  0  0
   10.4774    4.3264    1.9799 C   0  0  0  0  0  0  0  0  0  0  0  0
   11.2084    4.0372    0.8064 C   0  0  0  0  0  0  0  0  0  0  0  0
   11.6044    5.3206   -0.2697 Cl  0  0  0  0  0  0  0  0  0  0  0  0
   11.5659    2.7308    0.4759 C   0  0  0  0  0  0  0  0  0  0  0  0
   11.2056    1.7524    1.3783 C   0  0  0  0  0  0  0  0  0  0  0  0
    6.6003   -1.0834   -2.1766 C   0  0  0  0  0  0  0  0  0  0  0  0
    5.2027   -0.9738   -2.1347 C   0  0  0  0  0  0  0  0  0  0  0  0
    0.7488   -1.1127   -1.0842 H   0  0  0  0  0  0  0  0  0  0  0  0
    0.9360   -0.0676    2.5231 H   0  0  0  0  0  0  0  0  0  0  0  0
   -0.8859   -0.4304    4.0771 H   0  0  0  0  0  0  0  0  0  0  0  0
   -3.3452   -1.9399    0.8883 H   0  0  0  0  0  0  0  0  0  0  0  0
   -1.4990   -1.6124   -0.7036 H   0  0  0  0  0  0  0  0  0  0  0  0
    2.6808   -0.7500   -1.8318 H   0  0  0  0  0  0  0  0  0  0  0  0
    4.8169   -1.0284    1.2448 H   0  0  0  0  0  0  0  0  0  0  0  0
    7.1703   -1.2510    1.1824 H   0  0  0  0  0  0  0  0  0  0  0  0
    8.9505   -0.6620    0.8664 H   0  0  0  0  0  0  0  0  0  0  0  0
    9.7148    0.8151    4.1473 H   0  0  0  0  0  0  0  0  0  0  0  0
    9.5132    3.5280    3.7498 H   0  0  0  0  0  0  0  0  0  0  0  0
   10.1573    5.3474    2.1782 H   0  0  0  0  0  0  0  0  0  0  0  0
   12.0425    2.4819   -0.4662 H   0  0  0  0  0  0  0  0  0  0  0  0
    7.1070   -1.0904   -3.1422 H   0  0  0  0  0  0  0  0  0  0  0  0
    4.6611   -0.9138   -3.0754 H   0  0  0  0  0  0  0  0  0  0  0  0
  1  2  2  0  0  0  0
  2  3  1  0  0  0  0
  2 11  1  0  0  0  0
  3  4  1  0  0  0  0
  3 33  1  0  0  0  0
  4  5  1  0  0  0  0
  4 10  2  0  0  0  0
  5  6  2  0  0  0  0
  5 34  1  0  0  0  0
  6  7  1  0  0  0  0
  6 35  1  0  0  0  0
  7  8  1  0  0  0  0
  7  9  2  0  0  0  0
  9 10  1  0  0  0  0
  9 36  1  0  0  0  0
 10 37  1  0  0  0  0
 11 12  1  0  0  0  0
 11 38  1  0  0  0  0
 12 13  1  0  0  0  0
 12 32  2  0  0  0  0
 13 14  2  0  0  0  0
 13 39  1  0  0  0  0
 14 15  1  0  0  0  0
 14 40  1  0  0  0  0
 15 16  1  0  0  0  0
 15 31  2  0  0  0  0
 16 17  2  0  0  0  0
 16 18  1  0  0  0  0
 18 19  1  0  0  0  0
 18 41  1  0  0  0  0
 19 20  2  0  0  0  0
 20 21  1  0  0  0  0
 20 30  1  0  0  0  0
 21 22  2  0  0  0  0
 21 23  1  0  0  0  0
 23 24  1  0  0  0  0
 23 42  1  0  0  0  0
 24 25  1  0  0  0  0
 24 30  2  0  0  0  0
 25 26  2  0  0  0  0
 25 43  1  0  0  0  0
 26 27  1  0  0  0  0
 26 44  1  0  0  0  0
 27 28  1  0  0  0  0
 27 29  2  0  0  0  0
 29 30  1  0  0  0  0
 29 45  1  0  0  0  0
 31 32  1  0  0  0  0
 31 46  1  0  0  0  0
 32 47  1  0  0  0  0
M  END
$$$$
