CHEMBL372744
 OpenBabel04072215373D

 47 50  0  0  0  0  0  0  0  0999 V2000
    2.8445    0.8257   -2.3255 C   0  0  0  0  0  0  0  0  0  0  0  0
    1.4329    0.5433   -1.8989 C   0  0  0  0  0  0  0  0  0  0  0  0
    0.9213   -0.7541   -2.0055 C   0  0  0  0  0  0  0  0  0  0  0  0
   -0.3714   -1.0263   -1.5789 C   0  0  0  0  0  0  0  0  0  0  0  0
   -1.1681   -0.0062   -1.0641 C   0  0  0  0  0  0  0  0  0  0  0  0
   -2.3474   -0.3808   -0.5552 F   0  0  0  0  0  0  0  0  0  0  0  0
   -0.7113    1.3215   -1.0058 C   0  0  0  0  0  0  0  0  0  0  0  0
   -1.4911    2.4367   -0.5860 N   0  0  0  0  0  0  0  0  0  0  0  0
   -2.8700    2.4718   -0.5309 C   0  0  0  0  0  0  0  0  0  0  0  0
   -3.6129    1.5629   -0.8754 O   0  0  0  0  0  0  0  0  0  0  0  0
   -3.3588    3.7072   -0.1042 N   0  0  0  0  0  0  0  0  0  0  0  0
   -4.7540    3.8619    0.0993 C   0  0  0  0  0  0  0  0  0  0  0  0
   -5.4823    2.8915    0.7879 C   0  0  0  0  0  0  0  0  0  0  0  0
   -6.8787    2.9339    0.8083 C   0  0  0  0  0  0  0  0  0  0  0  0
   -7.5822    3.9937    0.2210 C   0  0  0  0  0  0  0  0  0  0  0  0
   -9.0609    3.9913    0.1747 C   0  0  0  0  0  0  0  0  0  0  0  0
   -9.8296    3.5960    1.2745 C   0  0  0  0  0  0  0  0  0  0  0  0
   -9.4655    3.1505    2.6597 C   0  0  0  0  0  0  0  0  0  0  0  0
  -11.5096    3.6342    0.9371 S   0  0  0  0  0  0  0  0  0  0  0  0
  -11.2607    4.2071   -0.6324 C   0  0  0  0  0  0  0  0  0  0  0  0
  -12.3310    4.4520   -1.4062 N   0  0  0  0  0  0  0  0  0  0  0  0
  -11.9963    4.8969   -2.6122 C   0  0  0  0  0  0  0  0  0  0  0  0
  -10.7610    5.0876   -3.0857 N   0  0  0  0  0  0  0  0  0  0  0  0
   -9.7084    4.8132   -2.2894 C   0  0  0  0  0  0  0  0  0  0  0  0
   -8.4730    5.0026   -2.8983 N   0  0  0  0  0  0  0  0  0  0  0  0
   -9.9213    4.3596   -0.9650 C   0  0  0  0  0  0  0  0  0  0  0  0
   -6.8285    5.0262   -0.3595 C   0  0  0  0  0  0  0  0  0  0  0  0
   -5.4263    4.9536   -0.4435 C   0  0  0  0  0  0  0  0  0  0  0  0
    0.6103    1.5723   -1.3993 C   0  0  0  0  0  0  0  0  0  0  0  0
    3.3452   -0.0844   -2.6742 H   0  0  0  0  0  0  0  0  0  0  0  0
    3.4218    1.2186   -1.4833 H   0  0  0  0  0  0  0  0  0  0  0  0
    2.8560    1.5474   -3.1472 H   0  0  0  0  0  0  0  0  0  0  0  0
    1.5295   -1.5649   -2.3997 H   0  0  0  0  0  0  0  0  0  0  0  0
   -0.7737   -2.0323   -1.6231 H   0  0  0  0  0  0  0  0  0  0  0  0
   -1.0075    3.3105   -0.4396 H   0  0  0  0  0  0  0  0  0  0  0  0
   -2.8750    4.5018   -0.4929 H   0  0  0  0  0  0  0  0  0  0  0  0
   -4.9735    2.0594    1.2705 H   0  0  0  0  0  0  0  0  0  0  0  0
   -7.3955    2.0975    1.2710 H   0  0  0  0  0  0  0  0  0  0  0  0
   -8.4108    3.2912    2.8995 H   0  0  0  0  0  0  0  0  0  0  0  0
   -9.7055    2.0877    2.7869 H   0  0  0  0  0  0  0  0  0  0  0  0
  -10.0296    3.7175    3.4084 H   0  0  0  0  0  0  0  0  0  0  0  0
  -12.8140    5.1243   -3.2885 H   0  0  0  0  0  0  0  0  0  0  0  0
   -8.6120    5.1297   -3.8959 H   0  0  0  0  0  0  0  0  0  0  0  0
   -7.7904    4.2955   -2.6522 H   0  0  0  0  0  0  0  0  0  0  0  0
   -7.3242    5.8827   -0.8128 H   0  0  0  0  0  0  0  0  0  0  0  0
   -4.8946    5.7159   -1.0061 H   0  0  0  0  0  0  0  0  0  0  0  0
    1.0191    2.5789   -1.3443 H   0  0  0  0  0  0  0  0  0  0  0  0
  1  2  1  0  0  0  0
  1 30  1  0  0  0  0
  1 31  1  0  0  0  0
  1 32  1  0  0  0  0
  2  3  1  0  0  0  0
  2 29  2  0  0  0  0
  3  4  2  0  0  0  0
  3 33  1  0  0  0  0
  4  5  1  0  0  0  0
  4 34  1  0  0  0  0
  5  6  1  0  0  0  0
  5  7  2  0  0  0  0
  7  8  1  0  0  0  0
  7 29  1  0  0  0  0
  8  9  1  0  0  0  0
  8 35  1  0  0  0  0
  9 10  2  0  0  0  0
  9 11  1  0  0  0  0
 11 12  1  0  0  0  0
 11 36  1  0  0  0  0
 12 13  1  0  0  0  0
 12 28  2  0  0  0  0
 13 14  2  0  0  0  0
 13 37  1  0  0  0  0
 14 15  1  0  0  0  0
 14 38  1  0  0  0  0
 15 16  1  0  0  0  0
 15 27  2  0  0  0  0
 16 17  2  0  0  0  0
 16 26  1  0  0  0  0
 17 18  1  0  0  0  0
 17 19  1  0  0  0  0
 18 39  1  0  0  0  0
 18 40  1  0  0  0  0
 18 41  1  0  0  0  0
 19 20  1  0  0  0  0
 20 21  1  0  0  0  0
 20 26  2  0  0  0  0
 21 22  2  0  0  0  0
 22 23  1  0  0  0  0
 22 42  1  0  0  0  0
 23 24  2  0  0  0  0
 24 25  1  0  0  0  0
 24 26  1  0  0  0  0
 25 43  1  0  0  0  0
 25 44  1  0  0  0  0
 27 28  1  0  0  0  0
 27 45  1  0  0  0  0
 28 46  1  0  0  0  0
 29 47  1  0  0  0  0
M  END
$$$$
