CHEMBL2071199
 OpenBabel04072215363D

 45 48  0  0  1  0  0  0  0  0999 V2000
   -6.9747   -9.4713    1.8794 C   0  0  0  0  0  0  0  0  0  0  0  0
   -5.5702   -9.2091    1.6965 N   0  0  0  0  0  0  0  0  0  0  0  0
   -4.5964   -9.2658    2.6526 C   0  0  0  0  0  0  0  0  0  0  0  0
   -3.4285   -8.9628    2.0025 C   0  0  0  0  0  0  0  0  0  0  0  0
   -2.2114   -8.9339    2.5734 N   0  0  0  0  0  0  0  0  0  0  0  0
   -1.0022   -8.5383    2.0079 C   0  0  0  0  0  0  0  0  0  0  0  0
    0.1034   -9.0414    2.5709 N   0  0  0  0  0  0  0  0  0  0  0  0
    1.2704   -8.7585    1.9629 C   0  0  0  0  0  0  0  0  0  0  0  0
    1.3516   -7.9836    0.8244 C   0  0  0  0  0  0  0  0  0  0  0  0
    2.6627   -7.7603    0.2465 N   0  3  0  0  0  0  0  0  0  0  0  0
    3.6330   -8.2818    0.7841 O   0  0  0  0  0  0  0  0  0  0  0  0
    2.7246   -7.0343   -0.7635 O   0  5  0  0  0  0  0  0  0  0  0  0
    0.1629   -7.4759    0.2962 C   0  0  0  0  0  0  0  0  0  0  0  0
    0.0317   -6.9495   -0.9970 N   0  0  0  0  0  0  0  0  0  0  0  0
   -0.4178   -5.5686   -1.2670 C   0  0  1  0  0  0  0  0  0  0  0  0
   -0.4907   -5.2864   -2.8051 C   0  0  1  0  0  0  0  0  0  0  0  0
   -1.1842   -6.3153   -3.7091 C   0  0  0  0  0  0  0  0  0  0  0  0
   -0.9870   -7.6305   -3.4284 N   0  0  0  0  0  0  0  0  0  0  0  0
   -1.8159   -6.0061   -4.7179 O   0  0  0  0  0  0  0  0  0  0  0  0
   -1.3357   -3.9889   -2.8303 C   0  0  2  0  0  0  0  0  0  0  0  0
   -0.7523   -2.9542   -1.8858 C   0  0  0  0  0  0  0  0  0  0  0  0
   -1.0394   -3.3479   -0.6283 C   0  0  0  0  0  0  0  0  0  0  0  0
   -1.6483   -4.7594   -0.7298 C   0  0  1  0  0  0  0  0  0  0  0  0
   -2.5254   -4.4159   -1.9543 C   0  0  0  0  0  0  0  0  0  0  0  0
   -0.9924   -7.7488    0.9149 N   0  0  0  0  0  0  0  0  0  0  0  0
   -3.8006   -8.7545    0.6570 C   0  0  0  0  0  0  0  0  0  0  0  0
   -5.1137   -8.9075    0.4678 N   0  0  0  0  0  0  0  0  0  0  0  0
   -7.2004   -9.4982    2.9474 H   0  0  0  0  0  0  0  0  0  0  0  0
   -7.1938  -10.4375    1.4196 H   0  0  0  0  0  0  0  0  0  0  0  0
   -7.5449   -8.6735    1.3968 H   0  0  0  0  0  0  0  0  0  0  0  0
   -4.8182   -9.4845    3.6875 H   0  0  0  0  0  0  0  0  0  0  0  0
   -2.0285   -9.4128    3.4446 H   0  0  0  0  0  0  0  0  0  0  0  0
    2.1409   -9.2226    2.4284 H   0  0  0  0  0  0  0  0  0  0  0  0
    0.9878   -6.9454   -1.3896 H   0  0  0  0  0  0  0  0  0  0  0  0
    0.4561   -5.0210   -0.8859 H   0  0  0  0  0  0  0  0  0  0  0  0
    0.5203   -5.1460   -3.1976 H   0  0  0  0  0  0  0  0  0  0  0  0
   -0.7361   -7.9045   -2.4808 H   0  0  0  0  0  0  0  0  0  0  0  0
   -1.5361   -8.2885   -3.9660 H   0  0  0  0  0  0  0  0  0  0  0  0
   -1.6067   -3.6004   -3.8140 H   0  0  0  0  0  0  0  0  0  0  0  0
   -0.1469   -2.1096   -2.1818 H   0  0  0  0  0  0  0  0  0  0  0  0
   -0.7066   -2.8720    0.2818 H   0  0  0  0  0  0  0  0  0  0  0  0
   -2.1948   -5.0860    0.1552 H   0  0  0  0  0  0  0  0  0  0  0  0
   -3.2232   -3.5756   -1.7909 H   0  0  0  0  0  0  0  0  0  0  0  0
   -3.1102   -5.2513   -2.3473 H   0  0  0  0  0  0  0  0  0  0  0  0
   -3.1727   -8.5245   -0.1959 H   0  0  0  0  0  0  0  0  0  0  0  0
  1  2  1  0  0  0  0
  1 28  1  0  0  0  0
  1 29  1  0  0  0  0
  1 30  1  0  0  0  0
  2  3  1  0  0  0  0
  2 27  1  0  0  0  0
  3  4  2  0  0  0  0
  3 31  1  0  0  0  0
  4  5  1  0  0  0  0
  4 26  1  0  0  0  0
  5  6  1  0  0  0  0
  5 32  1  0  0  0  0
  6  7  1  0  0  0  0
  6 25  2  0  0  0  0
  7  8  2  0  0  0  0
  8  9  1  0  0  0  0
  8 33  1  0  0  0  0
  9 10  1  0  0  0  0
  9 13  2  0  0  0  0
 10 11  2  0  0  0  0
 10 12  1  0  0  0  0
 13 14  1  0  0  0  0
 13 25  1  0  0  0  0
 14 34  1  0  0  0  0
 15 16  1  0  0  0  0
 15 23  1  0  0  0  0
 15 14  1  0  0  0  0
 15 35  1  1  0  0  0
 16 17  1  0  0  0  0
 16 20  1  0  0  0  0
 16 36  1  6  0  0  0
 17 18  1  0  0  0  0
 17 19  2  0  0  0  0
 18 37  1  0  0  0  0
 18 38  1  0  0  0  0
 20 21  1  0  0  0  0
 20 24  1  0  0  0  0
 20 39  1  6  0  0  0
 21 22  2  0  0  0  0
 21 40  1  0  0  0  0
 22 23  1  0  0  0  0
 22 41  1  0  0  0  0
 23 24  1  0  0  0  0
 23 42  1  1  0  0  0
 24 43  1  0  0  0  0
 24 44  1  0  0  0  0
 26 27  2  0  0  0  0
 26 45  1  0  0  0  0
M  CHG  2  10   1  12  -1
M  END
$$$$
