CHEMBL3754722
 OpenBabel04072215373D

 43 45  0  0  0  0  0  0  0  0999 V2000
    0.9221   -0.0934   -0.1152 C   0  0  0  0  0  0  0  0  0  0  0  0
    2.3095    0.1524   -0.3299 O   0  0  0  0  0  0  0  0  0  0  0  0
    2.9717    0.9302    0.5860 C   0  0  0  0  0  0  0  0  0  0  0  0
    2.4742    1.1416    1.8696 C   0  0  0  0  0  0  0  0  0  0  0  0
    3.1898    1.8184    2.8558 C   0  0  0  0  0  0  0  0  0  0  0  0
    2.6960    1.9746    4.1805 N   0  0  0  0  0  0  0  0  0  0  0  0
    1.5902    1.2989    4.6838 C   0  0  0  0  0  0  0  0  0  0  0  0
    0.9707    0.4250    4.0876 O   0  0  0  0  0  0  0  0  0  0  0  0
    1.2046    1.7451    5.9421 N   0  0  0  0  0  0  0  0  0  0  0  0
    0.0358    1.1806    6.5291 C   0  0  0  0  0  0  0  0  0  0  0  0
   -0.1774   -0.2019    6.5332 C   0  0  0  0  0  0  0  0  0  0  0  0
   -1.3978   -0.6785    6.9708 C   0  0  0  0  0  0  0  0  0  0  0  0
   -2.3947    0.1184    7.4102 N   0  0  0  0  0  0  0  0  0  0  0  0
   -2.1483    1.4459    7.4173 C   0  0  0  0  0  0  0  0  0  0  0  0
   -0.9502    2.0216    7.0201 C   0  0  0  0  0  0  0  0  0  0  0  0
    4.4452    2.3428    2.5076 C   0  0  0  0  0  0  0  0  0  0  0  0
    5.0135    2.1431    1.2164 C   0  0  0  0  0  0  0  0  0  0  0  0
    6.4047    2.5978    0.9432 C   0  0  0  0  0  0  0  0  0  0  0  0
    7.4174    2.5366    1.8923 C   0  0  0  0  0  0  0  0  0  0  0  0
    8.7137    2.8685    1.6823 N   0  0  0  0  0  0  0  0  0  0  0  0
    9.0113    3.2779    0.4435 C   0  0  0  0  0  0  0  0  0  0  0  0
    8.1400    3.4165   -0.5613 N   0  0  0  0  0  0  0  0  0  0  0  0
    6.8587    3.0740   -0.2797 C   0  0  0  0  0  0  0  0  0  0  0  0
    4.2337    1.4497    0.2466 C   0  0  0  0  0  0  0  0  0  0  0  0
    4.8113    1.2434   -0.9880 O   0  0  0  0  0  0  0  0  0  0  0  0
    3.9347    1.3048   -2.1141 C   0  0  0  0  0  0  0  0  0  0  0  0
    0.5512   -0.6728   -0.9647 H   0  0  0  0  0  0  0  0  0  0  0  0
    0.3640    0.8485   -0.0783 H   0  0  0  0  0  0  0  0  0  0  0  0
    0.7478   -0.6955    0.7828 H   0  0  0  0  0  0  0  0  0  0  0  0
    1.5074    0.7300    2.1058 H   0  0  0  0  0  0  0  0  0  0  0  0
    3.2888    2.4543    4.8390 H   0  0  0  0  0  0  0  0  0  0  0  0
    1.3545    2.7322    6.0990 H   0  0  0  0  0  0  0  0  0  0  0  0
    0.5700   -0.8956    6.1640 H   0  0  0  0  0  0  0  0  0  0  0  0
   -1.6172   -1.7418    6.9589 H   0  0  0  0  0  0  0  0  0  0  0  0
   -2.9854    2.0621    7.7373 H   0  0  0  0  0  0  0  0  0  0  0  0
   -0.8435    3.0982    7.0229 H   0  0  0  0  0  0  0  0  0  0  0  0
    5.0038    2.8954    3.2590 H   0  0  0  0  0  0  0  0  0  0  0  0
    7.2261    2.1771    2.8989 H   0  0  0  0  0  0  0  0  0  0  0  0
   10.0487    3.5143    0.2353 H   0  0  0  0  0  0  0  0  0  0  0  0
    6.1893    3.1992   -1.1257 H   0  0  0  0  0  0  0  0  0  0  0  0
    4.5234    1.6236   -2.9801 H   0  0  0  0  0  0  0  0  0  0  0  0
    3.1272    2.0334   -1.9812 H   0  0  0  0  0  0  0  0  0  0  0  0
    3.5423    0.3101   -2.3456 H   0  0  0  0  0  0  0  0  0  0  0  0
  1  2  1  0  0  0  0
  1 27  1  0  0  0  0
  1 28  1  0  0  0  0
  1 29  1  0  0  0  0
  2  3  1  0  0  0  0
  3  4  1  0  0  0  0
  3 24  2  0  0  0  0
  4  5  2  0  0  0  0
  4 30  1  0  0  0  0
  5  6  1  0  0  0  0
  5 16  1  0  0  0  0
  6  7  1  0  0  0  0
  6 31  1  0  0  0  0
  7  8  2  0  0  0  0
  7  9  1  0  0  0  0
  9 10  1  0  0  0  0
  9 32  1  0  0  0  0
 10 11  1  0  0  0  0
 10 15  2  0  0  0  0
 11 12  2  0  0  0  0
 11 33  1  0  0  0  0
 12 13  1  0  0  0  0
 12 34  1  0  0  0  0
 13 14  2  0  0  0  0
 14 15  1  0  0  0  0
 14 35  1  0  0  0  0
 15 36  1  0  0  0  0
 16 17  2  0  0  0  0
 16 37  1  0  0  0  0
 17 18  1  0  0  0  0
 17 24  1  0  0  0  0
 18 19  1  0  0  0  0
 18 23  2  0  0  0  0
 19 20  2  0  0  0  0
 19 38  1  0  0  0  0
 20 21  1  0  0  0  0
 21 22  2  0  0  0  0
 21 39  1  0  0  0  0
 22 23  1  0  0  0  0
 23 40  1  0  0  0  0
 24 25  1  0  0  0  0
 25 26  1  0  0  0  0
 26 41  1  0  0  0  0
 26 42  1  0  0  0  0
 26 43  1  0  0  0  0
M  END
$$$$
