CHEMBL271310
 OpenBabel04072215363D

 70 74  0  0  0  0  0  0  0  0999 V2000
    1.3451    0.9956    0.3544 C   0  0  0  0  0  0  0  0  0  0  0  0
    2.4010    0.0029   -0.1299 C   0  0  0  0  0  0  0  0  0  0  0  0
    3.4409    0.6492   -1.0445 C   0  0  0  0  0  0  0  0  0  0  0  0
    2.9490   -0.8717    0.9905 C   0  0  0  0  0  0  0  0  0  0  0  0
    2.8143   -2.3150    1.0216 C   0  0  0  0  0  0  0  0  0  0  0  0
    2.2497   -3.2395   -0.0146 C   0  0  0  0  0  0  0  0  0  0  0  0
    1.8857   -2.8574   -1.2233 N   0  0  0  0  0  0  0  0  0  0  0  0
    1.3889   -3.9645   -1.8673 N   0  0  0  0  0  0  0  0  0  0  0  0
    1.4914   -4.9611   -1.0196 C   0  0  0  0  0  0  0  0  0  0  0  0
    1.1949   -6.2640   -1.1681 N   0  0  0  0  0  0  0  0  0  0  0  0
    1.1048   -6.8000   -2.5225 C   0  0  0  0  0  0  0  0  0  0  0  0
    2.4819   -6.8202   -3.1924 C   0  0  0  0  0  0  0  0  0  0  0  0
    2.4603   -7.4083   -4.6078 C   0  0  0  0  0  0  0  0  0  0  0  0
    1.5745   -6.7165   -5.5584 N   0  0  0  0  0  0  0  0  0  0  0  0
    1.9420   -5.3086   -5.7426 C   0  0  0  0  0  0  0  0  0  0  0  0
    1.6014   -7.4006   -6.8549 C   0  0  0  0  0  0  0  0  0  0  0  0
    2.0437   -4.5899    0.1733 O   0  0  0  0  0  0  0  0  0  0  0  0
    3.2640   -2.7606    2.2415 C   0  0  0  0  0  0  0  0  0  0  0  0
    3.6979   -1.6831    2.9494 N   0  0  0  0  0  0  0  0  0  0  0  0
    4.1652   -1.7581    4.2044 N   0  0  0  0  0  0  0  0  0  0  0  0
    4.5019   -0.6186    4.7078 C   0  0  0  0  0  0  0  0  0  0  0  0
    4.4462    0.5911    4.0805 N   0  0  0  0  0  0  0  0  0  0  0  0
    4.0227    0.6863    2.8504 C   0  0  0  0  0  0  0  0  0  0  0  0
    4.0207    1.9181    2.2404 N   0  0  0  0  0  0  0  0  0  0  0  0
    4.9128    2.9795    2.5166 C   0  0  0  0  0  0  0  0  0  0  0  0
    6.2048    2.7587    3.0080 C   0  0  0  0  0  0  0  0  0  0  0  0
    7.1003    3.8183    3.2157 C   0  0  0  0  0  0  0  0  0  0  0  0
    8.4722    3.4754    3.6838 C   0  0  0  0  0  0  0  0  0  0  0  0
    8.7779    2.3001    3.8530 O   0  0  0  0  0  0  0  0  0  0  0  0
    9.3518    4.5159    3.9047 N   0  0  0  0  0  0  0  0  0  0  0  0
   10.6850    4.2931    4.3677 C   0  0  0  0  0  0  0  0  0  0  0  0
   11.6335    5.4469    4.5301 C   0  0  0  0  0  0  0  0  0  0  0  0
   11.8618    4.4379    3.4430 C   0  0  0  0  0  0  0  0  0  0  0  0
    6.6786    5.1193    2.9457 C   0  0  0  0  0  0  0  0  0  0  0  0
    7.4960    6.1665    3.1234 F   0  0  0  0  0  0  0  0  0  0  0  0
    5.3915    5.3709    2.4683 C   0  0  0  0  0  0  0  0  0  0  0  0
    4.5285    4.3009    2.2516 C   0  0  0  0  0  0  0  0  0  0  0  0
    3.3027    4.5544    1.7670 F   0  0  0  0  0  0  0  0  0  0  0  0
    3.5591   -0.5333    2.2097 C   0  0  0  0  0  0  0  0  0  0  0  0
    0.9373    1.5640   -0.4881 H   0  0  0  0  0  0  0  0  0  0  0  0
    1.7263    1.7119    1.0813 H   0  0  0  0  0  0  0  0  0  0  0  0
    0.5148    0.4622    0.8308 H   0  0  0  0  0  0  0  0  0  0  0  0
    1.8345   -0.6450   -0.8017 H   0  0  0  0  0  0  0  0  0  0  0  0
    4.0032    1.4537   -0.5698 H   0  0  0  0  0  0  0  0  0  0  0  0
    2.9387    1.0888   -1.9172 H   0  0  0  0  0  0  0  0  0  0  0  0
    4.1588   -0.0859   -1.4221 H   0  0  0  0  0  0  0  0  0  0  0  0
    1.5405   -6.8998   -0.4607 H   0  0  0  0  0  0  0  0  0  0  0  0
    0.3779   -6.2258   -3.1095 H   0  0  0  0  0  0  0  0  0  0  0  0
    0.7165   -7.8239   -2.4597 H   0  0  0  0  0  0  0  0  0  0  0  0
    3.1694   -7.4149   -2.5773 H   0  0  0  0  0  0  0  0  0  0  0  0
    2.9147   -5.8135   -3.2197 H   0  0  0  0  0  0  0  0  0  0  0  0
    2.1395   -8.4549   -4.5239 H   0  0  0  0  0  0  0  0  0  0  0  0
    3.4898   -7.4252   -4.9898 H   0  0  0  0  0  0  0  0  0  0  0  0
    1.7989   -4.7354   -4.8215 H   0  0  0  0  0  0  0  0  0  0  0  0
    1.2928   -4.8367   -6.4893 H   0  0  0  0  0  0  0  0  0  0  0  0
    2.9815   -5.1926   -6.0700 H   0  0  0  0  0  0  0  0  0  0  0  0
    1.2729   -8.4404   -6.7503 H   0  0  0  0  0  0  0  0  0  0  0  0
    2.6022   -7.3970   -7.3028 H   0  0  0  0  0  0  0  0  0  0  0  0
    0.9088   -6.9233   -7.5573 H   0  0  0  0  0  0  0  0  0  0  0  0
    3.3010   -3.7476    2.6796 H   0  0  0  0  0  0  0  0  0  0  0  0
    4.8842   -0.5981    5.7430 H   0  0  0  0  0  0  0  0  0  0  0  0
    3.7160    1.9482    1.2812 H   0  0  0  0  0  0  0  0  0  0  0  0
    6.5409    1.7412    3.2026 H   0  0  0  0  0  0  0  0  0  0  0  0
    9.0377    5.4715    3.7790 H   0  0  0  0  0  0  0  0  0  0  0  0
   10.7513    3.4984    5.1095 H   0  0  0  0  0  0  0  0  0  0  0  0
   12.2957    5.4316    5.3880 H   0  0  0  0  0  0  0  0  0  0  0  0
   11.3071    6.4369    4.2365 H   0  0  0  0  0  0  0  0  0  0  0  0
   12.6798    3.7364    3.5610 H   0  0  0  0  0  0  0  0  0  0  0  0
   11.6840    4.7410    2.4183 H   0  0  0  0  0  0  0  0  0  0  0  0
    5.0715    6.3849    2.2587 H   0  0  0  0  0  0  0  0  0  0  0  0
  1  2  1  0  0  0  0
  1 40  1  0  0  0  0
  1 41  1  0  0  0  0
  1 42  1  0  0  0  0
  2  3  1  0  0  0  0
  2  4  1  0  0  0  0
  2 43  1  0  0  0  0
  3 44  1  0  0  0  0
  3 45  1  0  0  0  0
  3 46  1  0  0  0  0
  4  5  1  0  0  0  0
  4 39  2  0  0  0  0
  5  6  1  0  0  0  0
  5 18  2  0  0  0  0
  6  7  2  0  0  0  0
  6 17  1  0  0  0  0
  7  8  1  0  0  0  0
  8  9  2  0  0  0  0
  9 10  1  0  0  0  0
  9 17  1  0  0  0  0
 10 11  1  0  0  0  0
 10 47  1  0  0  0  0
 11 12  1  0  0  0  0
 11 48  1  0  0  0  0
 11 49  1  0  0  0  0
 12 13  1  0  0  0  0
 12 50  1  0  0  0  0
 12 51  1  0  0  0  0
 13 14  1  0  0  0  0
 13 52  1  0  0  0  0
 13 53  1  0  0  0  0
 14 15  1  0  0  0  0
 14 16  1  0  0  0  0
 15 54  1  0  0  0  0
 15 55  1  0  0  0  0
 15 56  1  0  0  0  0
 16 57  1  0  0  0  0
 16 58  1  0  0  0  0
 16 59  1  0  0  0  0
 18 19  1  0  0  0  0
 18 60  1  0  0  0  0
 19 20  1  0  0  0  0
 19 39  1  0  0  0  0
 20 21  2  0  0  0  0
 21 22  1  0  0  0  0
 21 61  1  0  0  0  0
 22 23  2  0  0  0  0
 23 24  1  0  0  0  0
 23 39  1  0  0  0  0
 24 25  1  0  0  0  0
 24 62  1  0  0  0  0
 25 26  1  0  0  0  0
 25 37  2  0  0  0  0
 26 27  2  0  0  0  0
 26 63  1  0  0  0  0
 27 28  1  0  0  0  0
 27 34  1  0  0  0  0
 28 29  2  0  0  0  0
 28 30  1  0  0  0  0
 30 31  1  0  0  0  0
 30 64  1  0  0  0  0
 31 32  1  0  0  0  0
 31 33  1  0  0  0  0
 31 65  1  0  0  0  0
 32 33  1  0  0  0  0
 32 66  1  0  0  0  0
 32 67  1  0  0  0  0
 33 68  1  0  0  0  0
 33 69  1  0  0  0  0
 34 35  1  0  0  0  0
 34 36  2  0  0  0  0
 36 37  1  0  0  0  0
 36 70  1  0  0  0  0
 37 38  1  0  0  0  0
M  END
$$$$
