CHEMBL3671542
 OpenBabel04072215373D

 50 52  0  0  0  0  0  0  0  0999 V2000
    3.3767   -0.0973   -4.1099 C   0  0  0  0  0  0  0  0  0  0  0  0
    3.4336    0.7912   -3.1106 C   0  0  0  0  0  0  0  0  0  0  0  0
    3.6995    0.3112   -1.7270 C   0  0  0  0  0  0  0  0  0  0  0  0
    3.2985   -0.7760   -1.3252 O   0  0  0  0  0  0  0  0  0  0  0  0
    4.4742    1.1142   -0.9195 N   0  0  0  0  0  0  0  0  0  0  0  0
    5.2495    2.1737   -1.4248 C   0  0  0  0  0  0  0  0  0  0  0  0
    6.3145    1.8619   -2.2709 C   0  0  0  0  0  0  0  0  0  0  0  0
    6.9086    2.8624   -3.0694 C   0  0  0  0  0  0  0  0  0  0  0  0
    7.9324    2.6270   -4.0036 C   0  0  0  0  0  0  0  0  0  0  0  0
    8.3642    1.3010   -4.2305 N   0  0  0  0  0  0  0  0  0  0  0  0
    9.6506    0.8528   -4.5967 C   0  0  0  0  0  0  0  0  0  0  0  0
   10.8080    1.5495   -4.2311 C   0  0  0  0  0  0  0  0  0  0  0  0
   12.0718    0.9766   -4.4045 C   0  0  0  0  0  0  0  0  0  0  0  0
   12.1870   -0.2995   -4.9539 C   0  0  0  0  0  0  0  0  0  0  0  0
   13.8874   -1.1156   -5.0724 Br  0  0  0  0  0  0  0  0  0  0  0  0
   11.0566   -0.9917   -5.3741 C   0  0  0  0  0  0  0  0  0  0  0  0
    9.8048   -0.4131   -5.1847 C   0  0  0  0  0  0  0  0  0  0  0  0
    8.7118   -1.1023   -5.5512 F   0  0  0  0  0  0  0  0  0  0  0  0
    8.4790    3.6174   -4.7278 N   0  0  0  0  0  0  0  0  0  0  0  0
    7.9708    4.8396   -4.5450 C   0  0  0  0  0  0  0  0  0  0  0  0
    6.9870    5.1716   -3.6992 N   0  0  0  0  0  0  0  0  0  0  0  0
    6.4683    4.1878   -2.9600 C   0  0  0  0  0  0  0  0  0  0  0  0
    5.4549    4.4848   -2.0516 C   0  0  0  0  0  0  0  0  0  0  0  0
    4.8530    3.5043   -1.2552 C   0  0  0  0  0  0  0  0  0  0  0  0
    3.8771    3.9643   -0.4038 O   0  0  0  0  0  0  0  0  0  0  0  0
    3.7266    3.2247    0.8144 C   0  0  0  0  0  0  0  0  0  0  0  0
    3.2858    4.1431    1.9571 C   0  0  0  0  0  0  0  0  0  0  0  0
    3.2167    3.4307    3.2214 N   0  0  0  0  0  0  0  0  0  0  0  0
    4.3369    3.1761    3.9808 C   0  0  0  0  0  0  0  0  0  0  0  0
    5.4743    3.5699    3.7649 O   0  0  0  0  0  0  0  0  0  0  0  0
    4.0985    2.2782    5.2120 C   0  0  0  0  0  0  0  0  0  0  0  0
    3.0205    1.7689    5.4559 O   0  0  0  0  0  0  0  0  0  0  0  0
    5.2308    2.1323    5.9234 O   0  0  0  0  0  0  0  0  0  0  0  0
    3.2510    0.2266   -5.1371 H   0  0  0  0  0  0  0  0  0  0  0  0
    3.4693   -1.1639   -3.9226 H   0  0  0  0  0  0  0  0  0  0  0  0
    3.3597    1.8553   -3.2975 H   0  0  0  0  0  0  0  0  0  0  0  0
    4.8961    0.5439   -0.1933 H   0  0  0  0  0  0  0  0  0  0  0  0
    6.6444    0.8281   -2.3563 H   0  0  0  0  0  0  0  0  0  0  0  0
    7.6252    0.7415   -4.6494 H   0  0  0  0  0  0  0  0  0  0  0  0
   10.7352    2.5295   -3.7658 H   0  0  0  0  0  0  0  0  0  0  0  0
   12.9519    1.5238   -4.0761 H   0  0  0  0  0  0  0  0  0  0  0  0
   11.1272   -1.9811   -5.8131 H   0  0  0  0  0  0  0  0  0  0  0  0
    8.3922    5.6391   -5.1448 H   0  0  0  0  0  0  0  0  0  0  0  0
    5.1154    5.5159   -1.9704 H   0  0  0  0  0  0  0  0  0  0  0  0
    4.6670    2.7454    1.1124 H   0  0  0  0  0  0  0  0  0  0  0  0
    2.9573    2.4571    0.6688 H   0  0  0  0  0  0  0  0  0  0  0  0
    2.2963    4.5661    1.7532 H   0  0  0  0  0  0  0  0  0  0  0  0
    3.9856    4.9812    2.0547 H   0  0  0  0  0  0  0  0  0  0  0  0
    2.3584    2.9551    3.4937 H   0  0  0  0  0  0  0  0  0  0  0  0
    5.9472    2.6476    5.4823 H   0  0  0  0  0  0  0  0  0  0  0  0
  1  2  2  0  0  0  0
  1 34  1  0  0  0  0
  1 35  1  0  0  0  0
  2  3  1  0  0  0  0
  2 36  1  0  0  0  0
  3  4  2  0  0  0  0
  3  5  1  0  0  0  0
  5  6  1  0  0  0  0
  5 37  1  0  0  0  0
  6  7  1  0  0  0  0
  6 24  2  0  0  0  0
  7  8  2  0  0  0  0
  7 38  1  0  0  0  0
  8  9  1  0  0  0  0
  8 22  1  0  0  0  0
  9 10  1  0  0  0  0
  9 19  2  0  0  0  0
 10 11  1  0  0  0  0
 10 39  1  0  0  0  0
 11 12  1  0  0  0  0
 11 17  2  0  0  0  0
 12 13  2  0  0  0  0
 12 40  1  0  0  0  0
 13 14  1  0  0  0  0
 13 41  1  0  0  0  0
 14 15  1  0  0  0  0
 14 16  2  0  0  0  0
 16 17  1  0  0  0  0
 16 42  1  0  0  0  0
 17 18  1  0  0  0  0
 19 20  1  0  0  0  0
 20 21  2  0  0  0  0
 20 43  1  0  0  0  0
 21 22  1  0  0  0  0
 22 23  2  0  0  0  0
 23 24  1  0  0  0  0
 23 44  1  0  0  0  0
 24 25  1  0  0  0  0
 25 26  1  0  0  0  0
 26 27  1  0  0  0  0
 26 45  1  0  0  0  0
 26 46  1  0  0  0  0
 27 28  1  0  0  0  0
 27 47  1  0  0  0  0
 27 48  1  0  0  0  0
 28 29  1  0  0  0  0
 28 49  1  0  0  0  0
 29 30  2  0  0  0  0
 29 31  1  0  0  0  0
 31 32  2  0  0  0  0
 31 33  1  0  0  0  0
 33 50  1  0  0  0  0
M  END
$$$$
