CHEMBL1085564
 OpenBabel04072215363D

 68 73  0  0  0  0  0  0  0  0999 V2000
   -5.9799   -2.4950    7.6589 C   0  0  0  0  0  0  0  0  0  0  0  0
   -5.0307   -1.9535    6.6907 N   0  0  0  0  0  0  0  0  0  0  0  0
   -4.9291   -2.8414    5.5098 C   0  0  0  0  0  0  0  0  0  0  0  0
   -3.9487   -2.3040    4.4398 C   0  0  0  0  0  0  0  0  0  0  0  0
   -4.3403   -0.9442    4.0531 N   0  0  0  0  0  0  0  0  0  0  0  0
   -4.3378   -0.5257    2.7390 C   0  0  0  0  0  0  0  0  0  0  0  0
   -3.4951   -1.0908    1.7729 C   0  0  0  0  0  0  0  0  0  0  0  0
   -3.5657   -0.7197    0.4262 C   0  0  0  0  0  0  0  0  0  0  0  0
   -4.4941    0.2316    0.0108 C   0  0  0  0  0  0  0  0  0  0  0  0
   -5.3433    0.8298    0.9442 C   0  0  0  0  0  0  0  0  0  0  0  0
   -6.3526    1.7853    0.5170 C   0  0  0  0  0  0  0  0  0  0  0  0
   -7.1169    1.8265   -0.6671 C   0  0  0  0  0  0  0  0  0  0  0  0
   -7.9665    2.8528   -0.7146 N   0  0  0  0  0  0  0  0  0  0  0  0
   -7.7791    3.4947    0.4773 N   0  0  0  0  0  0  0  0  0  0  0  0
   -8.4494    4.6675    0.9214 C   0  0  0  0  0  0  0  0  0  0  0  0
   -9.4431    5.1820    0.0878 N   0  0  0  0  0  0  0  0  0  0  0  0
   -8.0690    5.2064    2.1006 C   0  0  0  0  0  0  0  0  0  0  0  0
   -8.6344    6.4211    2.6883 C   0  0  0  0  0  0  0  0  0  0  0  0
   -9.7892    6.3522    3.4695 C   0  0  0  0  0  0  0  0  0  0  0  0
  -10.2874    7.4991    4.0942 C   0  0  0  0  0  0  0  0  0  0  0  0
   -9.6406    8.7275    3.9445 C   0  0  0  0  0  0  0  0  0  0  0  0
  -10.0816    9.9164    4.5484 N   0  0  0  0  0  0  0  0  0  0  0  0
  -11.2161   10.1070    5.2963 C   0  0  0  0  0  0  0  0  0  0  0  0
  -12.0064    9.2612    5.6908 O   0  0  0  0  0  0  0  0  0  0  0  0
  -11.3807   11.4691    5.4978 O   0  0  0  0  0  0  0  0  0  0  0  0
  -12.6694   11.9089    5.1712 C   0  0  0  0  0  0  0  0  0  0  0  0
  -13.2788   12.8414    6.0083 C   0  0  0  0  0  0  0  0  0  0  0  0
  -14.5160   13.3814    5.6435 C   0  0  0  0  0  0  0  0  0  0  0  0
  -15.1213   12.9977    4.4418 C   0  0  0  0  0  0  0  0  0  0  0  0
  -14.5016   12.0679    3.6074 C   0  0  0  0  0  0  0  0  0  0  0  0
  -13.2695   11.5315    3.9634 C   0  0  0  0  0  0  0  0  0  0  0  0
   -8.4996    8.7990    3.1362 C   0  0  0  0  0  0  0  0  0  0  0  0
   -7.9966    7.6526    2.5126 C   0  0  0  0  0  0  0  0  0  0  0  0
   -7.0040    4.4645    2.8416 C   0  0  0  0  0  0  0  0  0  0  0  0
   -6.3952    3.3868    2.4573 N   0  0  0  0  0  0  0  0  0  0  0  0
   -6.7779    2.8844    1.2425 C   0  0  0  0  0  0  0  0  0  0  0  0
   -5.2446    0.4472    2.2928 C   0  0  0  0  0  0  0  0  0  0  0  0
   -4.4939   -0.0077    5.1791 C   0  0  0  0  0  0  0  0  0  0  0  0
   -5.4491   -0.6042    6.2402 C   0  0  0  0  0  0  0  0  0  0  0  0
   -5.6514   -3.4819    8.0032 H   0  0  0  0  0  0  0  0  0  0  0  0
   -6.9903   -2.5933    7.2457 H   0  0  0  0  0  0  0  0  0  0  0  0
   -6.0298   -1.8533    8.5453 H   0  0  0  0  0  0  0  0  0  0  0  0
   -5.9185   -2.9654    5.0473 H   0  0  0  0  0  0  0  0  0  0  0  0
   -4.5869   -3.8353    5.8212 H   0  0  0  0  0  0  0  0  0  0  0  0
   -3.9833   -2.9956    3.5900 H   0  0  0  0  0  0  0  0  0  0  0  0
   -2.9238   -2.2986    4.8294 H   0  0  0  0  0  0  0  0  0  0  0  0
   -2.7511   -1.8285    2.0605 H   0  0  0  0  0  0  0  0  0  0  0  0
   -2.8985   -1.1815   -0.2964 H   0  0  0  0  0  0  0  0  0  0  0  0
   -4.5398    0.4992   -1.0411 H   0  0  0  0  0  0  0  0  0  0  0  0
   -7.0924    1.1361   -1.5006 H   0  0  0  0  0  0  0  0  0  0  0  0
   -9.3509    4.8256   -0.8672 H   0  0  0  0  0  0  0  0  0  0  0  0
   -9.5633    6.1884    0.1461 H   0  0  0  0  0  0  0  0  0  0  0  0
  -10.3087    5.4060    3.6098 H   0  0  0  0  0  0  0  0  0  0  0  0
  -11.1844    7.3920    4.6967 H   0  0  0  0  0  0  0  0  0  0  0  0
   -9.5816   10.7696    4.3410 H   0  0  0  0  0  0  0  0  0  0  0  0
  -12.7975   13.1517    6.9314 H   0  0  0  0  0  0  0  0  0  0  0  0
  -14.9998   14.1122    6.2860 H   0  0  0  0  0  0  0  0  0  0  0  0
  -16.0790   13.4239    4.1592 H   0  0  0  0  0  0  0  0  0  0  0  0
  -14.9747   11.7695    2.6759 H   0  0  0  0  0  0  0  0  0  0  0  0
  -12.7905   10.8199    3.2967 H   0  0  0  0  0  0  0  0  0  0  0  0
   -7.9826    9.7431    2.9825 H   0  0  0  0  0  0  0  0  0  0  0  0
   -7.1001    7.7286    1.9006 H   0  0  0  0  0  0  0  0  0  0  0  0
   -6.7256    4.8939    3.8198 H   0  0  0  0  0  0  0  0  0  0  0  0
   -5.9440    0.8769    3.0050 H   0  0  0  0  0  0  0  0  0  0  0  0
   -4.8714    0.9744    4.8761 H   0  0  0  0  0  0  0  0  0  0  0  0
   -3.5091    0.1660    5.6317 H   0  0  0  0  0  0  0  0  0  0  0  0
   -6.4639   -0.6425    5.8197 H   0  0  0  0  0  0  0  0  0  0  0  0
   -5.4772    0.0752    7.1010 H   0  0  0  0  0  0  0  0  0  0  0  0
  1  2  1  0  0  0  0
  1 40  1  0  0  0  0
  1 41  1  0  0  0  0
  1 42  1  0  0  0  0
  2  3  1  0  0  0  0
  2 39  1  0  0  0  0
  3  4  1  0  0  0  0
  3 43  1  0  0  0  0
  3 44  1  0  0  0  0
  4  5  1  0  0  0  0
  4 45  1  0  0  0  0
  4 46  1  0  0  0  0
  5  6  1  0  0  0  0
  5 38  1  0  0  0  0
  6  7  1  0  0  0  0
  6 37  2  0  0  0  0
  7  8  2  0  0  0  0
  7 47  1  0  0  0  0
  8  9  1  0  0  0  0
  8 48  1  0  0  0  0
  9 10  2  0  0  0  0
  9 49  1  0  0  0  0
 10 11  1  0  0  0  0
 10 37  1  0  0  0  0
 11 12  1  0  0  0  0
 11 36  2  0  0  0  0
 12 13  2  0  0  0  0
 12 50  1  0  0  0  0
 13 14  1  0  0  0  0
 14 15  1  0  0  0  0
 14 36  1  0  0  0  0
 15 16  1  0  0  0  0
 15 17  2  0  0  0  0
 16 51  1  0  0  0  0
 16 52  1  0  0  0  0
 17 18  1  0  0  0  0
 17 34  1  0  0  0  0
 18 19  1  0  0  0  0
 18 33  2  0  0  0  0
 19 20  2  0  0  0  0
 19 53  1  0  0  0  0
 20 21  1  0  0  0  0
 20 54  1  0  0  0  0
 21 22  1  0  0  0  0
 21 32  2  0  0  0  0
 22 23  1  0  0  0  0
 22 55  1  0  0  0  0
 23 24  2  0  0  0  0
 23 25  1  0  0  0  0
 25 26  1  0  0  0  0
 26 27  1  0  0  0  0
 26 31  2  0  0  0  0
 27 28  2  0  0  0  0
 27 56  1  0  0  0  0
 28 29  1  0  0  0  0
 28 57  1  0  0  0  0
 29 30  2  0  0  0  0
 29 58  1  0  0  0  0
 30 31  1  0  0  0  0
 30 59  1  0  0  0  0
 31 60  1  0  0  0  0
 32 33  1  0  0  0  0
 32 61  1  0  0  0  0
 33 62  1  0  0  0  0
 34 35  2  0  0  0  0
 34 63  1  0  0  0  0
 35 36  1  0  0  0  0
 37 64  1  0  0  0  0
 38 39  1  0  0  0  0
 38 65  1  0  0  0  0
 38 66  1  0  0  0  0
 39 67  1  0  0  0  0
 39 68  1  0  0  0  0
M  END
$$$$
