CHEMBL4062187
 OpenBabel04072215383D

 60 64  0  0  0  0  0  0  0  0999 V2000
   -0.0644    1.7374   -3.0760 C   0  0  0  0  0  0  0  0  0  0  0  0
   -0.4311    0.6559   -2.1191 C   0  0  0  0  0  0  0  0  0  0  0  0
   -0.6277   -0.5667   -2.6411 N   0  0  0  0  0  0  0  0  0  0  0  0
   -0.9575   -1.3199   -1.5833 N   0  0  0  0  0  0  0  0  0  0  0  0
   -0.9761   -0.6453   -0.4033 C   0  0  0  0  0  0  0  0  0  0  0  0
   -1.2781   -1.1968    0.7859 N   0  0  0  0  0  0  0  0  0  0  0  0
   -1.2145   -0.3178    1.8022 C   0  0  0  0  0  0  0  0  0  0  0  0
   -0.8764    1.0220    1.6841 C   0  0  0  0  0  0  0  0  0  0  0  0
   -0.5691    1.5697    0.4222 C   0  0  0  0  0  0  0  0  0  0  0  0
   -0.1772    2.9814    0.2895 C   0  0  0  0  0  0  0  0  0  0  0  0
    0.8975    3.3366   -0.5197 C   0  0  0  0  0  0  0  0  0  0  0  0
    1.2392    4.6668   -0.7471 C   0  0  0  0  0  0  0  0  0  0  0  0
    0.5943    5.7037   -0.0780 C   0  0  0  0  0  0  0  0  0  0  0  0
    0.9577    7.0598   -0.2532 N   0  0  0  0  0  0  0  0  0  0  0  0
    1.8241    7.5233   -1.2285 C   0  0  0  0  0  0  0  0  0  0  0  0
    2.2978    6.8437   -2.1341 O   0  0  0  0  0  0  0  0  0  0  0  0
    2.0552    8.8844   -1.1334 N   0  0  0  0  0  0  0  0  0  0  0  0
    3.0037    9.4616   -2.0226 C   0  0  0  0  0  0  0  0  0  0  0  0
    4.3381    9.0225   -1.9812 C   0  0  0  0  0  0  0  0  0  0  0  0
    5.2727    9.5510   -2.8646 C   0  0  0  0  0  0  0  0  0  0  0  0
    4.8784   10.5128   -3.7883 C   0  0  0  0  0  0  0  0  0  0  0  0
    3.5548   10.9677   -3.8095 C   0  0  0  0  0  0  0  0  0  0  0  0
    2.5927   10.4677   -2.9161 C   0  0  0  0  0  0  0  0  0  0  0  0
    1.2932   10.9687   -2.8796 N   0  0  0  0  0  0  0  0  0  0  0  0
    1.0349   12.3655   -3.2412 C   0  0  0  0  0  0  0  0  0  0  0  0
   -0.2384   12.8219   -2.4944 C   0  0  0  0  0  0  0  0  0  0  0  0
   -1.4217   11.9759   -2.7856 N   0  0  0  0  0  0  0  0  0  0  0  0
   -2.5483   12.3898   -1.9520 C   0  0  0  0  0  0  0  0  0  0  0  0
   -1.0976   10.5445   -2.5507 C   0  0  0  0  0  0  0  0  0  0  0  0
    0.1868   10.0799   -3.2843 C   0  0  0  0  0  0  0  0  0  0  0  0
   -0.4183    5.3703    0.8237 C   0  0  0  0  0  0  0  0  0  0  0  0
   -0.8092    4.0263    0.9907 C   0  0  0  0  0  0  0  0  0  0  0  0
   -0.6243    0.6726   -0.6897 C   0  0  0  0  0  0  0  0  0  0  0  0
   -0.1319    1.3858   -4.1128 H   0  0  0  0  0  0  0  0  0  0  0  0
    0.9726    2.0557   -2.9447 H   0  0  0  0  0  0  0  0  0  0  0  0
   -0.7311    2.5976   -2.9756 H   0  0  0  0  0  0  0  0  0  0  0  0
   -1.1630   -2.2987   -1.7208 H   0  0  0  0  0  0  0  0  0  0  0  0
   -1.4442   -0.7394    2.7790 H   0  0  0  0  0  0  0  0  0  0  0  0
   -0.8305    1.6292    2.5825 H   0  0  0  0  0  0  0  0  0  0  0  0
    1.5051    2.5750   -0.9998 H   0  0  0  0  0  0  0  0  0  0  0  0
    2.0385    4.8369   -1.4589 H   0  0  0  0  0  0  0  0  0  0  0  0
    0.4478    7.7559    0.2699 H   0  0  0  0  0  0  0  0  0  0  0  0
    2.0592    9.2817   -0.2074 H   0  0  0  0  0  0  0  0  0  0  0  0
    4.6420    8.2527   -1.2782 H   0  0  0  0  0  0  0  0  0  0  0  0
    6.2998    9.1975   -2.8444 H   0  0  0  0  0  0  0  0  0  0  0  0
    5.5984   10.9101   -4.4988 H   0  0  0  0  0  0  0  0  0  0  0  0
    3.2807   11.7083   -4.5552 H   0  0  0  0  0  0  0  0  0  0  0  0
    0.9007   12.4671   -4.3260 H   0  0  0  0  0  0  0  0  0  0  0  0
    1.8646   13.0133   -2.9355 H   0  0  0  0  0  0  0  0  0  0  0  0
   -0.4507   13.8594   -2.7756 H   0  0  0  0  0  0  0  0  0  0  0  0
   -0.0254   12.8070   -1.4162 H   0  0  0  0  0  0  0  0  0  0  0  0
   -2.8008   13.4381   -2.1455 H   0  0  0  0  0  0  0  0  0  0  0  0
   -2.3344   12.2817   -0.8820 H   0  0  0  0  0  0  0  0  0  0  0  0
   -3.4395   11.7986   -2.1868 H   0  0  0  0  0  0  0  0  0  0  0  0
   -1.9363    9.9229   -2.8853 H   0  0  0  0  0  0  0  0  0  0  0  0
   -0.9624   10.3630   -1.4751 H   0  0  0  0  0  0  0  0  0  0  0  0
    0.0381   10.1376   -4.3709 H   0  0  0  0  0  0  0  0  0  0  0  0
    0.3682    9.0272   -3.0500 H   0  0  0  0  0  0  0  0  0  0  0  0
   -0.9281    6.1372    1.4011 H   0  0  0  0  0  0  0  0  0  0  0  0
   -1.6182    3.8077    1.6843 H   0  0  0  0  0  0  0  0  0  0  0  0
  1  2  1  0  0  0  0
  1 34  1  0  0  0  0
  1 35  1  0  0  0  0
  1 36  1  0  0  0  0
  2  3  2  0  0  0  0
  2 33  1  0  0  0  0
  3  4  1  0  0  0  0
  4  5  1  0  0  0  0
  4 37  1  0  0  0  0
  5  6  1  0  0  0  0
  5 33  2  0  0  0  0
  6  7  2  0  0  0  0
  7  8  1  0  0  0  0
  7 38  1  0  0  0  0
  8  9  2  0  0  0  0
  8 39  1  0  0  0  0
  9 10  1  0  0  0  0
  9 33  1  0  0  0  0
 10 11  1  0  0  0  0
 10 32  2  0  0  0  0
 11 12  2  0  0  0  0
 11 40  1  0  0  0  0
 12 13  1  0  0  0  0
 12 41  1  0  0  0  0
 13 14  1  0  0  0  0
 13 31  2  0  0  0  0
 14 15  1  0  0  0  0
 14 42  1  0  0  0  0
 15 16  2  0  0  0  0
 15 17  1  0  0  0  0
 17 18  1  0  0  0  0
 17 43  1  0  0  0  0
 18 19  1  0  0  0  0
 18 23  2  0  0  0  0
 19 20  2  0  0  0  0
 19 44  1  0  0  0  0
 20 21  1  0  0  0  0
 20 45  1  0  0  0  0
 21 22  2  0  0  0  0
 21 46  1  0  0  0  0
 22 23  1  0  0  0  0
 22 47  1  0  0  0  0
 23 24  1  0  0  0  0
 24 25  1  0  0  0  0
 24 30  1  0  0  0  0
 25 26  1  0  0  0  0
 25 48  1  0  0  0  0
 25 49  1  0  0  0  0
 26 27  1  0  0  0  0
 26 50  1  0  0  0  0
 26 51  1  0  0  0  0
 27 28  1  0  0  0  0
 27 29  1  0  0  0  0
 28 52  1  0  0  0  0
 28 53  1  0  0  0  0
 28 54  1  0  0  0  0
 29 30  1  0  0  0  0
 29 55  1  0  0  0  0
 29 56  1  0  0  0  0
 30 57  1  0  0  0  0
 30 58  1  0  0  0  0
 31 32  1  0  0  0  0
 31 59  1  0  0  0  0
 32 60  1  0  0  0  0
M  END
$$$$
