CHEMBL4553056
 OpenBabel04072215383D

 51 55  0  0  0  0  0  0  0  0999 V2000
   12.1954   -6.7076   -0.6586 N   0  0  0  0  0  0  0  0  0  0  0  0
   10.8537   -7.0984   -0.6874 C   0  0  0  0  0  0  0  0  0  0  0  0
   10.5116   -8.3504   -1.0655 N   0  0  0  0  0  0  0  0  0  0  0  0
    9.2012   -8.6829   -1.0153 C   0  0  0  0  0  0  0  0  0  0  0  0
    8.3116   -7.9404   -0.2617 C   0  0  0  0  0  0  0  0  0  0  0  0
    8.5645   -6.5705   -0.1220 C   0  0  0  0  0  0  0  0  0  0  0  0
    7.5410   -5.6893    0.2312 O   0  0  0  0  0  0  0  0  0  0  0  0
    6.2213   -5.9401   -0.1273 C   0  0  0  0  0  0  0  0  0  0  0  0
    5.8975   -6.6362   -1.2731 C   0  0  0  0  0  0  0  0  0  0  0  0
    4.6739   -7.3198   -1.3640 C   0  0  0  0  0  0  0  0  0  0  0  0
    3.5679   -6.8279   -0.6951 C   0  0  0  0  0  0  0  0  0  0  0  0
    2.2316   -7.1181   -1.0085 N   0  0  0  0  0  0  0  0  0  0  0  0
    1.7498   -7.4195   -2.3184 C   0  0  0  0  0  0  0  0  0  0  0  0
    2.6551   -7.4281   -3.3546 N   0  0  0  0  0  0  0  0  0  0  0  0
    2.1867   -7.6844   -4.5879 C   0  0  0  0  0  0  0  0  0  0  0  0
    0.9671   -8.2894   -4.7629 C   0  0  0  0  0  0  0  0  0  0  0  0
   -0.0338   -8.0349   -3.8508 C   0  0  0  0  0  0  0  0  0  0  0  0
   -1.5202   -8.2101   -4.1853 C   0  0  0  0  0  0  0  0  0  0  0  0
   -2.1619   -7.9302   -3.1810 C   0  0  0  0  0  0  0  0  0  0  0  0
   -2.8593   -7.6446   -2.1675 N   0  0  0  0  0  0  0  0  0  0  0  0
   -4.5577   -7.6683   -2.2700 C   0  0  0  0  0  0  0  0  0  0  0  0
   -4.6786   -6.8941   -1.1944 C   0  0  0  0  0  0  0  0  0  0  0  0
   -5.5899   -7.0278   -0.2041 C   0  0  0  0  0  0  0  0  0  0  0  0
   -6.4037   -8.1106   -0.1512 C   0  0  0  0  0  0  0  0  0  0  0  0
   -7.2778   -8.2102    0.8538 F   0  0  0  0  0  0  0  0  0  0  0  0
   -6.3131   -9.0332   -1.1573 C   0  0  0  0  0  0  0  0  0  0  0  0
   -5.6611   -8.6390   -2.3486 C   0  0  0  0  0  0  0  0  0  0  0  0
   -1.0409   -7.2802   -1.5864 C   0  0  0  0  0  0  0  0  0  0  0  0
   -0.4221   -6.9074   -0.6524 O   0  0  0  0  0  0  0  0  0  0  0  0
    0.3406   -7.5843   -2.6177 C   0  0  0  0  0  0  0  0  0  0  0  0
    3.8420   -5.9355    0.3247 C   0  0  0  0  0  0  0  0  0  0  0  0
    5.1420   -5.5183    0.6400 C   0  0  0  0  0  0  0  0  0  0  0  0
    5.3896   -5.0468    1.8838 F   0  0  0  0  0  0  0  0  0  0  0  0
    9.8724   -6.1695   -0.3546 C   0  0  0  0  0  0  0  0  0  0  0  0
   10.7068   -4.2304   -0.1330 I   0  0  0  0  0  0  0  0  0  0  0  0
   12.9380   -7.3385   -0.8906 H   0  0  0  0  0  0  0  0  0  0  0  0
   12.4495   -5.7556   -0.3895 H   0  0  0  0  0  0  0  0  0  0  0  0
    8.8584   -9.5308   -1.6196 H   0  0  0  0  0  0  0  0  0  0  0  0
    7.4655   -8.4031    0.2241 H   0  0  0  0  0  0  0  0  0  0  0  0
    6.5786   -6.6029   -2.0990 H   0  0  0  0  0  0  0  0  0  0  0  0
    4.5955   -8.2322   -1.9359 H   0  0  0  0  0  0  0  0  0  0  0  0
    1.5466   -7.0943   -0.2550 H   0  0  0  0  0  0  0  0  0  0  0  0
    2.7803   -7.3721   -5.4506 H   0  0  0  0  0  0  0  0  0  0  0  0
    0.7598   -8.9546   -5.5778 H   0  0  0  0  0  0  0  0  0  0  0  0
   -1.7537   -8.5607   -5.0657 H   0  0  0  0  0  0  0  0  0  0  0  0
   -2.3100   -7.5201   -2.1631 H   0  0  0  0  0  0  0  0  0  0  0  0
   -3.8787   -6.1904   -1.1459 H   0  0  0  0  0  0  0  0  0  0  0  0
   -5.6237   -6.2940    0.5561 H   0  0  0  0  0  0  0  0  0  0  0  0
   -6.6768  -10.0371   -0.9967 H   0  0  0  0  0  0  0  0  0  0  0  0
   -6.0835   -9.0386   -3.2911 H   0  0  0  0  0  0  0  0  0  0  0  0
    3.0401   -5.5818    0.9257 H   0  0  0  0  0  0  0  0  0  0  0  0
  1  2  1  0  0  0  0
  1 36  1  0  0  0  0
  1 37  1  0  0  0  0
  2  3  1  0  0  0  0
  2 34  2  0  0  0  0
  3  4  2  0  0  0  0
  4  5  1  0  0  0  0
  4 38  1  0  0  0  0
  5  6  2  0  0  0  0
  5 39  1  0  0  0  0
  6  7  1  0  0  0  0
  6 34  1  0  0  0  0
  7  8  1  0  0  0  0
  8  9  1  0  0  0  0
  8 32  2  0  0  0  0
  9 10  2  0  0  0  0
  9 40  1  0  0  0  0
 10 11  1  0  0  0  0
 10 41  1  0  0  0  0
 11 12  1  0  0  0  0
 11 31  2  0  0  0  0
 12 13  1  0  0  0  0
 12 42  1  0  0  0  0
 13 14  1  0  0  0  0
 13 30  2  0  0  0  0
 14 15  2  0  0  0  0
 15 16  1  0  0  0  0
 15 43  1  0  0  0  0
 16 17  2  0  0  0  0
 16 44  1  0  0  0  0
 17 18  1  0  0  0  0
 17 30  1  0  0  0  0
 18 19  2  0  0  0  0
 18 45  1  0  0  0  0
 19 20  1  0  0  0  0
 19 46  1  0  0  0  0
 20 21  1  0  0  0  0
 20 28  1  0  0  0  0
 21 22  1  0  0  0  0
 21 27  2  0  0  0  0
 22 23  2  0  0  0  0
 22 47  1  0  0  0  0
 23 24  1  0  0  0  0
 23 48  1  0  0  0  0
 24 25  1  0  0  0  0
 24 26  2  0  0  0  0
 26 27  1  0  0  0  0
 26 49  1  0  0  0  0
 27 50  1  0  0  0  0
 28 29  2  0  0  0  0
 28 30  1  0  0  0  0
 31 32  1  0  0  0  0
 31 51  1  0  0  0  0
 32 33  1  0  0  0  0
 34 35  1  0  0  0  0
M  END
$$$$
