CHEMBL223220
 OpenBabel04072215363D

 72 77  0  0  0  0  0  0  0  0999 V2000
    1.6181   -1.9725    1.7626 C   0  0  0  0  0  0  0  0  0  0  0  0
    0.1304   -2.0032    1.9560 C   0  0  0  0  0  0  0  0  0  0  0  0
   -0.6449   -0.8657    1.7224 C   0  0  0  0  0  0  0  0  0  0  0  0
   -2.0246   -0.9077    1.9216 C   0  0  0  0  0  0  0  0  0  0  0  0
   -2.6460   -2.0865    2.3498 C   0  0  0  0  0  0  0  0  0  0  0  0
   -1.8998   -3.2423    2.5769 C   0  0  0  0  0  0  0  0  0  0  0  0
   -2.4506   -4.4916    2.9602 N   0  0  0  0  0  0  0  0  0  0  0  0
   -3.7676   -4.7987    3.2376 C   0  0  0  0  0  0  0  0  0  0  0  0
   -4.6837   -3.9785    3.2143 O   0  0  0  0  0  0  0  0  0  0  0  0
   -4.0309   -6.1369    3.5588 N   0  0  0  0  0  0  0  0  0  0  0  0
   -3.0265   -7.1629    3.8913 C   0  0  0  0  0  0  0  0  0  0  0  0
   -5.4058   -6.4833    3.9483 C   0  0  0  0  0  0  0  0  0  0  0  0
   -6.3811   -6.6570    2.8092 C   0  0  0  0  0  0  0  0  0  0  0  0
   -7.4260   -5.8170    2.4629 C   0  0  0  0  0  0  0  0  0  0  0  0
   -8.2739   -6.3697    1.4506 C   0  0  0  0  0  0  0  0  0  0  0  0
   -7.8925   -7.6443    1.0705 C   0  0  0  0  0  0  0  0  0  0  0  0
   -8.5767   -8.4892   -0.0048 C   0  0  0  0  0  0  0  0  0  0  0  0
   -8.3843   -9.8099   -0.1427 N   0  0  0  0  0  0  0  0  0  0  0  0
   -8.6645  -10.0711   -1.4475 N   0  0  0  0  0  0  0  0  0  0  0  0
   -8.9944   -8.9584   -2.1784 C   0  0  0  0  0  0  0  0  0  0  0  0
   -9.1627   -7.9600   -1.1942 C   0  0  0  0  0  0  0  0  0  0  0  0
   -8.9845   -6.6074   -1.7797 C   0  0  0  0  0  0  0  0  0  0  0  0
   -7.8649   -7.1173   -2.6720 C   0  0  0  0  0  0  0  0  0  0  0  0
   -6.5170   -6.9504   -2.3584 C   0  0  0  0  0  0  0  0  0  0  0  0
   -5.5738   -7.6870   -3.0537 C   0  0  0  0  0  0  0  0  0  0  0  0
   -5.9975   -8.4294   -4.1649 C   0  0  0  0  0  0  0  0  0  0  0  0
   -5.0907   -8.3624   -5.3821 C   0  0  0  0  0  0  0  0  0  0  0  0
   -5.5343   -7.3194   -6.3387 N   0  0  0  0  0  0  0  0  0  0  0  0
   -5.7779   -5.9952   -5.7210 C   0  0  0  0  0  0  0  0  0  0  0  0
   -6.3398   -4.9895   -6.7458 C   0  0  0  0  0  0  0  0  0  0  0  0
   -5.4685   -4.7605   -7.9083 N   0  0  0  0  0  0  0  0  0  0  0  0
   -4.3248   -3.9242   -7.5576 C   0  0  0  0  0  0  0  0  0  0  0  0
   -5.0592   -6.0694   -8.4633 C   0  0  0  0  0  0  0  0  0  0  0  0
   -4.5665   -7.1281   -7.4367 C   0  0  0  0  0  0  0  0  0  0  0  0
   -7.3291   -8.8976   -4.1971 C   0  0  0  0  0  0  0  0  0  0  0  0
   -8.2219   -8.3273   -3.2971 C   0  0  0  0  0  0  0  0  0  0  0  0
   -6.4508   -8.1111    1.8893 S   0  0  0  0  0  0  0  0  0  0  0  0
   -0.5063   -3.1826    2.3860 C   0  0  0  0  0  0  0  0  0  0  0  0
    1.9554   -0.9987    1.3921 H   0  0  0  0  0  0  0  0  0  0  0  0
    1.9200   -2.7289    1.0309 H   0  0  0  0  0  0  0  0  0  0  0  0
    2.1289   -2.1653    2.7118 H   0  0  0  0  0  0  0  0  0  0  0  0
   -0.1838    0.0599    1.3875 H   0  0  0  0  0  0  0  0  0  0  0  0
   -2.6244   -0.0191    1.7379 H   0  0  0  0  0  0  0  0  0  0  0  0
   -3.7227   -2.0676    2.4813 H   0  0  0  0  0  0  0  0  0  0  0  0
   -1.7770   -5.2349    2.9982 H   0  0  0  0  0  0  0  0  0  0  0  0
   -2.0010   -6.8553    3.7200 H   0  0  0  0  0  0  0  0  0  0  0  0
   -3.2534   -8.0628    3.3414 H   0  0  0  0  0  0  0  0  0  0  0  0
   -3.1213   -7.3507    4.9742 H   0  0  0  0  0  0  0  0  0  0  0  0
   -5.7746   -5.7081    4.6350 H   0  0  0  0  0  0  0  0  0  0  0  0
   -5.3862   -7.4120    4.5270 H   0  0  0  0  0  0  0  0  0  0  0  0
   -7.6017   -4.8657    2.9535 H   0  0  0  0  0  0  0  0  0  0  0  0
   -9.1521   -5.8607    1.0752 H   0  0  0  0  0  0  0  0  0  0  0  0
   -8.4718  -11.0041   -1.7922 H   0  0  0  0  0  0  0  0  0  0  0  0
   -8.6727   -5.7911   -1.1385 H   0  0  0  0  0  0  0  0  0  0  0  0
   -9.8523   -6.3124   -2.3850 H   0  0  0  0  0  0  0  0  0  0  0  0
   -6.2165   -6.3376   -1.5122 H   0  0  0  0  0  0  0  0  0  0  0  0
   -4.5217   -7.5624   -2.8324 H   0  0  0  0  0  0  0  0  0  0  0  0
   -5.0613   -9.3438   -5.8758 H   0  0  0  0  0  0  0  0  0  0  0  0
   -4.0678   -8.1506   -5.0504 H   0  0  0  0  0  0  0  0  0  0  0  0
   -4.8634   -5.6019   -5.2552 H   0  0  0  0  0  0  0  0  0  0  0  0
   -6.5416   -6.0501   -4.9461 H   0  0  0  0  0  0  0  0  0  0  0  0
   -6.5722   -4.0414   -6.2430 H   0  0  0  0  0  0  0  0  0  0  0  0
   -7.3056   -5.3690   -7.1060 H   0  0  0  0  0  0  0  0  0  0  0  0
   -4.6614   -2.9850   -7.1009 H   0  0  0  0  0  0  0  0  0  0  0  0
   -3.7728   -3.6454   -8.4611 H   0  0  0  0  0  0  0  0  0  0  0  0
   -3.6295   -4.4064   -6.8639 H   0  0  0  0  0  0  0  0  0  0  0  0
   -4.2923   -5.9215   -9.2366 H   0  0  0  0  0  0  0  0  0  0  0  0
   -5.9281   -6.4865   -8.9870 H   0  0  0  0  0  0  0  0  0  0  0  0
   -3.5896   -6.8199   -7.0402 H   0  0  0  0  0  0  0  0  0  0  0  0
   -4.4187   -8.0759   -7.9660 H   0  0  0  0  0  0  0  0  0  0  0  0
   -7.7009   -9.4443   -5.0532 H   0  0  0  0  0  0  0  0  0  0  0  0
    0.1072   -4.0626    2.5680 H   0  0  0  0  0  0  0  0  0  0  0  0
  1  2  1  0  0  0  0
  1 39  1  0  0  0  0
  1 40  1  0  0  0  0
  1 41  1  0  0  0  0
  2  3  1  0  0  0  0
  2 38  2  0  0  0  0
  3  4  2  0  0  0  0
  3 42  1  0  0  0  0
  4  5  1  0  0  0  0
  4 43  1  0  0  0  0
  5  6  2  0  0  0  0
  5 44  1  0  0  0  0
  6  7  1  0  0  0  0
  6 38  1  0  0  0  0
  7  8  1  0  0  0  0
  7 45  1  0  0  0  0
  8  9  2  0  0  0  0
  8 10  1  0  0  0  0
 10 11  1  0  0  0  0
 10 12  1  0  0  0  0
 11 46  1  0  0  0  0
 11 47  1  0  0  0  0
 11 48  1  0  0  0  0
 12 13  1  0  0  0  0
 12 49  1  0  0  0  0
 12 50  1  0  0  0  0
 13 14  2  0  0  0  0
 13 37  1  0  0  0  0
 14 15  1  0  0  0  0
 14 51  1  0  0  0  0
 15 16  2  0  0  0  0
 15 52  1  0  0  0  0
 16 17  1  0  0  0  0
 16 37  1  0  0  0  0
 17 18  2  0  0  0  0
 17 21  1  0  0  0  0
 18 19  1  0  0  0  0
 19 20  1  0  0  0  0
 19 53  1  0  0  0  0
 20 21  2  0  0  0  0
 20 36  1  0  0  0  0
 21 22  1  0  0  0  0
 22 23  1  0  0  0  0
 22 54  1  0  0  0  0
 22 55  1  0  0  0  0
 23 24  1  0  0  0  0
 23 36  2  0  0  0  0
 24 25  2  0  0  0  0
 24 56  1  0  0  0  0
 25 26  1  0  0  0  0
 25 57  1  0  0  0  0
 26 27  1  0  0  0  0
 26 35  2  0  0  0  0
 27 28  1  0  0  0  0
 27 58  1  0  0  0  0
 27 59  1  0  0  0  0
 28 29  1  0  0  0  0
 28 34  1  0  0  0  0
 29 30  1  0  0  0  0
 29 60  1  0  0  0  0
 29 61  1  0  0  0  0
 30 31  1  0  0  0  0
 30 62  1  0  0  0  0
 30 63  1  0  0  0  0
 31 32  1  0  0  0  0
 31 33  1  0  0  0  0
 32 64  1  0  0  0  0
 32 65  1  0  0  0  0
 32 66  1  0  0  0  0
 33 34  1  0  0  0  0
 33 67  1  0  0  0  0
 33 68  1  0  0  0  0
 34 69  1  0  0  0  0
 34 70  1  0  0  0  0
 35 36  1  0  0  0  0
 35 71  1  0  0  0  0
 38 72  1  0  0  0  0
M  END
$$$$
