CHEMBL3656126
 OpenBabel04072215373D

 71 75  0  0  0  0  0  0  0  0999 V2000
    2.8752    7.1649    2.5508 C   0  0  0  0  0  0  0  0  0  0  0  0
    1.7532    6.1906    2.3350 C   0  0  0  0  0  0  0  0  0  0  0  0
    2.0376    4.8868    1.9162 C   0  0  0  0  0  0  0  0  0  0  0  0
    1.0067    3.9711    1.7515 C   0  0  0  0  0  0  0  0  0  0  0  0
   -0.3114    4.3546    1.9832 C   0  0  0  0  0  0  0  0  0  0  0  0
   -1.2212    3.3719    1.9387 F   0  0  0  0  0  0  0  0  0  0  0  0
   -0.6415    5.6699    2.3370 C   0  0  0  0  0  0  0  0  0  0  0  0
   -1.9679    6.1617    2.4965 N   0  0  0  0  0  0  0  0  0  0  0  0
   -3.1013    5.5670    1.9708 C   0  0  0  0  0  0  0  0  0  0  0  0
   -3.1049    4.5655    1.2669 O   0  0  0  0  0  0  0  0  0  0  0  0
   -4.2654    6.2719    2.2587 N   0  0  0  0  0  0  0  0  0  0  0  0
   -5.5041    5.7116    1.8548 C   0  0  0  0  0  0  0  0  0  0  0  0
   -5.8181    4.3874    2.1804 C   0  0  0  0  0  0  0  0  0  0  0  0
   -6.9757    3.7905    1.6836 C   0  0  0  0  0  0  0  0  0  0  0  0
   -7.8616    4.5329    0.9021 C   0  0  0  0  0  0  0  0  0  0  0  0
   -9.0254    4.0270    0.3653 O   0  0  0  0  0  0  0  0  0  0  0  0
   -9.7230    3.0599    1.0554 C   0  0  0  0  0  0  0  0  0  0  0  0
   -9.8551    3.0329    2.4397 C   0  0  0  0  0  0  0  0  0  0  0  0
  -10.5596    1.9841    3.0039 C   0  0  0  0  0  0  0  0  0  0  0  0
  -11.1689    1.0127    2.2899 N   0  0  0  0  0  0  0  0  0  0  0  0
  -11.0758    1.0971    0.9419 C   0  0  0  0  0  0  0  0  0  0  0  0
  -11.7895    0.0514    0.2167 C   0  0  0  0  0  0  0  0  0  0  0  0
  -11.9679   -0.1600   -1.1394 C   0  0  0  0  0  0  0  0  0  0  0  0
  -12.7837   -1.3189   -1.3288 C   0  0  0  0  0  0  0  0  0  0  0  0
  -13.2644   -1.9289   -2.5658 C   0  0  0  0  0  0  0  0  0  0  0  0
  -13.9955   -2.9145   -2.5804 O   0  0  0  0  0  0  0  0  0  0  0  0
  -12.8344   -1.3023   -3.7191 N   0  0  0  0  0  0  0  0  0  0  0  0
  -13.2037   -1.7781   -5.0363 C   0  0  0  0  0  0  0  0  0  0  0  0
  -14.5860   -1.2587   -5.4781 C   0  0  0  0  0  0  0  0  0  0  0  0
  -14.9795   -1.7233   -6.8238 N   0  0  0  0  0  0  0  0  0  0  0  0
  -16.2425   -1.0961   -7.2540 C   0  0  0  0  0  0  0  0  0  0  0  0
  -17.3334   -1.9664   -6.6614 C   0  0  0  0  0  0  0  0  0  0  0  0
  -16.7653   -3.3638   -6.8044 C   0  0  0  0  0  0  0  0  0  0  0  0
  -15.2527   -3.1745   -6.8517 C   0  0  0  0  0  0  0  0  0  0  0  0
  -13.0552   -1.7901   -0.0563 C   0  0  0  0  0  0  0  0  0  0  0  0
  -12.4572   -0.9670    0.8600 N   0  0  0  0  0  0  0  0  0  0  0  0
  -10.3709    2.0989    0.2884 C   0  0  0  0  0  0  0  0  0  0  0  0
   -7.5490    5.8552    0.5719 C   0  0  0  0  0  0  0  0  0  0  0  0
   -6.3853    6.4563    1.0683 C   0  0  0  0  0  0  0  0  0  0  0  0
    0.4118    6.5755    2.5436 C   0  0  0  0  0  0  0  0  0  0  0  0
    3.8485    6.6991    2.3553 H   0  0  0  0  0  0  0  0  0  0  0  0
    2.8789    7.5144    3.5873 H   0  0  0  0  0  0  0  0  0  0  0  0
    2.7733    8.0187    1.8749 H   0  0  0  0  0  0  0  0  0  0  0  0
    3.0616    4.5690    1.7350 H   0  0  0  0  0  0  0  0  0  0  0  0
    1.2132    2.9462    1.4574 H   0  0  0  0  0  0  0  0  0  0  0  0
   -2.0830    7.0752    2.8993 H   0  0  0  0  0  0  0  0  0  0  0  0
   -4.1767    7.2702    2.1497 H   0  0  0  0  0  0  0  0  0  0  0  0
   -5.1436    3.7976    2.7976 H   0  0  0  0  0  0  0  0  0  0  0  0
   -7.1553    2.7426    1.9064 H   0  0  0  0  0  0  0  0  0  0  0  0
   -9.4074    3.7895    3.0725 H   0  0  0  0  0  0  0  0  0  0  0  0
  -10.6510    1.8964    4.0829 H   0  0  0  0  0  0  0  0  0  0  0  0
  -11.5588    0.4694   -1.9138 H   0  0  0  0  0  0  0  0  0  0  0  0
  -12.2687   -0.4718   -3.6572 H   0  0  0  0  0  0  0  0  0  0  0  0
  -13.1706   -2.8707   -5.0133 H   0  0  0  0  0  0  0  0  0  0  0  0
  -12.4294   -1.4341   -5.7307 H   0  0  0  0  0  0  0  0  0  0  0  0
  -14.5240   -0.1612   -5.4944 H   0  0  0  0  0  0  0  0  0  0  0  0
  -15.3404   -1.5126   -4.7240 H   0  0  0  0  0  0  0  0  0  0  0  0
  -16.2958   -1.1326   -8.3498 H   0  0  0  0  0  0  0  0  0  0  0  0
  -16.3347   -0.0441   -6.9638 H   0  0  0  0  0  0  0  0  0  0  0  0
  -18.2917   -1.8551   -7.1765 H   0  0  0  0  0  0  0  0  0  0  0  0
  -17.4897   -1.7284   -5.6025 H   0  0  0  0  0  0  0  0  0  0  0  0
  -17.1124   -3.8202   -7.7384 H   0  0  0  0  0  0  0  0  0  0  0  0
  -17.0740   -4.0075   -5.9749 H   0  0  0  0  0  0  0  0  0  0  0  0
  -14.8598   -3.5846   -7.7896 H   0  0  0  0  0  0  0  0  0  0  0  0
  -14.7736   -3.7374   -6.0460 H   0  0  0  0  0  0  0  0  0  0  0  0
  -13.6320   -2.6499    0.2673 H   0  0  0  0  0  0  0  0  0  0  0  0
  -12.4882   -1.0617    1.8672 H   0  0  0  0  0  0  0  0  0  0  0  0
  -10.3127    2.1398   -0.7924 H   0  0  0  0  0  0  0  0  0  0  0  0
   -8.2014    6.4122   -0.0961 H   0  0  0  0  0  0  0  0  0  0  0  0
   -6.1451    7.4713    0.7669 H   0  0  0  0  0  0  0  0  0  0  0  0
    0.2061    7.5999    2.8485 H   0  0  0  0  0  0  0  0  0  0  0  0
  1  2  1  0  0  0  0
  1 41  1  0  0  0  0
  1 42  1  0  0  0  0
  1 43  1  0  0  0  0
  2  3  1  0  0  0  0
  2 40  2  0  0  0  0
  3  4  2  0  0  0  0
  3 44  1  0  0  0  0
  4  5  1  0  0  0  0
  4 45  1  0  0  0  0
  5  6  1  0  0  0  0
  5  7  2  0  0  0  0
  7  8  1  0  0  0  0
  7 40  1  0  0  0  0
  8  9  1  0  0  0  0
  8 46  1  0  0  0  0
  9 10  2  0  0  0  0
  9 11  1  0  0  0  0
 11 12  1  0  0  0  0
 11 47  1  0  0  0  0
 12 13  1  0  0  0  0
 12 39  2  0  0  0  0
 13 14  2  0  0  0  0
 13 48  1  0  0  0  0
 14 15  1  0  0  0  0
 14 49  1  0  0  0  0
 15 16  1  0  0  0  0
 15 38  2  0  0  0  0
 16 17  1  0  0  0  0
 17 18  1  0  0  0  0
 17 37  2  0  0  0  0
 18 19  2  0  0  0  0
 18 50  1  0  0  0  0
 19 20  1  0  0  0  0
 19 51  1  0  0  0  0
 20 21  2  0  0  0  0
 21 22  1  0  0  0  0
 21 37  1  0  0  0  0
 22 23  2  0  0  0  0
 22 36  1  0  0  0  0
 23 24  1  0  0  0  0
 23 52  1  0  0  0  0
 24 25  1  0  0  0  0
 24 35  2  0  0  0  0
 25 26  2  0  0  0  0
 25 27  1  0  0  0  0
 27 28  1  0  0  0  0
 27 53  1  0  0  0  0
 28 29  1  0  0  0  0
 28 54  1  0  0  0  0
 28 55  1  0  0  0  0
 29 30  1  0  0  0  0
 29 56  1  0  0  0  0
 29 57  1  0  0  0  0
 30 31  1  0  0  0  0
 30 34  1  0  0  0  0
 31 32  1  0  0  0  0
 31 58  1  0  0  0  0
 31 59  1  0  0  0  0
 32 33  1  0  0  0  0
 32 60  1  0  0  0  0
 32 61  1  0  0  0  0
 33 34  1  0  0  0  0
 33 62  1  0  0  0  0
 33 63  1  0  0  0  0
 34 64  1  0  0  0  0
 34 65  1  0  0  0  0
 35 36  1  0  0  0  0
 35 66  1  0  0  0  0
 36 67  1  0  0  0  0
 37 68  1  0  0  0  0
 38 39  1  0  0  0  0
 38 69  1  0  0  0  0
 39 70  1  0  0  0  0
 40 71  1  0  0  0  0
M  END
$$$$
