CHEMBL1085316
 OpenBabel04072215363D

 76 81  0  0  0  0  0  0  0  0999 V2000
   -5.9622   -2.5745    7.6090 C   0  0  0  0  0  0  0  0  0  0  0  0
   -5.0422   -2.0169    6.6256 N   0  0  0  0  0  0  0  0  0  0  0  0
   -4.9578   -2.8824    5.4274 C   0  0  0  0  0  0  0  0  0  0  0  0
   -3.9602   -2.3288    4.3850 C   0  0  0  0  0  0  0  0  0  0  0  0
   -4.3012   -0.9440    4.0459 N   0  0  0  0  0  0  0  0  0  0  0  0
   -4.3178   -0.5038    2.7428 C   0  0  0  0  0  0  0  0  0  0  0  0
   -3.4938   -1.0856    1.7736 C   0  0  0  0  0  0  0  0  0  0  0  0
   -3.5678   -0.7202    0.4309 C   0  0  0  0  0  0  0  0  0  0  0  0
   -4.4997    0.2241    0.0233 C   0  0  0  0  0  0  0  0  0  0  0  0
   -5.3418    0.8254    0.9592 C   0  0  0  0  0  0  0  0  0  0  0  0
   -6.3736    1.7416    0.5201 C   0  0  0  0  0  0  0  0  0  0  0  0
   -7.1345    1.7817   -0.6698 C   0  0  0  0  0  0  0  0  0  0  0  0
   -7.9910    2.7966   -0.7080 N   0  0  0  0  0  0  0  0  0  0  0  0
   -7.8134    3.4286    0.4912 N   0  0  0  0  0  0  0  0  0  0  0  0
   -8.4751    4.5981    0.9506 C   0  0  0  0  0  0  0  0  0  0  0  0
   -9.4448    5.1392    0.1083 N   0  0  0  0  0  0  0  0  0  0  0  0
   -8.0948    5.1234    2.1196 C   0  0  0  0  0  0  0  0  0  0  0  0
   -8.6404    6.3648    2.6732 C   0  0  0  0  0  0  0  0  0  0  0  0
   -9.7936    6.3229    3.4463 C   0  0  0  0  0  0  0  0  0  0  0  0
  -10.2548    7.4798    4.0627 C   0  0  0  0  0  0  0  0  0  0  0  0
   -9.5994    8.7029    3.8856 C   0  0  0  0  0  0  0  0  0  0  0  0
  -10.0665    9.8934    4.4763 N   0  0  0  0  0  0  0  0  0  0  0  0
  -10.9358    9.9602    5.5517 C   0  0  0  0  0  0  0  0  0  0  0  0
  -11.3994    9.0065    6.1746 O   0  0  0  0  0  0  0  0  0  0  0  0
  -11.2747   11.3730    5.9675 C   0  0  0  0  0  0  0  0  0  0  0  0
  -11.9570   12.0898    4.8027 C   0  0  0  0  0  0  0  0  0  0  0  0
  -12.3583   13.5259    5.1009 C   0  0  0  0  0  0  0  0  0  0  0  0
  -13.3468   13.6658    6.2512 C   0  0  0  0  0  0  0  0  0  0  0  0
  -14.0169   15.0160    6.0332 C   0  0  0  0  0  0  0  0  0  0  0  0
  -13.7902   15.3788    4.5665 C   0  0  0  0  0  0  0  0  0  0  0  0
  -13.1100   14.1705    3.9362 C   0  0  0  0  0  0  0  0  0  0  0  0
   -8.4577    8.7507    3.0842 C   0  0  0  0  0  0  0  0  0  0  0  0
   -7.9812    7.5839    2.4751 C   0  0  0  0  0  0  0  0  0  0  0  0
   -7.0157    4.3875    2.8567 C   0  0  0  0  0  0  0  0  0  0  0  0
   -6.4108    3.3246    2.4598 N   0  0  0  0  0  0  0  0  0  0  0  0
   -6.8074    2.8243    1.2455 C   0  0  0  0  0  0  0  0  0  0  0  0
   -5.2159    0.4825    2.3153 C   0  0  0  0  0  0  0  0  0  0  0  0
   -4.5076   -0.0314    5.1743 C   0  0  0  0  0  0  0  0  0  0  0  0
   -5.4739   -0.6636    6.2008 C   0  0  0  0  0  0  0  0  0  0  0  0
   -5.6089   -3.5564    7.9427 H   0  0  0  0  0  0  0  0  0  0  0  0
   -6.9797   -2.6875    7.2186 H   0  0  0  0  0  0  0  0  0  0  0  0
   -6.0013   -1.9377    8.4995 H   0  0  0  0  0  0  0  0  0  0  0  0
   -5.9476   -2.9846    4.9590 H   0  0  0  0  0  0  0  0  0  0  0  0
   -4.6290   -3.8872    5.7178 H   0  0  0  0  0  0  0  0  0  0  0  0
   -3.9850   -2.9868    3.5096 H   0  0  0  0  0  0  0  0  0  0  0  0
   -2.9417   -2.3632    4.7908 H   0  0  0  0  0  0  0  0  0  0  0  0
   -2.7880   -1.8567    2.0617 H   0  0  0  0  0  0  0  0  0  0  0  0
   -2.9314   -1.2123   -0.2975 H   0  0  0  0  0  0  0  0  0  0  0  0
   -4.5785    0.4713   -1.0300 H   0  0  0  0  0  0  0  0  0  0  0  0
   -7.0948    1.0998   -1.5156 H   0  0  0  0  0  0  0  0  0  0  0  0
   -9.3260    4.8108   -0.8571 H   0  0  0  0  0  0  0  0  0  0  0  0
   -9.5323    6.1503    0.1784 H   0  0  0  0  0  0  0  0  0  0  0  0
  -10.3329    5.3928    3.6158 H   0  0  0  0  0  0  0  0  0  0  0  0
  -11.1430    7.3840    4.6780 H   0  0  0  0  0  0  0  0  0  0  0  0
   -9.7638   10.7575    4.0520 H   0  0  0  0  0  0  0  0  0  0  0  0
  -10.3561   11.8853    6.2778 H   0  0  0  0  0  0  0  0  0  0  0  0
  -11.9360   11.3121    6.8382 H   0  0  0  0  0  0  0  0  0  0  0  0
  -12.8331   11.5011    4.4995 H   0  0  0  0  0  0  0  0  0  0  0  0
  -11.2908   12.1014    3.9327 H   0  0  0  0  0  0  0  0  0  0  0  0
  -11.4589   14.1174    5.3198 H   0  0  0  0  0  0  0  0  0  0  0  0
  -12.8510   13.6117    7.2261 H   0  0  0  0  0  0  0  0  0  0  0  0
  -14.1055   12.8744    6.2125 H   0  0  0  0  0  0  0  0  0  0  0  0
  -13.5751   15.7784    6.6846 H   0  0  0  0  0  0  0  0  0  0  0  0
  -15.0838   14.9559    6.2735 H   0  0  0  0  0  0  0  0  0  0  0  0
  -13.1379   16.2569    4.4991 H   0  0  0  0  0  0  0  0  0  0  0  0
  -14.7281   15.6237    4.0580 H   0  0  0  0  0  0  0  0  0  0  0  0
  -12.4466   14.4553    3.1134 H   0  0  0  0  0  0  0  0  0  0  0  0
  -13.8698   13.4895    3.5313 H   0  0  0  0  0  0  0  0  0  0  0  0
   -7.8900    9.6721    2.9678 H   0  0  0  0  0  0  0  0  0  0  0  0
   -7.0816    7.6311    1.8671 H   0  0  0  0  0  0  0  0  0  0  0  0
   -6.7143    4.8237    3.8286 H   0  0  0  0  0  0  0  0  0  0  0  0
   -5.8839    0.9411    3.0342 H   0  0  0  0  0  0  0  0  0  0  0  0
   -4.9233    0.9309    4.8591 H   0  0  0  0  0  0  0  0  0  0  0  0
   -3.5426    0.1879    5.6446 H   0  0  0  0  0  0  0  0  0  0  0  0
   -6.4767   -0.7109    5.7544 H   0  0  0  0  0  0  0  0  0  0  0  0
   -5.5330    0.0006    7.0689 H   0  0  0  0  0  0  0  0  0  0  0  0
  1  2  1  0  0  0  0
  1 40  1  0  0  0  0
  1 41  1  0  0  0  0
  1 42  1  0  0  0  0
  2  3  1  0  0  0  0
  2 39  1  0  0  0  0
  3  4  1  0  0  0  0
  3 43  1  0  0  0  0
  3 44  1  0  0  0  0
  4  5  1  0  0  0  0
  4 45  1  0  0  0  0
  4 46  1  0  0  0  0
  5  6  1  0  0  0  0
  5 38  1  0  0  0  0
  6  7  1  0  0  0  0
  6 37  2  0  0  0  0
  7  8  2  0  0  0  0
  7 47  1  0  0  0  0
  8  9  1  0  0  0  0
  8 48  1  0  0  0  0
  9 10  2  0  0  0  0
  9 49  1  0  0  0  0
 10 11  1  0  0  0  0
 10 37  1  0  0  0  0
 11 12  1  0  0  0  0
 11 36  2  0  0  0  0
 12 13  2  0  0  0  0
 12 50  1  0  0  0  0
 13 14  1  0  0  0  0
 14 15  1  0  0  0  0
 14 36  1  0  0  0  0
 15 16  1  0  0  0  0
 15 17  2  0  0  0  0
 16 51  1  0  0  0  0
 16 52  1  0  0  0  0
 17 18  1  0  0  0  0
 17 34  1  0  0  0  0
 18 19  1  0  0  0  0
 18 33  2  0  0  0  0
 19 20  2  0  0  0  0
 19 53  1  0  0  0  0
 20 21  1  0  0  0  0
 20 54  1  0  0  0  0
 21 22  1  0  0  0  0
 21 32  2  0  0  0  0
 22 23  1  0  0  0  0
 22 55  1  0  0  0  0
 23 24  2  0  0  0  0
 23 25  1  0  0  0  0
 25 26  1  0  0  0  0
 25 56  1  0  0  0  0
 25 57  1  0  0  0  0
 26 27  1  0  0  0  0
 26 58  1  0  0  0  0
 26 59  1  0  0  0  0
 27 28  1  0  0  0  0
 27 31  1  0  0  0  0
 27 60  1  0  0  0  0
 28 29  1  0  0  0  0
 28 61  1  0  0  0  0
 28 62  1  0  0  0  0
 29 30  1  0  0  0  0
 29 63  1  0  0  0  0
 29 64  1  0  0  0  0
 30 31  1  0  0  0  0
 30 65  1  0  0  0  0
 30 66  1  0  0  0  0
 31 67  1  0  0  0  0
 31 68  1  0  0  0  0
 32 33  1  0  0  0  0
 32 69  1  0  0  0  0
 33 70  1  0  0  0  0
 34 35  2  0  0  0  0
 34 71  1  0  0  0  0
 35 36  1  0  0  0  0
 37 72  1  0  0  0  0
 38 39  1  0  0  0  0
 38 73  1  0  0  0  0
 38 74  1  0  0  0  0
 39 75  1  0  0  0  0
 39 76  1  0  0  0  0
M  END
$$$$
