CHEMBL3694654
 OpenBabel04072215373D

 58 61  0  0  0  0  0  0  0  0999 V2000
    2.8750    2.8018   -0.6831 C   0  0  0  0  0  0  0  0  0  0  0  0
    2.3806    2.1798    0.5489 N   0  0  0  0  0  0  0  0  0  0  0  0
    0.9236    2.0321    0.4744 C   0  0  0  0  0  0  0  0  0  0  0  0
    2.9993    0.8585    0.7895 C   0  0  0  0  0  0  0  0  0  0  0  0
    4.4878    0.9123    0.9810 C   0  0  0  0  0  0  0  0  0  0  0  0
    5.3406    0.2522    0.1206 C   0  0  0  0  0  0  0  0  0  0  0  0
    6.6800    0.2708    0.2288 N   0  0  0  0  0  0  0  0  0  0  0  0
    7.1819    0.9803    1.2564 C   0  0  0  0  0  0  0  0  0  0  0  0
    8.6597    0.9467    1.4423 C   0  0  0  0  0  0  0  0  0  0  0  0
    9.5304    0.1276    0.5871 C   0  0  0  0  0  0  0  0  0  0  0  0
   10.8502    0.0638    0.8241 C   0  0  0  0  0  0  0  0  0  0  0  0
   11.4122    0.8182    1.8572 N   0  0  0  0  0  0  0  0  0  0  0  0
   12.7356    0.9860    2.2674 C   0  0  0  0  0  0  0  0  0  0  0  0
   13.9416    0.4645    1.6052 C   0  0  0  0  0  0  0  0  0  0  0  0
   13.9937    0.3462    0.2117 C   0  0  0  0  0  0  0  0  0  0  0  0
   15.1222   -0.1581   -0.4255 C   0  0  0  0  0  0  0  0  0  0  0  0
   16.2555   -0.4739    0.3142 C   0  0  0  0  0  0  0  0  0  0  0  0
   16.2849   -0.2865    1.6973 C   0  0  0  0  0  0  0  0  0  0  0  0
   17.4546   -0.5072    2.4687 N   0  0  0  0  0  0  0  0  0  0  0  0
   18.7022   -0.8286    1.9770 C   0  0  0  0  0  0  0  0  0  0  0  0
   19.0216   -0.9760    0.8017 O   0  0  0  0  0  0  0  0  0  0  0  0
   19.6345   -1.0278    2.9690 N   0  0  0  0  0  0  0  0  0  0  0  0
   21.0066   -1.3705    2.5628 C   0  0  0  0  0  0  0  0  0  0  0  0
   21.8780   -0.2091    2.0591 C   0  0  0  0  0  0  0  0  0  0  0  0
   21.2969    0.9939    2.2722 F   0  0  0  0  0  0  0  0  0  0  0  0
   23.0569   -0.1962    2.7328 F   0  0  0  0  0  0  0  0  0  0  0  0
   22.1718   -0.3113    0.7466 F   0  0  0  0  0  0  0  0  0  0  0  0
   15.1088    0.1539    2.3387 C   0  0  0  0  0  0  0  0  0  0  0  0
   12.6299    1.7872    3.3954 C   0  0  0  0  0  0  0  0  0  0  0  0
   11.3408    2.1613    3.6523 N   0  0  0  0  0  0  0  0  0  0  0  0
   10.6265    1.5937    2.7088 C   0  0  0  0  0  0  0  0  0  0  0  0
    9.2229    1.6478    2.4572 C   0  0  0  0  0  0  0  0  0  0  0  0
    6.4390    1.6632    2.1454 N   0  0  0  0  0  0  0  0  0  0  0  0
    5.1089    1.6225    1.9918 C   0  0  0  0  0  0  0  0  0  0  0  0
    4.3682    2.3038    2.9573 N   0  0  0  0  0  0  0  0  0  0  0  0
    2.4024    3.7790   -0.8316 H   0  0  0  0  0  0  0  0  0  0  0  0
    2.6805    2.1836   -1.5664 H   0  0  0  0  0  0  0  0  0  0  0  0
    3.9513    2.9964   -0.6260 H   0  0  0  0  0  0  0  0  0  0  0  0
    0.4445    3.0067    0.3295 H   0  0  0  0  0  0  0  0  0  0  0  0
    0.5275    1.6235    1.4106 H   0  0  0  0  0  0  0  0  0  0  0  0
    0.6177    1.3731   -0.3469 H   0  0  0  0  0  0  0  0  0  0  0  0
    2.7518    0.1720   -0.0321 H   0  0  0  0  0  0  0  0  0  0  0  0
    2.5711    0.4098    1.6965 H   0  0  0  0  0  0  0  0  0  0  0  0
    4.9621   -0.3317   -0.7140 H   0  0  0  0  0  0  0  0  0  0  0  0
    9.0805   -0.4353   -0.2263 H   0  0  0  0  0  0  0  0  0  0  0  0
   11.4952   -0.5679    0.2311 H   0  0  0  0  0  0  0  0  0  0  0  0
   13.1658    0.6592   -0.4165 H   0  0  0  0  0  0  0  0  0  0  0  0
   15.1323   -0.2843   -1.5051 H   0  0  0  0  0  0  0  0  0  0  0  0
   17.1081   -0.8542   -0.2370 H   0  0  0  0  0  0  0  0  0  0  0  0
   17.3730   -0.3872    3.4667 H   0  0  0  0  0  0  0  0  0  0  0  0
   19.5314   -0.4705    3.8051 H   0  0  0  0  0  0  0  0  0  0  0  0
   20.9546   -2.1382    1.7805 H   0  0  0  0  0  0  0  0  0  0  0  0
   21.4770   -1.8344    3.4348 H   0  0  0  0  0  0  0  0  0  0  0  0
   15.1049    0.2719    3.4206 H   0  0  0  0  0  0  0  0  0  0  0  0
   13.4352    2.1478    4.0213 H   0  0  0  0  0  0  0  0  0  0  0  0
    8.6301    2.2611    3.1295 H   0  0  0  0  0  0  0  0  0  0  0  0
    5.0106    2.8439    3.5291 H   0  0  0  0  0  0  0  0  0  0  0  0
    3.6494    2.8753    2.5145 H   0  0  0  0  0  0  0  0  0  0  0  0
  1  2  1  0  0  0  0
  1 36  1  0  0  0  0
  1 37  1  0  0  0  0
  1 38  1  0  0  0  0
  2  3  1  0  0  0  0
  2  4  1  0  0  0  0
  3 39  1  0  0  0  0
  3 40  1  0  0  0  0
  3 41  1  0  0  0  0
  4  5  1  0  0  0  0
  4 42  1  0  0  0  0
  4 43  1  0  0  0  0
  5  6  1  0  0  0  0
  5 34  2  0  0  0  0
  6  7  2  0  0  0  0
  6 44  1  0  0  0  0
  7  8  1  0  0  0  0
  8  9  1  0  0  0  0
  8 33  2  0  0  0  0
  9 10  1  0  0  0  0
  9 32  2  0  0  0  0
 10 11  2  0  0  0  0
 10 45  1  0  0  0  0
 11 12  1  0  0  0  0
 11 46  1  0  0  0  0
 12 13  1  0  0  0  0
 12 31  1  0  0  0  0
 13 14  1  0  0  0  0
 13 29  2  0  0  0  0
 14 15  1  0  0  0  0
 14 28  2  0  0  0  0
 15 16  2  0  0  0  0
 15 47  1  0  0  0  0
 16 17  1  0  0  0  0
 16 48  1  0  0  0  0
 17 18  2  0  0  0  0
 17 49  1  0  0  0  0
 18 19  1  0  0  0  0
 18 28  1  0  0  0  0
 19 20  1  0  0  0  0
 19 50  1  0  0  0  0
 20 21  2  0  0  0  0
 20 22  1  0  0  0  0
 22 23  1  0  0  0  0
 22 51  1  0  0  0  0
 23 24  1  0  0  0  0
 23 52  1  0  0  0  0
 23 53  1  0  0  0  0
 24 25  1  0  0  0  0
 24 26  1  0  0  0  0
 24 27  1  0  0  0  0
 28 54  1  0  0  0  0
 29 30  1  0  0  0  0
 29 55  1  0  0  0  0
 30 31  2  0  0  0  0
 31 32  1  0  0  0  0
 32 56  1  0  0  0  0
 33 34  1  0  0  0  0
 34 35  1  0  0  0  0
 35 57  1  0  0  0  0
 35 58  1  0  0  0  0
M  END
$$$$
