CHEMBL3690458
 OpenBabel04072215373D

 58 62  0  0  0  0  0  0  0  0999 V2000
   -1.3003    2.7630    0.2633 O   0  0  0  0  0  0  0  0  0  0  0  0
   -1.0630    1.5695    0.0769 C   0  0  0  0  0  0  0  0  0  0  0  0
   -1.5280    0.4666    1.0645 C   0  0  0  0  0  0  0  0  0  0  0  0
   -1.4607   -0.8627    0.4388 N   0  0  0  0  0  0  0  0  0  0  0  0
   -2.1741   -1.9099    0.9882 C   0  0  0  0  0  0  0  0  0  0  0  0
   -2.5497   -2.9650    0.1663 C   0  0  0  0  0  0  0  0  0  0  0  0
   -3.3219   -4.0109    0.6599 C   0  0  0  0  0  0  0  0  0  0  0  0
   -3.6910   -4.0063    1.9934 C   0  0  0  0  0  0  0  0  0  0  0  0
   -4.4823   -5.1034    2.6061 C   0  0  0  0  0  0  0  0  0  0  0  0
   -5.3719   -4.8947    3.7583 C   0  0  0  0  0  0  0  0  0  0  0  0
   -6.0539   -5.9270    4.2882 C   0  0  0  0  0  0  0  0  0  0  0  0
   -5.8980   -7.2092    3.7553 N   0  0  0  0  0  0  0  0  0  0  0  0
   -6.4406   -8.4398    4.1131 C   0  0  0  0  0  0  0  0  0  0  0  0
   -7.3469   -8.7613    5.2252 C   0  0  0  0  0  0  0  0  0  0  0  0
   -8.2886   -9.7869    5.0327 C   0  0  0  0  0  0  0  0  0  0  0  0
   -9.1272  -10.1975    6.0629 C   0  0  0  0  0  0  0  0  0  0  0  0
   -9.0259   -9.6008    7.3130 C   0  0  0  0  0  0  0  0  0  0  0  0
   -8.0695   -8.6117    7.5568 C   0  0  0  0  0  0  0  0  0  0  0  0
   -7.8899   -8.0502    8.8436 N   0  0  0  0  0  0  0  0  0  0  0  0
   -8.2688   -8.6644   10.0154 C   0  0  0  0  0  0  0  0  0  0  0  0
   -8.7286   -9.7925   10.1353 O   0  0  0  0  0  0  0  0  0  0  0  0
   -8.1224   -7.8592   11.1177 N   0  0  0  0  0  0  0  0  0  0  0  0
   -8.4187   -8.4365   12.4423 C   0  0  0  0  0  0  0  0  0  0  0  0
   -7.3454   -9.3695   13.0255 C   0  0  0  0  0  0  0  0  0  0  0  0
   -6.2081   -9.3599   12.2925 F   0  0  0  0  0  0  0  0  0  0  0  0
   -7.0074   -8.9563   14.2738 F   0  0  0  0  0  0  0  0  0  0  0  0
   -7.7707  -10.6453   13.1296 F   0  0  0  0  0  0  0  0  0  0  0  0
   -7.2531   -8.1729    6.4996 C   0  0  0  0  0  0  0  0  0  0  0  0
   -5.9420   -9.3123    3.1512 C   0  0  0  0  0  0  0  0  0  0  0  0
   -5.1166   -8.6966    2.2602 N   0  0  0  0  0  0  0  0  0  0  0  0
   -5.0840   -7.4452    2.6495 C   0  0  0  0  0  0  0  0  0  0  0  0
   -4.3611   -6.3539    2.1014 C   0  0  0  0  0  0  0  0  0  0  0  0
   -3.3436   -2.9648    2.7795 N   0  0  0  0  0  0  0  0  0  0  0  0
   -2.5954   -1.9058    2.2665 N   0  0  0  0  0  0  0  0  0  0  0  0
   -0.2038   -1.1453   -0.2521 C   0  0  0  0  0  0  0  0  0  0  0  0
   -0.1504   -0.1813   -1.4385 C   0  0  0  0  0  0  0  0  0  0  0  0
   -0.2960    1.1997   -1.0100 N   0  0  0  0  0  0  0  0  0  0  0  0
   -2.5603    0.7046    1.3411 H   0  0  0  0  0  0  0  0  0  0  0  0
   -0.8882    0.5149    1.9540 H   0  0  0  0  0  0  0  0  0  0  0  0
   -2.2838   -2.9632   -0.8840 H   0  0  0  0  0  0  0  0  0  0  0  0
   -3.6311   -4.7941   -0.0232 H   0  0  0  0  0  0  0  0  0  0  0  0
   -5.4681   -3.8899    4.1608 H   0  0  0  0  0  0  0  0  0  0  0  0
   -6.7331   -5.7971    5.1183 H   0  0  0  0  0  0  0  0  0  0  0  0
   -8.3745  -10.2946    4.0742 H   0  0  0  0  0  0  0  0  0  0  0  0
   -9.8468  -10.9953    5.9014 H   0  0  0  0  0  0  0  0  0  0  0  0
   -9.7099   -9.9338    8.0885 H   0  0  0  0  0  0  0  0  0  0  0  0
   -7.2619   -7.2671    8.9228 H   0  0  0  0  0  0  0  0  0  0  0  0
   -7.4670   -7.0964   11.0764 H   0  0  0  0  0  0  0  0  0  0  0  0
   -9.3660   -8.9856   12.3755 H   0  0  0  0  0  0  0  0  0  0  0  0
   -8.5848   -7.5920   13.1179 H   0  0  0  0  0  0  0  0  0  0  0  0
   -6.4931   -7.4227    6.6948 H   0  0  0  0  0  0  0  0  0  0  0  0
   -6.1369  -10.3746    3.0687 H   0  0  0  0  0  0  0  0  0  0  0  0
   -3.7095   -6.6010    1.2710 H   0  0  0  0  0  0  0  0  0  0  0  0
   -0.1190   -2.1775   -0.6071 H   0  0  0  0  0  0  0  0  0  0  0  0
    0.6421   -0.9651    0.4250 H   0  0  0  0  0  0  0  0  0  0  0  0
   -0.9764   -0.3923   -2.1287 H   0  0  0  0  0  0  0  0  0  0  0  0
    0.7910   -0.2766   -1.9862 H   0  0  0  0  0  0  0  0  0  0  0  0
   -0.1054    1.9494   -1.6630 H   0  0  0  0  0  0  0  0  0  0  0  0
  1  2  2  0  0  0  0
  2  3  1  0  0  0  0
  2 37  1  0  0  0  0
  3  4  1  0  0  0  0
  3 38  1  0  0  0  0
  3 39  1  0  0  0  0
  4  5  1  0  0  0  0
  4 35  1  0  0  0  0
  5  6  1  0  0  0  0
  5 34  2  0  0  0  0
  6  7  2  0  0  0  0
  6 40  1  0  0  0  0
  7  8  1  0  0  0  0
  7 41  1  0  0  0  0
  8  9  1  0  0  0  0
  8 33  2  0  0  0  0
  9 10  1  0  0  0  0
  9 32  2  0  0  0  0
 10 11  2  0  0  0  0
 10 42  1  0  0  0  0
 11 12  1  0  0  0  0
 11 43  1  0  0  0  0
 12 13  1  0  0  0  0
 12 31  1  0  0  0  0
 13 14  1  0  0  0  0
 13 29  2  0  0  0  0
 14 15  1  0  0  0  0
 14 28  2  0  0  0  0
 15 16  2  0  0  0  0
 15 44  1  0  0  0  0
 16 17  1  0  0  0  0
 16 45  1  0  0  0  0
 17 18  2  0  0  0  0
 17 46  1  0  0  0  0
 18 19  1  0  0  0  0
 18 28  1  0  0  0  0
 19 20  1  0  0  0  0
 19 47  1  0  0  0  0
 20 21  2  0  0  0  0
 20 22  1  0  0  0  0
 22 23  1  0  0  0  0
 22 48  1  0  0  0  0
 23 24  1  0  0  0  0
 23 49  1  0  0  0  0
 23 50  1  0  0  0  0
 24 25  1  0  0  0  0
 24 26  1  0  0  0  0
 24 27  1  0  0  0  0
 28 51  1  0  0  0  0
 29 30  1  0  0  0  0
 29 52  1  0  0  0  0
 30 31  2  0  0  0  0
 31 32  1  0  0  0  0
 32 53  1  0  0  0  0
 33 34  1  0  0  0  0
 35 36  1  0  0  0  0
 35 54  1  0  0  0  0
 35 55  1  0  0  0  0
 36 37  1  0  0  0  0
 36 56  1  0  0  0  0
 36 57  1  0  0  0  0
 37 58  1  0  0  0  0
M  END
$$$$
