CHEMBL3906945
 OpenBabel04072215373D

 61 65  0  0  0  0  0  0  0  0999 V2000
    0.5363   -3.0328   -2.7675 C   0  0  0  0  0  0  0  0  0  0  0  0
    1.8663   -3.5247   -2.5690 O   0  0  0  0  0  0  0  0  0  0  0  0
    2.7869   -2.6416   -2.0516 C   0  0  0  0  0  0  0  0  0  0  0  0
    2.5071   -1.2961   -1.8015 C   0  0  0  0  0  0  0  0  0  0  0  0
    3.4712   -0.4853   -1.2186 C   0  0  0  0  0  0  0  0  0  0  0  0
    3.3207    0.8407   -0.9120 O   0  0  0  0  0  0  0  0  0  0  0  0
    2.1457    1.4794   -1.3972 C   0  0  0  0  0  0  0  0  0  0  0  0
    4.7140   -1.0301   -0.8802 C   0  0  0  0  0  0  0  0  0  0  0  0
    5.0640   -2.3705   -1.1478 C   0  0  0  0  0  0  0  0  0  0  0  0
    6.3117   -2.8846   -0.6979 N   0  0  0  0  0  0  0  0  0  0  0  0
    6.7570   -2.3933    0.6885 C   0  0  0  0  0  0  0  0  0  0  0  0
    5.7544   -2.5378    1.8411 C   0  0  0  0  0  0  0  0  0  0  0  0
    6.0628   -2.4297    3.1632 C   0  0  0  0  0  0  0  0  0  0  0  0
    7.3743   -2.0877    3.7416 C   0  0  0  0  0  0  0  0  0  0  0  0
    8.1416   -1.2363    3.0359 N   0  0  0  0  0  0  0  0  0  0  0  0
    9.3039   -0.8582    3.6007 C   0  0  0  0  0  0  0  0  0  0  0  0
    9.7433   -1.3327    4.8121 C   0  0  0  0  0  0  0  0  0  0  0  0
    8.9032   -2.2126    5.4479 C   0  0  0  0  0  0  0  0  0  0  0  0
    7.6974   -2.5886    4.9436 N   0  0  0  0  0  0  0  0  0  0  0  0
    7.2738   -3.7933   -1.3068 C   0  0  0  0  0  0  0  0  0  0  0  0
    7.5796   -4.8605   -0.4856 C   0  0  0  0  0  0  0  0  0  0  0  0
    8.7920   -5.4700   -0.6085 C   0  0  0  0  0  0  0  0  0  0  0  0
    9.7105   -5.1567   -1.5917 C   0  0  0  0  0  0  0  0  0  0  0  0
   10.8236   -5.7890   -1.2564 N   0  0  0  0  0  0  0  0  0  0  0  0
   11.7956   -5.8419   -2.1446 C   0  0  0  0  0  0  0  0  0  0  0  0
   11.7004   -5.2952   -3.3983 C   0  0  0  0  0  0  0  0  0  0  0  0
   12.9247   -5.6768   -4.1970 C   0  0  0  0  0  0  0  0  0  0  0  0
   13.1802   -6.8792   -4.9552 C   0  0  0  0  0  0  0  0  0  0  0  0
   14.4737   -7.2479   -5.0009 N   0  0  0  0  0  0  0  0  0  0  0  0
   15.0935   -6.3513   -4.2198 N   0  0  0  0  0  0  0  0  0  0  0  0
   16.5194   -6.4477   -3.9586 C   0  0  0  0  0  0  0  0  0  0  0  0
   14.2101   -5.4524   -3.6697 C   0  0  0  0  0  0  0  0  0  0  0  0
   10.5639   -4.5153   -3.7092 N   0  0  0  0  0  0  0  0  0  0  0  0
    9.4805   -4.3635   -2.7059 C   0  0  0  0  0  0  0  0  0  0  0  0
    8.1439   -3.6142   -2.4655 C   0  0  0  0  0  0  0  0  0  0  0  0
    4.0698   -3.1649   -1.7508 C   0  0  0  0  0  0  0  0  0  0  0  0
   -0.0939   -3.8600   -3.1092 H   0  0  0  0  0  0  0  0  0  0  0  0
    0.5125   -2.2602   -3.5452 H   0  0  0  0  0  0  0  0  0  0  0  0
    0.0994   -2.6567   -1.8341 H   0  0  0  0  0  0  0  0  0  0  0  0
    1.5388   -0.8819   -2.0475 H   0  0  0  0  0  0  0  0  0  0  0  0
    2.2202    2.5450   -1.1624 H   0  0  0  0  0  0  0  0  0  0  0  0
    1.2542    1.0882   -0.8958 H   0  0  0  0  0  0  0  0  0  0  0  0
    2.0609    1.3835   -2.4853 H   0  0  0  0  0  0  0  0  0  0  0  0
    5.4214   -0.3685   -0.3885 H   0  0  0  0  0  0  0  0  0  0  0  0
    7.0589   -1.3485    0.5985 H   0  0  0  0  0  0  0  0  0  0  0  0
    7.6504   -2.9389    1.0147 H   0  0  0  0  0  0  0  0  0  0  0  0
    4.7089   -2.7180    1.5993 H   0  0  0  0  0  0  0  0  0  0  0  0
    5.2947   -2.5571    3.9199 H   0  0  0  0  0  0  0  0  0  0  0  0
    9.8809   -0.1439    3.0230 H   0  0  0  0  0  0  0  0  0  0  0  0
   10.6935   -1.0289    5.2308 H   0  0  0  0  0  0  0  0  0  0  0  0
    9.1612   -2.6467    6.4099 H   0  0  0  0  0  0  0  0  0  0  0  0
    6.9668   -5.1301    0.3713 H   0  0  0  0  0  0  0  0  0  0  0  0
    9.1063   -6.1618    0.1610 H   0  0  0  0  0  0  0  0  0  0  0  0
   12.6599   -6.3874   -1.8037 H   0  0  0  0  0  0  0  0  0  0  0  0
   12.4745   -7.5662   -5.4067 H   0  0  0  0  0  0  0  0  0  0  0  0
   16.9597   -7.2899   -4.5040 H   0  0  0  0  0  0  0  0  0  0  0  0
   16.6946   -6.5849   -2.8858 H   0  0  0  0  0  0  0  0  0  0  0  0
   16.9868   -5.5177   -4.2931 H   0  0  0  0  0  0  0  0  0  0  0  0
   14.5441   -4.8213   -2.8581 H   0  0  0  0  0  0  0  0  0  0  0  0
    7.8437   -2.8485   -3.1893 H   0  0  0  0  0  0  0  0  0  0  0  0
    4.2510   -4.2225   -1.9255 H   0  0  0  0  0  0  0  0  0  0  0  0
  1  2  1  0  0  0  0
  1 37  1  0  0  0  0
  1 38  1  0  0  0  0
  1 39  1  0  0  0  0
  2  3  1  0  0  0  0
  3  4  1  0  0  0  0
  3 36  2  0  0  0  0
  4  5  2  0  0  0  0
  4 40  1  0  0  0  0
  5  6  1  0  0  0  0
  5  8  1  0  0  0  0
  6  7  1  0  0  0  0
  7 41  1  0  0  0  0
  7 42  1  0  0  0  0
  7 43  1  0  0  0  0
  8  9  2  0  0  0  0
  8 44  1  0  0  0  0
  9 10  1  0  0  0  0
  9 36  1  0  0  0  0
 10 11  1  0  0  0  0
 10 20  1  0  0  0  0
 11 12  1  0  0  0  0
 11 45  1  0  0  0  0
 11 46  1  0  0  0  0
 12 13  2  0  0  0  0
 12 47  1  0  0  0  0
 13 14  1  0  0  0  0
 13 48  1  0  0  0  0
 14 15  1  0  0  0  0
 14 19  2  0  0  0  0
 15 16  2  0  0  0  0
 16 17  1  0  0  0  0
 16 49  1  0  0  0  0
 17 18  2  0  0  0  0
 17 50  1  0  0  0  0
 18 19  1  0  0  0  0
 18 51  1  0  0  0  0
 20 21  1  0  0  0  0
 20 35  2  0  0  0  0
 21 22  2  0  0  0  0
 21 52  1  0  0  0  0
 22 23  1  0  0  0  0
 22 53  1  0  0  0  0
 23 24  1  0  0  0  0
 23 34  2  0  0  0  0
 24 25  2  0  0  0  0
 25 26  1  0  0  0  0
 25 54  1  0  0  0  0
 26 27  1  0  0  0  0
 26 33  2  0  0  0  0
 27 28  1  0  0  0  0
 27 32  2  0  0  0  0
 28 29  2  0  0  0  0
 28 55  1  0  0  0  0
 29 30  1  0  0  0  0
 30 31  1  0  0  0  0
 30 32  1  0  0  0  0
 31 56  1  0  0  0  0
 31 57  1  0  0  0  0
 31 58  1  0  0  0  0
 32 59  1  0  0  0  0
 33 34  1  0  0  0  0
 34 35  1  0  0  0  0
 35 60  1  0  0  0  0
 36 61  1  0  0  0  0
M  END
$$$$
