CHEMBL3979172
 OpenBabel04072215373D

 57 60  0  0  1  0  0  0  0  0999 V2000
    1.0000   -1.7549    4.1944 C   0  0  0  0  0  0  0  0  0  0  0  0
    2.1659   -0.9672    4.4473 O   0  0  0  0  0  0  0  0  0  0  0  0
    3.0365   -0.7884    3.3984 C   0  0  0  0  0  0  0  0  0  0  0  0
    2.7914   -1.2347    2.0982 C   0  0  0  0  0  0  0  0  0  0  0  0
    3.7063   -0.9545    1.0916 C   0  0  0  0  0  0  0  0  0  0  0  0
    3.5562   -1.3091   -0.2240 O   0  0  0  0  0  0  0  0  0  0  0  0
    2.2158   -1.4842   -0.6755 C   0  0  0  0  0  0  0  0  0  0  0  0
    4.8947   -0.2777    1.3975 C   0  0  0  0  0  0  0  0  0  0  0  0
    5.1954    0.1816    2.6942 C   0  0  0  0  0  0  0  0  0  0  0  0
    6.3259    1.0010    2.9665 N   0  0  0  0  0  0  0  0  0  0  0  0
    6.8433    1.8411    1.8076 C   0  0  0  0  0  0  0  0  0  0  0  0
    5.8679    2.9011    1.2009 C   0  0  3  0  0  0  0  0  0  0  0  0
    5.5216    4.0609    2.1401 C   0  0  0  0  0  0  0  0  0  0  0  0
    6.4769    3.4967   -0.0154 N   0  0  0  0  0  0  0  0  0  0  0  0
    7.4029    0.8149    3.9147 C   0  0  0  0  0  0  0  0  0  0  0  0
    7.9315    2.0006    4.4231 C   0  0  0  0  0  0  0  0  0  0  0  0
    9.2616    2.0695    4.7765 C   0  0  0  0  0  0  0  0  0  0  0  0
   10.0497    0.9522    4.8565 C   0  0  0  0  0  0  0  0  0  0  0  0
   11.3418    1.2168    5.0196 N   0  0  0  0  0  0  0  0  0  0  0  0
   12.1327    0.1832    5.3367 C   0  0  0  0  0  0  0  0  0  0  0  0
   11.6236   -1.0775    5.5776 C   0  0  0  0  0  0  0  0  0  0  0  0
   12.4990   -1.9638    6.3584 C   0  0  0  0  0  0  0  0  0  0  0  0
   12.4970   -2.2009    7.7593 C   0  0  0  0  0  0  0  0  0  0  0  0
   13.6120   -2.8004    8.1985 N   0  0  0  0  0  0  0  0  0  0  0  0
   14.3498   -2.9424    7.0855 N   0  0  0  0  0  0  0  0  0  0  0  0
   15.5478   -3.7521    7.0986 C   0  0  0  0  0  0  0  0  0  0  0  0
   13.7952   -2.3190    5.9975 C   0  0  0  0  0  0  0  0  0  0  0  0
   10.3121   -1.3832    5.2591 N   0  0  0  0  0  0  0  0  0  0  0  0
    9.4841   -0.3456    4.7903 C   0  0  0  0  0  0  0  0  0  0  0  0
    8.1314   -0.3744    4.2220 C   0  0  0  0  0  0  0  0  0  0  0  0
    4.2306   -0.0856    3.6875 C   0  0  0  0  0  0  0  0  0  0  0  0
    0.4318   -1.8404    5.1260 H   0  0  0  0  0  0  0  0  0  0  0  0
    1.2700   -2.7695    3.8803 H   0  0  0  0  0  0  0  0  0  0  0  0
    0.3444   -1.2795    3.4551 H   0  0  0  0  0  0  0  0  0  0  0  0
    1.8964   -1.7947    1.8652 H   0  0  0  0  0  0  0  0  0  0  0  0
    2.2406   -1.5901   -1.7645 H   0  0  0  0  0  0  0  0  0  0  0  0
    1.5973   -0.6108   -0.4393 H   0  0  0  0  0  0  0  0  0  0  0  0
    1.7750   -2.3990   -0.2664 H   0  0  0  0  0  0  0  0  0  0  0  0
    5.5727   -0.0906    0.5706 H   0  0  0  0  0  0  0  0  0  0  0  0
    7.2056    1.1652    1.0239 H   0  0  0  0  0  0  0  0  0  0  0  0
    7.7406    2.4082    2.0882 H   0  0  0  0  0  0  0  0  0  0  0  0
    4.9378    2.4183    0.8886 H   0  0  0  0  0  0  0  0  0  0  0  0
    6.3875    4.7050    2.3392 H   0  0  0  0  0  0  0  0  0  0  0  0
    5.1301    3.7064    3.0957 H   0  0  0  0  0  0  0  0  0  0  0  0
    4.7487    4.6953    1.6850 H   0  0  0  0  0  0  0  0  0  0  0  0
    7.2244    4.1401    0.2535 H   0  0  0  0  0  0  0  0  0  0  0  0
    5.7846    4.0758   -0.4917 H   0  0  0  0  0  0  0  0  0  0  0  0
    7.3667    2.9245    4.3495 H   0  0  0  0  0  0  0  0  0  0  0  0
    9.7097    3.0426    4.9682 H   0  0  0  0  0  0  0  0  0  0  0  0
   13.1843    0.4187    5.4661 H   0  0  0  0  0  0  0  0  0  0  0  0
   11.7547   -1.9105    8.4932 H   0  0  0  0  0  0  0  0  0  0  0  0
   15.6941   -4.1887    8.0910 H   0  0  0  0  0  0  0  0  0  0  0  0
   16.4107   -3.1390    6.8267 H   0  0  0  0  0  0  0  0  0  0  0  0
   15.4049   -4.5529    6.3680 H   0  0  0  0  0  0  0  0  0  0  0  0
   14.3641   -2.1915    5.0867 H   0  0  0  0  0  0  0  0  0  0  0  0
    7.7152   -1.3470    3.9593 H   0  0  0  0  0  0  0  0  0  0  0  0
    4.3665    0.3107    4.6917 H   0  0  0  0  0  0  0  0  0  0  0  0
  1  2  1  0  0  0  0
  1 32  1  0  0  0  0
  1 33  1  0  0  0  0
  1 34  1  0  0  0  0
  2  3  1  0  0  0  0
  3  4  1  0  0  0  0
  3 31  2  0  0  0  0
  4  5  2  0  0  0  0
  4 35  1  0  0  0  0
  5  6  1  0  0  0  0
  5  8  1  0  0  0  0
  6  7  1  0  0  0  0
  7 36  1  0  0  0  0
  7 37  1  0  0  0  0
  7 38  1  0  0  0  0
  8  9  2  0  0  0  0
  8 39  1  0  0  0  0
  9 10  1  0  0  0  0
  9 31  1  0  0  0  0
 10 11  1  0  0  0  0
 10 15  1  0  0  0  0
 11 12  1  0  0  0  0
 11 40  1  0  0  0  0
 11 41  1  0  0  0  0
 12 13  1  0  0  0  0
 12 14  1  0  0  0  0
 12 42  1  0  0  0  0
 13 43  1  0  0  0  0
 13 44  1  0  0  0  0
 13 45  1  0  0  0  0
 14 46  1  0  0  0  0
 14 47  1  0  0  0  0
 15 16  1  0  0  0  0
 15 30  2  0  0  0  0
 16 17  2  0  0  0  0
 16 48  1  0  0  0  0
 17 18  1  0  0  0  0
 17 49  1  0  0  0  0
 18 19  1  0  0  0  0
 18 29  2  0  0  0  0
 19 20  2  0  0  0  0
 20 21  1  0  0  0  0
 20 50  1  0  0  0  0
 21 22  1  0  0  0  0
 21 28  2  0  0  0  0
 22 23  1  0  0  0  0
 22 27  2  0  0  0  0
 23 24  2  0  0  0  0
 23 51  1  0  0  0  0
 24 25  1  0  0  0  0
 25 26  1  0  0  0  0
 25 27  1  0  0  0  0
 26 52  1  0  0  0  0
 26 53  1  0  0  0  0
 26 54  1  0  0  0  0
 27 55  1  0  0  0  0
 28 29  1  0  0  0  0
 29 30  1  0  0  0  0
 30 56  1  0  0  0  0
 31 57  1  0  0  0  0
M  END
$$$$
