CHEMBL1991180
 OpenBabel04072215363D

 44 46  0  0  0  0  0  0  0  0999 V2000
    2.7138    0.9293   -4.6421 C   0  0  0  0  0  0  0  0  0  0  0  0
    3.7928    1.1060   -3.7337 O   0  0  0  0  0  0  0  0  0  0  0  0
    3.7149    0.1954   -2.6395 C   0  0  0  0  0  0  0  0  0  0  0  0
    4.9515    0.2309   -1.8143 C   0  0  0  0  0  0  0  0  0  0  0  0
    5.6199   -0.9417   -1.6001 N   0  0  0  0  0  0  0  0  0  0  0  0
    6.7484   -0.6676   -0.9796 N   0  0  0  0  0  0  0  0  0  0  0  0
    6.8024    0.6720   -0.7135 N   0  0  0  0  0  0  0  0  0  0  0  0
    7.8728    1.2029    0.0520 C   0  0  0  0  0  0  0  0  0  0  0  0
    7.7813    2.4073    0.6129 N   0  0  0  0  0  0  0  0  0  0  0  0
    8.9981    2.5718    1.2706 O   0  0  0  0  0  0  0  0  0  0  0  0
    9.7966    1.4397    1.1486 N   0  0  0  0  0  0  0  0  0  0  0  0
    9.0963    0.5891    0.3991 C   0  0  0  0  0  0  0  0  0  0  0  0
    9.5416   -0.6299    0.0426 N   0  0  0  0  0  0  0  0  0  0  0  0
    5.6642    1.2860   -1.2514 C   0  0  0  0  0  0  0  0  0  0  0  0
    5.4418    2.7132   -1.3280 C   0  0  0  0  0  0  0  0  0  0  0  0
    6.3625    3.5028   -1.5289 O   0  0  0  0  0  0  0  0  0  0  0  0
    4.1128    3.1309   -1.1938 N   0  0  0  0  0  0  0  0  0  0  0  0
    3.8049    4.4715   -1.2181 N   0  0  0  0  0  0  0  0  0  0  0  0
    2.5611    4.8690   -1.2600 C   0  0  0  0  0  0  0  0  0  0  0  0
    1.3677    3.9420   -1.3772 C   0  0  0  0  0  0  0  0  0  0  0  0
    2.2728    6.3520   -1.2481 C   0  0  0  0  0  0  0  0  0  0  0  0
    3.2181    7.2224   -1.8179 C   0  0  0  0  0  0  0  0  0  0  0  0
    2.9784    8.6042   -1.8846 C   0  0  0  0  0  0  0  0  0  0  0  0
    1.7986    9.1190   -1.3674 C   0  0  0  0  0  0  0  0  0  0  0  0
    1.5148   10.4541   -1.4165 O   0  0  0  0  0  0  0  0  0  0  0  0
    0.8590    8.2870   -0.7759 C   0  0  0  0  0  0  0  0  0  0  0  0
    1.0954    6.9085   -0.7119 C   0  0  0  0  0  0  0  0  0  0  0  0
    0.1623    6.1232   -0.0920 O   0  0  0  0  0  0  0  0  0  0  0  0
    2.8034    1.6760   -5.4355 H   0  0  0  0  0  0  0  0  0  0  0  0
    1.7580    1.0738   -4.1298 H   0  0  0  0  0  0  0  0  0  0  0  0
    2.7502   -0.0663   -5.0964 H   0  0  0  0  0  0  0  0  0  0  0  0
    3.5670   -0.8226   -3.0229 H   0  0  0  0  0  0  0  0  0  0  0  0
    2.8498    0.4509   -2.0188 H   0  0  0  0  0  0  0  0  0  0  0  0
   10.4392   -0.9652    0.3764 H   0  0  0  0  0  0  0  0  0  0  0  0
    8.9667   -1.3100   -0.4487 H   0  0  0  0  0  0  0  0  0  0  0  0
    3.3840    2.4619   -1.0047 H   0  0  0  0  0  0  0  0  0  0  0  0
    1.6368    2.9635   -1.7734 H   0  0  0  0  0  0  0  0  0  0  0  0
    0.6398    4.3688   -2.0758 H   0  0  0  0  0  0  0  0  0  0  0  0
    0.9065    3.8041   -0.3966 H   0  0  0  0  0  0  0  0  0  0  0  0
    4.1469    6.8274   -2.2289 H   0  0  0  0  0  0  0  0  0  0  0  0
    3.7238    9.2492   -2.3444 H   0  0  0  0  0  0  0  0  0  0  0  0
    2.2530   10.9195   -1.8436 H   0  0  0  0  0  0  0  0  0  0  0  0
   -0.0478    8.7247   -0.3715 H   0  0  0  0  0  0  0  0  0  0  0  0
   -0.5341    6.6923    0.2763 H   0  0  0  0  0  0  0  0  0  0  0  0
  1  2  1  0  0  0  0
  1 29  1  0  0  0  0
  1 30  1  0  0  0  0
  1 31  1  0  0  0  0
  2  3  1  0  0  0  0
  3  4  1  0  0  0  0
  3 32  1  0  0  0  0
  3 33  1  0  0  0  0
  4  5  1  0  0  0  0
  4 14  2  0  0  0  0
  5  6  2  0  0  0  0
  6  7  1  0  0  0  0
  7  8  1  0  0  0  0
  7 14  1  0  0  0  0
  8  9  2  0  0  0  0
  8 12  1  0  0  0  0
  9 10  1  0  0  0  0
 10 11  1  0  0  0  0
 11 12  2  0  0  0  0
 12 13  1  0  0  0  0
 13 34  1  0  0  0  0
 13 35  1  0  0  0  0
 14 15  1  0  0  0  0
 15 16  2  0  0  0  0
 15 17  1  0  0  0  0
 17 18  1  0  0  0  0
 17 36  1  0  0  0  0
 18 19  2  3  0  0  0
 19 20  1  0  0  0  0
 19 21  1  0  0  0  0
 20 37  1  0  0  0  0
 20 38  1  0  0  0  0
 20 39  1  0  0  0  0
 21 22  1  0  0  0  0
 21 27  2  0  0  0  0
 22 23  2  0  0  0  0
 22 40  1  0  0  0  0
 23 24  1  0  0  0  0
 23 41  1  0  0  0  0
 24 25  1  0  0  0  0
 24 26  2  0  0  0  0
 25 42  1  0  0  0  0
 26 27  1  0  0  0  0
 26 43  1  0  0  0  0
 27 28  1  0  0  0  0
 28 44  1  0  0  0  0
M  END
$$$$
