CHEMBL231568
 OpenBabel04072215363D

 62 66  0  0  1  0  0  0  0  0999 V2000
  -13.8148   -6.2128    2.8239 C   0  0  0  0  0  0  0  0  0  0  0  0
  -13.6193   -6.7473    4.1428 N   0  0  0  0  0  0  0  0  0  0  0  0
  -12.5435   -6.3767    4.9181 C   0  0  0  0  0  0  0  0  0  0  0  0
  -11.6797   -5.5867    4.5534 O   0  0  0  0  0  0  0  0  0  0  0  0
  -12.4856   -7.0257    6.2656 C   0  0  0  0  0  0  0  0  0  0  0  0
  -11.4744   -6.6651    7.1407 C   0  0  0  0  0  0  0  0  0  0  0  0
  -11.3848   -7.3533    8.3437 C   0  0  0  0  0  0  0  0  0  0  0  0
  -10.4190   -7.1210    9.2933 O   0  0  0  0  0  0  0  0  0  0  0  0
   -9.1419   -6.7841    8.8965 C   0  0  0  0  0  0  0  0  0  0  0  0
   -8.5134   -7.3035    7.7508 C   0  0  0  0  0  0  0  0  0  0  0  0
   -7.2099   -6.9325    7.3971 C   0  0  0  0  0  0  0  0  0  0  0  0
   -6.5706   -6.0891    8.2925 C   0  0  0  0  0  0  0  0  0  0  0  0
   -5.2938   -5.6194    8.2208 O   0  0  0  0  0  0  0  0  0  0  0  0
   -5.1463   -4.8947    9.3729 C   0  0  0  0  0  0  0  0  0  0  0  0
   -3.9344   -4.3456    9.5422 N   0  0  0  0  0  0  0  0  0  0  0  0
   -3.5500   -3.5108   10.6027 C   0  0  0  0  0  0  0  0  0  0  0  0
   -4.1327   -3.5635   11.8759 C   0  0  0  0  0  0  0  0  0  0  0  0
   -3.7858   -2.6422   12.8664 C   0  0  0  0  0  0  0  0  0  0  0  0
   -2.8730   -1.6270   12.5812 C   0  0  0  0  0  0  0  0  0  0  0  0
   -2.5150   -0.4830   13.8226 Cl  0  0  0  0  0  0  0  0  0  0  0  0
   -2.2933   -1.5333   11.3063 C   0  0  0  0  0  0  0  0  0  0  0  0
   -1.4478   -0.4790   11.0479 O   0  0  0  0  0  0  0  0  0  0  0  0
   -1.3074   -0.1437    9.6591 C   0  0  0  0  0  0  0  0  0  0  0  0
   -0.7894    1.2895    9.4951 C   0  0  2  0  0  0  0  0  0  0  0  0
   -1.7243    2.3041   10.1646 C   0  0  0  0  0  0  0  0  0  0  0  0
   -1.7451    3.5127    9.2373 C   0  0  0  0  0  0  0  0  0  0  0  0
   -0.7319    3.1984    8.1527 C   0  0  0  0  0  0  0  0  0  0  0  0
   -0.7622    1.7363    8.0879 N   0  0  0  0  0  0  0  0  0  0  0  0
    0.3634    1.2122    7.3247 C   0  0  0  0  0  0  0  0  0  0  0  0
   -2.6091   -2.5062   10.3480 C   0  0  0  0  0  0  0  0  0  0  0  0
   -6.2247   -4.8363   10.1254 N   0  0  0  0  0  0  0  0  0  0  0  0
   -7.1376   -5.5972    9.4543 C   0  0  0  0  0  0  0  0  0  0  0  0
   -8.4560   -5.9316    9.7717 C   0  0  0  0  0  0  0  0  0  0  0  0
  -12.3476   -8.3052    8.6683 C   0  0  0  0  0  0  0  0  0  0  0  0
  -13.3416   -8.5743    7.7421 C   0  0  0  0  0  0  0  0  0  0  0  0
  -13.4313   -7.9696    6.5379 N   0  0  0  0  0  0  0  0  0  0  0  0
  -14.7304   -6.6308    2.4029 H   0  0  0  0  0  0  0  0  0  0  0  0
  -12.9572   -6.4762    2.1981 H   0  0  0  0  0  0  0  0  0  0  0  0
  -13.8912   -5.1236    2.8863 H   0  0  0  0  0  0  0  0  0  0  0  0
  -14.2663   -7.4222    4.5421 H   0  0  0  0  0  0  0  0  0  0  0  0
  -10.7726   -5.8842    6.8692 H   0  0  0  0  0  0  0  0  0  0  0  0
   -9.0343   -8.0086    7.1064 H   0  0  0  0  0  0  0  0  0  0  0  0
   -6.7214   -7.2991    6.5035 H   0  0  0  0  0  0  0  0  0  0  0  0
   -3.3079   -4.3764    8.7477 H   0  0  0  0  0  0  0  0  0  0  0  0
   -4.8652   -4.3313   12.1153 H   0  0  0  0  0  0  0  0  0  0  0  0
   -4.2505   -2.7148   13.8472 H   0  0  0  0  0  0  0  0  0  0  0  0
   -2.2763   -0.2161    9.1458 H   0  0  0  0  0  0  0  0  0  0  0  0
   -0.5997   -0.8455    9.2037 H   0  0  0  0  0  0  0  0  0  0  0  0
    0.2025    1.3805    9.9592 H   0  0  0  0  0  0  0  0  0  0  0  0
   -1.3547    2.5750   11.1595 H   0  0  0  0  0  0  0  0  0  0  0  0
   -2.7440    1.9180   10.2830 H   0  0  0  0  0  0  0  0  0  0  0  0
   -1.5010    4.4386    9.7675 H   0  0  0  0  0  0  0  0  0  0  0  0
   -2.7465    3.6267    8.8051 H   0  0  0  0  0  0  0  0  0  0  0  0
    0.2580    3.5699    8.4463 H   0  0  0  0  0  0  0  0  0  0  0  0
   -1.0100    3.6571    7.1987 H   0  0  0  0  0  0  0  0  0  0  0  0
    0.3386    1.6018    6.3004 H   0  0  0  0  0  0  0  0  0  0  0  0
    0.3082    0.1220    7.2427 H   0  0  0  0  0  0  0  0  0  0  0  0
    1.3297    1.4777    7.7674 H   0  0  0  0  0  0  0  0  0  0  0  0
   -2.1550   -2.4747    9.3631 H   0  0  0  0  0  0  0  0  0  0  0  0
   -8.9178   -5.5519   10.6759 H   0  0  0  0  0  0  0  0  0  0  0  0
  -12.3189   -8.8249    9.6188 H   0  0  0  0  0  0  0  0  0  0  0  0
  -14.1104   -9.3124    7.9531 H   0  0  0  0  0  0  0  0  0  0  0  0
  1  2  1  0  0  0  0
  1 37  1  0  0  0  0
  1 38  1  0  0  0  0
  1 39  1  0  0  0  0
  2  3  1  0  0  0  0
  2 40  1  0  0  0  0
  3  4  2  0  0  0  0
  3  5  1  0  0  0  0
  5  6  1  0  0  0  0
  5 36  2  0  0  0  0
  6  7  2  0  0  0  0
  6 41  1  0  0  0  0
  7  8  1  0  0  0  0
  7 34  1  0  0  0  0
  8  9  1  0  0  0  0
  9 10  1  0  0  0  0
  9 33  2  0  0  0  0
 10 11  2  0  0  0  0
 10 42  1  0  0  0  0
 11 12  1  0  0  0  0
 11 43  1  0  0  0  0
 12 13  1  0  0  0  0
 12 32  2  0  0  0  0
 13 14  1  0  0  0  0
 14 15  1  0  0  0  0
 14 31  2  0  0  0  0
 15 16  1  0  0  0  0
 15 44  1  0  0  0  0
 16 17  1  0  0  0  0
 16 30  2  0  0  0  0
 17 18  2  0  0  0  0
 17 45  1  0  0  0  0
 18 19  1  0  0  0  0
 18 46  1  0  0  0  0
 19 20  1  0  0  0  0
 19 21  2  0  0  0  0
 21 22  1  0  0  0  0
 21 30  1  0  0  0  0
 22 23  1  0  0  0  0
 23 47  1  0  0  0  0
 23 48  1  0  0  0  0
 24 25  1  0  0  0  0
 24 28  1  0  0  0  0
 24 23  1  0  0  0  0
 24 49  1  1  0  0  0
 25 26  1  0  0  0  0
 25 50  1  0  0  0  0
 25 51  1  0  0  0  0
 26 27  1  0  0  0  0
 26 52  1  0  0  0  0
 26 53  1  0  0  0  0
 27 28  1  0  0  0  0
 27 54  1  0  0  0  0
 27 55  1  0  0  0  0
 28 29  1  0  0  0  0
 29 56  1  0  0  0  0
 29 57  1  0  0  0  0
 29 58  1  0  0  0  0
 30 59  1  0  0  0  0
 31 32  1  0  0  0  0
 32 33  1  0  0  0  0
 33 60  1  0  0  0  0
 34 35  2  0  0  0  0
 34 61  1  0  0  0  0
 35 36  1  0  0  0  0
 35 62  1  0  0  0  0
M  END
$$$$
