CHEMBL3752752
 OpenBabel04072215373D

 60 64  0  0  0  0  0  0  0  0999 V2000
    3.1961   -1.8188   -0.4861 O   0  0  0  0  0  0  0  0  0  0  0  0
    3.0769   -1.0287   -1.4237 C   0  0  0  0  0  0  0  0  0  0  0  0
    2.9922    0.4668   -1.1428 C   0  0  0  0  0  0  0  0  0  0  0  0
    1.9532    1.1628   -1.9355 N   0  0  0  0  0  0  0  0  0  0  0  0
    1.8878    2.5855   -1.5128 C   0  0  0  0  0  0  0  0  0  0  0  0
    1.3084    2.8449   -0.0999 C   0  0  0  0  0  0  0  0  0  0  0  0
    0.0502    2.1366    0.1332 N   0  0  0  0  0  0  0  0  0  0  0  0
   -1.0589    2.7049    0.7451 C   0  0  0  0  0  0  0  0  0  0  0  0
   -2.2686    2.3499    0.2595 N   0  0  0  0  0  0  0  0  0  0  0  0
   -3.4394    2.9366    0.6939 N   0  0  0  0  0  0  0  0  0  0  0  0
   -3.4247    3.8756    1.6640 C   0  0  0  0  0  0  0  0  0  0  0  0
   -4.7585    4.5020    1.9147 C   0  0  0  0  0  0  0  0  0  0  0  0
   -5.9522    3.7654    1.7735 C   0  0  0  0  0  0  0  0  0  0  0  0
   -7.2078    4.3409    2.0159 C   0  0  0  0  0  0  0  0  0  0  0  0
   -7.3032    5.6667    2.4258 C   0  0  0  0  0  0  0  0  0  0  0  0
   -6.1497    6.4303    2.5438 C   0  0  0  0  0  0  0  0  0  0  0  0
   -4.9045    5.8635    2.2514 C   0  0  0  0  0  0  0  0  0  0  0  0
   -2.2101    4.2129    2.3032 C   0  0  0  0  0  0  0  0  0  0  0  0
   -2.1287    5.0867    3.4253 C   0  0  0  0  0  0  0  0  0  0  0  0
   -0.9197    5.5018    3.9779 C   0  0  0  0  0  0  0  0  0  0  0  0
    0.2541    4.9729    3.4925 C   0  0  0  0  0  0  0  0  0  0  0  0
    0.2001    4.0176    2.4799 C   0  0  0  0  0  0  0  0  0  0  0  0
   -1.0015    3.6378    1.8179 C   0  0  0  0  0  0  0  0  0  0  0  0
   -0.0338    0.7502   -0.3350 C   0  0  0  0  0  0  0  0  0  0  0  0
    0.5920    0.5946   -1.7487 C   0  0  0  0  0  0  0  0  0  0  0  0
    3.0925   -1.3837   -2.7614 N   0  0  0  0  0  0  0  0  0  0  0  0
    3.0886   -2.7217   -3.1982 C   0  0  0  0  0  0  0  0  0  0  0  0
    3.7745   -3.0597   -4.3638 C   0  0  0  0  0  0  0  0  0  0  0  0
    3.8534   -4.3974   -4.7612 C   0  0  0  0  0  0  0  0  0  0  0  0
    3.2112   -5.3935   -4.0214 C   0  0  0  0  0  0  0  0  0  0  0  0
    2.4810   -5.0633   -2.8732 C   0  0  0  0  0  0  0  0  0  0  0  0
    1.7828   -6.1113   -2.0452 C   0  0  0  0  0  0  0  0  0  0  0  0
    1.9748   -7.3809   -2.5038 F   0  0  0  0  0  0  0  0  0  0  0  0
    2.1980   -6.1210   -0.7486 F   0  0  0  0  0  0  0  0  0  0  0  0
    0.4324   -5.9344   -2.0044 F   0  0  0  0  0  0  0  0  0  0  0  0
    2.4215   -3.7196   -2.4779 C   0  0  0  0  0  0  0  0  0  0  0  0
    3.9774    0.8914   -1.3739 H   0  0  0  0  0  0  0  0  0  0  0  0
    2.8294    0.5755   -0.0654 H   0  0  0  0  0  0  0  0  0  0  0  0
    1.2758    3.1289   -2.2434 H   0  0  0  0  0  0  0  0  0  0  0  0
    2.8871    3.0363   -1.5708 H   0  0  0  0  0  0  0  0  0  0  0  0
    1.1860    3.9289   -0.0037 H   0  0  0  0  0  0  0  0  0  0  0  0
    2.0400    2.5136    0.6473 H   0  0  0  0  0  0  0  0  0  0  0  0
   -5.9151    2.7231    1.4578 H   0  0  0  0  0  0  0  0  0  0  0  0
   -8.1105    3.7497    1.8822 H   0  0  0  0  0  0  0  0  0  0  0  0
   -8.2735    6.1096    2.6339 H   0  0  0  0  0  0  0  0  0  0  0  0
   -6.2116    7.4714    2.8503 H   0  0  0  0  0  0  0  0  0  0  0  0
   -4.0394    6.5215    2.2878 H   0  0  0  0  0  0  0  0  0  0  0  0
   -3.0286    5.4548    3.9116 H   0  0  0  0  0  0  0  0  0  0  0  0
   -0.9068    6.2148    4.7970 H   0  0  0  0  0  0  0  0  0  0  0  0
    1.2102    5.2674    3.9147 H   0  0  0  0  0  0  0  0  0  0  0  0
    1.1438    3.5527    2.2272 H   0  0  0  0  0  0  0  0  0  0  0  0
   -1.0615    0.3622   -0.3768 H   0  0  0  0  0  0  0  0  0  0  0  0
    0.5081    0.1104    0.3750 H   0  0  0  0  0  0  0  0  0  0  0  0
   -0.0707    1.0954   -2.4669 H   0  0  0  0  0  0  0  0  0  0  0  0
    0.5712   -0.4596   -2.0370 H   0  0  0  0  0  0  0  0  0  0  0  0
    3.2962   -0.6474   -3.4284 H   0  0  0  0  0  0  0  0  0  0  0  0
    4.3115   -2.3066   -4.9334 H   0  0  0  0  0  0  0  0  0  0  0  0
    4.4381   -4.6693   -5.6369 H   0  0  0  0  0  0  0  0  0  0  0  0
    3.2907   -6.4320   -4.3400 H   0  0  0  0  0  0  0  0  0  0  0  0
    1.8377   -3.4612   -1.5952 H   0  0  0  0  0  0  0  0  0  0  0  0
  1  2  2  0  0  0  0
  2  3  1  0  0  0  0
  2 26  1  0  0  0  0
  3  4  1  0  0  0  0
  3 37  1  0  0  0  0
  3 38  1  0  0  0  0
  4  5  1  0  0  0  0
  4 25  1  0  0  0  0
  5  6  1  0  0  0  0
  5 39  1  0  0  0  0
  5 40  1  0  0  0  0
  6  7  1  0  0  0  0
  6 41  1  0  0  0  0
  6 42  1  0  0  0  0
  7  8  1  0  0  0  0
  7 24  1  0  0  0  0
  8  9  1  0  0  0  0
  8 23  2  0  0  0  0
  9 10  2  0  0  0  0
 10 11  1  0  0  0  0
 11 12  1  0  0  0  0
 11 18  2  0  0  0  0
 12 13  1  0  0  0  0
 12 17  2  0  0  0  0
 13 14  2  0  0  0  0
 13 43  1  0  0  0  0
 14 15  1  0  0  0  0
 14 44  1  0  0  0  0
 15 16  2  0  0  0  0
 15 45  1  0  0  0  0
 16 17  1  0  0  0  0
 16 46  1  0  0  0  0
 17 47  1  0  0  0  0
 18 19  1  0  0  0  0
 18 23  1  0  0  0  0
 19 20  2  0  0  0  0
 19 48  1  0  0  0  0
 20 21  1  0  0  0  0
 20 49  1  0  0  0  0
 21 22  2  0  0  0  0
 21 50  1  0  0  0  0
 22 23  1  0  0  0  0
 22 51  1  0  0  0  0
 24 25  1  0  0  0  0
 24 52  1  0  0  0  0
 24 53  1  0  0  0  0
 25 54  1  0  0  0  0
 25 55  1  0  0  0  0
 26 27  1  0  0  0  0
 26 56  1  0  0  0  0
 27 28  1  0  0  0  0
 27 36  2  0  0  0  0
 28 29  2  0  0  0  0
 28 57  1  0  0  0  0
 29 30  1  0  0  0  0
 29 58  1  0  0  0  0
 30 31  2  0  0  0  0
 30 59  1  0  0  0  0
 31 32  1  0  0  0  0
 31 36  1  0  0  0  0
 32 33  1  0  0  0  0
 32 34  1  0  0  0  0
 32 35  1  0  0  0  0
 36 60  1  0  0  0  0
M  END
$$$$
