CHEMBL3983308
 OpenBabel04072215373D

 66 68  0  0  0  0  0  0  0  0999 V2000
    2.3339    0.0194    1.2736 C   0  0  0  0  0  0  0  0  0  0  0  0
    0.9185   -0.0653    0.8101 C   0  0  0  0  0  0  0  0  0  0  0  0
    0.3109    1.1119    0.2934 C   0  0  0  0  0  0  0  0  0  0  0  0
   -1.0005    1.1256   -0.2343 C   0  0  0  0  0  0  0  0  0  0  0  0
   -1.7501   -0.0498   -0.1406 C   0  0  0  0  0  0  0  0  0  0  0  0
   -1.1612   -1.2267    0.3928 C   0  0  0  0  0  0  0  0  0  0  0  0
   -1.9747   -2.4795    0.5427 C   0  0  0  0  0  0  0  0  0  0  0  0
   -1.3980   -3.4561    1.0109 O   0  0  0  0  0  0  0  0  0  0  0  0
   -3.3077   -2.5708    0.0107 N   0  0  0  0  0  0  0  0  0  0  0  0
   -4.0812   -3.8018   -0.0222 C   0  0  0  0  0  0  0  0  0  0  0  0
   -3.7051   -4.8266    0.8404 C   0  0  0  0  0  0  0  0  0  0  0  0
   -4.4505   -6.0045    0.8257 C   0  0  0  0  0  0  0  0  0  0  0  0
   -5.5918   -6.1685   -0.0470 C   0  0  0  0  0  0  0  0  0  0  0  0
   -6.1026   -5.1708   -0.9288 C   0  0  0  0  0  0  0  0  0  0  0  0
   -7.5843   -5.3678   -1.7200 C   0  0  0  0  0  0  0  0  0  0  0  0
   -8.6903   -5.5396   -2.3089 C   0  0  0  0  0  0  0  0  0  0  0  0
   -9.9520   -5.8058   -3.4119 C   0  0  0  0  0  0  0  0  0  0  0  0
  -11.4489   -5.8287   -3.2019 C   0  0  0  0  0  0  0  0  0  0  0  0
  -12.0337   -6.0876   -4.4133 N   0  0  0  0  0  0  0  0  0  0  0  0
  -11.3905   -6.2530   -5.5851 C   0  0  0  0  0  0  0  0  0  0  0  0
  -10.0699   -6.2251   -5.8887 C   0  0  0  0  0  0  0  0  0  0  0  0
   -9.7657   -6.3949   -7.3435 C   0  0  0  0  0  0  0  0  0  0  0  0
  -10.7304   -6.5380   -8.0878 O   0  0  0  0  0  0  0  0  0  0  0  0
   -8.3990   -6.3148   -7.7886 N   0  0  0  0  0  0  0  0  0  0  0  0
   -7.9201   -7.1056   -9.0197 S   0  0  0  0  0  0  0  0  0  0  0  0
   -8.2329   -8.5121   -9.1744 O   0  0  0  0  0  0  0  0  0  0  0  0
   -8.5701   -6.2045  -10.4552 C   0  0  0  0  0  0  0  0  0  0  0  0
   -8.1573   -6.8950  -11.7414 C   0  0  0  0  0  0  0  0  0  0  0  0
   -8.6552   -6.2157  -12.9819 C   0  0  0  0  0  0  0  0  0  0  0  0
  -10.0750   -6.1721  -12.9708 O   0  0  0  0  0  0  0  0  0  0  0  0
   -6.1116   -6.9739   -9.1564 C   0  0  0  0  0  0  0  0  0  0  0  0
   -5.4239   -7.5372   -7.9163 C   0  0  0  0  0  0  0  0  0  0  0  0
   -3.9113   -7.4335   -8.0173 C   0  0  0  0  0  0  0  0  0  0  0  0
   -3.4490   -8.1610   -9.1464 O   0  0  0  0  0  0  0  0  0  0  0  0
   -9.2920   -6.0147   -4.7720 C   0  0  0  0  0  0  0  0  0  0  0  0
   -5.2706   -3.9728   -0.8834 C   0  0  0  0  0  0  0  0  0  0  0  0
    0.1277   -1.2134    0.8541 C   0  0  0  0  0  0  0  0  0  0  0  0
    2.7547    1.0283    1.1579 H   0  0  0  0  0  0  0  0  0  0  0  0
    2.9385   -0.6610    0.6753 H   0  0  0  0  0  0  0  0  0  0  0  0
    2.3812   -0.2469    2.3375 H   0  0  0  0  0  0  0  0  0  0  0  0
    0.8633    2.0437    0.2239 H   0  0  0  0  0  0  0  0  0  0  0  0
   -1.4619    2.0357   -0.6703 H   0  0  0  0  0  0  0  0  0  0  0  0
   -2.7547    0.0065   -0.5046 H   0  0  0  0  0  0  0  0  0  0  0  0
   -3.7229   -1.7647   -0.4377 H   0  0  0  0  0  0  0  0  0  0  0  0
   -2.8576   -4.7077    1.5249 H   0  0  0  0  0  0  0  0  0  0  0  0
   -4.1453   -6.7814    1.5337 H   0  0  0  0  0  0  0  0  0  0  0  0
   -6.0696   -7.1356    0.0376 H   0  0  0  0  0  0  0  0  0  0  0  0
  -12.6268   -5.8547   -3.0683 H   0  0  0  0  0  0  0  0  0  0  0  0
  -12.1320   -6.4214   -6.3308 H   0  0  0  0  0  0  0  0  0  0  0  0
   -8.1666   -5.1932  -10.4485 H   0  0  0  0  0  0  0  0  0  0  0  0
   -9.6637   -6.1634  -10.3902 H   0  0  0  0  0  0  0  0  0  0  0  0
   -8.6281   -7.8754  -11.7867 H   0  0  0  0  0  0  0  0  0  0  0  0
   -7.0654   -7.0101  -11.7746 H   0  0  0  0  0  0  0  0  0  0  0  0
   -8.3115   -6.7491  -13.8653 H   0  0  0  0  0  0  0  0  0  0  0  0
   -8.2879   -5.1869  -12.9959 H   0  0  0  0  0  0  0  0  0  0  0  0
  -10.4068   -7.0863  -12.9174 H   0  0  0  0  0  0  0  0  0  0  0  0
   -5.8577   -5.9093   -9.2504 H   0  0  0  0  0  0  0  0  0  0  0  0
   -5.7563   -7.4905  -10.0532 H   0  0  0  0  0  0  0  0  0  0  0  0
   -5.6984   -8.5877   -7.7755 H   0  0  0  0  0  0  0  0  0  0  0  0
   -5.7601   -7.0046   -7.0186 H   0  0  0  0  0  0  0  0  0  0  0  0
   -3.4286   -7.8300   -7.1193 H   0  0  0  0  0  0  0  0  0  0  0  0
   -3.6076   -6.3897   -8.1433 H   0  0  0  0  0  0  0  0  0  0  0  0
   -3.6919   -9.0961   -9.0265 H   0  0  0  0  0  0  0  0  0  0  0  0
   -8.1983   -6.0009   -4.9103 H   0  0  0  0  0  0  0  0  0  0  0  0
   -5.4821   -3.1377   -1.5410 H   0  0  0  0  0  0  0  0  0  0  0  0
    0.5902   -2.1263    1.2611 H   0  0  0  0  0  0  0  0  0  0  0  0
  1  2  1  0  0  0  0
  1 38  1  0  0  0  0
  1 39  1  0  0  0  0
  1 40  1  0  0  0  0
  2  3  1  0  0  0  0
  2 37  2  0  0  0  0
  3  4  2  0  0  0  0
  3 41  1  0  0  0  0
  4  5  1  0  0  0  0
  4 42  1  0  0  0  0
  5  6  2  0  0  0  0
  5 43  1  0  0  0  0
  6  7  1  0  0  0  0
  6 37  1  0  0  0  0
  7  8  2  0  0  0  0
  7  9  1  0  0  0  0
  9 10  1  0  0  0  0
  9 44  1  0  0  0  0
 10 11  1  0  0  0  0
 10 36  2  0  0  0  0
 11 12  2  0  0  0  0
 11 45  1  0  0  0  0
 12 13  1  0  0  0  0
 12 46  1  0  0  0  0
 13 14  2  0  0  0  0
 13 47  1  0  0  0  0
 14 15  1  0  0  0  0
 14 36  1  0  0  0  0
 15 16  3  0  0  0  0
 16 17  1  0  0  0  0
 17 18  1  0  0  0  0
 17 35  2  0  0  0  0
 18 19  2  0  0  0  0
 18 48  1  0  0  0  0
 19 20  1  0  0  0  0
 20 21  2  0  0  0  0
 20 49  1  0  0  0  0
 21 22  1  0  0  0  0
 21 35  1  0  0  0  0
 22 23  2  0  0  0  0
 22 24  1  0  0  0  0
 24 25  2  0  0  0  0
 25 26  2  0  0  0  0
 25 27  1  0  0  0  0
 25 31  1  0  0  0  0
 27 28  1  0  0  0  0
 27 50  1  0  0  0  0
 27 51  1  0  0  0  0
 28 29  1  0  0  0  0
 28 52  1  0  0  0  0
 28 53  1  0  0  0  0
 29 30  1  0  0  0  0
 29 54  1  0  0  0  0
 29 55  1  0  0  0  0
 30 56  1  0  0  0  0
 31 32  1  0  0  0  0
 31 57  1  0  0  0  0
 31 58  1  0  0  0  0
 32 33  1  0  0  0  0
 32 59  1  0  0  0  0
 32 60  1  0  0  0  0
 33 34  1  0  0  0  0
 33 61  1  0  0  0  0
 33 62  1  0  0  0  0
 34 63  1  0  0  0  0
 35 64  1  0  0  0  0
 36 65  1  0  0  0  0
 37 66  1  0  0  0  0
M  END
$$$$
