CHEMBL4763773
 OpenBabel04072215383D

 82 86  0  0  0  0  0  0  0  0999 V2000
    1.3873   -0.4256    0.1248 C   0  0  0  0  0  0  0  0  0  0  0  0
    2.3313    0.5876   -0.1951 O   0  0  0  0  0  0  0  0  0  0  0  0
    3.0892    1.1412    0.8077 C   0  0  0  0  0  0  0  0  0  0  0  0
    2.7606    1.0178    2.1607 C   0  0  0  0  0  0  0  0  0  0  0  0
    3.5396    1.6276    3.1609 C   0  0  0  0  0  0  0  0  0  0  0  0
    3.1938    1.5016    4.5263 N   0  0  0  0  0  0  0  0  0  0  0  0
    1.8800    1.5798    5.0065 C   0  0  0  0  0  0  0  0  0  0  0  0
    1.6267    1.0256    6.1998 N   0  0  0  0  0  0  0  0  0  0  0  0
    0.3639    1.1175    6.6569 C   0  0  0  0  0  0  0  0  0  0  0  0
   -0.6445    1.8071    6.0129 C   0  0  0  0  0  0  0  0  0  0  0  0
   -2.0538    1.9314    6.4914 C   0  0  0  0  0  0  0  0  0  0  0  0
   -2.2129    1.8880    8.0105 C   0  0  0  0  0  0  0  0  0  0  0  0
   -3.6400    2.0865    8.4350 C   0  0  0  0  0  0  0  0  0  0  0  0
   -4.5070    0.9964    8.5355 C   0  0  0  0  0  0  0  0  0  0  0  0
   -4.0389   -0.2084    8.1749 F   0  0  0  0  0  0  0  0  0  0  0  0
   -5.8150    1.1533    9.0015 C   0  0  0  0  0  0  0  0  0  0  0  0
   -6.7425    0.1658    9.2000 O   0  0  0  0  0  0  0  0  0  0  0  0
   -6.3358   -1.1711    8.9319 C   0  0  0  0  0  0  0  0  0  0  0  0
   -6.2702    2.4371    9.3335 C   0  0  0  0  0  0  0  0  0  0  0  0
   -5.4322    3.5479    9.2089 C   0  0  0  0  0  0  0  0  0  0  0  0
   -5.7676    4.8375    9.5186 O   0  0  0  0  0  0  0  0  0  0  0  0
   -7.0726    5.0651   10.0341 C   0  0  0  0  0  0  0  0  0  0  0  0
   -4.1251    3.3562    8.7503 C   0  0  0  0  0  0  0  0  0  0  0  0
   -3.3069    4.4127    8.6159 F   0  0  0  0  0  0  0  0  0  0  0  0
   -0.2679    2.3597    4.8100 C   0  0  0  0  0  0  0  0  0  0  0  0
    0.9627    2.2535    4.2950 N   0  0  0  0  0  0  0  0  0  0  0  0
    4.7060    2.2727    2.8087 C   0  0  0  0  0  0  0  0  0  0  0  0
    5.0238    2.4355    1.4610 C   0  0  0  0  0  0  0  0  0  0  0  0
    4.2219    1.9044    0.4321 C   0  0  0  0  0  0  0  0  0  0  0  0
    4.6638    2.1203   -0.8746 N   0  0  0  0  0  0  0  0  0  0  0  0
    4.3101    1.1603   -1.9169 C   0  0  0  0  0  0  0  0  0  0  0  0
    5.4534    1.1730   -2.9188 C   0  0  0  0  0  0  0  0  0  0  0  0
    5.6516    2.5542   -3.5835 C   0  0  0  0  0  0  0  0  0  0  0  0
    4.6599    2.9293   -4.6279 N   0  0  0  0  0  0  0  0  0  0  0  0
    4.1808    1.8188   -5.4827 C   0  0  0  0  0  0  0  0  0  0  0  0
    5.2240    1.2613   -6.4778 C   0  0  0  0  0  0  0  0  0  0  0  0
    5.7256    2.2914   -7.4016 N   0  0  0  0  0  0  0  0  0  0  0  0
    6.8038    1.7497   -8.2309 C   0  0  0  0  0  0  0  0  0  0  0  0
    6.1807    3.4784   -6.6547 C   0  0  0  0  0  0  0  0  0  0  0  0
    5.1949    3.9696   -5.5524 C   0  0  0  0  0  0  0  0  0  0  0  0
    5.7348    3.6325   -2.4625 C   0  0  0  0  0  0  0  0  0  0  0  0
    4.6702    3.5076   -1.3590 C   0  0  0  0  0  0  0  0  0  0  0  0
    1.2274   -1.0229   -0.7805 H   0  0  0  0  0  0  0  0  0  0  0  0
    0.4324    0.0313    0.3976 H   0  0  0  0  0  0  0  0  0  0  0  0
    1.7334   -1.1160    0.9011 H   0  0  0  0  0  0  0  0  0  0  0  0
    1.8782    0.4578    2.4636 H   0  0  0  0  0  0  0  0  0  0  0  0
    3.7178    2.1380    5.1132 H   0  0  0  0  0  0  0  0  0  0  0  0
    0.2024    0.5923    7.5935 H   0  0  0  0  0  0  0  0  0  0  0  0
   -2.6444    1.1326    6.0235 H   0  0  0  0  0  0  0  0  0  0  0  0
   -2.4645    2.8827    6.1252 H   0  0  0  0  0  0  0  0  0  0  0  0
   -1.5774    2.6486    8.4823 H   0  0  0  0  0  0  0  0  0  0  0  0
   -1.8632    0.9272    8.4086 H   0  0  0  0  0  0  0  0  0  0  0  0
   -7.1453   -1.8357    9.2475 H   0  0  0  0  0  0  0  0  0  0  0  0
   -5.4467   -1.4480    9.5083 H   0  0  0  0  0  0  0  0  0  0  0  0
   -6.1812   -1.3167    7.8581 H   0  0  0  0  0  0  0  0  0  0  0  0
   -7.2896    2.5326    9.6939 H   0  0  0  0  0  0  0  0  0  0  0  0
   -7.1270    6.1086   10.3586 H   0  0  0  0  0  0  0  0  0  0  0  0
   -7.2780    4.4403   10.9096 H   0  0  0  0  0  0  0  0  0  0  0  0
   -7.8251    4.9128    9.2538 H   0  0  0  0  0  0  0  0  0  0  0  0
   -0.9661    2.9235    4.1977 H   0  0  0  0  0  0  0  0  0  0  0  0
    5.3770    2.6818    3.5604 H   0  0  0  0  0  0  0  0  0  0  0  0
    5.9464    2.9545    1.2009 H   0  0  0  0  0  0  0  0  0  0  0  0
    3.3511    1.4150   -2.3876 H   0  0  0  0  0  0  0  0  0  0  0  0
    4.2507    0.1403   -1.5202 H   0  0  0  0  0  0  0  0  0  0  0  0
    5.3225    0.3674   -3.6450 H   0  0  0  0  0  0  0  0  0  0  0  0
    6.3781    0.9218   -2.3805 H   0  0  0  0  0  0  0  0  0  0  0  0
    6.6398    2.5072   -4.0580 H   0  0  0  0  0  0  0  0  0  0  0  0
    3.3182    2.1859   -6.0563 H   0  0  0  0  0  0  0  0  0  0  0  0
    3.7653    1.0021   -4.8842 H   0  0  0  0  0  0  0  0  0  0  0  0
    4.7428    0.4685   -7.0646 H   0  0  0  0  0  0  0  0  0  0  0  0
    6.0535    0.8001   -5.9283 H   0  0  0  0  0  0  0  0  0  0  0  0
    6.4715    0.8515   -8.7647 H   0  0  0  0  0  0  0  0  0  0  0  0
    7.6849    1.4796   -7.6361 H   0  0  0  0  0  0  0  0  0  0  0  0
    7.1127    2.4739   -8.9926 H   0  0  0  0  0  0  0  0  0  0  0  0
    6.3242    4.3012   -7.3670 H   0  0  0  0  0  0  0  0  0  0  0  0
    7.1556    3.2839   -6.1908 H   0  0  0  0  0  0  0  0  0  0  0  0
    4.3346    4.4373   -6.0483 H   0  0  0  0  0  0  0  0  0  0  0  0
    5.6793    4.7792   -4.9964 H   0  0  0  0  0  0  0  0  0  0  0  0
    5.6993    4.6514   -2.8655 H   0  0  0  0  0  0  0  0  0  0  0  0
    6.7182    3.5404   -1.9838 H   0  0  0  0  0  0  0  0  0  0  0  0
    3.6791    3.7895   -1.7339 H   0  0  0  0  0  0  0  0  0  0  0  0
    4.9199    4.2132   -0.5644 H   0  0  0  0  0  0  0  0  0  0  0  0
  1  2  1  0  0  0  0
  1 43  1  0  0  0  0
  1 44  1  0  0  0  0
  1 45  1  0  0  0  0
  2  3  1  0  0  0  0
  3  4  1  0  0  0  0
  3 29  2  0  0  0  0
  4  5  2  0  0  0  0
  4 46  1  0  0  0  0
  5  6  1  0  0  0  0
  5 27  1  0  0  0  0
  6  7  1  0  0  0  0
  6 47  1  0  0  0  0
  7  8  1  0  0  0  0
  7 26  2  0  0  0  0
  8  9  2  0  0  0  0
  9 10  1  0  0  0  0
  9 48  1  0  0  0  0
 10 11  1  0  0  0  0
 10 25  2  0  0  0  0
 11 12  1  0  0  0  0
 11 49  1  0  0  0  0
 11 50  1  0  0  0  0
 12 13  1  0  0  0  0
 12 51  1  0  0  0  0
 12 52  1  0  0  0  0
 13 14  1  0  0  0  0
 13 23  2  0  0  0  0
 14 15  1  0  0  0  0
 14 16  2  0  0  0  0
 16 17  1  0  0  0  0
 16 19  1  0  0  0  0
 17 18  1  0  0  0  0
 18 53  1  0  0  0  0
 18 54  1  0  0  0  0
 18 55  1  0  0  0  0
 19 20  2  0  0  0  0
 19 56  1  0  0  0  0
 20 21  1  0  0  0  0
 20 23  1  0  0  0  0
 21 22  1  0  0  0  0
 22 57  1  0  0  0  0
 22 58  1  0  0  0  0
 22 59  1  0  0  0  0
 23 24  1  0  0  0  0
 25 26  1  0  0  0  0
 25 60  1  0  0  0  0
 27 28  2  0  0  0  0
 27 61  1  0  0  0  0
 28 29  1  0  0  0  0
 28 62  1  0  0  0  0
 29 30  1  0  0  0  0
 30 31  1  0  0  0  0
 30 42  1  0  0  0  0
 31 32  1  0  0  0  0
 31 63  1  0  0  0  0
 31 64  1  0  0  0  0
 32 33  1  0  0  0  0
 32 65  1  0  0  0  0
 32 66  1  0  0  0  0
 33 34  1  0  0  0  0
 33 41  1  0  0  0  0
 33 67  1  0  0  0  0
 34 35  1  0  0  0  0
 34 40  1  0  0  0  0
 35 36  1  0  0  0  0
 35 68  1  0  0  0  0
 35 69  1  0  0  0  0
 36 37  1  0  0  0  0
 36 70  1  0  0  0  0
 36 71  1  0  0  0  0
 37 38  1  0  0  0  0
 37 39  1  0  0  0  0
 38 72  1  0  0  0  0
 38 73  1  0  0  0  0
 38 74  1  0  0  0  0
 39 40  1  0  0  0  0
 39 75  1  0  0  0  0
 39 76  1  0  0  0  0
 40 77  1  0  0  0  0
 40 78  1  0  0  0  0
 41 42  1  0  0  0  0
 41 79  1  0  0  0  0
 41 80  1  0  0  0  0
 42 81  1  0  0  0  0
 42 82  1  0  0  0  0
M  END
$$$$
