CHEMBL1946171
 OpenBabel04072215363D

 53 57  0  0  0  0  0  0  0  0999 V2000
   -2.4136    1.5888    0.0883 C   0  0  0  0  0  0  0  0  0  0  0  0
   -1.5637    0.4263   -0.0324 N   0  0  0  0  0  0  0  0  0  0  0  0
   -1.9200   -0.9056   -0.0210 C   0  0  0  0  0  0  0  0  0  0  0  0
   -3.2139   -1.3130    0.0204 N   0  0  0  0  0  0  0  0  0  0  0  0
   -3.6384   -2.6618    0.0356 C   0  0  0  0  0  0  0  0  0  0  0  0
   -4.8207   -3.0047    0.7089 C   0  0  0  0  0  0  0  0  0  0  0  0
   -5.1945   -4.3443    0.8745 C   0  0  0  0  0  0  0  0  0  0  0  0
   -4.3948   -5.3777    0.3663 C   0  0  0  0  0  0  0  0  0  0  0  0
   -4.7247   -6.8318    0.6008 C   0  0  0  0  0  0  0  0  0  0  0  0
   -5.8432   -7.0189    1.3561 F   0  0  0  0  0  0  0  0  0  0  0  0
   -4.9374   -7.5133   -0.5566 F   0  0  0  0  0  0  0  0  0  0  0  0
   -3.7253   -7.4955    1.2500 F   0  0  0  0  0  0  0  0  0  0  0  0
   -3.2411   -5.0383   -0.3487 C   0  0  0  0  0  0  0  0  0  0  0  0
   -2.8722   -3.7005   -0.5058 C   0  0  0  0  0  0  0  0  0  0  0  0
   -0.8352   -1.6564   -0.0142 N   0  0  0  0  0  0  0  0  0  0  0  0
    0.2359   -0.8119   -0.0352 C   0  0  0  0  0  0  0  0  0  0  0  0
    1.6059   -1.0975   -0.0076 C   0  0  0  0  0  0  0  0  0  0  0  0
    2.5134   -0.0285    0.0149 C   0  0  0  0  0  0  0  0  0  0  0  0
    2.0612    1.2943   -0.0167 C   0  0  0  0  0  0  0  0  0  0  0  0
    3.0357    2.2669    0.0588 O   0  0  0  0  0  0  0  0  0  0  0  0
    2.7321    3.4845    0.6288 C   0  0  0  0  0  0  0  0  0  0  0  0
    1.8974    3.6575    1.7279 C   0  0  0  0  0  0  0  0  0  0  0  0
    1.6604    4.9505    2.1653 C   0  0  0  0  0  0  0  0  0  0  0  0
    2.2335    6.0491    1.6221 N   0  0  0  0  0  0  0  0  0  0  0  0
    3.0924    5.8446    0.5958 C   0  0  0  0  0  0  0  0  0  0  0  0
    3.7316    7.0445    0.0847 C   0  0  0  0  0  0  0  0  0  0  0  0
    4.6476    7.2510   -0.9254 C   0  0  0  0  0  0  0  0  0  0  0  0
    4.9939    8.5698   -1.0266 N   0  0  0  0  0  0  0  0  0  0  0  0
    4.3101    9.1976   -0.0841 C   0  0  0  0  0  0  0  0  0  0  0  0
    4.3316   10.6467    0.2719 C   0  0  0  0  0  0  0  0  0  0  0  0
    5.2411   11.3608   -0.4376 F   0  0  0  0  0  0  0  0  0  0  0  0
    3.1204   11.2295    0.0653 F   0  0  0  0  0  0  0  0  0  0  0  0
    4.6238   10.8318    1.5875 F   0  0  0  0  0  0  0  0  0  0  0  0
    3.5147    8.3046    0.5972 N   0  0  0  0  0  0  0  0  0  0  0  0
    3.3668    4.5875    0.0724 C   0  0  0  0  0  0  0  0  0  0  0  0
    0.6968    1.5848   -0.1534 C   0  0  0  0  0  0  0  0  0  0  0  0
   -0.1898    0.5073   -0.0915 C   0  0  0  0  0  0  0  0  0  0  0  0
   -3.4199    1.3092    0.3990 H   0  0  0  0  0  0  0  0  0  0  0  0
   -2.4376    2.0968   -0.8781 H   0  0  0  0  0  0  0  0  0  0  0  0
   -1.9881    2.2502    0.8500 H   0  0  0  0  0  0  0  0  0  0  0  0
   -3.9660   -0.6593    0.1874 H   0  0  0  0  0  0  0  0  0  0  0  0
   -5.4433   -2.2322    1.1528 H   0  0  0  0  0  0  0  0  0  0  0  0
   -6.1004   -4.5786    1.4321 H   0  0  0  0  0  0  0  0  0  0  0  0
   -2.5997   -5.8140   -0.7653 H   0  0  0  0  0  0  0  0  0  0  0  0
   -1.9583   -3.4820   -1.0534 H   0  0  0  0  0  0  0  0  0  0  0  0
    1.9482   -2.1267    0.0266 H   0  0  0  0  0  0  0  0  0  0  0  0
    3.5794   -0.2371    0.0689 H   0  0  0  0  0  0  0  0  0  0  0  0
    1.4222    2.8200    2.2254 H   0  0  0  0  0  0  0  0  0  0  0  0
    0.9787    5.1381    2.9904 H   0  0  0  0  0  0  0  0  0  0  0  0
    5.0876    6.5136   -1.5852 H   0  0  0  0  0  0  0  0  0  0  0  0
    2.8866    8.5101    1.3634 H   0  0  0  0  0  0  0  0  0  0  0  0
    4.0578    4.4536   -0.7516 H   0  0  0  0  0  0  0  0  0  0  0  0
    0.3325    2.6012   -0.2501 H   0  0  0  0  0  0  0  0  0  0  0  0
  1  2  1  0  0  0  0
  1 38  1  0  0  0  0
  1 39  1  0  0  0  0
  1 40  1  0  0  0  0
  2  3  1  0  0  0  0
  2 37  1  0  0  0  0
  3  4  1  0  0  0  0
  3 15  2  0  0  0  0
  4  5  1  0  0  0  0
  4 41  1  0  0  0  0
  5  6  1  0  0  0  0
  5 14  2  0  0  0  0
  6  7  2  0  0  0  0
  6 42  1  0  0  0  0
  7  8  1  0  0  0  0
  7 43  1  0  0  0  0
  8  9  1  0  0  0  0
  8 13  2  0  0  0  0
  9 10  1  0  0  0  0
  9 11  1  0  0  0  0
  9 12  1  0  0  0  0
 13 14  1  0  0  0  0
 13 44  1  0  0  0  0
 14 45  1  0  0  0  0
 15 16  1  0  0  0  0
 16 17  1  0  0  0  0
 16 37  2  0  0  0  0
 17 18  2  0  0  0  0
 17 46  1  0  0  0  0
 18 19  1  0  0  0  0
 18 47  1  0  0  0  0
 19 20  1  0  0  0  0
 19 36  2  0  0  0  0
 20 21  1  0  0  0  0
 21 22  1  0  0  0  0
 21 35  2  0  0  0  0
 22 23  2  0  0  0  0
 22 48  1  0  0  0  0
 23 24  1  0  0  0  0
 23 49  1  0  0  0  0
 24 25  2  0  0  0  0
 25 26  1  0  0  0  0
 25 35  1  0  0  0  0
 26 27  2  0  0  0  0
 26 34  1  0  0  0  0
 27 28  1  0  0  0  0
 27 50  1  0  0  0  0
 28 29  2  0  0  0  0
 29 30  1  0  0  0  0
 29 34  1  0  0  0  0
 30 31  1  0  0  0  0
 30 32  1  0  0  0  0
 30 33  1  0  0  0  0
 34 51  1  0  0  0  0
 35 52  1  0  0  0  0
 36 37  1  0  0  0  0
 36 53  1  0  0  0  0
M  END
$$$$
