CHEMBL1997129
 OpenBabel04072215363D

 41 44  0  0  0  0  0  0  0  0999 V2000
    3.7925   -0.4401    2.2311 O   0  0  0  0  0  0  0  0  0  0  0  0
    3.7112   -0.2879    1.0174 C   0  0  0  0  0  0  0  0  0  0  0  0
    3.6359   -1.3651    0.1663 N   0  0  0  0  0  0  0  0  0  0  0  0
    3.5826   -1.3290   -1.2920 C   0  0  0  0  0  0  0  0  0  0  0  0
    3.5149    0.0520   -1.9808 C   0  0  0  0  0  0  0  0  0  0  0  0
    3.5878    1.1540   -0.9947 C   0  0  0  0  0  0  0  0  0  0  0  0
    3.5622    2.4895   -1.2900 N   0  0  0  0  0  0  0  0  0  0  0  0
    3.6468    3.2268   -0.1242 C   0  0  0  0  0  0  0  0  0  0  0  0
    3.6278    4.6910   -0.0946 C   0  0  0  0  0  0  0  0  0  0  0  0
    4.2136    5.4437   -1.1120 C   0  0  0  0  0  0  0  0  0  0  0  0
    4.1708    6.8233   -1.0193 C   0  0  0  0  0  0  0  0  0  0  0  0
    3.5898    7.4896   -0.0022 N   0  0  0  0  0  0  0  0  0  0  0  0
    3.0287    6.7563    0.9878 C   0  0  0  0  0  0  0  0  0  0  0  0
    2.4219    7.4892    2.1125 C   0  0  0  0  0  0  0  0  0  0  0  0
    2.3831    8.8305    2.1717 C   0  0  0  0  0  0  0  0  0  0  0  0
    1.8303    9.6376    3.2706 C   0  0  0  0  0  0  0  0  0  0  0  0
    1.8123    9.2032    4.6020 C   0  0  0  0  0  0  0  0  0  0  0  0
    1.3634   10.0501    5.6205 C   0  0  0  0  0  0  0  0  0  0  0  0
    0.9337   11.3412    5.3202 C   0  0  0  0  0  0  0  0  0  0  0  0
    0.9430   11.7847    4.0007 C   0  0  0  0  0  0  0  0  0  0  0  0
    1.3904   10.9382    2.9836 C   0  0  0  0  0  0  0  0  0  0  0  0
    3.0298    5.3665    0.9753 C   0  0  0  0  0  0  0  0  0  0  0  0
    3.7151    2.3124    0.9174 C   0  0  0  0  0  0  0  0  0  0  0  0
    3.6776    1.0073    0.3708 C   0  0  0  0  0  0  0  0  0  0  0  0
    3.6731   -2.2586    0.6384 H   0  0  0  0  0  0  0  0  0  0  0  0
    2.7129   -1.9280   -1.5859 H   0  0  0  0  0  0  0  0  0  0  0  0
    4.4646   -1.8738   -1.6477 H   0  0  0  0  0  0  0  0  0  0  0  0
    2.5846    0.1267   -2.5560 H   0  0  0  0  0  0  0  0  0  0  0  0
    4.3380    0.1376   -2.7002 H   0  0  0  0  0  0  0  0  0  0  0  0
    3.4696    2.8839   -2.2167 H   0  0  0  0  0  0  0  0  0  0  0  0
    4.7191    4.9821   -1.9518 H   0  0  0  0  0  0  0  0  0  0  0  0
    4.6240    7.4512   -1.7811 H   0  0  0  0  0  0  0  0  0  0  0  0
    1.9994    6.8830    2.9064 H   0  0  0  0  0  0  0  0  0  0  0  0
    2.7985    9.4102    1.3485 H   0  0  0  0  0  0  0  0  0  0  0  0
    2.1704    8.2131    4.8697 H   0  0  0  0  0  0  0  0  0  0  0  0
    1.3653    9.7052    6.6512 H   0  0  0  0  0  0  0  0  0  0  0  0
    0.6006   12.0037    6.1146 H   0  0  0  0  0  0  0  0  0  0  0  0
    0.6143   12.7924    3.7611 H   0  0  0  0  0  0  0  0  0  0  0  0
    1.3999   11.3074    1.9601 H   0  0  0  0  0  0  0  0  0  0  0  0
    2.5656    4.8122    1.7850 H   0  0  0  0  0  0  0  0  0  0  0  0
    3.7902    2.5528    1.9715 H   0  0  0  0  0  0  0  0  0  0  0  0
  1  2  2  0  0  0  0
  2  3  1  0  0  0  0
  2 24  1  0  0  0  0
  3  4  1  0  0  0  0
  3 25  1  0  0  0  0
  4  5  1  0  0  0  0
  4 26  1  0  0  0  0
  4 27  1  0  0  0  0
  5  6  1  0  0  0  0
  5 28  1  0  0  0  0
  5 29  1  0  0  0  0
  6  7  1  0  0  0  0
  6 24  2  0  0  0  0
  7  8  1  0  0  0  0
  7 30  1  0  0  0  0
  8  9  1  0  0  0  0
  8 23  2  0  0  0  0
  9 10  1  0  0  0  0
  9 22  2  0  0  0  0
 10 11  2  0  0  0  0
 10 31  1  0  0  0  0
 11 12  1  0  0  0  0
 11 32  1  0  0  0  0
 12 13  2  0  0  0  0
 13 14  1  0  0  0  0
 13 22  1  0  0  0  0
 14 15  2  3  0  0  0
 14 33  1  0  0  0  0
 15 16  1  0  0  0  0
 15 34  1  0  0  0  0
 16 17  1  0  0  0  0
 16 21  2  0  0  0  0
 17 18  2  0  0  0  0
 17 35  1  0  0  0  0
 18 19  1  0  0  0  0
 18 36  1  0  0  0  0
 19 20  2  0  0  0  0
 19 37  1  0  0  0  0
 20 21  1  0  0  0  0
 20 38  1  0  0  0  0
 21 39  1  0  0  0  0
 22 40  1  0  0  0  0
 23 24  1  0  0  0  0
 23 41  1  0  0  0  0
M  END
$$$$
