CHEMBL4798527
 OpenBabel04072215383D

 67 71  0  0  1  0  0  0  0  0999 V2000
   -4.6619   -1.0948    3.1647 C   0  0  0  0  0  0  0  0  0  0  0  0
   -5.9983   -0.7587    2.5630 C   0  0  0  0  0  0  0  0  0  0  0  0
   -6.7781    0.2341    3.1657 C   0  0  0  0  0  0  0  0  0  0  0  0
   -8.0413    0.5563    2.6692 C   0  0  0  0  0  0  0  0  0  0  0  0
   -8.5611   -0.0848    1.5453 C   0  0  0  0  0  0  0  0  0  0  0  0
   -9.8561    0.2189    1.0331 N   0  0  0  0  0  0  0  0  0  0  0  0
  -10.6155    1.3324    1.3907 C   0  0  0  0  0  0  0  0  0  0  0  0
  -10.2555    2.2424    2.1275 O   0  0  0  0  0  0  0  0  0  0  0  0
  -11.9724    1.4726    0.7828 C   0  0  0  0  0  0  0  0  0  0  0  0
  -12.7760    0.3880    0.4394 C   0  0  0  0  0  0  0  0  0  0  0  0
  -14.0536    0.6132   -0.0907 C   0  0  0  0  0  0  0  0  0  0  0  0
  -14.5474    1.9171   -0.2961 C   0  0  0  0  0  0  0  0  0  0  0  0
  -15.9130    2.0918   -0.9051 C   0  0  0  0  0  0  0  0  0  0  0  0
  -13.7498    3.0220    0.0616 C   0  0  0  0  0  0  0  0  0  0  0  0
  -14.1656    4.4707   -0.1182 C   0  0  0  0  0  0  0  0  0  0  0  0
  -15.3869    4.6579   -0.6921 F   0  0  0  0  0  0  0  0  0  0  0  0
  -14.2119    5.1492    1.0619 F   0  0  0  0  0  0  0  0  0  0  0  0
  -13.2906    5.1565   -0.9076 F   0  0  0  0  0  0  0  0  0  0  0  0
  -12.4750    2.7756    0.6134 C   0  0  0  0  0  0  0  0  0  0  0  0
   -7.7806   -1.0803    0.9295 C   0  0  0  0  0  0  0  0  0  0  0  0
   -6.5063   -1.4280    1.4363 C   0  0  0  0  0  0  0  0  0  0  0  0
   -5.7481   -2.4880    0.8230 C   0  0  0  0  0  0  0  0  0  0  0  0
   -5.1200   -3.3912    0.3239 C   0  0  0  0  0  0  0  0  0  0  0  0
   -4.4874   -4.4807   -0.3565 C   0  0  0  0  0  0  0  0  0  0  0  0
   -3.4148   -5.0892    0.1723 N   0  0  0  0  0  0  0  0  0  0  0  0
   -3.1196   -6.0577   -0.7436 N   0  0  0  0  0  0  0  0  0  0  0  0
   -1.9444   -6.9198   -0.5785 C   0  0  1  0  0  0  0  0  0  0  0  0
   -0.6352   -6.1079   -0.5884 C   0  0  0  0  0  0  0  0  0  0  0  0
    0.5991   -6.9882   -0.3810 C   0  0  0  0  0  0  0  0  0  0  0  0
    0.4839   -7.8209    0.8934 C   0  0  2  0  0  0  0  0  0  0  0  0
    1.6318   -8.6495    1.0377 O   0  0  0  0  0  0  0  0  0  0  0  0
   -0.7821   -8.6751    0.8660 C   0  0  0  0  0  0  0  0  0  0  0  0
   -2.0368   -7.8183    0.6705 C   0  0  0  0  0  0  0  0  0  0  0  0
   -3.9997   -6.0778   -1.8031 C   0  0  0  0  0  0  0  0  0  0  0  0
   -4.0030   -6.9166   -2.8550 N   0  0  0  0  0  0  0  0  0  0  0  0
   -5.0096   -6.6349   -3.7034 C   0  0  0  0  0  0  0  0  0  0  0  0
   -5.9372   -5.6594   -3.6063 N   0  0  0  0  0  0  0  0  0  0  0  0
   -5.8835   -4.8288   -2.5483 C   0  0  0  0  0  0  0  0  0  0  0  0
   -6.8274   -3.8169   -2.4910 N   0  0  0  0  0  0  0  0  0  0  0  0
   -4.8922   -5.0401   -1.5842 C   0  0  0  0  0  0  0  0  0  0  0  0
   -4.4361   -0.4469    4.0196 H   0  0  0  0  0  0  0  0  0  0  0  0
   -3.8617   -0.9575    2.4312 H   0  0  0  0  0  0  0  0  0  0  0  0
   -4.6618   -2.1272    3.5275 H   0  0  0  0  0  0  0  0  0  0  0  0
   -6.4166    0.7673    4.0427 H   0  0  0  0  0  0  0  0  0  0  0  0
   -8.6018    1.3075    3.2142 H   0  0  0  0  0  0  0  0  0  0  0  0
  -10.1969   -0.3700    0.2854 H   0  0  0  0  0  0  0  0  0  0  0  0
  -12.4501   -0.6341    0.6081 H   0  0  0  0  0  0  0  0  0  0  0  0
  -14.6750   -0.2463   -0.3415 H   0  0  0  0  0  0  0  0  0  0  0  0
  -16.4024    1.1299   -1.0875 H   0  0  0  0  0  0  0  0  0  0  0  0
  -15.8274    2.6047   -1.8689 H   0  0  0  0  0  0  0  0  0  0  0  0
  -16.5616    2.6648   -0.2347 H   0  0  0  0  0  0  0  0  0  0  0  0
  -11.8583    3.6250    0.9167 H   0  0  0  0  0  0  0  0  0  0  0  0
   -8.1495   -1.5856    0.0406 H   0  0  0  0  0  0  0  0  0  0  0  0
   -1.9255   -7.5812   -1.4549 H   0  0  0  0  0  0  0  0  0  0  0  0
   -0.6593   -5.3473    0.2020 H   0  0  0  0  0  0  0  0  0  0  0  0
   -0.5382   -5.5685   -1.5383 H   0  0  0  0  0  0  0  0  0  0  0  0
    1.5016   -6.3663   -0.3356 H   0  0  0  0  0  0  0  0  0  0  0  0
    0.7401   -7.6503   -1.2454 H   0  0  0  0  0  0  0  0  0  0  0  0
    0.4599   -7.1561    1.7645 H   0  0  0  0  0  0  0  0  0  0  0  0
    1.6166   -9.3295    0.3436 H   0  0  0  0  0  0  0  0  0  0  0  0
   -0.8565   -9.2515    1.7963 H   0  0  0  0  0  0  0  0  0  0  0  0
   -0.7067   -9.4216    0.0638 H   0  0  0  0  0  0  0  0  0  0  0  0
   -2.1836   -7.2031    1.5666 H   0  0  0  0  0  0  0  0  0  0  0  0
   -2.9114   -8.4756    0.5946 H   0  0  0  0  0  0  0  0  0  0  0  0
   -5.0901   -7.2704   -4.5806 H   0  0  0  0  0  0  0  0  0  0  0  0
   -7.6052   -3.9725   -3.1189 H   0  0  0  0  0  0  0  0  0  0  0  0
   -7.0229   -3.4115   -1.5884 H   0  0  0  0  0  0  0  0  0  0  0  0
  1  2  1  0  0  0  0
  1 41  1  0  0  0  0
  1 42  1  0  0  0  0
  1 43  1  0  0  0  0
  2  3  1  0  0  0  0
  2 21  2  0  0  0  0
  3  4  2  0  0  0  0
  3 44  1  0  0  0  0
  4  5  1  0  0  0  0
  4 45  1  0  0  0  0
  5  6  1  0  0  0  0
  5 20  2  0  0  0  0
  6  7  1  0  0  0  0
  6 46  1  0  0  0  0
  7  8  2  0  0  0  0
  7  9  1  0  0  0  0
  9 10  1  0  0  0  0
  9 19  2  0  0  0  0
 10 11  2  0  0  0  0
 10 47  1  0  0  0  0
 11 12  1  0  0  0  0
 11 48  1  0  0  0  0
 12 13  1  0  0  0  0
 12 14  2  0  0  0  0
 13 49  1  0  0  0  0
 13 50  1  0  0  0  0
 13 51  1  0  0  0  0
 14 15  1  0  0  0  0
 14 19  1  0  0  0  0
 15 16  1  0  0  0  0
 15 17  1  0  0  0  0
 15 18  1  0  0  0  0
 19 52  1  0  0  0  0
 20 21  1  0  0  0  0
 20 53  1  0  0  0  0
 21 22  1  0  0  0  0
 22 23  3  0  0  0  0
 23 24  1  0  0  0  0
 24 25  2  0  0  0  0
 24 40  1  0  0  0  0
 25 26  1  0  0  0  0
 26 34  1  0  0  0  0
 27 28  1  0  0  0  0
 27 33  1  0  0  0  0
 27 26  1  0  0  0  0
 27 54  1  6  0  0  0
 28 29  1  0  0  0  0
 28 55  1  0  0  0  0
 28 56  1  0  0  0  0
 29 30  1  0  0  0  0
 29 57  1  0  0  0  0
 29 58  1  0  0  0  0
 30 31  1  0  0  0  0
 30 32  1  0  0  0  0
 30 59  1  1  0  0  0
 31 60  1  0  0  0  0
 32 33  1  0  0  0  0
 32 61  1  0  0  0  0
 32 62  1  0  0  0  0
 33 63  1  0  0  0  0
 33 64  1  0  0  0  0
 34 35  1  0  0  0  0
 34 40  2  0  0  0  0
 35 36  2  0  0  0  0
 36 37  1  0  0  0  0
 36 65  1  0  0  0  0
 37 38  2  0  0  0  0
 38 39  1  0  0  0  0
 38 40  1  0  0  0  0
 39 66  1  0  0  0  0
 39 67  1  0  0  0  0
M  END
$$$$
