CHEMBL3690574
 OpenBabel04072215373D

 49 53  0  0  0  0  0  0  0  0999 V2000
    1.7100   -1.0170   -1.1016 C   0  0  0  0  0  0  0  0  0  0  0  0
    3.1265   -0.6316   -0.9197 C   0  0  0  0  0  0  0  0  0  0  0  0
    3.7185    0.1952    0.0327 C   0  0  0  0  0  0  0  0  0  0  0  0
    5.0433    0.1976   -0.2905 N   0  0  0  0  0  0  0  0  0  0  0  0
    6.1267    0.8509    0.2219 N   0  0  0  0  0  0  0  0  0  0  0  0
    7.1388    0.5116   -0.5427 C   0  0  0  0  0  0  0  0  0  0  0  0
    8.5548    1.0334   -0.4942 C   0  0  0  0  0  0  0  0  0  0  0  0
    9.5634    0.5609   -1.4494 C   0  0  0  0  0  0  0  0  0  0  0  0
   10.6953    1.2519   -1.6313 C   0  0  0  0  0  0  0  0  0  0  0  0
   11.0153    2.2731   -0.7473 N   0  0  0  0  0  0  0  0  0  0  0  0
   12.2126    2.9467   -0.5738 C   0  0  0  0  0  0  0  0  0  0  0  0
   13.4955    2.6738   -1.2458 C   0  0  0  0  0  0  0  0  0  0  0  0
   14.3363    3.7434   -1.5547 C   0  0  0  0  0  0  0  0  0  0  0  0
   15.6128    3.5116   -2.0800 C   0  0  0  0  0  0  0  0  0  0  0  0
   16.0650    2.2100   -2.2853 C   0  0  0  0  0  0  0  0  0  0  0  0
   15.2587    1.1158   -1.9840 C   0  0  0  0  0  0  0  0  0  0  0  0
   15.6841   -0.2288   -2.1358 N   0  0  0  0  0  0  0  0  0  0  0  0
   16.9353   -0.6550   -2.5236 C   0  0  0  0  0  0  0  0  0  0  0  0
   17.9051    0.0388   -2.8074 O   0  0  0  0  0  0  0  0  0  0  0  0
   17.0194   -2.0278   -2.6101 N   0  0  0  0  0  0  0  0  0  0  0  0
   18.3118   -2.6368   -2.9757 C   0  0  0  0  0  0  0  0  0  0  0  0
   19.3459   -2.7500   -1.8455 C   0  0  0  0  0  0  0  0  0  0  0  0
   18.8106   -2.4556   -0.6379 F   0  0  0  0  0  0  0  0  0  0  0  0
   19.8042   -4.0251   -1.7675 F   0  0  0  0  0  0  0  0  0  0  0  0
   20.4146   -1.9517   -2.0403 F   0  0  0  0  0  0  0  0  0  0  0  0
   13.9666    1.3599   -1.4742 C   0  0  0  0  0  0  0  0  0  0  0  0
   11.9364    3.8350    0.4582 C   0  0  0  0  0  0  0  0  0  0  0  0
   10.6658    3.6869    0.9519 N   0  0  0  0  0  0  0  0  0  0  0  0
   10.1440    2.7129    0.2503 C   0  0  0  0  0  0  0  0  0  0  0  0
    8.8555    2.0624    0.3324 C   0  0  0  0  0  0  0  0  0  0  0  0
    6.7904   -0.6512   -1.8779 S   0  0  0  0  0  0  0  0  0  0  0  0
    5.1743   -0.6059   -1.3708 C   0  0  0  0  0  0  0  0  0  0  0  0
    4.0674   -1.1331   -1.7996 N   0  0  0  0  0  0  0  0  0  0  0  0
    1.0776   -0.6360   -0.2961 H   0  0  0  0  0  0  0  0  0  0  0  0
    1.6165   -2.1088   -1.1274 H   0  0  0  0  0  0  0  0  0  0  0  0
    1.3340   -0.6261   -2.0539 H   0  0  0  0  0  0  0  0  0  0  0  0
    3.3226    0.7574    0.8647 H   0  0  0  0  0  0  0  0  0  0  0  0
    9.4131   -0.3492   -2.0179 H   0  0  0  0  0  0  0  0  0  0  0  0
   11.4085    1.0001   -2.4045 H   0  0  0  0  0  0  0  0  0  0  0  0
   14.0266    4.7717   -1.3900 H   0  0  0  0  0  0  0  0  0  0  0  0
   16.2718    4.3480   -2.3022 H   0  0  0  0  0  0  0  0  0  0  0  0
   17.0688    2.0910   -2.6764 H   0  0  0  0  0  0  0  0  0  0  0  0
   15.0042   -0.9496   -1.9453 H   0  0  0  0  0  0  0  0  0  0  0  0
   16.4400   -2.5512   -1.9670 H   0  0  0  0  0  0  0  0  0  0  0  0
   18.7437   -2.0667   -3.8062 H   0  0  0  0  0  0  0  0  0  0  0  0
   18.0762   -3.6368   -3.3580 H   0  0  0  0  0  0  0  0  0  0  0  0
   13.3418    0.5137   -1.2027 H   0  0  0  0  0  0  0  0  0  0  0  0
   12.6247    4.5387    0.9098 H   0  0  0  0  0  0  0  0  0  0  0  0
    8.1381    2.4700    1.0425 H   0  0  0  0  0  0  0  0  0  0  0  0
  1  2  1  0  0  0  0
  1 34  1  0  0  0  0
  1 35  1  0  0  0  0
  1 36  1  0  0  0  0
  2  3  2  0  0  0  0
  2 33  1  0  0  0  0
  3  4  1  0  0  0  0
  3 37  1  0  0  0  0
  4  5  1  0  0  0  0
  4 32  1  0  0  0  0
  5  6  2  0  0  0  0
  6  7  1  0  0  0  0
  6 31  1  0  0  0  0
  7  8  1  0  0  0  0
  7 30  2  0  0  0  0
  8  9  2  0  0  0  0
  8 38  1  0  0  0  0
  9 10  1  0  0  0  0
  9 39  1  0  0  0  0
 10 11  1  0  0  0  0
 10 29  1  0  0  0  0
 11 12  1  0  0  0  0
 11 27  2  0  0  0  0
 12 13  1  0  0  0  0
 12 26  2  0  0  0  0
 13 14  2  0  0  0  0
 13 40  1  0  0  0  0
 14 15  1  0  0  0  0
 14 41  1  0  0  0  0
 15 16  2  0  0  0  0
 15 42  1  0  0  0  0
 16 17  1  0  0  0  0
 16 26  1  0  0  0  0
 17 18  1  0  0  0  0
 17 43  1  0  0  0  0
 18 19  2  0  0  0  0
 18 20  1  0  0  0  0
 20 21  1  0  0  0  0
 20 44  1  0  0  0  0
 21 22  1  0  0  0  0
 21 45  1  0  0  0  0
 21 46  1  0  0  0  0
 22 23  1  0  0  0  0
 22 24  1  0  0  0  0
 22 25  1  0  0  0  0
 26 47  1  0  0  0  0
 27 28  1  0  0  0  0
 27 48  1  0  0  0  0
 28 29  2  0  0  0  0
 29 30  1  0  0  0  0
 30 49  1  0  0  0  0
 31 32  1  0  0  0  0
 32 33  2  0  0  0  0
M  END
$$$$
