CHEMBL364962
 OpenBabel04072215373D

 51 53  0  0  0  0  0  0  0  0999 V2000
    6.0017    0.2913   -1.0175 C   0  0  0  0  0  0  0  0  0  0  0  0
    5.0489    0.6488    0.1094 C   0  0  0  0  0  0  0  0  0  0  0  0
    5.1332   -0.3755    1.1074 O   0  0  0  0  0  0  0  0  0  0  0  0
    4.3419   -1.4704    0.8989 C   0  0  0  0  0  0  0  0  0  0  0  0
    3.3867   -1.4895    0.1336 O   0  0  0  0  0  0  0  0  0  0  0  0
    4.8571   -2.6507    1.5989 C   0  0  0  0  0  0  0  0  0  0  0  0
    5.9546   -2.6225    2.4378 C   0  0  0  0  0  0  0  0  0  0  0  0
    6.2364   -3.8872    2.8364 N   0  0  0  0  0  0  0  0  0  0  0  0
    7.2527   -4.2064    3.6550 N   0  0  0  0  0  0  0  0  0  0  0  0
    7.3951   -5.4748    3.8675 C   0  0  0  0  0  0  0  0  0  0  0  0
    6.6510   -6.4752    3.3159 N   0  0  0  0  0  0  0  0  0  0  0  0
    5.6863   -6.1385    2.5258 C   0  0  0  0  0  0  0  0  0  0  0  0
    4.9160   -7.0493    1.8309 O   0  0  0  0  0  0  0  0  0  0  0  0
    5.3840   -8.3733    1.6888 C   0  0  0  0  0  0  0  0  0  0  0  0
    6.6874   -8.6316    1.2575 C   0  0  0  0  0  0  0  0  0  0  0  0
    7.0972   -9.9406    1.0335 C   0  0  0  0  0  0  0  0  0  0  0  0
    6.2008  -10.9938    1.2265 C   0  0  0  0  0  0  0  0  0  0  0  0
    4.8888  -10.7329    1.6589 C   0  0  0  0  0  0  0  0  0  0  0  0
    3.9154  -11.8453    1.8473 C   0  0  0  0  0  0  0  0  0  0  0  0
    2.7148  -11.6341    1.7133 O   0  0  0  0  0  0  0  0  0  0  0  0
    4.4809  -13.0630    2.1715 N   0  0  0  0  0  0  0  0  0  0  0  0
    3.5613  -14.0600    2.5778 O   0  0  0  0  0  0  0  0  0  0  0  0
    3.3509  -14.9392    1.4760 C   0  0  0  0  0  0  0  0  0  0  0  0
    4.4696   -9.4125    1.8705 C   0  0  0  0  0  0  0  0  0  0  0  0
    5.3699   -4.7706    2.2536 C   0  0  0  0  0  0  0  0  0  0  0  0
    4.4280   -4.0421    1.5175 C   0  0  0  0  0  0  0  0  0  0  0  0
    3.2278   -4.4859    0.6924 C   0  0  0  0  0  0  0  0  0  0  0  0
    3.6135   -4.7620   -0.7618 C   0  0  0  0  0  0  0  0  0  0  0  0
    2.3925   -5.6306    1.2610 C   0  0  0  0  0  0  0  0  0  0  0  0
    6.0054    1.0591   -1.7947 H   0  0  0  0  0  0  0  0  0  0  0  0
    5.7283   -0.6680   -1.4714 H   0  0  0  0  0  0  0  0  0  0  0  0
    7.0207    0.1723   -0.6314 H   0  0  0  0  0  0  0  0  0  0  0  0
    4.0252    0.7865   -0.2539 H   0  0  0  0  0  0  0  0  0  0  0  0
    5.3616    1.5882    0.5759 H   0  0  0  0  0  0  0  0  0  0  0  0
    6.5827   -1.8014    2.7561 H   0  0  0  0  0  0  0  0  0  0  0  0
    8.2129   -5.7927    4.5363 H   0  0  0  0  0  0  0  0  0  0  0  0
    7.3857   -7.8168    1.0832 H   0  0  0  0  0  0  0  0  0  0  0  0
    8.1080  -10.1420    0.6902 H   0  0  0  0  0  0  0  0  0  0  0  0
    6.5301  -12.0026    0.9978 H   0  0  0  0  0  0  0  0  0  0  0  0
    5.3571  -13.0758    2.6819 H   0  0  0  0  0  0  0  0  0  0  0  0
    2.6662  -15.7304    1.7911 H   0  0  0  0  0  0  0  0  0  0  0  0
    4.2968  -15.3967    1.1669 H   0  0  0  0  0  0  0  0  0  0  0  0
    2.9021  -14.3998    0.6360 H   0  0  0  0  0  0  0  0  0  0  0  0
    3.4475   -9.1994    2.1714 H   0  0  0  0  0  0  0  0  0  0  0  0
    2.5284   -3.6421    0.6827 H   0  0  0  0  0  0  0  0  0  0  0  0
    4.3641   -5.5553   -0.8361 H   0  0  0  0  0  0  0  0  0  0  0  0
    4.0308   -3.8651   -1.2339 H   0  0  0  0  0  0  0  0  0  0  0  0
    2.7375   -5.0626   -1.3472 H   0  0  0  0  0  0  0  0  0  0  0  0
    2.8293   -6.6095    1.0628 H   0  0  0  0  0  0  0  0  0  0  0  0
    1.4096   -5.6485    0.7742 H   0  0  0  0  0  0  0  0  0  0  0  0
    2.2298   -5.5213    2.3374 H   0  0  0  0  0  0  0  0  0  0  0  0
  1  2  1  0  0  0  0
  1 30  1  0  0  0  0
  1 31  1  0  0  0  0
  1 32  1  0  0  0  0
  2  3  1  0  0  0  0
  2 33  1  0  0  0  0
  2 34  1  0  0  0  0
  3  4  1  0  0  0  0
  4  5  2  0  0  0  0
  4  6  1  0  0  0  0
  6  7  2  0  0  0  0
  6 26  1  0  0  0  0
  7  8  1  0  0  0  0
  7 35  1  0  0  0  0
  8  9  1  0  0  0  0
  8 25  1  0  0  0  0
  9 10  2  0  0  0  0
 10 11  1  0  0  0  0
 10 36  1  0  0  0  0
 11 12  2  0  0  0  0
 12 13  1  0  0  0  0
 12 25  1  0  0  0  0
 13 14  1  0  0  0  0
 14 15  1  0  0  0  0
 14 24  2  0  0  0  0
 15 16  2  0  0  0  0
 15 37  1  0  0  0  0
 16 17  1  0  0  0  0
 16 38  1  0  0  0  0
 17 18  2  0  0  0  0
 17 39  1  0  0  0  0
 18 19  1  0  0  0  0
 18 24  1  0  0  0  0
 19 20  2  0  0  0  0
 19 21  1  0  0  0  0
 21 22  1  0  0  0  0
 21 40  1  0  0  0  0
 22 23  1  0  0  0  0
 23 41  1  0  0  0  0
 23 42  1  0  0  0  0
 23 43  1  0  0  0  0
 24 44  1  0  0  0  0
 25 26  2  0  0  0  0
 26 27  1  0  0  0  0
 27 28  1  0  0  0  0
 27 29  1  0  0  0  0
 27 45  1  0  0  0  0
 28 46  1  0  0  0  0
 28 47  1  0  0  0  0
 28 48  1  0  0  0  0
 29 49  1  0  0  0  0
 29 50  1  0  0  0  0
 29 51  1  0  0  0  0
M  END
$$$$
