CHEMBL304113
 OpenBabel04072215363D

 48 51  0  0  0  0  0  0  0  0999 V2000
    1.0574   -0.0991   -0.1494 C   0  0  0  0  0  0  0  0  0  0  0  0
    2.5830   -0.0793   -0.0132 C   0  0  0  0  0  0  0  0  0  0  0  0
    3.2522    0.1019   -1.3768 C   0  0  0  0  0  0  0  0  0  0  0  0
    3.0112    0.9510    0.9316 N   0  0  0  0  0  0  0  0  0  0  0  0
    2.7981    2.2940    0.7630 C   0  0  0  0  0  0  0  0  0  0  0  0
    3.2557    2.9639    1.8837 C   0  0  0  0  0  0  0  0  0  0  0  0
    3.1093    4.4094    2.0123 C   0  0  0  0  0  0  0  0  0  0  0  0
    1.9992    5.0581    1.4517 C   0  0  0  0  0  0  0  0  0  0  0  0
    1.8100    6.4278    1.6244 C   0  0  0  0  0  0  0  0  0  0  0  0
    2.6725    7.1467    2.4506 C   0  0  0  0  0  0  0  0  0  0  0  0
    2.4872    8.4625    2.8035 O   0  0  0  0  0  0  0  0  0  0  0  0
    1.2091    8.9453    2.9823 C   0  0  0  0  0  0  0  0  0  0  0  0
    0.1423    8.1595    3.4385 C   0  0  0  0  0  0  0  0  0  0  0  0
   -1.1544    8.6791    3.4881 C   0  0  0  0  0  0  0  0  0  0  0  0
   -1.3920   10.0100    3.1444 C   0  0  0  0  0  0  0  0  0  0  0  0
   -0.3292   10.8322    2.7753 C   0  0  0  0  0  0  0  0  0  0  0  0
    0.9627   10.2921    2.7099 C   0  0  0  0  0  0  0  0  0  0  0  0
    2.0567   11.1740    2.3490 N   0  3  0  0  0  0  0  0  0  0  0  0
    2.9981   11.2737    3.1522 O   0  0  0  0  0  0  0  0  0  0  0  0
    1.9434   11.8035    1.2928 O   0  5  0  0  0  0  0  0  0  0  0  0
    3.8202    6.5331    2.9470 C   0  0  0  0  0  0  0  0  0  0  0  0
    4.0520    5.1779    2.6989 C   0  0  0  0  0  0  0  0  0  0  0  0
    3.7972    1.9678    2.7697 C   0  0  0  0  0  0  0  0  0  0  0  0
    4.3849    1.9229    4.0500 C   0  0  0  0  0  0  0  0  0  0  0  0
    4.5591    3.0171    4.8893 N   0  0  0  0  0  0  0  0  0  0  0  0
    4.7958    0.7393    4.5452 N   0  0  0  0  0  0  0  0  0  0  0  0
    4.6080   -0.3654    3.8024 C   0  0  0  0  0  0  0  0  0  0  0  0
    4.0298   -0.4620    2.5980 N   0  0  0  0  0  0  0  0  0  0  0  0
    3.6462    0.7380    2.1288 C   0  0  0  0  0  0  0  0  0  0  0  0
    0.7365   -0.8964   -0.8278 H   0  0  0  0  0  0  0  0  0  0  0  0
    0.6719    0.8480   -0.5440 H   0  0  0  0  0  0  0  0  0  0  0  0
    0.5808   -0.2686    0.8226 H   0  0  0  0  0  0  0  0  0  0  0  0
    2.8986   -1.0471    0.3931 H   0  0  0  0  0  0  0  0  0  0  0  0
    2.9775    1.0559   -1.8412 H   0  0  0  0  0  0  0  0  0  0  0  0
    2.9570   -0.6981   -2.0635 H   0  0  0  0  0  0  0  0  0  0  0  0
    4.3429    0.0830   -1.2804 H   0  0  0  0  0  0  0  0  0  0  0  0
    2.3245    2.6640   -0.1371 H   0  0  0  0  0  0  0  0  0  0  0  0
    1.2520    4.5040    0.8868 H   0  0  0  0  0  0  0  0  0  0  0  0
    0.9555    6.9011    1.1489 H   0  0  0  0  0  0  0  0  0  0  0  0
    0.2953    7.1237    3.7341 H   0  0  0  0  0  0  0  0  0  0  0  0
   -1.9799    8.0374    3.7896 H   0  0  0  0  0  0  0  0  0  0  0  0
   -2.4046   10.4060    3.1813 H   0  0  0  0  0  0  0  0  0  0  0  0
   -0.5102   11.8781    2.5385 H   0  0  0  0  0  0  0  0  0  0  0  0
    4.5319    7.1034    3.5393 H   0  0  0  0  0  0  0  0  0  0  0  0
    4.9733    4.7336    3.0691 H   0  0  0  0  0  0  0  0  0  0  0  0
    3.8152    3.7003    4.8236 H   0  0  0  0  0  0  0  0  0  0  0  0
    4.7773    2.7016    5.8280 H   0  0  0  0  0  0  0  0  0  0  0  0
    4.9628   -1.2931    4.2406 H   0  0  0  0  0  0  0  0  0  0  0  0
  1  2  1  0  0  0  0
  1 30  1  0  0  0  0
  1 31  1  0  0  0  0
  1 32  1  0  0  0  0
  2  3  1  0  0  0  0
  2  4  1  0  0  0  0
  2 33  1  0  0  0  0
  3 34  1  0  0  0  0
  3 35  1  0  0  0  0
  3 36  1  0  0  0  0
  4  5  1  0  0  0  0
  4 29  1  0  0  0  0
  5  6  2  0  0  0  0
  5 37  1  0  0  0  0
  6  7  1  0  0  0  0
  6 23  1  0  0  0  0
  7  8  1  0  0  0  0
  7 22  2  0  0  0  0
  8  9  2  0  0  0  0
  8 38  1  0  0  0  0
  9 10  1  0  0  0  0
  9 39  1  0  0  0  0
 10 11  1  0  0  0  0
 10 21  2  0  0  0  0
 11 12  1  0  0  0  0
 12 13  1  0  0  0  0
 12 17  2  0  0  0  0
 13 14  2  0  0  0  0
 13 40  1  0  0  0  0
 14 15  1  0  0  0  0
 14 41  1  0  0  0  0
 15 16  2  0  0  0  0
 15 42  1  0  0  0  0
 16 17  1  0  0  0  0
 16 43  1  0  0  0  0
 17 18  1  0  0  0  0
 18 19  2  0  0  0  0
 18 20  1  0  0  0  0
 21 22  1  0  0  0  0
 21 44  1  0  0  0  0
 22 45  1  0  0  0  0
 23 24  1  0  0  0  0
 23 29  2  0  0  0  0
 24 25  1  0  0  0  0
 24 26  2  0  0  0  0
 25 46  1  0  0  0  0
 25 47  1  0  0  0  0
 26 27  1  0  0  0  0
 27 28  2  0  0  0  0
 27 48  1  0  0  0  0
 28 29  1  0  0  0  0
M  CHG  2  18   1  20  -1
M  END
$$$$
