CHEMBL447107
 OpenBabel04072215383D

 72 77  0  0  0  0  0  0  0  0999 V2000
    1.2037    1.0512   -4.5057 C   0  0  0  0  0  0  0  0  0  0  0  0
    1.9532    0.9863   -3.2145 C   0  0  0  0  0  0  0  0  0  0  0  0
    1.5083    1.7447   -2.1968 N   0  0  0  0  0  0  0  0  0  0  0  0
    2.1940    1.6942   -1.0434 C   0  0  0  0  0  0  0  0  0  0  0  0
    1.7605    2.4100    0.0944 N   0  0  0  0  0  0  0  0  0  0  0  0
    1.1677    3.6882    0.0313 C   0  0  0  0  0  0  0  0  0  0  0  0
    0.3582    4.0666    1.0858 C   0  0  0  0  0  0  0  0  0  0  0  0
   -0.2140    5.3178    1.0100 C   0  0  0  0  0  0  0  0  0  0  0  0
   -1.1598    5.7504    1.9896 N   0  0  0  0  0  0  0  0  0  0  0  0
   -1.3158    5.3296    3.3170 C   0  0  0  0  0  0  0  0  0  0  0  0
   -0.4949    4.4071    3.8965 N   0  0  0  0  0  0  0  0  0  0  0  0
   -0.8364    3.6484    5.0561 C   0  0  0  0  0  0  0  0  0  0  0  0
   -2.1042    3.0527    5.2465 C   0  0  0  0  0  0  0  0  0  0  0  0
   -3.1966    3.0395    4.2094 C   0  0  0  0  0  0  0  0  0  0  0  0
   -2.3848    2.3849    6.4565 C   0  0  0  0  0  0  0  0  0  0  0  0
   -1.4119    2.2261    7.4399 C   0  0  0  0  0  0  0  0  0  0  0  0
   -0.1349    2.7302    7.2283 C   0  0  0  0  0  0  0  0  0  0  0  0
    0.1466    3.4342    6.0534 C   0  0  0  0  0  0  0  0  0  0  0  0
    1.7621    4.0275    5.8362 Cl  0  0  0  0  0  0  0  0  0  0  0  0
   -2.3254    5.9489    3.8931 N   0  0  0  0  0  0  0  0  0  0  0  0
   -2.8884    6.7417    2.9341 C   0  0  0  0  0  0  0  0  0  0  0  0
   -4.0319    7.5531    3.0152 C   0  0  0  0  0  0  0  0  0  0  0  0
   -4.4758    8.2188    1.8660 C   0  0  0  0  0  0  0  0  0  0  0  0
   -3.7920    8.0861    0.6601 C   0  0  0  0  0  0  0  0  0  0  0  0
   -2.6398    7.3011    0.5705 C   0  0  0  0  0  0  0  0  0  0  0  0
   -2.1977    6.6442    1.7331 C   0  0  0  0  0  0  0  0  0  0  0  0
    0.0435    6.1554   -0.0198 N   0  0  0  0  0  0  0  0  0  0  0  0
    0.8802    5.7144   -0.9621 C   0  0  0  0  0  0  0  0  0  0  0  0
    1.4694    4.5213   -0.9751 N   0  0  0  0  0  0  0  0  0  0  0  0
    3.2743    0.8633   -0.9015 C   0  0  0  0  0  0  0  0  0  0  0  0
    3.7041    0.1533   -2.0038 C   0  0  0  0  0  0  0  0  0  0  0  0
    4.8684   -0.5989   -1.8544 N   0  0  0  0  0  0  0  0  0  0  0  0
    5.0603   -1.7378   -2.7570 C   0  0  0  0  0  0  0  0  0  0  0  0
    6.2304   -2.5951   -2.1906 C   0  0  0  0  0  0  0  0  0  0  0  0
    7.5108   -1.8623   -1.9354 N   0  0  0  0  0  0  0  0  0  0  0  0
    8.1934   -1.5738   -3.2157 C   0  0  0  0  0  0  0  0  0  0  0  0
    9.5623   -0.8938   -3.0411 C   0  0  0  0  0  0  0  0  0  0  0  0
   10.3797   -1.6323   -2.1385 O   0  0  0  0  0  0  0  0  0  0  0  0
    7.2027   -0.6380   -1.1526 C   0  0  0  0  0  0  0  0  0  0  0  0
    6.0748    0.2362   -1.7360 C   0  0  0  0  0  0  0  0  0  0  0  0
    3.0372    0.1851   -3.1628 N   0  0  0  0  0  0  0  0  0  0  0  0
    0.2843    1.6357   -4.3996 H   0  0  0  0  0  0  0  0  0  0  0  0
    0.9353    0.0440   -4.8379 H   0  0  0  0  0  0  0  0  0  0  0  0
    1.8284    1.5224   -5.2701 H   0  0  0  0  0  0  0  0  0  0  0  0
    2.4947    2.4577    0.7918 H   0  0  0  0  0  0  0  0  0  0  0  0
    0.1274    3.3431    1.8547 H   0  0  0  0  0  0  0  0  0  0  0  0
    0.4939    4.6568    3.9238 H   0  0  0  0  0  0  0  0  0  0  0  0
   -2.8435    3.2991    3.2094 H   0  0  0  0  0  0  0  0  0  0  0  0
   -4.0050    3.7184    4.4968 H   0  0  0  0  0  0  0  0  0  0  0  0
   -3.6012    2.0253    4.1163 H   0  0  0  0  0  0  0  0  0  0  0  0
   -3.3760    1.9647    6.6229 H   0  0  0  0  0  0  0  0  0  0  0  0
   -1.6486    1.6930    8.3572 H   0  0  0  0  0  0  0  0  0  0  0  0
    0.6332    2.5763    7.9813 H   0  0  0  0  0  0  0  0  0  0  0  0
   -4.5731    7.6338    3.9519 H   0  0  0  0  0  0  0  0  0  0  0  0
   -5.3720    8.8324    1.9109 H   0  0  0  0  0  0  0  0  0  0  0  0
   -4.1621    8.5881   -0.2318 H   0  0  0  0  0  0  0  0  0  0  0  0
   -2.1330    7.1871   -0.3826 H   0  0  0  0  0  0  0  0  0  0  0  0
    1.0999    6.3827   -1.7865 H   0  0  0  0  0  0  0  0  0  0  0  0
    3.7982    0.7675    0.0406 H   0  0  0  0  0  0  0  0  0  0  0  0
    5.2845   -1.4034   -3.7776 H   0  0  0  0  0  0  0  0  0  0  0  0
    4.1569   -2.3589   -2.7945 H   0  0  0  0  0  0  0  0  0  0  0  0
    6.4090   -3.4583   -2.8420 H   0  0  0  0  0  0  0  0  0  0  0  0
    5.9029   -3.0129   -1.2279 H   0  0  0  0  0  0  0  0  0  0  0  0
    7.5766   -0.9715   -3.8904 H   0  0  0  0  0  0  0  0  0  0  0  0
    8.3768   -2.5366   -3.7097 H   0  0  0  0  0  0  0  0  0  0  0  0
    9.4626    0.1264   -2.6589 H   0  0  0  0  0  0  0  0  0  0  0  0
   10.0784   -0.8349   -4.0038 H   0  0  0  0  0  0  0  0  0  0  0  0
    9.7725   -1.9576   -1.4444 H   0  0  0  0  0  0  0  0  0  0  0  0
    8.0970   -0.0292   -0.9908 H   0  0  0  0  0  0  0  0  0  0  0  0
    6.8949   -0.9592   -0.1477 H   0  0  0  0  0  0  0  0  0  0  0  0
    6.3590    0.6425   -2.7160 H   0  0  0  0  0  0  0  0  0  0  0  0
    5.9228    1.0919   -1.0671 H   0  0  0  0  0  0  0  0  0  0  0  0
  1  2  1  0  0  0  0
  1 42  1  0  0  0  0
  1 43  1  0  0  0  0
  1 44  1  0  0  0  0
  2  3  1  0  0  0  0
  2 41  2  0  0  0  0
  3  4  2  0  0  0  0
  4  5  1  0  0  0  0
  4 30  1  0  0  0  0
  5  6  1  0  0  0  0
  5 45  1  0  0  0  0
  6  7  1  0  0  0  0
  6 29  2  0  0  0  0
  7  8  2  0  0  0  0
  7 46  1  0  0  0  0
  8  9  1  0  0  0  0
  8 27  1  0  0  0  0
  9 10  1  0  0  0  0
  9 26  1  0  0  0  0
 10 11  1  0  0  0  0
 10 20  2  0  0  0  0
 11 12  1  0  0  0  0
 11 47  1  0  0  0  0
 12 13  1  0  0  0  0
 12 18  2  0  0  0  0
 13 14  1  0  0  0  0
 13 15  2  0  0  0  0
 14 48  1  0  0  0  0
 14 49  1  0  0  0  0
 14 50  1  0  0  0  0
 15 16  1  0  0  0  0
 15 51  1  0  0  0  0
 16 17  2  0  0  0  0
 16 52  1  0  0  0  0
 17 18  1  0  0  0  0
 17 53  1  0  0  0  0
 18 19  1  0  0  0  0
 20 21  1  0  0  0  0
 21 22  1  0  0  0  0
 21 26  2  0  0  0  0
 22 23  2  0  0  0  0
 22 54  1  0  0  0  0
 23 24  1  0  0  0  0
 23 55  1  0  0  0  0
 24 25  2  0  0  0  0
 24 56  1  0  0  0  0
 25 26  1  0  0  0  0
 25 57  1  0  0  0  0
 27 28  2  0  0  0  0
 28 29  1  0  0  0  0
 28 58  1  0  0  0  0
 30 31  2  0  0  0  0
 30 59  1  0  0  0  0
 31 32  1  0  0  0  0
 31 41  1  0  0  0  0
 32 33  1  0  0  0  0
 32 40  1  0  0  0  0
 33 34  1  0  0  0  0
 33 60  1  0  0  0  0
 33 61  1  0  0  0  0
 34 35  1  0  0  0  0
 34 62  1  0  0  0  0
 34 63  1  0  0  0  0
 35 36  1  0  0  0  0
 35 39  1  0  0  0  0
 36 37  1  0  0  0  0
 36 64  1  0  0  0  0
 36 65  1  0  0  0  0
 37 38  1  0  0  0  0
 37 66  1  0  0  0  0
 37 67  1  0  0  0  0
 38 68  1  0  0  0  0
 39 40  1  0  0  0  0
 39 69  1  0  0  0  0
 39 70  1  0  0  0  0
 40 71  1  0  0  0  0
 40 72  1  0  0  0  0
M  END
$$$$
