CHEMBL3633688
 OpenBabel04072215373D

 50 54  0  0  0  0  0  0  0  0999 V2000
    2.3566   -0.4235    1.5170 C   0  0  0  0  0  0  0  0  0  0  0  0
    0.8608   -0.2921    1.4852 C   0  0  0  0  0  0  0  0  0  0  0  0
    0.2556    0.9067    1.8736 C   0  0  0  0  0  0  0  0  0  0  0  0
   -1.1242    1.0362    1.8544 C   0  0  0  0  0  0  0  0  0  0  0  0
   -1.9177   -0.0381    1.4442 C   0  0  0  0  0  0  0  0  0  0  0  0
   -1.3462   -1.2428    1.0275 C   0  0  0  0  0  0  0  0  0  0  0  0
   -2.1163   -2.3595    0.5961 N   0  0  0  0  0  0  0  0  0  0  0  0
   -3.4773   -2.3464    0.3429 C   0  0  0  0  0  0  0  0  0  0  0  0
   -4.1754   -1.3381    0.3388 O   0  0  0  0  0  0  0  0  0  0  0  0
   -3.9942   -3.6238    0.1312 N   0  0  0  0  0  0  0  0  0  0  0  0
   -5.3832   -3.7912   -0.1139 C   0  0  0  0  0  0  0  0  0  0  0  0
   -6.0728   -2.9497   -0.9868 C   0  0  0  0  0  0  0  0  0  0  0  0
   -7.4650   -3.0255   -1.0997 C   0  0  0  0  0  0  0  0  0  0  0  0
   -8.2177   -3.9321   -0.3302 C   0  0  0  0  0  0  0  0  0  0  0  0
   -9.6980   -3.8435   -0.2964 C   0  0  0  0  0  0  0  0  0  0  0  0
  -10.5519   -4.9668   -0.2854 C   0  0  0  0  0  0  0  0  0  0  0  0
  -11.9694   -4.8474   -0.2361 C   0  0  0  0  0  0  0  0  0  0  0  0
  -12.5205   -3.5651   -0.0299 C   0  0  0  0  0  0  0  0  0  0  0  0
  -13.7777   -2.9242    0.2084 C   0  0  0  0  0  0  0  0  0  0  0  0
  -14.8342   -2.4461   -0.7306 C   0  0  0  0  0  0  0  0  0  0  0  0
  -14.8374   -2.2935   -2.0946 C   0  0  0  0  0  0  0  0  0  0  0  0
  -15.7992   -1.3709   -2.4413 N   0  0  0  0  0  0  0  0  0  0  0  0
  -16.4053   -0.9603   -1.3339 N   0  0  0  0  0  0  0  0  0  0  0  0
  -15.8522   -1.6291   -0.3117 N   0  0  0  0  0  0  0  0  0  0  0  0
  -13.5809   -1.9854    1.1564 N   0  0  0  0  0  0  0  0  0  0  0  0
  -12.3533   -1.5487    0.8084 N   0  0  0  0  0  0  0  0  0  0  0  0
  -11.6296   -2.5188    0.1606 C   0  0  0  0  0  0  0  0  0  0  0  0
  -10.2737   -2.5715   -0.1382 C   0  0  0  0  0  0  0  0  0  0  0  0
   -7.5012   -4.8155    0.4957 C   0  0  0  0  0  0  0  0  0  0  0  0
   -6.0972   -4.7669    0.5846 C   0  0  0  0  0  0  0  0  0  0  0  0
    0.0498   -1.3684    1.0661 C   0  0  0  0  0  0  0  0  0  0  0  0
    2.8311    0.5018    1.8665 H   0  0  0  0  0  0  0  0  0  0  0  0
    2.7447   -0.6346    0.5157 H   0  0  0  0  0  0  0  0  0  0  0  0
    2.6523   -1.2258    2.2005 H   0  0  0  0  0  0  0  0  0  0  0  0
    0.8540    1.7570    2.1997 H   0  0  0  0  0  0  0  0  0  0  0  0
   -1.5960    1.9670    2.1488 H   0  0  0  0  0  0  0  0  0  0  0  0
   -2.9897    0.1156    1.4544 H   0  0  0  0  0  0  0  0  0  0  0  0
   -1.6108   -3.1841    0.3012 H   0  0  0  0  0  0  0  0  0  0  0  0
   -3.5422   -4.3510    0.6664 H   0  0  0  0  0  0  0  0  0  0  0  0
   -5.5408   -2.1933   -1.5609 H   0  0  0  0  0  0  0  0  0  0  0  0
   -7.9603   -2.3184   -1.7625 H   0  0  0  0  0  0  0  0  0  0  0  0
  -10.1172   -5.9669   -0.2864 H   0  0  0  0  0  0  0  0  0  0  0  0
  -12.5849   -5.7435   -0.1811 H   0  0  0  0  0  0  0  0  0  0  0  0
  -14.1438   -2.6623   -2.8344 H   0  0  0  0  0  0  0  0  0  0  0  0
  -16.0802   -1.3767    0.6433 H   0  0  0  0  0  0  0  0  0  0  0  0
  -12.0357   -0.6546    1.1453 H   0  0  0  0  0  0  0  0  0  0  0  0
   -9.6629   -1.6759   -0.0778 H   0  0  0  0  0  0  0  0  0  0  0  0
   -8.0373   -5.5057    1.1456 H   0  0  0  0  0  0  0  0  0  0  0  0
   -5.5953   -5.4284    1.2854 H   0  0  0  0  0  0  0  0  0  0  0  0
    0.5293   -2.2922    0.7575 H   0  0  0  0  0  0  0  0  0  0  0  0
  1  2  1  0  0  0  0
  1 32  1  0  0  0  0
  1 33  1  0  0  0  0
  1 34  1  0  0  0  0
  2  3  1  0  0  0  0
  2 31  2  0  0  0  0
  3  4  2  0  0  0  0
  3 35  1  0  0  0  0
  4  5  1  0  0  0  0
  4 36  1  0  0  0  0
  5  6  2  0  0  0  0
  5 37  1  0  0  0  0
  6  7  1  0  0  0  0
  6 31  1  0  0  0  0
  7  8  1  0  0  0  0
  7 38  1  0  0  0  0
  8  9  2  0  0  0  0
  8 10  1  0  0  0  0
 10 11  1  0  0  0  0
 10 39  1  0  0  0  0
 11 12  1  0  0  0  0
 11 30  2  0  0  0  0
 12 13  2  0  0  0  0
 12 40  1  0  0  0  0
 13 14  1  0  0  0  0
 13 41  1  0  0  0  0
 14 15  1  0  0  0  0
 14 29  2  0  0  0  0
 15 16  1  0  0  0  0
 15 28  2  0  0  0  0
 16 17  2  0  0  0  0
 16 42  1  0  0  0  0
 17 18  1  0  0  0  0
 17 43  1  0  0  0  0
 18 19  1  0  0  0  0
 18 27  2  0  0  0  0
 19 20  1  0  0  0  0
 19 25  2  0  0  0  0
 20 21  2  0  0  0  0
 20 24  1  0  0  0  0
 21 22  1  0  0  0  0
 21 44  1  0  0  0  0
 22 23  2  0  0  0  0
 23 24  1  0  0  0  0
 24 45  1  0  0  0  0
 25 26  1  0  0  0  0
 26 27  1  0  0  0  0
 26 46  1  0  0  0  0
 27 28  1  0  0  0  0
 28 47  1  0  0  0  0
 29 30  1  0  0  0  0
 29 48  1  0  0  0  0
 30 49  1  0  0  0  0
 31 50  1  0  0  0  0
M  END
$$$$
