CHEMBL3946590
 OpenBabel04072215373D

 53 57  0  0  1  0  0  0  0  0999 V2000
    3.8573    1.3145   -0.2213 C   0  0  0  0  0  0  0  0  0  0  0  0
    2.9830    0.2219   -0.5032 O   0  0  0  0  0  0  0  0  0  0  0  0
    3.4163   -1.0183   -0.1227 C   0  0  0  0  0  0  0  0  0  0  0  0
    4.4859   -1.1916    0.7581 C   0  0  0  0  0  0  0  0  0  0  0  0
    5.0121   -2.4614    1.0610 C   0  0  0  0  0  0  0  0  0  0  0  0
    6.0891   -2.6485    1.9452 C   0  0  0  0  0  0  0  0  0  0  0  0
    6.5266   -1.5225    2.7095 N   0  0  0  0  0  0  0  0  0  0  0  0
    7.7194   -1.4583    3.4636 C   0  0  0  0  0  0  0  0  0  0  0  0
    8.9525   -1.7924    2.8986 C   0  0  0  0  0  0  0  0  0  0  0  0
   10.1202   -1.7498    3.6671 C   0  0  0  0  0  0  0  0  0  0  0  0
   11.6019   -2.1663    2.8831 Cl  0  0  0  0  0  0  0  0  0  0  0  0
   10.0564   -1.3754    5.0160 C   0  0  0  0  0  0  0  0  0  0  0  0
   11.5720   -1.4053    6.1591 Br  0  0  0  0  0  0  0  0  0  0  0  0
    8.8389   -0.9808    5.5738 C   0  0  0  0  0  0  0  0  0  0  0  0
    7.6915   -1.0090    4.7902 C   0  0  0  0  0  0  0  0  0  0  0  0
    6.5246   -0.6197    5.3278 F   0  0  0  0  0  0  0  0  0  0  0  0
    6.6609   -3.8489    2.1232 N   0  0  0  0  0  0  0  0  0  0  0  0
    6.1087   -4.8661    1.4495 C   0  0  0  0  0  0  0  0  0  0  0  0
    5.0341   -4.8063    0.6385 N   0  0  0  0  0  0  0  0  0  0  0  0
    4.4901   -3.5962    0.4451 C   0  0  0  0  0  0  0  0  0  0  0  0
    3.3823   -3.4206   -0.3903 C   0  0  0  0  0  0  0  0  0  0  0  0
    2.8093   -2.1562   -0.6572 C   0  0  0  0  0  0  0  0  0  0  0  0
    1.7737   -2.1852   -1.5519 O   0  0  0  0  0  0  0  0  0  0  0  0
    0.6146   -1.3523   -1.3749 C   0  0  2  0  0  0  0  0  0  0  0  0
    0.6280   -0.1459   -2.3037 C   0  0  0  0  0  0  0  0  0  0  0  0
    0.0954    0.9794   -1.4626 C   0  0  1  0  0  0  0  0  0  0  0  0
   -1.2270    1.3775   -1.8570 O   0  0  0  0  0  0  0  0  0  0  0  0
   -1.8678    1.7879   -0.6404 C   0  0  0  0  0  0  0  0  0  0  0  0
   -1.4326    0.7580    0.3909 C   0  0  2  0  0  0  0  0  0  0  0  0
   -1.5333    1.3142    1.7026 O   0  0  0  0  0  0  0  0  0  0  0  0
   -1.2121    0.3704    2.7179 C   0  0  0  0  0  0  0  0  0  0  0  0
    0.0044    0.4585   -0.0401 C   0  0  1  0  0  0  0  0  0  0  0  0
    0.2909   -0.9485   -0.0376 O   0  0  0  0  0  0  0  0  0  0  0  0
    3.3932    2.2285   -0.5970 H   0  0  0  0  0  0  0  0  0  0  0  0
    4.8181    1.1821   -0.7323 H   0  0  0  0  0  0  0  0  0  0  0  0
    4.0001    1.4510    0.8571 H   0  0  0  0  0  0  0  0  0  0  0  0
    4.9880   -0.3362    1.1951 H   0  0  0  0  0  0  0  0  0  0  0  0
    5.7373   -1.2249    3.2852 H   0  0  0  0  0  0  0  0  0  0  0  0
    8.9983   -2.0866    1.8526 H   0  0  0  0  0  0  0  0  0  0  0  0
    8.7647   -0.6638    6.6094 H   0  0  0  0  0  0  0  0  0  0  0  0
    6.5665   -5.8428    1.5844 H   0  0  0  0  0  0  0  0  0  0  0  0
    2.9553   -4.3020   -0.8651 H   0  0  0  0  0  0  0  0  0  0  0  0
   -0.2230   -1.9879   -1.6881 H   0  0  0  0  0  0  0  0  0  0  0  0
    0.0190   -0.3289   -3.1966 H   0  0  0  0  0  0  0  0  0  0  0  0
    1.6408    0.0677   -2.6597 H   0  0  0  0  0  0  0  0  0  0  0  0
    0.7284    1.8712   -1.5250 H   0  0  0  0  0  0  0  0  0  0  0  0
   -2.9530    1.8205   -0.7770 H   0  0  0  0  0  0  0  0  0  0  0  0
   -1.5339    2.8010   -0.3796 H   0  0  0  0  0  0  0  0  0  0  0  0
   -2.0726   -0.1304    0.3147 H   0  0  0  0  0  0  0  0  0  0  0  0
   -1.3660    0.8495    3.6886 H   0  0  0  0  0  0  0  0  0  0  0  0
   -0.1636    0.0674    2.6504 H   0  0  0  0  0  0  0  0  0  0  0  0
   -1.8651   -0.5044    2.6514 H   0  0  0  0  0  0  0  0  0  0  0  0
    0.7359    0.9412    0.6137 H   0  0  0  0  0  0  0  0  0  0  0  0
  1  2  1  0  0  0  0
  1 34  1  0  0  0  0
  1 35  1  0  0  0  0
  1 36  1  0  0  0  0
  2  3  1  0  0  0  0
  3  4  1  0  0  0  0
  3 22  2  0  0  0  0
  4  5  2  0  0  0  0
  4 37  1  0  0  0  0
  5  6  1  0  0  0  0
  5 20  1  0  0  0  0
  6  7  1  0  0  0  0
  6 17  2  0  0  0  0
  7  8  1  0  0  0  0
  7 38  1  0  0  0  0
  8  9  1  0  0  0  0
  8 15  2  0  0  0  0
  9 10  2  0  0  0  0
  9 39  1  0  0  0  0
 10 11  1  0  0  0  0
 10 12  1  0  0  0  0
 12 13  1  0  0  0  0
 12 14  2  0  0  0  0
 14 15  1  0  0  0  0
 14 40  1  0  0  0  0
 15 16  1  0  0  0  0
 17 18  1  0  0  0  0
 18 19  2  0  0  0  0
 18 41  1  0  0  0  0
 19 20  1  0  0  0  0
 20 21  2  0  0  0  0
 21 22  1  0  0  0  0
 21 42  1  0  0  0  0
 22 23  1  0  0  0  0
 23 24  1  0  0  0  0
 24 25  1  0  0  0  0
 24 33  1  0  0  0  0
 24 43  1  6  0  0  0
 25 26  1  0  0  0  0
 25 44  1  0  0  0  0
 25 45  1  0  0  0  0
 26 27  1  0  0  0  0
 26 32  1  0  0  0  0
 26 46  1  6  0  0  0
 27 28  1  0  0  0  0
 28 29  1  0  0  0  0
 28 47  1  0  0  0  0
 28 48  1  0  0  0  0
 29 30  1  0  0  0  0
 29 32  1  0  0  0  0
 29 49  1  6  0  0  0
 30 31  1  0  0  0  0
 31 50  1  0  0  0  0
 31 51  1  0  0  0  0
 31 52  1  0  0  0  0
 32 33  1  0  0  0  0
 32 53  1  1  0  0  0
M  END
$$$$
