CHEMBL3633277
 OpenBabel04072215373D

 73 76  0  0  0  0  0  0  0  0999 V2000
    6.3256    0.9744   10.5910 C   0  0  0  0  0  0  0  0  0  0  0  0
    6.9466    0.4162    9.3159 C   0  0  0  0  0  0  0  0  0  0  0  0
    5.9713   -0.0735    8.3205 N   0  0  0  0  0  0  0  0  0  0  0  0
    4.9722    0.9291    7.9221 C   0  0  0  0  0  0  0  0  0  0  0  0
    5.4927    2.1353    7.1453 C   0  0  0  0  0  0  0  0  0  0  0  0
    6.7081   -0.6413    7.1793 C   0  0  0  0  0  0  0  0  0  0  0  0
    5.8822   -1.2898    6.0468 C   0  0  0  0  0  0  0  0  0  0  0  0
    6.8146   -1.7430    5.0630 O   0  0  0  0  0  0  0  0  0  0  0  0
    7.2035   -0.7709    4.1804 C   0  0  0  0  0  0  0  0  0  0  0  0
    6.4809    0.1089    3.7272 O   0  0  0  0  0  0  0  0  0  0  0  0
    8.6676   -0.7931    4.0229 C   0  0  0  0  0  0  0  0  0  0  0  0
    9.2660    0.1709    3.1851 C   0  0  0  0  0  0  0  0  0  0  0  0
   10.6531    0.2998    3.1378 C   0  0  0  0  0  0  0  0  0  0  0  0
   11.4661   -0.4888    3.9475 C   0  0  0  0  0  0  0  0  0  0  0  0
   12.8391   -0.4376    3.9914 O   0  0  0  0  0  0  0  0  0  0  0  0
   13.4745    0.4592    3.0881 C   0  0  0  0  0  0  0  0  0  0  0  0
   10.8750   -1.4530    4.7826 C   0  0  0  0  0  0  0  0  0  0  0  0
   11.6971   -2.1847    5.6647 N   0  0  0  0  0  0  0  0  0  0  0  0
   11.5316   -3.5395    5.8856 C   0  0  0  0  0  0  0  0  0  0  0  0
   10.7737   -4.2651    5.2488 O   0  0  0  0  0  0  0  0  0  0  0  0
   12.3224   -3.9622    6.9356 N   0  0  0  0  0  0  0  0  0  0  0  0
   12.4394   -5.3256    7.2759 C   0  0  0  0  0  0  0  0  0  0  0  0
   12.9184   -6.2004    6.2804 C   0  0  0  0  0  0  0  0  0  0  0  0
   13.1444   -7.5682    6.5209 C   0  0  0  0  0  0  0  0  0  0  0  0
   13.7430   -8.4585    5.4976 C   0  0  0  0  0  0  0  0  0  0  0  0
   13.4477   -9.8364    5.4633 C   0  0  0  0  0  0  0  0  0  0  0  0
   14.0996  -10.7299    4.6039 C   0  0  0  0  0  0  0  0  0  0  0  0
   14.9614  -10.1704    3.6618 C   0  0  0  0  0  0  0  0  0  0  0  0
   15.7971  -10.7409    2.7344 N   0  0  0  0  0  0  0  0  0  0  0  0
   16.0067   -9.8388    1.7258 C   0  0  0  0  0  0  0  0  0  0  0  0
   15.8151   -8.5966    2.2900 C   0  0  0  0  0  0  0  0  0  0  0  0
   15.1507   -8.7997    3.5314 C   0  0  0  0  0  0  0  0  0  0  0  0
   14.6291   -7.9516    4.5232 C   0  0  0  0  0  0  0  0  0  0  0  0
   12.8053   -8.0492    7.7925 C   0  0  0  0  0  0  0  0  0  0  0  0
   12.3006   -7.1996    8.7783 C   0  0  0  0  0  0  0  0  0  0  0  0
   12.1506   -5.8274    8.5503 C   0  0  0  0  0  0  0  0  0  0  0  0
   11.5356   -5.1911    9.5850 O   0  0  0  0  0  0  0  0  0  0  0  0
   11.9372   -3.9018    9.9958 C   0  0  0  0  0  0  0  0  0  0  0  0
   12.9442   -3.3766    9.2663 F   0  0  0  0  0  0  0  0  0  0  0  0
   10.8792   -3.0668    9.9100 F   0  0  0  0  0  0  0  0  0  0  0  0
   12.3352   -3.9524   11.2844 F   0  0  0  0  0  0  0  0  0  0  0  0
    9.4900   -1.6178    4.8051 C   0  0  0  0  0  0  0  0  0  0  0  0
    7.1009    1.1149   11.3517 H   0  0  0  0  0  0  0  0  0  0  0  0
    5.5740    0.2917   10.9996 H   0  0  0  0  0  0  0  0  0  0  0  0
    5.8599    1.9495   10.4175 H   0  0  0  0  0  0  0  0  0  0  0  0
    7.5867   -0.4240    9.6157 H   0  0  0  0  0  0  0  0  0  0  0  0
    7.6131    1.1732    8.8837 H   0  0  0  0  0  0  0  0  0  0  0  0
    4.4341    1.2814    8.8089 H   0  0  0  0  0  0  0  0  0  0  0  0
    4.1922    0.4395    7.3267 H   0  0  0  0  0  0  0  0  0  0  0  0
    6.3491    2.6062    7.6357 H   0  0  0  0  0  0  0  0  0  0  0  0
    4.7040    2.8906    7.0670 H   0  0  0  0  0  0  0  0  0  0  0  0
    5.7862    1.8591    6.1277 H   0  0  0  0  0  0  0  0  0  0  0  0
    7.3828   -1.4256    7.5516 H   0  0  0  0  0  0  0  0  0  0  0  0
    7.3744    0.1165    6.7467 H   0  0  0  0  0  0  0  0  0  0  0  0
    5.1458   -0.6055    5.6101 H   0  0  0  0  0  0  0  0  0  0  0  0
    5.3423   -2.1654    6.4231 H   0  0  0  0  0  0  0  0  0  0  0  0
    8.6359    0.8235    2.5928 H   0  0  0  0  0  0  0  0  0  0  0  0
   11.0606    1.0579    2.4720 H   0  0  0  0  0  0  0  0  0  0  0  0
   14.5555    0.3255    3.1922 H   0  0  0  0  0  0  0  0  0  0  0  0
   13.2357    1.4946    3.3501 H   0  0  0  0  0  0  0  0  0  0  0  0
   13.2128    0.2411    2.0474 H   0  0  0  0  0  0  0  0  0  0  0  0
   12.6617   -1.8684    5.7065 H   0  0  0  0  0  0  0  0  0  0  0  0
   12.3861   -3.2787    7.6757 H   0  0  0  0  0  0  0  0  0  0  0  0
   13.1352   -5.7882    5.2955 H   0  0  0  0  0  0  0  0  0  0  0  0
   12.6881  -10.2476    6.1260 H   0  0  0  0  0  0  0  0  0  0  0  0
   13.8819  -11.7921    4.6275 H   0  0  0  0  0  0  0  0  0  0  0  0
   16.1868  -11.6724    2.7891 H   0  0  0  0  0  0  0  0  0  0  0  0
   16.3519  -10.1509    0.7501 H   0  0  0  0  0  0  0  0  0  0  0  0
   16.0238   -7.6457    1.8180 H   0  0  0  0  0  0  0  0  0  0  0  0
   14.8941   -6.8999    4.4906 H   0  0  0  0  0  0  0  0  0  0  0  0
   12.9335   -9.1000    8.0435 H   0  0  0  0  0  0  0  0  0  0  0  0
   12.0150   -7.6253    9.7381 H   0  0  0  0  0  0  0  0  0  0  0  0
    9.0474   -2.3446    5.4811 H   0  0  0  0  0  0  0  0  0  0  0  0
  1  2  1  0  0  0  0
  1 43  1  0  0  0  0
  1 44  1  0  0  0  0
  1 45  1  0  0  0  0
  2  3  1  0  0  0  0
  2 46  1  0  0  0  0
  2 47  1  0  0  0  0
  3  4  1  0  0  0  0
  3  6  1  0  0  0  0
  4  5  1  0  0  0  0
  4 48  1  0  0  0  0
  4 49  1  0  0  0  0
  5 50  1  0  0  0  0
  5 51  1  0  0  0  0
  5 52  1  0  0  0  0
  6  7  1  0  0  0  0
  6 53  1  0  0  0  0
  6 54  1  0  0  0  0
  7  8  1  0  0  0  0
  7 55  1  0  0  0  0
  7 56  1  0  0  0  0
  8  9  1  0  0  0  0
  9 10  2  0  0  0  0
  9 11  1  0  0  0  0
 11 12  1  0  0  0  0
 11 42  2  0  0  0  0
 12 13  2  0  0  0  0
 12 57  1  0  0  0  0
 13 14  1  0  0  0  0
 13 58  1  0  0  0  0
 14 15  1  0  0  0  0
 14 17  2  0  0  0  0
 15 16  1  0  0  0  0
 16 59  1  0  0  0  0
 16 60  1  0  0  0  0
 16 61  1  0  0  0  0
 17 18  1  0  0  0  0
 17 42  1  0  0  0  0
 18 19  1  0  0  0  0
 18 62  1  0  0  0  0
 19 20  2  0  0  0  0
 19 21  1  0  0  0  0
 21 22  1  0  0  0  0
 21 63  1  0  0  0  0
 22 23  1  0  0  0  0
 22 36  2  0  0  0  0
 23 24  2  0  0  0  0
 23 64  1  0  0  0  0
 24 25  1  0  0  0  0
 24 34  1  0  0  0  0
 25 26  1  0  0  0  0
 25 33  2  0  0  0  0
 26 27  2  0  0  0  0
 26 65  1  0  0  0  0
 27 28  1  0  0  0  0
 27 66  1  0  0  0  0
 28 29  1  0  0  0  0
 28 32  2  0  0  0  0
 29 30  1  0  0  0  0
 29 67  1  0  0  0  0
 30 31  2  0  0  0  0
 30 68  1  0  0  0  0
 31 32  1  0  0  0  0
 31 69  1  0  0  0  0
 32 33  1  0  0  0  0
 33 70  1  0  0  0  0
 34 35  2  0  0  0  0
 34 71  1  0  0  0  0
 35 36  1  0  0  0  0
 35 72  1  0  0  0  0
 36 37  1  0  0  0  0
 37 38  1  0  0  0  0
 38 39  1  0  0  0  0
 38 40  1  0  0  0  0
 38 41  1  0  0  0  0
 42 73  1  0  0  0  0
M  END
$$$$
