CHEMBL3953937
 OpenBabel04072215373D

 52 55  0  0  1  0  0  0  0  0999 V2000
    2.7962    0.4504   -0.9162 C   0  0  0  0  0  0  0  0  0  0  0  0
    2.5670   -0.4628    0.1611 O   0  0  0  0  0  0  0  0  0  0  0  0
    3.3130   -0.2836    1.2953 C   0  0  0  0  0  0  0  0  0  0  0  0
    4.4359    0.5522    1.3522 C   0  0  0  0  0  0  0  0  0  0  0  0
    5.0897    0.8268    2.5781 C   0  0  0  0  0  0  0  0  0  0  0  0
    6.0464    1.8328    2.7864 C   0  0  0  0  0  0  0  0  0  0  0  0
    6.3625    2.7324    1.7354 N   0  0  0  0  0  0  0  0  0  0  0  0
    7.0182    3.9727    1.9311 C   0  0  0  0  0  0  0  0  0  0  0  0
    6.6398    4.8392    2.9687 C   0  0  0  0  0  0  0  0  0  0  0  0
    7.3452    6.0188    3.2114 C   0  0  0  0  0  0  0  0  0  0  0  0
    8.4310    6.3558    2.4052 C   0  0  0  0  0  0  0  0  0  0  0  0
    8.7871    5.5280    1.3391 C   0  0  0  0  0  0  0  0  0  0  0  0
   10.1254    5.9619    0.3472 Cl  0  0  0  0  0  0  0  0  0  0  0  0
    8.0755    4.3532    1.0977 C   0  0  0  0  0  0  0  0  0  0  0  0
    8.4154    3.5470    0.0765 F   0  0  0  0  0  0  0  0  0  0  0  0
    6.6140    2.0375    3.9914 N   0  0  0  0  0  0  0  0  0  0  0  0
    6.2191    1.2510    4.9923 C   0  0  0  0  0  0  0  0  0  0  0  0
    5.2935    0.2963    4.9147 N   0  0  0  0  0  0  0  0  0  0  0  0
    4.7256    0.1166    3.7194 C   0  0  0  0  0  0  0  0  0  0  0  0
    3.6817   -0.7866    3.6320 C   0  0  0  0  0  0  0  0  0  0  0  0
    2.9043   -0.9358    2.4686 C   0  0  0  0  0  0  0  0  0  0  0  0
    1.7235   -1.6773    2.4648 O   0  0  0  0  0  0  0  0  0  0  0  0
    1.1442   -1.8015    3.7754 C   0  0  0  0  0  0  0  0  0  0  0  0
   -0.3675   -2.0815    3.8196 C   0  0  3  0  0  0  0  0  0  0  0  0
   -1.2089   -1.1192    2.9721 C   0  0  0  0  0  0  0  0  0  0  0  0
   -1.0510    0.2660    3.4513 N   0  0  0  0  0  0  0  0  0  0  0  0
   -1.8219    1.1853    2.6192 C   0  0  0  0  0  0  0  0  0  0  0  0
   -1.4660    0.3474    4.8643 C   0  0  0  0  0  0  0  0  0  0  0  0
   -0.8095   -0.7297    5.7608 C   0  0  0  0  0  0  0  0  0  0  0  0
   -0.8532   -2.0498    5.1884 O   0  0  0  0  0  0  0  0  0  0  0  0
    3.6135    0.0777   -1.5485 H   0  0  0  0  0  0  0  0  0  0  0  0
    3.0031    1.4711   -0.5799 H   0  0  0  0  0  0  0  0  0  0  0  0
    1.8895    0.4946   -1.5195 H   0  0  0  0  0  0  0  0  0  0  0  0
    4.8020    1.0456    0.4603 H   0  0  0  0  0  0  0  0  0  0  0  0
    6.7352    2.2280    0.9346 H   0  0  0  0  0  0  0  0  0  0  0  0
    5.7973    4.5840    3.6104 H   0  0  0  0  0  0  0  0  0  0  0  0
    7.0548    6.6590    4.0405 H   0  0  0  0  0  0  0  0  0  0  0  0
    8.9953    7.2603    2.6164 H   0  0  0  0  0  0  0  0  0  0  0  0
    6.6774    1.4198    5.9603 H   0  0  0  0  0  0  0  0  0  0  0  0
    3.4352   -1.3192    4.5479 H   0  0  0  0  0  0  0  0  0  0  0  0
    1.3209   -0.8795    4.3357 H   0  0  0  0  0  0  0  0  0  0  0  0
    1.6489   -2.6186    4.3062 H   0  0  0  0  0  0  0  0  0  0  0  0
   -0.5437   -3.0998    3.4515 H   0  0  0  0  0  0  0  0  0  0  0  0
   -2.2653   -1.4155    3.0435 H   0  0  0  0  0  0  0  0  0  0  0  0
   -0.9127   -1.2040    1.9216 H   0  0  0  0  0  0  0  0  0  0  0  0
   -1.5546    1.0685    1.5626 H   0  0  0  0  0  0  0  0  0  0  0  0
   -1.5933    2.2205    2.8892 H   0  0  0  0  0  0  0  0  0  0  0  0
   -2.9023    1.0290    2.7149 H   0  0  0  0  0  0  0  0  0  0  0  0
   -2.5540    0.2337    4.9419 H   0  0  0  0  0  0  0  0  0  0  0  0
   -1.2072    1.3346    5.2629 H   0  0  0  0  0  0  0  0  0  0  0  0
   -1.3382   -0.7692    6.7159 H   0  0  0  0  0  0  0  0  0  0  0  0
    0.2236   -0.4625    5.9970 H   0  0  0  0  0  0  0  0  0  0  0  0
  1  2  1  0  0  0  0
  1 31  1  0  0  0  0
  1 32  1  0  0  0  0
  1 33  1  0  0  0  0
  2  3  1  0  0  0  0
  3  4  1  0  0  0  0
  3 21  2  0  0  0  0
  4  5  2  0  0  0  0
  4 34  1  0  0  0  0
  5  6  1  0  0  0  0
  5 19  1  0  0  0  0
  6  7  1  0  0  0  0
  6 16  2  0  0  0  0
  7  8  1  0  0  0  0
  7 35  1  0  0  0  0
  8  9  1  0  0  0  0
  8 14  2  0  0  0  0
  9 10  2  0  0  0  0
  9 36  1  0  0  0  0
 10 11  1  0  0  0  0
 10 37  1  0  0  0  0
 11 12  2  0  0  0  0
 11 38  1  0  0  0  0
 12 13  1  0  0  0  0
 12 14  1  0  0  0  0
 14 15  1  0  0  0  0
 16 17  1  0  0  0  0
 17 18  2  0  0  0  0
 17 39  1  0  0  0  0
 18 19  1  0  0  0  0
 19 20  2  0  0  0  0
 20 21  1  0  0  0  0
 20 40  1  0  0  0  0
 21 22  1  0  0  0  0
 22 23  1  0  0  0  0
 23 24  1  0  0  0  0
 23 41  1  0  0  0  0
 23 42  1  0  0  0  0
 24 25  1  0  0  0  0
 24 30  1  0  0  0  0
 24 43  1  0  0  0  0
 25 26  1  0  0  0  0
 25 44  1  0  0  0  0
 25 45  1  0  0  0  0
 26 27  1  0  0  0  0
 26 28  1  0  0  0  0
 27 46  1  0  0  0  0
 27 47  1  0  0  0  0
 27 48  1  0  0  0  0
 28 29  1  0  0  0  0
 28 49  1  0  0  0  0
 28 50  1  0  0  0  0
 29 30  1  0  0  0  0
 29 51  1  0  0  0  0
 29 52  1  0  0  0  0
M  END
$$$$
