CHEMBL3696097
 OpenBabel04072215373D

 65 68  0  0  0  0  0  0  0  0999 V2000
    3.3175    5.9899   -1.1588 C   0  0  0  0  0  0  0  0  0  0  0  0
    1.8723    6.2449   -1.4700 C   0  0  0  0  0  0  0  0  0  0  0  0
    1.4769    7.4711   -2.0170 C   0  0  0  0  0  0  0  0  0  0  0  0
    0.1440    7.6910   -2.3376 C   0  0  0  0  0  0  0  0  0  0  0  0
   -0.8046    6.7028   -2.0930 C   0  0  0  0  0  0  0  0  0  0  0  0
   -2.0384    6.9379   -2.5568 F   0  0  0  0  0  0  0  0  0  0  0  0
   -0.4526    5.4892   -1.4820 C   0  0  0  0  0  0  0  0  0  0  0  0
   -1.3690    4.4737   -1.1125 N   0  0  0  0  0  0  0  0  0  0  0  0
   -2.7214    4.6635   -0.9053 C   0  0  0  0  0  0  0  0  0  0  0  0
   -3.3113    5.7330   -0.9795 O   0  0  0  0  0  0  0  0  0  0  0  0
   -3.3568    3.4894   -0.5119 N   0  0  0  0  0  0  0  0  0  0  0  0
   -4.7628    3.5027   -0.3714 C   0  0  0  0  0  0  0  0  0  0  0  0
   -5.5626    4.0212   -1.3903 C   0  0  0  0  0  0  0  0  0  0  0  0
   -6.9329    4.1672   -1.1986 C   0  0  0  0  0  0  0  0  0  0  0  0
   -7.5361    3.7675    0.0032 C   0  0  0  0  0  0  0  0  0  0  0  0
   -8.9831    3.9236    0.1990 C   0  0  0  0  0  0  0  0  0  0  0  0
  -10.0083    3.5108   -1.1178 S   0  0  0  0  0  0  0  0  0  0  0  0
  -11.4181    3.7319   -0.3305 N   0  0  0  0  0  0  0  0  0  0  0  0
  -11.1845    4.0877    0.9252 C   0  0  0  0  0  0  0  0  0  0  0  0
  -12.2196    4.2365    1.8074 N   0  0  0  0  0  0  0  0  0  0  0  0
  -13.4852    3.5944    1.4973 C   0  0  0  0  0  0  0  0  0  0  0  0
  -14.2947    3.2243    2.7350 C   0  0  0  0  0  0  0  0  0  0  0  0
  -14.8590    4.4596    3.4353 C   0  0  0  0  0  0  0  0  0  0  0  0
  -15.6648    4.1335    4.6241 N   0  0  0  0  0  0  0  0  0  0  0  0
  -16.9233    3.4126    4.3263 C   0  0  0  0  0  0  0  0  0  0  0  0
  -18.0059    4.2754    3.6555 C   0  0  0  0  0  0  0  0  0  0  0  0
  -18.2871    5.4588    4.4137 O   0  0  0  0  0  0  0  0  0  0  0  0
  -17.0934    6.2172    4.6448 C   0  0  0  0  0  0  0  0  0  0  0  0
  -16.0236    5.3713    5.3573 C   0  0  0  0  0  0  0  0  0  0  0  0
   -9.7864    4.2945    1.2855 C   0  0  0  0  0  0  0  0  0  0  0  0
   -9.3360    4.7422    2.5984 C   0  0  0  0  0  0  0  0  0  0  0  0
   -8.1124    5.3484    2.6826 N   0  0  0  0  0  0  0  0  0  0  0  0
  -10.0157    4.6243    3.6168 O   0  0  0  0  0  0  0  0  0  0  0  0
   -6.7275    3.1863    0.9931 C   0  0  0  0  0  0  0  0  0  0  0  0
   -5.3465    3.0525    0.8097 C   0  0  0  0  0  0  0  0  0  0  0  0
    0.9039    5.2583   -1.2101 C   0  0  0  0  0  0  0  0  0  0  0  0
    3.9402    6.8513   -1.4238 H   0  0  0  0  0  0  0  0  0  0  0  0
    3.6796    5.1289   -1.7296 H   0  0  0  0  0  0  0  0  0  0  0  0
    3.4470    5.7992   -0.0889 H   0  0  0  0  0  0  0  0  0  0  0  0
    2.2055    8.2534   -2.2157 H   0  0  0  0  0  0  0  0  0  0  0  0
   -0.1736    8.6244   -2.7965 H   0  0  0  0  0  0  0  0  0  0  0  0
   -0.9897    3.5827   -0.8356 H   0  0  0  0  0  0  0  0  0  0  0  0
   -2.8472    2.9525    0.1735 H   0  0  0  0  0  0  0  0  0  0  0  0
   -5.1230    4.3444   -2.3321 H   0  0  0  0  0  0  0  0  0  0  0  0
   -7.5118    4.6125   -2.0055 H   0  0  0  0  0  0  0  0  0  0  0  0
  -12.0249    4.4929    2.7752 H   0  0  0  0  0  0  0  0  0  0  0  0
  -13.3156    2.6562    0.9520 H   0  0  0  0  0  0  0  0  0  0  0  0
  -14.0705    4.2483    0.8404 H   0  0  0  0  0  0  0  0  0  0  0  0
  -13.6875    2.6294    3.4281 H   0  0  0  0  0  0  0  0  0  0  0  0
  -15.1148    2.5836    2.3924 H   0  0  0  0  0  0  0  0  0  0  0  0
  -15.4212    5.0613    2.7137 H   0  0  0  0  0  0  0  0  0  0  0  0
  -14.0085    5.0702    3.7598 H   0  0  0  0  0  0  0  0  0  0  0  0
  -17.3205    3.0547    5.2861 H   0  0  0  0  0  0  0  0  0  0  0  0
  -16.7431    2.5088    3.7372 H   0  0  0  0  0  0  0  0  0  0  0  0
  -18.9378    3.7031    3.5933 H   0  0  0  0  0  0  0  0  0  0  0  0
  -17.7257    4.5562    2.6344 H   0  0  0  0  0  0  0  0  0  0  0  0
  -17.3640    7.0704    5.2759 H   0  0  0  0  0  0  0  0  0  0  0  0
  -16.7316    6.6205    3.6931 H   0  0  0  0  0  0  0  0  0  0  0  0
  -16.4109    5.0713    6.3391 H   0  0  0  0  0  0  0  0  0  0  0  0
  -15.1293    5.9743    5.5529 H   0  0  0  0  0  0  0  0  0  0  0  0
   -7.5438    5.5801    1.8808 H   0  0  0  0  0  0  0  0  0  0  0  0
   -7.7939    5.6445    3.5955 H   0  0  0  0  0  0  0  0  0  0  0  0
   -7.1597    2.8511    1.9340 H   0  0  0  0  0  0  0  0  0  0  0  0
   -4.7399    2.6630    1.6214 H   0  0  0  0  0  0  0  0  0  0  0  0
    1.2219    4.3172   -0.7658 H   0  0  0  0  0  0  0  0  0  0  0  0
  1  2  1  0  0  0  0
  1 37  1  0  0  0  0
  1 38  1  0  0  0  0
  1 39  1  0  0  0  0
  2  3  1  0  0  0  0
  2 36  2  0  0  0  0
  3  4  2  0  0  0  0
  3 40  1  0  0  0  0
  4  5  1  0  0  0  0
  4 41  1  0  0  0  0
  5  6  1  0  0  0  0
  5  7  2  0  0  0  0
  7  8  1  0  0  0  0
  7 36  1  0  0  0  0
  8  9  1  0  0  0  0
  8 42  1  0  0  0  0
  9 10  2  0  0  0  0
  9 11  1  0  0  0  0
 11 12  1  0  0  0  0
 11 43  1  0  0  0  0
 12 13  1  0  0  0  0
 12 35  2  0  0  0  0
 13 14  2  0  0  0  0
 13 44  1  0  0  0  0
 14 15  1  0  0  0  0
 14 45  1  0  0  0  0
 15 16  1  0  0  0  0
 15 34  2  0  0  0  0
 16 17  1  0  0  0  0
 16 30  2  0  0  0  0
 17 18  1  0  0  0  0
 18 19  2  0  0  0  0
 19 20  1  0  0  0  0
 19 30  1  0  0  0  0
 20 21  1  0  0  0  0
 20 46  1  0  0  0  0
 21 22  1  0  0  0  0
 21 47  1  0  0  0  0
 21 48  1  0  0  0  0
 22 23  1  0  0  0  0
 22 49  1  0  0  0  0
 22 50  1  0  0  0  0
 23 24  1  0  0  0  0
 23 51  1  0  0  0  0
 23 52  1  0  0  0  0
 24 25  1  0  0  0  0
 24 29  1  0  0  0  0
 25 26  1  0  0  0  0
 25 53  1  0  0  0  0
 25 54  1  0  0  0  0
 26 27  1  0  0  0  0
 26 55  1  0  0  0  0
 26 56  1  0  0  0  0
 27 28  1  0  0  0  0
 28 29  1  0  0  0  0
 28 57  1  0  0  0  0
 28 58  1  0  0  0  0
 29 59  1  0  0  0  0
 29 60  1  0  0  0  0
 30 31  1  0  0  0  0
 31 32  1  0  0  0  0
 31 33  2  0  0  0  0
 32 61  1  0  0  0  0
 32 62  1  0  0  0  0
 34 35  1  0  0  0  0
 34 63  1  0  0  0  0
 35 64  1  0  0  0  0
 36 65  1  0  0  0  0
M  END
$$$$
