CHEMBL3979490
 OpenBabel04072215373D

 58 62  0  0  0  0  0  0  0  0999 V2000
    0.5695   -0.6513    4.2229 C   0  0  0  0  0  0  0  0  0  0  0  0
    1.9677   -0.5280    4.4999 O   0  0  0  0  0  0  0  0  0  0  0  0
    2.8351   -0.6598    3.4441 C   0  0  0  0  0  0  0  0  0  0  0  0
    2.4574   -1.0135    2.1508 C   0  0  0  0  0  0  0  0  0  0  0  0
    3.4098   -1.0438    1.1285 C   0  0  0  0  0  0  0  0  0  0  0  0
    3.1724   -1.3398   -0.1830 O   0  0  0  0  0  0  0  0  0  0  0  0
    1.8516   -1.7338   -0.5325 C   0  0  0  0  0  0  0  0  0  0  0  0
    4.7450   -0.7151    1.4188 C   0  0  0  0  0  0  0  0  0  0  0  0
    5.1654   -0.3564    2.7037 C   0  0  0  0  0  0  0  0  0  0  0  0
    6.4400    0.2054    2.9573 N   0  0  0  0  0  0  0  0  0  0  0  0
    6.9835    1.1064    1.8619 C   0  0  0  0  0  0  0  0  0  0  0  0
    6.2234    2.2322    1.1903 C   0  0  0  0  0  0  0  0  0  0  0  0
    4.9829    2.8662    1.4601 C   0  0  0  0  0  0  0  0  0  0  0  0
    4.8212    3.7618    0.4222 C   0  0  0  0  0  0  0  0  0  0  0  0
    3.7441    4.6670   -0.0402 C   0  0  0  0  0  0  0  0  0  0  0  0
    5.9320    3.7418   -0.3559 O   0  0  0  0  0  0  0  0  0  0  0  0
    6.8118    2.8015    0.1231 N   0  0  0  0  0  0  0  0  0  0  0  0
    7.5815   -0.3633    3.6424 C   0  0  0  0  0  0  0  0  0  0  0  0
    8.3424    0.5626    4.3676 C   0  0  0  0  0  0  0  0  0  0  0  0
    9.6777    0.3462    4.6015 C   0  0  0  0  0  0  0  0  0  0  0  0
   10.2841   -0.8402    4.2739 C   0  0  0  0  0  0  0  0  0  0  0  0
   11.6164   -0.8204    4.3978 N   0  0  0  0  0  0  0  0  0  0  0  0
   12.2513   -1.9876    4.2416 C   0  0  0  0  0  0  0  0  0  0  0  0
   11.5649   -3.1679    4.0607 C   0  0  0  0  0  0  0  0  0  0  0  0
   12.3353   -4.3884    4.3039 C   0  0  0  0  0  0  0  0  0  0  0  0
   12.4208   -5.1712    5.4853 C   0  0  0  0  0  0  0  0  0  0  0  0
   13.4080   -6.0757    5.4432 N   0  0  0  0  0  0  0  0  0  0  0  0
   13.9618   -5.8743    4.2358 N   0  0  0  0  0  0  0  0  0  0  0  0
   14.8683   -6.8490    3.6747 C   0  0  0  0  0  0  0  0  0  0  0  0
   13.4688   -4.7654    3.6010 C   0  0  0  0  0  0  0  0  0  0  0  0
   10.2084   -3.1823    3.8209 N   0  0  0  0  0  0  0  0  0  0  0  0
    9.5295   -1.9586    3.8556 C   0  0  0  0  0  0  0  0  0  0  0  0
    8.1490   -1.6603    3.4870 C   0  0  0  0  0  0  0  0  0  0  0  0
    4.1862   -0.3707    3.7178 C   0  0  0  0  0  0  0  0  0  0  0  0
    0.0147   -0.3229    5.1092 H   0  0  0  0  0  0  0  0  0  0  0  0
    0.3037   -1.6984    4.0337 H   0  0  0  0  0  0  0  0  0  0  0  0
    0.2493   -0.0124    3.3930 H   0  0  0  0  0  0  0  0  0  0  0  0
    1.4240   -1.2388    1.9226 H   0  0  0  0  0  0  0  0  0  0  0  0
    1.8634   -2.0426   -1.5820 H   0  0  0  0  0  0  0  0  0  0  0  0
    1.1557   -0.8933   -0.4376 H   0  0  0  0  0  0  0  0  0  0  0  0
    1.5191   -2.5915    0.0605 H   0  0  0  0  0  0  0  0  0  0  0  0
    5.4452   -0.7050    0.5862 H   0  0  0  0  0  0  0  0  0  0  0  0
    7.3675    0.4488    1.0636 H   0  0  0  0  0  0  0  0  0  0  0  0
    7.8716    1.6322    2.2421 H   0  0  0  0  0  0  0  0  0  0  0  0
    4.2799    2.6658    2.2549 H   0  0  0  0  0  0  0  0  0  0  0  0
    3.1002    4.9760    0.7857 H   0  0  0  0  0  0  0  0  0  0  0  0
    3.1280    4.1485   -0.7840 H   0  0  0  0  0  0  0  0  0  0  0  0
    4.1554    5.5613   -0.5107 H   0  0  0  0  0  0  0  0  0  0  0  0
    7.9134    1.5473    4.6055 H   0  0  0  0  0  0  0  0  0  0  0  0
   10.2851    1.1440    5.0087 H   0  0  0  0  0  0  0  0  0  0  0  0
   13.3309   -1.9458    4.3381 H   0  0  0  0  0  0  0  0  0  0  0  0
   11.8355   -5.0939    6.3924 H   0  0  0  0  0  0  0  0  0  0  0  0
   15.0006   -7.6803    4.3728 H   0  0  0  0  0  0  0  0  0  0  0  0
   15.8290   -6.3755    3.4603 H   0  0  0  0  0  0  0  0  0  0  0  0
   14.4109   -7.2189    2.7527 H   0  0  0  0  0  0  0  0  0  0  0  0
   13.9437   -4.3766    2.7109 H   0  0  0  0  0  0  0  0  0  0  0  0
    7.5717   -2.4515    3.0121 H   0  0  0  0  0  0  0  0  0  0  0  0
    4.4574   -0.0627    4.7296 H   0  0  0  0  0  0  0  0  0  0  0  0
  1  2  1  0  0  0  0
  1 35  1  0  0  0  0
  1 36  1  0  0  0  0
  1 37  1  0  0  0  0
  2  3  1  0  0  0  0
  3  4  1  0  0  0  0
  3 34  2  0  0  0  0
  4  5  2  0  0  0  0
  4 38  1  0  0  0  0
  5  6  1  0  0  0  0
  5  8  1  0  0  0  0
  6  7  1  0  0  0  0
  7 39  1  0  0  0  0
  7 40  1  0  0  0  0
  7 41  1  0  0  0  0
  8  9  2  0  0  0  0
  8 42  1  0  0  0  0
  9 10  1  0  0  0  0
  9 34  1  0  0  0  0
 10 11  1  0  0  0  0
 10 18  1  0  0  0  0
 11 12  1  0  0  0  0
 11 43  1  0  0  0  0
 11 44  1  0  0  0  0
 12 13  1  0  0  0  0
 12 17  2  0  0  0  0
 13 14  2  0  0  0  0
 13 45  1  0  0  0  0
 14 15  1  0  0  0  0
 14 16  1  0  0  0  0
 15 46  1  0  0  0  0
 15 47  1  0  0  0  0
 15 48  1  0  0  0  0
 16 17  1  0  0  0  0
 18 19  1  0  0  0  0
 18 33  2  0  0  0  0
 19 20  2  0  0  0  0
 19 49  1  0  0  0  0
 20 21  1  0  0  0  0
 20 50  1  0  0  0  0
 21 22  1  0  0  0  0
 21 32  2  0  0  0  0
 22 23  2  0  0  0  0
 23 24  1  0  0  0  0
 23 51  1  0  0  0  0
 24 25  1  0  0  0  0
 24 31  2  0  0  0  0
 25 26  1  0  0  0  0
 25 30  2  0  0  0  0
 26 27  2  0  0  0  0
 26 52  1  0  0  0  0
 27 28  1  0  0  0  0
 28 29  1  0  0  0  0
 28 30  1  0  0  0  0
 29 53  1  0  0  0  0
 29 54  1  0  0  0  0
 29 55  1  0  0  0  0
 30 56  1  0  0  0  0
 31 32  1  0  0  0  0
 32 33  1  0  0  0  0
 33 57  1  0  0  0  0
 34 58  1  0  0  0  0
M  END
$$$$
