CHEMBL3959345
 OpenBabel04072215373D

 67 70  0  0  1  0  0  0  0  0999 V2000
    0.8353   -0.5339   -4.6628 C   0  0  0  0  0  0  0  0  0  0  0  0
    2.0485   -1.1562   -4.4230 O   0  0  0  0  0  0  0  0  0  0  0  0
    2.9515   -0.8511   -3.4480 C   0  0  0  0  0  0  0  0  0  0  0  0
    2.6257   -0.0148   -2.3568 C   0  0  0  0  0  0  0  0  0  0  0  0
    3.5590    0.2100   -1.3307 C   0  0  0  0  0  0  0  0  0  0  0  0
    3.2962    0.9779   -0.2394 O   0  0  0  0  0  0  0  0  0  0  0  0
    2.1082    1.6169    0.0483 C   0  0  0  0  0  0  0  0  0  0  0  0
    4.8102   -0.3964   -1.4087 C   0  0  0  0  0  0  0  0  0  0  0  0
    5.1826   -1.2047   -2.4979 C   0  0  0  0  0  0  0  0  0  0  0  0
    6.4482   -1.9166   -2.4534 N   0  0  0  0  0  0  0  0  0  0  0  0
    6.9016   -2.4541   -1.1331 C   0  0  0  0  0  0  0  0  0  0  0  0
    5.9668   -3.5699   -0.5511 C   0  0  0  0  0  0  0  0  0  0  0  0
    6.4393   -4.1338    0.7518 N   0  0  0  0  0  0  0  0  0  0  0  0
    7.7074   -4.9220    0.7345 C   0  0  0  0  0  0  0  0  0  0  0  0
    7.4808   -6.1706    1.6042 C   0  0  0  0  0  0  0  0  0  0  0  0
    6.2282   -5.8491    2.3949 C   0  0  3  0  0  0  0  0  0  0  0  0
    6.5178   -5.0990    3.5567 O   0  0  0  0  0  0  0  0  0  0  0  0
    5.4485   -5.0345    1.3649 C   0  0  0  0  0  0  0  0  0  0  0  0
    7.3934   -2.1102   -3.5634 C   0  0  0  0  0  0  0  0  0  0  0  0
    8.0227   -3.3456   -3.5288 C   0  0  0  0  0  0  0  0  0  0  0  0
    9.2134   -3.5597   -4.1198 C   0  0  0  0  0  0  0  0  0  0  0  0
    9.7964   -2.5883   -4.8600 C   0  0  0  0  0  0  0  0  0  0  0  0
   11.0795   -2.7845   -5.1556 N   0  0  0  0  0  0  0  0  0  0  0  0
   11.7500   -1.9780   -5.9560 C   0  0  0  0  0  0  0  0  0  0  0  0
   11.0441   -1.0552   -6.7192 C   0  0  0  0  0  0  0  0  0  0  0  0
   11.6508   -0.9501   -8.1203 C   0  0  0  0  0  0  0  0  0  0  0  0
   12.6904   -1.8112   -8.5526 C   0  0  0  0  0  0  0  0  0  0  0  0
   12.8454   -1.7358   -9.8667 N   0  0  0  0  0  0  0  0  0  0  0  0
   11.9822   -0.8598  -10.3202 N   0  0  0  0  0  0  0  0  0  0  0  0
   11.8041   -0.6933  -11.7541 C   0  0  0  0  0  0  0  0  0  0  0  0
   11.2547   -0.3179   -9.3001 C   0  0  0  0  0  0  0  0  0  0  0  0
    9.7527   -0.6892   -6.2918 N   0  0  0  0  0  0  0  0  0  0  0  0
    9.1284   -1.4192   -5.2639 C   0  0  0  0  0  0  0  0  0  0  0  0
    7.8762   -1.1239   -4.5511 C   0  0  0  0  0  0  0  0  0  0  0  0
    4.2389   -1.4315   -3.5175 C   0  0  0  0  0  0  0  0  0  0  0  0
   -1.1087   -0.5487   -1.2591 Cl  0  0  0  0  0  0  0  0  0  0  0  0
    0.2750   -1.1099   -5.4291 H   0  0  0  0  0  0  0  0  0  0  0  0
    1.0101    0.4918   -5.0462 H   0  0  0  0  0  0  0  0  0  0  0  0
    0.1975   -0.4929   -3.7598 H   0  0  0  0  0  0  0  0  0  0  0  0
    1.6465    0.4363   -2.2878 H   0  0  0  0  0  0  0  0  0  0  0  0
    2.2192    2.1679    1.0061 H   0  0  0  0  0  0  0  0  0  0  0  0
    1.2898    0.8755    0.1644 H   0  0  0  0  0  0  0  0  0  0  0  0
    1.8601    2.3451   -0.7512 H   0  0  0  0  0  0  0  0  0  0  0  0
    5.4882   -0.2142   -0.5900 H   0  0  0  0  0  0  0  0  0  0  0  0
    7.0266   -1.6359   -0.3924 H   0  0  0  0  0  0  0  0  0  0  0  0
    7.9253   -2.8741   -1.1757 H   0  0  0  0  0  0  0  0  0  0  0  0
    5.8524   -4.3839   -1.2909 H   0  0  0  0  0  0  0  0  0  0  0  0
    4.9806   -3.1031   -0.3861 H   0  0  0  0  0  0  0  0  0  0  0  0
    8.5021   -4.2890    1.1733 H   0  0  0  0  0  0  0  0  0  0  0  0
    8.0141   -5.2377   -0.2921 H   0  0  0  0  0  0  0  0  0  0  0  0
    8.3546   -6.5088    2.2073 H   0  0  0  0  0  0  0  0  0  0  0  0
    7.2021   -7.0054    0.9246 H   0  0  0  0  0  0  0  0  0  0  0  0
    5.6875   -6.7618    2.7259 H   0  0  0  0  0  0  0  0  0  0  0  0
    6.9489   -4.2447    3.3043 H   0  0  0  0  0  0  0  0  0  0  0  0
    4.5936   -4.4875    1.8147 H   0  0  0  0  0  0  0  0  0  0  0  0
    5.0631   -5.7396    0.5892 H   0  0  0  0  0  0  0  0  0  0  0  0
    7.6524   -4.1430   -2.9103 H   0  0  0  0  0  0  0  0  0  0  0  0
    9.7327   -4.4882   -3.9495 H   0  0  0  0  0  0  0  0  0  0  0  0
   12.7691   -2.2556   -6.1150 H   0  0  0  0  0  0  0  0  0  0  0  0
   13.2518   -2.5567   -8.0146 H   0  0  0  0  0  0  0  0  0  0  0  0
   12.4053   -1.4691  -12.2930 H   0  0  0  0  0  0  0  0  0  0  0  0
   12.1349    0.3057  -12.0848 H   0  0  0  0  0  0  0  0  0  0  0  0
   10.7433   -0.8859  -12.0132 H   0  0  0  0  0  0  0  0  0  0  0  0
   10.4476    0.3842   -9.4403 H   0  0  0  0  0  0  0  0  0  0  0  0
    7.3866   -0.1604   -4.6752 H   0  0  0  0  0  0  0  0  0  0  0  0
    4.4685   -2.1003   -4.3360 H   0  0  0  0  0  0  0  0  0  0  0  0
    0.0691   -1.2075   -1.5287 H   0  0  0  0  0  0  0  0  0  0  0  0
  1  2  1  0  0  0  0
  1 37  1  0  0  0  0
  1 38  1  0  0  0  0
  1 39  1  0  0  0  0
  2  3  1  0  0  0  0
  3  4  1  0  0  0  0
  3 35  2  0  0  0  0
  4  5  2  0  0  0  0
  4 40  1  0  0  0  0
  5  6  1  0  0  0  0
  5  8  1  0  0  0  0
  6  7  1  0  0  0  0
  7 41  1  0  0  0  0
  7 42  1  0  0  0  0
  7 43  1  0  0  0  0
  8  9  2  0  0  0  0
  8 44  1  0  0  0  0
  9 10  1  0  0  0  0
  9 35  1  0  0  0  0
 10 11  1  0  0  0  0
 10 19  1  0  0  0  0
 11 12  1  0  0  0  0
 11 45  1  0  0  0  0
 11 46  1  0  0  0  0
 12 13  1  0  0  0  0
 12 47  1  0  0  0  0
 12 48  1  0  0  0  0
 13 14  1  0  0  0  0
 13 18  1  0  0  0  0
 14 15  1  0  0  0  0
 14 49  1  0  0  0  0
 14 50  1  0  0  0  0
 15 16  1  0  0  0  0
 15 51  1  0  0  0  0
 15 52  1  0  0  0  0
 16 17  1  0  0  0  0
 16 18  1  0  0  0  0
 16 53  1  0  0  0  0
 17 54  1  0  0  0  0
 18 55  1  0  0  0  0
 18 56  1  0  0  0  0
 19 20  1  0  0  0  0
 19 34  2  0  0  0  0
 20 21  2  0  0  0  0
 20 57  1  0  0  0  0
 21 22  1  0  0  0  0
 21 58  1  0  0  0  0
 22 23  1  0  0  0  0
 22 33  2  0  0  0  0
 23 24  2  0  0  0  0
 24 25  1  0  0  0  0
 24 59  1  0  0  0  0
 25 26  1  0  0  0  0
 25 32  2  0  0  0  0
 26 27  1  0  0  0  0
 26 31  2  0  0  0  0
 27 28  2  0  0  0  0
 27 60  1  0  0  0  0
 28 29  1  0  0  0  0
 29 30  1  0  0  0  0
 29 31  1  0  0  0  0
 30 61  1  0  0  0  0
 30 62  1  0  0  0  0
 30 63  1  0  0  0  0
 31 64  1  0  0  0  0
 32 33  1  0  0  0  0
 33 34  1  0  0  0  0
 34 65  1  0  0  0  0
 35 66  1  0  0  0  0
 36 67  1  0  0  0  0
M  END
$$$$
