CHEMBL3976721
 OpenBabel04072215373D

 64 68  0  0  0  0  0  0  0  0999 V2000
    2.4585    1.3873    0.3208 C   0  0  0  0  0  0  0  0  0  0  0  0
    1.9741    0.1509    0.7978 O   0  0  0  0  0  0  0  0  0  0  0  0
    2.7919   -0.7440    1.3776 C   0  0  0  0  0  0  0  0  0  0  0  0
    2.5739   -2.0420    1.3125 C   0  0  0  0  0  0  0  0  0  0  0  0
    3.5968   -2.9087    1.7168 C   0  0  0  0  0  0  0  0  0  0  0  0
    3.4553   -4.2390    1.6060 O   0  0  0  0  0  0  0  0  0  0  0  0
    2.1019   -4.6740    1.7240 C   0  0  0  0  0  0  0  0  0  0  0  0
    4.8271   -2.4121    2.1776 C   0  0  0  0  0  0  0  0  0  0  0  0
    5.1297   -1.0754    2.1867 C   0  0  0  0  0  0  0  0  0  0  0  0
    6.4240   -0.5663    2.5515 N   0  0  0  0  0  0  0  0  0  0  0  0
    6.9083    0.7341    1.9189 C   0  0  0  0  0  0  0  0  0  0  0  0
    7.6668    0.4432    0.6343 C   0  0  0  0  0  0  0  0  0  0  0  0
    8.3175    0.1936   -0.4677 C   0  0  0  0  0  0  0  0  0  0  0  0
    9.0599   -0.0088   -1.7407 C   0  0  0  0  0  0  0  0  0  0  0  0
    9.8362   -1.1174   -1.9784 C   0  0  0  0  0  0  0  0  0  0  0  0
   10.1289   -1.5695   -3.2634 C   0  0  0  0  0  0  0  0  0  0  0  0
   10.2487   -0.6071   -4.2075 C   0  0  0  0  0  0  0  0  0  0  0  0
    9.6939    0.6226   -3.8884 C   0  0  0  0  0  0  0  0  0  0  0  0
    9.9016    1.7199   -4.8959 C   0  0  0  0  0  0  0  0  0  0  0  0
    9.9471    2.9913   -4.2752 O   0  0  0  0  0  0  0  0  0  0  0  0
    8.9690    0.8860   -2.7325 N   0  0  0  0  0  0  0  0  0  0  0  0
    7.5089   -1.4186    3.0023 C   0  0  0  0  0  0  0  0  0  0  0  0
    8.3623   -0.8221    3.8658 C   0  0  0  0  0  0  0  0  0  0  0  0
    9.4586   -1.5379    4.2931 C   0  0  0  0  0  0  0  0  0  0  0  0
    9.7402   -2.7841    3.7907 C   0  0  0  0  0  0  0  0  0  0  0  0
   11.0026   -2.6405    3.7225 N   0  0  0  0  0  0  0  0  0  0  0  0
   11.6068   -3.2187    4.7086 C   0  0  0  0  0  0  0  0  0  0  0  0
   11.9326   -4.5270    4.6465 C   0  0  0  0  0  0  0  0  0  0  0  0
   13.4539   -3.9717    5.5167 C   0  0  0  0  0  0  0  0  0  0  0  0
   14.3116   -2.6856    5.5746 C   0  0  0  0  0  0  0  0  0  0  0  0
   15.3686   -2.6112    6.4397 N   0  0  0  0  0  0  0  0  0  0  0  0
   15.3743   -3.7714    7.1129 N   0  0  0  0  0  0  0  0  0  0  0  0
   16.3406   -4.0036    8.2529 C   0  0  0  0  0  0  0  0  0  0  0  0
   14.3020   -4.6086    6.5591 C   0  0  0  0  0  0  0  0  0  0  0  0
   10.5312   -4.7719    3.7779 N   0  0  0  0  0  0  0  0  0  0  0  0
    9.1941   -3.7917    3.2011 C   0  0  0  0  0  0  0  0  0  0  0  0
    7.8350   -2.8288    2.5988 C   0  0  0  0  0  0  0  0  0  0  0  0
    3.9736   -0.3410    1.9246 C   0  0  0  0  0  0  0  0  0  0  0  0
    1.6094    1.9771   -0.0527 H   0  0  0  0  0  0  0  0  0  0  0  0
    3.1437    1.2138   -0.5129 H   0  0  0  0  0  0  0  0  0  0  0  0
    2.8555    1.9758    1.1327 H   0  0  0  0  0  0  0  0  0  0  0  0
    1.6277   -2.3275    0.9528 H   0  0  0  0  0  0  0  0  0  0  0  0
    2.1075   -5.7503    1.6142 H   0  0  0  0  0  0  0  0  0  0  0  0
    1.4592   -4.2498    0.9363 H   0  0  0  0  0  0  0  0  0  0  0  0
    1.6963   -4.4274    2.7153 H   0  0  0  0  0  0  0  0  0  0  0  0
    5.5586   -3.1066    2.5627 H   0  0  0  0  0  0  0  0  0  0  0  0
    7.5162    1.3586    2.5822 H   0  0  0  0  0  0  0  0  0  0  0  0
    5.9872    1.2711    1.6640 H   0  0  0  0  0  0  0  0  0  0  0  0
   10.3535   -1.5675   -1.1541 H   0  0  0  0  0  0  0  0  0  0  0  0
   10.3459   -2.6024   -3.5101 H   0  0  0  0  0  0  0  0  0  0  0  0
   10.7888   -0.8124   -5.1258 H   0  0  0  0  0  0  0  0  0  0  0  0
    9.0731    1.7170   -5.6106 H   0  0  0  0  0  0  0  0  0  0  0  0
   10.8342    1.5518   -5.4462 H   0  0  0  0  0  0  0  0  0  0  0  0
    9.1687    3.0091   -3.6877 H   0  0  0  0  0  0  0  0  0  0  0  0
    8.4545    0.1919    4.1874 H   0  0  0  0  0  0  0  0  0  0  0  0
   10.2116   -1.1224    4.9058 H   0  0  0  0  0  0  0  0  0  0  0  0
   12.0815   -2.4391    5.2418 H   0  0  0  0  0  0  0  0  0  0  0  0
   14.2510   -1.7495    5.0220 H   0  0  0  0  0  0  0  0  0  0  0  0
   17.0876   -3.1889    8.4153 H   0  0  0  0  0  0  0  0  0  0  0  0
   16.9290   -4.9258    8.1197 H   0  0  0  0  0  0  0  0  0  0  0  0
   15.7866   -4.0878    9.1996 H   0  0  0  0  0  0  0  0  0  0  0  0
   14.3222   -5.5685    7.0379 H   0  0  0  0  0  0  0  0  0  0  0  0
    7.1430   -3.0941    1.7594 H   0  0  0  0  0  0  0  0  0  0  0  0
    3.7989    0.5688    2.4328 H   0  0  0  0  0  0  0  0  0  0  0  0
  1  2  1  0  0  0  0
  1 39  1  0  0  0  0
  1 40  1  0  0  0  0
  1 41  1  0  0  0  0
  2  3  1  0  0  0  0
  3  4  1  0  0  0  0
  3 38  2  0  0  0  0
  4  5  2  0  0  0  0
  4 42  1  0  0  0  0
  5  6  1  0  0  0  0
  5  8  1  0  0  0  0
  6  7  1  0  0  0  0
  7 43  1  0  0  0  0
  7 44  1  0  0  0  0
  7 45  1  0  0  0  0
  8  9  2  0  0  0  0
  8 46  1  0  0  0  0
  9 10  1  0  0  0  0
  9 38  1  0  0  0  0
 10 11  1  0  0  0  0
 10 22  1  0  0  0  0
 11 12  1  0  0  0  0
 11 47  1  0  0  0  0
 11 48  1  0  0  0  0
 12 13  3  0  0  0  0
 13 14  1  0  0  0  0
 14 15  1  0  0  0  0
 14 21  2  0  0  0  0
 15 16  2  0  0  0  0
 15 49  1  0  0  0  0
 16 17  1  0  0  0  0
 16 50  1  0  0  0  0
 17 18  2  0  0  0  0
 17 51  1  0  0  0  0
 18 19  1  0  0  0  0
 18 21  1  0  0  0  0
 19 20  1  0  0  0  0
 19 52  1  0  0  0  0
 19 53  1  0  0  0  0
 20 54  1  0  0  0  0
 22 23  1  0  0  0  0
 22 37  2  0  0  0  0
 23 24  2  0  0  0  0
 23 55  1  0  0  0  0
 24 25  1  0  0  0  0
 24 56  1  0  0  0  0
 25 26  1  0  0  0  0
 25 36  2  0  0  0  0
 26 27  2  0  0  0  0
 27 28  1  0  0  0  0
 27 57  1  0  0  0  0
 28 29  1  0  0  0  0
 28 35  2  0  0  0  0
 29 30  1  0  0  0  0
 29 34  2  0  0  0  0
 30 31  2  0  0  0  0
 30 58  1  0  0  0  0
 31 32  1  0  0  0  0
 32 33  1  0  0  0  0
 32 34  1  0  0  0  0
 33 59  1  0  0  0  0
 33 60  1  0  0  0  0
 33 61  1  0  0  0  0
 34 62  1  0  0  0  0
 35 36  1  0  0  0  0
 36 37  1  0  0  0  0
 37 63  1  0  0  0  0
 38 64  1  0  0  0  0
M  END
$$$$
