CHEMBL3781028
 OpenBabel04072215373D

 52 56  0  0  0  0  0  0  0  0999 V2000
    0.8238    0.0544    1.9885 C   0  0  0  0  0  0  0  0  0  0  0  0
    0.2901   -1.0703    1.3703 C   0  0  0  0  0  0  0  0  0  0  0  0
   -0.9061   -0.9715    0.6548 C   0  0  0  0  0  0  0  0  0  0  0  0
   -1.6011    0.2460    0.5722 C   0  0  0  0  0  0  0  0  0  0  0  0
   -2.8058    0.3901   -0.1659 N   0  0  0  0  0  0  0  0  0  0  0  0
   -3.7721   -0.6412   -0.3367 C   0  0  0  0  0  0  0  0  0  0  0  0
   -3.9916   -1.5800    0.6731 C   0  0  0  0  0  0  0  0  0  0  0  0
   -4.8198   -2.6318    0.5695 N   0  0  0  0  0  0  0  0  0  0  0  0
   -5.5029   -2.7171   -0.5937 C   0  0  0  0  0  0  0  0  0  0  0  0
   -5.4309   -1.8196   -1.6404 C   0  0  0  0  0  0  0  0  0  0  0  0
   -6.1723   -2.0158   -2.7589 N   0  0  0  0  0  0  0  0  0  0  0  0
   -6.0368   -1.0929   -3.7263 C   0  0  0  0  0  0  0  0  0  0  0  0
   -5.1969    0.0088   -3.6315 C   0  0  0  0  0  0  0  0  0  0  0  0
   -5.1259    1.0301   -4.6845 C   0  0  0  0  0  0  0  0  0  0  0  0
   -4.8068    2.3621   -4.3851 C   0  0  0  0  0  0  0  0  0  0  0  0
   -4.7793    3.3436   -5.3749 C   0  0  0  0  0  0  0  0  0  0  0  0
   -5.0835    3.0555   -6.7130 C   0  0  0  0  0  0  0  0  0  0  0  0
   -5.0738    4.0307   -7.6817 N   0  0  0  0  0  0  0  0  0  0  0  0
   -4.1895    5.1898   -7.5895 C   0  0  0  0  0  0  0  0  0  0  0  0
   -5.0198    6.4679   -7.6407 C   0  0  0  0  0  0  0  0  0  0  0  0
   -5.9418    6.4844   -8.8614 C   0  0  0  0  0  0  0  0  0  0  0  0
   -6.7787    5.2082   -8.9557 C   0  0  0  0  0  0  0  0  0  0  0  0
   -5.9096    3.9508   -8.8767 C   0  0  0  0  0  0  0  0  0  0  0  0
   -5.4027    1.7239   -7.0068 C   0  0  0  0  0  0  0  0  0  0  0  0
   -5.4160    0.7326   -6.0272 C   0  0  0  0  0  0  0  0  0  0  0  0
   -4.4333    0.1910   -2.5113 N   0  0  0  0  0  0  0  0  0  0  0  0
   -4.5498   -0.7260   -1.5098 C   0  0  0  0  0  0  0  0  0  0  0  0
   -1.0490    1.3680    1.1975 C   0  0  0  0  0  0  0  0  0  0  0  0
    0.1512    1.2727    1.9077 C   0  0  0  0  0  0  0  0  0  0  0  0
    1.7648   -0.0160    2.5278 H   0  0  0  0  0  0  0  0  0  0  0  0
    0.8019   -2.0266    1.4376 H   0  0  0  0  0  0  0  0  0  0  0  0
   -1.2881   -1.8721    0.1800 H   0  0  0  0  0  0  0  0  0  0  0  0
   -2.6394    0.8449   -1.0705 H   0  0  0  0  0  0  0  0  0  0  0  0
   -3.4361   -1.5320    1.6072 H   0  0  0  0  0  0  0  0  0  0  0  0
   -6.1637   -3.5763   -0.6677 H   0  0  0  0  0  0  0  0  0  0  0  0
   -6.6539   -1.2629   -4.6039 H   0  0  0  0  0  0  0  0  0  0  0  0
   -4.5919    2.6503   -3.3583 H   0  0  0  0  0  0  0  0  0  0  0  0
   -4.5461    4.3604   -5.0762 H   0  0  0  0  0  0  0  0  0  0  0  0
   -3.4873    5.1652   -8.4324 H   0  0  0  0  0  0  0  0  0  0  0  0
   -3.5682    5.1862   -6.6912 H   0  0  0  0  0  0  0  0  0  0  0  0
   -4.3545    7.3382   -7.6656 H   0  0  0  0  0  0  0  0  0  0  0  0
   -5.6244    6.5481   -6.7292 H   0  0  0  0  0  0  0  0  0  0  0  0
   -5.3397    6.5930   -9.7710 H   0  0  0  0  0  0  0  0  0  0  0  0
   -6.6031    7.3559   -8.8078 H   0  0  0  0  0  0  0  0  0  0  0  0
   -7.3500    5.2060   -9.8907 H   0  0  0  0  0  0  0  0  0  0  0  0
   -7.5059    5.1958   -8.1339 H   0  0  0  0  0  0  0  0  0  0  0  0
   -5.2713    3.8723   -9.7650 H   0  0  0  0  0  0  0  0  0  0  0  0
   -6.5692    3.0804   -8.8774 H   0  0  0  0  0  0  0  0  0  0  0  0
   -5.6203    1.4362   -8.0324 H   0  0  0  0  0  0  0  0  0  0  0  0
   -5.6539   -0.2845   -6.3322 H   0  0  0  0  0  0  0  0  0  0  0  0
   -1.5755    2.3181    1.1686 H   0  0  0  0  0  0  0  0  0  0  0  0
    0.5593    2.1498    2.4003 H   0  0  0  0  0  0  0  0  0  0  0  0
  1  2  1  0  0  0  0
  1 29  2  0  0  0  0
  1 30  1  0  0  0  0
  2  3  2  0  0  0  0
  2 31  1  0  0  0  0
  3  4  1  0  0  0  0
  3 32  1  0  0  0  0
  4  5  1  0  0  0  0
  4 28  2  0  0  0  0
  5  6  1  0  0  0  0
  5 33  1  0  0  0  0
  6  7  1  0  0  0  0
  6 27  2  0  0  0  0
  7  8  2  0  0  0  0
  7 34  1  0  0  0  0
  8  9  1  0  0  0  0
  9 10  2  0  0  0  0
  9 35  1  0  0  0  0
 10 11  1  0  0  0  0
 10 27  1  0  0  0  0
 11 12  2  0  0  0  0
 12 13  1  0  0  0  0
 12 36  1  0  0  0  0
 13 14  1  0  0  0  0
 13 26  2  0  0  0  0
 14 15  1  0  0  0  0
 14 25  2  0  0  0  0
 15 16  2  0  0  0  0
 15 37  1  0  0  0  0
 16 17  1  0  0  0  0
 16 38  1  0  0  0  0
 17 18  1  0  0  0  0
 17 24  2  0  0  0  0
 18 19  1  0  0  0  0
 18 23  1  0  0  0  0
 19 20  1  0  0  0  0
 19 39  1  0  0  0  0
 19 40  1  0  0  0  0
 20 21  1  0  0  0  0
 20 41  1  0  0  0  0
 20 42  1  0  0  0  0
 21 22  1  0  0  0  0
 21 43  1  0  0  0  0
 21 44  1  0  0  0  0
 22 23  1  0  0  0  0
 22 45  1  0  0  0  0
 22 46  1  0  0  0  0
 23 47  1  0  0  0  0
 23 48  1  0  0  0  0
 24 25  1  0  0  0  0
 24 49  1  0  0  0  0
 25 50  1  0  0  0  0
 26 27  1  0  0  0  0
 28 29  1  0  0  0  0
 28 51  1  0  0  0  0
 29 52  1  0  0  0  0
M  END
$$$$
