CHEMBL4463359
 OpenBabel04072215383D

 49 52  0  0  0  0  0  0  0  0999 V2000
    3.0209    0.9135    0.8310 C   0  0  0  0  0  0  0  0  0  0  0  0
    2.5583    0.7330   -0.5034 O   0  0  0  0  0  0  0  0  0  0  0  0
    3.1961   -0.2132   -1.2497 C   0  0  0  0  0  0  0  0  0  0  0  0
    4.2555   -1.0213   -0.8327 C   0  0  0  0  0  0  0  0  0  0  0  0
    4.8117   -1.9403   -1.7130 C   0  0  0  0  0  0  0  0  0  0  0  0
    4.3373   -2.0736   -3.0107 C   0  0  0  0  0  0  0  0  0  0  0  0
    4.9642   -3.0837   -3.9037 C   0  0  0  0  0  0  0  0  0  0  0  0
    5.4448   -4.0838   -3.3843 O   0  0  0  0  0  0  0  0  0  0  0  0
    4.9947   -2.7575   -5.2484 N   0  0  0  0  0  0  0  0  0  0  0  0
    5.5052   -3.5703   -6.2778 C   0  0  0  0  0  0  0  0  0  0  0  0
    5.7407   -4.9353   -6.1076 C   0  0  0  0  0  0  0  0  0  0  0  0
    6.3052   -5.6936   -7.1283 C   0  0  0  0  0  0  0  0  0  0  0  0
    6.6801   -5.0956   -8.3375 C   0  0  0  0  0  0  0  0  0  0  0  0
    7.4899   -5.8070   -9.3762 C   0  0  0  0  0  0  0  0  0  0  0  0
    7.6450   -5.3113  -10.4832 O   0  0  0  0  0  0  0  0  0  0  0  0
    8.1130   -6.9715   -8.9326 N   0  0  0  0  0  0  0  0  0  0  0  0
    9.3722   -7.2474   -9.3501 N   0  0  0  0  0  0  0  0  0  0  0  0
    9.9808   -8.1434   -8.6203 C   0  0  0  0  0  0  0  0  0  0  0  0
    9.3708   -9.0956   -7.5876 C   0  0  0  0  0  0  0  0  0  0  0  0
    8.2137   -9.4489   -7.5247 O   0  0  0  0  0  0  0  0  0  0  0  0
   10.3946   -9.3654   -6.7104 N   0  0  0  0  0  0  0  0  0  0  0  0
   11.5105   -8.5983   -7.0437 C   0  0  0  0  0  0  0  0  0  0  0  0
   12.3705   -8.0308   -6.1261 C   0  0  0  0  0  0  0  0  0  0  0  0
   13.1707   -6.9662   -6.5701 C   0  0  0  0  0  0  0  0  0  0  0  0
   13.1597   -6.5593   -7.9204 C   0  0  0  0  0  0  0  0  0  0  0  0
   14.2479   -5.1162   -8.4718 Br  0  0  0  0  0  0  0  0  0  0  0  0
   12.2675   -7.1137   -8.8284 C   0  0  0  0  0  0  0  0  0  0  0  0
   11.4005   -8.0669   -8.3266 C   0  0  0  0  0  0  0  0  0  0  0  0
    6.3848   -3.7415   -8.5385 C   0  0  0  0  0  0  0  0  0  0  0  0
    5.7818   -2.9860   -7.5185 C   0  0  0  0  0  0  0  0  0  0  0  0
    3.2601   -1.2869   -3.4301 C   0  0  0  0  0  0  0  0  0  0  0  0
    2.7009   -0.3613   -2.5532 C   0  0  0  0  0  0  0  0  0  0  0  0
    2.4529    1.7355    1.2729 H   0  0  0  0  0  0  0  0  0  0  0  0
    4.0804    1.1931    0.8511 H   0  0  0  0  0  0  0  0  0  0  0  0
    2.8378    0.0163    1.4322 H   0  0  0  0  0  0  0  0  0  0  0  0
    4.6577   -0.9574    0.1840 H   0  0  0  0  0  0  0  0  0  0  0  0
    5.6425   -2.5808   -1.3604 H   0  0  0  0  0  0  0  0  0  0  0  0
    4.7686   -1.8007   -5.5059 H   0  0  0  0  0  0  0  0  0  0  0  0
    5.4937   -5.4437   -5.1803 H   0  0  0  0  0  0  0  0  0  0  0  0
    6.4458   -6.7534   -6.9238 H   0  0  0  0  0  0  0  0  0  0  0  0
    7.9272   -7.2459   -7.9717 H   0  0  0  0  0  0  0  0  0  0  0  0
   10.4431  -10.2595   -6.2419 H   0  0  0  0  0  0  0  0  0  0  0  0
   12.2890   -8.2465   -5.0660 H   0  0  0  0  0  0  0  0  0  0  0  0
   13.7453   -6.3956   -5.8415 H   0  0  0  0  0  0  0  0  0  0  0  0
   12.1291   -6.7155   -9.8283 H   0  0  0  0  0  0  0  0  0  0  0  0
    6.6567   -3.2565   -9.4748 H   0  0  0  0  0  0  0  0  0  0  0  0
    5.5869   -1.9345   -7.6998 H   0  0  0  0  0  0  0  0  0  0  0  0
    2.8302   -1.4073   -4.4192 H   0  0  0  0  0  0  0  0  0  0  0  0
    1.8576    0.2456   -2.8772 H   0  0  0  0  0  0  0  0  0  0  0  0
  1  2  1  0  0  0  0
  1 33  1  0  0  0  0
  1 34  1  0  0  0  0
  1 35  1  0  0  0  0
  2  3  1  0  0  0  0
  3  4  1  0  0  0  0
  3 32  2  0  0  0  0
  4  5  2  0  0  0  0
  4 36  1  0  0  0  0
  5  6  1  0  0  0  0
  5 37  1  0  0  0  0
  6  7  1  0  0  0  0
  6 31  2  0  0  0  0
  7  8  2  0  0  0  0
  7  9  1  0  0  0  0
  9 10  1  0  0  0  0
  9 38  1  0  0  0  0
 10 11  1  0  0  0  0
 10 30  2  0  0  0  0
 11 12  2  0  0  0  0
 11 39  1  0  0  0  0
 12 13  1  0  0  0  0
 12 40  1  0  0  0  0
 13 14  1  0  0  0  0
 13 29  2  0  0  0  0
 14 15  2  0  0  0  0
 14 16  1  0  0  0  0
 16 17  1  0  0  0  0
 16 41  1  0  0  0  0
 17 18  2  0  0  0  0
 18 19  1  0  0  0  0
 18 28  1  0  0  0  0
 19 20  2  0  0  0  0
 19 21  1  0  0  0  0
 21 22  1  0  0  0  0
 21 42  1  0  0  0  0
 22 23  1  0  0  0  0
 22 28  2  0  0  0  0
 23 24  2  0  0  0  0
 23 43  1  0  0  0  0
 24 25  1  0  0  0  0
 24 44  1  0  0  0  0
 25 26  1  0  0  0  0
 25 27  2  0  0  0  0
 27 28  1  0  0  0  0
 27 45  1  0  0  0  0
 29 30  1  0  0  0  0
 29 46  1  0  0  0  0
 30 47  1  0  0  0  0
 31 32  1  0  0  0  0
 31 48  1  0  0  0  0
 32 49  1  0  0  0  0
M  END
$$$$
