CHEMBL396284
 OpenBabel04072215373D

 52 55  0  0  0  0  0  0  0  0999 V2000
    8.1320   -1.1876  -11.0619 C   0  0  0  0  0  0  0  0  0  0  0  0
    7.2736   -1.6920  -10.0352 O   0  0  0  0  0  0  0  0  0  0  0  0
    7.9344   -2.3849   -9.0609 C   0  0  0  0  0  0  0  0  0  0  0  0
    9.1476   -2.5350   -9.0595 O   0  0  0  0  0  0  0  0  0  0  0  0
    7.0058   -2.8919   -8.1967 N   0  0  0  0  0  0  0  0  0  0  0  0
    7.3761   -3.6121   -7.0978 C   0  0  0  0  0  0  0  0  0  0  0  0
    8.5704   -3.7151   -6.5706 N   0  0  0  0  0  0  0  0  0  0  0  0
    8.4531   -4.5719   -5.5126 C   0  0  0  0  0  0  0  0  0  0  0  0
    9.4288   -5.0067   -4.6072 C   0  0  0  0  0  0  0  0  0  0  0  0
    9.0621   -5.9336   -3.6268 C   0  0  0  0  0  0  0  0  0  0  0  0
    7.7670   -6.4685   -3.5983 C   0  0  0  0  0  0  0  0  0  0  0  0
    7.3803   -7.4638   -2.7232 O   0  0  0  0  0  0  0  0  0  0  0  0
    8.2816   -8.4518   -2.3960 C   0  0  0  0  0  0  0  0  0  0  0  0
    8.1829   -8.9672   -1.1088 C   0  0  0  0  0  0  0  0  0  0  0  0
    9.0954   -9.9294   -0.6669 C   0  0  0  0  0  0  0  0  0  0  0  0
   10.1191  -10.3926   -1.5012 C   0  0  0  0  0  0  0  0  0  0  0  0
   11.1213  -11.2992   -1.0820 N   0  0  0  0  0  0  0  0  0  0  0  0
   11.1752  -11.9385    0.1386 C   0  0  0  0  0  0  0  0  0  0  0  0
   10.2979  -11.8913    0.9957 O   0  0  0  0  0  0  0  0  0  0  0  0
   12.3625  -12.6355    0.3159 N   0  0  0  0  0  0  0  0  0  0  0  0
   12.5736  -13.3589    1.5205 C   0  0  0  0  0  0  0  0  0  0  0  0
   11.5871  -14.1975    2.0573 C   0  0  0  0  0  0  0  0  0  0  0  0
   11.7857  -14.8550    3.2760 C   0  0  0  0  0  0  0  0  0  0  0  0
   10.7400  -15.5744    3.8645 N   0  0  0  0  0  0  0  0  0  0  0  0
   12.9470  -14.5792    4.0040 C   0  0  0  0  0  0  0  0  0  0  0  0
   13.9482  -13.7634    3.4688 C   0  0  0  0  0  0  0  0  0  0  0  0
   13.7671  -13.1840    2.2180 C   0  0  0  0  0  0  0  0  0  0  0  0
   14.7158  -12.3732    1.7245 F   0  0  0  0  0  0  0  0  0  0  0  0
   10.1732   -9.9158   -2.8146 C   0  0  0  0  0  0  0  0  0  0  0  0
    9.2427   -8.9714   -3.2675 C   0  0  0  0  0  0  0  0  0  0  0  0
    6.7611   -5.9861   -4.4496 C   0  0  0  0  0  0  0  0  0  0  0  0
    7.1487   -5.0339   -5.3952 C   0  0  0  0  0  0  0  0  0  0  0  0
    6.4680   -4.3571   -6.3779 N   0  0  0  0  0  0  0  0  0  0  0  0
    7.5656   -0.4664  -11.6569 H   0  0  0  0  0  0  0  0  0  0  0  0
    8.4433   -2.0101  -11.7129 H   0  0  0  0  0  0  0  0  0  0  0  0
    9.0054   -0.6735  -10.6461 H   0  0  0  0  0  0  0  0  0  0  0  0
    6.0416   -2.7632   -8.4470 H   0  0  0  0  0  0  0  0  0  0  0  0
   10.4447   -4.6355   -4.6828 H   0  0  0  0  0  0  0  0  0  0  0  0
    9.8151   -6.2570   -2.9119 H   0  0  0  0  0  0  0  0  0  0  0  0
    7.4097   -8.6136   -0.4318 H   0  0  0  0  0  0  0  0  0  0  0  0
    8.9792  -10.2790    0.3535 H   0  0  0  0  0  0  0  0  0  0  0  0
   11.8156  -11.5711   -1.7638 H   0  0  0  0  0  0  0  0  0  0  0  0
   13.1827  -12.1598   -0.0410 H   0  0  0  0  0  0  0  0  0  0  0  0
   10.6465  -14.3294    1.5277 H   0  0  0  0  0  0  0  0  0  0  0  0
   10.0682  -15.9485    3.2016 H   0  0  0  0  0  0  0  0  0  0  0  0
   11.0315  -16.2574    4.5552 H   0  0  0  0  0  0  0  0  0  0  0  0
   13.0744  -14.9910    5.0019 H   0  0  0  0  0  0  0  0  0  0  0  0
   14.8464  -13.5482    4.0379 H   0  0  0  0  0  0  0  0  0  0  0  0
   10.9395  -10.2587   -3.5040 H   0  0  0  0  0  0  0  0  0  0  0  0
    9.2999   -8.6287   -4.2973 H   0  0  0  0  0  0  0  0  0  0  0  0
    5.7446   -6.3584   -4.3851 H   0  0  0  0  0  0  0  0  0  0  0  0
    5.4850   -4.4419   -6.5776 H   0  0  0  0  0  0  0  0  0  0  0  0
  1  2  1  0  0  0  0
  1 34  1  0  0  0  0
  1 35  1  0  0  0  0
  1 36  1  0  0  0  0
  2  3  1  0  0  0  0
  3  4  2  0  0  0  0
  3  5  1  0  0  0  0
  5  6  1  0  0  0  0
  5 37  1  0  0  0  0
  6  7  2  0  0  0  0
  6 33  1  0  0  0  0
  7  8  1  0  0  0  0
  8  9  1  0  0  0  0
  8 32  2  0  0  0  0
  9 10  2  0  0  0  0
  9 38  1  0  0  0  0
 10 11  1  0  0  0  0
 10 39  1  0  0  0  0
 11 12  1  0  0  0  0
 11 31  2  0  0  0  0
 12 13  1  0  0  0  0
 13 14  1  0  0  0  0
 13 30  2  0  0  0  0
 14 15  2  0  0  0  0
 14 40  1  0  0  0  0
 15 16  1  0  0  0  0
 15 41  1  0  0  0  0
 16 17  1  0  0  0  0
 16 29  2  0  0  0  0
 17 18  1  0  0  0  0
 17 42  1  0  0  0  0
 18 19  2  0  0  0  0
 18 20  1  0  0  0  0
 20 21  1  0  0  0  0
 20 43  1  0  0  0  0
 21 22  1  0  0  0  0
 21 27  2  0  0  0  0
 22 23  2  0  0  0  0
 22 44  1  0  0  0  0
 23 24  1  0  0  0  0
 23 25  1  0  0  0  0
 24 45  1  0  0  0  0
 24 46  1  0  0  0  0
 25 26  2  0  0  0  0
 25 47  1  0  0  0  0
 26 27  1  0  0  0  0
 26 48  1  0  0  0  0
 27 28  1  0  0  0  0
 29 30  1  0  0  0  0
 29 49  1  0  0  0  0
 30 50  1  0  0  0  0
 31 32  1  0  0  0  0
 31 51  1  0  0  0  0
 32 33  1  0  0  0  0
 33 52  1  0  0  0  0
M  END
$$$$
