CHEMBL3648115
 OpenBabel04072215373D

 51 52  0  0  1  0  0  0  0  0999 V2000
    1.7108   13.1735   -5.6245 C   0  0  0  0  0  0  0  0  0  0  0  0
    0.6446   13.4322   -4.7161 O   0  0  0  0  0  0  0  0  0  0  0  0
   -0.3624   12.5057   -4.6629 C   0  0  0  0  0  0  0  0  0  0  0  0
   -0.2221   11.1799   -5.0990 C   0  0  0  0  0  0  0  0  0  0  0  0
   -1.2618   10.2473   -4.9653 C   0  0  0  0  0  0  0  0  0  0  0  0
   -1.0803    8.9603   -5.4958 N   0  0  0  0  0  0  0  0  0  0  0  0
   -1.6107    7.7584   -5.0310 C   0  0  0  0  0  0  0  0  0  0  0  0
   -1.8416    7.5999   -3.7179 N   0  0  0  0  0  0  0  0  0  0  0  0
   -2.2017    6.3710   -3.3099 C   0  0  0  0  0  0  0  0  0  0  0  0
   -2.3511    5.3030   -4.1649 C   0  0  0  0  0  0  0  0  0  0  0  0
   -2.8364    3.6115   -3.4881 Br  0  0  0  0  0  0  0  0  0  0  0  0
   -2.1627    5.5648   -5.5162 C   0  0  0  0  0  0  0  0  0  0  0  0
   -2.2426    4.5089   -6.4509 N   0  0  0  0  0  0  0  0  0  0  0  0
   -2.6247    4.8704   -7.8385 C   0  0  2  0  0  0  0  0  0  0  0  0
   -4.1475    4.9757   -7.9498 C   0  0  0  0  0  0  0  0  0  0  0  0
   -1.9893    3.8210   -8.8122 C   0  0  0  0  0  0  0  0  0  0  0  0
   -2.5218    2.3949   -8.6319 C   0  0  0  0  0  0  0  0  0  0  0  0
   -2.1463    4.2460  -10.2749 C   0  0  0  0  0  0  0  0  0  0  0  0
   -0.5762    3.7747   -8.5398 O   0  0  0  0  0  0  0  0  0  0  0  0
   -1.7812    6.7836   -5.9417 N   0  0  0  0  0  0  0  0  0  0  0  0
   -2.4670   10.6595   -4.3939 C   0  0  0  0  0  0  0  0  0  0  0  0
   -2.6361   11.9805   -3.9740 C   0  0  0  0  0  0  0  0  0  0  0  0
   -1.5890   12.9006   -4.1140 C   0  0  0  0  0  0  0  0  0  0  0  0
   -1.8981   14.6027   -3.6697 S   0  0  3  0  0  0  0  0  0  0  0  0
   -0.7349   14.9541   -2.3798 C   0  0  0  0  0  0  0  0  0  0  0  0
   -1.5349   15.4545   -4.9059 N   0  0  0  0  0  0  0  0  0  0  0  0
   -3.2043   14.6368   -3.0306 O   0  0  0  0  0  0  0  0  0  0  0  0
    2.3854   14.0351   -5.5973 H   0  0  0  0  0  0  0  0  0  0  0  0
    1.3320   13.0729   -6.6467 H   0  0  0  0  0  0  0  0  0  0  0  0
    2.2931   12.2962   -5.3263 H   0  0  0  0  0  0  0  0  0  0  0  0
    0.7110   10.8233   -5.5248 H   0  0  0  0  0  0  0  0  0  0  0  0
   -1.0662    8.9251   -6.5096 H   0  0  0  0  0  0  0  0  0  0  0  0
   -2.3549    6.2750   -2.2399 H   0  0  0  0  0  0  0  0  0  0  0  0
   -2.8244    3.7578   -6.0814 H   0  0  0  0  0  0  0  0  0  0  0  0
   -2.1865    5.8415   -8.1013 H   0  0  0  0  0  0  0  0  0  0  0  0
   -4.6399    4.0220   -7.7348 H   0  0  0  0  0  0  0  0  0  0  0  0
   -4.4493    5.2991   -8.9504 H   0  0  0  0  0  0  0  0  0  0  0  0
   -4.5436    5.7071   -7.2365 H   0  0  0  0  0  0  0  0  0  0  0  0
   -3.5852    2.3159   -8.8760 H   0  0  0  0  0  0  0  0  0  0  0  0
   -2.3686    2.0352   -7.6089 H   0  0  0  0  0  0  0  0  0  0  0  0
   -1.9758    1.6978   -9.2791 H   0  0  0  0  0  0  0  0  0  0  0  0
   -3.1914    4.2234  -10.5990 H   0  0  0  0  0  0  0  0  0  0  0  0
   -1.5702    3.5882  -10.9358 H   0  0  0  0  0  0  0  0  0  0  0  0
   -1.7555    5.2574  -10.4310 H   0  0  0  0  0  0  0  0  0  0  0  0
   -0.4994    3.9347   -7.5759 H   0  0  0  0  0  0  0  0  0  0  0  0
   -3.2969    9.9643   -4.2893 H   0  0  0  0  0  0  0  0  0  0  0  0
   -3.5948   12.2829   -3.5581 H   0  0  0  0  0  0  0  0  0  0  0  0
    0.2881   14.9028   -2.7521 H   0  0  0  0  0  0  0  0  0  0  0  0
   -0.8833   14.2404   -1.5662 H   0  0  0  0  0  0  0  0  0  0  0  0
   -0.9371   15.9647   -2.0157 H   0  0  0  0  0  0  0  0  0  0  0  0
   -0.5263   15.4576   -5.0725 H   0  0  0  0  0  0  0  0  0  0  0  0
  1  2  1  0  0  0  0
  1 28  1  0  0  0  0
  1 29  1  0  0  0  0
  1 30  1  0  0  0  0
  2  3  1  0  0  0  0
  3  4  1  0  0  0  0
  3 23  2  0  0  0  0
  4  5  2  0  0  0  0
  4 31  1  0  0  0  0
  5  6  1  0  0  0  0
  5 21  1  0  0  0  0
  6  7  1  0  0  0  0
  6 32  1  0  0  0  0
  7  8  1  0  0  0  0
  7 20  2  0  0  0  0
  8  9  2  0  0  0  0
  9 10  1  0  0  0  0
  9 33  1  0  0  0  0
 10 11  1  0  0  0  0
 10 12  2  0  0  0  0
 12 13  1  0  0  0  0
 12 20  1  0  0  0  0
 13 34  1  0  0  0  0
 14 16  1  0  0  0  0
 14 15  1  0  0  0  0
 14 13  1  0  0  0  0
 14 35  1  6  0  0  0
 15 36  1  0  0  0  0
 15 37  1  0  0  0  0
 15 38  1  0  0  0  0
 16 17  1  0  0  0  0
 16 18  1  0  0  0  0
 16 19  1  0  0  0  0
 17 39  1  0  0  0  0
 17 40  1  0  0  0  0
 17 41  1  0  0  0  0
 18 42  1  0  0  0  0
 18 43  1  0  0  0  0
 18 44  1  0  0  0  0
 19 45  1  0  0  0  0
 21 22  2  0  0  0  0
 21 46  1  0  0  0  0
 22 23  1  0  0  0  0
 22 47  1  0  0  0  0
 23 24  1  0  0  0  0
 24 25  1  0  0  0  0
 24 26  2  0  0  0  0
 24 27  2  0  0  0  0
 25 48  1  0  0  0  0
 25 49  1  0  0  0  0
 25 50  1  0  0  0  0
 26 51  1  0  0  0  0
M  END
$$$$
