CHEMBL398951
 OpenBabel04072215373D

 56 60  0  0  0  0  0  0  0  0999 V2000
    2.9574    0.5191    0.4447 N   0  0  0  0  0  0  0  0  0  0  0  0
    1.8105    0.4047    0.3290 C   0  0  0  0  0  0  0  0  0  0  0  0
    0.3872    0.2183    0.2078 C   0  0  0  0  0  0  0  0  0  0  0  0
   -0.2226   -0.9306    0.6989 C   0  0  0  0  0  0  0  0  0  0  0  0
   -1.6087   -1.0523    0.5778 C   0  0  0  0  0  0  0  0  0  0  0  0
   -2.3477   -0.0323   -0.0253 C   0  0  0  0  0  0  0  0  0  0  0  0
   -3.7971   -0.1102   -0.1514 C   0  0  0  0  0  0  0  0  0  0  0  0
   -4.5599   -0.7599    0.7607 N   0  0  0  0  0  0  0  0  0  0  0  0
   -5.8405   -0.5937    0.3386 N   0  0  0  0  0  0  0  0  0  0  0  0
   -5.8933    0.1060   -0.8063 C   0  0  0  0  0  0  0  0  0  0  0  0
   -4.6146    0.4280   -1.1609 C   0  0  0  0  0  0  0  0  0  0  0  0
   -4.5245    1.1829   -2.4431 C   0  0  0  0  0  0  0  0  0  0  0  0
   -6.0304    1.2222   -2.7522 C   0  0  0  0  0  0  0  0  0  0  0  0
   -6.6295    1.8026   -3.8536 C   0  0  0  0  0  0  0  0  0  0  0  0
   -8.0236    1.7285   -3.9568 C   0  0  0  0  0  0  0  0  0  0  0  0
   -8.8011    1.0805   -2.9692 C   0  0  0  0  0  0  0  0  0  0  0  0
  -10.1715    0.9840   -2.9891 O   0  0  0  0  0  0  0  0  0  0  0  0
  -10.7410    0.9386   -4.2945 C   0  0  0  0  0  0  0  0  0  0  0  0
  -12.2577    0.7983   -4.1899 C   0  0  0  0  0  0  0  0  0  0  0  0
  -12.9115    0.6677   -5.5720 C   0  0  0  0  0  0  0  0  0  0  0  0
  -12.6595    1.8786   -6.4892 C   0  0  0  0  0  0  0  0  0  0  0  0
  -13.3024    1.7760   -7.8080 N   0  0  0  0  0  0  0  0  0  0  0  0
  -12.8210    0.6576   -8.6486 C   0  0  0  0  0  0  0  0  0  0  0  0
  -11.4354    0.8559   -9.2944 C   0  0  0  0  0  0  0  0  0  0  0  0
  -11.3106    2.1139   -9.9677 O   0  0  0  0  0  0  0  0  0  0  0  0
  -11.6837    3.2054   -9.1209 C   0  0  0  0  0  0  0  0  0  0  0  0
  -13.1155    3.0234   -8.5887 C   0  0  0  0  0  0  0  0  0  0  0  0
   -8.1959    0.5105   -1.8464 C   0  0  0  0  0  0  0  0  0  0  0  0
   -6.8256    0.5828   -1.7633 C   0  0  0  0  0  0  0  0  0  0  0  0
   -1.6390    1.0728   -0.4899 C   0  0  0  0  0  0  0  0  0  0  0  0
   -0.2936    1.2215   -0.3947 N   0  0  0  0  0  0  0  0  0  0  0  0
    0.3574   -1.7160    1.1729 H   0  0  0  0  0  0  0  0  0  0  0  0
   -2.1101   -1.9409    0.9570 H   0  0  0  0  0  0  0  0  0  0  0  0
   -6.5952   -0.9956    0.8859 H   0  0  0  0  0  0  0  0  0  0  0  0
   -3.9815    0.6252   -3.2096 H   0  0  0  0  0  0  0  0  0  0  0  0
   -4.1320    2.1927   -2.3048 H   0  0  0  0  0  0  0  0  0  0  0  0
   -6.0423    2.3065   -4.6153 H   0  0  0  0  0  0  0  0  0  0  0  0
   -8.4806    2.2072   -4.8172 H   0  0  0  0  0  0  0  0  0  0  0  0
  -10.3306    0.0832   -4.8458 H   0  0  0  0  0  0  0  0  0  0  0  0
  -10.5184    1.8686   -4.8202 H   0  0  0  0  0  0  0  0  0  0  0  0
  -12.6744    1.6509   -3.6393 H   0  0  0  0  0  0  0  0  0  0  0  0
  -12.4993   -0.0882   -3.5891 H   0  0  0  0  0  0  0  0  0  0  0  0
  -13.9907    0.5247   -5.4409 H   0  0  0  0  0  0  0  0  0  0  0  0
  -12.5185   -0.2447   -6.0313 H   0  0  0  0  0  0  0  0  0  0  0  0
  -11.5857    2.0441   -6.6065 H   0  0  0  0  0  0  0  0  0  0  0  0
  -13.0624    2.7618   -5.9743 H   0  0  0  0  0  0  0  0  0  0  0  0
  -13.5513    0.5448   -9.4602 H   0  0  0  0  0  0  0  0  0  0  0  0
  -12.8464   -0.2958   -8.1127 H   0  0  0  0  0  0  0  0  0  0  0  0
  -11.2860    0.0796  -10.0534 H   0  0  0  0  0  0  0  0  0  0  0  0
  -10.6283    0.7564   -8.5605 H   0  0  0  0  0  0  0  0  0  0  0  0
  -11.6289    4.1186   -9.7220 H   0  0  0  0  0  0  0  0  0  0  0  0
  -10.9501    3.3082   -8.3131 H   0  0  0  0  0  0  0  0  0  0  0  0
  -13.7973    2.9758   -9.4481 H   0  0  0  0  0  0  0  0  0  0  0  0
  -13.4209    3.8972   -8.0024 H   0  0  0  0  0  0  0  0  0  0  0  0
   -8.7938    0.0236   -1.0859 H   0  0  0  0  0  0  0  0  0  0  0  0
   -2.1416    1.9157   -0.9537 H   0  0  0  0  0  0  0  0  0  0  0  0
  1  2  3  0  0  0  0
  2  3  1  0  0  0  0
  3  4  1  0  0  0  0
  3 31  2  0  0  0  0
  4  5  2  0  0  0  0
  4 32  1  0  0  0  0
  5  6  1  0  0  0  0
  5 33  1  0  0  0  0
  6  7  1  0  0  0  0
  6 30  2  0  0  0  0
  7  8  2  0  0  0  0
  7 11  1  0  0  0  0
  8  9  1  0  0  0  0
  9 10  1  0  0  0  0
  9 34  1  0  0  0  0
 10 11  2  0  0  0  0
 10 29  1  0  0  0  0
 11 12  1  0  0  0  0
 12 13  1  0  0  0  0
 12 35  1  0  0  0  0
 12 36  1  0  0  0  0
 13 14  1  0  0  0  0
 13 29  2  0  0  0  0
 14 15  2  0  0  0  0
 14 37  1  0  0  0  0
 15 16  1  0  0  0  0
 15 38  1  0  0  0  0
 16 17  1  0  0  0  0
 16 28  2  0  0  0  0
 17 18  1  0  0  0  0
 18 19  1  0  0  0  0
 18 39  1  0  0  0  0
 18 40  1  0  0  0  0
 19 20  1  0  0  0  0
 19 41  1  0  0  0  0
 19 42  1  0  0  0  0
 20 21  1  0  0  0  0
 20 43  1  0  0  0  0
 20 44  1  0  0  0  0
 21 22  1  0  0  0  0
 21 45  1  0  0  0  0
 21 46  1  0  0  0  0
 22 23  1  0  0  0  0
 22 27  1  0  0  0  0
 23 24  1  0  0  0  0
 23 47  1  0  0  0  0
 23 48  1  0  0  0  0
 24 25  1  0  0  0  0
 24 49  1  0  0  0  0
 24 50  1  0  0  0  0
 25 26  1  0  0  0  0
 26 27  1  0  0  0  0
 26 51  1  0  0  0  0
 26 52  1  0  0  0  0
 27 53  1  0  0  0  0
 27 54  1  0  0  0  0
 28 29  1  0  0  0  0
 28 55  1  0  0  0  0
 30 31  1  0  0  0  0
 30 56  1  0  0  0  0
M  END
$$$$
