CHEMBL3964796
 OpenBabel04072215373D

 58 61  0  0  0  0  0  0  0  0999 V2000
    9.9720  -10.0542    0.4461 C   0  0  0  0  0  0  0  0  0  0  0  0
    9.1472   -8.9990    0.9405 O   0  0  0  0  0  0  0  0  0  0  0  0
    8.5080   -8.2440   -0.0037 C   0  0  0  0  0  0  0  0  0  0  0  0
    8.1773   -8.7451   -1.2550 C   0  0  0  0  0  0  0  0  0  0  0  0
    7.5222   -7.9486   -2.1879 C   0  0  0  0  0  0  0  0  0  0  0  0
    7.1739   -6.6225   -1.9192 C   0  0  0  0  0  0  0  0  0  0  0  0
    6.5602   -5.7792   -2.8906 N   0  0  0  0  0  0  0  0  0  0  0  0
    6.4193   -6.1207   -4.2261 C   0  0  0  0  0  0  0  0  0  0  0  0
    6.8525   -7.1606   -4.7114 O   0  0  0  0  0  0  0  0  0  0  0  0
    5.7425   -5.1884   -4.9937 N   0  0  0  0  0  0  0  0  0  0  0  0
    5.3427   -5.4622   -6.3368 C   0  0  0  0  0  0  0  0  0  0  0  0
    5.2688   -6.7491   -6.8623 C   0  0  0  0  0  0  0  0  0  0  0  0
    4.9075   -7.0488   -8.1283 N   0  0  0  0  0  0  0  0  0  0  0  0
    4.5041   -6.0448   -8.9277 C   0  0  0  0  0  0  0  0  0  0  0  0
    4.0184   -6.4039  -10.1897 O   0  0  0  0  0  0  0  0  0  0  0  0
    3.4934   -7.6881  -10.3170 C   0  0  0  0  0  0  0  0  0  0  0  0
    2.6961   -8.2525   -9.3208 C   0  0  0  0  0  0  0  0  0  0  0  0
    2.2672   -9.5483   -9.4836 C   0  0  0  0  0  0  0  0  0  0  0  0
    2.5112  -10.2711  -10.5889 N   0  0  0  0  0  0  0  0  0  0  0  0
    3.2244   -9.7196  -11.5843 C   0  0  0  0  0  0  0  0  0  0  0  0
    3.4490  -10.4841  -12.7506 N   0  0  0  0  0  0  0  0  0  0  0  0
    2.9647  -11.7722  -12.9294 C   0  0  0  0  0  0  0  0  0  0  0  0
    2.2911  -12.4237  -12.1517 O   0  0  0  0  0  0  0  0  0  0  0  0
    3.3085  -12.4533  -14.2171 C   0  0  0  0  0  0  0  0  0  0  0  0
    4.7520  -12.7039  -14.5776 C   0  0  0  0  0  0  0  0  0  0  0  0
    3.8969  -11.8309  -15.4524 C   0  0  0  0  0  0  0  0  0  0  0  0
    3.7427   -8.4252  -11.4863 C   0  0  0  0  0  0  0  0  0  0  0  0
    4.5309   -4.7106   -8.5169 C   0  0  0  0  0  0  0  0  0  0  0  0
    4.1490   -3.5692   -9.4081 C   0  0  0  0  0  0  0  0  0  0  0  0
    4.9764   -4.4278   -7.1975 C   0  0  0  0  0  0  0  0  0  0  0  0
    7.4564   -6.1323   -0.6397 C   0  0  0  0  0  0  0  0  0  0  0  0
    8.1353   -6.9316    0.3258 C   0  0  0  0  0  0  0  0  0  0  0  0
    8.4585   -6.3160    1.6662 C   0  0  0  0  0  0  0  0  0  0  0  0
    9.2024   -7.0696    2.5200 F   0  0  0  0  0  0  0  0  0  0  0  0
    9.1528   -5.1471    1.5240 F   0  0  0  0  0  0  0  0  0  0  0  0
    7.3320   -5.9785    2.3592 F   0  0  0  0  0  0  0  0  0  0  0  0
   10.4966  -10.4981    1.2965 H   0  0  0  0  0  0  0  0  0  0  0  0
   10.7228   -9.6680   -0.2526 H   0  0  0  0  0  0  0  0  0  0  0  0
    9.3788  -10.8500   -0.0165 H   0  0  0  0  0  0  0  0  0  0  0  0
    8.4027   -9.7631   -1.5557 H   0  0  0  0  0  0  0  0  0  0  0  0
    7.2954   -8.4356   -3.1290 H   0  0  0  0  0  0  0  0  0  0  0  0
    6.2785   -4.8556   -2.5952 H   0  0  0  0  0  0  0  0  0  0  0  0
    5.7366   -4.2278   -4.6866 H   0  0  0  0  0  0  0  0  0  0  0  0
    5.4642   -7.6384   -6.2797 H   0  0  0  0  0  0  0  0  0  0  0  0
    2.4595   -7.7282   -8.4028 H   0  0  0  0  0  0  0  0  0  0  0  0
    1.7066  -10.0634   -8.7096 H   0  0  0  0  0  0  0  0  0  0  0  0
    4.0043  -10.0680  -13.4804 H   0  0  0  0  0  0  0  0  0  0  0  0
    2.6251  -13.2843  -14.4088 H   0  0  0  0  0  0  0  0  0  0  0  0
    5.0087  -13.6981  -14.9266 H   0  0  0  0  0  0  0  0  0  0  0  0
    5.5249  -12.2365  -13.9789 H   0  0  0  0  0  0  0  0  0  0  0  0
    3.5850  -12.2405  -16.4096 H   0  0  0  0  0  0  0  0  0  0  0  0
    4.1011  -10.7707  -15.4892 H   0  0  0  0  0  0  0  0  0  0  0  0
    4.3332   -7.9882  -12.2828 H   0  0  0  0  0  0  0  0  0  0  0  0
    3.4262   -3.8711  -10.1714 H   0  0  0  0  0  0  0  0  0  0  0  0
    5.0381   -3.1590   -9.8972 H   0  0  0  0  0  0  0  0  0  0  0  0
    3.6788   -2.7706   -8.8224 H   0  0  0  0  0  0  0  0  0  0  0  0
    5.0290   -3.3950   -6.8642 H   0  0  0  0  0  0  0  0  0  0  0  0
    7.1802   -5.1143   -0.3692 H   0  0  0  0  0  0  0  0  0  0  0  0
  1  2  1  0  0  0  0
  1 37  1  0  0  0  0
  1 38  1  0  0  0  0
  1 39  1  0  0  0  0
  2  3  1  0  0  0  0
  3  4  1  0  0  0  0
  3 32  2  0  0  0  0
  4  5  2  0  0  0  0
  4 40  1  0  0  0  0
  5  6  1  0  0  0  0
  5 41  1  0  0  0  0
  6  7  1  0  0  0  0
  6 31  2  0  0  0  0
  7  8  1  0  0  0  0
  7 42  1  0  0  0  0
  8  9  2  0  0  0  0
  8 10  1  0  0  0  0
 10 11  1  0  0  0  0
 10 43  1  0  0  0  0
 11 12  1  0  0  0  0
 11 30  2  0  0  0  0
 12 13  2  0  0  0  0
 12 44  1  0  0  0  0
 13 14  1  0  0  0  0
 14 15  1  0  0  0  0
 14 28  2  0  0  0  0
 15 16  1  0  0  0  0
 16 17  1  0  0  0  0
 16 27  2  0  0  0  0
 17 18  2  0  0  0  0
 17 45  1  0  0  0  0
 18 19  1  0  0  0  0
 18 46  1  0  0  0  0
 19 20  2  0  0  0  0
 20 21  1  0  0  0  0
 20 27  1  0  0  0  0
 21 22  1  0  0  0  0
 21 47  1  0  0  0  0
 22 23  2  0  0  0  0
 22 24  1  0  0  0  0
 24 25  1  0  0  0  0
 24 26  1  0  0  0  0
 24 48  1  0  0  0  0
 25 26  1  0  0  0  0
 25 49  1  0  0  0  0
 25 50  1  0  0  0  0
 26 51  1  0  0  0  0
 26 52  1  0  0  0  0
 27 53  1  0  0  0  0
 28 29  1  0  0  0  0
 28 30  1  0  0  0  0
 29 54  1  0  0  0  0
 29 55  1  0  0  0  0
 29 56  1  0  0  0  0
 30 57  1  0  0  0  0
 31 32  1  0  0  0  0
 31 58  1  0  0  0  0
 32 33  1  0  0  0  0
 33 34  1  0  0  0  0
 33 35  1  0  0  0  0
 33 36  1  0  0  0  0
M  END
$$$$
