CHEMBL3221552
 OpenBabel04072215363D

 49 50  0  0  0  0  0  0  0  0999 V2000
    7.1846   -0.8458   -0.9928 C   0  0  0  0  0  0  0  0  0  0  0  0
    6.4814   -0.4407    0.1217 O   0  0  0  0  0  0  0  0  0  0  0  0
    5.1296   -0.2939    0.1448 C   0  0  0  0  0  0  0  0  0  0  0  0
    4.4655   -0.5294   -0.8544 O   0  0  0  0  0  0  0  0  0  0  0  0
    4.5104    0.1510    1.2664 N   0  0  0  0  0  0  0  0  0  0  0  0
    5.2187    0.4169    2.4635 C   0  0  0  0  0  0  0  0  0  0  0  0
    5.5067   -0.6391    3.3342 C   0  0  0  0  0  0  0  0  0  0  0  0
    6.1603   -0.4037    4.5370 C   0  0  0  0  0  0  0  0  0  0  0  0
    6.5574    0.8996    4.8996 C   0  0  0  0  0  0  0  0  0  0  0  0
    7.2144    1.2062    6.1345 N   0  0  0  0  0  0  0  0  0  0  0  0
    7.1168    0.4245    7.3345 C   0  0  0  0  0  0  0  0  0  0  0  0
    6.2270   -0.5999    7.3955 N   0  0  0  0  0  0  0  0  0  0  0  0
    6.0576   -1.3546    8.5063 C   0  0  0  0  0  0  0  0  0  0  0  0
    6.7871   -1.0964    9.6162 N   0  0  0  0  0  0  0  0  0  0  0  0
    7.6855   -0.0876    9.6371 C   0  0  0  0  0  0  0  0  0  0  0  0
    8.4176    0.1548   10.7983 C   0  0  0  0  0  0  0  0  0  0  0  0
    9.3658    1.1970   10.8743 C   0  0  0  0  0  0  0  0  0  0  0  0
   10.0739    1.4065   12.0193 O   0  0  0  0  0  0  0  0  0  0  0  0
    9.9554    0.6408   13.1711 C   0  0  0  0  0  0  0  0  0  0  0  0
    9.5571    2.0248    9.7265 C   0  0  0  0  0  0  0  0  0  0  0  0
   10.4159    3.0708    9.6210 O   0  0  0  0  0  0  0  0  0  0  0  0
   11.2781    3.6217   10.5353 C   0  0  0  0  0  0  0  0  0  0  0  0
    8.8180    1.7611    8.5651 C   0  0  0  0  0  0  0  0  0  0  0  0
    7.8816    0.7221    8.4951 C   0  0  0  0  0  0  0  0  0  0  0  0
    6.2994    1.9515    4.0035 C   0  0  0  0  0  0  0  0  0  0  0  0
    5.6159    1.7260    2.7991 C   0  0  0  0  0  0  0  0  0  0  0  0
    5.3082    2.8791    1.8855 C   0  0  0  0  0  0  0  0  0  0  0  0
    2.4695    2.0622   -1.4294 Cl  0  0  0  0  0  0  0  0  0  0  0  0
    8.2688   -0.8554   -0.7582 H   0  0  0  0  0  0  0  0  0  0  0  0
    7.0091   -0.1400   -1.8332 H   0  0  0  0  0  0  0  0  0  0  0  0
    6.8711   -1.8685   -1.2924 H   0  0  0  0  0  0  0  0  0  0  0  0
    3.4896    0.2975    1.2616 H   0  0  0  0  0  0  0  0  0  0  0  0
    5.2042   -1.6481    3.0798 H   0  0  0  0  0  0  0  0  0  0  0  0
    6.3632   -1.2624    5.1598 H   0  0  0  0  0  0  0  0  0  0  0  0
    7.6833    2.1171    6.1741 H   0  0  0  0  0  0  0  0  0  0  0  0
    5.3361   -2.1605    8.5052 H   0  0  0  0  0  0  0  0  0  0  0  0
    8.2328   -0.4988   11.6451 H   0  0  0  0  0  0  0  0  0  0  0  0
   10.6513    1.0084   13.9460 H   0  0  0  0  0  0  0  0  0  0  0  0
   10.2024   -0.4221   12.9549 H   0  0  0  0  0  0  0  0  0  0  0  0
    8.9181    0.7041   13.5702 H   0  0  0  0  0  0  0  0  0  0  0  0
   11.7893    4.4775   10.0418 H   0  0  0  0  0  0  0  0  0  0  0  0
   12.0551    2.8866   10.8348 H   0  0  0  0  0  0  0  0  0  0  0  0
   10.7254    4.0149   11.4132 H   0  0  0  0  0  0  0  0  0  0  0  0
    9.0124    2.4110    7.7226 H   0  0  0  0  0  0  0  0  0  0  0  0
    6.6026    2.9581    4.2666 H   0  0  0  0  0  0  0  0  0  0  0  0
    5.6757    3.8417    2.3032 H   0  0  0  0  0  0  0  0  0  0  0  0
    4.2090    2.9594    1.7492 H   0  0  0  0  0  0  0  0  0  0  0  0
    5.7900    2.7199    0.8976 H   0  0  0  0  0  0  0  0  0  0  0  0
    1.7617    2.0188   -0.2510 H   0  0  0  0  0  0  0  0  0  0  0  0
  1  2  1  0  0  0  0
  1 29  1  0  0  0  0
  1 30  1  0  0  0  0
  1 31  1  0  0  0  0
  2  3  1  0  0  0  0
  3  4  2  0  0  0  0
  3  5  1  0  0  0  0
  5  6  1  0  0  0  0
  5 32  1  0  0  0  0
  6  7  1  0  0  0  0
  6 26  2  0  0  0  0
  7  8  2  0  0  0  0
  7 33  1  0  0  0  0
  8  9  1  0  0  0  0
  8 34  1  0  0  0  0
  9 10  1  0  0  0  0
  9 25  2  0  0  0  0
 10 11  1  0  0  0  0
 10 35  1  0  0  0  0
 11 12  1  0  0  0  0
 11 24  2  0  0  0  0
 12 13  2  0  0  0  0
 13 14  1  0  0  0  0
 13 36  1  0  0  0  0
 14 15  2  0  0  0  0
 15 16  1  0  0  0  0
 15 24  1  0  0  0  0
 16 17  2  0  0  0  0
 16 37  1  0  0  0  0
 17 18  1  0  0  0  0
 17 20  1  0  0  0  0
 18 19  1  0  0  0  0
 19 38  1  0  0  0  0
 19 39  1  0  0  0  0
 19 40  1  0  0  0  0
 20 21  1  0  0  0  0
 20 23  2  0  0  0  0
 21 22  1  0  0  0  0
 22 41  1  0  0  0  0
 22 42  1  0  0  0  0
 22 43  1  0  0  0  0
 23 24  1  0  0  0  0
 23 44  1  0  0  0  0
 25 26  1  0  0  0  0
 25 45  1  0  0  0  0
 26 27  1  0  0  0  0
 27 46  1  0  0  0  0
 27 47  1  0  0  0  0
 27 48  1  0  0  0  0
 28 49  1  0  0  0  0
M  END
$$$$
