CHEMBL2001485
 OpenBabel04072215363D

 68 72  0  0  1  0  0  0  0  0999 V2000
    2.4880   -0.0803   -1.3221 C   0  0  0  0  0  0  0  0  0  0  0  0
    1.0078    0.0119   -1.0866 C   0  0  0  0  0  0  0  0  0  0  0  0
    0.3839    1.2544   -1.1294 C   0  0  0  0  0  0  0  0  0  0  0  0
   -0.9898    1.3571   -0.9197 C   0  0  0  0  0  0  0  0  0  0  0  0
   -1.7833    0.2311   -0.6798 C   0  0  0  0  0  0  0  0  0  0  0  0
   -3.1872    0.3098   -0.4867 N   0  0  0  0  0  0  0  0  0  0  0  0
   -3.9410    1.4519   -0.6205 C   0  0  0  0  0  0  0  0  0  0  0  0
   -3.5072    2.5508   -0.9524 O   0  0  0  0  0  0  0  0  0  0  0  0
   -5.2786    1.2698   -0.2794 N   0  0  0  0  0  0  0  0  0  0  0  0
   -6.1665    2.3731   -0.3721 C   0  0  0  0  0  0  0  0  0  0  0  0
   -6.1677    3.2002   -1.4963 C   0  0  0  0  0  0  0  0  0  0  0  0
   -6.9095    4.3830   -1.5074 C   0  0  0  0  0  0  0  0  0  0  0  0
   -7.7063    4.7436   -0.4106 C   0  0  0  0  0  0  0  0  0  0  0  0
   -8.3872    6.0520   -0.3871 C   0  0  0  0  0  0  0  0  0  0  0  0
   -8.8911    6.5538   -1.5712 C   0  0  0  0  0  0  0  0  0  0  0  0
   -9.5437    8.1014   -1.4267 S   0  0  0  0  0  0  0  0  0  0  0  0
   -9.2765    8.1558    0.2792 C   0  0  0  0  0  0  0  0  0  0  0  0
   -9.6215    9.2014    1.1689 C   0  0  0  0  0  0  0  0  0  0  0  0
  -10.3166   10.4030    0.7582 C   0  0  0  0  0  0  0  0  0  0  0  0
  -11.3474   10.6339   -0.1809 C   0  0  0  0  0  0  0  0  0  0  0  0
  -11.7461   11.9081   -0.2081 N   0  0  0  0  0  0  0  0  0  0  0  0
  -10.9944   12.4995    0.7419 N   0  0  0  0  0  0  0  0  0  0  0  0
  -11.2455   13.9003    1.0730 C   0  0  3  0  0  0  0  0  0  0  0  0
  -12.3137   13.9545    2.1725 C   0  0  0  0  0  0  0  0  0  0  0  0
   -9.9804   14.6505    1.4982 C   0  0  0  0  0  0  0  0  0  0  0  0
   -9.8985   15.1121    2.6440 O   0  0  0  0  0  0  0  0  0  0  0  0
   -8.9469   14.8464    0.5850 N   0  0  0  0  0  0  0  0  0  0  0  0
   -8.8974   14.3444   -0.7831 C   0  0  0  0  0  0  0  0  0  0  0  0
   -7.8011   15.6515    0.9877 C   0  0  0  0  0  0  0  0  0  0  0  0
  -10.1116   11.6391    1.3356 C   0  0  0  0  0  0  0  0  0  0  0  0
   -9.2522    9.0051    2.4862 C   0  0  0  0  0  0  0  0  0  0  0  0
   -8.5988    7.9333    2.9509 N   0  0  0  0  0  0  0  0  0  0  0  0
   -8.2604    6.9380    2.1114 C   0  0  0  0  0  0  0  0  0  0  0  0
   -7.5556    5.9199    2.7407 N   0  0  0  0  0  0  0  0  0  0  0  0
   -8.6022    6.9910    0.7275 C   0  0  0  0  0  0  0  0  0  0  0  0
   -7.7979    3.8361    0.6524 C   0  0  0  0  0  0  0  0  0  0  0  0
   -7.0087    2.6761    0.6940 C   0  0  0  0  0  0  0  0  0  0  0  0
   -1.1534   -1.0179   -0.6315 C   0  0  0  0  0  0  0  0  0  0  0  0
    0.2346   -1.1224   -0.8346 C   0  0  0  0  0  0  0  0  0  0  0  0
    2.9240    0.9109   -1.4940 H   0  0  0  0  0  0  0  0  0  0  0  0
    2.6953   -0.6897   -2.2070 H   0  0  0  0  0  0  0  0  0  0  0  0
    2.9842   -0.5137   -0.4503 H   0  0  0  0  0  0  0  0  0  0  0  0
    0.9499    2.1635   -1.3251 H   0  0  0  0  0  0  0  0  0  0  0  0
   -1.3980    2.3614   -0.9594 H   0  0  0  0  0  0  0  0  0  0  0  0
   -3.6887   -0.5635   -0.3669 H   0  0  0  0  0  0  0  0  0  0  0  0
   -5.4400    0.6236    0.4786 H   0  0  0  0  0  0  0  0  0  0  0  0
   -5.5502    2.9615   -2.3601 H   0  0  0  0  0  0  0  0  0  0  0  0
   -6.8173    5.0254   -2.3789 H   0  0  0  0  0  0  0  0  0  0  0  0
   -8.8878    6.0908   -2.5487 H   0  0  0  0  0  0  0  0  0  0  0  0
  -11.8400    9.9286   -0.8375 H   0  0  0  0  0  0  0  0  0  0  0  0
  -11.6393   14.3881    0.1730 H   0  0  0  0  0  0  0  0  0  0  0  0
  -11.9756   13.4441    3.0807 H   0  0  0  0  0  0  0  0  0  0  0  0
  -13.2401   13.4633    1.8478 H   0  0  0  0  0  0  0  0  0  0  0  0
  -12.5557   14.9880    2.4394 H   0  0  0  0  0  0  0  0  0  0  0  0
   -9.7319   13.6982   -1.0401 H   0  0  0  0  0  0  0  0  0  0  0  0
   -7.9659   13.7829   -0.9142 H   0  0  0  0  0  0  0  0  0  0  0  0
   -8.9012   15.1992   -1.4657 H   0  0  0  0  0  0  0  0  0  0  0  0
   -7.8701   15.9986    2.0215 H   0  0  0  0  0  0  0  0  0  0  0  0
   -7.7426   16.5249    0.3310 H   0  0  0  0  0  0  0  0  0  0  0  0
   -6.8920   15.0530    0.8801 H   0  0  0  0  0  0  0  0  0  0  0  0
   -9.4385   11.9774    2.1123 H   0  0  0  0  0  0  0  0  0  0  0  0
   -9.4838    9.7427    3.2485 H   0  0  0  0  0  0  0  0  0  0  0  0
   -7.3008    6.2324    3.6715 H   0  0  0  0  0  0  0  0  0  0  0  0
   -6.7847    5.5664    2.1871 H   0  0  0  0  0  0  0  0  0  0  0  0
   -8.4513    4.0392    1.4980 H   0  0  0  0  0  0  0  0  0  0  0  0
   -7.0066    2.0758    1.5986 H   0  0  0  0  0  0  0  0  0  0  0  0
   -1.7247   -1.9210   -0.4426 H   0  0  0  0  0  0  0  0  0  0  0  0
    0.7035   -2.1045   -0.7953 H   0  0  0  0  0  0  0  0  0  0  0  0
  1  2  1  0  0  0  0
  1 40  1  0  0  0  0
  1 41  1  0  0  0  0
  1 42  1  0  0  0  0
  2  3  1  0  0  0  0
  2 39  2  0  0  0  0
  3  4  2  0  0  0  0
  3 43  1  0  0  0  0
  4  5  1  0  0  0  0
  4 44  1  0  0  0  0
  5  6  1  0  0  0  0
  5 38  2  0  0  0  0
  6  7  1  0  0  0  0
  6 45  1  0  0  0  0
  7  8  2  0  0  0  0
  7  9  1  0  0  0  0
  9 10  1  0  0  0  0
  9 46  1  0  0  0  0
 10 11  1  0  0  0  0
 10 37  2  0  0  0  0
 11 12  2  0  0  0  0
 11 47  1  0  0  0  0
 12 13  1  0  0  0  0
 12 48  1  0  0  0  0
 13 14  1  0  0  0  0
 13 36  2  0  0  0  0
 14 15  2  0  0  0  0
 14 35  1  0  0  0  0
 15 16  1  0  0  0  0
 15 49  1  0  0  0  0
 16 17  1  0  0  0  0
 17 18  1  0  0  0  0
 17 35  2  0  0  0  0
 18 19  1  0  0  0  0
 18 31  2  0  0  0  0
 19 20  1  0  0  0  0
 19 30  2  0  0  0  0
 20 21  2  0  0  0  0
 20 50  1  0  0  0  0
 21 22  1  0  0  0  0
 22 23  1  0  0  0  0
 22 30  1  0  0  0  0
 23 24  1  0  0  0  0
 23 25  1  0  0  0  0
 23 51  1  0  0  0  0
 24 52  1  0  0  0  0
 24 53  1  0  0  0  0
 24 54  1  0  0  0  0
 25 26  2  0  0  0  0
 25 27  1  0  0  0  0
 27 28  1  0  0  0  0
 27 29  1  0  0  0  0
 28 55  1  0  0  0  0
 28 56  1  0  0  0  0
 28 57  1  0  0  0  0
 29 58  1  0  0  0  0
 29 59  1  0  0  0  0
 29 60  1  0  0  0  0
 30 61  1  0  0  0  0
 31 32  1  0  0  0  0
 31 62  1  0  0  0  0
 32 33  2  0  0  0  0
 33 34  1  0  0  0  0
 33 35  1  0  0  0  0
 34 63  1  0  0  0  0
 34 64  1  0  0  0  0
 36 37  1  0  0  0  0
 36 65  1  0  0  0  0
 37 66  1  0  0  0  0
 38 39  1  0  0  0  0
 38 67  1  0  0  0  0
 39 68  1  0  0  0  0
M  END
$$$$
