CHEMBL4458435
 OpenBabel04072215383D

 49 53  0  0  1  0  0  0  0  0999 V2000
    3.2665    3.6613    8.6745 C   0  0  0  0  0  0  0  0  0  0  0  0
    3.2012    3.5660    7.2391 N   0  0  0  0  0  0  0  0  0  0  0  0
    3.2122    2.4022    6.5344 C   0  0  0  0  0  0  0  0  0  0  0  0
    2.6212    2.7048    5.3379 C   0  0  0  0  0  0  0  0  0  0  0  0
    2.2074    1.7973    4.4444 N   0  0  0  0  0  0  0  0  0  0  0  0
    2.0233    1.9323    3.0842 C   0  0  0  0  0  0  0  0  0  0  0  0
    2.6962    2.8698    2.4073 N   0  0  0  0  0  0  0  0  0  0  0  0
    2.5328    2.8748    1.0833 C   0  0  0  0  0  0  0  0  0  0  0  0
    1.6990    1.9994    0.4207 C   0  0  0  0  0  0  0  0  0  0  0  0
    0.9980    1.0845    1.1942 C   0  0  0  0  0  0  0  0  0  0  0  0
    0.1003    0.1698    0.6184 N   0  0  0  0  0  0  0  0  0  0  0  0
   -0.4629    0.4924   -0.7188 C   0  0  0  0  0  0  0  0  0  0  0  0
   -1.8290   -0.1629   -1.0454 C   0  0  1  0  0  0  0  0  0  0  0  0
   -1.7461   -1.5785   -1.6186 C   0  0  0  0  0  0  0  0  0  0  0  0
   -2.0373   -2.4770   -0.3927 C   0  0  0  0  0  0  0  0  0  0  0  0
   -1.7746   -1.5558    0.8533 C   0  0  2  0  0  0  0  0  0  0  0  0
   -0.7019   -0.6476    1.5883 C   0  0  0  0  0  0  0  0  0  0  0  0
   -2.5081   -0.4310    0.2032 N   0  0  0  0  0  0  0  0  0  0  0  0
   -3.8171   -0.1347    0.5173 C   0  0  0  0  0  0  0  0  0  0  0  0
   -4.4202   -0.6269    1.4515 O   0  0  0  0  0  0  0  0  0  0  0  0
   -4.4718    0.8514   -0.3742 C   0  0  2  0  0  0  0  0  0  0  0  0
   -5.9557    1.1179   -0.4280 C   0  0  0  0  0  0  0  0  0  0  0  0
   -5.3099    0.2925   -1.4604 C   0  0  0  0  0  0  0  0  0  0  0  0
   -5.5917   -1.0587   -1.5438 F   0  0  0  0  0  0  0  0  0  0  0  0
   -5.1414    0.7428   -2.7506 F   0  0  0  0  0  0  0  0  0  0  0  0
    1.1849    1.0406    2.5230 N   0  0  0  0  0  0  0  0  0  0  0  0
    2.4714    4.1053    5.3381 C   0  0  0  0  0  0  0  0  0  0  0  0
    2.8251    4.6412    6.5089 N   0  0  0  0  0  0  0  0  0  0  0  0
    2.2362    3.6490    9.0436 H   0  0  0  0  0  0  0  0  0  0  0  0
    3.7686    4.5906    8.9598 H   0  0  0  0  0  0  0  0  0  0  0  0
    3.8094    2.7984    9.0663 H   0  0  0  0  0  0  0  0  0  0  0  0
    3.5516    1.4709    6.9638 H   0  0  0  0  0  0  0  0  0  0  0  0
    1.6008    1.0378    4.7593 H   0  0  0  0  0  0  0  0  0  0  0  0
    3.1068    3.6191    0.5421 H   0  0  0  0  0  0  0  0  0  0  0  0
    1.6200    2.0523   -0.6466 H   0  0  0  0  0  0  0  0  0  0  0  0
   -0.6321    1.5777   -0.7818 H   0  0  0  0  0  0  0  0  0  0  0  0
    0.2683    0.2286   -1.4939 H   0  0  0  0  0  0  0  0  0  0  0  0
   -2.3864    0.4852   -1.7272 H   0  0  0  0  0  0  0  0  0  0  0  0
   -0.7767   -1.7907   -2.0761 H   0  0  0  0  0  0  0  0  0  0  0  0
   -2.5260   -1.7367   -2.3735 H   0  0  0  0  0  0  0  0  0  0  0  0
   -3.0922   -2.7897   -0.3961 H   0  0  0  0  0  0  0  0  0  0  0  0
   -1.4659   -3.4167   -0.4138 H   0  0  0  0  0  0  0  0  0  0  0  0
   -0.7815   -1.9402    0.5369 H   0  0  0  0  0  0  0  0  0  0  0  0
   -0.0314   -1.2783    2.1910 H   0  0  0  0  0  0  0  0  0  0  0  0
   -1.2221    0.0048    2.3042 H   0  0  0  0  0  0  0  0  0  0  0  0
   -3.8606    1.7233   -0.5945 H   0  0  0  0  0  0  0  0  0  0  0  0
   -6.2811    2.1095   -0.7362 H   0  0  0  0  0  0  0  0  0  0  0  0
   -6.5956    0.6286    0.2890 H   0  0  0  0  0  0  0  0  0  0  0  0
    2.0503    4.7425    4.5666 H   0  0  0  0  0  0  0  0  0  0  0  0
  1  2  1  0  0  0  0
  1 29  1  0  0  0  0
  1 30  1  0  0  0  0
  1 31  1  0  0  0  0
  2  3  1  0  0  0  0
  2 28  1  0  0  0  0
  3  4  2  0  0  0  0
  3 32  1  0  0  0  0
  4  5  1  0  0  0  0
  4 27  1  0  0  0  0
  5  6  1  0  0  0  0
  5 33  1  0  0  0  0
  6  7  1  0  0  0  0
  6 26  2  0  0  0  0
  7  8  2  0  0  0  0
  8  9  1  0  0  0  0
  8 34  1  0  0  0  0
  9 10  2  0  0  0  0
  9 35  1  0  0  0  0
 10 11  1  0  0  0  0
 10 26  1  0  0  0  0
 11 12  1  0  0  0  0
 11 17  1  0  0  0  0
 12 13  1  0  0  0  0
 12 36  1  0  0  0  0
 12 37  1  0  0  0  0
 13 14  1  0  0  0  0
 13 18  1  0  0  0  0
 13 38  1  6  0  0  0
 14 15  1  0  0  0  0
 14 39  1  0  0  0  0
 14 40  1  0  0  0  0
 15 16  1  0  0  0  0
 15 41  1  0  0  0  0
 15 42  1  0  0  0  0
 16 17  1  0  0  0  0
 16 18  1  0  0  0  0
 16 43  1  6  0  0  0
 17 44  1  0  0  0  0
 17 45  1  0  0  0  0
 18 19  1  0  0  0  0
 19 20  2  0  0  0  0
 19 21  1  0  0  0  0
 21 22  1  0  0  0  0
 21 23  1  0  0  0  0
 21 46  1  6  0  0  0
 22 23  1  0  0  0  0
 22 47  1  0  0  0  0
 22 48  1  0  0  0  0
 23 24  1  0  0  0  0
 23 25  1  0  0  0  0
 27 28  2  0  0  0  0
 27 49  1  0  0  0  0
M  END
$$$$
