CHEMBL370744
 OpenBabel04072215373D

 44 46  0  0  0  0  0  0  0  0999 V2000
    1.3948   -1.4073   -3.5682 C   0  0  0  0  0  0  0  0  0  0  0  0
    2.8556   -1.3515   -3.1605 C   0  0  0  0  0  0  0  0  0  0  0  0
    3.0941   -0.3985   -1.6718 S   0  0  0  0  0  0  0  0  0  0  0  0
    2.6216    0.9631   -1.9384 O   0  0  0  0  0  0  0  0  0  0  0  0
    2.5976   -1.1433   -0.5493 O   0  0  0  0  0  0  0  0  0  0  0  0
    4.8630   -0.2945   -1.5114 C   0  0  0  0  0  0  0  0  0  0  0  0
    5.4770    0.9535   -1.5236 C   0  0  0  0  0  0  0  0  0  0  0  0
    6.8684    1.0423   -1.5006 C   0  0  0  0  0  0  0  0  0  0  0  0
    7.6526   -0.1187   -1.4534 C   0  0  0  0  0  0  0  0  0  0  0  0
    9.0215   -0.1122   -1.6095 O   0  0  0  0  0  0  0  0  0  0  0  0
    9.7245    1.0574   -1.2065 C   0  0  0  0  0  0  0  0  0  0  0  0
    7.0364   -1.3928   -1.4044 C   0  0  0  0  0  0  0  0  0  0  0  0
    7.8165   -2.5840   -1.3673 N   0  0  0  0  0  0  0  0  0  0  0  0
    7.3461   -3.7812   -1.7690 C   0  0  0  0  0  0  0  0  0  0  0  0
    6.1009   -4.2107   -1.8478 N   0  0  0  0  0  0  0  0  0  0  0  0
    6.2033   -5.5094   -2.2249 C   0  0  0  0  0  0  0  0  0  0  0  0
    7.5188   -5.8193   -2.4726 C   0  0  0  0  0  0  0  0  0  0  0  0
    8.2019   -7.0190   -2.9228 C   0  0  0  0  0  0  0  0  0  0  0  0
    7.4508   -8.1606   -3.2527 C   0  0  0  0  0  0  0  0  0  0  0  0
    8.0774   -9.3351   -3.6801 C   0  0  0  0  0  0  0  0  0  0  0  0
    9.4664   -9.3918   -3.7847 C   0  0  0  0  0  0  0  0  0  0  0  0
   10.1053  -10.6024   -4.2209 C   0  0  0  0  0  0  0  0  0  0  0  0
   10.6110  -11.5855   -4.5722 N   0  0  0  0  0  0  0  0  0  0  0  0
   10.2266   -8.2623   -3.4576 C   0  0  0  0  0  0  0  0  0  0  0  0
    9.5946   -7.0848   -3.0330 C   0  0  0  0  0  0  0  0  0  0  0  0
    8.2665   -4.7017   -2.1930 O   0  0  0  0  0  0  0  0  0  0  0  0
    5.6316   -1.4591   -1.4265 C   0  0  0  0  0  0  0  0  0  0  0  0
    1.2811   -1.9872   -4.4893 H   0  0  0  0  0  0  0  0  0  0  0  0
    0.9937   -0.4047   -3.7453 H   0  0  0  0  0  0  0  0  0  0  0  0
    0.7843   -1.8790   -2.7923 H   0  0  0  0  0  0  0  0  0  0  0  0
    3.4544   -0.8955   -3.9514 H   0  0  0  0  0  0  0  0  0  0  0  0
    3.2241   -2.3621   -2.9620 H   0  0  0  0  0  0  0  0  0  0  0  0
    4.8767    1.8563   -1.5911 H   0  0  0  0  0  0  0  0  0  0  0  0
    7.3060    2.0350   -1.5685 H   0  0  0  0  0  0  0  0  0  0  0  0
   10.7912    0.8149   -1.2434 H   0  0  0  0  0  0  0  0  0  0  0  0
    9.4842    1.3369   -0.1733 H   0  0  0  0  0  0  0  0  0  0  0  0
    9.5548    1.8958   -1.8939 H   0  0  0  0  0  0  0  0  0  0  0  0
    8.7923   -2.4041   -1.5864 H   0  0  0  0  0  0  0  0  0  0  0  0
    5.3312   -6.1420   -2.2932 H   0  0  0  0  0  0  0  0  0  0  0  0
    6.3659   -8.1480   -3.1777 H   0  0  0  0  0  0  0  0  0  0  0  0
    7.4692  -10.2051   -3.9281 H   0  0  0  0  0  0  0  0  0  0  0  0
   11.3123   -8.2930   -3.5237 H   0  0  0  0  0  0  0  0  0  0  0  0
   10.2056   -6.2206   -2.7732 H   0  0  0  0  0  0  0  0  0  0  0  0
    5.1259   -2.4095   -1.4498 H   0  0  0  0  0  0  0  0  0  0  0  0
  1  2  1  0  0  0  0
  1 28  1  0  0  0  0
  1 29  1  0  0  0  0
  1 30  1  0  0  0  0
  2  3  1  0  0  0  0
  2 31  1  0  0  0  0
  2 32  1  0  0  0  0
  3  4  2  0  0  0  0
  3  5  2  0  0  0  0
  3  6  1  0  0  0  0
  6  7  1  0  0  0  0
  6 27  2  0  0  0  0
  7  8  2  0  0  0  0
  7 33  1  0  0  0  0
  8  9  1  0  0  0  0
  8 34  1  0  0  0  0
  9 10  1  0  0  0  0
  9 12  2  0  0  0  0
 10 11  1  0  0  0  0
 11 35  1  0  0  0  0
 11 36  1  0  0  0  0
 11 37  1  0  0  0  0
 12 13  1  0  0  0  0
 12 27  1  0  0  0  0
 13 14  1  0  0  0  0
 13 38  1  0  0  0  0
 14 15  2  0  0  0  0
 14 26  1  0  0  0  0
 15 16  1  0  0  0  0
 16 17  2  0  0  0  0
 16 39  1  0  0  0  0
 17 18  1  0  0  0  0
 17 26  1  0  0  0  0
 18 19  1  0  0  0  0
 18 25  2  0  0  0  0
 19 20  2  0  0  0  0
 19 40  1  0  0  0  0
 20 21  1  0  0  0  0
 20 41  1  0  0  0  0
 21 22  1  0  0  0  0
 21 24  2  0  0  0  0
 22 23  3  0  0  0  0
 24 25  1  0  0  0  0
 24 42  1  0  0  0  0
 25 43  1  0  0  0  0
 27 44  1  0  0  0  0
M  END
$$$$
