CHEMBL233224
 OpenBabel04072215363D

 59 63  0  0  0  0  0  0  0  0999 V2000
   -7.5526   -2.3234   -1.4454 C   0  0  0  0  0  0  0  0  0  0  0  0
   -6.0941   -2.3432   -1.4702 N   0  0  0  0  0  0  0  0  0  0  0  0
   -5.5420   -1.1420   -0.8229 C   0  0  0  0  0  0  0  0  0  0  0  0
   -4.0009   -1.1651   -0.8094 C   0  0  0  0  0  0  0  0  0  0  0  0
   -3.4054   -2.3623   -0.1574 N   0  0  0  0  0  0  0  0  0  0  0  0
   -3.5908   -2.3879    1.3040 C   0  0  0  0  0  0  0  0  0  0  0  0
   -2.9486   -1.2303    2.1005 C   0  0  0  0  0  0  0  0  0  0  0  0
   -3.1454   -1.3294    3.6046 C   0  0  0  0  0  0  0  0  0  0  0  0
   -3.1515   -2.5611    4.2720 C   0  0  0  0  0  0  0  0  0  0  0  0
   -3.3050   -2.6199    5.6601 C   0  0  0  0  0  0  0  0  0  0  0  0
   -3.4283   -1.4589    6.4314 C   0  0  0  0  0  0  0  0  0  0  0  0
   -3.5424   -1.4987    7.8324 N   0  0  0  0  0  0  0  0  0  0  0  0
   -3.0024   -2.4696    8.6776 C   0  0  0  0  0  0  0  0  0  0  0  0
   -3.5980   -2.6892    9.8571 N   0  0  0  0  0  0  0  0  0  0  0  0
   -3.0405   -3.6375   10.6537 C   0  0  0  0  0  0  0  0  0  0  0  0
   -1.9267   -4.3793   10.3261 C   0  0  0  0  0  0  0  0  0  0  0  0
   -1.2989   -5.5543   11.4032 Cl  0  0  0  0  0  0  0  0  0  0  0  0
   -1.4030   -4.0913    9.0902 C   0  0  0  0  0  0  0  0  0  0  0  0
   -0.3856   -4.8865    8.4222 C   0  0  0  0  0  0  0  0  0  0  0  0
    0.7367   -4.3250    7.8393 C   0  0  0  0  0  0  0  0  0  0  0  0
    1.2902   -5.2775    7.0248 N   0  0  0  0  0  0  0  0  0  0  0  0
    0.3261   -6.2198    6.7452 C   0  0  0  0  0  0  0  0  0  0  0  0
    0.1640   -7.0767    5.6541 C   0  0  0  0  0  0  0  0  0  0  0  0
   -0.9217   -7.9576    5.6929 C   0  0  0  0  0  0  0  0  0  0  0  0
   -1.7362   -8.0481    6.8207 C   0  0  0  0  0  0  0  0  0  0  0  0
   -1.5830   -7.1528    7.8830 C   0  0  0  0  0  0  0  0  0  0  0  0
   -0.5918   -6.1565    7.7922 C   0  0  0  0  0  0  0  0  0  0  0  0
   -1.9126   -3.1346    8.2829 N   0  0  0  0  0  0  0  0  0  0  0  0
   -3.4325   -0.2267    5.7682 C   0  0  0  0  0  0  0  0  0  0  0  0
   -3.2740   -0.1614    4.3740 C   0  0  0  0  0  0  0  0  0  0  0  0
   -4.0056   -3.5583   -0.7757 C   0  0  0  0  0  0  0  0  0  0  0  0
   -5.5568   -3.5558   -0.8257 C   0  0  0  0  0  0  0  0  0  0  0  0
   -7.9310   -1.4391   -1.9708 H   0  0  0  0  0  0  0  0  0  0  0  0
   -7.9522   -2.3147   -0.4250 H   0  0  0  0  0  0  0  0  0  0  0  0
   -7.9568   -3.1966   -1.9681 H   0  0  0  0  0  0  0  0  0  0  0  0
   -5.9172   -1.0295    0.2020 H   0  0  0  0  0  0  0  0  0  0  0  0
   -5.8529   -0.2535   -1.3842 H   0  0  0  0  0  0  0  0  0  0  0  0
   -3.6080   -0.2405   -0.3693 H   0  0  0  0  0  0  0  0  0  0  0  0
   -3.6328   -1.1455   -1.8518 H   0  0  0  0  0  0  0  0  0  0  0  0
   -3.1240   -3.3199    1.6431 H   0  0  0  0  0  0  0  0  0  0  0  0
   -4.6508   -2.4516    1.5751 H   0  0  0  0  0  0  0  0  0  0  0  0
   -3.3849   -0.2807    1.7701 H   0  0  0  0  0  0  0  0  0  0  0  0
   -1.8724   -1.1877    1.8913 H   0  0  0  0  0  0  0  0  0  0  0  0
   -3.0348   -3.5043    3.7437 H   0  0  0  0  0  0  0  0  0  0  0  0
   -3.3235   -3.6020    6.1308 H   0  0  0  0  0  0  0  0  0  0  0  0
   -4.4093   -1.1439    8.2073 H   0  0  0  0  0  0  0  0  0  0  0  0
   -3.5559   -3.7932   11.5978 H   0  0  0  0  0  0  0  0  0  0  0  0
    1.1505   -3.3262    7.8869 H   0  0  0  0  0  0  0  0  0  0  0  0
    2.1765   -5.1980    6.5470 H   0  0  0  0  0  0  0  0  0  0  0  0
    0.8002   -7.0085    4.7778 H   0  0  0  0  0  0  0  0  0  0  0  0
   -1.1331   -8.5841    4.8297 H   0  0  0  0  0  0  0  0  0  0  0  0
   -2.5355   -8.7836    6.8550 H   0  0  0  0  0  0  0  0  0  0  0  0
   -2.2612   -7.1897    8.7296 H   0  0  0  0  0  0  0  0  0  0  0  0
   -3.5062    0.6951    6.3376 H   0  0  0  0  0  0  0  0  0  0  0  0
   -3.2335    0.8162    3.8965 H   0  0  0  0  0  0  0  0  0  0  0  0
   -3.6664   -4.4646   -0.2572 H   0  0  0  0  0  0  0  0  0  0  0  0
   -3.6280   -3.6466   -1.8007 H   0  0  0  0  0  0  0  0  0  0  0  0
   -5.9629   -3.6613    0.1910 H   0  0  0  0  0  0  0  0  0  0  0  0
   -5.8865   -4.4409   -1.3889 H   0  0  0  0  0  0  0  0  0  0  0  0
  1  2  1  0  0  0  0
  1 33  1  0  0  0  0
  1 34  1  0  0  0  0
  1 35  1  0  0  0  0
  2  3  1  0  0  0  0
  2 32  1  0  0  0  0
  3  4  1  0  0  0  0
  3 36  1  0  0  0  0
  3 37  1  0  0  0  0
  4  5  1  0  0  0  0
  4 38  1  0  0  0  0
  4 39  1  0  0  0  0
  5  6  1  0  0  0  0
  5 31  1  0  0  0  0
  6  7  1  0  0  0  0
  6 40  1  0  0  0  0
  6 41  1  0  0  0  0
  7  8  1  0  0  0  0
  7 42  1  0  0  0  0
  7 43  1  0  0  0  0
  8  9  1  0  0  0  0
  8 30  2  0  0  0  0
  9 10  2  0  0  0  0
  9 44  1  0  0  0  0
 10 11  1  0  0  0  0
 10 45  1  0  0  0  0
 11 12  1  0  0  0  0
 11 29  2  0  0  0  0
 12 13  1  0  0  0  0
 12 46  1  0  0  0  0
 13 14  1  0  0  0  0
 13 28  2  0  0  0  0
 14 15  2  0  0  0  0
 15 16  1  0  0  0  0
 15 47  1  0  0  0  0
 16 17  1  0  0  0  0
 16 18  2  0  0  0  0
 18 19  1  0  0  0  0
 18 28  1  0  0  0  0
 19 20  2  0  0  0  0
 19 27  1  0  0  0  0
 20 21  1  0  0  0  0
 20 48  1  0  0  0  0
 21 22  1  0  0  0  0
 21 49  1  0  0  0  0
 22 23  1  0  0  0  0
 22 27  2  0  0  0  0
 23 24  2  0  0  0  0
 23 50  1  0  0  0  0
 24 25  1  0  0  0  0
 24 51  1  0  0  0  0
 25 26  2  0  0  0  0
 25 52  1  0  0  0  0
 26 27  1  0  0  0  0
 26 53  1  0  0  0  0
 29 30  1  0  0  0  0
 29 54  1  0  0  0  0
 30 55  1  0  0  0  0
 31 32  1  0  0  0  0
 31 56  1  0  0  0  0
 31 57  1  0  0  0  0
 32 58  1  0  0  0  0
 32 59  1  0  0  0  0
M  END
$$$$
