CHEMBL2204532
 OpenBabel04072215363D

 64 68  0  0  0  0  0  0  0  0999 V2000
    1.1599    0.1138   -0.1399 C   0  0  0  0  0  0  0  0  0  0  0  0
    2.6159    0.0187   -0.0011 N   0  0  0  0  0  0  0  0  0  0  0  0
    3.2197   -1.2264   -0.2910 C   0  0  0  0  0  0  0  0  0  0  0  0
    2.7418   -2.0642   -1.3072 C   0  0  0  0  0  0  0  0  0  0  0  0
    3.3427   -3.2976   -1.5603 C   0  0  0  0  0  0  0  0  0  0  0  0
    4.4530   -3.7057   -0.8250 C   0  0  0  0  0  0  0  0  0  0  0  0
    4.9059   -4.9425   -1.0621 F   0  0  0  0  0  0  0  0  0  0  0  0
    4.9952   -2.8880    0.1688 C   0  0  0  0  0  0  0  0  0  0  0  0
    6.1348   -3.1874    0.9588 N   0  0  0  0  0  0  0  0  0  0  0  0
    7.1392   -4.0963    0.6775 C   0  0  0  0  0  0  0  0  0  0  0  0
    7.2119   -4.7783   -0.3395 O   0  0  0  0  0  0  0  0  0  0  0  0
    8.2258   -4.2754    1.7025 C   0  0  0  0  0  0  0  0  0  0  0  0
    9.2017   -5.2504    1.4230 C   0  0  0  0  0  0  0  0  0  0  0  0
   10.1420   -5.6091    2.3843 C   0  0  0  0  0  0  0  0  0  0  0  0
   10.0064   -5.1251    3.6840 C   0  0  0  0  0  0  0  0  0  0  0  0
    9.0161   -4.1871    3.9967 C   0  0  0  0  0  0  0  0  0  0  0  0
    8.9419   -3.8769    5.3259 O   0  0  0  0  0  0  0  0  0  0  0  0
    7.6950   -3.5629    6.0245 C   0  0  0  0  0  0  0  0  0  0  0  0
    7.4405   -4.6461    7.0907 C   0  0  0  0  0  0  0  0  0  0  0  0
    7.9800   -2.2356    6.7374 C   0  0  0  0  0  0  0  0  0  0  0  0
    6.4453   -3.4870    5.2367 C   0  0  0  0  0  0  0  0  0  0  0  0
    5.4453   -3.4444    4.6378 N   0  0  0  0  0  0  0  0  0  0  0  0
    8.2847   -3.6222    2.9406 C   0  0  0  0  0  0  0  0  0  0  0  0
    7.8457   -1.9330    3.0407 Cl  0  0  0  0  0  0  0  0  0  0  0  0
    4.3491   -1.6659    0.4370 C   0  0  0  0  0  0  0  0  0  0  0  0
    3.2677    1.2714    0.2158 C   0  0  0  0  0  0  0  0  0  0  0  0
    4.5917    1.4056   -0.2355 C   0  0  0  0  0  0  0  0  0  0  0  0
    5.3019    2.5890   -0.0715 C   0  0  0  0  0  0  0  0  0  0  0  0
    4.6453    3.6453    0.5519 C   0  0  0  0  0  0  0  0  0  0  0  0
    5.1561    4.8980    0.7887 N   0  0  0  0  0  0  0  0  0  0  0  0
    4.2502    5.6266    1.3802 C   0  0  0  0  0  0  0  0  0  0  0  0
    4.3518    6.9467    1.7368 N   0  0  0  0  0  0  0  0  0  0  0  0
    5.3230    7.7530    1.1799 C   0  0  0  0  0  0  0  0  0  0  0  0
    6.1498    7.4430    0.3319 O   0  0  0  0  0  0  0  0  0  0  0  0
    5.2538    9.1765    1.6455 C   0  0  0  0  0  0  0  0  0  0  0  0
    4.9508   10.2743    0.6518 C   0  0  0  0  0  0  0  0  0  0  0  0
    6.3256   10.1681    1.2427 C   0  0  0  0  0  0  0  0  0  0  0  0
    2.7639    4.8539    1.7448 S   0  0  0  0  0  0  0  0  0  0  0  0
    3.3358    3.4307    0.9704 C   0  0  0  0  0  0  0  0  0  0  0  0
    2.6066    2.2990    0.8198 N   0  0  0  0  0  0  0  0  0  0  0  0
    0.6830   -0.8622   -0.2962 H   0  0  0  0  0  0  0  0  0  0  0  0
    0.8931    0.7423   -0.9978 H   0  0  0  0  0  0  0  0  0  0  0  0
    0.6949    0.5180    0.7649 H   0  0  0  0  0  0  0  0  0  0  0  0
    1.9005   -1.7684   -1.9280 H   0  0  0  0  0  0  0  0  0  0  0  0
    2.9428   -3.9570   -2.3247 H   0  0  0  0  0  0  0  0  0  0  0  0
    6.2634   -2.5941    1.7714 H   0  0  0  0  0  0  0  0  0  0  0  0
    9.2401   -5.7227    0.4430 H   0  0  0  0  0  0  0  0  0  0  0  0
   10.9387   -6.3061    2.1317 H   0  0  0  0  0  0  0  0  0  0  0  0
   10.6927   -5.4739    4.4526 H   0  0  0  0  0  0  0  0  0  0  0  0
    8.2796   -4.7443    7.7866 H   0  0  0  0  0  0  0  0  0  0  0  0
    7.2908   -5.6269    6.6254 H   0  0  0  0  0  0  0  0  0  0  0  0
    6.5369   -4.4189    7.6748 H   0  0  0  0  0  0  0  0  0  0  0  0
    8.7450   -2.3738    7.5127 H   0  0  0  0  0  0  0  0  0  0  0  0
    7.0883   -1.8110    7.2095 H   0  0  0  0  0  0  0  0  0  0  0  0
    8.3918   -1.4947    6.0435 H   0  0  0  0  0  0  0  0  0  0  0  0
    4.7373   -1.0259    1.2283 H   0  0  0  0  0  0  0  0  0  0  0  0
    5.0885    0.5944   -0.7565 H   0  0  0  0  0  0  0  0  0  0  0  0
    6.3206    2.6990   -0.4259 H   0  0  0  0  0  0  0  0  0  0  0  0
    3.6295    7.3376    2.3206 H   0  0  0  0  0  0  0  0  0  0  0  0
    4.8389    9.3064    2.6507 H   0  0  0  0  0  0  0  0  0  0  0  0
    4.3266   11.0971    0.9693 H   0  0  0  0  0  0  0  0  0  0  0  0
    4.8457   10.0154   -0.4006 H   0  0  0  0  0  0  0  0  0  0  0  0
    6.6294   10.9135    1.9679 H   0  0  0  0  0  0  0  0  0  0  0  0
    7.1268    9.8472    0.5844 H   0  0  0  0  0  0  0  0  0  0  0  0
  1  2  1  0  0  0  0
  1 41  1  0  0  0  0
  1 42  1  0  0  0  0
  1 43  1  0  0  0  0
  2  3  1  0  0  0  0
  2 26  1  0  0  0  0
  3  4  1  0  0  0  0
  3 25  2  0  0  0  0
  4  5  2  0  0  0  0
  4 44  1  0  0  0  0
  5  6  1  0  0  0  0
  5 45  1  0  0  0  0
  6  7  1  0  0  0  0
  6  8  2  0  0  0  0
  8  9  1  0  0  0  0
  8 25  1  0  0  0  0
  9 10  1  0  0  0  0
  9 46  1  0  0  0  0
 10 11  2  0  0  0  0
 10 12  1  0  0  0  0
 12 13  1  0  0  0  0
 12 23  2  0  0  0  0
 13 14  2  0  0  0  0
 13 47  1  0  0  0  0
 14 15  1  0  0  0  0
 14 48  1  0  0  0  0
 15 16  2  0  0  0  0
 15 49  1  0  0  0  0
 16 17  1  0  0  0  0
 16 23  1  0  0  0  0
 17 18  1  0  0  0  0
 18 19  1  0  0  0  0
 18 20  1  0  0  0  0
 18 21  1  0  0  0  0
 19 50  1  0  0  0  0
 19 51  1  0  0  0  0
 19 52  1  0  0  0  0
 20 53  1  0  0  0  0
 20 54  1  0  0  0  0
 20 55  1  0  0  0  0
 21 22  3  0  0  0  0
 23 24  1  0  0  0  0
 25 56  1  0  0  0  0
 26 27  1  0  0  0  0
 26 40  2  0  0  0  0
 27 28  2  0  0  0  0
 27 57  1  0  0  0  0
 28 29  1  0  0  0  0
 28 58  1  0  0  0  0
 29 30  1  0  0  0  0
 29 39  2  0  0  0  0
 30 31  2  0  0  0  0
 31 32  1  0  0  0  0
 31 38  1  0  0  0  0
 32 33  1  0  0  0  0
 32 59  1  0  0  0  0
 33 34  2  0  0  0  0
 33 35  1  0  0  0  0
 35 36  1  0  0  0  0
 35 37  1  0  0  0  0
 35 60  1  0  0  0  0
 36 37  1  0  0  0  0
 36 61  1  0  0  0  0
 36 62  1  0  0  0  0
 37 63  1  0  0  0  0
 37 64  1  0  0  0  0
 38 39  1  0  0  0  0
 39 40  1  0  0  0  0
M  END
$$$$
