CHEMBL2010870
 OpenBabel04072215363D

 60 66  0  0  0  0  0  0  0  0999 V2000
    3.1253   -0.7845   -1.4901 C   0  0  0  0  0  0  0  0  0  0  0  0
    3.1726    0.3103   -0.4219 C   0  0  0  0  0  0  0  0  0  0  0  0
    3.7455   -0.2399    0.8858 C   0  0  0  0  0  0  0  0  0  0  0  0
    3.7678    1.5957   -0.8118 N   0  0  0  0  0  0  0  0  0  0  0  0
    3.2476    2.8144   -0.2806 C   0  0  0  0  0  0  0  0  0  0  0  0
    2.3592    3.0748    0.7838 C   0  0  0  0  0  0  0  0  0  0  0  0
    1.8941    4.3931    0.9794 C   0  0  0  0  0  0  0  0  0  0  0  0
    2.2821    5.4425    0.1511 C   0  0  0  0  0  0  0  0  0  0  0  0
    1.8233    6.7609    0.2387 N   0  0  0  0  0  0  0  0  0  0  0  0
    0.9959    7.4351    1.1251 C   0  0  0  0  0  0  0  0  0  0  0  0
    0.7907    7.0022    2.3675 N   0  0  0  0  0  0  0  0  0  0  0  0
    0.0398    7.7916    3.1591 C   0  0  0  0  0  0  0  0  0  0  0  0
   -0.5553    8.9605    2.7455 C   0  0  0  0  0  0  0  0  0  0  0  0
   -0.2971    9.3074    1.4448 C   0  0  0  0  0  0  0  0  0  0  0  0
    0.4745    8.5579    0.6305 N   0  0  0  0  0  0  0  0  0  0  0  0
    3.2274    5.1737   -0.8431 C   0  0  0  0  0  0  0  0  0  0  0  0
    3.6774    3.8680   -1.0908 C   0  0  0  0  0  0  0  0  0  0  0  0
    4.4004    3.2245   -2.0669 C   0  0  0  0  0  0  0  0  0  0  0  0
    4.6664    3.8365   -3.3032 C   0  0  0  0  0  0  0  0  0  0  0  0
    4.8776    2.9519   -4.3794 C   0  0  0  0  0  0  0  0  0  0  0  0
    4.9777    1.5585   -4.2350 C   0  0  0  0  0  0  0  0  0  0  0  0
    5.3217    1.1641   -2.8939 C   0  0  0  0  0  0  0  0  0  0  0  0
    4.6155    1.8824   -1.8960 C   0  0  0  0  0  0  0  0  0  0  0  0
    6.8812    0.8421   -2.7823 C   0  0  0  0  0  0  0  0  0  0  0  0
    7.7340    1.1912   -4.0774 C   0  0  0  0  0  0  0  0  0  0  0  0
    7.0039    0.6126   -5.2368 C   0  0  0  0  0  0  0  0  0  0  0  0
    7.4250   -0.3290   -6.0802 N   0  0  0  0  0  0  0  0  0  0  0  0
    6.2620   -0.7879   -6.6094 N   0  0  0  0  0  0  0  0  0  0  0  0
    6.2792   -1.9356   -7.4835 C   0  0  0  0  0  0  0  0  0  0  0  0
    5.1418   -0.2218   -6.0497 C   0  0  0  0  0  0  0  0  0  0  0  0
    5.6159    0.8132   -5.2876 C   0  0  0  0  0  0  0  0  0  0  0  0
    5.1254    3.7643   -5.5500 C   0  0  0  0  0  0  0  0  0  0  0  0
    5.3761    3.5072   -6.7199 O   0  0  0  0  0  0  0  0  0  0  0  0
    5.0731    5.0743   -5.0827 N   0  0  0  0  0  0  0  0  0  0  0  0
    4.7068    5.2411   -3.6990 C   0  0  0  0  0  0  0  0  0  0  0  0
    2.5412   -1.6390   -1.1234 H   0  0  0  0  0  0  0  0  0  0  0  0
    4.1215   -1.1564   -1.7436 H   0  0  0  0  0  0  0  0  0  0  0  0
    2.6356   -0.4281   -2.4021 H   0  0  0  0  0  0  0  0  0  0  0  0
    2.1152    0.5444   -0.2280 H   0  0  0  0  0  0  0  0  0  0  0  0
    4.7754   -0.5854    0.7610 H   0  0  0  0  0  0  0  0  0  0  0  0
    3.1429   -1.0883    1.2353 H   0  0  0  0  0  0  0  0  0  0  0  0
    3.7327    0.5110    1.6823 H   0  0  0  0  0  0  0  0  0  0  0  0
    1.9808    2.2800    1.4180 H   0  0  0  0  0  0  0  0  0  0  0  0
    1.1716    4.5697    1.7722 H   0  0  0  0  0  0  0  0  0  0  0  0
    1.8706    7.2988   -0.6182 H   0  0  0  0  0  0  0  0  0  0  0  0
   -0.0855    7.4371    4.1771 H   0  0  0  0  0  0  0  0  0  0  0  0
   -1.1669    9.5661    3.3944 H   0  0  0  0  0  0  0  0  0  0  0  0
   -0.7186   10.2094    1.0043 H   0  0  0  0  0  0  0  0  0  0  0  0
    3.5830    5.9969   -1.4498 H   0  0  0  0  0  0  0  0  0  0  0  0
    6.9820   -0.2309   -2.5874 H   0  0  0  0  0  0  0  0  0  0  0  0
    7.3069    1.3974   -1.9388 H   0  0  0  0  0  0  0  0  0  0  0  0
    8.7618    0.8254   -4.0117 H   0  0  0  0  0  0  0  0  0  0  0  0
    7.7870    2.2842   -4.2052 H   0  0  0  0  0  0  0  0  0  0  0  0
    7.2702   -2.0344   -7.9330 H   0  0  0  0  0  0  0  0  0  0  0  0
    5.5284   -1.7928   -8.2643 H   0  0  0  0  0  0  0  0  0  0  0  0
    6.0452   -2.8194   -6.8845 H   0  0  0  0  0  0  0  0  0  0  0  0
    4.1545   -0.6356   -6.1986 H   0  0  0  0  0  0  0  0  0  0  0  0
    5.2780    5.8356   -5.7123 H   0  0  0  0  0  0  0  0  0  0  0  0
    3.7294    5.7231   -3.6567 H   0  0  0  0  0  0  0  0  0  0  0  0
    5.4773    5.8061   -3.1692 H   0  0  0  0  0  0  0  0  0  0  0  0
  1  2  1  0  0  0  0
  1 36  1  0  0  0  0
  1 37  1  0  0  0  0
  1 38  1  0  0  0  0
  2  3  1  0  0  0  0
  2  4  1  0  0  0  0
  2 39  1  0  0  0  0
  3 40  1  0  0  0  0
  3 41  1  0  0  0  0
  3 42  1  0  0  0  0
  4  5  1  0  0  0  0
  4 23  1  0  0  0  0
  5  6  1  0  0  0  0
  5 17  2  0  0  0  0
  6  7  2  0  0  0  0
  6 43  1  0  0  0  0
  7  8  1  0  0  0  0
  7 44  1  0  0  0  0
  8  9  1  0  0  0  0
  8 16  2  0  0  0  0
  9 10  1  0  0  0  0
  9 45  1  0  0  0  0
 10 11  1  0  0  0  0
 10 15  2  0  0  0  0
 11 12  2  0  0  0  0
 12 13  1  0  0  0  0
 12 46  1  0  0  0  0
 13 14  2  0  0  0  0
 13 47  1  0  0  0  0
 14 15  1  0  0  0  0
 14 48  1  0  0  0  0
 16 17  1  0  0  0  0
 16 49  1  0  0  0  0
 17 18  1  0  0  0  0
 18 19  1  0  0  0  0
 18 23  2  0  0  0  0
 19 20  2  0  0  0  0
 19 35  1  0  0  0  0
 20 21  1  0  0  0  0
 20 32  1  0  0  0  0
 21 22  2  0  0  0  0
 21 31  1  0  0  0  0
 22 23  1  0  0  0  0
 22 24  1  0  0  0  0
 24 25  1  0  0  0  0
 24 50  1  0  0  0  0
 24 51  1  0  0  0  0
 25 26  1  0  0  0  0
 25 52  1  0  0  0  0
 25 53  1  0  0  0  0
 26 27  2  0  0  0  0
 26 31  1  0  0  0  0
 27 28  1  0  0  0  0
 28 29  1  0  0  0  0
 28 30  1  0  0  0  0
 29 54  1  0  0  0  0
 29 55  1  0  0  0  0
 29 56  1  0  0  0  0
 30 31  2  0  0  0  0
 30 57  1  0  0  0  0
 32 33  2  0  0  0  0
 32 34  1  0  0  0  0
 34 35  1  0  0  0  0
 34 58  1  0  0  0  0
 35 59  1  0  0  0  0
 35 60  1  0  0  0  0
M  END
$$$$
