CHEMBL205463
 OpenBabel04072215363D

 43 46  0  0  0  0  0  0  0  0999 V2000
    2.1048    0.0512   -0.0073 C   0  0  0  0  0  0  0  0  0  0  0  0
    0.6658   -0.0674    0.0203 N   0  0  0  0  0  0  0  0  0  0  0  0
   -0.2076    0.9814    0.1169 C   0  0  0  0  0  0  0  0  0  0  0  0
   -1.4530    0.5688    0.2057 N   0  0  0  0  0  0  0  0  0  0  0  0
   -1.3757   -0.7873    0.1055 C   0  0  0  0  0  0  0  0  0  0  0  0
   -2.4663   -1.5692    0.1380 N   0  0  0  0  0  0  0  0  0  0  0  0
   -3.7085   -1.1421    0.7380 C   0  0  0  0  0  0  0  0  0  0  0  0
   -4.4200   -2.3568    1.2965 C   0  0  0  0  0  0  0  0  0  0  0  0
   -3.7998   -3.1690    2.2557 C   0  0  0  0  0  0  0  0  0  0  0  0
   -4.4869   -4.2661    2.7518 C   0  0  0  0  0  0  0  0  0  0  0  0
   -5.7336   -4.6063    2.3639 N   0  0  0  0  0  0  0  0  0  0  0  0
   -6.3199   -3.8083    1.4460 C   0  0  0  0  0  0  0  0  0  0  0  0
   -5.7140   -2.6902    0.8892 C   0  0  0  0  0  0  0  0  0  0  0  0
   -0.0771   -1.2234    0.0003 C   0  0  0  0  0  0  0  0  0  0  0  0
    0.4454   -2.5457   -0.0348 C   0  0  0  0  0  0  0  0  0  0  0  0
    1.7330   -2.8243   -0.0578 N   0  0  0  0  0  0  0  0  0  0  0  0
    1.8416   -4.1900   -0.0604 N   0  0  0  0  0  0  0  0  0  0  0  0
    0.6202   -4.6759   -0.0326 C   0  0  0  0  0  0  0  0  0  0  0  0
    0.1526   -5.9369   -0.0183 N   0  0  0  0  0  0  0  0  0  0  0  0
    0.9112   -7.1220   -0.0148 C   0  0  0  0  0  0  0  0  0  0  0  0
    2.3142   -7.1401    0.0235 C   0  0  0  0  0  0  0  0  0  0  0  0
    3.0324   -8.3379    0.0033 C   0  0  0  0  0  0  0  0  0  0  0  0
    2.3506   -9.5450   -0.0603 C   0  0  0  0  0  0  0  0  0  0  0  0
    3.3223  -11.1648   -0.0863 Br  0  0  0  0  0  0  0  0  0  0  0  0
    0.9602   -9.5621   -0.1083 C   0  0  0  0  0  0  0  0  0  0  0  0
    0.2476   -8.3574   -0.0869 C   0  0  0  0  0  0  0  0  0  0  0  0
   -0.3229   -3.6880   -0.0201 O   0  0  0  0  0  0  0  0  0  0  0  0
    2.3871    1.1067    0.0022 H   0  0  0  0  0  0  0  0  0  0  0  0
    2.4800   -0.4172   -0.9207 H   0  0  0  0  0  0  0  0  0  0  0  0
    2.5119   -0.4394    0.8815 H   0  0  0  0  0  0  0  0  0  0  0  0
    0.1154    2.0146    0.1282 H   0  0  0  0  0  0  0  0  0  0  0  0
   -2.5219   -2.3985   -0.4433 H   0  0  0  0  0  0  0  0  0  0  0  0
   -4.3268   -0.6390   -0.0130 H   0  0  0  0  0  0  0  0  0  0  0  0
   -3.5438   -0.4393    1.5648 H   0  0  0  0  0  0  0  0  0  0  0  0
   -2.7959   -2.9508    2.6076 H   0  0  0  0  0  0  0  0  0  0  0  0
   -4.0395   -4.9173    3.4975 H   0  0  0  0  0  0  0  0  0  0  0  0
   -7.3272   -4.0985    1.1604 H   0  0  0  0  0  0  0  0  0  0  0  0
   -6.2484   -2.0960    0.1562 H   0  0  0  0  0  0  0  0  0  0  0  0
   -0.8500   -6.0590    0.0254 H   0  0  0  0  0  0  0  0  0  0  0  0
    2.8951   -6.2233    0.0732 H   0  0  0  0  0  0  0  0  0  0  0  0
    4.1182   -8.3042    0.0368 H   0  0  0  0  0  0  0  0  0  0  0  0
    0.4201  -10.5033   -0.1656 H   0  0  0  0  0  0  0  0  0  0  0  0
   -0.8384   -8.3969   -0.1328 H   0  0  0  0  0  0  0  0  0  0  0  0
  1  2  1  0  0  0  0
  1 28  1  0  0  0  0
  1 29  1  0  0  0  0
  1 30  1  0  0  0  0
  2  3  1  0  0  0  0
  2 14  1  0  0  0  0
  3  4  2  0  0  0  0
  3 31  1  0  0  0  0
  4  5  1  0  0  0  0
  5  6  1  0  0  0  0
  5 14  2  0  0  0  0
  6  7  1  0  0  0  0
  6 32  1  0  0  0  0
  7  8  1  0  0  0  0
  7 33  1  0  0  0  0
  7 34  1  0  0  0  0
  8  9  1  0  0  0  0
  8 13  2  0  0  0  0
  9 10  2  0  0  0  0
  9 35  1  0  0  0  0
 10 11  1  0  0  0  0
 10 36  1  0  0  0  0
 11 12  2  0  0  0  0
 12 13  1  0  0  0  0
 12 37  1  0  0  0  0
 13 38  1  0  0  0  0
 14 15  1  0  0  0  0
 15 16  2  0  0  0  0
 15 27  1  0  0  0  0
 16 17  1  0  0  0  0
 17 18  2  0  0  0  0
 18 19  1  0  0  0  0
 18 27  1  0  0  0  0
 19 20  1  0  0  0  0
 19 39  1  0  0  0  0
 20 21  1  0  0  0  0
 20 26  2  0  0  0  0
 21 22  2  0  0  0  0
 21 40  1  0  0  0  0
 22 23  1  0  0  0  0
 22 41  1  0  0  0  0
 23 24  1  0  0  0  0
 23 25  2  0  0  0  0
 25 26  1  0  0  0  0
 25 42  1  0  0  0  0
 26 43  1  0  0  0  0
M  END
$$$$
