CHEMBL204163
 OpenBabel04072215363D

 39 41  0  0  1  0  0  0  0  0999 V2000
   12.2025   -0.8886   -5.3438 N   0  0  0  0  0  0  0  0  0  0  0  0
   11.6180   -1.5053   -4.5470 C   0  0  0  0  0  0  0  0  0  0  0  0
   10.8898   -2.2635   -3.6010 C   0  0  0  0  0  0  0  0  0  0  0  0
    9.9383   -3.2035   -3.9124 C   0  0  0  0  0  0  0  0  0  0  0  0
    9.3452   -3.7918   -2.8260 N   0  0  0  0  0  0  0  0  0  0  0  0
    9.7786   -3.2762   -1.6928 C   0  0  0  0  0  0  0  0  0  0  0  0
    9.2777   -3.5458   -0.4607 N   0  0  0  0  0  0  0  0  0  0  0  0
    7.9599   -3.9905   -0.2497 C   0  0  0  0  0  0  0  0  0  0  0  0
    7.2846   -4.7236   -1.2024 C   0  0  0  0  0  0  0  0  0  0  0  0
    5.9346   -4.9484   -1.0687 C   0  0  0  0  0  0  0  0  0  0  0  0
    5.2361   -5.5676   -2.0945 N   0  0  0  0  0  0  0  0  0  0  0  0
    5.6611   -5.4065   -3.4854 C   0  0  0  0  0  0  0  0  0  0  0  0
    6.3105   -6.7015   -3.9616 C   0  0  0  0  0  0  0  0  0  0  0  0
    5.3108   -7.7073   -4.5289 C   0  0  0  0  0  0  0  0  0  0  0  0
    3.9417   -7.7772   -3.8278 C   0  0  3  0  0  0  0  0  0  0  0  0
    3.2701   -9.0144   -4.2442 N   0  0  0  0  0  0  0  0  0  0  0  0
    4.0140   -7.7068   -2.2972 C   0  0  0  0  0  0  0  0  0  0  0  0
    3.9962   -6.2595   -1.7825 C   0  0  0  0  0  0  0  0  0  0  0  0
    5.3109   -4.5663    0.0526 N   0  0  0  0  0  0  0  0  0  0  0  0
    6.0566   -3.9455    0.9806 C   0  0  0  0  0  0  0  0  0  0  0  0
    7.3590   -3.6270    0.8885 N   0  0  0  0  0  0  0  0  0  0  0  0
   11.0549   -2.1353   -1.9029 S   0  0  0  0  0  0  0  0  0  0  0  0
    9.6184   -3.5014   -4.9053 H   0  0  0  0  0  0  0  0  0  0  0  0
    9.5643   -2.9701    0.3218 H   0  0  0  0  0  0  0  0  0  0  0  0
    7.7985   -5.1084   -2.0677 H   0  0  0  0  0  0  0  0  0  0  0  0
    6.3774   -4.5829   -3.6035 H   0  0  0  0  0  0  0  0  0  0  0  0
    4.8167   -5.1194   -4.1237 H   0  0  0  0  0  0  0  0  0  0  0  0
    6.8643   -7.1739   -3.1389 H   0  0  0  0  0  0  0  0  0  0  0  0
    7.0556   -6.4799   -4.7352 H   0  0  0  0  0  0  0  0  0  0  0  0
    5.7979   -8.6917   -4.5253 H   0  0  0  0  0  0  0  0  0  0  0  0
    5.1402   -7.4633   -5.5863 H   0  0  0  0  0  0  0  0  0  0  0  0
    3.3168   -6.9523   -4.1908 H   0  0  0  0  0  0  0  0  0  0  0  0
    3.8208   -9.8219   -3.9538 H   0  0  0  0  0  0  0  0  0  0  0  0
    3.2259   -9.0527   -5.2623 H   0  0  0  0  0  0  0  0  0  0  0  0
    4.8962   -8.2434   -1.9227 H   0  0  0  0  0  0  0  0  0  0  0  0
    3.1394   -8.2077   -1.8625 H   0  0  0  0  0  0  0  0  0  0  0  0
    3.8269   -6.3134   -0.7004 H   0  0  0  0  0  0  0  0  0  0  0  0
    3.1459   -5.7099   -2.2026 H   0  0  0  0  0  0  0  0  0  0  0  0
    5.5464   -3.6563    1.8922 H   0  0  0  0  0  0  0  0  0  0  0  0
  1  2  3  0  0  0  0
  2  3  1  0  0  0  0
  3  4  2  0  0  0  0
  3 22  1  0  0  0  0
  4  5  1  0  0  0  0
  4 23  1  0  0  0  0
  5  6  2  0  0  0  0
  6  7  1  0  0  0  0
  6 22  1  0  0  0  0
  7  8  1  0  0  0  0
  7 24  1  0  0  0  0
  8  9  1  0  0  0  0
  8 21  2  0  0  0  0
  9 10  2  0  0  0  0
  9 25  1  0  0  0  0
 10 11  1  0  0  0  0
 10 19  1  0  0  0  0
 11 12  1  0  0  0  0
 11 18  1  0  0  0  0
 12 13  1  0  0  0  0
 12 26  1  0  0  0  0
 12 27  1  0  0  0  0
 13 14  1  0  0  0  0
 13 28  1  0  0  0  0
 13 29  1  0  0  0  0
 14 15  1  0  0  0  0
 14 30  1  0  0  0  0
 14 31  1  0  0  0  0
 15 16  1  0  0  0  0
 15 17  1  0  0  0  0
 15 32  1  0  0  0  0
 16 33  1  0  0  0  0
 16 34  1  0  0  0  0
 17 18  1  0  0  0  0
 17 35  1  0  0  0  0
 17 36  1  0  0  0  0
 18 37  1  0  0  0  0
 18 38  1  0  0  0  0
 19 20  2  0  0  0  0
 20 21  1  0  0  0  0
 20 39  1  0  0  0  0
M  END
$$$$
