CHEMBL477768
 OpenBabel04072215383D

 37 39  0  0  1  0  0  0  0  0999 V2000
    1.0141   -0.1482    0.0246 O   0  0  0  0  0  0  0  0  0  0  0  0
    2.2384   -0.1117   -0.0206 C   0  0  0  0  0  0  0  0  0  0  0  0
    3.0316   -1.3344   -0.2727 C   0  0  0  0  0  0  0  0  0  0  0  0
    2.4570   -2.6008   -0.0983 C   0  0  0  0  0  0  0  0  0  0  0  0
    3.2281   -3.7478   -0.3103 C   0  0  0  0  0  0  0  0  0  0  0  0
    4.5576   -3.6096   -0.6888 C   0  0  0  0  0  0  0  0  0  0  0  0
    5.3665   -4.6954   -0.8982 O   0  0  0  0  0  0  0  0  0  0  0  0
    5.1209   -2.3459   -0.8730 C   0  0  0  0  0  0  0  0  0  0  0  0
    6.4358   -2.2554   -1.2482 O   0  0  0  0  0  0  0  0  0  0  0  0
    4.3608   -1.1950   -0.6840 C   0  0  0  0  0  0  0  0  0  0  0  0
    4.9717    0.0141   -0.8843 O   0  0  0  0  0  0  0  0  0  0  0  0
    4.0604    1.1005   -1.0536 C   0  0  0  0  0  0  0  0  0  0  0  0
    3.0310    1.1907    0.0768 C   0  0  1  0  0  0  0  0  0  0  0  0
    2.1985    2.3249   -0.1958 O   0  0  0  0  0  0  0  0  0  0  0  0
    3.7233    1.3378    1.4542 C   0  0  0  0  0  0  0  0  0  0  0  0
    2.8143    1.3674    2.6671 C   0  0  0  0  0  0  0  0  0  0  0  0
    1.9214    2.4342    2.8673 C   0  0  0  0  0  0  0  0  0  0  0  0
    1.1083    2.4938    4.0037 C   0  0  0  0  0  0  0  0  0  0  0  0
    1.1988    1.4861    4.9533 C   0  0  0  0  0  0  0  0  0  0  0  0
    0.4364    1.4936    6.0909 O   0  0  0  0  0  0  0  0  0  0  0  0
    2.0869    0.4300    4.7725 C   0  0  0  0  0  0  0  0  0  0  0  0
    2.1791   -0.5482    5.7224 O   0  0  0  0  0  0  0  0  0  0  0  0
    2.8934    0.3606    3.6425 C   0  0  0  0  0  0  0  0  0  0  0  0
    1.4194   -2.6898    0.2112 H   0  0  0  0  0  0  0  0  0  0  0  0
    2.7765   -4.7252   -0.1674 H   0  0  0  0  0  0  0  0  0  0  0  0
    4.8513   -5.5025   -0.7260 H   0  0  0  0  0  0  0  0  0  0  0  0
    6.7479   -3.1797   -1.3036 H   0  0  0  0  0  0  0  0  0  0  0  0
    3.5705    1.0120   -2.0345 H   0  0  0  0  0  0  0  0  0  0  0  0
    4.6478    2.0253   -1.1009 H   0  0  0  0  0  0  0  0  0  0  0  0
    1.3378    1.9684   -0.4973 H   0  0  0  0  0  0  0  0  0  0  0  0
    4.4501    0.5271    1.6000 H   0  0  0  0  0  0  0  0  0  0  0  0
    4.3084    2.2663    1.4683 H   0  0  0  0  0  0  0  0  0  0  0  0
    1.8598    3.2380    2.1353 H   0  0  0  0  0  0  0  0  0  0  0  0
    0.4287    3.3303    4.1255 H   0  0  0  0  0  0  0  0  0  0  0  0
   -0.1360    2.2766    6.0610 H   0  0  0  0  0  0  0  0  0  0  0  0
    1.5353   -0.2793    6.4079 H   0  0  0  0  0  0  0  0  0  0  0  0
    3.5865   -0.4702    3.5415 H   0  0  0  0  0  0  0  0  0  0  0  0
  1  2  2  0  0  0  0
  2  3  1  0  0  0  0
  2 13  1  0  0  0  0
  3  4  1  0  0  0  0
  3 10  2  0  0  0  0
  4  5  2  0  0  0  0
  4 24  1  0  0  0  0
  5  6  1  0  0  0  0
  5 25  1  0  0  0  0
  6  7  1  0  0  0  0
  6  8  2  0  0  0  0
  7 26  1  0  0  0  0
  8  9  1  0  0  0  0
  8 10  1  0  0  0  0
  9 27  1  0  0  0  0
 10 11  1  0  0  0  0
 11 12  1  0  0  0  0
 12 13  1  0  0  0  0
 12 28  1  0  0  0  0
 12 29  1  0  0  0  0
 13 15  1  0  0  0  0
 13 14  1  6  0  0  0
 14 30  1  0  0  0  0
 15 16  1  0  0  0  0
 15 31  1  0  0  0  0
 15 32  1  0  0  0  0
 16 17  1  0  0  0  0
 16 23  2  0  0  0  0
 17 18  2  0  0  0  0
 17 33  1  0  0  0  0
 18 19  1  0  0  0  0
 18 34  1  0  0  0  0
 19 20  1  0  0  0  0
 19 21  2  0  0  0  0
 20 35  1  0  0  0  0
 21 22  1  0  0  0  0
 21 23  1  0  0  0  0
 22 36  1  0  0  0  0
 23 37  1  0  0  0  0
M  END
$$$$
