CHEMBL3905688
 OpenBabel04072215373D

 58 61  0  0  0  0  0  0  0  0999 V2000
    3.3179    5.9858    1.6121 C   0  0  0  0  0  0  0  0  0  0  0  0
    1.9262    6.4222    1.2569 C   0  0  0  0  0  0  0  0  0  0  0  0
    1.5968    7.7809    1.2726 C   0  0  0  0  0  0  0  0  0  0  0  0
    0.3188    8.1910    0.9108 C   0  0  0  0  0  0  0  0  0  0  0  0
   -0.6422    7.2508    0.5494 C   0  0  0  0  0  0  0  0  0  0  0  0
   -1.7985    7.7413    0.0898 F   0  0  0  0  0  0  0  0  0  0  0  0
   -0.3684    5.8750    0.5825 C   0  0  0  0  0  0  0  0  0  0  0  0
   -1.3166    4.8522    0.3117 N   0  0  0  0  0  0  0  0  0  0  0  0
   -2.6942    4.9975    0.3188 C   0  0  0  0  0  0  0  0  0  0  0  0
   -3.3096    6.0237    0.5691 O   0  0  0  0  0  0  0  0  0  0  0  0
   -3.3420    3.7895    0.0781 N   0  0  0  0  0  0  0  0  0  0  0  0
   -4.7600    3.7546    0.0179 C   0  0  0  0  0  0  0  0  0  0  0  0
   -5.4926    4.6678   -0.7461 C   0  0  0  0  0  0  0  0  0  0  0  0
   -6.8909    4.6649   -0.6919 C   0  0  0  0  0  0  0  0  0  0  0  0
   -7.5626    3.7585    0.1335 C   0  0  0  0  0  0  0  0  0  0  0  0
   -8.9356    3.8767    0.1727 O   0  0  0  0  0  0  0  0  0  0  0  0
   -9.6136    3.5642    1.3338 C   0  0  0  0  0  0  0  0  0  0  0  0
   -9.1083    3.8065    2.6125 C   0  0  0  0  0  0  0  0  0  0  0  0
   -9.8385    3.3999    3.7118 C   0  0  0  0  0  0  0  0  0  0  0  0
  -11.0542    2.8315    3.6649 N   0  0  0  0  0  0  0  0  0  0  0  0
  -11.5971    2.7016    2.4260 C   0  0  0  0  0  0  0  0  0  0  0  0
  -12.9043    2.2080    2.1651 C   0  0  0  0  0  0  0  0  0  0  0  0
  -13.2329    2.2326    0.8243 C   0  0  0  0  0  0  0  0  0  0  0  0
  -14.5155    1.8571    0.2470 C   0  0  0  0  0  0  0  0  0  0  0  0
  -15.4616    1.4693    0.9306 O   0  0  0  0  0  0  0  0  0  0  0  0
  -14.6081    1.9418   -1.1278 N   0  0  0  0  0  0  0  0  0  0  0  0
  -15.7880    1.5259   -1.8579 C   0  0  0  0  0  0  0  0  0  0  0  0
  -15.7154    0.0749   -2.3138 C   0  0  0  0  0  0  0  0  0  0  0  0
  -15.6483   -0.9241   -1.1653 C   0  0  0  0  0  0  0  0  0  0  0  0
  -15.6399   -2.2476   -1.6903 O   0  0  0  0  0  0  0  0  0  0  0  0
  -11.9108    2.7672   -0.1226 S   0  0  0  0  0  0  0  0  0  0  0  0
  -10.9221    3.0530    1.2577 C   0  0  0  0  0  0  0  0  0  0  0  0
   -6.8353    2.7864    0.8255 C   0  0  0  0  0  0  0  0  0  0  0  0
   -5.4443    2.8005    0.7709 C   0  0  0  0  0  0  0  0  0  0  0  0
   -4.7526    1.9304    1.5235 F   0  0  0  0  0  0  0  0  0  0  0  0
    0.9401    5.4759    0.9094 C   0  0  0  0  0  0  0  0  0  0  0  0
    3.9567    6.8460    1.8427 H   0  0  0  0  0  0  0  0  0  0  0  0
    3.7729    5.4523    0.7721 H   0  0  0  0  0  0  0  0  0  0  0  0
    3.3013    5.3377    2.4931 H   0  0  0  0  0  0  0  0  0  0  0  0
    2.3336    8.5316    1.5493 H   0  0  0  0  0  0  0  0  0  0  0  0
    0.0565    9.2439    0.8873 H   0  0  0  0  0  0  0  0  0  0  0  0
   -0.9629    3.9112    0.2263 H   0  0  0  0  0  0  0  0  0  0  0  0
   -2.9279    2.9995    0.5557 H   0  0  0  0  0  0  0  0  0  0  0  0
   -4.9848    5.4021   -1.3684 H   0  0  0  0  0  0  0  0  0  0  0  0
   -7.4514    5.3926   -1.2748 H   0  0  0  0  0  0  0  0  0  0  0  0
   -8.1474    4.2871    2.7631 H   0  0  0  0  0  0  0  0  0  0  0  0
   -9.4357    3.5278    4.7140 H   0  0  0  0  0  0  0  0  0  0  0  0
  -13.5882    1.8775    2.9374 H   0  0  0  0  0  0  0  0  0  0  0  0
  -13.7843    2.2305   -1.6429 H   0  0  0  0  0  0  0  0  0  0  0  0
  -15.8574    2.1819   -2.7328 H   0  0  0  0  0  0  0  0  0  0  0  0
  -16.6800    1.6957   -1.2440 H   0  0  0  0  0  0  0  0  0  0  0  0
  -14.8460   -0.0716   -2.9670 H   0  0  0  0  0  0  0  0  0  0  0  0
  -16.5933   -0.1488   -2.9319 H   0  0  0  0  0  0  0  0  0  0  0  0
  -16.5016   -0.8202   -0.4874 H   0  0  0  0  0  0  0  0  0  0  0  0
  -14.7279   -0.8016   -0.5876 H   0  0  0  0  0  0  0  0  0  0  0  0
  -16.5286   -2.4253   -2.0414 H   0  0  0  0  0  0  0  0  0  0  0  0
   -7.3223    2.0400    1.4435 H   0  0  0  0  0  0  0  0  0  0  0  0
    1.2046    4.4206    0.9201 H   0  0  0  0  0  0  0  0  0  0  0  0
  1  2  1  0  0  0  0
  1 37  1  0  0  0  0
  1 38  1  0  0  0  0
  1 39  1  0  0  0  0
  2  3  1  0  0  0  0
  2 36  2  0  0  0  0
  3  4  2  0  0  0  0
  3 40  1  0  0  0  0
  4  5  1  0  0  0  0
  4 41  1  0  0  0  0
  5  6  1  0  0  0  0
  5  7  2  0  0  0  0
  7  8  1  0  0  0  0
  7 36  1  0  0  0  0
  8  9  1  0  0  0  0
  8 42  1  0  0  0  0
  9 10  2  0  0  0  0
  9 11  1  0  0  0  0
 11 12  1  0  0  0  0
 11 43  1  0  0  0  0
 12 13  1  0  0  0  0
 12 34  2  0  0  0  0
 13 14  2  0  0  0  0
 13 44  1  0  0  0  0
 14 15  1  0  0  0  0
 14 45  1  0  0  0  0
 15 16  1  0  0  0  0
 15 33  2  0  0  0  0
 16 17  1  0  0  0  0
 17 18  1  0  0  0  0
 17 32  2  0  0  0  0
 18 19  2  0  0  0  0
 18 46  1  0  0  0  0
 19 20  1  0  0  0  0
 19 47  1  0  0  0  0
 20 21  2  0  0  0  0
 21 22  1  0  0  0  0
 21 32  1  0  0  0  0
 22 23  2  0  0  0  0
 22 48  1  0  0  0  0
 23 24  1  0  0  0  0
 23 31  1  0  0  0  0
 24 25  2  0  0  0  0
 24 26  1  0  0  0  0
 26 27  1  0  0  0  0
 26 49  1  0  0  0  0
 27 28  1  0  0  0  0
 27 50  1  0  0  0  0
 27 51  1  0  0  0  0
 28 29  1  0  0  0  0
 28 52  1  0  0  0  0
 28 53  1  0  0  0  0
 29 30  1  0  0  0  0
 29 54  1  0  0  0  0
 29 55  1  0  0  0  0
 30 56  1  0  0  0  0
 31 32  1  0  0  0  0
 33 34  1  0  0  0  0
 33 57  1  0  0  0  0
 34 35  1  0  0  0  0
 36 58  1  0  0  0  0
M  END
$$$$
