CHEMBL3960179
 OpenBabel04072215373D

 45 48  0  0  0  0  0  0  0  0999 V2000
    2.9045    0.7596   -2.0229 C   0  0  0  0  0  0  0  0  0  0  0  0
    1.4603    0.5408   -1.6539 C   0  0  0  0  0  0  0  0  0  0  0  0
    0.9383   -0.7488   -1.7826 C   0  0  0  0  0  0  0  0  0  0  0  0
   -0.3827   -0.9911   -1.4438 C   0  0  0  0  0  0  0  0  0  0  0  0
   -1.1965    0.0431   -0.9796 C   0  0  0  0  0  0  0  0  0  0  0  0
   -2.4093   -0.3389   -0.5665 F   0  0  0  0  0  0  0  0  0  0  0  0
   -0.7377    1.3686   -0.8609 C   0  0  0  0  0  0  0  0  0  0  0  0
   -1.5542    2.4752   -0.4204 N   0  0  0  0  0  0  0  0  0  0  0  0
   -2.9517    2.4810   -0.4075 C   0  0  0  0  0  0  0  0  0  0  0  0
   -3.6563    1.5615   -0.8190 O   0  0  0  0  0  0  0  0  0  0  0  0
   -3.5327    3.6789    0.0406 N   0  0  0  0  0  0  0  0  0  0  0  0
   -4.9742    3.7535    0.0435 C   0  0  0  0  0  0  0  0  0  0  0  0
   -5.7369    2.8296    0.7703 C   0  0  0  0  0  0  0  0  0  0  0  0
   -7.1417    2.7720    0.6410 C   0  0  0  0  0  0  0  0  0  0  0  0
   -7.8223    3.6400   -0.2186 C   0  0  0  0  0  0  0  0  0  0  0  0
   -9.2506    3.4968   -0.4336 C   0  0  0  0  0  0  0  0  0  0  0  0
  -10.4319    3.3064   -0.6280 C   0  0  0  0  0  0  0  0  0  0  0  0
  -11.8356    2.9756   -0.8681 C   0  0  0  0  0  0  0  0  0  0  0  0
  -12.2955    1.5628   -0.9639 C   0  0  0  0  0  0  0  0  0  0  0  0
  -13.5995    1.3466   -1.1837 C   0  0  0  0  0  0  0  0  0  0  0  0
  -14.4688    2.4519   -1.3170 C   0  0  0  0  0  0  0  0  0  0  0  0
  -15.7653    2.5157   -1.5273 N   0  0  0  0  0  0  0  0  0  0  0  0
  -16.0646    3.8511   -1.5565 C   0  0  0  0  0  0  0  0  0  0  0  0
  -14.9303    4.6108   -1.3679 C   0  0  0  0  0  0  0  0  0  0  0  0
  -13.9022    3.7160   -1.2075 N   0  0  0  0  0  0  0  0  0  0  0  0
  -12.5824    4.0300   -0.9844 N   0  0  0  0  0  0  0  0  0  0  0  0
   -7.0668    4.6080   -0.8951 C   0  0  0  0  0  0  0  0  0  0  0  0
   -5.6567    4.6814   -0.7504 C   0  0  0  0  0  0  0  0  0  0  0  0
    0.6222    1.5928   -1.1907 C   0  0  0  0  0  0  0  0  0  0  0  0
    3.3791   -0.1805   -2.3375 H   0  0  0  0  0  0  0  0  0  0  0  0
    3.4719    1.1312   -1.1652 H   0  0  0  0  0  0  0  0  0  0  0  0
    2.9909    1.4569   -2.8609 H   0  0  0  0  0  0  0  0  0  0  0  0
    1.5556   -1.5755   -2.1297 H   0  0  0  0  0  0  0  0  0  0  0  0
   -0.7963   -1.9925   -1.5153 H   0  0  0  0  0  0  0  0  0  0  0  0
   -1.0731    3.3298   -0.1801 H   0  0  0  0  0  0  0  0  0  0  0  0
   -3.0557    4.5091   -0.2797 H   0  0  0  0  0  0  0  0  0  0  0  0
   -5.2387    2.1171    1.4245 H   0  0  0  0  0  0  0  0  0  0  0  0
   -7.6838    2.0102    1.1965 H   0  0  0  0  0  0  0  0  0  0  0  0
  -11.5798    0.7605   -0.8550 H   0  0  0  0  0  0  0  0  0  0  0  0
  -14.0193    0.3501   -1.2646 H   0  0  0  0  0  0  0  0  0  0  0  0
  -17.0800    4.1988   -1.7216 H   0  0  0  0  0  0  0  0  0  0  0  0
  -14.7671    5.6733   -1.3274 H   0  0  0  0  0  0  0  0  0  0  0  0
   -7.5631    5.2951   -1.5783 H   0  0  0  0  0  0  0  0  0  0  0  0
   -5.1125    5.4127   -1.3415 H   0  0  0  0  0  0  0  0  0  0  0  0
    1.0483    2.5912   -1.1164 H   0  0  0  0  0  0  0  0  0  0  0  0
  1  2  1  0  0  0  0
  1 30  1  0  0  0  0
  1 31  1  0  0  0  0
  1 32  1  0  0  0  0
  2  3  1  0  0  0  0
  2 29  2  0  0  0  0
  3  4  2  0  0  0  0
  3 33  1  0  0  0  0
  4  5  1  0  0  0  0
  4 34  1  0  0  0  0
  5  6  1  0  0  0  0
  5  7  2  0  0  0  0
  7  8  1  0  0  0  0
  7 29  1  0  0  0  0
  8  9  1  0  0  0  0
  8 35  1  0  0  0  0
  9 10  2  0  0  0  0
  9 11  1  0  0  0  0
 11 12  1  0  0  0  0
 11 36  1  0  0  0  0
 12 13  1  0  0  0  0
 12 28  2  0  0  0  0
 13 14  2  0  0  0  0
 13 37  1  0  0  0  0
 14 15  1  0  0  0  0
 14 38  1  0  0  0  0
 15 16  1  0  0  0  0
 15 27  2  0  0  0  0
 16 17  3  0  0  0  0
 17 18  1  0  0  0  0
 18 19  1  0  0  0  0
 18 26  2  0  0  0  0
 19 20  2  0  0  0  0
 19 39  1  0  0  0  0
 20 21  1  0  0  0  0
 20 40  1  0  0  0  0
 21 22  2  0  0  0  0
 21 25  1  0  0  0  0
 22 23  1  0  0  0  0
 23 24  2  0  0  0  0
 23 41  1  0  0  0  0
 24 25  1  0  0  0  0
 24 42  1  0  0  0  0
 25 26  1  0  0  0  0
 27 28  1  0  0  0  0
 27 43  1  0  0  0  0
 28 44  1  0  0  0  0
 29 45  1  0  0  0  0
M  END
$$$$
