CHEMBL199886
 OpenBabel04072215363D

 41 44  0  0  0  0  0  0  0  0999 V2000
    1.2359   -0.8302   -0.2968 O   0  0  0  0  0  0  0  0  0  0  0  0
    2.3335   -0.3137   -0.1213 C   0  0  0  0  0  0  0  0  0  0  0  0
    2.8840   -0.0510    1.1238 N   0  0  0  0  0  0  0  0  0  0  0  0
    2.2299   -0.2917    2.3594 C   0  0  0  0  0  0  0  0  0  0  0  0
    1.1260   -1.1448    2.4861 C   0  0  0  0  0  0  0  0  0  0  0  0
    0.4343   -1.2564    3.6933 C   0  0  0  0  0  0  0  0  0  0  0  0
    0.8361   -0.5022    4.7873 C   0  0  0  0  0  0  0  0  0  0  0  0
    1.9633    0.3101    4.6921 C   0  0  0  0  0  0  0  0  0  0  0  0
    2.6843    0.3944    3.4922 C   0  0  0  0  0  0  0  0  0  0  0  0
    2.4164    1.1019    5.8448 C   0  0  0  0  0  0  0  0  0  0  0  0
    1.6885    1.6712    6.7556 N   0  0  0  0  0  0  0  0  0  0  0  0
    0.2726    1.6285    6.7186 C   0  0  0  0  0  0  0  0  0  0  0  0
   -0.5176    2.7013    7.1010 C   0  0  0  0  0  0  0  0  0  0  0  0
    0.1740    4.2043    7.5947 Cl  0  0  0  0  0  0  0  0  0  0  0  0
   -1.8692    2.7277    7.1174 N   0  0  0  0  0  0  0  0  0  0  0  0
   -2.4646    1.5940    6.7448 C   0  0  0  0  0  0  0  0  0  0  0  0
   -1.8414    0.4772    6.3605 N   0  0  0  0  0  0  0  0  0  0  0  0
   -0.4896    0.5305    6.3504 C   0  0  0  0  0  0  0  0  0  0  0  0
    0.1177   -0.6384    5.9459 O   0  0  0  0  0  0  0  0  0  0  0  0
    3.1667    0.0943   -1.1566 N   0  0  0  0  0  0  0  0  0  0  0  0
    2.8099    0.0473   -2.5255 C   0  0  0  0  0  0  0  0  0  0  0  0
    1.4836    0.0178   -2.9538 C   0  0  0  0  0  0  0  0  0  0  0  0
    1.1750   -0.1061   -4.3110 C   0  0  0  0  0  0  0  0  0  0  0  0
    2.1878   -0.2084   -5.2614 C   0  0  0  0  0  0  0  0  0  0  0  0
    1.6733   -0.4186   -6.8941 Cl  0  0  0  0  0  0  0  0  0  0  0  0
    3.5329   -0.1536   -4.8684 C   0  0  0  0  0  0  0  0  0  0  0  0
    4.6850   -0.3132   -5.8258 C   0  0  0  0  0  0  0  0  0  0  0  0
    4.3715   -0.5517   -7.1250 F   0  0  0  0  0  0  0  0  0  0  0  0
    5.4923    0.7864   -5.8418 F   0  0  0  0  0  0  0  0  0  0  0  0
    5.4969   -1.3493   -5.4587 F   0  0  0  0  0  0  0  0  0  0  0  0
    3.8254    0.0149   -3.4895 C   0  0  0  0  0  0  0  0  0  0  0  0
    3.6670    0.5849    1.1395 H   0  0  0  0  0  0  0  0  0  0  0  0
    0.7620   -1.7402    1.6531 H   0  0  0  0  0  0  0  0  0  0  0  0
   -0.4347   -1.9070    3.7604 H   0  0  0  0  0  0  0  0  0  0  0  0
    3.5552    1.0416    3.4336 H   0  0  0  0  0  0  0  0  0  0  0  0
    3.5081    1.2443    5.9266 H   0  0  0  0  0  0  0  0  0  0  0  0
   -3.5495    1.5774    6.7525 H   0  0  0  0  0  0  0  0  0  0  0  0
    4.1496    0.1690   -0.9367 H   0  0  0  0  0  0  0  0  0  0  0  0
    0.6514    0.0837   -2.2604 H   0  0  0  0  0  0  0  0  0  0  0  0
    0.1295   -0.1390   -4.6074 H   0  0  0  0  0  0  0  0  0  0  0  0
    4.8698    0.0711   -3.1776 H   0  0  0  0  0  0  0  0  0  0  0  0
  1  2  2  0  0  0  0
  2  3  1  0  0  0  0
  2 20  1  0  0  0  0
  3  4  1  0  0  0  0
  3 32  1  0  0  0  0
  4  5  1  0  0  0  0
  4  9  2  0  0  0  0
  5  6  2  0  0  0  0
  5 33  1  0  0  0  0
  6  7  1  0  0  0  0
  6 34  1  0  0  0  0
  7  8  2  0  0  0  0
  7 19  1  0  0  0  0
  8  9  1  0  0  0  0
  8 10  1  0  0  0  0
  9 35  1  0  0  0  0
 10 11  2  0  0  0  0
 10 36  1  0  0  0  0
 11 12  1  0  0  0  0
 12 13  1  0  0  0  0
 12 18  2  0  0  0  0
 13 14  1  0  0  0  0
 13 15  2  0  0  0  0
 15 16  1  0  0  0  0
 16 17  2  0  0  0  0
 16 37  1  0  0  0  0
 17 18  1  0  0  0  0
 18 19  1  0  0  0  0
 20 21  1  0  0  0  0
 20 38  1  0  0  0  0
 21 22  1  0  0  0  0
 21 31  2  0  0  0  0
 22 23  2  0  0  0  0
 22 39  1  0  0  0  0
 23 24  1  0  0  0  0
 23 40  1  0  0  0  0
 24 25  1  0  0  0  0
 24 26  2  0  0  0  0
 26 27  1  0  0  0  0
 26 31  1  0  0  0  0
 27 28  1  0  0  0  0
 27 29  1  0  0  0  0
 27 30  1  0  0  0  0
 31 41  1  0  0  0  0
M  END
$$$$
