CHEMBL2088105
 OpenBabel04072215363D

 39 41  0  0  0  0  0  0  0  0999 V2000
   -1.8797    0.3762   -3.2026 C   0  0  0  0  0  0  0  0  0  0  0  0
   -3.0372   -0.3774   -2.6747 C   0  0  0  0  0  0  0  0  0  0  0  0
   -3.2469   -0.8427   -1.3595 C   0  0  0  0  0  0  0  0  0  0  0  0
   -4.4559   -1.4895   -1.4180 C   0  0  0  0  0  0  0  0  0  0  0  0
   -5.2721   -2.2212   -0.4211 C   0  0  0  0  0  0  0  0  0  0  0  0
   -4.9697   -3.7207   -0.4063 C   0  0  0  0  0  0  0  0  0  0  0  0
   -3.5932   -3.9969    0.0027 N   0  0  0  0  0  0  0  0  0  0  0  0
   -3.2826   -5.3503    0.0196 C   0  0  0  0  0  0  0  0  0  0  0  0
   -2.3782   -5.7507    0.9143 N   0  0  0  0  0  0  0  0  0  0  0  0
   -2.1136   -7.0754    0.9476 C   0  0  0  0  0  0  0  0  0  0  0  0
   -2.7337   -8.0064    0.1431 C   0  0  0  0  0  0  0  0  0  0  0  0
   -2.2922   -9.8344    0.2847 Br  0  0  0  0  0  0  0  0  0  0  0  0
   -3.6477   -7.5078   -0.7633 C   0  0  0  0  0  0  0  0  0  0  0  0
   -4.3192   -8.3569   -1.6715 N   0  0  0  0  0  0  0  0  0  0  0  0
   -4.9178   -7.9471   -2.8131 C   0  0  0  0  0  0  0  0  0  0  0  0
   -4.3929   -6.9443   -3.6611 C   0  0  0  0  0  0  0  0  0  0  0  0
   -5.3422   -6.7499   -4.6349 C   0  0  0  0  0  0  0  0  0  0  0  0
   -5.4218   -5.7581   -5.7278 C   0  0  0  0  0  0  0  0  0  0  0  0
   -6.3033   -7.6839   -4.3852 N   0  0  0  0  0  0  0  0  0  0  0  0
   -6.0571   -8.4435   -3.2983 N   0  0  0  0  0  0  0  0  0  0  0  0
   -3.9070   -6.1832   -0.8165 N   0  0  0  0  0  0  0  0  0  0  0  0
   -4.9475   -1.4101   -2.6808 O   0  0  0  0  0  0  0  0  0  0  0  0
   -4.0601   -0.7035   -3.4763 N   0  0  0  0  0  0  0  0  0  0  0  0
   -1.1363    0.5509   -2.4182 H   0  0  0  0  0  0  0  0  0  0  0  0
   -2.1981    1.3490   -3.5890 H   0  0  0  0  0  0  0  0  0  0  0  0
   -1.3940   -0.1783   -4.0118 H   0  0  0  0  0  0  0  0  0  0  0  0
   -2.6038   -0.7395   -0.4985 H   0  0  0  0  0  0  0  0  0  0  0  0
   -6.3360   -2.0784   -0.6519 H   0  0  0  0  0  0  0  0  0  0  0  0
   -5.1057   -1.7938    0.5745 H   0  0  0  0  0  0  0  0  0  0  0  0
   -5.1703   -4.1264   -1.4066 H   0  0  0  0  0  0  0  0  0  0  0  0
   -5.6604   -4.2021    0.2986 H   0  0  0  0  0  0  0  0  0  0  0  0
   -3.2970   -3.6202    0.8948 H   0  0  0  0  0  0  0  0  0  0  0  0
   -1.3560   -7.3648    1.6696 H   0  0  0  0  0  0  0  0  0  0  0  0
   -4.8110   -9.0956   -1.1800 H   0  0  0  0  0  0  0  0  0  0  0  0
   -3.4733   -6.3922   -3.5347 H   0  0  0  0  0  0  0  0  0  0  0  0
   -4.5737   -5.0651   -5.6790 H   0  0  0  0  0  0  0  0  0  0  0  0
   -6.3380   -5.1655   -5.6421 H   0  0  0  0  0  0  0  0  0  0  0  0
   -5.4055   -6.2454   -6.7059 H   0  0  0  0  0  0  0  0  0  0  0  0
   -7.1635   -7.8518   -4.9006 H   0  0  0  0  0  0  0  0  0  0  0  0
  1  2  1  0  0  0  0
  1 24  1  0  0  0  0
  1 25  1  0  0  0  0
  1 26  1  0  0  0  0
  2  3  1  0  0  0  0
  2 23  2  0  0  0  0
  3  4  2  0  0  0  0
  3 27  1  0  0  0  0
  4  5  1  0  0  0  0
  4 22  1  0  0  0  0
  5  6  1  0  0  0  0
  5 28  1  0  0  0  0
  5 29  1  0  0  0  0
  6  7  1  0  0  0  0
  6 30  1  0  0  0  0
  6 31  1  0  0  0  0
  7  8  1  0  0  0  0
  7 32  1  0  0  0  0
  8  9  1  0  0  0  0
  8 21  2  0  0  0  0
  9 10  2  0  0  0  0
 10 11  1  0  0  0  0
 10 33  1  0  0  0  0
 11 12  1  0  0  0  0
 11 13  2  0  0  0  0
 13 14  1  0  0  0  0
 13 21  1  0  0  0  0
 14 15  1  0  0  0  0
 14 34  1  0  0  0  0
 15 16  1  0  0  0  0
 15 20  2  0  0  0  0
 16 17  2  0  0  0  0
 16 35  1  0  0  0  0
 17 18  1  0  0  0  0
 17 19  1  0  0  0  0
 18 36  1  0  0  0  0
 18 37  1  0  0  0  0
 18 38  1  0  0  0  0
 19 20  1  0  0  0  0
 19 39  1  0  0  0  0
 22 23  1  0  0  0  0
M  END
$$$$
