CHEMBL492634
 OpenBabel04072215383D

 52 56  0  0  0  0  0  0  0  0999 V2000
   -2.3652   -2.2101    0.5722 C   0  0  0  0  0  0  0  0  0  0  0  0
   -1.4454   -1.1562    0.0430 C   0  0  0  0  0  0  0  0  0  0  0  0
   -0.3253   -1.4712   -0.7219 C   0  0  0  0  0  0  0  0  0  0  0  0
    0.4859   -0.4326   -1.1667 C   0  0  0  0  0  0  0  0  0  0  0  0
    0.1620    0.8814   -0.8374 C   0  0  0  0  0  0  0  0  0  0  0  0
   -0.9813    1.1126   -0.0811 C   0  0  0  0  0  0  0  0  0  0  0  0
   -1.4822    2.4458    0.2228 C   0  0  0  0  0  0  0  0  0  0  0  0
   -1.3458    3.4900   -0.6777 N   0  0  0  0  0  0  0  0  0  0  0  0
   -2.1023    4.5526   -0.2581 C   0  0  0  0  0  0  0  0  0  0  0  0
   -2.3034    5.7947   -1.0692 C   0  0  0  0  0  0  0  0  0  0  0  0
   -3.5087    5.7648   -1.9971 C   0  0  0  0  0  0  0  0  0  0  0  0
   -4.7982    5.5253   -1.4926 C   0  0  0  0  0  0  0  0  0  0  0  0
   -5.9192    5.5703   -2.3270 C   0  0  0  0  0  0  0  0  0  0  0  0
   -5.7719    5.8781   -3.6777 C   0  0  0  0  0  0  0  0  0  0  0  0
   -4.5024    6.1461   -4.1996 C   0  0  0  0  0  0  0  0  0  0  0  0
   -4.4110    6.5199   -5.6378 C   0  0  0  0  0  0  0  0  0  0  0  0
   -3.3431    7.2826   -6.0248 N   0  0  0  0  0  0  0  0  0  0  0  0
   -5.2781    6.2089   -6.4442 O   0  0  0  0  0  0  0  0  0  0  0  0
   -3.3732    6.0721   -3.3645 C   0  0  0  0  0  0  0  0  0  0  0  0
   -2.6210    4.2943    0.9201 N   0  0  0  0  0  0  0  0  0  0  0  0
   -2.3303    2.9640    1.1951 C   0  0  0  0  0  0  0  0  0  0  0  0
   -3.0932    2.2623    2.2269 C   0  0  0  0  0  0  0  0  0  0  0  0
   -4.4244    2.6762    2.3726 C   0  0  0  0  0  0  0  0  0  0  0  0
   -5.2808    2.0431    3.2618 C   0  0  0  0  0  0  0  0  0  0  0  0
   -4.8484    0.9826    4.0270 C   0  0  0  0  0  0  0  0  0  0  0  0
   -5.7523    0.3888    4.8288 N   0  0  0  0  0  0  0  0  0  0  0  0
   -5.3175   -0.6644    5.5399 C   0  0  0  0  0  0  0  0  0  0  0  0
   -4.0124   -1.1028    5.4626 C   0  0  0  0  0  0  0  0  0  0  0  0
   -3.0835   -0.5063    4.6727 N   0  0  0  0  0  0  0  0  0  0  0  0
   -3.4998    0.5479    3.9283 C   0  0  0  0  0  0  0  0  0  0  0  0
   -2.6364    1.2174    3.0425 C   0  0  0  0  0  0  0  0  0  0  0  0
   -1.7742    0.1162    0.3532 N   0  0  0  0  0  0  0  0  0  0  0  0
   -2.0713   -3.2112    0.2436 H   0  0  0  0  0  0  0  0  0  0  0  0
   -3.3832   -2.0162    0.2176 H   0  0  0  0  0  0  0  0  0  0  0  0
   -2.3644   -2.1883    1.6661 H   0  0  0  0  0  0  0  0  0  0  0  0
   -0.0959   -2.4990   -0.9744 H   0  0  0  0  0  0  0  0  0  0  0  0
    1.3614   -0.6486   -1.7735 H   0  0  0  0  0  0  0  0  0  0  0  0
    0.7969    1.6921   -1.1760 H   0  0  0  0  0  0  0  0  0  0  0  0
   -0.8891    3.4268   -1.5753 H   0  0  0  0  0  0  0  0  0  0  0  0
   -1.3935    5.9954   -1.6472 H   0  0  0  0  0  0  0  0  0  0  0  0
   -2.4293    6.6468   -0.3890 H   0  0  0  0  0  0  0  0  0  0  0  0
   -4.9400    5.3082   -0.4338 H   0  0  0  0  0  0  0  0  0  0  0  0
   -6.9102    5.3837   -1.9202 H   0  0  0  0  0  0  0  0  0  0  0  0
   -6.6501    5.9263   -4.3195 H   0  0  0  0  0  0  0  0  0  0  0  0
   -2.7743    7.7860   -5.3608 H   0  0  0  0  0  0  0  0  0  0  0  0
   -3.3944    7.6532   -6.9662 H   0  0  0  0  0  0  0  0  0  0  0  0
   -2.3844    6.2523   -3.7762 H   0  0  0  0  0  0  0  0  0  0  0  0
   -4.8122    3.4885    1.7595 H   0  0  0  0  0  0  0  0  0  0  0  0
   -6.3140    2.3701    3.3363 H   0  0  0  0  0  0  0  0  0  0  0  0
   -6.0556   -1.1484    6.1688 H   0  0  0  0  0  0  0  0  0  0  0  0
   -3.6786   -1.9583    6.0375 H   0  0  0  0  0  0  0  0  0  0  0  0
   -1.6072    0.8753    2.9727 H   0  0  0  0  0  0  0  0  0  0  0  0
  1  2  1  0  0  0  0
  1 33  1  0  0  0  0
  1 34  1  0  0  0  0
  1 35  1  0  0  0  0
  2  3  1  0  0  0  0
  2 32  2  0  0  0  0
  3  4  2  0  0  0  0
  3 36  1  0  0  0  0
  4  5  1  0  0  0  0
  4 37  1  0  0  0  0
  5  6  2  0  0  0  0
  5 38  1  0  0  0  0
  6  7  1  0  0  0  0
  6 32  1  0  0  0  0
  7  8  1  0  0  0  0
  7 21  2  0  0  0  0
  8  9  1  0  0  0  0
  8 39  1  0  0  0  0
  9 10  1  0  0  0  0
  9 20  2  0  0  0  0
 10 11  1  0  0  0  0
 10 40  1  0  0  0  0
 10 41  1  0  0  0  0
 11 12  1  0  0  0  0
 11 19  2  0  0  0  0
 12 13  2  0  0  0  0
 12 42  1  0  0  0  0
 13 14  1  0  0  0  0
 13 43  1  0  0  0  0
 14 15  2  0  0  0  0
 14 44  1  0  0  0  0
 15 16  1  0  0  0  0
 15 19  1  0  0  0  0
 16 17  1  0  0  0  0
 16 18  2  0  0  0  0
 17 45  1  0  0  0  0
 17 46  1  0  0  0  0
 19 47  1  0  0  0  0
 20 21  1  0  0  0  0
 21 22  1  0  0  0  0
 22 23  1  0  0  0  0
 22 31  2  0  0  0  0
 23 24  2  0  0  0  0
 23 48  1  0  0  0  0
 24 25  1  0  0  0  0
 24 49  1  0  0  0  0
 25 26  1  0  0  0  0
 25 30  2  0  0  0  0
 26 27  2  0  0  0  0
 27 28  1  0  0  0  0
 27 50  1  0  0  0  0
 28 29  2  0  0  0  0
 28 51  1  0  0  0  0
 29 30  1  0  0  0  0
 30 31  1  0  0  0  0
 31 52  1  0  0  0  0
M  END
$$$$
