CHEMBL500952
 OpenBabel04072215383D

 59 63  0  0  0  0  0  0  0  0999 V2000
    1.1586    0.0623   -0.9545 N   0  0  0  0  0  0  0  0  0  0  0  0
    2.3034    0.0584   -0.7890 C   0  0  0  0  0  0  0  0  0  0  0  0
    3.7263    0.0470   -0.6073 C   0  0  0  0  0  0  0  0  0  0  0  0
    4.3547   -1.0879   -0.0596 C   0  0  0  0  0  0  0  0  0  0  0  0
    5.7502   -1.1511    0.0748 C   0  0  0  0  0  0  0  0  0  0  0  0
    6.5125   -0.0850   -0.3707 C   0  0  0  0  0  0  0  0  0  0  0  0
    5.8600    1.0373   -0.9020 C   0  0  0  0  0  0  0  0  0  0  0  0
    4.4868    1.1425   -1.0174 C   0  0  0  0  0  0  0  0  0  0  0  0
    6.7778    1.9616   -1.3789 N   0  0  0  0  0  0  0  0  0  0  0  0
    8.0647    1.4557   -1.3153 C   0  0  0  0  0  0  0  0  0  0  0  0
    9.0003    1.8660   -1.9742 O   0  0  0  0  0  0  0  0  0  0  0  0
    7.9664    0.2006   -0.4576 C   0  0  0  0  0  0  0  0  0  0  0  0
    9.0346   -0.4293    0.0790 C   0  0  0  0  0  0  0  0  0  0  0  0
   10.3462    0.0150    0.2031 N   0  0  0  0  0  0  0  0  0  0  0  0
   10.7873    1.3441    0.3510 C   0  0  0  0  0  0  0  0  0  0  0  0
   10.0145    2.3174    0.9984 C   0  0  0  0  0  0  0  0  0  0  0  0
   10.2663    3.6764    0.7973 C   0  0  0  0  0  0  0  0  0  0  0  0
   11.3210    4.0826   -0.0267 C   0  0  0  0  0  0  0  0  0  0  0  0
   11.3826    5.5093   -0.5352 C   0  0  0  0  0  0  0  0  0  0  0  0
   11.4048    6.5556    0.5099 N   0  0  0  0  0  0  0  0  0  0  0  0
   12.6681    6.4861    1.2572 C   0  0  0  0  0  0  0  0  0  0  0  0
   12.9176    7.6815    2.1746 C   0  0  0  0  0  0  0  0  0  0  0  0
   12.7886    8.9917    1.4163 C   0  0  0  0  0  0  0  0  0  0  0  0
   11.4051    9.0689    0.7924 C   0  0  0  0  0  0  0  0  0  0  0  0
   11.1400    7.8650   -0.1136 C   0  0  0  0  0  0  0  0  0  0  0  0
   12.2108    3.1117   -0.5088 C   0  0  0  0  0  0  0  0  0  0  0  0
   11.9460    1.7529   -0.3158 C   0  0  0  0  0  0  0  0  0  0  0  0
    8.8781   -1.8091    0.6006 C   0  0  0  0  0  0  0  0  0  0  0  0
    9.0364   -2.9030   -0.2647 C   0  0  0  0  0  0  0  0  0  0  0  0
    8.7901   -4.2006    0.1873 C   0  0  0  0  0  0  0  0  0  0  0  0
    8.4076   -4.4146    1.5104 C   0  0  0  0  0  0  0  0  0  0  0  0
    8.3145   -3.3384    2.3933 C   0  0  0  0  0  0  0  0  0  0  0  0
    8.5567   -2.0381    1.9441 C   0  0  0  0  0  0  0  0  0  0  0  0
    3.7577   -1.9460    0.2492 H   0  0  0  0  0  0  0  0  0  0  0  0
    6.1946   -2.0447    0.4947 H   0  0  0  0  0  0  0  0  0  0  0  0
    4.0239    2.0250   -1.4489 H   0  0  0  0  0  0  0  0  0  0  0  0
    6.5573    2.7775   -1.9304 H   0  0  0  0  0  0  0  0  0  0  0  0
   11.0531   -0.6553   -0.0778 H   0  0  0  0  0  0  0  0  0  0  0  0
    9.1513    2.0278    1.5903 H   0  0  0  0  0  0  0  0  0  0  0  0
    9.5850    4.4158    1.2097 H   0  0  0  0  0  0  0  0  0  0  0  0
   10.4881    5.6375   -1.1619 H   0  0  0  0  0  0  0  0  0  0  0  0
   12.2386    5.6268   -1.2159 H   0  0  0  0  0  0  0  0  0  0  0  0
   13.5241    6.3842    0.5777 H   0  0  0  0  0  0  0  0  0  0  0  0
   12.6508    5.5907    1.8909 H   0  0  0  0  0  0  0  0  0  0  0  0
   13.9205    7.6031    2.6088 H   0  0  0  0  0  0  0  0  0  0  0  0
   12.2045    7.6655    3.0083 H   0  0  0  0  0  0  0  0  0  0  0  0
   13.5565    9.0516    0.6349 H   0  0  0  0  0  0  0  0  0  0  0  0
   12.9471    9.8375    2.0936 H   0  0  0  0  0  0  0  0  0  0  0  0
   11.3149    9.9951    0.2120 H   0  0  0  0  0  0  0  0  0  0  0  0
   10.6463    9.1152    1.5832 H   0  0  0  0  0  0  0  0  0  0  0  0
   11.7220    7.9914   -1.0365 H   0  0  0  0  0  0  0  0  0  0  0  0
   10.0807    7.9008   -0.4022 H   0  0  0  0  0  0  0  0  0  0  0  0
   13.0640    3.3937   -1.1189 H   0  0  0  0  0  0  0  0  0  0  0  0
   12.5937    1.0171   -0.7850 H   0  0  0  0  0  0  0  0  0  0  0  0
    9.3416   -2.7474   -1.2979 H   0  0  0  0  0  0  0  0  0  0  0  0
    8.8886   -5.0424   -0.4937 H   0  0  0  0  0  0  0  0  0  0  0  0
    8.1896   -5.4223    1.8566 H   0  0  0  0  0  0  0  0  0  0  0  0
    8.0419   -3.5101    3.4318 H   0  0  0  0  0  0  0  0  0  0  0  0
    8.4714   -1.2028    2.6344 H   0  0  0  0  0  0  0  0  0  0  0  0
  1  2  3  0  0  0  0
  2  3  1  0  0  0  0
  3  4  1  0  0  0  0
  3  8  2  0  0  0  0
  4  5  2  0  0  0  0
  4 34  1  0  0  0  0
  5  6  1  0  0  0  0
  5 35  1  0  0  0  0
  6  7  2  0  0  0  0
  6 12  1  0  0  0  0
  7  8  1  0  0  0  0
  7  9  1  0  0  0  0
  8 36  1  0  0  0  0
  9 10  1  0  0  0  0
  9 37  1  0  0  0  0
 10 11  2  0  0  0  0
 10 12  1  0  0  0  0
 12 13  2  0  0  0  0
 13 14  1  0  0  0  0
 13 28  1  0  0  0  0
 14 15  1  0  0  0  0
 14 38  1  0  0  0  0
 15 16  1  0  0  0  0
 15 27  2  0  0  0  0
 16 17  2  0  0  0  0
 16 39  1  0  0  0  0
 17 18  1  0  0  0  0
 17 40  1  0  0  0  0
 18 19  1  0  0  0  0
 18 26  2  0  0  0  0
 19 20  1  0  0  0  0
 19 41  1  0  0  0  0
 19 42  1  0  0  0  0
 20 21  1  0  0  0  0
 20 25  1  0  0  0  0
 21 22  1  0  0  0  0
 21 43  1  0  0  0  0
 21 44  1  0  0  0  0
 22 23  1  0  0  0  0
 22 45  1  0  0  0  0
 22 46  1  0  0  0  0
 23 24  1  0  0  0  0
 23 47  1  0  0  0  0
 23 48  1  0  0  0  0
 24 25  1  0  0  0  0
 24 49  1  0  0  0  0
 24 50  1  0  0  0  0
 25 51  1  0  0  0  0
 25 52  1  0  0  0  0
 26 27  1  0  0  0  0
 26 53  1  0  0  0  0
 27 54  1  0  0  0  0
 28 29  1  0  0  0  0
 28 33  2  0  0  0  0
 29 30  2  0  0  0  0
 29 55  1  0  0  0  0
 30 31  1  0  0  0  0
 30 56  1  0  0  0  0
 31 32  2  0  0  0  0
 31 57  1  0  0  0  0
 32 33  1  0  0  0  0
 32 58  1  0  0  0  0
 33 59  1  0  0  0  0
M  END
$$$$
