CHEMBL1241680
 OpenBabel04072215363D

 35 37  0  0  0  0  0  0  0  0999 V2000
    1.5748    0.9020    0.8437 C   0  0  0  0  0  0  0  0  0  0  0  0
    2.5727   -0.0432    0.1739 C   0  0  0  0  0  0  0  0  0  0  0  0
    3.7499    0.7369   -0.4110 C   0  0  0  0  0  0  0  0  0  0  0  0
    3.0029   -1.1025    1.0836 N   0  0  0  0  0  0  0  0  0  0  0  0
    3.6521   -0.8018    2.2316 N   0  0  0  0  0  0  0  0  0  0  0  0
    3.8663   -1.9945    2.8216 C   0  0  0  0  0  0  0  0  0  0  0  0
    4.6104   -2.0652    4.0863 C   0  0  0  0  0  0  0  0  0  0  0  0
    5.4304   -3.1635    4.3823 C   0  0  0  0  0  0  0  0  0  0  0  0
    6.1106   -3.2523    5.5987 C   0  0  0  0  0  0  0  0  0  0  0  0
    6.0303   -2.2010    6.5004 C   0  0  0  0  0  0  0  0  0  0  0  0
    6.7240   -2.2849    7.6456 F   0  0  0  0  0  0  0  0  0  0  0  0
    5.2627   -1.0754    6.2138 C   0  0  0  0  0  0  0  0  0  0  0  0
    5.2255    0.0148    7.1379 C   0  0  0  0  0  0  0  0  0  0  0  0
    5.1866    0.9098    7.8706 N   0  0  0  0  0  0  0  0  0  0  0  0
    4.5417   -1.0136    5.0139 C   0  0  0  0  0  0  0  0  0  0  0  0
    3.2900   -3.0595    2.0582 C   0  0  0  0  0  0  0  0  0  0  0  0
    3.1223   -4.4517    2.1385 C   0  0  0  0  0  0  0  0  0  0  0  0
    3.5071   -5.2498    3.2076 N   0  0  0  0  0  0  0  0  0  0  0  0
    2.5221   -5.0936    1.1167 N   0  0  0  0  0  0  0  0  0  0  0  0
    2.0876   -4.3717    0.0673 C   0  0  0  0  0  0  0  0  0  0  0  0
    2.1582   -3.0432   -0.1051 N   0  0  0  0  0  0  0  0  0  0  0  0
    2.7739   -2.4438    0.9287 C   0  0  0  0  0  0  0  0  0  0  0  0
    1.2328    1.6673    0.1386 H   0  0  0  0  0  0  0  0  0  0  0  0
    2.0182    1.4141    1.7051 H   0  0  0  0  0  0  0  0  0  0  0  0
    0.6953    0.3534    1.1975 H   0  0  0  0  0  0  0  0  0  0  0  0
    2.0558   -0.5331   -0.6606 H   0  0  0  0  0  0  0  0  0  0  0  0
    4.3126    1.2667    0.3651 H   0  0  0  0  0  0  0  0  0  0  0  0
    3.3950    1.4815   -1.1332 H   0  0  0  0  0  0  0  0  0  0  0  0
    4.4441    0.0699   -0.9342 H   0  0  0  0  0  0  0  0  0  0  0  0
    5.5698   -3.9694    3.6631 H   0  0  0  0  0  0  0  0  0  0  0  0
    6.7136   -4.1233    5.8304 H   0  0  0  0  0  0  0  0  0  0  0  0
    3.9345   -0.1344    4.7917 H   0  0  0  0  0  0  0  0  0  0  0  0
    3.4241   -4.8144    4.1166 H   0  0  0  0  0  0  0  0  0  0  0  0
    3.0858   -6.1702    3.1317 H   0  0  0  0  0  0  0  0  0  0  0  0
    1.6159   -4.9367   -0.7316 H   0  0  0  0  0  0  0  0  0  0  0  0
  1  2  1  0  0  0  0
  1 23  1  0  0  0  0
  1 24  1  0  0  0  0
  1 25  1  0  0  0  0
  2  3  1  0  0  0  0
  2  4  1  0  0  0  0
  2 26  1  0  0  0  0
  3 27  1  0  0  0  0
  3 28  1  0  0  0  0
  3 29  1  0  0  0  0
  4  5  1  0  0  0  0
  4 22  1  0  0  0  0
  5  6  2  0  0  0  0
  6  7  1  0  0  0  0
  6 16  1  0  0  0  0
  7  8  1  0  0  0  0
  7 15  2  0  0  0  0
  8  9  2  0  0  0  0
  8 30  1  0  0  0  0
  9 10  1  0  0  0  0
  9 31  1  0  0  0  0
 10 11  1  0  0  0  0
 10 12  2  0  0  0  0
 12 13  1  0  0  0  0
 12 15  1  0  0  0  0
 13 14  3  0  0  0  0
 15 32  1  0  0  0  0
 16 17  1  0  0  0  0
 16 22  2  0  0  0  0
 17 18  1  0  0  0  0
 17 19  2  0  0  0  0
 18 33  1  0  0  0  0
 18 34  1  0  0  0  0
 19 20  1  0  0  0  0
 20 21  2  0  0  0  0
 20 35  1  0  0  0  0
 21 22  1  0  0  0  0
M  END
$$$$
