CHEMBL1614712
 OpenBabel04072215363D

 62 67  0  0  1  0  0  0  0  0999 V2000
    5.8565   -8.6664   -2.0528 N   0  0  0  0  0  0  0  0  0  0  0  0
    6.2484   -7.3437   -2.0736 C   0  0  0  0  0  0  0  0  0  0  0  0
    6.9143   -6.9601   -3.1835 N   0  0  0  0  0  0  0  0  0  0  0  0
    7.2904   -5.6773   -3.2864 C   0  0  0  0  0  0  0  0  0  0  0  0
    7.1105   -4.6743   -2.4147 N   0  0  0  0  0  0  0  0  0  0  0  0
    6.4803   -5.0944   -1.2966 C   0  0  0  0  0  0  0  0  0  0  0  0
    6.0348   -6.3938   -1.0487 C   0  0  0  0  0  0  0  0  0  0  0  0
    5.4524   -6.3851    0.2639 C   0  0  0  0  0  0  0  0  0  0  0  0
    4.8891   -7.4431    1.0746 C   0  0  0  0  0  0  0  0  0  0  0  0
    3.8255   -7.2398    1.9659 C   0  0  0  0  0  0  0  0  0  0  0  0
    3.2558   -8.3241    2.6276 C   0  0  0  0  0  0  0  0  0  0  0  0
    3.7151   -9.6167    2.3847 C   0  0  0  0  0  0  0  0  0  0  0  0
    4.8187   -9.8135    1.5577 C   0  0  0  0  0  0  0  0  0  0  0  0
    5.2286  -11.1003    1.3519 O   0  0  0  0  0  0  0  0  0  0  0  0
    6.5652  -11.2284    0.8514 C   0  0  0  0  0  0  0  0  0  0  0  0
    7.0741  -12.5992    1.1731 C   0  0  0  0  0  0  0  0  0  0  0  0
    7.6097  -13.4255    0.1784 C   0  0  0  0  0  0  0  0  0  0  0  0
    8.1209  -14.6761    0.5176 C   0  0  0  0  0  0  0  0  0  0  0  0
    8.0956  -15.1069    1.8456 C   0  0  0  0  0  0  0  0  0  0  0  0
    7.5675  -14.2813    2.8400 C   0  0  0  0  0  0  0  0  0  0  0  0
    7.0628  -13.0331    2.5065 C   0  0  0  0  0  0  0  0  0  0  0  0
    5.4244   -8.7192    0.9645 C   0  0  0  0  0  0  0  0  0  0  0  0
    5.4994   -5.0856    0.7172 C   0  0  0  0  0  0  0  0  0  0  0  0
    6.1799   -4.3335   -0.1837 N   0  0  0  0  0  0  0  0  0  0  0  0
    6.3290   -2.8984   -0.0369 C   0  0  1  0  0  0  0  0  0  0  0  0
    6.4634   -2.4013    1.4285 C   0  0  0  0  0  0  0  0  0  0  0  0
    8.0061   -2.3200    1.2230 C   0  0  1  0  0  0  0  0  0  0  0  0
    8.8345   -3.5069    1.7503 C   0  0  0  0  0  0  0  0  0  0  0  0
   10.2727   -3.3227    1.4942 N   0  0  0  0  0  0  0  0  0  0  0  0
   11.0406   -4.4804    2.0364 C   0  0  0  0  0  0  0  0  0  0  0  0
   12.0869   -3.4748    2.5434 C   0  0  0  0  0  0  0  0  0  0  0  0
   10.9228   -2.4659    2.5232 C   0  0  0  0  0  0  0  0  0  0  0  0
    7.7152   -2.2818   -0.3082 C   0  0  0  0  0  0  0  0  0  0  0  0
    6.1563   -9.2380   -2.8319 H   0  0  0  0  0  0  0  0  0  0  0  0
    5.1914   -9.0254   -1.3911 H   0  0  0  0  0  0  0  0  0  0  0  0
    7.8130   -5.4235   -4.2085 H   0  0  0  0  0  0  0  0  0  0  0  0
    3.4340   -6.2434    2.1431 H   0  0  0  0  0  0  0  0  0  0  0  0
    2.4352   -8.1564    3.3210 H   0  0  0  0  0  0  0  0  0  0  0  0
    3.2266  -10.4679    2.8590 H   0  0  0  0  0  0  0  0  0  0  0  0
    7.2454  -10.5241    1.3473 H   0  0  0  0  0  0  0  0  0  0  0  0
    6.5786  -11.0472   -0.2324 H   0  0  0  0  0  0  0  0  0  0  0  0
    7.6345  -13.1013   -0.8609 H   0  0  0  0  0  0  0  0  0  0  0  0
    8.5385  -15.3206   -0.2510 H   0  0  0  0  0  0  0  0  0  0  0  0
    8.4826  -16.0851    2.1074 H   0  0  0  0  0  0  0  0  0  0  0  0
    7.5465  -14.6137    3.8723 H   0  0  0  0  0  0  0  0  0  0  0  0
    6.6597  -12.3859    3.2787 H   0  0  0  0  0  0  0  0  0  0  0  0
    6.3257   -8.8375    0.3686 H   0  0  0  0  0  0  0  0  0  0  0  0
    5.1080   -4.6581    1.6296 H   0  0  0  0  0  0  0  0  0  0  0  0
    5.5383   -2.3959   -0.6102 H   0  0  0  0  0  0  0  0  0  0  0  0
    6.1475   -3.0369    2.2585 H   0  0  0  0  0  0  0  0  0  0  0  0
    5.9814   -1.4272    1.5818 H   0  0  0  0  0  0  0  0  0  0  0  0
    8.3972   -1.3751    1.6224 H   0  0  0  0  0  0  0  0  0  0  0  0
    8.5216   -4.4252    1.2404 H   0  0  0  0  0  0  0  0  0  0  0  0
    8.6238   -3.6575    2.8172 H   0  0  0  0  0  0  0  0  0  0  0  0
   11.4040   -5.1827    1.2805 H   0  0  0  0  0  0  0  0  0  0  0  0
   10.5596   -5.0465    2.8447 H   0  0  0  0  0  0  0  0  0  0  0  0
   12.8890   -3.2614    1.8269 H   0  0  0  0  0  0  0  0  0  0  0  0
   12.5279   -3.6893    3.5214 H   0  0  0  0  0  0  0  0  0  0  0  0
   11.1974   -1.4650    2.1771 H   0  0  0  0  0  0  0  0  0  0  0  0
   10.4054   -2.3808    3.4867 H   0  0  0  0  0  0  0  0  0  0  0  0
    8.4149   -2.8187   -0.9527 H   0  0  0  0  0  0  0  0  0  0  0  0
    7.6375   -1.2516   -0.6846 H   0  0  0  0  0  0  0  0  0  0  0  0
  1  2  1  0  0  0  0
  1 34  1  0  0  0  0
  1 35  1  0  0  0  0
  2  3  1  0  0  0  0
  2  7  2  0  0  0  0
  3  4  2  0  0  0  0
  4  5  1  0  0  0  0
  4 36  1  0  0  0  0
  5  6  2  0  0  0  0
  6  7  1  0  0  0  0
  6 24  1  0  0  0  0
  7  8  1  0  0  0  0
  8  9  1  0  0  0  0
  8 23  2  0  0  0  0
  9 10  1  0  0  0  0
  9 22  2  0  0  0  0
 10 11  2  0  0  0  0
 10 37  1  0  0  0  0
 11 12  1  0  0  0  0
 11 38  1  0  0  0  0
 12 13  2  0  0  0  0
 12 39  1  0  0  0  0
 13 14  1  0  0  0  0
 13 22  1  0  0  0  0
 14 15  1  0  0  0  0
 15 16  1  0  0  0  0
 15 40  1  0  0  0  0
 15 41  1  0  0  0  0
 16 17  1  0  0  0  0
 16 21  2  0  0  0  0
 17 18  2  0  0  0  0
 17 42  1  0  0  0  0
 18 19  1  0  0  0  0
 18 43  1  0  0  0  0
 19 20  2  0  0  0  0
 19 44  1  0  0  0  0
 20 21  1  0  0  0  0
 20 45  1  0  0  0  0
 21 46  1  0  0  0  0
 22 47  1  0  0  0  0
 23 24  1  0  0  0  0
 23 48  1  0  0  0  0
 25 26  1  0  0  0  0
 25 33  1  0  0  0  0
 25 24  1  0  0  0  0
 25 49  1  6  0  0  0
 26 27  1  0  0  0  0
 26 50  1  0  0  0  0
 26 51  1  0  0  0  0
 27 28  1  0  0  0  0
 27 33  1  0  0  0  0
 27 52  1  1  0  0  0
 28 29  1  0  0  0  0
 28 53  1  0  0  0  0
 28 54  1  0  0  0  0
 29 30  1  0  0  0  0
 29 32  1  0  0  0  0
 30 31  1  0  0  0  0
 30 55  1  0  0  0  0
 30 56  1  0  0  0  0
 31 32  1  0  0  0  0
 31 57  1  0  0  0  0
 31 58  1  0  0  0  0
 32 59  1  0  0  0  0
 32 60  1  0  0  0  0
 33 61  1  0  0  0  0
 33 62  1  0  0  0  0
M  END
$$$$
