CHEMBL187627
 OpenBabel04072215363D

 82 86  0  0  0  0  0  0  0  0999 V2000
    2.8164    0.3444    1.3131 C   0  0  0  0  0  0  0  0  0  0  0  0
    1.4052    0.6996    1.4229 N   0  0  0  0  0  0  0  0  0  0  0  0
    0.5533   -0.4990    1.3738 C   0  0  0  0  0  0  0  0  0  0  0  0
   -0.9414   -0.1167    1.4907 C   0  0  0  0  0  0  0  0  0  0  0  0
   -1.3028    0.6129    2.7301 N   0  0  0  0  0  0  0  0  0  0  0  0
   -1.2450   -0.1940    3.9669 C   0  0  0  0  0  0  0  0  0  0  0  0
   -2.0892   -1.4520    3.9469 C   0  0  0  0  0  0  0  0  0  0  0  0
   -1.5451   -2.5949    3.3693 C   0  0  0  0  0  0  0  0  0  0  0  0
   -2.3052   -3.7402    3.2057 C   0  0  0  0  0  0  0  0  0  0  0  0
   -3.5921   -3.8543    3.7387 C   0  0  0  0  0  0  0  0  0  0  0  0
   -4.3175   -5.0822    3.6617 N   0  0  0  0  0  0  0  0  0  0  0  0
   -3.6834   -6.2927    3.4259 C   0  0  0  0  0  0  0  0  0  0  0  0
   -2.4617   -6.3875    3.3367 O   0  0  0  0  0  0  0  0  0  0  0  0
   -4.5246   -7.3798    3.2780 N   0  0  0  0  0  0  0  0  0  0  0  0
   -4.0334   -8.6994    3.0436 C   0  0  0  0  0  0  0  0  0  0  0  0
   -2.6988   -9.0496    3.2676 C   0  0  0  0  0  0  0  0  0  0  0  0
   -2.1973  -10.2992    2.9171 C   0  0  0  0  0  0  0  0  0  0  0  0
   -3.0122  -11.2754    2.3459 C   0  0  0  0  0  0  0  0  0  0  0  0
   -2.4399  -12.4700    1.8771 N   0  0  0  0  0  0  0  0  0  0  0  0
   -3.1066  -13.7347    2.1798 C   0  0  0  0  0  0  0  0  0  0  0  0
   -1.1590  -12.6154    1.2802 C   0  0  0  0  0  0  0  0  0  0  0  0
   -0.6330  -11.5894    0.5161 C   0  0  0  0  0  0  0  0  0  0  0  0
    0.6052  -11.7913   -0.0423 C   0  0  0  0  0  0  0  0  0  0  0  0
    1.3195  -12.9143    0.1238 N   0  0  0  0  0  0  0  0  0  0  0  0
    0.7399  -13.8797    0.8471 C   0  0  0  0  0  0  0  0  0  0  0  0
    1.4609  -15.0678    0.9871 N   0  0  0  0  0  0  0  0  0  0  0  0
    0.9450  -16.3690    1.0864 C   0  0  0  0  0  0  0  0  0  0  0  0
   -0.3718  -16.6706    0.7219 C   0  0  0  0  0  0  0  0  0  0  0  0
   -0.9089  -17.9399    0.9236 C   0  0  0  0  0  0  0  0  0  0  0  0
   -0.1359  -18.9616    1.4798 C   0  0  0  0  0  0  0  0  0  0  0  0
   -0.7517  -20.2925    1.8239 C   0  0  0  0  0  0  0  0  0  0  0  0
   -1.3826  -21.1655    0.3866 S   0  0  0  0  0  0  0  0  0  0  0  0
    0.0267  -21.3631   -0.6705 C   0  0  0  0  0  0  0  0  0  0  0  0
   -1.7566  -22.4916    0.8422 O   0  0  0  0  0  0  0  0  0  0  0  0
   -2.3610  -20.3459   -0.3091 O   0  0  0  0  0  0  0  0  0  0  0  0
    1.1957  -18.6762    1.8201 C   0  0  0  0  0  0  0  0  0  0  0  0
    1.7286  -17.3937    1.6217 C   0  0  0  0  0  0  0  0  0  0  0  0
   -0.4722  -13.7611    1.4227 N   0  0  0  0  0  0  0  0  0  0  0  0
   -4.3762  -10.9685    2.2190 C   0  0  0  0  0  0  0  0  0  0  0  0
   -4.8836   -9.6926    2.5552 C   0  0  0  0  0  0  0  0  0  0  0  0
   -4.1391   -2.7279    4.3614 C   0  0  0  0  0  0  0  0  0  0  0  0
   -3.3976   -1.5271    4.4471 C   0  0  0  0  0  0  0  0  0  0  0  0
   -0.3865    1.7770    2.8296 C   0  0  0  0  0  0  0  0  0  0  0  0
    1.1253    1.4515    2.6605 C   0  0  0  0  0  0  0  0  0  0  0  0
    3.0030   -0.2003    0.3801 H   0  0  0  0  0  0  0  0  0  0  0  0
    3.1584   -0.2789    2.1469 H   0  0  0  0  0  0  0  0  0  0  0  0
    3.4349    1.2474    1.2774 H   0  0  0  0  0  0  0  0  0  0  0  0
    0.8413   -1.1925    2.1722 H   0  0  0  0  0  0  0  0  0  0  0  0
    0.7027   -1.0271    0.4244 H   0  0  0  0  0  0  0  0  0  0  0  0
   -1.5734   -0.9971    1.3401 H   0  0  0  0  0  0  0  0  0  0  0  0
   -1.1928    0.5294    0.6376 H   0  0  0  0  0  0  0  0  0  0  0  0
   -1.5865    0.4237    4.8076 H   0  0  0  0  0  0  0  0  0  0  0  0
   -0.2151   -0.4818    4.2149 H   0  0  0  0  0  0  0  0  0  0  0  0
   -0.5303   -2.6070    2.9891 H   0  0  0  0  0  0  0  0  0  0  0  0
   -1.8313   -4.5319    2.6374 H   0  0  0  0  0  0  0  0  0  0  0  0
   -5.2496   -5.0980    4.0466 H   0  0  0  0  0  0  0  0  0  0  0  0
   -5.4988   -7.1994    3.0855 H   0  0  0  0  0  0  0  0  0  0  0  0
   -1.9771   -8.3699    3.7059 H   0  0  0  0  0  0  0  0  0  0  0  0
   -1.1402  -10.4867    3.0927 H   0  0  0  0  0  0  0  0  0  0  0  0
   -4.0747  -13.6038    2.6755 H   0  0  0  0  0  0  0  0  0  0  0  0
   -2.5048  -14.3649    2.8460 H   0  0  0  0  0  0  0  0  0  0  0  0
   -3.2934  -14.2860    1.2504 H   0  0  0  0  0  0  0  0  0  0  0  0
   -1.1746  -10.6702    0.3377 H   0  0  0  0  0  0  0  0  0  0  0  0
    1.0631  -11.0313   -0.6677 H   0  0  0  0  0  0  0  0  0  0  0  0
    2.3415  -14.9870    0.4979 H   0  0  0  0  0  0  0  0  0  0  0  0
   -1.0124  -15.9110    0.2808 H   0  0  0  0  0  0  0  0  0  0  0  0
   -1.9533  -18.0978    0.6596 H   0  0  0  0  0  0  0  0  0  0  0  0
   -1.5845  -20.1489    2.5173 H   0  0  0  0  0  0  0  0  0  0  0  0
   -0.0230  -20.9565    2.3008 H   0  0  0  0  0  0  0  0  0  0  0  0
    0.8000  -21.9149   -0.1296 H   0  0  0  0  0  0  0  0  0  0  0  0
    0.3918  -20.3848   -0.9867 H   0  0  0  0  0  0  0  0  0  0  0  0
   -0.2921  -21.9364   -1.5449 H   0  0  0  0  0  0  0  0  0  0  0  0
    1.8246  -19.4317    2.2885 H   0  0  0  0  0  0  0  0  0  0  0  0
    2.7473  -17.1850    1.9431 H   0  0  0  0  0  0  0  0  0  0  0  0
   -5.0583  -11.7006    1.7947 H   0  0  0  0  0  0  0  0  0  0  0  0
   -5.9372   -9.4921    2.3833 H   0  0  0  0  0  0  0  0  0  0  0  0
   -5.1333   -2.7584    4.7971 H   0  0  0  0  0  0  0  0  0  0  0  0
   -3.8467   -0.6551    4.9180 H   0  0  0  0  0  0  0  0  0  0  0  0
   -0.5453    2.3036    3.7781 H   0  0  0  0  0  0  0  0  0  0  0  0
   -0.6718    2.4912    2.0453 H   0  0  0  0  0  0  0  0  0  0  0  0
    1.4769    0.8917    3.5369 H   0  0  0  0  0  0  0  0  0  0  0  0
    1.6785    2.3976    2.6400 H   0  0  0  0  0  0  0  0  0  0  0  0
  1  2  1  0  0  0  0
  1 45  1  0  0  0  0
  1 46  1  0  0  0  0
  1 47  1  0  0  0  0
  2  3  1  0  0  0  0
  2 44  1  0  0  0  0
  3  4  1  0  0  0  0
  3 48  1  0  0  0  0
  3 49  1  0  0  0  0
  4  5  1  0  0  0  0
  4 50  1  0  0  0  0
  4 51  1  0  0  0  0
  5  6  1  0  0  0  0
  5 43  1  0  0  0  0
  6  7  1  0  0  0  0
  6 52  1  0  0  0  0
  6 53  1  0  0  0  0
  7  8  1  0  0  0  0
  7 42  2  0  0  0  0
  8  9  2  0  0  0  0
  8 54  1  0  0  0  0
  9 10  1  0  0  0  0
  9 55  1  0  0  0  0
 10 11  1  0  0  0  0
 10 41  2  0  0  0  0
 11 12  1  0  0  0  0
 11 56  1  0  0  0  0
 12 13  2  0  0  0  0
 12 14  1  0  0  0  0
 14 15  1  0  0  0  0
 14 57  1  0  0  0  0
 15 16  1  0  0  0  0
 15 40  2  0  0  0  0
 16 17  2  0  0  0  0
 16 58  1  0  0  0  0
 17 18  1  0  0  0  0
 17 59  1  0  0  0  0
 18 19  1  0  0  0  0
 18 39  2  0  0  0  0
 19 20  1  0  0  0  0
 19 21  1  0  0  0  0
 20 60  1  0  0  0  0
 20 61  1  0  0  0  0
 20 62  1  0  0  0  0
 21 22  1  0  0  0  0
 21 38  2  0  0  0  0
 22 23  2  0  0  0  0
 22 63  1  0  0  0  0
 23 24  1  0  0  0  0
 23 64  1  0  0  0  0
 24 25  2  0  0  0  0
 25 26  1  0  0  0  0
 25 38  1  0  0  0  0
 26 27  1  0  0  0  0
 26 65  1  0  0  0  0
 27 28  1  0  0  0  0
 27 37  2  0  0  0  0
 28 29  2  0  0  0  0
 28 66  1  0  0  0  0
 29 30  1  0  0  0  0
 29 67  1  0  0  0  0
 30 31  1  0  0  0  0
 30 36  2  0  0  0  0
 31 32  1  0  0  0  0
 31 68  1  0  0  0  0
 31 69  1  0  0  0  0
 32 33  1  0  0  0  0
 32 34  2  0  0  0  0
 32 35  2  0  0  0  0
 33 70  1  0  0  0  0
 33 71  1  0  0  0  0
 33 72  1  0  0  0  0
 36 37  1  0  0  0  0
 36 73  1  0  0  0  0
 37 74  1  0  0  0  0
 39 40  1  0  0  0  0
 39 75  1  0  0  0  0
 40 76  1  0  0  0  0
 41 42  1  0  0  0  0
 41 77  1  0  0  0  0
 42 78  1  0  0  0  0
 43 44  1  0  0  0  0
 43 79  1  0  0  0  0
 43 80  1  0  0  0  0
 44 81  1  0  0  0  0
 44 82  1  0  0  0  0
M  END
$$$$
