CHEMBL524453
 OpenBabel04072215383D

 63 67  0  0  0  0  0  0  0  0999 V2000
    1.0397   -0.5856   -0.6923 C   0  0  0  0  0  0  0  0  0  0  0  0
    2.4664   -0.5845   -0.6105 O   0  0  0  0  0  0  0  0  0  0  0  0
    3.0010    0.6574   -0.6872 C   0  0  0  0  0  0  0  0  0  0  0  0
    2.3707    1.6992   -0.7944 O   0  0  0  0  0  0  0  0  0  0  0  0
    4.4867    0.6059   -0.6946 C   0  0  0  0  0  0  0  0  0  0  0  0
    5.2315   -0.5944   -0.6180 C   0  0  0  0  0  0  0  0  0  0  0  0
    6.6353   -0.6000   -0.7750 C   0  0  0  0  0  0  0  0  0  0  0  0
    7.2765    0.5966   -1.0457 C   0  0  0  0  0  0  0  0  0  0  0  0
    6.5087    1.7736   -1.0832 C   0  0  0  0  0  0  0  0  0  0  0  0
    5.1456    1.8191   -0.8869 C   0  0  0  0  0  0  0  0  0  0  0  0
    7.2640    2.8531   -1.5144 N   0  0  0  0  0  0  0  0  0  0  0  0
    8.4816    2.4055   -1.9812 C   0  0  0  0  0  0  0  0  0  0  0  0
    9.1324    2.9521   -2.8521 O   0  0  0  0  0  0  0  0  0  0  0  0
    8.6552    1.0203   -1.3968 C   0  0  0  0  0  0  0  0  0  0  0  0
    9.8629    0.4295   -1.2286 C   0  0  0  0  0  0  0  0  0  0  0  0
   11.1494    0.9754   -1.2739 N   0  0  0  0  0  0  0  0  0  0  0  0
   11.5583    2.3272   -1.3043 C   0  0  0  0  0  0  0  0  0  0  0  0
   10.8783    3.3399   -0.6315 C   0  0  0  0  0  0  0  0  0  0  0  0
   11.0091    4.6860   -1.0238 C   0  0  0  0  0  0  0  0  0  0  0  0
   11.8924    5.0857   -2.0348 C   0  0  0  0  0  0  0  0  0  0  0  0
   11.9025    6.4381   -2.5784 N   0  0  0  0  0  0  0  0  0  0  0  0
   12.5659    6.6623   -3.8658 C   0  0  0  0  0  0  0  0  0  0  0  0
   11.2087    7.5099   -1.9686 C   0  0  0  0  0  0  0  0  0  0  0  0
   10.5923    7.4473   -0.9003 O   0  0  0  0  0  0  0  0  0  0  0  0
   11.2584    8.8788   -2.6398 C   0  0  0  0  0  0  0  0  0  0  0  0
   10.1581    9.1142   -3.5555 N   0  0  0  0  0  0  0  0  0  0  0  0
   10.2670    9.4872   -4.8686 C   0  0  0  0  0  0  0  0  0  0  0  0
    8.9737    9.6969   -5.2870 C   0  0  0  0  0  0  0  0  0  0  0  0
    8.0914    9.4786   -4.2618 N   0  0  0  0  0  0  0  0  0  0  0  0
    8.8313    9.1383   -3.2296 C   0  0  0  0  0  0  0  0  0  0  0  0
   12.7354    4.0764   -2.5328 C   0  0  0  0  0  0  0  0  0  0  0  0
   12.5596    2.7217   -2.1906 C   0  0  0  0  0  0  0  0  0  0  0  0
    9.9014   -1.0510   -1.1382 C   0  0  0  0  0  0  0  0  0  0  0  0
    9.9178   -1.7724   -2.3469 C   0  0  0  0  0  0  0  0  0  0  0  0
   10.0003   -3.1641   -2.3498 C   0  0  0  0  0  0  0  0  0  0  0  0
   10.0686   -3.8507   -1.1413 C   0  0  0  0  0  0  0  0  0  0  0  0
   10.0614   -3.1455    0.0651 C   0  0  0  0  0  0  0  0  0  0  0  0
    9.9850   -1.7470    0.0706 C   0  0  0  0  0  0  0  0  0  0  0  0
    0.6893   -1.6001   -0.4890 H   0  0  0  0  0  0  0  0  0  0  0  0
    0.7195   -0.3004   -1.7000 H   0  0  0  0  0  0  0  0  0  0  0  0
    0.6040    0.0871    0.0539 H   0  0  0  0  0  0  0  0  0  0  0  0
    4.7194   -1.5446   -0.4754 H   0  0  0  0  0  0  0  0  0  0  0  0
    7.1697   -1.5434   -0.7415 H   0  0  0  0  0  0  0  0  0  0  0  0
    4.6020    2.7560   -0.9655 H   0  0  0  0  0  0  0  0  0  0  0  0
    6.8833    3.7405   -1.8082 H   0  0  0  0  0  0  0  0  0  0  0  0
   11.8895    0.3091   -1.4737 H   0  0  0  0  0  0  0  0  0  0  0  0
   10.1258    3.0946    0.1131 H   0  0  0  0  0  0  0  0  0  0  0  0
   10.2979    5.3661   -0.5706 H   0  0  0  0  0  0  0  0  0  0  0  0
   12.9183    5.7632   -4.3680 H   0  0  0  0  0  0  0  0  0  0  0  0
   13.4140    7.3366   -3.7127 H   0  0  0  0  0  0  0  0  0  0  0  0
   11.8591    7.1270   -4.5582 H   0  0  0  0  0  0  0  0  0  0  0  0
   12.2041    9.0670   -3.1523 H   0  0  0  0  0  0  0  0  0  0  0  0
   11.1808    9.6443   -1.8562 H   0  0  0  0  0  0  0  0  0  0  0  0
   11.2147    9.5779   -5.3802 H   0  0  0  0  0  0  0  0  0  0  0  0
    8.6323   10.0036   -6.2672 H   0  0  0  0  0  0  0  0  0  0  0  0
    8.4604    8.9106   -2.2369 H   0  0  0  0  0  0  0  0  0  0  0  0
   13.5307    4.2836   -3.2397 H   0  0  0  0  0  0  0  0  0  0  0  0
   13.1641    1.9734   -2.6964 H   0  0  0  0  0  0  0  0  0  0  0  0
    9.8792   -1.2415   -3.2972 H   0  0  0  0  0  0  0  0  0  0  0  0
   10.0209   -3.7061   -3.2917 H   0  0  0  0  0  0  0  0  0  0  0  0
   10.1369   -4.9362   -1.1387 H   0  0  0  0  0  0  0  0  0  0  0  0
   10.1237   -3.6912    1.0043 H   0  0  0  0  0  0  0  0  0  0  0  0
    9.9961   -1.2121    1.0165 H   0  0  0  0  0  0  0  0  0  0  0  0
  1  2  1  0  0  0  0
  1 39  1  0  0  0  0
  1 40  1  0  0  0  0
  1 41  1  0  0  0  0
  2  3  1  0  0  0  0
  3  4  2  0  0  0  0
  3  5  1  0  0  0  0
  5  6  1  0  0  0  0
  5 10  2  0  0  0  0
  6  7  2  0  0  0  0
  6 42  1  0  0  0  0
  7  8  1  0  0  0  0
  7 43  1  0  0  0  0
  8  9  2  0  0  0  0
  8 14  1  0  0  0  0
  9 10  1  0  0  0  0
  9 11  1  0  0  0  0
 10 44  1  0  0  0  0
 11 12  1  0  0  0  0
 11 45  1  0  0  0  0
 12 13  2  0  0  0  0
 12 14  1  0  0  0  0
 14 15  2  0  0  0  0
 15 16  1  0  0  0  0
 15 33  1  0  0  0  0
 16 17  1  0  0  0  0
 16 46  1  0  0  0  0
 17 18  1  0  0  0  0
 17 32  2  0  0  0  0
 18 19  2  0  0  0  0
 18 47  1  0  0  0  0
 19 20  1  0  0  0  0
 19 48  1  0  0  0  0
 20 21  1  0  0  0  0
 20 31  2  0  0  0  0
 21 22  1  0  0  0  0
 21 23  1  0  0  0  0
 22 49  1  0  0  0  0
 22 50  1  0  0  0  0
 22 51  1  0  0  0  0
 23 24  2  0  0  0  0
 23 25  1  0  0  0  0
 25 26  1  0  0  0  0
 25 52  1  0  0  0  0
 25 53  1  0  0  0  0
 26 27  1  0  0  0  0
 26 30  1  0  0  0  0
 27 28  2  0  0  0  0
 27 54  1  0  0  0  0
 28 29  1  0  0  0  0
 28 55  1  0  0  0  0
 29 30  2  0  0  0  0
 30 56  1  0  0  0  0
 31 32  1  0  0  0  0
 31 57  1  0  0  0  0
 32 58  1  0  0  0  0
 33 34  1  0  0  0  0
 33 38  2  0  0  0  0
 34 35  2  0  0  0  0
 34 59  1  0  0  0  0
 35 36  1  0  0  0  0
 35 60  1  0  0  0  0
 36 37  2  0  0  0  0
 36 61  1  0  0  0  0
 37 38  1  0  0  0  0
 37 62  1  0  0  0  0
 38 63  1  0  0  0  0
M  END
$$$$
