CHEMBL452288
 OpenBabel04072215383D

 52 56  0  0  0  0  0  0  0  0999 V2000
    2.3704   -0.4128    1.4599 C   0  0  0  0  0  0  0  0  0  0  0  0
    0.8737   -0.3028    1.4423 C   0  0  0  0  0  0  0  0  0  0  0  0
    0.2649    0.8823    1.8672 C   0  0  0  0  0  0  0  0  0  0  0  0
   -1.1181    0.9960    1.8593 C   0  0  0  0  0  0  0  0  0  0  0  0
   -1.9045   -0.0711    1.4263 C   0  0  0  0  0  0  0  0  0  0  0  0
   -1.3285   -1.2664    0.9823 C   0  0  0  0  0  0  0  0  0  0  0  0
   -2.0972   -2.3756    0.5340 N   0  0  0  0  0  0  0  0  0  0  0  0
   -3.4723   -2.3768    0.3482 C   0  0  0  0  0  0  0  0  0  0  0  0
   -4.2007   -1.3967    0.4639 O   0  0  0  0  0  0  0  0  0  0  0  0
   -3.9684   -3.6470    0.0594 N   0  0  0  0  0  0  0  0  0  0  0  0
   -5.3687   -3.8171   -0.1091 C   0  0  0  0  0  0  0  0  0  0  0  0
   -6.1115   -2.9530   -0.9238 C   0  0  0  0  0  0  0  0  0  0  0  0
   -7.5070   -3.0294   -0.9612 C   0  0  0  0  0  0  0  0  0  0  0  0
   -8.1753   -3.9700   -0.1737 C   0  0  0  0  0  0  0  0  0  0  0  0
   -9.6418   -3.9846   -0.1257 C   0  0  0  0  0  0  0  0  0  0  0  0
  -10.3655   -3.1490    0.8849 C   0  0  0  0  0  0  0  0  0  0  0  0
  -11.6509   -3.0759    1.0645 N   0  0  0  0  0  0  0  0  0  0  0  0
  -12.4159   -3.8536    0.2377 C   0  0  0  0  0  0  0  0  0  0  0  0
  -13.7788   -4.0698    0.1499 C   0  0  0  0  0  0  0  0  0  0  0  0
  -14.8557   -3.4550    0.9870 C   0  0  0  0  0  0  0  0  0  0  0  0
  -14.6611   -2.5161    1.9800 C   0  0  0  0  0  0  0  0  0  0  0  0
  -15.8783   -2.1303    2.6164 C   0  0  0  0  0  0  0  0  0  0  0  0
  -16.9666   -2.7857    2.0853 C   0  0  0  0  0  0  0  0  0  0  0  0
  -16.5168   -3.8464    0.8231 S   0  0  0  0  0  0  0  0  0  0  0  0
  -13.9311   -5.0080   -0.8893 C   0  0  0  0  0  0  0  0  0  0  0  0
  -12.7749   -5.3743   -1.4418 N   0  0  0  0  0  0  0  0  0  0  0  0
  -11.8364   -4.6521   -0.7587 N   0  0  0  0  0  0  0  0  0  0  0  0
  -10.4268   -4.7065   -0.9495 C   0  0  0  0  0  0  0  0  0  0  0  0
   -9.9647   -5.5290   -1.9799 N   0  0  0  0  0  0  0  0  0  0  0  0
   -7.4287   -4.8730    0.5970 C   0  0  0  0  0  0  0  0  0  0  0  0
   -6.0282   -4.8139    0.6106 C   0  0  0  0  0  0  0  0  0  0  0  0
    0.0711   -1.3742    1.0002 C   0  0  0  0  0  0  0  0  0  0  0  0
    2.8314    0.5025    1.8497 H   0  0  0  0  0  0  0  0  0  0  0  0
    2.7530   -0.5720    0.4478 H   0  0  0  0  0  0  0  0  0  0  0  0
    2.6836   -1.2388    2.1066 H   0  0  0  0  0  0  0  0  0  0  0  0
    0.8611    1.7250    2.2087 H   0  0  0  0  0  0  0  0  0  0  0  0
   -1.5968    1.9147    2.1887 H   0  0  0  0  0  0  0  0  0  0  0  0
   -2.9779    0.0784    1.4546 H   0  0  0  0  0  0  0  0  0  0  0  0
   -1.5892   -3.1808    0.1969 H   0  0  0  0  0  0  0  0  0  0  0  0
   -3.4818   -4.3950    0.5322 H   0  0  0  0  0  0  0  0  0  0  0  0
   -5.6117   -2.1866   -1.5130 H   0  0  0  0  0  0  0  0  0  0  0  0
   -8.0596   -2.3279   -1.5825 H   0  0  0  0  0  0  0  0  0  0  0  0
   -9.7196   -2.5322    1.5338 H   0  0  0  0  0  0  0  0  0  0  0  0
  -13.6926   -2.1146    2.2518 H   0  0  0  0  0  0  0  0  0  0  0  0
  -15.9483   -1.4103    3.4235 H   0  0  0  0  0  0  0  0  0  0  0  0
  -18.0033   -2.6915    2.3769 H   0  0  0  0  0  0  0  0  0  0  0  0
  -14.8451   -5.4477   -1.2678 H   0  0  0  0  0  0  0  0  0  0  0  0
  -10.6715   -6.2153   -2.2572 H   0  0  0  0  0  0  0  0  0  0  0  0
   -9.0407   -5.9197   -1.8234 H   0  0  0  0  0  0  0  0  0  0  0  0
   -7.9329   -5.6053    1.2245 H   0  0  0  0  0  0  0  0  0  0  0  0
   -5.4788   -5.4932    1.2558 H   0  0  0  0  0  0  0  0  0  0  0  0
    0.5557   -2.2903    0.6708 H   0  0  0  0  0  0  0  0  0  0  0  0
  1  2  1  0  0  0  0
  1 33  1  0  0  0  0
  1 34  1  0  0  0  0
  1 35  1  0  0  0  0
  2  3  1  0  0  0  0
  2 32  2  0  0  0  0
  3  4  2  0  0  0  0
  3 36  1  0  0  0  0
  4  5  1  0  0  0  0
  4 37  1  0  0  0  0
  5  6  2  0  0  0  0
  5 38  1  0  0  0  0
  6  7  1  0  0  0  0
  6 32  1  0  0  0  0
  7  8  1  0  0  0  0
  7 39  1  0  0  0  0
  8  9  2  0  0  0  0
  8 10  1  0  0  0  0
 10 11  1  0  0  0  0
 10 40  1  0  0  0  0
 11 12  1  0  0  0  0
 11 31  2  0  0  0  0
 12 13  2  0  0  0  0
 12 41  1  0  0  0  0
 13 14  1  0  0  0  0
 13 42  1  0  0  0  0
 14 15  1  0  0  0  0
 14 30  2  0  0  0  0
 15 16  1  0  0  0  0
 15 28  2  0  0  0  0
 16 17  2  0  0  0  0
 16 43  1  0  0  0  0
 17 18  1  0  0  0  0
 18 19  2  0  0  0  0
 18 27  1  0  0  0  0
 19 20  1  0  0  0  0
 19 25  1  0  0  0  0
 20 21  2  0  0  0  0
 20 24  1  0  0  0  0
 21 22  1  0  0  0  0
 21 44  1  0  0  0  0
 22 23  2  0  0  0  0
 22 45  1  0  0  0  0
 23 24  1  0  0  0  0
 23 46  1  0  0  0  0
 25 26  2  0  0  0  0
 25 47  1  0  0  0  0
 26 27  1  0  0  0  0
 27 28  1  0  0  0  0
 28 29  1  0  0  0  0
 29 48  1  0  0  0  0
 29 49  1  0  0  0  0
 30 31  1  0  0  0  0
 30 50  1  0  0  0  0
 31 51  1  0  0  0  0
 32 52  1  0  0  0  0
M  END
$$$$
