CHEMBL2086746
 OpenBabel04072215363D

 58 62  0  0  0  0  0  0  0  0999 V2000
    1.9170   -2.8176   -1.8815 C   0  0  0  0  0  0  0  0  0  0  0  0
    3.0475   -1.8025   -1.7933 C   0  0  0  0  0  0  0  0  0  0  0  0
    3.0783   -0.8865   -3.0224 C   0  0  0  0  0  0  0  0  0  0  0  0
    4.1495    0.2081   -2.9497 C   0  0  0  0  0  0  0  0  0  0  0  0
    5.4956   -0.3829   -2.8792 N   0  0  0  0  0  0  0  0  0  0  0  0
    6.8093    0.6851   -2.7448 S   0  0  0  0  0  0  0  0  0  0  0  0
    6.3493    1.8993   -2.1105 O   0  0  0  0  0  0  0  0  0  0  0  0
    7.9212   -0.0821   -2.2302 O   0  0  0  0  0  0  0  0  0  0  0  0
    7.2097    1.0545   -4.4498 C   0  0  0  0  0  0  0  0  0  0  0  0
    7.6645   -0.0064   -5.2532 C   0  0  0  0  0  0  0  0  0  0  0  0
    8.0268    0.2345   -6.5758 C   0  0  0  0  0  0  0  0  0  0  0  0
    7.9353    1.5370   -7.0444 C   0  0  0  0  0  0  0  0  0  0  0  0
    7.5227    2.6272   -6.2647 C   0  0  0  0  0  0  0  0  0  0  0  0
    7.1511    2.3783   -4.9411 C   0  0  0  0  0  0  0  0  0  0  0  0
    7.6034    3.8366   -7.1640 C   0  0  0  0  0  0  0  0  0  0  0  0
    7.4126    5.1523   -6.8777 C   0  0  0  0  0  0  0  0  0  0  0  0
    7.1807    5.5056   -5.4513 C   0  0  0  0  0  0  0  0  0  0  0  0
    8.2801    5.8250   -4.6339 C   0  0  0  0  0  0  0  0  0  0  0  0
    8.0748    6.3540   -3.3630 C   0  0  0  0  0  0  0  0  0  0  0  0
    6.7766    6.5375   -2.8924 C   0  0  0  0  0  0  0  0  0  0  0  0
    5.6806    6.1982   -3.6884 C   0  0  0  0  0  0  0  0  0  0  0  0
    5.8775    5.6949   -4.9744 C   0  0  0  0  0  0  0  0  0  0  0  0
    7.5386    6.2458   -7.8266 C   0  0  0  0  0  0  0  0  0  0  0  0
    7.3351    6.4188   -9.1294 N   0  0  0  0  0  0  0  0  0  0  0  0
    7.7904    7.6979   -9.4335 C   0  0  0  0  0  0  0  0  0  0  0  0
    7.9102    8.3967  -10.6489 C   0  0  0  0  0  0  0  0  0  0  0  0
    8.5485    9.6559  -10.6499 C   0  0  0  0  0  0  0  0  0  0  0  0
    9.0225   10.2277   -9.4666 C   0  0  0  0  0  0  0  0  0  0  0  0
    8.8257    9.5932   -8.2424 C   0  0  0  0  0  0  0  0  0  0  0  0
    8.2143    8.3405   -8.2830 C   0  0  0  0  0  0  0  0  0  0  0  0
    7.8866    7.4715   -7.2887 N   0  0  0  0  0  0  0  0  0  0  0  0
    8.1007    3.3079   -8.5004 C   0  0  0  0  0  0  0  0  0  0  0  0
    8.4078    3.8931   -9.5177 O   0  0  0  0  0  0  0  0  0  0  0  0
    8.2495    1.9444   -8.3299 N   0  0  0  0  0  0  0  0  0  0  0  0
    1.9239   -3.4720   -1.0007 H   0  0  0  0  0  0  0  0  0  0  0  0
    2.0194   -3.4479   -2.7698 H   0  0  0  0  0  0  0  0  0  0  0  0
    0.9416   -2.3211   -1.9226 H   0  0  0  0  0  0  0  0  0  0  0  0
    3.9970   -2.3409   -1.6998 H   0  0  0  0  0  0  0  0  0  0  0  0
    2.9209   -1.2043   -0.8835 H   0  0  0  0  0  0  0  0  0  0  0  0
    2.1001   -0.3994   -3.1239 H   0  0  0  0  0  0  0  0  0  0  0  0
    3.2276   -1.4924   -3.9242 H   0  0  0  0  0  0  0  0  0  0  0  0
    3.9707    0.8229   -2.0614 H   0  0  0  0  0  0  0  0  0  0  0  0
    4.0731    0.8389   -3.8412 H   0  0  0  0  0  0  0  0  0  0  0  0
    5.6730   -1.1351   -3.5431 H   0  0  0  0  0  0  0  0  0  0  0  0
    7.7606   -1.0113   -4.8445 H   0  0  0  0  0  0  0  0  0  0  0  0
    8.3808   -0.5737   -7.2075 H   0  0  0  0  0  0  0  0  0  0  0  0
    6.8386    3.1708   -4.2708 H   0  0  0  0  0  0  0  0  0  0  0  0
    9.2966    5.7192   -5.0089 H   0  0  0  0  0  0  0  0  0  0  0  0
    8.9247    6.6387   -2.7461 H   0  0  0  0  0  0  0  0  0  0  0  0
    6.6142    6.9534   -1.9012 H   0  0  0  0  0  0  0  0  0  0  0  0
    4.6719    6.3443   -3.3152 H   0  0  0  0  0  0  0  0  0  0  0  0
    5.0236    5.4686   -5.6055 H   0  0  0  0  0  0  0  0  0  0  0  0
    7.5506    7.9644  -11.5760 H   0  0  0  0  0  0  0  0  0  0  0  0
    8.6926   10.1890  -11.5876 H   0  0  0  0  0  0  0  0  0  0  0  0
    9.5511   11.1786   -9.4919 H   0  0  0  0  0  0  0  0  0  0  0  0
    9.1682   10.0306   -7.3115 H   0  0  0  0  0  0  0  0  0  0  0  0
    7.9777    7.6801   -6.3078 H   0  0  0  0  0  0  0  0  0  0  0  0
    8.6081    1.3522   -9.0654 H   0  0  0  0  0  0  0  0  0  0  0  0
  1  2  1  0  0  0  0
  1 35  1  0  0  0  0
  1 36  1  0  0  0  0
  1 37  1  0  0  0  0
  2  3  1  0  0  0  0
  2 38  1  0  0  0  0
  2 39  1  0  0  0  0
  3  4  1  0  0  0  0
  3 40  1  0  0  0  0
  3 41  1  0  0  0  0
  4  5  1  0  0  0  0
  4 42  1  0  0  0  0
  4 43  1  0  0  0  0
  5  6  1  0  0  0  0
  5 44  1  0  0  0  0
  6  7  2  0  0  0  0
  6  8  2  0  0  0  0
  6  9  1  0  0  0  0
  9 10  1  0  0  0  0
  9 14  2  0  0  0  0
 10 11  2  0  0  0  0
 10 45  1  0  0  0  0
 11 12  1  0  0  0  0
 11 46  1  0  0  0  0
 12 13  2  0  0  0  0
 12 34  1  0  0  0  0
 13 14  1  0  0  0  0
 13 15  1  0  0  0  0
 14 47  1  0  0  0  0
 15 16  2  3  0  0  0
 15 32  1  0  0  0  0
 16 17  1  0  0  0  0
 16 23  1  0  0  0  0
 17 18  1  0  0  0  0
 17 22  2  0  0  0  0
 18 19  2  0  0  0  0
 18 48  1  0  0  0  0
 19 20  1  0  0  0  0
 19 49  1  0  0  0  0
 20 21  2  0  0  0  0
 20 50  1  0  0  0  0
 21 22  1  0  0  0  0
 21 51  1  0  0  0  0
 22 52  1  0  0  0  0
 23 24  2  0  0  0  0
 23 31  1  0  0  0  0
 24 25  1  0  0  0  0
 25 26  1  0  0  0  0
 25 30  2  0  0  0  0
 26 27  2  0  0  0  0
 26 53  1  0  0  0  0
 27 28  1  0  0  0  0
 27 54  1  0  0  0  0
 28 29  2  0  0  0  0
 28 55  1  0  0  0  0
 29 30  1  0  0  0  0
 29 56  1  0  0  0  0
 30 31  1  0  0  0  0
 31 57  1  0  0  0  0
 32 33  2  0  0  0  0
 32 34  1  0  0  0  0
 34 58  1  0  0  0  0
M  END
$$$$
