CHEMBL212499
 OpenBabel04072215363D

 70 75  0  0  0  0  0  0  0  0999 V2000
   -9.2344   -3.0982   11.1239 C   0  0  0  0  0  0  0  0  0  0  0  0
   -8.1795   -2.7241   10.1437 C   0  0  0  0  0  0  0  0  0  0  0  0
   -6.9871   -2.0770   10.5412 C   0  0  0  0  0  0  0  0  0  0  0  0
   -6.0372   -1.7547    9.6453 C   0  0  0  0  0  0  0  0  0  0  0  0
   -6.1869   -2.0176    8.2712 C   0  0  0  0  0  0  0  0  0  0  0  0
   -7.3758   -2.6603    7.8412 C   0  0  0  0  0  0  0  0  0  0  0  0
   -7.5942   -2.9821    6.4736 N   0  0  0  0  0  0  0  0  0  0  0  0
   -6.7492   -2.7081    5.4096 C   0  0  0  0  0  0  0  0  0  0  0  0
   -5.6622   -2.1444    5.4316 O   0  0  0  0  0  0  0  0  0  0  0  0
   -7.2764   -3.2476    4.0983 C   0  0  0  0  0  0  0  0  0  0  0  0
   -6.7924   -4.6837    3.9055 C   0  0  0  0  0  0  0  0  0  0  0  0
   -7.2798   -5.2313    2.5869 C   0  0  0  0  0  0  0  0  0  0  0  0
   -7.2211   -4.5930    1.3881 C   0  0  0  0  0  0  0  0  0  0  0  0
   -7.7630   -5.3789    0.3551 C   0  0  0  0  0  0  0  0  0  0  0  0
   -8.3939   -6.5389    0.7937 C   0  0  0  0  0  0  0  0  0  0  0  0
   -9.2774   -7.4048   -0.1071 C   0  0  0  0  0  0  0  0  0  0  0  0
   -9.4216   -8.7459   -0.0416 N   0  0  0  0  0  0  0  0  0  0  0  0
   -9.7933   -9.0994   -1.3072 N   0  0  0  0  0  0  0  0  0  0  0  0
  -10.0265   -8.0511   -2.1629 C   0  0  0  0  0  0  0  0  0  0  0  0
   -9.8413   -6.9450   -1.3217 C   0  0  0  0  0  0  0  0  0  0  0  0
   -9.5175   -5.7506   -2.1316 C   0  0  0  0  0  0  0  0  0  0  0  0
   -8.5929   -6.5842   -3.0323 C   0  0  0  0  0  0  0  0  0  0  0  0
   -7.2531   -6.9694   -2.7760 C   0  0  0  0  0  0  0  0  0  0  0  0
   -6.7194   -8.0558   -3.4933 C   0  0  0  0  0  0  0  0  0  0  0  0
   -5.5754   -8.9308   -2.9728 C   0  0  0  0  0  0  0  0  0  0  0  0
   -4.5552   -9.2256   -3.9836 N   0  0  0  0  0  0  0  0  0  0  0  0
   -3.7247   -8.0424   -4.2376 C   0  0  0  0  0  0  0  0  0  0  0  0
   -2.6389   -8.3316   -5.2943 C   0  0  0  0  0  0  0  0  0  0  0  0
   -1.7457   -9.4610   -4.9691 N   0  0  0  0  0  0  0  0  0  0  0  0
   -0.8086   -9.1146   -3.9034 C   0  0  0  0  0  0  0  0  0  0  0  0
   -2.5662  -10.6372   -4.6135 C   0  0  0  0  0  0  0  0  0  0  0  0
   -3.6993  -10.3667   -3.5879 C   0  0  0  0  0  0  0  0  0  0  0  0
   -7.4608   -8.5337   -4.5620 C   0  0  0  0  0  0  0  0  0  0  0  0
   -8.8463   -8.4260   -4.4895 C   0  0  0  0  0  0  0  0  0  0  0  0
   -9.3898   -7.6528   -3.4882 C   0  0  0  0  0  0  0  0  0  0  0  0
   -7.9586   -6.8182    2.4270 S   0  0  0  0  0  0  0  0  0  0  0  0
   -8.3513   -3.0065    8.7736 C   0  0  0  0  0  0  0  0  0  0  0  0
   -8.9689   -2.7807   12.1391 H   0  0  0  0  0  0  0  0  0  0  0  0
   -9.3731   -4.1858   11.1395 H   0  0  0  0  0  0  0  0  0  0  0  0
  -10.1875   -2.6171   10.8664 H   0  0  0  0  0  0  0  0  0  0  0  0
   -6.8424   -1.8668   11.6135 H   0  0  0  0  0  0  0  0  0  0  0  0
   -5.1057   -1.2483    9.9622 H   0  0  0  0  0  0  0  0  0  0  0  0
   -5.4077   -1.7342    7.6058 H   0  0  0  0  0  0  0  0  0  0  0  0
   -8.4749   -3.4447    6.2684 H   0  0  0  0  0  0  0  0  0  0  0  0
   -6.9137   -2.5798    3.3150 H   0  0  0  0  0  0  0  0  0  0  0  0
   -8.3688   -3.1818    4.0690 H   0  0  0  0  0  0  0  0  0  0  0  0
   -7.1309   -5.3144    4.7268 H   0  0  0  0  0  0  0  0  0  0  0  0
   -5.6994   -4.7067    3.8977 H   0  0  0  0  0  0  0  0  0  0  0  0
   -6.8243   -3.5890    1.2286 H   0  0  0  0  0  0  0  0  0  0  0  0
   -7.6758   -5.0355   -0.6442 H   0  0  0  0  0  0  0  0  0  0  0  0
   -9.8613  -10.0981   -1.5316 H   0  0  0  0  0  0  0  0  0  0  0  0
   -9.1424   -4.8522   -1.6709 H   0  0  0  0  0  0  0  0  0  0  0  0
  -10.4080   -5.4399   -2.6978 H   0  0  0  0  0  0  0  0  0  0  0  0
   -6.7365   -6.6278   -1.8813 H   0  0  0  0  0  0  0  0  0  0  0  0
   -6.0600   -9.8770   -2.6794 H   0  0  0  0  0  0  0  0  0  0  0  0
   -5.1385   -8.5306   -2.0492 H   0  0  0  0  0  0  0  0  0  0  0  0
   -3.2593   -7.6918   -3.3074 H   0  0  0  0  0  0  0  0  0  0  0  0
   -4.3489   -7.2244   -4.6143 H   0  0  0  0  0  0  0  0  0  0  0  0
   -2.0539   -7.4222   -5.4714 H   0  0  0  0  0  0  0  0  0  0  0  0
   -3.1349   -8.5555   -6.2485 H   0  0  0  0  0  0  0  0  0  0  0  0
   -0.2260   -8.2286   -4.1802 H   0  0  0  0  0  0  0  0  0  0  0  0
   -0.0875   -9.9261   -3.7563 H   0  0  0  0  0  0  0  0  0  0  0  0
   -1.2948   -8.9140   -2.9435 H   0  0  0  0  0  0  0  0  0  0  0  0
   -1.9228  -11.4497   -4.2511 H   0  0  0  0  0  0  0  0  0  0  0  0
   -3.0207  -11.0180   -5.5384 H   0  0  0  0  0  0  0  0  0  0  0  0
   -3.2582  -10.1960   -2.5972 H   0  0  0  0  0  0  0  0  0  0  0  0
   -4.3076  -11.2773   -3.5153 H   0  0  0  0  0  0  0  0  0  0  0  0
   -6.9747   -9.0663   -5.3757 H   0  0  0  0  0  0  0  0  0  0  0  0
   -9.4454   -8.6806   -5.3640 H   0  0  0  0  0  0  0  0  0  0  0  0
   -9.2628   -3.4952    8.4416 H   0  0  0  0  0  0  0  0  0  0  0  0
  1  2  1  0  0  0  0
  1 38  1  0  0  0  0
  1 39  1  0  0  0  0
  1 40  1  0  0  0  0
  2  3  1  0  0  0  0
  2 37  2  0  0  0  0
  3  4  2  0  0  0  0
  3 41  1  0  0  0  0
  4  5  1  0  0  0  0
  4 42  1  0  0  0  0
  5  6  2  0  0  0  0
  5 43  1  0  0  0  0
  6  7  1  0  0  0  0
  6 37  1  0  0  0  0
  7  8  1  0  0  0  0
  7 44  1  0  0  0  0
  8  9  2  0  0  0  0
  8 10  1  0  0  0  0
 10 11  1  0  0  0  0
 10 45  1  0  0  0  0
 10 46  1  0  0  0  0
 11 12  1  0  0  0  0
 11 47  1  0  0  0  0
 11 48  1  0  0  0  0
 12 13  2  0  0  0  0
 12 36  1  0  0  0  0
 13 14  1  0  0  0  0
 13 49  1  0  0  0  0
 14 15  2  0  0  0  0
 14 50  1  0  0  0  0
 15 16  1  0  0  0  0
 15 36  1  0  0  0  0
 16 17  2  0  0  0  0
 16 20  1  0  0  0  0
 17 18  1  0  0  0  0
 18 19  1  0  0  0  0
 18 51  1  0  0  0  0
 19 20  2  0  0  0  0
 19 35  1  0  0  0  0
 20 21  1  0  0  0  0
 21 22  1  0  0  0  0
 21 52  1  0  0  0  0
 21 53  1  0  0  0  0
 22 23  1  0  0  0  0
 22 35  2  0  0  0  0
 23 24  2  0  0  0  0
 23 54  1  0  0  0  0
 24 25  1  0  0  0  0
 24 33  1  0  0  0  0
 25 26  1  0  0  0  0
 25 55  1  0  0  0  0
 25 56  1  0  0  0  0
 26 27  1  0  0  0  0
 26 32  1  0  0  0  0
 27 28  1  0  0  0  0
 27 57  1  0  0  0  0
 27 58  1  0  0  0  0
 28 29  1  0  0  0  0
 28 59  1  0  0  0  0
 28 60  1  0  0  0  0
 29 30  1  0  0  0  0
 29 31  1  0  0  0  0
 30 61  1  0  0  0  0
 30 62  1  0  0  0  0
 30 63  1  0  0  0  0
 31 32  1  0  0  0  0
 31 64  1  0  0  0  0
 31 65  1  0  0  0  0
 32 66  1  0  0  0  0
 32 67  1  0  0  0  0
 33 34  2  0  0  0  0
 33 68  1  0  0  0  0
 34 35  1  0  0  0  0
 34 69  1  0  0  0  0
 37 70  1  0  0  0  0
M  END
$$$$
