CHEMBL1163016
 OpenBabel04072215363D

 68 72  0  0  0  0  0  0  0  0999 V2000
    1.8630   -0.1914    0.4960 C   0  0  0  0  0  0  0  0  0  0  0  0
    2.7666   -0.8830   -0.5571 C   0  0  0  0  0  0  0  0  0  0  0  0
    3.9931   -1.4475    0.2208 C   0  0  0  0  0  0  0  0  0  0  0  0
    3.3413    0.1809   -1.5316 C   0  0  0  0  0  0  0  0  0  0  0  0
    2.3048    0.6812   -2.5330 C   0  0  0  0  0  0  0  0  0  0  0  0
    2.8884    1.6360   -3.4790 N   0  0  0  0  0  0  0  0  0  0  0  0
    2.9449    2.9879   -3.2230 C   0  0  0  0  0  0  0  0  0  0  0  0
    2.5521    3.5157   -2.1841 O   0  0  0  0  0  0  0  0  0  0  0  0
    3.5077    3.8442   -4.3058 C   0  0  0  0  0  0  0  0  0  0  0  0
    3.4648    3.4365   -5.6445 C   0  0  0  0  0  0  0  0  0  0  0  0
    3.9250    4.2928   -6.6551 C   0  0  0  0  0  0  0  0  0  0  0  0
    4.3862    5.5681   -6.3233 C   0  0  0  0  0  0  0  0  0  0  0  0
    4.3888    6.0110   -4.9928 C   0  0  0  0  0  0  0  0  0  0  0  0
    4.7453    7.3928   -4.6699 C   0  0  0  0  0  0  0  0  0  0  0  0
    5.4106    7.8412   -3.5077 C   0  0  0  0  0  0  0  0  0  0  0  0
    5.4864    9.2074   -3.6167 C   0  0  0  0  0  0  0  0  0  0  0  0
    6.0262   10.1393   -2.7791 N   0  0  0  0  0  0  0  0  0  0  0  0
    5.8769   11.3776   -3.1464 C   0  0  0  0  0  0  0  0  0  0  0  0
    5.1892   11.8457   -4.3648 C   0  0  0  0  0  0  0  0  0  0  0  0
    4.6991   10.9054   -5.1973 C   0  0  0  0  0  0  0  0  0  0  0  0
    4.0206   11.2115   -6.3799 N   0  0  0  0  0  0  0  0  0  0  0  0
    4.5632   11.9278   -7.4777 C   0  0  0  0  0  0  0  0  0  0  0  0
    5.8591   12.4683   -7.4762 C   0  0  0  0  0  0  0  0  0  0  0  0
    6.3270   13.2500   -8.5382 C   0  0  0  0  0  0  0  0  0  0  0  0
    5.5066   13.5011   -9.6327 C   0  0  0  0  0  0  0  0  0  0  0  0
    4.2276   12.9587   -9.6539 C   0  0  0  0  0  0  0  0  0  0  0  0
    3.4019   13.1549  -10.7227 O   0  0  0  0  0  0  0  0  0  0  0  0
    3.7493   12.1985   -8.5853 C   0  0  0  0  0  0  0  0  0  0  0  0
    4.8382    9.5411   -4.8126 N   0  0  0  0  0  0  0  0  0  0  0  0
    4.4214    8.4223   -5.4746 N   0  0  0  0  0  0  0  0  0  0  0  0
    3.9799    5.1258   -3.9836 C   0  0  0  0  0  0  0  0  0  0  0  0
    1.6963   -0.4996   -3.2985 C   0  0  0  0  0  0  0  0  0  0  0  0
    1.0721   -1.5572   -2.3525 C   0  0  0  0  0  0  0  0  0  0  0  0
   -0.2499   -0.9972   -1.7663 C   0  0  0  0  0  0  0  0  0  0  0  0
    0.6797   -2.7665   -3.2537 C   0  0  0  0  0  0  0  0  0  0  0  0
    2.1281   -1.9485   -1.3796 N   0  0  0  0  0  0  0  0  0  0  0  0
    1.6572   -2.9729   -0.5537 O   0  0  0  0  0  1  0  0  0  0  0  0
    2.4614    0.4466    1.1579 H   0  0  0  0  0  0  0  0  0  0  0  0
    1.3499   -0.9155    1.1380 H   0  0  0  0  0  0  0  0  0  0  0  0
    1.1100    0.4640    0.0615 H   0  0  0  0  0  0  0  0  0  0  0  0
    4.5206   -0.6418    0.7475 H   0  0  0  0  0  0  0  0  0  0  0  0
    4.7151   -1.9253   -0.4503 H   0  0  0  0  0  0  0  0  0  0  0  0
    3.6994   -2.1795    0.9820 H   0  0  0  0  0  0  0  0  0  0  0  0
    4.1905   -0.2462   -2.0889 H   0  0  0  0  0  0  0  0  0  0  0  0
    3.7560    1.0288   -0.9690 H   0  0  0  0  0  0  0  0  0  0  0  0
    1.5160    1.2243   -2.0028 H   0  0  0  0  0  0  0  0  0  0  0  0
    3.4245    1.2424   -4.2343 H   0  0  0  0  0  0  0  0  0  0  0  0
    3.0333    2.4844   -5.9295 H   0  0  0  0  0  0  0  0  0  0  0  0
    3.8923    3.9722   -7.6863 H   0  0  0  0  0  0  0  0  0  0  0  0
    4.7180    6.2336   -7.1174 H   0  0  0  0  0  0  0  0  0  0  0  0
    5.7893    7.2520   -2.6838 H   0  0  0  0  0  0  0  0  0  0  0  0
    6.2987   12.1709   -2.5098 H   0  0  0  0  0  0  0  0  0  0  0  0
    5.1056   12.9093   -4.5484 H   0  0  0  0  0  0  0  0  0  0  0  0
    3.3952   10.4593   -6.6791 H   0  0  0  0  0  0  0  0  0  0  0  0
    6.5438   12.2746   -6.6564 H   0  0  0  0  0  0  0  0  0  0  0  0
    7.3337   13.6581   -8.5038 H   0  0  0  0  0  0  0  0  0  0  0  0
    5.8758   14.1180  -10.4457 H   0  0  0  0  0  0  0  0  0  0  0  0
    3.9237   13.5403  -11.4457 H   0  0  0  0  0  0  0  0  0  0  0  0
    2.7319   11.8140   -8.6306 H   0  0  0  0  0  0  0  0  0  0  0  0
    3.9733    5.4374   -2.9392 H   0  0  0  0  0  0  0  0  0  0  0  0
    2.4820   -0.9661   -3.9144 H   0  0  0  0  0  0  0  0  0  0  0  0
    0.9459   -0.1291   -4.0091 H   0  0  0  0  0  0  0  0  0  0  0  0
   -1.0388   -0.9909   -2.5284 H   0  0  0  0  0  0  0  0  0  0  0  0
   -0.1719    0.0350   -1.4269 H   0  0  0  0  0  0  0  0  0  0  0  0
   -0.6219   -1.5999   -0.9313 H   0  0  0  0  0  0  0  0  0  0  0  0
   -0.0081   -2.4529   -4.0493 H   0  0  0  0  0  0  0  0  0  0  0  0
    0.1643   -3.5506   -2.6864 H   0  0  0  0  0  0  0  0  0  0  0  0
    1.5542   -3.2156   -3.7370 H   0  0  0  0  0  0  0  0  0  0  0  0
  1  2  1  0  0  0  0
  1 38  1  0  0  0  0
  1 39  1  0  0  0  0
  1 40  1  0  0  0  0
  2  3  1  0  0  0  0
  2  4  1  0  0  0  0
  2 36  1  0  0  0  0
  3 41  1  0  0  0  0
  3 42  1  0  0  0  0
  3 43  1  0  0  0  0
  4  5  1  0  0  0  0
  4 44  1  0  0  0  0
  4 45  1  0  0  0  0
  5  6  1  0  0  0  0
  5 32  1  0  0  0  0
  5 46  1  0  0  0  0
  6  7  1  0  0  0  0
  6 47  1  0  0  0  0
  7  8  2  0  0  0  0
  7  9  1  0  0  0  0
  9 10  1  0  0  0  0
  9 31  2  0  0  0  0
 10 11  2  0  0  0  0
 10 48  1  0  0  0  0
 11 12  1  0  0  0  0
 11 49  1  0  0  0  0
 12 13  2  0  0  0  0
 12 50  1  0  0  0  0
 13 14  1  0  0  0  0
 13 31  1  0  0  0  0
 14 15  1  0  0  0  0
 14 30  2  0  0  0  0
 15 16  2  0  0  0  0
 15 51  1  0  0  0  0
 16 17  1  0  0  0  0
 16 29  1  0  0  0  0
 17 18  2  0  0  0  0
 18 19  1  0  0  0  0
 18 52  1  0  0  0  0
 19 20  2  0  0  0  0
 19 53  1  0  0  0  0
 20 21  1  0  0  0  0
 20 29  1  0  0  0  0
 21 22  1  0  0  0  0
 21 54  1  0  0  0  0
 22 23  1  0  0  0  0
 22 28  2  0  0  0  0
 23 24  2  0  0  0  0
 23 55  1  0  0  0  0
 24 25  1  0  0  0  0
 24 56  1  0  0  0  0
 25 26  2  0  0  0  0
 25 57  1  0  0  0  0
 26 27  1  0  0  0  0
 26 28  1  0  0  0  0
 27 58  1  0  0  0  0
 28 59  1  0  0  0  0
 29 30  1  0  0  0  0
 31 60  1  0  0  0  0
 32 33  1  0  0  0  0
 32 61  1  0  0  0  0
 32 62  1  0  0  0  0
 33 34  1  0  0  0  0
 33 35  1  0  0  0  0
 33 36  1  0  0  0  0
 34 63  1  0  0  0  0
 34 64  1  0  0  0  0
 34 65  1  0  0  0  0
 35 66  1  0  0  0  0
 35 67  1  0  0  0  0
 35 68  1  0  0  0  0
 36 37  1  0  0  0  0
M  END
$$$$
