CHEMBL3671573
 OpenBabel04072215373D

 68 71  0  0  0  0  0  0  0  0999 V2000
    4.6063    1.9960    1.1268 C   0  0  0  0  0  0  0  0  0  0  0  0
    4.1827    0.8591    0.5584 C   0  0  0  0  0  0  0  0  0  0  0  0
    5.1375    0.0356   -0.2256 C   0  0  0  0  0  0  0  0  0  0  0  0
    6.3167    0.3495   -0.3463 O   0  0  0  0  0  0  0  0  0  0  0  0
    4.5461   -1.0589   -0.8187 N   0  0  0  0  0  0  0  0  0  0  0  0
    5.3002   -2.0680   -1.4494 C   0  0  0  0  0  0  0  0  0  0  0  0
    6.3914   -2.5929   -0.7500 C   0  0  0  0  0  0  0  0  0  0  0  0
    7.0759   -3.7322   -1.2159 C   0  0  0  0  0  0  0  0  0  0  0  0
    8.0693   -4.4079   -0.4956 C   0  0  0  0  0  0  0  0  0  0  0  0
    8.3813   -4.0106    0.8310 N   0  0  0  0  0  0  0  0  0  0  0  0
    9.0204   -4.8566    1.7650 C   0  0  0  0  0  0  0  0  0  0  0  0
    8.6329   -6.1981    1.8939 C   0  0  0  0  0  0  0  0  0  0  0  0
    9.3533   -7.0764    2.7049 C   0  0  0  0  0  0  0  0  0  0  0  0
   10.4568   -6.6045    3.4091 C   0  0  0  0  0  0  0  0  0  0  0  0
   11.5053   -7.8248    4.4059 Br  0  0  0  0  0  0  0  0  0  0  0  0
   10.8074   -5.2609    3.3733 C   0  0  0  0  0  0  0  0  0  0  0  0
   10.0802   -4.3963    2.5538 C   0  0  0  0  0  0  0  0  0  0  0  0
   10.4358   -3.1032    2.4944 F   0  0  0  0  0  0  0  0  0  0  0  0
    8.6867   -5.4916   -0.9997 N   0  0  0  0  0  0  0  0  0  0  0  0
    8.2954   -5.9141   -2.2010 C   0  0  0  0  0  0  0  0  0  0  0  0
    7.3229   -5.3786   -2.9426 N   0  0  0  0  0  0  0  0  0  0  0  0
    6.7080   -4.3052   -2.4389 C   0  0  0  0  0  0  0  0  0  0  0  0
    5.6423   -3.7503   -3.1427 C   0  0  0  0  0  0  0  0  0  0  0  0
    4.9281   -2.6399   -2.6712 C   0  0  0  0  0  0  0  0  0  0  0  0
    3.9376   -2.2024   -3.5176 O   0  0  0  0  0  0  0  0  0  0  0  0
    3.7218   -0.7901   -3.5329 C   0  0  0  0  0  0  0  0  0  0  0  0
    3.3139   -0.2966   -4.9189 C   0  0  0  0  0  0  0  0  0  0  0  0
    3.0973    1.1433   -4.9060 N   0  0  0  0  0  0  0  0  0  0  0  0
    1.9261    1.6759   -4.4162 C   0  0  0  0  0  0  0  0  0  0  0  0
    0.9746    0.9830   -4.0665 O   0  0  0  0  0  0  0  0  0  0  0  0
    1.8979    3.1841   -4.3102 C   0  0  0  0  0  0  0  0  0  0  0  0
    2.8368    3.6750   -3.2041 C   0  0  0  0  0  0  0  0  0  0  0  0
    2.8406    5.1412   -3.0236 N   0  0  0  0  0  0  0  0  0  0  0  0
    1.5271    5.6483   -2.5895 C   0  0  0  0  0  0  0  0  0  0  0  0
    1.5356    7.1683   -2.4226 C   0  0  0  0  0  0  0  0  0  0  0  0
    2.6167    7.6145   -1.4495 C   0  0  0  0  0  0  0  0  0  0  0  0
    3.9643    7.0343   -1.8577 C   0  0  0  0  0  0  0  0  0  0  0  0
    3.8840    5.5187   -2.0496 C   0  0  0  0  0  0  0  0  0  0  0  0
    3.9520    2.5852    1.7595 H   0  0  0  0  0  0  0  0  0  0  0  0
    5.6264    2.3501    0.9939 H   0  0  0  0  0  0  0  0  0  0  0  0
    3.1769    0.4914    0.7167 H   0  0  0  0  0  0  0  0  0  0  0  0
    3.5441   -1.0719   -0.9556 H   0  0  0  0  0  0  0  0  0  0  0  0
    6.6699   -2.1564    0.2066 H   0  0  0  0  0  0  0  0  0  0  0  0
    8.7327   -3.0561    0.8571 H   0  0  0  0  0  0  0  0  0  0  0  0
    7.7845   -6.5752    1.3272 H   0  0  0  0  0  0  0  0  0  0  0  0
    9.0675   -8.1229    2.7385 H   0  0  0  0  0  0  0  0  0  0  0  0
   11.6531   -4.8788    3.9279 H   0  0  0  0  0  0  0  0  0  0  0  0
    8.8043   -6.7863   -2.5999 H   0  0  0  0  0  0  0  0  0  0  0  0
    5.3574   -4.2033   -4.0908 H   0  0  0  0  0  0  0  0  0  0  0  0
    4.6244   -0.2357   -3.2467 H   0  0  0  0  0  0  0  0  0  0  0  0
    2.9145   -0.5616   -2.8297 H   0  0  0  0  0  0  0  0  0  0  0  0
    2.4023   -0.8040   -5.2530 H   0  0  0  0  0  0  0  0  0  0  0  0
    4.0992   -0.5123   -5.6503 H   0  0  0  0  0  0  0  0  0  0  0  0
    3.9015    1.7477   -5.0262 H   0  0  0  0  0  0  0  0  0  0  0  0
    0.8585    3.4584   -4.1010 H   0  0  0  0  0  0  0  0  0  0  0  0
    2.1629    3.6190   -5.2801 H   0  0  0  0  0  0  0  0  0  0  0  0
    3.8564    3.3658   -3.4694 H   0  0  0  0  0  0  0  0  0  0  0  0
    2.6000    3.1675   -2.2594 H   0  0  0  0  0  0  0  0  0  0  0  0
    1.2202    5.1730   -1.6488 H   0  0  0  0  0  0  0  0  0  0  0  0
    0.7610    5.4211   -3.3371 H   0  0  0  0  0  0  0  0  0  0  0  0
    0.5551    7.5047   -2.0669 H   0  0  0  0  0  0  0  0  0  0  0  0
    1.7011    7.6428   -3.3983 H   0  0  0  0  0  0  0  0  0  0  0  0
    2.3614    7.2764   -0.4378 H   0  0  0  0  0  0  0  0  0  0  0  0
    2.6690    8.7083   -1.4209 H   0  0  0  0  0  0  0  0  0  0  0  0
    4.7129    7.2713   -1.0931 H   0  0  0  0  0  0  0  0  0  0  0  0
    4.2991    7.5058   -2.7902 H   0  0  0  0  0  0  0  0  0  0  0  0
    3.6994    5.0377   -1.0796 H   0  0  0  0  0  0  0  0  0  0  0  0
    4.8632    5.1719   -2.4021 H   0  0  0  0  0  0  0  0  0  0  0  0
  1  2  2  0  0  0  0
  1 39  1  0  0  0  0
  1 40  1  0  0  0  0
  2  3  1  0  0  0  0
  2 41  1  0  0  0  0
  3  4  2  0  0  0  0
  3  5  1  0  0  0  0
  5  6  1  0  0  0  0
  5 42  1  0  0  0  0
  6  7  1  0  0  0  0
  6 24  2  0  0  0  0
  7  8  2  0  0  0  0
  7 43  1  0  0  0  0
  8  9  1  0  0  0  0
  8 22  1  0  0  0  0
  9 10  1  0  0  0  0
  9 19  2  0  0  0  0
 10 11  1  0  0  0  0
 10 44  1  0  0  0  0
 11 12  1  0  0  0  0
 11 17  2  0  0  0  0
 12 13  2  0  0  0  0
 12 45  1  0  0  0  0
 13 14  1  0  0  0  0
 13 46  1  0  0  0  0
 14 15  1  0  0  0  0
 14 16  2  0  0  0  0
 16 17  1  0  0  0  0
 16 47  1  0  0  0  0
 17 18  1  0  0  0  0
 19 20  1  0  0  0  0
 20 21  2  0  0  0  0
 20 48  1  0  0  0  0
 21 22  1  0  0  0  0
 22 23  2  0  0  0  0
 23 24  1  0  0  0  0
 23 49  1  0  0  0  0
 24 25  1  0  0  0  0
 25 26  1  0  0  0  0
 26 27  1  0  0  0  0
 26 50  1  0  0  0  0
 26 51  1  0  0  0  0
 27 28  1  0  0  0  0
 27 52  1  0  0  0  0
 27 53  1  0  0  0  0
 28 29  1  0  0  0  0
 28 54  1  0  0  0  0
 29 30  2  0  0  0  0
 29 31  1  0  0  0  0
 31 32  1  0  0  0  0
 31 55  1  0  0  0  0
 31 56  1  0  0  0  0
 32 33  1  0  0  0  0
 32 57  1  0  0  0  0
 32 58  1  0  0  0  0
 33 34  1  0  0  0  0
 33 38  1  0  0  0  0
 34 35  1  0  0  0  0
 34 59  1  0  0  0  0
 34 60  1  0  0  0  0
 35 36  1  0  0  0  0
 35 61  1  0  0  0  0
 35 62  1  0  0  0  0
 36 37  1  0  0  0  0
 36 63  1  0  0  0  0
 36 64  1  0  0  0  0
 37 38  1  0  0  0  0
 37 65  1  0  0  0  0
 37 66  1  0  0  0  0
 38 67  1  0  0  0  0
 38 68  1  0  0  0  0
M  END
$$$$
