CHEMBL427226
 OpenBabel04072215383D

 67 71  0  0  0  0  0  0  0  0999 V2000
    0.9165   14.7755    5.6372 C   0  0  0  0  0  0  0  0  0  0  0  0
    1.7715   14.4801    6.7636 N   0  0  0  0  0  0  0  0  0  0  0  0
    2.4232   13.2575    6.6714 C   0  0  0  0  0  0  0  0  0  0  0  0
    2.6549   12.6276    7.8284 N   0  0  0  0  0  0  0  0  0  0  0  0
    3.2710   11.4314    7.7487 C   0  0  0  0  0  0  0  0  0  0  0  0
    3.6501   10.8303    6.5580 C   0  0  0  0  0  0  0  0  0  0  0  0
    4.2741    9.5641    6.4608 C   0  0  0  0  0  0  0  0  0  0  0  0
    4.6818    9.0274    5.2226 C   0  0  0  0  0  0  0  0  0  0  0  0
    5.3647    7.6993    5.1464 C   0  0  0  0  0  0  0  0  0  0  0  0
    6.2710    7.3447    6.1761 C   0  0  0  0  0  0  0  0  0  0  0  0
    6.9165    6.0937    6.2442 C   0  0  0  0  0  0  0  0  0  0  0  0
    7.8194    5.8525    7.4081 C   0  0  0  0  0  0  0  0  0  0  0  0
    8.3341    6.8471    7.9136 O   0  0  0  0  0  0  0  0  0  0  0  0
    8.0033    4.5403    7.8431 N   0  0  0  0  0  0  0  0  0  0  0  0
    8.7276    4.1616    9.0074 C   0  0  0  0  0  0  0  0  0  0  0  0
    9.1066    5.0707    9.9943 C   0  0  0  0  0  0  0  0  0  0  0  0
    9.8297    4.6581   11.1260 C   0  0  0  0  0  0  0  0  0  0  0  0
   10.1924    3.3249   11.3089 C   0  0  0  0  0  0  0  0  0  0  0  0
   10.9084    3.0873   12.4558 O   0  0  0  0  0  0  0  0  0  0  0  0
   11.0846    1.7387   12.9116 C   0  0  0  0  0  0  0  0  0  0  0  0
    9.8340    1.2318   13.6254 C   0  0  0  0  0  0  0  0  0  0  0  0
    9.6004    1.9347   14.9632 C   0  0  0  0  0  0  0  0  0  0  0  0
   10.7498    1.8700   15.8744 N   0  0  0  0  0  0  0  0  0  0  0  0
   10.4845    2.7120   17.0525 C   0  0  0  0  0  0  0  0  0  0  0  0
   12.0100    2.2861   15.2490 C   0  0  0  0  0  0  0  0  0  0  0  0
   12.2732    1.6621   13.8761 C   0  0  0  0  0  0  0  0  0  0  0  0
    9.8092    2.4045   10.3312 C   0  0  0  0  0  0  0  0  0  0  0  0
    9.0723    2.8215    9.1970 C   0  0  0  0  0  0  0  0  0  0  0  0
    6.7213    5.1788    5.2207 C   0  0  0  0  0  0  0  0  0  0  0  0
    5.8560    5.5040    4.1726 C   0  0  0  0  0  0  0  0  0  0  0  0
    5.1567    6.7338    4.1289 C   0  0  0  0  0  0  0  0  0  0  0  0
    4.2015    6.9257    2.9762 C   0  0  0  0  0  0  0  0  0  0  0  0
    4.4394    9.8319    4.1005 C   0  0  0  0  0  0  0  0  0  0  0  0
    3.7682   11.0609    4.2001 C   0  0  0  0  0  0  0  0  0  0  0  0
    3.3735   11.5782    5.4215 C   0  0  0  0  0  0  0  0  0  0  0  0
    2.7595   12.7665    5.4708 N   0  0  0  0  0  0  0  0  0  0  0  0
    0.3608   15.6966    5.8349 H   0  0  0  0  0  0  0  0  0  0  0  0
    0.1864   13.9768    5.4636 H   0  0  0  0  0  0  0  0  0  0  0  0
    1.4982   14.9378    4.7217 H   0  0  0  0  0  0  0  0  0  0  0  0
    1.3318   14.4999    7.6755 H   0  0  0  0  0  0  0  0  0  0  0  0
    3.4647   10.9582    8.7074 H   0  0  0  0  0  0  0  0  0  0  0  0
    4.4425    9.0045    7.3796 H   0  0  0  0  0  0  0  0  0  0  0  0
    6.4913    8.0677    6.9637 H   0  0  0  0  0  0  0  0  0  0  0  0
    7.6114    3.7914    7.2923 H   0  0  0  0  0  0  0  0  0  0  0  0
    8.8253    6.1157    9.9456 H   0  0  0  0  0  0  0  0  0  0  0  0
   10.1032    5.4000   11.8713 H   0  0  0  0  0  0  0  0  0  0  0  0
   11.3374    1.0934   12.0655 H   0  0  0  0  0  0  0  0  0  0  0  0
    9.9283    0.1515   13.7910 H   0  0  0  0  0  0  0  0  0  0  0  0
    8.9474    1.3877   13.0005 H   0  0  0  0  0  0  0  0  0  0  0  0
    8.7505    1.4390   15.4504 H   0  0  0  0  0  0  0  0  0  0  0  0
    9.3020    2.9738   14.7774 H   0  0  0  0  0  0  0  0  0  0  0  0
    9.6642    2.2969   17.6483 H   0  0  0  0  0  0  0  0  0  0  0  0
   10.2158    3.7382   16.7696 H   0  0  0  0  0  0  0  0  0  0  0  0
   11.3597    2.7690   17.7102 H   0  0  0  0  0  0  0  0  0  0  0  0
   12.8273    1.9667   15.9122 H   0  0  0  0  0  0  0  0  0  0  0  0
   12.0772    3.3778   15.1720 H   0  0  0  0  0  0  0  0  0  0  0  0
   12.5339    0.6028   14.0238 H   0  0  0  0  0  0  0  0  0  0  0  0
   13.1502    2.1511   13.4398 H   0  0  0  0  0  0  0  0  0  0  0  0
   10.0815    1.3558   10.4010 H   0  0  0  0  0  0  0  0  0  0  0  0
    8.8022    2.0681    8.4540 H   0  0  0  0  0  0  0  0  0  0  0  0
    7.2473    4.2311    5.1914 H   0  0  0  0  0  0  0  0  0  0  0  0
    5.7212    4.7782    3.3710 H   0  0  0  0  0  0  0  0  0  0  0  0
    4.0961    6.0087    2.3857 H   0  0  0  0  0  0  0  0  0  0  0  0
    4.5683    7.6844    2.2809 H   0  0  0  0  0  0  0  0  0  0  0  0
    3.2035    7.1885    3.3395 H   0  0  0  0  0  0  0  0  0  0  0  0
    4.7839    9.5418    3.1139 H   0  0  0  0  0  0  0  0  0  0  0  0
    3.5698   11.6358    3.2975 H   0  0  0  0  0  0  0  0  0  0  0  0
  1  2  1  0  0  0  0
  1 37  1  0  0  0  0
  1 38  1  0  0  0  0
  1 39  1  0  0  0  0
  2  3  1  0  0  0  0
  2 40  1  0  0  0  0
  3  4  1  0  0  0  0
  3 36  2  0  0  0  0
  4  5  2  0  0  0  0
  5  6  1  0  0  0  0
  5 41  1  0  0  0  0
  6  7  1  0  0  0  0
  6 35  2  0  0  0  0
  7  8  2  0  0  0  0
  7 42  1  0  0  0  0
  8  9  1  0  0  0  0
  8 33  1  0  0  0  0
  9 10  1  0  0  0  0
  9 31  2  0  0  0  0
 10 11  2  0  0  0  0
 10 43  1  0  0  0  0
 11 12  1  0  0  0  0
 11 29  1  0  0  0  0
 12 13  2  0  0  0  0
 12 14  1  0  0  0  0
 14 15  1  0  0  0  0
 14 44  1  0  0  0  0
 15 16  1  0  0  0  0
 15 28  2  0  0  0  0
 16 17  2  0  0  0  0
 16 45  1  0  0  0  0
 17 18  1  0  0  0  0
 17 46  1  0  0  0  0
 18 19  1  0  0  0  0
 18 27  2  0  0  0  0
 19 20  1  0  0  0  0
 20 21  1  0  0  0  0
 20 26  1  0  0  0  0
 20 47  1  0  0  0  0
 21 22  1  0  0  0  0
 21 48  1  0  0  0  0
 21 49  1  0  0  0  0
 22 23  1  0  0  0  0
 22 50  1  0  0  0  0
 22 51  1  0  0  0  0
 23 24  1  0  0  0  0
 23 25  1  0  0  0  0
 24 52  1  0  0  0  0
 24 53  1  0  0  0  0
 24 54  1  0  0  0  0
 25 26  1  0  0  0  0
 25 55  1  0  0  0  0
 25 56  1  0  0  0  0
 26 57  1  0  0  0  0
 26 58  1  0  0  0  0
 27 28  1  0  0  0  0
 27 59  1  0  0  0  0
 28 60  1  0  0  0  0
 29 30  2  0  0  0  0
 29 61  1  0  0  0  0
 30 31  1  0  0  0  0
 30 62  1  0  0  0  0
 31 32  1  0  0  0  0
 32 63  1  0  0  0  0
 32 64  1  0  0  0  0
 32 65  1  0  0  0  0
 33 34  2  0  0  0  0
 33 66  1  0  0  0  0
 34 35  1  0  0  0  0
 34 67  1  0  0  0  0
 35 36  1  0  0  0  0
M  END
$$$$
