CHEMBL3656084
 OpenBabel04072215373D

 68 71  0  0  1  0  0  0  0  0999 V2000
    2.8173    7.3280    2.7141 C   0  0  0  0  0  0  0  0  0  0  0  0
    1.7127    6.3361    2.4900 C   0  0  0  0  0  0  0  0  0  0  0  0
    2.0200    5.0380    2.0703 C   0  0  0  0  0  0  0  0  0  0  0  0
    1.0046    4.1068    1.8982 C   0  0  0  0  0  0  0  0  0  0  0  0
   -0.3209    4.4690    2.1231 C   0  0  0  0  0  0  0  0  0  0  0  0
   -1.2149    3.4732    2.0776 F   0  0  0  0  0  0  0  0  0  0  0  0
   -0.6749    5.7803    2.4751 C   0  0  0  0  0  0  0  0  0  0  0  0
   -2.0132    6.2503    2.6263 N   0  0  0  0  0  0  0  0  0  0  0  0
   -3.1235    5.6410    2.0784 C   0  0  0  0  0  0  0  0  0  0  0  0
   -3.1076    4.6374    1.3651 O   0  0  0  0  0  0  0  0  0  0  0  0
   -4.3073    6.3255    2.3492 N   0  0  0  0  0  0  0  0  0  0  0  0
   -5.5295    5.7494    1.9170 C   0  0  0  0  0  0  0  0  0  0  0  0
   -5.8321    4.4182    2.2259 C   0  0  0  0  0  0  0  0  0  0  0  0
   -6.9767    3.8116    1.7071 C   0  0  0  0  0  0  0  0  0  0  0  0
   -7.8602    4.5495    0.9177 C   0  0  0  0  0  0  0  0  0  0  0  0
   -9.0134    4.0365    0.3635 O   0  0  0  0  0  0  0  0  0  0  0  0
   -9.7200    3.0719    1.0470 C   0  0  0  0  0  0  0  0  0  0  0  0
   -9.8598    3.0421    2.4316 C   0  0  0  0  0  0  0  0  0  0  0  0
  -10.5624    1.9941    2.9922 C   0  0  0  0  0  0  0  0  0  0  0  0
  -11.1650    1.0201    2.2751 N   0  0  0  0  0  0  0  0  0  0  0  0
  -11.0656    1.1042    0.9259 C   0  0  0  0  0  0  0  0  0  0  0  0
  -11.7309    0.0219    0.2076 C   0  0  0  0  0  0  0  0  0  0  0  0
  -11.8779   -0.2338   -1.1446 C   0  0  0  0  0  0  0  0  0  0  0  0
  -12.5730   -1.4705   -1.3115 C   0  0  0  0  0  0  0  0  0  0  0  0
  -12.9395   -2.1795   -2.5346 C   0  0  0  0  0  0  0  0  0  0  0  0
  -13.4484   -3.2962   -2.5304 O   0  0  0  0  0  0  0  0  0  0  0  0
  -12.6840   -1.4895   -3.6943 N   0  0  0  0  0  0  0  0  0  0  0  0
  -12.9868   -2.0196   -5.0192 C   0  0  1  0  0  0  0  0  0  0  0  0
  -14.5058   -2.1644   -5.2309 C   0  0  0  0  0  0  0  0  0  0  0  0
  -14.9081   -2.6744   -6.6096 C   0  0  0  0  0  0  0  0  0  0  0  0
  -14.2821   -4.0124   -6.8803 C   0  0  0  0  0  0  0  0  0  0  0  0
  -13.1328   -4.1269   -7.2922 O   0  0  0  0  0  0  0  0  0  0  0  0
  -15.0531   -5.0609   -6.5426 O   0  0  0  0  0  0  0  0  0  0  0  0
  -12.3978   -1.0230   -6.0234 C   0  0  0  0  0  0  0  0  0  0  0  0
  -12.6023    0.1843   -5.9687 O   0  0  0  0  0  0  0  0  0  0  0  0
  -11.6000   -1.5754   -6.9628 O   0  0  0  0  0  0  0  0  0  0  0  0
  -12.8497   -1.9178   -0.0311 C   0  0  0  0  0  0  0  0  0  0  0  0
  -12.3486   -1.0164    0.8676 N   0  0  0  0  0  0  0  0  0  0  0  0
  -10.3668    2.1111    0.2746 C   0  0  0  0  0  0  0  0  0  0  0  0
   -7.5540    5.8764    0.5992 C   0  0  0  0  0  0  0  0  0  0  0  0
   -6.4036    6.4866    1.1182 C   0  0  0  0  0  0  0  0  0  0  0  0
    0.3656    6.7006    2.6921 C   0  0  0  0  0  0  0  0  0  0  0  0
    3.7991    6.8788    2.5266 H   0  0  0  0  0  0  0  0  0  0  0  0
    2.8068    7.6783    3.7508 H   0  0  0  0  0  0  0  0  0  0  0  0
    2.7061    8.1802    2.0372 H   0  0  0  0  0  0  0  0  0  0  0  0
    3.0497    4.7360    1.8935 H   0  0  0  0  0  0  0  0  0  0  0  0
    1.2276    3.0852    1.6061 H   0  0  0  0  0  0  0  0  0  0  0  0
   -2.1406    7.1565    3.0319 H   0  0  0  0  0  0  0  0  0  0  0  0
   -4.2308    7.3259    2.2495 H   0  0  0  0  0  0  0  0  0  0  0  0
   -5.1610    3.8310    2.8499 H   0  0  0  0  0  0  0  0  0  0  0  0
   -7.1498    2.7611    1.9212 H   0  0  0  0  0  0  0  0  0  0  0  0
   -9.4129    3.7974    3.0661 H   0  0  0  0  0  0  0  0  0  0  0  0
  -10.6559    1.9027    4.0712 H   0  0  0  0  0  0  0  0  0  0  0  0
  -11.4963    0.4030   -1.9310 H   0  0  0  0  0  0  0  0  0  0  0  0
  -12.2955   -0.5557   -3.6468 H   0  0  0  0  0  0  0  0  0  0  0  0
  -12.4754   -2.9845   -5.0905 H   0  0  0  0  0  0  0  0  0  0  0  0
  -14.9960   -1.1984   -5.0586 H   0  0  0  0  0  0  0  0  0  0  0  0
  -14.9166   -2.8513   -4.4812 H   0  0  0  0  0  0  0  0  0  0  0  0
  -14.6001   -1.9842   -7.4030 H   0  0  0  0  0  0  0  0  0  0  0  0
  -15.9983   -2.7526   -6.6877 H   0  0  0  0  0  0  0  0  0  0  0  0
  -15.9140   -4.8232   -6.1416 H   0  0  0  0  0  0  0  0  0  0  0  0
  -11.5396   -2.5557   -6.9338 H   0  0  0  0  0  0  0  0  0  0  0  0
  -13.3600   -2.8108    0.3072 H   0  0  0  0  0  0  0  0  0  0  0  0
  -12.3898   -1.0839    1.8775 H   0  0  0  0  0  0  0  0  0  0  0  0
  -10.3024    2.1500   -0.8070 H   0  0  0  0  0  0  0  0  0  0  0  0
   -8.2008    6.4310   -0.0757 H   0  0  0  0  0  0  0  0  0  0  0  0
   -6.1699    7.5059    0.8263 H   0  0  0  0  0  0  0  0  0  0  0  0
    0.1409    7.7205    2.9959 H   0  0  0  0  0  0  0  0  0  0  0  0
  1  2  1  0  0  0  0
  1 43  1  0  0  0  0
  1 44  1  0  0  0  0
  1 45  1  0  0  0  0
  2  3  1  0  0  0  0
  2 42  2  0  0  0  0
  3  4  2  0  0  0  0
  3 46  1  0  0  0  0
  4  5  1  0  0  0  0
  4 47  1  0  0  0  0
  5  6  1  0  0  0  0
  5  7  2  0  0  0  0
  7  8  1  0  0  0  0
  7 42  1  0  0  0  0
  8  9  1  0  0  0  0
  8 48  1  0  0  0  0
  9 10  2  0  0  0  0
  9 11  1  0  0  0  0
 11 12  1  0  0  0  0
 11 49  1  0  0  0  0
 12 13  1  0  0  0  0
 12 41  2  0  0  0  0
 13 14  2  0  0  0  0
 13 50  1  0  0  0  0
 14 15  1  0  0  0  0
 14 51  1  0  0  0  0
 15 16  1  0  0  0  0
 15 40  2  0  0  0  0
 16 17  1  0  0  0  0
 17 18  1  0  0  0  0
 17 39  2  0  0  0  0
 18 19  2  0  0  0  0
 18 52  1  0  0  0  0
 19 20  1  0  0  0  0
 19 53  1  0  0  0  0
 20 21  2  0  0  0  0
 21 22  1  0  0  0  0
 21 39  1  0  0  0  0
 22 23  2  0  0  0  0
 22 38  1  0  0  0  0
 23 24  1  0  0  0  0
 23 54  1  0  0  0  0
 24 25  1  0  0  0  0
 24 37  2  0  0  0  0
 25 26  2  0  0  0  0
 25 27  1  0  0  0  0
 27 28  1  0  0  0  0
 27 55  1  0  0  0  0
 28 29  1  0  0  0  0
 28 34  1  0  0  0  0
 28 56  1  6  0  0  0
 29 30  1  0  0  0  0
 29 57  1  0  0  0  0
 29 58  1  0  0  0  0
 30 31  1  0  0  0  0
 30 59  1  0  0  0  0
 30 60  1  0  0  0  0
 31 32  2  0  0  0  0
 31 33  1  0  0  0  0
 33 61  1  0  0  0  0
 34 35  2  0  0  0  0
 34 36  1  0  0  0  0
 36 62  1  0  0  0  0
 37 38  1  0  0  0  0
 37 63  1  0  0  0  0
 38 64  1  0  0  0  0
 39 65  1  0  0  0  0
 40 41  1  0  0  0  0
 40 66  1  0  0  0  0
 41 67  1  0  0  0  0
 42 68  1  0  0  0  0
M  END
$$$$
