CHEMBL199528
 OpenBabel04072215363D

 41 43  0  0  0  0  0  0  0  0999 V2000
    4.2561   -2.6571   -0.2608 C   0  0  0  0  0  0  0  0  0  0  0  0
    4.1823   -1.1368   -0.2233 C   0  0  0  0  0  0  0  0  0  0  0  0
    4.6932   -0.5841    1.1118 C   0  0  0  0  0  0  0  0  0  0  0  0
    4.6485    0.9460    1.1500 C   0  0  0  0  0  0  0  0  0  0  0  0
    5.1178    1.5027    2.4269 N   0  0  0  0  0  0  0  0  0  0  0  0
    4.1060    1.6796    3.4589 C   0  0  0  0  0  0  0  0  0  0  0  0
    6.4958    1.7783    2.5815 C   0  0  0  0  0  0  0  0  0  0  0  0
    7.2495    1.6347    1.6177 O   0  0  0  0  0  0  0  0  0  0  0  0
    7.0391    2.2995    3.8501 C   0  0  0  0  0  0  0  0  0  0  0  0
    8.1336    3.2096    3.9557 C   0  0  0  0  0  0  0  0  0  0  0  0
    8.4080    3.5847    5.3044 C   0  0  0  0  0  0  0  0  0  0  0  0
    9.1904    4.3029    6.1632 C   0  0  0  0  0  0  0  0  0  0  0  0
   10.3668    5.1585    6.0292 C   0  0  0  0  0  0  0  0  0  0  0  0
   10.6124    5.8828    4.8586 C   0  0  0  0  0  0  0  0  0  0  0  0
   11.7459    6.6950    4.7521 C   0  0  0  0  0  0  0  0  0  0  0  0
   12.6477    6.7930    5.8089 C   0  0  0  0  0  0  0  0  0  0  0  0
   12.4255    6.0695    6.9759 C   0  0  0  0  0  0  0  0  0  0  0  0
   11.2940    5.2557    7.0792 C   0  0  0  0  0  0  0  0  0  0  0  0
    8.6006    4.0246    7.4089 N   0  0  0  0  0  0  0  0  0  0  0  0
    7.6011    3.0949    7.3685 N   0  0  0  0  0  0  0  0  0  0  0  0
    7.5411    2.8547    6.0944 C   0  0  0  0  0  0  0  0  0  0  0  0
    6.4763    1.6702    5.4215 S   0  0  0  0  0  0  0  0  0  0  0  0
    3.8799   -3.0372   -1.2162 H   0  0  0  0  0  0  0  0  0  0  0  0
    3.6539   -3.0991    0.5395 H   0  0  0  0  0  0  0  0  0  0  0  0
    5.2888   -3.0013   -0.1436 H   0  0  0  0  0  0  0  0  0  0  0  0
    3.1435   -0.8255   -0.3872 H   0  0  0  0  0  0  0  0  0  0  0  0
    4.7747   -0.7304   -1.0516 H   0  0  0  0  0  0  0  0  0  0  0  0
    5.7222   -0.9247    1.2787 H   0  0  0  0  0  0  0  0  0  0  0  0
    4.0874   -0.9922    1.9295 H   0  0  0  0  0  0  0  0  0  0  0  0
    3.6248    1.2988    0.9725 H   0  0  0  0  0  0  0  0  0  0  0  0
    5.2564    1.3522    0.3346 H   0  0  0  0  0  0  0  0  0  0  0  0
    3.1094    1.7503    3.0175 H   0  0  0  0  0  0  0  0  0  0  0  0
    4.2848    2.6059    4.0098 H   0  0  0  0  0  0  0  0  0  0  0  0
    4.1230    0.8125    4.1268 H   0  0  0  0  0  0  0  0  0  0  0  0
    8.6537    3.5884    3.0849 H   0  0  0  0  0  0  0  0  0  0  0  0
    9.9236    5.8300    4.0181 H   0  0  0  0  0  0  0  0  0  0  0  0
   11.9269    7.2530    3.8358 H   0  0  0  0  0  0  0  0  0  0  0  0
   13.5307    7.4194    5.7189 H   0  0  0  0  0  0  0  0  0  0  0  0
   13.1368    6.1259    7.7948 H   0  0  0  0  0  0  0  0  0  0  0  0
   11.1692    4.6854    7.9976 H   0  0  0  0  0  0  0  0  0  0  0  0
    8.8534    4.4199    8.3080 H   0  0  0  0  0  0  0  0  0  0  0  0
  1  2  1  0  0  0  0
  1 23  1  0  0  0  0
  1 24  1  0  0  0  0
  1 25  1  0  0  0  0
  2  3  1  0  0  0  0
  2 26  1  0  0  0  0
  2 27  1  0  0  0  0
  3  4  1  0  0  0  0
  3 28  1  0  0  0  0
  3 29  1  0  0  0  0
  4  5  1  0  0  0  0
  4 30  1  0  0  0  0
  4 31  1  0  0  0  0
  5  6  1  0  0  0  0
  5  7  1  0  0  0  0
  6 32  1  0  0  0  0
  6 33  1  0  0  0  0
  6 34  1  0  0  0  0
  7  8  2  0  0  0  0
  7  9  1  0  0  0  0
  9 10  2  0  0  0  0
  9 22  1  0  0  0  0
 10 11  1  0  0  0  0
 10 35  1  0  0  0  0
 11 12  2  0  0  0  0
 11 21  1  0  0  0  0
 12 13  1  0  0  0  0
 12 19  1  0  0  0  0
 13 14  1  0  0  0  0
 13 18  2  0  0  0  0
 14 15  2  0  0  0  0
 14 36  1  0  0  0  0
 15 16  1  0  0  0  0
 15 37  1  0  0  0  0
 16 17  2  0  0  0  0
 16 38  1  0  0  0  0
 17 18  1  0  0  0  0
 17 39  1  0  0  0  0
 18 40  1  0  0  0  0
 19 20  1  0  0  0  0
 19 41  1  0  0  0  0
 20 21  2  0  0  0  0
 21 22  1  0  0  0  0
M  END
$$$$
