CHEMBL66716
 OpenBabel04072215383D

 50 54  0  0  0  0  0  0  0  0999 V2000
    1.0649    0.3014    0.0383 N   0  0  0  0  0  0  0  0  0  0  0  0
    2.4388    0.1064   -0.0134 C   0  0  0  0  0  0  0  0  0  0  0  0
    3.1666    1.2400   -0.0226 N   0  0  0  0  0  0  0  0  0  0  0  0
    4.5020    1.1451   -0.0542 C   0  0  0  0  0  0  0  0  0  0  0  0
    5.2399    0.0309   -0.0698 N   0  0  0  0  0  0  0  0  0  0  0  0
    4.4887   -1.0834   -0.0770 C   0  0  0  0  0  0  0  0  0  0  0  0
    3.0984   -1.1442   -0.0588 C   0  0  0  0  0  0  0  0  0  0  0  0
    2.7401   -2.5484   -0.1129 C   0  0  0  0  0  0  0  0  0  0  0  0
    1.4043   -3.1557   -0.1587 C   0  0  0  0  0  0  0  0  0  0  0  0
    0.3699   -2.5144   -0.8443 C   0  0  0  0  0  0  0  0  0  0  0  0
   -0.9257   -3.0284   -0.8435 C   0  0  0  0  0  0  0  0  0  0  0  0
   -1.1709   -4.3013   -0.3348 C   0  0  0  0  0  0  0  0  0  0  0  0
   -2.3706   -4.9666   -0.4600 O   0  0  0  0  0  0  0  0  0  0  0  0
   -3.1771   -4.6933   -1.5449 C   0  0  0  0  0  0  0  0  0  0  0  0
   -2.6988   -4.3636   -2.8193 C   0  0  0  0  0  0  0  0  0  0  0  0
   -3.5846   -3.9783   -3.8225 C   0  0  0  0  0  0  0  0  0  0  0  0
   -4.9569   -4.0076   -3.5840 C   0  0  0  0  0  0  0  0  0  0  0  0
   -5.4413   -4.4334   -2.3464 C   0  0  0  0  0  0  0  0  0  0  0  0
   -4.5529   -4.7739   -1.3261 C   0  0  0  0  0  0  0  0  0  0  0  0
   -0.1597   -4.9593    0.3580 C   0  0  0  0  0  0  0  0  0  0  0  0
    1.1022   -4.3643    0.4872 C   0  0  0  0  0  0  0  0  0  0  0  0
    3.9396   -3.2490   -0.2239 C   0  0  0  0  0  0  0  0  0  0  0  0
    4.1472   -5.0969   -0.5626 Br  0  0  0  0  0  0  0  0  0  0  0  0
    4.9879   -2.3637   -0.1092 N   0  0  0  0  0  0  0  0  0  0  0  0
    6.3939   -2.7161   -0.0662 C   0  0  0  0  0  0  0  0  0  0  0  0
    7.1675   -2.2135    1.1550 C   0  0  0  0  0  0  0  0  0  0  0  0
    8.6359   -2.3037    0.7423 C   0  0  0  0  0  0  0  0  0  0  0  0
    8.6593   -2.4548   -0.7799 C   0  0  0  0  0  0  0  0  0  0  0  0
    7.2272   -2.2309   -1.2496 C   0  0  0  0  0  0  0  0  0  0  0  0
    0.8586    1.2703    0.2553 H   0  0  0  0  0  0  0  0  0  0  0  0
    0.5660   -0.3862    0.5882 H   0  0  0  0  0  0  0  0  0  0  0  0
    5.0458    2.0838   -0.0636 H   0  0  0  0  0  0  0  0  0  0  0  0
    0.5469   -1.5979   -1.3995 H   0  0  0  0  0  0  0  0  0  0  0  0
   -1.7154   -2.4413   -1.3048 H   0  0  0  0  0  0  0  0  0  0  0  0
   -1.6328   -4.3540   -3.0318 H   0  0  0  0  0  0  0  0  0  0  0  0
   -3.2017   -3.6434   -4.7832 H   0  0  0  0  0  0  0  0  0  0  0  0
   -5.6482   -3.7052   -4.3645 H   0  0  0  0  0  0  0  0  0  0  0  0
   -6.5126   -4.4866   -2.1718 H   0  0  0  0  0  0  0  0  0  0  0  0
   -4.9310   -5.0854   -0.3556 H   0  0  0  0  0  0  0  0  0  0  0  0
   -0.3441   -5.9386    0.7916 H   0  0  0  0  0  0  0  0  0  0  0  0
    1.8475   -4.8868    1.0810 H   0  0  0  0  0  0  0  0  0  0  0  0
    6.4678   -3.8083   -0.0418 H   0  0  0  0  0  0  0  0  0  0  0  0
    6.9573   -2.8190    2.0435 H   0  0  0  0  0  0  0  0  0  0  0  0
    6.9250   -1.1778    1.4121 H   0  0  0  0  0  0  0  0  0  0  0  0
    9.1184   -3.1675    1.2132 H   0  0  0  0  0  0  0  0  0  0  0  0
    9.1822   -1.4106    1.0631 H   0  0  0  0  0  0  0  0  0  0  0  0
    8.9844   -3.4684   -1.0427 H   0  0  0  0  0  0  0  0  0  0  0  0
    9.3555   -1.7553   -1.2526 H   0  0  0  0  0  0  0  0  0  0  0  0
    7.0057   -2.7890   -2.1655 H   0  0  0  0  0  0  0  0  0  0  0  0
    7.0699   -1.1681   -1.4627 H   0  0  0  0  0  0  0  0  0  0  0  0
  1  2  1  0  0  0  0
  1 30  1  0  0  0  0
  1 31  1  0  0  0  0
  2  3  1  0  0  0  0
  2  7  2  0  0  0  0
  3  4  2  0  0  0  0
  4  5  1  0  0  0  0
  4 32  1  0  0  0  0
  5  6  2  0  0  0  0
  6  7  1  0  0  0  0
  6 24  1  0  0  0  0
  7  8  1  0  0  0  0
  8  9  1  0  0  0  0
  8 22  2  0  0  0  0
  9 10  1  0  0  0  0
  9 21  2  0  0  0  0
 10 11  2  0  0  0  0
 10 33  1  0  0  0  0
 11 12  1  0  0  0  0
 11 34  1  0  0  0  0
 12 13  1  0  0  0  0
 12 20  2  0  0  0  0
 13 14  1  0  0  0  0
 14 15  1  0  0  0  0
 14 19  2  0  0  0  0
 15 16  2  0  0  0  0
 15 35  1  0  0  0  0
 16 17  1  0  0  0  0
 16 36  1  0  0  0  0
 17 18  2  0  0  0  0
 17 37  1  0  0  0  0
 18 19  1  0  0  0  0
 18 38  1  0  0  0  0
 19 39  1  0  0  0  0
 20 21  1  0  0  0  0
 20 40  1  0  0  0  0
 21 41  1  0  0  0  0
 22 23  1  0  0  0  0
 22 24  1  0  0  0  0
 24 25  1  0  0  0  0
 25 26  1  0  0  0  0
 25 29  1  0  0  0  0
 25 42  1  0  0  0  0
 26 27  1  0  0  0  0
 26 43  1  0  0  0  0
 26 44  1  0  0  0  0
 27 28  1  0  0  0  0
 27 45  1  0  0  0  0
 27 46  1  0  0  0  0
 28 29  1  0  0  0  0
 28 47  1  0  0  0  0
 28 48  1  0  0  0  0
 29 49  1  0  0  0  0
 29 50  1  0  0  0  0
M  END
$$$$
