CHEMBL3287317
 OpenBabel04072215363D

 67 71  0  0  0  0  0  0  0  0999 V2000
   12.6618    0.5680   -6.5156 C   0  0  0  0  0  0  0  0  0  0  0  0
   14.3578    0.3658   -6.0103 S   0  0  0  0  0  0  0  0  0  0  0  0
   14.4407   -0.8255   -5.1824 O   0  0  0  0  0  0  0  0  0  0  0  0
   15.1650    0.4524   -7.2145 O   0  0  0  0  0  0  0  0  0  0  0  0
   14.7212    1.8173   -5.0277 C   0  0  0  0  0  0  0  0  0  0  0  0
   13.7718    1.9806   -3.8704 C   0  0  0  0  0  0  0  0  0  0  0  0
   12.9913    3.1421   -3.7808 C   0  0  0  0  0  0  0  0  0  0  0  0
   12.0966    3.3112   -2.7322 C   0  0  0  0  0  0  0  0  0  0  0  0
   11.9613    2.3134   -1.7718 C   0  0  0  0  0  0  0  0  0  0  0  0
   12.7314    1.1470   -1.8162 C   0  0  0  0  0  0  0  0  0  0  0  0
   12.5236    0.0755   -0.9414 N   0  0  0  0  0  0  0  0  0  0  0  0
   11.4771   -0.1660   -0.0568 C   0  0  0  0  0  0  0  0  0  0  0  0
   10.2936    0.4529   -0.1941 N   0  0  0  0  0  0  0  0  0  0  0  0
    9.3567    0.2381    0.7421 C   0  0  0  0  0  0  0  0  0  0  0  0
    9.5656   -0.5452    1.8458 C   0  0  0  0  0  0  0  0  0  0  0  0
   10.8079   -1.1262    1.9086 C   0  0  0  0  0  0  0  0  0  0  0  0
   11.1389   -1.8233    3.0713 O   0  0  0  0  0  0  0  0  0  0  0  0
   12.4805   -1.8572    3.3996 C   0  0  0  0  0  0  0  0  0  0  0  0
   13.3190   -0.7535    3.2296 C   0  0  0  0  0  0  0  0  0  0  0  0
   14.6891   -0.8642    3.4529 C   0  0  0  0  0  0  0  0  0  0  0  0
   15.2428   -2.0518    3.9281 C   0  0  0  0  0  0  0  0  0  0  0  0
   16.6326   -2.2022    4.1347 N   0  0  0  0  0  0  0  0  0  0  0  0
   17.5617   -1.1745    4.1448 C   0  0  0  0  0  0  0  0  0  0  0  0
   17.3467    0.0259    4.0861 O   0  0  0  0  0  0  0  0  0  0  0  0
   18.9811   -1.6195    4.2885 C   0  0  0  0  0  0  0  0  0  0  0  0
   19.3913   -1.9550    5.6833 C   0  0  0  0  0  0  0  0  0  0  0  0
   19.1604   -3.1084    6.0454 O   0  0  0  0  0  0  0  0  0  0  0  0
   19.9186   -0.9272    6.4552 N   0  0  0  0  0  0  0  0  0  0  0  0
   20.3686   -1.1026    7.7945 C   0  0  0  0  0  0  0  0  0  0  0  0
   20.6364   -2.3704    8.3169 C   0  0  0  0  0  0  0  0  0  0  0  0
   20.9966   -2.5580    9.6514 C   0  0  0  0  0  0  0  0  0  0  0  0
   21.1289   -1.4588   10.4884 C   0  0  0  0  0  0  0  0  0  0  0  0
   20.9183   -0.1823    9.9731 C   0  0  0  0  0  0  0  0  0  0  0  0
   21.0955    1.1747   11.0224 Cl  0  0  0  0  0  0  0  0  0  0  0  0
   20.5485    0.0100    8.6312 C   0  0  0  0  0  0  0  0  0  0  0  0
   20.0024   -1.1049    3.2825 C   0  0  0  0  0  0  0  0  0  0  0  0
   19.5369   -2.5214    3.1767 C   0  0  0  0  0  0  0  0  0  0  0  0
   14.3929   -3.1351    4.1862 C   0  0  0  0  0  0  0  0  0  0  0  0
   13.0208   -3.0279    3.9261 C   0  0  0  0  0  0  0  0  0  0  0  0
   12.2293   -4.0801    4.1844 F   0  0  0  0  0  0  0  0  0  0  0  0
   11.7406   -1.0054    0.9420 N   0  0  0  0  0  0  0  0  0  0  0  0
   13.6593    1.0117   -2.8571 C   0  0  0  0  0  0  0  0  0  0  0  0
   12.3930   -0.2886   -7.1384 H   0  0  0  0  0  0  0  0  0  0  0  0
   12.5804    1.4878   -7.0980 H   0  0  0  0  0  0  0  0  0  0  0  0
   12.0145    0.6007   -5.6391 H   0  0  0  0  0  0  0  0  0  0  0  0
   14.6497    2.6692   -5.7140 H   0  0  0  0  0  0  0  0  0  0  0  0
   15.7548    1.7456   -4.6787 H   0  0  0  0  0  0  0  0  0  0  0  0
   13.0693    3.9301   -4.5260 H   0  0  0  0  0  0  0  0  0  0  0  0
   11.4870    4.2073   -2.6580 H   0  0  0  0  0  0  0  0  0  0  0  0
   11.2429    2.4748   -0.9735 H   0  0  0  0  0  0  0  0  0  0  0  0
   13.3091   -0.5276   -0.7423 H   0  0  0  0  0  0  0  0  0  0  0  0
    8.4213    0.7641    0.5780 H   0  0  0  0  0  0  0  0  0  0  0  0
    8.8171   -0.6668    2.6138 H   0  0  0  0  0  0  0  0  0  0  0  0
   12.9354    0.1931    2.8589 H   0  0  0  0  0  0  0  0  0  0  0  0
   15.2987   -0.0014    3.2045 H   0  0  0  0  0  0  0  0  0  0  0  0
   16.9733   -3.1315    4.3558 H   0  0  0  0  0  0  0  0  0  0  0  0
   19.8482    0.0171    6.0969 H   0  0  0  0  0  0  0  0  0  0  0  0
   20.5784   -3.2634    7.6998 H   0  0  0  0  0  0  0  0  0  0  0  0
   21.1603   -3.5646   10.0248 H   0  0  0  0  0  0  0  0  0  0  0  0
   21.3950   -1.6081   11.5326 H   0  0  0  0  0  0  0  0  0  0  0  0
   20.3773    1.0196    8.2742 H   0  0  0  0  0  0  0  0  0  0  0  0
   21.0251   -0.9400    3.6002 H   0  0  0  0  0  0  0  0  0  0  0  0
   19.6624   -0.4095    2.5205 H   0  0  0  0  0  0  0  0  0  0  0  0
   20.2349   -3.3068    3.4493 H   0  0  0  0  0  0  0  0  0  0  0  0
   18.8850   -2.7891    2.3520 H   0  0  0  0  0  0  0  0  0  0  0  0
   14.7702   -4.0675    4.5944 H   0  0  0  0  0  0  0  0  0  0  0  0
   14.2738    0.1121   -2.8941 H   0  0  0  0  0  0  0  0  0  0  0  0
  1  2  1  0  0  0  0
  1 43  1  0  0  0  0
  1 44  1  0  0  0  0
  1 45  1  0  0  0  0
  2  3  2  0  0  0  0
  2  4  2  0  0  0  0
  2  5  1  0  0  0  0
  5  6  1  0  0  0  0
  5 46  1  0  0  0  0
  5 47  1  0  0  0  0
  6  7  1  0  0  0  0
  6 42  2  0  0  0  0
  7  8  2  0  0  0  0
  7 48  1  0  0  0  0
  8  9  1  0  0  0  0
  8 49  1  0  0  0  0
  9 10  2  0  0  0  0
  9 50  1  0  0  0  0
 10 11  1  0  0  0  0
 10 42  1  0  0  0  0
 11 12  1  0  0  0  0
 11 51  1  0  0  0  0
 12 13  1  0  0  0  0
 12 41  2  0  0  0  0
 13 14  2  0  0  0  0
 14 15  1  0  0  0  0
 14 52  1  0  0  0  0
 15 16  2  0  0  0  0
 15 53  1  0  0  0  0
 16 17  1  0  0  0  0
 16 41  1  0  0  0  0
 17 18  1  0  0  0  0
 18 19  1  0  0  0  0
 18 39  2  0  0  0  0
 19 20  2  0  0  0  0
 19 54  1  0  0  0  0
 20 21  1  0  0  0  0
 20 55  1  0  0  0  0
 21 22  1  0  0  0  0
 21 38  2  0  0  0  0
 22 23  1  0  0  0  0
 22 56  1  0  0  0  0
 23 24  2  0  0  0  0
 23 25  1  0  0  0  0
 25 26  1  0  0  0  0
 25 36  1  0  0  0  0
 25 37  1  0  0  0  0
 26 27  2  0  0  0  0
 26 28  1  0  0  0  0
 28 29  1  0  0  0  0
 28 57  1  0  0  0  0
 29 30  1  0  0  0  0
 29 35  2  0  0  0  0
 30 31  2  0  0  0  0
 30 58  1  0  0  0  0
 31 32  1  0  0  0  0
 31 59  1  0  0  0  0
 32 33  2  0  0  0  0
 32 60  1  0  0  0  0
 33 34  1  0  0  0  0
 33 35  1  0  0  0  0
 35 61  1  0  0  0  0
 36 37  1  0  0  0  0
 36 62  1  0  0  0  0
 36 63  1  0  0  0  0
 37 64  1  0  0  0  0
 37 65  1  0  0  0  0
 38 39  1  0  0  0  0
 38 66  1  0  0  0  0
 39 40  1  0  0  0  0
 42 67  1  0  0  0  0
M  END
$$$$
