CHEMBL3671513
 OpenBabel04072215373D

 56 58  0  0  0  0  0  0  0  0999 V2000
    4.5196    2.2888   -2.8327 C   0  0  0  0  0  0  0  0  0  0  0  0
    5.1262    1.0942   -2.8049 C   0  0  0  0  0  0  0  0  0  0  0  0
    6.4085    0.8127   -2.0941 C   0  0  0  0  0  0  0  0  0  0  0  0
    6.1963   -0.2874   -1.1862 N   0  0  0  0  0  0  0  0  0  0  0  0
    7.2954   -1.0151   -0.7928 C   0  0  0  0  0  0  0  0  0  0  0  0
    8.4124   -0.8504   -1.2606 O   0  0  0  0  0  0  0  0  0  0  0  0
    6.9968   -1.9203    0.1906 N   0  0  0  0  0  0  0  0  0  0  0  0
    8.0325   -2.8276    0.6841 C   0  0  0  0  0  0  0  0  0  0  0  0
    9.2009   -2.0950    1.3551 C   0  0  0  0  0  0  0  0  0  0  0  0
   10.1667   -3.0187    1.8666 O   0  0  0  0  0  0  0  0  0  0  0  0
   11.4765   -2.5943    1.8202 C   0  0  0  0  0  0  0  0  0  0  0  0
   12.3888   -3.6185    1.5317 C   0  0  0  0  0  0  0  0  0  0  0  0
   13.7486   -3.3831    1.3680 C   0  0  0  0  0  0  0  0  0  0  0  0
   14.5540   -4.4193    1.1139 N   0  0  0  0  0  0  0  0  0  0  0  0
   15.8597   -4.1571    1.0184 C   0  0  0  0  0  0  0  0  0  0  0  0
   16.4314   -2.9623    1.1694 N   0  0  0  0  0  0  0  0  0  0  0  0
   15.6178   -1.9203    1.4230 C   0  0  0  0  0  0  0  0  0  0  0  0
   16.2131   -0.6576    1.6983 N   0  0  0  0  0  0  0  0  0  0  0  0
   17.5813   -0.5030    2.0331 C   0  0  0  0  0  0  0  0  0  0  0  0
   18.1925   -1.3550    2.9649 C   0  0  0  0  0  0  0  0  0  0  0  0
   19.5671   -1.2936    3.1974 C   0  0  0  0  0  0  0  0  0  0  0  0
   20.3384   -0.3559    2.5156 C   0  0  0  0  0  0  0  0  0  0  0  0
   22.2130   -0.3430    2.7557 Br  0  0  0  0  0  0  0  0  0  0  0  0
   19.7427    0.5519    1.6430 C   0  0  0  0  0  0  0  0  0  0  0  0
   18.3699    0.4766    1.4184 C   0  0  0  0  0  0  0  0  0  0  0  0
   17.8019    1.3371    0.5584 F   0  0  0  0  0  0  0  0  0  0  0  0
   14.2235   -2.0706    1.4937 C   0  0  0  0  0  0  0  0  0  0  0  0
   13.3130   -1.0215    1.7492 C   0  0  0  0  0  0  0  0  0  0  0  0
   11.9596   -1.2851    1.9737 C   0  0  0  0  0  0  0  0  0  0  0  0
   11.1854   -0.1820    2.3785 N   0  0  0  0  0  0  0  0  0  0  0  0
   10.4253   -0.2001    3.5287 C   0  0  0  0  0  0  0  0  0  0  0  0
   10.3444   -1.1175    4.3344 O   0  0  0  0  0  0  0  0  0  0  0  0
    9.6691    1.0679    3.7107 C   0  0  0  0  0  0  0  0  0  0  0  0
    8.5465    1.0593    4.4335 C   0  0  0  0  0  0  0  0  0  0  0  0
    3.6094    2.4340   -3.4070 H   0  0  0  0  0  0  0  0  0  0  0  0
    4.9234    3.1494   -2.3079 H   0  0  0  0  0  0  0  0  0  0  0  0
    4.6997    0.2726   -3.3758 H   0  0  0  0  0  0  0  0  0  0  0  0
    6.7560    1.6697   -1.5073 H   0  0  0  0  0  0  0  0  0  0  0  0
    7.1838    0.5619   -2.8249 H   0  0  0  0  0  0  0  0  0  0  0  0
    5.4788   -0.1755   -0.4873 H   0  0  0  0  0  0  0  0  0  0  0  0
    6.0561   -2.2887    0.1524 H   0  0  0  0  0  0  0  0  0  0  0  0
    8.3906   -3.4354   -0.1540 H   0  0  0  0  0  0  0  0  0  0  0  0
    7.5590   -3.5087    1.4000 H   0  0  0  0  0  0  0  0  0  0  0  0
    8.7827   -1.5229    2.1853 H   0  0  0  0  0  0  0  0  0  0  0  0
    9.6607   -1.4107    0.6377 H   0  0  0  0  0  0  0  0  0  0  0  0
   12.0231   -4.6387    1.4302 H   0  0  0  0  0  0  0  0  0  0  0  0
   16.5208   -4.9919    0.8136 H   0  0  0  0  0  0  0  0  0  0  0  0
   15.9063    0.0390    1.0250 H   0  0  0  0  0  0  0  0  0  0  0  0
   17.5990   -2.1026    3.4871 H   0  0  0  0  0  0  0  0  0  0  0  0
   20.0200   -1.9998    3.8884 H   0  0  0  0  0  0  0  0  0  0  0  0
   20.3298    1.2955    1.1155 H   0  0  0  0  0  0  0  0  0  0  0  0
   13.6844   -0.0069    1.8655 H   0  0  0  0  0  0  0  0  0  0  0  0
   11.4420    0.7234    2.0105 H   0  0  0  0  0  0  0  0  0  0  0  0
   10.0220    1.9693    3.2246 H   0  0  0  0  0  0  0  0  0  0  0  0
    8.1826    0.1474    4.9004 H   0  0  0  0  0  0  0  0  0  0  0  0
    7.9564    1.9594    4.5640 H   0  0  0  0  0  0  0  0  0  0  0  0
  1  2  2  0  0  0  0
  1 35  1  0  0  0  0
  1 36  1  0  0  0  0
  2  3  1  0  0  0  0
  2 37  1  0  0  0  0
  3  4  1  0  0  0  0
  3 38  1  0  0  0  0
  3 39  1  0  0  0  0
  4  5  1  0  0  0  0
  4 40  1  0  0  0  0
  5  6  2  0  0  0  0
  5  7  1  0  0  0  0
  7  8  1  0  0  0  0
  7 41  1  0  0  0  0
  8  9  1  0  0  0  0
  8 42  1  0  0  0  0
  8 43  1  0  0  0  0
  9 10  1  0  0  0  0
  9 44  1  0  0  0  0
  9 45  1  0  0  0  0
 10 11  1  0  0  0  0
 11 12  1  0  0  0  0
 11 29  2  0  0  0  0
 12 13  2  0  0  0  0
 12 46  1  0  0  0  0
 13 14  1  0  0  0  0
 13 27  1  0  0  0  0
 14 15  2  0  0  0  0
 15 16  1  0  0  0  0
 15 47  1  0  0  0  0
 16 17  2  0  0  0  0
 17 18  1  0  0  0  0
 17 27  1  0  0  0  0
 18 19  1  0  0  0  0
 18 48  1  0  0  0  0
 19 20  1  0  0  0  0
 19 25  2  0  0  0  0
 20 21  2  0  0  0  0
 20 49  1  0  0  0  0
 21 22  1  0  0  0  0
 21 50  1  0  0  0  0
 22 23  1  0  0  0  0
 22 24  2  0  0  0  0
 24 25  1  0  0  0  0
 24 51  1  0  0  0  0
 25 26  1  0  0  0  0
 27 28  2  0  0  0  0
 28 29  1  0  0  0  0
 28 52  1  0  0  0  0
 29 30  1  0  0  0  0
 30 31  1  0  0  0  0
 30 53  1  0  0  0  0
 31 32  2  0  0  0  0
 31 33  1  0  0  0  0
 33 34  2  0  0  0  0
 33 54  1  0  0  0  0
 34 55  1  0  0  0  0
 34 56  1  0  0  0  0
M  END
$$$$
