CHEMBL3690473
 OpenBabel04072215373D

 47 50  0  0  0  0  0  0  0  0999 V2000
    1.1620    0.8375    2.0898 N   0  0  0  0  0  0  0  0  0  0  0  0
    0.3837    0.4486    1.0005 C   0  0  0  0  0  0  0  0  0  0  0  0
    0.1589    1.3189   -0.0423 C   0  0  0  0  0  0  0  0  0  0  0  0
   -0.6533    0.8585   -1.0475 C   0  0  0  0  0  0  0  0  0  0  0  0
   -1.2214   -0.3577   -1.0366 N   0  0  0  0  0  0  0  0  0  0  0  0
   -0.9642   -1.1274    0.0391 C   0  0  0  0  0  0  0  0  0  0  0  0
   -1.6596   -2.4429    0.1003 C   0  0  0  0  0  0  0  0  0  0  0  0
   -2.6286   -2.8520   -0.9283 C   0  0  0  0  0  0  0  0  0  0  0  0
   -3.2805   -4.0199   -0.8239 C   0  0  0  0  0  0  0  0  0  0  0  0
   -3.0059   -4.8735    0.2435 N   0  0  0  0  0  0  0  0  0  0  0  0
   -3.4979   -6.1370    0.5547 C   0  0  0  0  0  0  0  0  0  0  0  0
   -4.4614   -6.9396   -0.2150 C   0  0  0  0  0  0  0  0  0  0  0  0
   -5.3660   -7.7527    0.4827 C   0  0  0  0  0  0  0  0  0  0  0  0
   -6.2808   -8.5484   -0.1993 C   0  0  0  0  0  0  0  0  0  0  0  0
   -6.3367   -8.5131   -1.5883 C   0  0  0  0  0  0  0  0  0  0  0  0
   -5.4697   -7.7007   -2.3199 C   0  0  0  0  0  0  0  0  0  0  0  0
   -5.5294   -7.5835   -3.7326 N   0  0  0  0  0  0  0  0  0  0  0  0
   -6.4491   -8.1909   -4.5618 C   0  0  0  0  0  0  0  0  0  0  0  0
   -7.3717   -8.9191   -4.2279 O   0  0  0  0  0  0  0  0  0  0  0  0
   -6.2120   -7.9367   -5.8940 N   0  0  0  0  0  0  0  0  0  0  0  0
   -7.1189   -8.5442   -6.8786 C   0  0  0  0  0  0  0  0  0  0  0  0
   -8.4811   -7.8581   -7.0669 C   0  0  0  0  0  0  0  0  0  0  0  0
   -8.5502   -6.6733   -6.4177 F   0  0  0  0  0  0  0  0  0  0  0  0
   -8.6812   -7.5926   -8.3835 F   0  0  0  0  0  0  0  0  0  0  0  0
   -9.5096   -8.6275   -6.6555 F   0  0  0  0  0  0  0  0  0  0  0  0
   -4.5024   -6.9550   -1.6226 C   0  0  0  0  0  0  0  0  0  0  0  0
   -2.9065   -6.4245    1.7787 C   0  0  0  0  0  0  0  0  0  0  0  0
   -2.0530   -5.4408    2.1927 N   0  0  0  0  0  0  0  0  0  0  0  0
   -2.1106   -4.5243    1.2535 C   0  0  0  0  0  0  0  0  0  0  0  0
   -1.4366   -3.2729    1.1483 C   0  0  0  0  0  0  0  0  0  0  0  0
   -0.1663   -0.7692    1.0617 N   0  0  0  0  0  0  0  0  0  0  0  0
    2.0652    1.2051    1.8141 H   0  0  0  0  0  0  0  0  0  0  0  0
    1.2460    0.0403    2.7173 H   0  0  0  0  0  0  0  0  0  0  0  0
    0.5788    2.3144   -0.0617 H   0  0  0  0  0  0  0  0  0  0  0  0
   -0.8877    1.4753   -1.9091 H   0  0  0  0  0  0  0  0  0  0  0  0
   -2.8212   -2.1792   -1.7587 H   0  0  0  0  0  0  0  0  0  0  0  0
   -4.0282   -4.3142   -1.5445 H   0  0  0  0  0  0  0  0  0  0  0  0
   -5.3728   -7.7807    1.5703 H   0  0  0  0  0  0  0  0  0  0  0  0
   -6.9634   -9.1927    0.3482 H   0  0  0  0  0  0  0  0  0  0  0  0
   -7.0687   -9.1528   -2.0695 H   0  0  0  0  0  0  0  0  0  0  0  0
   -4.8442   -6.9844   -4.1697 H   0  0  0  0  0  0  0  0  0  0  0  0
   -5.8110   -7.0406   -6.1283 H   0  0  0  0  0  0  0  0  0  0  0  0
   -7.2871   -9.5898   -6.5926 H   0  0  0  0  0  0  0  0  0  0  0  0
   -6.5764   -8.5565   -7.8286 H   0  0  0  0  0  0  0  0  0  0  0  0
   -3.7696   -6.3851   -2.1896 H   0  0  0  0  0  0  0  0  0  0  0  0
   -3.0508   -7.3115    2.3839 H   0  0  0  0  0  0  0  0  0  0  0  0
   -0.7526   -3.0191    1.9521 H   0  0  0  0  0  0  0  0  0  0  0  0
  1  2  1  0  0  0  0
  1 32  1  0  0  0  0
  1 33  1  0  0  0  0
  2  3  1  0  0  0  0
  2 31  2  0  0  0  0
  3  4  2  0  0  0  0
  3 34  1  0  0  0  0
  4  5  1  0  0  0  0
  4 35  1  0  0  0  0
  5  6  2  0  0  0  0
  6  7  1  0  0  0  0
  6 31  1  0  0  0  0
  7  8  1  0  0  0  0
  7 30  2  0  0  0  0
  8  9  2  0  0  0  0
  8 36  1  0  0  0  0
  9 10  1  0  0  0  0
  9 37  1  0  0  0  0
 10 11  1  0  0  0  0
 10 29  1  0  0  0  0
 11 12  1  0  0  0  0
 11 27  2  0  0  0  0
 12 13  1  0  0  0  0
 12 26  2  0  0  0  0
 13 14  2  0  0  0  0
 13 38  1  0  0  0  0
 14 15  1  0  0  0  0
 14 39  1  0  0  0  0
 15 16  2  0  0  0  0
 15 40  1  0  0  0  0
 16 17  1  0  0  0  0
 16 26  1  0  0  0  0
 17 18  1  0  0  0  0
 17 41  1  0  0  0  0
 18 19  2  0  0  0  0
 18 20  1  0  0  0  0
 20 21  1  0  0  0  0
 20 42  1  0  0  0  0
 21 22  1  0  0  0  0
 21 43  1  0  0  0  0
 21 44  1  0  0  0  0
 22 23  1  0  0  0  0
 22 24  1  0  0  0  0
 22 25  1  0  0  0  0
 26 45  1  0  0  0  0
 27 28  1  0  0  0  0
 27 46  1  0  0  0  0
 28 29  2  0  0  0  0
 29 30  1  0  0  0  0
 30 47  1  0  0  0  0
M  END
$$$$
