CHEMBL3965640
 OpenBabel04072215373D

 59 63  0  0  0  0  0  0  0  0999 V2000
    1.2793    0.3503    0.3862 C   0  0  0  0  0  0  0  0  0  0  0  0
    2.6895    0.1178    0.1877 N   0  0  0  0  0  0  0  0  0  0  0  0
    3.2895    0.2637   -1.0535 C   0  0  0  0  0  0  0  0  0  0  0  0
    2.6815    0.6782   -2.0371 O   0  0  0  0  0  0  0  0  0  0  0  0
    4.7426   -0.0803   -1.1572 C   0  0  0  0  0  0  0  0  0  0  0  0
    5.3367   -0.9589   -0.2621 C   0  0  0  0  0  0  0  0  0  0  0  0
    6.6852   -1.2780   -0.3986 C   0  0  0  0  0  0  0  0  0  0  0  0
    7.3787   -2.1227    0.4297 O   0  0  0  0  0  0  0  0  0  0  0  0
    6.6189   -2.8544    1.3880 C   0  0  0  0  0  0  0  0  0  0  0  0
    7.4371   -0.7300   -1.4571 C   0  0  0  0  0  0  0  0  0  0  0  0
    6.8636    0.0815   -2.4478 C   0  0  0  0  0  0  0  0  0  0  0  0
    7.6352    0.5867   -3.5361 N   0  0  0  0  0  0  0  0  0  0  0  0
    6.8725    1.1097   -4.7247 C   0  0  0  0  0  0  0  0  0  0  0  0
    6.3801    2.5500   -4.6526 C   0  0  0  0  0  0  0  0  0  0  0  0
    5.6289    3.0103   -5.8925 C   0  0  0  0  0  0  0  0  0  0  0  0
    6.8808    3.7195   -5.4894 C   0  0  0  0  0  0  0  0  0  0  0  0
    8.9626    0.2239   -3.9942 C   0  0  0  0  0  0  0  0  0  0  0  0
    9.7261    1.2797   -4.4817 C   0  0  0  0  0  0  0  0  0  0  0  0
   10.7446    1.0429   -5.3839 C   0  0  0  0  0  0  0  0  0  0  0  0
   11.1393   -0.2296   -5.7224 C   0  0  0  0  0  0  0  0  0  0  0  0
   12.0078   -0.2860   -6.7379 N   0  0  0  0  0  0  0  0  0  0  0  0
   12.5442   -1.4814   -7.0067 C   0  0  0  0  0  0  0  0  0  0  0  0
   12.2958   -2.5898   -6.2254 C   0  0  0  0  0  0  0  0  0  0  0  0
   13.2197   -3.7083   -6.3968 C   0  0  0  0  0  0  0  0  0  0  0  0
   14.3769   -4.0474   -5.6447 C   0  0  0  0  0  0  0  0  0  0  0  0
   15.1235   -4.9940   -6.2294 N   0  0  0  0  0  0  0  0  0  0  0  0
   14.4521   -5.2639   -7.3612 N   0  0  0  0  0  0  0  0  0  0  0  0
   14.7610   -6.4448   -8.1337 C   0  0  0  0  0  0  0  0  0  0  0  0
   13.4142   -4.3990   -7.5837 C   0  0  0  0  0  0  0  0  0  0  0  0
   11.3179   -2.5657   -5.2529 N   0  0  0  0  0  0  0  0  0  0  0  0
   10.6489   -1.3555   -5.0186 C   0  0  0  0  0  0  0  0  0  0  0  0
    9.4880   -1.0850   -4.1800 C   0  0  0  0  0  0  0  0  0  0  0  0
    5.5015    0.4144   -2.2408 C   0  0  0  0  0  0  0  0  0  0  0  0
    1.0355    0.2013    1.4368 H   0  0  0  0  0  0  0  0  0  0  0  0
    0.7075   -0.3543   -0.2293 H   0  0  0  0  0  0  0  0  0  0  0  0
    1.0210    1.3753    0.0854 H   0  0  0  0  0  0  0  0  0  0  0  0
    3.2663   -0.0018    1.0072 H   0  0  0  0  0  0  0  0  0  0  0  0
    4.7436   -1.4027    0.5315 H   0  0  0  0  0  0  0  0  0  0  0  0
    7.2859   -3.5739    1.8718 H   0  0  0  0  0  0  0  0  0  0  0  0
    5.8107   -3.4226    0.9134 H   0  0  0  0  0  0  0  0  0  0  0  0
    6.2251   -2.1886    2.1637 H   0  0  0  0  0  0  0  0  0  0  0  0
    8.4968   -0.9673   -1.4932 H   0  0  0  0  0  0  0  0  0  0  0  0
    6.0140    0.4529   -4.9094 H   0  0  0  0  0  0  0  0  0  0  0  0
    7.4678    1.0253   -5.6441 H   0  0  0  0  0  0  0  0  0  0  0  0
    5.9666    2.8204   -3.6891 H   0  0  0  0  0  0  0  0  0  0  0  0
    4.6753    3.5093   -5.7645 H   0  0  0  0  0  0  0  0  0  0  0  0
    5.6843    2.4159   -6.8008 H   0  0  0  0  0  0  0  0  0  0  0  0
    6.7380    4.7345   -5.1240 H   0  0  0  0  0  0  0  0  0  0  0  0
    7.7560    3.6067   -6.1162 H   0  0  0  0  0  0  0  0  0  0  0  0
    9.4378    2.3056   -4.2692 H   0  0  0  0  0  0  0  0  0  0  0  0
   11.2229    1.8843   -5.8790 H   0  0  0  0  0  0  0  0  0  0  0  0
   13.2329   -1.5061   -7.8446 H   0  0  0  0  0  0  0  0  0  0  0  0
   14.7321   -3.6184   -4.7159 H   0  0  0  0  0  0  0  0  0  0  0  0
   15.5774   -6.9979   -7.6611 H   0  0  0  0  0  0  0  0  0  0  0  0
   15.0356   -6.1571   -9.1510 H   0  0  0  0  0  0  0  0  0  0  0  0
   13.8608   -7.0659   -8.1437 H   0  0  0  0  0  0  0  0  0  0  0  0
   12.9003   -4.3794   -8.5345 H   0  0  0  0  0  0  0  0  0  0  0  0
    8.9805   -1.9490   -3.7496 H   0  0  0  0  0  0  0  0  0  0  0  0
    4.9859    1.1011   -2.9045 H   0  0  0  0  0  0  0  0  0  0  0  0
  1  2  1  0  0  0  0
  1 34  1  0  0  0  0
  1 35  1  0  0  0  0
  1 36  1  0  0  0  0
  2  3  1  0  0  0  0
  2 37  1  0  0  0  0
  3  4  2  0  0  0  0
  3  5  1  0  0  0  0
  5  6  1  0  0  0  0
  5 33  2  0  0  0  0
  6  7  2  0  0  0  0
  6 38  1  0  0  0  0
  7  8  1  0  0  0  0
  7 10  1  0  0  0  0
  8  9  1  0  0  0  0
  9 39  1  0  0  0  0
  9 40  1  0  0  0  0
  9 41  1  0  0  0  0
 10 11  2  0  0  0  0
 10 42  1  0  0  0  0
 11 12  1  0  0  0  0
 11 33  1  0  0  0  0
 12 13  1  0  0  0  0
 12 17  1  0  0  0  0
 13 14  1  0  0  0  0
 13 43  1  0  0  0  0
 13 44  1  0  0  0  0
 14 15  1  0  0  0  0
 14 16  1  0  0  0  0
 14 45  1  0  0  0  0
 15 16  1  0  0  0  0
 15 46  1  0  0  0  0
 15 47  1  0  0  0  0
 16 48  1  0  0  0  0
 16 49  1  0  0  0  0
 17 18  1  0  0  0  0
 17 32  2  0  0  0  0
 18 19  2  0  0  0  0
 18 50  1  0  0  0  0
 19 20  1  0  0  0  0
 19 51  1  0  0  0  0
 20 21  1  0  0  0  0
 20 31  2  0  0  0  0
 21 22  2  0  0  0  0
 22 23  1  0  0  0  0
 22 52  1  0  0  0  0
 23 24  1  0  0  0  0
 23 30  2  0  0  0  0
 24 25  1  0  0  0  0
 24 29  2  0  0  0  0
 25 26  2  0  0  0  0
 25 53  1  0  0  0  0
 26 27  1  0  0  0  0
 27 28  1  0  0  0  0
 27 29  1  0  0  0  0
 28 54  1  0  0  0  0
 28 55  1  0  0  0  0
 28 56  1  0  0  0  0
 29 57  1  0  0  0  0
 30 31  1  0  0  0  0
 31 32  1  0  0  0  0
 32 58  1  0  0  0  0
 33 59  1  0  0  0  0
M  END
$$$$
