CHEMBL276395
 OpenBabel04072215363D

 65 69  0  0  0  0  0  0  0  0999 V2000
    2.4884    0.1829    0.5148 C   0  0  0  0  0  0  0  0  0  0  0  0
    1.0073    0.2692    0.2580 C   0  0  0  0  0  0  0  0  0  0  0  0
    0.3698   -0.8623   -0.2843 C   0  0  0  0  0  0  0  0  0  0  0  0
   -1.0244   -0.9393   -0.3708 C   0  0  0  0  0  0  0  0  0  0  0  0
   -1.8124    0.1207    0.0767 C   0  0  0  0  0  0  0  0  0  0  0  0
   -3.2969   -0.0231    0.1545 C   0  0  0  0  0  0  0  0  0  0  0  0
   -3.7852   -1.1333    0.3288 O   0  0  0  0  0  0  0  0  0  0  0  0
   -4.0101    1.1511   -0.0693 N   0  0  0  0  0  0  0  0  0  0  0  0
   -5.4172    1.1514   -0.2201 C   0  0  0  0  0  0  0  0  0  0  0  0
   -6.2028    0.7240    0.8593 C   0  0  0  0  0  0  0  0  0  0  0  0
   -7.5968    0.8381    0.8169 C   0  0  0  0  0  0  0  0  0  0  0  0
   -8.4412    0.4404    2.0010 C   0  0  0  0  0  0  0  0  0  0  0  0
   -7.7232   -0.0093    3.0657 F   0  0  0  0  0  0  0  0  0  0  0  0
   -9.1918    1.4768    2.4744 F   0  0  0  0  0  0  0  0  0  0  0  0
   -9.3291   -0.5493    1.7018 F   0  0  0  0  0  0  0  0  0  0  0  0
   -8.1900    1.3556   -0.3405 C   0  0  0  0  0  0  0  0  0  0  0  0
   -7.4003    1.7788   -1.4206 C   0  0  0  0  0  0  0  0  0  0  0  0
   -5.9966    1.7037   -1.3923 C   0  0  0  0  0  0  0  0  0  0  0  0
   -5.2235    2.1291   -2.4745 N   0  0  0  0  0  0  0  0  0  0  0  0
   -5.6652    3.2176   -3.3550 C   0  0  0  0  0  0  0  0  0  0  0  0
   -5.9813    2.7069   -4.7612 C   0  0  0  0  0  0  0  0  0  0  0  0
   -4.8227    1.8959   -5.3327 C   0  0  0  0  0  0  0  0  0  0  0  0
   -4.4690    0.7545   -4.3943 C   0  0  0  0  0  0  0  0  0  0  0  0
   -4.1568    1.2605   -2.9941 C   0  0  0  0  0  0  0  0  0  0  0  0
   -1.1871    1.2931    0.5272 C   0  0  0  0  0  0  0  0  0  0  0  0
    0.2139    1.3856    0.5788 C   0  0  0  0  0  0  0  0  0  0  0  0
    0.6696    2.5747    1.1072 O   0  0  0  0  0  0  0  0  0  0  0  0
    1.7354    3.2369    0.5126 C   0  0  0  0  0  0  0  0  0  0  0  0
    2.0726    2.8906   -0.7556 N   0  0  0  0  0  0  0  0  0  0  0  0
    3.1769    3.4482   -1.2846 C   0  0  0  0  0  0  0  0  0  0  0  0
    3.9277    4.4008   -0.6330 C   0  0  0  0  0  0  0  0  0  0  0  0
    3.5255    4.7945    0.6411 C   0  0  0  0  0  0  0  0  0  0  0  0
    2.4094    4.2122    1.2754 C   0  0  0  0  0  0  0  0  0  0  0  0
    2.0347    4.6265    2.6450 C   0  0  0  0  0  0  0  0  0  0  0  0
    1.4534    3.7901    3.5835 C   0  0  0  0  0  0  0  0  0  0  0  0
    1.2317    4.3129    4.8387 C   0  0  0  0  0  0  0  0  0  0  0  0
    1.5395    5.5721    5.1837 N   0  0  0  0  0  0  0  0  0  0  0  0
    2.0871    6.3133    4.2146 C   0  0  0  0  0  0  0  0  0  0  0  0
    2.3553    5.9050    2.9638 N   0  0  0  0  0  0  0  0  0  0  0  0
    2.8527   -0.8415    0.3772 H   0  0  0  0  0  0  0  0  0  0  0  0
    2.7139    0.4624    1.5491 H   0  0  0  0  0  0  0  0  0  0  0  0
    3.0729    0.7968   -0.1699 H   0  0  0  0  0  0  0  0  0  0  0  0
    0.9654   -1.7157   -0.6073 H   0  0  0  0  0  0  0  0  0  0  0  0
   -1.4852   -1.8455   -0.7595 H   0  0  0  0  0  0  0  0  0  0  0  0
   -3.5462    1.8529   -0.6351 H   0  0  0  0  0  0  0  0  0  0  0  0
   -5.7173    0.3519    1.7606 H   0  0  0  0  0  0  0  0  0  0  0  0
   -9.2746    1.4359   -0.4114 H   0  0  0  0  0  0  0  0  0  0  0  0
   -7.9142    2.1454   -2.3056 H   0  0  0  0  0  0  0  0  0  0  0  0
   -4.8552    3.9546   -3.4152 H   0  0  0  0  0  0  0  0  0  0  0  0
   -6.5279    3.7638   -2.9558 H   0  0  0  0  0  0  0  0  0  0  0  0
   -6.1927    3.5545   -5.4225 H   0  0  0  0  0  0  0  0  0  0  0  0
   -6.8829    2.0825   -4.7379 H   0  0  0  0  0  0  0  0  0  0  0  0
   -3.9482    2.5430   -5.4731 H   0  0  0  0  0  0  0  0  0  0  0  0
   -5.0907    1.4949   -6.3157 H   0  0  0  0  0  0  0  0  0  0  0  0
   -3.6018    0.2063   -4.7804 H   0  0  0  0  0  0  0  0  0  0  0  0
   -5.3037    0.0445   -4.3467 H   0  0  0  0  0  0  0  0  0  0  0  0
   -3.2192    1.8300   -2.9986 H   0  0  0  0  0  0  0  0  0  0  0  0
   -3.9939    0.3694   -2.3843 H   0  0  0  0  0  0  0  0  0  0  0  0
   -1.7816    2.1288    0.8846 H   0  0  0  0  0  0  0  0  0  0  0  0
    3.4588    3.0795   -2.2666 H   0  0  0  0  0  0  0  0  0  0  0  0
    4.8058    4.8322   -1.0991 H   0  0  0  0  0  0  0  0  0  0  0  0
    4.1035    5.5550    1.1622 H   0  0  0  0  0  0  0  0  0  0  0  0
    1.1977    2.7590    3.3863 H   0  0  0  0  0  0  0  0  0  0  0  0
    0.7973    3.7040    5.6266 H   0  0  0  0  0  0  0  0  0  0  0  0
    2.3457    7.3362    4.4663 H   0  0  0  0  0  0  0  0  0  0  0  0
  1  2  1  0  0  0  0
  1 40  1  0  0  0  0
  1 41  1  0  0  0  0
  1 42  1  0  0  0  0
  2  3  1  0  0  0  0
  2 26  2  0  0  0  0
  3  4  2  0  0  0  0
  3 43  1  0  0  0  0
  4  5  1  0  0  0  0
  4 44  1  0  0  0  0
  5  6  1  0  0  0  0
  5 25  2  0  0  0  0
  6  7  2  0  0  0  0
  6  8  1  0  0  0  0
  8  9  1  0  0  0  0
  8 45  1  0  0  0  0
  9 10  1  0  0  0  0
  9 18  2  0  0  0  0
 10 11  2  0  0  0  0
 10 46  1  0  0  0  0
 11 12  1  0  0  0  0
 11 16  1  0  0  0  0
 12 13  1  0  0  0  0
 12 14  1  0  0  0  0
 12 15  1  0  0  0  0
 16 17  2  0  0  0  0
 16 47  1  0  0  0  0
 17 18  1  0  0  0  0
 17 48  1  0  0  0  0
 18 19  1  0  0  0  0
 19 20  1  0  0  0  0
 19 24  1  0  0  0  0
 20 21  1  0  0  0  0
 20 49  1  0  0  0  0
 20 50  1  0  0  0  0
 21 22  1  0  0  0  0
 21 51  1  0  0  0  0
 21 52  1  0  0  0  0
 22 23  1  0  0  0  0
 22 53  1  0  0  0  0
 22 54  1  0  0  0  0
 23 24  1  0  0  0  0
 23 55  1  0  0  0  0
 23 56  1  0  0  0  0
 24 57  1  0  0  0  0
 24 58  1  0  0  0  0
 25 26  1  0  0  0  0
 25 59  1  0  0  0  0
 26 27  1  0  0  0  0
 27 28  1  0  0  0  0
 28 29  1  0  0  0  0
 28 33  2  0  0  0  0
 29 30  2  0  0  0  0
 30 31  1  0  0  0  0
 30 60  1  0  0  0  0
 31 32  2  0  0  0  0
 31 61  1  0  0  0  0
 32 33  1  0  0  0  0
 32 62  1  0  0  0  0
 33 34  1  0  0  0  0
 34 35  1  0  0  0  0
 34 39  2  0  0  0  0
 35 36  2  0  0  0  0
 35 63  1  0  0  0  0
 36 37  1  0  0  0  0
 36 64  1  0  0  0  0
 37 38  2  0  0  0  0
 38 39  1  0  0  0  0
 38 65  1  0  0  0  0
M  END
$$$$
