CHEMBL3676352
 OpenBabel04072215373D

 54 56  0  0  0  0  0  0  0  0999 V2000
    1.6649    0.9100    1.3921 C   0  0  0  0  0  0  0  0  0  0  0  0
    2.6998    0.3725    0.7335 C   0  0  0  0  0  0  0  0  0  0  0  0
    3.4038   -0.8265    1.2673 C   0  0  0  0  0  0  0  0  0  0  0  0
    3.1498   -1.2960    2.3697 O   0  0  0  0  0  0  0  0  0  0  0  0
    4.3552   -1.3026    0.3813 N   0  0  0  0  0  0  0  0  0  0  0  0
    5.1363   -2.4204    0.7457 C   0  0  0  0  0  0  0  0  0  0  0  0
    6.2935   -2.1782    1.4854 C   0  0  0  0  0  0  0  0  0  0  0  0
    7.0460   -3.2512    2.0103 C   0  0  0  0  0  0  0  0  0  0  0  0
    8.1605   -3.0987    2.8509 C   0  0  0  0  0  0  0  0  0  0  0  0
    8.5055   -1.8002    3.3335 N   0  0  0  0  0  0  0  0  0  0  0  0
    9.7627   -1.4999    3.9154 C   0  0  0  0  0  0  0  0  0  0  0  0
   10.9393   -1.8962    3.2636 C   0  0  0  0  0  0  0  0  0  0  0  0
   12.2139   -1.7129    3.8178 C   0  0  0  0  0  0  0  0  0  0  0  0
   13.1722   -2.2408    3.0007 O   0  0  0  0  0  0  0  0  0  0  0  0
   14.5246   -2.2917    3.4029 C   0  0  0  0  0  0  0  0  0  0  0  0
   12.3085   -1.0621    5.0530 C   0  0  0  0  0  0  0  0  0  0  0  0
   13.7789   -0.7759    5.9174 Cl  0  0  0  0  0  0  0  0  0  0  0  0
   11.1490   -0.5910    5.6888 C   0  0  0  0  0  0  0  0  0  0  0  0
    9.8900   -0.8035    5.1221 C   0  0  0  0  0  0  0  0  0  0  0  0
    8.4946   -0.2326    5.9668 Cl  0  0  0  0  0  0  0  0  0  0  0  0
    8.8844   -4.1512    3.2720 N   0  0  0  0  0  0  0  0  0  0  0  0
    8.4703   -5.3590    2.8820 C   0  0  0  0  0  0  0  0  0  0  0  0
    7.3966   -5.6208    2.1262 N   0  0  0  0  0  0  0  0  0  0  0  0
    6.6852   -4.5683    1.7012 C   0  0  0  0  0  0  0  0  0  0  0  0
    5.5613   -4.7877    0.9195 C   0  0  0  0  0  0  0  0  0  0  0  0
    4.7796   -3.7381    0.4147 C   0  0  0  0  0  0  0  0  0  0  0  0
    3.7507   -4.1457   -0.4074 O   0  0  0  0  0  0  0  0  0  0  0  0
    3.4283   -3.2412   -1.4609 C   0  0  0  0  0  0  0  0  0  0  0  0
    2.9690   -3.9542   -2.7372 C   0  0  0  0  0  0  0  0  0  0  0  0
    2.6630   -3.0118   -3.8134 N   0  0  0  0  0  0  0  0  0  0  0  0
    3.6167   -2.1661   -4.3351 C   0  0  0  0  0  0  0  0  0  0  0  0
    3.1085   -1.2106   -5.3821 C   0  0  0  0  0  0  0  0  0  0  0  0
    4.7893   -2.1428   -3.9721 O   0  0  0  0  0  0  0  0  0  0  0  0
    1.1167    1.7495    0.9797 H   0  0  0  0  0  0  0  0  0  0  0  0
    1.3255    0.5077    2.3443 H   0  0  0  0  0  0  0  0  0  0  0  0
    3.0079    0.7695   -0.2256 H   0  0  0  0  0  0  0  0  0  0  0  0
    4.8528   -0.5687   -0.1090 H   0  0  0  0  0  0  0  0  0  0  0  0
    6.5993   -1.1552    1.6814 H   0  0  0  0  0  0  0  0  0  0  0  0
    7.7417   -1.4749    3.9271 H   0  0  0  0  0  0  0  0  0  0  0  0
   10.8591   -2.3941    2.2965 H   0  0  0  0  0  0  0  0  0  0  0  0
   15.0754   -2.8379    2.6290 H   0  0  0  0  0  0  0  0  0  0  0  0
   14.6498   -2.8511    4.3341 H   0  0  0  0  0  0  0  0  0  0  0  0
   14.9540   -1.2872    3.4524 H   0  0  0  0  0  0  0  0  0  0  0  0
   11.2265   -0.0690    6.6393 H   0  0  0  0  0  0  0  0  0  0  0  0
    9.0577   -6.2086    3.2143 H   0  0  0  0  0  0  0  0  0  0  0  0
    5.2891   -5.8133    0.6728 H   0  0  0  0  0  0  0  0  0  0  0  0
    4.2987   -2.6320   -1.7191 H   0  0  0  0  0  0  0  0  0  0  0  0
    2.6171   -2.5850   -1.1207 H   0  0  0  0  0  0  0  0  0  0  0  0
    2.0610   -4.5389   -2.5422 H   0  0  0  0  0  0  0  0  0  0  0  0
    3.7332   -4.6559   -3.0933 H   0  0  0  0  0  0  0  0  0  0  0  0
    1.7609   -3.0767   -4.2647 H   0  0  0  0  0  0  0  0  0  0  0  0
    2.0192   -1.2345   -5.4643 H   0  0  0  0  0  0  0  0  0  0  0  0
    3.5489   -1.4727   -6.3492 H   0  0  0  0  0  0  0  0  0  0  0  0
    3.4087   -0.1950   -5.1084 H   0  0  0  0  0  0  0  0  0  0  0  0
  1  2  2  0  0  0  0
  1 34  1  0  0  0  0
  1 35  1  0  0  0  0
  2  3  1  0  0  0  0
  2 36  1  0  0  0  0
  3  4  2  0  0  0  0
  3  5  1  0  0  0  0
  5  6  1  0  0  0  0
  5 37  1  0  0  0  0
  6  7  1  0  0  0  0
  6 26  2  0  0  0  0
  7  8  2  0  0  0  0
  7 38  1  0  0  0  0
  8  9  1  0  0  0  0
  8 24  1  0  0  0  0
  9 10  1  0  0  0  0
  9 21  2  0  0  0  0
 10 11  1  0  0  0  0
 10 39  1  0  0  0  0
 11 12  1  0  0  0  0
 11 19  2  0  0  0  0
 12 13  2  0  0  0  0
 12 40  1  0  0  0  0
 13 14  1  0  0  0  0
 13 16  1  0  0  0  0
 14 15  1  0  0  0  0
 15 41  1  0  0  0  0
 15 42  1  0  0  0  0
 15 43  1  0  0  0  0
 16 17  1  0  0  0  0
 16 18  2  0  0  0  0
 18 19  1  0  0  0  0
 18 44  1  0  0  0  0
 19 20  1  0  0  0  0
 21 22  1  0  0  0  0
 22 23  2  0  0  0  0
 22 45  1  0  0  0  0
 23 24  1  0  0  0  0
 24 25  2  0  0  0  0
 25 26  1  0  0  0  0
 25 46  1  0  0  0  0
 26 27  1  0  0  0  0
 27 28  1  0  0  0  0
 28 29  1  0  0  0  0
 28 47  1  0  0  0  0
 28 48  1  0  0  0  0
 29 30  1  0  0  0  0
 29 49  1  0  0  0  0
 29 50  1  0  0  0  0
 30 31  1  0  0  0  0
 30 51  1  0  0  0  0
 31 32  1  0  0  0  0
 31 33  2  0  0  0  0
 32 52  1  0  0  0  0
 32 53  1  0  0  0  0
 32 54  1  0  0  0  0
M  END
$$$$
