CHEMBL4470214
 OpenBabel04072215383D

 51 54  0  0  0  0  0  0  0  0999 V2000
  -12.8904    2.6507    4.1373 C   0  0  0  0  0  0  0  0  0  0  0  0
  -11.8284    2.9057    3.1085 C   0  0  0  0  0  0  0  0  0  0  0  0
  -11.0558    1.8524    2.6133 C   0  0  0  0  0  0  0  0  0  0  0  0
  -10.0849    2.0813    1.6354 C   0  0  0  0  0  0  0  0  0  0  0  0
   -9.8713    3.3735    1.1354 C   0  0  0  0  0  0  0  0  0  0  0  0
   -8.9131    3.6018    0.1067 N   0  0  0  0  0  0  0  0  0  0  0  0
   -8.1738    2.6545   -0.5664 C   0  0  0  0  0  0  0  0  0  0  0  0
   -7.4453    3.2938   -1.5358 C   0  0  0  0  0  0  0  0  0  0  0  0
   -6.6043    2.7300   -2.4852 N   0  0  0  0  0  0  0  0  0  0  0  0
   -6.3739    1.3692   -2.6143 C   0  0  0  0  0  0  0  0  0  0  0  0
   -6.8433    0.4856   -1.9014 O   0  0  0  0  0  0  0  0  0  0  0  0
   -5.4437    0.9562   -3.7059 C   0  0  0  0  0  0  0  0  0  0  0  0
   -4.6978   -0.2209   -3.5280 C   0  0  0  0  0  0  0  0  0  0  0  0
   -3.8104   -0.6544   -4.5158 C   0  0  0  0  0  0  0  0  0  0  0  0
   -3.6722    0.0799   -5.6911 C   0  0  0  0  0  0  0  0  0  0  0  0
   -2.7355   -0.3170   -6.6672 N   0  0  0  0  0  0  0  0  0  0  0  0
   -3.0923   -1.4930   -7.8007 S   0  0  0  0  0  0  0  0  0  0  0  0
   -1.8913   -1.6580   -8.5936 O   0  0  0  0  0  0  0  0  0  0  0  0
   -3.7164   -2.6210   -7.1441 O   0  0  0  0  0  0  0  0  0  0  0  0
   -4.3075   -0.7054   -8.8347 C   0  0  0  0  0  0  0  0  0  0  0  0
   -3.8916    0.0377   -9.9453 C   0  0  0  0  0  0  0  0  0  0  0  0
   -4.8458    0.5931  -10.7987 C   0  0  0  0  0  0  0  0  0  0  0  0
   -6.2050    0.3999  -10.5460 C   0  0  0  0  0  0  0  0  0  0  0  0
   -6.6159   -0.3459   -9.4398 C   0  0  0  0  0  0  0  0  0  0  0  0
   -5.6678   -0.9062   -8.5824 C   0  0  0  0  0  0  0  0  0  0  0  0
   -4.4180    1.2437   -5.8837 C   0  0  0  0  0  0  0  0  0  0  0  0
   -5.3138    1.6757   -4.8994 C   0  0  0  0  0  0  0  0  0  0  0  0
   -7.7562    4.6540   -1.3419 C   0  0  0  0  0  0  0  0  0  0  0  0
   -8.6421    4.8523   -0.3613 N   0  0  0  0  0  0  0  0  0  0  0  0
  -10.6337    4.4358    1.6394 C   0  0  0  0  0  0  0  0  0  0  0  0
  -11.6102    4.1986    2.6157 C   0  0  0  0  0  0  0  0  0  0  0  0
  -12.8793    1.6067    4.4705 H   0  0  0  0  0  0  0  0  0  0  0  0
  -13.8790    2.8587    3.7186 H   0  0  0  0  0  0  0  0  0  0  0  0
  -12.7266    3.2803    5.0174 H   0  0  0  0  0  0  0  0  0  0  0  0
  -11.2045    0.8388    2.9799 H   0  0  0  0  0  0  0  0  0  0  0  0
   -9.5158    1.2240    1.2903 H   0  0  0  0  0  0  0  0  0  0  0  0
   -8.2468    1.6066   -0.3255 H   0  0  0  0  0  0  0  0  0  0  0  0
   -6.1205    3.3782   -3.0905 H   0  0  0  0  0  0  0  0  0  0  0  0
   -4.8065   -0.8034   -2.6138 H   0  0  0  0  0  0  0  0  0  0  0  0
   -3.2334   -1.5640   -4.3585 H   0  0  0  0  0  0  0  0  0  0  0  0
   -1.8349    0.1481   -6.7494 H   0  0  0  0  0  0  0  0  0  0  0  0
   -2.8340    0.1712  -10.1635 H   0  0  0  0  0  0  0  0  0  0  0  0
   -4.5321    1.1606  -11.6720 H   0  0  0  0  0  0  0  0  0  0  0  0
   -6.9469    0.8184  -11.2235 H   0  0  0  0  0  0  0  0  0  0  0  0
   -7.6761   -0.5060   -9.2569 H   0  0  0  0  0  0  0  0  0  0  0  0
   -5.9940   -1.5042   -7.7338 H   0  0  0  0  0  0  0  0  0  0  0  0
   -4.3189    1.8086   -6.8071 H   0  0  0  0  0  0  0  0  0  0  0  0
   -5.9199    2.5546   -5.1012 H   0  0  0  0  0  0  0  0  0  0  0  0
   -7.3862    5.5155   -1.8820 H   0  0  0  0  0  0  0  0  0  0  0  0
  -10.4940    5.4502    1.2704 H   0  0  0  0  0  0  0  0  0  0  0  0
  -12.2065    5.0308    2.9837 H   0  0  0  0  0  0  0  0  0  0  0  0
  1  2  1  0  0  0  0
  1 32  1  0  0  0  0
  1 33  1  0  0  0  0
  1 34  1  0  0  0  0
  2  3  1  0  0  0  0
  2 31  2  0  0  0  0
  3  4  2  0  0  0  0
  3 35  1  0  0  0  0
  4  5  1  0  0  0  0
  4 36  1  0  0  0  0
  5  6  1  0  0  0  0
  5 30  2  0  0  0  0
  6  7  1  0  0  0  0
  6 29  1  0  0  0  0
  7  8  2  0  0  0  0
  7 37  1  0  0  0  0
  8  9  1  0  0  0  0
  8 28  1  0  0  0  0
  9 10  1  0  0  0  0
  9 38  1  0  0  0  0
 10 11  2  0  0  0  0
 10 12  1  0  0  0  0
 12 13  1  0  0  0  0
 12 27  2  0  0  0  0
 13 14  2  0  0  0  0
 13 39  1  0  0  0  0
 14 15  1  0  0  0  0
 14 40  1  0  0  0  0
 15 16  1  0  0  0  0
 15 26  2  0  0  0  0
 16 17  1  0  0  0  0
 16 41  1  0  0  0  0
 17 18  2  0  0  0  0
 17 19  2  0  0  0  0
 17 20  1  0  0  0  0
 20 21  1  0  0  0  0
 20 25  2  0  0  0  0
 21 22  2  0  0  0  0
 21 42  1  0  0  0  0
 22 23  1  0  0  0  0
 22 43  1  0  0  0  0
 23 24  2  0  0  0  0
 23 44  1  0  0  0  0
 24 25  1  0  0  0  0
 24 45  1  0  0  0  0
 25 46  1  0  0  0  0
 26 27  1  0  0  0  0
 26 47  1  0  0  0  0
 27 48  1  0  0  0  0
 28 29  2  0  0  0  0
 28 49  1  0  0  0  0
 30 31  1  0  0  0  0
 30 50  1  0  0  0  0
 31 51  1  0  0  0  0
M  END
$$$$
