CHEMBL4174374
 OpenBabel04072215383D

 45 47  0  0  0  0  0  0  0  0999 V2000
    5.9483    4.1650   -3.0093 C   0  0  0  0  0  0  0  0  0  0  0  0
    6.3597    3.0525   -3.6327 C   0  0  0  0  0  0  0  0  0  0  0  0
    5.7190    1.7473   -3.3192 C   0  0  0  0  0  0  0  0  0  0  0  0
    4.6922    1.6870   -2.6526 O   0  0  0  0  0  0  0  0  0  0  0  0
    6.4357    0.6769   -3.7984 N   0  0  0  0  0  0  0  0  0  0  0  0
    6.0617   -0.6474   -3.5553 C   0  0  0  0  0  0  0  0  0  0  0  0
    4.7378   -1.0555   -3.5939 C   0  0  0  0  0  0  0  0  0  0  0  0
    4.4409   -2.3759   -3.2856 C   0  0  0  0  0  0  0  0  0  0  0  0
    5.4700   -3.2357   -2.9162 C   0  0  0  0  0  0  0  0  0  0  0  0
    6.7802   -2.7628   -2.9140 C   0  0  0  0  0  0  0  0  0  0  0  0
    7.9392   -3.5978   -2.5334 C   0  0  0  0  0  0  0  0  0  0  0  0
    9.2002   -3.3125   -3.0697 C   0  0  0  0  0  0  0  0  0  0  0  0
   10.3176   -4.0941   -2.7743 C   0  0  0  0  0  0  0  0  0  0  0  0
   10.2299   -5.1886   -1.9153 C   0  0  0  0  0  0  0  0  0  0  0  0
   11.3290   -6.0324   -1.6281 N   0  0  0  0  0  0  0  0  0  0  0  0
   12.6315   -5.8183   -2.0447 C   0  0  0  0  0  0  0  0  0  0  0  0
   13.0318   -4.8092   -2.6095 O   0  0  0  0  0  0  0  0  0  0  0  0
   13.4502   -6.9104   -1.7872 N   0  0  0  0  0  0  0  0  0  0  0  0
   14.8095   -6.8587   -2.2003 C   0  0  0  0  0  0  0  0  0  0  0  0
   15.6059   -5.7341   -1.9632 C   0  0  0  0  0  0  0  0  0  0  0  0
   16.8998   -5.6606   -2.4862 C   0  0  0  0  0  0  0  0  0  0  0  0
   17.3958   -6.7104   -3.2563 C   0  0  0  0  0  0  0  0  0  0  0  0
   16.6230   -7.8521   -3.4693 C   0  0  0  0  0  0  0  0  0  0  0  0
   15.3465   -7.9291   -2.9170 C   0  0  0  0  0  0  0  0  0  0  0  0
   14.5911   -9.0108   -3.1620 F   0  0  0  0  0  0  0  0  0  0  0  0
    8.9881   -5.4735   -1.3407 C   0  0  0  0  0  0  0  0  0  0  0  0
    7.8608   -4.6859   -1.6439 C   0  0  0  0  0  0  0  0  0  0  0  0
    7.0780   -1.4873   -3.2864 N   0  0  0  0  0  0  0  0  0  0  0  0
    6.3762    5.1325   -3.2458 H   0  0  0  0  0  0  0  0  0  0  0  0
    5.1708    4.1338   -2.2493 H   0  0  0  0  0  0  0  0  0  0  0  0
    7.1293    3.0871   -4.3924 H   0  0  0  0  0  0  0  0  0  0  0  0
    7.4218    0.7930   -3.9826 H   0  0  0  0  0  0  0  0  0  0  0  0
    3.9454   -0.3696   -3.8743 H   0  0  0  0  0  0  0  0  0  0  0  0
    3.4140   -2.7265   -3.3207 H   0  0  0  0  0  0  0  0  0  0  0  0
    5.2392   -4.2622   -2.6562 H   0  0  0  0  0  0  0  0  0  0  0  0
    9.3301   -2.4694   -3.7463 H   0  0  0  0  0  0  0  0  0  0  0  0
   11.2438   -3.8036   -3.2574 H   0  0  0  0  0  0  0  0  0  0  0  0
   11.1782   -6.7916   -0.9773 H   0  0  0  0  0  0  0  0  0  0  0  0
   13.0024   -7.8091   -1.9216 H   0  0  0  0  0  0  0  0  0  0  0  0
   15.2211   -4.8857   -1.3978 H   0  0  0  0  0  0  0  0  0  0  0  0
   17.4944   -4.7652   -2.3243 H   0  0  0  0  0  0  0  0  0  0  0  0
   18.3862   -6.6294   -3.7015 H   0  0  0  0  0  0  0  0  0  0  0  0
   16.9942   -8.6628   -4.0846 H   0  0  0  0  0  0  0  0  0  0  0  0
    8.8703   -6.3064   -0.6522 H   0  0  0  0  0  0  0  0  0  0  0  0
    6.9189   -4.9336   -1.1587 H   0  0  0  0  0  0  0  0  0  0  0  0
  1  2  2  0  0  0  0
  1 29  1  0  0  0  0
  1 30  1  0  0  0  0
  2  3  1  0  0  0  0
  2 31  1  0  0  0  0
  3  4  2  0  0  0  0
  3  5  1  0  0  0  0
  5  6  1  0  0  0  0
  5 32  1  0  0  0  0
  6  7  1  0  0  0  0
  6 28  2  0  0  0  0
  7  8  2  0  0  0  0
  7 33  1  0  0  0  0
  8  9  1  0  0  0  0
  8 34  1  0  0  0  0
  9 10  2  0  0  0  0
  9 35  1  0  0  0  0
 10 11  1  0  0  0  0
 10 28  1  0  0  0  0
 11 12  1  0  0  0  0
 11 27  2  0  0  0  0
 12 13  2  0  0  0  0
 12 36  1  0  0  0  0
 13 14  1  0  0  0  0
 13 37  1  0  0  0  0
 14 15  1  0  0  0  0
 14 26  2  0  0  0  0
 15 16  1  0  0  0  0
 15 38  1  0  0  0  0
 16 17  2  0  0  0  0
 16 18  1  0  0  0  0
 18 19  1  0  0  0  0
 18 39  1  0  0  0  0
 19 20  1  0  0  0  0
 19 24  2  0  0  0  0
 20 21  2  0  0  0  0
 20 40  1  0  0  0  0
 21 22  1  0  0  0  0
 21 41  1  0  0  0  0
 22 23  2  0  0  0  0
 22 42  1  0  0  0  0
 23 24  1  0  0  0  0
 23 43  1  0  0  0  0
 24 25  1  0  0  0  0
 26 27  1  0  0  0  0
 26 44  1  0  0  0  0
 27 45  1  0  0  0  0
M  END
$$$$
