CHEMBL3943734
 OpenBabel04072215373D

 57 61  0  0  1  0  0  0  0  0999 V2000
    1.2322   -0.5390   -1.6001 C   0  0  0  0  0  0  0  0  0  0  0  0
    2.4027   -0.4079   -0.8051 O   0  0  0  0  0  0  0  0  0  0  0  0
    3.0005   -1.5061   -0.2553 C   0  0  0  0  0  0  0  0  0  0  0  0
    4.0309   -1.1482    0.6518 C   0  0  0  0  0  0  0  0  0  0  0  0
    4.8500   -2.1178    1.3058 C   0  0  0  0  0  0  0  0  0  0  0  0
    5.9458   -1.9114    2.1812 C   0  0  0  0  0  0  0  0  0  0  0  0
    6.3232   -0.6067    2.5879 N   0  0  0  0  0  0  0  0  0  0  0  0
    7.0410   -0.3145    3.7780 C   0  0  0  0  0  0  0  0  0  0  0  0
    6.7650   -0.9893    4.9797 C   0  0  0  0  0  0  0  0  0  0  0  0
    7.4037   -0.6448    6.1751 C   0  0  0  0  0  0  0  0  0  0  0  0
    8.3335    0.3938    6.1927 C   0  0  0  0  0  0  0  0  0  0  0  0
    9.1231    0.8361    7.8627 Br  0  0  0  0  0  0  0  0  0  0  0  0
    8.6304    1.0711    5.0058 C   0  0  0  0  0  0  0  0  0  0  0  0
    9.7723    2.3689    4.9417 Cl  0  0  0  0  0  0  0  0  0  0  0  0
    7.9840    0.7190    3.8092 C   0  0  0  0  0  0  0  0  0  0  0  0
    6.6854   -2.9332    2.6617 N   0  0  0  0  0  0  0  0  0  0  0  0
    6.3136   -4.1644    2.3286 C   0  0  0  0  0  0  0  0  0  0  0  0
    5.2487   -4.4764    1.5940 N   0  0  0  0  0  0  0  0  0  0  0  0
    4.5433   -3.4587    1.0991 C   0  0  0  0  0  0  0  0  0  0  0  0
    3.4712   -3.7932    0.2931 C   0  0  0  0  0  0  0  0  0  0  0  0
    2.7679   -2.8644   -0.4951 C   0  0  0  0  0  0  0  0  0  0  0  0
    1.9589   -3.3002   -1.5357 O   0  0  0  0  0  0  0  0  0  0  0  0
    2.3160   -4.5942   -2.0848 C   0  0  2  0  0  0  0  0  0  0  0  0
    3.7849   -4.6901   -2.5251 C   0  0  0  0  0  0  0  0  0  0  0  0
    3.8945   -5.4140   -3.7454 O   0  0  0  0  0  0  0  0  0  0  0  0
    2.5874   -5.6517   -4.2544 C   0  0  2  0  0  0  0  0  0  0  0  0
    2.3814   -4.9036   -5.5706 C   0  0  1  0  0  0  0  0  0  0  0  0
    2.7371   -5.7543   -6.7203 N   0  0  0  0  0  0  0  0  0  0  0  0
    2.5413   -5.2345   -8.2922 S   0  0  0  0  0  0  0  0  0  0  0  0
    3.6672   -3.8561   -8.4244 C   0  0  0  0  0  0  0  0  0  0  0  0
    3.0133   -6.3114   -9.1268 O   0  0  0  0  0  0  0  0  0  0  0  0
    1.1870   -4.7434   -8.4067 O   0  0  0  0  0  0  0  0  0  0  0  0
    0.9274   -4.4936   -5.4424 C   0  0  0  0  0  0  0  0  0  0  0  0
    0.8088   -4.0893   -4.0590 O   0  0  0  0  0  0  0  0  0  0  0  0
    1.5403   -5.0656   -3.3121 C   0  0  2  0  0  0  0  0  0  0  0  0
    0.7662    0.4540   -1.6474 H   0  0  0  0  0  0  0  0  0  0  0  0
    0.4902   -1.2170   -1.1689 H   0  0  0  0  0  0  0  0  0  0  0  0
    1.4953   -0.8190   -2.6237 H   0  0  0  0  0  0  0  0  0  0  0  0
    4.2201   -0.0890    0.8224 H   0  0  0  0  0  0  0  0  0  0  0  0
    6.6458   -0.0799    1.7834 H   0  0  0  0  0  0  0  0  0  0  0  0
    6.0306   -1.7926    4.9986 H   0  0  0  0  0  0  0  0  0  0  0  0
    7.1565   -1.1875    7.0849 H   0  0  0  0  0  0  0  0  0  0  0  0
    8.2321    1.2565    2.8981 H   0  0  0  0  0  0  0  0  0  0  0  0
    6.9298   -4.9825    2.6840 H   0  0  0  0  0  0  0  0  0  0  0  0
    3.2520   -4.8548    0.2418 H   0  0  0  0  0  0  0  0  0  0  0  0
    2.1067   -5.3606   -1.3258 H   0  0  0  0  0  0  0  0  0  0  0  0
    4.3722   -5.2476   -1.7873 H   0  0  0  0  0  0  0  0  0  0  0  0
    4.2528   -3.7090   -2.6509 H   0  0  0  0  0  0  0  0  0  0  0  0
    2.4704   -6.7367   -4.3538 H   0  0  0  0  0  0  0  0  0  0  0  0
    3.0218   -4.0140   -5.5817 H   0  0  0  0  0  0  0  0  0  0  0  0
    2.6155   -6.7650   -6.6342 H   0  0  0  0  0  0  0  0  0  0  0  0
    4.6814   -4.1971   -8.2159 H   0  0  0  0  0  0  0  0  0  0  0  0
    3.3569   -3.0737   -7.7308 H   0  0  0  0  0  0  0  0  0  0  0  0
    3.6009   -3.4794   -9.4471 H   0  0  0  0  0  0  0  0  0  0  0  0
    0.2386   -5.3265   -5.6350 H   0  0  0  0  0  0  0  0  0  0  0  0
    0.6560   -3.6502   -6.0811 H   0  0  0  0  0  0  0  0  0  0  0  0
    0.8239   -5.8489   -3.0301 H   0  0  0  0  0  0  0  0  0  0  0  0
  1  2  1  0  0  0  0
  1 36  1  0  0  0  0
  1 37  1  0  0  0  0
  1 38  1  0  0  0  0
  2  3  1  0  0  0  0
  3  4  1  0  0  0  0
  3 21  2  0  0  0  0
  4  5  2  0  0  0  0
  4 39  1  0  0  0  0
  5  6  1  0  0  0  0
  5 19  1  0  0  0  0
  6  7  1  0  0  0  0
  6 16  2  0  0  0  0
  7  8  1  0  0  0  0
  7 40  1  0  0  0  0
  8  9  1  0  0  0  0
  8 15  2  0  0  0  0
  9 10  2  0  0  0  0
  9 41  1  0  0  0  0
 10 11  1  0  0  0  0
 10 42  1  0  0  0  0
 11 12  1  0  0  0  0
 11 13  2  0  0  0  0
 13 14  1  0  0  0  0
 13 15  1  0  0  0  0
 15 43  1  0  0  0  0
 16 17  1  0  0  0  0
 17 18  2  0  0  0  0
 17 44  1  0  0  0  0
 18 19  1  0  0  0  0
 19 20  2  0  0  0  0
 20 21  1  0  0  0  0
 20 45  1  0  0  0  0
 21 22  1  0  0  0  0
 22 23  1  0  0  0  0
 23 24  1  0  0  0  0
 23 35  1  0  0  0  0
 23 46  1  1  0  0  0
 24 25  1  0  0  0  0
 24 47  1  0  0  0  0
 24 48  1  0  0  0  0
 25 26  1  0  0  0  0
 26 27  1  0  0  0  0
 26 35  1  0  0  0  0
 26 49  1  6  0  0  0
 27 28  1  0  0  0  0
 27 33  1  0  0  0  0
 27 50  1  6  0  0  0
 28 29  1  0  0  0  0
 28 51  1  0  0  0  0
 29 30  1  0  0  0  0
 29 31  2  0  0  0  0
 29 32  2  0  0  0  0
 30 52  1  0  0  0  0
 30 53  1  0  0  0  0
 30 54  1  0  0  0  0
 33 34  1  0  0  0  0
 33 55  1  0  0  0  0
 33 56  1  0  0  0  0
 34 35  1  0  0  0  0
 35 57  1  1  0  0  0
M  END
$$$$
