CHEMBL399787
 OpenBabel04072215373D

 34 37  0  0  0  0  0  0  0  0999 V2000
    0.6317   -0.8089   -1.1315 O   0  0  0  0  0  0  0  0  0  0  0  0
    1.8358   -0.6619   -1.1340 C   0  0  0  0  0  0  0  0  0  0  0  0
    2.5603    0.3254   -1.7755 N   0  0  0  0  0  0  0  0  0  0  0  0
    3.9207    0.1425   -1.7756 N   0  0  0  0  0  0  0  0  0  0  0  0
    4.1506   -0.9463   -1.0794 C   0  0  0  0  0  0  0  0  0  0  0  0
    5.4606   -1.4974   -0.9350 C   0  0  0  0  0  0  0  0  0  0  0  0
    5.9136   -2.8017   -0.8693 C   0  0  0  0  0  0  0  0  0  0  0  0
    7.2839   -2.9503   -0.7342 N   0  0  0  0  0  0  0  0  0  0  0  0
    7.8990   -1.7802   -0.7146 N   0  0  0  0  0  0  0  0  0  0  0  0
    6.8471   -0.4891   -0.8752 S   0  0  0  0  0  0  0  0  0  0  0  0
    2.8896   -1.5132   -0.5238 C   0  0  0  0  0  0  0  0  0  0  0  0
    2.8085   -2.4717    0.4126 C   0  0  0  0  0  0  0  0  0  0  0  0
    1.6265   -2.9152    1.0609 C   0  0  0  0  0  0  0  0  0  0  0  0
    1.4114   -3.4227    2.3352 C   0  0  0  0  0  0  0  0  0  0  0  0
    0.0179   -3.6273    2.4911 C   0  0  0  0  0  0  0  0  0  0  0  0
   -0.5660   -3.3035    1.2879 C   0  0  0  0  0  0  0  0  0  0  0  0
    0.4069   -2.9012    0.4228 N   0  0  0  0  0  0  0  0  0  0  0  0
   -2.0150   -3.3415    0.9640 C   0  0  0  0  0  0  0  0  0  0  0  0
   -2.8227   -3.3592    2.2718 C   0  0  0  0  0  0  0  0  0  0  0  0
   -2.2399   -4.3569    3.2930 C   0  0  0  0  0  0  0  0  0  0  0  0
   -0.7829   -4.0264    3.6833 C   0  0  0  0  0  0  0  0  0  0  0  0
    2.1335    1.0690   -2.3177 H   0  0  0  0  0  0  0  0  0  0  0  0
    5.3047   -3.6944   -0.9294 H   0  0  0  0  0  0  0  0  0  0  0  0
    3.7230   -2.9007    0.8137 H   0  0  0  0  0  0  0  0  0  0  0  0
    2.1699   -3.5644    3.0949 H   0  0  0  0  0  0  0  0  0  0  0  0
    0.2284   -2.5279   -0.5032 H   0  0  0  0  0  0  0  0  0  0  0  0
   -2.2277   -4.2480    0.3848 H   0  0  0  0  0  0  0  0  0  0  0  0
   -2.3054   -2.4794    0.3539 H   0  0  0  0  0  0  0  0  0  0  0  0
   -3.8656   -3.6118    2.0509 H   0  0  0  0  0  0  0  0  0  0  0  0
   -2.8219   -2.3543    2.7143 H   0  0  0  0  0  0  0  0  0  0  0  0
   -2.2774   -5.3645    2.8593 H   0  0  0  0  0  0  0  0  0  0  0  0
   -2.8638   -4.3726    4.1937 H   0  0  0  0  0  0  0  0  0  0  0  0
   -0.3288   -4.8877    4.1846 H   0  0  0  0  0  0  0  0  0  0  0  0
   -0.7842   -3.1926    4.3964 H   0  0  0  0  0  0  0  0  0  0  0  0
  1  2  2  0  0  0  0
  2  3  1  0  0  0  0
  2 11  1  0  0  0  0
  3  4  1  0  0  0  0
  3 22  1  0  0  0  0
  4  5  2  0  0  0  0
  5  6  1  0  0  0  0
  5 11  1  0  0  0  0
  6  7  2  0  0  0  0
  6 10  1  0  0  0  0
  7  8  1  0  0  0  0
  7 23  1  0  0  0  0
  8  9  2  0  0  0  0
  9 10  1  0  0  0  0
 11 12  2  0  0  0  0
 12 13  1  0  0  0  0
 12 24  1  0  0  0  0
 13 14  2  0  0  0  0
 13 17  1  0  0  0  0
 14 15  1  0  0  0  0
 14 25  1  0  0  0  0
 15 16  2  0  0  0  0
 15 21  1  0  0  0  0
 16 17  1  0  0  0  0
 16 18  1  0  0  0  0
 17 26  1  0  0  0  0
 18 19  1  0  0  0  0
 18 27  1  0  0  0  0
 18 28  1  0  0  0  0
 19 20  1  0  0  0  0
 19 29  1  0  0  0  0
 19 30  1  0  0  0  0
 20 21  1  0  0  0  0
 20 31  1  0  0  0  0
 20 32  1  0  0  0  0
 21 33  1  0  0  0  0
 21 34  1  0  0  0  0
M  END
$$$$
