CHEMBL4786985
 OpenBabel04072215383D

 58 62  0  0  0  0  0  0  0  0999 V2000
    2.6692   -0.8130   -2.1353 C   0  0  0  0  0  0  0  0  0  0  0  0
    3.5900   -0.3308   -1.1566 O   0  0  0  0  0  0  0  0  0  0  0  0
    4.0354   -1.2364   -0.2334 C   0  0  0  0  0  0  0  0  0  0  0  0
    3.6892   -2.5768   -0.1880 C   0  0  0  0  0  0  0  0  0  0  0  0
    4.2228   -3.4022    0.8119 C   0  0  0  0  0  0  0  0  0  0  0  0
    5.1056   -2.9251    1.7851 C   0  0  0  0  0  0  0  0  0  0  0  0
    5.6387   -3.7405    2.8255 N   0  0  0  0  0  0  0  0  0  0  0  0
    5.3989   -5.0920    2.9628 C   0  0  0  0  0  0  0  0  0  0  0  0
    4.7766   -5.7535    2.1424 O   0  0  0  0  0  0  0  0  0  0  0  0
    5.9080   -5.6484    4.1387 N   0  0  0  0  0  0  0  0  0  0  0  0
    5.6770   -6.9881    4.4739 C   0  0  0  0  0  0  0  0  0  0  0  0
    5.9007   -7.3260    5.7547 N   0  0  0  0  0  0  0  0  0  0  0  0
    5.5436   -8.5920    6.0635 C   0  0  0  0  0  0  0  0  0  0  0  0
    5.9816   -9.2306    7.6898 S   0  0  0  0  0  0  0  0  0  0  0  0
    7.4083  -10.1439    7.2279 C   0  0  0  0  0  0  0  0  0  0  0  0
    8.6183   -9.5731    6.9084 C   0  0  0  0  0  0  0  0  0  0  0  0
    9.4645  -10.6171    6.6509 N   0  0  0  0  0  0  0  0  0  0  0  0
    8.6791  -11.6387    6.1408 C   0  0  0  0  0  0  0  0  0  0  0  0
    8.9528  -12.6130    5.1837 C   0  0  0  0  0  0  0  0  0  0  0  0
    7.9393  -13.5391    4.9424 C   0  0  0  0  0  0  0  0  0  0  0  0
    6.7936  -13.5733    5.7419 C   0  0  0  0  0  0  0  0  0  0  0  0
    6.5460  -12.5774    6.6994 C   0  0  0  0  0  0  0  0  0  0  0  0
    7.4542  -11.5075    6.7909 C   0  0  0  0  0  0  0  0  0  0  0  0
    4.9315   -9.4657    5.1855 C   0  0  0  0  0  0  0  0  0  0  0  0
    4.8271   -9.0585    3.8842 C   0  0  0  0  0  0  0  0  0  0  0  0
    4.3275   -9.8648    2.8949 N   0  0  0  0  0  0  0  0  0  0  0  0
    3.3873  -10.9651    3.0911 C   0  0  0  0  0  0  0  0  0  0  0  0
    3.9976  -12.2483    2.5150 C   0  0  0  0  0  0  0  0  0  0  0  0
    4.3607  -12.0836    1.1308 O   0  0  0  0  0  0  0  0  0  0  0  0
    5.2989  -10.9993    0.9713 C   0  0  0  0  0  0  0  0  0  0  0  0
    4.7337   -9.6649    1.4986 C   0  0  0  0  0  0  0  0  0  0  0  0
    5.2451   -7.8361    3.5508 N   0  0  0  0  0  0  0  0  0  0  0  0
    5.4566   -1.5704    1.7307 C   0  0  0  0  0  0  0  0  0  0  0  0
    4.9187   -0.7376    0.7296 C   0  0  0  0  0  0  0  0  0  0  0  0
    2.4856   -0.0093   -2.8524 H   0  0  0  0  0  0  0  0  0  0  0  0
    1.7115   -1.0746   -1.6725 H   0  0  0  0  0  0  0  0  0  0  0  0
    3.0798   -1.6601   -2.6932 H   0  0  0  0  0  0  0  0  0  0  0  0
    3.0093   -3.0301   -0.9013 H   0  0  0  0  0  0  0  0  0  0  0  0
    3.8987   -4.4349    0.7800 H   0  0  0  0  0  0  0  0  0  0  0  0
    6.3030   -3.3162    3.4617 H   0  0  0  0  0  0  0  0  0  0  0  0
    6.1630   -5.0661    4.9114 H   0  0  0  0  0  0  0  0  0  0  0  0
    8.9581   -8.5466    6.8582 H   0  0  0  0  0  0  0  0  0  0  0  0
   10.3155  -10.7838    7.1524 H   0  0  0  0  0  0  0  0  0  0  0  0
    9.8545  -12.5844    4.5818 H   0  0  0  0  0  0  0  0  0  0  0  0
    8.0469  -14.2439    4.1207 H   0  0  0  0  0  0  0  0  0  0  0  0
    6.0508  -14.3499    5.5750 H   0  0  0  0  0  0  0  0  0  0  0  0
    5.6235  -12.5833    7.2700 H   0  0  0  0  0  0  0  0  0  0  0  0
    4.6387  -10.4557    5.4997 H   0  0  0  0  0  0  0  0  0  0  0  0
    2.4681  -10.7245    2.5411 H   0  0  0  0  0  0  0  0  0  0  0  0
    3.0993  -11.1140    4.1341 H   0  0  0  0  0  0  0  0  0  0  0  0
    3.2728  -13.0618    2.5731 H   0  0  0  0  0  0  0  0  0  0  0  0
    4.8897  -12.5460    3.0816 H   0  0  0  0  0  0  0  0  0  0  0  0
    5.5268  -10.9157   -0.0956 H   0  0  0  0  0  0  0  0  0  0  0  0
    6.2273  -11.2622    1.4931 H   0  0  0  0  0  0  0  0  0  0  0  0
    3.8517   -9.3829    0.9113 H   0  0  0  0  0  0  0  0  0  0  0  0
    5.4902   -8.8836    1.3648 H   0  0  0  0  0  0  0  0  0  0  0  0
    6.1402   -1.1332    2.4526 H   0  0  0  0  0  0  0  0  0  0  0  0
    5.1957    0.3140    0.6962 H   0  0  0  0  0  0  0  0  0  0  0  0
  1  2  1  0  0  0  0
  1 35  1  0  0  0  0
  1 36  1  0  0  0  0
  1 37  1  0  0  0  0
  2  3  1  0  0  0  0
  3  4  1  0  0  0  0
  3 34  2  0  0  0  0
  4  5  2  0  0  0  0
  4 38  1  0  0  0  0
  5  6  1  0  0  0  0
  5 39  1  0  0  0  0
  6  7  1  0  0  0  0
  6 33  2  0  0  0  0
  7  8  1  0  0  0  0
  7 40  1  0  0  0  0
  8  9  2  0  0  0  0
  8 10  1  0  0  0  0
 10 11  1  0  0  0  0
 10 41  1  0  0  0  0
 11 12  1  0  0  0  0
 11 32  2  0  0  0  0
 12 13  2  0  0  0  0
 13 14  1  0  0  0  0
 13 24  1  0  0  0  0
 14 15  1  0  0  0  0
 15 16  2  0  0  0  0
 15 23  1  0  0  0  0
 16 17  1  0  0  0  0
 16 42  1  0  0  0  0
 17 18  1  0  0  0  0
 17 43  1  0  0  0  0
 18 19  1  0  0  0  0
 18 23  2  0  0  0  0
 19 20  2  0  0  0  0
 19 44  1  0  0  0  0
 20 21  1  0  0  0  0
 20 45  1  0  0  0  0
 21 22  2  0  0  0  0
 21 46  1  0  0  0  0
 22 23  1  0  0  0  0
 22 47  1  0  0  0  0
 24 25  2  0  0  0  0
 24 48  1  0  0  0  0
 25 26  1  0  0  0  0
 25 32  1  0  0  0  0
 26 27  1  0  0  0  0
 26 31  1  0  0  0  0
 27 28  1  0  0  0  0
 27 49  1  0  0  0  0
 27 50  1  0  0  0  0
 28 29  1  0  0  0  0
 28 51  1  0  0  0  0
 28 52  1  0  0  0  0
 29 30  1  0  0  0  0
 30 31  1  0  0  0  0
 30 53  1  0  0  0  0
 30 54  1  0  0  0  0
 31 55  1  0  0  0  0
 31 56  1  0  0  0  0
 33 34  1  0  0  0  0
 33 57  1  0  0  0  0
 34 58  1  0  0  0  0
M  END
$$$$
