CHEMBL3936672
 OpenBabel04072215373D

 71 75  0  0  1  0  0  0  0  0999 V2000
    0.6986    1.0951    3.9431 C   0  0  0  0  0  0  0  0  0  0  0  0
    2.0448    1.5582    4.0911 O   0  0  0  0  0  0  0  0  0  0  0  0
    2.9747    1.0517    3.2144 C   0  0  0  0  0  0  0  0  0  0  0  0
    2.6942    0.0757    2.2622 C   0  0  0  0  0  0  0  0  0  0  0  0
    3.6791   -0.3290    1.3673 C   0  0  0  0  0  0  0  0  0  0  0  0
    3.4993   -1.2491    0.3662 O   0  0  0  0  0  0  0  0  0  0  0  0
    2.2396   -1.9148    0.3240 C   0  0  0  0  0  0  0  0  0  0  0  0
    4.9589    0.2462    1.4318 C   0  0  0  0  0  0  0  0  0  0  0  0
    5.2985    1.2202    2.3871 C   0  0  0  0  0  0  0  0  0  0  0  0
    6.5261    1.9281    2.3492 N   0  0  0  0  0  0  0  0  0  0  0  0
    7.0821    2.2622    0.9704 C   0  0  0  0  0  0  0  0  0  0  0  0
    6.1753    2.8484   -0.1443 C   0  0  0  0  0  0  0  0  0  0  0  0
    5.6867    4.3176   -0.0566 C   0  0  0  0  0  0  0  0  0  0  0  0
    5.0569    4.7909   -1.3339 N   0  0  0  0  0  0  0  0  0  0  0  0
    4.6387    6.2091   -1.2568 C   0  0  0  0  0  0  0  0  0  0  0  0
    3.2194    6.1819   -0.7209 C   0  0  0  0  0  0  0  0  0  0  0  0
    2.6192    4.9810   -1.4204 C   0  0  0  0  0  0  0  0  0  0  0  0
    3.8080    4.0538   -1.6961 C   0  0  1  0  0  0  0  0  0  0  0  0
    3.8343    3.6398   -3.1833 C   0  0  0  0  0  0  0  0  0  0  0  0
    4.9869    2.8510   -3.4636 O   0  0  0  0  0  0  0  0  0  0  0  0
    7.6300    1.9338    3.3037 C   0  0  0  0  0  0  0  0  0  0  0  0
    8.2658    3.1646    3.3900 C   0  0  0  0  0  0  0  0  0  0  0  0
    9.5724    3.2534    3.7757 C   0  0  0  0  0  0  0  0  0  0  0  0
   10.2744    2.1808    4.2640 C   0  0  0  0  0  0  0  0  0  0  0  0
   11.5681    2.4549    4.3998 N   0  0  0  0  0  0  0  0  0  0  0  0
   12.3209    1.5622    5.0426 C   0  0  0  0  0  0  0  0  0  0  0  0
   11.7896    0.4306    5.6200 C   0  0  0  0  0  0  0  0  0  0  0  0
   12.7099   -0.2203    6.5838 C   0  0  0  0  0  0  0  0  0  0  0  0
   12.8232   -0.0110    7.9941 C   0  0  0  0  0  0  0  0  0  0  0  0
   13.9970   -0.4139    8.5050 N   0  0  0  0  0  0  0  0  0  0  0  0
   14.6810   -0.8392    7.4308 N   0  0  0  0  0  0  0  0  0  0  0  0
   15.9942   -1.4317    7.5829 C   0  0  0  0  0  0  0  0  0  0  0  0
   13.9966   -0.6385    6.2583 C   0  0  0  0  0  0  0  0  0  0  0  0
   10.4606    0.0803    5.3749 N   0  0  0  0  0  0  0  0  0  0  0  0
    9.6430    0.9599    4.5940 C   0  0  0  0  0  0  0  0  0  0  0  0
    8.2776    0.8517    3.9987 C   0  0  0  0  0  0  0  0  0  0  0  0
    4.2780    1.6016    3.2856 C   0  0  0  0  0  0  0  0  0  0  0  0
    0.0652    1.6301    4.6579 H   0  0  0  0  0  0  0  0  0  0  0  0
    0.6208    0.0259    4.1724 H   0  0  0  0  0  0  0  0  0  0  0  0
    0.3061    1.3065    2.9406 H   0  0  0  0  0  0  0  0  0  0  0  0
    1.7061   -0.3601    2.2078 H   0  0  0  0  0  0  0  0  0  0  0  0
    2.2626   -2.6353   -0.4986 H   0  0  0  0  0  0  0  0  0  0  0  0
    1.4237   -1.2110    0.1231 H   0  0  0  0  0  0  0  0  0  0  0  0
    2.0577   -2.4719    1.2498 H   0  0  0  0  0  0  0  0  0  0  0  0
    5.6875   -0.0684    0.6899 H   0  0  0  0  0  0  0  0  0  0  0  0
    7.5271    1.3376    0.5785 H   0  0  0  0  0  0  0  0  0  0  0  0
    7.9206    2.9658    1.0393 H   0  0  0  0  0  0  0  0  0  0  0  0
    5.3368    2.1804   -0.3331 H   0  0  0  0  0  0  0  0  0  0  0  0
    6.7952    2.8051   -1.0532 H   0  0  0  0  0  0  0  0  0  0  0  0
    6.5645    4.9554    0.1181 H   0  0  0  0  0  0  0  0  0  0  0  0
    5.0095    4.4509    0.7925 H   0  0  0  0  0  0  0  0  0  0  0  0
    4.6274    6.6285   -2.2736 H   0  0  0  0  0  0  0  0  0  0  0  0
    5.3038    6.8428   -0.6622 H   0  0  0  0  0  0  0  0  0  0  0  0
    2.6623    7.0988   -0.9397 H   0  0  0  0  0  0  0  0  0  0  0  0
    3.2148    6.0314    0.3640 H   0  0  0  0  0  0  0  0  0  0  0  0
    2.1286    5.2995   -2.3489 H   0  0  0  0  0  0  0  0  0  0  0  0
    1.8629    4.4958   -0.7952 H   0  0  0  0  0  0  0  0  0  0  0  0
    3.6962    3.1469   -1.0973 H   0  0  0  0  0  0  0  0  0  0  0  0
    3.8534    4.5102   -3.8496 H   0  0  0  0  0  0  0  0  0  0  0  0
    2.9467    3.0477   -3.4303 H   0  0  0  0  0  0  0  0  0  0  0  0
    5.7281    3.3729   -3.0997 H   0  0  0  0  0  0  0  0  0  0  0  0
    7.7837    4.0629    2.9949 H   0  0  0  0  0  0  0  0  0  0  0  0
   10.1131    4.1954    3.6495 H   0  0  0  0  0  0  0  0  0  0  0  0
   13.3676    1.8299    5.1393 H   0  0  0  0  0  0  0  0  0  0  0  0
   12.1298    0.4782    8.6658 H   0  0  0  0  0  0  0  0  0  0  0  0
   16.2904   -1.4347    8.6356 H   0  0  0  0  0  0  0  0  0  0  0  0
   16.7232   -0.8655    6.9979 H   0  0  0  0  0  0  0  0  0  0  0  0
   15.9362   -2.4593    7.2190 H   0  0  0  0  0  0  0  0  0  0  0  0
   14.4984   -0.7684    5.3102 H   0  0  0  0  0  0  0  0  0  0  0  0
    7.7879   -0.1273    4.0553 H   0  0  0  0  0  0  0  0  0  0  0  0
    4.4671    2.3911    4.0099 H   0  0  0  0  0  0  0  0  0  0  0  0
  1  2  1  0  0  0  0
  1 38  1  0  0  0  0
  1 39  1  0  0  0  0
  1 40  1  0  0  0  0
  2  3  1  0  0  0  0
  3  4  1  0  0  0  0
  3 37  2  0  0  0  0
  4  5  2  0  0  0  0
  4 41  1  0  0  0  0
  5  6  1  0  0  0  0
  5  8  1  0  0  0  0
  6  7  1  0  0  0  0
  7 42  1  0  0  0  0
  7 43  1  0  0  0  0
  7 44  1  0  0  0  0
  8  9  2  0  0  0  0
  8 45  1  0  0  0  0
  9 10  1  0  0  0  0
  9 37  1  0  0  0  0
 10 11  1  0  0  0  0
 10 21  1  0  0  0  0
 11 12  1  0  0  0  0
 11 46  1  0  0  0  0
 11 47  1  0  0  0  0
 12 13  1  0  0  0  0
 12 48  1  0  0  0  0
 12 49  1  0  0  0  0
 13 14  1  0  0  0  0
 13 50  1  0  0  0  0
 13 51  1  0  0  0  0
 14 15  1  0  0  0  0
 14 18  1  0  0  0  0
 15 16  1  0  0  0  0
 15 52  1  0  0  0  0
 15 53  1  0  0  0  0
 16 17  1  0  0  0  0
 16 54  1  0  0  0  0
 16 55  1  0  0  0  0
 17 18  1  0  0  0  0
 17 56  1  0  0  0  0
 17 57  1  0  0  0  0
 18 19  1  0  0  0  0
 18 58  1  1  0  0  0
 19 20  1  0  0  0  0
 19 59  1  0  0  0  0
 19 60  1  0  0  0  0
 20 61  1  0  0  0  0
 21 22  1  0  0  0  0
 21 36  2  0  0  0  0
 22 23  2  0  0  0  0
 22 62  1  0  0  0  0
 23 24  1  0  0  0  0
 23 63  1  0  0  0  0
 24 25  1  0  0  0  0
 24 35  2  0  0  0  0
 25 26  2  0  0  0  0
 26 27  1  0  0  0  0
 26 64  1  0  0  0  0
 27 28  1  0  0  0  0
 27 34  2  0  0  0  0
 28 29  1  0  0  0  0
 28 33  2  0  0  0  0
 29 30  2  0  0  0  0
 29 65  1  0  0  0  0
 30 31  1  0  0  0  0
 31 32  1  0  0  0  0
 31 33  1  0  0  0  0
 32 66  1  0  0  0  0
 32 67  1  0  0  0  0
 32 68  1  0  0  0  0
 33 69  1  0  0  0  0
 34 35  1  0  0  0  0
 35 36  1  0  0  0  0
 36 70  1  0  0  0  0
 37 71  1  0  0  0  0
M  END
$$$$
