CHEMBL3644022
 OpenBabel04072215373D

 55 57  0  0  1  0  0  0  0  0999 V2000
    6.3644   -0.7916    1.3029 C   0  0  0  0  0  0  0  0  0  0  0  0
    5.0620   -0.8612    0.5168 C   0  0  1  0  0  0  0  0  0  0  0  0
    3.9890   -1.0064    1.4528 O   0  0  0  0  0  0  0  0  0  0  0  0
    4.8426    0.3702   -0.3988 C   0  0  1  0  0  0  0  0  0  0  0  0
    3.5076    0.2321   -1.1362 C   0  0  0  0  0  0  0  0  0  0  0  0
    4.7959    1.5466    0.4307 O   0  0  0  0  0  0  0  0  0  0  0  0
    5.2569    2.7279   -0.1162 C   0  0  0  0  0  0  0  0  0  0  0  0
    6.1494    2.6825   -1.1355 N   0  0  0  0  0  0  0  0  0  0  0  0
    6.6244    3.8607   -1.5742 C   0  0  0  0  0  0  0  0  0  0  0  0
    7.6924    3.8780   -2.4745 N   0  0  0  0  0  0  0  0  0  0  0  0
    8.6690    4.8945   -2.5834 C   0  0  0  0  0  0  0  0  0  0  0  0
    9.0250    5.7023   -1.4872 C   0  0  0  0  0  0  0  0  0  0  0  0
    9.8626    6.8118   -1.6307 C   0  0  0  0  0  0  0  0  0  0  0  0
   10.3678    7.1272   -2.8892 C   0  0  0  0  0  0  0  0  0  0  0  0
   11.1802    8.6958   -3.1287 S   0  0  0  0  0  0  0  0  0  0  0  0
   10.9794    9.0631   -4.5187 O   0  0  0  0  0  0  0  0  0  0  0  0
   10.7123    9.5791   -2.0718 O   0  0  0  0  0  0  0  0  0  0  0  0
   12.9162    8.4187   -2.8634 C   0  0  0  0  0  0  0  0  0  0  0  0
   13.7258    9.6876   -3.1408 C   0  0  0  0  0  0  0  0  0  0  0  0
   15.1230    9.2196   -3.5310 C   0  0  0  0  0  0  0  0  0  0  0  0
   15.0224    7.7203   -3.7889 C   0  0  0  0  0  0  0  0  0  0  0  0
   13.5357    7.3887   -3.7948 C   0  0  0  0  0  0  0  0  0  0  0  0
   10.0656    6.3158   -3.9891 C   0  0  0  0  0  0  0  0  0  0  0  0
    9.2360    5.1933   -3.8285 C   0  0  0  0  0  0  0  0  0  0  0  0
    6.1548    5.0410   -1.1438 N   0  0  0  0  0  0  0  0  0  0  0  0
    5.2871    5.0416   -0.1286 C   0  0  0  0  0  0  0  0  0  0  0  0
    4.8434    3.8969    0.4793 C   0  0  0  0  0  0  0  0  0  0  0  0
    4.0371    4.0220    1.7152 C   0  0  0  0  0  0  0  0  0  0  0  0
    3.6650    2.8580    2.3093 F   0  0  0  0  0  0  0  0  0  0  0  0
    4.7172    4.7172    2.6755 F   0  0  0  0  0  0  0  0  0  0  0  0
    2.8868    4.7257    1.5155 F   0  0  0  0  0  0  0  0  0  0  0  0
    6.4399   -1.6445    1.9870 H   0  0  0  0  0  0  0  0  0  0  0  0
    6.4112    0.1090    1.9237 H   0  0  0  0  0  0  0  0  0  0  0  0
    7.2291   -0.8034    0.6333 H   0  0  0  0  0  0  0  0  0  0  0  0
    5.0708   -1.7700   -0.0964 H   0  0  0  0  0  0  0  0  0  0  0  0
    3.9226   -0.1667    1.9439 H   0  0  0  0  0  0  0  0  0  0  0  0
    5.6651    0.3993   -1.1218 H   0  0  0  0  0  0  0  0  0  0  0  0
    2.6621    0.2361   -0.4384 H   0  0  0  0  0  0  0  0  0  0  0  0
    3.4726   -0.6979   -1.7140 H   0  0  0  0  0  0  0  0  0  0  0  0
    3.3503    1.0703   -1.8216 H   0  0  0  0  0  0  0  0  0  0  0  0
    7.9503    2.9593   -2.7988 H   0  0  0  0  0  0  0  0  0  0  0  0
    8.6114    5.4992   -0.5010 H   0  0  0  0  0  0  0  0  0  0  0  0
   10.0501    7.4510   -0.7708 H   0  0  0  0  0  0  0  0  0  0  0  0
   13.0476    8.1187   -1.8173 H   0  0  0  0  0  0  0  0  0  0  0  0
   13.7499   10.3510   -2.2696 H   0  0  0  0  0  0  0  0  0  0  0  0
   13.2980   10.2675   -3.9676 H   0  0  0  0  0  0  0  0  0  0  0  0
   15.8453    9.4244   -2.7332 H   0  0  0  0  0  0  0  0  0  0  0  0
   15.4698    9.7528   -4.4236 H   0  0  0  0  0  0  0  0  0  0  0  0
   15.5311    7.1745   -2.9860 H   0  0  0  0  0  0  0  0  0  0  0  0
   15.5020    7.4379   -4.7317 H   0  0  0  0  0  0  0  0  0  0  0  0
   13.3542    6.3650   -3.4524 H   0  0  0  0  0  0  0  0  0  0  0  0
   13.1396    7.4738   -4.8126 H   0  0  0  0  0  0  0  0  0  0  0  0
   10.4105    6.5830   -4.9862 H   0  0  0  0  0  0  0  0  0  0  0  0
    8.9602    4.6121   -4.7061 H   0  0  0  0  0  0  0  0  0  0  0  0
    4.9852    6.0308    0.2091 H   0  0  0  0  0  0  0  0  0  0  0  0
  1  2  1  0  0  0  0
  1 32  1  0  0  0  0
  1 33  1  0  0  0  0
  1 34  1  0  0  0  0
  2  3  1  0  0  0  0
  2  4  1  0  0  0  0
  2 35  1  6  0  0  0
  3 36  1  0  0  0  0
  4  5  1  0  0  0  0
  4  6  1  0  0  0  0
  4 37  1  6  0  0  0
  5 38  1  0  0  0  0
  5 39  1  0  0  0  0
  5 40  1  0  0  0  0
  6  7  1  0  0  0  0
  7  8  1  0  0  0  0
  7 27  2  0  0  0  0
  8  9  2  0  0  0  0
  9 10  1  0  0  0  0
  9 25  1  0  0  0  0
 10 11  1  0  0  0  0
 10 41  1  0  0  0  0
 11 12  1  0  0  0  0
 11 24  2  0  0  0  0
 12 13  2  0  0  0  0
 12 42  1  0  0  0  0
 13 14  1  0  0  0  0
 13 43  1  0  0  0  0
 14 15  1  0  0  0  0
 14 23  2  0  0  0  0
 15 16  2  0  0  0  0
 15 17  2  0  0  0  0
 15 18  1  0  0  0  0
 18 19  1  0  0  0  0
 18 22  1  0  0  0  0
 18 44  1  0  0  0  0
 19 20  1  0  0  0  0
 19 45  1  0  0  0  0
 19 46  1  0  0  0  0
 20 21  1  0  0  0  0
 20 47  1  0  0  0  0
 20 48  1  0  0  0  0
 21 22  1  0  0  0  0
 21 49  1  0  0  0  0
 21 50  1  0  0  0  0
 22 51  1  0  0  0  0
 22 52  1  0  0  0  0
 23 24  1  0  0  0  0
 23 53  1  0  0  0  0
 24 54  1  0  0  0  0
 25 26  2  0  0  0  0
 26 27  1  0  0  0  0
 26 55  1  0  0  0  0
 27 28  1  0  0  0  0
 28 29  1  0  0  0  0
 28 30  1  0  0  0  0
 28 31  1  0  0  0  0
M  END
$$$$
