CHEMBL3986286
 OpenBabel04072215373D

 67 70  0  0  1  0  0  0  0  0999 V2000
   -0.5914    2.2251    5.1585 C   0  0  0  0  0  0  0  0  0  0  0  0
   -0.1587    0.7914    4.8166 C   0  0  1  0  0  0  0  0  0  0  0  0
    1.3050    0.6892    4.7503 N   0  0  0  0  0  0  0  0  0  0  0  0
    1.8997    1.4093    3.7033 C   0  0  0  0  0  0  0  0  0  0  0  0
    1.2000    1.7163    2.5841 N   0  0  0  0  0  0  0  0  0  0  0  0
    1.7989    2.4475    1.6220 C   0  0  0  0  0  0  0  0  0  0  0  0
    3.0529    2.9243    1.6020 N   0  0  0  0  0  0  0  0  0  0  0  0
    3.7124    2.5912    2.7184 C   0  0  0  0  0  0  0  0  0  0  0  0
    5.0028    2.9469    2.9933 N   0  0  0  0  0  0  0  0  0  0  0  0
    5.3879    2.4713    4.2294 C   0  0  0  0  0  0  0  0  0  0  0  0
    6.7184    2.6973    4.7939 C   0  0  0  0  0  0  0  0  0  0  0  0
    6.8956    2.7791    6.1790 C   0  0  0  0  0  0  0  0  0  0  0  0
    8.1757    2.9005    6.7316 C   0  0  0  0  0  0  0  0  0  0  0  0
    9.3094    2.9115    5.9150 C   0  0  0  0  0  0  0  0  0  0  0  0
   10.6219    2.9605    6.3994 N   0  0  0  0  0  0  0  0  0  0  0  0
   10.8735    2.3401    7.6958 C   0  0  0  0  0  0  0  0  0  0  0  0
   12.3195    1.8484    7.7402 C   0  0  0  0  0  0  0  0  0  0  0  0
   12.5931    1.1075    9.0474 C   0  0  0  0  0  0  0  0  0  0  0  0
   14.0233    0.5737    9.1103 C   0  0  0  0  0  0  0  0  0  0  0  0
   14.2640   -0.1559   10.4315 C   0  0  0  0  0  0  0  0  0  0  0  0
   15.6861   -0.6995   10.5295 C   0  0  0  0  0  0  0  0  0  0  0  0
   15.9213   -1.4149   11.8421 C   0  0  0  0  0  0  0  0  0  0  0  0
   15.0809   -1.5441   12.7289 O   0  0  0  0  0  0  0  0  0  0  0  0
   17.1888   -1.9234   11.9699 N   0  0  0  0  0  0  0  0  0  0  0  0
   17.4846   -2.5864   13.1804 O   0  0  0  0  0  0  0  0  0  0  0  0
    9.1233    2.9309    4.5311 C   0  0  0  0  0  0  0  0  0  0  0  0
    7.8462    2.8049    3.9728 C   0  0  0  0  0  0  0  0  0  0  0  0
    4.2892    1.7886    4.7384 C   0  0  0  0  0  0  0  0  0  0  0  0
    3.2302    1.8533    3.7883 C   0  0  0  0  0  0  0  0  0  0  0  0
   -0.6647   -0.1652    5.8925 C   0  0  0  0  0  0  0  0  0  0  0  0
   -1.5691   -1.1887    5.5671 C   0  0  0  0  0  0  0  0  0  0  0  0
   -2.0787   -2.0305    6.5596 C   0  0  0  0  0  0  0  0  0  0  0  0
   -1.6910   -1.8617    7.8876 C   0  0  0  0  0  0  0  0  0  0  0  0
   -0.7843   -0.8598    8.2245 C   0  0  0  0  0  0  0  0  0  0  0  0
   -0.2697   -0.0225    7.2338 C   0  0  0  0  0  0  0  0  0  0  0  0
   -0.3922    2.9127    4.3304 H   0  0  0  0  0  0  0  0  0  0  0  0
   -0.0514    2.6137    6.0301 H   0  0  0  0  0  0  0  0  0  0  0  0
   -1.6637    2.2749    5.3741 H   0  0  0  0  0  0  0  0  0  0  0  0
   -0.6071    0.4960    3.8582 H   0  0  0  0  0  0  0  0  0  0  0  0
    1.5732   -0.2844    4.6221 H   0  0  0  0  0  0  0  0  0  0  0  0
    1.1854    2.6854    0.7590 H   0  0  0  0  0  0  0  0  0  0  0  0
    5.5676    3.5065    2.3733 H   0  0  0  0  0  0  0  0  0  0  0  0
    6.0394    2.7422    6.8487 H   0  0  0  0  0  0  0  0  0  0  0  0
    8.2655    2.9616    7.8124 H   0  0  0  0  0  0  0  0  0  0  0  0
   10.9854    3.9106    6.3435 H   0  0  0  0  0  0  0  0  0  0  0  0
   10.2159    1.4748    7.8499 H   0  0  0  0  0  0  0  0  0  0  0  0
   10.6874    3.0604    8.5010 H   0  0  0  0  0  0  0  0  0  0  0  0
   13.0076    2.6954    7.6319 H   0  0  0  0  0  0  0  0  0  0  0  0
   12.5054    1.1779    6.8912 H   0  0  0  0  0  0  0  0  0  0  0  0
   11.8897    0.2712    9.1476 H   0  0  0  0  0  0  0  0  0  0  0  0
   12.4132    1.7819    9.8933 H   0  0  0  0  0  0  0  0  0  0  0  0
   14.7329    1.4034    9.0088 H   0  0  0  0  0  0  0  0  0  0  0  0
   14.2003   -0.1109    8.2718 H   0  0  0  0  0  0  0  0  0  0  0  0
   13.5477   -0.9813   10.5315 H   0  0  0  0  0  0  0  0  0  0  0  0
   14.0734    0.5281   11.2681 H   0  0  0  0  0  0  0  0  0  0  0  0
   16.4076    0.1219   10.4501 H   0  0  0  0  0  0  0  0  0  0  0  0
   15.8757   -1.4053    9.7127 H   0  0  0  0  0  0  0  0  0  0  0  0
   17.9384   -1.8185   11.2965 H   0  0  0  0  0  0  0  0  0  0  0  0
   16.6311   -2.5240   13.6645 H   0  0  0  0  0  0  0  0  0  0  0  0
    9.9898    2.9758    3.8749 H   0  0  0  0  0  0  0  0  0  0  0  0
    7.7650    2.7451    2.8921 H   0  0  0  0  0  0  0  0  0  0  0  0
    4.2413    1.2867    5.6968 H   0  0  0  0  0  0  0  0  0  0  0  0
   -1.8955   -1.3312    4.5390 H   0  0  0  0  0  0  0  0  0  0  0  0
   -2.7857   -2.8139    6.2980 H   0  0  0  0  0  0  0  0  0  0  0  0
   -2.0958   -2.5098    8.6604 H   0  0  0  0  0  0  0  0  0  0  0  0
   -0.4803   -0.7244    9.2590 H   0  0  0  0  0  0  0  0  0  0  0  0
    0.4387    0.7557    7.5111 H   0  0  0  0  0  0  0  0  0  0  0  0
  1  2  1  0  0  0  0
  1 36  1  0  0  0  0
  1 37  1  0  0  0  0
  1 38  1  0  0  0  0
  2  3  1  0  0  0  0
  2 30  1  0  0  0  0
  2 39  1  6  0  0  0
  3  4  1  0  0  0  0
  3 40  1  0  0  0  0
  4  5  1  0  0  0  0
  4 29  2  0  0  0  0
  5  6  2  0  0  0  0
  6  7  1  0  0  0  0
  6 41  1  0  0  0  0
  7  8  2  0  0  0  0
  8  9  1  0  0  0  0
  8 29  1  0  0  0  0
  9 10  1  0  0  0  0
  9 42  1  0  0  0  0
 10 11  1  0  0  0  0
 10 28  2  0  0  0  0
 11 12  1  0  0  0  0
 11 27  2  0  0  0  0
 12 13  2  0  0  0  0
 12 43  1  0  0  0  0
 13 14  1  0  0  0  0
 13 44  1  0  0  0  0
 14 15  1  0  0  0  0
 14 26  2  0  0  0  0
 15 16  1  0  0  0  0
 15 45  1  0  0  0  0
 16 17  1  0  0  0  0
 16 46  1  0  0  0  0
 16 47  1  0  0  0  0
 17 18  1  0  0  0  0
 17 48  1  0  0  0  0
 17 49  1  0  0  0  0
 18 19  1  0  0  0  0
 18 50  1  0  0  0  0
 18 51  1  0  0  0  0
 19 20  1  0  0  0  0
 19 52  1  0  0  0  0
 19 53  1  0  0  0  0
 20 21  1  0  0  0  0
 20 54  1  0  0  0  0
 20 55  1  0  0  0  0
 21 22  1  0  0  0  0
 21 56  1  0  0  0  0
 21 57  1  0  0  0  0
 22 23  2  0  0  0  0
 22 24  1  0  0  0  0
 24 25  1  0  0  0  0
 24 58  1  0  0  0  0
 25 59  1  0  0  0  0
 26 27  1  0  0  0  0
 26 60  1  0  0  0  0
 27 61  1  0  0  0  0
 28 29  1  0  0  0  0
 28 62  1  0  0  0  0
 30 31  1  0  0  0  0
 30 35  2  0  0  0  0
 31 32  2  0  0  0  0
 31 63  1  0  0  0  0
 32 33  1  0  0  0  0
 32 64  1  0  0  0  0
 33 34  2  0  0  0  0
 33 65  1  0  0  0  0
 34 35  1  0  0  0  0
 34 66  1  0  0  0  0
 35 67  1  0  0  0  0
M  END
$$$$
