CHEMBL3979830
 OpenBabel04072215373D

 68 71  0  0  0  0  0  0  0  0999 V2000
    8.9536    6.1538   -0.9463 C   0  0  0  0  0  0  0  0  0  0  0  0
    8.4983    4.8018   -0.8720 O   0  0  0  0  0  0  0  0  0  0  0  0
    9.3862    3.8950   -1.3758 C   0  0  0  0  0  0  0  0  0  0  0  0
   10.5050    4.1700   -1.7969 O   0  0  0  0  0  0  0  0  0  0  0  0
    8.8109    2.4827   -1.2812 C   0  0  0  0  0  0  0  0  0  0  0  0
    9.3548    1.6403   -2.3634 N   0  0  0  0  0  0  0  0  0  0  0  0
    8.8768    0.2652   -2.2654 C   0  0  0  0  0  0  0  0  0  0  0  0
    9.4764   -0.5808   -3.3898 C   0  0  0  0  0  0  0  0  0  0  0  0
    8.9496   -2.0120   -3.3240 C   0  0  0  0  0  0  0  0  0  0  0  0
    9.5091   -2.8370   -4.3726 N   0  0  0  0  0  0  0  0  0  0  0  0
   10.6650   -3.5753   -4.2152 C   0  0  0  0  0  0  0  0  0  0  0  0
   11.2732   -3.6060   -3.1561 O   0  0  0  0  0  0  0  0  0  0  0  0
   11.1016   -4.2982   -5.4031 C   0  0  0  0  0  0  0  0  0  0  0  0
   12.1900   -5.1414   -5.5135 C   0  0  0  0  0  0  0  0  0  0  0  0
   12.3595   -5.6597   -6.8284 C   0  0  0  0  0  0  0  0  0  0  0  0
   13.3596   -6.4947   -7.2158 N   0  0  0  0  0  0  0  0  0  0  0  0
   13.3448   -6.8649   -8.5104 C   0  0  0  0  0  0  0  0  0  0  0  0
   12.4055   -6.4658   -9.4425 C   0  0  0  0  0  0  0  0  0  0  0  0
   11.4098   -5.5648   -9.0570 C   0  0  0  0  0  0  0  0  0  0  0  0
   10.4608   -5.0618   -9.9315 O   0  0  0  0  0  0  0  0  0  0  0  0
   10.8707   -4.6346  -11.1764 C   0  0  0  0  0  0  0  0  0  0  0  0
   12.1692   -4.2095  -11.4497 C   0  0  0  0  0  0  0  0  0  0  0  0
   12.5562   -3.9318  -12.7561 C   0  0  0  0  0  0  0  0  0  0  0  0
   11.6439   -4.0015  -13.8132 C   0  0  0  0  0  0  0  0  0  0  0  0
   12.0536   -3.7757  -15.1576 N   0  0  0  0  0  0  0  0  0  0  0  0
   13.3450   -4.0255  -15.5759 C   0  0  0  0  0  0  0  0  0  0  0  0
   14.1906   -4.5731  -14.8695 O   0  0  0  0  0  0  0  0  0  0  0  0
   13.6225   -3.5764  -16.8621 N   0  0  0  0  0  0  0  0  0  0  0  0
   14.9691   -3.7313  -17.3054 C   0  0  0  0  0  0  0  0  0  0  0  0
   15.6034   -4.9785  -17.2156 C   0  0  0  0  0  0  0  0  0  0  0  0
   16.9902   -5.0919  -17.3695 C   0  0  0  0  0  0  0  0  0  0  0  0
   17.6668   -6.4182  -17.1813 C   0  0  0  0  0  0  0  0  0  0  0  0
   17.7395   -3.9387  -17.6312 C   0  0  0  0  0  0  0  0  0  0  0  0
   17.1005   -2.7067  -17.8089 C   0  0  0  0  0  0  0  0  0  0  0  0
   15.7176   -2.6135  -17.6674 C   0  0  0  0  0  0  0  0  0  0  0  0
   15.1255   -1.4140  -17.7724 F   0  0  0  0  0  0  0  0  0  0  0  0
   10.3099   -4.2898  -13.5058 C   0  0  0  0  0  0  0  0  0  0  0  0
    9.3896   -4.3089  -14.4826 F   0  0  0  0  0  0  0  0  0  0  0  0
    9.9202   -4.6188  -12.2011 C   0  0  0  0  0  0  0  0  0  0  0  0
   11.3791   -5.1922   -7.7042 C   0  0  0  0  0  0  0  0  0  0  0  0
   10.2678   -4.1710   -6.8928 S   0  0  0  0  0  0  0  0  0  0  0  0
    8.1941    6.7949   -0.4895 H   0  0  0  0  0  0  0  0  0  0  0  0
    9.0781    6.4563   -1.9912 H   0  0  0  0  0  0  0  0  0  0  0  0
    9.8893    6.2803   -0.3925 H   0  0  0  0  0  0  0  0  0  0  0  0
    7.7211    2.5369   -1.3764 H   0  0  0  0  0  0  0  0  0  0  0  0
    9.0754    2.0836   -0.2959 H   0  0  0  0  0  0  0  0  0  0  0  0
   10.3771    1.6730   -2.3167 H   0  0  0  0  0  0  0  0  0  0  0  0
    7.7834    0.2507   -2.3488 H   0  0  0  0  0  0  0  0  0  0  0  0
    9.1491   -0.1678   -1.2959 H   0  0  0  0  0  0  0  0  0  0  0  0
   10.5717   -0.5835   -3.3199 H   0  0  0  0  0  0  0  0  0  0  0  0
    9.2258   -0.1448   -4.3660 H   0  0  0  0  0  0  0  0  0  0  0  0
    7.8621   -2.0239   -3.4597 H   0  0  0  0  0  0  0  0  0  0  0  0
    9.1759   -2.4613   -2.3508 H   0  0  0  0  0  0  0  0  0  0  0  0
    9.0862   -2.8101   -5.2880 H   0  0  0  0  0  0  0  0  0  0  0  0
   12.8526   -5.3667   -4.6864 H   0  0  0  0  0  0  0  0  0  0  0  0
   14.1601   -7.5225   -8.8046 H   0  0  0  0  0  0  0  0  0  0  0  0
   12.4824   -6.8215  -10.4645 H   0  0  0  0  0  0  0  0  0  0  0  0
   12.9213   -4.1252  -10.6702 H   0  0  0  0  0  0  0  0  0  0  0  0
   13.5979   -3.6686  -12.9155 H   0  0  0  0  0  0  0  0  0  0  0  0
   11.3292   -3.7791  -15.8664 H   0  0  0  0  0  0  0  0  0  0  0  0
   13.2056   -2.6761  -17.0720 H   0  0  0  0  0  0  0  0  0  0  0  0
   15.0193   -5.8576  -16.9503 H   0  0  0  0  0  0  0  0  0  0  0  0
   16.9365   -7.2301  -17.0904 H   0  0  0  0  0  0  0  0  0  0  0  0
   18.2773   -6.4104  -16.2728 H   0  0  0  0  0  0  0  0  0  0  0  0
   18.3022   -6.6426  -18.0435 H   0  0  0  0  0  0  0  0  0  0  0  0
   18.8253   -3.9936  -17.6809 H   0  0  0  0  0  0  0  0  0  0  0  0
   17.6833   -1.8126  -18.0076 H   0  0  0  0  0  0  0  0  0  0  0  0
    8.8857   -4.8756  -11.9957 H   0  0  0  0  0  0  0  0  0  0  0  0
  1  2  1  0  0  0  0
  1 42  1  0  0  0  0
  1 43  1  0  0  0  0
  1 44  1  0  0  0  0
  2  3  1  0  0  0  0
  3  4  2  0  0  0  0
  3  5  1  0  0  0  0
  5  6  1  0  0  0  0
  5 45  1  0  0  0  0
  5 46  1  0  0  0  0
  6  7  1  0  0  0  0
  6 47  1  0  0  0  0
  7  8  1  0  0  0  0
  7 48  1  0  0  0  0
  7 49  1  0  0  0  0
  8  9  1  0  0  0  0
  8 50  1  0  0  0  0
  8 51  1  0  0  0  0
  9 10  1  0  0  0  0
  9 52  1  0  0  0  0
  9 53  1  0  0  0  0
 10 11  1  0  0  0  0
 10 54  1  0  0  0  0
 11 12  2  0  0  0  0
 11 13  1  0  0  0  0
 13 14  2  0  0  0  0
 13 41  1  0  0  0  0
 14 15  1  0  0  0  0
 14 55  1  0  0  0  0
 15 16  1  0  0  0  0
 15 40  2  0  0  0  0
 16 17  2  0  0  0  0
 17 18  1  0  0  0  0
 17 56  1  0  0  0  0
 18 19  2  0  0  0  0
 18 57  1  0  0  0  0
 19 20  1  0  0  0  0
 19 40  1  0  0  0  0
 20 21  1  0  0  0  0
 21 22  1  0  0  0  0
 21 39  2  0  0  0  0
 22 23  2  0  0  0  0
 22 58  1  0  0  0  0
 23 24  1  0  0  0  0
 23 59  1  0  0  0  0
 24 25  1  0  0  0  0
 24 37  2  0  0  0  0
 25 26  1  0  0  0  0
 25 60  1  0  0  0  0
 26 27  2  0  0  0  0
 26 28  1  0  0  0  0
 28 29  1  0  0  0  0
 28 61  1  0  0  0  0
 29 30  1  0  0  0  0
 29 35  2  0  0  0  0
 30 31  2  0  0  0  0
 30 62  1  0  0  0  0
 31 32  1  0  0  0  0
 31 33  1  0  0  0  0
 32 63  1  0  0  0  0
 32 64  1  0  0  0  0
 32 65  1  0  0  0  0
 33 34  2  0  0  0  0
 33 66  1  0  0  0  0
 34 35  1  0  0  0  0
 34 67  1  0  0  0  0
 35 36  1  0  0  0  0
 37 38  1  0  0  0  0
 37 39  1  0  0  0  0
 39 68  1  0  0  0  0
 40 41  1  0  0  0  0
M  END
$$$$
