CHEMBL3966071
 OpenBabel04072215373D

 66 69  0  0  0  0  0  0  0  0999 V2000
    0.6831    2.3969    3.3528 C   0  0  0  0  0  0  0  0  0  0  0  0
    2.0563    2.7996    3.3678 O   0  0  0  0  0  0  0  0  0  0  0  0
    2.9651    1.9956    2.7202 C   0  0  0  0  0  0  0  0  0  0  0  0
    2.6343    0.8010    2.0795 C   0  0  0  0  0  0  0  0  0  0  0  0
    3.6127    0.0958    1.3854 C   0  0  0  0  0  0  0  0  0  0  0  0
    3.4073   -1.0613    0.6787 O   0  0  0  0  0  0  0  0  0  0  0  0
    2.1053   -1.6362    0.7293 C   0  0  0  0  0  0  0  0  0  0  0  0
    4.9294    0.5850    1.3424 C   0  0  0  0  0  0  0  0  0  0  0  0
    5.3155    1.7766    1.9815 C   0  0  0  0  0  0  0  0  0  0  0  0
    6.5920    2.3737    1.7863 N   0  0  0  0  0  0  0  0  0  0  0  0
    7.2234    2.1764    0.4117 C   0  0  0  0  0  0  0  0  0  0  0  0
    6.4297    2.6011   -0.8624 C   0  0  0  0  0  0  0  0  0  0  0  0
    6.1942    4.0138   -1.2065 N   0  0  0  0  0  0  0  0  0  0  0  0
    7.3457    4.8838   -1.4750 C   0  0  0  0  0  0  0  0  0  0  0  0
    8.3261    4.3757   -2.5390 C   0  0  0  0  0  0  0  0  0  0  0  0
    6.8137    6.2499   -1.9442 C   0  0  0  0  0  0  0  0  0  0  0  0
    7.6726    2.5880    2.7354 C   0  0  0  0  0  0  0  0  0  0  0  0
    8.4452    3.7227    2.4577 C   0  0  0  0  0  0  0  0  0  0  0  0
    9.7798    3.7624    2.8162 C   0  0  0  0  0  0  0  0  0  0  0  0
   10.3430    2.8158    3.6258 C   0  0  0  0  0  0  0  0  0  0  0  0
   11.6691    2.9062    3.7184 N   0  0  0  0  0  0  0  0  0  0  0  0
   12.2475    2.2044    4.7009 C   0  0  0  0  0  0  0  0  0  0  0  0
   11.5027    1.5360    5.6489 C   0  0  0  0  0  0  0  0  0  0  0  0
   12.1396    1.4577    6.9752 C   0  0  0  0  0  0  0  0  0  0  0  0
   12.6939    0.3759    7.6999 C   0  0  0  0  0  0  0  0  0  0  0  0
   13.3365    0.7611    8.8113 N   0  0  0  0  0  0  0  0  0  0  0  0
   13.1983    2.0979    8.8156 N   0  0  0  0  0  0  0  0  0  0  0  0
   13.5810    2.8640    9.9837 C   0  0  0  0  0  0  0  0  0  0  0  0
   12.6563    2.5764    7.6483 C   0  0  0  0  0  0  0  0  0  0  0  0
   12.6948    4.0197    7.2899 C   0  0  0  0  0  0  0  0  0  0  0  0
   10.1577    1.2806    5.4358 N   0  0  0  0  0  0  0  0  0  0  0  0
    9.5306    1.8890    4.3263 C   0  0  0  0  0  0  0  0  0  0  0  0
    8.1810    1.7292    3.7600 C   0  0  0  0  0  0  0  0  0  0  0  0
    4.3017    2.4609    2.6867 C   0  0  0  0  0  0  0  0  0  0  0  0
    0.0813    3.1999    3.7904 H   0  0  0  0  0  0  0  0  0  0  0  0
    0.5355    1.4995    3.9645 H   0  0  0  0  0  0  0  0  0  0  0  0
    0.3105    2.2363    2.3337 H   0  0  0  0  0  0  0  0  0  0  0  0
    1.6169    0.4305    2.1051 H   0  0  0  0  0  0  0  0  0  0  0  0
    2.1280   -2.5682    0.1560 H   0  0  0  0  0  0  0  0  0  0  0  0
    1.3611   -0.9802    0.2644 H   0  0  0  0  0  0  0  0  0  0  0  0
    1.8226   -1.8864    1.7574 H   0  0  0  0  0  0  0  0  0  0  0  0
    5.6479    0.0147    0.7624 H   0  0  0  0  0  0  0  0  0  0  0  0
    7.4977    1.1185    0.3145 H   0  0  0  0  0  0  0  0  0  0  0  0
    8.1795    2.7059    0.3270 H   0  0  0  0  0  0  0  0  0  0  0  0
    5.4498    2.1149   -0.8646 H   0  0  0  0  0  0  0  0  0  0  0  0
    6.9553    2.1502   -1.7144 H   0  0  0  0  0  0  0  0  0  0  0  0
    5.5862    4.4358   -0.5048 H   0  0  0  0  0  0  0  0  0  0  0  0
    7.8969    5.0432   -0.5431 H   0  0  0  0  0  0  0  0  0  0  0  0
    7.8299    4.1973   -3.4999 H   0  0  0  0  0  0  0  0  0  0  0  0
    8.8256    3.4544   -2.2280 H   0  0  0  0  0  0  0  0  0  0  0  0
    9.1130    5.1212   -2.7165 H   0  0  0  0  0  0  0  0  0  0  0  0
    6.2996    6.1735   -2.9108 H   0  0  0  0  0  0  0  0  0  0  0  0
    7.6357    6.9656   -2.0682 H   0  0  0  0  0  0  0  0  0  0  0  0
    6.1126    6.6807   -1.2219 H   0  0  0  0  0  0  0  0  0  0  0  0
    8.0494    4.4933    1.8072 H   0  0  0  0  0  0  0  0  0  0  0  0
   10.4021    4.5626    2.4083 H   0  0  0  0  0  0  0  0  0  0  0  0
   13.3211    2.3261    4.7826 H   0  0  0  0  0  0  0  0  0  0  0  0
   12.6948   -0.6783    7.4564 H   0  0  0  0  0  0  0  0  0  0  0  0
   13.7251    2.1942   10.8354 H   0  0  0  0  0  0  0  0  0  0  0  0
   12.7688    3.5605   10.2148 H   0  0  0  0  0  0  0  0  0  0  0  0
   14.5022    3.4136    9.7725 H   0  0  0  0  0  0  0  0  0  0  0  0
   12.9682    4.6665    8.1338 H   0  0  0  0  0  0  0  0  0  0  0  0
   11.7256    4.3528    6.9114 H   0  0  0  0  0  0  0  0  0  0  0  0
   13.4588    4.1951    6.5161 H   0  0  0  0  0  0  0  0  0  0  0  0
    7.5768    0.8882    4.1083 H   0  0  0  0  0  0  0  0  0  0  0  0
    4.5258    3.4167    3.1564 H   0  0  0  0  0  0  0  0  0  0  0  0
  1  2  1  0  0  0  0
  1 35  1  0  0  0  0
  1 36  1  0  0  0  0
  1 37  1  0  0  0  0
  2  3  1  0  0  0  0
  3  4  1  0  0  0  0
  3 34  2  0  0  0  0
  4  5  2  0  0  0  0
  4 38  1  0  0  0  0
  5  6  1  0  0  0  0
  5  8  1  0  0  0  0
  6  7  1  0  0  0  0
  7 39  1  0  0  0  0
  7 40  1  0  0  0  0
  7 41  1  0  0  0  0
  8  9  2  0  0  0  0
  8 42  1  0  0  0  0
  9 10  1  0  0  0  0
  9 34  1  0  0  0  0
 10 11  1  0  0  0  0
 10 17  1  0  0  0  0
 11 12  1  0  0  0  0
 11 43  1  0  0  0  0
 11 44  1  0  0  0  0
 12 13  1  0  0  0  0
 12 45  1  0  0  0  0
 12 46  1  0  0  0  0
 13 14  1  0  0  0  0
 13 47  1  0  0  0  0
 14 15  1  0  0  0  0
 14 16  1  0  0  0  0
 14 48  1  0  0  0  0
 15 49  1  0  0  0  0
 15 50  1  0  0  0  0
 15 51  1  0  0  0  0
 16 52  1  0  0  0  0
 16 53  1  0  0  0  0
 16 54  1  0  0  0  0
 17 18  1  0  0  0  0
 17 33  2  0  0  0  0
 18 19  2  0  0  0  0
 18 55  1  0  0  0  0
 19 20  1  0  0  0  0
 19 56  1  0  0  0  0
 20 21  1  0  0  0  0
 20 32  2  0  0  0  0
 21 22  2  0  0  0  0
 22 23  1  0  0  0  0
 22 57  1  0  0  0  0
 23 24  1  0  0  0  0
 23 31  2  0  0  0  0
 24 25  1  0  0  0  0
 24 29  2  0  0  0  0
 25 26  2  0  0  0  0
 25 58  1  0  0  0  0
 26 27  1  0  0  0  0
 27 28  1  0  0  0  0
 27 29  1  0  0  0  0
 28 59  1  0  0  0  0
 28 60  1  0  0  0  0
 28 61  1  0  0  0  0
 29 30  1  0  0  0  0
 30 62  1  0  0  0  0
 30 63  1  0  0  0  0
 30 64  1  0  0  0  0
 31 32  1  0  0  0  0
 32 33  1  0  0  0  0
 33 65  1  0  0  0  0
 34 66  1  0  0  0  0
M  END
$$$$
