CHEMBL3633289
 OpenBabel04072215373D

 65 68  0  0  0  0  0  0  0  0999 V2000
    1.0852   -0.6765   -0.3960 C   0  0  0  0  0  0  0  0  0  0  0  0
    2.3038   -0.0108   -0.0631 O   0  0  0  0  0  0  0  0  0  0  0  0
    3.0659   -0.5995    0.9190 C   0  0  0  0  0  0  0  0  0  0  0  0
    2.7873   -1.8617    1.4799 C   0  0  0  0  0  0  0  0  0  0  0  0
    3.6054   -2.4074    2.4755 C   0  0  0  0  0  0  0  0  0  0  0  0
    4.7184   -1.6972    2.9068 C   0  0  0  0  0  0  0  0  0  0  0  0
    5.5665   -2.2104    4.0023 C   0  0  0  0  0  0  0  0  0  0  0  0
    5.1578   -2.8725    4.9426 O   0  0  0  0  0  0  0  0  0  0  0  0
    6.8287   -1.7588    3.8252 O   0  0  0  0  0  0  0  0  0  0  0  0
    7.3855   -1.0973    4.9680 C   0  0  0  0  0  0  0  0  0  0  0  0
    8.6334   -1.8253    5.4709 C   0  0  0  0  0  0  0  0  0  0  0  0
    9.2814   -1.1501    6.6131 N   0  0  0  0  0  0  0  0  0  0  0  0
    9.7770    0.2110    6.3042 C   0  0  0  0  0  0  0  0  0  0  0  0
   10.9978    0.2240    5.3724 C   0  0  0  0  0  0  0  0  0  0  0  0
   12.0775   -0.5290    5.9390 O   0  0  0  0  0  0  0  0  0  0  0  0
   11.6756   -1.8783    6.2106 C   0  0  0  0  0  0  0  0  0  0  0  0
   10.4303   -1.9376    7.1158 C   0  0  0  0  0  0  0  0  0  0  0  0
    4.9855   -0.4340    2.3705 C   0  0  0  0  0  0  0  0  0  0  0  0
    4.1915    0.1215    1.3647 C   0  0  0  0  0  0  0  0  0  0  0  0
    4.4807    1.4192    0.8543 N   0  0  0  0  0  0  0  0  0  0  0  0
    5.7116    2.0505    0.9777 C   0  0  0  0  0  0  0  0  0  0  0  0
    6.7476    1.4910    1.3262 O   0  0  0  0  0  0  0  0  0  0  0  0
    5.6406    3.4136    0.7293 N   0  0  0  0  0  0  0  0  0  0  0  0
    6.7886    4.2467    0.8432 C   0  0  0  0  0  0  0  0  0  0  0  0
    7.9875    3.8027    0.2444 C   0  0  0  0  0  0  0  0  0  0  0  0
    9.1993    4.4968    0.3709 C   0  0  0  0  0  0  0  0  0  0  0  0
   10.4217    3.9929   -0.2248 C   0  0  0  0  0  0  0  0  0  0  0  0
   11.5781    4.6624   -0.6948 C   0  0  0  0  0  0  0  0  0  0  0  0
   12.5072    3.8256   -1.1643 N   0  0  0  0  0  0  0  0  0  0  0  0
   11.9557    2.6146   -0.9901 N   0  0  0  0  0  0  0  0  0  0  0  0
   10.7136    2.6596   -0.4276 C   0  0  0  0  0  0  0  0  0  0  0  0
    9.2055    5.6825    1.1071 C   0  0  0  0  0  0  0  0  0  0  0  0
    8.0236    6.1505    1.6847 C   0  0  0  0  0  0  0  0  0  0  0  0
    6.8021    5.4625    1.5433 C   0  0  0  0  0  0  0  0  0  0  0  0
    5.8243    6.0310    2.3032 O   0  0  0  0  0  0  0  0  0  0  0  0
    4.4679    6.0238    1.9181 C   0  0  0  0  0  0  0  0  0  0  0  0
    4.2405    5.4648    0.7119 F   0  0  0  0  0  0  0  0  0  0  0  0
    3.7555    5.3389    2.8387 F   0  0  0  0  0  0  0  0  0  0  0  0
    4.0117    7.2935    1.8862 F   0  0  0  0  0  0  0  0  0  0  0  0
    0.5798   -0.0977   -1.1741 H   0  0  0  0  0  0  0  0  0  0  0  0
    0.4183   -0.7234    0.4724 H   0  0  0  0  0  0  0  0  0  0  0  0
    1.2709   -1.6772   -0.8029 H   0  0  0  0  0  0  0  0  0  0  0  0
    1.9328   -2.4543    1.1681 H   0  0  0  0  0  0  0  0  0  0  0  0
    3.3661   -3.3739    2.9137 H   0  0  0  0  0  0  0  0  0  0  0  0
    6.6485   -0.9704    5.7697 H   0  0  0  0  0  0  0  0  0  0  0  0
    7.6475   -0.0984    4.6063 H   0  0  0  0  0  0  0  0  0  0  0  0
    9.3223   -1.9785    4.6316 H   0  0  0  0  0  0  0  0  0  0  0  0
    8.3199   -2.8313    5.7789 H   0  0  0  0  0  0  0  0  0  0  0  0
   10.0662    0.6739    7.2573 H   0  0  0  0  0  0  0  0  0  0  0  0
    8.9842    0.8511    5.9064 H   0  0  0  0  0  0  0  0  0  0  0  0
   11.3473    1.2528    5.2389 H   0  0  0  0  0  0  0  0  0  0  0  0
   10.7587   -0.1714    4.3786 H   0  0  0  0  0  0  0  0  0  0  0  0
   12.5141   -2.3715    6.7126 H   0  0  0  0  0  0  0  0  0  0  0  0
   11.5099   -2.3993    5.2613 H   0  0  0  0  0  0  0  0  0  0  0  0
   10.6985   -1.5277    8.0985 H   0  0  0  0  0  0  0  0  0  0  0  0
   10.1377   -2.9792    7.2918 H   0  0  0  0  0  0  0  0  0  0  0  0
    5.8109    0.1320    2.7887 H   0  0  0  0  0  0  0  0  0  0  0  0
    3.8266    1.7770    0.1690 H   0  0  0  0  0  0  0  0  0  0  0  0
    4.7324    3.8216    0.8881 H   0  0  0  0  0  0  0  0  0  0  0  0
    7.9729    2.8792   -0.3308 H   0  0  0  0  0  0  0  0  0  0  0  0
   11.7825    5.7239   -0.7146 H   0  0  0  0  0  0  0  0  0  0  0  0
   12.4866    1.7979   -1.2749 H   0  0  0  0  0  0  0  0  0  0  0  0
   10.1671    1.7510   -0.2160 H   0  0  0  0  0  0  0  0  0  0  0  0
   10.1284    6.2360    1.2702 H   0  0  0  0  0  0  0  0  0  0  0  0
    8.0652    7.0572    2.2884 H   0  0  0  0  0  0  0  0  0  0  0  0
  1  2  1  0  0  0  0
  1 40  1  0  0  0  0
  1 41  1  0  0  0  0
  1 42  1  0  0  0  0
  2  3  1  0  0  0  0
  3  4  1  0  0  0  0
  3 19  2  0  0  0  0
  4  5  2  0  0  0  0
  4 43  1  0  0  0  0
  5  6  1  0  0  0  0
  5 44  1  0  0  0  0
  6  7  1  0  0  0  0
  6 18  2  0  0  0  0
  7  8  2  0  0  0  0
  7  9  1  0  0  0  0
  9 10  1  0  0  0  0
 10 11  1  0  0  0  0
 10 45  1  0  0  0  0
 10 46  1  0  0  0  0
 11 12  1  0  0  0  0
 11 47  1  0  0  0  0
 11 48  1  0  0  0  0
 12 13  1  0  0  0  0
 12 17  1  0  0  0  0
 13 14  1  0  0  0  0
 13 49  1  0  0  0  0
 13 50  1  0  0  0  0
 14 15  1  0  0  0  0
 14 51  1  0  0  0  0
 14 52  1  0  0  0  0
 15 16  1  0  0  0  0
 16 17  1  0  0  0  0
 16 53  1  0  0  0  0
 16 54  1  0  0  0  0
 17 55  1  0  0  0  0
 17 56  1  0  0  0  0
 18 19  1  0  0  0  0
 18 57  1  0  0  0  0
 19 20  1  0  0  0  0
 20 21  1  0  0  0  0
 20 58  1  0  0  0  0
 21 22  2  0  0  0  0
 21 23  1  0  0  0  0
 23 24  1  0  0  0  0
 23 59  1  0  0  0  0
 24 25  1  0  0  0  0
 24 34  2  0  0  0  0
 25 26  2  0  0  0  0
 25 60  1  0  0  0  0
 26 27  1  0  0  0  0
 26 32  1  0  0  0  0
 27 28  1  0  0  0  0
 27 31  2  0  0  0  0
 28 29  2  0  0  0  0
 28 61  1  0  0  0  0
 29 30  1  0  0  0  0
 30 31  1  0  0  0  0
 30 62  1  0  0  0  0
 31 63  1  0  0  0  0
 32 33  2  0  0  0  0
 32 64  1  0  0  0  0
 33 34  1  0  0  0  0
 33 65  1  0  0  0  0
 34 35  1  0  0  0  0
 35 36  1  0  0  0  0
 36 37  1  0  0  0  0
 36 38  1  0  0  0  0
 36 39  1  0  0  0  0
M  END
$$$$
