CHEMBL3938643
 OpenBabel04072215373D

 54 56  0  0  0  0  0  0  0  0999 V2000
    2.7123   -0.0952   -1.4167 C   0  0  0  0  0  0  0  0  0  0  0  0
    1.3155   -0.0525   -0.8659 C   0  0  0  0  0  0  0  0  0  0  0  0
    0.7193   -1.1918   -0.3218 C   0  0  0  0  0  0  0  0  0  0  0  0
   -0.5794   -1.1281    0.1916 C   0  0  0  0  0  0  0  0  0  0  0  0
   -1.2940    0.0688    0.1622 C   0  0  0  0  0  0  0  0  0  0  0  0
   -2.5294    0.0798    0.6745 F   0  0  0  0  0  0  0  0  0  0  0  0
   -0.7277    1.2135   -0.3817 C   0  0  0  0  0  0  0  0  0  0  0  0
   -1.4364    2.5228   -0.4672 C   0  0  0  0  0  0  0  0  0  0  0  0
   -0.8214    3.4436   -0.9992 O   0  0  0  0  0  0  0  0  0  0  0  0
   -2.7037    2.6305    0.0942 N   0  0  0  0  0  0  0  0  0  0  0  0
   -3.4694    3.8267    0.1216 C   0  0  0  0  0  0  0  0  0  0  0  0
   -3.2118    4.8980   -0.7445 C   0  0  0  0  0  0  0  0  0  0  0  0
   -3.9013    6.1021   -0.6128 C   0  0  0  0  0  0  0  0  0  0  0  0
   -4.8273    6.2717    0.4047 C   0  0  0  0  0  0  0  0  0  0  0  0
   -5.1046    5.2094    1.2909 C   0  0  0  0  0  0  0  0  0  0  0  0
   -5.9341    5.4158    2.4413 C   0  0  0  0  0  0  0  0  0  0  0  0
   -6.5960    5.5917    3.4279 C   0  0  0  0  0  0  0  0  0  0  0  0
   -7.4770    5.8230    4.5557 C   0  0  0  0  0  0  0  0  0  0  0  0
   -7.5140    7.0823    5.1654 C   0  0  0  0  0  0  0  0  0  0  0  0
   -8.5968    7.4131    5.9869 C   0  0  0  0  0  0  0  0  0  0  0  0
   -8.9191    8.8427    6.2835 C   0  0  0  0  0  0  0  0  0  0  0  0
   -8.1586    9.6863    5.8200 O   0  0  0  0  0  0  0  0  0  0  0  0
  -10.0199    9.1869    7.0949 N   0  0  0  0  0  0  0  0  0  0  0  0
  -10.8077   10.5022    6.8696 S   0  0  0  0  0  0  0  0  0  0  0  0
   -9.9173   11.8468    7.6125 C   0  0  0  0  0  0  0  0  0  0  0  0
  -12.2212   10.4394    7.9514 C   0  0  0  0  0  0  0  0  0  0  0  0
  -11.2973   10.9608    5.5878 O   0  0  0  0  0  0  0  0  0  0  0  0
   -9.4709    6.3962    6.3455 C   0  0  0  0  0  0  0  0  0  0  0  0
   -9.3651    5.1207    5.8946 N   0  0  0  0  0  0  0  0  0  0  0  0
   -8.4140    4.8641    4.9715 C   0  0  0  0  0  0  0  0  0  0  0  0
   -8.5116    3.6203    4.3486 N   0  0  0  0  0  0  0  0  0  0  0  0
   -4.4689    3.9669    1.0882 C   0  0  0  0  0  0  0  0  0  0  0  0
    0.5854    1.1446   -0.8918 C   0  0  0  0  0  0  0  0  0  0  0  0
    3.1389   -1.1008   -1.3467 H   0  0  0  0  0  0  0  0  0  0  0  0
    3.3634    0.5844   -0.8564 H   0  0  0  0  0  0  0  0  0  0  0  0
    2.7133    0.1946   -2.4731 H   0  0  0  0  0  0  0  0  0  0  0  0
    1.2617   -2.1349   -0.2935 H   0  0  0  0  0  0  0  0  0  0  0  0
   -1.0379   -2.0185    0.6155 H   0  0  0  0  0  0  0  0  0  0  0  0
   -3.0373    1.8611    0.6665 H   0  0  0  0  0  0  0  0  0  0  0  0
   -2.4681    4.8224   -1.5313 H   0  0  0  0  0  0  0  0  0  0  0  0
   -3.6638    6.9187   -1.2961 H   0  0  0  0  0  0  0  0  0  0  0  0
   -5.3143    7.2313    0.5257 H   0  0  0  0  0  0  0  0  0  0  0  0
   -6.7618    7.8271    4.9232 H   0  0  0  0  0  0  0  0  0  0  0  0
   -9.5497   11.5322    8.5902 H   0  0  0  0  0  0  0  0  0  0  0  0
  -10.6015   12.6913    7.7278 H   0  0  0  0  0  0  0  0  0  0  0  0
   -9.0927   12.1381    6.9561 H   0  0  0  0  0  0  0  0  0  0  0  0
  -11.9197   10.0063    8.9071 H   0  0  0  0  0  0  0  0  0  0  0  0
  -13.0032    9.8389    7.4811 H   0  0  0  0  0  0  0  0  0  0  0  0
  -12.5865   11.4564    8.1036 H   0  0  0  0  0  0  0  0  0  0  0  0
  -10.3350    6.5826    6.9831 H   0  0  0  0  0  0  0  0  0  0  0  0
   -9.1629    3.0475    4.8747 H   0  0  0  0  0  0  0  0  0  0  0  0
   -7.6168    3.1865    4.1758 H   0  0  0  0  0  0  0  0  0  0  0  0
   -4.7224    3.1420    1.7498 H   0  0  0  0  0  0  0  0  0  0  0  0
    1.0474    2.0370   -1.3176 H   0  0  0  0  0  0  0  0  0  0  0  0
  1  2  1  0  0  0  0
  1 34  1  0  0  0  0
  1 35  1  0  0  0  0
  1 36  1  0  0  0  0
  2  3  1  0  0  0  0
  2 33  2  0  0  0  0
  3  4  2  0  0  0  0
  3 37  1  0  0  0  0
  4  5  1  0  0  0  0
  4 38  1  0  0  0  0
  5  6  1  0  0  0  0
  5  7  2  0  0  0  0
  7  8  1  0  0  0  0
  7 33  1  0  0  0  0
  8  9  2  0  0  0  0
  8 10  1  0  0  0  0
 10 11  1  0  0  0  0
 10 39  1  0  0  0  0
 11 12  1  0  0  0  0
 11 32  2  0  0  0  0
 12 13  2  0  0  0  0
 12 40  1  0  0  0  0
 13 14  1  0  0  0  0
 13 41  1  0  0  0  0
 14 15  2  0  0  0  0
 14 42  1  0  0  0  0
 15 16  1  0  0  0  0
 15 32  1  0  0  0  0
 16 17  3  0  0  0  0
 17 18  1  0  0  0  0
 18 19  1  0  0  0  0
 18 30  2  0  0  0  0
 19 20  2  0  0  0  0
 19 43  1  0  0  0  0
 20 21  1  0  0  0  0
 20 28  1  0  0  0  0
 21 22  2  0  0  0  0
 21 23  1  0  0  0  0
 23 24  2  0  0  0  0
 24 25  1  0  0  0  0
 24 26  1  0  0  0  0
 24 27  2  0  0  0  0
 25 44  1  0  0  0  0
 25 45  1  0  0  0  0
 25 46  1  0  0  0  0
 26 47  1  0  0  0  0
 26 48  1  0  0  0  0
 26 49  1  0  0  0  0
 28 29  2  0  0  0  0
 28 50  1  0  0  0  0
 29 30  1  0  0  0  0
 30 31  1  0  0  0  0
 31 51  1  0  0  0  0
 31 52  1  0  0  0  0
 32 53  1  0  0  0  0
 33 54  1  0  0  0  0
M  END
$$$$
