CHEMBL3959849
 OpenBabel04072215373D

 53 56  0  0  0  0  0  0  0  0999 V2000
    4.4542   -0.4225    4.6585 H   0  0  0  0  0  0  0  0  0  0  0  0
    3.4822   -0.2981    5.1803 C   0  0  0  0  0  0  0  0  0  0  0  0
    2.9086   -1.2465    5.1065 H   0  0  0  0  0  0  0  0  0  0  0  0
    3.6666   -0.0685    6.2504 H   0  0  0  0  0  0  0  0  0  0  0  0
    2.7376    0.7926    4.5692 N   0  0  0  0  0  0  0  0  0  0  0  0
    3.1542    2.0676    4.4758 C   0  0  0  0  0  0  0  0  0  0  0  0
    2.1710    2.7919    3.8285 C   0  0  0  0  0  0  0  0  0  0  0  0
    2.1900    4.2399    3.4885 C   0  0  0  0  0  0  0  0  0  0  0  0
    1.0732    4.8281    2.8617 C   0  0  0  0  0  0  0  0  0  0  0  0
    1.0764    6.1778    2.5230 C   0  0  0  0  0  0  0  0  0  0  0  0
    2.1933    6.9644    2.7995 C   0  0  0  0  0  0  0  0  0  0  0  0
    2.2070    8.2692    2.4520 N   0  0  0  0  0  0  0  0  0  0  0  0
    3.2760    9.0638    2.7006 C   0  0  0  0  0  0  0  0  0  0  0  0
    4.4249    8.5415    3.3386 C   0  0  0  0  0  0  0  0  0  0  0  0
    5.6131    9.3279    3.6411 N   0  0  0  0  0  0  0  0  0  0  0  0
    5.6312   10.7624    4.0196 C   0  0  0  0  0  0  0  0  0  0  0  0
    4.3407   11.5864    4.0634 C   0  0  0  0  0  0  0  0  0  0  0  0
    4.6353   12.8742    4.5398 O   0  0  0  0  0  0  0  0  0  0  0  0
    6.9222    8.7043    3.5404 C   0  0  0  0  0  0  0  0  0  0  0  0
    7.1518    7.6563    2.6215 C   0  0  0  0  0  0  0  0  0  0  0  0
    8.4469    7.1309    2.4216 C   0  0  0  0  0  0  0  0  0  0  0  0
    8.7158    6.1740    1.4965 O   0  0  0  0  0  0  0  0  0  0  0  0
    7.8107    5.6333    0.6093 C   0  0  0  0  0  0  0  0  0  0  0  0
    9.5173    7.6324    3.1638 C   0  0  0  0  0  0  0  0  0  0  0  0
    9.3219    8.6651    4.0924 C   0  0  0  0  0  0  0  0  0  0  0  0
   10.3419    9.2021    4.8142 O   0  0  0  0  0  0  0  0  0  0  0  0
   11.6729    8.8530    4.7185 C   0  0  0  0  0  0  0  0  0  0  0  0
    8.0405    9.1918    4.2675 C   0  0  0  0  0  0  0  0  0  0  0  0
    4.3995    7.2100    3.6689 N   0  0  0  0  0  0  0  0  0  0  0  0
    3.3213    6.4103    3.4223 C   0  0  0  0  0  0  0  0  0  0  0  0
    3.3166    5.0495    3.7718 C   0  0  0  0  0  0  0  0  0  0  0  0
    1.1675    1.8683    3.5583 C   0  0  0  0  0  0  0  0  0  0  0  0
    1.5417    0.6601    4.0191 N   0  0  0  0  0  0  0  0  0  0  0  0
    4.1016    2.4289    4.8503 H   0  0  0  0  0  0  0  0  0  0  0  0
    0.1915    4.2479    2.6275 H   0  0  0  0  0  0  0  0  0  0  0  0
    0.2088    6.6104    2.0402 H   0  0  0  0  0  0  0  0  0  0  0  0
    3.2038   10.0558    2.3413 H   0  0  0  0  0  0  0  0  0  0  0  0
    6.3182   11.2971    3.3252 H   0  0  0  0  0  0  0  0  0  0  0  0
    6.0311   10.8373    5.0505 H   0  0  0  0  0  0  0  0  0  0  0  0
    3.5767   11.0927    4.7073 H   0  0  0  0  0  0  0  0  0  0  0  0
    3.9428   11.7568    3.0525 H   0  0  0  0  0  0  0  0  0  0  0  0
    4.4426   12.8852    5.5118 H   0  0  0  0  0  0  0  0  0  0  0  0
    6.3359    7.2864    2.0196 H   0  0  0  0  0  0  0  0  0  0  0  0
    8.3416    4.9255   -0.0594 H   0  0  0  0  0  0  0  0  0  0  0  0
    7.3631    6.4355   -0.0170 H   0  0  0  0  0  0  0  0  0  0  0  0
    7.0170    5.0866    1.1593 H   0  0  0  0  0  0  0  0  0  0  0  0
   10.5050    7.2248    2.9919 H   0  0  0  0  0  0  0  0  0  0  0  0
   12.2655    9.4861    5.4111 H   0  0  0  0  0  0  0  0  0  0  0  0
   12.0410    9.0281    3.6848 H   0  0  0  0  0  0  0  0  0  0  0  0
   11.8149    7.7878    4.9996 H   0  0  0  0  0  0  0  0  0  0  0  0
    7.9531    9.9953    4.9807 H   0  0  0  0  0  0  0  0  0  0  0  0
    4.1931    4.6310    4.2489 H   0  0  0  0  0  0  0  0  0  0  0  0
    0.2274    2.0465    3.0543 H   0  0  0  0  0  0  0  0  0  0  0  0
  1  2  1  0  0  0  0
  2  3  1  0  0  0  0
  2  4  1  0  0  0  0
  2  5  1  0  0  0  0
  5  6  1  0  0  0  0
  5 33  1  0  0  0  0
  6  7  2  0  0  0  0
  6 34  1  0  0  0  0
  7  8  1  0  0  0  0
  7 32  1  0  0  0  0
  8  9  1  0  0  0  0
  8 31  2  0  0  0  0
  9 10  2  0  0  0  0
  9 35  1  0  0  0  0
 10 11  1  0  0  0  0
 10 36  1  0  0  0  0
 11 12  1  0  0  0  0
 11 30  2  0  0  0  0
 12 13  2  0  0  0  0
 13 14  1  0  0  0  0
 13 37  1  0  0  0  0
 14 15  1  0  0  0  0
 14 29  2  0  0  0  0
 15 16  1  0  0  0  0
 15 19  1  0  0  0  0
 16 17  1  0  0  0  0
 16 38  1  0  0  0  0
 16 39  1  0  0  0  0
 17 18  1  0  0  0  0
 17 40  1  0  0  0  0
 17 41  1  0  0  0  0
 18 42  1  0  0  0  0
 19 20  1  0  0  0  0
 19 28  2  0  0  0  0
 20 21  2  0  0  0  0
 20 43  1  0  0  0  0
 21 22  1  0  0  0  0
 21 24  1  0  0  0  0
 22 23  1  0  0  0  0
 23 44  1  0  0  0  0
 23 45  1  0  0  0  0
 23 46  1  0  0  0  0
 24 25  2  0  0  0  0
 24 47  1  0  0  0  0
 25 26  1  0  0  0  0
 25 28  1  0  0  0  0
 26 27  1  0  0  0  0
 27 48  1  0  0  0  0
 27 49  1  0  0  0  0
 27 50  1  0  0  0  0
 28 51  1  0  0  0  0
 29 30  1  0  0  0  0
 30 31  1  0  0  0  0
 31 52  1  0  0  0  0
 32 33  2  0  0  0  0
 32 53  1  0  0  0  0
M  ISO  3   1   2   3   2   4   2
M  END
$$$$
