CHEMBL316384
 OpenBabel04072215363D

 56 60  0  0  0  0  0  0  0  0999 V2000
    0.0244    3.1517   -0.6837 C   0  0  0  0  0  0  0  0  0  0  0  0
   -0.3455    2.4461   -1.8270 C   0  0  0  0  0  0  0  0  0  0  0  0
   -1.2647    1.4007   -1.7378 C   0  0  0  0  0  0  0  0  0  0  0  0
   -1.8521    1.1078   -0.4978 C   0  0  0  0  0  0  0  0  0  0  0  0
   -2.8413    0.1033   -0.4091 N   0  0  0  0  0  0  0  0  0  0  0  0
   -2.9649   -0.9922   -1.2363 C   0  0  0  0  0  0  0  0  0  0  0  0
   -3.9747   -1.7703   -0.9195 N   0  0  0  0  0  0  0  0  0  0  0  0
   -4.5692   -1.1347    0.1341 C   0  0  0  0  0  0  0  0  0  0  0  0
   -5.7245   -1.4608    0.8430 C   0  0  0  0  0  0  0  0  0  0  0  0
   -6.1803   -0.5750    1.8282 C   0  0  0  0  0  0  0  0  0  0  0  0
   -7.4380   -0.8238    2.5448 C   0  0  0  0  0  0  0  0  0  0  0  0
   -7.6230   -0.3900    3.8632 C   0  0  0  0  0  0  0  0  0  0  0  0
   -8.8278   -0.6089    4.5312 C   0  0  0  0  0  0  0  0  0  0  0  0
   -9.8800   -1.2765    3.8996 C   0  0  0  0  0  0  0  0  0  0  0  0
  -11.1002   -1.5639    4.4596 O   0  0  0  0  0  0  0  0  0  0  0  0
  -11.2498   -1.1094    5.8052 C   0  0  0  0  0  0  0  0  0  0  0  0
  -12.6363   -1.4578    6.3656 C   0  0  0  0  0  0  0  0  0  0  0  0
  -12.8092   -1.0048    7.7641 N   0  0  0  0  0  0  0  0  0  0  0  0
  -12.6641    0.4533    7.9018 C   0  0  0  0  0  0  0  0  0  0  0  0
  -12.7539    0.8839    9.3631 C   0  0  0  0  0  0  0  0  0  0  0  0
  -14.0638    0.4325    9.9872 C   0  0  0  0  0  0  0  0  0  0  0  0
  -14.2692   -1.0622    9.7671 C   0  0  0  0  0  0  0  0  0  0  0  0
  -14.1106   -1.4456    8.2923 C   0  0  0  0  0  0  0  0  0  0  0  0
   -9.7166   -1.7054    2.5867 C   0  0  0  0  0  0  0  0  0  0  0  0
   -8.5108   -1.4866    1.9214 C   0  0  0  0  0  0  0  0  0  0  0  0
   -5.4041    0.5702    2.0663 C   0  0  0  0  0  0  0  0  0  0  0  0
   -4.2494    0.9194    1.4463 N   0  0  0  0  0  0  0  0  0  0  0  0
   -3.8930    0.0283    0.4885 C   0  0  0  0  0  0  0  0  0  0  0  0
   -1.4710    1.8097    0.6480 C   0  0  0  0  0  0  0  0  0  0  0  0
   -0.5188    2.8249    0.5550 C   0  0  0  0  0  0  0  0  0  0  0  0
    0.7413    3.9689   -0.7573 H   0  0  0  0  0  0  0  0  0  0  0  0
    0.0688    2.7219   -2.7935 H   0  0  0  0  0  0  0  0  0  0  0  0
   -1.5489    0.8802   -2.6478 H   0  0  0  0  0  0  0  0  0  0  0  0
   -2.2568   -1.1956   -2.0285 H   0  0  0  0  0  0  0  0  0  0  0  0
   -6.2575   -2.3695    0.5905 H   0  0  0  0  0  0  0  0  0  0  0  0
   -6.8276    0.1266    4.3974 H   0  0  0  0  0  0  0  0  0  0  0  0
   -8.9030   -0.2369    5.5474 H   0  0  0  0  0  0  0  0  0  0  0  0
  -11.1263   -0.0228    5.7985 H   0  0  0  0  0  0  0  0  0  0  0  0
  -10.4897   -1.5802    6.4410 H   0  0  0  0  0  0  0  0  0  0  0  0
  -12.7475   -2.5498    6.3197 H   0  0  0  0  0  0  0  0  0  0  0  0
  -13.4159   -1.0468    5.7109 H   0  0  0  0  0  0  0  0  0  0  0  0
  -13.4189    0.9780    7.3021 H   0  0  0  0  0  0  0  0  0  0  0  0
  -11.6812    0.7850    7.5564 H   0  0  0  0  0  0  0  0  0  0  0  0
  -12.6600    1.9732    9.4313 H   0  0  0  0  0  0  0  0  0  0  0  0
  -11.9108    0.4559    9.9212 H   0  0  0  0  0  0  0  0  0  0  0  0
  -14.8932    0.9891    9.5348 H   0  0  0  0  0  0  0  0  0  0  0  0
  -14.0648    0.6618   11.0578 H   0  0  0  0  0  0  0  0  0  0  0  0
  -15.2654   -1.3505   10.1205 H   0  0  0  0  0  0  0  0  0  0  0  0
  -13.5419   -1.6213   10.3695 H   0  0  0  0  0  0  0  0  0  0  0  0
  -14.9335   -1.0118    7.7091 H   0  0  0  0  0  0  0  0  0  0  0  0
  -14.1959   -2.5362    8.2148 H   0  0  0  0  0  0  0  0  0  0  0  0
  -10.5308   -2.2084    2.0720 H   0  0  0  0  0  0  0  0  0  0  0  0
   -8.4254   -1.8298    0.8911 H   0  0  0  0  0  0  0  0  0  0  0  0
   -5.7229    1.3084    2.7999 H   0  0  0  0  0  0  0  0  0  0  0  0
   -1.8778    1.5617    1.6248 H   0  0  0  0  0  0  0  0  0  0  0  0
   -0.2160    3.3580    1.4510 H   0  0  0  0  0  0  0  0  0  0  0  0
  1  2  1  0  0  0  0
  1 30  2  0  0  0  0
  1 31  1  0  0  0  0
  2  3  2  0  0  0  0
  2 32  1  0  0  0  0
  3  4  1  0  0  0  0
  3 33  1  0  0  0  0
  4  5  1  0  0  0  0
  4 29  2  0  0  0  0
  5  6  1  0  0  0  0
  5 28  1  0  0  0  0
  6  7  2  0  0  0  0
  6 34  1  0  0  0  0
  7  8  1  0  0  0  0
  8  9  1  0  0  0  0
  8 28  2  0  0  0  0
  9 10  2  0  0  0  0
  9 35  1  0  0  0  0
 10 11  1  0  0  0  0
 10 26  1  0  0  0  0
 11 12  1  0  0  0  0
 11 25  2  0  0  0  0
 12 13  2  0  0  0  0
 12 36  1  0  0  0  0
 13 14  1  0  0  0  0
 13 37  1  0  0  0  0
 14 15  1  0  0  0  0
 14 24  2  0  0  0  0
 15 16  1  0  0  0  0
 16 17  1  0  0  0  0
 16 38  1  0  0  0  0
 16 39  1  0  0  0  0
 17 18  1  0  0  0  0
 17 40  1  0  0  0  0
 17 41  1  0  0  0  0
 18 19  1  0  0  0  0
 18 23  1  0  0  0  0
 19 20  1  0  0  0  0
 19 42  1  0  0  0  0
 19 43  1  0  0  0  0
 20 21  1  0  0  0  0
 20 44  1  0  0  0  0
 20 45  1  0  0  0  0
 21 22  1  0  0  0  0
 21 46  1  0  0  0  0
 21 47  1  0  0  0  0
 22 23  1  0  0  0  0
 22 48  1  0  0  0  0
 22 49  1  0  0  0  0
 23 50  1  0  0  0  0
 23 51  1  0  0  0  0
 24 25  1  0  0  0  0
 24 52  1  0  0  0  0
 25 53  1  0  0  0  0
 26 27  2  0  0  0  0
 26 54  1  0  0  0  0
 27 28  1  0  0  0  0
 29 30  1  0  0  0  0
 29 55  1  0  0  0  0
 30 56  1  0  0  0  0
M  END
$$$$
