CHEMBL246165
 OpenBabel04072215363D

 32 34  0  0  0  0  0  0  0  0999 V2000
    1.4573   -0.4622   -0.9571 F   0  0  0  0  0  0  0  0  0  0  0  0
    1.6588   -0.2621    0.3747 C   0  0  0  0  0  0  0  0  0  0  0  0
    2.2592    0.9517    0.4937 F   0  0  0  0  0  0  0  0  0  0  0  0
    0.4274   -0.1530    0.9397 F   0  0  0  0  0  0  0  0  0  0  0  0
    2.4771   -1.3607    0.9899 C   0  0  0  0  0  0  0  0  0  0  0  0
    3.0425   -2.4688    0.3798 C   0  0  0  0  0  0  0  0  0  0  0  0
    3.7477   -3.1102    1.3589 N   0  0  0  0  0  0  0  0  0  0  0  0
    3.5658   -2.4281    2.5328 C   0  0  0  0  0  0  0  0  0  0  0  0
    4.1955   -2.8549    3.8216 C   0  0  0  0  0  0  0  0  0  0  0  0
    5.0636   -3.8813    3.8521 N   0  0  0  0  0  0  0  0  0  0  0  0
    5.4274   -3.9496    5.1442 N   0  0  0  0  0  0  0  0  0  0  0  0
    4.8045   -3.0350    5.9418 C   0  0  0  0  0  0  0  0  0  0  0  0
    3.9818   -2.3048    5.1143 C   0  0  0  0  0  0  0  0  0  0  0  0
    3.0826   -1.2636    5.4968 C   0  0  0  0  0  0  0  0  0  0  0  0
    2.8261   -0.8478    6.7478 C   0  0  0  0  0  0  0  0  0  0  0  0
    1.8180    0.1702    7.0788 C   0  0  0  0  0  0  0  0  0  0  0  0
    0.6449    0.3527    6.3393 C   0  0  0  0  0  0  0  0  0  0  0  0
   -0.2967    1.2964    6.7443 C   0  0  0  0  0  0  0  0  0  0  0  0
   -0.0429    2.0263    7.8931 C   0  0  0  0  0  0  0  0  0  0  0  0
    1.0663    1.8746    8.6464 N   0  0  0  0  0  0  0  0  0  0  0  0
    1.9641    0.9514    8.2233 C   0  0  0  0  0  0  0  0  0  0  0  0
    2.7927   -1.3787    2.3438 N   0  0  0  0  0  0  0  0  0  0  0  0
    3.0167   -2.8252   -0.6406 H   0  0  0  0  0  0  0  0  0  0  0  0
    4.3105   -3.9469    1.2790 H   0  0  0  0  0  0  0  0  0  0  0  0
    6.1036   -4.6554    5.4188 H   0  0  0  0  0  0  0  0  0  0  0  0
    4.9960   -3.0002    7.0048 H   0  0  0  0  0  0  0  0  0  0  0  0
    2.5414   -0.7892    4.6808 H   0  0  0  0  0  0  0  0  0  0  0  0
    3.3579   -1.2739    7.5939 H   0  0  0  0  0  0  0  0  0  0  0  0
    0.4405   -0.2407    5.4514 H   0  0  0  0  0  0  0  0  0  0  0  0
   -1.2090    1.4503    6.1790 H   0  0  0  0  0  0  0  0  0  0  0  0
   -0.7495    2.7693    8.2504 H   0  0  0  0  0  0  0  0  0  0  0  0
    2.8402    0.8575    8.8596 H   0  0  0  0  0  0  0  0  0  0  0  0
  1  2  1  0  0  0  0
  2  3  1  0  0  0  0
  2  4  1  0  0  0  0
  2  5  1  0  0  0  0
  5  6  2  0  0  0  0
  5 22  1  0  0  0  0
  6  7  1  0  0  0  0
  6 23  1  0  0  0  0
  7  8  1  0  0  0  0
  7 24  1  0  0  0  0
  8  9  1  0  0  0  0
  8 22  2  0  0  0  0
  9 10  2  0  0  0  0
  9 13  1  0  0  0  0
 10 11  1  0  0  0  0
 11 12  1  0  0  0  0
 11 25  1  0  0  0  0
 12 13  2  0  0  0  0
 12 26  1  0  0  0  0
 13 14  1  0  0  0  0
 14 15  2  0  0  0  0
 14 27  1  0  0  0  0
 15 16  1  0  0  0  0
 15 28  1  0  0  0  0
 16 17  1  0  0  0  0
 16 21  2  0  0  0  0
 17 18  2  0  0  0  0
 17 29  1  0  0  0  0
 18 19  1  0  0  0  0
 18 30  1  0  0  0  0
 19 20  2  0  0  0  0
 19 31  1  0  0  0  0
 20 21  1  0  0  0  0
 21 32  1  0  0  0  0
M  END
$$$$
