CHEMBL1761942
 OpenBabel04072215363D

 57 61  0  0  0  0  0  0  0  0999 V2000
    9.8150   -4.4543   -2.8364 C   0  0  0  0  0  0  0  0  0  0  0  0
    9.8344   -3.7365   -4.0746 O   0  0  0  0  0  0  0  0  0  0  0  0
    8.7814   -2.8880   -4.2925 C   0  0  0  0  0  0  0  0  0  0  0  0
    8.0943   -2.2851   -3.2228 C   0  0  0  0  0  0  0  0  0  0  0  0
    6.9435   -1.5393   -3.4027 C   0  0  0  0  0  0  0  0  0  0  0  0
    6.3184   -1.0856   -2.3115 N   0  0  0  0  0  0  0  0  0  0  0  0
    5.1616   -0.4520   -2.4949 C   0  0  0  0  0  0  0  0  0  0  0  0
    4.5800   -0.2142   -3.6708 N   0  0  0  0  0  0  0  0  0  0  0  0
    5.2771   -0.6043   -4.7633 C   0  0  0  0  0  0  0  0  0  0  0  0
    4.7349   -0.3340   -6.0257 O   0  0  0  0  0  0  0  0  0  0  0  0
    3.8401    0.7122   -6.1327 C   0  0  0  0  0  0  0  0  0  0  0  0
    4.0829    1.9273   -5.4766 C   0  0  0  0  0  0  0  0  0  0  0  0
    3.1063    2.9264   -5.4921 C   0  0  0  0  0  0  0  0  0  0  0  0
    1.9104    2.7682   -6.1983 C   0  0  0  0  0  0  0  0  0  0  0  0
    0.8727    3.7346   -6.1692 N   0  0  0  0  0  0  0  0  0  0  0  0
    0.9600    4.9959   -5.5848 C   0  0  0  0  0  0  0  0  0  0  0  0
    2.0020    5.5352   -5.2325 O   0  0  0  0  0  0  0  0  0  0  0  0
   -0.2943    5.5515   -5.3893 N   0  0  0  0  0  0  0  0  0  0  0  0
   -0.5360    6.7718   -4.7124 C   0  0  0  0  0  0  0  0  0  0  0  0
   -1.7675    6.8898   -4.0687 C   0  0  0  0  0  0  0  0  0  0  0  0
   -2.1192    8.0816   -3.4421 C   0  0  0  0  0  0  0  0  0  0  0  0
   -1.2131    9.1448   -3.3748 C   0  0  0  0  0  0  0  0  0  0  0  0
   -1.5823   10.3460   -2.7672 C   0  0  0  0  0  0  0  0  0  0  0  0
   -0.6090   11.1846   -2.2438 C   0  0  0  0  0  0  0  0  0  0  0  0
    0.7146   10.9964   -2.6177 C   0  0  0  0  0  0  0  0  0  0  0  0
    1.0437    9.9775   -3.5221 C   0  0  0  0  0  0  0  0  0  0  0  0
    0.0953    8.9852   -3.8583 C   0  0  0  0  0  0  0  0  0  0  0  0
    0.3889    7.8260   -4.6165 C   0  0  0  0  0  0  0  0  0  0  0  0
    1.7156    1.5790   -6.9138 C   0  0  0  0  0  0  0  0  0  0  0  0
    2.6794    0.5549   -6.8710 C   0  0  0  0  0  0  0  0  0  0  0  0
    6.4825   -1.3091   -4.7001 C   0  0  0  0  0  0  0  0  0  0  0  0
    7.2376   -1.7948   -5.7914 C   0  0  0  0  0  0  0  0  0  0  0  0
    8.3686   -2.6009   -5.6020 C   0  0  0  0  0  0  0  0  0  0  0  0
    8.8927   -3.0174   -6.7911 O   0  0  0  0  0  0  0  0  0  0  0  0
    9.9170   -3.9887   -6.8217 C   0  0  0  0  0  0  0  0  0  0  0  0
   10.3062   -5.4201   -2.9937 H   0  0  0  0  0  0  0  0  0  0  0  0
    8.8015   -4.6648   -2.4700 H   0  0  0  0  0  0  0  0  0  0  0  0
   10.3834   -3.8998   -2.0839 H   0  0  0  0  0  0  0  0  0  0  0  0
    8.4476   -2.4038   -2.2018 H   0  0  0  0  0  0  0  0  0  0  0  0
    4.6401   -0.1072   -1.6101 H   0  0  0  0  0  0  0  0  0  0  0  0
    4.9981    2.1056   -4.9039 H   0  0  0  0  0  0  0  0  0  0  0  0
    3.3044    3.8137   -4.8994 H   0  0  0  0  0  0  0  0  0  0  0  0
    0.0331    3.5280   -6.6931 H   0  0  0  0  0  0  0  0  0  0  0  0
   -1.0729    4.9109   -5.4384 H   0  0  0  0  0  0  0  0  0  0  0  0
   -2.4482    6.0455   -4.0041 H   0  0  0  0  0  0  0  0  0  0  0  0
   -3.0663    8.1408   -2.9109 H   0  0  0  0  0  0  0  0  0  0  0  0
   -2.6283   10.6335   -2.7133 H   0  0  0  0  0  0  0  0  0  0  0  0
   -0.8937   11.9834   -1.5644 H   0  0  0  0  0  0  0  0  0  0  0  0
    1.4788   11.6687   -2.2362 H   0  0  0  0  0  0  0  0  0  0  0  0
    2.0621    9.9218   -3.8988 H   0  0  0  0  0  0  0  0  0  0  0  0
    1.3578    7.7545   -5.1048 H   0  0  0  0  0  0  0  0  0  0  0  0
    0.8145    1.4103   -7.4954 H   0  0  0  0  0  0  0  0  0  0  0  0
    2.5207   -0.3689   -7.4205 H   0  0  0  0  0  0  0  0  0  0  0  0
    6.9039   -1.5890   -6.8078 H   0  0  0  0  0  0  0  0  0  0  0  0
    9.9650   -4.3670   -7.8501 H   0  0  0  0  0  0  0  0  0  0  0  0
    9.7025   -4.8509   -6.1851 H   0  0  0  0  0  0  0  0  0  0  0  0
   10.8860   -3.5350   -6.5929 H   0  0  0  0  0  0  0  0  0  0  0  0
  1  2  1  0  0  0  0
  1 36  1  0  0  0  0
  1 37  1  0  0  0  0
  1 38  1  0  0  0  0
  2  3  1  0  0  0  0
  3  4  1  0  0  0  0
  3 33  2  0  0  0  0
  4  5  2  0  0  0  0
  4 39  1  0  0  0  0
  5  6  1  0  0  0  0
  5 31  1  0  0  0  0
  6  7  2  0  0  0  0
  7  8  1  0  0  0  0
  7 40  1  0  0  0  0
  8  9  2  0  0  0  0
  9 10  1  0  0  0  0
  9 31  1  0  0  0  0
 10 11  1  0  0  0  0
 11 12  1  0  0  0  0
 11 30  2  0  0  0  0
 12 13  2  0  0  0  0
 12 41  1  0  0  0  0
 13 14  1  0  0  0  0
 13 42  1  0  0  0  0
 14 15  1  0  0  0  0
 14 29  2  0  0  0  0
 15 16  1  0  0  0  0
 15 43  1  0  0  0  0
 16 17  2  0  0  0  0
 16 18  1  0  0  0  0
 18 19  1  0  0  0  0
 18 44  1  0  0  0  0
 19 20  1  0  0  0  0
 19 28  2  0  0  0  0
 20 21  2  0  0  0  0
 20 45  1  0  0  0  0
 21 22  1  0  0  0  0
 21 46  1  0  0  0  0
 22 23  1  0  0  0  0
 22 27  2  0  0  0  0
 23 24  2  0  0  0  0
 23 47  1  0  0  0  0
 24 25  1  0  0  0  0
 24 48  1  0  0  0  0
 25 26  2  0  0  0  0
 25 49  1  0  0  0  0
 26 27  1  0  0  0  0
 26 50  1  0  0  0  0
 27 28  1  0  0  0  0
 28 51  1  0  0  0  0
 29 30  1  0  0  0  0
 29 52  1  0  0  0  0
 30 53  1  0  0  0  0
 31 32  2  0  0  0  0
 32 33  1  0  0  0  0
 32 54  1  0  0  0  0
 33 34  1  0  0  0  0
 34 35  1  0  0  0  0
 35 55  1  0  0  0  0
 35 56  1  0  0  0  0
 35 57  1  0  0  0  0
M  END
$$$$
