CHEMBL3927451
 OpenBabel04072215373D

 73 77  0  0  1  0  0  0  0  0999 V2000
    0.4155    2.8063   -2.6889 C   0  0  0  0  0  0  0  0  0  0  0  0
    1.7640    3.1992   -2.9618 O   0  0  0  0  0  0  0  0  0  0  0  0
    2.7324    2.5267   -2.2541 C   0  0  0  0  0  0  0  0  0  0  0  0
    2.4843    1.9207   -1.0207 C   0  0  0  0  0  0  0  0  0  0  0  0
    3.4981    1.2429   -0.3644 C   0  0  0  0  0  0  0  0  0  0  0  0
    3.3529    0.5577    0.8148 O   0  0  0  0  0  0  0  0  0  0  0  0
    2.0609    0.5914    1.4205 C   0  0  0  0  0  0  0  0  0  0  0  0
    4.7745    1.2164   -0.9430 C   0  0  0  0  0  0  0  0  0  0  0  0
    5.0643    1.7742   -2.2129 C   0  0  0  0  0  0  0  0  0  0  0  0
    6.3191    1.5285   -2.8456 N   0  0  0  0  0  0  0  0  0  0  0  0
    6.8099    0.0522   -2.7080 C   0  0  0  0  0  0  0  0  0  0  0  0
    5.9021   -1.1787   -2.3636 C   0  0  0  0  0  0  0  0  0  0  0  0
    4.8205   -1.6604   -3.3503 C   0  0  0  0  0  0  0  0  0  0  0  0
    4.0056   -2.8074   -2.8347 N   0  0  0  0  0  0  0  0  0  0  0  0
    4.7754   -4.0371   -2.5214 C   0  0  1  0  0  0  0  0  0  0  0  0
    5.1443   -4.1423   -1.0389 C   0  0  0  0  0  0  0  0  0  0  0  0
    3.8744   -5.2279   -2.8942 C   0  0  0  0  0  0  0  0  0  0  0  0
    2.5635   -4.6138   -3.3325 C   0  0  0  0  0  0  0  0  0  0  0  0
    2.9599   -3.2176   -3.8001 C   0  0  1  0  0  0  0  0  0  0  0  0
    1.7437   -2.2980   -3.8181 C   0  0  0  0  0  0  0  0  0  0  0  0
    7.0581    2.2836   -3.8631 C   0  0  0  0  0  0  0  0  0  0  0  0
    7.2959    1.5636   -5.0133 C   0  0  0  0  0  0  0  0  0  0  0  0
    8.4743    1.7618   -5.6599 C   0  0  0  0  0  0  0  0  0  0  0  0
    9.3441    2.7710   -5.4064 C   0  0  0  0  0  0  0  0  0  0  0  0
   10.4151    2.3934   -6.0079 N   0  0  0  0  0  0  0  0  0  0  0  0
   11.1832    3.3043   -6.4840 C   0  0  0  0  0  0  0  0  0  0  0  0
   11.1021    4.6705   -6.1847 C   0  0  0  0  0  0  0  0  0  0  0  0
   12.2404    5.3364   -6.9968 C   0  0  0  0  0  0  0  0  0  0  0  0
   12.3262    6.1333   -8.1873 C   0  0  0  0  0  0  0  0  0  0  0  0
   13.4541    5.9698   -8.9114 N   0  0  0  0  0  0  0  0  0  0  0  0
   14.1254    5.0146   -8.2635 N   0  0  0  0  0  0  0  0  0  0  0  0
   15.3214    4.3841   -8.8088 C   0  0  0  0  0  0  0  0  0  0  0  0
   13.4684    4.6420   -7.1153 C   0  0  0  0  0  0  0  0  0  0  0  0
   10.0627    5.0348   -5.3071 N   0  0  0  0  0  0  0  0  0  0  0  0
    9.0501    3.9699   -4.7730 C   0  0  0  0  0  0  0  0  0  0  0  0
    7.7998    3.5596   -3.8156 C   0  0  0  0  0  0  0  0  0  0  0  0
    4.0199    2.4703   -2.8350 C   0  0  0  0  0  0  0  0  0  0  0  0
   -0.2449    3.3603   -3.3615 H   0  0  0  0  0  0  0  0  0  0  0  0
    0.1072    3.0600   -1.6680 H   0  0  0  0  0  0  0  0  0  0  0  0
    0.2749    1.7361   -2.8812 H   0  0  0  0  0  0  0  0  0  0  0  0
    1.5060    1.9860   -0.5675 H   0  0  0  0  0  0  0  0  0  0  0  0
    2.0893   -0.0120    2.3329 H   0  0  0  0  0  0  0  0  0  0  0  0
    1.2932    0.1594    0.7670 H   0  0  0  0  0  0  0  0  0  0  0  0
    1.7986    1.6154    1.7077 H   0  0  0  0  0  0  0  0  0  0  0  0
    5.5546    0.7018   -0.3862 H   0  0  0  0  0  0  0  0  0  0  0  0
    7.5863    0.0846   -1.9335 H   0  0  0  0  0  0  0  0  0  0  0  0
    7.3448   -0.2845   -3.6011 H   0  0  0  0  0  0  0  0  0  0  0  0
    5.4666   -1.1100   -1.3666 H   0  0  0  0  0  0  0  0  0  0  0  0
    6.6167   -2.0121   -2.2822 H   0  0  0  0  0  0  0  0  0  0  0  0
    5.2896   -1.9451   -4.3007 H   0  0  0  0  0  0  0  0  0  0  0  0
    4.1491   -0.8215   -3.5548 H   0  0  0  0  0  0  0  0  0  0  0  0
    5.6853   -4.1003   -3.1305 H   0  0  0  0  0  0  0  0  0  0  0  0
    4.2540   -4.1353   -0.3999 H   0  0  0  0  0  0  0  0  0  0  0  0
    5.7980   -3.3338   -0.7075 H   0  0  0  0  0  0  0  0  0  0  0  0
    5.6794   -5.0810   -0.8498 H   0  0  0  0  0  0  0  0  0  0  0  0
    3.7121   -5.9377   -2.0741 H   0  0  0  0  0  0  0  0  0  0  0  0
    4.3202   -5.7864   -3.7259 H   0  0  0  0  0  0  0  0  0  0  0  0
    1.8687   -4.5766   -2.4835 H   0  0  0  0  0  0  0  0  0  0  0  0
    2.0886   -5.2029   -4.1252 H   0  0  0  0  0  0  0  0  0  0  0  0
    3.3803   -3.2955   -4.8118 H   0  0  0  0  0  0  0  0  0  0  0  0
    1.2744   -2.2304   -2.8300 H   0  0  0  0  0  0  0  0  0  0  0  0
    0.9895   -2.6792   -4.5164 H   0  0  0  0  0  0  0  0  0  0  0  0
    2.0068   -1.2862   -4.1380 H   0  0  0  0  0  0  0  0  0  0  0  0
    6.7573    0.6849   -5.2824 H   0  0  0  0  0  0  0  0  0  0  0  0
    8.7801    1.0400   -6.3925 H   0  0  0  0  0  0  0  0  0  0  0  0
   11.8918    2.8939   -7.1757 H   0  0  0  0  0  0  0  0  0  0  0  0
   11.5808    6.7871   -8.6420 H   0  0  0  0  0  0  0  0  0  0  0  0
   15.5662    4.7940   -9.7931 H   0  0  0  0  0  0  0  0  0  0  0  0
   15.1655    3.3024   -8.9070 H   0  0  0  0  0  0  0  0  0  0  0  0
   16.1577    4.5620   -8.1211 H   0  0  0  0  0  0  0  0  0  0  0  0
   13.8393    3.7683   -6.5756 H   0  0  0  0  0  0  0  0  0  0  0  0
    7.5118    4.2792   -3.0318 H   0  0  0  0  0  0  0  0  0  0  0  0
    4.1702    2.9167   -3.8129 H   0  0  0  0  0  0  0  0  0  0  0  0
  1  2  1  0  0  0  0
  1 38  1  0  0  0  0
  1 39  1  0  0  0  0
  1 40  1  0  0  0  0
  2  3  1  0  0  0  0
  3  4  1  0  0  0  0
  3 37  2  0  0  0  0
  4  5  2  0  0  0  0
  4 41  1  0  0  0  0
  5  6  1  0  0  0  0
  5  8  1  0  0  0  0
  6  7  1  0  0  0  0
  7 42  1  0  0  0  0
  7 43  1  0  0  0  0
  7 44  1  0  0  0  0
  8  9  2  0  0  0  0
  8 45  1  0  0  0  0
  9 10  1  0  0  0  0
  9 37  1  0  0  0  0
 10 11  1  0  0  0  0
 10 21  1  0  0  0  0
 11 12  1  0  0  0  0
 11 46  1  0  0  0  0
 11 47  1  0  0  0  0
 12 13  1  0  0  0  0
 12 48  1  0  0  0  0
 12 49  1  0  0  0  0
 13 14  1  0  0  0  0
 13 50  1  0  0  0  0
 13 51  1  0  0  0  0
 14 15  1  0  0  0  0
 14 19  1  0  0  0  0
 15 16  1  0  0  0  0
 15 17  1  0  0  0  0
 15 52  1  6  0  0  0
 16 53  1  0  0  0  0
 16 54  1  0  0  0  0
 16 55  1  0  0  0  0
 17 18  1  0  0  0  0
 17 56  1  0  0  0  0
 17 57  1  0  0  0  0
 18 19  1  0  0  0  0
 18 58  1  0  0  0  0
 18 59  1  0  0  0  0
 19 20  1  0  0  0  0
 19 60  1  6  0  0  0
 20 61  1  0  0  0  0
 20 62  1  0  0  0  0
 20 63  1  0  0  0  0
 21 22  1  0  0  0  0
 21 36  2  0  0  0  0
 22 23  2  0  0  0  0
 22 64  1  0  0  0  0
 23 24  1  0  0  0  0
 23 65  1  0  0  0  0
 24 25  1  0  0  0  0
 24 35  2  0  0  0  0
 25 26  2  0  0  0  0
 26 27  1  0  0  0  0
 26 66  1  0  0  0  0
 27 28  1  0  0  0  0
 27 34  2  0  0  0  0
 28 29  1  0  0  0  0
 28 33  2  0  0  0  0
 29 30  2  0  0  0  0
 29 67  1  0  0  0  0
 30 31  1  0  0  0  0
 31 32  1  0  0  0  0
 31 33  1  0  0  0  0
 32 68  1  0  0  0  0
 32 69  1  0  0  0  0
 32 70  1  0  0  0  0
 33 71  1  0  0  0  0
 34 35  1  0  0  0  0
 35 36  1  0  0  0  0
 36 72  1  0  0  0  0
 37 73  1  0  0  0  0
M  END
$$$$
