CHEMBL3657558
 OpenBabel04072215373D

 61 65  0  0  1  0  0  0  0  0999 V2000
    2.7302   -2.0145   -0.6820 C   0  0  0  0  0  0  0  0  0  0  0  0
    3.1482   -0.6805   -0.1757 C   0  0  0  0  0  0  0  0  0  0  0  0
    4.3263   -0.1561   -0.5420 N   0  0  0  0  0  0  0  0  0  0  0  0
    4.4117    1.0167    0.1444 N   0  0  0  0  0  0  0  0  0  0  0  0
    5.5361    1.9044    0.0226 C   0  0  0  0  0  0  0  0  0  0  0  0
    6.5374    1.5932   -0.8685 C   0  0  0  0  0  0  0  0  0  0  0  0
    7.5953    2.4715   -0.9018 C   0  0  0  0  0  0  0  0  0  0  0  0
    7.6741    3.5739   -0.1334 N   0  0  0  0  0  0  0  0  0  0  0  0
    6.6448    3.8333    0.6859 C   0  0  0  0  0  0  0  0  0  0  0  0
    6.7432    5.0511    1.3803 N   0  0  0  0  0  0  0  0  0  0  0  0
    5.8620    5.7677    2.2041 C   0  0  0  0  0  0  0  0  0  0  0  0
    6.0709    7.1360    2.4867 C   0  0  0  0  0  0  0  0  0  0  0  0
    5.1581    7.9147    3.2256 C   0  0  0  0  0  0  0  0  0  0  0  0
    4.0492    7.2677    3.7813 C   0  0  0  0  0  0  0  0  0  0  0  0
    3.8693    5.9050    3.5993 C   0  0  0  0  0  0  0  0  0  0  0  0
    4.7120    5.1946    2.7217 C   0  0  0  0  0  0  0  0  0  0  0  0
    2.7214    5.5961    4.3582 C   0  0  0  0  0  0  0  0  0  0  0  0
    1.9003    4.1298    4.1187 S   0  0  0  0  0  0  0  0  0  0  0  0
    2.9915    2.7769    4.4367 C   0  0  0  0  0  0  0  0  0  0  0  0
    0.8214    4.0404    5.0901 O   0  0  0  0  0  0  0  0  0  0  0  0
    1.6572    4.2553    2.7004 O   0  0  0  0  0  0  0  0  0  0  0  0
    2.1876    6.6654    4.9532 N   0  0  0  0  0  0  0  0  0  0  0  0
    2.9381    7.6766    4.4890 N   0  0  0  0  0  0  0  0  0  0  0  0
    2.4554    9.0144    4.7305 C   0  0  0  0  0  0  0  0  0  0  0  0
    5.5718    3.0235    0.7996 N   0  0  0  0  0  0  0  0  0  0  0  0
    3.3056    1.1918    0.9471 C   0  0  0  0  0  0  0  0  0  0  0  0
    2.4105    0.1595    0.7121 C   0  0  0  0  0  0  0  0  0  0  0  0
    1.0019   -0.1223    1.2089 C   0  0  0  0  0  0  0  0  0  0  0  0
    0.4924    0.8750    2.1663 N   0  0  0  0  0  0  0  0  0  0  0  0
    0.2512    2.1564    1.4818 C   0  0  0  0  0  0  0  0  0  0  0  0
   -1.0333    2.7764    2.0310 C   0  0  2  0  0  0  0  0  0  0  0  0
   -0.9678    3.6161    3.1778 O   0  0  0  0  0  0  0  0  0  0  0  0
   -1.8489    1.5516    2.3979 C   0  0  2  0  0  0  0  0  0  0  0  0
   -2.7574    1.8409    3.4709 O   0  0  0  0  0  0  0  0  0  0  0  0
   -0.7942    0.5072    2.7941 C   0  0  0  0  0  0  0  0  0  0  0  0
    3.5204   -2.4947   -1.2668 H   0  0  0  0  0  0  0  0  0  0  0  0
    1.8374   -1.9279   -1.3087 H   0  0  0  0  0  0  0  0  0  0  0  0
    2.4941   -2.6709    0.1630 H   0  0  0  0  0  0  0  0  0  0  0  0
    6.5088    0.7299   -1.5240 H   0  0  0  0  0  0  0  0  0  0  0  0
    8.4320    2.3176   -1.5747 H   0  0  0  0  0  0  0  0  0  0  0  0
    7.6313    5.4857    1.1618 H   0  0  0  0  0  0  0  0  0  0  0  0
    6.9716    7.6165    2.1061 H   0  0  0  0  0  0  0  0  0  0  0  0
    5.3204    8.9779    3.3625 H   0  0  0  0  0  0  0  0  0  0  0  0
    4.4643    4.1793    2.4541 H   0  0  0  0  0  0  0  0  0  0  0  0
    3.1845    2.7405    5.5074 H   0  0  0  0  0  0  0  0  0  0  0  0
    3.9243    2.8561    3.8856 H   0  0  0  0  0  0  0  0  0  0  0  0
    2.4842    1.8577    4.1270 H   0  0  0  0  0  0  0  0  0  0  0  0
    1.4446    8.9582    5.1510 H   0  0  0  0  0  0  0  0  0  0  0  0
    2.4111    9.5595    3.7850 H   0  0  0  0  0  0  0  0  0  0  0  0
    3.1257    9.4902    5.4457 H   0  0  0  0  0  0  0  0  0  0  0  0
    3.2381    2.0783    1.5622 H   0  0  0  0  0  0  0  0  0  0  0  0
    1.0052   -1.1155    1.6731 H   0  0  0  0  0  0  0  0  0  0  0  0
    0.3350   -0.1818    0.3368 H   0  0  0  0  0  0  0  0  0  0  0  0
    0.1343    2.0329    0.4016 H   0  0  0  0  0  0  0  0  0  0  0  0
    1.1514    2.7245    1.5912 H   0  0  0  0  0  0  0  0  0  0  0  0
   -1.5132    3.3798    1.2566 H   0  0  0  0  0  0  0  0  0  0  0  0
   -0.4494    3.1882    3.8887 H   0  0  0  0  0  0  0  0  0  0  0  0
   -2.4165    1.2036    1.5333 H   0  0  0  0  0  0  0  0  0  0  0  0
   -2.5156    2.7498    3.7742 H   0  0  0  0  0  0  0  0  0  0  0  0
   -1.1409   -0.5010    2.5442 H   0  0  0  0  0  0  0  0  0  0  0  0
   -0.6557    0.5231    3.8814 H   0  0  0  0  0  0  0  0  0  0  0  0
  1  2  1  0  0  0  0
  1 36  1  0  0  0  0
  1 37  1  0  0  0  0
  1 38  1  0  0  0  0
  2  3  2  0  0  0  0
  2 27  1  0  0  0  0
  3  4  1  0  0  0  0
  4  5  1  0  0  0  0
  4 26  1  0  0  0  0
  5  6  1  0  0  0  0
  5 25  2  0  0  0  0
  6  7  2  0  0  0  0
  6 39  1  0  0  0  0
  7  8  1  0  0  0  0
  7 40  1  0  0  0  0
  8  9  2  0  0  0  0
  9 10  1  0  0  0  0
  9 25  1  0  0  0  0
 10 11  1  0  0  0  0
 10 41  1  0  0  0  0
 11 12  1  0  0  0  0
 11 16  2  0  0  0  0
 12 13  2  0  0  0  0
 12 42  1  0  0  0  0
 13 14  1  0  0  0  0
 13 43  1  0  0  0  0
 14 15  2  0  0  0  0
 14 23  1  0  0  0  0
 15 16  1  0  0  0  0
 15 17  1  0  0  0  0
 16 44  1  0  0  0  0
 17 18  1  0  0  0  0
 17 22  2  0  0  0  0
 18 19  1  0  0  0  0
 18 20  2  0  0  0  0
 18 21  2  0  0  0  0
 19 45  1  0  0  0  0
 19 46  1  0  0  0  0
 19 47  1  0  0  0  0
 22 23  1  0  0  0  0
 23 24  1  0  0  0  0
 24 48  1  0  0  0  0
 24 49  1  0  0  0  0
 24 50  1  0  0  0  0
 26 27  2  0  0  0  0
 26 51  1  0  0  0  0
 27 28  1  0  0  0  0
 28 29  1  0  0  0  0
 28 52  1  0  0  0  0
 28 53  1  0  0  0  0
 29 30  1  0  0  0  0
 29 35  1  0  0  0  0
 30 31  1  0  0  0  0
 30 54  1  0  0  0  0
 30 55  1  0  0  0  0
 31 32  1  0  0  0  0
 31 33  1  0  0  0  0
 31 56  1  6  0  0  0
 32 57  1  0  0  0  0
 33 34  1  0  0  0  0
 33 35  1  0  0  0  0
 33 58  1  6  0  0  0
 34 59  1  0  0  0  0
 35 60  1  0  0  0  0
 35 61  1  0  0  0  0
M  END
$$$$
