CHEMBL223147
 OpenBabel04072215363D

 50 54  0  0  0  0  0  0  0  0999 V2000
    3.4966   -0.3898   -0.8789 C   0  0  0  0  0  0  0  0  0  0  0  0
    2.5894    0.1620    0.2094 C   0  0  0  0  0  0  0  0  0  0  0  0
    3.0426    1.4464    0.6917 N   0  0  0  0  0  0  0  0  0  0  0  0
    2.5670    2.6681    0.2405 C   0  0  0  0  0  0  0  0  0  0  0  0
    1.6870    2.8383   -0.5951 O   0  0  0  0  0  0  0  0  0  0  0  0
    3.3572    3.7787    0.9832 C   0  0  0  0  0  0  0  0  0  0  0  0
    4.0528    4.6346   -0.0781 C   0  0  0  0  0  0  0  0  0  0  0  0
    2.3624    4.6002    1.8023 C   0  0  0  0  0  0  0  0  0  0  0  0
    4.3174    2.9704    1.8494 C   0  0  0  0  0  0  0  0  0  0  0  0
    5.2977    3.3636    2.7749 C   0  0  0  0  0  0  0  0  0  0  0  0
    6.0356    2.3237    3.4007 C   0  0  0  0  0  0  0  0  0  0  0  0
    7.0525    2.3212    4.3482 N   0  0  0  0  0  0  0  0  0  0  0  0
    7.5113    1.0351    4.5614 C   0  0  0  0  0  0  0  0  0  0  0  0
    6.8244    0.1892    3.7243 C   0  0  0  0  0  0  0  0  0  0  0  0
    5.8277    0.9769    3.0858 C   0  0  0  0  0  0  0  0  0  0  0  0
    4.8040    0.6127    2.2025 C   0  0  0  0  0  0  0  0  0  0  0  0
    4.0783    1.6196    1.6080 C   0  0  0  0  0  0  0  0  0  0  0  0
    7.0262   -1.2557    3.4818 C   0  0  0  0  0  0  0  0  0  0  0  0
    8.3747   -1.9523    3.6693 C   0  0  0  0  0  0  0  0  0  0  0  0
    9.5974   -1.5024    4.4732 C   0  0  0  0  0  0  0  0  0  0  0  0
    9.7347   -0.0832    4.9380 C   0  0  0  0  0  0  0  0  0  0  0  0
   10.6436    0.3549    5.9484 C   0  0  0  0  0  0  0  0  0  0  0  0
   11.6448    1.4618    5.8165 C   0  0  0  0  0  0  0  0  0  0  0  0
    9.9689    0.2682    7.1119 N   0  0  0  0  0  0  0  0  0  0  0  0
    8.6901    0.4209    6.6789 N   0  0  0  0  0  0  0  0  0  0  0  0
    8.6475    0.6881    5.3199 C   0  0  0  0  0  0  0  0  0  0  0  0
    3.0861   -1.3212   -1.2790 H   0  0  0  0  0  0  0  0  0  0  0  0
    4.5000   -0.6021   -0.4948 H   0  0  0  0  0  0  0  0  0  0  0  0
    3.6031    0.3261   -1.7001 H   0  0  0  0  0  0  0  0  0  0  0  0
    2.5217   -0.5360    1.0517 H   0  0  0  0  0  0  0  0  0  0  0  0
    1.5766    0.2783   -0.1901 H   0  0  0  0  0  0  0  0  0  0  0  0
    3.3143    5.1080   -0.7388 H   0  0  0  0  0  0  0  0  0  0  0  0
    4.7029    4.0279   -0.7202 H   0  0  0  0  0  0  0  0  0  0  0  0
    4.6615    5.4289    0.3655 H   0  0  0  0  0  0  0  0  0  0  0  0
    1.5856    5.0272    1.1556 H   0  0  0  0  0  0  0  0  0  0  0  0
    2.8527    5.4249    2.3290 H   0  0  0  0  0  0  0  0  0  0  0  0
    1.8497    3.9790    2.5459 H   0  0  0  0  0  0  0  0  0  0  0  0
    5.4872    4.4079    2.9977 H   0  0  0  0  0  0  0  0  0  0  0  0
    7.4673    3.1575    4.7473 H   0  0  0  0  0  0  0  0  0  0  0  0
    4.6187   -0.4309    1.9892 H   0  0  0  0  0  0  0  0  0  0  0  0
    6.7871   -1.4128    2.4177 H   0  0  0  0  0  0  0  0  0  0  0  0
    6.2380   -1.8017    4.0158 H   0  0  0  0  0  0  0  0  0  0  0  0
    8.1139   -2.9447    4.0667 H   0  0  0  0  0  0  0  0  0  0  0  0
    8.7502   -2.1561    2.6597 H   0  0  0  0  0  0  0  0  0  0  0  0
   10.4972   -1.7774    3.9055 H   0  0  0  0  0  0  0  0  0  0  0  0
    9.6464   -2.1401    5.3699 H   0  0  0  0  0  0  0  0  0  0  0  0
   11.3355    2.1418    5.0128 H   0  0  0  0  0  0  0  0  0  0  0  0
   12.6460    1.0907    5.5892 H   0  0  0  0  0  0  0  0  0  0  0  0
   11.6882    2.0590    6.7356 H   0  0  0  0  0  0  0  0  0  0  0  0
    7.9269    0.2574    7.3247 H   0  0  0  0  0  0  0  0  0  0  0  0
  1  2  1  0  0  0  0
  1 27  1  0  0  0  0
  1 28  1  0  0  0  0
  1 29  1  0  0  0  0
  2  3  1  0  0  0  0
  2 30  1  0  0  0  0
  2 31  1  0  0  0  0
  3  4  1  0  0  0  0
  3 17  1  0  0  0  0
  4  5  2  0  0  0  0
  4  6  1  0  0  0  0
  6  7  1  0  0  0  0
  6  8  1  0  0  0  0
  6  9  1  0  0  0  0
  7 32  1  0  0  0  0
  7 33  1  0  0  0  0
  7 34  1  0  0  0  0
  8 35  1  0  0  0  0
  8 36  1  0  0  0  0
  8 37  1  0  0  0  0
  9 10  1  0  0  0  0
  9 17  2  0  0  0  0
 10 11  2  0  0  0  0
 10 38  1  0  0  0  0
 11 12  1  0  0  0  0
 11 15  1  0  0  0  0
 12 13  1  0  0  0  0
 12 39  1  0  0  0  0
 13 14  2  0  0  0  0
 13 26  1  0  0  0  0
 14 15  1  0  0  0  0
 14 18  1  0  0  0  0
 15 16  2  0  0  0  0
 16 17  1  0  0  0  0
 16 40  1  0  0  0  0
 18 19  1  0  0  0  0
 18 41  1  0  0  0  0
 18 42  1  0  0  0  0
 19 20  1  0  0  0  0
 19 43  1  0  0  0  0
 19 44  1  0  0  0  0
 20 21  1  0  0  0  0
 20 45  1  0  0  0  0
 20 46  1  0  0  0  0
 21 22  1  0  0  0  0
 21 26  2  0  0  0  0
 22 23  1  0  0  0  0
 22 24  2  0  0  0  0
 23 47  1  0  0  0  0
 23 48  1  0  0  0  0
 23 49  1  0  0  0  0
 24 25  1  0  0  0  0
 25 26  1  0  0  0  0
 25 50  1  0  0  0  0
M  END
$$$$
