CHEMBL475351
 OpenBabel04072215383D

 46 50  0  0  0  0  0  0  0  0999 V2000
   -1.7518    3.4137   -2.4410 C   0  0  0  0  0  0  0  0  0  0  0  0
   -1.0483    3.8205   -3.6073 O   0  0  0  0  0  0  0  0  0  0  0  0
    0.2539    4.1850   -3.3368 C   0  0  0  0  0  0  0  0  0  0  0  0
    0.6794    4.1325   -2.0635 N   0  0  0  0  0  0  0  0  0  0  0  0
    1.9464    4.5003   -1.7380 C   0  0  0  0  0  0  0  0  0  0  0  0
    2.3244    4.4271   -0.3818 N   0  0  0  0  0  0  0  0  0  0  0  0
    1.4933    4.6390    0.7407 C   0  0  0  0  0  0  0  0  0  0  0  0
    1.7370    4.0442    1.9756 C   0  0  0  0  0  0  0  0  0  0  0  0
    0.8210    4.1944    3.0462 C   0  0  0  0  0  0  0  0  0  0  0  0
   -0.3623    4.9657    2.9391 C   0  0  0  0  0  0  0  0  0  0  0  0
   -1.2868    5.0220    4.1256 C   0  0  0  0  0  0  0  0  0  0  0  0
   -1.0625    4.4231    5.2894 N   0  0  0  0  0  0  0  0  0  0  0  0
   -2.1369    4.6067    6.1725 C   0  0  0  0  0  0  0  0  0  0  0  0
   -2.2665    4.0994    7.4875 C   0  0  0  0  0  0  0  0  0  0  0  0
   -3.4302    4.3548    8.2341 C   0  0  0  0  0  0  0  0  0  0  0  0
   -4.4622    5.1141    7.6946 C   0  0  0  0  0  0  0  0  0  0  0  0
   -4.3523    5.6392    6.4059 C   0  0  0  0  0  0  0  0  0  0  0  0
   -3.1847    5.3711    5.6663 C   0  0  0  0  0  0  0  0  0  0  0  0
   -2.7890    5.8744    4.0824 S   0  0  0  0  0  0  0  0  0  0  0  0
   -0.5764    5.6001    1.6930 C   0  0  0  0  0  0  0  0  0  0  0  0
   -1.7109    6.3394    1.4671 O   0  0  0  0  0  0  0  0  0  0  0  0
   -1.5845    7.5074    0.6534 C   0  0  0  0  0  0  0  0  0  0  0  0
    0.3167    5.3829    0.6277 C   0  0  0  0  0  0  0  0  0  0  0  0
    2.7753    4.9322   -2.7893 C   0  0  0  0  0  0  0  0  0  0  0  0
    4.0888    5.4590   -2.9521 C   0  0  0  0  0  0  0  0  0  0  0  0
    4.2731    5.7523   -4.2892 C   0  0  0  0  0  0  0  0  0  0  0  0
    3.1217    5.4161   -4.9560 N   0  0  0  0  0  0  0  0  0  0  0  0
    2.2003    4.9453   -4.0588 C   0  0  0  0  0  0  0  0  0  0  0  0
    0.9602    4.5818   -4.3987 N   0  0  0  0  0  0  0  0  0  0  0  0
   -2.7723    3.1508   -2.7340 H   0  0  0  0  0  0  0  0  0  0  0  0
   -1.8187    4.2292   -1.7113 H   0  0  0  0  0  0  0  0  0  0  0  0
   -1.2947    2.5236   -1.9932 H   0  0  0  0  0  0  0  0  0  0  0  0
    3.3134    4.3311   -0.2066 H   0  0  0  0  0  0  0  0  0  0  0  0
    2.6128    3.4159    2.1178 H   0  0  0  0  0  0  0  0  0  0  0  0
    1.0347    3.6706    3.9794 H   0  0  0  0  0  0  0  0  0  0  0  0
   -1.4682    3.5038    7.9201 H   0  0  0  0  0  0  0  0  0  0  0  0
   -3.5306    3.9543    9.2412 H   0  0  0  0  0  0  0  0  0  0  0  0
   -5.3630    5.3032    8.2755 H   0  0  0  0  0  0  0  0  0  0  0  0
   -5.1540    6.2351    5.9804 H   0  0  0  0  0  0  0  0  0  0  0  0
   -2.5913    7.7955    0.3371 H   0  0  0  0  0  0  0  0  0  0  0  0
   -1.0098    7.3727   -0.2654 H   0  0  0  0  0  0  0  0  0  0  0  0
   -1.1550    8.3284    1.2351 H   0  0  0  0  0  0  0  0  0  0  0  0
    0.0821    5.7860   -0.3493 H   0  0  0  0  0  0  0  0  0  0  0  0
    4.8179    5.6359   -2.1727 H   0  0  0  0  0  0  0  0  0  0  0  0
    5.1127    6.1782   -4.8250 H   0  0  0  0  0  0  0  0  0  0  0  0
    2.9382    5.5267   -5.9458 H   0  0  0  0  0  0  0  0  0  0  0  0
  1  2  1  0  0  0  0
  1 30  1  0  0  0  0
  1 31  1  0  0  0  0
  1 32  1  0  0  0  0
  2  3  1  0  0  0  0
  3  4  1  0  0  0  0
  3 29  2  0  0  0  0
  4  5  2  0  0  0  0
  5  6  1  0  0  0  0
  5 24  1  0  0  0  0
  6  7  1  0  0  0  0
  6 33  1  0  0  0  0
  7  8  1  0  0  0  0
  7 23  2  0  0  0  0
  8  9  2  0  0  0  0
  8 34  1  0  0  0  0
  9 10  1  0  0  0  0
  9 35  1  0  0  0  0
 10 11  1  0  0  0  0
 10 20  2  0  0  0  0
 11 12  2  0  0  0  0
 11 19  1  0  0  0  0
 12 13  1  0  0  0  0
 13 14  1  0  0  0  0
 13 18  2  0  0  0  0
 14 15  2  0  0  0  0
 14 36  1  0  0  0  0
 15 16  1  0  0  0  0
 15 37  1  0  0  0  0
 16 17  2  0  0  0  0
 16 38  1  0  0  0  0
 17 18  1  0  0  0  0
 17 39  1  0  0  0  0
 18 19  1  0  0  0  0
 20 21  1  0  0  0  0
 20 23  1  0  0  0  0
 21 22  1  0  0  0  0
 22 40  1  0  0  0  0
 22 41  1  0  0  0  0
 22 42  1  0  0  0  0
 23 43  1  0  0  0  0
 24 25  1  0  0  0  0
 24 28  2  0  0  0  0
 25 26  2  0  0  0  0
 25 44  1  0  0  0  0
 26 27  1  0  0  0  0
 26 45  1  0  0  0  0
 27 28  1  0  0  0  0
 27 46  1  0  0  0  0
 28 29  1  0  0  0  0
M  END
$$$$
