CHEMBL3951527
 OpenBabel04072215373D

 52 55  0  0  1  0  0  0  0  0999 V2000
    2.7414   -0.3524   -1.1728 C   0  0  0  0  0  0  0  0  0  0  0  0
    2.3759   -0.2219    0.2023 O   0  0  0  0  0  0  0  0  0  0  0  0
    3.1523    0.5973    0.9819 C   0  0  0  0  0  0  0  0  0  0  0  0
    4.3672    1.1414    0.5511 C   0  0  0  0  0  0  0  0  0  0  0  0
    5.0710    2.0744    1.3467 C   0  0  0  0  0  0  0  0  0  0  0  0
    6.2126    2.7770    0.9429 C   0  0  0  0  0  0  0  0  0  0  0  0
    6.7012    2.6213   -0.3866 N   0  0  0  0  0  0  0  0  0  0  0  0
    8.0024    3.0040   -0.7634 C   0  0  0  0  0  0  0  0  0  0  0  0
    9.0962    2.6160    0.0192 C   0  0  0  0  0  0  0  0  0  0  0  0
   10.3826    3.0572   -0.2707 C   0  0  0  0  0  0  0  0  0  0  0  0
   10.5980    3.8896   -1.3708 C   0  0  0  0  0  0  0  0  0  0  0  0
   12.2029    4.4577   -1.6410 Cl  0  0  0  0  0  0  0  0  0  0  0  0
    9.5187    4.2421   -2.1926 C   0  0  0  0  0  0  0  0  0  0  0  0
    9.7140    5.2583   -3.5778 Cl  0  0  0  0  0  0  0  0  0  0  0  0
    8.2266    3.7915   -1.8964 C   0  0  0  0  0  0  0  0  0  0  0  0
    6.8575    3.6290    1.7650 N   0  0  0  0  0  0  0  0  0  0  0  0
    6.3521    3.7949    2.9864 C   0  0  0  0  0  0  0  0  0  0  0  0
    5.2644    3.1944    3.4674 N   0  0  0  0  0  0  0  0  0  0  0  0
    4.6391    2.3511    2.6404 C   0  0  0  0  0  0  0  0  0  0  0  0
    3.4878    1.7444    3.0888 C   0  0  0  0  0  0  0  0  0  0  0  0
    2.6940    0.9265    2.2636 C   0  0  0  0  0  0  0  0  0  0  0  0
    1.4526    0.4613    2.6793 O   0  0  0  0  0  0  0  0  0  0  0  0
    0.8814    1.2589    3.7305 C   0  0  0  0  0  0  0  0  0  0  0  0
   -0.6382    1.1272    3.8956 C   0  0  3  0  0  0  0  0  0  0  0  0
   -1.4192    1.3714    2.5925 C   0  0  0  0  0  0  0  0  0  0  0  0
   -1.2750    2.7689    2.1400 N   0  0  0  0  0  0  0  0  0  0  0  0
   -2.0092    2.9774    0.8956 C   0  0  0  0  0  0  0  0  0  0  0  0
   -1.7559    3.6719    3.2031 C   0  0  0  0  0  0  0  0  0  0  0  0
   -1.0525    3.4055    4.5454 C   0  0  0  0  0  0  0  0  0  0  0  0
   -1.1166    2.0207    4.9349 O   0  0  0  0  0  0  0  0  0  0  0  0
    3.5160   -1.1175   -1.2890 H   0  0  0  0  0  0  0  0  0  0  0  0
    3.0648    0.5936   -1.6215 H   0  0  0  0  0  0  0  0  0  0  0  0
    1.8569   -0.6720   -1.7320 H   0  0  0  0  0  0  0  0  0  0  0  0
    4.7954    0.8648   -0.4064 H   0  0  0  0  0  0  0  0  0  0  0  0
    5.9826    2.9338   -1.0359 H   0  0  0  0  0  0  0  0  0  0  0  0
    8.9408    1.9818    0.8920 H   0  0  0  0  0  0  0  0  0  0  0  0
   11.2042    2.7679    0.3787 H   0  0  0  0  0  0  0  0  0  0  0  0
    7.3964    4.0911   -2.5299 H   0  0  0  0  0  0  0  0  0  0  0  0
    6.8684    4.4866    3.6436 H   0  0  0  0  0  0  0  0  0  0  0  0
    3.1989    1.9686    4.1132 H   0  0  0  0  0  0  0  0  0  0  0  0
    1.1071    2.3138    3.5461 H   0  0  0  0  0  0  0  0  0  0  0  0
    1.3439    0.9724    4.6844 H   0  0  0  0  0  0  0  0  0  0  0  0
   -0.8599    0.1096    4.2370 H   0  0  0  0  0  0  0  0  0  0  0  0
   -2.4807    1.1538    2.7807 H   0  0  0  0  0  0  0  0  0  0  0  0
   -1.0701    0.6773    1.8229 H   0  0  0  0  0  0  0  0  0  0  0  0
   -1.6345    2.3055    0.1150 H   0  0  0  0  0  0  0  0  0  0  0  0
   -1.8599    3.9992    0.5311 H   0  0  0  0  0  0  0  0  0  0  0  0
   -3.0840    2.8027    1.0129 H   0  0  0  0  0  0  0  0  0  0  0  0
   -2.8367    3.5438    3.3446 H   0  0  0  0  0  0  0  0  0  0  0  0
   -1.5776    4.7145    2.9144 H   0  0  0  0  0  0  0  0  0  0  0  0
   -1.5373    3.9903    5.3346 H   0  0  0  0  0  0  0  0  0  0  0  0
   -0.0099    3.7385    4.5202 H   0  0  0  0  0  0  0  0  0  0  0  0
  1  2  1  0  0  0  0
  1 31  1  0  0  0  0
  1 32  1  0  0  0  0
  1 33  1  0  0  0  0
  2  3  1  0  0  0  0
  3  4  1  0  0  0  0
  3 21  2  0  0  0  0
  4  5  2  0  0  0  0
  4 34  1  0  0  0  0
  5  6  1  0  0  0  0
  5 19  1  0  0  0  0
  6  7  1  0  0  0  0
  6 16  2  0  0  0  0
  7  8  1  0  0  0  0
  7 35  1  0  0  0  0
  8  9  1  0  0  0  0
  8 15  2  0  0  0  0
  9 10  2  0  0  0  0
  9 36  1  0  0  0  0
 10 11  1  0  0  0  0
 10 37  1  0  0  0  0
 11 12  1  0  0  0  0
 11 13  2  0  0  0  0
 13 14  1  0  0  0  0
 13 15  1  0  0  0  0
 15 38  1  0  0  0  0
 16 17  1  0  0  0  0
 17 18  2  0  0  0  0
 17 39  1  0  0  0  0
 18 19  1  0  0  0  0
 19 20  2  0  0  0  0
 20 21  1  0  0  0  0
 20 40  1  0  0  0  0
 21 22  1  0  0  0  0
 22 23  1  0  0  0  0
 23 24  1  0  0  0  0
 23 41  1  0  0  0  0
 23 42  1  0  0  0  0
 24 25  1  0  0  0  0
 24 30  1  0  0  0  0
 24 43  1  0  0  0  0
 25 26  1  0  0  0  0
 25 44  1  0  0  0  0
 25 45  1  0  0  0  0
 26 27  1  0  0  0  0
 26 28  1  0  0  0  0
 27 46  1  0  0  0  0
 27 47  1  0  0  0  0
 27 48  1  0  0  0  0
 28 29  1  0  0  0  0
 28 49  1  0  0  0  0
 28 50  1  0  0  0  0
 29 30  1  0  0  0  0
 29 51  1  0  0  0  0
 29 52  1  0  0  0  0
M  END
$$$$
