CHEMBL47965
 OpenBabel04072215383D

 38 40  0  0  0  0  0  0  0  0999 V2000
   -2.0470    1.1854    1.1889 C   0  0  0  0  0  0  0  0  0  0  0  0
   -0.9535    0.3874    0.5410 C   0  0  0  0  0  0  0  0  0  0  0  0
    0.1134    1.0312   -0.0997 C   0  0  0  0  0  0  0  0  0  0  0  0
    1.1375    0.2903   -0.6935 C   0  0  0  0  0  0  0  0  0  0  0  0
    2.2935    0.9488   -1.3832 C   0  0  0  0  0  0  0  0  0  0  0  0
    1.0992   -1.1043   -0.6174 C   0  0  0  0  0  0  0  0  0  0  0  0
    0.0680   -1.7713    0.0573 C   0  0  0  0  0  0  0  0  0  0  0  0
    0.0387   -3.1754    0.1471 N   0  0  0  0  0  0  0  0  0  0  0  0
    1.1610   -3.9989    0.2735 C   0  0  0  0  0  0  0  0  0  0  0  0
    2.2676   -3.5250    0.8685 N   0  0  0  0  0  0  0  0  0  0  0  0
    3.3069   -4.3560    1.0086 C   0  0  0  0  0  0  0  0  0  0  0  0
    3.2892   -5.6603    0.5890 C   0  0  0  0  0  0  0  0  0  0  0  0
    2.1268   -6.0744   -0.0297 C   0  0  0  0  0  0  0  0  0  0  0  0
    2.0179   -7.4179   -0.5090 N   0  0  0  0  0  0  0  0  0  0  0  0
    2.9353   -8.4372   -0.3407 C   0  0  0  0  0  0  0  0  0  0  0  0
    2.3866   -9.5526   -0.9221 C   0  0  0  0  0  0  0  0  0  0  0  0
    1.1789   -9.2585   -1.4769 N   0  0  0  0  0  0  0  0  0  0  0  0
    0.9709   -7.9754   -1.2402 C   0  0  0  0  0  0  0  0  0  0  0  0
   -0.2157   -7.2235   -1.7292 C   0  0  0  0  0  0  0  0  0  0  0  0
    1.0648   -5.2485   -0.1946 N   0  0  0  0  0  0  0  0  0  0  0  0
   -0.9789   -1.0149    0.5952 C   0  0  0  0  0  0  0  0  0  0  0  0
   -1.8905    2.2613    1.0541 H   0  0  0  0  0  0  0  0  0  0  0  0
   -2.0751    0.9860    2.2654 H   0  0  0  0  0  0  0  0  0  0  0  0
   -3.0147    0.9301    0.7474 H   0  0  0  0  0  0  0  0  0  0  0  0
    0.1481    2.1182   -0.1330 H   0  0  0  0  0  0  0  0  0  0  0  0
    2.1876    2.0375   -1.3994 H   0  0  0  0  0  0  0  0  0  0  0  0
    2.3586    0.5991   -2.4185 H   0  0  0  0  0  0  0  0  0  0  0  0
    3.2269    0.7051   -0.8652 H   0  0  0  0  0  0  0  0  0  0  0  0
    1.9023   -1.6778   -1.0744 H   0  0  0  0  0  0  0  0  0  0  0  0
   -0.6062   -3.6087   -0.5008 H   0  0  0  0  0  0  0  0  0  0  0  0
    4.1809   -3.9240    1.4875 H   0  0  0  0  0  0  0  0  0  0  0  0
    4.1573   -6.2802    0.7485 H   0  0  0  0  0  0  0  0  0  0  0  0
    3.8728   -8.3168    0.1802 H   0  0  0  0  0  0  0  0  0  0  0  0
    2.8039  -10.5502   -0.9722 H   0  0  0  0  0  0  0  0  0  0  0  0
   -0.8409   -7.8697   -2.3539 H   0  0  0  0  0  0  0  0  0  0  0  0
    0.0888   -6.3730   -2.3476 H   0  0  0  0  0  0  0  0  0  0  0  0
   -0.8325   -6.8735   -0.8975 H   0  0  0  0  0  0  0  0  0  0  0  0
   -1.7940   -1.5215    1.1082 H   0  0  0  0  0  0  0  0  0  0  0  0
  1  2  1  0  0  0  0
  1 22  1  0  0  0  0
  1 23  1  0  0  0  0
  1 24  1  0  0  0  0
  2  3  1  0  0  0  0
  2 21  2  0  0  0  0
  3  4  2  0  0  0  0
  3 25  1  0  0  0  0
  4  5  1  0  0  0  0
  4  6  1  0  0  0  0
  5 26  1  0  0  0  0
  5 27  1  0  0  0  0
  5 28  1  0  0  0  0
  6  7  2  0  0  0  0
  6 29  1  0  0  0  0
  7  8  1  0  0  0  0
  7 21  1  0  0  0  0
  8  9  1  0  0  0  0
  8 30  1  0  0  0  0
  9 10  1  0  0  0  0
  9 20  2  0  0  0  0
 10 11  2  0  0  0  0
 11 12  1  0  0  0  0
 11 31  1  0  0  0  0
 12 13  2  0  0  0  0
 12 32  1  0  0  0  0
 13 14  1  0  0  0  0
 13 20  1  0  0  0  0
 14 15  1  0  0  0  0
 14 18  1  0  0  0  0
 15 16  2  0  0  0  0
 15 33  1  0  0  0  0
 16 17  1  0  0  0  0
 16 34  1  0  0  0  0
 17 18  2  0  0  0  0
 18 19  1  0  0  0  0
 19 35  1  0  0  0  0
 19 36  1  0  0  0  0
 19 37  1  0  0  0  0
 21 38  1  0  0  0  0
M  END
$$$$
