CHEMBL4452275
 OpenBabel04072215383D

 47 50  0  0  0  0  0  0  0  0999 V2000
    2.5562   -0.7402    1.1408 O   0  0  0  0  0  0  0  0  0  0  0  0
    2.1477   -0.6490   -0.0141 C   0  0  0  0  0  0  0  0  0  0  0  0
    0.8073   -0.6089   -0.3630 N   0  0  0  0  0  0  0  0  0  0  0  0
   -0.2957   -0.7241    0.5204 C   0  0  0  0  0  0  0  0  0  0  0  0
   -0.1967   -0.6903    1.9112 C   0  0  0  0  0  0  0  0  0  0  0  0
   -1.3224   -0.8609    2.7099 C   0  0  0  0  0  0  0  0  0  0  0  0
   -2.5643   -1.0860    2.1344 C   0  0  0  0  0  0  0  0  0  0  0  0
   -2.6811   -1.0964    0.7469 C   0  0  0  0  0  0  0  0  0  0  0  0
   -1.5528   -0.9208   -0.0576 C   0  0  0  0  0  0  0  0  0  0  0  0
    2.9795   -0.5884   -1.1283 N   0  0  0  0  0  0  0  0  0  0  0  0
    4.3764   -0.7196   -1.1217 C   0  0  0  0  0  0  0  0  0  0  0  0
    5.1235   -1.0690    0.0052 C   0  0  0  0  0  0  0  0  0  0  0  0
    6.5160   -1.1241   -0.0386 C   0  0  0  0  0  0  0  0  0  0  0  0
    7.1754   -0.8169   -1.2195 C   0  0  0  0  0  0  0  0  0  0  0  0
    8.6560   -0.8276   -1.2238 C   0  0  0  0  0  0  0  0  0  0  0  0
    9.2613   -1.7725   -0.7319 O   0  0  0  0  0  0  0  0  0  0  0  0
    9.2153    0.2750   -1.8433 N   0  0  0  0  0  0  0  0  0  0  0  0
   10.2979    0.0416   -2.6345 N   0  0  0  0  0  0  0  0  0  0  0  0
   10.5898    0.9706   -3.4865 C   0  0  0  0  0  0  0  0  0  0  0  0
   10.0593    2.4042   -3.6010 C   0  0  0  0  0  0  0  0  0  0  0  0
    9.5203    3.0328   -2.7176 O   0  0  0  0  0  0  0  0  0  0  0  0
   10.2246    2.7334   -4.9290 N   0  0  0  0  0  0  0  0  0  0  0  0
   10.6450    1.6103   -5.6410 C   0  0  0  0  0  0  0  0  0  0  0  0
   10.3448    1.2930   -6.9492 C   0  0  0  0  0  0  0  0  0  0  0  0
   10.6194   -0.0191   -7.3696 C   0  0  0  0  0  0  0  0  0  0  0  0
   11.2766   -0.9420   -6.5279 C   0  0  0  0  0  0  0  0  0  0  0  0
   11.5619   -0.6132   -5.2073 C   0  0  0  0  0  0  0  0  0  0  0  0
   11.1593    0.6379   -4.7870 C   0  0  0  0  0  0  0  0  0  0  0  0
    6.4484   -0.5244   -2.3813 C   0  0  0  0  0  0  0  0  0  0  0  0
    5.0484   -0.4722   -2.3263 C   0  0  0  0  0  0  0  0  0  0  0  0
    0.5928   -0.6623   -1.3430 H   0  0  0  0  0  0  0  0  0  0  0  0
    0.7546   -0.5060    2.4100 H   0  0  0  0  0  0  0  0  0  0  0  0
   -1.2169   -0.8409    3.7940 H   0  0  0  0  0  0  0  0  0  0  0  0
   -3.4451   -1.2346    2.7568 H   0  0  0  0  0  0  0  0  0  0  0  0
   -3.6577   -1.2607    0.2948 H   0  0  0  0  0  0  0  0  0  0  0  0
   -1.6755   -0.9474   -1.1302 H   0  0  0  0  0  0  0  0  0  0  0  0
    2.5390   -0.3232   -1.9914 H   0  0  0  0  0  0  0  0  0  0  0  0
    4.6555   -1.3117    0.9524 H   0  0  0  0  0  0  0  0  0  0  0  0
    7.0776   -1.3911    0.8526 H   0  0  0  0  0  0  0  0  0  0  0  0
    8.5993    1.0414   -2.1097 H   0  0  0  0  0  0  0  0  0  0  0  0
    9.9692    3.6284   -5.3207 H   0  0  0  0  0  0  0  0  0  0  0  0
    9.7515    1.9535   -7.5735 H   0  0  0  0  0  0  0  0  0  0  0  0
   10.2564   -0.3623   -8.3370 H   0  0  0  0  0  0  0  0  0  0  0  0
   11.4655   -1.9565   -6.8728 H   0  0  0  0  0  0  0  0  0  0  0  0
   11.9427   -1.3451   -4.5015 H   0  0  0  0  0  0  0  0  0  0  0  0
    6.9569   -0.3547   -3.3285 H   0  0  0  0  0  0  0  0  0  0  0  0
    4.5024   -0.2358   -3.2394 H   0  0  0  0  0  0  0  0  0  0  0  0
  1  2  2  0  0  0  0
  2  3  1  0  0  0  0
  2 10  1  0  0  0  0
  3  4  1  0  0  0  0
  3 31  1  0  0  0  0
  4  5  1  0  0  0  0
  4  9  2  0  0  0  0
  5  6  2  0  0  0  0
  5 32  1  0  0  0  0
  6  7  1  0  0  0  0
  6 33  1  0  0  0  0
  7  8  2  0  0  0  0
  7 34  1  0  0  0  0
  8  9  1  0  0  0  0
  8 35  1  0  0  0  0
  9 36  1  0  0  0  0
 10 11  1  0  0  0  0
 10 37  1  0  0  0  0
 11 12  1  0  0  0  0
 11 30  2  0  0  0  0
 12 13  2  0  0  0  0
 12 38  1  0  0  0  0
 13 14  1  0  0  0  0
 13 39  1  0  0  0  0
 14 15  1  0  0  0  0
 14 29  2  0  0  0  0
 15 16  2  0  0  0  0
 15 17  1  0  0  0  0
 17 18  1  0  0  0  0
 17 40  1  0  0  0  0
 18 19  2  0  0  0  0
 19 20  1  0  0  0  0
 19 28  1  0  0  0  0
 20 21  2  0  0  0  0
 20 22  1  0  0  0  0
 22 23  1  0  0  0  0
 22 41  1  0  0  0  0
 23 24  1  0  0  0  0
 23 28  2  0  0  0  0
 24 25  2  0  0  0  0
 24 42  1  0  0  0  0
 25 26  1  0  0  0  0
 25 43  1  0  0  0  0
 26 27  2  0  0  0  0
 26 44  1  0  0  0  0
 27 28  1  0  0  0  0
 27 45  1  0  0  0  0
 29 30  1  0  0  0  0
 29 46  1  0  0  0  0
 30 47  1  0  0  0  0
M  END
$$$$
