CHEMBL3940839
 OpenBabel04072215373D

 68 72  0  0  1  0  0  0  0  0999 V2000
    3.3449    1.3495    5.1634 C   0  0  0  0  0  0  0  0  0  0  0  0
    4.1962    1.9164    4.1800 O   0  0  0  0  0  0  0  0  0  0  0  0
    4.0988    1.4764    2.8921 C   0  0  0  0  0  0  0  0  0  0  0  0
    5.3362    1.4596    2.2383 C   0  0  0  0  0  0  0  0  0  0  0  0
    5.4514    1.0759    0.8805 C   0  0  0  0  0  0  0  0  0  0  0  0
    6.6410    0.9904    0.1507 C   0  0  0  0  0  0  0  0  0  0  0  0
    7.8761    1.2640    0.7952 N   0  0  0  0  0  0  0  0  0  0  0  0
    9.0585    1.5494    0.0859 C   0  0  0  0  0  0  0  0  0  0  0  0
    9.0369    2.4989   -0.9461 C   0  0  0  0  0  0  0  0  0  0  0  0
   10.1520    2.7097   -1.7513 C   0  0  0  0  0  0  0  0  0  0  0  0
   11.3146    1.9754   -1.5259 C   0  0  0  0  0  0  0  0  0  0  0  0
   12.6401    2.2312   -2.6028 Cl  0  0  0  0  0  0  0  0  0  0  0  0
   11.3649    1.0573   -0.4700 C   0  0  0  0  0  0  0  0  0  0  0  0
   12.7777    0.1200   -0.1309 Cl  0  0  0  0  0  0  0  0  0  0  0  0
   10.2413    0.8514    0.3399 C   0  0  0  0  0  0  0  0  0  0  0  0
    6.6570    0.6699   -1.1612 N   0  0  0  0  0  0  0  0  0  0  0  0
    5.4848    0.4259   -1.7455 C   0  0  0  0  0  0  0  0  0  0  0  0
    4.2991    0.4594   -1.1422 N   0  0  0  0  0  0  0  0  0  0  0  0
    4.3031    0.7835    0.1518 C   0  0  0  0  0  0  0  0  0  0  0  0
    3.0892    0.8349    0.7973 C   0  0  0  0  0  0  0  0  0  0  0  0
    2.9557    1.1287    2.1680 C   0  0  0  0  0  0  0  0  0  0  0  0
    1.7216    1.1028    2.7774 O   0  0  0  0  0  0  0  0  0  0  0  0
    0.7574    0.3155    2.0619 C   0  0  0  0  0  0  0  0  0  0  0  0
   -0.4343   -0.0725    2.9172 C   0  0  3  0  0  0  0  0  0  0  0  0
    0.0526   -0.7901    4.1763 C   0  0  0  0  0  0  0  0  0  0  0  0
   -1.0729   -1.3317    4.9262 N   0  0  0  0  0  0  0  0  0  0  0  0
   -1.4062   -0.8291    6.1631 C   0  0  0  0  0  0  0  0  0  0  0  0
   -1.4414    0.4435    6.3792 N   0  0  0  0  0  0  0  0  0  0  0  0
   -1.6595    0.8735    7.6323 C   0  0  0  0  0  0  0  0  0  0  0  0
   -1.8532    1.2450    8.7088 N   0  0  0  0  0  0  0  0  0  0  0  0
   -1.5818   -1.8492    7.0735 N   0  0  0  0  0  0  0  0  0  0  0  0
   -0.5275   -2.8291    7.3284 C   0  0  0  0  0  0  0  0  0  0  0  0
   -1.0246   -4.2247    6.9714 C   0  0  0  0  0  0  0  0  0  0  0  0
   -2.3523   -4.5378    7.6620 C   0  0  0  0  0  0  0  0  0  0  0  0
   -3.3834   -3.4252    7.4590 C   0  0  0  0  0  0  0  0  0  0  0  0
   -2.8143   -2.0516    7.8179 C   0  0  0  0  0  0  0  0  0  0  0  0
   -2.0068   -2.1252    4.1245 C   0  0  0  0  0  0  0  0  0  0  0  0
   -2.3966   -1.3893    2.8360 C   0  0  0  0  0  0  0  0  0  0  0  0
   -1.2458   -0.9532    2.1057 O   0  0  0  0  0  0  0  0  0  0  0  0
    3.9561    1.1717    6.0561 H   0  0  0  0  0  0  0  0  0  0  0  0
    2.9149    0.3880    4.8755 H   0  0  0  0  0  0  0  0  0  0  0  0
    2.5675    2.0693    5.4340 H   0  0  0  0  0  0  0  0  0  0  0  0
    6.2206    1.7609    2.7963 H   0  0  0  0  0  0  0  0  0  0  0  0
    8.0030    0.6412    1.5855 H   0  0  0  0  0  0  0  0  0  0  0  0
    8.1231    3.0558   -1.1461 H   0  0  0  0  0  0  0  0  0  0  0  0
   10.0895    3.4284   -2.5637 H   0  0  0  0  0  0  0  0  0  0  0  0
   10.2814    0.1141    1.1373 H   0  0  0  0  0  0  0  0  0  0  0  0
    5.4943    0.1816   -2.8016 H   0  0  0  0  0  0  0  0  0  0  0  0
    2.2264    0.6314    0.1697 H   0  0  0  0  0  0  0  0  0  0  0  0
    1.2119   -0.6215    1.7033 H   0  0  0  0  0  0  0  0  0  0  0  0
    0.3864    0.8752    1.1938 H   0  0  0  0  0  0  0  0  0  0  0  0
   -1.0188    0.8176    3.1777 H   0  0  0  0  0  0  0  0  0  0  0  0
    0.6573   -0.1251    4.8006 H   0  0  0  0  0  0  0  0  0  0  0  0
    0.6916   -1.6383    3.8985 H   0  0  0  0  0  0  0  0  0  0  0  0
   -0.2497   -2.7861    8.3884 H   0  0  0  0  0  0  0  0  0  0  0  0
    0.3837   -2.6002    6.7619 H   0  0  0  0  0  0  0  0  0  0  0  0
   -0.2718   -4.9686    7.2552 H   0  0  0  0  0  0  0  0  0  0  0  0
   -1.1541   -4.3047    5.8863 H   0  0  0  0  0  0  0  0  0  0  0  0
   -2.1765   -4.6730    8.7354 H   0  0  0  0  0  0  0  0  0  0  0  0
   -2.7498   -5.4837    7.2776 H   0  0  0  0  0  0  0  0  0  0  0  0
   -4.2749   -3.6274    8.0616 H   0  0  0  0  0  0  0  0  0  0  0  0
   -3.7055   -3.4283    6.4117 H   0  0  0  0  0  0  0  0  0  0  0  0
   -2.6083   -1.9946    8.8933 H   0  0  0  0  0  0  0  0  0  0  0  0
   -3.5554   -1.2802    7.5812 H   0  0  0  0  0  0  0  0  0  0  0  0
   -2.9187   -2.3612    4.6772 H   0  0  0  0  0  0  0  0  0  0  0  0
   -1.5116   -3.0673    3.8658 H   0  0  0  0  0  0  0  0  0  0  0  0
   -3.0301   -0.5202    3.0423 H   0  0  0  0  0  0  0  0  0  0  0  0
   -2.9602   -2.0659    2.1842 H   0  0  0  0  0  0  0  0  0  0  0  0
  1  2  1  0  0  0  0
  1 40  1  0  0  0  0
  1 41  1  0  0  0  0
  1 42  1  0  0  0  0
  2  3  1  0  0  0  0
  3  4  1  0  0  0  0
  3 21  2  0  0  0  0
  4  5  2  0  0  0  0
  4 43  1  0  0  0  0
  5  6  1  0  0  0  0
  5 19  1  0  0  0  0
  6  7  1  0  0  0  0
  6 16  2  0  0  0  0
  7  8  1  0  0  0  0
  7 44  1  0  0  0  0
  8  9  1  0  0  0  0
  8 15  2  0  0  0  0
  9 10  2  0  0  0  0
  9 45  1  0  0  0  0
 10 11  1  0  0  0  0
 10 46  1  0  0  0  0
 11 12  1  0  0  0  0
 11 13  2  0  0  0  0
 13 14  1  0  0  0  0
 13 15  1  0  0  0  0
 15 47  1  0  0  0  0
 16 17  1  0  0  0  0
 17 18  2  0  0  0  0
 17 48  1  0  0  0  0
 18 19  1  0  0  0  0
 19 20  2  0  0  0  0
 20 21  1  0  0  0  0
 20 49  1  0  0  0  0
 21 22  1  0  0  0  0
 22 23  1  0  0  0  0
 23 24  1  0  0  0  0
 23 50  1  0  0  0  0
 23 51  1  0  0  0  0
 24 25  1  0  0  0  0
 24 39  1  0  0  0  0
 24 52  1  0  0  0  0
 25 26  1  0  0  0  0
 25 53  1  0  0  0  0
 25 54  1  0  0  0  0
 26 27  1  0  0  0  0
 26 37  1  0  0  0  0
 27 28  2  0  0  0  0
 27 31  1  0  0  0  0
 28 29  1  0  0  0  0
 29 30  3  0  0  0  0
 31 32  1  0  0  0  0
 31 36  1  0  0  0  0
 32 33  1  0  0  0  0
 32 55  1  0  0  0  0
 32 56  1  0  0  0  0
 33 34  1  0  0  0  0
 33 57  1  0  0  0  0
 33 58  1  0  0  0  0
 34 35  1  0  0  0  0
 34 59  1  0  0  0  0
 34 60  1  0  0  0  0
 35 36  1  0  0  0  0
 35 61  1  0  0  0  0
 35 62  1  0  0  0  0
 36 63  1  0  0  0  0
 36 64  1  0  0  0  0
 37 38  1  0  0  0  0
 37 65  1  0  0  0  0
 37 66  1  0  0  0  0
 38 39  1  0  0  0  0
 38 67  1  0  0  0  0
 38 68  1  0  0  0  0
M  END
$$$$
