CHEMBL459647
 OpenBabel04072215383D

 69 73  0  0  0  0  0  0  0  0999 V2000
    3.2308    0.3767   -1.2460 C   0  0  0  0  0  0  0  0  0  0  0  0
    4.6185    0.1497   -1.0183 O   0  0  0  0  0  0  0  0  0  0  0  0
    4.9361   -0.9368   -0.2500 C   0  0  0  0  0  0  0  0  0  0  0  0
    4.0212   -1.7795    0.3625 C   0  0  0  0  0  0  0  0  0  0  0  0
    4.4752   -2.8558    1.1177 C   0  0  0  0  0  0  0  0  0  0  0  0
    5.8505   -3.1737    1.1982 C   0  0  0  0  0  0  0  0  0  0  0  0
    6.3695   -4.3516    1.7989 C   0  0  0  0  0  0  0  0  0  0  0  0
    5.6113   -5.3676    2.3517 O   0  0  0  0  0  0  0  0  0  0  0  0
    4.5765   -5.9351    1.6348 C   0  0  0  0  0  0  0  0  0  0  0  0
    4.4233   -5.8359    0.2550 C   0  0  0  0  0  0  0  0  0  0  0  0
    3.2394   -6.2683   -0.3547 C   0  0  0  0  0  0  0  0  0  0  0  0
    2.2161   -6.8852    0.3745 C   0  0  0  0  0  0  0  0  0  0  0  0
    1.0005   -7.3225   -0.2167 N   0  0  0  0  0  0  0  0  0  0  0  0
    0.6135   -7.0937   -1.5287 C   0  0  0  0  0  0  0  0  0  0  0  0
    1.2018   -6.3539   -2.3127 O   0  0  0  0  0  0  0  0  0  0  0  0
   -0.5899   -7.8211   -1.9906 C   0  0  0  0  0  0  0  0  0  0  0  0
   -0.9995   -8.0213   -3.2649 C   0  0  0  0  0  0  0  0  0  0  0  0
   -0.3528   -7.5150   -4.5195 C   0  0  0  0  0  0  0  0  0  0  0  0
   -2.1399   -8.8250   -3.3209 N   0  0  0  0  0  0  0  0  0  0  0  0
   -2.9681   -9.1562   -4.4818 C   0  0  0  0  0  0  0  0  0  0  0  0
   -4.2107   -8.2579   -4.6375 C   0  0  0  0  0  0  0  0  0  0  0  0
   -3.8595   -6.8048   -4.9574 C   0  0  0  0  0  0  0  0  0  0  0  0
   -5.1222   -8.8062   -5.7426 C   0  0  0  0  0  0  0  0  0  0  0  0
   -2.4907   -9.1417   -1.9980 N   0  0  0  0  0  0  0  0  0  0  0  0
   -3.6802   -9.7883   -1.6381 C   0  0  0  0  0  0  0  0  0  0  0  0
   -4.6810   -9.1062   -0.9395 C   0  0  0  0  0  0  0  0  0  0  0  0
   -5.8635   -9.7642   -0.5903 C   0  0  0  0  0  0  0  0  0  0  0  0
   -6.0278  -11.1158   -0.8931 C   0  0  0  0  0  0  0  0  0  0  0  0
   -5.0189  -11.8077   -1.5620 C   0  0  0  0  0  0  0  0  0  0  0  0
   -3.8539  -11.1416   -1.9476 C   0  0  0  0  0  0  0  0  0  0  0  0
   -1.6112   -8.4828   -1.1371 C   0  0  0  0  0  0  0  0  0  0  0  0
   -1.5933   -8.4443    0.0850 O   0  0  0  0  0  0  0  0  0  0  0  0
    2.4244   -7.0934    1.7415 C   0  0  0  0  0  0  0  0  0  0  0  0
    3.5900   -6.6120    2.3574 C   0  0  0  0  0  0  0  0  0  0  0  0
    3.7346   -6.7850    3.6804 F   0  0  0  0  0  0  0  0  0  0  0  0
    7.7441   -4.5271    1.9003 C   0  0  0  0  0  0  0  0  0  0  0  0
    8.5623   -3.5591    1.3544 C   0  0  0  0  0  0  0  0  0  0  0  0
    8.1103   -2.4664    0.7106 N   0  0  0  0  0  0  0  0  0  0  0  0
    6.7796   -2.2832    0.6212 C   0  0  0  0  0  0  0  0  0  0  0  0
    6.3030   -1.1825   -0.0841 C   0  0  0  0  0  0  0  0  0  0  0  0
    3.1278    1.2894   -1.8395 H   0  0  0  0  0  0  0  0  0  0  0  0
    2.6958    0.5346   -0.3033 H   0  0  0  0  0  0  0  0  0  0  0  0
    2.7878   -0.4472   -1.8167 H   0  0  0  0  0  0  0  0  0  0  0  0
    2.9493   -1.6452    0.2671 H   0  0  0  0  0  0  0  0  0  0  0  0
    3.7299   -3.4759    1.6073 H   0  0  0  0  0  0  0  0  0  0  0  0
    5.1707   -5.3569   -0.3715 H   0  0  0  0  0  0  0  0  0  0  0  0
    3.1558   -6.0803   -1.4204 H   0  0  0  0  0  0  0  0  0  0  0  0
    0.3456   -7.8286    0.3803 H   0  0  0  0  0  0  0  0  0  0  0  0
    0.6526   -7.1207   -4.3699 H   0  0  0  0  0  0  0  0  0  0  0  0
   -0.9524   -6.7110   -4.9569 H   0  0  0  0  0  0  0  0  0  0  0  0
   -0.2525   -8.3146   -5.2587 H   0  0  0  0  0  0  0  0  0  0  0  0
   -3.2748  -10.2060   -4.4195 H   0  0  0  0  0  0  0  0  0  0  0  0
   -2.3686   -9.1020   -5.3986 H   0  0  0  0  0  0  0  0  0  0  0  0
   -4.7843   -8.2645   -3.7061 H   0  0  0  0  0  0  0  0  0  0  0  0
   -3.4135   -6.7120   -5.9539 H   0  0  0  0  0  0  0  0  0  0  0  0
   -3.1634   -6.3862   -4.2269 H   0  0  0  0  0  0  0  0  0  0  0  0
   -4.7600   -6.1815   -4.9348 H   0  0  0  0  0  0  0  0  0  0  0  0
   -4.6517   -8.7208   -6.7287 H   0  0  0  0  0  0  0  0  0  0  0  0
   -6.0662   -8.2510   -5.7732 H   0  0  0  0  0  0  0  0  0  0  0  0
   -5.3623   -9.8609   -5.5729 H   0  0  0  0  0  0  0  0  0  0  0  0
   -4.5658   -8.0521   -0.7012 H   0  0  0  0  0  0  0  0  0  0  0  0
   -6.6555   -9.2234   -0.0777 H   0  0  0  0  0  0  0  0  0  0  0  0
   -6.9384  -11.6319   -0.5985 H   0  0  0  0  0  0  0  0  0  0  0  0
   -5.1340  -12.8680   -1.7717 H   0  0  0  0  0  0  0  0  0  0  0  0
   -3.0629  -11.6925   -2.4498 H   0  0  0  0  0  0  0  0  0  0  0  0
    1.6885   -7.6011    2.3588 H   0  0  0  0  0  0  0  0  0  0  0  0
    8.1665   -5.3981    2.3887 H   0  0  0  0  0  0  0  0  0  0  0  0
    9.6495   -3.6388    1.4101 H   0  0  0  0  0  0  0  0  0  0  0  0
    7.0218   -0.5064   -0.5410 H   0  0  0  0  0  0  0  0  0  0  0  0
  1  2  1  0  0  0  0
  1 41  1  0  0  0  0
  1 42  1  0  0  0  0
  1 43  1  0  0  0  0
  2  3  1  0  0  0  0
  3  4  1  0  0  0  0
  3 40  2  0  0  0  0
  4  5  2  0  0  0  0
  4 44  1  0  0  0  0
  5  6  1  0  0  0  0
  5 45  1  0  0  0  0
  6  7  1  0  0  0  0
  6 39  2  0  0  0  0
  7  8  1  0  0  0  0
  7 36  2  0  0  0  0
  8  9  1  0  0  0  0
  9 10  1  0  0  0  0
  9 34  2  0  0  0  0
 10 11  2  0  0  0  0
 10 46  1  0  0  0  0
 11 12  1  0  0  0  0
 11 47  1  0  0  0  0
 12 13  1  0  0  0  0
 12 33  2  0  0  0  0
 13 14  1  0  0  0  0
 13 48  1  0  0  0  0
 14 15  2  0  0  0  0
 14 16  1  0  0  0  0
 16 17  2  0  0  0  0
 16 31  1  0  0  0  0
 17 18  1  0  0  0  0
 17 19  1  0  0  0  0
 18 49  1  0  0  0  0
 18 50  1  0  0  0  0
 18 51  1  0  0  0  0
 19 20  1  0  0  0  0
 19 24  1  0  0  0  0
 20 21  1  0  0  0  0
 20 52  1  0  0  0  0
 20 53  1  0  0  0  0
 21 22  1  0  0  0  0
 21 23  1  0  0  0  0
 21 54  1  0  0  0  0
 22 55  1  0  0  0  0
 22 56  1  0  0  0  0
 22 57  1  0  0  0  0
 23 58  1  0  0  0  0
 23 59  1  0  0  0  0
 23 60  1  0  0  0  0
 24 25  1  0  0  0  0
 24 31  1  0  0  0  0
 25 26  1  0  0  0  0
 25 30  2  0  0  0  0
 26 27  2  0  0  0  0
 26 61  1  0  0  0  0
 27 28  1  0  0  0  0
 27 62  1  0  0  0  0
 28 29  2  0  0  0  0
 28 63  1  0  0  0  0
 29 30  1  0  0  0  0
 29 64  1  0  0  0  0
 30 65  1  0  0  0  0
 31 32  2  0  0  0  0
 33 34  1  0  0  0  0
 33 66  1  0  0  0  0
 34 35  1  0  0  0  0
 36 37  1  0  0  0  0
 36 67  1  0  0  0  0
 37 38  2  0  0  0  0
 37 68  1  0  0  0  0
 38 39  1  0  0  0  0
 39 40  1  0  0  0  0
 40 69  1  0  0  0  0
M  END
$$$$
