CHEMBL3986082
 OpenBabel04072215373D

 56 60  0  0  1  0  0  0  0  0999 V2000
    4.8621   -1.1633   -1.0912 C   0  0  0  0  0  0  0  0  0  0  0  0
    3.5557   -1.0778   -0.4814 O   0  0  0  0  0  0  0  0  0  0  0  0
    3.6488   -1.0945    0.8896 C   0  0  0  0  0  0  0  0  0  0  0  0
    4.6522   -0.3426    1.4964 C   0  0  0  0  0  0  0  0  0  0  0  0
    5.1371   -0.6771    2.7643 C   0  0  0  0  0  0  0  0  0  0  0  0
    6.2650   -0.0506    3.3299 C   0  0  0  0  0  0  0  0  0  0  0  0
    6.7660    1.1198    2.6893 N   0  0  0  0  0  0  0  0  0  0  0  0
    8.0004    1.7895    2.8000 C   0  0  0  0  0  0  0  0  0  0  0  0
    9.1667    1.1652    3.2437 C   0  0  0  0  0  0  0  0  0  0  0  0
   10.3951    1.8378    3.2374 C   0  0  0  0  0  0  0  0  0  0  0  0
   10.4802    3.1501    2.7693 C   0  0  0  0  0  0  0  0  0  0  0  0
   12.1868    3.9809    2.7802 Br  0  0  0  0  0  0  0  0  0  0  0  0
    9.3302    3.7866    2.3015 C   0  0  0  0  0  0  0  0  0  0  0  0
    9.3372    5.4091    1.7037 Cl  0  0  0  0  0  0  0  0  0  0  0  0
    8.1073    3.1011    2.3015 C   0  0  0  0  0  0  0  0  0  0  0  0
    6.8647   -0.5564    4.4136 N   0  0  0  0  0  0  0  0  0  0  0  0
    6.2776   -1.6275    4.9653 C   0  0  0  0  0  0  0  0  0  0  0  0
    5.1287   -2.2113    4.5726 N   0  0  0  0  0  0  0  0  0  0  0  0
    4.5534   -1.7372    3.4559 C   0  0  0  0  0  0  0  0  0  0  0  0
    3.3579   -2.2755    2.9322 C   0  0  0  0  0  0  0  0  0  0  0  0
    2.8399   -1.9129    1.6696 C   0  0  0  0  0  0  0  0  0  0  0  0
    1.6005   -2.4223    1.3515 O   0  0  0  0  0  0  0  0  0  0  0  0
    0.8504   -1.8774    0.2434 C   0  0  2  0  0  0  0  0  0  0  0  0
    0.7430   -0.3516    0.1670 C   0  0  0  0  0  0  0  0  0  0  0  0
   -0.5926    0.0547   -0.1408 O   0  0  0  0  0  0  0  0  0  0  0  0
   -1.4466   -1.0816   -0.1494 C   0  0  2  0  0  0  0  0  0  0  0  0
   -2.4764   -0.9702    0.9720 C   0  0  1  0  0  0  0  0  0  0  0  0
   -3.7303   -0.4216    0.5647 O   0  0  0  0  0  0  0  0  0  0  0  0
   -3.7940    1.2114    0.3504 S   0  0  0  0  0  0  0  0  0  0  0  0
   -5.5623    1.4246    0.2892 C   0  0  0  0  0  0  0  0  0  0  0  0
   -3.3111    1.8474    1.5637 O   0  0  0  0  0  0  0  0  0  0  0  0
   -3.2704    1.5166   -0.9568 O   0  0  0  0  0  0  0  0  0  0  0  0
   -2.5665   -2.4104    1.4267 C   0  0  0  0  0  0  0  0  0  0  0  0
   -1.2064   -2.8868    1.3754 O   0  0  0  0  0  0  0  0  0  0  0  0
   -0.6261   -2.3260    0.1840 C   0  0  2  0  0  0  0  0  0  0  0  0
    4.7436   -1.4427   -2.1394 H   0  0  0  0  0  0  0  0  0  0  0  0
    5.4899   -1.9239   -0.6063 H   0  0  0  0  0  0  0  0  0  0  0  0
    5.3670   -0.1909   -1.0683 H   0  0  0  0  0  0  0  0  0  0  0  0
    5.1494    0.4365    0.9257 H   0  0  0  0  0  0  0  0  0  0  0  0
    5.9974    1.7707    2.5543 H   0  0  0  0  0  0  0  0  0  0  0  0
    9.1424    0.1357    3.5907 H   0  0  0  0  0  0  0  0  0  0  0  0
   11.2814    1.3186    3.5945 H   0  0  0  0  0  0  0  0  0  0  0  0
    7.2282    3.6032    1.9038 H   0  0  0  0  0  0  0  0  0  0  0  0
    6.7899   -2.0723    5.8126 H   0  0  0  0  0  0  0  0  0  0  0  0
    2.8353   -3.0288    3.5196 H   0  0  0  0  0  0  0  0  0  0  0  0
    1.3243   -2.2482   -0.6745 H   0  0  0  0  0  0  0  0  0  0  0  0
    1.3578    0.0268   -0.6556 H   0  0  0  0  0  0  0  0  0  0  0  0
    1.0540    0.1531    1.0848 H   0  0  0  0  0  0  0  0  0  0  0  0
   -1.9173   -1.1466   -1.1367 H   0  0  0  0  0  0  0  0  0  0  0  0
   -2.0779   -0.3720    1.8004 H   0  0  0  0  0  0  0  0  0  0  0  0
   -6.0239    1.0100    1.1873 H   0  0  0  0  0  0  0  0  0  0  0  0
   -5.9604    0.9522   -0.6119 H   0  0  0  0  0  0  0  0  0  0  0  0
   -5.7590    2.5006    0.2436 H   0  0  0  0  0  0  0  0  0  0  0  0
   -3.2020   -3.0156    0.7670 H   0  0  0  0  0  0  0  0  0  0  0  0
   -2.9538   -2.5048    2.4452 H   0  0  0  0  0  0  0  0  0  0  0  0
   -0.7569   -3.0749   -0.6077 H   0  0  0  0  0  0  0  0  0  0  0  0
  1  2  1  0  0  0  0
  1 36  1  0  0  0  0
  1 37  1  0  0  0  0
  1 38  1  0  0  0  0
  2  3  1  0  0  0  0
  3  4  1  0  0  0  0
  3 21  2  0  0  0  0
  4  5  2  0  0  0  0
  4 39  1  0  0  0  0
  5  6  1  0  0  0  0
  5 19  1  0  0  0  0
  6  7  1  0  0  0  0
  6 16  2  0  0  0  0
  7  8  1  0  0  0  0
  7 40  1  0  0  0  0
  8  9  1  0  0  0  0
  8 15  2  0  0  0  0
  9 10  2  0  0  0  0
  9 41  1  0  0  0  0
 10 11  1  0  0  0  0
 10 42  1  0  0  0  0
 11 12  1  0  0  0  0
 11 13  2  0  0  0  0
 13 14  1  0  0  0  0
 13 15  1  0  0  0  0
 15 43  1  0  0  0  0
 16 17  1  0  0  0  0
 17 18  2  0  0  0  0
 17 44  1  0  0  0  0
 18 19  1  0  0  0  0
 19 20  2  0  0  0  0
 20 21  1  0  0  0  0
 20 45  1  0  0  0  0
 21 22  1  0  0  0  0
 22 23  1  0  0  0  0
 23 24  1  0  0  0  0
 23 35  1  0  0  0  0
 23 46  1  6  0  0  0
 24 25  1  0  0  0  0
 24 47  1  0  0  0  0
 24 48  1  0  0  0  0
 25 26  1  0  0  0  0
 26 27  1  0  0  0  0
 26 35  1  0  0  0  0
 26 49  1  6  0  0  0
 27 28  1  0  0  0  0
 27 33  1  0  0  0  0
 27 50  1  1  0  0  0
 28 29  1  0  0  0  0
 29 30  1  0  0  0  0
 29 31  2  0  0  0  0
 29 32  2  0  0  0  0
 30 51  1  0  0  0  0
 30 52  1  0  0  0  0
 30 53  1  0  0  0  0
 33 34  1  0  0  0  0
 33 54  1  0  0  0  0
 33 55  1  0  0  0  0
 34 35  1  0  0  0  0
 35 56  1  6  0  0  0
M  END
$$$$
