CHEMBL1257795
 OpenBabel04072215363D

 33 36  0  0  0  0  0  0  0  0999 V2000
    1.0919    0.3221    0.0211 N   0  0  0  0  0  0  0  0  0  0  0  0
    2.2461    0.2564    0.0472 C   0  0  0  0  0  0  0  0  0  0  0  0
    3.6772    0.1718    0.0770 C   0  0  0  0  0  0  0  0  0  0  0  0
    4.4438    1.3318    0.1786 C   0  0  0  0  0  0  0  0  0  0  0  0
    5.8361    1.2452    0.1965 C   0  0  0  0  0  0  0  0  0  0  0  0
    6.4877    0.0001    0.1179 C   0  0  0  0  0  0  0  0  0  0  0  0
    5.7140   -1.1741    0.0428 C   0  0  0  0  0  0  0  0  0  0  0  0
    4.3090   -1.0740    0.0011 C   0  0  0  0  0  0  0  0  0  0  0  0
    6.3318   -2.5520    0.0162 C   0  0  0  0  0  0  0  0  0  0  0  0
    5.6878   -3.6208    0.8665 C   0  0  0  0  0  0  0  0  0  0  0  0
    5.6896   -4.9507    0.4194 C   0  0  0  0  0  0  0  0  0  0  0  0
    5.0238   -5.9420    1.1489 C   0  0  0  0  0  0  0  0  0  0  0  0
    4.3704   -5.6192    2.3378 C   0  0  0  0  0  0  0  0  0  0  0  0
    4.4181   -4.3133    2.8204 C   0  0  0  0  0  0  0  0  0  0  0  0
    5.0849   -3.3283    2.0939 C   0  0  0  0  0  0  0  0  0  0  0  0
    5.1224   -2.0911    2.6096 F   0  0  0  0  0  0  0  0  0  0  0  0
    7.3499   -2.9459   -0.6984 N   0  0  0  0  0  0  0  0  0  0  0  0
    8.0869   -2.0081   -1.4186 C   0  0  0  0  0  0  0  0  0  0  0  0
    8.7706   -2.2765   -2.5735 C   0  0  0  0  0  0  0  0  0  0  0  0
    9.4673   -1.1368   -2.8508 N   0  0  0  0  0  0  0  0  0  0  0  0
    9.3064   -0.1594   -1.9374 N   0  0  0  0  0  0  0  0  0  0  0  0
    8.4376   -0.6849   -1.0701 C   0  0  0  0  0  0  0  0  0  0  0  0
    7.8929   -0.0027   -0.0396 N   0  0  0  0  0  0  0  0  0  0  0  0
    3.9691    2.3113    0.2159 H   0  0  0  0  0  0  0  0  0  0  0  0
    6.4167    2.1653    0.2229 H   0  0  0  0  0  0  0  0  0  0  0  0
    3.6975   -1.9698   -0.0896 H   0  0  0  0  0  0  0  0  0  0  0  0
    6.2014   -5.2215   -0.5026 H   0  0  0  0  0  0  0  0  0  0  0  0
    5.0119   -6.9674    0.7843 H   0  0  0  0  0  0  0  0  0  0  0  0
    3.8360   -6.3859    2.8939 H   0  0  0  0  0  0  0  0  0  0  0  0
    3.9374   -4.0514    3.7582 H   0  0  0  0  0  0  0  0  0  0  0  0
    8.8381   -3.1557   -3.1947 H   0  0  0  0  0  0  0  0  0  0  0  0
   10.0805   -0.9557   -3.6380 H   0  0  0  0  0  0  0  0  0  0  0  0
    8.3043    0.9148    0.0883 H   0  0  0  0  0  0  0  0  0  0  0  0
  1  2  3  0  0  0  0
  2  3  1  0  0  0  0
  3  4  1  0  0  0  0
  3  8  2  0  0  0  0
  4  5  2  0  0  0  0
  4 24  1  0  0  0  0
  5  6  1  0  0  0  0
  5 25  1  0  0  0  0
  6  7  2  0  0  0  0
  6 23  1  0  0  0  0
  7  8  1  0  0  0  0
  7  9  1  0  0  0  0
  8 26  1  0  0  0  0
  9 10  1  0  0  0  0
  9 17  2  0  0  0  0
 10 11  1  0  0  0  0
 10 15  2  0  0  0  0
 11 12  2  0  0  0  0
 11 27  1  0  0  0  0
 12 13  1  0  0  0  0
 12 28  1  0  0  0  0
 13 14  2  0  0  0  0
 13 29  1  0  0  0  0
 14 15  1  0  0  0  0
 14 30  1  0  0  0  0
 15 16  1  0  0  0  0
 17 18  1  0  0  0  0
 18 19  2  0  0  0  0
 18 22  1  0  0  0  0
 19 20  1  0  0  0  0
 19 31  1  0  0  0  0
 20 21  1  0  0  0  0
 20 32  1  0  0  0  0
 21 22  2  0  0  0  0
 22 23  1  0  0  0  0
 23 33  1  0  0  0  0
M  END
$$$$
