CHEMBL1993661
 OpenBabel04072215363D

 54 56  0  0  0  0  0  0  0  0999 V2000
    7.2882    0.2493   -5.9952 C   0  0  0  0  0  0  0  0  0  0  0  0
    7.4081    0.4279   -4.5522 N   0  0  0  0  0  0  0  0  0  0  0  0
    7.6532   -0.9370   -3.6007 S   0  0  0  0  0  0  0  0  0  0  0  0
    8.6781   -1.7413   -4.2345 O   0  0  0  0  0  0  0  0  0  0  0  0
    7.7930   -0.4842   -2.2313 O   0  0  0  0  0  0  0  0  0  0  0  0
    6.1075   -1.8126   -3.6893 C   0  0  0  0  0  0  0  0  0  0  0  0
    6.1238   -3.0908   -4.2771 C   0  0  0  0  0  0  0  0  0  0  0  0
    4.9917   -3.9027   -4.2371 C   0  0  0  0  0  0  0  0  0  0  0  0
    3.8553   -3.4612   -3.5773 C   0  0  0  0  0  0  0  0  0  0  0  0
    3.8371   -2.1894   -3.0073 C   0  0  0  0  0  0  0  0  0  0  0  0
    4.9343   -1.3069   -3.1021 C   0  0  0  0  0  0  0  0  0  0  0  0
    4.8345   -0.0010   -2.5297 N   0  0  0  0  0  0  0  0  0  0  0  0
    3.5795    0.6710   -2.3696 C   0  0  0  0  0  0  0  0  0  0  0  0
    2.6163    0.4490   -3.2994 N   0  0  0  0  0  0  0  0  0  0  0  0
    1.3852    0.9293   -3.0830 C   0  0  0  0  0  0  0  0  0  0  0  0
    0.4082    0.5713   -4.0096 N   0  0  0  0  0  0  0  0  0  0  0  0
   -0.9666    0.3642   -3.8112 C   0  0  0  0  0  0  0  0  0  0  0  0
   -1.8334    0.4636   -4.9038 C   0  0  0  0  0  0  0  0  0  0  0  0
   -3.2309    0.3758   -4.7555 C   0  0  0  0  0  0  0  0  0  0  0  0
   -4.0861    0.5038   -5.8208 O   0  0  0  0  0  0  0  0  0  0  0  0
   -3.5431    0.7793   -7.1050 C   0  0  0  0  0  0  0  0  0  0  0  0
   -3.7855    0.1527   -3.4741 C   0  0  0  0  0  0  0  0  0  0  0  0
   -5.1194    0.1119   -3.1613 O   0  0  0  0  0  0  0  0  0  0  0  0
   -6.1033    0.4133   -4.1356 C   0  0  0  0  0  0  0  0  0  0  0  0
   -2.9092   -0.0191   -2.3823 C   0  0  0  0  0  0  0  0  0  0  0  0
   -3.2458   -0.2612   -1.0706 O   0  0  0  0  0  0  0  0  0  0  0  0
   -4.4381   -0.9957   -0.8233 C   0  0  0  0  0  0  0  0  0  0  0  0
   -1.5250    0.1186   -2.5585 C   0  0  0  0  0  0  0  0  0  0  0  0
    1.0809    1.7097   -2.0386 N   0  0  0  0  0  0  0  0  0  0  0  0
    2.0756    2.0085   -1.1803 C   0  0  0  0  0  0  0  0  0  0  0  0
    3.3555    1.5196   -1.2966 C   0  0  0  0  0  0  0  0  0  0  0  0
    4.5418    1.8831   -0.1128 Cl  0  0  0  0  0  0  0  0  0  0  0  0
    7.2925    1.2353   -6.4698 H   0  0  0  0  0  0  0  0  0  0  0  0
    6.3484   -0.2452   -6.2491 H   0  0  0  0  0  0  0  0  0  0  0  0
    8.1331   -0.3143   -6.4005 H   0  0  0  0  0  0  0  0  0  0  0  0
    6.7415    1.0666   -4.1183 H   0  0  0  0  0  0  0  0  0  0  0  0
    7.0252   -3.4763   -4.7498 H   0  0  0  0  0  0  0  0  0  0  0  0
    5.0082   -4.8910   -4.6887 H   0  0  0  0  0  0  0  0  0  0  0  0
    2.9778   -4.0977   -3.4978 H   0  0  0  0  0  0  0  0  0  0  0  0
    2.9322   -1.8953   -2.4794 H   0  0  0  0  0  0  0  0  0  0  0  0
    5.3394    0.0030   -1.6362 H   0  0  0  0  0  0  0  0  0  0  0  0
    0.8236    0.0485   -4.7685 H   0  0  0  0  0  0  0  0  0  0  0  0
   -1.3873    0.6572   -5.8738 H   0  0  0  0  0  0  0  0  0  0  0  0
   -4.3765    0.8538   -7.8102 H   0  0  0  0  0  0  0  0  0  0  0  0
   -2.8975   -0.0381   -7.4414 H   0  0  0  0  0  0  0  0  0  0  0  0
   -3.0137    1.7378   -7.1151 H   0  0  0  0  0  0  0  0  0  0  0  0
   -7.0744    0.4187   -3.6297 H   0  0  0  0  0  0  0  0  0  0  0  0
   -6.1465   -0.3678   -4.9002 H   0  0  0  0  0  0  0  0  0  0  0  0
   -5.9614    1.4106   -4.5636 H   0  0  0  0  0  0  0  0  0  0  0  0
   -4.3579   -1.4264    0.1801 H   0  0  0  0  0  0  0  0  0  0  0  0
   -4.5697   -1.8261   -1.5254 H   0  0  0  0  0  0  0  0  0  0  0  0
   -5.3058   -0.3297   -0.8147 H   0  0  0  0  0  0  0  0  0  0  0  0
   -0.8853    0.0084   -1.6859 H   0  0  0  0  0  0  0  0  0  0  0  0
    1.7800    2.6529   -0.3569 H   0  0  0  0  0  0  0  0  0  0  0  0
  1  2  1  0  0  0  0
  1 33  1  0  0  0  0
  1 34  1  0  0  0  0
  1 35  1  0  0  0  0
  2  3  1  0  0  0  0
  2 36  1  0  0  0  0
  3  4  2  0  0  0  0
  3  5  2  0  0  0  0
  3  6  1  0  0  0  0
  6  7  1  0  0  0  0
  6 11  2  0  0  0  0
  7  8  2  0  0  0  0
  7 37  1  0  0  0  0
  8  9  1  0  0  0  0
  8 38  1  0  0  0  0
  9 10  2  0  0  0  0
  9 39  1  0  0  0  0
 10 11  1  0  0  0  0
 10 40  1  0  0  0  0
 11 12  1  0  0  0  0
 12 13  1  0  0  0  0
 12 41  1  0  0  0  0
 13 14  1  0  0  0  0
 13 31  2  0  0  0  0
 14 15  2  0  0  0  0
 15 16  1  0  0  0  0
 15 29  1  0  0  0  0
 16 17  1  0  0  0  0
 16 42  1  0  0  0  0
 17 18  1  0  0  0  0
 17 28  2  0  0  0  0
 18 19  2  0  0  0  0
 18 43  1  0  0  0  0
 19 20  1  0  0  0  0
 19 22  1  0  0  0  0
 20 21  1  0  0  0  0
 21 44  1  0  0  0  0
 21 45  1  0  0  0  0
 21 46  1  0  0  0  0
 22 23  1  0  0  0  0
 22 25  2  0  0  0  0
 23 24  1  0  0  0  0
 24 47  1  0  0  0  0
 24 48  1  0  0  0  0
 24 49  1  0  0  0  0
 25 26  1  0  0  0  0
 25 28  1  0  0  0  0
 26 27  1  0  0  0  0
 27 50  1  0  0  0  0
 27 51  1  0  0  0  0
 27 52  1  0  0  0  0
 28 53  1  0  0  0  0
 29 30  2  0  0  0  0
 30 31  1  0  0  0  0
 30 54  1  0  0  0  0
 31 32  1  0  0  0  0
M  END
$$$$
