CHEMBL188042
 OpenBabel04072215363D

 66 68  0  0  0  0  0  0  0  0999 V2000
    1.7559   -6.3467    0.6408 C   0  0  0  0  0  0  0  0  0  0  0  0
    1.6782   -5.1063    1.4215 N   0  0  0  0  0  0  0  0  0  0  0  0
    0.3007   -4.5977    1.3738 C   0  0  0  0  0  0  0  0  0  0  0  0
    2.0581   -5.3262    2.8351 C   0  0  0  0  0  0  0  0  0  0  0  0
    3.5032   -5.7928    3.0429 C   0  0  0  0  0  0  0  0  0  0  0  0
    4.5040   -4.8742    2.5249 N   0  0  0  0  0  0  0  0  0  0  0  0
    5.8181   -5.2706    2.6637 C   0  0  0  0  0  0  0  0  0  0  0  0
    6.1085   -6.3099    3.2450 O   0  0  0  0  0  0  0  0  0  0  0  0
    6.7086   -4.3609    2.1359 N   0  0  0  0  0  0  0  0  0  0  0  0
    8.1136   -4.5334    2.1417 C   0  0  0  0  0  0  0  0  0  0  0  0
    8.7121   -5.7847    2.2867 C   0  0  0  0  0  0  0  0  0  0  0  0
   10.0997   -5.9135    2.4093 C   0  0  0  0  0  0  0  0  0  0  0  0
   10.9467   -4.8037    2.3502 C   0  0  0  0  0  0  0  0  0  0  0  0
   12.3354   -4.9152    2.5532 N   0  0  0  0  0  0  0  0  0  0  0  0
   13.0365   -6.1209    2.0928 C   0  0  0  0  0  0  0  0  0  0  0  0
   13.2230   -3.9242    3.0412 C   0  0  0  0  0  0  0  0  0  0  0  0
   12.8045   -3.0029    3.9808 C   0  0  0  0  0  0  0  0  0  0  0  0
   13.7088   -2.0389    4.3536 C   0  0  0  0  0  0  0  0  0  0  0  0
   14.9535   -1.9548    3.8564 N   0  0  0  0  0  0  0  0  0  0  0  0
   15.2977   -2.8915    2.9650 C   0  0  0  0  0  0  0  0  0  0  0  0
   16.5799   -2.7942    2.4155 N   0  0  0  0  0  0  0  0  0  0  0  0
   16.9774   -3.1961    1.1273 C   0  0  0  0  0  0  0  0  0  0  0  0
   16.0747   -3.3048    0.0638 C   0  0  0  0  0  0  0  0  0  0  0  0
   16.4900   -3.7591   -1.1854 C   0  0  0  0  0  0  0  0  0  0  0  0
   17.8214   -4.1103   -1.3914 C   0  0  0  0  0  0  0  0  0  0  0  0
   18.7630   -3.9725   -0.3627 C   0  0  0  0  0  0  0  0  0  0  0  0
   20.1876   -4.4312   -0.5399 C   0  0  0  0  0  0  0  0  0  0  0  0
   21.0664   -3.5165   -1.8027 S   0  0  0  0  0  0  0  0  0  0  0  0
   20.9564   -1.8162   -1.2983 C   0  0  0  0  0  0  0  0  0  0  0  0
   22.4663   -3.8927   -1.6975 O   0  0  0  0  0  0  0  0  0  0  0  0
   20.3843   -3.6522   -3.0767 O   0  0  0  0  0  0  0  0  0  0  0  0
   18.3255   -3.5045    0.8914 C   0  0  0  0  0  0  0  0  0  0  0  0
   14.4835   -3.8851    2.5769 N   0  0  0  0  0  0  0  0  0  0  0  0
   10.3311   -3.5602    2.1097 C   0  0  0  0  0  0  0  0  0  0  0  0
    8.9349   -3.4204    2.0094 C   0  0  0  0  0  0  0  0  0  0  0  0
    1.4314   -6.1701   -0.3910 H   0  0  0  0  0  0  0  0  0  0  0  0
    1.1333   -7.1433    1.0648 H   0  0  0  0  0  0  0  0  0  0  0  0
    2.7859   -6.7092    0.5703 H   0  0  0  0  0  0  0  0  0  0  0  0
   -0.0128   -4.4241    0.3387 H   0  0  0  0  0  0  0  0  0  0  0  0
    0.2278   -3.6351    1.8914 H   0  0  0  0  0  0  0  0  0  0  0  0
   -0.4117   -5.2924    1.8358 H   0  0  0  0  0  0  0  0  0  0  0  0
    1.3885   -6.0603    3.3026 H   0  0  0  0  0  0  0  0  0  0  0  0
    1.9339   -4.3829    3.3827 H   0  0  0  0  0  0  0  0  0  0  0  0
    3.6671   -6.7748    2.5850 H   0  0  0  0  0  0  0  0  0  0  0  0
    3.6911   -5.9138    4.1167 H   0  0  0  0  0  0  0  0  0  0  0  0
    4.2640   -4.4183    1.6538 H   0  0  0  0  0  0  0  0  0  0  0  0
    6.3531   -3.4233    2.0194 H   0  0  0  0  0  0  0  0  0  0  0  0
    8.1226   -6.6956    2.3323 H   0  0  0  0  0  0  0  0  0  0  0  0
   10.4850   -6.9115    2.5974 H   0  0  0  0  0  0  0  0  0  0  0  0
   12.3766   -6.9022    1.7034 H   0  0  0  0  0  0  0  0  0  0  0  0
   13.5982   -6.5707    2.9218 H   0  0  0  0  0  0  0  0  0  0  0  0
   13.7331   -5.8955    1.2767 H   0  0  0  0  0  0  0  0  0  0  0  0
   11.8161   -3.0379    4.4186 H   0  0  0  0  0  0  0  0  0  0  0  0
   13.4416   -1.2774    5.0798 H   0  0  0  0  0  0  0  0  0  0  0  0
   16.9874   -1.9226    2.7270 H   0  0  0  0  0  0  0  0  0  0  0  0
   15.0257   -3.0513    0.1993 H   0  0  0  0  0  0  0  0  0  0  0  0
   15.7657   -3.8616   -1.9894 H   0  0  0  0  0  0  0  0  0  0  0  0
   18.1057   -4.5085   -2.3645 H   0  0  0  0  0  0  0  0  0  0  0  0
   20.2132   -5.4899   -0.8169 H   0  0  0  0  0  0  0  0  0  0  0  0
   20.7618   -4.3102    0.3852 H   0  0  0  0  0  0  0  0  0  0  0  0
   21.3460   -1.7251   -0.2828 H   0  0  0  0  0  0  0  0  0  0  0  0
   19.9198   -1.4831   -1.3545 H   0  0  0  0  0  0  0  0  0  0  0  0
   21.5710   -1.2263   -1.9828 H   0  0  0  0  0  0  0  0  0  0  0  0
   19.0256   -3.4410    1.7230 H   0  0  0  0  0  0  0  0  0  0  0  0
   10.9388   -2.6652    1.9948 H   0  0  0  0  0  0  0  0  0  0  0  0
    8.5208   -2.4266    1.8678 H   0  0  0  0  0  0  0  0  0  0  0  0
  1  2  1  0  0  0  0
  1 36  1  0  0  0  0
  1 37  1  0  0  0  0
  1 38  1  0  0  0  0
  2  3  1  0  0  0  0
  2  4  1  0  0  0  0
  3 39  1  0  0  0  0
  3 40  1  0  0  0  0
  3 41  1  0  0  0  0
  4  5  1  0  0  0  0
  4 42  1  0  0  0  0
  4 43  1  0  0  0  0
  5  6  1  0  0  0  0
  5 44  1  0  0  0  0
  5 45  1  0  0  0  0
  6  7  1  0  0  0  0
  6 46  1  0  0  0  0
  7  8  2  0  0  0  0
  7  9  1  0  0  0  0
  9 10  1  0  0  0  0
  9 47  1  0  0  0  0
 10 11  1  0  0  0  0
 10 35  2  0  0  0  0
 11 12  2  0  0  0  0
 11 48  1  0  0  0  0
 12 13  1  0  0  0  0
 12 49  1  0  0  0  0
 13 14  1  0  0  0  0
 13 34  2  0  0  0  0
 14 15  1  0  0  0  0
 14 16  1  0  0  0  0
 15 50  1  0  0  0  0
 15 51  1  0  0  0  0
 15 52  1  0  0  0  0
 16 17  1  0  0  0  0
 16 33  2  0  0  0  0
 17 18  2  0  0  0  0
 17 53  1  0  0  0  0
 18 19  1  0  0  0  0
 18 54  1  0  0  0  0
 19 20  2  0  0  0  0
 20 21  1  0  0  0  0
 20 33  1  0  0  0  0
 21 22  1  0  0  0  0
 21 55  1  0  0  0  0
 22 23  1  0  0  0  0
 22 32  2  0  0  0  0
 23 24  2  0  0  0  0
 23 56  1  0  0  0  0
 24 25  1  0  0  0  0
 24 57  1  0  0  0  0
 25 26  2  0  0  0  0
 25 58  1  0  0  0  0
 26 27  1  0  0  0  0
 26 32  1  0  0  0  0
 27 28  1  0  0  0  0
 27 59  1  0  0  0  0
 27 60  1  0  0  0  0
 28 29  1  0  0  0  0
 28 30  2  0  0  0  0
 28 31  2  0  0  0  0
 29 61  1  0  0  0  0
 29 62  1  0  0  0  0
 29 63  1  0  0  0  0
 32 64  1  0  0  0  0
 34 35  1  0  0  0  0
 34 65  1  0  0  0  0
 35 66  1  0  0  0  0
M  END
$$$$
