CHEMBL4443027
 OpenBabel04072215383D

 47 50  0  0  0  0  0  0  0  0999 V2000
    2.7697   -0.5783   -1.0115 O   0  0  0  0  0  0  0  0  0  0  0  0
    2.2900    0.2262   -0.2268 C   0  0  0  0  0  0  0  0  0  0  0  0
    0.9297    0.4510   -0.0591 N   0  0  0  0  0  0  0  0  0  0  0  0
   -0.1059   -0.1962   -0.7704 C   0  0  0  0  0  0  0  0  0  0  0  0
    0.0794   -1.3588   -1.5265 C   0  0  0  0  0  0  0  0  0  0  0  0
   -0.9641   -1.9060   -2.2800 C   0  0  0  0  0  0  0  0  0  0  0  0
   -2.2148   -1.3047   -2.2565 C   0  0  0  0  0  0  0  0  0  0  0  0
   -3.4886   -1.9468   -3.2142 Cl  0  0  0  0  0  0  0  0  0  0  0  0
   -2.4356   -0.1770   -1.4687 C   0  0  0  0  0  0  0  0  0  0  0  0
   -1.3824    0.3704   -0.7203 C   0  0  0  0  0  0  0  0  0  0  0  0
    3.0343    1.0591    0.5944 N   0  0  0  0  0  0  0  0  0  0  0  0
    4.4422    1.1706    0.5328 C   0  0  0  0  0  0  0  0  0  0  0  0
    5.1972    0.7943   -0.5964 C   0  0  0  0  0  0  0  0  0  0  0  0
    6.5794    0.8891   -0.5984 C   0  0  0  0  0  0  0  0  0  0  0  0
    7.2418    1.3403    0.5486 C   0  0  0  0  0  0  0  0  0  0  0  0
    8.7166    1.3960    0.5532 C   0  0  0  0  0  0  0  0  0  0  0  0
    9.3156    1.9355   -0.3694 O   0  0  0  0  0  0  0  0  0  0  0  0
    9.2834    0.8368    1.6870 N   0  0  0  0  0  0  0  0  0  0  0  0
   10.2982    1.5379    2.2670 N   0  0  0  0  0  0  0  0  0  0  0  0
   10.5550    1.2528    3.5007 C   0  0  0  0  0  0  0  0  0  0  0  0
   10.0449    0.1021    4.3652 C   0  0  0  0  0  0  0  0  0  0  0  0
    9.5889   -0.9363    3.9515 O   0  0  0  0  0  0  0  0  0  0  0  0
   10.1595    0.5460    5.6592 N   0  0  0  0  0  0  0  0  0  0  0  0
   10.5364    1.8870    5.6620 C   0  0  0  0  0  0  0  0  0  0  0  0
   10.1772    2.8423    6.5827 C   0  0  0  0  0  0  0  0  0  0  0  0
   10.4161    4.1785    6.2306 C   0  0  0  0  0  0  0  0  0  0  0  0
   11.0884    4.5088    5.0393 C   0  0  0  0  0  0  0  0  0  0  0  0
   11.2828    5.7981    4.7365 F   0  0  0  0  0  0  0  0  0  0  0  0
   11.4358    3.5441    4.1097 C   0  0  0  0  0  0  0  0  0  0  0  0
   11.0656    2.2561    4.4245 C   0  0  0  0  0  0  0  0  0  0  0  0
    6.5057    1.7798    1.6536 C   0  0  0  0  0  0  0  0  0  0  0  0
    5.1041    1.7001    1.6475 C   0  0  0  0  0  0  0  0  0  0  0  0
    0.6816    1.2901    0.4445 H   0  0  0  0  0  0  0  0  0  0  0  0
    1.0418   -1.8682   -1.5671 H   0  0  0  0  0  0  0  0  0  0  0  0
   -0.7803   -2.7939   -2.8802 H   0  0  0  0  0  0  0  0  0  0  0  0
   -3.4137    0.2910   -1.4452 H   0  0  0  0  0  0  0  0  0  0  0  0
   -1.5802    1.2590   -0.1250 H   0  0  0  0  0  0  0  0  0  0  0  0
    2.5922    1.3608    1.4355 H   0  0  0  0  0  0  0  0  0  0  0  0
    4.7144    0.4491   -1.5025 H   0  0  0  0  0  0  0  0  0  0  0  0
    7.1499    0.5998   -1.4737 H   0  0  0  0  0  0  0  0  0  0  0  0
    8.6773    0.2969    2.3044 H   0  0  0  0  0  0  0  0  0  0  0  0
    9.9950   -0.0398    6.4638 H   0  0  0  0  0  0  0  0  0  0  0  0
    9.5638    2.6017    7.4446 H   0  0  0  0  0  0  0  0  0  0  0  0
   10.0149    4.9868    6.8372 H   0  0  0  0  0  0  0  0  0  0  0  0
   11.8331    3.8041    3.1356 H   0  0  0  0  0  0  0  0  0  0  0  0
    7.0105    2.2086    2.5221 H   0  0  0  0  0  0  0  0  0  0  0  0
    4.5551    2.0472    2.5182 H   0  0  0  0  0  0  0  0  0  0  0  0
  1  2  2  0  0  0  0
  2  3  1  0  0  0  0
  2 11  1  0  0  0  0
  3  4  1  0  0  0  0
  3 33  1  0  0  0  0
  4  5  1  0  0  0  0
  4 10  2  0  0  0  0
  5  6  2  0  0  0  0
  5 34  1  0  0  0  0
  6  7  1  0  0  0  0
  6 35  1  0  0  0  0
  7  8  1  0  0  0  0
  7  9  2  0  0  0  0
  9 10  1  0  0  0  0
  9 36  1  0  0  0  0
 10 37  1  0  0  0  0
 11 12  1  0  0  0  0
 11 38  1  0  0  0  0
 12 13  1  0  0  0  0
 12 32  2  0  0  0  0
 13 14  2  0  0  0  0
 13 39  1  0  0  0  0
 14 15  1  0  0  0  0
 14 40  1  0  0  0  0
 15 16  1  0  0  0  0
 15 31  2  0  0  0  0
 16 17  2  0  0  0  0
 16 18  1  0  0  0  0
 18 19  1  0  0  0  0
 18 41  1  0  0  0  0
 19 20  2  0  0  0  0
 20 21  1  0  0  0  0
 20 30  1  0  0  0  0
 21 22  2  0  0  0  0
 21 23  1  0  0  0  0
 23 24  1  0  0  0  0
 23 42  1  0  0  0  0
 24 25  1  0  0  0  0
 24 30  2  0  0  0  0
 25 26  2  0  0  0  0
 25 43  1  0  0  0  0
 26 27  1  0  0  0  0
 26 44  1  0  0  0  0
 27 28  1  0  0  0  0
 27 29  2  0  0  0  0
 29 30  1  0  0  0  0
 29 45  1  0  0  0  0
 31 32  1  0  0  0  0
 31 46  1  0  0  0  0
 32 47  1  0  0  0  0
M  END
$$$$
