CHEMBL3676376
 OpenBabel04072215373D

 61 63  0  0  1  0  0  0  0  0999 V2000
   -2.0925    6.6461   -3.4525 C   0  0  0  0  0  0  0  0  0  0  0  0
   -2.1651    5.3162   -3.3966 C   0  0  0  0  0  0  0  0  0  0  0  0
   -1.6249    4.5154   -4.5276 C   0  0  0  0  0  0  0  0  0  0  0  0
   -1.5634    4.9670   -5.6648 O   0  0  0  0  0  0  0  0  0  0  0  0
   -1.1616    3.2754   -4.1183 N   0  0  0  0  0  0  0  0  0  0  0  0
   -0.4032    2.5012   -5.0156 C   0  0  0  0  0  0  0  0  0  0  0  0
   -1.0720    2.1564   -6.1909 C   0  0  0  0  0  0  0  0  0  0  0  0
   -0.4065    1.5979   -7.2885 C   0  0  0  0  0  0  0  0  0  0  0  0
   -1.0374    1.3204   -8.5112 C   0  0  0  0  0  0  0  0  0  0  0  0
   -2.3927    1.6802   -8.6762 N   0  0  0  0  0  0  0  0  0  0  0  0
   -3.4003    1.0450   -9.4237 C   0  0  0  0  0  0  0  0  0  0  0  0
   -3.3607   -0.3237   -9.6960 C   0  0  0  0  0  0  0  0  0  0  0  0
   -4.4580   -0.9760  -10.2570 C   0  0  0  0  0  0  0  0  0  0  0  0
   -5.6152   -0.2563  -10.5779 C   0  0  0  0  0  0  0  0  0  0  0  0
   -7.1107   -1.2532  -11.1959 Br  0  0  0  0  0  0  0  0  0  0  0  0
   -5.6563    1.1268  -10.3833 C   0  0  0  0  0  0  0  0  0  0  0  0
   -7.0299    2.0824  -10.8085 Cl  0  0  0  0  0  0  0  0  0  0  0  0
   -4.5496    1.7605   -9.8014 C   0  0  0  0  0  0  0  0  0  0  0  0
   -4.5824    3.0854   -9.5720 F   0  0  0  0  0  0  0  0  0  0  0  0
   -0.3815    0.7403   -9.5275 N   0  0  0  0  0  0  0  0  0  0  0  0
    0.9193    0.5089   -9.3317 C   0  0  0  0  0  0  0  0  0  0  0  0
    1.6215    0.7614   -8.2121 N   0  0  0  0  0  0  0  0  0  0  0  0
    0.9558    1.3027   -7.1876 C   0  0  0  0  0  0  0  0  0  0  0  0
    1.6058    1.5970   -5.9800 C   0  0  0  0  0  0  0  0  0  0  0  0
    0.9520    2.1740   -4.8726 C   0  0  0  0  0  0  0  0  0  0  0  0
    1.7951    2.4825   -3.8229 O   0  0  0  0  0  0  0  0  0  0  0  0
    1.2404    2.3491   -2.5125 C   0  0  0  0  0  0  0  0  0  0  0  0
    2.2666    2.5899   -1.3812 C   0  0  2  0  0  0  0  0  0  0  0  0
    1.6180    2.2251   -0.0406 C   0  0  0  0  0  0  0  0  0  0  0  0
    2.7774    3.9638   -1.3477 N   0  0  0  0  0  0  0  0  0  0  0  0
    1.9832    5.0905   -1.2689 C   0  0  0  0  0  0  0  0  0  0  0  0
    0.7696    5.0517   -1.0753 O   0  0  0  0  0  0  0  0  0  0  0  0
    2.7352    6.4238   -1.3798 C   0  0  0  0  0  0  0  0  0  0  0  0
    3.9507    6.3396   -2.2355 N   0  0  0  0  0  0  0  0  0  0  0  0
    3.5980    6.0386   -3.6316 C   0  0  0  0  0  0  0  0  0  0  0  0
    4.6334    7.6424   -2.2013 C   0  0  0  0  0  0  0  0  0  0  0  0
   -2.4805    7.2562   -2.6409 H   0  0  0  0  0  0  0  0  0  0  0  0
   -1.6363    7.1585   -4.2959 H   0  0  0  0  0  0  0  0  0  0  0  0
   -2.6021    4.7942   -2.5593 H   0  0  0  0  0  0  0  0  0  0  0  0
   -1.0641    3.1492   -3.1266 H   0  0  0  0  0  0  0  0  0  0  0  0
   -2.1410    2.3593   -6.2552 H   0  0  0  0  0  0  0  0  0  0  0  0
   -2.5484    2.6753   -8.5248 H   0  0  0  0  0  0  0  0  0  0  0  0
   -2.4825   -0.9084   -9.4269 H   0  0  0  0  0  0  0  0  0  0  0  0
   -4.4118   -2.0515  -10.4134 H   0  0  0  0  0  0  0  0  0  0  0  0
    1.4639    0.0745  -10.1645 H   0  0  0  0  0  0  0  0  0  0  0  0
    2.6742    1.3949   -5.9174 H   0  0  0  0  0  0  0  0  0  0  0  0
    0.8035    1.3486   -2.4119 H   0  0  0  0  0  0  0  0  0  0  0  0
    0.4785    3.0998   -2.3644 H   0  0  0  0  0  0  0  0  0  0  0  0
    3.1430    1.9534   -1.5444 H   0  0  0  0  0  0  0  0  0  0  0  0
    0.7148    2.8186    0.1468 H   0  0  0  0  0  0  0  0  0  0  0  0
    2.3037    2.4005    0.7933 H   0  0  0  0  0  0  0  0  0  0  0  0
    1.3204    1.1713   -0.0269 H   0  0  0  0  0  0  0  0  0  0  0  0
    3.7488    4.1397   -1.5945 H   0  0  0  0  0  0  0  0  0  0  0  0
    3.0208    6.6986   -0.3571 H   0  0  0  0  0  0  0  0  0  0  0  0
    2.0384    7.1803   -1.7610 H   0  0  0  0  0  0  0  0  0  0  0  0
    3.1002    5.0696   -3.7259 H   0  0  0  0  0  0  0  0  0  0  0  0
    4.5083    5.9692   -4.2373 H   0  0  0  0  0  0  0  0  0  0  0  0
    2.9454    6.8012   -4.0700 H   0  0  0  0  0  0  0  0  0  0  0  0
    4.9187    7.9080   -1.1767 H   0  0  0  0  0  0  0  0  0  0  0  0
    4.0064    8.4494   -2.5998 H   0  0  0  0  0  0  0  0  0  0  0  0
    5.5588    7.6072   -2.7879 H   0  0  0  0  0  0  0  0  0  0  0  0
  1  2  2  0  0  0  0
  1 37  1  0  0  0  0
  1 38  1  0  0  0  0
  2  3  1  0  0  0  0
  2 39  1  0  0  0  0
  3  4  2  0  0  0  0
  3  5  1  0  0  0  0
  5  6  1  0  0  0  0
  5 40  1  0  0  0  0
  6  7  1  0  0  0  0
  6 25  2  0  0  0  0
  7  8  2  0  0  0  0
  7 41  1  0  0  0  0
  8  9  1  0  0  0  0
  8 23  1  0  0  0  0
  9 10  1  0  0  0  0
  9 20  2  0  0  0  0
 10 11  1  0  0  0  0
 10 42  1  0  0  0  0
 11 12  1  0  0  0  0
 11 18  2  0  0  0  0
 12 13  2  0  0  0  0
 12 43  1  0  0  0  0
 13 14  1  0  0  0  0
 13 44  1  0  0  0  0
 14 15  1  0  0  0  0
 14 16  2  0  0  0  0
 16 17  1  0  0  0  0
 16 18  1  0  0  0  0
 18 19  1  0  0  0  0
 20 21  1  0  0  0  0
 21 22  2  0  0  0  0
 21 45  1  0  0  0  0
 22 23  1  0  0  0  0
 23 24  2  0  0  0  0
 24 25  1  0  0  0  0
 24 46  1  0  0  0  0
 25 26  1  0  0  0  0
 26 27  1  0  0  0  0
 27 47  1  0  0  0  0
 27 48  1  0  0  0  0
 28 30  1  0  0  0  0
 28 29  1  0  0  0  0
 28 27  1  0  0  0  0
 28 49  1  6  0  0  0
 29 50  1  0  0  0  0
 29 51  1  0  0  0  0
 29 52  1  0  0  0  0
 30 31  1  0  0  0  0
 30 53  1  0  0  0  0
 31 32  2  0  0  0  0
 31 33  1  0  0  0  0
 33 34  1  0  0  0  0
 33 54  1  0  0  0  0
 33 55  1  0  0  0  0
 34 35  1  0  0  0  0
 34 36  1  0  0  0  0
 35 56  1  0  0  0  0
 35 57  1  0  0  0  0
 35 58  1  0  0  0  0
 36 59  1  0  0  0  0
 36 60  1  0  0  0  0
 36 61  1  0  0  0  0
M  END
$$$$
