CHEMBL1241483
 OpenBabel04072215363D

 38 40  0  0  0  0  0  0  0  0999 V2000
    2.8672    1.1068   -4.8380 C   0  0  0  0  0  0  0  0  0  0  0  0
    3.8601    0.1375   -4.5223 O   0  0  0  0  0  0  0  0  0  0  0  0
    3.8422   -0.3734   -3.2518 C   0  0  0  0  0  0  0  0  0  0  0  0
    4.9163   -1.2235   -2.9526 C   0  0  0  0  0  0  0  0  0  0  0  0
    5.0467   -1.8168   -1.6845 C   0  0  0  0  0  0  0  0  0  0  0  0
    6.1773   -2.7037   -1.3935 C   0  0  0  0  0  0  0  0  0  0  0  0
    7.3911   -2.4304   -1.9084 N   0  0  0  0  0  0  0  0  0  0  0  0
    8.1928   -3.4005   -1.4213 N   0  0  0  0  0  0  0  0  0  0  0  0
    9.6116   -3.4169   -1.7632 C   0  0  0  0  0  0  0  0  0  0  0  0
    9.8231   -3.5869   -3.2676 C   0  0  0  0  0  0  0  0  0  0  0  0
   10.3324   -2.1720   -1.2452 C   0  0  0  0  0  0  0  0  0  0  0  0
    7.5339   -4.3062   -0.6356 C   0  0  0  0  0  0  0  0  0  0  0  0
    8.0642   -5.3763   -0.0192 N   0  0  0  0  0  0  0  0  0  0  0  0
    7.1364   -6.0555    0.6717 C   0  0  0  0  0  0  0  0  0  0  0  0
    5.8229   -5.7840    0.7796 N   0  0  0  0  0  0  0  0  0  0  0  0
    5.3308   -4.7027    0.1400 C   0  0  0  0  0  0  0  0  0  0  0  0
    3.9626   -4.4979    0.2684 N   0  0  0  0  0  0  0  0  0  0  0  0
    6.2091   -3.8956   -0.6002 C   0  0  0  0  0  0  0  0  0  0  0  0
    4.0920   -1.5213   -0.7043 C   0  0  0  0  0  0  0  0  0  0  0  0
    3.0007   -0.7058   -1.0020 C   0  0  0  0  0  0  0  0  0  0  0  0
    2.8809   -0.1374   -2.2667 C   0  0  0  0  0  0  0  0  0  0  0  0
    1.8137    0.6418   -2.4930 F   0  0  0  0  0  0  0  0  0  0  0  0
    3.0605    1.4658   -5.8534 H   0  0  0  0  0  0  0  0  0  0  0  0
    2.9256    1.9706   -4.1671 H   0  0  0  0  0  0  0  0  0  0  0  0
    1.8680    0.6596   -4.8321 H   0  0  0  0  0  0  0  0  0  0  0  0
    5.6658   -1.4158   -3.7195 H   0  0  0  0  0  0  0  0  0  0  0  0
   10.0510   -4.2886   -1.2631 H   0  0  0  0  0  0  0  0  0  0  0  0
    9.3785   -2.7618   -3.8348 H   0  0  0  0  0  0  0  0  0  0  0  0
    9.3668   -4.5179   -3.6219 H   0  0  0  0  0  0  0  0  0  0  0  0
   10.8913   -3.6219   -3.5078 H   0  0  0  0  0  0  0  0  0  0  0  0
    9.9438   -1.2574   -1.7064 H   0  0  0  0  0  0  0  0  0  0  0  0
   11.4046   -2.2279   -1.4635 H   0  0  0  0  0  0  0  0  0  0  0  0
   10.2152   -2.0749   -0.1606 H   0  0  0  0  0  0  0  0  0  0  0  0
    7.4830   -6.9351    1.2061 H   0  0  0  0  0  0  0  0  0  0  0  0
    3.5223   -5.3249    0.6580 H   0  0  0  0  0  0  0  0  0  0  0  0
    3.5127   -4.1180   -0.5548 H   0  0  0  0  0  0  0  0  0  0  0  0
    4.1871   -1.9150    0.3053 H   0  0  0  0  0  0  0  0  0  0  0  0
    2.2452   -0.5017   -0.2497 H   0  0  0  0  0  0  0  0  0  0  0  0
  1  2  1  0  0  0  0
  1 23  1  0  0  0  0
  1 24  1  0  0  0  0
  1 25  1  0  0  0  0
  2  3  1  0  0  0  0
  3  4  1  0  0  0  0
  3 21  2  0  0  0  0
  4  5  2  0  0  0  0
  4 26  1  0  0  0  0
  5  6  1  0  0  0  0
  5 19  1  0  0  0  0
  6  7  2  0  0  0  0
  6 18  1  0  0  0  0
  7  8  1  0  0  0  0
  8  9  1  0  0  0  0
  8 12  1  0  0  0  0
  9 10  1  0  0  0  0
  9 11  1  0  0  0  0
  9 27  1  0  0  0  0
 10 28  1  0  0  0  0
 10 29  1  0  0  0  0
 10 30  1  0  0  0  0
 11 31  1  0  0  0  0
 11 32  1  0  0  0  0
 11 33  1  0  0  0  0
 12 13  1  0  0  0  0
 12 18  2  0  0  0  0
 13 14  2  0  0  0  0
 14 15  1  0  0  0  0
 14 34  1  0  0  0  0
 15 16  2  0  0  0  0
 16 17  1  0  0  0  0
 16 18  1  0  0  0  0
 17 35  1  0  0  0  0
 17 36  1  0  0  0  0
 19 20  2  0  0  0  0
 19 37  1  0  0  0  0
 20 21  1  0  0  0  0
 20 38  1  0  0  0  0
 21 22  1  0  0  0  0
M  END
$$$$
