CHEMBL3986163
 OpenBabel04072215373D

 63 67  0  0  0  0  0  0  0  0999 V2000
    2.4938    1.7069    0.9910 C   0  0  0  0  0  0  0  0  0  0  0  0
    2.3908    0.3149    0.7153 O   0  0  0  0  0  0  0  0  0  0  0  0
    3.4883   -0.4105    1.2752 C   0  0  0  0  0  0  0  0  0  0  0  0
    3.3174   -1.8923    0.9647 C   0  0  0  0  0  0  0  0  0  0  0  0
    4.3545   -2.7118    1.5574 N   0  0  0  0  0  0  0  0  0  0  0  0
    4.6346   -2.8380    2.8916 C   0  0  0  0  0  0  0  0  0  0  0  0
    5.6355   -3.7843    2.9936 C   0  0  0  0  0  0  0  0  0  0  0  0
    6.2699   -4.2452    4.2124 C   0  0  0  0  0  0  0  0  0  0  0  0
    5.9489   -3.7486    5.4664 C   0  0  0  0  0  0  0  0  0  0  0  0
    6.5893   -4.1305    6.5957 N   0  0  0  0  0  0  0  0  0  0  0  0
    7.5862   -5.0201    6.4375 C   0  0  0  0  0  0  0  0  0  0  0  0
    8.3238   -5.4147    7.5385 C   0  0  0  0  0  0  0  0  0  0  0  0
    9.3986   -6.2980    7.4060 C   0  0  0  0  0  0  0  0  0  0  0  0
    9.7738   -6.8189    6.1593 C   0  0  0  0  0  0  0  0  0  0  0  0
   10.9208   -7.6565    6.0366 N   0  0  0  0  0  0  0  0  0  0  0  0
   10.8651   -8.6979    4.9797 C   0  0  0  0  0  0  0  0  0  0  0  0
   11.6154   -8.2920    3.7365 C   0  0  0  0  0  0  0  0  0  0  0  0
   11.8660   -9.3149    2.6512 C   0  0  0  0  0  0  0  0  0  0  0  0
   13.0172   -8.7746    3.4459 C   0  0  0  0  0  0  0  0  0  0  0  0
   12.0874   -7.5996    6.8520 C   0  0  0  0  0  0  0  0  0  0  0  0
   12.8537   -8.7389    7.1539 C   0  0  0  0  0  0  0  0  0  0  0  0
   13.9839   -8.6859    7.9747 C   0  0  0  0  0  0  0  0  0  0  0  0
   14.7745   -9.7589    8.3008 O   0  0  0  0  0  0  0  0  0  0  0  0
   14.4710  -10.9910    7.6548 C   0  0  0  0  0  0  0  0  0  0  0  0
   14.3733   -7.4773    8.5429 C   0  0  0  0  0  0  0  0  0  0  0  0
   13.6459   -6.3200    8.2658 C   0  0  0  0  0  0  0  0  0  0  0  0
   13.9183   -5.0835    8.7879 O   0  0  0  0  0  0  0  0  0  0  0  0
   15.2790   -4.8529    9.1404 C   0  0  0  0  0  0  0  0  0  0  0  0
   12.5204   -6.3893    7.4280 C   0  0  0  0  0  0  0  0  0  0  0  0
    8.9757   -6.4497    5.0635 C   0  0  0  0  0  0  0  0  0  0  0  0
    7.9163   -5.5494    5.1700 C   0  0  0  0  0  0  0  0  0  0  0  0
    7.2465   -5.1732    4.0606 N   0  0  0  0  0  0  0  0  0  0  0  0
    5.8906   -4.1521    1.6530 C   0  0  0  0  0  0  0  0  0  0  0  0
    5.1194   -3.4974    0.7796 N   0  0  0  0  0  0  0  0  0  0  0  0
    1.6316    2.2119    0.5477 H   0  0  0  0  0  0  0  0  0  0  0  0
    3.4069    2.1171    0.5494 H   0  0  0  0  0  0  0  0  0  0  0  0
    2.4851    1.8837    2.0709 H   0  0  0  0  0  0  0  0  0  0  0  0
    3.5011   -0.2456    2.3590 H   0  0  0  0  0  0  0  0  0  0  0  0
    4.4297   -0.0397    0.8563 H   0  0  0  0  0  0  0  0  0  0  0  0
    3.3177   -2.0545   -0.1196 H   0  0  0  0  0  0  0  0  0  0  0  0
    2.3570   -2.2639    1.3401 H   0  0  0  0  0  0  0  0  0  0  0  0
    4.1016   -2.2542    3.6284 H   0  0  0  0  0  0  0  0  0  0  0  0
    5.1720   -3.0086    5.6179 H   0  0  0  0  0  0  0  0  0  0  0  0
    8.0786   -5.0095    8.5173 H   0  0  0  0  0  0  0  0  0  0  0  0
    9.9457   -6.5701    8.3057 H   0  0  0  0  0  0  0  0  0  0  0  0
    9.8254   -8.9238    4.7093 H   0  0  0  0  0  0  0  0  0  0  0  0
   11.2310   -9.6658    5.3350 H   0  0  0  0  0  0  0  0  0  0  0  0
   11.3547   -7.2927    3.4063 H   0  0  0  0  0  0  0  0  0  0  0  0
   11.7730   -9.0003    1.6160 H   0  0  0  0  0  0  0  0  0  0  0  0
   11.5829  -10.3498    2.8173 H   0  0  0  0  0  0  0  0  0  0  0  0
   13.6945   -8.0876    2.9487 H   0  0  0  0  0  0  0  0  0  0  0  0
   13.5066   -9.4430    4.1437 H   0  0  0  0  0  0  0  0  0  0  0  0
   12.5368   -9.6999    6.7792 H   0  0  0  0  0  0  0  0  0  0  0  0
   15.2289  -11.7231    7.9465 H   0  0  0  0  0  0  0  0  0  0  0  0
   14.5102  -10.8890    6.5643 H   0  0  0  0  0  0  0  0  0  0  0  0
   13.4967  -11.3710    7.9805 H   0  0  0  0  0  0  0  0  0  0  0  0
   15.2254   -7.4677    9.2106 H   0  0  0  0  0  0  0  0  0  0  0  0
   15.3923   -3.7862    9.3571 H   0  0  0  0  0  0  0  0  0  0  0  0
   15.9477   -5.0984    8.3088 H   0  0  0  0  0  0  0  0  0  0  0  0
   15.5567   -5.4043   10.0449 H   0  0  0  0  0  0  0  0  0  0  0  0
   11.9887   -5.4629    7.2276 H   0  0  0  0  0  0  0  0  0  0  0  0
    9.1902   -6.8243    4.0681 H   0  0  0  0  0  0  0  0  0  0  0  0
    6.6143   -4.8689    1.2853 H   0  0  0  0  0  0  0  0  0  0  0  0
  1  2  1  0  0  0  0
  1 35  1  0  0  0  0
  1 36  1  0  0  0  0
  1 37  1  0  0  0  0
  2  3  1  0  0  0  0
  3  4  1  0  0  0  0
  3 38  1  0  0  0  0
  3 39  1  0  0  0  0
  4  5  1  0  0  0  0
  4 40  1  0  0  0  0
  4 41  1  0  0  0  0
  5  6  1  0  0  0  0
  5 34  1  0  0  0  0
  6  7  2  0  0  0  0
  6 42  1  0  0  0  0
  7  8  1  0  0  0  0
  7 33  1  0  0  0  0
  8  9  1  0  0  0  0
  8 32  2  0  0  0  0
  9 10  2  0  0  0  0
  9 43  1  0  0  0  0
 10 11  1  0  0  0  0
 11 12  1  0  0  0  0
 11 31  2  0  0  0  0
 12 13  2  0  0  0  0
 12 44  1  0  0  0  0
 13 14  1  0  0  0  0
 13 45  1  0  0  0  0
 14 15  1  0  0  0  0
 14 30  2  0  0  0  0
 15 16  1  0  0  0  0
 15 20  1  0  0  0  0
 16 17  1  0  0  0  0
 16 46  1  0  0  0  0
 16 47  1  0  0  0  0
 17 18  1  0  0  0  0
 17 19  1  0  0  0  0
 17 48  1  0  0  0  0
 18 19  1  0  0  0  0
 18 49  1  0  0  0  0
 18 50  1  0  0  0  0
 19 51  1  0  0  0  0
 19 52  1  0  0  0  0
 20 21  1  0  0  0  0
 20 29  2  0  0  0  0
 21 22  2  0  0  0  0
 21 53  1  0  0  0  0
 22 23  1  0  0  0  0
 22 25  1  0  0  0  0
 23 24  1  0  0  0  0
 24 54  1  0  0  0  0
 24 55  1  0  0  0  0
 24 56  1  0  0  0  0
 25 26  2  0  0  0  0
 25 57  1  0  0  0  0
 26 27  1  0  0  0  0
 26 29  1  0  0  0  0
 27 28  1  0  0  0  0
 28 58  1  0  0  0  0
 28 59  1  0  0  0  0
 28 60  1  0  0  0  0
 29 61  1  0  0  0  0
 30 31  1  0  0  0  0
 30 62  1  0  0  0  0
 31 32  1  0  0  0  0
 33 34  2  0  0  0  0
 33 63  1  0  0  0  0
M  END
$$$$
