CHEMBL47203
 OpenBabel04072215383D

 70 75  0  0  1  0  0  0  0  0999 V2000
   -6.9603    1.2661    3.3667 C   0  0  0  0  0  0  0  0  0  0  0  0
   -6.5903    0.1051    2.5552 N   0  0  0  0  0  0  0  0  0  0  0  0
   -5.6606    0.5076    1.4889 C   0  0  0  0  0  0  0  0  0  0  0  0
   -5.1399   -0.6897    0.6665 C   0  0  0  0  0  0  0  0  0  0  0  0
   -4.4690   -1.7219    1.4688 N   0  0  0  0  0  0  0  0  0  0  0  0
   -3.0034   -1.6376    1.4963 C   0  0  1  0  0  0  0  0  0  0  0  0
   -2.3482   -0.3572    2.0276 C   0  0  0  0  0  0  0  0  0  0  0  0
   -2.4075   -0.2532    3.5399 C   0  0  0  0  0  0  0  0  0  0  0  0
   -1.7984   -1.4559    4.2757 C   0  0  1  0  0  0  0  0  0  0  0  0
   -2.0448   -1.4773    5.7290 N   0  0  0  0  0  0  0  0  0  0  0  0
   -1.5848   -2.4943    6.5310 C   0  0  0  0  0  0  0  0  0  0  0  0
   -1.9681   -2.2523    7.8366 C   0  0  0  0  0  0  0  0  0  0  0  0
   -1.6994   -3.2178    8.8906 C   0  0  0  0  0  0  0  0  0  0  0  0
   -0.5632   -4.0271    8.8493 C   0  0  0  0  0  0  0  0  0  0  0  0
   -0.3027   -4.9332    9.8684 C   0  0  0  0  0  0  0  0  0  0  0  0
   -1.1214   -4.9628   10.9981 C   0  0  0  0  0  0  0  0  0  0  0  0
   -0.8769   -5.7289   12.1148 O   0  0  0  0  0  0  0  0  0  0  0  0
    0.4208   -6.0293   12.4531 C   0  0  0  0  0  0  0  0  0  0  0  0
    1.5079   -5.1638   12.2653 C   0  0  0  0  0  0  0  0  0  0  0  0
    2.7977   -5.5959   12.5608 C   0  0  0  0  0  0  0  0  0  0  0  0
    3.0002   -6.8573   13.1150 C   0  0  0  0  0  0  0  0  0  0  0  0
    1.9114   -7.6881   13.3798 C   0  0  0  0  0  0  0  0  0  0  0  0
    0.6250   -7.2742   13.0448 C   0  0  0  0  0  0  0  0  0  0  0  0
   -2.2915   -4.2137   11.0229 C   0  0  0  0  0  0  0  0  0  0  0  0
   -2.6037   -3.3821    9.9518 C   0  0  0  0  0  0  0  0  0  0  0  0
   -2.6303   -0.9805    7.8489 C   0  0  0  0  0  0  0  0  0  0  0  0
   -3.1982   -0.1160    8.8073 C   0  0  0  0  0  0  0  0  0  0  0  0
   -3.1394   -0.2860   10.1684 N   0  0  0  0  0  0  0  0  0  0  0  0
   -3.8627    0.9786    8.3914 N   0  0  0  0  0  0  0  0  0  0  0  0
   -3.9014    1.2402    7.0789 C   0  0  0  0  0  0  0  0  0  0  0  0
   -3.3380    0.5442    6.0862 N   0  0  0  0  0  0  0  0  0  0  0  0
   -2.7135   -0.5654    6.5192 C   0  0  0  0  0  0  0  0  0  0  0  0
   -2.1609   -2.8210    3.6403 C   0  0  0  0  0  0  0  0  0  0  0  0
   -2.2660   -2.8327    2.1199 C   0  0  0  0  0  0  0  0  0  0  0  0
   -5.2983   -2.0913    2.6159 C   0  0  0  0  0  0  0  0  0  0  0  0
   -6.0063   -0.9496    3.3984 C   0  0  0  0  0  0  0  0  0  0  0  0
   -7.4444    2.0308    2.7484 H   0  0  0  0  0  0  0  0  0  0  0  0
   -6.0888    1.7224    3.8561 H   0  0  0  0  0  0  0  0  0  0  0  0
   -7.6797    0.9827    4.1405 H   0  0  0  0  0  0  0  0  0  0  0  0
   -4.8197    1.0658    1.9131 H   0  0  0  0  0  0  0  0  0  0  0  0
   -6.1770    1.1875    0.8008 H   0  0  0  0  0  0  0  0  0  0  0  0
   -4.4944   -0.3337   -0.1429 H   0  0  0  0  0  0  0  0  0  0  0  0
   -5.9968   -1.1631    0.1661 H   0  0  0  0  0  0  0  0  0  0  0  0
   -2.7196   -1.6799    0.4335 H   0  0  0  0  0  0  0  0  0  0  0  0
   -2.7823    0.5355    1.5716 H   0  0  0  0  0  0  0  0  0  0  0  0
   -1.2915   -0.3439    1.7255 H   0  0  0  0  0  0  0  0  0  0  0  0
   -3.4473   -0.1223    3.8123 H   0  0  0  0  0  0  0  0  0  0  0  0
   -1.8904    0.6629    3.8526 H   0  0  0  0  0  0  0  0  0  0  0  0
   -0.7064   -1.3468    4.1946 H   0  0  0  0  0  0  0  0  0  0  0  0
   -1.0514   -3.3305    6.1059 H   0  0  0  0  0  0  0  0  0  0  0  0
    0.1462   -3.9619    8.0217 H   0  0  0  0  0  0  0  0  0  0  0  0
    0.5783   -5.5779    9.7800 H   0  0  0  0  0  0  0  0  0  0  0  0
    1.3662   -4.1663   11.8631 H   0  0  0  0  0  0  0  0  0  0  0  0
    3.6482   -4.9437   12.3556 H   0  0  0  0  0  0  0  0  0  0  0  0
    4.0120   -7.1935   13.3546 H   0  0  0  0  0  0  0  0  0  0  0  0
    2.0689   -8.6622   13.8350 H   0  0  0  0  0  0  0  0  0  0  0  0
   -0.2235   -7.9283   13.2358 H   0  0  0  0  0  0  0  0  0  0  0  0
   -2.9616   -4.2775   11.8727 H   0  0  0  0  0  0  0  0  0  0  0  0
   -3.5536   -2.8528    9.9615 H   0  0  0  0  0  0  0  0  0  0  0  0
   -2.5783   -1.0008   10.5996 H   0  0  0  0  0  0  0  0  0  0  0  0
   -3.6830    0.3562   10.7257 H   0  0  0  0  0  0  0  0  0  0  0  0
   -4.4539    2.1274    6.7874 H   0  0  0  0  0  0  0  0  0  0  0  0
   -3.0736   -3.2183    4.0931 H   0  0  0  0  0  0  0  0  0  0  0  0
   -1.3890   -3.5544    3.9108 H   0  0  0  0  0  0  0  0  0  0  0  0
   -2.7030   -3.7794    1.7799 H   0  0  0  0  0  0  0  0  0  0  0  0
   -1.2402   -2.8309    1.7243 H   0  0  0  0  0  0  0  0  0  0  0  0
   -4.7931   -2.7461    3.3215 H   0  0  0  0  0  0  0  0  0  0  0  0
   -6.1024   -2.7239    2.2131 H   0  0  0  0  0  0  0  0  0  0  0  0
   -5.3149   -0.5221    4.1212 H   0  0  0  0  0  0  0  0  0  0  0  0
   -6.8106   -1.3996    3.9950 H   0  0  0  0  0  0  0  0  0  0  0  0
  1  2  1  0  0  0  0
  1 37  1  0  0  0  0
  1 38  1  0  0  0  0
  1 39  1  0  0  0  0
  2  3  1  0  0  0  0
  2 36  1  0  0  0  0
  3  4  1  0  0  0  0
  3 40  1  0  0  0  0
  3 41  1  0  0  0  0
  4  5  1  0  0  0  0
  4 42  1  0  0  0  0
  4 43  1  0  0  0  0
  5 35  1  0  0  0  0
  6  7  1  0  0  0  0
  6 34  1  0  0  0  0
  6  5  1  0  0  0  0
  6 44  1  6  0  0  0
  7  8  1  0  0  0  0
  7 45  1  0  0  0  0
  7 46  1  0  0  0  0
  8  9  1  0  0  0  0
  8 47  1  0  0  0  0
  8 48  1  0  0  0  0
  9 10  1  0  0  0  0
  9 33  1  0  0  0  0
  9 49  1  6  0  0  0
 10 11  1  0  0  0  0
 10 32  1  0  0  0  0
 11 12  2  0  0  0  0
 11 50  1  0  0  0  0
 12 13  1  0  0  0  0
 12 26  1  0  0  0  0
 13 14  1  0  0  0  0
 13 25  2  0  0  0  0
 14 15  2  0  0  0  0
 14 51  1  0  0  0  0
 15 16  1  0  0  0  0
 15 52  1  0  0  0  0
 16 17  1  0  0  0  0
 16 24  2  0  0  0  0
 17 18  1  0  0  0  0
 18 19  1  0  0  0  0
 18 23  2  0  0  0  0
 19 20  2  0  0  0  0
 19 53  1  0  0  0  0
 20 21  1  0  0  0  0
 20 54  1  0  0  0  0
 21 22  2  0  0  0  0
 21 55  1  0  0  0  0
 22 23  1  0  0  0  0
 22 56  1  0  0  0  0
 23 57  1  0  0  0  0
 24 25  1  0  0  0  0
 24 58  1  0  0  0  0
 25 59  1  0  0  0  0
 26 27  1  0  0  0  0
 26 32  2  0  0  0  0
 27 28  1  0  0  0  0
 27 29  2  0  0  0  0
 28 60  1  0  0  0  0
 28 61  1  0  0  0  0
 29 30  1  0  0  0  0
 30 31  2  0  0  0  0
 30 62  1  0  0  0  0
 31 32  1  0  0  0  0
 33 34  1  0  0  0  0
 33 63  1  0  0  0  0
 33 64  1  0  0  0  0
 34 65  1  0  0  0  0
 34 66  1  0  0  0  0
 35 36  1  0  0  0  0
 35 67  1  0  0  0  0
 35 68  1  0  0  0  0
 36 69  1  0  0  0  0
 36 70  1  0  0  0  0
M  END
$$$$
