CHEMBL483451
 OpenBabel04072215383D

 51 55  0  0  0  0  0  0  0  0999 V2000
   -2.0862    1.4028    1.3887 O   0  0  0  0  0  0  0  0  0  0  0  0
   -1.4056    0.4332    1.1007 C   0  0  0  0  0  0  0  0  0  0  0  0
   -1.7522   -0.8716    1.3658 N   0  0  0  0  0  0  0  0  0  0  0  0
   -0.7017   -1.8024    1.0593 C   0  0  0  0  0  0  0  0  0  0  0  0
    0.3689   -0.9164    0.5161 C   0  0  0  0  0  0  0  0  0  0  0  0
    1.6239   -1.2742    0.0540 C   0  0  0  0  0  0  0  0  0  0  0  0
    2.4531   -0.2687   -0.4381 C   0  0  0  0  0  0  0  0  0  0  0  0
    2.0101    1.0652   -0.4878 C   0  0  0  0  0  0  0  0  0  0  0  0
    0.7303    1.4384   -0.0334 C   0  0  0  0  0  0  0  0  0  0  0  0
    0.2980    2.8255   -0.1932 C   0  0  0  0  0  0  0  0  0  0  0  0
    0.6348    3.7602   -1.1588 C   0  0  0  0  0  0  0  0  0  0  0  0
   -0.1040    4.9464   -0.9167 C   0  0  0  0  0  0  0  0  0  0  0  0
   -0.1948    6.1898   -1.5606 C   0  0  0  0  0  0  0  0  0  0  0  0
   -1.0428    7.1676   -1.0322 C   0  0  0  0  0  0  0  0  0  0  0  0
   -1.0146    8.3594   -1.6986 O   0  0  0  0  0  0  0  0  0  0  0  0
   -1.3211    9.5176   -0.9225 C   0  0  0  0  0  0  0  0  0  0  0  0
   -0.1397   10.4917   -0.9993 C   0  0  0  0  0  0  0  0  0  0  0  0
   -0.3520   11.7209   -0.2098 N   0  0  0  0  0  0  0  0  0  0  0  0
   -1.5314   12.4976   -0.6509 C   0  0  0  0  0  0  0  0  0  0  0  0
   -1.3526   13.1106   -2.0465 C   0  0  0  0  0  0  0  0  0  0  0  0
   -0.2162   13.9833   -2.0737 O   0  0  0  0  0  0  0  0  0  0  0  0
    0.9794   13.3003   -1.6699 C   0  0  0  0  0  0  0  0  0  0  0  0
    0.8237   12.6158   -0.2983 C   0  0  0  0  0  0  0  0  0  0  0  0
   -1.8500    6.8872    0.0712 C   0  0  0  0  0  0  0  0  0  0  0  0
   -1.7690    5.6606    0.7307 C   0  0  0  0  0  0  0  0  0  0  0  0
   -0.8812    4.7186    0.2125 C   0  0  0  0  0  0  0  0  0  0  0  0
   -0.6156    3.4404    0.6315 N   0  0  0  0  0  0  0  0  0  0  0  0
   -0.0575    0.4194    0.4970 C   0  0  0  0  0  0  0  0  0  0  0  0
   -2.6282   -1.0954    1.8176 H   0  0  0  0  0  0  0  0  0  0  0  0
   -1.0690   -2.5129    0.3146 H   0  0  0  0  0  0  0  0  0  0  0  0
   -0.3956   -2.3076    1.9797 H   0  0  0  0  0  0  0  0  0  0  0  0
    1.9595   -2.3065    0.0719 H   0  0  0  0  0  0  0  0  0  0  0  0
    3.4491   -0.5123   -0.8011 H   0  0  0  0  0  0  0  0  0  0  0  0
    2.6868    1.8176   -0.8928 H   0  0  0  0  0  0  0  0  0  0  0  0
    1.3157    3.5995   -1.9841 H   0  0  0  0  0  0  0  0  0  0  0  0
    0.3930    6.3955   -2.4495 H   0  0  0  0  0  0  0  0  0  0  0  0
   -1.5150    9.3227    0.1357 H   0  0  0  0  0  0  0  0  0  0  0  0
   -2.2241    9.9457   -1.3656 H   0  0  0  0  0  0  0  0  0  0  0  0
    0.0882   10.6920   -2.0526 H   0  0  0  0  0  0  0  0  0  0  0  0
    0.7446    9.9690   -0.6086 H   0  0  0  0  0  0  0  0  0  0  0  0
   -1.6817   13.3085    0.0737 H   0  0  0  0  0  0  0  0  0  0  0  0
   -2.4463   11.8994   -0.6029 H   0  0  0  0  0  0  0  0  0  0  0  0
   -2.2357   13.7040   -2.3019 H   0  0  0  0  0  0  0  0  0  0  0  0
   -1.2443   12.3428   -2.8217 H   0  0  0  0  0  0  0  0  0  0  0  0
    1.7763   14.0483   -1.6132 H   0  0  0  0  0  0  0  0  0  0  0  0
    1.2618   12.5825   -2.4479 H   0  0  0  0  0  0  0  0  0  0  0  0
    0.6986   13.3941    0.4661 H   0  0  0  0  0  0  0  0  0  0  0  0
    1.7408   12.0766   -0.0330 H   0  0  0  0  0  0  0  0  0  0  0  0
   -2.5703    7.6070    0.4470 H   0  0  0  0  0  0  0  0  0  0  0  0
   -2.3798    5.4497    1.6021 H   0  0  0  0  0  0  0  0  0  0  0  0
   -1.1113    2.9797    1.3868 H   0  0  0  0  0  0  0  0  0  0  0  0
  1  2  2  0  0  0  0
  2  3  1  0  0  0  0
  2 28  1  0  0  0  0
  3  4  1  0  0  0  0
  3 29  1  0  0  0  0
  4  5  1  0  0  0  0
  4 30  1  0  0  0  0
  4 31  1  0  0  0  0
  5  6  1  0  0  0  0
  5 28  2  0  0  0  0
  6  7  2  0  0  0  0
  6 32  1  0  0  0  0
  7  8  1  0  0  0  0
  7 33  1  0  0  0  0
  8  9  2  0  0  0  0
  8 34  1  0  0  0  0
  9 10  1  0  0  0  0
  9 28  1  0  0  0  0
 10 11  2  0  0  0  0
 10 27  1  0  0  0  0
 11 12  1  0  0  0  0
 11 35  1  0  0  0  0
 12 13  1  0  0  0  0
 12 26  2  0  0  0  0
 13 14  2  0  0  0  0
 13 36  1  0  0  0  0
 14 15  1  0  0  0  0
 14 24  1  0  0  0  0
 15 16  1  0  0  0  0
 16 17  1  0  0  0  0
 16 37  1  0  0  0  0
 16 38  1  0  0  0  0
 17 18  1  0  0  0  0
 17 39  1  0  0  0  0
 17 40  1  0  0  0  0
 18 19  1  0  0  0  0
 18 23  1  0  0  0  0
 19 20  1  0  0  0  0
 19 41  1  0  0  0  0
 19 42  1  0  0  0  0
 20 21  1  0  0  0  0
 20 43  1  0  0  0  0
 20 44  1  0  0  0  0
 21 22  1  0  0  0  0
 22 23  1  0  0  0  0
 22 45  1  0  0  0  0
 22 46  1  0  0  0  0
 23 47  1  0  0  0  0
 23 48  1  0  0  0  0
 24 25  2  0  0  0  0
 24 49  1  0  0  0  0
 25 26  1  0  0  0  0
 25 50  1  0  0  0  0
 26 27  1  0  0  0  0
 27 51  1  0  0  0  0
M  END
$$$$
