CHEMBL264943
 OpenBabel04072215363D

 46 50  0  0  0  0  0  0  0  0999 V2000
   -0.3845   -2.3071   -0.1729 C   0  0  0  0  0  0  0  0  0  0  0  0
    0.0957   -0.9419    0.1042 C   0  0  0  0  0  0  0  0  0  0  0  0
   -0.3852   -0.1898    1.0988 N   0  0  0  0  0  0  0  0  0  0  0  0
    0.4548    0.9265    1.0805 O   0  0  0  0  0  0  0  0  0  0  0  0
    1.3596    0.7331    0.0634 C   0  0  0  0  0  0  0  0  0  0  0  0
    2.5070    1.6552   -0.2080 C   0  0  0  0  0  0  0  0  0  0  0  0
    2.8075    2.6987    0.6307 C   0  0  0  0  0  0  0  0  0  0  0  0
    3.9405    3.2917    0.1711 N   0  0  0  0  0  0  0  0  0  0  0  0
    4.5488    4.3042    0.8025 N   0  0  0  0  0  0  0  0  0  0  0  0
    5.5915    4.7531    0.1891 C   0  0  0  0  0  0  0  0  0  0  0  0
    6.0765    4.3101   -1.0062 N   0  0  0  0  0  0  0  0  0  0  0  0
    5.4963    3.3245   -1.6315 C   0  0  0  0  0  0  0  0  0  0  0  0
    6.0277    2.9081   -2.8333 N   0  0  0  0  0  0  0  0  0  0  0  0
    6.6274    3.7947   -3.7636 C   0  0  0  0  0  0  0  0  0  0  0  0
    7.6385    3.3590   -4.6297 C   0  0  0  0  0  0  0  0  0  0  0  0
    8.2435    4.0812   -5.6090 N   0  0  0  0  0  0  0  0  0  0  0  0
    7.7480    5.3278   -5.7078 C   0  0  0  0  0  0  0  0  0  0  0  0
    8.1687    6.2638   -6.6128 N   0  0  0  0  0  0  0  0  0  0  0  0
    7.4469    7.4206   -6.4566 C   0  0  0  0  0  0  0  0  0  0  0  0
    6.5500    7.2219   -5.4275 C   0  0  0  0  0  0  0  0  0  0  0  0
    6.7356    5.8980   -4.9464 C   0  0  0  0  0  0  0  0  0  0  0  0
    6.1507    5.1001   -3.9517 C   0  0  0  0  0  0  0  0  0  0  0  0
    4.3474    2.7083   -1.0037 C   0  0  0  0  0  0  0  0  0  0  0  0
    3.4702    1.6505   -1.2892 C   0  0  0  0  0  0  0  0  0  0  0  0
    3.3657    0.6871   -2.4651 C   0  0  0  0  0  0  0  0  0  0  0  0
    2.4387    1.2410   -3.5500 C   0  0  0  0  0  0  0  0  0  0  0  0
    4.6593    0.1633   -3.0721 C   0  0  0  0  0  0  0  0  0  0  0  0
    1.1382   -0.3903   -0.5862 N   0  0  0  0  0  0  0  0  0  0  0  0
   -1.3884   -2.4729    0.2279 H   0  0  0  0  0  0  0  0  0  0  0  0
    0.2931   -3.0347    0.2863 H   0  0  0  0  0  0  0  0  0  0  0  0
   -0.4072   -2.4976   -1.2500 H   0  0  0  0  0  0  0  0  0  0  0  0
    2.3364    3.0526    1.5376 H   0  0  0  0  0  0  0  0  0  0  0  0
    6.1532    5.5790    0.6593 H   0  0  0  0  0  0  0  0  0  0  0  0
    6.5713    2.0598   -2.7213 H   0  0  0  0  0  0  0  0  0  0  0  0
    8.0231    2.3443   -4.5526 H   0  0  0  0  0  0  0  0  0  0  0  0
    8.8981    6.0975   -7.2901 H   0  0  0  0  0  0  0  0  0  0  0  0
    7.6314    8.2790   -7.0885 H   0  0  0  0  0  0  0  0  0  0  0  0
    5.8359    7.9485   -5.0622 H   0  0  0  0  0  0  0  0  0  0  0  0
    5.3422    5.4990   -3.3463 H   0  0  0  0  0  0  0  0  0  0  0  0
    2.8926   -0.2248   -2.0878 H   0  0  0  0  0  0  0  0  0  0  0  0
    2.8099    2.1908   -3.9484 H   0  0  0  0  0  0  0  0  0  0  0  0
    1.4327    1.4171   -3.1516 H   0  0  0  0  0  0  0  0  0  0  0  0
    2.3418    0.5338   -4.3810 H   0  0  0  0  0  0  0  0  0  0  0  0
    5.1226    0.8806   -3.7484 H   0  0  0  0  0  0  0  0  0  0  0  0
    4.4454   -0.7196   -3.6888 H   0  0  0  0  0  0  0  0  0  0  0  0
    5.3761   -0.1394   -2.3033 H   0  0  0  0  0  0  0  0  0  0  0  0
  1  2  1  0  0  0  0
  1 29  1  0  0  0  0
  1 30  1  0  0  0  0
  1 31  1  0  0  0  0
  2  3  2  0  0  0  0
  2 28  1  0  0  0  0
  3  4  1  0  0  0  0
  4  5  1  0  0  0  0
  5  6  1  0  0  0  0
  5 28  2  0  0  0  0
  6  7  2  0  0  0  0
  6 24  1  0  0  0  0
  7  8  1  0  0  0  0
  7 32  1  0  0  0  0
  8  9  1  0  0  0  0
  8 23  1  0  0  0  0
  9 10  2  0  0  0  0
 10 11  1  0  0  0  0
 10 33  1  0  0  0  0
 11 12  2  0  0  0  0
 12 13  1  0  0  0  0
 12 23  1  0  0  0  0
 13 14  1  0  0  0  0
 13 34  1  0  0  0  0
 14 15  1  0  0  0  0
 14 22  2  0  0  0  0
 15 16  2  0  0  0  0
 15 35  1  0  0  0  0
 16 17  1  0  0  0  0
 17 18  1  0  0  0  0
 17 21  2  0  0  0  0
 18 19  1  0  0  0  0
 18 36  1  0  0  0  0
 19 20  2  0  0  0  0
 19 37  1  0  0  0  0
 20 21  1  0  0  0  0
 20 38  1  0  0  0  0
 21 22  1  0  0  0  0
 22 39  1  0  0  0  0
 23 24  2  0  0  0  0
 24 25  1  0  0  0  0
 25 26  1  0  0  0  0
 25 27  1  0  0  0  0
 25 40  1  0  0  0  0
 26 41  1  0  0  0  0
 26 42  1  0  0  0  0
 26 43  1  0  0  0  0
 27 44  1  0  0  0  0
 27 45  1  0  0  0  0
 27 46  1  0  0  0  0
M  END
$$$$
