CHEMBL426009
 OpenBabel04072215383D

 64 69  0  0  0  0  0  0  0  0999 V2000
    1.9326    0.0092   -1.0596 C   0  0  0  0  0  0  0  0  0  0  0  0
    0.4870    0.1999   -1.0730 N   0  0  0  0  0  0  0  0  0  0  0  0
   -0.2175   -1.0359   -0.6965 C   0  0  0  0  0  0  0  0  0  0  0  0
   -1.7463   -0.8155   -0.7361 C   0  0  0  0  0  0  0  0  0  0  0  0
   -2.2255    0.2139    0.2126 N   0  0  0  0  0  0  0  0  0  0  0  0
   -2.0591   -0.1427    1.6378 C   0  0  0  0  0  0  0  0  0  0  0  0
   -2.7780   -1.4090    2.0866 C   0  0  0  0  0  0  0  0  0  0  0  0
   -2.1209   -2.6607    2.0013 C   0  0  0  0  0  0  0  0  0  0  0  0
   -2.7525   -3.8669    2.3169 C   0  0  0  0  0  0  0  0  0  0  0  0
   -4.0337   -3.7705    2.8021 C   0  0  0  0  0  0  0  0  0  0  0  0
   -4.6988   -2.5356    2.9865 C   0  0  0  0  0  0  0  0  0  0  0  0
   -4.0836   -1.3486    2.6067 C   0  0  0  0  0  0  0  0  0  0  0  0
   -6.0838   -2.6965    3.6386 C   0  0  0  0  0  0  0  0  0  0  0  0
   -6.0797   -4.1845    3.7308 C   0  0  0  0  0  0  0  0  0  0  0  0
   -6.8535   -5.2645    4.1670 C   0  0  0  0  0  0  0  0  0  0  0  0
   -8.1762   -5.1367    4.7737 C   0  0  0  0  0  0  0  0  0  0  0  0
   -8.8476   -3.9495    4.9682 C   0  0  0  0  0  0  0  0  0  0  0  0
  -10.3556   -4.1742    5.7291 S   0  0  0  0  0  0  0  0  0  0  0  0
  -10.1243   -5.8636    5.8049 C   0  0  0  0  0  0  0  0  0  0  0  0
  -11.0855   -6.7315    6.3849 C   0  0  0  0  0  0  0  0  0  0  0  0
  -11.9974   -7.4911    6.9248 C   0  0  0  0  0  0  0  0  0  0  0  0
  -13.0606   -8.3765    7.5541 C   0  0  0  0  0  0  0  0  0  0  0  0
  -12.7931   -9.7676    7.2170 N   0  0  0  0  0  0  0  0  0  0  0  0
  -13.6862  -10.7187    7.7356 C   0  0  0  0  0  0  0  0  0  0  0  0
  -15.0416  -10.4339    7.9477 C   0  0  0  0  0  0  0  0  0  0  0  0
  -15.9265  -11.4080    8.4137 C   0  0  0  0  0  0  0  0  0  0  0  0
  -15.4759  -12.7017    8.6425 C   0  0  0  0  0  0  0  0  0  0  0  0
  -14.1445  -13.0214    8.3911 C   0  0  0  0  0  0  0  0  0  0  0  0
  -13.2611  -12.0410    7.9236 C   0  0  0  0  0  0  0  0  0  0  0  0
   -8.9293   -6.2557    5.2449 C   0  0  0  0  0  0  0  0  0  0  0  0
   -6.2221   -6.4398    3.9704 N   0  0  0  0  0  0  0  0  0  0  0  0
   -5.0476   -6.0939    3.3832 N   0  0  0  0  0  0  0  0  0  0  0  0
   -4.9370   -4.7621    3.2582 C   0  0  0  0  0  0  0  0  0  0  0  0
   -1.4784    1.4606   -0.1056 C   0  0  0  0  0  0  0  0  0  0  0  0
    0.0694    1.3063   -0.1897 C   0  0  0  0  0  0  0  0  0  0  0  0
    2.2167   -0.8161   -1.7235 H   0  0  0  0  0  0  0  0  0  0  0  0
    2.3163   -0.2117   -0.0574 H   0  0  0  0  0  0  0  0  0  0  0  0
    2.4397    0.9031   -1.4381 H   0  0  0  0  0  0  0  0  0  0  0  0
    0.1007   -1.3637    0.3005 H   0  0  0  0  0  0  0  0  0  0  0  0
    0.0374   -1.8429   -1.3920 H   0  0  0  0  0  0  0  0  0  0  0  0
   -2.2822   -1.7601   -0.6090 H   0  0  0  0  0  0  0  0  0  0  0  0
   -2.0153   -0.4887   -1.7537 H   0  0  0  0  0  0  0  0  0  0  0  0
   -2.4586    0.6862    2.2391 H   0  0  0  0  0  0  0  0  0  0  0  0
   -1.0057   -0.2252    1.9291 H   0  0  0  0  0  0  0  0  0  0  0  0
   -1.0828   -2.7104    1.6702 H   0  0  0  0  0  0  0  0  0  0  0  0
   -2.2530   -4.8150    2.1982 H   0  0  0  0  0  0  0  0  0  0  0  0
   -4.5978   -0.3964    2.7226 H   0  0  0  0  0  0  0  0  0  0  0  0
   -6.8772   -2.3185    2.9901 H   0  0  0  0  0  0  0  0  0  0  0  0
   -6.1020   -2.2316    4.6291 H   0  0  0  0  0  0  0  0  0  0  0  0
   -8.5328   -2.9526    4.7066 H   0  0  0  0  0  0  0  0  0  0  0  0
  -14.0205   -8.0389    7.1498 H   0  0  0  0  0  0  0  0  0  0  0  0
  -13.0517   -8.2278    8.6400 H   0  0  0  0  0  0  0  0  0  0  0  0
  -11.8225  -10.0216    7.3784 H   0  0  0  0  0  0  0  0  0  0  0  0
  -15.4455   -9.4508    7.7484 H   0  0  0  0  0  0  0  0  0  0  0  0
  -16.9678  -11.1476    8.5823 H   0  0  0  0  0  0  0  0  0  0  0  0
  -16.1674  -13.4591    9.0008 H   0  0  0  0  0  0  0  0  0  0  0  0
  -13.7947  -14.0373    8.5517 H   0  0  0  0  0  0  0  0  0  0  0  0
  -12.2322  -12.3233    7.7187 H   0  0  0  0  0  0  0  0  0  0  0  0
   -8.5974   -7.2851    5.1827 H   0  0  0  0  0  0  0  0  0  0  0  0
   -4.4006   -6.8245    3.1081 H   0  0  0  0  0  0  0  0  0  0  0  0
   -1.7341    2.2518    0.6090 H   0  0  0  0  0  0  0  0  0  0  0  0
   -1.8358    1.8225   -1.0802 H   0  0  0  0  0  0  0  0  0  0  0  0
    0.4706    1.1605    0.8213 H   0  0  0  0  0  0  0  0  0  0  0  0
    0.4869    2.2468   -0.5694 H   0  0  0  0  0  0  0  0  0  0  0  0
  1  2  1  0  0  0  0
  1 36  1  0  0  0  0
  1 37  1  0  0  0  0
  1 38  1  0  0  0  0
  2  3  1  0  0  0  0
  2 35  1  0  0  0  0
  3  4  1  0  0  0  0
  3 39  1  0  0  0  0
  3 40  1  0  0  0  0
  4  5  1  0  0  0  0
  4 41  1  0  0  0  0
  4 42  1  0  0  0  0
  5  6  1  0  0  0  0
  5 34  1  0  0  0  0
  6  7  1  0  0  0  0
  6 43  1  0  0  0  0
  6 44  1  0  0  0  0
  7  8  1  0  0  0  0
  7 12  2  0  0  0  0
  8  9  2  0  0  0  0
  8 45  1  0  0  0  0
  9 10  1  0  0  0  0
  9 46  1  0  0  0  0
 10 11  2  0  0  0  0
 10 33  1  0  0  0  0
 11 12  1  0  0  0  0
 11 13  1  0  0  0  0
 12 47  1  0  0  0  0
 13 14  1  0  0  0  0
 13 48  1  0  0  0  0
 13 49  1  0  0  0  0
 14 15  1  0  0  0  0
 14 33  2  0  0  0  0
 15 16  1  0  0  0  0
 15 31  2  0  0  0  0
 16 17  2  0  0  0  0
 16 30  1  0  0  0  0
 17 18  1  0  0  0  0
 17 50  1  0  0  0  0
 18 19  1  0  0  0  0
 19 20  1  0  0  0  0
 19 30  2  0  0  0  0
 20 21  3  0  0  0  0
 21 22  1  0  0  0  0
 22 23  1  0  0  0  0
 22 51  1  0  0  0  0
 22 52  1  0  0  0  0
 23 24  1  0  0  0  0
 23 53  1  0  0  0  0
 24 25  1  0  0  0  0
 24 29  2  0  0  0  0
 25 26  2  0  0  0  0
 25 54  1  0  0  0  0
 26 27  1  0  0  0  0
 26 55  1  0  0  0  0
 27 28  2  0  0  0  0
 27 56  1  0  0  0  0
 28 29  1  0  0  0  0
 28 57  1  0  0  0  0
 29 58  1  0  0  0  0
 30 59  1  0  0  0  0
 31 32  1  0  0  0  0
 32 33  1  0  0  0  0
 32 60  1  0  0  0  0
 34 35  1  0  0  0  0
 34 61  1  0  0  0  0
 34 62  1  0  0  0  0
 35 63  1  0  0  0  0
 35 64  1  0  0  0  0
M  END
$$$$
