CHEMBL3979083
 OpenBabel04072215373D

 58 61  0  0  0  0  0  0  0  0999 V2000
    2.6316    0.2349    0.1367 C   0  0  0  0  0  0  0  0  0  0  0  0
    1.1326    0.0957    0.1442 C   0  0  0  0  0  0  0  0  0  0  0  0
    0.3837    1.2912    0.1555 C   0  0  0  0  0  0  0  0  0  0  0  0
   -1.0083    1.2907   -0.0034 C   0  0  0  0  0  0  0  0  0  0  0  0
   -1.7711    2.4350   -0.0823 O   0  0  0  0  0  0  0  0  0  0  0  0
   -1.2457    3.5422   -0.7187 C   0  0  0  0  0  0  0  0  0  0  0  0
   -0.3705    3.4552   -1.7974 C   0  0  0  0  0  0  0  0  0  0  0  0
    0.1797    4.6242   -2.2654 C   0  0  0  0  0  0  0  0  0  0  0  0
   -0.1472    5.8359   -1.7852 N   0  0  0  0  0  0  0  0  0  0  0  0
   -1.0646    5.9283   -0.8065 C   0  0  0  0  0  0  0  0  0  0  0  0
   -1.4399    7.1995   -0.3316 N   0  0  0  0  0  0  0  0  0  0  0  0
   -0.8868    8.3787   -0.7918 C   0  0  0  0  0  0  0  0  0  0  0  0
   -0.0038    8.5085   -1.6283 O   0  0  0  0  0  0  0  0  0  0  0  0
   -1.4022    9.6429   -0.1860 C   0  0  0  0  0  0  0  0  0  0  0  0
   -1.1894    9.8950    1.2885 C   0  0  0  0  0  0  0  0  0  0  0  0
   -2.5822    9.8012    0.7338 C   0  0  0  0  0  0  0  0  0  0  0  0
   -1.6426    4.7958   -0.2448 C   0  0  0  0  0  0  0  0  0  0  0  0
   -1.6720    0.0820   -0.0680 C   0  0  0  0  0  0  0  0  0  0  0  0
   -0.9472   -1.1115   -0.0199 C   0  0  0  0  0  0  0  0  0  0  0  0
    0.4555   -1.1381    0.0917 C   0  0  0  0  0  0  0  0  0  0  0  0
    1.1712   -2.3699    0.1616 N   0  0  0  0  0  0  0  0  0  0  0  0
    0.5931   -3.6001    0.4320 C   0  0  0  0  0  0  0  0  0  0  0  0
   -0.6075   -3.7858    0.6239 O   0  0  0  0  0  0  0  0  0  0  0  0
    1.5121   -4.6400    0.5301 N   0  0  0  0  0  0  0  0  0  0  0  0
    1.0081   -5.9312    0.8699 C   0  0  0  0  0  0  0  0  0  0  0  0
   -0.0778   -6.4916    0.1808 C   0  0  0  0  0  0  0  0  0  0  0  0
   -0.7024   -7.6615    0.6450 C   0  0  0  0  0  0  0  0  0  0  0  0
   -1.9131   -8.2217   -0.0740 C   0  0  0  0  0  0  0  0  0  0  0  0
   -3.2113   -7.6097    0.4306 C   0  0  0  0  0  0  0  0  0  0  0  0
   -1.8535   -8.0164   -1.4231 F   0  0  0  0  0  0  0  0  0  0  0  0
   -2.0130   -9.5770    0.0744 F   0  0  0  0  0  0  0  0  0  0  0  0
   -0.2092   -8.2735    1.8082 C   0  0  0  0  0  0  0  0  0  0  0  0
    0.9075   -7.7497    2.4664 C   0  0  0  0  0  0  0  0  0  0  0  0
    1.5217   -6.5974    1.9816 C   0  0  0  0  0  0  0  0  0  0  0  0
    2.5597   -6.0744    2.6519 F   0  0  0  0  0  0  0  0  0  0  0  0
    2.9328    1.2713    0.3364 H   0  0  0  0  0  0  0  0  0  0  0  0
    3.0245   -0.0277   -0.8513 H   0  0  0  0  0  0  0  0  0  0  0  0
    3.0977   -0.3868    0.9040 H   0  0  0  0  0  0  0  0  0  0  0  0
    0.9069    2.2388    0.2642 H   0  0  0  0  0  0  0  0  0  0  0  0
   -0.0793    2.5096   -2.2382 H   0  0  0  0  0  0  0  0  0  0  0  0
    0.9294    4.6249   -3.0503 H   0  0  0  0  0  0  0  0  0  0  0  0
   -2.1352    7.2382    0.3948 H   0  0  0  0  0  0  0  0  0  0  0  0
   -1.2215   10.4921   -0.8443 H   0  0  0  0  0  0  0  0  0  0  0  0
   -0.7990   10.8680    1.5669 H   0  0  0  0  0  0  0  0  0  0  0  0
   -0.8250    9.0829    1.9067 H   0  0  0  0  0  0  0  0  0  0  0  0
   -3.1493   10.7245    0.6509 H   0  0  0  0  0  0  0  0  0  0  0  0
   -3.1923    8.9514    1.0031 H   0  0  0  0  0  0  0  0  0  0  0  0
   -2.3719    4.8628    0.5541 H   0  0  0  0  0  0  0  0  0  0  0  0
   -2.7550    0.0431   -0.1649 H   0  0  0  0  0  0  0  0  0  0  0  0
   -1.5311   -2.0212   -0.1096 H   0  0  0  0  0  0  0  0  0  0  0  0
    2.1775   -2.3329    0.1043 H   0  0  0  0  0  0  0  0  0  0  0  0
    2.3738   -4.3914    1.0009 H   0  0  0  0  0  0  0  0  0  0  0  0
   -0.4712   -5.9924   -0.7045 H   0  0  0  0  0  0  0  0  0  0  0  0
   -3.2460   -6.5313    0.2456 H   0  0  0  0  0  0  0  0  0  0  0  0
   -3.3496   -7.7893    1.5018 H   0  0  0  0  0  0  0  0  0  0  0  0
   -4.0629   -8.0610   -0.0905 H   0  0  0  0  0  0  0  0  0  0  0  0
   -0.7002   -9.1605    2.2070 H   0  0  0  0  0  0  0  0  0  0  0  0
    1.2786   -8.2156    3.3740 H   0  0  0  0  0  0  0  0  0  0  0  0
  1  2  1  0  0  0  0
  1 36  1  0  0  0  0
  1 37  1  0  0  0  0
  1 38  1  0  0  0  0
  2  3  1  0  0  0  0
  2 20  2  0  0  0  0
  3  4  2  0  0  0  0
  3 39  1  0  0  0  0
  4  5  1  0  0  0  0
  4 18  1  0  0  0  0
  5  6  1  0  0  0  0
  6  7  1  0  0  0  0
  6 17  2  0  0  0  0
  7  8  2  0  0  0  0
  7 40  1  0  0  0  0
  8  9  1  0  0  0  0
  8 41  1  0  0  0  0
  9 10  2  0  0  0  0
 10 11  1  0  0  0  0
 10 17  1  0  0  0  0
 11 12  1  0  0  0  0
 11 42  1  0  0  0  0
 12 13  2  0  0  0  0
 12 14  1  0  0  0  0
 14 15  1  0  0  0  0
 14 16  1  0  0  0  0
 14 43  1  0  0  0  0
 15 16  1  0  0  0  0
 15 44  1  0  0  0  0
 15 45  1  0  0  0  0
 16 46  1  0  0  0  0
 16 47  1  0  0  0  0
 17 48  1  0  0  0  0
 18 19  2  0  0  0  0
 18 49  1  0  0  0  0
 19 20  1  0  0  0  0
 19 50  1  0  0  0  0
 20 21  1  0  0  0  0
 21 22  1  0  0  0  0
 21 51  1  0  0  0  0
 22 23  2  0  0  0  0
 22 24  1  0  0  0  0
 24 25  1  0  0  0  0
 24 52  1  0  0  0  0
 25 26  1  0  0  0  0
 25 34  2  0  0  0  0
 26 27  2  0  0  0  0
 26 53  1  0  0  0  0
 27 28  1  0  0  0  0
 27 32  1  0  0  0  0
 28 29  1  0  0  0  0
 28 30  1  0  0  0  0
 28 31  1  0  0  0  0
 29 54  1  0  0  0  0
 29 55  1  0  0  0  0
 29 56  1  0  0  0  0
 32 33  2  0  0  0  0
 32 57  1  0  0  0  0
 33 34  1  0  0  0  0
 33 58  1  0  0  0  0
 34 35  1  0  0  0  0
M  END
$$$$
