CHEMBL382672
 OpenBabel04072215373D

 50 54  0  0  0  0  0  0  0  0999 V2000
    2.1225   -0.0003    0.0161 C   0  0  0  0  0  0  0  0  0  0  0  0
    0.6835   -0.1214    0.0516 N   0  0  0  0  0  0  0  0  0  0  0  0
   -0.1865    0.9328    0.0260 C   0  0  0  0  0  0  0  0  0  0  0  0
   -1.4376    0.5271    0.0245 N   0  0  0  0  0  0  0  0  0  0  0  0
   -1.3682   -0.8335    0.0738 C   0  0  0  0  0  0  0  0  0  0  0  0
   -2.4778   -1.5990    0.0873 N   0  0  0  0  0  0  0  0  0  0  0  0
   -3.7101   -1.0830   -0.5053 C   0  0  0  0  0  0  0  0  0  0  0  0
   -4.8278   -2.1256   -0.3787 C   0  0  0  0  0  0  0  0  0  0  0  0
   -6.1295   -1.6805   -1.0013 C   0  0  0  0  0  0  0  0  0  0  0  0
   -7.0766   -0.9661   -0.2327 C   0  0  0  0  0  0  0  0  0  0  0  0
   -8.2956   -0.5589   -0.7865 C   0  0  0  0  0  0  0  0  0  0  0  0
   -8.5402   -0.8754   -2.1053 C   0  0  0  0  0  0  0  0  0  0  0  0
   -7.6221   -1.5609   -2.8642 C   0  0  0  0  0  0  0  0  0  0  0  0
   -6.4097   -1.9712   -2.3476 C   0  0  0  0  0  0  0  0  0  0  0  0
   -8.0575   -1.7750   -4.1351 O   0  0  0  0  0  0  0  0  0  0  0  0
   -9.3684   -1.1738   -4.0769 C   0  0  0  0  0  0  0  0  0  0  0  0
   -9.6683   -0.5722   -2.8007 O   0  0  0  0  0  0  0  0  0  0  0  0
   -0.0629   -1.2790    0.0880 C   0  0  0  0  0  0  0  0  0  0  0  0
    0.4663   -2.6009    0.0867 C   0  0  0  0  0  0  0  0  0  0  0  0
    1.7555   -2.8750    0.0514 N   0  0  0  0  0  0  0  0  0  0  0  0
    1.8721   -4.2378   -0.0207 N   0  0  0  0  0  0  0  0  0  0  0  0
    0.6524   -4.7277   -0.0341 C   0  0  0  0  0  0  0  0  0  0  0  0
    0.1946   -5.9874   -0.1673 N   0  0  0  0  0  0  0  0  0  0  0  0
    0.8634   -7.0432   -0.8245 C   0  0  0  0  0  0  0  0  0  0  0  0
    2.1406   -6.9124   -1.3913 C   0  0  0  0  0  0  0  0  0  0  0  0
    2.7704   -7.9852   -2.0280 C   0  0  0  0  0  0  0  0  0  0  0  0
    2.1345   -9.2173   -2.0900 C   0  0  0  0  0  0  0  0  0  0  0  0
    2.8983  -10.5336   -2.8908 Cl  0  0  0  0  0  0  0  0  0  0  0  0
    0.8817   -9.3866   -1.5069 C   0  0  0  0  0  0  0  0  0  0  0  0
    0.2559   -8.3073   -0.8715 C   0  0  0  0  0  0  0  0  0  0  0  0
   -0.2984   -3.7482    0.0685 O   0  0  0  0  0  0  0  0  0  0  0  0
    2.4022    1.0565    0.0256 H   0  0  0  0  0  0  0  0  0  0  0  0
    2.4896   -0.4626   -0.9042 H   0  0  0  0  0  0  0  0  0  0  0  0
    2.5404   -0.4914    0.8984 H   0  0  0  0  0  0  0  0  0  0  0  0
    0.1395    1.9648    0.0033 H   0  0  0  0  0  0  0  0  0  0  0  0
   -2.3623   -2.6041    0.0094 H   0  0  0  0  0  0  0  0  0  0  0  0
   -3.5373   -0.8561   -1.5650 H   0  0  0  0  0  0  0  0  0  0  0  0
   -4.0130   -0.1531   -0.0085 H   0  0  0  0  0  0  0  0  0  0  0  0
   -4.9944   -2.3691    0.6789 H   0  0  0  0  0  0  0  0  0  0  0  0
   -4.5132   -3.0688   -0.8455 H   0  0  0  0  0  0  0  0  0  0  0  0
   -6.8672   -0.7318    0.8094 H   0  0  0  0  0  0  0  0  0  0  0  0
   -9.0272   -0.0170   -0.1986 H   0  0  0  0  0  0  0  0  0  0  0  0
   -5.7062   -2.5110   -2.9724 H   0  0  0  0  0  0  0  0  0  0  0  0
  -10.1169   -1.9481   -4.2825 H   0  0  0  0  0  0  0  0  0  0  0  0
   -9.4377   -0.4045   -4.8543 H   0  0  0  0  0  0  0  0  0  0  0  0
   -0.8029   -6.1234   -0.0686 H   0  0  0  0  0  0  0  0  0  0  0  0
    2.6772   -5.9683   -1.3733 H   0  0  0  0  0  0  0  0  0  0  0  0
    3.7518   -7.8414   -2.4714 H   0  0  0  0  0  0  0  0  0  0  0  0
    0.3862  -10.3535   -1.5435 H   0  0  0  0  0  0  0  0  0  0  0  0
   -0.7183   -8.4692   -0.4157 H   0  0  0  0  0  0  0  0  0  0  0  0
  1  2  1  0  0  0  0
  1 32  1  0  0  0  0
  1 33  1  0  0  0  0
  1 34  1  0  0  0  0
  2  3  1  0  0  0  0
  2 18  1  0  0  0  0
  3  4  2  0  0  0  0
  3 35  1  0  0  0  0
  4  5  1  0  0  0  0
  5  6  1  0  0  0  0
  5 18  2  0  0  0  0
  6  7  1  0  0  0  0
  6 36  1  0  0  0  0
  7  8  1  0  0  0  0
  7 37  1  0  0  0  0
  7 38  1  0  0  0  0
  8  9  1  0  0  0  0
  8 39  1  0  0  0  0
  8 40  1  0  0  0  0
  9 10  1  0  0  0  0
  9 14  2  0  0  0  0
 10 11  2  0  0  0  0
 10 41  1  0  0  0  0
 11 12  1  0  0  0  0
 11 42  1  0  0  0  0
 12 13  2  0  0  0  0
 12 17  1  0  0  0  0
 13 14  1  0  0  0  0
 13 15  1  0  0  0  0
 14 43  1  0  0  0  0
 15 16  1  0  0  0  0
 16 17  1  0  0  0  0
 16 44  1  0  0  0  0
 16 45  1  0  0  0  0
 18 19  1  0  0  0  0
 19 20  2  0  0  0  0
 19 31  1  0  0  0  0
 20 21  1  0  0  0  0
 21 22  2  0  0  0  0
 22 23  1  0  0  0  0
 22 31  1  0  0  0  0
 23 24  1  0  0  0  0
 23 46  1  0  0  0  0
 24 25  1  0  0  0  0
 24 30  2  0  0  0  0
 25 26  2  0  0  0  0
 25 47  1  0  0  0  0
 26 27  1  0  0  0  0
 26 48  1  0  0  0  0
 27 28  1  0  0  0  0
 27 29  2  0  0  0  0
 29 30  1  0  0  0  0
 29 49  1  0  0  0  0
 30 50  1  0  0  0  0
M  END
$$$$
