CHEMBL207975
 OpenBabel04072215363D

 52 55  0  0  0  0  0  0  0  0999 V2000
    2.4590   -0.6588    0.6715 C   0  0  0  0  0  0  0  0  0  0  0  0
    3.7327    0.1443    0.3910 C   0  0  0  0  0  0  0  0  0  0  0  0
    4.9248   -0.4497    1.1445 C   0  0  0  0  0  0  0  0  0  0  0  0
    4.0150    0.2610   -1.0965 C   0  0  0  0  0  0  0  0  0  0  0  0
    4.0781    1.5235   -1.6993 C   0  0  0  0  0  0  0  0  0  0  0  0
    4.3286    1.6601   -3.0731 C   0  0  0  0  0  0  0  0  0  0  0  0
    4.5022    0.5422   -3.8910 C   0  0  0  0  0  0  0  0  0  0  0  0
    4.7671    0.5971   -5.2709 N   0  0  0  0  0  0  0  0  0  0  0  0
    5.0487    1.6367   -6.0774 C   0  0  0  0  0  0  0  0  0  0  0  0
    5.0070    1.6611   -7.3932 N   0  0  0  0  0  0  0  0  0  0  0  0
    5.4598    2.9009   -7.7857 N   0  0  0  0  0  0  0  0  0  0  0  0
    5.7505    3.5623   -6.6850 C   0  0  0  0  0  0  0  0  0  0  0  0
    6.2766    4.9156   -6.4926 C   0  0  0  0  0  0  0  0  0  0  0  0
    6.6988    5.3009   -5.2069 C   0  0  0  0  0  0  0  0  0  0  0  0
    7.2419    6.5573   -5.0106 C   0  0  0  0  0  0  0  0  0  0  0  0
    7.3902    7.4589   -5.9951 N   0  0  0  0  0  0  0  0  0  0  0  0
    6.9747    7.0886   -7.2246 C   0  0  0  0  0  0  0  0  0  0  0  0
    6.4069    5.8487   -7.5458 C   0  0  0  0  0  0  0  0  0  0  0  0
    5.9982    5.6090   -8.9885 C   0  0  0  0  0  0  0  0  0  0  0  0
    4.4790    5.5364   -9.1983 C   0  0  0  0  0  0  0  0  0  0  0  0
    4.0692    5.4269  -10.6491 C   0  0  0  0  0  0  0  0  0  0  0  0
    4.0230    4.1872  -11.2949 C   0  0  0  0  0  0  0  0  0  0  0  0
    3.5682    4.1368  -12.6067 C   0  0  0  0  0  0  0  0  0  0  0  0
    3.1730    5.2174  -13.3103 N   0  0  0  0  0  0  0  0  0  0  0  0
    3.2400    6.4050  -12.6733 C   0  0  0  0  0  0  0  0  0  0  0  0
    3.6812    6.5598  -11.3661 C   0  0  0  0  0  0  0  0  0  0  0  0
    5.5156    2.8126   -5.5570 O   0  0  0  0  0  0  0  0  0  0  0  0
    4.4697   -0.7195   -3.2736 C   0  0  0  0  0  0  0  0  0  0  0  0
    4.2257   -0.8621   -1.9018 C   0  0  0  0  0  0  0  0  0  0  0  0
    2.2406   -0.6714    1.7452 H   0  0  0  0  0  0  0  0  0  0  0  0
    2.5470   -1.6988    0.3389 H   0  0  0  0  0  0  0  0  0  0  0  0
    1.5970   -0.2165    0.1600 H   0  0  0  0  0  0  0  0  0  0  0  0
    3.5680    1.1530    0.7926 H   0  0  0  0  0  0  0  0  0  0  0  0
    5.1041   -1.4944    0.8681 H   0  0  0  0  0  0  0  0  0  0  0  0
    4.7492   -0.4171    2.2255 H   0  0  0  0  0  0  0  0  0  0  0  0
    5.8410    0.1141    0.9372 H   0  0  0  0  0  0  0  0  0  0  0  0
    3.9271    2.4225   -1.1051 H   0  0  0  0  0  0  0  0  0  0  0  0
    4.3443    2.6648   -3.4828 H   0  0  0  0  0  0  0  0  0  0  0  0
    4.5274   -0.2576   -5.7594 H   0  0  0  0  0  0  0  0  0  0  0  0
    6.6239    4.6279   -4.3573 H   0  0  0  0  0  0  0  0  0  0  0  0
    7.5866    6.8745   -4.0298 H   0  0  0  0  0  0  0  0  0  0  0  0
    7.1296    7.8518   -7.9861 H   0  0  0  0  0  0  0  0  0  0  0  0
    6.5037    4.7115   -9.3661 H   0  0  0  0  0  0  0  0  0  0  0  0
    6.3896    6.4285   -9.6088 H   0  0  0  0  0  0  0  0  0  0  0  0
    4.0027    6.4256   -8.7610 H   0  0  0  0  0  0  0  0  0  0  0  0
    4.0374    4.6918   -8.6614 H   0  0  0  0  0  0  0  0  0  0  0  0
    4.3136    3.2730  -10.7878 H   0  0  0  0  0  0  0  0  0  0  0  0
    3.4950    3.1898  -13.1373 H   0  0  0  0  0  0  0  0  0  0  0  0
    2.9073    7.2593  -13.2553 H   0  0  0  0  0  0  0  0  0  0  0  0
    3.6955    7.5469  -10.9176 H   0  0  0  0  0  0  0  0  0  0  0  0
    4.6373   -1.6199   -3.8608 H   0  0  0  0  0  0  0  0  0  0  0  0
    4.2035   -1.8620   -1.4741 H   0  0  0  0  0  0  0  0  0  0  0  0
  1  2  1  0  0  0  0
  1 30  1  0  0  0  0
  1 31  1  0  0  0  0
  1 32  1  0  0  0  0
  2  3  1  0  0  0  0
  2  4  1  0  0  0  0
  2 33  1  0  0  0  0
  3 34  1  0  0  0  0
  3 35  1  0  0  0  0
  3 36  1  0  0  0  0
  4  5  1  0  0  0  0
  4 29  2  0  0  0  0
  5  6  2  0  0  0  0
  5 37  1  0  0  0  0
  6  7  1  0  0  0  0
  6 38  1  0  0  0  0
  7  8  1  0  0  0  0
  7 28  2  0  0  0  0
  8  9  1  0  0  0  0
  8 39  1  0  0  0  0
  9 10  2  0  0  0  0
  9 27  1  0  0  0  0
 10 11  1  0  0  0  0
 11 12  2  0  0  0  0
 12 13  1  0  0  0  0
 12 27  1  0  0  0  0
 13 14  1  0  0  0  0
 13 18  2  0  0  0  0
 14 15  2  0  0  0  0
 14 40  1  0  0  0  0
 15 16  1  0  0  0  0
 15 41  1  0  0  0  0
 16 17  2  0  0  0  0
 17 18  1  0  0  0  0
 17 42  1  0  0  0  0
 18 19  1  0  0  0  0
 19 20  1  0  0  0  0
 19 43  1  0  0  0  0
 19 44  1  0  0  0  0
 20 21  1  0  0  0  0
 20 45  1  0  0  0  0
 20 46  1  0  0  0  0
 21 22  1  0  0  0  0
 21 26  2  0  0  0  0
 22 23  2  0  0  0  0
 22 47  1  0  0  0  0
 23 24  1  0  0  0  0
 23 48  1  0  0  0  0
 24 25  2  0  0  0  0
 25 26  1  0  0  0  0
 25 49  1  0  0  0  0
 26 50  1  0  0  0  0
 28 29  1  0  0  0  0
 28 51  1  0  0  0  0
 29 52  1  0  0  0  0
M  END
$$$$
