CHEMBL1997892
 OpenBabel04072215363D

 43 45  0  0  0  0  0  0  0  0999 V2000
    1.3182   -0.1683    1.2270 C   0  0  0  0  0  0  0  0  0  0  0  0
    2.6899   -0.0806    0.6285 C   0  0  0  0  0  0  0  0  0  0  0  0
    3.4632   -1.1746    0.6027 C   0  0  0  0  0  0  0  0  0  0  0  0
    4.7697   -1.1853   -0.0659 C   0  0  0  0  0  0  0  0  0  0  0  0
    5.4710   -2.1948   -0.0589 O   0  0  0  0  0  0  0  0  0  0  0  0
    5.1197   -0.0279   -0.6967 N   0  0  0  0  0  0  0  0  0  0  0  0
    4.4103    1.1341   -0.6780 N   0  0  0  0  0  0  0  0  0  0  0  0
    3.2731    1.1378   -0.0433 C   0  0  0  0  0  0  0  0  0  0  0  0
    2.5346    2.4393   -0.0017 C   0  0  0  0  0  0  0  0  0  0  0  0
    1.8117    2.8058    1.1239 C   0  0  0  0  0  0  0  0  0  0  0  0
    1.0537    3.9709    1.1379 C   0  0  0  0  0  0  0  0  0  0  0  0
    1.0816    4.8766    0.0769 C   0  0  0  0  0  0  0  0  0  0  0  0
    0.3190    6.0783    0.0991 N   0  0  0  0  0  0  0  0  0  0  0  0
   -0.4790    6.4949    1.1469 C   0  0  0  0  0  0  0  0  0  0  0  0
   -0.6005    5.9078    2.2184 O   0  0  0  0  0  0  0  0  0  0  0  0
   -1.1905    7.6511    0.8663 N   0  0  0  0  0  0  0  0  0  0  0  0
   -2.0802    8.1328    1.8668 C   0  0  0  0  0  0  0  0  0  0  0  0
   -1.6575    8.3047    3.1931 C   0  0  0  0  0  0  0  0  0  0  0  0
   -2.5780    8.6156    4.2063 C   0  0  0  0  0  0  0  0  0  0  0  0
   -2.1320    8.7653    5.6417 C   0  0  0  0  0  0  0  0  0  0  0  0
   -0.7910    8.6121    5.8225 F   0  0  0  0  0  0  0  0  0  0  0  0
   -2.4353    9.9940    6.1466 F   0  0  0  0  0  0  0  0  0  0  0  0
   -2.7280    7.8654    6.4718 F   0  0  0  0  0  0  0  0  0  0  0  0
   -3.9338    8.7587    3.8658 C   0  0  0  0  0  0  0  0  0  0  0  0
   -4.3517    8.6248    2.5381 C   0  0  0  0  0  0  0  0  0  0  0  0
   -3.4207    8.3336    1.5459 C   0  0  0  0  0  0  0  0  0  0  0  0
   -3.8370    8.1537    0.2833 F   0  0  0  0  0  0  0  0  0  0  0  0
    1.9037    4.5632   -1.0194 C   0  0  0  0  0  0  0  0  0  0  0  0
    2.0652    5.6627   -2.3463 Cl  0  0  0  0  0  0  0  0  0  0  0  0
    2.6158    3.3500   -1.0664 C   0  0  0  0  0  0  0  0  0  0  0  0
    1.0072   -1.2095    1.3723 H   0  0  0  0  0  0  0  0  0  0  0  0
    0.5664    0.2965    0.5822 H   0  0  0  0  0  0  0  0  0  0  0  0
    1.2872    0.2844    2.2214 H   0  0  0  0  0  0  0  0  0  0  0  0
    3.1614   -2.1158    1.0439 H   0  0  0  0  0  0  0  0  0  0  0  0
    6.0197   -0.0065   -1.1629 H   0  0  0  0  0  0  0  0  0  0  0  0
    1.8236    2.2189    2.0331 H   0  0  0  0  0  0  0  0  0  0  0  0
    0.4615    4.1257    2.0313 H   0  0  0  0  0  0  0  0  0  0  0  0
    0.4478    6.7101   -0.6812 H   0  0  0  0  0  0  0  0  0  0  0  0
   -1.5569    7.6860   -0.0780 H   0  0  0  0  0  0  0  0  0  0  0  0
   -0.6082    8.1545    3.4490 H   0  0  0  0  0  0  0  0  0  0  0  0
   -4.6705    8.9640    4.6418 H   0  0  0  0  0  0  0  0  0  0  0  0
   -5.4018    8.7142    2.2780 H   0  0  0  0  0  0  0  0  0  0  0  0
    3.2410    3.1217   -1.9277 H   0  0  0  0  0  0  0  0  0  0  0  0
  1  2  1  0  0  0  0
  1 31  1  0  0  0  0
  1 32  1  0  0  0  0
  1 33  1  0  0  0  0
  2  3  2  0  0  0  0
  2  8  1  0  0  0  0
  3  4  1  0  0  0  0
  3 34  1  0  0  0  0
  4  5  2  0  0  0  0
  4  6  1  0  0  0  0
  6  7  1  0  0  0  0
  6 35  1  0  0  0  0
  7  8  2  0  0  0  0
  8  9  1  0  0  0  0
  9 10  1  0  0  0  0
  9 30  2  0  0  0  0
 10 11  2  0  0  0  0
 10 36  1  0  0  0  0
 11 12  1  0  0  0  0
 11 37  1  0  0  0  0
 12 13  1  0  0  0  0
 12 28  2  0  0  0  0
 13 14  1  0  0  0  0
 13 38  1  0  0  0  0
 14 15  2  0  0  0  0
 14 16  1  0  0  0  0
 16 17  1  0  0  0  0
 16 39  1  0  0  0  0
 17 18  1  0  0  0  0
 17 26  2  0  0  0  0
 18 19  2  0  0  0  0
 18 40  1  0  0  0  0
 19 20  1  0  0  0  0
 19 24  1  0  0  0  0
 20 21  1  0  0  0  0
 20 22  1  0  0  0  0
 20 23  1  0  0  0  0
 24 25  2  0  0  0  0
 24 41  1  0  0  0  0
 25 26  1  0  0  0  0
 25 42  1  0  0  0  0
 26 27  1  0  0  0  0
 28 29  1  0  0  0  0
 28 30  1  0  0  0  0
 30 43  1  0  0  0  0
M  END
$$$$
