CHEMBL4649259
 OpenBabel04072215383D

 73 78  0  0  0  0  0  0  0  0999 V2000
    2.2647   -3.3666    1.2128 C   0  0  0  0  0  0  0  0  0  0  0  0
    3.4558   -2.7569    0.7061 O   0  0  0  0  0  0  0  0  0  0  0  0
    4.5744   -3.0638    1.4099 C   0  0  0  0  0  0  0  0  0  0  0  0
    4.6224   -3.8075    2.3804 O   0  0  0  0  0  0  0  0  0  0  0  0
    5.7676   -2.3399    0.8829 C   0  0  0  0  0  0  0  0  0  0  0  0
    5.7130   -1.4759   -0.2331 C   0  0  0  0  0  0  0  0  0  0  0  0
    6.8480   -0.7590   -0.6629 C   0  0  0  0  0  0  0  0  0  0  0  0
    8.0436   -0.8972    0.0315 C   0  0  0  0  0  0  0  0  0  0  0  0
    8.0747   -1.7829    1.1183 C   0  0  0  0  0  0  0  0  0  0  0  0
    6.9752   -2.5066    1.5561 C   0  0  0  0  0  0  0  0  0  0  0  0
    9.3303   -1.7997    1.7089 N   0  0  0  0  0  0  0  0  0  0  0  0
   10.1948   -0.9103    1.0941 C   0  0  0  0  0  0  0  0  0  0  0  0
   11.3332   -0.6878    1.4605 O   0  0  0  0  0  0  0  0  0  0  0  0
    9.4043   -0.2892   -0.0429 C   0  0  0  0  0  0  0  0  0  0  0  0
    9.9461    0.6608   -0.8482 C   0  0  0  0  0  0  0  0  0  0  0  0
   11.2609    1.1957   -0.7835 N   0  0  0  0  0  0  0  0  0  0  0  0
   11.4778    2.5103   -0.2667 C   0  0  0  0  0  0  0  0  0  0  0  0
   10.8586    2.9218    0.9096 C   0  0  0  0  0  0  0  0  0  0  0  0
   10.9163    4.2623    1.3513 C   0  0  0  0  0  0  0  0  0  0  0  0
   11.6786    5.2609    0.7265 C   0  0  0  0  0  0  0  0  0  0  0  0
   11.6813    6.6570    1.2338 N   0  0  0  0  0  0  0  0  0  0  0  0
   11.1503    7.1065    2.4892 C   0  0  0  0  0  0  0  0  0  0  0  0
   10.4711    6.3973    3.6173 C   0  0  0  0  0  0  0  0  0  0  0  0
   11.3765    8.4620    2.6250 C   0  0  0  0  0  0  0  0  0  0  0  0
   12.1533    8.8761    1.5653 C   0  0  0  0  0  0  0  0  0  0  0  0
   12.1789    7.8589    0.6213 C   0  0  0  0  0  0  0  0  0  0  0  0
   12.6485    8.1671   -0.7819 C   0  0  0  0  0  0  0  0  0  0  0  0
   11.6135    8.7572   -1.6465 N   0  0  0  0  0  0  0  0  0  0  0  0
   12.0776    8.8950   -3.0394 C   0  0  0  0  0  0  0  0  0  0  0  0
   12.7798   10.2206   -3.3751 C   0  0  0  0  0  0  0  0  0  0  0  0
   11.9326   11.3351   -3.1016 O   0  0  0  0  0  0  0  0  0  0  0  0
   11.5323   11.3622   -1.7319 C   0  0  0  0  0  0  0  0  0  0  0  0
   10.9663   10.0173   -1.2207 C   0  0  0  0  0  0  0  0  0  0  0  0
   12.4276    4.8014   -0.3656 C   0  0  0  0  0  0  0  0  0  0  0  0
   12.3272    3.4543   -0.8592 C   0  0  0  0  0  0  0  0  0  0  0  0
    9.1133    1.3077   -1.8938 C   0  0  0  0  0  0  0  0  0  0  0  0
    8.3937    2.4649   -1.5508 C   0  0  0  0  0  0  0  0  0  0  0  0
    7.7091    3.1963   -2.5143 C   0  0  0  0  0  0  0  0  0  0  0  0
    7.7077    2.7602   -3.8378 C   0  0  0  0  0  0  0  0  0  0  0  0
    8.3892    1.5982   -4.1856 C   0  0  0  0  0  0  0  0  0  0  0  0
    9.0970    0.8650   -3.2231 C   0  0  0  0  0  0  0  0  0  0  0  0
    1.4407   -3.1211    0.5372 H   0  0  0  0  0  0  0  0  0  0  0  0
    2.0248   -2.9702    2.2050 H   0  0  0  0  0  0  0  0  0  0  0  0
    2.3686   -4.4561    1.2468 H   0  0  0  0  0  0  0  0  0  0  0  0
    4.7772   -1.3341   -0.7714 H   0  0  0  0  0  0  0  0  0  0  0  0
    6.7578   -0.0970   -1.5193 H   0  0  0  0  0  0  0  0  0  0  0  0
    7.0507   -3.1733    2.4106 H   0  0  0  0  0  0  0  0  0  0  0  0
    9.5928   -2.3357    2.5161 H   0  0  0  0  0  0  0  0  0  0  0  0
   11.6758    1.1655   -1.7143 H   0  0  0  0  0  0  0  0  0  0  0  0
   10.2799    2.2038    1.4859 H   0  0  0  0  0  0  0  0  0  0  0  0
   10.2740    4.4462    2.1873 H   0  0  0  0  0  0  0  0  0  0  0  0
   10.5988    5.3283    3.7158 H   0  0  0  0  0  0  0  0  0  0  0  0
    9.4045    6.6546    3.6250 H   0  0  0  0  0  0  0  0  0  0  0  0
   10.8867    6.7844    4.5589 H   0  0  0  0  0  0  0  0  0  0  0  0
   11.0394    9.0705    3.4553 H   0  0  0  0  0  0  0  0  0  0  0  0
   12.5159    9.8825    1.4012 H   0  0  0  0  0  0  0  0  0  0  0  0
   13.0543    7.2862   -1.2528 H   0  0  0  0  0  0  0  0  0  0  0  0
   13.5059    8.8732   -0.7116 H   0  0  0  0  0  0  0  0  0  0  0  0
   11.1846    8.8215   -3.6710 H   0  0  0  0  0  0  0  0  0  0  0  0
   12.7251    8.0586   -3.3254 H   0  0  0  0  0  0  0  0  0  0  0  0
   12.9932   10.2475   -4.4494 H   0  0  0  0  0  0  0  0  0  0  0  0
   13.7337   10.3357   -2.8476 H   0  0  0  0  0  0  0  0  0  0  0  0
   10.7398   12.1192   -1.6654 H   0  0  0  0  0  0  0  0  0  0  0  0
   12.3649   11.7190   -1.1156 H   0  0  0  0  0  0  0  0  0  0  0  0
    9.9402    9.9529   -1.6038 H   0  0  0  0  0  0  0  0  0  0  0  0
   10.8303   10.1010   -0.1416 H   0  0  0  0  0  0  0  0  0  0  0  0
   13.1516    5.4243   -0.8771 H   0  0  0  0  0  0  0  0  0  0  0  0
   12.9176    3.1719   -1.7289 H   0  0  0  0  0  0  0  0  0  0  0  0
    8.4049    2.8219   -0.5219 H   0  0  0  0  0  0  0  0  0  0  0  0
    7.2024    4.1140   -2.2316 H   0  0  0  0  0  0  0  0  0  0  0  0
    7.1974    3.3511   -4.5981 H   0  0  0  0  0  0  0  0  0  0  0  0
    8.3959    1.2677   -5.2266 H   0  0  0  0  0  0  0  0  0  0  0  0
    9.6451   -0.0212   -3.5177 H   0  0  0  0  0  0  0  0  0  0  0  0
  1  2  1  0  0  0  0
  1 42  1  0  0  0  0
  1 43  1  0  0  0  0
  1 44  1  0  0  0  0
  2  3  1  0  0  0  0
  3  4  2  0  0  0  0
  3  5  1  0  0  0  0
  5  6  1  0  0  0  0
  5 10  2  0  0  0  0
  6  7  2  0  0  0  0
  6 45  1  0  0  0  0
  7  8  1  0  0  0  0
  7 46  1  0  0  0  0
  8  9  2  0  0  0  0
  8 14  1  0  0  0  0
  9 10  1  0  0  0  0
  9 11  1  0  0  0  0
 10 47  1  0  0  0  0
 11 12  1  0  0  0  0
 11 48  1  0  0  0  0
 12 13  2  0  0  0  0
 12 14  1  0  0  0  0
 14 15  2  0  0  0  0
 15 16  1  0  0  0  0
 15 36  1  0  0  0  0
 16 17  1  0  0  0  0
 16 49  1  0  0  0  0
 17 18  1  0  0  0  0
 17 35  2  0  0  0  0
 18 19  2  0  0  0  0
 18 50  1  0  0  0  0
 19 20  1  0  0  0  0
 19 51  1  0  0  0  0
 20 21  1  0  0  0  0
 20 34  2  0  0  0  0
 21 22  1  0  0  0  0
 21 26  1  0  0  0  0
 22 23  1  0  0  0  0
 22 24  2  0  0  0  0
 23 52  1  0  0  0  0
 23 53  1  0  0  0  0
 23 54  1  0  0  0  0
 24 25  1  0  0  0  0
 24 55  1  0  0  0  0
 25 26  2  0  0  0  0
 25 56  1  0  0  0  0
 26 27  1  0  0  0  0
 27 28  1  0  0  0  0
 27 57  1  0  0  0  0
 27 58  1  0  0  0  0
 28 29  1  0  0  0  0
 28 33  1  0  0  0  0
 29 30  1  0  0  0  0
 29 59  1  0  0  0  0
 29 60  1  0  0  0  0
 30 31  1  0  0  0  0
 30 61  1  0  0  0  0
 30 62  1  0  0  0  0
 31 32  1  0  0  0  0
 32 33  1  0  0  0  0
 32 63  1  0  0  0  0
 32 64  1  0  0  0  0
 33 65  1  0  0  0  0
 33 66  1  0  0  0  0
 34 35  1  0  0  0  0
 34 67  1  0  0  0  0
 35 68  1  0  0  0  0
 36 37  1  0  0  0  0
 36 41  2  0  0  0  0
 37 38  2  0  0  0  0
 37 69  1  0  0  0  0
 38 39  1  0  0  0  0
 38 70  1  0  0  0  0
 39 40  2  0  0  0  0
 39 71  1  0  0  0  0
 40 41  1  0  0  0  0
 40 72  1  0  0  0  0
 41 73  1  0  0  0  0
M  END
$$$$
