CHEMBL469037
 OpenBabel04072215383D

 46 50  0  0  0  0  0  0  0  0999 V2000
    1.8458   -0.2056   -0.7375 O   0  0  0  0  0  0  0  0  0  0  0  0
    2.4696   -0.1025    0.3098 C   0  0  0  0  0  0  0  0  0  0  0  0
    2.8809    1.2329    0.8543 C   0  0  0  0  0  0  0  0  0  0  0  0
    2.3752    1.5224    2.1394 C   0  0  0  0  0  0  0  0  0  0  0  0
    3.1432    2.2562    3.0382 C   0  0  0  0  0  0  0  0  0  0  0  0
    4.3740    2.7544    2.6319 C   0  0  0  0  0  0  0  0  0  0  0  0
    4.7822    2.6116    1.3019 C   0  0  0  0  0  0  0  0  0  0  0  0
    4.0183    1.8986    0.3578 C   0  0  0  0  0  0  0  0  0  0  0  0
    4.5491    1.7856   -0.9337 N   0  0  0  0  0  0  0  0  0  0  0  0
    3.6479    1.8950   -2.0916 C   0  0  0  0  0  0  0  0  0  0  0  0
    4.2102    1.1034   -3.2642 C   0  0  0  0  0  0  0  0  0  0  0  0
    3.7744    1.4038   -4.5765 C   0  0  0  0  0  0  0  0  0  0  0  0
    4.2499    0.6846   -5.6824 C   0  0  0  0  0  0  0  0  0  0  0  0
    5.1914   -0.3187   -5.4413 C   0  0  0  0  0  0  0  0  0  0  0  0
    5.8274   -1.1872   -6.2738 N   0  0  0  0  0  0  0  0  0  0  0  0
    6.7170   -1.9841   -5.6641 N   0  0  0  0  0  0  0  0  0  0  0  0
    6.6040   -1.6460   -4.3815 C   0  0  0  0  0  0  0  0  0  0  0  0
    5.6519   -0.6249   -4.1694 C   0  0  0  0  0  0  0  0  0  0  0  0
    5.1473    0.0801   -3.0715 C   0  0  0  0  0  0  0  0  0  0  0  0
    2.8255   -1.2663    1.1446 C   0  0  0  0  0  0  0  0  0  0  0  0
    3.4275   -1.2307    2.3994 C   0  0  0  0  0  0  0  0  0  0  0  0
    3.3615   -2.4965    2.8979 N   0  0  0  0  0  0  0  0  0  0  0  0
    3.4151   -3.3434    1.8290 C   0  0  0  0  0  0  0  0  0  0  0  0
    3.9529   -4.6183    1.6883 C   0  0  0  0  0  0  0  0  0  0  0  0
    3.7011   -5.2564    0.4749 C   0  0  0  0  0  0  0  0  0  0  0  0
    2.8302   -4.6985   -0.4631 C   0  0  0  0  0  0  0  0  0  0  0  0
    2.3188   -3.4033   -0.3014 C   0  0  0  0  0  0  0  0  0  0  0  0
    2.7513   -2.6614    0.8087 C   0  0  0  0  0  0  0  0  0  0  0  0
    1.4882    1.0034    2.5003 H   0  0  0  0  0  0  0  0  0  0  0  0
    2.8336    2.3368    4.0768 H   0  0  0  0  0  0  0  0  0  0  0  0
    5.0315    3.2384    3.3497 H   0  0  0  0  0  0  0  0  0  0  0  0
    5.7440    3.0322    1.0142 H   0  0  0  0  0  0  0  0  0  0  0  0
    5.3421    2.4048   -1.0771 H   0  0  0  0  0  0  0  0  0  0  0  0
    3.5807    2.9587   -2.3673 H   0  0  0  0  0  0  0  0  0  0  0  0
    2.6307    1.5580   -1.9060 H   0  0  0  0  0  0  0  0  0  0  0  0
    3.0474    2.1964   -4.7402 H   0  0  0  0  0  0  0  0  0  0  0  0
    3.8833    0.9034   -6.6838 H   0  0  0  0  0  0  0  0  0  0  0  0
    5.7071   -1.2953   -7.2768 H   0  0  0  0  0  0  0  0  0  0  0  0
    7.2234   -2.1387   -3.6407 H   0  0  0  0  0  0  0  0  0  0  0  0
    5.4899   -0.1819   -2.0676 H   0  0  0  0  0  0  0  0  0  0  0  0
    3.7994   -0.4287    3.0197 H   0  0  0  0  0  0  0  0  0  0  0  0
    3.3219   -2.7553    3.8736 H   0  0  0  0  0  0  0  0  0  0  0  0
    4.6078   -5.0461    2.4391 H   0  0  0  0  0  0  0  0  0  0  0  0
    4.1881   -6.2044    0.2626 H   0  0  0  0  0  0  0  0  0  0  0  0
    2.5859   -5.2527   -1.3646 H   0  0  0  0  0  0  0  0  0  0  0  0
    1.6915   -2.9523   -1.0638 H   0  0  0  0  0  0  0  0  0  0  0  0
  1  2  2  0  0  0  0
  2  3  1  0  0  0  0
  2 20  1  0  0  0  0
  3  4  1  0  0  0  0
  3  8  2  0  0  0  0
  4  5  2  0  0  0  0
  4 29  1  0  0  0  0
  5  6  1  0  0  0  0
  5 30  1  0  0  0  0
  6  7  2  0  0  0  0
  6 31  1  0  0  0  0
  7  8  1  0  0  0  0
  7 32  1  0  0  0  0
  8  9  1  0  0  0  0
  9 10  1  0  0  0  0
  9 33  1  0  0  0  0
 10 11  1  0  0  0  0
 10 34  1  0  0  0  0
 10 35  1  0  0  0  0
 11 12  1  0  0  0  0
 11 19  2  0  0  0  0
 12 13  2  0  0  0  0
 12 36  1  0  0  0  0
 13 14  1  0  0  0  0
 13 37  1  0  0  0  0
 14 15  1  0  0  0  0
 14 18  2  0  0  0  0
 15 16  1  0  0  0  0
 15 38  1  0  0  0  0
 16 17  2  0  0  0  0
 17 18  1  0  0  0  0
 17 39  1  0  0  0  0
 18 19  1  0  0  0  0
 19 40  1  0  0  0  0
 20 21  2  0  0  0  0
 20 28  1  0  0  0  0
 21 22  1  0  0  0  0
 21 41  1  0  0  0  0
 22 23  1  0  0  0  0
 22 42  1  0  0  0  0
 23 24  1  0  0  0  0
 23 28  2  0  0  0  0
 24 25  2  0  0  0  0
 24 43  1  0  0  0  0
 25 26  1  0  0  0  0
 25 44  1  0  0  0  0
 26 27  2  0  0  0  0
 26 45  1  0  0  0  0
 27 28  1  0  0  0  0
 27 46  1  0  0  0  0
M  END
$$$$
