CHEMBL256920
 OpenBabel04072215363D

 50 53  0  0  0  0  0  0  0  0999 V2000
    5.8858   -1.0177   -1.7319 C   0  0  0  0  0  0  0  0  0  0  0  0
    5.9037   -2.4143   -0.5860 S   0  0  0  0  0  0  0  0  0  0  0  0
    6.3283   -1.6010    0.9115 C   0  0  0  0  0  0  0  0  0  0  0  0
    7.4479   -0.8359    1.1398 C   0  0  0  0  0  0  0  0  0  0  0  0
    7.5052   -0.3385    2.4730 C   0  0  0  0  0  0  0  0  0  0  0  0
    8.5064    0.4418    2.9616 N   0  0  0  0  0  0  0  0  0  0  0  0
    8.3782    0.8211    4.2435 C   0  0  0  0  0  0  0  0  0  0  0  0
    7.3381    0.4630    5.0761 C   0  0  0  0  0  0  0  0  0  0  0  0
    6.3562   -0.4107    4.6010 C   0  0  0  0  0  0  0  0  0  0  0  0
    5.3363   -0.9071    5.3915 O   0  0  0  0  0  0  0  0  0  0  0  0
    5.6054   -1.1833    6.7142 C   0  0  0  0  0  0  0  0  0  0  0  0
    6.8421   -1.6411    7.1733 C   0  0  0  0  0  0  0  0  0  0  0  0
    7.0781   -1.7630    8.5457 C   0  0  0  0  0  0  0  0  0  0  0  0
    6.0507   -1.5378    9.4713 C   0  0  0  0  0  0  0  0  0  0  0  0
    6.3795   -1.6943   10.8338 N   0  0  0  0  0  0  0  0  0  0  0  0
    5.6074   -2.0132   11.9335 C   0  0  0  0  0  0  0  0  0  0  0  0
    3.9962   -2.4614   11.9871 S   0  0  0  0  0  0  0  0  0  0  0  0
    6.2873   -2.0225   13.1427 N   0  0  0  0  0  0  0  0  0  0  0  0
    7.6221   -1.7638   13.3729 C   0  0  0  0  0  0  0  0  0  0  0  0
    8.4276   -1.5278   12.4628 O   0  0  0  0  0  0  0  0  0  0  0  0
    8.0676   -1.8087   14.8223 C   0  0  0  0  0  0  0  0  0  0  0  0
    8.0277   -0.4654   15.5018 C   0  0  0  0  0  0  0  0  0  0  0  0
    7.2505   -0.2740   16.6514 C   0  0  0  0  0  0  0  0  0  0  0  0
    7.2546    0.9572   17.3123 C   0  0  0  0  0  0  0  0  0  0  0  0
    8.0336    2.0068   16.8301 C   0  0  0  0  0  0  0  0  0  0  0  0
    8.8083    1.8300   15.6875 C   0  0  0  0  0  0  0  0  0  0  0  0
    8.8102    0.5987   15.0277 C   0  0  0  0  0  0  0  0  0  0  0  0
    4.7972   -1.1478    9.0033 C   0  0  0  0  0  0  0  0  0  0  0  0
    4.5795   -0.9847    7.6350 C   0  0  0  0  0  0  0  0  0  0  0  0
    3.3635   -0.6007    7.2183 F   0  0  0  0  0  0  0  0  0  0  0  0
    6.4259   -0.7695    3.2451 C   0  0  0  0  0  0  0  0  0  0  0  0
    5.3541   -1.7338    2.3062 S   0  0  0  0  0  0  0  0  0  0  0  0
    5.5318   -1.3604   -2.7078 H   0  0  0  0  0  0  0  0  0  0  0  0
    6.8899   -0.6028   -1.8552 H   0  0  0  0  0  0  0  0  0  0  0  0
    5.2114   -0.2353   -1.3731 H   0  0  0  0  0  0  0  0  0  0  0  0
    8.2136   -0.6395    0.4014 H   0  0  0  0  0  0  0  0  0  0  0  0
    9.1873    1.4433    4.6194 H   0  0  0  0  0  0  0  0  0  0  0  0
    7.3273    0.8288    6.0974 H   0  0  0  0  0  0  0  0  0  0  0  0
    7.6439   -1.8763    6.4786 H   0  0  0  0  0  0  0  0  0  0  0  0
    8.0706   -2.0626    8.8742 H   0  0  0  0  0  0  0  0  0  0  0  0
    7.3807   -1.6783   11.0369 H   0  0  0  0  0  0  0  0  0  0  0  0
    5.6988   -2.2690   13.9303 H   0  0  0  0  0  0  0  0  0  0  0  0
    9.0979   -2.1830   14.8407 H   0  0  0  0  0  0  0  0  0  0  0  0
    7.4705   -2.5500   15.3657 H   0  0  0  0  0  0  0  0  0  0  0  0
    6.6443   -1.0822   17.0561 H   0  0  0  0  0  0  0  0  0  0  0  0
    6.6587    1.0929   18.2108 H   0  0  0  0  0  0  0  0  0  0  0  0
    8.0399    2.9616   17.3491 H   0  0  0  0  0  0  0  0  0  0  0  0
    9.4224    2.6474   15.3145 H   0  0  0  0  0  0  0  0  0  0  0  0
    9.4354    0.4763   14.1447 H   0  0  0  0  0  0  0  0  0  0  0  0
    3.9806   -0.9006    9.6689 H   0  0  0  0  0  0  0  0  0  0  0  0
  1  2  1  0  0  0  0
  1 33  1  0  0  0  0
  1 34  1  0  0  0  0
  1 35  1  0  0  0  0
  2  3  1  0  0  0  0
  3  4  2  0  0  0  0
  3 32  1  0  0  0  0
  4  5  1  0  0  0  0
  4 36  1  0  0  0  0
  5  6  1  0  0  0  0
  5 31  2  0  0  0  0
  6  7  2  0  0  0  0
  7  8  1  0  0  0  0
  7 37  1  0  0  0  0
  8  9  2  0  0  0  0
  8 38  1  0  0  0  0
  9 10  1  0  0  0  0
  9 31  1  0  0  0  0
 10 11  1  0  0  0  0
 11 12  1  0  0  0  0
 11 29  2  0  0  0  0
 12 13  2  0  0  0  0
 12 39  1  0  0  0  0
 13 14  1  0  0  0  0
 13 40  1  0  0  0  0
 14 15  1  0  0  0  0
 14 28  2  0  0  0  0
 15 16  1  0  0  0  0
 15 41  1  0  0  0  0
 16 17  2  0  0  0  0
 16 18  1  0  0  0  0
 18 19  1  0  0  0  0
 18 42  1  0  0  0  0
 19 20  2  0  0  0  0
 19 21  1  0  0  0  0
 21 22  1  0  0  0  0
 21 43  1  0  0  0  0
 21 44  1  0  0  0  0
 22 23  1  0  0  0  0
 22 27  2  0  0  0  0
 23 24  2  0  0  0  0
 23 45  1  0  0  0  0
 24 25  1  0  0  0  0
 24 46  1  0  0  0  0
 25 26  2  0  0  0  0
 25 47  1  0  0  0  0
 26 27  1  0  0  0  0
 26 48  1  0  0  0  0
 27 49  1  0  0  0  0
 28 29  1  0  0  0  0
 28 50  1  0  0  0  0
 29 30  1  0  0  0  0
 31 32  1  0  0  0  0
M  END
$$$$
