CHEMBL3943933
 OpenBabel04072215373D

 75 79  0  0  1  0  0  0  0  0999 V2000
    0.5624   -1.1297    4.1617 C   0  0  0  0  0  0  0  0  0  0  0  0
    1.9230   -0.8231    4.4367 O   0  0  0  0  0  0  0  0  0  0  0  0
    2.7376   -0.7222    3.3412 C   0  0  0  0  0  0  0  0  0  0  0  0
    2.3704   -0.9346    2.0472 C   0  0  0  0  0  0  0  0  0  0  0  0
    3.2649   -0.6906    1.0168 C   0  0  0  0  0  0  0  0  0  0  0  0
    2.9348   -0.8163   -0.3023 O   0  0  0  0  0  0  0  0  0  0  0  0
    1.5906   -1.2370   -0.5164 C   0  0  0  0  0  0  0  0  0  0  0  0
    4.5704   -0.2800    1.2995 C   0  0  0  0  0  0  0  0  0  0  0  0
    4.9910    0.0336    2.5991 C   0  0  0  0  0  0  0  0  0  0  0  0
    6.2582    0.7253    2.8853 N   0  0  0  0  0  0  0  0  0  0  0  0
    6.8002    1.6134    1.7988 C   0  0  0  0  0  0  0  0  0  0  0  0
    5.7306    2.2799    0.9536 C   0  0  0  0  0  0  0  0  0  0  0  0
    4.7199    3.0486    1.6396 C   0  0  0  0  0  0  0  0  0  0  0  0
    3.7266    3.7919    0.8945 N   0  0  0  0  0  0  0  0  0  0  0  0
    4.3659    4.6485   -0.1329 C   0  0  0  0  0  0  0  0  0  0  0  0
    5.1705    5.8492    0.4495 C   0  0  2  0  0  0  0  0  0  0  0  0
    6.5322    5.4538    1.0716 C   0  0  0  0  0  0  0  0  0  0  0  0
    4.2916    6.6772    1.3341 N   0  0  0  0  0  0  0  0  0  0  0  0
    3.6504    5.8675    2.4076 C   0  0  2  0  0  0  0  0  0  0  0  0
    4.6524    5.4598    3.4594 C   0  0  0  0  0  0  0  0  0  0  0  0
    2.9054    4.6457    1.7874 C   0  0  0  0  0  0  0  0  0  0  0  0
    7.3010    0.2195    3.7496 C   0  0  0  0  0  0  0  0  0  0  0  0
    7.3550   -1.1422    3.7798 C   0  0  0  0  0  0  0  0  0  0  0  0
    8.2711   -1.6436    4.6139 C   0  0  0  0  0  0  0  0  0  0  0  0
    9.0678   -0.9418    5.4873 C   0  0  0  0  0  0  0  0  0  0  0  0
    9.0108   -1.7032    6.4974 N   0  0  0  0  0  0  0  0  0  0  0  0
    9.8943   -2.6361    6.4865 C   0  0  0  0  0  0  0  0  0  0  0  0
   10.9848   -2.1737    7.0082 C   0  0  0  0  0  0  0  0  0  0  0  0
   11.6124   -3.6625    7.8334 C   0  0  0  0  0  0  0  0  0  0  0  0
   11.3306   -5.2743    7.7006 C   0  0  0  0  0  0  0  0  0  0  0  0
   12.1805   -6.1201    8.3554 N   0  0  0  0  0  0  0  0  0  0  0  0
   13.0665   -5.3044    8.9563 N   0  0  0  0  0  0  0  0  0  0  0  0
   14.2295   -5.8817    9.7196 C   0  0  0  0  0  0  0  0  0  0  0  0
   12.7217   -3.9135    8.6665 C   0  0  0  0  0  0  0  0  0  0  0  0
   10.9555   -0.5841    6.5849 N   0  0  0  0  0  0  0  0  0  0  0  0
    9.6960    0.1696    5.6031 C   0  0  0  0  0  0  0  0  0  0  0  0
    8.4216    0.9595    4.6132 C   0  0  0  0  0  0  0  0  0  0  0  0
    4.0518   -0.3341    3.5929 C   0  0  0  0  0  0  0  0  0  0  0  0
   -0.0058   -1.0670    5.0916 H   0  0  0  0  0  0  0  0  0  0  0  0
    0.4978   -2.1528    3.7822 H   0  0  0  0  0  0  0  0  0  0  0  0
    0.1161   -0.4213    3.4527 H   0  0  0  0  0  0  0  0  0  0  0  0
    1.3847   -1.3132    1.8656 H   0  0  0  0  0  0  0  0  0  0  0  0
    1.4268   -1.3017   -1.5888 H   0  0  0  0  0  0  0  0  0  0  0  0
    0.8680   -0.5182   -0.1042 H   0  0  0  0  0  0  0  0  0  0  0  0
    1.4266   -2.2333   -0.0854 H   0  0  0  0  0  0  0  0  0  0  0  0
    5.2672   -0.1535    0.4700 H   0  0  0  0  0  0  0  0  0  0  0  0
    7.4663    1.1011    1.0821 H   0  0  0  0  0  0  0  0  0  0  0  0
    7.3789    2.4008    2.2902 H   0  0  0  0  0  0  0  0  0  0  0  0
    5.0592    1.5827    0.5446 H   0  0  0  0  0  0  0  0  0  0  0  0
    6.1820    2.9289    0.2202 H   0  0  0  0  0  0  0  0  0  0  0  0
    5.4512    3.6147    2.1065 H   0  0  0  0  0  0  0  0  0  0  0  0
    4.3269    2.3701    2.4036 H   0  0  0  0  0  0  0  0  0  0  0  0
    3.5778    5.0257   -0.8014 H   0  0  0  0  0  0  0  0  0  0  0  0
    5.0082    4.0562   -0.7955 H   0  0  0  0  0  0  0  0  0  0  0  0
    5.4662    6.4915   -0.3924 H   0  0  0  0  0  0  0  0  0  0  0  0
    6.6113    4.7534    1.8781 H   0  0  0  0  0  0  0  0  0  0  0  0
    7.0037    6.2879    1.5815 H   0  0  0  0  0  0  0  0  0  0  0  0
    7.1358    4.8732    0.3772 H   0  0  0  0  0  0  0  0  0  0  0  0
    3.5169    7.0200    0.7522 H   0  0  0  0  0  0  0  0  0  0  0  0
    2.9394    6.4752    2.9602 H   0  0  0  0  0  0  0  0  0  0  0  0
    5.3232    4.8744    2.9302 H   0  0  0  0  0  0  0  0  0  0  0  0
    4.3520    4.6665    4.1544 H   0  0  0  0  0  0  0  0  0  0  0  0
    5.4571    6.1357    3.7174 H   0  0  0  0  0  0  0  0  0  0  0  0
    2.0503    5.0342    1.2070 H   0  0  0  0  0  0  0  0  0  0  0  0
    2.4699    4.0523    2.5994 H   0  0  0  0  0  0  0  0  0  0  0  0
    6.6654   -1.8450    3.3433 H   0  0  0  0  0  0  0  0  0  0  0  0
    8.2621   -2.7202    4.7739 H   0  0  0  0  0  0  0  0  0  0  0  0
    9.5427   -3.6227    6.3839 H   0  0  0  0  0  0  0  0  0  0  0  0
   10.6240   -5.8898    7.1170 H   0  0  0  0  0  0  0  0  0  0  0  0
   14.1964   -6.9876    9.8530 H   0  0  0  0  0  0  0  0  0  0  0  0
   14.2883   -5.4605   10.7338 H   0  0  0  0  0  0  0  0  0  0  0  0
   15.1799   -5.6742    9.2046 H   0  0  0  0  0  0  0  0  0  0  0  0
   13.4261   -3.2467    9.0669 H   0  0  0  0  0  0  0  0  0  0  0  0
    8.0691    1.9918    4.6090 H   0  0  0  0  0  0  0  0  0  0  0  0
    4.2374   -0.4174    4.6457 H   0  0  0  0  0  0  0  0  0  0  0  0
  1  2  1  0  0  0  0
  1 39  1  0  0  0  0
  1 40  1  0  0  0  0
  1 41  1  0  0  0  0
  2  3  1  0  0  0  0
  3  4  1  0  0  0  0
  3 38  2  0  0  0  0
  4  5  2  0  0  0  0
  4 42  1  0  0  0  0
  5  6  1  0  0  0  0
  5  8  1  0  0  0  0
  6  7  1  0  0  0  0
  7 43  1  0  0  0  0
  7 44  1  0  0  0  0
  7 45  1  0  0  0  0
  8  9  2  0  0  0  0
  8 46  1  0  0  0  0
  9 10  1  0  0  0  0
  9 38  1  0  0  0  0
 10 11  1  0  0  0  0
 10 22  1  0  0  0  0
 11 12  1  0  0  0  0
 11 47  1  0  0  0  0
 11 48  1  0  0  0  0
 12 13  1  0  0  0  0
 12 49  1  0  0  0  0
 12 50  1  0  0  0  0
 13 14  1  0  0  0  0
 13 51  1  0  0  0  0
 13 52  1  0  0  0  0
 14 15  1  0  0  0  0
 14 21  1  0  0  0  0
 15 16  1  0  0  0  0
 15 53  1  0  0  0  0
 15 54  1  0  0  0  0
 16 18  1  0  0  0  0
 16 17  1  0  0  0  0
 16 55  1  6  0  0  0
 17 56  1  0  0  0  0
 17 57  1  0  0  0  0
 17 58  1  0  0  0  0
 18 19  1  0  0  0  0
 18 59  1  0  0  0  0
 19 21  1  0  0  0  0
 19 20  1  0  0  0  0
 19 60  1  1  0  0  0
 20 61  1  0  0  0  0
 20 62  1  0  0  0  0
 20 63  1  0  0  0  0
 21 64  1  0  0  0  0
 21 65  1  0  0  0  0
 22 23  1  0  0  0  0
 22 37  2  0  0  0  0
 23 24  2  0  0  0  0
 23 66  1  0  0  0  0
 24 25  1  0  0  0  0
 24 67  1  0  0  0  0
 25 26  1  0  0  0  0
 25 36  2  0  0  0  0
 26 27  2  0  0  0  0
 27 28  1  0  0  0  0
 27 68  1  0  0  0  0
 28 29  1  0  0  0  0
 28 35  2  0  0  0  0
 29 30  1  0  0  0  0
 29 34  2  0  0  0  0
 30 31  2  0  0  0  0
 30 69  1  0  0  0  0
 31 32  1  0  0  0  0
 32 33  1  0  0  0  0
 32 34  1  0  0  0  0
 33 70  1  0  0  0  0
 33 71  1  0  0  0  0
 33 72  1  0  0  0  0
 34 73  1  0  0  0  0
 35 36  1  0  0  0  0
 36 37  1  0  0  0  0
 37 74  1  0  0  0  0
 38 75  1  0  0  0  0
M  END
$$$$
