CHEMBL2031902
 OpenBabel04072215363D

 58 62  0  0  0  0  0  0  0  0999 V2000
    3.9066   -3.6958    0.3572 C   0  0  0  0  0  0  0  0  0  0  0  0
    5.2309   -3.2810    0.6952 O   0  0  0  0  0  0  0  0  0  0  0  0
    5.3147   -2.3259    1.6719 C   0  0  0  0  0  0  0  0  0  0  0  0
    4.2222   -1.7601    2.3096 C   0  0  0  0  0  0  0  0  0  0  0  0
    4.4147   -0.7901    3.2793 C   0  0  0  0  0  0  0  0  0  0  0  0
    5.6979   -0.4454    3.7435 C   0  0  0  0  0  0  0  0  0  0  0  0
    5.9578    0.3708    4.8737 C   0  0  0  0  0  0  0  0  0  0  0  0
    5.0203    0.8759    5.7672 O   0  0  0  0  0  0  0  0  0  0  0  0
    3.9141    0.1600    6.1329 C   0  0  0  0  0  0  0  0  0  0  0  0
    3.7717   -1.2102    6.1703 C   0  0  0  0  0  0  0  0  0  0  0  0
    2.5807   -1.8483    6.3186 N   0  0  0  0  0  0  0  0  0  0  0  0
    1.5002   -1.0913    6.5751 C   0  0  0  0  0  0  0  0  0  0  0  0
    0.2847   -1.7893    6.6188 N   0  0  0  0  0  0  0  0  0  0  0  0
   -0.8893   -1.3161    7.1494 C   0  0  0  0  0  0  0  0  0  0  0  0
   -0.9971   -0.2304    7.7115 O   0  0  0  0  0  0  0  0  0  0  0  0
   -2.0825   -2.2083    7.0326 C   0  0  0  0  0  0  0  0  0  0  0  0
   -3.3107   -2.0294    7.5784 C   0  0  0  0  0  0  0  0  0  0  0  0
   -3.7293   -0.9946    8.5841 C   0  0  0  0  0  0  0  0  0  0  0  0
   -4.2547   -2.9499    7.0982 N   0  0  0  0  0  0  0  0  0  0  0  0
   -5.4912   -3.3331    7.7722 C   0  0  0  0  0  0  0  0  0  0  0  0
   -3.5267   -3.9332    6.4094 N   0  0  0  0  0  0  0  0  0  0  0  0
   -4.1510   -4.9498    5.6386 C   0  0  0  0  0  0  0  0  0  0  0  0
   -3.7111   -6.2682    5.7781 C   0  0  0  0  0  0  0  0  0  0  0  0
   -4.3255   -7.3063    5.0693 C   0  0  0  0  0  0  0  0  0  0  0  0
   -5.3682   -7.0306    4.1880 C   0  0  0  0  0  0  0  0  0  0  0  0
   -5.8183   -5.7195    4.0403 C   0  0  0  0  0  0  0  0  0  0  0  0
   -5.2292   -4.6839    4.7786 C   0  0  0  0  0  0  0  0  0  0  0  0
   -2.2026   -3.5008    6.2748 C   0  0  0  0  0  0  0  0  0  0  0  0
   -1.2739   -4.0076    5.6705 O   0  0  0  0  0  0  0  0  0  0  0  0
    1.5637    0.2441    6.6989 N   0  0  0  0  0  0  0  0  0  0  0  0
    2.7636    0.8349    6.4708 C   0  0  0  0  0  0  0  0  0  0  0  0
    7.2672    0.7740    5.1375 C   0  0  0  0  0  0  0  0  0  0  0  0
    8.2768    0.2815    4.3349 C   0  0  0  0  0  0  0  0  0  0  0  0
    8.0750   -0.5925    3.3276 N   0  0  0  0  0  0  0  0  0  0  0  0
    6.8132   -0.9608    3.0403 C   0  0  0  0  0  0  0  0  0  0  0  0
    6.5966   -1.8898    2.0185 C   0  0  0  0  0  0  0  0  0  0  0  0
    3.9653   -4.4278   -0.4514 H   0  0  0  0  0  0  0  0  0  0  0  0
    3.3104   -2.8501   -0.0058 H   0  0  0  0  0  0  0  0  0  0  0  0
    3.4187   -4.1784    1.2124 H   0  0  0  0  0  0  0  0  0  0  0  0
    3.2005   -2.0540    2.0931 H   0  0  0  0  0  0  0  0  0  0  0  0
    3.5186   -0.3324    3.6914 H   0  0  0  0  0  0  0  0  0  0  0  0
    4.6114   -1.8745    5.9921 H   0  0  0  0  0  0  0  0  0  0  0  0
    0.3381   -2.7355    6.2543 H   0  0  0  0  0  0  0  0  0  0  0  0
   -2.9773   -0.2341    8.7911 H   0  0  0  0  0  0  0  0  0  0  0  0
   -3.9486   -1.4782    9.5445 H   0  0  0  0  0  0  0  0  0  0  0  0
   -4.6313   -0.4757    8.2470 H   0  0  0  0  0  0  0  0  0  0  0  0
   -5.7562   -2.6472    8.5830 H   0  0  0  0  0  0  0  0  0  0  0  0
   -5.4296   -4.3393    8.1998 H   0  0  0  0  0  0  0  0  0  0  0  0
   -6.3220   -3.3028    7.0596 H   0  0  0  0  0  0  0  0  0  0  0  0
   -2.9140   -6.5048    6.4775 H   0  0  0  0  0  0  0  0  0  0  0  0
   -3.9887   -8.3312    5.2057 H   0  0  0  0  0  0  0  0  0  0  0  0
   -5.8274   -7.8366    3.6168 H   0  0  0  0  0  0  0  0  0  0  0  0
   -6.6246   -5.5054    3.3415 H   0  0  0  0  0  0  0  0  0  0  0  0
   -5.5876   -3.6676    4.6389 H   0  0  0  0  0  0  0  0  0  0  0  0
    2.7543    1.9216    6.5403 H   0  0  0  0  0  0  0  0  0  0  0  0
    7.4965    1.4515    5.9501 H   0  0  0  0  0  0  0  0  0  0  0  0
    9.3112    0.5770    4.4883 H   0  0  0  0  0  0  0  0  0  0  0  0
    7.4598   -2.2984    1.4959 H   0  0  0  0  0  0  0  0  0  0  0  0
  1  2  1  0  0  0  0
  1 37  1  0  0  0  0
  1 38  1  0  0  0  0
  1 39  1  0  0  0  0
  2  3  1  0  0  0  0
  3  4  1  0  0  0  0
  3 36  2  0  0  0  0
  4  5  2  0  0  0  0
  4 40  1  0  0  0  0
  5  6  1  0  0  0  0
  5 41  1  0  0  0  0
  6  7  1  0  0  0  0
  6 35  2  0  0  0  0
  7  8  1  0  0  0  0
  7 32  2  0  0  0  0
  8  9  1  0  0  0  0
  9 10  1  0  0  0  0
  9 31  2  0  0  0  0
 10 11  2  0  0  0  0
 10 42  1  0  0  0  0
 11 12  1  0  0  0  0
 12 13  1  0  0  0  0
 12 30  2  0  0  0  0
 13 14  1  0  0  0  0
 13 43  1  0  0  0  0
 14 15  2  0  0  0  0
 14 16  1  0  0  0  0
 16 17  2  0  0  0  0
 16 28  1  0  0  0  0
 17 18  1  0  0  0  0
 17 19  1  0  0  0  0
 18 44  1  0  0  0  0
 18 45  1  0  0  0  0
 18 46  1  0  0  0  0
 19 20  1  0  0  0  0
 19 21  1  0  0  0  0
 20 47  1  0  0  0  0
 20 48  1  0  0  0  0
 20 49  1  0  0  0  0
 21 22  1  0  0  0  0
 21 28  1  0  0  0  0
 22 23  1  0  0  0  0
 22 27  2  0  0  0  0
 23 24  2  0  0  0  0
 23 50  1  0  0  0  0
 24 25  1  0  0  0  0
 24 51  1  0  0  0  0
 25 26  2  0  0  0  0
 25 52  1  0  0  0  0
 26 27  1  0  0  0  0
 26 53  1  0  0  0  0
 27 54  1  0  0  0  0
 28 29  2  0  0  0  0
 30 31  1  0  0  0  0
 31 55  1  0  0  0  0
 32 33  1  0  0  0  0
 32 56  1  0  0  0  0
 33 34  2  0  0  0  0
 33 57  1  0  0  0  0
 34 35  1  0  0  0  0
 35 36  1  0  0  0  0
 36 58  1  0  0  0  0
M  END
$$$$
