CHEMBL3952373
 OpenBabel04072215373D

 41 45  0  0  0  0  0  0  0  0999 V2000
    0.9851    0.0303    0.4229 N   0  0  0  0  0  0  0  0  0  0  0  0
    2.3382   -0.0876    0.4736 C   0  0  0  0  0  0  0  0  0  0  0  0
    3.2664    0.9380    0.4814 C   0  0  0  0  0  0  0  0  0  0  0  0
    2.9301    2.3540    0.5189 C   0  0  0  0  0  0  0  0  0  0  0  0
    1.9524    2.7744    1.1333 O   0  0  0  0  0  0  0  0  0  0  0  0
    3.7876    3.2453   -0.2230 C   0  0  0  0  0  0  0  0  0  0  0  0
    4.5783    3.0464   -1.3397 C   0  0  0  0  0  0  0  0  0  0  0  0
    5.3072    4.2397   -1.5638 C   0  0  0  0  0  0  0  0  0  0  0  0
    6.3339    4.5855   -2.4538 C   0  0  0  0  0  0  0  0  0  0  0  0
    7.3337    5.3630   -1.8722 C   0  0  0  0  0  0  0  0  0  0  0  0
    7.0158    6.2596   -0.8564 C   0  0  0  0  0  0  0  0  0  0  0  0
    5.7447    6.2635   -0.2732 C   0  0  0  0  0  0  0  0  0  0  0  0
    4.9870    5.1222   -0.5383 C   0  0  0  0  0  0  0  0  0  0  0  0
    3.8953    4.5856    0.0974 N   0  0  0  0  0  0  0  0  0  0  0  0
    4.5097    0.2725    0.4300 C   0  0  0  0  0  0  0  0  0  0  0  0
    4.4105   -1.0585    0.3460 N   0  0  0  0  0  0  0  0  0  0  0  0
    3.0665   -1.2950    0.4554 N   0  0  0  0  0  0  0  0  0  0  0  0
    2.5679   -2.6367    0.4414 C   0  0  0  0  0  0  0  0  0  0  0  0
    1.2457   -2.9165    0.8728 C   0  0  0  0  0  0  0  0  0  0  0  0
    0.6731   -4.1844    0.7150 C   0  0  0  0  0  0  0  0  0  0  0  0
    1.4744   -5.1565    0.1812 C   0  0  0  0  0  0  0  0  0  0  0  0
    1.1970   -6.4935   -0.0651 N   0  0  0  0  0  0  0  0  0  0  0  0
    2.3523   -7.1059   -0.5407 C   0  0  0  0  0  0  0  0  0  0  0  0
    2.4788   -8.2791   -0.8533 O   0  0  0  0  0  0  0  0  0  0  0  0
    3.3481   -6.1293   -0.6022 N   0  0  0  0  0  0  0  0  0  0  0  0
    2.8109   -4.9214   -0.1623 C   0  0  0  0  0  0  0  0  0  0  0  0
    3.3902   -3.6764   -0.0387 C   0  0  0  0  0  0  0  0  0  0  0  0
    0.5615    0.9593    0.3862 H   0  0  0  0  0  0  0  0  0  0  0  0
    0.3783   -0.6900    0.0434 H   0  0  0  0  0  0  0  0  0  0  0  0
    4.7110    2.1189   -1.8837 H   0  0  0  0  0  0  0  0  0  0  0  0
    5.9512    5.0219   -3.3939 H   0  0  0  0  0  0  0  0  0  0  0  0
    8.3598    5.2281   -2.2027 H   0  0  0  0  0  0  0  0  0  0  0  0
    7.7839    6.9292   -0.4812 H   0  0  0  0  0  0  0  0  0  0  0  0
    5.4834    6.9692    0.5058 H   0  0  0  0  0  0  0  0  0  0  0  0
    3.3924    5.0226    0.8580 H   0  0  0  0  0  0  0  0  0  0  0  0
    5.5037    0.7052    0.4326 H   0  0  0  0  0  0  0  0  0  0  0  0
    0.6468   -2.1632    1.3793 H   0  0  0  0  0  0  0  0  0  0  0  0
   -0.3509   -4.3714    1.0066 H   0  0  0  0  0  0  0  0  0  0  0  0
    0.3218   -6.9635    0.0827 H   0  0  0  0  0  0  0  0  0  0  0  0
    4.2990   -6.3011   -0.8925 H   0  0  0  0  0  0  0  0  0  0  0  0
    4.4176   -3.5011   -0.3428 H   0  0  0  0  0  0  0  0  0  0  0  0
  1  2  1  0  0  0  0
  1 28  1  0  0  0  0
  1 29  1  0  0  0  0
  2  3  2  0  0  0  0
  2 17  1  0  0  0  0
  3  4  1  0  0  0  0
  3 15  1  0  0  0  0
  4  5  2  0  0  0  0
  4  6  1  0  0  0  0
  6  7  2  0  0  0  0
  6 14  1  0  0  0  0
  7  8  1  0  0  0  0
  7 30  1  0  0  0  0
  8  9  1  0  0  0  0
  8 13  2  0  0  0  0
  9 10  2  0  0  0  0
  9 31  1  0  0  0  0
 10 11  1  0  0  0  0
 10 32  1  0  0  0  0
 11 12  2  0  0  0  0
 11 33  1  0  0  0  0
 12 13  1  0  0  0  0
 12 34  1  0  0  0  0
 13 14  1  0  0  0  0
 14 35  1  0  0  0  0
 15 16  2  0  0  0  0
 15 36  1  0  0  0  0
 16 17  1  0  0  0  0
 17 18  1  0  0  0  0
 18 19  1  0  0  0  0
 18 27  2  0  0  0  0
 19 20  2  0  0  0  0
 19 37  1  0  0  0  0
 20 21  1  0  0  0  0
 20 38  1  0  0  0  0
 21 22  1  0  0  0  0
 21 26  2  0  0  0  0
 22 23  1  0  0  0  0
 22 39  1  0  0  0  0
 23 24  2  0  0  0  0
 23 25  1  0  0  0  0
 25 26  1  0  0  0  0
 25 40  1  0  0  0  0
 26 27  1  0  0  0  0
 27 41  1  0  0  0  0
M  END
$$$$
