CHEMBL3656099
 OpenBabel04072215373D

 65 68  0  0  0  0  0  0  0  0999 V2000
    2.8515    7.1757    2.5854 C   0  0  0  0  0  0  0  0  0  0  0  0
    1.7308    6.1974    2.3738 C   0  0  0  0  0  0  0  0  0  0  0  0
    2.0182    4.8938    1.9586 C   0  0  0  0  0  0  0  0  0  0  0  0
    0.9883    3.9759    1.7957 C   0  0  0  0  0  0  0  0  0  0  0  0
   -0.3329    4.3577    2.0251 C   0  0  0  0  0  0  0  0  0  0  0  0
   -1.2403    3.3740    1.9839 F   0  0  0  0  0  0  0  0  0  0  0  0
   -0.6645    5.6765    2.3746 C   0  0  0  0  0  0  0  0  0  0  0  0
   -1.9938    6.1621    2.5324 N   0  0  0  0  0  0  0  0  0  0  0  0
   -3.1206    5.5736    1.9905 C   0  0  0  0  0  0  0  0  0  0  0  0
   -3.1206    4.5755    1.2751 O   0  0  0  0  0  0  0  0  0  0  0  0
   -4.2888    6.2721    2.2757 N   0  0  0  0  0  0  0  0  0  0  0  0
   -5.5249    5.7080    1.8678 C   0  0  0  0  0  0  0  0  0  0  0  0
   -5.8314    4.3801    2.1861 C   0  0  0  0  0  0  0  0  0  0  0  0
   -6.9861    3.7791    1.6853 C   0  0  0  0  0  0  0  0  0  0  0  0
   -7.8751    4.5191    0.9050 C   0  0  0  0  0  0  0  0  0  0  0  0
   -9.0327    4.0073    0.3585 O   0  0  0  0  0  0  0  0  0  0  0  0
   -9.7293    3.0320    1.0379 C   0  0  0  0  0  0  0  0  0  0  0  0
   -9.8704    2.9989    2.4215 C   0  0  0  0  0  0  0  0  0  0  0  0
  -10.5724    1.9452    2.9776 C   0  0  0  0  0  0  0  0  0  0  0  0
  -11.1722    0.9736    2.2561 N   0  0  0  0  0  0  0  0  0  0  0  0
  -11.0713    1.0617    0.9075 C   0  0  0  0  0  0  0  0  0  0  0  0
  -11.7682    0.0059    0.1796 C   0  0  0  0  0  0  0  0  0  0  0  0
  -11.9412   -0.2236   -1.1738 C   0  0  0  0  0  0  0  0  0  0  0  0
  -12.7351   -1.3976   -1.3536 C   0  0  0  0  0  0  0  0  0  0  0  0
  -13.2070   -2.0328   -2.5843 C   0  0  0  0  0  0  0  0  0  0  0  0
  -13.9450   -3.0135   -2.5806 O   0  0  0  0  0  0  0  0  0  0  0  0
  -12.7699   -1.4339   -3.7468 N   0  0  0  0  0  0  0  0  0  0  0  0
  -13.1552   -1.9067   -5.0555 C   0  0  0  0  0  0  0  0  0  0  0  0
  -14.4723   -1.2888   -5.5318 C   0  0  0  0  0  0  0  0  0  0  0  0
  -14.4495    0.2348   -5.6259 C   0  0  0  0  0  0  0  0  0  0  0  0
  -13.4094    0.7198   -6.6011 C   0  0  0  0  0  0  0  0  0  0  0  0
  -12.2559    0.9714   -6.2872 O   0  0  0  0  0  0  0  0  0  0  0  0
  -13.8561    0.8051   -7.8721 O   0  0  0  0  0  0  0  0  0  0  0  0
  -13.0096   -1.8573   -0.0761 C   0  0  0  0  0  0  0  0  0  0  0  0
  -12.4274   -1.0144    0.8313 N   0  0  0  0  0  0  0  0  0  0  0  0
  -10.3683    2.0701    0.2618 C   0  0  0  0  0  0  0  0  0  0  0  0
   -7.5685    5.8454    0.5833 C   0  0  0  0  0  0  0  0  0  0  0  0
   -6.4082    6.4509    1.0844 C   0  0  0  0  0  0  0  0  0  0  0  0
    0.3887    6.5806    2.5819 C   0  0  0  0  0  0  0  0  0  0  0  0
    3.8257    6.7127    2.3895 H   0  0  0  0  0  0  0  0  0  0  0  0
    2.8560    7.5282    3.6213 H   0  0  0  0  0  0  0  0  0  0  0  0
    2.7465    8.0282    1.9077 H   0  0  0  0  0  0  0  0  0  0  0  0
    3.0426    4.5762    1.7779 H   0  0  0  0  0  0  0  0  0  0  0  0
    1.1963    2.9505    1.5050 H   0  0  0  0  0  0  0  0  0  0  0  0
   -2.1088    7.0827    2.9331 H   0  0  0  0  0  0  0  0  0  0  0  0
   -4.2015    7.2711    2.1684 H   0  0  0  0  0  0  0  0  0  0  0  0
   -5.1544    3.7904    2.8008 H   0  0  0  0  0  0  0  0  0  0  0  0
   -7.1600    2.7292    1.9023 H   0  0  0  0  0  0  0  0  0  0  0  0
   -9.4293    3.7550    3.0596 H   0  0  0  0  0  0  0  0  0  0  0  0
  -10.6706    1.8526    4.0555 H   0  0  0  0  0  0  0  0  0  0  0  0
  -11.5412    0.4080   -1.9549 H   0  0  0  0  0  0  0  0  0  0  0  0
  -12.1605   -0.6298   -3.6992 H   0  0  0  0  0  0  0  0  0  0  0  0
  -13.2565   -2.9971   -5.0251 H   0  0  0  0  0  0  0  0  0  0  0  0
  -12.3355   -1.6743   -5.7422 H   0  0  0  0  0  0  0  0  0  0  0  0
  -15.2775   -1.5791   -4.8460 H   0  0  0  0  0  0  0  0  0  0  0  0
  -14.7187   -1.7110   -6.5131 H   0  0  0  0  0  0  0  0  0  0  0  0
  -14.2433    0.6956   -4.6531 H   0  0  0  0  0  0  0  0  0  0  0  0
  -15.4321    0.6133   -5.9302 H   0  0  0  0  0  0  0  0  0  0  0  0
  -14.7963    0.5686   -7.9854 H   0  0  0  0  0  0  0  0  0  0  0  0
  -13.5780   -2.7180    0.2538 H   0  0  0  0  0  0  0  0  0  0  0  0
  -12.4632   -1.0966    1.8403 H   0  0  0  0  0  0  0  0  0  0  0  0
  -10.3036    2.1132   -0.8187 H   0  0  0  0  0  0  0  0  0  0  0  0
   -8.2223    6.4022   -0.0835 H   0  0  0  0  0  0  0  0  0  0  0  0
   -6.1738    7.4686    0.7883 H   0  0  0  0  0  0  0  0  0  0  0  0
    0.1815    7.6044    2.8829 H   0  0  0  0  0  0  0  0  0  0  0  0
  1  2  1  0  0  0  0
  1 40  1  0  0  0  0
  1 41  1  0  0  0  0
  1 42  1  0  0  0  0
  2  3  1  0  0  0  0
  2 39  2  0  0  0  0
  3  4  2  0  0  0  0
  3 43  1  0  0  0  0
  4  5  1  0  0  0  0
  4 44  1  0  0  0  0
  5  6  1  0  0  0  0
  5  7  2  0  0  0  0
  7  8  1  0  0  0  0
  7 39  1  0  0  0  0
  8  9  1  0  0  0  0
  8 45  1  0  0  0  0
  9 10  2  0  0  0  0
  9 11  1  0  0  0  0
 11 12  1  0  0  0  0
 11 46  1  0  0  0  0
 12 13  1  0  0  0  0
 12 38  2  0  0  0  0
 13 14  2  0  0  0  0
 13 47  1  0  0  0  0
 14 15  1  0  0  0  0
 14 48  1  0  0  0  0
 15 16  1  0  0  0  0
 15 37  2  0  0  0  0
 16 17  1  0  0  0  0
 17 18  1  0  0  0  0
 17 36  2  0  0  0  0
 18 19  2  0  0  0  0
 18 49  1  0  0  0  0
 19 20  1  0  0  0  0
 19 50  1  0  0  0  0
 20 21  2  0  0  0  0
 21 22  1  0  0  0  0
 21 36  1  0  0  0  0
 22 23  2  0  0  0  0
 22 35  1  0  0  0  0
 23 24  1  0  0  0  0
 23 51  1  0  0  0  0
 24 25  1  0  0  0  0
 24 34  2  0  0  0  0
 25 26  2  0  0  0  0
 25 27  1  0  0  0  0
 27 28  1  0  0  0  0
 27 52  1  0  0  0  0
 28 29  1  0  0  0  0
 28 53  1  0  0  0  0
 28 54  1  0  0  0  0
 29 30  1  0  0  0  0
 29 55  1  0  0  0  0
 29 56  1  0  0  0  0
 30 31  1  0  0  0  0
 30 57  1  0  0  0  0
 30 58  1  0  0  0  0
 31 32  2  0  0  0  0
 31 33  1  0  0  0  0
 33 59  1  0  0  0  0
 34 35  1  0  0  0  0
 34 60  1  0  0  0  0
 35 61  1  0  0  0  0
 36 62  1  0  0  0  0
 37 38  1  0  0  0  0
 37 63  1  0  0  0  0
 38 64  1  0  0  0  0
 39 65  1  0  0  0  0
M  END
$$$$
