CHEMBL1085293
 OpenBabel04072215363D

 62 68  0  0  1  0  0  0  0  0999 V2000
    1.7843   -0.5306    1.0624 C   0  0  0  0  0  0  0  0  0  0  0  0
    2.7119   -1.5876    0.7112 N   0  0  0  0  0  0  0  0  0  0  0  0
    3.7366   -2.1799    1.4464 C   0  0  0  0  0  0  0  0  0  0  0  0
    4.4257   -3.0574    0.5847 C   0  0  0  0  0  0  0  0  0  0  0  0
    3.9866   -2.4560   -0.6694 C   0  0  0  0  0  0  0  0  0  0  0  0
    2.8223   -1.8226   -0.5970 N   0  0  0  0  0  0  0  0  0  0  0  0
    4.9314   -2.1012   -1.7733 C   0  0  0  0  0  0  0  0  0  0  0  0
    6.1356   -2.9891   -1.6558 C   0  0  0  0  0  0  0  0  0  0  0  0
    6.6251   -2.7674   -0.2112 C   0  0  0  0  0  0  0  0  0  0  0  0
    5.8500   -3.4758    0.7331 C   0  0  0  0  0  0  0  0  0  0  0  0
    6.5309   -4.7202    0.9351 C   0  0  0  0  0  0  0  0  0  0  0  0
    7.9919   -4.8483    0.8008 C   0  0  0  0  0  0  0  0  0  0  0  0
    8.7033   -3.6613    0.5517 C   0  0  0  0  0  0  0  0  0  0  0  0
   10.0728   -3.3823    0.4135 C   0  0  0  0  0  0  0  0  0  0  0  0
   11.3199   -4.0439    0.4239 C   0  0  0  0  0  0  0  0  0  0  0  0
   12.5139   -3.3069    0.1898 C   0  0  0  0  0  0  0  0  0  0  0  0
   13.8459   -4.0132   -0.0668 C   0  0  3  0  0  0  0  0  0  0  0  0
   14.8987   -3.2171   -0.8723 C   0  0  0  0  0  0  0  0  0  0  0  0
   14.4887   -3.0477   -2.3336 C   0  0  0  0  0  0  0  0  0  0  0  0
   14.1694   -4.3996   -2.9529 C   0  0  0  0  0  0  0  0  0  0  0  0
   13.2364   -5.2180   -2.0691 C   0  0  0  0  0  0  0  0  0  0  0  0
   13.6675   -5.2897   -0.7071 O   0  0  0  0  0  0  0  0  0  0  0  0
   12.4576   -1.9077    0.1882 C   0  0  0  0  0  0  0  0  0  0  0  0
   11.2524   -1.2250    0.1778 C   0  0  0  0  0  0  0  0  0  0  0  0
   10.0835   -1.9840    0.1867 C   0  0  0  0  0  0  0  0  0  0  0  0
    8.7922   -1.5760   -0.0305 N   0  0  0  0  0  0  0  0  0  0  0  0
    8.2941   -0.2149   -0.2064 C   0  0  0  0  0  0  0  0  0  0  0  0
    7.6543    0.3149    1.0740 C   0  0  0  0  0  0  0  0  0  0  0  0
    8.6386    0.5510    2.0789 O   0  0  0  0  0  0  0  0  0  0  0  0
    7.9520   -2.6349    0.0990 C   0  0  0  0  0  0  0  0  0  0  0  0
    8.4376   -6.2422    0.7507 C   0  0  0  0  0  0  0  0  0  0  0  0
    7.1393   -6.8876    0.8454 N   0  0  0  0  0  0  0  0  0  0  0  0
    6.0098   -6.0656    0.9693 C   0  0  0  0  0  0  0  0  0  0  0  0
    4.8773   -6.5221    0.9969 O   0  0  0  0  0  0  0  0  0  0  0  0
    2.3216    0.4223    1.0928 H   0  0  0  0  0  0  0  0  0  0  0  0
    1.3051   -0.7547    2.0123 H   0  0  0  0  0  0  0  0  0  0  0  0
    1.0160   -0.4690    0.2778 H   0  0  0  0  0  0  0  0  0  0  0  0
    3.9482   -1.8256    2.4481 H   0  0  0  0  0  0  0  0  0  0  0  0
    5.2617   -1.0467   -1.5869 H   0  0  0  0  0  0  0  0  0  0  0  0
    4.4698   -2.1242   -2.7529 H   0  0  0  0  0  0  0  0  0  0  0  0
    6.9160   -2.7801   -2.3823 H   0  0  0  0  0  0  0  0  0  0  0  0
    5.8338   -4.0357   -1.7801 H   0  0  0  0  0  0  0  0  0  0  0  0
   11.3666   -5.1250    0.5208 H   0  0  0  0  0  0  0  0  0  0  0  0
   14.2748   -4.2200    0.9212 H   0  0  0  0  0  0  0  0  0  0  0  0
   15.8433   -3.7768   -0.8550 H   0  0  0  0  0  0  0  0  0  0  0  0
   15.1201   -2.2420   -0.4275 H   0  0  0  0  0  0  0  0  0  0  0  0
   15.2951   -2.5624   -2.8967 H   0  0  0  0  0  0  0  0  0  0  0  0
   13.6145   -2.3895   -2.4145 H   0  0  0  0  0  0  0  0  0  0  0  0
   15.1083   -4.9483   -3.0874 H   0  0  0  0  0  0  0  0  0  0  0  0
   13.7256   -4.2672   -3.9453 H   0  0  0  0  0  0  0  0  0  0  0  0
   13.1983   -6.2455   -2.4462 H   0  0  0  0  0  0  0  0  0  0  0  0
   12.2150   -4.8278   -2.1177 H   0  0  0  0  0  0  0  0  0  0  0  0
   13.3570   -1.3000    0.1308 H   0  0  0  0  0  0  0  0  0  0  0  0
   11.2358   -0.1426    0.0939 H   0  0  0  0  0  0  0  0  0  0  0  0
    7.5526   -0.2518   -1.0159 H   0  0  0  0  0  0  0  0  0  0  0  0
    9.1186    0.4172   -0.5336 H   0  0  0  0  0  0  0  0  0  0  0  0
    6.8995   -0.3658    1.4896 H   0  0  0  0  0  0  0  0  0  0  0  0
    7.1554    1.2683    0.8718 H   0  0  0  0  0  0  0  0  0  0  0  0
    9.0026   -0.3175    2.3353 H   0  0  0  0  0  0  0  0  0  0  0  0
    9.0678   -6.5467    1.5854 H   0  0  0  0  0  0  0  0  0  0  0  0
    8.8910   -6.4910   -0.2110 H   0  0  0  0  0  0  0  0  0  0  0  0
    7.0034   -7.8648    0.6121 H   0  0  0  0  0  0  0  0  0  0  0  0
  1  2  1  0  0  0  0
  1 35  1  0  0  0  0
  1 36  1  0  0  0  0
  1 37  1  0  0  0  0
  2  3  1  0  0  0  0
  2  6  1  0  0  0  0
  3  4  2  0  0  0  0
  3 38  1  0  0  0  0
  4  5  1  0  0  0  0
  4 10  1  0  0  0  0
  5  6  2  0  0  0  0
  5  7  1  0  0  0  0
  7  8  1  0  0  0  0
  7 39  1  0  0  0  0
  7 40  1  0  0  0  0
  8  9  1  0  0  0  0
  8 41  1  0  0  0  0
  8 42  1  0  0  0  0
  9 10  1  0  0  0  0
  9 30  2  0  0  0  0
 10 11  2  0  0  0  0
 11 12  1  0  0  0  0
 11 33  1  0  0  0  0
 12 13  2  0  0  0  0
 12 31  1  0  0  0  0
 13 14  1  0  0  0  0
 13 30  1  0  0  0  0
 14 15  1  0  0  0  0
 14 25  2  0  0  0  0
 15 16  2  0  0  0  0
 15 43  1  0  0  0  0
 16 17  1  0  0  0  0
 16 23  1  0  0  0  0
 17 18  1  0  0  0  0
 17 22  1  0  0  0  0
 17 44  1  0  0  0  0
 18 19  1  0  0  0  0
 18 45  1  0  0  0  0
 18 46  1  0  0  0  0
 19 20  1  0  0  0  0
 19 47  1  0  0  0  0
 19 48  1  0  0  0  0
 20 21  1  0  0  0  0
 20 49  1  0  0  0  0
 20 50  1  0  0  0  0
 21 22  1  0  0  0  0
 21 51  1  0  0  0  0
 21 52  1  0  0  0  0
 23 24  2  0  0  0  0
 23 53  1  0  0  0  0
 24 25  1  0  0  0  0
 24 54  1  0  0  0  0
 25 26  1  0  0  0  0
 26 27  1  0  0  0  0
 26 30  1  0  0  0  0
 27 28  1  0  0  0  0
 27 55  1  0  0  0  0
 27 56  1  0  0  0  0
 28 29  1  0  0  0  0
 28 57  1  0  0  0  0
 28 58  1  0  0  0  0
 29 59  1  0  0  0  0
 31 32  1  0  0  0  0
 31 60  1  0  0  0  0
 31 61  1  0  0  0  0
 32 33  1  0  0  0  0
 32 62  1  0  0  0  0
 33 34  2  0  0  0  0
M  END
$$$$
