CHEMBL4094115
 OpenBabel04072215383D

 76 80  0  0  0  0  0  0  0  0999 V2000
    0.9025   -0.0651   -0.0198 C   0  0  0  0  0  0  0  0  0  0  0  0
    2.4048   -0.0927   -0.1083 C   0  0  0  0  0  0  0  0  0  0  0  0
    3.1005    1.1227   -0.1334 C   0  0  0  0  0  0  0  0  0  0  0  0
    4.4892    1.1416   -0.2547 C   0  0  0  0  0  0  0  0  0  0  0  0
    5.2101   -0.0564   -0.3525 C   0  0  0  0  0  0  0  0  0  0  0  0
    6.6904    0.0583   -0.4678 C   0  0  0  0  0  0  0  0  0  0  0  0
    7.2128    1.0034    0.1097 O   0  0  0  0  0  0  0  0  0  0  0  0
    7.3303   -0.8586   -1.2963 N   0  0  0  0  0  0  0  0  0  0  0  0
    8.7080   -0.8041   -1.6259 C   0  0  0  0  0  0  0  0  0  0  0  0
    9.6296   -0.0718   -0.8798 C   0  0  0  0  0  0  0  0  0  0  0  0
   10.9490    0.0662   -1.3081 C   0  0  0  0  0  0  0  0  0  0  0  0
   11.3899   -0.5263   -2.4982 C   0  0  0  0  0  0  0  0  0  0  0  0
   12.8078   -0.2239   -2.9457 C   0  0  0  0  0  0  0  0  0  0  0  0
   12.8614    0.4598   -4.2367 N   0  0  0  0  0  0  0  0  0  0  0  0
   12.1720    1.7583   -4.2742 C   0  0  0  0  0  0  0  0  0  0  0  0
   12.2395    2.3744   -5.6923 C   0  0  0  0  0  0  0  0  0  0  0  0
   13.6045    2.5407   -6.2312 N   0  0  0  0  0  0  0  0  0  0  0  0
   14.3068    3.6366   -5.5698 C   0  0  0  0  0  0  0  0  0  0  0  0
   14.3352    1.2637   -6.0959 C   0  0  0  0  0  0  0  0  0  0  0  0
   14.2532    0.6068   -4.6980 C   0  0  0  0  0  0  0  0  0  0  0  0
   10.4945   -1.3284   -3.2395 C   0  0  0  0  0  0  0  0  0  0  0  0
   10.8411   -2.0130   -4.5504 C   0  0  0  0  0  0  0  0  0  0  0  0
   12.1208   -1.9119   -4.9916 F   0  0  0  0  0  0  0  0  0  0  0  0
   10.6132   -3.3590   -4.4776 F   0  0  0  0  0  0  0  0  0  0  0  0
   10.0522   -1.5739   -5.5748 F   0  0  0  0  0  0  0  0  0  0  0  0
    9.1615   -1.4704   -2.7705 C   0  0  0  0  0  0  0  0  0  0  0  0
    4.5356   -1.2766   -0.3041 C   0  0  0  0  0  0  0  0  0  0  0  0
    3.1340   -1.2975   -0.1882 C   0  0  0  0  0  0  0  0  0  0  0  0
    2.4607   -2.5652   -0.1728 C   0  0  0  0  0  0  0  0  0  0  0  0
    1.8762   -3.6164   -0.1914 C   0  0  0  0  0  0  0  0  0  0  0  0
    1.1677   -4.8567   -0.2599 C   0  0  0  0  0  0  0  0  0  0  0  0
   -0.2053   -4.8855   -0.4320 C   0  0  0  0  0  0  0  0  0  0  0  0
   -0.9177   -6.0254   -0.5503 N   0  0  0  0  0  0  0  0  0  0  0  0
   -0.2112   -7.1861   -0.5011 C   0  0  0  0  0  0  0  0  0  0  0  0
    1.1743   -7.3018   -0.3284 C   0  0  0  0  0  0  0  0  0  0  0  0
    1.8566   -8.5019   -0.3514 N   0  0  0  0  0  0  0  0  0  0  0  0
    3.0634   -8.7324    0.4644 C   0  0  0  0  0  0  0  0  0  0  0  0
    4.0715   -9.5443   -0.3633 C   0  0  0  0  0  0  0  0  0  0  0  0
    3.5025  -10.7909   -0.7993 O   0  0  0  0  0  0  0  0  0  0  0  0
    2.3358  -10.5551   -1.6058 C   0  0  0  0  0  0  0  0  0  0  0  0
    1.2592   -9.7569   -0.8443 C   0  0  0  0  0  0  0  0  0  0  0  0
    1.8480   -6.0761   -0.2025 C   0  0  0  0  0  0  0  0  0  0  0  0
    0.5276    0.9612    0.0712 H   0  0  0  0  0  0  0  0  0  0  0  0
    0.5532   -0.6180    0.8576 H   0  0  0  0  0  0  0  0  0  0  0  0
    0.4643   -0.4935   -0.9272 H   0  0  0  0  0  0  0  0  0  0  0  0
    2.5674    2.0696   -0.0608 H   0  0  0  0  0  0  0  0  0  0  0  0
    5.0072    2.0971   -0.2727 H   0  0  0  0  0  0  0  0  0  0  0  0
    6.7498   -1.4586   -1.8646 H   0  0  0  0  0  0  0  0  0  0  0  0
    9.3500    0.4240    0.0436 H   0  0  0  0  0  0  0  0  0  0  0  0
   11.6161    0.6842   -0.7115 H   0  0  0  0  0  0  0  0  0  0  0  0
   13.3357   -1.1853   -2.9986 H   0  0  0  0  0  0  0  0  0  0  0  0
   13.3332    0.3641   -2.1810 H   0  0  0  0  0  0  0  0  0  0  0  0
   12.5975    2.4499   -3.5366 H   0  0  0  0  0  0  0  0  0  0  0  0
   11.1107    1.6380   -4.0292 H   0  0  0  0  0  0  0  0  0  0  0  0
   11.7079    3.3336   -5.7040 H   0  0  0  0  0  0  0  0  0  0  0  0
   11.6820    1.7234   -6.3804 H   0  0  0  0  0  0  0  0  0  0  0  0
   13.7523    4.5732   -5.6960 H   0  0  0  0  0  0  0  0  0  0  0  0
   15.2882    3.7908   -6.0309 H   0  0  0  0  0  0  0  0  0  0  0  0
   14.4567    3.4733   -4.4981 H   0  0  0  0  0  0  0  0  0  0  0  0
   15.3872    1.3972   -6.3771 H   0  0  0  0  0  0  0  0  0  0  0  0
   13.9220    0.5599   -6.8312 H   0  0  0  0  0  0  0  0  0  0  0  0
   14.8364    1.1959   -3.9782 H   0  0  0  0  0  0  0  0  0  0  0  0
   14.7253   -0.3814   -4.7618 H   0  0  0  0  0  0  0  0  0  0  0  0
    8.4676   -2.0752   -3.3561 H   0  0  0  0  0  0  0  0  0  0  0  0
    5.0856   -2.2149   -0.3274 H   0  0  0  0  0  0  0  0  0  0  0  0
   -0.7882   -3.9715   -0.4953 H   0  0  0  0  0  0  0  0  0  0  0  0
   -0.8404   -8.0654   -0.6018 H   0  0  0  0  0  0  0  0  0  0  0  0
    2.7742   -9.3052    1.3547 H   0  0  0  0  0  0  0  0  0  0  0  0
    3.5432   -7.8153    0.8146 H   0  0  0  0  0  0  0  0  0  0  0  0
    4.9535   -9.7741    0.2415 H   0  0  0  0  0  0  0  0  0  0  0  0
    4.4030   -8.9756   -1.2411 H   0  0  0  0  0  0  0  0  0  0  0  0
    1.9371  -11.5288   -1.9065 H   0  0  0  0  0  0  0  0  0  0  0  0
    2.6377  -10.0224   -2.5161 H   0  0  0  0  0  0  0  0  0  0  0  0
    0.8961  -10.3400    0.0113 H   0  0  0  0  0  0  0  0  0  0  0  0
    0.4227   -9.5872   -1.5288 H   0  0  0  0  0  0  0  0  0  0  0  0
    2.9292   -6.0508   -0.1112 H   0  0  0  0  0  0  0  0  0  0  0  0
  1  2  1  0  0  0  0
  1 43  1  0  0  0  0
  1 44  1  0  0  0  0
  1 45  1  0  0  0  0
  2  3  1  0  0  0  0
  2 28  2  0  0  0  0
  3  4  2  0  0  0  0
  3 46  1  0  0  0  0
  4  5  1  0  0  0  0
  4 47  1  0  0  0  0
  5  6  1  0  0  0  0
  5 27  2  0  0  0  0
  6  7  2  0  0  0  0
  6  8  1  0  0  0  0
  8  9  1  0  0  0  0
  8 48  1  0  0  0  0
  9 10  1  0  0  0  0
  9 26  2  0  0  0  0
 10 11  2  0  0  0  0
 10 49  1  0  0  0  0
 11 12  1  0  0  0  0
 11 50  1  0  0  0  0
 12 13  1  0  0  0  0
 12 21  2  0  0  0  0
 13 14  1  0  0  0  0
 13 51  1  0  0  0  0
 13 52  1  0  0  0  0
 14 15  1  0  0  0  0
 14 20  1  0  0  0  0
 15 16  1  0  0  0  0
 15 53  1  0  0  0  0
 15 54  1  0  0  0  0
 16 17  1  0  0  0  0
 16 55  1  0  0  0  0
 16 56  1  0  0  0  0
 17 18  1  0  0  0  0
 17 19  1  0  0  0  0
 18 57  1  0  0  0  0
 18 58  1  0  0  0  0
 18 59  1  0  0  0  0
 19 20  1  0  0  0  0
 19 60  1  0  0  0  0
 19 61  1  0  0  0  0
 20 62  1  0  0  0  0
 20 63  1  0  0  0  0
 21 22  1  0  0  0  0
 21 26  1  0  0  0  0
 22 23  1  0  0  0  0
 22 24  1  0  0  0  0
 22 25  1  0  0  0  0
 26 64  1  0  0  0  0
 27 28  1  0  0  0  0
 27 65  1  0  0  0  0
 28 29  1  0  0  0  0
 29 30  3  0  0  0  0
 30 31  1  0  0  0  0
 31 32  1  0  0  0  0
 31 42  2  0  0  0  0
 32 33  2  0  0  0  0
 32 66  1  0  0  0  0
 33 34  1  0  0  0  0
 34 35  2  0  0  0  0
 34 67  1  0  0  0  0
 35 36  1  0  0  0  0
 35 42  1  0  0  0  0
 36 37  1  0  0  0  0
 36 41  1  0  0  0  0
 37 38  1  0  0  0  0
 37 68  1  0  0  0  0
 37 69  1  0  0  0  0
 38 39  1  0  0  0  0
 38 70  1  0  0  0  0
 38 71  1  0  0  0  0
 39 40  1  0  0  0  0
 40 41  1  0  0  0  0
 40 72  1  0  0  0  0
 40 73  1  0  0  0  0
 41 74  1  0  0  0  0
 41 75  1  0  0  0  0
 42 76  1  0  0  0  0
M  END
$$$$
