CHEMBL4094157
 OpenBabel04072215383D

 41 44  0  0  0  0  0  0  0  0999 V2000
    0.9042    0.0561    0.0753 C   0  0  0  0  0  0  0  0  0  0  0  0
    2.4031   -0.0433    0.0779 C   0  0  0  0  0  0  0  0  0  0  0  0
    3.1904    1.1206    0.0947 C   0  0  0  0  0  0  0  0  0  0  0  0
    4.5855    0.9767    0.0895 C   0  0  0  0  0  0  0  0  0  0  0  0
    5.5775    1.9322    0.0918 N   0  0  0  0  0  0  0  0  0  0  0  0
    6.8079    1.3400    0.0701 C   0  0  0  0  0  0  0  0  0  0  0  0
    7.9702    2.0056    0.0413 N   0  0  0  0  0  0  0  0  0  0  0  0
    9.0229    1.1822   -0.0090 C   0  0  0  0  0  0  0  0  0  0  0  0
   10.2691    1.7736   -0.0944 N   0  0  0  0  0  0  0  0  0  0  0  0
    8.9958   -0.1607    0.0373 N   0  0  0  0  0  0  0  0  0  0  0  0
    7.8067   -0.8084    0.0637 C   0  0  0  0  0  0  0  0  0  0  0  0
    7.7547   -2.1897    0.0216 N   0  0  0  0  0  0  0  0  0  0  0  0
    8.8606   -2.9819    0.5116 C   0  0  0  0  0  0  0  0  0  0  0  0
    8.8565   -4.2978   -0.2367 C   0  0  0  0  0  0  0  0  0  0  0  0
    9.1078   -4.3033   -1.6186 C   0  0  0  0  0  0  0  0  0  0  0  0
    9.1024   -5.4958   -2.3411 C   0  0  0  0  0  0  0  0  0  0  0  0
    8.8460   -6.6999   -1.6896 C   0  0  0  0  0  0  0  0  0  0  0  0
    8.5888   -6.7098   -0.3194 C   0  0  0  0  0  0  0  0  0  0  0  0
    8.5910   -5.5141    0.4066 C   0  0  0  0  0  0  0  0  0  0  0  0
    6.6328   -0.0307    0.0715 C   0  0  0  0  0  0  0  0  0  0  0  0
    5.2186   -0.2693    0.0693 C   0  0  0  0  0  0  0  0  0  0  0  0
    4.4102   -1.4259    0.0490 C   0  0  0  0  0  0  0  0  0  0  0  0
    3.0202   -1.2938    0.0575 C   0  0  0  0  0  0  0  0  0  0  0  0
    2.2328   -2.4134    0.0428 O   0  0  0  0  0  0  0  0  0  0  0  0
    0.5699    1.0985    0.0762 H   0  0  0  0  0  0  0  0  0  0  0  0
    0.4917   -0.4297    0.9657 H   0  0  0  0  0  0  0  0  0  0  0  0
    0.4971   -0.4242   -0.8206 H   0  0  0  0  0  0  0  0  0  0  0  0
    2.7311    2.1048    0.1068 H   0  0  0  0  0  0  0  0  0  0  0  0
    5.4346    2.9309    0.0904 H   0  0  0  0  0  0  0  0  0  0  0  0
   10.2391    2.7111    0.2766 H   0  0  0  0  0  0  0  0  0  0  0  0
   10.9766    1.1440    0.2538 H   0  0  0  0  0  0  0  0  0  0  0  0
    6.8524   -2.5878    0.2224 H   0  0  0  0  0  0  0  0  0  0  0  0
    8.7288   -3.1540    1.5867 H   0  0  0  0  0  0  0  0  0  0  0  0
    9.8387   -2.5065    0.3721 H   0  0  0  0  0  0  0  0  0  0  0  0
    9.2964   -3.3625   -2.1340 H   0  0  0  0  0  0  0  0  0  0  0  0
    9.2959   -5.4811   -3.4103 H   0  0  0  0  0  0  0  0  0  0  0  0
    8.8448   -7.6297   -2.2528 H   0  0  0  0  0  0  0  0  0  0  0  0
    8.3869   -7.6518    0.1840 H   0  0  0  0  0  0  0  0  0  0  0  0
    8.3827   -5.5441    1.4733 H   0  0  0  0  0  0  0  0  0  0  0  0
    4.8573   -2.4107    0.0157 H   0  0  0  0  0  0  0  0  0  0  0  0
    2.8034   -3.1999    0.0115 H   0  0  0  0  0  0  0  0  0  0  0  0
  1  2  1  0  0  0  0
  1 25  1  0  0  0  0
  1 26  1  0  0  0  0
  1 27  1  0  0  0  0
  2  3  1  0  0  0  0
  2 23  2  0  0  0  0
  3  4  2  0  0  0  0
  3 28  1  0  0  0  0
  4  5  1  0  0  0  0
  4 21  1  0  0  0  0
  5  6  1  0  0  0  0
  5 29  1  0  0  0  0
  6  7  1  0  0  0  0
  6 20  2  0  0  0  0
  7  8  2  0  0  0  0
  8  9  1  0  0  0  0
  8 10  1  0  0  0  0
  9 30  1  0  0  0  0
  9 31  1  0  0  0  0
 10 11  2  0  0  0  0
 11 12  1  0  0  0  0
 11 20  1  0  0  0  0
 12 13  1  0  0  0  0
 12 32  1  0  0  0  0
 13 14  1  0  0  0  0
 13 33  1  0  0  0  0
 13 34  1  0  0  0  0
 14 15  1  0  0  0  0
 14 19  2  0  0  0  0
 15 16  2  0  0  0  0
 15 35  1  0  0  0  0
 16 17  1  0  0  0  0
 16 36  1  0  0  0  0
 17 18  2  0  0  0  0
 17 37  1  0  0  0  0
 18 19  1  0  0  0  0
 18 38  1  0  0  0  0
 19 39  1  0  0  0  0
 20 21  1  0  0  0  0
 21 22  2  0  0  0  0
 22 23  1  0  0  0  0
 22 40  1  0  0  0  0
 23 24  1  0  0  0  0
 24 41  1  0  0  0  0
M  END
$$$$
