CHEMBL4553163
 OpenBabel04072215383D

 42 45  0  0  0  0  0  0  0  0999 V2000
    2.3796   -4.4282    3.2302 C   0  0  0  0  0  0  0  0  0  0  0  0
    1.1854   -3.5287    3.1071 C   0  0  0  0  0  0  0  0  0  0  0  0
    1.0027   -2.4496    3.9779 C   0  0  0  0  0  0  0  0  0  0  0  0
   -0.1014   -1.6093    3.8354 C   0  0  0  0  0  0  0  0  0  0  0  0
   -1.0304   -1.8385    2.8181 C   0  0  0  0  0  0  0  0  0  0  0  0
   -0.8721   -2.9189    1.9413 C   0  0  0  0  0  0  0  0  0  0  0  0
   -1.8552   -3.1567    0.9030 C   0  0  0  0  0  0  0  0  0  0  0  0
   -2.2056   -4.3783    0.3717 C   0  0  0  0  0  0  0  0  0  0  0  0
   -3.2076   -4.0797   -0.5057 N   0  0  0  0  0  0  0  0  0  0  0  0
   -4.0819   -5.0081   -1.1967 C   0  0  0  0  0  0  0  0  0  0  0  0
   -3.5647   -5.3796   -2.5622 C   0  0  0  0  0  0  0  0  0  0  0  0
   -2.7183   -6.4780   -2.7399 C   0  0  0  0  0  0  0  0  0  0  0  0
   -2.2657   -6.8273   -4.0182 C   0  0  0  0  0  0  0  0  0  0  0  0
   -2.6502   -6.1045   -5.1633 C   0  0  0  0  0  0  0  0  0  0  0  0
   -2.1978   -6.5014   -6.5089 C   0  0  0  0  0  0  0  0  0  0  0  0
   -1.9662   -7.8209   -6.8758 C   0  0  0  0  0  0  0  0  0  0  0  0
   -1.5481   -8.2286   -8.0951 N   0  0  0  0  0  0  0  0  0  0  0  0
   -1.3635   -7.2574   -8.9975 C   0  0  0  0  0  0  0  0  0  0  0  0
   -1.5549   -5.9487   -8.7875 N   0  0  0  0  0  0  0  0  0  0  0  0
   -1.9652   -5.6076   -7.5440 C   0  0  0  0  0  0  0  0  0  0  0  0
   -3.4909   -4.9954   -4.9635 C   0  0  0  0  0  0  0  0  0  0  0  0
   -3.9337   -4.6323   -3.6855 C   0  0  0  0  0  0  0  0  0  0  0  0
   -3.4577   -2.7573   -0.5316 N   0  0  0  0  0  0  0  0  0  0  0  0
   -2.6343   -2.1806    0.3357 N   0  0  0  0  0  0  0  0  0  0  0  0
    0.2419   -3.7581    2.0943 C   0  0  0  0  0  0  0  0  0  0  0  0
    3.0045   -4.1529    4.0864 H   0  0  0  0  0  0  0  0  0  0  0  0
    2.9942   -4.3591    2.3270 H   0  0  0  0  0  0  0  0  0  0  0  0
    2.0592   -5.4658    3.3691 H   0  0  0  0  0  0  0  0  0  0  0  0
    1.7200   -2.2527    4.7713 H   0  0  0  0  0  0  0  0  0  0  0  0
   -0.2386   -0.7722    4.5153 H   0  0  0  0  0  0  0  0  0  0  0  0
   -1.8863   -1.1729    2.7207 H   0  0  0  0  0  0  0  0  0  0  0  0
   -1.8779   -5.3881    0.5643 H   0  0  0  0  0  0  0  0  0  0  0  0
   -5.0762   -4.5511   -1.2660 H   0  0  0  0  0  0  0  0  0  0  0  0
   -4.1864   -5.8995   -0.5667 H   0  0  0  0  0  0  0  0  0  0  0  0
   -2.4041   -7.0815   -1.8905 H   0  0  0  0  0  0  0  0  0  0  0  0
   -1.5949   -7.6809   -4.1016 H   0  0  0  0  0  0  0  0  0  0  0  0
   -2.1209   -8.6372   -6.1765 H   0  0  0  0  0  0  0  0  0  0  0  0
   -1.0300   -7.5569   -9.9847 H   0  0  0  0  0  0  0  0  0  0  0  0
   -2.0956   -4.5370   -7.4081 H   0  0  0  0  0  0  0  0  0  0  0  0
   -3.8360   -4.3980   -5.8056 H   0  0  0  0  0  0  0  0  0  0  0  0
   -4.5811   -3.7625   -3.5780 H   0  0  0  0  0  0  0  0  0  0  0  0
    0.3946   -4.5911    1.4123 H   0  0  0  0  0  0  0  0  0  0  0  0
  1  2  1  0  0  0  0
  1 26  1  0  0  0  0
  1 27  1  0  0  0  0
  1 28  1  0  0  0  0
  2  3  1  0  0  0  0
  2 25  2  0  0  0  0
  3  4  2  0  0  0  0
  3 29  1  0  0  0  0
  4  5  1  0  0  0  0
  4 30  1  0  0  0  0
  5  6  2  0  0  0  0
  5 31  1  0  0  0  0
  6  7  1  0  0  0  0
  6 25  1  0  0  0  0
  7  8  2  0  0  0  0
  7 24  1  0  0  0  0
  8  9  1  0  0  0  0
  8 32  1  0  0  0  0
  9 10  1  0  0  0  0
  9 23  1  0  0  0  0
 10 11  1  0  0  0  0
 10 33  1  0  0  0  0
 10 34  1  0  0  0  0
 11 12  1  0  0  0  0
 11 22  2  0  0  0  0
 12 13  2  0  0  0  0
 12 35  1  0  0  0  0
 13 14  1  0  0  0  0
 13 36  1  0  0  0  0
 14 15  1  0  0  0  0
 14 21  2  0  0  0  0
 15 16  1  0  0  0  0
 15 20  2  0  0  0  0
 16 17  2  0  0  0  0
 16 37  1  0  0  0  0
 17 18  1  0  0  0  0
 18 19  2  0  0  0  0
 18 38  1  0  0  0  0
 19 20  1  0  0  0  0
 20 39  1  0  0  0  0
 21 22  1  0  0  0  0
 21 40  1  0  0  0  0
 22 41  1  0  0  0  0
 23 24  2  0  0  0  0
 25 42  1  0  0  0  0
M  END
$$$$
