CHEMBL3781795
 OpenBabel04072215373D

 52 56  0  0  0  0  0  0  0  0999 V2000
    1.4070    0.5290    0.5275 C   0  0  0  0  0  0  0  0  0  0  0  0
    0.6034   -0.5514    0.8786 C   0  0  0  0  0  0  0  0  0  0  0  0
   -0.7788   -0.4879    0.6819 C   0  0  0  0  0  0  0  0  0  0  0  0
   -1.3915    0.6572    0.1366 C   0  0  0  0  0  0  0  0  0  0  0  0
   -2.8507    0.7404   -0.0592 C   0  0  0  0  0  0  0  0  0  0  0  0
   -3.7646    0.0939    0.7649 C   0  0  0  0  0  0  0  0  0  0  0  0
   -5.1039    0.1678    0.5940 N   0  0  0  0  0  0  0  0  0  0  0  0
   -5.5235    0.9302   -0.4366 C   0  0  0  0  0  0  0  0  0  0  0  0
   -6.8611    1.1017   -0.7059 C   0  0  0  0  0  0  0  0  0  0  0  0
   -7.3594    1.8782   -1.6944 N   0  0  0  0  0  0  0  0  0  0  0  0
   -6.4927    2.5411   -2.4838 C   0  0  0  0  0  0  0  0  0  0  0  0
   -6.9855    3.3453   -3.5399 N   0  0  0  0  0  0  0  0  0  0  0  0
   -8.2784    3.9312   -3.5441 C   0  0  0  0  0  0  0  0  0  0  0  0
   -8.9032    4.3713   -2.3758 C   0  0  0  0  0  0  0  0  0  0  0  0
  -10.1526    4.9996   -2.4188 C   0  0  0  0  0  0  0  0  0  0  0  0
  -10.8218    5.2375   -3.6258 C   0  0  0  0  0  0  0  0  0  0  0  0
  -12.0512    5.8676   -3.6455 N   0  0  0  0  0  0  0  0  0  0  0  0
  -12.5192    6.6384   -4.7950 C   0  0  0  0  0  0  0  0  0  0  0  0
  -13.0218    7.9959   -4.2982 C   0  0  0  0  0  0  0  0  0  0  0  0
  -14.0657    7.8471   -3.1917 C   0  0  0  0  0  0  0  0  0  0  0  0
  -13.5624    6.9429   -2.0658 C   0  0  0  0  0  0  0  0  0  0  0  0
  -13.0592    5.6086   -2.6136 C   0  0  0  0  0  0  0  0  0  0  0  0
  -10.1556    4.8384   -4.7942 C   0  0  0  0  0  0  0  0  0  0  0  0
   -8.8995    4.2117   -4.7593 C   0  0  0  0  0  0  0  0  0  0  0  0
   -5.1216    2.3809   -2.3249 C   0  0  0  0  0  0  0  0  0  0  0  0
   -4.6251    1.6016   -1.2868 C   0  0  0  0  0  0  0  0  0  0  0  0
   -3.2908    1.5061   -1.0953 N   0  0  0  0  0  0  0  0  0  0  0  0
   -0.5530    1.7307   -0.2159 C   0  0  0  0  0  0  0  0  0  0  0  0
    0.8303    1.6694   -0.0204 C   0  0  0  0  0  0  0  0  0  0  0  0
    2.4826    0.4789    0.6779 H   0  0  0  0  0  0  0  0  0  0  0  0
    1.0506   -1.4482    1.2997 H   0  0  0  0  0  0  0  0  0  0  0  0
   -1.3690   -1.3620    0.9497 H   0  0  0  0  0  0  0  0  0  0  0  0
   -3.4515   -0.5015    1.6161 H   0  0  0  0  0  0  0  0  0  0  0  0
   -7.6093    0.6027   -0.0978 H   0  0  0  0  0  0  0  0  0  0  0  0
   -6.3162    4.0768   -3.7640 H   0  0  0  0  0  0  0  0  0  0  0  0
   -8.4312    4.2309   -1.4074 H   0  0  0  0  0  0  0  0  0  0  0  0
  -10.5783    5.3336   -1.4769 H   0  0  0  0  0  0  0  0  0  0  0  0
  -13.3228    6.0930   -5.3045 H   0  0  0  0  0  0  0  0  0  0  0  0
  -11.7310    6.8284   -5.5309 H   0  0  0  0  0  0  0  0  0  0  0  0
  -13.4421    8.5648   -5.1344 H   0  0  0  0  0  0  0  0  0  0  0  0
  -12.1716    8.5722   -3.9105 H   0  0  0  0  0  0  0  0  0  0  0  0
  -14.9853    7.4250   -3.6145 H   0  0  0  0  0  0  0  0  0  0  0  0
  -14.3192    8.8337   -2.7881 H   0  0  0  0  0  0  0  0  0  0  0  0
  -14.3667    6.7702   -1.3420 H   0  0  0  0  0  0  0  0  0  0  0  0
  -12.7482    7.4485   -1.5315 H   0  0  0  0  0  0  0  0  0  0  0  0
  -13.8935    5.0524   -3.0606 H   0  0  0  0  0  0  0  0  0  0  0  0
  -12.6952    4.9885   -1.7877 H   0  0  0  0  0  0  0  0  0  0  0  0
  -10.6180    4.9780   -5.7665 H   0  0  0  0  0  0  0  0  0  0  0  0
   -8.4300    3.9131   -5.6925 H   0  0  0  0  0  0  0  0  0  0  0  0
   -4.4221    2.8836   -2.9845 H   0  0  0  0  0  0  0  0  0  0  0  0
   -0.9815    2.6355   -0.6450 H   0  0  0  0  0  0  0  0  0  0  0  0
    1.4540    2.5152   -0.2989 H   0  0  0  0  0  0  0  0  0  0  0  0
  1  2  1  0  0  0  0
  1 29  2  0  0  0  0
  1 30  1  0  0  0  0
  2  3  2  0  0  0  0
  2 31  1  0  0  0  0
  3  4  1  0  0  0  0
  3 32  1  0  0  0  0
  4  5  1  0  0  0  0
  4 28  2  0  0  0  0
  5  6  1  0  0  0  0
  5 27  2  0  0  0  0
  6  7  2  0  0  0  0
  6 33  1  0  0  0  0
  7  8  1  0  0  0  0
  8  9  1  0  0  0  0
  8 26  2  0  0  0  0
  9 10  2  0  0  0  0
  9 34  1  0  0  0  0
 10 11  1  0  0  0  0
 11 12  1  0  0  0  0
 11 25  2  0  0  0  0
 12 13  1  0  0  0  0
 12 35  1  0  0  0  0
 13 14  1  0  0  0  0
 13 24  2  0  0  0  0
 14 15  2  0  0  0  0
 14 36  1  0  0  0  0
 15 16  1  0  0  0  0
 15 37  1  0  0  0  0
 16 17  1  0  0  0  0
 16 23  2  0  0  0  0
 17 18  1  0  0  0  0
 17 22  1  0  0  0  0
 18 19  1  0  0  0  0
 18 38  1  0  0  0  0
 18 39  1  0  0  0  0
 19 20  1  0  0  0  0
 19 40  1  0  0  0  0
 19 41  1  0  0  0  0
 20 21  1  0  0  0  0
 20 42  1  0  0  0  0
 20 43  1  0  0  0  0
 21 22  1  0  0  0  0
 21 44  1  0  0  0  0
 21 45  1  0  0  0  0
 22 46  1  0  0  0  0
 22 47  1  0  0  0  0
 23 24  1  0  0  0  0
 23 48  1  0  0  0  0
 24 49  1  0  0  0  0
 25 26  1  0  0  0  0
 25 50  1  0  0  0  0
 26 27  1  0  0  0  0
 28 29  1  0  0  0  0
 28 51  1  0  0  0  0
 29 52  1  0  0  0  0
M  END
$$$$
