CHEMBL3934039
 OpenBabel04072215373D

 67 71  0  0  0  0  0  0  0  0999 V2000
    0.3703    3.5439   -1.6351 C   0  0  0  0  0  0  0  0  0  0  0  0
    1.6755    3.7241   -2.1938 O   0  0  0  0  0  0  0  0  0  0  0  0
    2.6855    2.9353   -1.6815 C   0  0  0  0  0  0  0  0  0  0  0  0
    2.5199    2.0568   -0.6132 C   0  0  0  0  0  0  0  0  0  0  0  0
    3.5828    1.2632   -0.2012 C   0  0  0  0  0  0  0  0  0  0  0  0
    3.5468    0.3500    0.8218 O   0  0  0  0  0  0  0  0  0  0  0  0
    2.3445    0.2764    1.5803 C   0  0  0  0  0  0  0  0  0  0  0  0
    4.8098    1.3418   -0.8727 C   0  0  0  0  0  0  0  0  0  0  0  0
    5.0250    2.2029   -1.9623 C   0  0  0  0  0  0  0  0  0  0  0  0
    6.2015    2.1481   -2.7558 N   0  0  0  0  0  0  0  0  0  0  0  0
    6.8809    0.7809   -2.8880 C   0  0  0  0  0  0  0  0  0  0  0  0
    6.0848   -0.3444   -3.6376 C   0  0  0  0  0  0  0  0  0  0  0  0
    6.8082   -1.6476   -3.7062 N   0  0  0  0  0  0  0  0  0  0  0  0
    8.0869   -1.7002   -4.4308 C   0  0  0  0  0  0  0  0  0  0  0  0
    8.0125   -2.0474   -5.9191 C   0  0  0  0  0  0  0  0  0  0  0  0
    7.1215   -3.2444   -6.1568 C   0  0  0  0  0  0  0  0  0  0  0  0
    6.9652   -3.4357   -7.4918 F   0  0  0  0  0  0  0  0  0  0  0  0
    7.7195   -4.3689   -5.6831 F   0  0  0  0  0  0  0  0  0  0  0  0
    5.7696   -3.0690   -5.5035 C   0  0  0  0  0  0  0  0  0  0  0  0
    5.9603   -2.8083   -4.0149 C   0  0  0  0  0  0  0  0  0  0  0  0
    7.2074    3.1693   -2.9799 C   0  0  0  0  0  0  0  0  0  0  0  0
    7.7954    3.1171   -4.2403 C   0  0  0  0  0  0  0  0  0  0  0  0
    9.1295    3.4639   -4.3818 C   0  0  0  0  0  0  0  0  0  0  0  0
    9.8342    4.0542   -3.3673 C   0  0  0  0  0  0  0  0  0  0  0  0
   11.1384    4.1146   -3.5772 N   0  0  0  0  0  0  0  0  0  0  0  0
   11.8549    4.8841   -2.7421 C   0  0  0  0  0  0  0  0  0  0  0  0
   11.2493    5.6729   -1.7883 C   0  0  0  0  0  0  0  0  0  0  0  0
   12.0402    6.8374   -1.3600 C   0  0  0  0  0  0  0  0  0  0  0  0
   11.9760    8.1746   -1.8453 C   0  0  0  0  0  0  0  0  0  0  0  0
   13.0408    8.9104   -1.4983 N   0  0  0  0  0  0  0  0  0  0  0  0
   13.8082    8.0486   -0.8116 N   0  0  0  0  0  0  0  0  0  0  0  0
   14.9873    8.5124   -0.1154 C   0  0  0  0  0  0  0  0  0  0  0  0
   13.3150    6.7704   -0.8248 C   0  0  0  0  0  0  0  0  0  0  0  0
    9.9226    5.4890   -1.4679 N   0  0  0  0  0  0  0  0  0  0  0  0
    9.1702    4.5671   -2.2341 C   0  0  0  0  0  0  0  0  0  0  0  0
    7.8384    4.0150   -2.0188 C   0  0  0  0  0  0  0  0  0  0  0  0
    3.9374    3.0262   -2.3298 C   0  0  0  0  0  0  0  0  0  0  0  0
   -0.3409    4.1593   -2.1953 H   0  0  0  0  0  0  0  0  0  0  0  0
    0.3406    3.8749   -0.5898 H   0  0  0  0  0  0  0  0  0  0  0  0
    0.0348    2.5042   -1.7232 H   0  0  0  0  0  0  0  0  0  0  0  0
    1.5643    1.9821   -0.1075 H   0  0  0  0  0  0  0  0  0  0  0  0
    2.5133   -0.4144    2.4112 H   0  0  0  0  0  0  0  0  0  0  0  0
    1.5236   -0.1220    0.9739 H   0  0  0  0  0  0  0  0  0  0  0  0
    2.0822    1.2500    2.0077 H   0  0  0  0  0  0  0  0  0  0  0  0
    5.5998    0.6801   -0.5266 H   0  0  0  0  0  0  0  0  0  0  0  0
    7.2068    0.4348   -1.9030 H   0  0  0  0  0  0  0  0  0  0  0  0
    7.8044    0.8866   -3.4561 H   0  0  0  0  0  0  0  0  0  0  0  0
    5.7968   -0.0165   -4.6433 H   0  0  0  0  0  0  0  0  0  0  0  0
    5.1548   -0.5112   -3.0813 H   0  0  0  0  0  0  0  0  0  0  0  0
    8.6983   -2.4717   -3.9424 H   0  0  0  0  0  0  0  0  0  0  0  0
    8.6653   -0.7796   -4.3157 H   0  0  0  0  0  0  0  0  0  0  0  0
    9.0204   -2.2765   -6.2872 H   0  0  0  0  0  0  0  0  0  0  0  0
    7.6488   -1.1939   -6.4977 H   0  0  0  0  0  0  0  0  0  0  0  0
    5.1731   -3.9757   -5.6526 H   0  0  0  0  0  0  0  0  0  0  0  0
    5.2260   -2.2461   -5.9820 H   0  0  0  0  0  0  0  0  0  0  0  0
    6.4344   -3.6950   -3.5702 H   0  0  0  0  0  0  0  0  0  0  0  0
    4.9851   -2.7296   -3.5226 H   0  0  0  0  0  0  0  0  0  0  0  0
    7.2972    2.6077   -5.0590 H   0  0  0  0  0  0  0  0  0  0  0  0
    9.6478    3.2080   -5.3007 H   0  0  0  0  0  0  0  0  0  0  0  0
   12.9206    4.9198   -2.9380 H   0  0  0  0  0  0  0  0  0  0  0  0
   11.2283    8.6324   -2.4813 H   0  0  0  0  0  0  0  0  0  0  0  0
   15.1153    9.5883   -0.2680 H   0  0  0  0  0  0  0  0  0  0  0  0
   15.8656    7.9759   -0.4839 H   0  0  0  0  0  0  0  0  0  0  0  0
   14.8382    8.3111    0.9488 H   0  0  0  0  0  0  0  0  0  0  0  0
   13.9109    5.9455   -0.4608 H   0  0  0  0  0  0  0  0  0  0  0  0
    7.3537    4.2000   -1.0611 H   0  0  0  0  0  0  0  0  0  0  0  0
    4.0329    3.6982   -3.1822 H   0  0  0  0  0  0  0  0  0  0  0  0
  1  2  1  0  0  0  0
  1 38  1  0  0  0  0
  1 39  1  0  0  0  0
  1 40  1  0  0  0  0
  2  3  1  0  0  0  0
  3  4  1  0  0  0  0
  3 37  2  0  0  0  0
  4  5  2  0  0  0  0
  4 41  1  0  0  0  0
  5  6  1  0  0  0  0
  5  8  1  0  0  0  0
  6  7  1  0  0  0  0
  7 42  1  0  0  0  0
  7 43  1  0  0  0  0
  7 44  1  0  0  0  0
  8  9  2  0  0  0  0
  8 45  1  0  0  0  0
  9 10  1  0  0  0  0
  9 37  1  0  0  0  0
 10 11  1  0  0  0  0
 10 21  1  0  0  0  0
 11 12  1  0  0  0  0
 11 46  1  0  0  0  0
 11 47  1  0  0  0  0
 12 13  1  0  0  0  0
 12 48  1  0  0  0  0
 12 49  1  0  0  0  0
 13 14  1  0  0  0  0
 13 20  1  0  0  0  0
 14 15  1  0  0  0  0
 14 50  1  0  0  0  0
 14 51  1  0  0  0  0
 15 16  1  0  0  0  0
 15 52  1  0  0  0  0
 15 53  1  0  0  0  0
 16 17  1  0  0  0  0
 16 18  1  0  0  0  0
 16 19  1  0  0  0  0
 19 20  1  0  0  0  0
 19 54  1  0  0  0  0
 19 55  1  0  0  0  0
 20 56  1  0  0  0  0
 20 57  1  0  0  0  0
 21 22  1  0  0  0  0
 21 36  2  0  0  0  0
 22 23  2  0  0  0  0
 22 58  1  0  0  0  0
 23 24  1  0  0  0  0
 23 59  1  0  0  0  0
 24 25  1  0  0  0  0
 24 35  2  0  0  0  0
 25 26  2  0  0  0  0
 26 27  1  0  0  0  0
 26 60  1  0  0  0  0
 27 28  1  0  0  0  0
 27 34  2  0  0  0  0
 28 29  1  0  0  0  0
 28 33  2  0  0  0  0
 29 30  2  0  0  0  0
 29 61  1  0  0  0  0
 30 31  1  0  0  0  0
 31 32  1  0  0  0  0
 31 33  1  0  0  0  0
 32 62  1  0  0  0  0
 32 63  1  0  0  0  0
 32 64  1  0  0  0  0
 33 65  1  0  0  0  0
 34 35  1  0  0  0  0
 35 36  1  0  0  0  0
 36 66  1  0  0  0  0
 37 67  1  0  0  0  0
M  END
$$$$
