CHEMBL218557
 OpenBabel04072215363D

 69 75  0  0  0  0  0  0  0  0999 V2000
    3.4324   -0.9401   -0.6802 C   0  0  0  0  0  0  0  0  0  0  0  0
    3.1441    0.4215   -0.0628 C   0  0  0  0  0  0  0  0  0  0  0  0
    3.7095    0.6046    1.3549 C   0  0  0  0  0  0  0  0  0  0  0  0
    5.1545    0.7419    1.4444 N   0  0  0  0  0  0  0  0  0  0  0  0
    5.8454    1.9668    1.2709 C   0  0  0  0  0  0  0  0  0  0  0  0
    5.3820    3.2844    1.0252 C   0  0  0  0  0  0  0  0  0  0  0  0
    6.3307    4.3176    0.8405 C   0  0  0  0  0  0  0  0  0  0  0  0
    7.6987    4.0735    0.9200 C   0  0  0  0  0  0  0  0  0  0  0  0
    8.7112    5.0370    0.7621 N   0  0  0  0  0  0  0  0  0  0  0  0
    8.6109    6.3389    0.3367 C   0  0  0  0  0  0  0  0  0  0  0  0
    7.5875    6.9528    0.0857 O   0  0  0  0  0  0  0  0  0  0  0  0
    9.9001    6.8342    0.1592 O   0  0  0  0  0  0  0  0  0  0  0  0
   10.0842    7.6363   -0.9812 C   0  0  0  0  0  0  0  0  0  0  0  0
   10.8707    8.7795   -0.8845 C   0  0  0  0  0  0  0  0  0  0  0  0
   11.1140    9.5392   -2.0369 C   0  0  0  0  0  0  0  0  0  0  0  0
   10.6012    9.1431   -3.2782 C   0  0  0  0  0  0  0  0  0  0  0  0
   10.8653    9.9902   -4.3201 O   0  0  0  0  0  0  0  0  0  0  0  0
   10.8223    9.4294   -5.6280 C   0  0  0  0  0  0  0  0  0  0  0  0
    9.8400    7.9780   -3.3629 C   0  0  0  0  0  0  0  0  0  0  0  0
    9.5896    7.2198   -2.2177 C   0  0  0  0  0  0  0  0  0  0  0  0
    8.1369    2.7623    1.1369 C   0  0  0  0  0  0  0  0  0  0  0  0
    7.2136    1.7041    1.2801 C   0  0  0  0  0  0  0  0  0  0  0  0
    7.2467    0.3315    1.3301 C   0  0  0  0  0  0  0  0  0  0  0  0
    8.3508   -0.4137    0.8716 C   0  0  0  0  0  0  0  0  0  0  0  0
    8.0660   -1.7324    0.4770 C   0  0  0  0  0  0  0  0  0  0  0  0
    6.8123   -2.3520    0.6450 C   0  0  0  0  0  0  0  0  0  0  0  0
    6.0173   -1.7255    1.6625 C   0  0  0  0  0  0  0  0  0  0  0  0
    6.0752   -0.3023    1.5980 C   0  0  0  0  0  0  0  0  0  0  0  0
    6.0849   -2.5393    3.0272 C   0  0  0  0  0  0  0  0  0  0  0  0
    7.1376   -3.7305    3.0410 C   0  0  0  0  0  0  0  0  0  0  0  0
    6.9064   -4.5130    1.7926 C   0  0  0  0  0  0  0  0  0  0  0  0
    6.5212   -5.7859    1.6930 N   0  0  0  0  0  0  0  0  0  0  0  0
    6.0246   -5.8366    0.4297 N   0  0  0  0  0  0  0  0  0  0  0  0
    5.3648   -7.0349   -0.0308 C   0  0  0  0  0  0  0  0  0  0  0  0
    6.0118   -4.6189   -0.2080 C   0  0  0  0  0  0  0  0  0  0  0  0
    6.7457   -3.7909    0.6037 C   0  0  0  0  0  0  0  0  0  0  0  0
    9.3048   -2.3199    0.0213 C   0  0  0  0  0  0  0  0  0  0  0  0
    9.6141   -3.4290   -0.3894 O   0  0  0  0  0  0  0  0  0  0  0  0
   10.2496   -1.3115    0.1999 N   0  0  0  0  0  0  0  0  0  0  0  0
    9.7426   -0.0415    0.6664 C   0  0  0  0  0  0  0  0  0  0  0  0
    2.9703   -1.0101   -1.6721 H   0  0  0  0  0  0  0  0  0  0  0  0
    3.0207   -1.7449   -0.0636 H   0  0  0  0  0  0  0  0  0  0  0  0
    4.5022   -1.1017   -0.8091 H   0  0  0  0  0  0  0  0  0  0  0  0
    2.0540    0.5410   -0.0196 H   0  0  0  0  0  0  0  0  0  0  0  0
    3.5171    1.2054   -0.7334 H   0  0  0  0  0  0  0  0  0  0  0  0
    3.3998   -0.2178    2.0147 H   0  0  0  0  0  0  0  0  0  0  0  0
    3.2797    1.5211    1.7781 H   0  0  0  0  0  0  0  0  0  0  0  0
    4.3228    3.5119    0.9458 H   0  0  0  0  0  0  0  0  0  0  0  0
    5.9556    5.3178    0.6329 H   0  0  0  0  0  0  0  0  0  0  0  0
    9.6726    4.7253    0.8390 H   0  0  0  0  0  0  0  0  0  0  0  0
   11.2954    9.0885    0.0669 H   0  0  0  0  0  0  0  0  0  0  0  0
   11.7141   10.4442   -1.9713 H   0  0  0  0  0  0  0  0  0  0  0  0
   10.9382   10.2485   -6.3448 H   0  0  0  0  0  0  0  0  0  0  0  0
    9.8682    8.9461   -5.8563 H   0  0  0  0  0  0  0  0  0  0  0  0
   11.6568    8.7348   -5.7692 H   0  0  0  0  0  0  0  0  0  0  0  0
    9.4036    7.6378   -4.2941 H   0  0  0  0  0  0  0  0  0  0  0  0
    9.0026    6.3110   -2.3056 H   0  0  0  0  0  0  0  0  0  0  0  0
    9.1996    2.5536    1.1737 H   0  0  0  0  0  0  0  0  0  0  0  0
    5.0904   -2.9630    3.2054 H   0  0  0  0  0  0  0  0  0  0  0  0
    6.3322   -1.8594    3.8503 H   0  0  0  0  0  0  0  0  0  0  0  0
    7.0602   -4.3487    3.9385 H   0  0  0  0  0  0  0  0  0  0  0  0
    8.1604   -3.3229    3.0130 H   0  0  0  0  0  0  0  0  0  0  0  0
    5.5862   -7.8588    0.6521 H   0  0  0  0  0  0  0  0  0  0  0  0
    5.7309   -7.2709   -1.0327 H   0  0  0  0  0  0  0  0  0  0  0  0
    4.2882   -6.8440   -0.0509 H   0  0  0  0  0  0  0  0  0  0  0  0
    5.4505   -4.4525   -1.1148 H   0  0  0  0  0  0  0  0  0  0  0  0
   11.2221   -1.5182    0.0364 H   0  0  0  0  0  0  0  0  0  0  0  0
    9.8726    0.7008   -0.1248 H   0  0  0  0  0  0  0  0  0  0  0  0
   10.2477    0.2383    1.5924 H   0  0  0  0  0  0  0  0  0  0  0  0
  1  2  1  0  0  0  0
  1 41  1  0  0  0  0
  1 42  1  0  0  0  0
  1 43  1  0  0  0  0
  2  3  1  0  0  0  0
  2 44  1  0  0  0  0
  2 45  1  0  0  0  0
  3  4  1  0  0  0  0
  3 46  1  0  0  0  0
  3 47  1  0  0  0  0
  4  5  1  0  0  0  0
  4 28  1  0  0  0  0
  5  6  1  0  0  0  0
  5 22  2  0  0  0  0
  6  7  2  0  0  0  0
  6 48  1  0  0  0  0
  7  8  1  0  0  0  0
  7 49  1  0  0  0  0
  8  9  1  0  0  0  0
  8 21  2  0  0  0  0
  9 10  1  0  0  0  0
  9 50  1  0  0  0  0
 10 11  2  0  0  0  0
 10 12  1  0  0  0  0
 12 13  1  0  0  0  0
 13 14  1  0  0  0  0
 13 20  2  0  0  0  0
 14 15  2  0  0  0  0
 14 51  1  0  0  0  0
 15 16  1  0  0  0  0
 15 52  1  0  0  0  0
 16 17  1  0  0  0  0
 16 19  2  0  0  0  0
 17 18  1  0  0  0  0
 18 53  1  0  0  0  0
 18 54  1  0  0  0  0
 18 55  1  0  0  0  0
 19 20  1  0  0  0  0
 19 56  1  0  0  0  0
 20 57  1  0  0  0  0
 21 22  1  0  0  0  0
 21 58  1  0  0  0  0
 22 23  1  0  0  0  0
 23 24  1  0  0  0  0
 23 28  2  0  0  0  0
 24 25  2  0  0  0  0
 24 40  1  0  0  0  0
 25 26  1  0  0  0  0
 25 37  1  0  0  0  0
 26 27  2  0  0  0  0
 26 36  1  0  0  0  0
 27 28  1  0  0  0  0
 27 29  1  0  0  0  0
 29 30  1  0  0  0  0
 29 59  1  0  0  0  0
 29 60  1  0  0  0  0
 30 31  1  0  0  0  0
 30 61  1  0  0  0  0
 30 62  1  0  0  0  0
 31 32  2  0  0  0  0
 31 36  1  0  0  0  0
 32 33  1  0  0  0  0
 33 34  1  0  0  0  0
 33 35  1  0  0  0  0
 34 63  1  0  0  0  0
 34 64  1  0  0  0  0
 34 65  1  0  0  0  0
 35 36  2  0  0  0  0
 35 66  1  0  0  0  0
 37 38  2  0  0  0  0
 37 39  1  0  0  0  0
 39 40  1  0  0  0  0
 39 67  1  0  0  0  0
 40 68  1  0  0  0  0
 40 69  1  0  0  0  0
M  END
$$$$
