CHEMBL3133757
 OpenBabel04072215363D

 72 75  0  0  0  0  0  0  0  0999 V2000
    4.7865   -0.1462    1.3230 C   0  0  0  0  0  0  0  0  0  0  0  0
    4.3364    0.4008   -0.0263 C   0  0  0  0  0  0  0  0  0  0  0  0
    4.6885   -0.3970   -1.2298 N   0  0  0  0  0  0  0  0  0  0  0  0
    4.0977   -1.7626   -1.1662 C   0  0  0  0  0  0  0  0  0  0  0  0
    4.4765   -2.7116   -2.3287 C   0  0  0  0  0  0  0  0  0  0  0  0
    5.8848   -2.8900   -2.4413 O   0  0  0  0  0  0  0  0  0  0  0  0
    4.2080    0.3213   -2.4351 C   0  0  0  0  0  0  0  0  0  0  0  0
    4.8256    1.7114   -2.6579 C   0  0  0  0  0  0  0  0  0  0  0  0
    6.3408    1.6292   -2.7624 C   0  0  0  0  0  0  0  0  0  0  0  0
    6.8785    2.9470   -2.9887 O   0  0  0  0  0  0  0  0  0  0  0  0
    8.2497    2.9869   -3.0630 C   0  0  0  0  0  0  0  0  0  0  0  0
    9.0758    1.8708   -2.9678 C   0  0  0  0  0  0  0  0  0  0  0  0
   10.4491    2.0092   -3.0650 C   0  0  0  0  0  0  0  0  0  0  0  0
   11.0240    3.2688   -3.3010 C   0  0  0  0  0  0  0  0  0  0  0  0
   12.3940    3.4755   -3.5310 C   0  0  0  0  0  0  0  0  0  0  0  0
   13.2729    2.3595   -3.5924 N   0  0  0  0  0  0  0  0  0  0  0  0
   14.5444    2.3725   -4.2158 C   0  0  0  0  0  0  0  0  0  0  0  0
   15.5936    1.6288   -3.6682 C   0  0  0  0  0  0  0  0  0  0  0  0
   16.8792    1.7616   -4.1874 C   0  0  0  0  0  0  0  0  0  0  0  0
   17.1026    2.5622   -5.3092 C   0  0  0  0  0  0  0  0  0  0  0  0
   16.0449    3.1674   -5.9858 C   0  0  0  0  0  0  0  0  0  0  0  0
   16.2231    3.8660   -7.2126 N   0  0  0  0  0  0  0  0  0  0  0  0
   17.3028    3.6687   -8.0692 C   0  0  0  0  0  0  0  0  0  0  0  0
   18.2105    2.8655   -7.8811 O   0  0  0  0  0  0  0  0  0  0  0  0
   17.2714    4.5043   -9.1812 N   0  0  0  0  0  0  0  0  0  0  0  0
   18.3131    4.4326  -10.1443 C   0  0  0  0  0  0  0  0  0  0  0  0
   19.0079    5.5886  -10.4869 C   0  0  0  0  0  0  0  0  0  0  0  0
   20.0257    5.5311  -11.4435 C   0  0  0  0  0  0  0  0  0  0  0  0
   20.3481    4.3271  -12.0837 C   0  0  0  0  0  0  0  0  0  0  0  0
   21.5647    4.4185  -13.3049 Cl  0  0  0  0  0  0  0  0  0  0  0  0
   19.6871    3.1450  -11.7352 C   0  0  0  0  0  0  0  0  0  0  0  0
   20.0134    1.7922  -12.3198 C   0  0  0  0  0  0  0  0  0  0  0  0
   20.9994    1.7618  -13.2560 F   0  0  0  0  0  0  0  0  0  0  0  0
   20.4071    0.9038  -11.3624 F   0  0  0  0  0  0  0  0  0  0  0  0
   18.9317    1.2209  -12.9238 F   0  0  0  0  0  0  0  0  0  0  0  0
   18.6620    3.2194  -10.7582 C   0  0  0  0  0  0  0  0  0  0  0  0
   14.7692    3.0844   -5.4171 C   0  0  0  0  0  0  0  0  0  0  0  0
   12.8977    4.7100   -3.7320 N   0  0  0  0  0  0  0  0  0  0  0  0
   12.0368    5.7228   -3.7237 C   0  0  0  0  0  0  0  0  0  0  0  0
   10.7045    5.6318   -3.5661 N   0  0  0  0  0  0  0  0  0  0  0  0
   10.2096    4.4071   -3.3710 C   0  0  0  0  0  0  0  0  0  0  0  0
    8.8244    4.2482   -3.2490 C   0  0  0  0  0  0  0  0  0  0  0  0
    4.7877    0.6690    2.0582 H   0  0  0  0  0  0  0  0  0  0  0  0
    5.8024   -0.5486    1.2803 H   0  0  0  0  0  0  0  0  0  0  0  0
    4.1050   -0.9173    1.6922 H   0  0  0  0  0  0  0  0  0  0  0  0
    4.8284    1.3757   -0.0995 H   0  0  0  0  0  0  0  0  0  0  0  0
    3.2559    0.5904    0.0080 H   0  0  0  0  0  0  0  0  0  0  0  0
    3.0046   -1.6967   -1.1216 H   0  0  0  0  0  0  0  0  0  0  0  0
    4.4389   -2.2520   -0.2468 H   0  0  0  0  0  0  0  0  0  0  0  0
    4.0977   -2.3601   -3.2924 H   0  0  0  0  0  0  0  0  0  0  0  0
    4.0325   -3.6974   -2.1552 H   0  0  0  0  0  0  0  0  0  0  0  0
    6.2542   -2.0075   -2.6183 H   0  0  0  0  0  0  0  0  0  0  0  0
    3.1159    0.4197   -2.4028 H   0  0  0  0  0  0  0  0  0  0  0  0
    4.4473   -0.2667   -3.3291 H   0  0  0  0  0  0  0  0  0  0  0  0
    4.5417    2.4151   -1.8696 H   0  0  0  0  0  0  0  0  0  0  0  0
    4.4189    2.1396   -3.5811 H   0  0  0  0  0  0  0  0  0  0  0  0
    6.5959    0.9817   -3.6056 H   0  0  0  0  0  0  0  0  0  0  0  0
    6.7474    1.2293   -1.8343 H   0  0  0  0  0  0  0  0  0  0  0  0
    8.6836    0.8684   -2.8335 H   0  0  0  0  0  0  0  0  0  0  0  0
   11.0627    1.1148   -2.9742 H   0  0  0  0  0  0  0  0  0  0  0  0
   13.2864    1.9003   -2.6879 H   0  0  0  0  0  0  0  0  0  0  0  0
   15.4426    0.9821   -2.8086 H   0  0  0  0  0  0  0  0  0  0  0  0
   17.7193    1.2592   -3.7151 H   0  0  0  0  0  0  0  0  0  0  0  0
   18.1309    2.6975   -5.6346 H   0  0  0  0  0  0  0  0  0  0  0  0
   15.4084    4.3262   -7.5951 H   0  0  0  0  0  0  0  0  0  0  0  0
   16.8801    5.4190   -9.0063 H   0  0  0  0  0  0  0  0  0  0  0  0
   18.8172    6.5303   -9.9803 H   0  0  0  0  0  0  0  0  0  0  0  0
   20.5798    6.4365  -11.6859 H   0  0  0  0  0  0  0  0  0  0  0  0
   18.1235    2.3103  -10.4849 H   0  0  0  0  0  0  0  0  0  0  0  0
   13.9235    3.5667   -5.8962 H   0  0  0  0  0  0  0  0  0  0  0  0
   12.4474    6.7161   -3.8573 H   0  0  0  0  0  0  0  0  0  0  0  0
    8.1904    5.1239   -3.3199 H   0  0  0  0  0  0  0  0  0  0  0  0
  1  2  1  0  0  0  0
  1 43  1  0  0  0  0
  1 44  1  0  0  0  0
  1 45  1  0  0  0  0
  2  3  1  0  0  0  0
  2 46  1  0  0  0  0
  2 47  1  0  0  0  0
  3  4  1  0  0  0  0
  3  7  1  0  0  0  0
  4  5  1  0  0  0  0
  4 48  1  0  0  0  0
  4 49  1  0  0  0  0
  5  6  1  0  0  0  0
  5 50  1  0  0  0  0
  5 51  1  0  0  0  0
  6 52  1  0  0  0  0
  7  8  1  0  0  0  0
  7 53  1  0  0  0  0
  7 54  1  0  0  0  0
  8  9  1  0  0  0  0
  8 55  1  0  0  0  0
  8 56  1  0  0  0  0
  9 10  1  0  0  0  0
  9 57  1  0  0  0  0
  9 58  1  0  0  0  0
 10 11  1  0  0  0  0
 11 12  1  0  0  0  0
 11 42  2  0  0  0  0
 12 13  2  0  0  0  0
 12 59  1  0  0  0  0
 13 14  1  0  0  0  0
 13 60  1  0  0  0  0
 14 15  1  0  0  0  0
 14 41  2  0  0  0  0
 15 16  1  0  0  0  0
 15 38  2  0  0  0  0
 16 17  1  0  0  0  0
 16 61  1  0  0  0  0
 17 18  1  0  0  0  0
 17 37  2  0  0  0  0
 18 19  2  0  0  0  0
 18 62  1  0  0  0  0
 19 20  1  0  0  0  0
 19 63  1  0  0  0  0
 20 21  2  0  0  0  0
 20 64  1  0  0  0  0
 21 22  1  0  0  0  0
 21 37  1  0  0  0  0
 22 23  1  0  0  0  0
 22 65  1  0  0  0  0
 23 24  2  0  0  0  0
 23 25  1  0  0  0  0
 25 26  1  0  0  0  0
 25 66  1  0  0  0  0
 26 27  1  0  0  0  0
 26 36  2  0  0  0  0
 27 28  2  0  0  0  0
 27 67  1  0  0  0  0
 28 29  1  0  0  0  0
 28 68  1  0  0  0  0
 29 30  1  0  0  0  0
 29 31  2  0  0  0  0
 31 32  1  0  0  0  0
 31 36  1  0  0  0  0
 32 33  1  0  0  0  0
 32 34  1  0  0  0  0
 32 35  1  0  0  0  0
 36 69  1  0  0  0  0
 37 70  1  0  0  0  0
 38 39  1  0  0  0  0
 39 40  2  0  0  0  0
 39 71  1  0  0  0  0
 40 41  1  0  0  0  0
 41 42  1  0  0  0  0
 42 72  1  0  0  0  0
M  END
$$$$
