CHEMBL3706830
 OpenBabel04072215373D

 47 49  0  0  0  0  0  0  0  0999 V2000
    1.0383    0.5858    0.6821 C   0  0  0  0  0  0  0  0  0  0  0  0
    2.2936    0.3502    0.0749 O   0  0  0  0  0  0  0  0  0  0  0  0
    2.7685    1.4565   -0.6996 C   0  0  0  0  0  0  0  0  0  0  0  0
    4.0848    0.9837   -1.3002 C   0  0  0  0  0  0  0  0  0  0  0  0
    4.7436    1.9583   -2.0815 O   0  0  0  0  0  0  0  0  0  0  0  0
    6.0994    1.8318   -2.2496 C   0  0  0  0  0  0  0  0  0  0  0  0
    6.6737    3.0848   -2.5655 C   0  0  0  0  0  0  0  0  0  0  0  0
    8.0399    3.2964   -2.7293 C   0  0  0  0  0  0  0  0  0  0  0  0
    8.5116    4.5277   -2.9489 N   0  0  0  0  0  0  0  0  0  0  0  0
    9.8389    4.6692   -3.0618 C   0  0  0  0  0  0  0  0  0  0  0  0
   10.7409    3.6863   -3.0026 N   0  0  0  0  0  0  0  0  0  0  0  0
   10.2559    2.4466   -2.8029 C   0  0  0  0  0  0  0  0  0  0  0  0
   11.1628    1.3492   -2.7846 N   0  0  0  0  0  0  0  0  0  0  0  0
   12.5388    1.5132   -2.7027 C   0  0  0  0  0  0  0  0  0  0  0  0
   13.1780    2.3030   -1.8350 C   0  0  0  0  0  0  0  0  0  0  0  0
   14.6377    2.4482   -1.7714 C   0  0  0  0  0  0  0  0  0  0  0  0
   15.1056    3.1328   -0.8700 O   0  0  0  0  0  0  0  0  0  0  0  0
   15.4401    1.7451   -2.8188 C   0  0  0  0  0  0  0  0  0  0  0  0
   17.1607    1.9387   -2.9702 S   0  0  0  0  0  0  0  0  0  0  0  0
   17.6336    3.2198   -1.7933 C   0  0  0  0  0  0  0  0  0  0  0  0
   14.8179    0.9149   -3.6683 C   0  0  0  0  0  0  0  0  0  0  0  0
   13.3611    0.6927   -3.6418 C   0  0  0  0  0  0  0  0  0  0  0  0
   12.8311   -0.1243   -4.3898 O   0  0  0  0  0  0  0  0  0  0  0  0
    8.8823    2.1939   -2.6321 C   0  0  0  0  0  0  0  0  0  0  0  0
    8.3304    0.9348   -2.3137 C   0  0  0  0  0  0  0  0  0  0  0  0
    6.9519    0.7283   -2.1248 C   0  0  0  0  0  0  0  0  0  0  0  0
    6.7348   -0.5495   -1.7008 O   0  0  0  0  0  0  0  0  0  0  0  0
    5.6602   -1.3306   -2.1890 C   0  0  0  0  0  0  0  0  0  0  0  0
    0.7776   -0.3053    1.2609 H   0  0  0  0  0  0  0  0  0  0  0  0
    0.2696    0.7440   -0.0786 H   0  0  0  0  0  0  0  0  0  0  0  0
    1.0954    1.4400    1.3610 H   0  0  0  0  0  0  0  0  0  0  0  0
    2.9121    2.3414   -0.0716 H   0  0  0  0  0  0  0  0  0  0  0  0
    2.0518    1.7019   -1.4929 H   0  0  0  0  0  0  0  0  0  0  0  0
    3.7970    0.1650   -1.9589 H   0  0  0  0  0  0  0  0  0  0  0  0
    4.7227    0.6269   -0.4848 H   0  0  0  0  0  0  0  0  0  0  0  0
    6.0209    3.9563   -2.6380 H   0  0  0  0  0  0  0  0  0  0  0  0
   10.2176    5.6749   -3.2144 H   0  0  0  0  0  0  0  0  0  0  0  0
   10.9199    0.6841   -3.5218 H   0  0  0  0  0  0  0  0  0  0  0  0
   12.6309    2.8942   -1.1061 H   0  0  0  0  0  0  0  0  0  0  0  0
   18.7019    3.4242   -1.9088 H   0  0  0  0  0  0  0  0  0  0  0  0
   17.4806    2.8828   -0.7647 H   0  0  0  0  0  0  0  0  0  0  0  0
   17.0975    4.1547   -1.9794 H   0  0  0  0  0  0  0  0  0  0  0  0
   15.3491    0.3595   -4.4346 H   0  0  0  0  0  0  0  0  0  0  0  0
    8.9977    0.0844   -2.1654 H   0  0  0  0  0  0  0  0  0  0  0  0
    6.0333   -2.3236   -2.4567 H   0  0  0  0  0  0  0  0  0  0  0  0
    5.1628   -0.9104   -3.0669 H   0  0  0  0  0  0  0  0  0  0  0  0
    4.9651   -1.4936   -1.3581 H   0  0  0  0  0  0  0  0  0  0  0  0
  1  2  1  0  0  0  0
  1 29  1  0  0  0  0
  1 30  1  0  0  0  0
  1 31  1  0  0  0  0
  2  3  1  0  0  0  0
  3  4  1  0  0  0  0
  3 32  1  0  0  0  0
  3 33  1  0  0  0  0
  4  5  1  0  0  0  0
  4 34  1  0  0  0  0
  4 35  1  0  0  0  0
  5  6  1  0  0  0  0
  6  7  1  0  0  0  0
  6 26  2  0  0  0  0
  7  8  2  0  0  0  0
  7 36  1  0  0  0  0
  8  9  1  0  0  0  0
  8 24  1  0  0  0  0
  9 10  2  0  0  0  0
 10 11  1  0  0  0  0
 10 37  1  0  0  0  0
 11 12  2  0  0  0  0
 12 13  1  0  0  0  0
 12 24  1  0  0  0  0
 13 14  1  0  0  0  0
 13 38  1  0  0  0  0
 14 15  2  0  0  0  0
 14 22  1  0  0  0  0
 15 16  1  0  0  0  0
 15 39  1  0  0  0  0
 16 17  2  0  0  0  0
 16 18  1  0  0  0  0
 18 19  1  0  0  0  0
 18 21  2  0  0  0  0
 19 20  1  0  0  0  0
 20 40  1  0  0  0  0
 20 41  1  0  0  0  0
 20 42  1  0  0  0  0
 21 22  1  0  0  0  0
 21 43  1  0  0  0  0
 22 23  2  0  0  0  0
 24 25  2  0  0  0  0
 25 26  1  0  0  0  0
 25 44  1  0  0  0  0
 26 27  1  0  0  0  0
 27 28  1  0  0  0  0
 28 45  1  0  0  0  0
 28 46  1  0  0  0  0
 28 47  1  0  0  0  0
M  END
$$$$
