CHEMBL3900665
 OpenBabel04072215373D

 55 58  0  0  0  0  0  0  0  0999 V2000
    2.4883   -0.2248   -0.0341 C   0  0  0  0  0  0  0  0  0  0  0  0
    0.9956   -0.0888    0.0301 C   0  0  0  0  0  0  0  0  0  0  0  0
    0.4179    1.1862    0.0102 C   0  0  0  0  0  0  0  0  0  0  0  0
   -0.9667    1.3691    0.0800 C   0  0  0  0  0  0  0  0  0  0  0  0
   -1.5678    2.6544    0.0747 N   0  0  0  0  0  0  0  0  0  0  0  0
   -0.9029    3.8607   -0.0894 C   0  0  0  0  0  0  0  0  0  0  0  0
    0.2895    3.9882   -0.3436 O   0  0  0  0  0  0  0  0  0  0  0  0
   -1.7391    4.9490    0.1315 N   0  0  0  0  0  0  0  0  0  0  0  0
   -1.2271    6.2685    0.0530 C   0  0  0  0  0  0  0  0  0  0  0  0
   -1.5242    7.1656    1.0763 C   0  0  0  0  0  0  0  0  0  0  0  0
   -0.9830    8.4524    1.0490 C   0  0  0  0  0  0  0  0  0  0  0  0
   -0.1677    8.8599   -0.0126 C   0  0  0  0  0  0  0  0  0  0  0  0
    0.1542    7.9642   -1.0292 C   0  0  0  0  0  0  0  0  0  0  0  0
    0.9558    8.2134   -2.1016 O   0  0  0  0  0  0  0  0  0  0  0  0
    1.9793    9.1939   -2.0125 C   0  0  0  0  0  0  0  0  0  0  0  0
    2.2596    9.5928   -0.7540 F   0  0  0  0  0  0  0  0  0  0  0  0
    3.1145    8.6814   -2.5409 F   0  0  0  0  0  0  0  0  0  0  0  0
    1.6309   10.2755   -2.7439 F   0  0  0  0  0  0  0  0  0  0  0  0
   -0.4022    6.6793   -1.0026 C   0  0  0  0  0  0  0  0  0  0  0  0
   -1.7848    0.2366    0.1937 C   0  0  0  0  0  0  0  0  0  0  0  0
   -1.2226   -1.0514    0.1933 C   0  0  0  0  0  0  0  0  0  0  0  0
   -1.9398   -2.2157    0.3896 O   0  0  0  0  0  0  0  0  0  0  0  0
   -3.1835   -2.3658   -0.2129 C   0  0  0  0  0  0  0  0  0  0  0  0
   -4.0030   -3.3480    0.3036 C   0  0  0  0  0  0  0  0  0  0  0  0
   -5.2400   -3.4732   -0.2922 C   0  0  0  0  0  0  0  0  0  0  0  0
   -6.1404   -4.4371    0.1958 N   0  0  0  0  0  0  0  0  0  0  0  0
   -7.4549   -4.5220   -0.2112 C   0  0  0  0  0  0  0  0  0  0  0  0
   -8.0584   -3.7307   -0.9240 O   0  0  0  0  0  0  0  0  0  0  0  0
   -8.1967   -5.6930    0.3543 C   0  0  0  0  0  0  0  0  0  0  0  0
   -9.5737   -6.0232   -0.1917 C   0  0  0  0  0  0  0  0  0  0  0  0
   -9.4330   -5.4603    1.1943 C   0  0  0  0  0  0  0  0  0  0  0  0
   -5.5970   -2.7107   -1.3342 N   0  0  0  0  0  0  0  0  0  0  0  0
   -4.7178   -1.8136   -1.7791 C   0  0  0  0  0  0  0  0  0  0  0  0
   -3.5072   -1.5973   -1.2673 N   0  0  0  0  0  0  0  0  0  0  0  0
    0.1656   -1.2078    0.1172 C   0  0  0  0  0  0  0  0  0  0  0  0
    2.9779    0.7564   -0.0321 H   0  0  0  0  0  0  0  0  0  0  0  0
    2.7855   -0.7424   -0.9504 H   0  0  0  0  0  0  0  0  0  0  0  0
    2.8555   -0.7738    0.8379 H   0  0  0  0  0  0  0  0  0  0  0  0
    1.0939    2.0293   -0.0556 H   0  0  0  0  0  0  0  0  0  0  0  0
   -2.5772    2.6853    0.0629 H   0  0  0  0  0  0  0  0  0  0  0  0
   -2.4547    4.7880    0.8247 H   0  0  0  0  0  0  0  0  0  0  0  0
   -2.1221    6.8608    1.9299 H   0  0  0  0  0  0  0  0  0  0  0  0
   -1.1813    9.1387    1.8688 H   0  0  0  0  0  0  0  0  0  0  0  0
    0.2010    9.8814   -0.0069 H   0  0  0  0  0  0  0  0  0  0  0  0
   -0.1700    5.9893   -1.8122 H   0  0  0  0  0  0  0  0  0  0  0  0
   -2.8598    0.3513    0.2877 H   0  0  0  0  0  0  0  0  0  0  0  0
   -3.6850   -3.9546    1.1411 H   0  0  0  0  0  0  0  0  0  0  0  0
   -5.8107   -5.0845    0.9038 H   0  0  0  0  0  0  0  0  0  0  0  0
   -7.5816   -6.5473    0.6186 H   0  0  0  0  0  0  0  0  0  0  0  0
   -9.8483   -7.0674   -0.2951 H   0  0  0  0  0  0  0  0  0  0  0  0
   -9.9947   -5.3815   -0.9556 H   0  0  0  0  0  0  0  0  0  0  0  0
   -9.6300   -6.1246    2.0270 H   0  0  0  0  0  0  0  0  0  0  0  0
   -9.7613   -4.4377    1.3521 H   0  0  0  0  0  0  0  0  0  0  0  0
   -5.0210   -1.2088   -2.6237 H   0  0  0  0  0  0  0  0  0  0  0  0
    0.6000   -2.2044    0.1339 H   0  0  0  0  0  0  0  0  0  0  0  0
  1  2  1  0  0  0  0
  1 36  1  0  0  0  0
  1 37  1  0  0  0  0
  1 38  1  0  0  0  0
  2  3  1  0  0  0  0
  2 35  2  0  0  0  0
  3  4  2  0  0  0  0
  3 39  1  0  0  0  0
  4  5  1  0  0  0  0
  4 20  1  0  0  0  0
  5  6  1  0  0  0  0
  5 40  1  0  0  0  0
  6  7  2  0  0  0  0
  6  8  1  0  0  0  0
  8  9  1  0  0  0  0
  8 41  1  0  0  0  0
  9 10  1  0  0  0  0
  9 19  2  0  0  0  0
 10 11  2  0  0  0  0
 10 42  1  0  0  0  0
 11 12  1  0  0  0  0
 11 43  1  0  0  0  0
 12 13  2  0  0  0  0
 12 44  1  0  0  0  0
 13 14  1  0  0  0  0
 13 19  1  0  0  0  0
 14 15  1  0  0  0  0
 15 16  1  0  0  0  0
 15 17  1  0  0  0  0
 15 18  1  0  0  0  0
 19 45  1  0  0  0  0
 20 21  2  0  0  0  0
 20 46  1  0  0  0  0
 21 22  1  0  0  0  0
 21 35  1  0  0  0  0
 22 23  1  0  0  0  0
 23 24  1  0  0  0  0
 23 34  2  0  0  0  0
 24 25  2  0  0  0  0
 24 47  1  0  0  0  0
 25 26  1  0  0  0  0
 25 32  1  0  0  0  0
 26 27  1  0  0  0  0
 26 48  1  0  0  0  0
 27 28  2  0  0  0  0
 27 29  1  0  0  0  0
 29 30  1  0  0  0  0
 29 31  1  0  0  0  0
 29 49  1  0  0  0  0
 30 31  1  0  0  0  0
 30 50  1  0  0  0  0
 30 51  1  0  0  0  0
 31 52  1  0  0  0  0
 31 53  1  0  0  0  0
 32 33  2  0  0  0  0
 33 34  1  0  0  0  0
 33 54  1  0  0  0  0
 35 55  1  0  0  0  0
M  END
$$$$
