CHEMBL3098321
 OpenBabel04072215363D

 44 46  0  0  0  0  0  0  0  0999 V2000
    3.0830   -2.2739   -1.9487 C   0  0  0  0  0  0  0  0  0  0  0  0
    2.9760   -1.0576   -1.1434 N   0  0  0  0  0  0  0  0  0  0  0  0
    3.2850   -1.2083    0.5112 S   0  0  0  0  0  0  0  0  0  0  0  0
    2.6339   -0.0888    1.1429 O   0  0  0  0  0  0  0  0  0  0  0  0
    2.9764   -2.5738    0.8890 O   0  0  0  0  0  0  0  0  0  0  0  0
    5.0448   -0.9735    0.6442 C   0  0  0  0  0  0  0  0  0  0  0  0
    5.5735    0.2967    0.8851 C   0  0  0  0  0  0  0  0  0  0  0  0
    6.9597    0.4618    1.0542 C   0  0  0  0  0  0  0  0  0  0  0  0
    7.8303   -0.6335    1.0475 C   0  0  0  0  0  0  0  0  0  0  0  0
    9.2376   -0.5518    1.1551 N   0  0  0  0  0  0  0  0  0  0  0  0
   10.1354    0.5338    1.3389 C   0  0  0  0  0  0  0  0  0  0  0  0
    9.6659    1.7921    1.4178 N   0  0  0  0  0  0  0  0  0  0  0  0
   10.5705    2.7673    1.4967 C   0  0  0  0  0  0  0  0  0  0  0  0
   10.0005    4.3757    1.4287 Cl  0  0  0  0  0  0  0  0  0  0  0  0
   11.8946    2.6392    1.5080 N   0  0  0  0  0  0  0  0  0  0  0  0
   12.3460    1.4072    1.3708 C   0  0  0  0  0  0  0  0  0  0  0  0
   13.7155    1.2896    1.2427 C   0  0  0  0  0  0  0  0  0  0  0  0
   14.3511    0.0760    0.9711 C   0  0  0  0  0  0  0  0  0  0  0  0
   15.6923    0.0076    0.7032 O   0  0  0  0  0  0  0  0  0  0  0  0
   16.4192    1.2343    0.6772 C   0  0  0  0  0  0  0  0  0  0  0  0
   13.5749   -1.0906    0.9477 C   0  0  0  0  0  0  0  0  0  0  0  0
   13.9841   -2.3825    0.7436 O   0  0  0  0  0  0  0  0  0  0  0  0
   15.3656   -2.6200    0.5044 C   0  0  0  0  0  0  0  0  0  0  0  0
   12.1823   -0.9855    1.1255 C   0  0  0  0  0  0  0  0  0  0  0  0
   11.5355    0.2715    1.2904 C   0  0  0  0  0  0  0  0  0  0  0  0
    7.2684   -1.9038    0.8084 C   0  0  0  0  0  0  0  0  0  0  0  0
    5.8878   -2.0821    0.6185 C   0  0  0  0  0  0  0  0  0  0  0  0
    2.8945   -2.0326   -2.9987 H   0  0  0  0  0  0  0  0  0  0  0  0
    2.3229   -2.9957   -1.6364 H   0  0  0  0  0  0  0  0  0  0  0  0
    4.0789   -2.7146   -1.8688 H   0  0  0  0  0  0  0  0  0  0  0  0
    2.1289   -0.5014   -1.2890 H   0  0  0  0  0  0  0  0  0  0  0  0
    4.9235    1.1652    0.9537 H   0  0  0  0  0  0  0  0  0  0  0  0
    7.3317    1.4690    1.2180 H   0  0  0  0  0  0  0  0  0  0  0  0
    9.6147   -1.4110    1.5364 H   0  0  0  0  0  0  0  0  0  0  0  0
   14.2782    2.2164    1.3110 H   0  0  0  0  0  0  0  0  0  0  0  0
   17.4459    1.0196    0.3705 H   0  0  0  0  0  0  0  0  0  0  0  0
   16.4515    1.6741    1.6794 H   0  0  0  0  0  0  0  0  0  0  0  0
   16.0005    1.9389   -0.0519 H   0  0  0  0  0  0  0  0  0  0  0  0
   15.4993   -3.6922    0.3327 H   0  0  0  0  0  0  0  0  0  0  0  0
   15.9680   -2.3525    1.3789 H   0  0  0  0  0  0  0  0  0  0  0  0
   15.7042   -2.1093   -0.4029 H   0  0  0  0  0  0  0  0  0  0  0  0
   11.6032   -1.9064    1.0950 H   0  0  0  0  0  0  0  0  0  0  0  0
    7.9069   -2.7842    0.7660 H   0  0  0  0  0  0  0  0  0  0  0  0
    5.4946   -3.0768    0.4593 H   0  0  0  0  0  0  0  0  0  0  0  0
  1  2  1  0  0  0  0
  1 28  1  0  0  0  0
  1 29  1  0  0  0  0
  1 30  1  0  0  0  0
  2  3  1  0  0  0  0
  2 31  1  0  0  0  0
  3  4  2  0  0  0  0
  3  5  2  0  0  0  0
  3  6  1  0  0  0  0
  6  7  1  0  0  0  0
  6 27  2  0  0  0  0
  7  8  2  0  0  0  0
  7 32  1  0  0  0  0
  8  9  1  0  0  0  0
  8 33  1  0  0  0  0
  9 10  1  0  0  0  0
  9 26  2  0  0  0  0
 10 11  1  0  0  0  0
 10 34  1  0  0  0  0
 11 12  1  0  0  0  0
 11 25  2  0  0  0  0
 12 13  2  0  0  0  0
 13 14  1  0  0  0  0
 13 15  1  0  0  0  0
 15 16  2  0  0  0  0
 16 17  1  0  0  0  0
 16 25  1  0  0  0  0
 17 18  2  0  0  0  0
 17 35  1  0  0  0  0
 18 19  1  0  0  0  0
 18 21  1  0  0  0  0
 19 20  1  0  0  0  0
 20 36  1  0  0  0  0
 20 37  1  0  0  0  0
 20 38  1  0  0  0  0
 21 22  1  0  0  0  0
 21 24  2  0  0  0  0
 22 23  1  0  0  0  0
 23 39  1  0  0  0  0
 23 40  1  0  0  0  0
 23 41  1  0  0  0  0
 24 25  1  0  0  0  0
 24 42  1  0  0  0  0
 26 27  1  0  0  0  0
 26 43  1  0  0  0  0
 27 44  1  0  0  0  0
M  END
$$$$
