CHEMBL3690384
 OpenBabel04072215373D

 46 48  0  0  0  0  0  0  0  0999 V2000
    2.4605   -0.8232    1.1682 O   0  0  0  0  0  0  0  0  0  0  0  0
    2.1614   -0.5582    0.0116 C   0  0  0  0  0  0  0  0  0  0  0  0
    0.8523   -0.3065   -0.3392 N   0  0  0  0  0  0  0  0  0  0  0  0
   -0.1965   -0.5255    0.6651 C   0  0  0  0  0  0  0  0  0  0  0  0
   -0.6954   -1.9736    0.7775 C   0  0  0  0  0  0  0  0  0  0  0  0
   -0.0823   -2.7903   -0.1111 F   0  0  0  0  0  0  0  0  0  0  0  0
   -0.5179   -2.4865    2.0117 F   0  0  0  0  0  0  0  0  0  0  0  0
   -2.0227   -2.0264    0.5023 F   0  0  0  0  0  0  0  0  0  0  0  0
    3.0094   -0.4498   -1.0688 N   0  0  0  0  0  0  0  0  0  0  0  0
    4.4126   -0.6189   -1.0596 C   0  0  0  0  0  0  0  0  0  0  0  0
    5.1301   -0.9209    0.0999 C   0  0  0  0  0  0  0  0  0  0  0  0
    6.5156   -0.9931    0.0802 C   0  0  0  0  0  0  0  0  0  0  0  0
    7.1959   -0.7953   -1.1156 C   0  0  0  0  0  0  0  0  0  0  0  0
    6.5070   -0.6308   -2.3165 C   0  0  0  0  0  0  0  0  0  0  0  0
    7.2263   -0.6609   -3.5996 C   0  0  0  0  0  0  0  0  0  0  0  0
    6.9832    0.0054   -4.7895 C   0  0  0  0  0  0  0  0  0  0  0  0
    7.9007   -0.3128   -5.7596 N   0  0  0  0  0  0  0  0  0  0  0  0
    8.7093   -1.1806   -5.1925 C   0  0  0  0  0  0  0  0  0  0  0  0
    9.8533   -1.8579   -5.7027 C   0  0  0  0  0  0  0  0  0  0  0  0
   10.5243   -2.7195   -4.9121 C   0  0  0  0  0  0  0  0  0  0  0  0
   11.7362   -3.4468   -5.4714 C   0  0  0  0  0  0  0  0  0  0  0  0
   12.7757   -4.0706   -5.9512 C   0  0  0  0  0  0  0  0  0  0  0  0
   13.9395   -4.7880   -6.4943 C   0  0  0  0  0  0  0  0  0  0  0  0
   14.0606   -6.1860   -5.8926 C   0  0  0  0  0  0  0  0  0  0  0  0
   12.9312   -6.9942   -6.2106 O   0  0  0  0  0  0  0  0  0  0  0  0
   10.1129   -3.0091   -3.5596 C   0  0  0  0  0  0  0  0  0  0  0  0
    9.0152   -2.3999   -3.0903 C   0  0  0  0  0  0  0  0  0  0  0  0
    8.3320   -1.4647   -3.8794 N   0  0  0  0  0  0  0  0  0  0  0  0
    5.1077   -0.4814   -2.2726 C   0  0  0  0  0  0  0  0  0  0  0  0
    0.6038   -0.5180   -1.2954 H   0  0  0  0  0  0  0  0  0  0  0  0
   -1.0265    0.1304    0.3882 H   0  0  0  0  0  0  0  0  0  0  0  0
    0.1669   -0.1909    1.6440 H   0  0  0  0  0  0  0  0  0  0  0  0
    2.5962   -0.1531   -1.9394 H   0  0  0  0  0  0  0  0  0  0  0  0
    4.6432   -1.0868    1.0534 H   0  0  0  0  0  0  0  0  0  0  0  0
    7.0636   -1.2091    0.9905 H   0  0  0  0  0  0  0  0  0  0  0  0
    8.2826   -0.8048   -1.0807 H   0  0  0  0  0  0  0  0  0  0  0  0
    6.1950    0.7147   -4.9995 H   0  0  0  0  0  0  0  0  0  0  0  0
   10.1529   -1.6622   -6.7256 H   0  0  0  0  0  0  0  0  0  0  0  0
   14.8521   -4.2213   -6.2785 H   0  0  0  0  0  0  0  0  0  0  0  0
   13.8399   -4.8588   -7.5826 H   0  0  0  0  0  0  0  0  0  0  0  0
   14.1652   -6.1497   -4.8028 H   0  0  0  0  0  0  0  0  0  0  0  0
   14.9451   -6.6868   -6.3005 H   0  0  0  0  0  0  0  0  0  0  0  0
   12.1506   -6.5654   -5.8189 H   0  0  0  0  0  0  0  0  0  0  0  0
   10.6806   -3.7125   -2.9609 H   0  0  0  0  0  0  0  0  0  0  0  0
    8.6517   -2.6218   -2.0983 H   0  0  0  0  0  0  0  0  0  0  0  0
    4.5614   -0.2867   -3.1914 H   0  0  0  0  0  0  0  0  0  0  0  0
  1  2  2  0  0  0  0
  2  3  1  0  0  0  0
  2  9  1  0  0  0  0
  3  4  1  0  0  0  0
  3 30  1  0  0  0  0
  4  5  1  0  0  0  0
  4 31  1  0  0  0  0
  4 32  1  0  0  0  0
  5  6  1  0  0  0  0
  5  7  1  0  0  0  0
  5  8  1  0  0  0  0
  9 10  1  0  0  0  0
  9 33  1  0  0  0  0
 10 11  1  0  0  0  0
 10 29  2  0  0  0  0
 11 12  2  0  0  0  0
 11 34  1  0  0  0  0
 12 13  1  0  0  0  0
 12 35  1  0  0  0  0
 13 14  2  0  0  0  0
 13 36  1  0  0  0  0
 14 15  1  0  0  0  0
 14 29  1  0  0  0  0
 15 16  2  0  0  0  0
 15 28  1  0  0  0  0
 16 17  1  0  0  0  0
 16 37  1  0  0  0  0
 17 18  2  0  0  0  0
 18 19  1  0  0  0  0
 18 28  1  0  0  0  0
 19 20  2  0  0  0  0
 19 38  1  0  0  0  0
 20 21  1  0  0  0  0
 20 26  1  0  0  0  0
 21 22  3  0  0  0  0
 22 23  1  0  0  0  0
 23 24  1  0  0  0  0
 23 39  1  0  0  0  0
 23 40  1  0  0  0  0
 24 25  1  0  0  0  0
 24 41  1  0  0  0  0
 24 42  1  0  0  0  0
 25 43  1  0  0  0  0
 26 27  2  0  0  0  0
 26 44  1  0  0  0  0
 27 28  1  0  0  0  0
 27 45  1  0  0  0  0
 29 46  1  0  0  0  0
M  END
$$$$
