CHEMBL4062877
 OpenBabel04072215383D

 57 61  0  0  1  0  0  0  0  0999 V2000
    2.6018   -3.3172   -1.1353 C   0  0  0  0  0  0  0  0  0  0  0  0
    1.5252   -2.5300   -0.4883 C   0  0  0  0  0  0  0  0  0  0  0  0
    0.3368   -3.0841   -0.2126 N   0  0  0  0  0  0  0  0  0  0  0  0
   -0.3738   -2.0707    0.3092 N   0  0  0  0  0  0  0  0  0  0  0  0
    0.2837   -0.8705    0.3284 C   0  0  0  0  0  0  0  0  0  0  0  0
   -0.1189    0.4076    0.7022 C   0  0  0  0  0  0  0  0  0  0  0  0
    0.8247    1.4389    0.5357 C   0  0  0  0  0  0  0  0  0  0  0  0
    2.1383    1.2033    0.0840 C   0  0  0  0  0  0  0  0  0  0  0  0
    3.1160    2.3146   -0.0770 C   0  0  0  0  0  0  0  0  0  0  0  0
    3.1846    3.2730    0.9610 C   0  0  0  0  0  0  0  0  0  0  0  0
    4.1771    4.2460    1.0486 C   0  0  0  0  0  0  0  0  0  0  0  0
    4.2309    5.1936    2.0685 N   0  0  0  0  0  0  0  0  0  0  0  0
    3.6073    4.9695    3.3841 C   0  0  1  0  0  0  0  0  0  0  0  0
    4.5547    4.2049    4.3435 C   0  0  0  0  0  0  0  0  0  0  0  0
    5.7911    4.8732    4.5876 O   0  0  0  0  0  0  0  0  0  0  0  0
    3.0907    6.2768    3.9687 C   0  0  0  0  0  0  0  0  0  0  0  0
    1.7150    6.4163    4.2356 C   0  0  0  0  0  0  0  0  0  0  0  0
    1.2139    7.5671    4.8478 C   0  0  0  0  0  0  0  0  0  0  0  0
    2.0774    8.6012    5.1939 C   0  0  0  0  0  0  0  0  0  0  0  0
    3.4377    8.4916    4.9145 C   0  0  0  0  0  0  0  0  0  0  0  0
    3.9411    7.3404    4.3020 C   0  0  0  0  0  0  0  0  0  0  0  0
    5.0603    4.2555   -0.0243 C   0  0  0  0  0  0  0  0  0  0  0  0
    5.0178    3.4115   -1.0915 N   0  0  0  0  0  0  0  0  0  0  0  0
    4.0305    2.4676   -1.1430 C   0  0  0  0  0  0  0  0  0  0  0  0
    4.0578    1.6472   -2.3932 C   0  0  0  0  0  0  0  0  0  0  0  0
    5.2936    1.2797   -2.9660 C   0  0  0  0  0  0  0  0  0  0  0  0
    5.3548    0.4567   -4.0912 C   0  0  0  0  0  0  0  0  0  0  0  0
    6.5453    0.1527   -4.6254 F   0  0  0  0  0  0  0  0  0  0  0  0
    4.2040   -0.0615   -4.6674 C   0  0  0  0  0  0  0  0  0  0  0  0
    2.9675    0.3004   -4.1483 C   0  0  0  0  0  0  0  0  0  0  0  0
    2.9035    1.1830   -3.0623 C   0  0  0  0  0  0  0  0  0  0  0  0
    1.6624    1.6182   -2.6798 O   0  0  0  0  0  0  0  0  0  0  0  0
    2.5100   -0.1256   -0.2082 C   0  0  0  0  0  0  0  0  0  0  0  0
    1.5614   -1.1566   -0.1398 C   0  0  0  0  0  0  0  0  0  0  0  0
    2.3329   -4.3745   -1.2279 H   0  0  0  0  0  0  0  0  0  0  0  0
    3.5277   -3.2487   -0.5558 H   0  0  0  0  0  0  0  0  0  0  0  0
    2.7984   -2.9300   -2.1414 H   0  0  0  0  0  0  0  0  0  0  0  0
   -1.3264   -2.2578    0.6119 H   0  0  0  0  0  0  0  0  0  0  0  0
   -1.1189    0.6194    1.0590 H   0  0  0  0  0  0  0  0  0  0  0  0
    0.4991    2.4521    0.7619 H   0  0  0  0  0  0  0  0  0  0  0  0
    2.4166    3.2263    1.7230 H   0  0  0  0  0  0  0  0  0  0  0  0
    5.0720    5.7596    2.1043 H   0  0  0  0  0  0  0  0  0  0  0  0
    2.7238    4.3342    3.2850 H   0  0  0  0  0  0  0  0  0  0  0  0
    4.7944    3.2179    3.9305 H   0  0  0  0  0  0  0  0  0  0  0  0
    4.0647    4.0475    5.3110 H   0  0  0  0  0  0  0  0  0  0  0  0
    6.3230    4.7674    3.7826 H   0  0  0  0  0  0  0  0  0  0  0  0
    1.0193    5.6195    3.9820 H   0  0  0  0  0  0  0  0  0  0  0  0
    0.1515    7.6495    5.0624 H   0  0  0  0  0  0  0  0  0  0  0  0
    1.6918    9.4915    5.6833 H   0  0  0  0  0  0  0  0  0  0  0  0
    4.1137    9.2980    5.1865 H   0  0  0  0  0  0  0  0  0  0  0  0
    5.0089    7.2748    4.1124 H   0  0  0  0  0  0  0  0  0  0  0  0
    5.8752    4.9736   -0.0681 H   0  0  0  0  0  0  0  0  0  0  0  0
    6.2280    1.6379   -2.5400 H   0  0  0  0  0  0  0  0  0  0  0  0
    4.2762   -0.7164   -5.5296 H   0  0  0  0  0  0  0  0  0  0  0  0
    2.0621   -0.0821   -4.6109 H   0  0  0  0  0  0  0  0  0  0  0  0
    1.0140    0.9202   -2.8742 H   0  0  0  0  0  0  0  0  0  0  0  0
    3.5169   -0.3611   -0.5425 H   0  0  0  0  0  0  0  0  0  0  0  0
  1  2  1  0  0  0  0
  1 35  1  0  0  0  0
  1 36  1  0  0  0  0
  1 37  1  0  0  0  0
  2  3  2  0  0  0  0
  2 34  1  0  0  0  0
  3  4  1  0  0  0  0
  4  5  1  0  0  0  0
  4 38  1  0  0  0  0
  5  6  1  0  0  0  0
  5 34  2  0  0  0  0
  6  7  2  0  0  0  0
  6 39  1  0  0  0  0
  7  8  1  0  0  0  0
  7 40  1  0  0  0  0
  8  9  1  0  0  0  0
  8 33  2  0  0  0  0
  9 10  1  0  0  0  0
  9 24  2  0  0  0  0
 10 11  2  0  0  0  0
 10 41  1  0  0  0  0
 11 12  1  0  0  0  0
 11 22  1  0  0  0  0
 12 13  1  0  0  0  0
 12 42  1  0  0  0  0
 13 14  1  0  0  0  0
 13 16  1  0  0  0  0
 13 43  1  6  0  0  0
 14 15  1  0  0  0  0
 14 44  1  0  0  0  0
 14 45  1  0  0  0  0
 15 46  1  0  0  0  0
 16 17  1  0  0  0  0
 16 21  2  0  0  0  0
 17 18  2  0  0  0  0
 17 47  1  0  0  0  0
 18 19  1  0  0  0  0
 18 48  1  0  0  0  0
 19 20  2  0  0  0  0
 19 49  1  0  0  0  0
 20 21  1  0  0  0  0
 20 50  1  0  0  0  0
 21 51  1  0  0  0  0
 22 23  2  0  0  0  0
 22 52  1  0  0  0  0
 23 24  1  0  0  0  0
 24 25  1  0  0  0  0
 25 26  1  0  0  0  0
 25 31  2  0  0  0  0
 26 27  2  0  0  0  0
 26 53  1  0  0  0  0
 27 28  1  0  0  0  0
 27 29  1  0  0  0  0
 29 30  2  0  0  0  0
 29 54  1  0  0  0  0
 30 31  1  0  0  0  0
 30 55  1  0  0  0  0
 31 32  1  0  0  0  0
 32 56  1  0  0  0  0
 33 34  1  0  0  0  0
 33 57  1  0  0  0  0
M  END
$$$$
