CHEMBL2004290
 OpenBabel04072215363D

 66 70  0  0  0  0  0  0  0  0999 V2000
    1.7676   -0.6414   -1.7219 C   0  0  0  0  0  0  0  0  0  0  0  0
    2.8835   -0.2238   -0.9305 O   0  0  0  0  0  0  0  0  0  0  0  0
    3.4511   -1.1854   -0.1405 C   0  0  0  0  0  0  0  0  0  0  0  0
    3.0367   -2.5045   -0.0582 C   0  0  0  0  0  0  0  0  0  0  0  0
    3.7073   -3.4035    0.7725 C   0  0  0  0  0  0  0  0  0  0  0  0
    4.8003   -3.0096    1.5505 C   0  0  0  0  0  0  0  0  0  0  0  0
    5.4916   -3.8923    2.4113 N   0  0  0  0  0  0  0  0  0  0  0  0
    5.2364   -5.2461    2.5458 C   0  0  0  0  0  0  0  0  0  0  0  0
    4.4088   -5.8766    1.8889 O   0  0  0  0  0  0  0  0  0  0  0  0
    6.0030   -5.8382    3.5453 N   0  0  0  0  0  0  0  0  0  0  0  0
    5.8433   -7.2209    3.7889 C   0  0  0  0  0  0  0  0  0  0  0  0
    5.8585   -8.1372    2.7329 C   0  0  0  0  0  0  0  0  0  0  0  0
    5.5131   -9.4710    2.9555 C   0  0  0  0  0  0  0  0  0  0  0  0
    5.1880   -9.9286    4.2407 C   0  0  0  0  0  0  0  0  0  0  0  0
    4.6925  -11.3036    4.4314 C   0  0  0  0  0  0  0  0  0  0  0  0
    5.2262  -12.3104    3.6495 C   0  0  0  0  0  0  0  0  0  0  0  0
    4.4792  -13.8056    3.8715 S   0  0  0  0  0  0  0  0  0  0  0  0
    3.4425  -13.2081    5.1168 C   0  0  0  0  0  0  0  0  0  0  0  0
    2.4843  -13.9392    5.8556 C   0  0  0  0  0  0  0  0  0  0  0  0
    2.2370  -15.3547    5.6635 C   0  0  0  0  0  0  0  0  0  0  0  0
    3.0932  -16.4479    5.3984 C   0  0  0  0  0  0  0  0  0  0  0  0
    2.4442  -17.6168    5.3490 N   0  0  0  0  0  0  0  0  0  0  0  0
    1.1642  -17.2771    5.5952 N   0  0  0  0  0  0  0  0  0  0  0  0
    0.1429  -18.2983    5.7043 C   0  0  0  0  0  0  0  0  0  0  0  0
   -0.5771  -18.6176    4.3792 C   0  0  0  0  0  0  0  0  0  0  0  0
    0.3667  -19.1946    3.3202 C   0  0  0  0  0  0  0  0  0  0  0  0
   -1.7180  -19.6016    4.6622 C   0  0  0  0  0  0  0  0  0  0  0  0
   -1.2032  -17.4393    3.8494 O   0  0  0  0  0  0  0  0  0  0  0  0
    0.9912  -15.9361    5.7763 C   0  0  0  0  0  0  0  0  0  0  0  0
    1.7663  -13.2107    6.7833 C   0  0  0  0  0  0  0  0  0  0  0  0
    1.9020  -11.8949    7.0000 N   0  0  0  0  0  0  0  0  0  0  0  0
    2.7934  -11.1857    6.2835 C   0  0  0  0  0  0  0  0  0  0  0  0
    2.7642   -9.8312    6.5802 N   0  0  0  0  0  0  0  0  0  0  0  0
    3.6333  -11.8213    5.3192 C   0  0  0  0  0  0  0  0  0  0  0  0
    5.3143   -9.0270    5.3062 C   0  0  0  0  0  0  0  0  0  0  0  0
    5.6060   -7.6731    5.0808 C   0  0  0  0  0  0  0  0  0  0  0  0
    5.2128   -1.6816    1.4740 C   0  0  0  0  0  0  0  0  0  0  0  0
    4.5407   -0.7725    0.6317 C   0  0  0  0  0  0  0  0  0  0  0  0
    1.4801    0.1952   -2.3630 H   0  0  0  0  0  0  0  0  0  0  0  0
    0.9112   -0.8870   -1.0854 H   0  0  0  0  0  0  0  0  0  0  0  0
    2.0259   -1.4812   -2.3767 H   0  0  0  0  0  0  0  0  0  0  0  0
    2.1947   -2.8883   -0.6286 H   0  0  0  0  0  0  0  0  0  0  0  0
    3.3271   -4.4209    0.7739 H   0  0  0  0  0  0  0  0  0  0  0  0
    6.2920   -3.5277    2.9076 H   0  0  0  0  0  0  0  0  0  0  0  0
    6.1490   -5.2528    4.3528 H   0  0  0  0  0  0  0  0  0  0  0  0
    6.0821   -7.8117    1.7214 H   0  0  0  0  0  0  0  0  0  0  0  0
    5.4716  -10.1280    2.0893 H   0  0  0  0  0  0  0  0  0  0  0  0
    6.0178  -12.2387    2.9161 H   0  0  0  0  0  0  0  0  0  0  0  0
    4.1661  -16.4527    5.2551 H   0  0  0  0  0  0  0  0  0  0  0  0
   -0.5772  -17.9257    6.4447 H   0  0  0  0  0  0  0  0  0  0  0  0
    0.6153  -19.1932    6.1253 H   0  0  0  0  0  0  0  0  0  0  0  0
    0.9183  -20.0614    3.6994 H   0  0  0  0  0  0  0  0  0  0  0  0
    1.0866  -18.4444    2.9762 H   0  0  0  0  0  0  0  0  0  0  0  0
   -0.1913  -19.5038    2.4288 H   0  0  0  0  0  0  0  0  0  0  0  0
   -1.3628  -20.5090    5.1631 H   0  0  0  0  0  0  0  0  0  0  0  0
   -2.2252  -19.8937    3.7349 H   0  0  0  0  0  0  0  0  0  0  0  0
   -2.4845  -19.1336    5.2928 H   0  0  0  0  0  0  0  0  0  0  0  0
   -0.5096  -16.8847    3.4467 H   0  0  0  0  0  0  0  0  0  0  0  0
    0.0077  -15.5250    5.9720 H   0  0  0  0  0  0  0  0  0  0  0  0
    1.0190  -13.6841    7.4170 H   0  0  0  0  0  0  0  0  0  0  0  0
    1.9485   -9.6457    7.1526 H   0  0  0  0  0  0  0  0  0  0  0  0
    2.8359   -9.2464    5.7545 H   0  0  0  0  0  0  0  0  0  0  0  0
    5.1308   -9.3478    6.3276 H   0  0  0  0  0  0  0  0  0  0  0  0
    5.5535   -6.9800    5.9171 H   0  0  0  0  0  0  0  0  0  0  0  0
    6.0573   -1.3148    2.0558 H   0  0  0  0  0  0  0  0  0  0  0  0
    4.8722    0.2613    0.5771 H   0  0  0  0  0  0  0  0  0  0  0  0
  1  2  1  0  0  0  0
  1 39  1  0  0  0  0
  1 40  1  0  0  0  0
  1 41  1  0  0  0  0
  2  3  1  0  0  0  0
  3  4  1  0  0  0  0
  3 38  2  0  0  0  0
  4  5  2  0  0  0  0
  4 42  1  0  0  0  0
  5  6  1  0  0  0  0
  5 43  1  0  0  0  0
  6  7  1  0  0  0  0
  6 37  2  0  0  0  0
  7  8  1  0  0  0  0
  7 44  1  0  0  0  0
  8  9  2  0  0  0  0
  8 10  1  0  0  0  0
 10 11  1  0  0  0  0
 10 45  1  0  0  0  0
 11 12  1  0  0  0  0
 11 36  2  0  0  0  0
 12 13  2  0  0  0  0
 12 46  1  0  0  0  0
 13 14  1  0  0  0  0
 13 47  1  0  0  0  0
 14 15  1  0  0  0  0
 14 35  2  0  0  0  0
 15 16  2  0  0  0  0
 15 34  1  0  0  0  0
 16 17  1  0  0  0  0
 16 48  1  0  0  0  0
 17 18  1  0  0  0  0
 18 19  1  0  0  0  0
 18 34  2  0  0  0  0
 19 20  1  0  0  0  0
 19 30  2  0  0  0  0
 20 21  1  0  0  0  0
 20 29  2  0  0  0  0
 21 22  2  0  0  0  0
 21 49  1  0  0  0  0
 22 23  1  0  0  0  0
 23 24  1  0  0  0  0
 23 29  1  0  0  0  0
 24 25  1  0  0  0  0
 24 50  1  0  0  0  0
 24 51  1  0  0  0  0
 25 26  1  0  0  0  0
 25 27  1  0  0  0  0
 25 28  1  0  0  0  0
 26 52  1  0  0  0  0
 26 53  1  0  0  0  0
 26 54  1  0  0  0  0
 27 55  1  0  0  0  0
 27 56  1  0  0  0  0
 27 57  1  0  0  0  0
 28 58  1  0  0  0  0
 29 59  1  0  0  0  0
 30 31  1  0  0  0  0
 30 60  1  0  0  0  0
 31 32  2  0  0  0  0
 32 33  1  0  0  0  0
 32 34  1  0  0  0  0
 33 61  1  0  0  0  0
 33 62  1  0  0  0  0
 35 36  1  0  0  0  0
 35 63  1  0  0  0  0
 36 64  1  0  0  0  0
 37 38  1  0  0  0  0
 37 65  1  0  0  0  0
 38 66  1  0  0  0  0
M  END
$$$$
