CHEMBL3671581
 OpenBabel04072215373D

 50 52  0  0  0  0  0  0  0  0999 V2000
    3.9498    4.0760   -0.7264 C   0  0  0  0  0  0  0  0  0  0  0  0
    3.8311    3.2248    0.2988 C   0  0  0  0  0  0  0  0  0  0  0  0
    3.9096    1.7645    0.0352 C   0  0  0  0  0  0  0  0  0  0  0  0
    3.4901    1.2635   -1.0037 O   0  0  0  0  0  0  0  0  0  0  0  0
    4.5145    0.9835    0.9896 N   0  0  0  0  0  0  0  0  0  0  0  0
    5.3001    1.4926    2.0344 C   0  0  0  0  0  0  0  0  0  0  0  0
    6.5113    2.1020    1.7008 C   0  0  0  0  0  0  0  0  0  0  0  0
    7.2251    2.8462    2.6612 C   0  0  0  0  0  0  0  0  0  0  0  0
    8.3654    3.6199    2.3873 C   0  0  0  0  0  0  0  0  0  0  0  0
    8.8207    3.7622    1.0483 N   0  0  0  0  0  0  0  0  0  0  0  0
    9.6837    4.8054    0.6346 C   0  0  0  0  0  0  0  0  0  0  0  0
    9.4618    6.1267    1.0510 C   0  0  0  0  0  0  0  0  0  0  0  0
   10.3909    7.1290    0.7752 C   0  0  0  0  0  0  0  0  0  0  0  0
   11.5376    6.8217    0.0478 C   0  0  0  0  0  0  0  0  0  0  0  0
   12.7296    8.0346   -0.2095 Cl  0  0  0  0  0  0  0  0  0  0  0  0
   11.7363    5.5361   -0.4491 C   0  0  0  0  0  0  0  0  0  0  0  0
   10.8046    4.5430   -0.1596 C   0  0  0  0  0  0  0  0  0  0  0  0
   11.0138    3.2980   -0.6160 F   0  0  0  0  0  0  0  0  0  0  0  0
    8.9989    4.3152    3.3508 N   0  0  0  0  0  0  0  0  0  0  0  0
    8.4784    4.2651    4.5756 C   0  0  0  0  0  0  0  0  0  0  0  0
    7.3723    3.6051    4.9327 N   0  0  0  0  0  0  0  0  0  0  0  0
    6.7465    2.9138    3.9792 C   0  0  0  0  0  0  0  0  0  0  0  0
    5.5537    2.2676    4.2953 C   0  0  0  0  0  0  0  0  0  0  0  0
    4.8243    1.5414    3.3504 C   0  0  0  0  0  0  0  0  0  0  0  0
    3.6356    1.0122    3.7980 O   0  0  0  0  0  0  0  0  0  0  0  0
    3.3508   -0.3008    3.3012 C   0  0  0  0  0  0  0  0  0  0  0  0
    2.1905   -0.9455    4.0635 C   0  0  0  0  0  0  0  0  0  0  0  0
    1.8354   -2.2358    3.4865 N   0  0  0  0  0  0  0  0  0  0  0  0
    2.5519   -3.3732    3.7832 C   0  0  0  0  0  0  0  0  0  0  0  0
    2.1604   -4.5852    2.9786 C   0  0  0  0  0  0  0  0  0  0  0  0
    3.4383   -3.4111    4.6283 O   0  0  0  0  0  0  0  0  0  0  0  0
    3.9589    5.1478   -0.5628 H   0  0  0  0  0  0  0  0  0  0  0  0
    4.0604    3.7180   -1.7468 H   0  0  0  0  0  0  0  0  0  0  0  0
    3.7408    3.5753    1.3197 H   0  0  0  0  0  0  0  0  0  0  0  0
    4.8088    0.1014    0.5836 H   0  0  0  0  0  0  0  0  0  0  0  0
    6.8586    2.0632    0.6701 H   0  0  0  0  0  0  0  0  0  0  0  0
    9.0939    2.8635    0.6578 H   0  0  0  0  0  0  0  0  0  0  0  0
    8.5758    6.3712    1.6332 H   0  0  0  0  0  0  0  0  0  0  0  0
   10.2238    8.1335    1.1550 H   0  0  0  0  0  0  0  0  0  0  0  0
   12.6191    5.2888   -1.0273 H   0  0  0  0  0  0  0  0  0  0  0  0
    8.9927    4.8231    5.3494 H   0  0  0  0  0  0  0  0  0  0  0  0
    5.1672    2.3604    5.3096 H   0  0  0  0  0  0  0  0  0  0  0  0
    4.2424   -0.9364    3.3694 H   0  0  0  0  0  0  0  0  0  0  0  0
    3.0238   -0.2426    2.2603 H   0  0  0  0  0  0  0  0  0  0  0  0
    1.3012   -0.3079    4.0111 H   0  0  0  0  0  0  0  0  0  0  0  0
    2.4445   -1.0684    5.1215 H   0  0  0  0  0  0  0  0  0  0  0  0
    1.1965   -2.2474    2.7012 H   0  0  0  0  0  0  0  0  0  0  0  0
    1.5894   -4.3123    2.0867 H   0  0  0  0  0  0  0  0  0  0  0  0
    1.5598   -5.2549    3.5989 H   0  0  0  0  0  0  0  0  0  0  0  0
    3.0677   -5.1025    2.6521 H   0  0  0  0  0  0  0  0  0  0  0  0
  1  2  2  0  0  0  0
  1 32  1  0  0  0  0
  1 33  1  0  0  0  0
  2  3  1  0  0  0  0
  2 34  1  0  0  0  0
  3  4  2  0  0  0  0
  3  5  1  0  0  0  0
  5  6  1  0  0  0  0
  5 35  1  0  0  0  0
  6  7  1  0  0  0  0
  6 24  2  0  0  0  0
  7  8  2  0  0  0  0
  7 36  1  0  0  0  0
  8  9  1  0  0  0  0
  8 22  1  0  0  0  0
  9 10  1  0  0  0  0
  9 19  2  0  0  0  0
 10 11  1  0  0  0  0
 10 37  1  0  0  0  0
 11 12  1  0  0  0  0
 11 17  2  0  0  0  0
 12 13  2  0  0  0  0
 12 38  1  0  0  0  0
 13 14  1  0  0  0  0
 13 39  1  0  0  0  0
 14 15  1  0  0  0  0
 14 16  2  0  0  0  0
 16 17  1  0  0  0  0
 16 40  1  0  0  0  0
 17 18  1  0  0  0  0
 19 20  1  0  0  0  0
 20 21  2  0  0  0  0
 20 41  1  0  0  0  0
 21 22  1  0  0  0  0
 22 23  2  0  0  0  0
 23 24  1  0  0  0  0
 23 42  1  0  0  0  0
 24 25  1  0  0  0  0
 25 26  1  0  0  0  0
 26 27  1  0  0  0  0
 26 43  1  0  0  0  0
 26 44  1  0  0  0  0
 27 28  1  0  0  0  0
 27 45  1  0  0  0  0
 27 46  1  0  0  0  0
 28 29  1  0  0  0  0
 28 47  1  0  0  0  0
 29 30  1  0  0  0  0
 29 31  2  0  0  0  0
 30 48  1  0  0  0  0
 30 49  1  0  0  0  0
 30 50  1  0  0  0  0
M  END
$$$$
