CHEMBL2018762
 OpenBabel04072215363D

 50 52  0  0  0  0  0  0  0  0999 V2000
    2.0795   -4.1962    0.3826 C   0  0  0  0  0  0  0  0  0  0  0  0
    1.8487   -3.7116    1.8018 C   0  0  0  0  0  0  0  0  0  0  0  0
    2.7074   -2.5821    2.0472 O   0  0  0  0  0  0  0  0  0  0  0  0
    3.9515   -2.9793    2.4431 C   0  0  0  0  0  0  0  0  0  0  0  0
    4.1617   -4.0714    2.9487 O   0  0  0  0  0  0  0  0  0  0  0  0
    4.8862   -2.0037    2.1692 N   0  0  0  0  0  0  0  0  0  0  0  0
    6.2735   -2.1733    2.3724 C   0  0  0  0  0  0  0  0  0  0  0  0
    6.8185   -3.4621    2.5396 C   0  0  0  0  0  0  0  0  0  0  0  0
    8.1804   -3.6856    2.6938 C   0  0  0  0  0  0  0  0  0  0  0  0
    8.6836   -5.0013    2.9292 N   0  0  0  0  0  0  0  0  0  0  0  0
    9.9744   -5.4241    2.5556 C   0  0  0  0  0  0  0  0  0  0  0  0
   10.5160   -4.8653    1.4477 N   0  0  0  0  0  0  0  0  0  0  0  0
   11.7620   -5.1747    1.1776 C   0  0  0  0  0  0  0  0  0  0  0  0
   12.5586   -6.0059    1.8733 N   0  0  0  0  0  0  0  0  0  0  0  0
   11.9971   -6.6005    2.9362 C   0  0  0  0  0  0  0  0  0  0  0  0
   12.7650   -7.4609    3.7264 C   0  0  0  0  0  0  0  0  0  0  0  0
   12.2865   -8.1409    4.8808 C   0  0  0  0  0  0  0  0  0  0  0  0
   13.3305   -8.8144    5.4401 O   0  0  0  0  0  0  0  0  0  0  0  0
   13.1964  -10.0318    6.1308 C   0  0  0  0  0  0  0  0  0  0  0  0
   10.9545   -7.9349    5.2450 C   0  0  0  0  0  0  0  0  0  0  0  0
   10.1370   -8.3317    6.2492 O   0  0  0  0  0  0  0  0  0  0  0  0
   10.4610   -9.1502    7.3398 C   0  0  0  0  0  0  0  0  0  0  0  0
   10.1850   -7.0704    4.4352 C   0  0  0  0  0  0  0  0  0  0  0  0
   10.6895   -6.3800    3.3108 C   0  0  0  0  0  0  0  0  0  0  0  0
    9.0181   -2.5700    2.7082 C   0  0  0  0  0  0  0  0  0  0  0  0
    8.5035   -1.2793    2.5915 C   0  0  0  0  0  0  0  0  0  0  0  0
    7.1303   -1.0559    2.4485 C   0  0  0  0  0  0  0  0  0  0  0  0
    6.6535    0.3685    2.5053 C   0  0  0  0  0  0  0  0  0  0  0  0
    1.4289   -5.0452    0.1550 H   0  0  0  0  0  0  0  0  0  0  0  0
    3.1198   -4.5079    0.2404 H   0  0  0  0  0  0  0  0  0  0  0  0
    1.8834   -3.3942   -0.3364 H   0  0  0  0  0  0  0  0  0  0  0  0
    2.0322   -4.5337    2.5103 H   0  0  0  0  0  0  0  0  0  0  0  0
    0.8046   -3.4051    1.9186 H   0  0  0  0  0  0  0  0  0  0  0  0
    4.5089   -1.0903    1.9612 H   0  0  0  0  0  0  0  0  0  0  0  0
    6.1756   -4.3383    2.5326 H   0  0  0  0  0  0  0  0  0  0  0  0
    8.0153   -5.6914    2.5892 H   0  0  0  0  0  0  0  0  0  0  0  0
   12.2072   -4.6903    0.3085 H   0  0  0  0  0  0  0  0  0  0  0  0
   13.8077   -7.6116    3.4362 H   0  0  0  0  0  0  0  0  0  0  0  0
   14.2052  -10.4175    6.3151 H   0  0  0  0  0  0  0  0  0  0  0  0
   12.6635  -10.7907    5.5512 H   0  0  0  0  0  0  0  0  0  0  0  0
   12.7762   -9.8601    7.1172 H   0  0  0  0  0  0  0  0  0  0  0  0
    9.5478   -9.2640    7.9357 H   0  0  0  0  0  0  0  0  0  0  0  0
   11.2024   -8.6798    7.9885 H   0  0  0  0  0  0  0  0  0  0  0  0
   10.7264  -10.1528    7.0054 H   0  0  0  0  0  0  0  0  0  0  0  0
    9.1407   -6.9070    4.7135 H   0  0  0  0  0  0  0  0  0  0  0  0
   10.0938   -2.6828    2.8028 H   0  0  0  0  0  0  0  0  0  0  0  0
    9.2003   -0.4428    2.6492 H   0  0  0  0  0  0  0  0  0  0  0  0
    7.4693    1.0417    2.7965 H   0  0  0  0  0  0  0  0  0  0  0  0
    5.8785    0.4735    3.2713 H   0  0  0  0  0  0  0  0  0  0  0  0
    6.2780    0.7114    1.5384 H   0  0  0  0  0  0  0  0  0  0  0  0
  1  2  1  0  0  0  0
  1 29  1  0  0  0  0
  1 30  1  0  0  0  0
  1 31  1  0  0  0  0
  2  3  1  0  0  0  0
  2 32  1  0  0  0  0
  2 33  1  0  0  0  0
  3  4  1  0  0  0  0
  4  5  2  0  0  0  0
  4  6  1  0  0  0  0
  6  7  1  0  0  0  0
  6 34  1  0  0  0  0
  7  8  1  0  0  0  0
  7 27  2  0  0  0  0
  8  9  2  0  0  0  0
  8 35  1  0  0  0  0
  9 10  1  0  0  0  0
  9 25  1  0  0  0  0
 10 11  1  0  0  0  0
 10 36  1  0  0  0  0
 11 12  1  0  0  0  0
 11 24  2  0  0  0  0
 12 13  2  0  0  0  0
 13 14  1  0  0  0  0
 13 37  1  0  0  0  0
 14 15  2  0  0  0  0
 15 16  1  0  0  0  0
 15 24  1  0  0  0  0
 16 17  2  0  0  0  0
 16 38  1  0  0  0  0
 17 18  1  0  0  0  0
 17 20  1  0  0  0  0
 18 19  1  0  0  0  0
 19 39  1  0  0  0  0
 19 40  1  0  0  0  0
 19 41  1  0  0  0  0
 20 21  1  0  0  0  0
 20 23  2  0  0  0  0
 21 22  1  0  0  0  0
 22 42  1  0  0  0  0
 22 43  1  0  0  0  0
 22 44  1  0  0  0  0
 23 24  1  0  0  0  0
 23 45  1  0  0  0  0
 25 26  2  0  0  0  0
 25 46  1  0  0  0  0
 26 27  1  0  0  0  0
 26 47  1  0  0  0  0
 27 28  1  0  0  0  0
 28 48  1  0  0  0  0
 28 49  1  0  0  0  0
 28 50  1  0  0  0  0
M  END
$$$$
