CHEMBL2004716
 OpenBabel04072215363D

 73 76  0  0  0  0  0  0  0  0999 V2000
    4.7528    1.1884    0.5250 C   0  0  0  0  0  0  0  0  0  0  0  0
    4.4050   -0.1940   -0.0200 C   0  0  0  0  0  0  0  0  0  0  0  0
    4.8166   -1.3182    0.8407 N   0  0  0  0  0  0  0  0  0  0  0  0
    4.2975   -1.2220    2.2222 C   0  0  0  0  0  0  0  0  0  0  0  0
    2.7813   -1.3161    2.3973 C   0  0  0  0  0  0  0  0  0  0  0  0
    4.4493   -2.6231    0.2397 C   0  0  0  0  0  0  0  0  0  0  0  0
    5.0791   -2.9379   -1.1298 C   0  0  0  0  0  0  0  0  0  0  0  0
    6.5258   -2.9906   -1.1028 N   0  0  0  0  0  0  0  0  0  0  0  0
    7.1993   -3.6937   -2.0802 C   0  0  0  0  0  0  0  0  0  0  0  0
    6.6413   -4.3537   -2.9386 O   0  0  0  0  0  0  0  0  0  0  0  0
    8.6767   -3.6007   -1.9881 C   0  0  0  0  0  0  0  0  0  0  0  0
    9.4185   -4.3242   -2.8492 C   0  0  0  0  0  0  0  0  0  0  0  0
   10.8858   -4.3389   -2.8676 C   0  0  0  0  0  0  0  0  0  0  0  0
   11.6541   -4.1817   -1.7301 C   0  0  0  0  0  0  0  0  0  0  0  0
   12.9933   -4.1742   -1.7078 N   0  0  0  0  0  0  0  0  0  0  0  0
   13.6874   -4.3557   -2.8482 C   0  0  0  0  0  0  0  0  0  0  0  0
   15.0569   -4.2456   -2.6645 N   0  0  0  0  0  0  0  0  0  0  0  0
   13.0189   -4.6156   -4.0832 C   0  0  0  0  0  0  0  0  0  0  0  0
   13.5178   -4.9112   -5.4444 C   0  0  0  0  0  0  0  0  0  0  0  0
   14.9037   -5.0606   -5.9247 C   0  0  0  0  0  0  0  0  0  0  0  0
   15.8691   -5.6437   -5.1093 C   0  0  0  0  0  0  0  0  0  0  0  0
   17.2131   -5.6692   -5.4820 C   0  0  0  0  0  0  0  0  0  0  0  0
   17.6183   -5.2470   -6.7468 C   0  0  0  0  0  0  0  0  0  0  0  0
   18.9639   -5.3286   -7.1711 N   0  0  0  0  0  0  0  0  0  0  0  0
   19.9222   -6.1329   -6.5734 C   0  0  0  0  0  0  0  0  0  0  0  0
   19.6980   -6.9574   -5.6933 O   0  0  0  0  0  0  0  0  0  0  0  0
   21.1917   -5.8775   -7.0709 N   0  0  0  0  0  0  0  0  0  0  0  0
   22.3022   -6.6357   -6.6287 C   0  0  0  0  0  0  0  0  0  0  0  0
   22.2346   -8.0278   -6.5132 C   0  0  0  0  0  0  0  0  0  0  0  0
   23.3345   -8.7508   -6.0539 C   0  0  0  0  0  0  0  0  0  0  0  0
   24.4983   -8.0828   -5.6780 C   0  0  0  0  0  0  0  0  0  0  0  0
   24.5725   -6.6875   -5.7698 C   0  0  0  0  0  0  0  0  0  0  0  0
   25.7835   -5.9515   -5.2780 C   0  0  0  0  0  0  0  0  0  0  0  0
   23.4805   -5.9709   -6.2830 C   0  0  0  0  0  0  0  0  0  0  0  0
   16.6526   -4.7292   -7.6120 C   0  0  0  0  0  0  0  0  0  0  0  0
   15.3103   -4.6255   -7.1989 C   0  0  0  0  0  0  0  0  0  0  0  0
   12.4781   -5.0896   -6.3315 C   0  0  0  0  0  0  0  0  0  0  0  0
   10.9519   -4.8809   -5.6330 S   0  0  0  0  0  0  0  0  0  0  0  0
   11.6071   -4.5910   -4.0584 C   0  0  0  0  0  0  0  0  0  0  0  0
    4.6425    1.9359   -0.2683 H   0  0  0  0  0  0  0  0  0  0  0  0
    5.7888    1.2293    0.8776 H   0  0  0  0  0  0  0  0  0  0  0  0
    4.0889    1.4801    1.3443 H   0  0  0  0  0  0  0  0  0  0  0  0
    4.9311   -0.2728   -0.9770 H   0  0  0  0  0  0  0  0  0  0  0  0
    3.3325   -0.2340   -0.2443 H   0  0  0  0  0  0  0  0  0  0  0  0
    4.6499   -0.2924    2.6833 H   0  0  0  0  0  0  0  0  0  0  0  0
    4.7605   -2.0138    2.8259 H   0  0  0  0  0  0  0  0  0  0  0  0
    2.2392   -0.6648    1.7060 H   0  0  0  0  0  0  0  0  0  0  0  0
    2.5046   -1.0146    3.4133 H   0  0  0  0  0  0  0  0  0  0  0  0
    2.4278   -2.3427    2.2543 H   0  0  0  0  0  0  0  0  0  0  0  0
    3.3610   -2.6978    0.1292 H   0  0  0  0  0  0  0  0  0  0  0  0
    4.7601   -3.4204    0.9276 H   0  0  0  0  0  0  0  0  0  0  0  0
    4.7866   -2.2058   -1.8908 H   0  0  0  0  0  0  0  0  0  0  0  0
    4.6978   -3.9070   -1.4721 H   0  0  0  0  0  0  0  0  0  0  0  0
    7.0059   -2.3418   -0.4877 H   0  0  0  0  0  0  0  0  0  0  0  0
    9.1028   -2.9386   -1.2490 H   0  0  0  0  0  0  0  0  0  0  0  0
    8.9206   -4.9572   -3.5817 H   0  0  0  0  0  0  0  0  0  0  0  0
   11.1993   -4.0469   -0.7523 H   0  0  0  0  0  0  0  0  0  0  0  0
   15.2467   -3.8839   -1.7363 H   0  0  0  0  0  0  0  0  0  0  0  0
   15.5474   -3.7911   -3.4221 H   0  0  0  0  0  0  0  0  0  0  0  0
   15.6092   -6.0756   -4.1461 H   0  0  0  0  0  0  0  0  0  0  0  0
   17.9216   -6.0297   -4.7419 H   0  0  0  0  0  0  0  0  0  0  0  0
   19.1810   -5.0041   -8.1027 H   0  0  0  0  0  0  0  0  0  0  0  0
   21.3650   -4.9052   -7.2805 H   0  0  0  0  0  0  0  0  0  0  0  0
   21.3250   -8.5640   -6.7755 H   0  0  0  0  0  0  0  0  0  0  0  0
   23.2734   -9.8328   -5.9701 H   0  0  0  0  0  0  0  0  0  0  0  0
   25.3385   -8.6583   -5.2963 H   0  0  0  0  0  0  0  0  0  0  0  0
   26.5462   -6.6404   -4.9003 H   0  0  0  0  0  0  0  0  0  0  0  0
   25.5041   -5.2833   -4.4561 H   0  0  0  0  0  0  0  0  0  0  0  0
   26.2258   -5.3638   -6.0873 H   0  0  0  0  0  0  0  0  0  0  0  0
   23.5339   -4.8875   -6.3379 H   0  0  0  0  0  0  0  0  0  0  0  0
   16.9172   -4.4074   -8.6156 H   0  0  0  0  0  0  0  0  0  0  0  0
   14.5914   -4.2020   -7.8975 H   0  0  0  0  0  0  0  0  0  0  0  0
   12.5309   -5.3407   -7.3842 H   0  0  0  0  0  0  0  0  0  0  0  0
  1  2  1  0  0  0  0
  1 40  1  0  0  0  0
  1 41  1  0  0  0  0
  1 42  1  0  0  0  0
  2  3  1  0  0  0  0
  2 43  1  0  0  0  0
  2 44  1  0  0  0  0
  3  4  1  0  0  0  0
  3  6  1  0  0  0  0
  4  5  1  0  0  0  0
  4 45  1  0  0  0  0
  4 46  1  0  0  0  0
  5 47  1  0  0  0  0
  5 48  1  0  0  0  0
  5 49  1  0  0  0  0
  6  7  1  0  0  0  0
  6 50  1  0  0  0  0
  6 51  1  0  0  0  0
  7  8  1  0  0  0  0
  7 52  1  0  0  0  0
  7 53  1  0  0  0  0
  8  9  1  0  0  0  0
  8 54  1  0  0  0  0
  9 10  2  0  0  0  0
  9 11  1  0  0  0  0
 11 12  2  3  0  0  0
 11 55  1  0  0  0  0
 12 13  1  0  0  0  0
 12 56  1  0  0  0  0
 13 14  1  0  0  0  0
 13 39  2  0  0  0  0
 14 15  2  0  0  0  0
 14 57  1  0  0  0  0
 15 16  1  0  0  0  0
 16 17  1  0  0  0  0
 16 18  2  0  0  0  0
 17 58  1  0  0  0  0
 17 59  1  0  0  0  0
 18 19  1  0  0  0  0
 18 39  1  0  0  0  0
 19 20  1  0  0  0  0
 19 37  2  0  0  0  0
 20 21  1  0  0  0  0
 20 36  2  0  0  0  0
 21 22  2  0  0  0  0
 21 60  1  0  0  0  0
 22 23  1  0  0  0  0
 22 61  1  0  0  0  0
 23 24  1  0  0  0  0
 23 35  2  0  0  0  0
 24 25  1  0  0  0  0
 24 62  1  0  0  0  0
 25 26  2  0  0  0  0
 25 27  1  0  0  0  0
 27 28  1  0  0  0  0
 27 63  1  0  0  0  0
 28 29  1  0  0  0  0
 28 34  2  0  0  0  0
 29 30  2  0  0  0  0
 29 64  1  0  0  0  0
 30 31  1  0  0  0  0
 30 65  1  0  0  0  0
 31 32  2  0  0  0  0
 31 66  1  0  0  0  0
 32 33  1  0  0  0  0
 32 34  1  0  0  0  0
 33 67  1  0  0  0  0
 33 68  1  0  0  0  0
 33 69  1  0  0  0  0
 34 70  1  0  0  0  0
 35 36  1  0  0  0  0
 35 71  1  0  0  0  0
 36 72  1  0  0  0  0
 37 38  1  0  0  0  0
 37 73  1  0  0  0  0
 38 39  1  0  0  0  0
M  END
$$$$
