CHEMBL1269634
 OpenBabel04072215363D

 31 33  0  0  0  0  0  0  0  0999 V2000
    1.1290   -0.5891   -0.6789 O   0  0  0  0  0  0  0  0  0  0  0  0
    2.1940   -0.2001   -0.2033 C   0  0  0  0  0  0  0  0  0  0  0  0
    2.7242   -0.6188    0.9997 N   0  0  0  0  0  0  0  0  0  0  0  0
    2.1150   -1.5259    1.9139 C   0  0  0  0  0  0  0  0  0  0  0  0
    1.0330   -2.3390    1.5525 C   0  0  0  0  0  0  0  0  0  0  0  0
    0.4132   -3.1594    2.4889 C   0  0  0  0  0  0  0  0  0  0  0  0
    0.8757   -3.1792    3.7987 C   0  0  0  0  0  0  0  0  0  0  0  0
    1.9753   -2.3940    4.1679 C   0  0  0  0  0  0  0  0  0  0  0  0
    2.4401   -2.4053    5.4882 C   0  0  0  0  0  0  0  0  0  0  0  0
    3.5275   -1.6207    5.8460 C   0  0  0  0  0  0  0  0  0  0  0  0
    4.1169   -0.8499    4.8637 C   0  0  0  0  0  0  0  0  0  0  0  0
    3.6949   -0.8047    3.5781 N   0  0  0  0  0  0  0  0  0  0  0  0
    2.6276   -1.5631    3.2247 C   0  0  0  0  0  0  0  0  0  0  0  0
    2.9448    0.8068   -1.0060 C   0  0  0  0  0  0  0  0  0  0  0  0
    2.7061    0.7636   -2.3965 C   0  0  0  0  0  0  0  0  0  0  0  0
    3.2459    1.7188   -3.2577 C   0  0  0  0  0  0  0  0  0  0  0  0
    4.0374    2.7363   -2.7419 C   0  0  0  0  0  0  0  0  0  0  0  0
    4.3032    2.7821   -1.3718 C   0  0  0  0  0  0  0  0  0  0  0  0
    3.7642    1.8223   -0.4998 C   0  0  0  0  0  0  0  0  0  0  0  0
    4.1304    2.0212    1.1758 Cl  0  0  0  0  0  0  0  0  0  0  0  0
    3.5381   -0.1407    1.3846 H   0  0  0  0  0  0  0  0  0  0  0  0
    0.6512   -2.3601    0.5383 H   0  0  0  0  0  0  0  0  0  0  0  0
   -0.4338   -3.7722    2.1911 H   0  0  0  0  0  0  0  0  0  0  0  0
    0.3691   -3.8099    4.5236 H   0  0  0  0  0  0  0  0  0  0  0  0
    1.9535   -3.0196    6.2429 H   0  0  0  0  0  0  0  0  0  0  0  0
    3.8994   -1.6134    6.8653 H   0  0  0  0  0  0  0  0  0  0  0  0
    4.9742   -0.2223    5.0937 H   0  0  0  0  0  0  0  0  0  0  0  0
    2.0671   -0.0147   -2.8150 H   0  0  0  0  0  0  0  0  0  0  0  0
    3.0260    1.6745   -4.3218 H   0  0  0  0  0  0  0  0  0  0  0  0
    4.4389    3.5003   -3.4033 H   0  0  0  0  0  0  0  0  0  0  0  0
    4.9191    3.5907   -0.9834 H   0  0  0  0  0  0  0  0  0  0  0  0
  1  2  2  0  0  0  0
  2  3  1  0  0  0  0
  2 14  1  0  0  0  0
  3  4  1  0  0  0  0
  3 21  1  0  0  0  0
  4  5  1  0  0  0  0
  4 13  2  0  0  0  0
  5  6  2  0  0  0  0
  5 22  1  0  0  0  0
  6  7  1  0  0  0  0
  6 23  1  0  0  0  0
  7  8  2  0  0  0  0
  7 24  1  0  0  0  0
  8  9  1  0  0  0  0
  8 13  1  0  0  0  0
  9 10  2  0  0  0  0
  9 25  1  0  0  0  0
 10 11  1  0  0  0  0
 10 26  1  0  0  0  0
 11 12  2  0  0  0  0
 11 27  1  0  0  0  0
 12 13  1  0  0  0  0
 14 15  1  0  0  0  0
 14 19  2  0  0  0  0
 15 16  2  0  0  0  0
 15 28  1  0  0  0  0
 16 17  1  0  0  0  0
 16 29  1  0  0  0  0
 17 18  2  0  0  0  0
 17 30  1  0  0  0  0
 18 19  1  0  0  0  0
 18 31  1  0  0  0  0
 19 20  1  0  0  0  0
M  END
$$$$
