CHEMBL606168
 OpenBabel04072215383D

 46 49  0  0  0  0  0  0  0  0999 V2000
    0.7736    0.9079   -2.1423 C   0  0  0  0  0  0  0  0  0  0  0  0
    1.9691    0.4400   -1.5311 O   0  0  0  0  0  0  0  0  0  0  0  0
    2.8246    1.3850   -1.0243 C   0  0  0  0  0  0  0  0  0  0  0  0
    2.3943    2.6568   -0.5995 C   0  0  0  0  0  0  0  0  0  0  0  0
    3.3047    3.5723   -0.0375 C   0  0  0  0  0  0  0  0  0  0  0  0
    2.8918    4.9392    0.3123 C   0  0  0  0  0  0  0  0  0  0  0  0
    2.2973    5.4278    1.4156 C   0  0  0  0  0  0  0  0  0  0  0  0
    1.7682    4.7484    2.5432 C   0  0  0  0  0  0  0  0  0  0  0  0
    2.3746    3.7063    3.2143 C   0  0  0  0  0  0  0  0  0  0  0  0
    1.5136    3.3239    4.2095 N   0  0  0  0  0  0  0  0  0  0  0  0
    0.2526    3.7748    3.8959 C   0  0  0  0  0  0  0  0  0  0  0  0
   -1.0130    3.3136    4.2712 C   0  0  0  0  0  0  0  0  0  0  0  0
   -2.1087    4.0798    3.8665 C   0  0  0  0  0  0  0  0  0  0  0  0
   -1.9191    5.3020    3.2322 C   0  0  0  0  0  0  0  0  0  0  0  0
   -2.9859    6.0602    2.9436 F   0  0  0  0  0  0  0  0  0  0  0  0
   -0.6547    5.7338    2.8342 C   0  0  0  0  0  0  0  0  0  0  0  0
    0.4431    4.8844    3.0721 C   0  0  0  0  0  0  0  0  0  0  0  0
    2.1973    6.8957    1.2323 C   0  0  0  0  0  0  0  0  0  0  0  0
    1.8471    7.7112    2.0614 O   0  0  0  0  0  0  0  0  0  0  0  0
    2.6172    7.1831   -0.0133 N   0  0  0  0  0  0  0  0  0  0  0  0
    3.0661    6.0758   -0.6262 C   0  0  0  0  0  0  0  0  0  0  0  0
    3.5221    6.0039   -1.7524 O   0  0  0  0  0  0  0  0  0  0  0  0
    4.6242    3.1957    0.1447 C   0  0  0  0  0  0  0  0  0  0  0  0
    5.0651    1.9261   -0.2496 C   0  0  0  0  0  0  0  0  0  0  0  0
    6.3757    1.5209   -0.1417 O   0  0  0  0  0  0  0  0  0  0  0  0
    7.0952    2.0291    0.9742 C   0  0  0  0  0  0  0  0  0  0  0  0
    4.1756    1.0219   -0.8648 C   0  0  0  0  0  0  0  0  0  0  0  0
    4.7170   -0.2035   -1.1828 O   0  0  0  0  0  0  0  0  0  0  0  0
    4.2751   -0.8082   -2.3918 C   0  0  0  0  0  0  0  0  0  0  0  0
    0.2794    0.0493   -2.6078 H   0  0  0  0  0  0  0  0  0  0  0  0
    0.9905    1.6376   -2.9298 H   0  0  0  0  0  0  0  0  0  0  0  0
    0.0833    1.3173   -1.3994 H   0  0  0  0  0  0  0  0  0  0  0  0
    1.3539    2.9491   -0.6986 H   0  0  0  0  0  0  0  0  0  0  0  0
    3.3330    3.2179    3.0971 H   0  0  0  0  0  0  0  0  0  0  0  0
    1.7407    2.7266    4.9936 H   0  0  0  0  0  0  0  0  0  0  0  0
   -1.1452    2.3720    4.7938 H   0  0  0  0  0  0  0  0  0  0  0  0
   -3.1202    3.7346    4.0584 H   0  0  0  0  0  0  0  0  0  0  0  0
   -0.5517    6.6787    2.3116 H   0  0  0  0  0  0  0  0  0  0  0  0
    2.6457    8.1065   -0.4063 H   0  0  0  0  0  0  0  0  0  0  0  0
    5.3328    3.9157    0.5508 H   0  0  0  0  0  0  0  0  0  0  0  0
    8.0074    1.4320    1.0836 H   0  0  0  0  0  0  0  0  0  0  0  0
    6.5184    1.9316    1.8988 H   0  0  0  0  0  0  0  0  0  0  0  0
    7.3997    3.0669    0.8069 H   0  0  0  0  0  0  0  0  0  0  0  0
    5.0511   -1.5120   -2.7132 H   0  0  0  0  0  0  0  0  0  0  0  0
    4.1337   -0.0821   -3.1996 H   0  0  0  0  0  0  0  0  0  0  0  0
    3.3696   -1.3962   -2.2189 H   0  0  0  0  0  0  0  0  0  0  0  0
  1  2  1  0  0  0  0
  1 30  1  0  0  0  0
  1 31  1  0  0  0  0
  1 32  1  0  0  0  0
  2  3  1  0  0  0  0
  3  4  1  0  0  0  0
  3 27  2  0  0  0  0
  4  5  2  0  0  0  0
  4 33  1  0  0  0  0
  5  6  1  0  0  0  0
  5 23  1  0  0  0  0
  6  7  2  0  0  0  0
  6 21  1  0  0  0  0
  7  8  1  0  0  0  0
  7 18  1  0  0  0  0
  8  9  2  0  0  0  0
  8 17  1  0  0  0  0
  9 10  1  0  0  0  0
  9 34  1  0  0  0  0
 10 11  1  0  0  0  0
 10 35  1  0  0  0  0
 11 12  1  0  0  0  0
 11 17  2  0  0  0  0
 12 13  2  0  0  0  0
 12 36  1  0  0  0  0
 13 14  1  0  0  0  0
 13 37  1  0  0  0  0
 14 15  1  0  0  0  0
 14 16  2  0  0  0  0
 16 17  1  0  0  0  0
 16 38  1  0  0  0  0
 18 19  2  0  0  0  0
 18 20  1  0  0  0  0
 20 21  1  0  0  0  0
 20 39  1  0  0  0  0
 21 22  2  0  0  0  0
 23 24  2  0  0  0  0
 23 40  1  0  0  0  0
 24 25  1  0  0  0  0
 24 27  1  0  0  0  0
 25 26  1  0  0  0  0
 26 41  1  0  0  0  0
 26 42  1  0  0  0  0
 26 43  1  0  0  0  0
 27 28  1  0  0  0  0
 28 29  1  0  0  0  0
 29 44  1  0  0  0  0
 29 45  1  0  0  0  0
 29 46  1  0  0  0  0
M  END
$$$$
