CHEMBL1997007
 OpenBabel04072215363D

 45 47  0  0  0  0  0  0  0  0999 V2000
    2.8267   -1.7992   -1.9755 C   0  0  0  0  0  0  0  0  0  0  0  0
    2.4265   -0.3754   -2.3356 C   0  0  0  0  0  0  0  0  0  0  0  0
    3.0773    0.6653   -1.4268 C   0  0  0  0  0  0  0  0  0  0  0  0
    4.5225    0.6565   -1.5212 N   0  0  0  0  0  0  0  0  0  0  0  0
    5.1883    1.4063   -2.4691 C   0  0  0  0  0  0  0  0  0  0  0  0
    4.6231    2.1587   -3.2516 O   0  0  0  0  0  0  0  0  0  0  0  0
    6.6709    1.2884   -2.4907 C   0  0  0  0  0  0  0  0  0  0  0  0
    7.3267    0.1163   -2.1071 C   0  0  0  0  0  0  0  0  0  0  0  0
    8.7195    0.0432   -2.1865 C   0  0  0  0  0  0  0  0  0  0  0  0
    9.4766    1.1203   -2.6724 C   0  0  0  0  0  0  0  0  0  0  0  0
   10.8815    1.0687   -2.7581 N   0  0  0  0  0  0  0  0  0  0  0  0
   11.6236   -0.0918   -3.0189 C   0  0  0  0  0  0  0  0  0  0  0  0
   11.0743   -1.0373   -3.8132 N   0  0  0  0  0  0  0  0  0  0  0  0
   11.7154   -2.2164   -4.0351 C   0  0  0  0  0  0  0  0  0  0  0  0
   11.0360   -3.2043   -4.9387 C   0  0  0  0  0  0  0  0  0  0  0  0
   10.1320   -4.1612   -4.1781 C   0  0  0  0  0  0  0  0  0  0  0  0
   12.9417   -2.4149   -3.3985 C   0  0  0  0  0  0  0  0  0  0  0  0
   13.8960   -3.4627   -3.3003 C   0  0  0  0  0  0  0  0  0  0  0  0
   14.9292   -3.0116   -2.5054 C   0  0  0  0  0  0  0  0  0  0  0  0
   14.6378   -1.7241   -2.1300 N   0  0  0  0  0  0  0  0  0  0  0  0
   13.4216   -1.3583   -2.6411 C   0  0  0  0  0  0  0  0  0  0  0  0
   12.8223   -0.1796   -2.4199 N   0  0  0  0  0  0  0  0  0  0  0  0
    8.8141    2.3013   -3.0185 C   0  0  0  0  0  0  0  0  0  0  0  0
    7.4193    2.3788   -2.9512 C   0  0  0  0  0  0  0  0  0  0  0  0
    2.3213   -2.5124   -2.6344 H   0  0  0  0  0  0  0  0  0  0  0  0
    2.5486   -2.0342   -0.9431 H   0  0  0  0  0  0  0  0  0  0  0  0
    3.9050   -1.9497   -2.0843 H   0  0  0  0  0  0  0  0  0  0  0  0
    1.3370   -0.2831   -2.2549 H   0  0  0  0  0  0  0  0  0  0  0  0
    2.6898   -0.1820   -3.3821 H   0  0  0  0  0  0  0  0  0  0  0  0
    2.8181    0.4804   -0.3793 H   0  0  0  0  0  0  0  0  0  0  0  0
    2.7100    1.6620   -1.6929 H   0  0  0  0  0  0  0  0  0  0  0  0
    5.0411    0.1139   -0.8458 H   0  0  0  0  0  0  0  0  0  0  0  0
    6.7794   -0.7637   -1.7857 H   0  0  0  0  0  0  0  0  0  0  0  0
    9.2099   -0.8822   -1.8925 H   0  0  0  0  0  0  0  0  0  0  0  0
   11.3447    1.5483   -1.9953 H   0  0  0  0  0  0  0  0  0  0  0  0
   11.7922   -3.7716   -5.4918 H   0  0  0  0  0  0  0  0  0  0  0  0
   10.4430   -2.6599   -5.6830 H   0  0  0  0  0  0  0  0  0  0  0  0
   10.6991   -4.7577   -3.4559 H   0  0  0  0  0  0  0  0  0  0  0  0
    9.6457   -4.8501   -4.8768 H   0  0  0  0  0  0  0  0  0  0  0  0
    9.3489   -3.6246   -3.6319 H   0  0  0  0  0  0  0  0  0  0  0  0
   13.8292   -4.4430   -3.7540 H   0  0  0  0  0  0  0  0  0  0  0  0
   15.8415   -3.4921   -2.1779 H   0  0  0  0  0  0  0  0  0  0  0  0
   15.2082   -1.1249   -1.5511 H   0  0  0  0  0  0  0  0  0  0  0  0
    9.3776    3.1516   -3.3945 H   0  0  0  0  0  0  0  0  0  0  0  0
    6.9156    3.2883   -3.2726 H   0  0  0  0  0  0  0  0  0  0  0  0
  1  2  1  0  0  0  0
  1 25  1  0  0  0  0
  1 26  1  0  0  0  0
  1 27  1  0  0  0  0
  2  3  1  0  0  0  0
  2 28  1  0  0  0  0
  2 29  1  0  0  0  0
  3  4  1  0  0  0  0
  3 30  1  0  0  0  0
  3 31  1  0  0  0  0
  4  5  1  0  0  0  0
  4 32  1  0  0  0  0
  5  6  2  0  0  0  0
  5  7  1  0  0  0  0
  7  8  1  0  0  0  0
  7 24  2  0  0  0  0
  8  9  2  0  0  0  0
  8 33  1  0  0  0  0
  9 10  1  0  0  0  0
  9 34  1  0  0  0  0
 10 11  1  0  0  0  0
 10 23  2  0  0  0  0
 11 12  1  0  0  0  0
 11 35  1  0  0  0  0
 12 13  1  0  0  0  0
 12 22  2  0  0  0  0
 13 14  2  0  0  0  0
 14 15  1  0  0  0  0
 14 17  1  0  0  0  0
 15 16  1  0  0  0  0
 15 36  1  0  0  0  0
 15 37  1  0  0  0  0
 16 38  1  0  0  0  0
 16 39  1  0  0  0  0
 16 40  1  0  0  0  0
 17 18  1  0  0  0  0
 17 21  2  0  0  0  0
 18 19  2  0  0  0  0
 18 41  1  0  0  0  0
 19 20  1  0  0  0  0
 19 42  1  0  0  0  0
 20 21  1  0  0  0  0
 20 43  1  0  0  0  0
 21 22  1  0  0  0  0
 23 24  1  0  0  0  0
 23 44  1  0  0  0  0
 24 45  1  0  0  0  0
M  END
$$$$
