CHEMBL1271616
 OpenBabel04072215363D

 35 37  0  0  0  0  0  0  0  0999 V2000
    2.5047    1.1339    0.3363 C   0  0  0  0  0  0  0  0  0  0  0  0
    1.2487    0.3180    0.2530 C   0  0  0  0  0  0  0  0  0  0  0  0
    1.2641   -1.0766    0.3833 C   0  0  0  0  0  0  0  0  0  0  0  0
    0.0808   -1.8249    0.2711 C   0  0  0  0  0  0  0  0  0  0  0  0
   -1.1424   -1.1849    0.0295 C   0  0  0  0  0  0  0  0  0  0  0  0
   -2.4343   -1.9188   -0.1494 C   0  0  0  0  0  0  0  0  0  0  0  0
   -3.4137   -1.2337   -0.4491 O   0  0  0  0  0  0  0  0  0  0  0  0
   -2.4729   -3.2843    0.0564 N   0  0  0  0  0  0  0  0  0  0  0  0
   -3.6276   -4.1128   -0.0895 C   0  0  0  0  0  0  0  0  0  0  0  0
   -4.7805   -3.6791   -0.7590 C   0  0  0  0  0  0  0  0  0  0  0  0
   -5.9174   -4.4803   -0.8161 C   0  0  0  0  0  0  0  0  0  0  0  0
   -5.9086   -5.7291   -0.2145 C   0  0  0  0  0  0  0  0  0  0  0  0
   -4.7472   -6.1942    0.4233 C   0  0  0  0  0  0  0  0  0  0  0  0
   -4.7294   -7.4539    1.0324 C   0  0  0  0  0  0  0  0  0  0  0  0
   -3.5737   -7.9038    1.6564 C   0  0  0  0  0  0  0  0  0  0  0  0
   -2.4694   -7.0742    1.6472 C   0  0  0  0  0  0  0  0  0  0  0  0
   -2.4479   -5.8423    1.0851 N   0  0  0  0  0  0  0  0  0  0  0  0
   -3.5780   -5.3973    0.4794 C   0  0  0  0  0  0  0  0  0  0  0  0
   -1.1436    0.2204   -0.0880 C   0  0  0  0  0  0  0  0  0  0  0  0
   -2.2721    0.9662   -0.3233 O   0  0  0  0  0  0  0  0  0  0  0  0
    0.0321    0.9600    0.0222 C   0  0  0  0  0  0  0  0  0  0  0  0
    3.3791    0.5110    0.5418 H   0  0  0  0  0  0  0  0  0  0  0  0
    2.4203    1.8758    1.1376 H   0  0  0  0  0  0  0  0  0  0  0  0
    2.6749    1.6542   -0.6131 H   0  0  0  0  0  0  0  0  0  0  0  0
    2.2047   -1.5940    0.5655 H   0  0  0  0  0  0  0  0  0  0  0  0
    0.1575   -2.9034    0.3606 H   0  0  0  0  0  0  0  0  0  0  0  0
   -1.6982   -3.7679    0.5009 H   0  0  0  0  0  0  0  0  0  0  0  0
   -4.8243   -2.7159   -1.2565 H   0  0  0  0  0  0  0  0  0  0  0  0
   -6.8065   -4.1170   -1.3247 H   0  0  0  0  0  0  0  0  0  0  0  0
   -6.8070   -6.3388   -0.2499 H   0  0  0  0  0  0  0  0  0  0  0  0
   -5.6151   -8.0850    1.0281 H   0  0  0  0  0  0  0  0  0  0  0  0
   -3.5415   -8.8754    2.1355 H   0  0  0  0  0  0  0  0  0  0  0  0
   -1.5394   -7.3880    2.1136 H   0  0  0  0  0  0  0  0  0  0  0  0
   -3.0251    0.3391   -0.4229 H   0  0  0  0  0  0  0  0  0  0  0  0
   -0.0122    2.0418   -0.0873 H   0  0  0  0  0  0  0  0  0  0  0  0
  1  2  1  0  0  0  0
  1 22  1  0  0  0  0
  1 23  1  0  0  0  0
  1 24  1  0  0  0  0
  2  3  1  0  0  0  0
  2 21  2  0  0  0  0
  3  4  2  0  0  0  0
  3 25  1  0  0  0  0
  4  5  1  0  0  0  0
  4 26  1  0  0  0  0
  5  6  1  0  0  0  0
  5 19  2  0  0  0  0
  6  7  2  0  0  0  0
  6  8  1  0  0  0  0
  8  9  1  0  0  0  0
  8 27  1  0  0  0  0
  9 10  1  0  0  0  0
  9 18  2  0  0  0  0
 10 11  2  0  0  0  0
 10 28  1  0  0  0  0
 11 12  1  0  0  0  0
 11 29  1  0  0  0  0
 12 13  2  0  0  0  0
 12 30  1  0  0  0  0
 13 14  1  0  0  0  0
 13 18  1  0  0  0  0
 14 15  2  0  0  0  0
 14 31  1  0  0  0  0
 15 16  1  0  0  0  0
 15 32  1  0  0  0  0
 16 17  2  0  0  0  0
 16 33  1  0  0  0  0
 17 18  1  0  0  0  0
 19 20  1  0  0  0  0
 19 21  1  0  0  0  0
 20 34  1  0  0  0  0
 21 35  1  0  0  0  0
M  END
$$$$
