CHEMBL363304
 OpenBabel04072215373D

 71 73  0  0  1  0  0  0  0  0999 V2000
    1.4072    0.4894   -1.2620 C   0  0  0  0  0  0  0  0  0  0  0  0
    2.8095    0.3029   -1.1087 O   0  0  0  0  0  0  0  0  0  0  0  0
    3.2201   -0.9847   -0.8943 C   0  0  0  0  0  0  0  0  0  0  0  0
    2.5417   -2.1276   -1.3274 C   0  0  0  0  0  0  0  0  0  0  0  0
    3.0769   -3.3950   -1.0864 C   0  0  0  0  0  0  0  0  0  0  0  0
    2.5390   -4.5865   -1.4774 O   0  0  0  0  0  0  0  0  0  0  0  0
    1.3634   -4.5301   -2.2793 C   0  0  0  0  0  0  0  0  0  0  0  0
    4.2906   -3.5085   -0.4057 C   0  0  0  0  0  0  0  0  0  0  0  0
    4.9860   -2.3743    0.0373 C   0  0  0  0  0  0  0  0  0  0  0  0
    6.3394   -2.4967    0.7330 C   0  0  3  0  0  0  0  0  0  0  0  0
    7.4605   -2.4727   -0.3184 C   0  0  0  0  0  0  0  0  0  0  0  0
    8.2391   -3.7433   -0.4453 C   0  0  0  0  0  0  0  0  0  0  0  0
    9.2143   -3.8899   -1.4199 C   0  0  0  0  0  0  0  0  0  0  0  0
   10.0039   -4.9789   -1.5478 N   0  0  0  0  0  0  0  0  0  0  0  0
    9.8143   -5.9983   -0.6876 C   0  0  0  0  0  0  0  0  0  0  0  0
   10.6790   -7.1093   -0.7593 N   0  0  0  0  0  0  0  0  0  0  0  0
   12.1288   -6.9184   -0.8381 C   0  0  0  0  0  0  0  0  0  0  0  0
   12.7927   -5.5455   -0.7058 C   0  0  0  0  0  0  0  0  0  0  0  0
   12.6155   -4.8509    0.6371 C   0  0  0  0  0  0  0  0  0  0  0  0
   13.3683   -3.6385    0.6510 O   0  0  0  0  0  0  0  0  0  0  0  0
   10.2458   -8.4247   -0.9177 C   0  0  0  0  0  0  0  0  0  0  0  0
    8.7800   -8.7475   -1.1009 C   0  0  0  0  0  0  0  0  0  0  0  0
   11.0483   -9.3662   -0.9721 O   0  0  0  0  0  0  0  0  0  0  0  0
    8.8551   -5.9357    0.3160 C   0  0  0  0  0  0  0  0  0  0  0  0
    8.0620   -4.7965    0.4395 C   0  0  0  0  0  0  0  0  0  0  0  0
    7.1326   -4.7596    1.4831 N   0  0  0  0  0  0  0  0  0  0  0  0
    6.3784   -3.7197    1.6450 C   0  0  0  0  0  0  0  0  0  0  0  0
    5.4525   -3.6961    2.6784 N   0  0  0  0  0  0  0  0  0  0  0  0
    4.9114   -4.7421    3.3935 C   0  0  0  0  0  0  0  0  0  0  0  0
    4.1474   -4.5090    4.3262 O   0  0  0  0  0  0  0  0  0  0  0  0
    5.2173   -5.9879    2.9233 N   0  0  0  0  0  0  0  0  0  0  0  0
    4.7301   -7.2613    3.4495 C   0  0  0  0  0  0  0  0  0  0  0  0
    3.1995   -7.3513    3.3410 C   0  0  0  0  0  0  0  0  0  0  0  0
    5.3374   -8.3926    2.5963 C   0  0  0  0  0  0  0  0  0  0  0  0
    5.1758   -7.4541    4.9044 C   0  0  0  0  0  0  0  0  0  0  0  0
    4.4410   -1.1114   -0.2273 C   0  0  0  0  0  0  0  0  0  0  0  0
    1.2166    1.5658   -1.3148 H   0  0  0  0  0  0  0  0  0  0  0  0
    0.8657    0.0922   -0.3973 H   0  0  0  0  0  0  0  0  0  0  0  0
    1.0412    0.0478   -2.1939 H   0  0  0  0  0  0  0  0  0  0  0  0
    1.6122   -2.0270   -1.8715 H   0  0  0  0  0  0  0  0  0  0  0  0
    1.1364   -5.5483   -2.6096 H   0  0  0  0  0  0  0  0  0  0  0  0
    1.5187   -3.9206   -3.1760 H   0  0  0  0  0  0  0  0  0  0  0  0
    0.5120   -4.1661   -1.6952 H   0  0  0  0  0  0  0  0  0  0  0  0
    4.6839   -4.5094   -0.2342 H   0  0  0  0  0  0  0  0  0  0  0  0
    6.4505   -1.6205    1.3884 H   0  0  0  0  0  0  0  0  0  0  0  0
    8.1641   -1.6732   -0.0515 H   0  0  0  0  0  0  0  0  0  0  0  0
    7.0636   -2.2106   -1.3088 H   0  0  0  0  0  0  0  0  0  0  0  0
    9.4071   -3.1036   -2.1456 H   0  0  0  0  0  0  0  0  0  0  0  0
   12.4489   -7.3492   -1.7965 H   0  0  0  0  0  0  0  0  0  0  0  0
   12.5623   -7.5674   -0.0626 H   0  0  0  0  0  0  0  0  0  0  0  0
   12.5017   -4.8782   -1.5230 H   0  0  0  0  0  0  0  0  0  0  0  0
   13.8715   -5.6989   -0.8533 H   0  0  0  0  0  0  0  0  0  0  0  0
   12.9653   -5.4773    1.4633 H   0  0  0  0  0  0  0  0  0  0  0  0
   11.5765   -4.5806    0.8314 H   0  0  0  0  0  0  0  0  0  0  0  0
   14.2729   -3.8451    0.3597 H   0  0  0  0  0  0  0  0  0  0  0  0
    8.1031   -7.8991   -1.0543 H   0  0  0  0  0  0  0  0  0  0  0  0
    8.4902   -9.4688   -0.3304 H   0  0  0  0  0  0  0  0  0  0  0  0
    8.6504   -9.2099   -2.0850 H   0  0  0  0  0  0  0  0  0  0  0  0
    8.7534   -6.7374    1.0439 H   0  0  0  0  0  0  0  0  0  0  0  0
    5.0194   -2.8167    2.9249 H   0  0  0  0  0  0  0  0  0  0  0  0
    6.0016   -5.9983    2.2744 H   0  0  0  0  0  0  0  0  0  0  0  0
    2.8755   -7.2986    2.2947 H   0  0  0  0  0  0  0  0  0  0  0  0
    2.6991   -6.5382    3.8755 H   0  0  0  0  0  0  0  0  0  0  0  0
    2.8289   -8.2946    3.7579 H   0  0  0  0  0  0  0  0  0  0  0  0
    5.0683   -8.2804    1.5391 H   0  0  0  0  0  0  0  0  0  0  0  0
    4.9891   -9.3765    2.9299 H   0  0  0  0  0  0  0  0  0  0  0  0
    6.4325   -8.3862    2.6521 H   0  0  0  0  0  0  0  0  0  0  0  0
    4.7639   -6.6826    5.5625 H   0  0  0  0  0  0  0  0  0  0  0  0
    6.2678   -7.4059    4.9884 H   0  0  0  0  0  0  0  0  0  0  0  0
    4.8509   -8.4258    5.2924 H   0  0  0  0  0  0  0  0  0  0  0  0
    4.9659   -0.2074    0.0784 H   0  0  0  0  0  0  0  0  0  0  0  0
  1  2  1  0  0  0  0
  1 37  1  0  0  0  0
  1 38  1  0  0  0  0
  1 39  1  0  0  0  0
  2  3  1  0  0  0  0
  3  4  1  0  0  0  0
  3 36  2  0  0  0  0
  4  5  2  0  0  0  0
  4 40  1  0  0  0  0
  5  6  1  0  0  0  0
  5  8  1  0  0  0  0
  6  7  1  0  0  0  0
  7 41  1  0  0  0  0
  7 42  1  0  0  0  0
  7 43  1  0  0  0  0
  8  9  2  0  0  0  0
  8 44  1  0  0  0  0
  9 10  1  0  0  0  0
  9 36  1  0  0  0  0
 10 11  1  0  0  0  0
 10 27  1  0  0  0  0
 10 45  1  0  0  0  0
 11 12  1  0  0  0  0
 11 46  1  0  0  0  0
 11 47  1  0  0  0  0
 12 13  1  0  0  0  0
 12 25  2  0  0  0  0
 13 14  2  0  0  0  0
 13 48  1  0  0  0  0
 14 15  1  0  0  0  0
 15 16  1  0  0  0  0
 15 24  2  0  0  0  0
 16 17  1  0  0  0  0
 16 21  1  0  0  0  0
 17 18  1  0  0  0  0
 17 49  1  0  0  0  0
 17 50  1  0  0  0  0
 18 19  1  0  0  0  0
 18 51  1  0  0  0  0
 18 52  1  0  0  0  0
 19 20  1  0  0  0  0
 19 53  1  0  0  0  0
 19 54  1  0  0  0  0
 20 55  1  0  0  0  0
 21 22  1  0  0  0  0
 21 23  2  0  0  0  0
 22 56  1  0  0  0  0
 22 57  1  0  0  0  0
 22 58  1  0  0  0  0
 24 25  1  0  0  0  0
 24 59  1  0  0  0  0
 25 26  1  0  0  0  0
 26 27  2  0  0  0  0
 27 28  1  0  0  0  0
 28 29  1  0  0  0  0
 28 60  1  0  0  0  0
 29 30  2  0  0  0  0
 29 31  1  0  0  0  0
 31 32  1  0  0  0  0
 31 61  1  0  0  0  0
 32 33  1  0  0  0  0
 32 34  1  0  0  0  0
 32 35  1  0  0  0  0
 33 62  1  0  0  0  0
 33 63  1  0  0  0  0
 33 64  1  0  0  0  0
 34 65  1  0  0  0  0
 34 66  1  0  0  0  0
 34 67  1  0  0  0  0
 35 68  1  0  0  0  0
 35 69  1  0  0  0  0
 35 70  1  0  0  0  0
 36 71  1  0  0  0  0
M  END
$$$$
