CHEMBL1079846
 OpenBabel04072215353D

 61 65  0  0  0  0  0  0  0  0999 V2000
    6.5190    0.9007    4.5022 C   0  0  0  0  0  0  0  0  0  0  0  0
    5.7009    1.3365    3.4131 O   0  0  0  0  0  0  0  0  0  0  0  0
    4.6192    0.5357    3.1235 C   0  0  0  0  0  0  0  0  0  0  0  0
    4.2231   -0.5492    3.9320 C   0  0  0  0  0  0  0  0  0  0  0  0
    3.1016   -1.3221    3.6200 C   0  0  0  0  0  0  0  0  0  0  0  0
    2.3525   -1.0330    2.4854 C   0  0  0  0  0  0  0  0  0  0  0  0
    1.1155   -1.8116    2.1165 C   0  0  0  0  0  0  0  0  0  0  0  0
    0.8930   -2.8851    2.9261 F   0  0  0  0  0  0  0  0  0  0  0  0
   -0.0177   -1.0596    2.1795 F   0  0  0  0  0  0  0  0  0  0  0  0
    1.1687   -2.3087    0.8496 F   0  0  0  0  0  0  0  0  0  0  0  0
    2.7629    0.0293    1.6684 C   0  0  0  0  0  0  0  0  0  0  0  0
    3.8701    0.8454    1.9710 C   0  0  0  0  0  0  0  0  0  0  0  0
    4.2349    1.9446    1.1170 N   0  0  0  0  0  0  0  0  0  0  0  0
    3.3380    2.5263    0.2313 C   0  0  0  0  0  0  0  0  0  0  0  0
    2.1476    2.2257    0.2222 O   0  0  0  0  0  0  0  0  0  0  0  0
    3.8867    3.4406   -0.6573 N   0  0  0  0  0  0  0  0  0  0  0  0
    3.1053    4.1179   -1.6548 C   0  0  0  0  0  0  0  0  0  0  0  0
    1.7049    4.1846   -1.5898 C   0  0  0  0  0  0  0  0  0  0  0  0
    0.9368    4.7528   -2.6066 C   0  0  0  0  0  0  0  0  0  0  0  0
    1.5642    5.3328   -3.6948 C   0  0  0  0  0  0  0  0  0  0  0  0
    2.9623    5.3527   -3.7554 C   0  0  0  0  0  0  0  0  0  0  0  0
    3.6044    6.1048   -4.8412 C   0  0  0  0  0  0  0  0  0  0  0  0
    3.8174    5.5243   -6.0380 C   0  0  0  0  0  0  0  0  0  0  0  0
    4.4449    6.2759   -7.0102 N   0  0  0  0  0  0  0  0  0  0  0  0
    4.8702    5.9798   -8.2762 C   0  0  0  0  0  0  0  0  0  0  0  0
    5.5060    7.1230   -8.7166 C   0  0  0  0  0  0  0  0  0  0  0  0
    5.4456    8.1241   -7.7755 N   0  0  0  0  0  0  0  0  0  0  0  0
    4.8001    7.5755   -6.7667 C   0  0  0  0  0  0  0  0  0  0  0  0
    4.5003    8.1644   -5.4724 C   0  0  0  0  0  0  0  0  0  0  0  0
    4.8102    9.4805   -5.2040 N   0  0  0  0  0  0  0  0  0  0  0  0
    5.0652    9.9558   -3.8658 C   0  0  0  0  0  0  0  0  0  0  0  0
    6.5193    9.7882   -3.5116 C   0  0  0  0  0  0  0  0  0  0  0  0
    7.4418   10.8005   -3.7902 C   0  0  0  0  0  0  0  0  0  0  0  0
    8.7758   10.5930   -3.4724 C   0  0  0  0  0  0  0  0  0  0  0  0
    9.2468    9.4610   -2.9105 N   0  0  0  0  0  0  0  0  0  0  0  0
    8.3449    8.4854   -2.6661 C   0  0  0  0  0  0  0  0  0  0  0  0
    6.9931    8.5965   -2.9518 C   0  0  0  0  0  0  0  0  0  0  0  0
    3.9352    7.4182   -4.5518 N   0  0  0  0  0  0  0  0  0  0  0  0
    3.7335    4.7363   -2.7427 C   0  0  0  0  0  0  0  0  0  0  0  0
    7.3471    1.6046    4.6187 H   0  0  0  0  0  0  0  0  0  0  0  0
    6.9469   -0.0873    4.2946 H   0  0  0  0  0  0  0  0  0  0  0  0
    5.9637    0.8946    5.4482 H   0  0  0  0  0  0  0  0  0  0  0  0
    4.7618   -0.8250    4.8332 H   0  0  0  0  0  0  0  0  0  0  0  0
    2.8217   -2.1507    4.2685 H   0  0  0  0  0  0  0  0  0  0  0  0
    2.1722    0.1890    0.7696 H   0  0  0  0  0  0  0  0  0  0  0  0
    5.0493    2.4710    1.4083 H   0  0  0  0  0  0  0  0  0  0  0  0
    4.8886    3.4335   -0.7765 H   0  0  0  0  0  0  0  0  0  0  0  0
    1.1496    3.8048   -0.7408 H   0  0  0  0  0  0  0  0  0  0  0  0
   -0.1469    4.7495   -2.5232 H   0  0  0  0  0  0  0  0  0  0  0  0
    0.9619    5.8051   -4.4669 H   0  0  0  0  0  0  0  0  0  0  0  0
    3.5456    4.5054   -6.2805 H   0  0  0  0  0  0  0  0  0  0  0  0
    4.7205    5.0109   -8.7295 H   0  0  0  0  0  0  0  0  0  0  0  0
    6.0114    7.2749   -9.6623 H   0  0  0  0  0  0  0  0  0  0  0  0
    5.3730    9.9148   -5.9295 H   0  0  0  0  0  0  0  0  0  0  0  0
    4.4384    9.4484   -3.1157 H   0  0  0  0  0  0  0  0  0  0  0  0
    4.7951   11.0135   -3.8002 H   0  0  0  0  0  0  0  0  0  0  0  0
    7.1366   11.7365   -4.2461 H   0  0  0  0  0  0  0  0  0  0  0  0
    9.5230   11.3585   -3.6640 H   0  0  0  0  0  0  0  0  0  0  0  0
    8.7485    7.5792   -2.2234 H   0  0  0  0  0  0  0  0  0  0  0  0
    6.3187    7.7715   -2.7417 H   0  0  0  0  0  0  0  0  0  0  0  0
    4.8167    4.7610   -2.8234 H   0  0  0  0  0  0  0  0  0  0  0  0
  1  2  1  0  0  0  0
  1 40  1  0  0  0  0
  1 41  1  0  0  0  0
  1 42  1  0  0  0  0
  2  3  1  0  0  0  0
  3  4  1  0  0  0  0
  3 12  2  0  0  0  0
  4  5  2  0  0  0  0
  4 43  1  0  0  0  0
  5  6  1  0  0  0  0
  5 44  1  0  0  0  0
  6  7  1  0  0  0  0
  6 11  2  0  0  0  0
  7  8  1  0  0  0  0
  7  9  1  0  0  0  0
  7 10  1  0  0  0  0
 11 12  1  0  0  0  0
 11 45  1  0  0  0  0
 12 13  1  0  0  0  0
 13 14  1  0  0  0  0
 13 46  1  0  0  0  0
 14 15  2  0  0  0  0
 14 16  1  0  0  0  0
 16 17  1  0  0  0  0
 16 47  1  0  0  0  0
 17 18  1  0  0  0  0
 17 39  2  0  0  0  0
 18 19  2  0  0  0  0
 18 48  1  0  0  0  0
 19 20  1  0  0  0  0
 19 49  1  0  0  0  0
 20 21  2  0  0  0  0
 20 50  1  0  0  0  0
 21 22  1  0  0  0  0
 21 39  1  0  0  0  0
 22 23  2  0  0  0  0
 22 38  1  0  0  0  0
 23 24  1  0  0  0  0
 23 51  1  0  0  0  0
 24 25  1  0  0  0  0
 24 28  1  0  0  0  0
 25 26  2  0  0  0  0
 25 52  1  0  0  0  0
 26 27  1  0  0  0  0
 26 53  1  0  0  0  0
 27 28  2  0  0  0  0
 28 29  1  0  0  0  0
 29 30  1  0  0  0  0
 29 38  2  0  0  0  0
 30 31  1  0  0  0  0
 30 54  1  0  0  0  0
 31 32  1  0  0  0  0
 31 55  1  0  0  0  0
 31 56  1  0  0  0  0
 32 33  1  0  0  0  0
 32 37  2  0  0  0  0
 33 34  2  0  0  0  0
 33 57  1  0  0  0  0
 34 35  1  0  0  0  0
 34 58  1  0  0  0  0
 35 36  2  0  0  0  0
 36 37  1  0  0  0  0
 36 59  1  0  0  0  0
 37 60  1  0  0  0  0
 39 61  1  0  0  0  0
M  END
$$$$
