CHEMBL3967596
 OpenBabel04072215373D

 51 54  0  0  0  0  0  0  0  0999 V2000
    2.7202   -2.3503    2.4737 O   0  0  0  0  0  0  0  0  0  0  0  0
    2.3104   -1.5928    1.6041 C   0  0  0  0  0  0  0  0  0  0  0  0
    1.0046   -1.5812    1.1437 N   0  0  0  0  0  0  0  0  0  0  0  0
   -0.0123   -2.4442    1.6245 C   0  0  0  0  0  0  0  0  0  0  0  0
    0.0778   -3.1810    2.8060 C   0  0  0  0  0  0  0  0  0  0  0  0
   -0.8750   -4.0367    3.2554 N   0  0  0  0  0  0  0  0  0  0  0  0
   -1.9771   -4.1750    2.4960 C   0  0  0  0  0  0  0  0  0  0  0  0
   -2.1872   -3.4832    1.3131 C   0  0  0  0  0  0  0  0  0  0  0  0
   -3.4422   -3.7113    0.5309 C   0  0  0  0  0  0  0  0  0  0  0  0
   -4.2885   -4.6122    1.1031 F   0  0  0  0  0  0  0  0  0  0  0  0
   -4.1673   -2.5712    0.3674 F   0  0  0  0  0  0  0  0  0  0  0  0
   -3.1944   -4.1790   -0.7233 F   0  0  0  0  0  0  0  0  0  0  0  0
   -1.1866   -2.5919    0.8821 C   0  0  0  0  0  0  0  0  0  0  0  0
    3.1104   -0.6719    0.9599 N   0  0  0  0  0  0  0  0  0  0  0  0
    4.5233   -0.6150    1.0901 C   0  0  0  0  0  0  0  0  0  0  0  0
    5.2966   -1.6990    1.5190 C   0  0  0  0  0  0  0  0  0  0  0  0
    6.6892   -1.5973    1.5983 C   0  0  0  0  0  0  0  0  0  0  0  0
    7.3279   -0.4118    1.2392 C   0  0  0  0  0  0  0  0  0  0  0  0
    8.7021   -0.4071    1.3399 O   0  0  0  0  0  0  0  0  0  0  0  0
    9.4436    0.2723    0.3972 C   0  0  0  0  0  0  0  0  0  0  0  0
    9.0542    0.4245   -0.9291 C   0  0  0  0  0  0  0  0  0  0  0  0
    9.8640    1.1763   -1.7489 C   0  0  0  0  0  0  0  0  0  0  0  0
   11.0258    1.7173   -1.3446 N   0  0  0  0  0  0  0  0  0  0  0  0
   11.4382    1.5080   -0.0832 C   0  0  0  0  0  0  0  0  0  0  0  0
   12.6759    2.0215    0.3340 N   0  0  0  0  0  0  0  0  0  0  0  0
   13.4943    2.7910   -0.4656 C   0  0  0  0  0  0  0  0  0  0  0  0
   13.2793    3.1893   -1.6011 O   0  0  0  0  0  0  0  0  0  0  0  0
   14.8036    3.1341    0.1769 C   0  0  0  0  0  0  0  0  0  0  0  0
   15.7589    4.0849   -0.5127 C   0  0  0  0  0  0  0  0  0  0  0  0
   16.0786    2.6204   -0.4556 C   0  0  0  0  0  0  0  0  0  0  0  0
   10.6728    0.7828    0.8217 C   0  0  0  0  0  0  0  0  0  0  0  0
    6.5648    0.6932    0.8551 C   0  0  0  0  0  0  0  0  0  0  0  0
    5.1792    0.5720    0.7535 C   0  0  0  0  0  0  0  0  0  0  0  0
    4.4649    1.6272    0.3316 F   0  0  0  0  0  0  0  0  0  0  0  0
    0.8296   -1.0875    0.2803 H   0  0  0  0  0  0  0  0  0  0  0  0
    0.9305   -3.1213    3.4731 H   0  0  0  0  0  0  0  0  0  0  0  0
   -2.7049   -4.8841    2.8860 H   0  0  0  0  0  0  0  0  0  0  0  0
   -1.3290   -2.0460   -0.0481 H   0  0  0  0  0  0  0  0  0  0  0  0
    2.6691    0.1613    0.5909 H   0  0  0  0  0  0  0  0  0  0  0  0
    4.8467   -2.6520    1.7850 H   0  0  0  0  0  0  0  0  0  0  0  0
    7.2683   -2.4551    1.9329 H   0  0  0  0  0  0  0  0  0  0  0  0
    8.1423   -0.0046   -1.3249 H   0  0  0  0  0  0  0  0  0  0  0  0
    9.5993    1.3772   -2.7822 H   0  0  0  0  0  0  0  0  0  0  0  0
   12.9878    1.7919    1.2649 H   0  0  0  0  0  0  0  0  0  0  0  0
   14.7861    3.1952    1.2600 H   0  0  0  0  0  0  0  0  0  0  0  0
   16.3410    4.7615    0.1001 H   0  0  0  0  0  0  0  0  0  0  0  0
   15.4674    4.5026   -1.4719 H   0  0  0  0  0  0  0  0  0  0  0  0
   16.8832    2.3017    0.1945 H   0  0  0  0  0  0  0  0  0  0  0  0
   16.0012    2.0571   -1.3806 H   0  0  0  0  0  0  0  0  0  0  0  0
   11.0015    0.6163    1.8412 H   0  0  0  0  0  0  0  0  0  0  0  0
    7.0265    1.6452    0.6149 H   0  0  0  0  0  0  0  0  0  0  0  0
  1  2  2  0  0  0  0
  2  3  1  0  0  0  0
  2 14  1  0  0  0  0
  3  4  1  0  0  0  0
  3 35  1  0  0  0  0
  4  5  1  0  0  0  0
  4 13  2  0  0  0  0
  5  6  2  0  0  0  0
  5 36  1  0  0  0  0
  6  7  1  0  0  0  0
  7  8  2  0  0  0  0
  7 37  1  0  0  0  0
  8  9  1  0  0  0  0
  8 13  1  0  0  0  0
  9 10  1  0  0  0  0
  9 11  1  0  0  0  0
  9 12  1  0  0  0  0
 13 38  1  0  0  0  0
 14 15  1  0  0  0  0
 14 39  1  0  0  0  0
 15 16  1  0  0  0  0
 15 33  2  0  0  0  0
 16 17  2  0  0  0  0
 16 40  1  0  0  0  0
 17 18  1  0  0  0  0
 17 41  1  0  0  0  0
 18 19  1  0  0  0  0
 18 32  2  0  0  0  0
 19 20  1  0  0  0  0
 20 21  1  0  0  0  0
 20 31  2  0  0  0  0
 21 22  2  0  0  0  0
 21 42  1  0  0  0  0
 22 23  1  0  0  0  0
 22 43  1  0  0  0  0
 23 24  2  0  0  0  0
 24 25  1  0  0  0  0
 24 31  1  0  0  0  0
 25 26  1  0  0  0  0
 25 44  1  0  0  0  0
 26 27  2  0  0  0  0
 26 28  1  0  0  0  0
 28 29  1  0  0  0  0
 28 30  1  0  0  0  0
 28 45  1  0  0  0  0
 29 30  1  0  0  0  0
 29 46  1  0  0  0  0
 29 47  1  0  0  0  0
 30 48  1  0  0  0  0
 30 49  1  0  0  0  0
 31 50  1  0  0  0  0
 32 33  1  0  0  0  0
 32 51  1  0  0  0  0
 33 34  1  0  0  0  0
M  END
$$$$
