CHEMBL3754057
 OpenBabel04072215373D

 39 41  0  0  0  0  0  0  0  0999 V2000
    1.0902    0.2489    0.1632 O   0  0  0  0  0  0  0  0  0  0  0  0
    2.2699    0.0834   -0.1157 C   0  0  0  0  0  0  0  0  0  0  0  0
    2.9134    0.5819   -1.2247 N   0  0  0  0  0  0  0  0  0  0  0  0
    2.2475    1.2732   -2.2385 C   0  0  0  0  0  0  0  0  0  0  0  0
    1.3316    2.2815   -1.9790 C   0  0  0  0  0  0  0  0  0  0  0  0
    0.6825    2.8804   -3.0556 C   0  0  0  0  0  0  0  0  0  0  0  0
    0.9498    2.4368   -4.3450 C   0  0  0  0  0  0  0  0  0  0  0  0
    1.8964    1.4399   -4.5077 C   0  0  0  0  0  0  0  0  0  0  0  0
    2.5781    0.8761   -3.4886 N   0  0  0  0  0  0  0  0  0  0  0  0
    3.0286   -0.7906    0.6379 N   0  0  0  0  0  0  0  0  0  0  0  0
    4.4297   -0.8900    0.6568 C   0  0  0  0  0  0  0  0  0  0  0  0
    5.1797    0.2926    0.8027 C   0  0  0  0  0  0  0  0  0  0  0  0
    6.5733    0.2790    0.9866 C   0  0  0  0  0  0  0  0  0  0  0  0
    7.3207    1.5278    1.2256 C   0  0  0  0  0  0  0  0  0  0  0  0
    6.8109    2.5951    1.9570 C   0  0  0  0  0  0  0  0  0  0  0  0
    7.4495    3.7628    2.1775 N   0  0  0  0  0  0  0  0  0  0  0  0
    8.6713    3.8624    1.6408 C   0  0  0  0  0  0  0  0  0  0  0  0
    9.2962    2.9119    0.9353 N   0  0  0  0  0  0  0  0  0  0  0  0
    8.5990    1.7664    0.7470 C   0  0  0  0  0  0  0  0  0  0  0  0
    7.2060   -0.9719    0.9700 C   0  0  0  0  0  0  0  0  0  0  0  0
    6.4707   -2.1523    0.7982 C   0  0  0  0  0  0  0  0  0  0  0  0
    5.0810   -2.1243    0.6415 C   0  0  0  0  0  0  0  0  0  0  0  0
    4.5107   -3.3546    0.5105 O   0  0  0  0  0  0  0  0  0  0  0  0
    3.4702   -3.5387   -0.4429 C   0  0  0  0  0  0  0  0  0  0  0  0
    3.3047   -2.4997   -1.2858 F   0  0  0  0  0  0  0  0  0  0  0  0
    3.7586   -4.6281   -1.1890 F   0  0  0  0  0  0  0  0  0  0  0  0
    2.3151   -3.7694    0.2171 F   0  0  0  0  0  0  0  0  0  0  0  0
    3.6091   -0.0406   -1.6159 H   0  0  0  0  0  0  0  0  0  0  0  0
    1.1248    2.6054   -0.9650 H   0  0  0  0  0  0  0  0  0  0  0  0
   -0.0377    3.6759   -2.8860 H   0  0  0  0  0  0  0  0  0  0  0  0
    0.4331    2.8544   -5.2017 H   0  0  0  0  0  0  0  0  0  0  0  0
    2.1328    1.0477   -5.4921 H   0  0  0  0  0  0  0  0  0  0  0  0
    2.4750   -1.4771    1.1380 H   0  0  0  0  0  0  0  0  0  0  0  0
    4.6483    1.2441    0.8351 H   0  0  0  0  0  0  0  0  0  0  0  0
    5.8289    2.5419    2.4215 H   0  0  0  0  0  0  0  0  0  0  0  0
    9.2010    4.7995    1.7884 H   0  0  0  0  0  0  0  0  0  0  0  0
    9.1309    1.0246    0.1570 H   0  0  0  0  0  0  0  0  0  0  0  0
    8.2809   -1.0578    1.1191 H   0  0  0  0  0  0  0  0  0  0  0  0
    6.9950   -3.1061    0.7918 H   0  0  0  0  0  0  0  0  0  0  0  0
  1  2  2  0  0  0  0
  2  3  1  0  0  0  0
  2 10  1  0  0  0  0
  3  4  1  0  0  0  0
  3 28  1  0  0  0  0
  4  5  1  0  0  0  0
  4  9  2  0  0  0  0
  5  6  2  0  0  0  0
  5 29  1  0  0  0  0
  6  7  1  0  0  0  0
  6 30  1  0  0  0  0
  7  8  2  0  0  0  0
  7 31  1  0  0  0  0
  8  9  1  0  0  0  0
  8 32  1  0  0  0  0
 10 11  1  0  0  0  0
 10 33  1  0  0  0  0
 11 12  1  0  0  0  0
 11 22  2  0  0  0  0
 12 13  2  0  0  0  0
 12 34  1  0  0  0  0
 13 14  1  0  0  0  0
 13 20  1  0  0  0  0
 14 15  1  0  0  0  0
 14 19  2  0  0  0  0
 15 16  2  0  0  0  0
 15 35  1  0  0  0  0
 16 17  1  0  0  0  0
 17 18  2  0  0  0  0
 17 36  1  0  0  0  0
 18 19  1  0  0  0  0
 19 37  1  0  0  0  0
 20 21  2  0  0  0  0
 20 38  1  0  0  0  0
 21 22  1  0  0  0  0
 21 39  1  0  0  0  0
 22 23  1  0  0  0  0
 23 24  1  0  0  0  0
 24 25  1  0  0  0  0
 24 26  1  0  0  0  0
 24 27  1  0  0  0  0
M  END
$$$$
