CHEMBL387093
 OpenBabel04072215373D

 63 68  0  0  0  0  0  0  0  0999 V2000
   -0.5347    5.3804   -0.5435 Cl  0  0  0  0  0  0  0  0  0  0  0  0
    0.2068    4.0965   -1.4456 C   0  0  0  0  0  0  0  0  0  0  0  0
    1.1448    4.4943   -2.4227 C   0  0  0  0  0  0  0  0  0  0  0  0
    1.9374    3.5530   -3.0828 C   0  0  0  0  0  0  0  0  0  0  0  0
    1.8015    2.2370   -2.7026 C   0  0  0  0  0  0  0  0  0  0  0  0
    0.8760    1.8442   -1.7642 C   0  0  0  0  0  0  0  0  0  0  0  0
    0.0015    2.7340   -1.1520 C   0  0  0  0  0  0  0  0  0  0  0  0
   -0.9681    2.2159   -0.2740 N   0  0  0  0  0  0  0  0  0  0  0  0
   -2.2905    2.6442   -0.0398 C   0  0  0  0  0  0  0  0  0  0  0  0
   -2.8450    3.3780   -1.0410 N   0  0  0  0  0  0  0  0  0  0  0  0
   -4.1045    3.7467   -0.8806 C   0  0  0  0  0  0  0  0  0  0  0  0
   -4.8899    3.3886    0.1301 N   0  0  0  0  0  0  0  0  0  0  0  0
   -4.3362    2.6558    1.1004 C   0  0  0  0  0  0  0  0  0  0  0  0
   -5.2218    2.2949    2.1008 C   0  0  0  0  0  0  0  0  0  0  0  0
   -4.8071    1.5949    3.2187 C   0  0  0  0  0  0  0  0  0  0  0  0
   -5.7587    1.3484    4.1690 O   0  0  0  0  0  0  0  0  0  0  0  0
   -5.2356    1.0468    5.4682 C   0  0  0  0  0  0  0  0  0  0  0  0
   -6.2838    1.3317    6.5506 C   0  0  0  0  0  0  0  0  0  0  0  0
   -5.7422    1.1972    7.9213 N   0  0  0  0  0  0  0  0  0  0  0  0
   -5.2827   -0.1625    8.2469 C   0  0  0  0  0  0  0  0  0  0  0  0
   -6.5442   -0.8943    8.6480 C   0  0  0  0  0  0  0  0  0  0  0  0
   -7.2582    0.1518    9.4867 C   0  0  0  0  0  0  0  0  0  0  0  0
   -6.7862    1.4911    8.9241 C   0  0  0  0  0  0  0  0  0  0  0  0
   -3.4714    1.2121    3.3004 C   0  0  0  0  0  0  0  0  0  0  0  0
   -2.5018    1.5392    2.3267 C   0  0  0  0  0  0  0  0  0  0  0  0
   -1.1799    1.1837    2.6145 N   0  0  0  0  0  0  0  0  0  0  0  0
   -0.8224   -0.0457    3.3613 C   0  0  0  0  0  0  0  0  0  0  0  0
    0.1970    0.2701    4.4704 C   0  0  0  0  0  0  0  0  0  0  0  0
    1.3705    0.9019    3.9440 O   0  0  0  0  0  0  0  0  0  0  0  0
    1.0128    2.1558    3.3506 C   0  0  0  0  0  0  0  0  0  0  0  0
    0.0002    1.9780    2.2186 C   0  0  0  0  0  0  0  0  0  0  0  0
   -2.9783    2.2620    1.1517 C   0  0  0  0  0  0  0  0  0  0  0  0
    0.9330    0.4982   -1.5230 O   0  0  0  0  0  0  0  0  0  0  0  0
    2.0117    0.1081   -2.3967 C   0  0  0  0  0  0  0  0  0  0  0  0
    2.5308    1.1983   -3.1864 O   0  0  0  0  0  0  0  0  0  0  0  0
    1.2669    5.5493   -2.6563 H   0  0  0  0  0  0  0  0  0  0  0  0
    2.6499    3.8487   -3.8395 H   0  0  0  0  0  0  0  0  0  0  0  0
   -0.9008    1.2125   -0.1296 H   0  0  0  0  0  0  0  0  0  0  0  0
   -4.5323    4.3876   -1.6410 H   0  0  0  0  0  0  0  0  0  0  0  0
   -6.2684    2.5953    2.0252 H   0  0  0  0  0  0  0  0  0  0  0  0
   -4.3643    1.6760    5.6886 H   0  0  0  0  0  0  0  0  0  0  0  0
   -4.9490   -0.0099    5.4767 H   0  0  0  0  0  0  0  0  0  0  0  0
   -7.1712    0.7086    6.3845 H   0  0  0  0  0  0  0  0  0  0  0  0
   -6.6183    2.3683    6.4084 H   0  0  0  0  0  0  0  0  0  0  0  0
   -4.5997   -0.1007    9.1049 H   0  0  0  0  0  0  0  0  0  0  0  0
   -4.7287   -0.6694    7.4539 H   0  0  0  0  0  0  0  0  0  0  0  0
   -6.3417   -1.8139    9.2039 H   0  0  0  0  0  0  0  0  0  0  0  0
   -7.1425   -1.1549    7.7666 H   0  0  0  0  0  0  0  0  0  0  0  0
   -6.9467    0.0556   10.5326 H   0  0  0  0  0  0  0  0  0  0  0  0
   -8.3440    0.0331    9.4387 H   0  0  0  0  0  0  0  0  0  0  0  0
   -6.3473    2.0912    9.7295 H   0  0  0  0  0  0  0  0  0  0  0  0
   -7.6232    2.0718    8.5182 H   0  0  0  0  0  0  0  0  0  0  0  0
   -3.1547    0.6835    4.1901 H   0  0  0  0  0  0  0  0  0  0  0  0
   -0.3811   -0.7507    2.6486 H   0  0  0  0  0  0  0  0  0  0  0  0
   -1.6739   -0.5632    3.8109 H   0  0  0  0  0  0  0  0  0  0  0  0
    0.5155   -0.6582    4.9556 H   0  0  0  0  0  0  0  0  0  0  0  0
   -0.2391    0.9181    5.2405 H   0  0  0  0  0  0  0  0  0  0  0  0
    1.9274    2.5987    2.9389 H   0  0  0  0  0  0  0  0  0  0  0  0
    0.6285    2.8324    4.1200 H   0  0  0  0  0  0  0  0  0  0  0  0
    0.5252    1.4133    1.4365 H   0  0  0  0  0  0  0  0  0  0  0  0
   -0.2671    2.9791    1.8766 H   0  0  0  0  0  0  0  0  0  0  0  0
    1.6497   -0.6746   -3.0711 H   0  0  0  0  0  0  0  0  0  0  0  0
    2.8319   -0.3002   -1.7926 H   0  0  0  0  0  0  0  0  0  0  0  0
  1  2  1  0  0  0  0
  2  3  1  0  0  0  0
  2  7  2  0  0  0  0
  3  4  2  0  0  0  0
  3 36  1  0  0  0  0
  4  5  1  0  0  0  0
  4 37  1  0  0  0  0
  5  6  2  0  0  0  0
  5 35  1  0  0  0  0
  6  7  1  0  0  0  0
  6 33  1  0  0  0  0
  7  8  1  0  0  0  0
  8  9  1  0  0  0  0
  8 38  1  0  0  0  0
  9 10  1  0  0  0  0
  9 32  2  0  0  0  0
 10 11  2  0  0  0  0
 11 12  1  0  0  0  0
 11 39  1  0  0  0  0
 12 13  2  0  0  0  0
 13 14  1  0  0  0  0
 13 32  1  0  0  0  0
 14 15  2  0  0  0  0
 14 40  1  0  0  0  0
 15 16  1  0  0  0  0
 15 24  1  0  0  0  0
 16 17  1  0  0  0  0
 17 18  1  0  0  0  0
 17 41  1  0  0  0  0
 17 42  1  0  0  0  0
 18 19  1  0  0  0  0
 18 43  1  0  0  0  0
 18 44  1  0  0  0  0
 19 20  1  0  0  0  0
 19 23  1  0  0  0  0
 20 21  1  0  0  0  0
 20 45  1  0  0  0  0
 20 46  1  0  0  0  0
 21 22  1  0  0  0  0
 21 47  1  0  0  0  0
 21 48  1  0  0  0  0
 22 23  1  0  0  0  0
 22 49  1  0  0  0  0
 22 50  1  0  0  0  0
 23 51  1  0  0  0  0
 23 52  1  0  0  0  0
 24 25  2  0  0  0  0
 24 53  1  0  0  0  0
 25 26  1  0  0  0  0
 25 32  1  0  0  0  0
 26 27  1  0  0  0  0
 26 31  1  0  0  0  0
 27 28  1  0  0  0  0
 27 54  1  0  0  0  0
 27 55  1  0  0  0  0
 28 29  1  0  0  0  0
 28 56  1  0  0  0  0
 28 57  1  0  0  0  0
 29 30  1  0  0  0  0
 30 31  1  0  0  0  0
 30 58  1  0  0  0  0
 30 59  1  0  0  0  0
 31 60  1  0  0  0  0
 31 61  1  0  0  0  0
 33 34  1  0  0  0  0
 34 35  1  0  0  0  0
 34 62  1  0  0  0  0
 34 63  1  0  0  0  0
M  END
$$$$
