CHEMBL196020
 OpenBabel04072215363D

 50 53  0  0  0  0  0  0  0  0999 V2000
   -5.3170    3.1458    2.2302 C   0  0  0  0  0  0  0  0  0  0  0  0
   -4.2664    2.1203    1.9095 C   0  0  0  0  0  0  0  0  0  0  0  0
   -2.9134    2.4616    1.9725 C   0  0  0  0  0  0  0  0  0  0  0  0
   -1.9382    1.5187    1.6626 C   0  0  0  0  0  0  0  0  0  0  0  0
   -2.3036    0.2276    1.2809 C   0  0  0  0  0  0  0  0  0  0  0  0
   -3.6454   -0.1465    1.2184 C   0  0  0  0  0  0  0  0  0  0  0  0
   -4.0739   -1.4429    0.8523 N   0  0  0  0  0  0  0  0  0  0  0  0
   -3.2987   -2.4907    0.3723 C   0  0  0  0  0  0  0  0  0  0  0  0
   -2.0787   -2.4428    0.2448 O   0  0  0  0  0  0  0  0  0  0  0  0
   -4.0070   -3.6746    0.0875 N   0  0  0  0  0  0  0  0  0  0  0  0
   -3.2419   -4.8617   -0.2972 C   0  0  0  0  0  0  0  0  0  0  0  0
   -5.4145   -3.7751   -0.0703 C   0  0  0  0  0  0  0  0  0  0  0  0
   -6.1242   -2.8077   -0.7816 C   0  0  0  0  0  0  0  0  0  0  0  0
   -7.5190   -2.8423   -0.8187 C   0  0  0  0  0  0  0  0  0  0  0  0
   -8.2327   -3.9028   -0.2430 C   0  0  0  0  0  0  0  0  0  0  0  0
   -9.7057   -3.9116   -0.2182 C   0  0  0  0  0  0  0  0  0  0  0  0
  -10.4616   -3.5180   -1.3254 C   0  0  0  0  0  0  0  0  0  0  0  0
  -10.0773   -3.0618   -2.7021 C   0  0  0  0  0  0  0  0  0  0  0  0
  -12.1435   -3.5763   -1.0054 S   0  0  0  0  0  0  0  0  0  0  0  0
  -11.9055   -4.1677    0.5605 C   0  0  0  0  0  0  0  0  0  0  0  0
  -12.9795   -4.4376    1.3202 N   0  0  0  0  0  0  0  0  0  0  0  0
  -12.6512   -4.8991    2.5220 C   0  0  0  0  0  0  0  0  0  0  0  0
  -11.4189   -5.0817    3.0062 N   0  0  0  0  0  0  0  0  0  0  0  0
  -10.3622   -4.7818    2.2271 C   0  0  0  0  0  0  0  0  0  0  0  0
   -9.1343   -4.9757    2.8481 N   0  0  0  0  0  0  0  0  0  0  0  0
  -10.5693   -4.3077    0.9073 C   0  0  0  0  0  0  0  0  0  0  0  0
   -7.5001   -4.9377    0.3491 C   0  0  0  0  0  0  0  0  0  0  0  0
   -6.1099   -4.8551    0.4761 C   0  0  0  0  0  0  0  0  0  0  0  0
   -4.6249    0.8103    1.5398 C   0  0  0  0  0  0  0  0  0  0  0  0
   -4.8659    4.1090    2.4960 H   0  0  0  0  0  0  0  0  0  0  0  0
   -5.9227    2.8185    3.0808 H   0  0  0  0  0  0  0  0  0  0  0  0
   -5.9651    3.3129    1.3638 H   0  0  0  0  0  0  0  0  0  0  0  0
   -2.6068    3.4622    2.2655 H   0  0  0  0  0  0  0  0  0  0  0  0
   -0.8875    1.7837    1.7183 H   0  0  0  0  0  0  0  0  0  0  0  0
   -1.5040   -0.4699    1.0595 H   0  0  0  0  0  0  0  0  0  0  0  0
   -5.0569   -1.6285    0.9784 H   0  0  0  0  0  0  0  0  0  0  0  0
   -2.1637   -4.6853   -0.2791 H   0  0  0  0  0  0  0  0  0  0  0  0
   -3.5197   -5.1412   -1.3201 H   0  0  0  0  0  0  0  0  0  0  0  0
   -3.4589   -5.6904    0.3818 H   0  0  0  0  0  0  0  0  0  0  0  0
   -5.5997   -2.0158   -1.3134 H   0  0  0  0  0  0  0  0  0  0  0  0
   -8.0290   -2.0190   -1.3115 H   0  0  0  0  0  0  0  0  0  0  0  0
   -9.0235   -3.2259   -2.9342 H   0  0  0  0  0  0  0  0  0  0  0  0
  -10.2888   -1.9916   -2.8150 H   0  0  0  0  0  0  0  0  0  0  0  0
  -10.6462   -3.6043   -3.4649 H   0  0  0  0  0  0  0  0  0  0  0  0
  -13.4716   -5.1487    3.1866 H   0  0  0  0  0  0  0  0  0  0  0  0
   -9.2788   -5.1498    3.8378 H   0  0  0  0  0  0  0  0  0  0  0  0
   -8.4424   -4.2701    2.6336 H   0  0  0  0  0  0  0  0  0  0  0  0
   -8.0018   -5.8063    0.7725 H   0  0  0  0  0  0  0  0  0  0  0  0
   -5.5973   -5.6172    1.0585 H   0  0  0  0  0  0  0  0  0  0  0  0
   -5.6806    0.5526    1.4877 H   0  0  0  0  0  0  0  0  0  0  0  0
  1  2  1  0  0  0  0
  1 30  1  0  0  0  0
  1 31  1  0  0  0  0
  1 32  1  0  0  0  0
  2  3  1  0  0  0  0
  2 29  2  0  0  0  0
  3  4  2  0  0  0  0
  3 33  1  0  0  0  0
  4  5  1  0  0  0  0
  4 34  1  0  0  0  0
  5  6  2  0  0  0  0
  5 35  1  0  0  0  0
  6  7  1  0  0  0  0
  6 29  1  0  0  0  0
  7  8  1  0  0  0  0
  7 36  1  0  0  0  0
  8  9  2  0  0  0  0
  8 10  1  0  0  0  0
 10 11  1  0  0  0  0
 10 12  1  0  0  0  0
 11 37  1  0  0  0  0
 11 38  1  0  0  0  0
 11 39  1  0  0  0  0
 12 13  1  0  0  0  0
 12 28  2  0  0  0  0
 13 14  2  0  0  0  0
 13 40  1  0  0  0  0
 14 15  1  0  0  0  0
 14 41  1  0  0  0  0
 15 16  1  0  0  0  0
 15 27  2  0  0  0  0
 16 17  2  0  0  0  0
 16 26  1  0  0  0  0
 17 18  1  0  0  0  0
 17 19  1  0  0  0  0
 18 42  1  0  0  0  0
 18 43  1  0  0  0  0
 18 44  1  0  0  0  0
 19 20  1  0  0  0  0
 20 21  1  0  0  0  0
 20 26  2  0  0  0  0
 21 22  2  0  0  0  0
 22 23  1  0  0  0  0
 22 45  1  0  0  0  0
 23 24  2  0  0  0  0
 24 25  1  0  0  0  0
 24 26  1  0  0  0  0
 25 46  1  0  0  0  0
 25 47  1  0  0  0  0
 27 28  1  0  0  0  0
 27 48  1  0  0  0  0
 28 49  1  0  0  0  0
 29 50  1  0  0  0  0
M  END
$$$$
