CHEMBL170589
 OpenBabel04072215363D

 38 41  0  0  0  0  0  0  0  0999 V2000
    5.9571   -2.2694    0.3837 C   0  0  0  0  0  0  0  0  0  0  0  0
    4.5686   -2.2728    0.6970 O   0  0  0  0  0  0  0  0  0  0  0  0
    4.2326   -1.3512    1.6696 C   0  0  0  0  0  0  0  0  0  0  0  0
    2.8907   -1.2909    2.0136 C   0  0  0  0  0  0  0  0  0  0  0  0
    2.5001   -0.3785    2.9850 C   0  0  0  0  0  0  0  0  0  0  0  0
    3.4647    0.4261    3.5787 C   0  0  0  0  0  0  0  0  0  0  0  0
    4.7940    0.2786    3.1882 C   0  0  0  0  0  0  0  0  0  0  0  0
    5.8455    0.9828    3.9060 C   0  0  0  0  0  0  0  0  0  0  0  0
    5.8492    2.2614    4.4386 C   0  0  0  0  0  0  0  0  0  0  0  0
    6.8306    2.4219    5.3789 N   0  0  0  0  0  0  0  0  0  0  0  0
    7.4204    1.2484    5.4525 C   0  0  0  0  0  0  0  0  0  0  0  0
    8.3227    0.7217    6.4186 C   0  0  0  0  0  0  0  0  0  0  0  0
    8.7450   -0.5630    6.3247 C   0  0  0  0  0  0  0  0  0  0  0  0
    9.4294   -1.1450    7.4855 C   0  0  0  0  0  0  0  0  0  0  0  0
    8.6634   -1.7680    8.4858 C   0  0  0  0  0  0  0  0  0  0  0  0
    9.2860   -2.3396    9.5936 C   0  0  0  0  0  0  0  0  0  0  0  0
   10.6746   -2.2958    9.7058 C   0  0  0  0  0  0  0  0  0  0  0  0
   11.4387   -1.6830    8.7123 C   0  0  0  0  0  0  0  0  0  0  0  0
   10.8184   -1.1088    7.6005 C   0  0  0  0  0  0  0  0  0  0  0  0
    8.4057   -1.3626    5.1484 C   0  0  0  0  0  0  0  0  0  0  0  0
    7.5079   -0.8913    4.2698 C   0  0  0  0  0  0  0  0  0  0  0  0
    6.9571    0.3764    4.4673 N   0  0  0  0  0  0  0  0  0  0  0  0
    5.1939   -0.5909    2.2386 N   0  0  0  0  0  0  0  0  0  0  0  0
    6.1161   -2.9721   -0.4397 H   0  0  0  0  0  0  0  0  0  0  0  0
    6.5513   -2.6152    1.2364 H   0  0  0  0  0  0  0  0  0  0  0  0
    6.2911   -1.2820    0.0456 H   0  0  0  0  0  0  0  0  0  0  0  0
    2.1684   -1.9451    1.5394 H   0  0  0  0  0  0  0  0  0  0  0  0
    1.4614   -0.3072    3.2930 H   0  0  0  0  0  0  0  0  0  0  0  0
    3.1855    1.1169    4.3678 H   0  0  0  0  0  0  0  0  0  0  0  0
    5.1249    3.0469    4.2612 H   0  0  0  0  0  0  0  0  0  0  0  0
    8.5494    1.3411    7.2803 H   0  0  0  0  0  0  0  0  0  0  0  0
    7.5783   -1.8069    8.4037 H   0  0  0  0  0  0  0  0  0  0  0  0
    8.6903   -2.8180   10.3670 H   0  0  0  0  0  0  0  0  0  0  0  0
   11.1648   -2.7414   10.5690 H   0  0  0  0  0  0  0  0  0  0  0  0
   12.5208   -1.6495    8.8033 H   0  0  0  0  0  0  0  0  0  0  0  0
   11.4232   -0.6338    6.8327 H   0  0  0  0  0  0  0  0  0  0  0  0
    8.8526   -2.3454    5.0340 H   0  0  0  0  0  0  0  0  0  0  0  0
    7.1805   -1.4599    3.4116 H   0  0  0  0  0  0  0  0  0  0  0  0
  1  2  1  0  0  0  0
  1 24  1  0  0  0  0
  1 25  1  0  0  0  0
  1 26  1  0  0  0  0
  2  3  1  0  0  0  0
  3  4  1  0  0  0  0
  3 23  2  0  0  0  0
  4  5  2  0  0  0  0
  4 27  1  0  0  0  0
  5  6  1  0  0  0  0
  5 28  1  0  0  0  0
  6  7  2  0  0  0  0
  6 29  1  0  0  0  0
  7  8  1  0  0  0  0
  7 23  1  0  0  0  0
  8  9  2  0  0  0  0
  8 22  1  0  0  0  0
  9 10  1  0  0  0  0
  9 30  1  0  0  0  0
 10 11  2  0  0  0  0
 11 12  1  0  0  0  0
 11 22  1  0  0  0  0
 12 13  2  0  0  0  0
 12 31  1  0  0  0  0
 13 14  1  0  0  0  0
 13 20  1  0  0  0  0
 14 15  1  0  0  0  0
 14 19  2  0  0  0  0
 15 16  2  0  0  0  0
 15 32  1  0  0  0  0
 16 17  1  0  0  0  0
 16 33  1  0  0  0  0
 17 18  2  0  0  0  0
 17 34  1  0  0  0  0
 18 19  1  0  0  0  0
 18 35  1  0  0  0  0
 19 36  1  0  0  0  0
 20 21  2  0  0  0  0
 20 37  1  0  0  0  0
 21 22  1  0  0  0  0
 21 38  1  0  0  0  0
M  END
$$$$
