CHEMBL4443510
 OpenBabel04072215383D

 53 55  0  0  0  0  0  0  0  0999 V2000
    1.0210    0.1142   -0.1206 O   0  0  0  0  0  0  0  0  0  0  0  0
    2.2455    0.0453   -0.1198 C   0  0  0  0  0  0  0  0  0  0  0  0
    3.0088   -0.1973   -1.4141 C   0  0  0  0  0  0  0  0  0  0  0  0
    2.1891    0.2372   -2.6374 C   0  0  0  0  0  0  0  0  0  0  0  0
    3.1451   -0.0744   -4.1667 S   0  0  0  0  0  0  0  0  0  0  0  0
    2.0063    0.4293   -5.4349 C   0  0  0  0  0  0  0  0  0  0  0  0
    1.4347    2.0152   -5.4539 S   0  0  0  0  0  0  0  0  0  0  0  0
    1.6935   -0.5393   -6.4068 N   0  0  0  0  0  0  0  0  0  0  0  0
    2.5156   -1.7275   -6.6942 C   0  0  0  0  0  0  0  0  0  0  0  0
    3.0700   -1.6546   -8.1201 C   0  0  0  0  0  0  0  0  0  0  0  0
    1.9507   -1.4907   -9.1475 C   0  0  0  0  0  0  0  0  0  0  0  0
    1.0557   -0.3045   -8.7963 C   0  0  0  0  0  0  0  0  0  0  0  0
    0.5682   -0.3884   -7.3503 C   0  0  0  0  0  0  0  0  0  0  0  0
    3.0706    0.1411    1.0032 N   0  0  0  0  0  0  0  0  0  0  0  0
    2.6335    0.2628    2.3523 C   0  0  0  0  0  0  0  0  0  0  0  0
    1.3167   -0.0137    2.7228 C   0  0  0  0  0  0  0  0  0  0  0  0
    0.8977    0.1616    4.0364 C   0  0  0  0  0  0  0  0  0  0  0  0
    1.7989    0.5783    5.0077 C   0  0  0  0  0  0  0  0  0  0  0  0
    3.1463    0.7880    4.6974 C   0  0  0  0  0  0  0  0  0  0  0  0
    4.0990    1.1139    5.6973 N   0  0  0  0  0  0  0  0  0  0  0  0
    3.8971    1.0149    7.0730 C   0  0  0  0  0  0  0  0  0  0  0  0
    2.8656    0.6586    7.6352 O   0  0  0  0  0  0  0  0  0  0  0  0
    5.0864    1.3304    7.9284 C   0  0  0  0  0  0  0  0  0  0  0  0
    4.9688    1.1853    9.3113 C   0  0  0  0  0  0  0  0  0  0  0  0
    6.0785    1.4504   10.1051 C   0  0  0  0  0  0  0  0  0  0  0  0
    7.2591    1.8561    9.4968 C   0  0  0  0  0  0  0  0  0  0  0  0
    7.2804    1.9814    8.1117 C   0  0  0  0  0  0  0  0  0  0  0  0
    6.2250    1.7252    7.3022 N   0  0  0  0  0  0  0  0  0  0  0  0
    3.5537    0.6495    3.3535 C   0  0  0  0  0  0  0  0  0  0  0  0
    3.2193   -1.2741   -1.4639 H   0  0  0  0  0  0  0  0  0  0  0  0
    3.9591    0.3442   -1.3811 H   0  0  0  0  0  0  0  0  0  0  0  0
    1.9596    1.3041   -2.5519 H   0  0  0  0  0  0  0  0  0  0  0  0
    1.2409   -0.3088   -2.6909 H   0  0  0  0  0  0  0  0  0  0  0  0
    1.8739   -2.6089   -6.5790 H   0  0  0  0  0  0  0  0  0  0  0  0
    3.3546   -1.8429   -6.0090 H   0  0  0  0  0  0  0  0  0  0  0  0
    3.6479   -2.5592   -8.3424 H   0  0  0  0  0  0  0  0  0  0  0  0
    3.7570   -0.8023   -8.2015 H   0  0  0  0  0  0  0  0  0  0  0  0
    1.3493   -2.4079   -9.1792 H   0  0  0  0  0  0  0  0  0  0  0  0
    2.3788   -1.3545  -10.1472 H   0  0  0  0  0  0  0  0  0  0  0  0
    0.1973   -0.2755   -9.4790 H   0  0  0  0  0  0  0  0  0  0  0  0
    1.6186    0.6265   -8.9409 H   0  0  0  0  0  0  0  0  0  0  0  0
   -0.0683   -1.2743   -7.2270 H   0  0  0  0  0  0  0  0  0  0  0  0
   -0.0596    0.4729   -7.1170 H   0  0  0  0  0  0  0  0  0  0  0  0
    4.0629    0.2410    0.8450 H   0  0  0  0  0  0  0  0  0  0  0  0
    0.5859   -0.3868    2.0143 H   0  0  0  0  0  0  0  0  0  0  0  0
   -0.1361   -0.0323    4.3084 H   0  0  0  0  0  0  0  0  0  0  0  0
    1.4086    0.7361    6.0067 H   0  0  0  0  0  0  0  0  0  0  0  0
    5.0487    1.3460    5.4187 H   0  0  0  0  0  0  0  0  0  0  0  0
    4.0346    0.8636    9.7631 H   0  0  0  0  0  0  0  0  0  0  0  0
    6.0199    1.3383   11.1867 H   0  0  0  0  0  0  0  0  0  0  0  0
    8.1423    2.0690   10.0895 H   0  0  0  0  0  0  0  0  0  0  0  0
    8.1881    2.3015    7.6073 H   0  0  0  0  0  0  0  0  0  0  0  0
    4.5900    0.8398    3.0907 H   0  0  0  0  0  0  0  0  0  0  0  0
  1  2  2  0  0  0  0
  2  3  1  0  0  0  0
  2 14  1  0  0  0  0
  3  4  1  0  0  0  0
  3 30  1  0  0  0  0
  3 31  1  0  0  0  0
  4  5  1  0  0  0  0
  4 32  1  0  0  0  0
  4 33  1  0  0  0  0
  5  6  1  0  0  0  0
  6  7  2  0  0  0  0
  6  8  1  0  0  0  0
  8  9  1  0  0  0  0
  8 13  1  0  0  0  0
  9 10  1  0  0  0  0
  9 34  1  0  0  0  0
  9 35  1  0  0  0  0
 10 11  1  0  0  0  0
 10 36  1  0  0  0  0
 10 37  1  0  0  0  0
 11 12  1  0  0  0  0
 11 38  1  0  0  0  0
 11 39  1  0  0  0  0
 12 13  1  0  0  0  0
 12 40  1  0  0  0  0
 12 41  1  0  0  0  0
 13 42  1  0  0  0  0
 13 43  1  0  0  0  0
 14 15  1  0  0  0  0
 14 44  1  0  0  0  0
 15 16  1  0  0  0  0
 15 29  2  0  0  0  0
 16 17  2  0  0  0  0
 16 45  1  0  0  0  0
 17 18  1  0  0  0  0
 17 46  1  0  0  0  0
 18 19  2  0  0  0  0
 18 47  1  0  0  0  0
 19 20  1  0  0  0  0
 19 29  1  0  0  0  0
 20 21  1  0  0  0  0
 20 48  1  0  0  0  0
 21 22  2  0  0  0  0
 21 23  1  0  0  0  0
 23 24  1  0  0  0  0
 23 28  2  0  0  0  0
 24 25  2  0  0  0  0
 24 49  1  0  0  0  0
 25 26  1  0  0  0  0
 25 50  1  0  0  0  0
 26 27  2  0  0  0  0
 26 51  1  0  0  0  0
 27 28  1  0  0  0  0
 27 52  1  0  0  0  0
 29 53  1  0  0  0  0
M  END
$$$$
