CHEMBL514511
 OpenBabel04072215383D

 64 68  0  0  0  0  0  0  0  0999 V2000
    1.0112    0.0042    0.1805 C   0  0  0  0  0  0  0  0  0  0  0  0
    2.4706    0.0887    0.0401 N   0  0  0  0  0  0  0  0  0  0  0  0
    3.1232    1.1145   -0.6824 C   0  0  0  0  0  0  0  0  0  0  0  0
    4.3028    1.4397   -0.5329 O   0  0  0  0  0  0  0  0  0  0  0  0
    2.3778    1.9271   -1.6780 C   0  0  0  0  0  0  0  0  0  0  0  0
    2.7317    3.2770   -1.8462 C   0  0  0  0  0  0  0  0  0  0  0  0
    2.0258    4.0926   -2.7368 C   0  0  0  0  0  0  0  0  0  0  0  0
    0.9485    3.5576   -3.4497 C   0  0  0  0  0  0  0  0  0  0  0  0
    0.1163    4.3360   -4.4007 C   0  0  0  0  0  0  0  0  0  0  0  0
   -0.4317    3.7088   -5.3074 O   0  0  0  0  0  0  0  0  0  0  0  0
    0.0279    5.6974   -4.1938 N   0  0  0  0  0  0  0  0  0  0  0  0
   -0.7659    6.5906   -4.9531 C   0  0  0  0  0  0  0  0  0  0  0  0
   -1.8212    6.1540   -5.7624 C   0  0  0  0  0  0  0  0  0  0  0  0
   -2.6010    7.0664   -6.4702 C   0  0  0  0  0  0  0  0  0  0  0  0
   -2.3494    8.4279   -6.3528 C   0  0  0  0  0  0  0  0  0  0  0  0
   -1.3145    8.8780   -5.5298 C   0  0  0  0  0  0  0  0  0  0  0  0
   -0.4821    7.9690   -4.8641 C   0  0  0  0  0  0  0  0  0  0  0  0
    0.5344    8.4535   -4.0070 N   0  0  0  0  0  0  0  0  0  0  0  0
    0.6455    2.1935   -3.3285 C   0  0  0  0  0  0  0  0  0  0  0  0
    1.3872    1.3726   -2.4868 C   0  0  0  0  0  0  0  0  0  0  0  0
    3.2492   -0.8712    0.7904 C   0  0  0  0  0  0  0  0  0  0  0  0
    4.5749   -1.1511    0.4327 C   0  0  0  0  0  0  0  0  0  0  0  0
    5.3440   -2.0494    1.1619 C   0  0  0  0  0  0  0  0  0  0  0  0
    4.7936   -2.6955    2.2606 C   0  0  0  0  0  0  0  0  0  0  0  0
    3.4672   -2.4799    2.6441 C   0  0  0  0  0  0  0  0  0  0  0  0
    2.8530   -3.1910    3.6874 N   0  0  0  0  0  0  0  0  0  0  0  0
    3.2719   -4.3278    4.3695 C   0  0  0  0  0  0  0  0  0  0  0  0
    4.2722   -5.0695    3.8706 N   0  0  0  0  0  0  0  0  0  0  0  0
    4.6798   -6.1358    4.5613 C   0  0  0  0  0  0  0  0  0  0  0  0
    4.1081   -6.5107    5.7423 C   0  0  0  0  0  0  0  0  0  0  0  0
    3.0558   -5.7320    6.1870 C   0  0  0  0  0  0  0  0  0  0  0  0
    2.3127   -6.0768    7.4102 C   0  0  0  0  0  0  0  0  0  0  0  0
    2.9055   -6.7423    8.4960 C   0  0  0  0  0  0  0  0  0  0  0  0
    2.1411   -7.1386    9.5915 C   0  0  0  0  0  0  0  0  0  0  0  0
    0.7906   -6.8446    9.5869 C   0  0  0  0  0  0  0  0  0  0  0  0
    0.1768   -6.1776    8.5892 N   0  0  0  0  0  0  0  0  0  0  0  0
    0.9499   -5.8069    7.5358 C   0  0  0  0  0  0  0  0  0  0  0  0
    2.6268   -4.6442    5.5032 N   0  0  0  0  0  0  0  0  0  0  0  0
    2.7039   -1.5820    1.8796 C   0  0  0  0  0  0  0  0  0  0  0  0
    0.4791    0.8152   -0.3134 H   0  0  0  0  0  0  0  0  0  0  0  0
    0.7190    0.0837    1.2297 H   0  0  0  0  0  0  0  0  0  0  0  0
    0.6767   -0.9518   -0.2391 H   0  0  0  0  0  0  0  0  0  0  0  0
    3.5727    3.6903   -1.2891 H   0  0  0  0  0  0  0  0  0  0  0  0
    2.3510    5.1193   -2.8704 H   0  0  0  0  0  0  0  0  0  0  0  0
    0.5445    6.1347   -3.4424 H   0  0  0  0  0  0  0  0  0  0  0  0
   -2.0879    5.1043   -5.8338 H   0  0  0  0  0  0  0  0  0  0  0  0
   -3.4137    6.7056   -7.0952 H   0  0  0  0  0  0  0  0  0  0  0  0
   -2.9645    9.1390   -6.8970 H   0  0  0  0  0  0  0  0  0  0  0  0
   -1.1474    9.9473   -5.4391 H   0  0  0  0  0  0  0  0  0  0  0  0
    0.7683    9.4233   -4.2056 H   0  0  0  0  0  0  0  0  0  0  0  0
    1.3678    7.8759   -4.0593 H   0  0  0  0  0  0  0  0  0  0  0  0
   -0.1750    1.7621   -3.9001 H   0  0  0  0  0  0  0  0  0  0  0  0
    1.1626    0.3103   -2.4574 H   0  0  0  0  0  0  0  0  0  0  0  0
    5.0408   -0.6953   -0.4362 H   0  0  0  0  0  0  0  0  0  0  0  0
    6.3721   -2.2479    0.8735 H   0  0  0  0  0  0  0  0  0  0  0  0
    5.4375   -3.3672    2.8173 H   0  0  0  0  0  0  0  0  0  0  0  0
    2.0704   -2.7592    4.1568 H   0  0  0  0  0  0  0  0  0  0  0  0
    5.4964   -6.6925    4.1141 H   0  0  0  0  0  0  0  0  0  0  0  0
    4.4573   -7.3921    6.2596 H   0  0  0  0  0  0  0  0  0  0  0  0
    3.9701   -6.9630    8.5034 H   0  0  0  0  0  0  0  0  0  0  0  0
    2.5910   -7.6694   10.4228 H   0  0  0  0  0  0  0  0  0  0  0  0
    0.1485   -7.1466   10.4088 H   0  0  0  0  0  0  0  0  0  0  0  0
    0.4098   -5.2837    6.7494 H   0  0  0  0  0  0  0  0  0  0  0  0
    1.6714   -1.4424    2.1788 H   0  0  0  0  0  0  0  0  0  0  0  0
  1  2  1  0  0  0  0
  1 40  1  0  0  0  0
  1 41  1  0  0  0  0
  1 42  1  0  0  0  0
  2  3  1  0  0  0  0
  2 21  1  0  0  0  0
  3  4  2  0  0  0  0
  3  5  1  0  0  0  0
  5  6  1  0  0  0  0
  5 20  2  0  0  0  0
  6  7  2  0  0  0  0
  6 43  1  0  0  0  0
  7  8  1  0  0  0  0
  7 44  1  0  0  0  0
  8  9  1  0  0  0  0
  8 19  2  0  0  0  0
  9 10  2  0  0  0  0
  9 11  1  0  0  0  0
 11 12  1  0  0  0  0
 11 45  1  0  0  0  0
 12 13  1  0  0  0  0
 12 17  2  0  0  0  0
 13 14  2  0  0  0  0
 13 46  1  0  0  0  0
 14 15  1  0  0  0  0
 14 47  1  0  0  0  0
 15 16  2  0  0  0  0
 15 48  1  0  0  0  0
 16 17  1  0  0  0  0
 16 49  1  0  0  0  0
 17 18  1  0  0  0  0
 18 50  1  0  0  0  0
 18 51  1  0  0  0  0
 19 20  1  0  0  0  0
 19 52  1  0  0  0  0
 20 53  1  0  0  0  0
 21 22  1  0  0  0  0
 21 39  2  0  0  0  0
 22 23  2  0  0  0  0
 22 54  1  0  0  0  0
 23 24  1  0  0  0  0
 23 55  1  0  0  0  0
 24 25  2  0  0  0  0
 24 56  1  0  0  0  0
 25 26  1  0  0  0  0
 25 39  1  0  0  0  0
 26 27  1  0  0  0  0
 26 57  1  0  0  0  0
 27 28  1  0  0  0  0
 27 38  2  0  0  0  0
 28 29  2  0  0  0  0
 29 30  1  0  0  0  0
 29 58  1  0  0  0  0
 30 31  2  0  0  0  0
 30 59  1  0  0  0  0
 31 32  1  0  0  0  0
 31 38  1  0  0  0  0
 32 33  1  0  0  0  0
 32 37  2  0  0  0  0
 33 34  2  0  0  0  0
 33 60  1  0  0  0  0
 34 35  1  0  0  0  0
 34 61  1  0  0  0  0
 35 36  2  0  0  0  0
 35 62  1  0  0  0  0
 36 37  1  0  0  0  0
 37 63  1  0  0  0  0
 39 64  1  0  0  0  0
M  END
$$$$
