CHEMBL3907488
 OpenBabel04072215373D

 57 61  0  0  0  0  0  0  0  0999 V2000
    0.9494    4.6909    0.3303 C   0  0  0  0  0  0  0  0  0  0  0  0
    2.1349    4.6107   -0.4660 O   0  0  0  0  0  0  0  0  0  0  0  0
    2.9701    3.5490   -0.2297 C   0  0  0  0  0  0  0  0  0  0  0  0
    2.5603    2.3619    0.3971 C   0  0  0  0  0  0  0  0  0  0  0  0
    3.4613    1.3119    0.5276 C   0  0  0  0  0  0  0  0  0  0  0  0
    3.1750    0.0960    1.1009 O   0  0  0  0  0  0  0  0  0  0  0  0
    1.8756   -0.0474    1.6980 C   0  0  0  0  0  0  0  0  0  0  0  0
    1.7740   -1.4336    2.3294 C   0  0  0  0  0  0  0  0  0  0  0  0
    2.7407   -1.5826    3.3658 O   0  0  0  0  0  0  0  0  0  0  0  0
    4.7647    1.4578    0.0306 C   0  0  0  0  0  0  0  0  0  0  0  0
    5.2176    2.6383   -0.6091 C   0  0  0  0  0  0  0  0  0  0  0  0
    6.5319    2.7170   -1.1570 N   0  0  0  0  0  0  0  0  0  0  0  0
    6.9239    1.4630   -1.9698 C   0  0  0  0  0  0  0  0  0  0  0  0
    6.3896    1.3939   -3.4101 C   0  0  0  0  0  0  0  0  0  0  0  0
    6.4627    0.1510   -4.3020 C   0  0  0  0  0  0  0  0  0  0  0  0
    7.3923    1.2889   -4.5533 C   0  0  0  0  0  0  0  0  0  0  0  0
    7.4252    3.8346   -1.3223 C   0  0  0  0  0  0  0  0  0  0  0  0
    7.9409    4.0080   -2.6100 C   0  0  0  0  0  0  0  0  0  0  0  0
    9.2312    4.4043   -2.7669 C   0  0  0  0  0  0  0  0  0  0  0  0
    9.9664    4.9085   -1.7390 C   0  0  0  0  0  0  0  0  0  0  0  0
   11.2513    4.8865   -2.0217 N   0  0  0  0  0  0  0  0  0  0  0  0
   12.0042    5.7501   -1.3801 C   0  0  0  0  0  0  0  0  0  0  0  0
   11.4663    6.7578   -0.6134 C   0  0  0  0  0  0  0  0  0  0  0  0
   12.2622    8.0086   -0.8315 C   0  0  0  0  0  0  0  0  0  0  0  0
   13.0322    8.2629   -2.0354 C   0  0  0  0  0  0  0  0  0  0  0  0
   13.8550    9.3032   -1.9575 N   0  0  0  0  0  0  0  0  0  0  0  0
   13.6264    9.7699   -0.7285 N   0  0  0  0  0  0  0  0  0  0  0  0
   12.6826    9.0406   -0.0157 C   0  0  0  0  0  0  0  0  0  0  0  0
   10.1702    6.5929   -0.1107 N   0  0  0  0  0  0  0  0  0  0  0  0
    9.3480    5.4725   -0.6247 C   0  0  0  0  0  0  0  0  0  0  0  0
    8.0434    4.7158   -0.3648 C   0  0  0  0  0  0  0  0  0  0  0  0
    4.2883    3.6798   -0.7250 C   0  0  0  0  0  0  0  0  0  0  0  0
    0.3561    5.5426   -0.0234 H   0  0  0  0  0  0  0  0  0  0  0  0
    1.2060    4.8694    1.3785 H   0  0  0  0  0  0  0  0  0  0  0  0
    0.3067    3.8098    0.2298 H   0  0  0  0  0  0  0  0  0  0  0  0
    1.5523    2.2368    0.7418 H   0  0  0  0  0  0  0  0  0  0  0  0
    1.0952    0.0484    0.9340 H   0  0  0  0  0  0  0  0  0  0  0  0
    1.7491    0.7104    2.4803 H   0  0  0  0  0  0  0  0  0  0  0  0
    1.9517   -2.2192    1.5894 H   0  0  0  0  0  0  0  0  0  0  0  0
    0.7819   -1.5805    2.7693 H   0  0  0  0  0  0  0  0  0  0  0  0
    3.6004   -1.3507    2.9668 H   0  0  0  0  0  0  0  0  0  0  0  0
    5.4306    0.6123    0.1677 H   0  0  0  0  0  0  0  0  0  0  0  0
    6.6099    0.5407   -1.4708 H   0  0  0  0  0  0  0  0  0  0  0  0
    8.0192    1.3839   -1.9886 H   0  0  0  0  0  0  0  0  0  0  0  0
    5.4749    1.9632   -3.5379 H   0  0  0  0  0  0  0  0  0  0  0  0
    5.7110   -0.0062   -5.0767 H   0  0  0  0  0  0  0  0  0  0  0  0
    6.8972   -0.7773   -3.9491 H   0  0  0  0  0  0  0  0  0  0  0  0
    7.2349    1.9000   -5.4358 H   0  0  0  0  0  0  0  0  0  0  0  0
    8.4413    1.1005   -4.3430 H   0  0  0  0  0  0  0  0  0  0  0  0
    7.4099    3.6428   -3.4737 H   0  0  0  0  0  0  0  0  0  0  0  0
    9.7084    4.2831   -3.7401 H   0  0  0  0  0  0  0  0  0  0  0  0
   13.0322    5.7442   -1.7260 H   0  0  0  0  0  0  0  0  0  0  0  0
   13.0631    7.6763   -2.9496 H   0  0  0  0  0  0  0  0  0  0  0  0
   14.1829   10.5693   -0.4348 H   0  0  0  0  0  0  0  0  0  0  0  0
   12.4795    9.3331    0.9979 H   0  0  0  0  0  0  0  0  0  0  0  0
    7.5941    4.8038    0.6271 H   0  0  0  0  0  0  0  0  0  0  0  0
    4.5565    4.5898   -1.2540 H   0  0  0  0  0  0  0  0  0  0  0  0
  1  2  1  0  0  0  0
  1 33  1  0  0  0  0
  1 34  1  0  0  0  0
  1 35  1  0  0  0  0
  2  3  1  0  0  0  0
  3  4  1  0  0  0  0
  3 32  2  0  0  0  0
  4  5  2  0  0  0  0
  4 36  1  0  0  0  0
  5  6  1  0  0  0  0
  5 10  1  0  0  0  0
  6  7  1  0  0  0  0
  7  8  1  0  0  0  0
  7 37  1  0  0  0  0
  7 38  1  0  0  0  0
  8  9  1  0  0  0  0
  8 39  1  0  0  0  0
  8 40  1  0  0  0  0
  9 41  1  0  0  0  0
 10 11  2  0  0  0  0
 10 42  1  0  0  0  0
 11 12  1  0  0  0  0
 11 32  1  0  0  0  0
 12 13  1  0  0  0  0
 12 17  1  0  0  0  0
 13 14  1  0  0  0  0
 13 43  1  0  0  0  0
 13 44  1  0  0  0  0
 14 15  1  0  0  0  0
 14 16  1  0  0  0  0
 14 45  1  0  0  0  0
 15 16  1  0  0  0  0
 15 46  1  0  0  0  0
 15 47  1  0  0  0  0
 16 48  1  0  0  0  0
 16 49  1  0  0  0  0
 17 18  1  0  0  0  0
 17 31  2  0  0  0  0
 18 19  2  0  0  0  0
 18 50  1  0  0  0  0
 19 20  1  0  0  0  0
 19 51  1  0  0  0  0
 20 21  1  0  0  0  0
 20 30  2  0  0  0  0
 21 22  2  0  0  0  0
 22 23  1  0  0  0  0
 22 52  1  0  0  0  0
 23 24  1  0  0  0  0
 23 29  2  0  0  0  0
 24 25  1  0  0  0  0
 24 28  2  0  0  0  0
 25 26  2  0  0  0  0
 25 53  1  0  0  0  0
 26 27  1  0  0  0  0
 27 28  1  0  0  0  0
 27 54  1  0  0  0  0
 28 55  1  0  0  0  0
 29 30  1  0  0  0  0
 30 31  1  0  0  0  0
 31 56  1  0  0  0  0
 32 57  1  0  0  0  0
M  END
$$$$
