CHEMBL400398
 OpenBabel04072215373D

 43 47  0  0  0  0  0  0  0  0999 V2000
    1.0434   -0.3684    0.5795 C   0  0  0  0  0  0  0  0  0  0  0  0
    2.4241   -0.1365    0.2127 N   0  0  0  0  0  0  0  0  0  0  0  0
    3.0901    1.0375    0.4198 C   0  0  0  0  0  0  0  0  0  0  0  0
    4.3851    0.8854   -0.0202 C   0  0  0  0  0  0  0  0  0  0  0  0
    5.4202    1.8575    0.1452 C   0  0  0  0  0  0  0  0  0  0  0  0
    5.3819    3.1975    0.1700 C   0  0  0  0  0  0  0  0  0  0  0  0
    4.2669    4.1381   -0.1035 C   0  0  0  0  0  0  0  0  0  0  0  0
    3.0945    3.9195   -0.3296 O   0  0  0  0  0  0  0  0  0  0  0  0
    4.8851    5.3744   -0.0674 N   0  0  0  0  0  0  0  0  0  0  0  0
    6.2200    5.3579    0.2475 N   0  0  0  0  0  0  0  0  0  0  0  0
    6.5541    4.0991    0.4060 C   0  0  0  0  0  0  0  0  0  0  0  0
    7.8899    3.7179    0.7663 C   0  0  0  0  0  0  0  0  0  0  0  0
    8.1621    2.5645    2.0177 S   0  0  0  0  0  0  0  0  0  0  0  0
    9.8160    2.6560    1.9026 N   0  0  0  0  0  0  0  0  0  0  0  0
   10.2137    3.5639    1.0334 N   0  0  0  0  0  0  0  0  0  0  0  0
    9.1432    4.1994    0.3950 C   0  0  0  0  0  0  0  0  0  0  0  0
    9.4332    5.2784   -0.5500 C   0  0  0  0  0  0  0  0  0  0  0  0
    8.6274    5.5613   -1.6602 C   0  0  0  0  0  0  0  0  0  0  0  0
    8.9356    6.6235   -2.5165 C   0  0  0  0  0  0  0  0  0  0  0  0
   10.0748    7.3931   -2.2973 C   0  0  0  0  0  0  0  0  0  0  0  0
   10.9071    7.1043   -1.2204 C   0  0  0  0  0  0  0  0  0  0  0  0
   10.5860    6.0576   -0.3526 C   0  0  0  0  0  0  0  0  0  0  0  0
    4.5170   -0.4617   -0.5247 C   0  0  0  0  0  0  0  0  0  0  0  0
    5.5473   -1.2550   -1.1020 C   0  0  0  0  0  0  0  0  0  0  0  0
    7.2813   -0.5778   -1.4801 Br  0  0  0  0  0  0  0  0  0  0  0  0
    5.3073   -2.5960   -1.4402 C   0  0  0  0  0  0  0  0  0  0  0  0
    4.0600   -3.1676   -1.2296 C   0  0  0  0  0  0  0  0  0  0  0  0
    3.0193   -2.4172   -0.6859 C   0  0  0  0  0  0  0  0  0  0  0  0
    3.2653   -1.0747   -0.3425 C   0  0  0  0  0  0  0  0  0  0  0  0
    0.6171    0.5461    1.0003 H   0  0  0  0  0  0  0  0  0  0  0  0
    1.0171   -1.1646    1.3284 H   0  0  0  0  0  0  0  0  0  0  0  0
    0.4894   -0.6578   -0.3158 H   0  0  0  0  0  0  0  0  0  0  0  0
    2.5858    1.8743    0.8867 H   0  0  0  0  0  0  0  0  0  0  0  0
    6.3908    1.4000    0.2858 H   0  0  0  0  0  0  0  0  0  0  0  0
    4.4037    6.2499   -0.2413 H   0  0  0  0  0  0  0  0  0  0  0  0
    7.7443    4.9718   -1.8857 H   0  0  0  0  0  0  0  0  0  0  0  0
    8.2824    6.8474   -3.3560 H   0  0  0  0  0  0  0  0  0  0  0  0
   10.3155    8.2137   -2.9682 H   0  0  0  0  0  0  0  0  0  0  0  0
   11.8046    7.6938   -1.0508 H   0  0  0  0  0  0  0  0  0  0  0  0
   11.2493    5.8571    0.4887 H   0  0  0  0  0  0  0  0  0  0  0  0
    6.0987   -3.2025   -1.8748 H   0  0  0  0  0  0  0  0  0  0  0  0
    3.8906   -4.2085   -1.4956 H   0  0  0  0  0  0  0  0  0  0  0  0
    2.0450   -2.8698   -0.5282 H   0  0  0  0  0  0  0  0  0  0  0  0
  1  2  1  0  0  0  0
  1 30  1  0  0  0  0
  1 31  1  0  0  0  0
  1 32  1  0  0  0  0
  2  3  1  0  0  0  0
  2 29  1  0  0  0  0
  3  4  2  0  0  0  0
  3 33  1  0  0  0  0
  4  5  1  0  0  0  0
  4 23  1  0  0  0  0
  5  6  2  0  0  0  0
  5 34  1  0  0  0  0
  6  7  1  0  0  0  0
  6 11  1  0  0  0  0
  7  8  2  0  0  0  0
  7  9  1  0  0  0  0
  9 10  1  0  0  0  0
  9 35  1  0  0  0  0
 10 11  2  0  0  0  0
 11 12  1  0  0  0  0
 12 13  1  0  0  0  0
 12 16  2  0  0  0  0
 13 14  1  0  0  0  0
 14 15  2  0  0  0  0
 15 16  1  0  0  0  0
 16 17  1  0  0  0  0
 17 18  1  0  0  0  0
 17 22  2  0  0  0  0
 18 19  2  0  0  0  0
 18 36  1  0  0  0  0
 19 20  1  0  0  0  0
 19 37  1  0  0  0  0
 20 21  2  0  0  0  0
 20 38  1  0  0  0  0
 21 22  1  0  0  0  0
 21 39  1  0  0  0  0
 22 40  1  0  0  0  0
 23 24  1  0  0  0  0
 23 29  2  0  0  0  0
 24 25  1  0  0  0  0
 24 26  2  0  0  0  0
 26 27  1  0  0  0  0
 26 41  1  0  0  0  0
 27 28  2  0  0  0  0
 27 42  1  0  0  0  0
 28 29  1  0  0  0  0
 28 43  1  0  0  0  0
M  END
$$$$
