CHEMBL2348994
 OpenBabel04072215363D

 56 60  0  0  0  0  0  0  0  0999 V2000
   -2.3752    0.6062   -0.6296 C   0  0  0  0  0  0  0  0  0  0  0  0
   -1.0692    0.0093   -0.2535 C   0  0  0  0  0  0  0  0  0  0  0  0
   -0.6388   -1.3326   -0.3435 C   0  0  0  0  0  0  0  0  0  0  0  0
    0.6671   -1.3478    0.1335 C   0  0  0  0  0  0  0  0  0  0  0  0
    1.6206   -2.4258    0.2841 C   0  0  0  0  0  0  0  0  0  0  0  0
    2.7535   -2.2099    0.7142 O   0  0  0  0  0  0  0  0  0  0  0  0
    1.2124   -3.6920   -0.1259 N   0  0  0  0  0  0  0  0  0  0  0  0
    2.0166   -4.8566   -0.0163 C   0  0  0  0  0  0  0  0  0  0  0  0
    3.0973   -4.9307    0.8661 C   0  0  0  0  0  0  0  0  0  0  0  0
    3.9785   -6.0093    0.8412 C   0  0  0  0  0  0  0  0  0  0  0  0
    3.7857   -7.0655   -0.0521 C   0  0  0  0  0  0  0  0  0  0  0  0
    4.8293   -8.1427   -0.1036 C   0  0  0  0  0  0  0  0  0  0  0  0
    2.6274   -7.0564   -0.8443 C   0  0  0  0  0  0  0  0  0  0  0  0
    2.4480   -8.1000   -1.7898 O   0  0  0  0  0  0  0  0  0  0  0  0
    1.1748   -8.5336   -2.1476 C   0  0  0  0  0  0  0  0  0  0  0  0
    1.2312   -8.9885   -3.5606 C   0  0  0  0  0  0  0  0  0  0  0  0
    0.0601   -9.3179   -4.1258 C   0  0  0  0  0  0  0  0  0  0  0  0
   -1.1148   -9.2874   -3.3460 C   0  0  0  0  0  0  0  0  0  0  0  0
   -2.3621   -9.5594   -3.6531 N   0  0  0  0  0  0  0  0  0  0  0  0
   -3.0693   -9.4112   -2.4966 C   0  0  0  0  0  0  0  0  0  0  0  0
   -4.4265   -9.6192   -2.3952 N   0  0  0  0  0  0  0  0  0  0  0  0
   -5.2349   -9.9712   -3.4551 C   0  0  0  0  0  0  0  0  0  0  0  0
   -4.9097  -10.1578   -4.6185 O   0  0  0  0  0  0  0  0  0  0  0  0
   -6.6827  -10.0830   -3.0757 C   0  0  0  0  0  0  0  0  0  0  0  0
   -7.7059  -10.5931   -4.0692 C   0  0  0  0  0  0  0  0  0  0  0  0
   -7.6795   -9.1367   -3.7098 C   0  0  0  0  0  0  0  0  0  0  0  0
   -2.2426   -9.0323   -1.4620 C   0  0  0  0  0  0  0  0  0  0  0  0
   -0.9917   -8.9240   -2.0153 N   0  0  0  0  0  0  0  0  0  0  0  0
    0.1396   -8.5043   -1.3706 N   0  0  0  0  0  0  0  0  0  0  0  0
    1.7519   -5.9527   -0.8403 C   0  0  0  0  0  0  0  0  0  0  0  0
    0.9187   -0.0343    0.4883 N   0  0  0  0  0  0  0  0  0  0  0  0
    2.0954    0.5713    1.0634 C   0  0  0  0  0  0  0  0  0  0  0  0
   -0.1202    0.7927    0.2544 N   0  0  0  0  0  0  0  0  0  0  0  0
   -3.0463   -0.1446   -1.0588 H   0  0  0  0  0  0  0  0  0  0  0  0
   -2.2317    1.3993   -1.3686 H   0  0  0  0  0  0  0  0  0  0  0  0
   -2.8636    1.0398    0.2493 H   0  0  0  0  0  0  0  0  0  0  0  0
   -1.2155   -2.1653   -0.7159 H   0  0  0  0  0  0  0  0  0  0  0  0
    0.3765   -3.7573   -0.6917 H   0  0  0  0  0  0  0  0  0  0  0  0
    3.3046   -4.1459    1.5865 H   0  0  0  0  0  0  0  0  0  0  0  0
    4.8391   -5.9886    1.5062 H   0  0  0  0  0  0  0  0  0  0  0  0
    5.7552   -7.8042    0.3796 H   0  0  0  0  0  0  0  0  0  0  0  0
    5.0929   -8.3876   -1.1365 H   0  0  0  0  0  0  0  0  0  0  0  0
    4.4872   -9.0375    0.4219 H   0  0  0  0  0  0  0  0  0  0  0  0
    2.1704   -8.9988   -4.0916 H   0  0  0  0  0  0  0  0  0  0  0  0
   -0.0134   -9.6215   -5.1635 H   0  0  0  0  0  0  0  0  0  0  0  0
   -4.8421   -9.4819   -1.4847 H   0  0  0  0  0  0  0  0  0  0  0  0
   -6.8652  -10.3652   -2.0436 H   0  0  0  0  0  0  0  0  0  0  0  0
   -8.5278  -11.1934   -3.6983 H   0  0  0  0  0  0  0  0  0  0  0  0
   -7.3682  -10.8765   -5.0614 H   0  0  0  0  0  0  0  0  0  0  0  0
   -8.4839   -8.7510   -3.0959 H   0  0  0  0  0  0  0  0  0  0  0  0
   -7.3245   -8.4455   -4.4671 H   0  0  0  0  0  0  0  0  0  0  0  0
   -2.4088   -8.8258   -0.4163 H   0  0  0  0  0  0  0  0  0  0  0  0
    0.9106   -5.9264   -1.5229 H   0  0  0  0  0  0  0  0  0  0  0  0
    2.9072   -0.1299    1.2167 H   0  0  0  0  0  0  0  0  0  0  0  0
    1.8161    1.0006    2.0302 H   0  0  0  0  0  0  0  0  0  0  0  0
    2.4373    1.3592    0.3857 H   0  0  0  0  0  0  0  0  0  0  0  0
  1  2  1  0  0  0  0
  1 34  1  0  0  0  0
  1 35  1  0  0  0  0
  1 36  1  0  0  0  0
  2  3  1  0  0  0  0
  2 33  2  0  0  0  0
  3  4  2  0  0  0  0
  3 37  1  0  0  0  0
  4  5  1  0  0  0  0
  4 31  1  0  0  0  0
  5  6  2  0  0  0  0
  5  7  1  0  0  0  0
  7  8  1  0  0  0  0
  7 38  1  0  0  0  0
  8  9  1  0  0  0  0
  8 30  2  0  0  0  0
  9 10  2  0  0  0  0
  9 39  1  0  0  0  0
 10 11  1  0  0  0  0
 10 40  1  0  0  0  0
 11 12  1  0  0  0  0
 11 13  2  0  0  0  0
 12 41  1  0  0  0  0
 12 42  1  0  0  0  0
 12 43  1  0  0  0  0
 13 14  1  0  0  0  0
 13 30  1  0  0  0  0
 14 15  1  0  0  0  0
 15 16  1  0  0  0  0
 15 29  2  0  0  0  0
 16 17  2  0  0  0  0
 16 44  1  0  0  0  0
 17 18  1  0  0  0  0
 17 45  1  0  0  0  0
 18 19  2  0  0  0  0
 18 28  1  0  0  0  0
 19 20  1  0  0  0  0
 20 21  1  0  0  0  0
 20 27  2  0  0  0  0
 21 22  1  0  0  0  0
 21 46  1  0  0  0  0
 22 23  2  0  0  0  0
 22 24  1  0  0  0  0
 24 25  1  0  0  0  0
 24 26  1  0  0  0  0
 24 47  1  0  0  0  0
 25 26  1  0  0  0  0
 25 48  1  0  0  0  0
 25 49  1  0  0  0  0
 26 50  1  0  0  0  0
 26 51  1  0  0  0  0
 27 28  1  0  0  0  0
 27 52  1  0  0  0  0
 28 29  1  0  0  0  0
 30 53  1  0  0  0  0
 31 32  1  0  0  0  0
 31 33  1  0  0  0  0
 32 54  1  0  0  0  0
 32 55  1  0  0  0  0
 32 56  1  0  0  0  0
M  END
$$$$
