CHEMBL3656053
 OpenBabel04072215373D

 59 63  0  0  1  0  0  0  0  0999 V2000
   -0.4014    0.9289    2.4144 C   0  0  0  0  0  0  0  0  0  0  0  0
   -1.6184    0.9515    1.5615 C   0  0  0  0  0  0  0  0  0  0  0  0
   -2.2542    2.0993    1.0133 C   0  0  0  0  0  0  0  0  0  0  0  0
   -3.3287    1.6433    0.2908 C   0  0  0  0  0  0  0  0  0  0  0  0
   -3.4048    0.2899    0.3488 O   0  0  0  0  0  0  0  0  0  0  0  0
   -2.3664   -0.1405    1.1349 C   0  0  0  0  0  0  0  0  0  0  0  0
   -2.2125   -1.5628    1.3936 C   0  0  0  0  0  0  0  0  0  0  0  0
   -1.3392   -1.9871    2.1447 O   0  0  0  0  0  0  0  0  0  0  0  0
   -3.1109   -2.3574    0.6904 N   0  0  0  0  0  0  0  0  0  0  0  0
   -3.2003   -3.7659    0.7237 C   0  0  0  0  0  0  0  0  0  0  0  0
   -2.5420   -4.5420    1.6831 C   0  0  0  0  0  0  0  0  0  0  0  0
   -2.5705   -5.9343    1.6200 C   0  0  0  0  0  0  0  0  0  0  0  0
   -3.2792   -6.5704    0.6081 C   0  0  0  0  0  0  0  0  0  0  0  0
   -4.0429   -5.8174   -0.2857 C   0  0  0  0  0  0  0  0  0  0  0  0
   -4.8324   -6.3687   -1.2736 O   0  0  0  0  0  0  0  0  0  0  0  0
   -5.3984   -7.6126   -1.0856 C   0  0  0  0  0  0  0  0  0  0  0  0
   -5.8887   -8.0777    0.1315 C   0  0  0  0  0  0  0  0  0  0  0  0
   -6.4057   -9.3606    0.1796 C   0  0  0  0  0  0  0  0  0  0  0  0
   -6.5165  -10.1687   -0.8963 N   0  0  0  0  0  0  0  0  0  0  0  0
   -6.0965   -9.6655   -2.0831 C   0  0  0  0  0  0  0  0  0  0  0  0
   -6.3140  -10.5497   -3.2212 C   0  0  0  0  0  0  0  0  0  0  0  0
   -6.0576  -10.3975   -4.5710 C   0  0  0  0  0  0  0  0  0  0  0  0
   -6.4866  -11.5686   -5.2662 C   0  0  0  0  0  0  0  0  0  0  0  0
   -6.3623  -11.7685   -6.7089 C   0  0  0  0  0  0  0  0  0  0  0  0
   -6.3880  -10.8033   -7.4736 O   0  0  0  0  0  0  0  0  0  0  0  0
   -6.1274  -13.0487   -7.1913 N   0  0  0  0  0  0  0  0  0  0  0  0
   -5.7798  -13.2348   -8.5903 C   0  0  0  0  0  0  0  0  0  0  0  0
   -5.3438  -14.6872   -8.7193 C   0  0  0  0  0  0  0  0  0  0  0  0
   -4.9570  -15.0884   -7.3003 C   0  0  2  0  0  0  0  0  0  0  0  0
   -5.0976  -16.4840   -7.0944 O   0  0  0  0  0  0  0  0  0  0  0  0
   -5.9033  -14.2657   -6.4331 C   0  0  0  0  0  0  0  0  0  0  0  0
   -7.0507  -12.3873   -4.3028 C   0  0  0  0  0  0  0  0  0  0  0  0
   -6.8958  -11.7886   -3.0789 N   0  0  0  0  0  0  0  0  0  0  0  0
   -5.5314   -8.4052   -2.2203 C   0  0  0  0  0  0  0  0  0  0  0  0
   -3.9795   -4.4157   -0.2451 C   0  0  0  0  0  0  0  0  0  0  0  0
    0.0074    1.9365    2.5426 H   0  0  0  0  0  0  0  0  0  0  0  0
    0.3779    0.3084    1.9599 H   0  0  0  0  0  0  0  0  0  0  0  0
   -0.6316    0.5300    3.4073 H   0  0  0  0  0  0  0  0  0  0  0  0
   -1.9598    3.1332    1.1350 H   0  0  0  0  0  0  0  0  0  0  0  0
   -4.0968    2.1323   -0.2920 H   0  0  0  0  0  0  0  0  0  0  0  0
   -3.6881   -1.8625    0.0221 H   0  0  0  0  0  0  0  0  0  0  0  0
   -1.9926   -4.0918    2.4995 H   0  0  0  0  0  0  0  0  0  0  0  0
   -2.0355   -6.5176    2.3628 H   0  0  0  0  0  0  0  0  0  0  0  0
   -3.2387   -7.6546    0.5467 H   0  0  0  0  0  0  0  0  0  0  0  0
   -5.8571   -7.4750    1.0314 H   0  0  0  0  0  0  0  0  0  0  0  0
   -6.7572   -9.7834    1.1167 H   0  0  0  0  0  0  0  0  0  0  0  0
   -5.5985   -9.5350   -5.0385 H   0  0  0  0  0  0  0  0  0  0  0  0
   -4.9724  -12.5442   -8.8576 H   0  0  0  0  0  0  0  0  0  0  0  0
   -6.6518  -13.0126   -9.2137 H   0  0  0  0  0  0  0  0  0  0  0  0
   -4.5075  -14.8042   -9.4161 H   0  0  0  0  0  0  0  0  0  0  0  0
   -6.1647  -15.3080   -9.0952 H   0  0  0  0  0  0  0  0  0  0  0  0
   -3.9193  -14.8031   -7.0924 H   0  0  0  0  0  0  0  0  0  0  0  0
   -6.0057  -16.7400   -7.3315 H   0  0  0  0  0  0  0  0  0  0  0  0
   -5.4700  -14.0869   -5.4472 H   0  0  0  0  0  0  0  0  0  0  0  0
   -6.8719  -14.7652   -6.3117 H   0  0  0  0  0  0  0  0  0  0  0  0
   -7.5415  -13.3477   -4.3707 H   0  0  0  0  0  0  0  0  0  0  0  0
   -7.1853  -12.1617   -2.1825 H   0  0  0  0  0  0  0  0  0  0  0  0
   -5.2034   -8.0365   -3.1848 H   0  0  0  0  0  0  0  0  0  0  0  0
   -4.5239   -3.8474   -0.9955 H   0  0  0  0  0  0  0  0  0  0  0  0
  1  2  1  0  0  0  0
  1 36  1  0  0  0  0
  1 37  1  0  0  0  0
  1 38  1  0  0  0  0
  2  3  1  0  0  0  0
  2  6  2  0  0  0  0
  3  4  2  0  0  0  0
  3 39  1  0  0  0  0
  4  5  1  0  0  0  0
  4 40  1  0  0  0  0
  5  6  1  0  0  0  0
  6  7  1  0  0  0  0
  7  8  2  0  0  0  0
  7  9  1  0  0  0  0
  9 10  1  0  0  0  0
  9 41  1  0  0  0  0
 10 11  1  0  0  0  0
 10 35  2  0  0  0  0
 11 12  2  0  0  0  0
 11 42  1  0  0  0  0
 12 13  1  0  0  0  0
 12 43  1  0  0  0  0
 13 14  2  0  0  0  0
 13 44  1  0  0  0  0
 14 15  1  0  0  0  0
 14 35  1  0  0  0  0
 15 16  1  0  0  0  0
 16 17  1  0  0  0  0
 16 34  2  0  0  0  0
 17 18  2  0  0  0  0
 17 45  1  0  0  0  0
 18 19  1  0  0  0  0
 18 46  1  0  0  0  0
 19 20  2  0  0  0  0
 20 21  1  0  0  0  0
 20 34  1  0  0  0  0
 21 22  2  0  0  0  0
 21 33  1  0  0  0  0
 22 23  1  0  0  0  0
 22 47  1  0  0  0  0
 23 24  1  0  0  0  0
 23 32  2  0  0  0  0
 24 25  2  0  0  0  0
 24 26  1  0  0  0  0
 26 27  1  0  0  0  0
 26 31  1  0  0  0  0
 27 28  1  0  0  0  0
 27 48  1  0  0  0  0
 27 49  1  0  0  0  0
 28 29  1  0  0  0  0
 28 50  1  0  0  0  0
 28 51  1  0  0  0  0
 29 30  1  0  0  0  0
 29 31  1  0  0  0  0
 29 52  1  1  0  0  0
 30 53  1  0  0  0  0
 31 54  1  0  0  0  0
 31 55  1  0  0  0  0
 32 33  1  0  0  0  0
 32 56  1  0  0  0  0
 33 57  1  0  0  0  0
 34 58  1  0  0  0  0
 35 59  1  0  0  0  0
M  END
$$$$
