CHEMBL3963696
 OpenBabel04072215373D

 69 71  0  0  0  0  0  0  0  0999 V2000
   15.9648    4.6144   -4.9800 C   0  0  0  0  0  0  0  0  0  0  0  0
   15.3056    4.6960   -3.7153 O   0  0  0  0  0  0  0  0  0  0  0  0
   14.2374    3.8612   -3.5989 C   0  0  0  0  0  0  0  0  0  0  0  0
   13.8487    3.0806   -4.4568 O   0  0  0  0  0  0  0  0  0  0  0  0
   13.5919    4.0112   -2.2461 C   0  0  0  0  0  0  0  0  0  0  0  0
   14.1863    3.0369   -1.2339 C   0  0  0  0  0  0  0  0  0  0  0  0
   13.5541    3.1548    0.1601 C   0  0  0  0  0  0  0  0  0  0  0  0
   12.0533    2.8647    0.1658 C   0  0  0  0  0  0  0  0  0  0  0  0
   11.3341    2.9475    1.8048 S   0  0  3  0  0  0  0  0  0  0  0  0
    9.6225    2.5585    1.4666 C   0  0  0  0  0  0  0  0  0  0  0  0
   11.8921    1.8375    2.5553 O   0  0  0  0  0  0  0  0  0  0  0  0
   11.3953    4.4160    2.2707 N   0  0  0  0  0  0  0  0  0  0  0  0
   10.9581    4.7632    3.5677 C   0  0  0  0  0  0  0  0  0  0  0  0
   10.0775    4.1382    4.1529 O   0  0  0  0  0  0  0  0  0  0  0  0
   11.4716    5.9859    4.2443 C   0  0  0  0  0  0  0  0  0  0  0  0
   10.9883    6.3434    5.4974 C   0  0  0  0  0  0  0  0  0  0  0  0
   11.3739    7.4605    6.1687 N   0  0  0  0  0  0  0  0  0  0  0  0
   12.2806    8.2638    5.5761 C   0  0  0  0  0  0  0  0  0  0  0  0
   12.5445    9.4597    6.2404 N   0  0  0  0  0  0  0  0  0  0  0  0
   12.8353    7.9713    4.3239 C   0  0  0  0  0  0  0  0  0  0  0  0
   13.8092    8.8261    3.7105 C   0  0  0  0  0  0  0  0  0  0  0  0
   14.6163    9.5417    3.1881 C   0  0  0  0  0  0  0  0  0  0  0  0
   15.5355   10.4070    2.5100 C   0  0  0  0  0  0  0  0  0  0  0  0
   15.3804   11.7919    2.6036 C   0  0  0  0  0  0  0  0  0  0  0  0
   16.2200   12.6295    1.8773 C   0  0  0  0  0  0  0  0  0  0  0  0
   17.2076   12.0854    1.0559 C   0  0  0  0  0  0  0  0  0  0  0  0
   17.3937   10.7027    0.9679 C   0  0  0  0  0  0  0  0  0  0  0  0
   18.3803   10.1204    0.1339 N   0  0  0  0  0  0  0  0  0  0  0  0
   19.4386   10.8059   -0.4495 C   0  0  0  0  0  0  0  0  0  0  0  0
   19.7176   11.9867   -0.2832 O   0  0  0  0  0  0  0  0  0  0  0  0
   20.3595   10.0209   -1.3167 C   0  0  0  0  0  0  0  0  0  0  0  0
   19.9400    8.9140   -2.0502 C   0  0  0  0  0  0  0  0  0  0  0  0
   20.8578    8.2445   -2.8632 C   0  0  0  0  0  0  0  0  0  0  0  0
   22.1968    8.6588   -2.9431 C   0  0  0  0  0  0  0  0  0  0  0  0
   23.2176    7.7265   -3.9740 Cl  0  0  0  0  0  0  0  0  0  0  0  0
   22.6407    9.7681   -2.2179 C   0  0  0  0  0  0  0  0  0  0  0  0
   24.0654   10.2670   -2.2073 C   0  0  0  0  0  0  0  0  0  0  0  0
   24.9537    9.5644   -2.9567 F   0  0  0  0  0  0  0  0  0  0  0  0
   24.1637   11.5555   -2.6416 F   0  0  0  0  0  0  0  0  0  0  0  0
   24.5844   10.2671   -0.9452 F   0  0  0  0  0  0  0  0  0  0  0  0
   21.6950   10.4541   -1.4232 C   0  0  0  0  0  0  0  0  0  0  0  0
   16.5517    9.8641    1.7096 C   0  0  0  0  0  0  0  0  0  0  0  0
   12.4257    6.8131    3.6561 C   0  0  0  0  0  0  0  0  0  0  0  0
   16.8038    5.3156   -4.9693 H   0  0  0  0  0  0  0  0  0  0  0  0
   15.2841    4.9018   -5.7878 H   0  0  0  0  0  0  0  0  0  0  0  0
   16.3578    3.6061   -5.1431 H   0  0  0  0  0  0  0  0  0  0  0  0
   12.5204    3.8366   -2.3890 H   0  0  0  0  0  0  0  0  0  0  0  0
   13.6964    5.0475   -1.9055 H   0  0  0  0  0  0  0  0  0  0  0  0
   15.2656    3.2198   -1.1477 H   0  0  0  0  0  0  0  0  0  0  0  0
   14.0829    2.0079   -1.6010 H   0  0  0  0  0  0  0  0  0  0  0  0
   13.7451    4.1572    0.5606 H   0  0  0  0  0  0  0  0  0  0  0  0
   14.0653    2.4535    0.8320 H   0  0  0  0  0  0  0  0  0  0  0  0
   11.8643    1.8540   -0.2123 H   0  0  0  0  0  0  0  0  0  0  0  0
   11.5053    3.5796   -0.4538 H   0  0  0  0  0  0  0  0  0  0  0  0
    9.5678    1.5496    1.0535 H   0  0  0  0  0  0  0  0  0  0  0  0
    9.2219    3.2831    0.7537 H   0  0  0  0  0  0  0  0  0  0  0  0
    9.0561    2.5978    2.3981 H   0  0  0  0  0  0  0  0  0  0  0  0
   10.2463    5.7401    6.0162 H   0  0  0  0  0  0  0  0  0  0  0  0
   12.1347    9.4131    7.1680 H   0  0  0  0  0  0  0  0  0  0  0  0
   13.5245    9.7148    6.2399 H   0  0  0  0  0  0  0  0  0  0  0  0
   14.6002   12.2290    3.2217 H   0  0  0  0  0  0  0  0  0  0  0  0
   16.1048   13.7090    1.9250 H   0  0  0  0  0  0  0  0  0  0  0  0
   17.8046   12.7786    0.4734 H   0  0  0  0  0  0  0  0  0  0  0  0
   18.3523    9.1129    0.0469 H   0  0  0  0  0  0  0  0  0  0  0  0
   18.9083    8.5758   -2.0349 H   0  0  0  0  0  0  0  0  0  0  0  0
   20.5217    7.3893   -3.4469 H   0  0  0  0  0  0  0  0  0  0  0  0
   22.0078   11.3429   -0.8680 H   0  0  0  0  0  0  0  0  0  0  0  0
   16.6759    8.7842    1.6818 H   0  0  0  0  0  0  0  0  0  0  0  0
   12.8363    6.5704    2.6783 H   0  0  0  0  0  0  0  0  0  0  0  0
  1  2  1  0  0  0  0
  1 44  1  0  0  0  0
  1 45  1  0  0  0  0
  1 46  1  0  0  0  0
  2  3  1  0  0  0  0
  3  4  2  0  0  0  0
  3  5  1  0  0  0  0
  5  6  1  0  0  0  0
  5 47  1  0  0  0  0
  5 48  1  0  0  0  0
  6  7  1  0  0  0  0
  6 49  1  0  0  0  0
  6 50  1  0  0  0  0
  7  8  1  0  0  0  0
  7 51  1  0  0  0  0
  7 52  1  0  0  0  0
  8  9  1  0  0  0  0
  8 53  1  0  0  0  0
  8 54  1  0  0  0  0
  9 10  1  0  0  0  0
  9 11  2  0  0  0  0
  9 12  2  0  0  0  0
 10 55  1  0  0  0  0
 10 56  1  0  0  0  0
 10 57  1  0  0  0  0
 12 13  1  0  0  0  0
 13 14  2  0  0  0  0
 13 15  1  0  0  0  0
 15 16  1  0  0  0  0
 15 43  2  0  0  0  0
 16 17  2  0  0  0  0
 16 58  1  0  0  0  0
 17 18  1  0  0  0  0
 18 19  1  0  0  0  0
 18 20  2  0  0  0  0
 19 59  1  0  0  0  0
 19 60  1  0  0  0  0
 20 21  1  0  0  0  0
 20 43  1  0  0  0  0
 21 22  3  0  0  0  0
 22 23  1  0  0  0  0
 23 24  1  0  0  0  0
 23 42  2  0  0  0  0
 24 25  2  0  0  0  0
 24 61  1  0  0  0  0
 25 26  1  0  0  0  0
 25 62  1  0  0  0  0
 26 27  2  0  0  0  0
 26 63  1  0  0  0  0
 27 28  1  0  0  0  0
 27 42  1  0  0  0  0
 28 29  1  0  0  0  0
 28 64  1  0  0  0  0
 29 30  2  0  0  0  0
 29 31  1  0  0  0  0
 31 32  1  0  0  0  0
 31 41  2  0  0  0  0
 32 33  2  0  0  0  0
 32 65  1  0  0  0  0
 33 34  1  0  0  0  0
 33 66  1  0  0  0  0
 34 35  1  0  0  0  0
 34 36  2  0  0  0  0
 36 37  1  0  0  0  0
 36 41  1  0  0  0  0
 37 38  1  0  0  0  0
 37 39  1  0  0  0  0
 37 40  1  0  0  0  0
 41 67  1  0  0  0  0
 42 68  1  0  0  0  0
 43 69  1  0  0  0  0
M  END
$$$$
