CHEMBL3897101
 OpenBabel04072215373D

 69 72  0  0  1  0  0  0  0  0999 V2000
    0.5705   -3.9314   -0.7376 C   0  0  0  0  0  0  0  0  0  0  0  0
    1.8777   -4.2779   -0.2711 O   0  0  0  0  0  0  0  0  0  0  0  0
    2.8449   -3.3024   -0.3254 C   0  0  0  0  0  0  0  0  0  0  0  0
    2.6319   -2.0223   -0.8359 C   0  0  0  0  0  0  0  0  0  0  0  0
    3.6575   -1.0808   -0.7862 C   0  0  0  0  0  0  0  0  0  0  0  0
    3.5624    0.2186   -1.2147 O   0  0  0  0  0  0  0  0  0  0  0  0
    2.3550    0.5923   -1.8707 C   0  0  0  0  0  0  0  0  0  0  0  0
    4.8975   -1.4256   -0.2262 C   0  0  0  0  0  0  0  0  0  0  0  0
    5.1631   -2.7042    0.2901 C   0  0  0  0  0  0  0  0  0  0  0  0
    6.3488   -2.9983    1.0147 N   0  0  0  0  0  0  0  0  0  0  0  0
    6.9167   -1.8819    1.8762 C   0  0  0  0  0  0  0  0  0  0  0  0
    6.0024   -1.0936    2.8536 C   0  0  0  0  0  0  0  0  0  0  0  0
    5.5669   -1.7636    4.1684 C   0  0  0  0  0  0  0  0  0  0  0  0
    4.9149   -0.8016    5.0833 N   0  0  0  0  0  0  0  0  0  0  0  0
    5.6146   -0.0291    6.0005 C   0  0  0  0  0  0  0  0  0  0  0  0
    6.8319   -0.1120    6.1217 O   0  0  0  0  0  0  0  0  0  0  0  0
    4.7723    0.9635    6.8434 C   0  0  3  0  0  0  0  0  0  0  0  0
    5.6299    2.1722    7.2589 C   0  0  0  0  0  0  0  0  0  0  0  0
    3.6955    1.4697    6.0128 O   0  0  0  0  0  0  0  0  0  0  0  0
    4.2537    0.2371    8.1077 C   0  0  0  0  0  0  0  0  0  0  0  0
    4.6194   -1.0617    8.1720 F   0  0  0  0  0  0  0  0  0  0  0  0
    4.6929    0.8236    9.2517 F   0  0  0  0  0  0  0  0  0  0  0  0
    2.8972    0.2598    8.1737 F   0  0  0  0  0  0  0  0  0  0  0  0
    7.4457   -3.9014    0.6650 C   0  0  0  0  0  0  0  0  0  0  0  0
    8.0272   -4.5202    1.7705 C   0  0  0  0  0  0  0  0  0  0  0  0
    9.3363   -4.9760    1.7122 C   0  0  0  0  0  0  0  0  0  0  0  0
   10.0540   -4.9853    0.5552 C   0  0  0  0  0  0  0  0  0  0  0  0
   11.3269   -5.3078    0.7821 N   0  0  0  0  0  0  0  0  0  0  0  0
   12.0973   -5.5063   -0.2837 C   0  0  0  0  0  0  0  0  0  0  0  0
   11.6199   -5.4654   -1.5655 C   0  0  0  0  0  0  0  0  0  0  0  0
   12.5466   -6.0001   -2.5812 C   0  0  0  0  0  0  0  0  0  0  0  0
   12.7050   -7.3400   -3.0523 C   0  0  0  0  0  0  0  0  0  0  0  0
   13.8717   -7.5534   -3.6803 N   0  0  0  0  0  0  0  0  0  0  0  0
   14.4962   -6.3686   -3.5901 N   0  0  0  0  0  0  0  0  0  0  0  0
   15.7112   -6.1135   -4.3329 C   0  0  0  0  0  0  0  0  0  0  0  0
   13.8173   -5.4750   -2.8031 C   0  0  0  0  0  0  0  0  0  0  0  0
   10.3128   -5.0191   -1.8183 N   0  0  0  0  0  0  0  0  0  0  0  0
    9.4805   -4.6979   -0.7002 C   0  0  0  0  0  0  0  0  0  0  0  0
    8.1329   -4.0902   -0.5860 C   0  0  0  0  0  0  0  0  0  0  0  0
    4.1089   -3.6400    0.2125 C   0  0  0  0  0  0  0  0  0  0  0  0
   -0.0991   -4.7794   -0.5585 H   0  0  0  0  0  0  0  0  0  0  0  0
    0.5771   -3.7380   -1.8163 H   0  0  0  0  0  0  0  0  0  0  0  0
    0.1578   -3.0742   -0.1919 H   0  0  0  0  0  0  0  0  0  0  0  0
    1.6686   -1.7515   -1.2515 H   0  0  0  0  0  0  0  0  0  0  0  0
    2.4617    1.6279   -2.2056 H   0  0  0  0  0  0  0  0  0  0  0  0
    1.5028    0.5513   -1.1830 H   0  0  0  0  0  0  0  0  0  0  0  0
    2.1779   -0.0282   -2.7554 H   0  0  0  0  0  0  0  0  0  0  0  0
    5.6563   -0.6507   -0.1768 H   0  0  0  0  0  0  0  0  0  0  0  0
    7.3822   -1.1600    1.1951 H   0  0  0  0  0  0  0  0  0  0  0  0
    7.7424   -2.2468    2.5005 H   0  0  0  0  0  0  0  0  0  0  0  0
    5.1241   -0.6808    2.3532 H   0  0  0  0  0  0  0  0  0  0  0  0
    6.6020   -0.2208    3.1531 H   0  0  0  0  0  0  0  0  0  0  0  0
    6.4281   -2.1954    4.6916 H   0  0  0  0  0  0  0  0  0  0  0  0
    4.8428   -2.5612    3.9792 H   0  0  0  0  0  0  0  0  0  0  0  0
    3.9267   -0.5984    4.9542 H   0  0  0  0  0  0  0  0  0  0  0  0
    5.9942    2.7200    6.3824 H   0  0  0  0  0  0  0  0  0  0  0  0
    6.5016    1.8728    7.8516 H   0  0  0  0  0  0  0  0  0  0  0  0
    5.0432    2.8869    7.8498 H   0  0  0  0  0  0  0  0  0  0  0  0
    4.0911    2.0718    5.3572 H   0  0  0  0  0  0  0  0  0  0  0  0
    7.5139   -4.5230    2.7279 H   0  0  0  0  0  0  0  0  0  0  0  0
    9.8036   -5.2992    2.6347 H   0  0  0  0  0  0  0  0  0  0  0  0
   13.1330   -5.7496   -0.0632 H   0  0  0  0  0  0  0  0  0  0  0  0
   12.0484   -8.1917   -2.9197 H   0  0  0  0  0  0  0  0  0  0  0  0
   15.9906   -6.9944   -4.9187 H   0  0  0  0  0  0  0  0  0  0  0  0
   16.5184   -5.8500   -3.6443 H   0  0  0  0  0  0  0  0  0  0  0  0
   15.5057   -5.2794   -5.0097 H   0  0  0  0  0  0  0  0  0  0  0  0
   14.2960   -4.5643   -2.4719 H   0  0  0  0  0  0  0  0  0  0  0  0
    7.6644   -3.7175   -1.5045 H   0  0  0  0  0  0  0  0  0  0  0  0
    4.2379   -4.6315    0.6427 H   0  0  0  0  0  0  0  0  0  0  0  0
  1  2  1  0  0  0  0
  1 41  1  0  0  0  0
  1 42  1  0  0  0  0
  1 43  1  0  0  0  0
  2  3  1  0  0  0  0
  3  4  1  0  0  0  0
  3 40  2  0  0  0  0
  4  5  2  0  0  0  0
  4 44  1  0  0  0  0
  5  6  1  0  0  0  0
  5  8  1  0  0  0  0
  6  7  1  0  0  0  0
  7 45  1  0  0  0  0
  7 46  1  0  0  0  0
  7 47  1  0  0  0  0
  8  9  2  0  0  0  0
  8 48  1  0  0  0  0
  9 10  1  0  0  0  0
  9 40  1  0  0  0  0
 10 11  1  0  0  0  0
 10 24  1  0  0  0  0
 11 12  1  0  0  0  0
 11 49  1  0  0  0  0
 11 50  1  0  0  0  0
 12 13  1  0  0  0  0
 12 51  1  0  0  0  0
 12 52  1  0  0  0  0
 13 14  1  0  0  0  0
 13 53  1  0  0  0  0
 13 54  1  0  0  0  0
 14 15  1  0  0  0  0
 14 55  1  0  0  0  0
 15 16  2  0  0  0  0
 15 17  1  0  0  0  0
 17 18  1  0  0  0  0
 17 19  1  0  0  0  0
 17 20  1  0  0  0  0
 18 56  1  0  0  0  0
 18 57  1  0  0  0  0
 18 58  1  0  0  0  0
 19 59  1  0  0  0  0
 20 21  1  0  0  0  0
 20 22  1  0  0  0  0
 20 23  1  0  0  0  0
 24 25  1  0  0  0  0
 24 39  2  0  0  0  0
 25 26  2  0  0  0  0
 25 60  1  0  0  0  0
 26 27  1  0  0  0  0
 26 61  1  0  0  0  0
 27 28  1  0  0  0  0
 27 38  2  0  0  0  0
 28 29  2  0  0  0  0
 29 30  1  0  0  0  0
 29 62  1  0  0  0  0
 30 31  1  0  0  0  0
 30 37  2  0  0  0  0
 31 32  1  0  0  0  0
 31 36  2  0  0  0  0
 32 33  2  0  0  0  0
 32 63  1  0  0  0  0
 33 34  1  0  0  0  0
 34 35  1  0  0  0  0
 34 36  1  0  0  0  0
 35 64  1  0  0  0  0
 35 65  1  0  0  0  0
 35 66  1  0  0  0  0
 36 67  1  0  0  0  0
 37 38  1  0  0  0  0
 38 39  1  0  0  0  0
 39 68  1  0  0  0  0
 40 69  1  0  0  0  0
M  END
$$$$
