CHEMBL3818768
 OpenBabel04072215373D

 47 50  0  0  0  0  0  0  0  0999 V2000
    1.6065    0.4651    0.1694 C   0  0  0  0  0  0  0  0  0  0  0  0
    2.8541    1.0987   -0.3849 C   0  0  0  0  0  0  0  0  0  0  0  0
    3.1226    2.2679   -0.1264 O   0  0  0  0  0  0  0  0  0  0  0  0
    3.5753    0.2356   -1.1946 N   0  0  0  0  0  0  0  0  0  0  0  0
    4.8276    0.5010   -1.8009 C   0  0  0  0  0  0  0  0  0  0  0  0
    5.6274    1.5780   -1.3830 C   0  0  0  0  0  0  0  0  0  0  0  0
    6.8812    1.8453   -1.9486 C   0  0  0  0  0  0  0  0  0  0  0  0
    7.6281    2.9312   -1.4568 N   0  0  0  0  0  0  0  0  0  0  0  0
    9.0060    3.1422   -1.4960 C   0  0  0  0  0  0  0  0  0  0  0  0
    9.5221    3.9282   -0.5431 N   0  0  0  0  0  0  0  0  0  0  0  0
   10.8641    4.0148   -0.4975 C   0  0  0  0  0  0  0  0  0  0  0  0
   11.7042    3.3496   -1.3592 C   0  0  0  0  0  0  0  0  0  0  0  0
   11.0920    2.6093   -2.3428 C   0  0  0  0  0  0  0  0  0  0  0  0
   11.8772    1.9080   -3.2893 N   0  0  0  0  0  0  0  0  0  0  0  0
   11.3830    1.4337   -4.5335 C   0  0  0  0  0  0  0  0  0  0  0  0
   10.5600    2.2484   -5.3298 C   0  0  0  0  0  0  0  0  0  0  0  0
   10.0584    1.8288   -6.5674 C   0  0  0  0  0  0  0  0  0  0  0  0
   10.4206    0.5527   -6.9910 C   0  0  0  0  0  0  0  0  0  0  0  0
   10.1046   -0.1557   -8.1215 N   0  0  0  0  0  0  0  0  0  0  0  0
   10.6527   -1.3850   -8.1712 N   0  0  0  0  0  0  0  0  0  0  0  0
   11.3436   -1.4576   -7.0297 C   0  0  0  0  0  0  0  0  0  0  0  0
   11.2421   -0.2848   -6.2463 C   0  0  0  0  0  0  0  0  0  0  0  0
   11.7457    0.1604   -5.0072 C   0  0  0  0  0  0  0  0  0  0  0  0
    9.7599    2.5181   -2.4050 N   0  0  0  0  0  0  0  0  0  0  0  0
    7.3093    1.0156   -2.9845 C   0  0  0  0  0  0  0  0  0  0  0  0
    6.5457   -0.0732   -3.4041 C   0  0  0  0  0  0  0  0  0  0  0  0
    5.2987   -0.3433   -2.8256 C   0  0  0  0  0  0  0  0  0  0  0  0
    4.5203   -1.5127   -3.3603 C   0  0  0  0  0  0  0  0  0  0  0  0
    1.1483    1.1481    0.8917 H   0  0  0  0  0  0  0  0  0  0  0  0
    1.8547   -0.4663    0.6854 H   0  0  0  0  0  0  0  0  0  0  0  0
    0.8964    0.2735   -0.6381 H   0  0  0  0  0  0  0  0  0  0  0  0
    3.1284   -0.6363   -1.4422 H   0  0  0  0  0  0  0  0  0  0  0  0
    5.3014    2.2163   -0.5679 H   0  0  0  0  0  0  0  0  0  0  0  0
    7.2547    3.3899   -0.6373 H   0  0  0  0  0  0  0  0  0  0  0  0
   11.2573    4.6531    0.2891 H   0  0  0  0  0  0  0  0  0  0  0  0
   12.7777    3.4366   -1.2853 H   0  0  0  0  0  0  0  0  0  0  0  0
   12.4431    1.2179   -2.8078 H   0  0  0  0  0  0  0  0  0  0  0  0
   10.2896    3.2426   -4.9766 H   0  0  0  0  0  0  0  0  0  0  0  0
    9.4173    2.4770   -7.1564 H   0  0  0  0  0  0  0  0  0  0  0  0
    9.5230    0.1476   -8.8943 H   0  0  0  0  0  0  0  0  0  0  0  0
   11.8911   -2.3649   -6.8133 H   0  0  0  0  0  0  0  0  0  0  0  0
   12.3841   -0.4934   -4.4218 H   0  0  0  0  0  0  0  0  0  0  0  0
    8.2498    1.1890   -3.4965 H   0  0  0  0  0  0  0  0  0  0  0  0
    6.9412   -0.6994   -4.2013 H   0  0  0  0  0  0  0  0  0  0  0  0
    4.9891   -1.9239   -4.2624 H   0  0  0  0  0  0  0  0  0  0  0  0
    3.5103   -1.2022   -3.6444 H   0  0  0  0  0  0  0  0  0  0  0  0
    4.4701   -2.3132   -2.6167 H   0  0  0  0  0  0  0  0  0  0  0  0
  1  2  1  0  0  0  0
  1 29  1  0  0  0  0
  1 30  1  0  0  0  0
  1 31  1  0  0  0  0
  2  3  2  0  0  0  0
  2  4  1  0  0  0  0
  4  5  1  0  0  0  0
  4 32  1  0  0  0  0
  5  6  1  0  0  0  0
  5 27  2  0  0  0  0
  6  7  2  0  0  0  0
  6 33  1  0  0  0  0
  7  8  1  0  0  0  0
  7 25  1  0  0  0  0
  8  9  1  0  0  0  0
  8 34  1  0  0  0  0
  9 10  1  0  0  0  0
  9 24  2  0  0  0  0
 10 11  2  0  0  0  0
 11 12  1  0  0  0  0
 11 35  1  0  0  0  0
 12 13  2  0  0  0  0
 12 36  1  0  0  0  0
 13 14  1  0  0  0  0
 13 24  1  0  0  0  0
 14 15  1  0  0  0  0
 14 37  1  0  0  0  0
 15 16  1  0  0  0  0
 15 23  2  0  0  0  0
 16 17  2  0  0  0  0
 16 38  1  0  0  0  0
 17 18  1  0  0  0  0
 17 39  1  0  0  0  0
 18 19  1  0  0  0  0
 18 22  2  0  0  0  0
 19 20  1  0  0  0  0
 19 40  1  0  0  0  0
 20 21  2  0  0  0  0
 21 22  1  0  0  0  0
 21 41  1  0  0  0  0
 22 23  1  0  0  0  0
 23 42  1  0  0  0  0
 25 26  2  0  0  0  0
 25 43  1  0  0  0  0
 26 27  1  0  0  0  0
 26 44  1  0  0  0  0
 27 28  1  0  0  0  0
 28 45  1  0  0  0  0
 28 46  1  0  0  0  0
 28 47  1  0  0  0  0
M  END
$$$$
