CHEMBL246342
 OpenBabel04072215363D

 40 43  0  0  0  0  0  0  0  0999 V2000
    4.4490   -1.9023    2.0313 O   0  0  0  0  0  0  0  0  0  0  0  0
    5.6144   -1.8343    1.6735 C   0  0  0  0  0  0  0  0  0  0  0  0
    6.3415   -2.9363    1.3802 O   0  0  0  0  0  0  0  0  0  0  0  0
    6.4057   -0.5571    1.5780 C   0  0  0  0  0  0  0  0  0  0  0  0
    5.4738    0.6139    1.2907 C   0  0  0  0  0  0  0  0  0  0  0  0
    6.1936    1.8732    1.1771 N   0  0  0  0  0  0  0  0  0  0  0  0
    6.8099    2.2405   -0.0004 C   0  0  0  0  0  0  0  0  0  0  0  0
    6.8125    1.5194   -0.9926 O   0  0  0  0  0  0  0  0  0  0  0  0
    7.5332    3.5446   -0.0059 C   0  0  0  0  0  0  0  0  0  0  0  0
    7.1708    4.6116    0.8385 C   0  0  0  0  0  0  0  0  0  0  0  0
    7.8848    5.8302    0.8302 C   0  0  0  0  0  0  0  0  0  0  0  0
    8.9744    6.0186   -0.0214 C   0  0  0  0  0  0  0  0  0  0  0  0
    9.3077    4.9748   -0.8564 C   0  0  0  0  0  0  0  0  0  0  0  0
    8.6035    3.7403   -0.8737 C   0  0  0  0  0  0  0  0  0  0  0  0
    9.1711    2.7383   -1.8907 C   0  0  0  0  0  0  0  0  0  0  0  0
   10.2933    3.5740   -2.3937 C   0  0  0  0  0  0  0  0  0  0  0  0
   10.3566    4.8439   -1.8087 C   0  0  0  0  0  0  0  0  0  0  0  0
   11.3715    5.5833   -2.2306 N   0  0  0  0  0  0  0  0  0  0  0  0
   11.9729    4.7471   -3.1213 N   0  0  0  0  0  0  0  0  0  0  0  0
   11.3634    3.5139   -3.2451 C   0  0  0  0  0  0  0  0  0  0  0  0
   11.7992    2.3769   -4.0990 C   0  0  0  0  0  0  0  0  0  0  0  0
   11.0884    1.1493   -4.2616 C   0  0  0  0  0  0  0  0  0  0  0  0
   11.7437    0.2678   -5.0935 C   0  0  0  0  0  0  0  0  0  0  0  0
   13.2106    0.9166   -5.6832 S   0  0  0  0  0  0  0  0  0  0  0  0
   12.9658    2.3855   -4.8332 C   0  0  0  0  0  0  0  0  0  0  0  0
    7.2599   -2.7515    1.1065 H   0  0  0  0  0  0  0  0  0  0  0  0
    7.1495   -0.6445    0.7787 H   0  0  0  0  0  0  0  0  0  0  0  0
    6.9372   -0.4095    2.5247 H   0  0  0  0  0  0  0  0  0  0  0  0
    4.7389    0.7383    2.0927 H   0  0  0  0  0  0  0  0  0  0  0  0
    4.9233    0.4377    0.3584 H   0  0  0  0  0  0  0  0  0  0  0  0
    6.3264    2.4229    2.0144 H   0  0  0  0  0  0  0  0  0  0  0  0
    6.3126    4.5306    1.5008 H   0  0  0  0  0  0  0  0  0  0  0  0
    7.5813    6.6365    1.4954 H   0  0  0  0  0  0  0  0  0  0  0  0
    9.5363    6.9469   -0.0330 H   0  0  0  0  0  0  0  0  0  0  0  0
    8.4500    2.5247   -2.6835 H   0  0  0  0  0  0  0  0  0  0  0  0
    9.5314    1.8345   -1.3931 H   0  0  0  0  0  0  0  0  0  0  0  0
   12.7983    5.0807   -3.6045 H   0  0  0  0  0  0  0  0  0  0  0  0
   10.1380    0.9096   -3.8022 H   0  0  0  0  0  0  0  0  0  0  0  0
   11.4293   -0.7259   -5.3838 H   0  0  0  0  0  0  0  0  0  0  0  0
   13.7115    3.1627   -4.9155 H   0  0  0  0  0  0  0  0  0  0  0  0
  1  2  2  0  0  0  0
  2  3  1  0  0  0  0
  2  4  1  0  0  0  0
  3 26  1  0  0  0  0
  4  5  1  0  0  0  0
  4 27  1  0  0  0  0
  4 28  1  0  0  0  0
  5  6  1  0  0  0  0
  5 29  1  0  0  0  0
  5 30  1  0  0  0  0
  6  7  1  0  0  0  0
  6 31  1  0  0  0  0
  7  8  2  0  0  0  0
  7  9  1  0  0  0  0
  9 10  1  0  0  0  0
  9 14  2  0  0  0  0
 10 11  2  0  0  0  0
 10 32  1  0  0  0  0
 11 12  1  0  0  0  0
 11 33  1  0  0  0  0
 12 13  2  0  0  0  0
 12 34  1  0  0  0  0
 13 14  1  0  0  0  0
 13 17  1  0  0  0  0
 14 15  1  0  0  0  0
 15 16  1  0  0  0  0
 15 35  1  0  0  0  0
 15 36  1  0  0  0  0
 16 17  1  0  0  0  0
 16 20  2  0  0  0  0
 17 18  2  0  0  0  0
 18 19  1  0  0  0  0
 19 20  1  0  0  0  0
 19 37  1  0  0  0  0
 20 21  1  0  0  0  0
 21 22  1  0  0  0  0
 21 25  2  0  0  0  0
 22 23  2  0  0  0  0
 22 38  1  0  0  0  0
 23 24  1  0  0  0  0
 23 39  1  0  0  0  0
 24 25  1  0  0  0  0
 25 40  1  0  0  0  0
M  END
$$$$
