CHEMBL3950910
 OpenBabel04072215373D

 62 65  0  0  0  0  0  0  0  0999 V2000
    0.6477    2.2736    3.4378 C   0  0  0  0  0  0  0  0  0  0  0  0
    2.0225    2.6581    3.5158 O   0  0  0  0  0  0  0  0  0  0  0  0
    2.9365    1.8826    2.8428 C   0  0  0  0  0  0  0  0  0  0  0  0
    2.6161    0.7164    2.1478 C   0  0  0  0  0  0  0  0  0  0  0  0
    3.6066    0.0377    1.4430 C   0  0  0  0  0  0  0  0  0  0  0  0
    3.4138   -1.0894    0.6866 O   0  0  0  0  0  0  0  0  0  0  0  0
    2.1114   -1.6643    0.7011 C   0  0  0  0  0  0  0  0  0  0  0  0
    4.9224    0.5278    1.4382 C   0  0  0  0  0  0  0  0  0  0  0  0
    5.2916    1.7002    2.1192 C   0  0  0  0  0  0  0  0  0  0  0  0
    6.5560    2.3347    1.9391 N   0  0  0  0  0  0  0  0  0  0  0  0
    7.1646    2.1977    0.5546 C   0  0  0  0  0  0  0  0  0  0  0  0
    6.3340    2.6361   -0.6735 C   0  0  0  0  0  0  0  0  0  0  0  0
    6.0733    4.1402   -0.9370 C   0  0  0  0  0  0  0  0  0  0  0  0
    7.3409    4.9863   -1.0908 C   0  0  0  0  0  0  0  0  0  0  0  0
    5.2558    4.2813   -2.2371 C   0  0  0  0  0  0  0  0  0  0  0  0
    5.2895    4.7037    0.1096 O   0  0  0  0  0  0  0  0  0  0  0  0
    7.6598    2.4262    2.8852 C   0  0  0  0  0  0  0  0  0  0  0  0
    8.4612    3.5724    2.7080 C   0  0  0  0  0  0  0  0  0  0  0  0
    9.7813    3.5601    3.0793 C   0  0  0  0  0  0  0  0  0  0  0  0
   10.3329    2.5122    3.7716 C   0  0  0  0  0  0  0  0  0  0  0  0
   11.6634    2.5784    3.8806 N   0  0  0  0  0  0  0  0  0  0  0  0
   12.2449    1.7108    4.7108 C   0  0  0  0  0  0  0  0  0  0  0  0
   11.5073    0.8413    5.4963 C   0  0  0  0  0  0  0  0  0  0  0  0
   12.2350    0.2635    6.6359 C   0  0  0  0  0  0  0  0  0  0  0  0
   12.2332    0.6748    7.9965 C   0  0  0  0  0  0  0  0  0  0  0  0
   13.2142    0.1163    8.7175 N   0  0  0  0  0  0  0  0  0  0  0  0
   13.8631   -0.6489    7.8248 N   0  0  0  0  0  0  0  0  0  0  0  0
   14.8628   -1.5968    8.2632 C   0  0  0  0  0  0  0  0  0  0  0  0
   13.4096   -0.4716    6.5441 C   0  0  0  0  0  0  0  0  0  0  0  0
   10.1596    0.6774    5.2861 N   0  0  0  0  0  0  0  0  0  0  0  0
    9.5274    1.4952    4.3405 C   0  0  0  0  0  0  0  0  0  0  0  0
    8.1617    1.4453    3.7885 C   0  0  0  0  0  0  0  0  0  0  0  0
    4.2700    2.3520    2.8437 C   0  0  0  0  0  0  0  0  0  0  0  0
    0.0435    3.0583    3.9053 H   0  0  0  0  0  0  0  0  0  0  0  0
    0.4709    1.3450    3.9920 H   0  0  0  0  0  0  0  0  0  0  0  0
    0.3032    2.1795    2.4009 H   0  0  0  0  0  0  0  0  0  0  0  0
    1.5983    0.3497    2.1389 H   0  0  0  0  0  0  0  0  0  0  0  0
    2.1426   -2.5804    0.1035 H   0  0  0  0  0  0  0  0  0  0  0  0
    1.3761   -0.9937    0.2428 H   0  0  0  0  0  0  0  0  0  0  0  0
    1.8133   -1.9412    1.7178 H   0  0  0  0  0  0  0  0  0  0  0  0
    5.6513   -0.0159    0.8459 H   0  0  0  0  0  0  0  0  0  0  0  0
    7.4640    1.1505    0.4169 H   0  0  0  0  0  0  0  0  0  0  0  0
    8.1047    2.7554    0.4752 H   0  0  0  0  0  0  0  0  0  0  0  0
    5.3750    2.1102   -0.6786 H   0  0  0  0  0  0  0  0  0  0  0  0
    6.8867    2.2604   -1.5480 H   0  0  0  0  0  0  0  0  0  0  0  0
    7.9656    4.6392   -1.9208 H   0  0  0  0  0  0  0  0  0  0  0  0
    7.9394    4.9951   -0.1772 H   0  0  0  0  0  0  0  0  0  0  0  0
    7.0796    6.0355   -1.2863 H   0  0  0  0  0  0  0  0  0  0  0  0
    5.8056    3.8979   -3.1051 H   0  0  0  0  0  0  0  0  0  0  0  0
    4.9982    5.3289   -2.4353 H   0  0  0  0  0  0  0  0  0  0  0  0
    4.3058    3.7399   -2.1666 H   0  0  0  0  0  0  0  0  0  0  0  0
    5.6325    4.3766    0.9612 H   0  0  0  0  0  0  0  0  0  0  0  0
    8.0765    4.4104    2.1351 H   0  0  0  0  0  0  0  0  0  0  0  0
   10.4206    4.3749    2.7571 H   0  0  0  0  0  0  0  0  0  0  0  0
   13.3261    1.7923    4.7852 H   0  0  0  0  0  0  0  0  0  0  0  0
   11.5890    1.3947    8.4860 H   0  0  0  0  0  0  0  0  0  0  0  0
   14.9839   -1.5392    9.3490 H   0  0  0  0  0  0  0  0  0  0  0  0
   15.8137   -1.3843    7.7683 H   0  0  0  0  0  0  0  0  0  0  0  0
   14.5070   -2.5943    7.9907 H   0  0  0  0  0  0  0  0  0  0  0  0
   13.9474   -0.8880    5.7047 H   0  0  0  0  0  0  0  0  0  0  0  0
    7.5452    0.5878    4.0438 H   0  0  0  0  0  0  0  0  0  0  0  0
    4.4853    3.2875    3.3555 H   0  0  0  0  0  0  0  0  0  0  0  0
  1  2  1  0  0  0  0
  1 34  1  0  0  0  0
  1 35  1  0  0  0  0
  1 36  1  0  0  0  0
  2  3  1  0  0  0  0
  3  4  1  0  0  0  0
  3 33  2  0  0  0  0
  4  5  2  0  0  0  0
  4 37  1  0  0  0  0
  5  6  1  0  0  0  0
  5  8  1  0  0  0  0
  6  7  1  0  0  0  0
  7 38  1  0  0  0  0
  7 39  1  0  0  0  0
  7 40  1  0  0  0  0
  8  9  2  0  0  0  0
  8 41  1  0  0  0  0
  9 10  1  0  0  0  0
  9 33  1  0  0  0  0
 10 11  1  0  0  0  0
 10 17  1  0  0  0  0
 11 12  1  0  0  0  0
 11 42  1  0  0  0  0
 11 43  1  0  0  0  0
 12 13  1  0  0  0  0
 12 44  1  0  0  0  0
 12 45  1  0  0  0  0
 13 14  1  0  0  0  0
 13 15  1  0  0  0  0
 13 16  1  0  0  0  0
 14 46  1  0  0  0  0
 14 47  1  0  0  0  0
 14 48  1  0  0  0  0
 15 49  1  0  0  0  0
 15 50  1  0  0  0  0
 15 51  1  0  0  0  0
 16 52  1  0  0  0  0
 17 18  1  0  0  0  0
 17 32  2  0  0  0  0
 18 19  2  0  0  0  0
 18 53  1  0  0  0  0
 19 20  1  0  0  0  0
 19 54  1  0  0  0  0
 20 21  1  0  0  0  0
 20 31  2  0  0  0  0
 21 22  2  0  0  0  0
 22 23  1  0  0  0  0
 22 55  1  0  0  0  0
 23 24  1  0  0  0  0
 23 30  2  0  0  0  0
 24 25  1  0  0  0  0
 24 29  2  0  0  0  0
 25 26  2  0  0  0  0
 25 56  1  0  0  0  0
 26 27  1  0  0  0  0
 27 28  1  0  0  0  0
 27 29  1  0  0  0  0
 28 57  1  0  0  0  0
 28 58  1  0  0  0  0
 28 59  1  0  0  0  0
 29 60  1  0  0  0  0
 30 31  1  0  0  0  0
 31 32  1  0  0  0  0
 32 61  1  0  0  0  0
 33 62  1  0  0  0  0
M  END
$$$$
