CHEMBL4561629
 OpenBabel04072215383D

 43 45  0  0  0  0  0  0  0  0999 V2000
    9.6025    7.4813    1.4746 C   0  0  0  0  0  0  0  0  0  0  0  0
    8.5806    6.6054    0.7938 C   0  0  0  0  0  0  0  0  0  0  0  0
    8.3690    6.6910   -0.4139 O   0  0  0  0  0  0  0  0  0  0  0  0
    7.8149    5.6201    1.6126 C   0  0  0  0  0  0  0  0  0  0  0  0
    8.0304    5.4824    2.9858 C   0  0  0  0  0  0  0  0  0  0  0  0
    7.2626    4.5817    3.7273 C   0  0  0  0  0  0  0  0  0  0  0  0
    6.2537    3.8200    3.1235 C   0  0  0  0  0  0  0  0  0  0  0  0
    5.4903    2.8795    3.8594 N   0  0  0  0  0  0  0  0  0  0  0  0
    5.0762    3.0869    5.1997 C   0  0  0  0  0  0  0  0  0  0  0  0
    4.7961    1.9994    6.0029 C   0  0  0  0  0  0  0  0  0  0  0  0
    4.3421    2.2761    7.2722 C   0  0  0  0  0  0  0  0  0  0  0  0
    4.1411    3.5205    7.7324 N   0  0  0  0  0  0  0  0  0  0  0  0
    4.3870    4.5139    6.8676 C   0  0  0  0  0  0  0  0  0  0  0  0
    4.0961    6.1774    7.4132 S   0  0  0  0  0  0  0  0  0  0  0  0
    3.7380    6.9617    5.8031 C   0  0  0  0  0  0  0  0  0  0  0  0
    2.5170    6.3522    5.1307 C   0  0  0  0  0  0  0  0  0  0  0  0
    1.5576    5.9144    5.7715 O   0  0  0  0  0  0  0  0  0  0  0  0
    2.3994    6.3743    3.6401 C   0  0  0  0  0  0  0  0  0  0  0  0
    3.5021    6.4181    2.7820 C   0  0  0  0  0  0  0  0  0  0  0  0
    3.3146    6.3772    1.3924 C   0  0  0  0  0  0  0  0  0  0  0  0
    2.0279    6.2947    0.8623 C   0  0  0  0  0  0  0  0  0  0  0  0
    1.7874    6.1862   -1.0085 Br  0  0  0  0  0  0  0  0  0  0  0  0
    0.9212    6.2693    1.7047 C   0  0  0  0  0  0  0  0  0  0  0  0
    1.1084    6.3070    3.0887 C   0  0  0  0  0  0  0  0  0  0  0  0
    4.8686    4.3447    5.6274 N   0  0  0  0  0  0  0  0  0  0  0  0
    6.0869    3.9117    1.7385 C   0  0  0  0  0  0  0  0  0  0  0  0
    6.8493    4.8175    0.9897 C   0  0  0  0  0  0  0  0  0  0  0  0
    9.9844    8.2161    0.7598 H   0  0  0  0  0  0  0  0  0  0  0  0
   10.4403    6.8741    1.8275 H   0  0  0  0  0  0  0  0  0  0  0  0
    9.1464    8.0320    2.3021 H   0  0  0  0  0  0  0  0  0  0  0  0
    8.7840    6.0610    3.5104 H   0  0  0  0  0  0  0  0  0  0  0  0
    7.4538    4.4910    4.7940 H   0  0  0  0  0  0  0  0  0  0  0  0
    5.9078    1.9607    3.7473 H   0  0  0  0  0  0  0  0  0  0  0  0
    4.9361    0.9796    5.6728 H   0  0  0  0  0  0  0  0  0  0  0  0
    4.1129    1.4790    7.9742 H   0  0  0  0  0  0  0  0  0  0  0  0
    4.6357    6.9139    5.1877 H   0  0  0  0  0  0  0  0  0  0  0  0
    3.5166    8.0169    5.9836 H   0  0  0  0  0  0  0  0  0  0  0  0
    4.5211    6.4379    3.1534 H   0  0  0  0  0  0  0  0  0  0  0  0
    4.1791    6.3869    0.7344 H   0  0  0  0  0  0  0  0  0  0  0  0
   -0.0862    6.2051    1.3017 H   0  0  0  0  0  0  0  0  0  0  0  0
    0.2370    6.2727    3.7406 H   0  0  0  0  0  0  0  0  0  0  0  0
    5.3289    3.3118    1.2390 H   0  0  0  0  0  0  0  0  0  0  0  0
    6.6753    4.9019   -0.0823 H   0  0  0  0  0  0  0  0  0  0  0  0
  1  2  1  0  0  0  0
  1 28  1  0  0  0  0
  1 29  1  0  0  0  0
  1 30  1  0  0  0  0
  2  3  2  0  0  0  0
  2  4  1  0  0  0  0
  4  5  1  0  0  0  0
  4 27  2  0  0  0  0
  5  6  2  0  0  0  0
  5 31  1  0  0  0  0
  6  7  1  0  0  0  0
  6 32  1  0  0  0  0
  7  8  1  0  0  0  0
  7 26  2  0  0  0  0
  8  9  1  0  0  0  0
  8 33  1  0  0  0  0
  9 10  1  0  0  0  0
  9 25  2  0  0  0  0
 10 11  2  0  0  0  0
 10 34  1  0  0  0  0
 11 12  1  0  0  0  0
 11 35  1  0  0  0  0
 12 13  2  0  0  0  0
 13 14  1  0  0  0  0
 13 25  1  0  0  0  0
 14 15  1  0  0  0  0
 15 16  1  0  0  0  0
 15 36  1  0  0  0  0
 15 37  1  0  0  0  0
 16 17  2  0  0  0  0
 16 18  1  0  0  0  0
 18 19  1  0  0  0  0
 18 24  2  0  0  0  0
 19 20  2  0  0  0  0
 19 38  1  0  0  0  0
 20 21  1  0  0  0  0
 20 39  1  0  0  0  0
 21 22  1  0  0  0  0
 21 23  2  0  0  0  0
 23 24  1  0  0  0  0
 23 40  1  0  0  0  0
 24 41  1  0  0  0  0
 26 27  1  0  0  0  0
 26 42  1  0  0  0  0
 27 43  1  0  0  0  0
M  END
$$$$
