CHEMBL402531
 OpenBabel04072215373D

 56 62  0  0  0  0  0  0  0  0999 V2000
    3.8665   -0.3276    0.8163 C   0  0  0  0  0  0  0  0  0  0  0  0
    3.4594    0.4482   -0.4253 C   0  0  0  0  0  0  0  0  0  0  0  0
    4.0334    1.7846   -0.5291 N   0  0  0  0  0  0  0  0  0  0  0  0
    3.3870    2.9334    0.0063 C   0  0  0  0  0  0  0  0  0  0  0  0
    2.3116    3.0919    0.9030 C   0  0  0  0  0  0  0  0  0  0  0  0
    1.7631    4.3864    1.0925 C   0  0  0  0  0  0  0  0  0  0  0  0
    2.3023    5.4992    0.4419 C   0  0  0  0  0  0  0  0  0  0  0  0
    1.6905    6.8658    0.4106 C   0  0  0  0  0  0  0  0  0  0  0  0
    1.8076    7.4725   -0.6601 O   0  0  0  0  0  0  0  0  0  0  0  0
    1.0394    7.4403    1.5695 C   0  0  0  0  0  0  0  0  0  0  0  0
    1.1624    7.1560    2.9153 C   0  0  0  0  0  0  0  0  0  0  0  0
    0.3623    8.0173    3.7272 C   0  0  0  0  0  0  0  0  0  0  0  0
   -0.3363    8.9370    2.9806 C   0  0  0  0  0  0  0  0  0  0  0  0
   -0.0307    8.7647    1.3133 S   0  0  0  0  0  0  0  0  0  0  0  0
    3.4076    5.3322   -0.3918 C   0  0  0  0  0  0  0  0  0  0  0  0
    3.9151    4.0551   -0.6574 C   0  0  0  0  0  0  0  0  0  0  0  0
    4.7613    3.4975   -1.5812 C   0  0  0  0  0  0  0  0  0  0  0  0
    5.0682    4.1780   -2.7783 C   0  0  0  0  0  0  0  0  0  0  0  0
    5.4072    3.3485   -3.8727 C   0  0  0  0  0  0  0  0  0  0  0  0
    5.5573    1.9510   -3.7873 C   0  0  0  0  0  0  0  0  0  0  0  0
    5.7963    1.5015   -2.4408 C   0  0  0  0  0  0  0  0  0  0  0  0
    5.0035    2.1597   -1.4713 C   0  0  0  0  0  0  0  0  0  0  0  0
    7.3421    1.2044   -2.2006 C   0  0  0  0  0  0  0  0  0  0  0  0
    8.2981    1.6777   -3.3728 C   0  0  0  0  0  0  0  0  0  0  0  0
    7.7133    1.1486   -4.6343 C   0  0  0  0  0  0  0  0  0  0  0  0
    8.2628    0.2922   -5.4930 N   0  0  0  0  0  0  0  0  0  0  0  0
    7.1841   -0.1659   -6.1790 N   0  0  0  0  0  0  0  0  0  0  0  0
    7.3483   -1.2344   -7.1346 C   0  0  0  0  0  0  0  0  0  0  0  0
    5.9853    0.3109   -5.7037 C   0  0  0  0  0  0  0  0  0  0  0  0
    6.3294    1.2937   -4.8130 C   0  0  0  0  0  0  0  0  0  0  0  0
    5.7105    4.2169   -4.9802 C   0  0  0  0  0  0  0  0  0  0  0  0
    6.0820    4.0259   -6.1358 O   0  0  0  0  0  0  0  0  0  0  0  0
    5.5544    5.5052   -4.4733 N   0  0  0  0  0  0  0  0  0  0  0  0
    5.0649    5.5914   -3.1190 C   0  0  0  0  0  0  0  0  0  0  0  0
    3.3513   -1.2960    0.8371 H   0  0  0  0  0  0  0  0  0  0  0  0
    3.6014    0.2083    1.7328 H   0  0  0  0  0  0  0  0  0  0  0  0
    4.9432   -0.5176    0.8284 H   0  0  0  0  0  0  0  0  0  0  0  0
    2.3652    0.5600   -0.4406 H   0  0  0  0  0  0  0  0  0  0  0  0
    3.7231   -0.1149   -1.3263 H   0  0  0  0  0  0  0  0  0  0  0  0
    1.8503    2.2342    1.3849 H   0  0  0  0  0  0  0  0  0  0  0  0
    0.8667    4.4847    1.6989 H   0  0  0  0  0  0  0  0  0  0  0  0
    1.8133    6.3884    3.3151 H   0  0  0  0  0  0  0  0  0  0  0  0
    0.3138    7.9734    4.8098 H   0  0  0  0  0  0  0  0  0  0  0  0
   -1.0051    9.7115    3.3293 H   0  0  0  0  0  0  0  0  0  0  0  0
    3.8175    6.1978   -0.9010 H   0  0  0  0  0  0  0  0  0  0  0  0
    7.4526    0.1207   -2.0809 H   0  0  0  0  0  0  0  0  0  0  0  0
    7.6645    1.6973   -1.2778 H   0  0  0  0  0  0  0  0  0  0  0  0
    9.3300    1.3510   -3.2254 H   0  0  0  0  0  0  0  0  0  0  0  0
    8.3079    2.7778   -3.4233 H   0  0  0  0  0  0  0  0  0  0  0  0
    8.3993   -1.3034   -7.4260 H   0  0  0  0  0  0  0  0  0  0  0  0
    6.7319   -1.0186   -8.0103 H   0  0  0  0  0  0  0  0  0  0  0  0
    7.0276   -2.1652   -6.6594 H   0  0  0  0  0  0  0  0  0  0  0  0
    5.0397   -0.1191   -5.9996 H   0  0  0  0  0  0  0  0  0  0  0  0
    5.7730    6.3017   -5.0540 H   0  0  0  0  0  0  0  0  0  0  0  0
    4.0629    6.0165   -3.1437 H   0  0  0  0  0  0  0  0  0  0  0  0
    5.7597    6.1736   -2.5101 H   0  0  0  0  0  0  0  0  0  0  0  0
  1  2  1  0  0  0  0
  1 35  1  0  0  0  0
  1 36  1  0  0  0  0
  1 37  1  0  0  0  0
  2  3  1  0  0  0  0
  2 38  1  0  0  0  0
  2 39  1  0  0  0  0
  3  4  1  0  0  0  0
  3 22  1  0  0  0  0
  4  5  1  0  0  0  0
  4 16  2  0  0  0  0
  5  6  2  0  0  0  0
  5 40  1  0  0  0  0
  6  7  1  0  0  0  0
  6 41  1  0  0  0  0
  7  8  1  0  0  0  0
  7 15  2  0  0  0  0
  8  9  2  0  0  0  0
  8 10  1  0  0  0  0
 10 11  2  0  0  0  0
 10 14  1  0  0  0  0
 11 12  1  0  0  0  0
 11 42  1  0  0  0  0
 12 13  2  0  0  0  0
 12 43  1  0  0  0  0
 13 14  1  0  0  0  0
 13 44  1  0  0  0  0
 15 16  1  0  0  0  0
 15 45  1  0  0  0  0
 16 17  1  0  0  0  0
 17 18  1  0  0  0  0
 17 22  2  0  0  0  0
 18 19  2  0  0  0  0
 18 34  1  0  0  0  0
 19 20  1  0  0  0  0
 19 31  1  0  0  0  0
 20 21  2  0  0  0  0
 20 30  1  0  0  0  0
 21 22  1  0  0  0  0
 21 23  1  0  0  0  0
 23 24  1  0  0  0  0
 23 46  1  0  0  0  0
 23 47  1  0  0  0  0
 24 25  1  0  0  0  0
 24 48  1  0  0  0  0
 24 49  1  0  0  0  0
 25 26  2  0  0  0  0
 25 30  1  0  0  0  0
 26 27  1  0  0  0  0
 27 28  1  0  0  0  0
 27 29  1  0  0  0  0
 28 50  1  0  0  0  0
 28 51  1  0  0  0  0
 28 52  1  0  0  0  0
 29 30  2  0  0  0  0
 29 53  1  0  0  0  0
 31 32  2  0  0  0  0
 31 33  1  0  0  0  0
 33 34  1  0  0  0  0
 33 54  1  0  0  0  0
 34 55  1  0  0  0  0
 34 56  1  0  0  0  0
M  END
$$$$
