CHEMBL529663
 OpenBabel04072215383D

 47 50  0  0  0  0  0  0  0  0999 V2000
    7.4603   -1.3588   -1.9226 C   0  0  0  0  0  0  0  0  0  0  0  0
    6.6287   -1.9396   -0.9252 O   0  0  0  0  0  0  0  0  0  0  0  0
    5.3080   -2.1280   -1.2461 C   0  0  0  0  0  0  0  0  0  0  0  0
    4.8605   -2.2317   -2.5861 C   0  0  0  0  0  0  0  0  0  0  0  0
    3.5226   -2.4749   -2.8860 C   0  0  0  0  0  0  0  0  0  0  0  0
    3.0717   -2.4811   -4.2718 C   0  0  0  0  0  0  0  0  0  0  0  0
    2.9598   -3.4552   -5.1851 C   0  0  0  0  0  0  0  0  0  0  0  0
    3.3753   -4.8207   -5.1779 C   0  0  0  0  0  0  0  0  0  0  0  0
    4.6952   -5.2031   -5.3274 C   0  0  0  0  0  0  0  0  0  0  0  0
    4.6752   -6.5514   -5.5761 N   0  0  0  0  0  0  0  0  0  0  0  0
    3.4367   -6.8750   -6.0748 C   0  0  0  0  0  0  0  0  0  0  0  0
    3.0083   -7.8695   -6.9584 C   0  0  0  0  0  0  0  0  0  0  0  0
    1.6280   -7.9814   -7.1603 C   0  0  0  0  0  0  0  0  0  0  0  0
    0.7272   -7.2124   -6.4229 C   0  0  0  0  0  0  0  0  0  0  0  0
    1.1798   -6.1869   -5.5870 C   0  0  0  0  0  0  0  0  0  0  0  0
    2.5628   -5.9476   -5.5092 C   0  0  0  0  0  0  0  0  0  0  0  0
    2.4684   -2.9995   -6.5174 C   0  0  0  0  0  0  0  0  0  0  0  0
    2.4170   -1.5856   -6.3128 N   0  0  0  0  0  0  0  0  0  0  0  0
    2.7425   -1.2339   -5.0340 C   0  0  0  0  0  0  0  0  0  0  0  0
    2.8223   -0.0993   -4.6124 O   0  0  0  0  0  0  0  0  0  0  0  0
    2.6132   -2.6455   -1.8334 C   0  0  0  0  0  0  0  0  0  0  0  0
    3.0374   -2.5786   -0.4998 C   0  0  0  0  0  0  0  0  0  0  0  0
    2.1743   -2.7055    0.5678 O   0  0  0  0  0  0  0  0  0  0  0  0
    1.1024   -3.6177    0.3791 C   0  0  0  0  0  0  0  0  0  0  0  0
    4.3883   -2.2958   -0.1969 C   0  0  0  0  0  0  0  0  0  0  0  0
    4.6827   -2.2676    1.1476 O   0  0  0  0  0  0  0  0  0  0  0  0
    5.7316   -1.4108    1.5841 C   0  0  0  0  0  0  0  0  0  0  0  0
    8.4339   -1.1580   -1.4661 H   0  0  0  0  0  0  0  0  0  0  0  0
    7.0501   -0.4063   -2.2749 H   0  0  0  0  0  0  0  0  0  0  0  0
    7.6250   -2.0540   -2.7505 H   0  0  0  0  0  0  0  0  0  0  0  0
    5.5531   -2.1071   -3.4112 H   0  0  0  0  0  0  0  0  0  0  0  0
    5.6223   -4.6449   -5.3315 H   0  0  0  0  0  0  0  0  0  0  0  0
    5.4725   -7.1705   -5.5421 H   0  0  0  0  0  0  0  0  0  0  0  0
    3.7096   -8.4776   -7.5200 H   0  0  0  0  0  0  0  0  0  0  0  0
    1.2498   -8.6894   -7.8953 H   0  0  0  0  0  0  0  0  0  0  0  0
   -0.3419   -7.3717   -6.5396 H   0  0  0  0  0  0  0  0  0  0  0  0
    0.4763   -5.5483   -5.0633 H   0  0  0  0  0  0  0  0  0  0  0  0
    1.4676   -3.3583   -6.7519 H   0  0  0  0  0  0  0  0  0  0  0  0
    3.1613   -3.2174   -7.3398 H   0  0  0  0  0  0  0  0  0  0  0  0
    2.2628   -0.8982   -7.0309 H   0  0  0  0  0  0  0  0  0  0  0  0
    1.5574   -2.7931   -2.0646 H   0  0  0  0  0  0  0  0  0  0  0  0
    0.7099   -3.8830    1.3657 H   0  0  0  0  0  0  0  0  0  0  0  0
    1.4343   -4.5407   -0.1060 H   0  0  0  0  0  0  0  0  0  0  0  0
    0.2900   -3.1464   -0.1894 H   0  0  0  0  0  0  0  0  0  0  0  0
    5.5949   -1.2359    2.6564 H   0  0  0  0  0  0  0  0  0  0  0  0
    5.7057   -0.4358    1.0868 H   0  0  0  0  0  0  0  0  0  0  0  0
    6.7032   -1.8989    1.4675 H   0  0  0  0  0  0  0  0  0  0  0  0
  1  2  1  0  0  0  0
  1 28  1  0  0  0  0
  1 29  1  0  0  0  0
  1 30  1  0  0  0  0
  2  3  1  0  0  0  0
  3  4  1  0  0  0  0
  3 25  2  0  0  0  0
  4  5  2  0  0  0  0
  4 31  1  0  0  0  0
  5  6  1  0  0  0  0
  5 21  1  0  0  0  0
  6  7  2  0  0  0  0
  6 19  1  0  0  0  0
  7  8  1  0  0  0  0
  7 17  1  0  0  0  0
  8  9  2  0  0  0  0
  8 16  1  0  0  0  0
  9 10  1  0  0  0  0
  9 32  1  0  0  0  0
 10 11  1  0  0  0  0
 10 33  1  0  0  0  0
 11 12  1  0  0  0  0
 11 16  2  0  0  0  0
 12 13  2  0  0  0  0
 12 34  1  0  0  0  0
 13 14  1  0  0  0  0
 13 35  1  0  0  0  0
 14 15  2  0  0  0  0
 14 36  1  0  0  0  0
 15 16  1  0  0  0  0
 15 37  1  0  0  0  0
 17 18  1  0  0  0  0
 17 38  1  0  0  0  0
 17 39  1  0  0  0  0
 18 19  1  0  0  0  0
 18 40  1  0  0  0  0
 19 20  2  0  0  0  0
 21 22  2  0  0  0  0
 21 41  1  0  0  0  0
 22 23  1  0  0  0  0
 22 25  1  0  0  0  0
 23 24  1  0  0  0  0
 24 42  1  0  0  0  0
 24 43  1  0  0  0  0
 24 44  1  0  0  0  0
 25 26  1  0  0  0  0
 26 27  1  0  0  0  0
 27 45  1  0  0  0  0
 27 46  1  0  0  0  0
 27 47  1  0  0  0  0
M  END
$$$$
