CHEMBL3942670
 OpenBabel04072215373D

 66 69  0  0  0  0  0  0  0  0999 V2000
    4.5572   -4.8076   -6.7225 C   0  0  0  0  0  0  0  0  0  0  0  0
    5.6158   -4.4226   -7.7410 C   0  0  0  0  0  0  0  0  0  0  0  0
    6.5334   -3.5349   -7.0883 O   0  0  0  0  0  0  0  0  0  0  0  0
    6.1590   -2.2251   -7.1126 C   0  0  0  0  0  0  0  0  0  0  0  0
    5.3502   -1.7353   -7.8862 O   0  0  0  0  0  0  0  0  0  0  0  0
    6.8015   -1.5048   -5.9536 C   0  0  0  0  0  0  0  0  0  0  0  0
    6.3271   -0.0544   -5.8810 C   0  0  0  0  0  0  0  0  0  0  0  0
    6.9138    0.6955   -4.6917 C   0  0  0  0  0  0  0  0  0  0  0  0
    8.3544    0.7547   -4.7357 N   0  0  0  0  0  0  0  0  0  0  0  0
    9.0391    1.7586   -5.3861 C   0  0  0  0  0  0  0  0  0  0  0  0
    8.4543    2.6780   -5.9539 O   0  0  0  0  0  0  0  0  0  0  0  0
   10.4906    1.6508   -5.3542 C   0  0  0  0  0  0  0  0  0  0  0  0
   11.3935    2.5408   -5.8900 C   0  0  0  0  0  0  0  0  0  0  0  0
   12.7457    2.1415   -5.6994 C   0  0  0  0  0  0  0  0  0  0  0  0
   13.8326    2.8394   -6.1242 N   0  0  0  0  0  0  0  0  0  0  0  0
   15.0246    2.2889   -5.8452 C   0  0  0  0  0  0  0  0  0  0  0  0
   15.2091    1.0842   -5.1963 C   0  0  0  0  0  0  0  0  0  0  0  0
   14.0930    0.3385   -4.8196 C   0  0  0  0  0  0  0  0  0  0  0  0
   14.1685   -0.9094   -4.2360 O   0  0  0  0  0  0  0  0  0  0  0  0
   15.1376   -1.7776   -4.6834 C   0  0  0  0  0  0  0  0  0  0  0  0
   15.6088   -2.7040   -3.7627 C   0  0  0  0  0  0  0  0  0  0  0  0
   16.6554   -3.5507   -4.1156 C   0  0  0  0  0  0  0  0  0  0  0  0
   17.2490   -3.5021   -5.3904 C   0  0  0  0  0  0  0  0  0  0  0  0
   18.3343   -4.3236   -5.7834 N   0  0  0  0  0  0  0  0  0  0  0  0
   18.8981   -5.3124   -5.0092 C   0  0  0  0  0  0  0  0  0  0  0  0
   18.5287   -5.5986   -3.8673 O   0  0  0  0  0  0  0  0  0  0  0  0
   19.9505   -5.9803   -5.6232 N   0  0  0  0  0  0  0  0  0  0  0  0
   20.5653   -7.0119   -4.8547 C   0  0  0  0  0  0  0  0  0  0  0  0
   19.7950   -8.0716   -4.3555 C   0  0  0  0  0  0  0  0  0  0  0  0
   20.3283   -8.9684   -3.4216 C   0  0  0  0  0  0  0  0  0  0  0  0
   19.4754  -10.0642   -2.8522 C   0  0  0  0  0  0  0  0  0  0  0  0
   21.6492   -8.7932   -2.9896 C   0  0  0  0  0  0  0  0  0  0  0  0
   22.4393   -7.7727   -3.5292 C   0  0  0  0  0  0  0  0  0  0  0  0
   21.9001   -6.9015   -4.4732 C   0  0  0  0  0  0  0  0  0  0  0  0
   22.6486   -5.8901   -4.9398 F   0  0  0  0  0  0  0  0  0  0  0  0
   16.7316   -2.6067   -6.3235 C   0  0  0  0  0  0  0  0  0  0  0  0
   15.6533   -1.7785   -5.9806 C   0  0  0  0  0  0  0  0  0  0  0  0
   12.8351    0.9167   -5.0419 C   0  0  0  0  0  0  0  0  0  0  0  0
   11.2819    0.3192   -4.6308 S   0  0  0  0  0  0  0  0  0  0  0  0
    3.8234   -5.4936   -7.1498 H   0  0  0  0  0  0  0  0  0  0  0  0
    4.0360   -3.9184   -6.3503 H   0  0  0  0  0  0  0  0  0  0  0  0
    5.0252   -5.2793   -5.8511 H   0  0  0  0  0  0  0  0  0  0  0  0
    5.1663   -3.9722   -8.6338 H   0  0  0  0  0  0  0  0  0  0  0  0
    6.1711   -5.3080   -8.0660 H   0  0  0  0  0  0  0  0  0  0  0  0
    7.8883   -1.5602   -6.0665 H   0  0  0  0  0  0  0  0  0  0  0  0
    6.5087   -2.0288   -5.0351 H   0  0  0  0  0  0  0  0  0  0  0  0
    5.2325   -0.0311   -5.8016 H   0  0  0  0  0  0  0  0  0  0  0  0
    6.5847    0.4610   -6.8144 H   0  0  0  0  0  0  0  0  0  0  0  0
    6.6375    0.2104   -3.7500 H   0  0  0  0  0  0  0  0  0  0  0  0
    6.5170    1.7165   -4.6729 H   0  0  0  0  0  0  0  0  0  0  0  0
    8.8953   -0.0029   -4.3350 H   0  0  0  0  0  0  0  0  0  0  0  0
   11.1019    3.4436   -6.4135 H   0  0  0  0  0  0  0  0  0  0  0  0
   15.8843    2.8603   -6.1868 H   0  0  0  0  0  0  0  0  0  0  0  0
   16.2167    0.7162   -5.0352 H   0  0  0  0  0  0  0  0  0  0  0  0
   15.1823   -2.7677   -2.7648 H   0  0  0  0  0  0  0  0  0  0  0  0
   16.9925   -4.2364   -3.3470 H   0  0  0  0  0  0  0  0  0  0  0  0
   18.6584   -4.2467   -6.7369 H   0  0  0  0  0  0  0  0  0  0  0  0
   20.5984   -5.3602   -6.0929 H   0  0  0  0  0  0  0  0  0  0  0  0
   18.7541   -8.1646   -4.6598 H   0  0  0  0  0  0  0  0  0  0  0  0
   18.5065  -10.1201   -3.3610 H   0  0  0  0  0  0  0  0  0  0  0  0
   19.2871   -9.8893   -1.7882 H   0  0  0  0  0  0  0  0  0  0  0  0
   19.9696  -11.0323   -2.9793 H   0  0  0  0  0  0  0  0  0  0  0  0
   22.0631   -9.4432   -2.2209 H   0  0  0  0  0  0  0  0  0  0  0  0
   23.4599   -7.6314   -3.1883 H   0  0  0  0  0  0  0  0  0  0  0  0
   17.1461   -2.5168   -7.3211 H   0  0  0  0  0  0  0  0  0  0  0  0
   15.2510   -1.1094   -6.7359 H   0  0  0  0  0  0  0  0  0  0  0  0
  1  2  1  0  0  0  0
  1 40  1  0  0  0  0
  1 41  1  0  0  0  0
  1 42  1  0  0  0  0
  2  3  1  0  0  0  0
  2 43  1  0  0  0  0
  2 44  1  0  0  0  0
  3  4  1  0  0  0  0
  4  5  2  0  0  0  0
  4  6  1  0  0  0  0
  6  7  1  0  0  0  0
  6 45  1  0  0  0  0
  6 46  1  0  0  0  0
  7  8  1  0  0  0  0
  7 47  1  0  0  0  0
  7 48  1  0  0  0  0
  8  9  1  0  0  0  0
  8 49  1  0  0  0  0
  8 50  1  0  0  0  0
  9 10  1  0  0  0  0
  9 51  1  0  0  0  0
 10 11  2  0  0  0  0
 10 12  1  0  0  0  0
 12 13  2  0  0  0  0
 12 39  1  0  0  0  0
 13 14  1  0  0  0  0
 13 52  1  0  0  0  0
 14 15  1  0  0  0  0
 14 38  2  0  0  0  0
 15 16  2  0  0  0  0
 16 17  1  0  0  0  0
 16 53  1  0  0  0  0
 17 18  2  0  0  0  0
 17 54  1  0  0  0  0
 18 19  1  0  0  0  0
 18 38  1  0  0  0  0
 19 20  1  0  0  0  0
 20 21  1  0  0  0  0
 20 37  2  0  0  0  0
 21 22  2  0  0  0  0
 21 55  1  0  0  0  0
 22 23  1  0  0  0  0
 22 56  1  0  0  0  0
 23 24  1  0  0  0  0
 23 36  2  0  0  0  0
 24 25  1  0  0  0  0
 24 57  1  0  0  0  0
 25 26  2  0  0  0  0
 25 27  1  0  0  0  0
 27 28  1  0  0  0  0
 27 58  1  0  0  0  0
 28 29  1  0  0  0  0
 28 34  2  0  0  0  0
 29 30  2  0  0  0  0
 29 59  1  0  0  0  0
 30 31  1  0  0  0  0
 30 32  1  0  0  0  0
 31 60  1  0  0  0  0
 31 61  1  0  0  0  0
 31 62  1  0  0  0  0
 32 33  2  0  0  0  0
 32 63  1  0  0  0  0
 33 34  1  0  0  0  0
 33 64  1  0  0  0  0
 34 35  1  0  0  0  0
 36 37  1  0  0  0  0
 36 65  1  0  0  0  0
 37 66  1  0  0  0  0
 38 39  1  0  0  0  0
M  END
$$$$
