CHEMBL3660306
 OpenBabel04072215373D

 48 51  0  0  0  0  0  0  0  0999 V2000
    2.8222    0.7794   -2.2772 C   0  0  0  0  0  0  0  0  0  0  0  0
    1.4146    0.4986   -1.8349 C   0  0  0  0  0  0  0  0  0  0  0  0
    0.9127   -0.8036   -1.9088 C   0  0  0  0  0  0  0  0  0  0  0  0
   -0.3770   -1.0745   -1.4729 C   0  0  0  0  0  0  0  0  0  0  0  0
   -1.1799   -0.0475   -0.9776 C   0  0  0  0  0  0  0  0  0  0  0  0
   -2.3529   -0.4290   -0.4595 F   0  0  0  0  0  0  0  0  0  0  0  0
   -0.7344    1.2830   -0.9448 C   0  0  0  0  0  0  0  0  0  0  0  0
   -1.5214    2.3990   -0.5384 N   0  0  0  0  0  0  0  0  0  0  0  0
   -2.9016    2.4192   -0.4416 C   0  0  0  0  0  0  0  0  0  0  0  0
   -3.6478    1.4807   -0.6941 O   0  0  0  0  0  0  0  0  0  0  0  0
   -3.3925    3.6788   -0.0941 N   0  0  0  0  0  0  0  0  0  0  0  0
   -4.7939    3.8390    0.0674 C   0  0  0  0  0  0  0  0  0  0  0  0
   -5.5235    2.9852    0.8934 C   0  0  0  0  0  0  0  0  0  0  0  0
   -6.9185    3.0715    0.9524 C   0  0  0  0  0  0  0  0  0  0  0  0
   -7.6357    3.9870    0.1611 C   0  0  0  0  0  0  0  0  0  0  0  0
   -9.1237    3.9952    0.1486 C   0  0  0  0  0  0  0  0  0  0  0  0
   -9.8614    5.1574   -0.1039 C   0  0  0  0  0  0  0  0  0  0  0  0
  -11.2481    5.1011   -0.0996 C   0  0  0  0  0  0  0  0  0  0  0  0
  -11.9591    3.9843    0.1516 N   0  0  0  0  0  0  0  0  0  0  0  0
  -11.2594    2.8530    0.3994 C   0  0  0  0  0  0  0  0  0  0  0  0
  -12.0371    1.6522    0.7061 C   0  0  0  0  0  0  0  0  0  0  0  0
  -11.6092    0.3313    1.0374 C   0  0  0  0  0  0  0  0  0  0  0  0
  -12.7296   -0.4382    1.2636 C   0  0  0  0  0  0  0  0  0  0  0  0
  -13.8273    0.3583    1.0819 N   0  0  0  0  0  0  0  0  0  0  0  0
  -13.4206    1.6225    0.7472 C   0  0  0  0  0  0  0  0  0  0  0  0
   -9.8652    2.8235    0.3891 C   0  0  0  0  0  0  0  0  0  0  0  0
   -6.8723    4.8669   -0.6315 C   0  0  0  0  0  0  0  0  0  0  0  0
   -5.4674    4.8193   -0.6572 C   0  0  0  0  0  0  0  0  0  0  0  0
    0.5877    1.5353   -1.3519 C   0  0  0  0  0  0  0  0  0  0  0  0
    3.3263   -0.1386   -2.6048 H   0  0  0  0  0  0  0  0  0  0  0  0
    3.4036    1.1962   -1.4496 H   0  0  0  0  0  0  0  0  0  0  0  0
    2.8264    1.4781   -3.1183 H   0  0  0  0  0  0  0  0  0  0  0  0
    1.5246   -1.6189   -2.2878 H   0  0  0  0  0  0  0  0  0  0  0  0
   -0.7731   -2.0842   -1.4948 H   0  0  0  0  0  0  0  0  0  0  0  0
   -1.0444    3.2763   -0.4161 H   0  0  0  0  0  0  0  0  0  0  0  0
   -2.9167    4.4398   -0.5526 H   0  0  0  0  0  0  0  0  0  0  0  0
   -5.0164    2.2233    1.4839 H   0  0  0  0  0  0  0  0  0  0  0  0
   -7.4345    2.3829    1.6177 H   0  0  0  0  0  0  0  0  0  0  0  0
   -9.3796    6.1100   -0.2934 H   0  0  0  0  0  0  0  0  0  0  0  0
  -11.8419    5.9884   -0.2993 H   0  0  0  0  0  0  0  0  0  0  0  0
  -10.5917   -0.0288    1.1113 H   0  0  0  0  0  0  0  0  0  0  0  0
  -12.8365   -1.4788    1.5389 H   0  0  0  0  0  0  0  0  0  0  0  0
  -14.7897    0.0634    1.1835 H   0  0  0  0  0  0  0  0  0  0  0  0
  -14.1469    2.4051    0.5687 H   0  0  0  0  0  0  0  0  0  0  0  0
   -9.3548    1.8827    0.5618 H   0  0  0  0  0  0  0  0  0  0  0  0
   -7.3630    5.5821   -1.2883 H   0  0  0  0  0  0  0  0  0  0  0  0
   -4.9308    5.4912   -1.3182 H   0  0  0  0  0  0  0  0  0  0  0  0
    0.9865    2.5472   -1.3236 H   0  0  0  0  0  0  0  0  0  0  0  0
  1  2  1  0  0  0  0
  1 30  1  0  0  0  0
  1 31  1  0  0  0  0
  1 32  1  0  0  0  0
  2  3  1  0  0  0  0
  2 29  2  0  0  0  0
  3  4  2  0  0  0  0
  3 33  1  0  0  0  0
  4  5  1  0  0  0  0
  4 34  1  0  0  0  0
  5  6  1  0  0  0  0
  5  7  2  0  0  0  0
  7  8  1  0  0  0  0
  7 29  1  0  0  0  0
  8  9  1  0  0  0  0
  8 35  1  0  0  0  0
  9 10  2  0  0  0  0
  9 11  1  0  0  0  0
 11 12  1  0  0  0  0
 11 36  1  0  0  0  0
 12 13  1  0  0  0  0
 12 28  2  0  0  0  0
 13 14  2  0  0  0  0
 13 37  1  0  0  0  0
 14 15  1  0  0  0  0
 14 38  1  0  0  0  0
 15 16  1  0  0  0  0
 15 27  2  0  0  0  0
 16 17  1  0  0  0  0
 16 26  2  0  0  0  0
 17 18  2  0  0  0  0
 17 39  1  0  0  0  0
 18 19  1  0  0  0  0
 18 40  1  0  0  0  0
 19 20  2  0  0  0  0
 20 21  1  0  0  0  0
 20 26  1  0  0  0  0
 21 22  1  0  0  0  0
 21 25  2  0  0  0  0
 22 23  2  0  0  0  0
 22 41  1  0  0  0  0
 23 24  1  0  0  0  0
 23 42  1  0  0  0  0
 24 25  1  0  0  0  0
 24 43  1  0  0  0  0
 25 44  1  0  0  0  0
 26 45  1  0  0  0  0
 27 28  1  0  0  0  0
 27 46  1  0  0  0  0
 28 47  1  0  0  0  0
 29 48  1  0  0  0  0
M  END
$$$$
