CHEMBL370193
 OpenBabel04072215373D

 42 45  0  0  0  0  0  0  0  0999 V2000
    2.0846   -0.8828   -1.2025 N   0  0  0  0  0  0  0  0  0  0  0  0
    2.4596   -0.1347   -0.1220 C   0  0  0  0  0  0  0  0  0  0  0  0
    2.1290   -0.4618    1.0110 O   0  0  0  0  0  0  0  0  0  0  0  0
    3.2094    1.1223   -0.3892 C   0  0  0  0  0  0  0  0  0  0  0  0
    3.1932    2.1159    0.5876 C   0  0  0  0  0  0  0  0  0  0  0  0
    3.8376    3.3371    0.3604 C   0  0  0  0  0  0  0  0  0  0  0  0
    4.4504    3.6410   -0.8701 C   0  0  0  0  0  0  0  0  0  0  0  0
    5.0290    4.9848   -1.1660 C   0  0  0  0  0  0  0  0  0  0  0  0
    6.1164    4.9499   -1.9676 N   0  0  0  0  0  0  0  0  0  0  0  0
    6.8046    6.0995   -2.2747 N   0  0  0  0  0  0  0  0  0  0  0  0
    6.4664    7.2855   -1.7331 C   0  0  0  0  0  0  0  0  0  0  0  0
    7.1876    8.4688   -2.0724 N   0  0  0  0  0  0  0  0  0  0  0  0
    8.3781    8.5675   -2.8321 C   0  0  0  0  0  0  0  0  0  0  0  0
    8.6592    9.7644   -3.5134 C   0  0  0  0  0  0  0  0  0  0  0  0
    9.8402    9.9169   -4.2490 C   0  0  0  0  0  0  0  0  0  0  0  0
   10.7722    8.8834   -4.2919 C   0  0  0  0  0  0  0  0  0  0  0  0
   10.5268    7.7135   -3.5795 C   0  0  0  0  0  0  0  0  0  0  0  0
   11.7988    6.3143   -3.6078 Br  0  0  0  0  0  0  0  0  0  0  0  0
    9.3521    7.5621   -2.8408 C   0  0  0  0  0  0  0  0  0  0  0  0
    5.3659    7.3739   -0.8562 C   0  0  0  0  0  0  0  0  0  0  0  0
    5.0157    8.5682   -0.1717 C   0  0  0  0  0  0  0  0  0  0  0  0
    3.8790    8.6570    0.6296 C   0  0  0  0  0  0  0  0  0  0  0  0
    3.0215    7.5758    0.7119 C   0  0  0  0  0  0  0  0  0  0  0  0
    3.3500    6.3866    0.0664 C   0  0  0  0  0  0  0  0  0  0  0  0
    4.5664    6.2184   -0.6460 C   0  0  0  0  0  0  0  0  0  0  0  0
    4.5311    2.5882   -1.8033 C   0  0  0  0  0  0  0  0  0  0  0  0
    3.9279    1.3418   -1.5668 C   0  0  0  0  0  0  0  0  0  0  0  0
    1.4635   -1.6602   -1.0156 H   0  0  0  0  0  0  0  0  0  0  0  0
    2.1276   -0.5387   -2.1511 H   0  0  0  0  0  0  0  0  0  0  0  0
    2.6728    1.9519    1.5293 H   0  0  0  0  0  0  0  0  0  0  0  0
    3.8396    4.0547    1.1781 H   0  0  0  0  0  0  0  0  0  0  0  0
    6.5170    9.1782   -2.3550 H   0  0  0  0  0  0  0  0  0  0  0  0
    7.9553   10.5930   -3.4910 H   0  0  0  0  0  0  0  0  0  0  0  0
   10.0326   10.8424   -4.7866 H   0  0  0  0  0  0  0  0  0  0  0  0
   11.6855    9.0006   -4.8689 H   0  0  0  0  0  0  0  0  0  0  0  0
    9.2015    6.6495   -2.2713 H   0  0  0  0  0  0  0  0  0  0  0  0
    5.6590    9.4449   -0.2345 H   0  0  0  0  0  0  0  0  0  0  0  0
    3.6565    9.5744    1.1677 H   0  0  0  0  0  0  0  0  0  0  0  0
    2.1038    7.6431    1.2931 H   0  0  0  0  0  0  0  0  0  0  0  0
    2.6231    5.5798    0.1253 H   0  0  0  0  0  0  0  0  0  0  0  0
    5.0763    2.7298   -2.7372 H   0  0  0  0  0  0  0  0  0  0  0  0
    4.0431    0.5566   -2.3091 H   0  0  0  0  0  0  0  0  0  0  0  0
  1  2  1  0  0  0  0
  1 28  1  0  0  0  0
  1 29  1  0  0  0  0
  2  3  2  0  0  0  0
  2  4  1  0  0  0  0
  4  5  1  0  0  0  0
  4 27  2  0  0  0  0
  5  6  2  0  0  0  0
  5 30  1  0  0  0  0
  6  7  1  0  0  0  0
  6 31  1  0  0  0  0
  7  8  1  0  0  0  0
  7 26  2  0  0  0  0
  8  9  1  0  0  0  0
  8 25  2  0  0  0  0
  9 10  2  0  0  0  0
 10 11  1  0  0  0  0
 11 12  1  0  0  0  0
 11 20  2  0  0  0  0
 12 13  1  0  0  0  0
 12 32  1  0  0  0  0
 13 14  1  0  0  0  0
 13 19  2  0  0  0  0
 14 15  2  0  0  0  0
 14 33  1  0  0  0  0
 15 16  1  0  0  0  0
 15 34  1  0  0  0  0
 16 17  2  0  0  0  0
 16 35  1  0  0  0  0
 17 18  1  0  0  0  0
 17 19  1  0  0  0  0
 19 36  1  0  0  0  0
 20 21  1  0  0  0  0
 20 25  1  0  0  0  0
 21 22  2  0  0  0  0
 21 37  1  0  0  0  0
 22 23  1  0  0  0  0
 22 38  1  0  0  0  0
 23 24  2  0  0  0  0
 23 39  1  0  0  0  0
 24 25  1  0  0  0  0
 24 40  1  0  0  0  0
 26 27  1  0  0  0  0
 26 41  1  0  0  0  0
 27 42  1  0  0  0  0
M  END
$$$$
