CHEMBL3671525
 OpenBabel04072215373D

 57 59  0  0  0  0  0  0  0  0999 V2000
    2.2600   -1.9798    0.8457 C   0  0  0  0  0  0  0  0  0  0  0  0
    2.8765   -0.9198    0.3098 C   0  0  0  0  0  0  0  0  0  0  0  0
    3.5097   -0.9989   -1.0342 C   0  0  0  0  0  0  0  0  0  0  0  0
    3.2149   -1.8674   -1.8435 O   0  0  0  0  0  0  0  0  0  0  0  0
    4.4710   -0.0140   -1.1997 N   0  0  0  0  0  0  0  0  0  0  0  0
    5.2279   -0.0110   -2.3903 C   0  0  0  0  0  0  0  0  0  0  0  0
    6.3535   -0.8364   -2.4416 C   0  0  0  0  0  0  0  0  0  0  0  0
    7.0586   -1.0107   -3.6524 C   0  0  0  0  0  0  0  0  0  0  0  0
    8.1125   -1.9183   -3.8401 C   0  0  0  0  0  0  0  0  0  0  0  0
    8.4948   -2.7942   -2.7879 N   0  0  0  0  0  0  0  0  0  0  0  0
    9.2414   -3.9795   -2.9917 C   0  0  0  0  0  0  0  0  0  0  0  0
    8.9349   -4.8485   -4.0492 C   0  0  0  0  0  0  0  0  0  0  0  0
    9.7372   -5.9548   -4.3217 C   0  0  0  0  0  0  0  0  0  0  0  0
   10.8453   -6.2168   -3.5185 C   0  0  0  0  0  0  0  0  0  0  0  0
   11.9848   -7.6629   -3.9467 Br  0  0  0  0  0  0  0  0  0  0  0  0
   11.1293   -5.4097   -2.4193 C   0  0  0  0  0  0  0  0  0  0  0  0
   10.3195   -4.3058   -2.1611 C   0  0  0  0  0  0  0  0  0  0  0  0
   10.6078   -3.5173   -1.1133 F   0  0  0  0  0  0  0  0  0  0  0  0
    8.7444   -2.0386   -5.0237 N   0  0  0  0  0  0  0  0  0  0  0  0
    8.3092   -1.2763   -6.0247 C   0  0  0  0  0  0  0  0  0  0  0  0
    7.2940   -0.4141   -5.9689 N   0  0  0  0  0  0  0  0  0  0  0  0
    6.6646   -0.2955   -4.7934 C   0  0  0  0  0  0  0  0  0  0  0  0
    5.5691    0.5538   -4.7063 C   0  0  0  0  0  0  0  0  0  0  0  0
    4.8476    0.7263   -3.5194 C   0  0  0  0  0  0  0  0  0  0  0  0
    3.8190    1.6393   -3.6108 O   0  0  0  0  0  0  0  0  0  0  0  0
    3.5574    2.3834   -2.4181 C   0  0  0  0  0  0  0  0  0  0  0  0
    3.0187    3.7786   -2.7445 C   0  0  0  0  0  0  0  0  0  0  0  0
    2.8450    4.5776   -1.5370 N   0  0  0  0  0  0  0  0  0  0  0  0
    3.9280    5.1726   -0.9300 C   0  0  0  0  0  0  0  0  0  0  0  0
    5.0587    5.1418   -1.3984 O   0  0  0  0  0  0  0  0  0  0  0  0
    3.6209    5.8113    0.3754 C   0  0  0  0  0  0  0  0  0  0  0  0
    4.5938    6.4743    1.0219 C   0  0  0  0  0  0  0  0  0  0  0  0
    4.4560    7.1210    2.3682 C   0  0  0  0  0  0  0  0  0  0  0  0
    4.7135    8.6191    2.2987 C   0  0  0  0  0  0  0  0  0  0  0  0
    1.7619   -1.9083    1.8064 H   0  0  0  0  0  0  0  0  0  0  0  0
    2.2317   -2.9384    0.3332 H   0  0  0  0  0  0  0  0  0  0  0  0
    2.8899    0.0368    0.8168 H   0  0  0  0  0  0  0  0  0  0  0  0
    4.9989    0.1527   -0.3509 H   0  0  0  0  0  0  0  0  0  0  0  0
    6.6346   -1.4083   -1.5617 H   0  0  0  0  0  0  0  0  0  0  0  0
    8.8197   -2.2714   -1.9796 H   0  0  0  0  0  0  0  0  0  0  0  0
    8.0799   -4.6430   -4.6898 H   0  0  0  0  0  0  0  0  0  0  0  0
    9.5006   -6.5860   -5.1757 H   0  0  0  0  0  0  0  0  0  0  0  0
   11.9806   -5.6086   -1.7779 H   0  0  0  0  0  0  0  0  0  0  0  0
    8.8235   -1.3716   -6.9736 H   0  0  0  0  0  0  0  0  0  0  0  0
    5.2609    1.0949   -5.5987 H   0  0  0  0  0  0  0  0  0  0  0  0
    4.4646    2.5016   -1.8160 H   0  0  0  0  0  0  0  0  0  0  0  0
    2.7996    1.8502   -1.8333 H   0  0  0  0  0  0  0  0  0  0  0  0
    2.0510    3.7120   -3.2522 H   0  0  0  0  0  0  0  0  0  0  0  0
    3.7079    4.2956   -3.4215 H   0  0  0  0  0  0  0  0  0  0  0  0
    1.9410    4.5776   -1.0808 H   0  0  0  0  0  0  0  0  0  0  0  0
    2.6280    5.7046    0.7912 H   0  0  0  0  0  0  0  0  0  0  0  0
    5.5810    6.5489    0.5638 H   0  0  0  0  0  0  0  0  0  0  0  0
    5.1866    6.6642    3.0465 H   0  0  0  0  0  0  0  0  0  0  0  0
    3.4643    6.9397    2.7974 H   0  0  0  0  0  0  0  0  0  0  0  0
    5.7003    8.8343    1.8735 H   0  0  0  0  0  0  0  0  0  0  0  0
    4.6783    9.0565    3.3016 H   0  0  0  0  0  0  0  0  0  0  0  0
    3.9602    9.1202    1.6823 H   0  0  0  0  0  0  0  0  0  0  0  0
  1  2  2  0  0  0  0
  1 35  1  0  0  0  0
  1 36  1  0  0  0  0
  2  3  1  0  0  0  0
  2 37  1  0  0  0  0
  3  4  2  0  0  0  0
  3  5  1  0  0  0  0
  5  6  1  0  0  0  0
  5 38  1  0  0  0  0
  6  7  1  0  0  0  0
  6 24  2  0  0  0  0
  7  8  2  0  0  0  0
  7 39  1  0  0  0  0
  8  9  1  0  0  0  0
  8 22  1  0  0  0  0
  9 10  1  0  0  0  0
  9 19  2  0  0  0  0
 10 11  1  0  0  0  0
 10 40  1  0  0  0  0
 11 12  1  0  0  0  0
 11 17  2  0  0  0  0
 12 13  2  0  0  0  0
 12 41  1  0  0  0  0
 13 14  1  0  0  0  0
 13 42  1  0  0  0  0
 14 15  1  0  0  0  0
 14 16  2  0  0  0  0
 16 17  1  0  0  0  0
 16 43  1  0  0  0  0
 17 18  1  0  0  0  0
 19 20  1  0  0  0  0
 20 21  2  0  0  0  0
 20 44  1  0  0  0  0
 21 22  1  0  0  0  0
 22 23  2  0  0  0  0
 23 24  1  0  0  0  0
 23 45  1  0  0  0  0
 24 25  1  0  0  0  0
 25 26  1  0  0  0  0
 26 27  1  0  0  0  0
 26 46  1  0  0  0  0
 26 47  1  0  0  0  0
 27 28  1  0  0  0  0
 27 48  1  0  0  0  0
 27 49  1  0  0  0  0
 28 29  1  0  0  0  0
 28 50  1  0  0  0  0
 29 30  2  0  0  0  0
 29 31  1  0  0  0  0
 31 32  2  0  0  0  0
 31 51  1  0  0  0  0
 32 33  1  0  0  0  0
 32 52  1  0  0  0  0
 33 34  1  0  0  0  0
 33 53  1  0  0  0  0
 33 54  1  0  0  0  0
 34 55  1  0  0  0  0
 34 56  1  0  0  0  0
 34 57  1  0  0  0  0
M  END
$$$$
