CHEMBL3590219
 OpenBabel04072215363D

 59 63  0  0  0  0  0  0  0  0999 V2000
   12.9098    5.0441   -3.8917 C   0  0  0  0  0  0  0  0  0  0  0  0
   12.5709    3.7547   -3.2820 N   0  0  0  0  0  0  0  0  0  0  0  0
   13.7679    2.9247   -3.1604 C   0  0  0  0  0  0  0  0  0  0  0  0
   11.9445    3.9438   -1.9518 C   0  0  0  0  0  0  0  0  0  0  0  0
   10.6274    4.7321   -2.0573 C   0  0  0  0  0  0  0  0  0  0  0  0
   10.5388    5.8360   -1.5131 O   0  0  0  0  0  0  0  0  0  0  0  0
    9.5728    4.1707   -2.7673 N   0  0  0  0  0  0  0  0  0  0  0  0
    8.4713    5.0343   -3.1802 C   0  0  0  0  0  0  0  0  0  0  0  0
    7.1228    4.3543   -2.9635 C   0  0  0  0  0  0  0  0  0  0  0  0
    7.0593    2.9346   -3.5587 C   0  0  0  0  0  0  0  0  0  0  0  0
    6.8460    2.9371   -5.0109 N   0  0  0  0  0  0  0  0  0  0  0  0
    5.8256    2.3353   -5.6974 C   0  0  0  0  0  0  0  0  0  0  0  0
    6.0153    2.6446   -7.0364 C   0  0  0  0  0  0  0  0  0  0  0  0
    5.1808    2.2453   -8.1361 C   0  0  0  0  0  0  0  0  0  0  0  0
    5.2698    2.8457   -9.3906 C   0  0  0  0  0  0  0  0  0  0  0  0
    4.5408    2.4696  -10.4628 N   0  0  0  0  0  0  0  0  0  0  0  0
    3.7330    1.4027  -10.3045 C   0  0  0  0  0  0  0  0  0  0  0  0
    3.1054    1.0226  -11.4837 N   0  0  0  0  0  0  0  0  0  0  0  0
    3.6380    0.7630   -9.0683 C   0  0  0  0  0  0  0  0  0  0  0  0
    3.0280   -0.5199   -8.9187 N   0  0  0  0  0  0  0  0  0  0  0  0
    3.4928   -1.3049   -7.8908 N   0  0  0  0  0  0  0  0  0  0  0  0
    3.3883   -2.5611   -8.2776 N   0  0  0  0  0  0  0  0  0  0  0  0
    2.5805   -2.5797   -9.3580 C   0  0  0  0  0  0  0  0  0  0  0  0
    2.1119   -3.7006  -10.0707 C   0  0  0  0  0  0  0  0  0  0  0  0
    0.7869   -3.4984  -10.4630 C   0  0  0  0  0  0  0  0  0  0  0  0
    0.3211   -2.2198  -10.8005 C   0  0  0  0  0  0  0  0  0  0  0  0
    1.0870   -1.0800  -10.5528 C   0  0  0  0  0  0  0  0  0  0  0  0
    2.1621   -1.2877   -9.6836 C   0  0  0  0  0  0  0  0  0  0  0  0
    4.3357    1.2049   -7.9646 N   0  0  0  0  0  0  0  0  0  0  0  0
    7.2048    3.4046   -7.0339 C   0  0  0  0  0  0  0  0  0  0  0  0
    7.7038    3.5852   -5.8142 N   0  0  0  0  0  0  0  0  0  0  0  0
    8.2879    2.1153   -3.1473 C   0  0  0  0  0  0  0  0  0  0  0  0
    9.6031    2.8499   -3.3927 C   0  0  0  0  0  0  0  0  0  0  0  0
   13.3535    4.8906   -4.8822 H   0  0  0  0  0  0  0  0  0  0  0  0
   13.6180    5.6166   -3.2814 H   0  0  0  0  0  0  0  0  0  0  0  0
   12.0182    5.6571   -4.0541 H   0  0  0  0  0  0  0  0  0  0  0  0
   14.2209    2.7600   -4.1451 H   0  0  0  0  0  0  0  0  0  0  0  0
   13.5095    1.9355   -2.7672 H   0  0  0  0  0  0  0  0  0  0  0  0
   14.5206    3.3737   -2.5044 H   0  0  0  0  0  0  0  0  0  0  0  0
   12.6173    4.4893   -1.2763 H   0  0  0  0  0  0  0  0  0  0  0  0
   11.7270    2.9830   -1.4697 H   0  0  0  0  0  0  0  0  0  0  0  0
    8.6351    5.3016   -4.2345 H   0  0  0  0  0  0  0  0  0  0  0  0
    8.4862    5.9810   -2.6302 H   0  0  0  0  0  0  0  0  0  0  0  0
    6.3164    4.9821   -3.3635 H   0  0  0  0  0  0  0  0  0  0  0  0
    6.9596    4.2723   -1.8810 H   0  0  0  0  0  0  0  0  0  0  0  0
    6.1735    2.4440   -3.1448 H   0  0  0  0  0  0  0  0  0  0  0  0
    5.0592    1.7548   -5.1976 H   0  0  0  0  0  0  0  0  0  0  0  0
    5.9625    3.6601   -9.5755 H   0  0  0  0  0  0  0  0  0  0  0  0
    3.4409    1.6719  -12.2051 H   0  0  0  0  0  0  0  0  0  0  0  0
    3.3191    0.0684  -11.7602 H   0  0  0  0  0  0  0  0  0  0  0  0
    2.7604   -3.8672  -10.9677 H   0  0  0  0  0  0  0  0  0  0  0  0
    0.1039   -4.3429  -10.3888 H   0  0  0  0  0  0  0  0  0  0  0  0
   -0.6977   -2.1323  -11.1957 H   0  0  0  0  0  0  0  0  0  0  0  0
    0.7117   -0.0924  -10.8143 H   0  0  0  0  0  0  0  0  0  0  0  0
    7.7383    3.8362   -7.8721 H   0  0  0  0  0  0  0  0  0  0  0  0
    8.3016    1.1427   -3.6519 H   0  0  0  0  0  0  0  0  0  0  0  0
    8.2145    1.9127   -2.0708 H   0  0  0  0  0  0  0  0  0  0  0  0
    9.8127    2.9788   -4.4624 H   0  0  0  0  0  0  0  0  0  0  0  0
   10.4071    2.2342   -2.9863 H   0  0  0  0  0  0  0  0  0  0  0  0
  1  2  1  0  0  0  0
  1 34  1  0  0  0  0
  1 35  1  0  0  0  0
  1 36  1  0  0  0  0
  2  3  1  0  0  0  0
  2  4  1  0  0  0  0
  3 37  1  0  0  0  0
  3 38  1  0  0  0  0
  3 39  1  0  0  0  0
  4  5  1  0  0  0  0
  4 40  1  0  0  0  0
  4 41  1  0  0  0  0
  5  6  2  0  0  0  0
  5  7  1  0  0  0  0
  7  8  1  0  0  0  0
  7 33  1  0  0  0  0
  8  9  1  0  0  0  0
  8 42  1  0  0  0  0
  8 43  1  0  0  0  0
  9 10  1  0  0  0  0
  9 44  1  0  0  0  0
  9 45  1  0  0  0  0
 10 11  1  0  0  0  0
 10 32  1  0  0  0  0
 10 46  1  0  0  0  0
 11 12  1  0  0  0  0
 11 31  1  0  0  0  0
 12 13  2  0  0  0  0
 12 47  1  0  0  0  0
 13 14  1  0  0  0  0
 13 30  1  0  0  0  0
 14 15  1  0  0  0  0
 14 29  2  0  0  0  0
 15 16  2  0  0  0  0
 15 48  1  0  0  0  0
 16 17  1  0  0  0  0
 17 18  1  0  0  0  0
 17 19  2  0  0  0  0
 18 49  1  0  0  0  0
 18 50  1  0  0  0  0
 19 20  1  0  0  0  0
 19 29  1  0  0  0  0
 20 21  1  0  0  0  0
 20 28  1  0  0  0  0
 21 22  2  0  0  0  0
 22 23  1  0  0  0  0
 23 24  1  0  0  0  0
 23 28  2  0  0  0  0
 24 25  2  0  0  0  0
 24 51  1  0  0  0  0
 25 26  1  0  0  0  0
 25 52  1  0  0  0  0
 26 27  2  0  0  0  0
 26 53  1  0  0  0  0
 27 28  1  0  0  0  0
 27 54  1  0  0  0  0
 30 31  2  0  0  0  0
 30 55  1  0  0  0  0
 32 33  1  0  0  0  0
 32 56  1  0  0  0  0
 32 57  1  0  0  0  0
 33 58  1  0  0  0  0
 33 59  1  0  0  0  0
M  END
$$$$
