CHEMBL1084302
 OpenBabel04072215363D

 78 83  0  0  0  0  0  0  0  0999 V2000
   -5.9051   -2.4693    7.6829 C   0  0  0  0  0  0  0  0  0  0  0  0
   -4.9765   -1.9239    6.6990 N   0  0  0  0  0  0  0  0  0  0  0  0
   -4.8875   -2.8099    5.5170 C   0  0  0  0  0  0  0  0  0  0  0  0
   -3.9079   -2.2720    4.4491 C   0  0  0  0  0  0  0  0  0  0  0  0
   -4.2854   -0.9059    4.0700 N   0  0  0  0  0  0  0  0  0  0  0  0
   -4.3029   -0.4990    2.7529 C   0  0  0  0  0  0  0  0  0  0  0  0
   -3.4733   -1.0776    1.7829 C   0  0  0  0  0  0  0  0  0  0  0  0
   -3.5623   -0.7263    0.4342 C   0  0  0  0  0  0  0  0  0  0  0  0
   -4.4979    0.2149    0.0189 C   0  0  0  0  0  0  0  0  0  0  0  0
   -5.3354    0.8239    0.9546 C   0  0  0  0  0  0  0  0  0  0  0  0
   -6.3575    1.7629    0.5263 C   0  0  0  0  0  0  0  0  0  0  0  0
   -7.1244    1.7934   -0.6571 C   0  0  0  0  0  0  0  0  0  0  0  0
   -7.9819    2.8136   -0.7047 N   0  0  0  0  0  0  0  0  0  0  0  0
   -7.7959    3.4612    0.4839 N   0  0  0  0  0  0  0  0  0  0  0  0
   -8.4600    4.6403    0.9216 C   0  0  0  0  0  0  0  0  0  0  0  0
   -9.4441    5.1621    0.0811 N   0  0  0  0  0  0  0  0  0  0  0  0
   -8.0754    5.1865    2.0966 C   0  0  0  0  0  0  0  0  0  0  0  0
   -8.6187    6.4202    2.6627 C   0  0  0  0  0  0  0  0  0  0  0  0
   -9.7654    6.3867    3.4541 C   0  0  0  0  0  0  0  0  0  0  0  0
  -10.2392    7.5575    4.0525 C   0  0  0  0  0  0  0  0  0  0  0  0
   -9.5839    8.7803    3.8698 C   0  0  0  0  0  0  0  0  0  0  0  0
   -9.9964    9.9946    4.4688 N   0  0  0  0  0  0  0  0  0  0  0  0
  -11.0913   10.1842    5.2844 C   0  0  0  0  0  0  0  0  0  0  0  0
  -11.8671    9.2799    5.5860 O   0  0  0  0  0  0  0  0  0  0  0  0
  -11.3035   11.4803    5.7652 N   0  0  0  0  0  0  0  0  0  0  0  0
  -10.4933   12.6642    5.4824 C   0  0  0  0  0  0  0  0  0  0  0  0
  -12.5892   11.6948    6.4748 C   0  0  0  0  0  0  0  0  0  0  0  0
  -13.6876   12.1250    5.4851 C   0  0  0  0  0  0  0  0  0  0  0  0
  -15.0376   12.2968    6.1771 C   0  0  0  0  0  0  0  0  0  0  0  0
  -14.9430   13.2487    7.3652 C   0  0  0  0  0  0  0  0  0  0  0  0
  -13.8680   12.8044    8.3541 C   0  0  0  0  0  0  0  0  0  0  0  0
  -12.5075   12.6589    7.6700 C   0  0  0  0  0  0  0  0  0  0  0  0
   -8.4455    8.8081    3.0539 C   0  0  0  0  0  0  0  0  0  0  0  0
   -7.9674    7.6388    2.4531 C   0  0  0  0  0  0  0  0  0  0  0  0
   -7.0145    4.4455    2.8427 C   0  0  0  0  0  0  0  0  0  0  0  0
   -6.4087    3.3650    2.4634 N   0  0  0  0  0  0  0  0  0  0  0  0
   -6.7918    2.8581    1.2503 C   0  0  0  0  0  0  0  0  0  0  0  0
   -5.2129    0.4681    2.3084 C   0  0  0  0  0  0  0  0  0  0  0  0
   -4.4579    0.0280    5.1941 C   0  0  0  0  0  0  0  0  0  0  0  0
   -5.4095   -0.5783    6.2525 C   0  0  0  0  0  0  0  0  0  0  0  0
   -5.5603   -3.4507    8.0270 H   0  0  0  0  0  0  0  0  0  0  0  0
   -6.9203   -2.5795    7.2858 H   0  0  0  0  0  0  0  0  0  0  0  0
   -5.9462   -1.8231    8.5663 H   0  0  0  0  0  0  0  0  0  0  0  0
   -5.8797   -2.9280    5.0579 H   0  0  0  0  0  0  0  0  0  0  0  0
   -4.5489   -3.8069    5.8216 H   0  0  0  0  0  0  0  0  0  0  0  0
   -3.9525   -2.9591    3.5961 H   0  0  0  0  0  0  0  0  0  0  0  0
   -2.8814   -2.2785    4.8338 H   0  0  0  0  0  0  0  0  0  0  0  0
   -2.7278   -1.8128    2.0722 H   0  0  0  0  0  0  0  0  0  0  0  0
   -2.9023   -1.1980   -0.2909 H   0  0  0  0  0  0  0  0  0  0  0  0
   -4.5594    0.4670   -1.0368 H   0  0  0  0  0  0  0  0  0  0  0  0
   -7.0936    1.1023   -1.4888 H   0  0  0  0  0  0  0  0  0  0  0  0
   -9.3432    4.8082   -0.8740 H   0  0  0  0  0  0  0  0  0  0  0  0
   -9.5540    6.1697    0.1416 H   0  0  0  0  0  0  0  0  0  0  0  0
  -10.2992    5.4538    3.6269 H   0  0  0  0  0  0  0  0  0  0  0  0
  -11.1295    7.4653    4.6665 H   0  0  0  0  0  0  0  0  0  0  0  0
   -9.4322   10.7944    4.2384 H   0  0  0  0  0  0  0  0  0  0  0  0
   -9.6007   12.4666    4.8928 H   0  0  0  0  0  0  0  0  0  0  0  0
  -10.1617   13.0985    6.4300 H   0  0  0  0  0  0  0  0  0  0  0  0
  -11.1019   13.3935    4.9405 H   0  0  0  0  0  0  0  0  0  0  0  0
  -12.9073   10.7336    6.8991 H   0  0  0  0  0  0  0  0  0  0  0  0
  -13.7846   11.3830    4.6833 H   0  0  0  0  0  0  0  0  0  0  0  0
  -13.4103   13.0695    5.0013 H   0  0  0  0  0  0  0  0  0  0  0  0
  -15.3984   11.3191    6.5196 H   0  0  0  0  0  0  0  0  0  0  0  0
  -15.7737   12.6742    5.4584 H   0  0  0  0  0  0  0  0  0  0  0  0
  -15.9128   13.3026    7.8721 H   0  0  0  0  0  0  0  0  0  0  0  0
  -14.7125   14.2591    7.0056 H   0  0  0  0  0  0  0  0  0  0  0  0
  -14.1593   11.8476    8.8041 H   0  0  0  0  0  0  0  0  0  0  0  0
  -13.7943   13.5320    9.1700 H   0  0  0  0  0  0  0  0  0  0  0  0
  -11.7735   12.2872    8.3953 H   0  0  0  0  0  0  0  0  0  0  0  0
  -12.1704   13.6504    7.3504 H   0  0  0  0  0  0  0  0  0  0  0  0
   -7.9080    9.7370    2.8800 H   0  0  0  0  0  0  0  0  0  0  0  0
   -7.0759    7.6851    1.8301 H   0  0  0  0  0  0  0  0  0  0  0  0
   -6.7324    4.8802    3.8171 H   0  0  0  0  0  0  0  0  0  0  0  0
   -5.8981    0.9132    3.0249 H   0  0  0  0  0  0  0  0  0  0  0  0
   -4.8488    1.0045    4.8895 H   0  0  0  0  0  0  0  0  0  0  0  0
   -3.4773    0.2183    5.6493 H   0  0  0  0  0  0  0  0  0  0  0  0
   -6.4226   -0.6266    5.8297 H   0  0  0  0  0  0  0  0  0  0  0  0
   -5.4454    0.0998    7.1133 H   0  0  0  0  0  0  0  0  0  0  0  0
  1  2  1  0  0  0  0
  1 41  1  0  0  0  0
  1 42  1  0  0  0  0
  1 43  1  0  0  0  0
  2  3  1  0  0  0  0
  2 40  1  0  0  0  0
  3  4  1  0  0  0  0
  3 44  1  0  0  0  0
  3 45  1  0  0  0  0
  4  5  1  0  0  0  0
  4 46  1  0  0  0  0
  4 47  1  0  0  0  0
  5  6  1  0  0  0  0
  5 39  1  0  0  0  0
  6  7  1  0  0  0  0
  6 38  2  0  0  0  0
  7  8  2  0  0  0  0
  7 48  1  0  0  0  0
  8  9  1  0  0  0  0
  8 49  1  0  0  0  0
  9 10  2  0  0  0  0
  9 50  1  0  0  0  0
 10 11  1  0  0  0  0
 10 38  1  0  0  0  0
 11 12  1  0  0  0  0
 11 37  2  0  0  0  0
 12 13  2  0  0  0  0
 12 51  1  0  0  0  0
 13 14  1  0  0  0  0
 14 15  1  0  0  0  0
 14 37  1  0  0  0  0
 15 16  1  0  0  0  0
 15 17  2  0  0  0  0
 16 52  1  0  0  0  0
 16 53  1  0  0  0  0
 17 18  1  0  0  0  0
 17 35  1  0  0  0  0
 18 19  1  0  0  0  0
 18 34  2  0  0  0  0
 19 20  2  0  0  0  0
 19 54  1  0  0  0  0
 20 21  1  0  0  0  0
 20 55  1  0  0  0  0
 21 22  1  0  0  0  0
 21 33  2  0  0  0  0
 22 23  1  0  0  0  0
 22 56  1  0  0  0  0
 23 24  2  0  0  0  0
 23 25  1  0  0  0  0
 25 26  1  0  0  0  0
 25 27  1  0  0  0  0
 26 57  1  0  0  0  0
 26 58  1  0  0  0  0
 26 59  1  0  0  0  0
 27 28  1  0  0  0  0
 27 32  1  0  0  0  0
 27 60  1  0  0  0  0
 28 29  1  0  0  0  0
 28 61  1  0  0  0  0
 28 62  1  0  0  0  0
 29 30  1  0  0  0  0
 29 63  1  0  0  0  0
 29 64  1  0  0  0  0
 30 31  1  0  0  0  0
 30 65  1  0  0  0  0
 30 66  1  0  0  0  0
 31 32  1  0  0  0  0
 31 67  1  0  0  0  0
 31 68  1  0  0  0  0
 32 69  1  0  0  0  0
 32 70  1  0  0  0  0
 33 34  1  0  0  0  0
 33 71  1  0  0  0  0
 34 72  1  0  0  0  0
 35 36  2  0  0  0  0
 35 73  1  0  0  0  0
 36 37  1  0  0  0  0
 38 74  1  0  0  0  0
 39 40  1  0  0  0  0
 39 75  1  0  0  0  0
 39 76  1  0  0  0  0
 40 77  1  0  0  0  0
 40 78  1  0  0  0  0
M  END
$$$$
