CHEMBL3907479
 OpenBabel04072215373D

 43 47  0  0  0  0  0  0  0  0999 V2000
   -3.3674    0.0938    0.5991 C   0  0  0  0  0  0  0  0  0  0  0  0
   -1.8992    0.0042    0.4412 C   0  0  0  0  0  0  0  0  0  0  0  0
   -1.2072   -1.0637    0.1019 N   0  0  0  0  0  0  0  0  0  0  0  0
    0.0953   -0.6579    0.0360 C   0  0  0  0  0  0  0  0  0  0  0  0
    1.2463   -1.3779   -0.3201 C   0  0  0  0  0  0  0  0  0  0  0  0
    2.4771   -0.7092   -0.3659 C   0  0  0  0  0  0  0  0  0  0  0  0
    2.5485    0.6461   -0.0328 C   0  0  0  0  0  0  0  0  0  0  0  0
    3.7672    1.3517   -0.1680 N   0  0  0  0  0  0  0  0  0  0  0  0
    4.0211    2.3908    0.6659 N   0  0  0  0  0  0  0  0  0  0  0  0
    5.2136    2.8268    0.2841 C   0  0  0  0  0  0  0  0  0  0  0  0
    5.7319    2.1563   -0.8541 C   0  0  0  0  0  0  0  0  0  0  0  0
    6.9687    2.4425   -1.5947 C   0  0  0  0  0  0  0  0  0  0  0  0
    7.0874    2.2535   -2.7829 O   0  0  0  0  0  0  0  0  0  0  0  0
    7.9911    3.0236   -0.7563 C   0  0  0  0  0  0  0  0  0  0  0  0
    8.1924    2.7879    0.5924 C   0  0  0  0  0  0  0  0  0  0  0  0
    9.0600    3.7741    1.0660 C   0  0  0  0  0  0  0  0  0  0  0  0
    9.5653    4.0638    2.3359 C   0  0  0  0  0  0  0  0  0  0  0  0
   10.8566    3.5644    2.3244 C   0  0  0  0  0  0  0  0  0  0  0  0
   11.7015    3.9897    1.3146 C   0  0  0  0  0  0  0  0  0  0  0  0
   11.1674    4.4770    0.0992 C   0  0  0  0  0  0  0  0  0  0  0  0
    9.8142    4.1393   -0.0557 C   0  0  0  0  0  0  0  0  0  0  0  0
    9.0025    3.8900   -1.1504 N   0  0  0  0  0  0  0  0  0  0  0  0
    4.7721    1.1885   -1.1272 C   0  0  0  0  0  0  0  0  0  0  0  0
    4.7165    0.2782   -2.1418 N   0  0  0  0  0  0  0  0  0  0  0  0
    1.4231    1.3710    0.4050 C   0  0  0  0  0  0  0  0  0  0  0  0
    0.2121    0.6845    0.3828 C   0  0  0  0  0  0  0  0  0  0  0  0
   -1.0764    1.0847    0.6319 N   0  0  0  0  0  0  0  0  0  0  0  0
   -3.8301   -0.8848    0.4394 H   0  0  0  0  0  0  0  0  0  0  0  0
   -3.7907    0.7941   -0.1275 H   0  0  0  0  0  0  0  0  0  0  0  0
   -3.6274    0.4344    1.6055 H   0  0  0  0  0  0  0  0  0  0  0  0
    1.1778   -2.4367   -0.5483 H   0  0  0  0  0  0  0  0  0  0  0  0
    3.3665   -1.2778   -0.6287 H   0  0  0  0  0  0  0  0  0  0  0  0
    5.6600    3.6328    0.8531 H   0  0  0  0  0  0  0  0  0  0  0  0
    7.6782    2.0531    1.1988 H   0  0  0  0  0  0  0  0  0  0  0  0
    9.5782    5.1625    2.4900 H   0  0  0  0  0  0  0  0  0  0  0  0
   11.0227    2.5657    2.7437 H   0  0  0  0  0  0  0  0  0  0  0  0
   12.7702    3.7620    1.3783 H   0  0  0  0  0  0  0  0  0  0  0  0
   11.8085    4.7180   -0.7334 H   0  0  0  0  0  0  0  0  0  0  0  0
    9.2045    4.1557   -2.1053 H   0  0  0  0  0  0  0  0  0  0  0  0
    5.3484    0.3957   -2.9403 H   0  0  0  0  0  0  0  0  0  0  0  0
    3.8195   -0.0999   -2.4348 H   0  0  0  0  0  0  0  0  0  0  0  0
    1.4809    2.4229    0.6669 H   0  0  0  0  0  0  0  0  0  0  0  0
   -1.3679    2.0198    0.8750 H   0  0  0  0  0  0  0  0  0  0  0  0
  1  2  1  0  0  0  0
  1 28  1  0  0  0  0
  1 29  1  0  0  0  0
  1 30  1  0  0  0  0
  2  3  2  0  0  0  0
  2 27  1  0  0  0  0
  3  4  1  0  0  0  0
  4  5  1  0  0  0  0
  4 26  2  0  0  0  0
  5  6  2  0  0  0  0
  5 31  1  0  0  0  0
  6  7  1  0  0  0  0
  6 32  1  0  0  0  0
  7  8  1  0  0  0  0
  7 25  2  0  0  0  0
  8  9  1  0  0  0  0
  8 23  1  0  0  0  0
  9 10  2  0  0  0  0
 10 11  1  0  0  0  0
 10 33  1  0  0  0  0
 11 12  1  0  0  0  0
 11 23  2  0  0  0  0
 12 13  2  0  0  0  0
 12 14  1  0  0  0  0
 14 15  2  0  0  0  0
 14 22  1  0  0  0  0
 15 16  1  0  0  0  0
 15 34  1  0  0  0  0
 16 17  1  0  0  0  0
 16 21  2  0  0  0  0
 17 18  2  0  0  0  0
 17 35  1  0  0  0  0
 18 19  1  0  0  0  0
 18 36  1  0  0  0  0
 19 20  2  0  0  0  0
 19 37  1  0  0  0  0
 20 21  1  0  0  0  0
 20 38  1  0  0  0  0
 21 22  1  0  0  0  0
 22 39  1  0  0  0  0
 23 24  1  0  0  0  0
 24 40  1  0  0  0  0
 24 41  1  0  0  0  0
 25 26  1  0  0  0  0
 25 42  1  0  0  0  0
 26 27  1  0  0  0  0
 27 43  1  0  0  0  0
M  END
$$$$
