CHEMBL2430247
 OpenBabel04072215363D

 63 66  0  0  0  0  0  0  0  0999 V2000
    2.1709   -2.3727   -0.9220 C   0  0  0  0  0  0  0  0  0  0  0  0
    3.6562   -2.5160   -1.2323 C   0  0  0  0  0  0  0  0  0  0  0  0
    4.2731   -3.7571   -0.7363 N   0  0  0  0  0  0  0  0  0  0  0  0
    3.5990   -4.9886   -1.1786 C   0  0  0  0  0  0  0  0  0  0  0  0
    3.6684   -5.2964   -2.6717 C   0  0  0  0  0  0  0  0  0  0  0  0
    5.7188   -3.8010   -1.0306 C   0  0  0  0  0  0  0  0  0  0  0  0
    6.5308   -2.6719   -0.3830 C   0  0  0  0  0  0  0  0  0  0  0  0
    6.3784   -2.6203    1.1363 C   0  0  0  0  0  0  0  0  0  0  0  0
    6.9537   -3.7813    1.7804 N   0  0  0  0  0  0  0  0  0  0  0  0
    8.3135   -3.8795    1.9314 C   0  0  0  0  0  0  0  0  0  0  0  0
    9.0665   -2.9813    1.5585 O   0  0  0  0  0  0  0  0  0  0  0  0
    8.8164   -5.0667    2.6233 C   0  0  0  0  0  0  0  0  0  0  0  0
    8.4091   -6.3951    2.5845 C   0  0  0  0  0  0  0  0  0  0  0  0
    7.3115   -7.0724    1.8364 C   0  0  0  0  0  0  0  0  0  0  0  0
    9.2917   -7.1320    3.3718 N   0  0  0  0  0  0  0  0  0  0  0  0
   10.2389   -6.3073    3.9227 C   0  0  0  0  0  0  0  0  0  0  0  0
    9.9482   -5.0288    3.4917 C   0  0  0  0  0  0  0  0  0  0  0  0
   10.6909   -3.8024    3.8709 C   0  0  0  0  0  0  0  0  0  0  0  0
   11.8730   -4.0250    4.7893 C   0  0  0  0  0  0  0  0  0  0  0  0
   12.1641   -5.4460    5.2674 C   0  0  0  0  0  0  0  0  0  0  0  0
   11.3375   -6.6361    4.7859 C   0  0  0  0  0  0  0  0  0  0  0  0
   11.7309   -7.8745    5.1909 C   0  0  0  0  0  0  0  0  0  0  0  0
   11.1477   -9.2316    4.8379 C   0  0  0  0  0  0  0  0  0  0  0  0
   10.1678   -9.4859    4.1627 O   0  0  0  0  0  0  0  0  0  0  0  0
   11.9660  -10.1694    5.4543 N   0  0  0  0  0  0  0  0  0  0  0  0
   12.9882   -9.5694    6.1752 C   0  0  0  0  0  0  0  0  0  0  0  0
   13.9740  -10.2233    6.9092 C   0  0  0  0  0  0  0  0  0  0  0  0
   14.9175   -9.4422    7.5805 C   0  0  0  0  0  0  0  0  0  0  0  0
   14.8421   -8.0564    7.5105 C   0  0  0  0  0  0  0  0  0  0  0  0
   15.7461   -7.3069    8.1563 F   0  0  0  0  0  0  0  0  0  0  0  0
   13.8416   -7.4208    6.7767 C   0  0  0  0  0  0  0  0  0  0  0  0
   12.9032   -8.1787    6.0849 C   0  0  0  0  0  0  0  0  0  0  0  0
    1.8564   -1.3396   -1.1065 H   0  0  0  0  0  0  0  0  0  0  0  0
    1.9595   -2.6008    0.1279 H   0  0  0  0  0  0  0  0  0  0  0  0
    1.5612   -3.0217   -1.5568 H   0  0  0  0  0  0  0  0  0  0  0  0
    4.1338   -1.6617   -0.7409 H   0  0  0  0  0  0  0  0  0  0  0  0
    3.8200   -2.3921   -2.3088 H   0  0  0  0  0  0  0  0  0  0  0  0
    2.5494   -4.9675   -0.8647 H   0  0  0  0  0  0  0  0  0  0  0  0
    4.0259   -5.8394   -0.6306 H   0  0  0  0  0  0  0  0  0  0  0  0
    3.4246   -4.4260   -3.2868 H   0  0  0  0  0  0  0  0  0  0  0  0
    2.9524   -6.0862   -2.9216 H   0  0  0  0  0  0  0  0  0  0  0  0
    4.6642   -5.6526   -2.9549 H   0  0  0  0  0  0  0  0  0  0  0  0
    5.8941   -3.7713   -2.1130 H   0  0  0  0  0  0  0  0  0  0  0  0
    6.1304   -4.7545   -0.6744 H   0  0  0  0  0  0  0  0  0  0  0  0
    6.2483   -1.7028   -0.8092 H   0  0  0  0  0  0  0  0  0  0  0  0
    7.5852   -2.8103   -0.6528 H   0  0  0  0  0  0  0  0  0  0  0  0
    5.3317   -2.5456    1.4459 H   0  0  0  0  0  0  0  0  0  0  0  0
    6.8907   -1.7271    1.5133 H   0  0  0  0  0  0  0  0  0  0  0  0
    6.3513   -4.4994    2.1544 H   0  0  0  0  0  0  0  0  0  0  0  0
    6.7394   -6.3752    1.2182 H   0  0  0  0  0  0  0  0  0  0  0  0
    6.6110   -7.5498    2.5287 H   0  0  0  0  0  0  0  0  0  0  0  0
    7.7135   -7.8363    1.1640 H   0  0  0  0  0  0  0  0  0  0  0  0
    9.2537   -8.1396    3.4937 H   0  0  0  0  0  0  0  0  0  0  0  0
    9.9932   -3.1079    4.3564 H   0  0  0  0  0  0  0  0  0  0  0  0
   11.0581   -3.3005    2.9681 H   0  0  0  0  0  0  0  0  0  0  0  0
   11.7614   -3.3808    5.6718 H   0  0  0  0  0  0  0  0  0  0  0  0
   12.7741   -3.6396    4.2936 H   0  0  0  0  0  0  0  0  0  0  0  0
   12.0754   -5.4138    6.3598 H   0  0  0  0  0  0  0  0  0  0  0  0
   13.2039   -5.6294    4.9718 H   0  0  0  0  0  0  0  0  0  0  0  0
   11.8098  -11.1607    5.3768 H   0  0  0  0  0  0  0  0  0  0  0  0
   14.0238  -11.3044    6.9630 H   0  0  0  0  0  0  0  0  0  0  0  0
   15.7154   -9.8956    8.1622 H   0  0  0  0  0  0  0  0  0  0  0  0
   13.8677   -6.3401    6.7996 H   0  0  0  0  0  0  0  0  0  0  0  0
  1  2  1  0  0  0  0
  1 33  1  0  0  0  0
  1 34  1  0  0  0  0
  1 35  1  0  0  0  0
  2  3  1  0  0  0  0
  2 36  1  0  0  0  0
  2 37  1  0  0  0  0
  3  4  1  0  0  0  0
  3  6  1  0  0  0  0
  4  5  1  0  0  0  0
  4 38  1  0  0  0  0
  4 39  1  0  0  0  0
  5 40  1  0  0  0  0
  5 41  1  0  0  0  0
  5 42  1  0  0  0  0
  6  7  1  0  0  0  0
  6 43  1  0  0  0  0
  6 44  1  0  0  0  0
  7  8  1  0  0  0  0
  7 45  1  0  0  0  0
  7 46  1  0  0  0  0
  8  9  1  0  0  0  0
  8 47  1  0  0  0  0
  8 48  1  0  0  0  0
  9 10  1  0  0  0  0
  9 49  1  0  0  0  0
 10 11  2  0  0  0  0
 10 12  1  0  0  0  0
 12 13  2  0  0  0  0
 12 17  1  0  0  0  0
 13 14  1  0  0  0  0
 13 15  1  0  0  0  0
 14 50  1  0  0  0  0
 14 51  1  0  0  0  0
 14 52  1  0  0  0  0
 15 16  1  0  0  0  0
 15 53  1  0  0  0  0
 16 17  2  0  0  0  0
 16 21  1  0  0  0  0
 17 18  1  0  0  0  0
 18 19  1  0  0  0  0
 18 54  1  0  0  0  0
 18 55  1  0  0  0  0
 19 20  1  0  0  0  0
 19 56  1  0  0  0  0
 19 57  1  0  0  0  0
 20 21  1  0  0  0  0
 20 58  1  0  0  0  0
 20 59  1  0  0  0  0
 21 22  2  0  0  0  0
 22 23  1  0  0  0  0
 22 32  1  0  0  0  0
 23 24  2  0  0  0  0
 23 25  1  0  0  0  0
 25 26  1  0  0  0  0
 25 60  1  0  0  0  0
 26 27  1  0  0  0  0
 26 32  2  0  0  0  0
 27 28  2  0  0  0  0
 27 61  1  0  0  0  0
 28 29  1  0  0  0  0
 28 62  1  0  0  0  0
 29 30  1  0  0  0  0
 29 31  2  0  0  0  0
 31 32  1  0  0  0  0
 31 63  1  0  0  0  0
M  END
$$$$
