CHEMBL3938141
 OpenBabel04072215373D

 39 42  0  0  0  0  0  0  0  0999 V2000
    1.4444    0.1158   -0.9704 O   0  0  0  0  0  0  0  0  0  0  0  0
    2.3278   -0.0082   -0.1303 C   0  0  0  0  0  0  0  0  0  0  0  0
    2.7436    1.1968    0.6197 C   0  0  0  0  0  0  0  0  0  0  0  0
    4.0878    1.4975    0.8571 C   0  0  0  0  0  0  0  0  0  0  0  0
    4.4115    2.6073    1.6305 C   0  0  0  0  0  0  0  0  0  0  0  0
    3.3790    3.4088    2.0919 C   0  0  0  0  0  0  0  0  0  0  0  0
    2.0719    3.1802    1.8267 N   0  0  0  0  0  0  0  0  0  0  0  0
    1.7815    2.0819    1.0824 C   0  0  0  0  0  0  0  0  0  0  0  0
    2.9798   -1.2107    0.1245 N   0  0  0  0  0  0  0  0  0  0  0  0
    2.7773   -2.3447   -0.7769 C   0  0  0  0  0  0  0  0  0  0  0  0
    4.1252   -2.9308   -1.1920 C   0  0  0  0  0  0  0  0  0  0  0  0
    5.0999   -3.0223   -0.0447 C   0  0  0  0  0  0  0  0  0  0  0  0
    6.1995   -3.7695   -0.2512 N   0  0  0  0  0  0  0  0  0  0  0  0
    7.1323   -3.8200    0.7134 C   0  0  0  0  0  0  0  0  0  0  0  0
    8.2587   -4.6329    0.5678 N   0  0  0  0  0  0  0  0  0  0  0  0
    8.4576   -5.7076   -0.2337 C   0  0  0  0  0  0  0  0  0  0  0  0
    9.7061   -6.3918   -0.3028 C   0  0  0  0  0  0  0  0  0  0  0  0
    9.6597   -7.4809   -1.1472 C   0  0  0  0  0  0  0  0  0  0  0  0
    8.1158   -7.6840   -1.8528 S   0  0  0  0  0  0  0  0  0  0  0  0
    7.5106   -6.3101   -1.0343 C   0  0  0  0  0  0  0  0  0  0  0  0
    7.0440   -3.1252    1.8582 N   0  0  0  0  0  0  0  0  0  0  0  0
    5.9188   -2.4090    2.0499 C   0  0  0  0  0  0  0  0  0  0  0  0
    4.9031   -2.3150    1.1246 C   0  0  0  0  0  0  0  0  0  0  0  0
    3.6408   -1.5613    1.3814 C   0  0  0  0  0  0  0  0  0  0  0  0
    4.8772    0.8663    0.4602 H   0  0  0  0  0  0  0  0  0  0  0  0
    5.4437    2.8403    1.8684 H   0  0  0  0  0  0  0  0  0  0  0  0
    3.5805    4.2837    2.7022 H   0  0  0  0  0  0  0  0  0  0  0  0
    0.7247    1.9304    0.8732 H   0  0  0  0  0  0  0  0  0  0  0  0
    2.2112   -2.0542   -1.6675 H   0  0  0  0  0  0  0  0  0  0  0  0
    2.1794   -3.0922   -0.2378 H   0  0  0  0  0  0  0  0  0  0  0  0
    4.5784   -2.2853   -1.9550 H   0  0  0  0  0  0  0  0  0  0  0  0
    3.9788   -3.9201   -1.6394 H   0  0  0  0  0  0  0  0  0  0  0  0
    8.9052   -4.4067    1.3133 H   0  0  0  0  0  0  0  0  0  0  0  0
   10.6014   -6.1064    0.2341 H   0  0  0  0  0  0  0  0  0  0  0  0
   10.4544   -8.1734   -1.3843 H   0  0  0  0  0  0  0  0  0  0  0  0
    6.4757   -6.0325   -1.1736 H   0  0  0  0  0  0  0  0  0  0  0  0
    5.8623   -1.9012    3.0091 H   0  0  0  0  0  0  0  0  0  0  0  0
    3.8238   -0.6926    2.0143 H   0  0  0  0  0  0  0  0  0  0  0  0
    2.9488   -2.2052    1.9397 H   0  0  0  0  0  0  0  0  0  0  0  0
  1  2  2  0  0  0  0
  2  3  1  0  0  0  0
  2  9  1  0  0  0  0
  3  4  1  0  0  0  0
  3  8  2  0  0  0  0
  4  5  2  0  0  0  0
  4 25  1  0  0  0  0
  5  6  1  0  0  0  0
  5 26  1  0  0  0  0
  6  7  2  0  0  0  0
  6 27  1  0  0  0  0
  7  8  1  0  0  0  0
  8 28  1  0  0  0  0
  9 10  1  0  0  0  0
  9 24  1  0  0  0  0
 10 11  1  0  0  0  0
 10 29  1  0  0  0  0
 10 30  1  0  0  0  0
 11 12  1  0  0  0  0
 11 31  1  0  0  0  0
 11 32  1  0  0  0  0
 12 13  1  0  0  0  0
 12 23  2  0  0  0  0
 13 14  2  0  0  0  0
 14 15  1  0  0  0  0
 14 21  1  0  0  0  0
 15 16  1  0  0  0  0
 15 33  1  0  0  0  0
 16 17  1  0  0  0  0
 16 20  2  0  0  0  0
 17 18  2  0  0  0  0
 17 34  1  0  0  0  0
 18 19  1  0  0  0  0
 18 35  1  0  0  0  0
 19 20  1  0  0  0  0
 20 36  1  0  0  0  0
 21 22  2  0  0  0  0
 22 23  1  0  0  0  0
 22 37  1  0  0  0  0
 23 24  1  0  0  0  0
 24 38  1  0  0  0  0
 24 39  1  0  0  0  0
M  END
$$$$
