CHEMBL3906789
 OpenBabel04072215373D

 59 63  0  0  1  0  0  0  0  0999 V2000
   -2.2435    2.9524   -2.0288 C   0  0  0  0  0  0  0  0  0  0  0  0
   -1.9298    3.0460   -3.5192 C   0  0  0  0  0  0  0  0  0  0  0  0
   -0.5752    3.5290   -3.8059 N   0  0  0  0  0  0  0  0  0  0  0  0
   -0.3459    3.6625   -5.2556 C   0  0  0  0  0  0  0  0  0  0  0  0
    0.1164    2.2882   -5.6978 C   0  0  0  0  0  0  0  0  0  0  0  0
    0.9705    1.8081   -4.5380 C   0  0  0  0  0  0  0  0  0  0  0  0
    0.5126    2.6377   -3.3278 C   0  0  3  0  0  0  0  0  0  0  0  0
    1.6516    3.4575   -2.8094 C   0  0  0  0  0  0  0  0  0  0  0  0
    2.4055    4.3263   -3.4463 N   0  0  0  0  0  0  0  0  0  0  0  0
    3.2547    4.7359   -2.4593 C   0  0  0  0  0  0  0  0  0  0  0  0
    4.2999    5.7604   -2.7056 C   0  0  0  0  0  0  0  0  0  0  0  0
    5.5274    5.1481   -3.0898 O   0  0  0  0  0  0  0  0  0  0  0  0
    6.3704    5.8258   -3.9193 C   0  0  0  0  0  0  0  0  0  0  0  0
    7.1713    4.9579   -4.6823 C   0  0  0  0  0  0  0  0  0  0  0  0
    8.1219    5.4022   -5.5890 C   0  0  0  0  0  0  0  0  0  0  0  0
    8.8247    4.5007   -6.2800 N   0  0  0  0  0  0  0  0  0  0  0  0
    9.7341    4.9679   -7.1360 C   0  0  0  0  0  0  0  0  0  0  0  0
   10.0263    6.2538   -7.3396 N   0  0  0  0  0  0  0  0  0  0  0  0
    9.3282    7.1561   -6.6308 C   0  0  0  0  0  0  0  0  0  0  0  0
    9.6207    8.5454   -6.7814 N   0  0  0  0  0  0  0  0  0  0  0  0
   10.4881    9.1757   -7.7012 C   0  0  0  0  0  0  0  0  0  0  0  0
   10.7958    8.6372   -8.9549 C   0  0  0  0  0  0  0  0  0  0  0  0
   11.6363    9.3123   -9.8459 C   0  0  0  0  0  0  0  0  0  0  0  0
   12.1537   10.5627   -9.5115 C   0  0  0  0  0  0  0  0  0  0  0  0
   13.2006   11.3331  -10.6474 Cl  0  0  0  0  0  0  0  0  0  0  0  0
   11.8075   11.1453   -8.2909 C   0  0  0  0  0  0  0  0  0  0  0  0
   12.3747   12.7073   -7.8147 Cl  0  0  0  0  0  0  0  0  0  0  0  0
   10.9700   10.4600   -7.4019 C   0  0  0  0  0  0  0  0  0  0  0  0
    8.3105    6.7798   -5.7273 C   0  0  0  0  0  0  0  0  0  0  0  0
    7.4846    7.6688   -4.9863 C   0  0  0  0  0  0  0  0  0  0  0  0
    6.5281    7.2009   -4.0774 C   0  0  0  0  0  0  0  0  0  0  0  0
    5.7269    8.1616   -3.5270 O   0  0  0  0  0  0  0  0  0  0  0  0
    5.8957    8.3689   -2.1264 C   0  0  0  0  0  0  0  0  0  0  0  0
    3.0665    4.1583   -1.2648 N   0  0  0  0  0  0  0  0  0  0  0  0
    1.9900    3.2990   -1.4969 O   0  0  0  0  0  0  0  0  0  0  0  0
   -3.3118    2.7561   -1.8893 H   0  0  0  0  0  0  0  0  0  0  0  0
   -2.0021    3.8844   -1.5082 H   0  0  0  0  0  0  0  0  0  0  0  0
   -1.7008    2.1345   -1.5460 H   0  0  0  0  0  0  0  0  0  0  0  0
   -2.6411    3.7661   -3.9447 H   0  0  0  0  0  0  0  0  0  0  0  0
   -2.1299    2.0789   -3.9921 H   0  0  0  0  0  0  0  0  0  0  0  0
    0.4501    4.3984   -5.4287 H   0  0  0  0  0  0  0  0  0  0  0  0
   -1.2240    4.0114   -5.8079 H   0  0  0  0  0  0  0  0  0  0  0  0
    0.6749    2.3148   -6.6377 H   0  0  0  0  0  0  0  0  0  0  0  0
   -0.7389    1.6161   -5.8324 H   0  0  0  0  0  0  0  0  0  0  0  0
    2.0325    1.9561   -4.7722 H   0  0  0  0  0  0  0  0  0  0  0  0
    0.8187    0.7360   -4.3699 H   0  0  0  0  0  0  0  0  0  0  0  0
    0.1893    1.9633   -2.5288 H   0  0  0  0  0  0  0  0  0  0  0  0
    4.4624    6.2846   -1.7628 H   0  0  0  0  0  0  0  0  0  0  0  0
    3.9286    6.4548   -3.4677 H   0  0  0  0  0  0  0  0  0  0  0  0
    7.0266    3.8836   -4.5736 H   0  0  0  0  0  0  0  0  0  0  0  0
   10.2848    4.2367   -7.7198 H   0  0  0  0  0  0  0  0  0  0  0  0
    9.7109    8.9550   -5.8563 H   0  0  0  0  0  0  0  0  0  0  0  0
   10.3898    7.6764   -9.2612 H   0  0  0  0  0  0  0  0  0  0  0  0
   11.8772    8.8498  -10.7998 H   0  0  0  0  0  0  0  0  0  0  0  0
   10.7003   10.9341   -6.4612 H   0  0  0  0  0  0  0  0  0  0  0  0
    7.5710    8.7418   -5.1361 H   0  0  0  0  0  0  0  0  0  0  0  0
    6.2555    9.3866   -1.9536 H   0  0  0  0  0  0  0  0  0  0  0  0
    6.5688    7.6522   -1.6456 H   0  0  0  0  0  0  0  0  0  0  0  0
    4.9059    8.3103   -1.6608 H   0  0  0  0  0  0  0  0  0  0  0  0
  1  2  1  0  0  0  0
  1 36  1  0  0  0  0
  1 37  1  0  0  0  0
  1 38  1  0  0  0  0
  2  3  1  0  0  0  0
  2 39  1  0  0  0  0
  2 40  1  0  0  0  0
  3  4  1  0  0  0  0
  3  7  1  0  0  0  0
  4  5  1  0  0  0  0
  4 41  1  0  0  0  0
  4 42  1  0  0  0  0
  5  6  1  0  0  0  0
  5 43  1  0  0  0  0
  5 44  1  0  0  0  0
  6  7  1  0  0  0  0
  6 45  1  0  0  0  0
  6 46  1  0  0  0  0
  7  8  1  0  0  0  0
  7 47  1  0  0  0  0
  8  9  2  0  0  0  0
  8 35  1  0  0  0  0
  9 10  1  0  0  0  0
 10 11  1  0  0  0  0
 10 34  2  0  0  0  0
 11 12  1  0  0  0  0
 11 48  1  0  0  0  0
 11 49  1  0  0  0  0
 12 13  1  0  0  0  0
 13 14  1  0  0  0  0
 13 31  2  0  0  0  0
 14 15  2  0  0  0  0
 14 50  1  0  0  0  0
 15 16  1  0  0  0  0
 15 29  1  0  0  0  0
 16 17  2  0  0  0  0
 17 18  1  0  0  0  0
 17 51  1  0  0  0  0
 18 19  2  0  0  0  0
 19 20  1  0  0  0  0
 19 29  1  0  0  0  0
 20 21  1  0  0  0  0
 20 52  1  0  0  0  0
 21 22  1  0  0  0  0
 21 28  2  0  0  0  0
 22 23  2  0  0  0  0
 22 53  1  0  0  0  0
 23 24  1  0  0  0  0
 23 54  1  0  0  0  0
 24 25  1  0  0  0  0
 24 26  2  0  0  0  0
 26 27  1  0  0  0  0
 26 28  1  0  0  0  0
 28 55  1  0  0  0  0
 29 30  2  0  0  0  0
 30 31  1  0  0  0  0
 30 56  1  0  0  0  0
 31 32  1  0  0  0  0
 32 33  1  0  0  0  0
 33 57  1  0  0  0  0
 33 58  1  0  0  0  0
 33 59  1  0  0  0  0
 34 35  1  0  0  0  0
M  END
$$$$
