CHEMBL1076203
 OpenBabel04072215353D

 82 87  0  0  0  0  0  0  0  0999 V2000
    0.0393   -1.5920    2.8128 C   0  0  0  0  0  0  0  0  0  0  0  0
    0.8191   -0.6409    1.9393 C   0  0  0  0  0  0  0  0  0  0  0  0
    0.9049    0.7088    2.3181 C   0  0  0  0  0  0  0  0  0  0  0  0
    1.5993    1.6139    1.5161 C   0  0  0  0  0  0  0  0  0  0  0  0
    2.2211    1.1788    0.3395 C   0  0  0  0  0  0  0  0  0  0  0  0
    2.9289    2.1805   -0.5022 C   0  0  0  0  0  0  0  0  0  0  0  0
    3.4396    3.1373    0.0660 O   0  0  0  0  0  0  0  0  0  0  0  0
    2.8865    1.9525   -1.8704 N   0  0  0  0  0  0  0  0  0  0  0  0
    3.4969    2.7658   -2.8581 C   0  0  0  0  0  0  0  0  0  0  0  0
    4.4774    3.7071   -2.5593 C   0  0  0  0  0  0  0  0  0  0  0  0
    5.0148    4.5210   -3.5571 C   0  0  0  0  0  0  0  0  0  0  0  0
    4.5661    4.4049   -4.8707 C   0  0  0  0  0  0  0  0  0  0  0  0
    3.5919    3.4527   -5.2004 C   0  0  0  0  0  0  0  0  0  0  0  0
    3.0715    3.3487   -6.6126 C   0  0  0  0  0  0  0  0  0  0  0  0
    3.6033    4.2711   -7.4626 F   0  0  0  0  0  0  0  0  0  0  0  0
    3.3255    2.1325   -7.1772 F   0  0  0  0  0  0  0  0  0  0  0  0
    1.7214    3.5155   -6.6825 F   0  0  0  0  0  0  0  0  0  0  0  0
    3.0814    2.6154   -4.1886 C   0  0  0  0  0  0  0  0  0  0  0  0
    2.1724   -0.1693   -0.0250 C   0  0  0  0  0  0  0  0  0  0  0  0
    1.4718   -1.0785    0.7580 C   0  0  0  0  0  0  0  0  0  0  0  0
    1.2171   -2.3897    0.3083 N   0  0  0  0  0  0  0  0  0  0  0  0
    1.9271   -3.1741   -0.5561 C   0  0  0  0  0  0  0  0  0  0  0  0
    1.2296   -3.9787   -1.3499 N   0  0  0  0  0  0  0  0  0  0  0  0
    1.3650   -5.1899   -0.7163 C   0  0  0  0  0  0  0  0  0  0  0  0
    0.5552   -6.3302   -0.7585 C   0  0  0  0  0  0  0  0  0  0  0  0
    0.8375   -7.3747    0.1340 C   0  0  0  0  0  0  0  0  0  0  0  0
    1.9333   -7.3178    0.9993 C   0  0  0  0  0  0  0  0  0  0  0  0
    2.7949   -6.2219    0.9991 C   0  0  0  0  0  0  0  0  0  0  0  0
    2.4577   -5.1698    0.1434 C   0  0  0  0  0  0  0  0  0  0  0  0
    3.0198   -3.9258   -0.1167 N   0  0  0  0  0  0  0  0  0  0  0  0
    4.4016   -3.6102   -0.0215 C   0  0  0  0  0  0  0  0  0  0  0  0
    4.8422   -2.3840   -0.2919 N   0  0  0  0  0  0  0  0  0  0  0  0
    6.1607   -2.2481   -0.1184 C   0  0  0  0  0  0  0  0  0  0  0  0
    7.0189   -3.1860    0.2894 N   0  0  0  0  0  0  0  0  0  0  0  0
    6.4867   -4.3800    0.4987 C   0  0  0  0  0  0  0  0  0  0  0  0
    7.2317   -5.4499    0.9780 N   0  0  0  0  0  0  0  0  0  0  0  0
    8.4113   -5.1257    1.7693 C   0  0  0  0  0  0  0  0  0  0  0  0
    8.7127   -6.3124    2.6961 C   0  0  0  0  0  0  0  0  0  0  0  0
    9.8847   -6.0534    3.6576 C   0  0  0  0  0  0  0  0  0  0  0  0
    9.7060   -4.9119    4.5723 N   0  0  0  0  0  0  0  0  0  0  0  0
    8.5405   -5.0724    5.4663 C   0  0  0  0  0  0  0  0  0  0  0  0
    8.4049   -3.9226    6.4942 C   0  0  0  0  0  0  0  0  0  0  0  0
    9.6068   -3.6627    7.3080 N   0  0  0  0  0  0  0  0  0  0  0  0
    9.8046   -4.6897    8.3273 C   0  0  0  0  0  0  0  0  0  0  0  0
   10.7719   -3.5461    6.4094 C   0  0  0  0  0  0  0  0  0  0  0  0
   10.9252   -4.6976    5.3838 C   0  0  0  0  0  0  0  0  0  0  0  0
    5.2038   -4.6345    0.3060 N   0  0  0  0  0  0  0  0  0  0  0  0
   -0.4368   -1.0733    3.6511 H   0  0  0  0  0  0  0  0  0  0  0  0
    0.7047   -2.3534    3.2306 H   0  0  0  0  0  0  0  0  0  0  0  0
   -0.7579   -2.0782    2.2412 H   0  0  0  0  0  0  0  0  0  0  0  0
    0.4208    1.0633    3.2238 H   0  0  0  0  0  0  0  0  0  0  0  0
    1.6406    2.6602    1.8079 H   0  0  0  0  0  0  0  0  0  0  0  0
    2.2524    1.2411   -2.2078 H   0  0  0  0  0  0  0  0  0  0  0  0
    4.8618    3.8283   -1.5501 H   0  0  0  0  0  0  0  0  0  0  0  0
    5.7736    5.2569   -3.2999 H   0  0  0  0  0  0  0  0  0  0  0  0
    4.9750    5.0677   -5.6304 H   0  0  0  0  0  0  0  0  0  0  0  0
    2.3265    1.8764   -4.4502 H   0  0  0  0  0  0  0  0  0  0  0  0
    2.6692   -0.5132   -0.9327 H   0  0  0  0  0  0  0  0  0  0  0  0
    0.2327   -2.4114    0.0282 H   0  0  0  0  0  0  0  0  0  0  0  0
   -0.3108   -6.3635   -1.4089 H   0  0  0  0  0  0  0  0  0  0  0  0
    0.1760   -8.2407    0.1677 H   0  0  0  0  0  0  0  0  0  0  0  0
    2.1215   -8.1338    1.6924 H   0  0  0  0  0  0  0  0  0  0  0  0
    3.6475   -6.1692    1.6678 H   0  0  0  0  0  0  0  0  0  0  0  0
    6.5845   -1.2686   -0.3184 H   0  0  0  0  0  0  0  0  0  0  0  0
    7.4117   -6.0744    0.1973 H   0  0  0  0  0  0  0  0  0  0  0  0
    8.2237   -4.2371    2.3817 H   0  0  0  0  0  0  0  0  0  0  0  0
    9.2651   -4.9258    1.1158 H   0  0  0  0  0  0  0  0  0  0  0  0
    8.9524   -7.1947    2.0885 H   0  0  0  0  0  0  0  0  0  0  0  0
    7.8139   -6.5869    3.2617 H   0  0  0  0  0  0  0  0  0  0  0  0
   10.7789   -5.8807    3.0484 H   0  0  0  0  0  0  0  0  0  0  0  0
   10.0692   -6.9704    4.2344 H   0  0  0  0  0  0  0  0  0  0  0  0
    8.5935   -6.0315    5.9969 H   0  0  0  0  0  0  0  0  0  0  0  0
    7.6187   -5.0765    4.8746 H   0  0  0  0  0  0  0  0  0  0  0  0
    7.5424   -4.1138    7.1449 H   0  0  0  0  0  0  0  0  0  0  0  0
    8.1616   -2.9993    5.9514 H   0  0  0  0  0  0  0  0  0  0  0  0
    8.9220   -4.7639    8.9730 H   0  0  0  0  0  0  0  0  0  0  0  0
   10.6418   -4.4177    8.9799 H   0  0  0  0  0  0  0  0  0  0  0  0
   10.0040   -5.6830    7.9134 H   0  0  0  0  0  0  0  0  0  0  0  0
   11.6929   -3.4498    6.9980 H   0  0  0  0  0  0  0  0  0  0  0  0
   10.6768   -2.6013    5.8573 H   0  0  0  0  0  0  0  0  0  0  0  0
   11.2004   -5.6186    5.9141 H   0  0  0  0  0  0  0  0  0  0  0  0
   11.7623   -4.4478    4.7204 H   0  0  0  0  0  0  0  0  0  0  0  0
  1  2  1  0  0  0  0
  1 48  1  0  0  0  0
  1 49  1  0  0  0  0
  1 50  1  0  0  0  0
  2  3  1  0  0  0  0
  2 20  2  0  0  0  0
  3  4  2  0  0  0  0
  3 51  1  0  0  0  0
  4  5  1  0  0  0  0
  4 52  1  0  0  0  0
  5  6  1  0  0  0  0
  5 19  2  0  0  0  0
  6  7  2  0  0  0  0
  6  8  1  0  0  0  0
  8  9  1  0  0  0  0
  8 53  1  0  0  0  0
  9 10  1  0  0  0  0
  9 18  2  0  0  0  0
 10 11  2  0  0  0  0
 10 54  1  0  0  0  0
 11 12  1  0  0  0  0
 11 55  1  0  0  0  0
 12 13  2  0  0  0  0
 12 56  1  0  0  0  0
 13 14  1  0  0  0  0
 13 18  1  0  0  0  0
 14 15  1  0  0  0  0
 14 16  1  0  0  0  0
 14 17  1  0  0  0  0
 18 57  1  0  0  0  0
 19 20  1  0  0  0  0
 19 58  1  0  0  0  0
 20 21  1  0  0  0  0
 21 22  1  0  0  0  0
 21 59  1  0  0  0  0
 22 23  2  0  0  0  0
 22 30  1  0  0  0  0
 23 24  1  0  0  0  0
 24 25  1  0  0  0  0
 24 29  2  0  0  0  0
 25 26  2  0  0  0  0
 25 60  1  0  0  0  0
 26 27  1  0  0  0  0
 26 61  1  0  0  0  0
 27 28  2  0  0  0  0
 27 62  1  0  0  0  0
 28 29  1  0  0  0  0
 28 63  1  0  0  0  0
 29 30  1  0  0  0  0
 30 31  1  0  0  0  0
 31 32  1  0  0  0  0
 31 47  2  0  0  0  0
 32 33  2  0  0  0  0
 33 34  1  0  0  0  0
 33 64  1  0  0  0  0
 34 35  2  0  0  0  0
 35 36  1  0  0  0  0
 35 47  1  0  0  0  0
 36 37  1  0  0  0  0
 36 65  1  0  0  0  0
 37 38  1  0  0  0  0
 37 66  1  0  0  0  0
 37 67  1  0  0  0  0
 38 39  1  0  0  0  0
 38 68  1  0  0  0  0
 38 69  1  0  0  0  0
 39 40  1  0  0  0  0
 39 70  1  0  0  0  0
 39 71  1  0  0  0  0
 40 41  1  0  0  0  0
 40 46  1  0  0  0  0
 41 42  1  0  0  0  0
 41 72  1  0  0  0  0
 41 73  1  0  0  0  0
 42 43  1  0  0  0  0
 42 74  1  0  0  0  0
 42 75  1  0  0  0  0
 43 44  1  0  0  0  0
 43 45  1  0  0  0  0
 44 76  1  0  0  0  0
 44 77  1  0  0  0  0
 44 78  1  0  0  0  0
 45 46  1  0  0  0  0
 45 79  1  0  0  0  0
 45 80  1  0  0  0  0
 46 81  1  0  0  0  0
 46 82  1  0  0  0  0
M  END
$$$$
