CHEMBL3676384
 OpenBabel04072215373D

 55 57  0  0  0  0  0  0  0  0999 V2000
    3.1777   -3.9478    0.0503 C   0  0  0  0  0  0  0  0  0  0  0  0
    3.3381   -2.9611   -0.8401 C   0  0  0  0  0  0  0  0  0  0  0  0
    3.5893   -1.5765   -0.3589 C   0  0  0  0  0  0  0  0  0  0  0  0
    3.1469   -1.1667    0.7102 O   0  0  0  0  0  0  0  0  0  0  0  0
    4.3925   -0.7720   -1.1353 N   0  0  0  0  0  0  0  0  0  0  0  0
    5.2411   -1.2912   -2.1288 C   0  0  0  0  0  0  0  0  0  0  0  0
    6.3042   -2.0960   -1.7163 C   0  0  0  0  0  0  0  0  0  0  0  0
    6.9705   -2.9092   -2.6537 C   0  0  0  0  0  0  0  0  0  0  0  0
    7.9327   -3.8799   -2.3168 C   0  0  0  0  0  0  0  0  0  0  0  0
    8.2283   -4.1450   -0.9507 N   0  0  0  0  0  0  0  0  0  0  0  0
    8.8837   -5.3280   -0.5278 C   0  0  0  0  0  0  0  0  0  0  0  0
    8.4915   -6.5750   -1.0334 C   0  0  0  0  0  0  0  0  0  0  0  0
    9.2389   -7.7206   -0.7668 C   0  0  0  0  0  0  0  0  0  0  0  0
   10.3731   -7.6400    0.0429 C   0  0  0  0  0  0  0  0  0  0  0  0
   11.3998   -9.2251    0.2463 Br  0  0  0  0  0  0  0  0  0  0  0  0
   10.7271   -6.4215    0.6345 C   0  0  0  0  0  0  0  0  0  0  0  0
   12.0909   -6.2694    1.6862 Cl  0  0  0  0  0  0  0  0  0  0  0  0
    9.9722   -5.2786    0.3501 C   0  0  0  0  0  0  0  0  0  0  0  0
   10.3107   -4.0910    0.8828 F   0  0  0  0  0  0  0  0  0  0  0  0
    8.5196   -4.6435   -3.2516 N   0  0  0  0  0  0  0  0  0  0  0  0
    8.1348   -4.4677   -4.5153 C   0  0  0  0  0  0  0  0  0  0  0  0
    7.1987   -3.6123   -4.9373 N   0  0  0  0  0  0  0  0  0  0  0  0
    6.6193   -2.8482   -4.0082 C   0  0  0  0  0  0  0  0  0  0  0  0
    5.6041   -1.9851   -4.4016 C   0  0  0  0  0  0  0  0  0  0  0  0
    4.9183   -1.1829   -3.4869 C   0  0  0  0  0  0  0  0  0  0  0  0
    3.9352   -0.3903   -4.0299 O   0  0  0  0  0  0  0  0  0  0  0  0
    3.7295    0.8528   -3.3472 C   0  0  0  0  0  0  0  0  0  0  0  0
    3.2821    1.9512   -4.3114 C   0  0  0  0  0  0  0  0  0  0  0  0
    3.2352    3.2437   -3.6415 N   0  0  0  0  0  0  0  0  0  0  0  0
    4.3900    3.9592   -3.4545 C   0  0  0  0  0  0  0  0  0  0  0  0
    5.4939    3.5742   -3.8145 O   0  0  0  0  0  0  0  0  0  0  0  0
    4.1598    5.1473   -2.8131 N   0  0  0  0  0  0  0  0  0  0  0  0
    5.2438    6.0783   -2.5688 C   0  0  0  0  0  0  0  0  0  0  0  0
    6.0771    5.7135   -1.3516 C   0  0  0  0  0  0  0  0  0  0  0  0
    3.0594   -4.9759   -0.2743 H   0  0  0  0  0  0  0  0  0  0  0  0
    3.1828   -3.7508    1.1189 H   0  0  0  0  0  0  0  0  0  0  0  0
    3.3528   -3.1638   -1.9039 H   0  0  0  0  0  0  0  0  0  0  0  0
    4.7731   -0.0274   -0.5593 H   0  0  0  0  0  0  0  0  0  0  0  0
    6.5449   -2.1602   -0.6594 H   0  0  0  0  0  0  0  0  0  0  0  0
    8.5926   -3.3160   -0.4850 H   0  0  0  0  0  0  0  0  0  0  0  0
    7.6228   -6.6477   -1.6856 H   0  0  0  0  0  0  0  0  0  0  0  0
    8.9398   -8.6596   -1.2262 H   0  0  0  0  0  0  0  0  0  0  0  0
    8.6118   -5.0874   -5.2633 H   0  0  0  0  0  0  0  0  0  0  0  0
    5.3203   -1.9575   -5.4523 H   0  0  0  0  0  0  0  0  0  0  0  0
    4.6474    1.1881   -2.8502 H   0  0  0  0  0  0  0  0  0  0  0  0
    2.9411    0.7149   -2.5983 H   0  0  0  0  0  0  0  0  0  0  0  0
    2.2841    1.7331   -4.7078 H   0  0  0  0  0  0  0  0  0  0  0  0
    3.9630    2.0106   -5.1690 H   0  0  0  0  0  0  0  0  0  0  0  0
    2.3755    3.7729   -3.6772 H   0  0  0  0  0  0  0  0  0  0  0  0
    3.3654    5.1747   -2.1912 H   0  0  0  0  0  0  0  0  0  0  0  0
    4.7953    7.0669   -2.4332 H   0  0  0  0  0  0  0  0  0  0  0  0
    5.8834    6.1117   -3.4572 H   0  0  0  0  0  0  0  0  0  0  0  0
    5.4722    5.7412   -0.4397 H   0  0  0  0  0  0  0  0  0  0  0  0
    6.9026    6.4235   -1.2342 H   0  0  0  0  0  0  0  0  0  0  0  0
    6.5038    4.7092   -1.4400 H   0  0  0  0  0  0  0  0  0  0  0  0
  1  2  2  0  0  0  0
  1 35  1  0  0  0  0
  1 36  1  0  0  0  0
  2  3  1  0  0  0  0
  2 37  1  0  0  0  0
  3  4  2  0  0  0  0
  3  5  1  0  0  0  0
  5  6  1  0  0  0  0
  5 38  1  0  0  0  0
  6  7  1  0  0  0  0
  6 25  2  0  0  0  0
  7  8  2  0  0  0  0
  7 39  1  0  0  0  0
  8  9  1  0  0  0  0
  8 23  1  0  0  0  0
  9 10  1  0  0  0  0
  9 20  2  0  0  0  0
 10 11  1  0  0  0  0
 10 40  1  0  0  0  0
 11 12  1  0  0  0  0
 11 18  2  0  0  0  0
 12 13  2  0  0  0  0
 12 41  1  0  0  0  0
 13 14  1  0  0  0  0
 13 42  1  0  0  0  0
 14 15  1  0  0  0  0
 14 16  2  0  0  0  0
 16 17  1  0  0  0  0
 16 18  1  0  0  0  0
 18 19  1  0  0  0  0
 20 21  1  0  0  0  0
 21 22  2  0  0  0  0
 21 43  1  0  0  0  0
 22 23  1  0  0  0  0
 23 24  2  0  0  0  0
 24 25  1  0  0  0  0
 24 44  1  0  0  0  0
 25 26  1  0  0  0  0
 26 27  1  0  0  0  0
 27 28  1  0  0  0  0
 27 45  1  0  0  0  0
 27 46  1  0  0  0  0
 28 29  1  0  0  0  0
 28 47  1  0  0  0  0
 28 48  1  0  0  0  0
 29 30  1  0  0  0  0
 29 49  1  0  0  0  0
 30 31  2  0  0  0  0
 30 32  1  0  0  0  0
 32 33  1  0  0  0  0
 32 50  1  0  0  0  0
 33 34  1  0  0  0  0
 33 51  1  0  0  0  0
 33 52  1  0  0  0  0
 34 53  1  0  0  0  0
 34 54  1  0  0  0  0
 34 55  1  0  0  0  0
M  END
$$$$
