CHEMBL3746953
 OpenBabel04072215373D

 50 54  0  0  0  0  0  0  0  0999 V2000
    1.4340   -0.1430    3.9239 C   0  0  0  0  0  0  0  0  0  0  0  0
    1.2679    0.5171    2.5917 C   0  0  0  0  0  0  0  0  0  0  0  0
    1.9057    0.0160    1.4638 C   0  0  0  0  0  0  0  0  0  0  0  0
    1.7872    0.5502    0.2332 N   0  0  0  0  0  0  0  0  0  0  0  0
    0.9767    1.6297    0.1111 C   0  0  0  0  0  0  0  0  0  0  0  0
    0.2797    2.2146    1.1671 C   0  0  0  0  0  0  0  0  0  0  0  0
   -0.5805    3.3292    1.0368 N   0  0  0  0  0  0  0  0  0  0  0  0
   -0.9010    3.9397   -0.1614 C   0  0  0  0  0  0  0  0  0  0  0  0
   -0.5237    3.6670   -1.2890 O   0  0  0  0  0  0  0  0  0  0  0  0
   -1.6913    5.0958    0.0180 N   0  0  0  0  0  0  0  0  0  0  0  0
   -1.5621    6.2173   -0.7886 C   0  0  0  0  0  0  0  0  0  0  0  0
   -2.3556    7.2223   -0.2984 C   0  0  0  0  0  0  0  0  0  0  0  0
   -3.0772    6.6941    0.7995 C   0  0  0  0  0  0  0  0  0  0  0  0
   -4.0475    7.2406    1.6630 C   0  0  0  0  0  0  0  0  0  0  0  0
   -4.6389    6.4381    2.6460 C   0  0  0  0  0  0  0  0  0  0  0  0
   -5.5019    7.1006    3.4909 O   0  0  0  0  0  0  0  0  0  0  0  0
   -6.4037    6.3673    4.2446 C   0  0  0  0  0  0  0  0  0  0  0  0
   -7.1565    5.4476    3.6113 N   0  0  0  0  0  0  0  0  0  0  0  0
   -8.0561    4.8293    4.3756 C   0  0  0  0  0  0  0  0  0  0  0  0
   -8.2805    5.0695    5.6747 N   0  0  0  0  0  0  0  0  0  0  0  0
   -7.5187    6.0240    6.2628 C   0  0  0  0  0  0  0  0  0  0  0  0
   -6.5405    6.7071    5.5802 C   0  0  0  0  0  0  0  0  0  0  0  0
   -5.6964    7.7506    6.2263 C   0  0  0  0  0  0  0  0  0  0  0  0
   -5.9233    7.9624    7.7269 C   0  0  0  0  0  0  0  0  0  0  0  0
   -7.0582    7.3537    8.3963 N   0  0  0  0  0  0  0  0  0  0  0  0
   -7.8214    6.3171    7.7091 C   0  0  0  0  0  0  0  0  0  0  0  0
   -4.2850    5.0955    2.7528 C   0  0  0  0  0  0  0  0  0  0  0  0
   -3.3337    4.5263    1.8978 C   0  0  0  0  0  0  0  0  0  0  0  0
   -2.6936    5.3558    0.9570 C   0  0  0  0  0  0  0  0  0  0  0  0
    0.4555    1.6489    2.4335 C   0  0  0  0  0  0  0  0  0  0  0  0
    2.0703   -1.0321    3.8523 H   0  0  0  0  0  0  0  0  0  0  0  0
    0.4609   -0.4635    4.3093 H   0  0  0  0  0  0  0  0  0  0  0  0
    1.8980    0.5456    4.6362 H   0  0  0  0  0  0  0  0  0  0  0  0
    2.5481   -0.8593    1.5136 H   0  0  0  0  0  0  0  0  0  0  0  0
    0.9352    2.0133   -0.9019 H   0  0  0  0  0  0  0  0  0  0  0  0
   -0.9084    3.7482    1.8986 H   0  0  0  0  0  0  0  0  0  0  0  0
   -0.8547    6.2054   -1.6084 H   0  0  0  0  0  0  0  0  0  0  0  0
   -2.4225    8.2240   -0.7032 H   0  0  0  0  0  0  0  0  0  0  0  0
   -4.3435    8.2803    1.5578 H   0  0  0  0  0  0  0  0  0  0  0  0
   -8.6644    4.0654    3.9032 H   0  0  0  0  0  0  0  0  0  0  0  0
   -4.6418    7.4805    6.0804 H   0  0  0  0  0  0  0  0  0  0  0  0
   -5.8638    8.7023    5.7071 H   0  0  0  0  0  0  0  0  0  0  0  0
   -5.9699    9.0455    7.9036 H   0  0  0  0  0  0  0  0  0  0  0  0
   -5.0187    7.6436    8.2596 H   0  0  0  0  0  0  0  0  0  0  0  0
   -7.6812    8.0548    8.7915 H   0  0  0  0  0  0  0  0  0  0  0  0
   -8.8811    6.5978    7.7623 H   0  0  0  0  0  0  0  0  0  0  0  0
   -7.7177    5.3859    8.2764 H   0  0  0  0  0  0  0  0  0  0  0  0
   -4.7493    4.4542    3.4975 H   0  0  0  0  0  0  0  0  0  0  0  0
   -3.1243    3.4628    1.9673 H   0  0  0  0  0  0  0  0  0  0  0  0
   -0.0488    2.0641    3.3023 H   0  0  0  0  0  0  0  0  0  0  0  0
  1  2  1  0  0  0  0
  1 31  1  0  0  0  0
  1 32  1  0  0  0  0
  1 33  1  0  0  0  0
  2  3  1  0  0  0  0
  2 30  2  0  0  0  0
  3  4  2  0  0  0  0
  3 34  1  0  0  0  0
  4  5  1  0  0  0  0
  5  6  2  0  0  0  0
  5 35  1  0  0  0  0
  6  7  1  0  0  0  0
  6 30  1  0  0  0  0
  7  8  1  0  0  0  0
  7 36  1  0  0  0  0
  8  9  2  0  0  0  0
  8 10  1  0  0  0  0
 10 11  1  0  0  0  0
 10 29  1  0  0  0  0
 11 12  2  0  0  0  0
 11 37  1  0  0  0  0
 12 13  1  0  0  0  0
 12 38  1  0  0  0  0
 13 14  1  0  0  0  0
 13 29  2  0  0  0  0
 14 15  2  0  0  0  0
 14 39  1  0  0  0  0
 15 16  1  0  0  0  0
 15 27  1  0  0  0  0
 16 17  1  0  0  0  0
 17 18  1  0  0  0  0
 17 22  2  0  0  0  0
 18 19  2  0  0  0  0
 19 20  1  0  0  0  0
 19 40  1  0  0  0  0
 20 21  2  0  0  0  0
 21 22  1  0  0  0  0
 21 26  1  0  0  0  0
 22 23  1  0  0  0  0
 23 24  1  0  0  0  0
 23 41  1  0  0  0  0
 23 42  1  0  0  0  0
 24 25  1  0  0  0  0
 24 43  1  0  0  0  0
 24 44  1  0  0  0  0
 25 26  1  0  0  0  0
 25 45  1  0  0  0  0
 26 46  1  0  0  0  0
 26 47  1  0  0  0  0
 27 28  2  0  0  0  0
 27 48  1  0  0  0  0
 28 29  1  0  0  0  0
 28 49  1  0  0  0  0
 30 50  1  0  0  0  0
M  END
$$$$
