CHEMBL3764279
 OpenBabel04072215373D

 84 88  0  0  0  0  0  0  0  0999 V2000
   14.7543    9.1320   -4.7030 C   0  0  0  0  0  0  0  0  0  0  0  0
   13.8532    8.9135   -3.7312 C   0  0  0  0  0  0  0  0  0  0  0  0
   14.1434    8.9282   -2.2554 C   0  0  0  0  0  0  0  0  0  0  0  0
   13.8530    7.6006   -1.5848 C   0  0  0  0  0  0  0  0  0  0  0  0
   14.8720    6.6384   -1.4972 C   0  0  0  0  0  0  0  0  0  0  0  0
   14.6260    5.4031   -0.8967 C   0  0  0  0  0  0  0  0  0  0  0  0
   13.3516    5.0990   -0.3950 C   0  0  0  0  0  0  0  0  0  0  0  0
   12.3120    6.0340   -0.4896 C   0  0  0  0  0  0  0  0  0  0  0  0
   10.9608    5.6648    0.0392 C   0  0  0  0  0  0  0  0  0  0  0  0
   10.0023    6.5314   -0.0107 N   0  0  0  0  0  0  0  0  0  0  0  0
    8.7457    6.2561    0.4832 N   0  0  0  0  0  0  0  0  0  0  0  0
    7.8514    7.3263    0.4690 C   0  0  0  0  0  0  0  0  0  0  0  0
    8.2142    8.4224    0.0476 O   0  0  0  0  0  0  0  0  0  0  0  0
    6.5635    7.0711    0.9645 N   0  0  0  0  0  0  0  0  0  0  0  0
    5.4892    8.0279    0.8994 C   0  0  0  0  0  0  0  0  0  0  0  0
    5.5157    9.0730   -0.0194 C   0  0  0  0  0  0  0  0  0  0  0  0
    4.4832   10.0176   -0.1051 C   0  0  0  0  0  0  0  0  0  0  0  0
    3.3383    9.9625    0.6961 C   0  0  0  0  0  0  0  0  0  0  0  0
    2.4938   10.9868    0.3520 O   0  0  0  0  0  0  0  0  0  0  0  0
    1.1962   11.2654    0.6937 C   0  0  0  0  0  0  0  0  0  0  0  0
    0.3621   10.5077    1.5274 C   0  0  0  0  0  0  0  0  0  0  0  0
   -0.8745   11.0052    1.8928 C   0  0  0  0  0  0  0  0  0  0  0  0
   -1.3565   12.1331    1.4094 N   0  0  0  0  0  0  0  0  0  0  0  0
   -0.5694   12.8297    0.6211 C   0  0  0  0  0  0  0  0  0  0  0  0
   -1.1377   14.0226    0.3982 C   0  0  0  0  0  0  0  0  0  0  0  0
   -0.5180   15.0417   -0.3018 C   0  0  0  0  0  0  0  0  0  0  0  0
   -1.1153   16.2643   -0.3288 O   0  0  0  0  0  0  0  0  0  0  0  0
   -2.3189   16.3613    0.4273 C   0  0  0  0  0  0  0  0  0  0  0  0
   -2.8563   17.7260    0.1876 C   0  0  0  0  0  0  0  0  0  0  0  0
   -4.1749   17.8821    0.9216 C   0  0  0  0  0  0  0  0  0  0  0  0
   -4.7000   19.2270    0.7014 N   0  0  0  0  0  0  0  0  0  0  0  0
   -4.9692   19.4745   -0.7219 C   0  0  0  0  0  0  0  0  0  0  0  0
   -5.4052   20.9135   -0.9345 C   0  0  0  0  0  0  0  0  0  0  0  0
   -6.6258   21.2337   -0.0886 C   0  0  0  0  0  0  0  0  0  0  0  0
   -6.3798   20.8742    1.3732 C   0  0  0  0  0  0  0  0  0  0  0  0
   -5.9010   19.4333    1.5141 C   0  0  0  0  0  0  0  0  0  0  0  0
    0.7096   14.7966   -0.9157 C   0  0  0  0  0  0  0  0  0  0  0  0
    1.3896   15.6920   -1.7129 O   0  0  0  0  0  0  0  0  0  0  0  0
    0.7879   16.9838   -1.9002 C   0  0  0  0  0  0  0  0  0  0  0  0
    1.3280   13.5346   -0.6817 C   0  0  0  0  0  0  0  0  0  0  0  0
    0.7150   12.5221    0.1700 C   0  0  0  0  0  0  0  0  0  0  0  0
    3.3236    8.9481    1.6543 C   0  0  0  0  0  0  0  0  0  0  0  0
    2.3697    8.8705    2.5907 F   0  0  0  0  0  0  0  0  0  0  0  0
    4.3629    7.9672    1.7374 C   0  0  0  0  0  0  0  0  0  0  0  0
   12.5773    7.2913   -1.0697 C   0  0  0  0  0  0  0  0  0  0  0  0
   11.6226    8.2713   -1.1586 O   0  0  0  0  0  0  0  0  0  0  0  0
   14.4567    9.1096   -5.7613 H   0  0  0  0  0  0  0  0  0  0  0  0
   15.7945    9.3390   -4.4700 H   0  0  0  0  0  0  0  0  0  0  0  0
   12.8096    8.7060   -3.9846 H   0  0  0  0  0  0  0  0  0  0  0  0
   13.5579    9.7273   -1.7879 H   0  0  0  0  0  0  0  0  0  0  0  0
   15.1919    9.2012   -2.0796 H   0  0  0  0  0  0  0  0  0  0  0  0
   15.8627    6.8562   -1.8945 H   0  0  0  0  0  0  0  0  0  0  0  0
   15.4319    4.6756   -0.8220 H   0  0  0  0  0  0  0  0  0  0  0  0
   13.1871    4.1281    0.0612 H   0  0  0  0  0  0  0  0  0  0  0  0
   10.8286    4.6578    0.4702 H   0  0  0  0  0  0  0  0  0  0  0  0
    8.5190    5.3346    0.8274 H   0  0  0  0  0  0  0  0  0  0  0  0
    6.4268    6.2581    1.5429 H   0  0  0  0  0  0  0  0  0  0  0  0
    6.3294    9.1975   -0.7294 H   0  0  0  0  0  0  0  0  0  0  0  0
    4.5914   10.8310   -0.8224 H   0  0  0  0  0  0  0  0  0  0  0  0
    0.6051    9.5546    1.9529 H   0  0  0  0  0  0  0  0  0  0  0  0
   -1.5233   10.5609    2.6380 H   0  0  0  0  0  0  0  0  0  0  0  0
   -2.0805   14.1606    0.9043 H   0  0  0  0  0  0  0  0  0  0  0  0
   -2.1281   16.2124    1.5000 H   0  0  0  0  0  0  0  0  0  0  0  0
   -3.0666   15.6431    0.0562 H   0  0  0  0  0  0  0  0  0  0  0  0
   -2.9628   17.8128   -0.8973 H   0  0  0  0  0  0  0  0  0  0  0  0
   -2.1227   18.4764    0.5024 H   0  0  0  0  0  0  0  0  0  0  0  0
   -3.9956   17.7195    1.9940 H   0  0  0  0  0  0  0  0  0  0  0  0
   -4.8930   17.1133    0.6022 H   0  0  0  0  0  0  0  0  0  0  0  0
   -5.7216   18.7727   -1.1043 H   0  0  0  0  0  0  0  0  0  0  0  0
   -4.0718   19.3511   -1.3345 H   0  0  0  0  0  0  0  0  0  0  0  0
   -5.6219   21.0723   -1.9961 H   0  0  0  0  0  0  0  0  0  0  0  0
   -4.5767   21.5844   -0.6714 H   0  0  0  0  0  0  0  0  0  0  0  0
   -7.4809   20.6591   -0.4640 H   0  0  0  0  0  0  0  0  0  0  0  0
   -6.8723   22.2948   -0.1816 H   0  0  0  0  0  0  0  0  0  0  0  0
   -7.2995   21.0127    1.9500 H   0  0  0  0  0  0  0  0  0  0  0  0
   -5.6253   21.5496    1.7969 H   0  0  0  0  0  0  0  0  0  0  0  0
   -6.6963   18.7364    1.2181 H   0  0  0  0  0  0  0  0  0  0  0  0
   -5.6794   19.2420    2.5720 H   0  0  0  0  0  0  0  0  0  0  0  0
    1.3964   17.5746   -2.5906 H   0  0  0  0  0  0  0  0  0  0  0  0
    0.7590   17.5415   -0.9552 H   0  0  0  0  0  0  0  0  0  0  0  0
   -0.2076   16.9097   -2.3586 H   0  0  0  0  0  0  0  0  0  0  0  0
    2.3074   13.3454   -1.1233 H   0  0  0  0  0  0  0  0  0  0  0  0
    4.2811    7.2092    2.5113 H   0  0  0  0  0  0  0  0  0  0  0  0
   10.7873    7.9494   -0.7477 H   0  0  0  0  0  0  0  0  0  0  0  0
  1  2  2  0  0  0  0
  1 47  1  0  0  0  0
  1 48  1  0  0  0  0
  2  3  1  0  0  0  0
  2 49  1  0  0  0  0
  3  4  1  0  0  0  0
  3 50  1  0  0  0  0
  3 51  1  0  0  0  0
  4  5  1  0  0  0  0
  4 45  2  0  0  0  0
  5  6  2  0  0  0  0
  5 52  1  0  0  0  0
  6  7  1  0  0  0  0
  6 53  1  0  0  0  0
  7  8  2  0  0  0  0
  7 54  1  0  0  0  0
  8  9  1  0  0  0  0
  8 45  1  0  0  0  0
  9 10  2  0  0  0  0
  9 55  1  0  0  0  0
 10 11  1  0  0  0  0
 11 12  1  0  0  0  0
 11 56  1  0  0  0  0
 12 13  2  0  0  0  0
 12 14  1  0  0  0  0
 14 15  1  0  0  0  0
 14 57  1  0  0  0  0
 15 16  1  0  0  0  0
 15 44  2  0  0  0  0
 16 17  2  0  0  0  0
 16 58  1  0  0  0  0
 17 18  1  0  0  0  0
 17 59  1  0  0  0  0
 18 19  1  0  0  0  0
 18 42  2  0  0  0  0
 19 20  1  0  0  0  0
 20 21  1  0  0  0  0
 20 41  2  0  0  0  0
 21 22  2  0  0  0  0
 21 60  1  0  0  0  0
 22 23  1  0  0  0  0
 22 61  1  0  0  0  0
 23 24  2  0  0  0  0
 24 25  1  0  0  0  0
 24 41  1  0  0  0  0
 25 26  2  0  0  0  0
 25 62  1  0  0  0  0
 26 27  1  0  0  0  0
 26 37  1  0  0  0  0
 27 28  1  0  0  0  0
 28 29  1  0  0  0  0
 28 63  1  0  0  0  0
 28 64  1  0  0  0  0
 29 30  1  0  0  0  0
 29 65  1  0  0  0  0
 29 66  1  0  0  0  0
 30 31  1  0  0  0  0
 30 67  1  0  0  0  0
 30 68  1  0  0  0  0
 31 32  1  0  0  0  0
 31 36  1  0  0  0  0
 32 33  1  0  0  0  0
 32 69  1  0  0  0  0
 32 70  1  0  0  0  0
 33 34  1  0  0  0  0
 33 71  1  0  0  0  0
 33 72  1  0  0  0  0
 34 35  1  0  0  0  0
 34 73  1  0  0  0  0
 34 74  1  0  0  0  0
 35 36  1  0  0  0  0
 35 75  1  0  0  0  0
 35 76  1  0  0  0  0
 36 77  1  0  0  0  0
 36 78  1  0  0  0  0
 37 38  1  0  0  0  0
 37 40  2  0  0  0  0
 38 39  1  0  0  0  0
 39 79  1  0  0  0  0
 39 80  1  0  0  0  0
 39 81  1  0  0  0  0
 40 41  1  0  0  0  0
 40 82  1  0  0  0  0
 42 43  1  0  0  0  0
 42 44  1  0  0  0  0
 44 83  1  0  0  0  0
 45 46  1  0  0  0  0
 46 84  1  0  0  0  0
M  END
$$$$
