CHEMBL3922100
 OpenBabel04072215373D

 61 65  0  0  0  0  0  0  0  0999 V2000
    0.4585    3.1866   -2.7431 C   0  0  0  0  0  0  0  0  0  0  0  0
    1.7767    3.0722   -3.2947 O   0  0  0  0  0  0  0  0  0  0  0  0
    2.7466    2.5115   -2.4867 C   0  0  0  0  0  0  0  0  0  0  0  0
    2.5336    2.1683   -1.1597 C   0  0  0  0  0  0  0  0  0  0  0  0
    3.5558    1.5558   -0.4341 C   0  0  0  0  0  0  0  0  0  0  0  0
    3.4599    1.1799    0.8827 O   0  0  0  0  0  0  0  0  0  0  0  0
    2.2920    1.5933    1.5804 C   0  0  0  0  0  0  0  0  0  0  0  0
    4.7867    1.2542   -1.0525 C   0  0  0  0  0  0  0  0  0  0  0  0
    5.0503    1.5944   -2.3828 C   0  0  0  0  0  0  0  0  0  0  0  0
    6.2414    1.1820   -3.0318 N   0  0  0  0  0  0  0  0  0  0  0  0
    6.7525   -0.2702   -2.8141 C   0  0  0  0  0  0  0  0  0  0  0  0
    5.8181   -1.4691   -2.8130 C   0  0  0  0  0  0  0  0  0  0  0  0
    5.0167   -2.4975   -2.8121 C   0  0  0  0  0  0  0  0  0  0  0  0
    4.1103   -3.6277   -2.8579 C   0  0  0  0  0  0  0  0  0  0  0  0
    3.1282   -3.3887   -3.8974 O   0  0  0  0  0  0  0  0  0  0  0  0
    3.5502   -4.1003   -1.4893 C   0  0  0  0  0  0  0  0  0  0  0  0
    3.7606   -5.5090   -1.9083 N   0  0  0  0  0  0  0  0  0  0  0  0
    4.7767   -5.0301   -2.8813 C   0  0  0  0  0  0  0  0  0  0  0  0
    7.3059    1.9892   -3.6093 C   0  0  0  0  0  0  0  0  0  0  0  0
    7.7322    1.5481   -4.8433 C   0  0  0  0  0  0  0  0  0  0  0  0
    9.0092    1.8040   -5.2725 C   0  0  0  0  0  0  0  0  0  0  0  0
    9.8724    2.6128   -4.6072 C   0  0  0  0  0  0  0  0  0  0  0  0
   11.1122    2.5049   -5.0881 N   0  0  0  0  0  0  0  0  0  0  0  0
   12.0162    3.3742   -4.6519 C   0  0  0  0  0  0  0  0  0  0  0  0
   11.7050    4.4212   -3.8116 C   0  0  0  0  0  0  0  0  0  0  0  0
   12.7713    5.4518   -3.7729 C   0  0  0  0  0  0  0  0  0  0  0  0
   12.9544    6.5977   -4.6187 C   0  0  0  0  0  0  0  0  0  0  0  0
   14.2185    7.0431   -4.6696 N   0  0  0  0  0  0  0  0  0  0  0  0
   14.8953    6.1717   -3.9059 N   0  0  0  0  0  0  0  0  0  0  0  0
   16.3163    6.3381   -3.6718 C   0  0  0  0  0  0  0  0  0  0  0  0
   14.0979    5.1550   -3.4423 C   0  0  0  0  0  0  0  0  0  0  0  0
   10.4359    4.4616   -3.2078 N   0  0  0  0  0  0  0  0  0  0  0  0
    9.4715    3.4599   -3.5462 C   0  0  0  0  0  0  0  0  0  0  0  0
    8.1148    3.0448   -3.0217 C   0  0  0  0  0  0  0  0  0  0  0  0
    4.0133    2.2643   -3.0812 C   0  0  0  0  0  0  0  0  0  0  0  0
   -0.2260    3.5267   -3.5285 H   0  0  0  0  0  0  0  0  0  0  0  0
    0.4303    3.9325   -1.9396 H   0  0  0  0  0  0  0  0  0  0  0  0
    0.0786    2.2212   -2.3858 H   0  0  0  0  0  0  0  0  0  0  0  0
    1.5819    2.3672   -0.6920 H   0  0  0  0  0  0  0  0  0  0  0  0
    2.4224    1.3378    2.6352 H   0  0  0  0  0  0  0  0  0  0  0  0
    1.4100    1.0583    1.2113 H   0  0  0  0  0  0  0  0  0  0  0  0
    2.1486    2.6783    1.5187 H   0  0  0  0  0  0  0  0  0  0  0  0
    5.5360    0.7533   -0.4563 H   0  0  0  0  0  0  0  0  0  0  0  0
    7.2625   -0.2630   -1.8406 H   0  0  0  0  0  0  0  0  0  0  0  0
    7.5332   -0.5175   -3.5430 H   0  0  0  0  0  0  0  0  0  0  0  0
    2.7436   -2.5243   -3.6726 H   0  0  0  0  0  0  0  0  0  0  0  0
    2.5040   -3.8454   -1.2926 H   0  0  0  0  0  0  0  0  0  0  0  0
    4.1446   -3.8161   -0.6122 H   0  0  0  0  0  0  0  0  0  0  0  0
    2.9404   -5.8981   -2.3804 H   0  0  0  0  0  0  0  0  0  0  0  0
    4.7499   -5.5511   -3.8439 H   0  0  0  0  0  0  0  0  0  0  0  0
    5.8024   -5.0752   -2.4950 H   0  0  0  0  0  0  0  0  0  0  0  0
    7.1073    0.8537   -5.4214 H   0  0  0  0  0  0  0  0  0  0  0  0
    9.3695    1.2849   -6.1685 H   0  0  0  0  0  0  0  0  0  0  0  0
   13.0139    3.2279   -5.0540 H   0  0  0  0  0  0  0  0  0  0  0  0
   12.2348    7.0849   -5.2653 H   0  0  0  0  0  0  0  0  0  0  0  0
   16.6981    7.2038   -4.2221 H   0  0  0  0  0  0  0  0  0  0  0  0
   16.8505    5.4378   -3.9900 H   0  0  0  0  0  0  0  0  0  0  0  0
   16.4568    6.4973   -2.5995 H   0  0  0  0  0  0  0  0  0  0  0  0
   14.5483    4.2872   -2.9813 H   0  0  0  0  0  0  0  0  0  0  0  0
    7.7631    3.5462   -2.1185 H   0  0  0  0  0  0  0  0  0  0  0  0
    4.1541    2.5314   -4.1251 H   0  0  0  0  0  0  0  0  0  0  0  0
  1  2  1  0  0  0  0
  1 36  1  0  0  0  0
  1 37  1  0  0  0  0
  1 38  1  0  0  0  0
  2  3  1  0  0  0  0
  3  4  1  0  0  0  0
  3 35  2  0  0  0  0
  4  5  2  0  0  0  0
  4 39  1  0  0  0  0
  5  6  1  0  0  0  0
  5  8  1  0  0  0  0
  6  7  1  0  0  0  0
  7 40  1  0  0  0  0
  7 41  1  0  0  0  0
  7 42  1  0  0  0  0
  8  9  2  0  0  0  0
  8 43  1  0  0  0  0
  9 10  1  0  0  0  0
  9 35  1  0  0  0  0
 10 11  1  0  0  0  0
 10 19  1  0  0  0  0
 11 12  1  0  0  0  0
 11 44  1  0  0  0  0
 11 45  1  0  0  0  0
 12 13  3  0  0  0  0
 13 14  1  0  0  0  0
 14 15  1  0  0  0  0
 14 16  1  0  0  0  0
 14 18  1  0  0  0  0
 15 46  1  0  0  0  0
 16 17  1  0  0  0  0
 16 47  1  0  0  0  0
 16 48  1  0  0  0  0
 17 18  1  0  0  0  0
 17 49  1  0  0  0  0
 18 50  1  0  0  0  0
 18 51  1  0  0  0  0
 19 20  1  0  0  0  0
 19 34  2  0  0  0  0
 20 21  2  0  0  0  0
 20 52  1  0  0  0  0
 21 22  1  0  0  0  0
 21 53  1  0  0  0  0
 22 23  1  0  0  0  0
 22 33  2  0  0  0  0
 23 24  2  0  0  0  0
 24 25  1  0  0  0  0
 24 54  1  0  0  0  0
 25 26  1  0  0  0  0
 25 32  2  0  0  0  0
 26 27  1  0  0  0  0
 26 31  2  0  0  0  0
 27 28  2  0  0  0  0
 27 55  1  0  0  0  0
 28 29  1  0  0  0  0
 29 30  1  0  0  0  0
 29 31  1  0  0  0  0
 30 56  1  0  0  0  0
 30 57  1  0  0  0  0
 30 58  1  0  0  0  0
 31 59  1  0  0  0  0
 32 33  1  0  0  0  0
 33 34  1  0  0  0  0
 34 60  1  0  0  0  0
 35 61  1  0  0  0  0
M  END
$$$$
