CHEMBL3321898
 OpenBabel04072215363D

 47 51  0  0  0  0  0  0  0  0999 V2000
    1.9097   -1.2309   -0.4600 C   0  0  0  0  0  0  0  0  0  0  0  0
    3.2956   -0.8373    0.0306 C   0  0  0  0  0  0  0  0  0  0  0  0
    3.5259   -1.1321    1.4939 C   0  0  0  0  0  0  0  0  0  0  0  0
    4.0343   -2.3660    1.9245 C   0  0  0  0  0  0  0  0  0  0  0  0
    4.2944   -2.6090    3.2870 C   0  0  0  0  0  0  0  0  0  0  0  0
    4.0455   -1.6314    4.2609 C   0  0  0  0  0  0  0  0  0  0  0  0
    4.3288   -1.8789    5.6930 C   0  0  0  0  0  0  0  0  0  0  0  0
    4.9099   -2.9342    6.2490 N   0  0  0  0  0  0  0  0  0  0  0  0
    4.8957   -2.7158    7.6180 C   0  0  0  0  0  0  0  0  0  0  0  0
    5.3525   -3.4987    8.6893 C   0  0  0  0  0  0  0  0  0  0  0  0
    5.1457   -3.0329   10.0066 C   0  0  0  0  0  0  0  0  0  0  0  0
    4.5278   -1.7955   10.2891 C   0  0  0  0  0  0  0  0  0  0  0  0
    4.2376   -1.4731   11.6439 N   0  0  0  0  0  0  0  0  0  0  0  0
    3.8943   -0.2381   12.2681 C   0  0  0  0  0  0  0  0  0  0  0  0
    3.9841    0.9136   11.5788 N   0  0  0  0  0  0  0  0  0  0  0  0
    3.7198    2.0409   12.2528 C   0  0  0  0  0  0  0  0  0  0  0  0
    3.3861    2.1392   13.5439 N   0  0  0  0  0  0  0  0  0  0  0  0
    3.2701    0.9960   14.2202 C   0  0  0  0  0  0  0  0  0  0  0  0
    2.9305    1.0559   15.5668 C   0  0  0  0  0  0  0  0  0  0  0  0
    2.7704   -0.0928   16.3447 C   0  0  0  0  0  0  0  0  0  0  0  0
    2.9326   -1.3391   15.7587 C   0  0  0  0  0  0  0  0  0  0  0  0
    3.2820   -1.4251   14.4109 C   0  0  0  0  0  0  0  0  0  0  0  0
    3.4830   -0.2579   13.6279 C   0  0  0  0  0  0  0  0  0  0  0  0
    4.0932   -1.0148    9.2114 C   0  0  0  0  0  0  0  0  0  0  0  0
    4.3029   -1.5007    7.9112 C   0  0  0  0  0  0  0  0  0  0  0  0
    3.9963   -0.9792    6.6845 N   0  0  0  0  0  0  0  0  0  0  0  0
    3.5096   -0.4085    3.8164 C   0  0  0  0  0  0  0  0  0  0  0  0
    3.2508   -0.1630    2.4598 C   0  0  0  0  0  0  0  0  0  0  0  0
    1.8031   -0.9830   -1.5222 H   0  0  0  0  0  0  0  0  0  0  0  0
    1.1242   -0.7001    0.0877 H   0  0  0  0  0  0  0  0  0  0  0  0
    1.7372   -2.3057   -0.3469 H   0  0  0  0  0  0  0  0  0  0  0  0
    3.4485    0.2348   -0.1530 H   0  0  0  0  0  0  0  0  0  0  0  0
    4.0559   -1.3508   -0.5703 H   0  0  0  0  0  0  0  0  0  0  0  0
    4.2466   -3.1470    1.1956 H   0  0  0  0  0  0  0  0  0  0  0  0
    4.6966   -3.5776    3.5817 H   0  0  0  0  0  0  0  0  0  0  0  0
    5.8305   -4.4541    8.5042 H   0  0  0  0  0  0  0  0  0  0  0  0
    5.4722   -3.6734   10.8237 H   0  0  0  0  0  0  0  0  0  0  0  0
    4.8357   -2.0010   12.2711 H   0  0  0  0  0  0  0  0  0  0  0  0
    3.7892    2.9719   11.6996 H   0  0  0  0  0  0  0  0  0  0  0  0
    2.7867    2.0315   16.0319 H   0  0  0  0  0  0  0  0  0  0  0  0
    2.5094   -0.0084   17.3969 H   0  0  0  0  0  0  0  0  0  0  0  0
    2.7848   -2.2430   16.3455 H   0  0  0  0  0  0  0  0  0  0  0  0
    3.3801   -2.4125   13.9647 H   0  0  0  0  0  0  0  0  0  0  0  0
    3.5854   -0.0710    9.3656 H   0  0  0  0  0  0  0  0  0  0  0  0
    3.5575   -0.0846    6.5419 H   0  0  0  0  0  0  0  0  0  0  0  0
    3.2851    0.3950    4.5099 H   0  0  0  0  0  0  0  0  0  0  0  0
    2.8447    0.8033    2.1664 H   0  0  0  0  0  0  0  0  0  0  0  0
  1  2  1  0  0  0  0
  1 29  1  0  0  0  0
  1 30  1  0  0  0  0
  1 31  1  0  0  0  0
  2  3  1  0  0  0  0
  2 32  1  0  0  0  0
  2 33  1  0  0  0  0
  3  4  1  0  0  0  0
  3 28  2  0  0  0  0
  4  5  2  0  0  0  0
  4 34  1  0  0  0  0
  5  6  1  0  0  0  0
  5 35  1  0  0  0  0
  6  7  1  0  0  0  0
  6 27  2  0  0  0  0
  7  8  2  0  0  0  0
  7 26  1  0  0  0  0
  8  9  1  0  0  0  0
  9 10  1  0  0  0  0
  9 25  2  0  0  0  0
 10 11  2  0  0  0  0
 10 36  1  0  0  0  0
 11 12  1  0  0  0  0
 11 37  1  0  0  0  0
 12 13  1  0  0  0  0
 12 24  2  0  0  0  0
 13 14  1  0  0  0  0
 13 38  1  0  0  0  0
 14 15  1  0  0  0  0
 14 23  2  0  0  0  0
 15 16  2  0  0  0  0
 16 17  1  0  0  0  0
 16 39  1  0  0  0  0
 17 18  2  0  0  0  0
 18 19  1  0  0  0  0
 18 23  1  0  0  0  0
 19 20  2  0  0  0  0
 19 40  1  0  0  0  0
 20 21  1  0  0  0  0
 20 41  1  0  0  0  0
 21 22  2  0  0  0  0
 21 42  1  0  0  0  0
 22 23  1  0  0  0  0
 22 43  1  0  0  0  0
 24 25  1  0  0  0  0
 24 44  1  0  0  0  0
 25 26  1  0  0  0  0
 26 45  1  0  0  0  0
 27 28  1  0  0  0  0
 27 46  1  0  0  0  0
 28 47  1  0  0  0  0
M  END
$$$$
