CHEMBL366079
 OpenBabel04072215373D

 36 39  0  0  0  0  0  0  0  0999 V2000
    0.5812    2.3185    1.1327 C   0  0  0  0  0  0  0  0  0  0  0  0
    0.8630    1.0773    0.3583 C   0  0  0  0  0  0  0  0  0  0  0  0
    2.0520    0.7001   -0.2601 C   0  0  0  0  0  0  0  0  0  0  0  0
    3.3456    1.2986   -0.3159 C   0  0  0  0  0  0  0  0  0  0  0  0
    4.5168    0.6367   -0.3196 C   0  0  0  0  0  0  0  0  0  0  0  0
    4.7973   -0.8154   -0.2941 C   0  0  0  0  0  0  0  0  0  0  0  0
    4.1116   -1.7333   -0.6988 O   0  0  0  0  0  0  0  0  0  0  0  0
    6.0855   -0.8744    0.2148 N   0  0  0  0  0  0  0  0  0  0  0  0
    6.7456    0.3340    0.2504 N   0  0  0  0  0  0  0  0  0  0  0  0
    5.8652    1.2341   -0.1276 C   0  0  0  0  0  0  0  0  0  0  0  0
    6.2120    2.6229   -0.4255 C   0  0  0  0  0  0  0  0  0  0  0  0
    7.3089    3.2210    0.1737 C   0  0  0  0  0  0  0  0  0  0  0  0
    7.7637    4.4445   -0.2003 N   0  0  0  0  0  0  0  0  0  0  0  0
    7.0947    5.0195   -1.2269 C   0  0  0  0  0  0  0  0  0  0  0  0
    6.0037    4.4166   -1.8331 C   0  0  0  0  0  0  0  0  0  0  0  0
    5.5261    3.2137   -1.4397 N   0  0  0  0  0  0  0  0  0  0  0  0
    1.7925   -0.4728   -0.9309 N   0  0  0  0  0  0  0  0  0  0  0  0
    0.5155   -0.9152   -0.6846 C   0  0  0  0  0  0  0  0  0  0  0  0
   -0.1421   -2.0655   -1.1352 C   0  0  0  0  0  0  0  0  0  0  0  0
   -1.4397   -2.2919   -0.6687 C   0  0  0  0  0  0  0  0  0  0  0  0
   -2.0451   -1.4088    0.2220 C   0  0  0  0  0  0  0  0  0  0  0  0
   -1.3777   -0.2521    0.6426 C   0  0  0  0  0  0  0  0  0  0  0  0
   -0.0751    0.0099    0.1681 C   0  0  0  0  0  0  0  0  0  0  0  0
    1.2067    3.1524    0.8018 H   0  0  0  0  0  0  0  0  0  0  0  0
    0.7479    2.1525    2.2008 H   0  0  0  0  0  0  0  0  0  0  0  0
   -0.4627    2.6254    0.9957 H   0  0  0  0  0  0  0  0  0  0  0  0
    3.3597    2.3797   -0.2061 H   0  0  0  0  0  0  0  0  0  0  0  0
    6.6036   -1.7415    0.2970 H   0  0  0  0  0  0  0  0  0  0  0  0
    7.8746    2.7292    0.9598 H   0  0  0  0  0  0  0  0  0  0  0  0
    7.4702    5.9803   -1.5623 H   0  0  0  0  0  0  0  0  0  0  0  0
    5.4944    4.8782   -2.6716 H   0  0  0  0  0  0  0  0  0  0  0  0
    2.4781   -1.0129   -1.4453 H   0  0  0  0  0  0  0  0  0  0  0  0
    0.3378   -2.7604   -1.8164 H   0  0  0  0  0  0  0  0  0  0  0  0
   -1.9785   -3.1766   -0.9990 H   0  0  0  0  0  0  0  0  0  0  0  0
   -3.0449   -1.6168    0.5941 H   0  0  0  0  0  0  0  0  0  0  0  0
   -1.8567    0.4262    1.3420 H   0  0  0  0  0  0  0  0  0  0  0  0
  1  2  1  0  0  0  0
  1 24  1  0  0  0  0
  1 25  1  0  0  0  0
  1 26  1  0  0  0  0
  2  3  2  0  0  0  0
  2 23  1  0  0  0  0
  3  4  1  0  0  0  0
  3 17  1  0  0  0  0
  4  5  2  0  0  0  0
  4 27  1  0  0  0  0
  5  6  1  0  0  0  0
  5 10  1  0  0  0  0
  6  7  2  0  0  0  0
  6  8  1  0  0  0  0
  8  9  1  0  0  0  0
  8 28  1  0  0  0  0
  9 10  2  0  0  0  0
 10 11  1  0  0  0  0
 11 12  1  0  0  0  0
 11 16  2  0  0  0  0
 12 13  2  0  0  0  0
 12 29  1  0  0  0  0
 13 14  1  0  0  0  0
 14 15  2  0  0  0  0
 14 30  1  0  0  0  0
 15 16  1  0  0  0  0
 15 31  1  0  0  0  0
 17 18  1  0  0  0  0
 17 32  1  0  0  0  0
 18 19  1  0  0  0  0
 18 23  2  0  0  0  0
 19 20  2  0  0  0  0
 19 33  1  0  0  0  0
 20 21  1  0  0  0  0
 20 34  1  0  0  0  0
 21 22  2  0  0  0  0
 21 35  1  0  0  0  0
 22 23  1  0  0  0  0
 22 36  1  0  0  0  0
M  END
$$$$
