CHEMBL498205
 OpenBabel04072215383D

 36 39  0  0  0  0  0  0  0  0999 V2000
    7.8338   -4.4746   -1.2957 C   0  0  0  0  0  0  0  0  0  0  0  0
    7.4626   -3.0491   -1.5540 C   0  0  0  0  0  0  0  0  0  0  0  0
    7.8099   -2.3912   -2.7457 C   0  0  0  0  0  0  0  0  0  0  0  0
    7.6949   -1.0007   -2.8852 C   0  0  0  0  0  0  0  0  0  0  0  0
    7.3296   -0.3091   -1.7315 C   0  0  0  0  0  0  0  0  0  0  0  0
    7.3516    1.0183   -1.3959 N   0  0  0  0  0  0  0  0  0  0  0  0
    7.1771    1.0981   -0.0240 C   0  0  0  0  0  0  0  0  0  0  0  0
    7.3377    2.3474    0.6485 C   0  0  0  0  0  0  0  0  0  0  0  0
    6.3872    2.6307    1.5699 C   0  0  0  0  0  0  0  0  0  0  0  0
    6.0046    1.7590    2.5968 N   0  0  0  0  0  0  0  0  0  0  0  0
    5.3352    3.4874    0.9440 C   0  0  0  0  0  0  0  0  0  0  0  0
    3.9706    3.2332    1.1167 C   0  0  0  0  0  0  0  0  0  0  0  0
    3.0429    3.7922    0.2361 C   0  0  0  0  0  0  0  0  0  0  0  0
    3.4573    4.6718   -0.7659 C   0  0  0  0  0  0  0  0  0  0  0  0
    4.7986    5.0251   -0.8801 C   0  0  0  0  0  0  0  0  0  0  0  0
    5.7313    4.3950   -0.0570 C   0  0  0  0  0  0  0  0  0  0  0  0
    7.0848    4.5249   -0.3665 N   0  0  0  0  0  0  0  0  0  0  0  0
    7.9366    3.4912   -0.0967 C   0  0  0  0  0  0  0  0  0  0  0  0
    9.0659    3.4380   -0.5727 O   0  0  0  0  0  0  0  0  0  0  0  0
    6.7029   -0.0449    0.4343 N   0  0  0  0  0  0  0  0  0  0  0  0
    6.9200   -0.9387   -0.5700 C   0  0  0  0  0  0  0  0  0  0  0  0
    6.9069   -2.3268   -0.4909 C   0  0  0  0  0  0  0  0  0  0  0  0
    8.0690   -5.0073   -2.2193 H   0  0  0  0  0  0  0  0  0  0  0  0
    7.0201   -4.9974   -0.7832 H   0  0  0  0  0  0  0  0  0  0  0  0
    8.7192   -4.4861   -0.6490 H   0  0  0  0  0  0  0  0  0  0  0  0
    8.2399   -2.9602   -3.5691 H   0  0  0  0  0  0  0  0  0  0  0  0
    8.0133   -0.4966   -3.7862 H   0  0  0  0  0  0  0  0  0  0  0  0
    7.6266    1.7761   -2.0059 H   0  0  0  0  0  0  0  0  0  0  0  0
    6.7559    1.0811    2.7558 H   0  0  0  0  0  0  0  0  0  0  0  0
    5.2322    1.1753    2.2709 H   0  0  0  0  0  0  0  0  0  0  0  0
    3.6223    2.5241    1.8624 H   0  0  0  0  0  0  0  0  0  0  0  0
    1.9982    3.4995    0.3035 H   0  0  0  0  0  0  0  0  0  0  0  0
    2.7382    5.0480   -1.4873 H   0  0  0  0  0  0  0  0  0  0  0  0
    5.1206    5.6704   -1.6914 H   0  0  0  0  0  0  0  0  0  0  0  0
    7.4173    5.2193   -1.0213 H   0  0  0  0  0  0  0  0  0  0  0  0
    6.6312   -2.7964    0.4457 H   0  0  0  0  0  0  0  0  0  0  0  0
  1  2  1  0  0  0  0
  1 23  1  0  0  0  0
  1 24  1  0  0  0  0
  1 25  1  0  0  0  0
  2  3  1  0  0  0  0
  2 22  2  0  0  0  0
  3  4  2  0  0  0  0
  3 26  1  0  0  0  0
  4  5  1  0  0  0  0
  4 27  1  0  0  0  0
  5  6  1  0  0  0  0
  5 21  2  0  0  0  0
  6  7  1  0  0  0  0
  6 28  1  0  0  0  0
  7  8  1  0  0  0  0
  7 20  2  0  0  0  0
  8  9  2  0  0  0  0
  8 18  1  0  0  0  0
  9 10  1  0  0  0  0
  9 11  1  0  0  0  0
 10 29  1  0  0  0  0
 10 30  1  0  0  0  0
 11 12  1  0  0  0  0
 11 16  2  0  0  0  0
 12 13  2  0  0  0  0
 12 31  1  0  0  0  0
 13 14  1  0  0  0  0
 13 32  1  0  0  0  0
 14 15  2  0  0  0  0
 14 33  1  0  0  0  0
 15 16  1  0  0  0  0
 15 34  1  0  0  0  0
 16 17  1  0  0  0  0
 17 18  1  0  0  0  0
 17 35  1  0  0  0  0
 18 19  2  0  0  0  0
 20 21  1  0  0  0  0
 21 22  1  0  0  0  0
 22 36  1  0  0  0  0
M  END
$$$$
