CHEMBL270556
 OpenBabel04072215363D

 45 48  0  0  0  0  0  0  0  0999 V2000
    3.4409   -0.5739    0.9899 C   0  0  0  0  0  0  0  0  0  0  0  0
    2.5801    0.1857    0.1328 O   0  0  0  0  0  0  0  0  0  0  0  0
    3.2012    0.8130   -0.9168 C   0  0  0  0  0  0  0  0  0  0  0  0
    4.3430    0.2539   -1.5156 C   0  0  0  0  0  0  0  0  0  0  0  0
    5.0933    0.9292   -2.4631 C   0  0  0  0  0  0  0  0  0  0  0  0
    6.2337    0.3696   -2.8805 N   0  0  0  0  0  0  0  0  0  0  0  0
    6.9901    1.0910   -3.7127 C   0  0  0  0  0  0  0  0  0  0  0  0
    6.6966    2.3035   -4.1772 N   0  0  0  0  0  0  0  0  0  0  0  0
    5.5056    2.8136   -3.8005 C   0  0  0  0  0  0  0  0  0  0  0  0
    5.1324    4.0718   -4.2896 O   0  0  0  0  0  0  0  0  0  0  0  0
    5.7984    4.5281   -5.4084 C   0  0  0  0  0  0  0  0  0  0  0  0
    5.9906    3.7292   -6.5300 C   0  0  0  0  0  0  0  0  0  0  0  0
    6.7772    4.1865   -7.5859 C   0  0  0  0  0  0  0  0  0  0  0  0
    7.3542    5.4770   -7.5858 C   0  0  0  0  0  0  0  0  0  0  0  0
    8.2167    5.9713   -8.6072 C   0  0  0  0  0  0  0  0  0  0  0  0
    8.7158    5.0885   -9.7099 C   0  0  0  0  0  0  0  0  0  0  0  0
    8.9557    5.6756  -10.9226 N   0  0  0  0  0  0  0  0  0  0  0  0
    8.9209    3.8899   -9.5698 O   0  0  0  0  0  0  0  0  0  0  0  0
    8.6937    7.2917   -8.5518 C   0  0  0  0  0  0  0  0  0  0  0  0
    8.3275    8.1304   -7.5055 C   0  0  0  0  0  0  0  0  0  0  0  0
    7.5154    7.6493   -6.4820 C   0  0  0  0  0  0  0  0  0  0  0  0
    7.0347    6.3285   -6.4934 C   0  0  0  0  0  0  0  0  0  0  0  0
    6.2644    5.8416   -5.4176 C   0  0  0  0  0  0  0  0  0  0  0  0
    4.6458    2.1745   -2.9041 C   0  0  0  0  0  0  0  0  0  0  0  0
    3.4204    2.6840   -2.4197 C   0  0  0  0  0  0  0  0  0  0  0  0
    2.7019    2.0232   -1.4131 C   0  0  0  0  0  0  0  0  0  0  0  0
    1.5873    2.7226   -1.0462 O   0  0  0  0  0  0  0  0  0  0  0  0
    0.8489    2.3274    0.0975 C   0  0  0  0  0  0  0  0  0  0  0  0
    3.0645   -0.4927    2.0137 H   0  0  0  0  0  0  0  0  0  0  0  0
    4.4763   -0.2103    1.0052 H   0  0  0  0  0  0  0  0  0  0  0  0
    3.4154   -1.6278    0.6949 H   0  0  0  0  0  0  0  0  0  0  0  0
    4.7003   -0.7285   -1.2159 H   0  0  0  0  0  0  0  0  0  0  0  0
    7.9266    0.6520   -4.0380 H   0  0  0  0  0  0  0  0  0  0  0  0
    5.5929    2.7191   -6.5681 H   0  0  0  0  0  0  0  0  0  0  0  0
    6.9494    3.4951   -8.4075 H   0  0  0  0  0  0  0  0  0  0  0  0
    8.6949    6.6221  -11.1504 H   0  0  0  0  0  0  0  0  0  0  0  0
    9.2417    5.0597  -11.6723 H   0  0  0  0  0  0  0  0  0  0  0  0
    9.3880    7.6685   -9.2977 H   0  0  0  0  0  0  0  0  0  0  0  0
    8.7015    9.1499   -7.4629 H   0  0  0  0  0  0  0  0  0  0  0  0
    7.2618    8.3178   -5.6597 H   0  0  0  0  0  0  0  0  0  0  0  0
    6.0566    6.4799   -4.5590 H   0  0  0  0  0  0  0  0  0  0  0  0
    3.0417    3.6331   -2.7957 H   0  0  0  0  0  0  0  0  0  0  0  0
    0.1670    3.1513    0.3363 H   0  0  0  0  0  0  0  0  0  0  0  0
    1.4860    2.1839    0.9744 H   0  0  0  0  0  0  0  0  0  0  0  0
    0.2379    1.4460   -0.1173 H   0  0  0  0  0  0  0  0  0  0  0  0
  1  2  1  0  0  0  0
  1 29  1  0  0  0  0
  1 30  1  0  0  0  0
  1 31  1  0  0  0  0
  2  3  1  0  0  0  0
  3  4  1  0  0  0  0
  3 26  2  0  0  0  0
  4  5  2  0  0  0  0
  4 32  1  0  0  0  0
  5  6  1  0  0  0  0
  5 24  1  0  0  0  0
  6  7  2  0  0  0  0
  7  8  1  0  0  0  0
  7 33  1  0  0  0  0
  8  9  2  0  0  0  0
  9 10  1  0  0  0  0
  9 24  1  0  0  0  0
 10 11  1  0  0  0  0
 11 12  1  0  0  0  0
 11 23  2  0  0  0  0
 12 13  2  0  0  0  0
 12 34  1  0  0  0  0
 13 14  1  0  0  0  0
 13 35  1  0  0  0  0
 14 15  1  0  0  0  0
 14 22  2  0  0  0  0
 15 16  1  0  0  0  0
 15 19  2  0  0  0  0
 16 17  1  0  0  0  0
 16 18  2  0  0  0  0
 17 36  1  0  0  0  0
 17 37  1  0  0  0  0
 19 20  1  0  0  0  0
 19 38  1  0  0  0  0
 20 21  2  0  0  0  0
 20 39  1  0  0  0  0
 21 22  1  0  0  0  0
 21 40  1  0  0  0  0
 22 23  1  0  0  0  0
 23 41  1  0  0  0  0
 24 25  2  0  0  0  0
 25 26  1  0  0  0  0
 25 42  1  0  0  0  0
 26 27  1  0  0  0  0
 27 28  1  0  0  0  0
 28 43  1  0  0  0  0
 28 44  1  0  0  0  0
 28 45  1  0  0  0  0
M  END
$$$$
