CHEMBL3699444
 OpenBabel04072215373D

 72 75  0  0  1  0  0  0  0  0999 V2000
    3.1162    2.2407    4.4441 C   0  0  0  0  0  0  0  0  0  0  0  0
    3.1199    1.9728    3.0453 O   0  0  0  0  0  0  0  0  0  0  0  0
    3.4057    0.6926    2.6426 C   0  0  0  0  0  0  0  0  0  0  0  0
    3.1808   -0.4191    3.4717 C   0  0  0  0  0  0  0  0  0  0  0  0
    3.3803   -1.7335    3.0238 C   0  0  0  0  0  0  0  0  0  0  0  0
    3.1668   -2.8946    3.9019 C   0  0  0  0  0  0  0  0  0  0  0  0
    2.7420   -4.1286    3.5845 C   0  0  0  0  0  0  0  0  0  0  0  0
    2.1807   -4.7172    2.4142 C   0  0  0  0  0  0  0  0  0  0  0  0
    0.8061   -4.7210    2.2674 C   0  0  0  0  0  0  0  0  0  0  0  0
    0.4872   -6.0300    1.9881 N   0  0  0  0  0  0  0  0  0  0  0  0
   -0.7713   -6.6386    2.3629 C   0  0  0  0  0  0  0  0  0  0  0  0
   -1.8024   -6.6301    1.2495 C   0  0  0  0  0  0  0  0  0  0  0  0
   -2.9868   -7.3073    1.6897 O   0  0  0  0  0  0  0  0  0  0  0  0
   -2.9066   -8.6703    1.6906 C   0  0  0  0  0  0  0  0  0  0  0  0
   -1.9547   -9.3182    1.2696 O   0  0  0  0  0  0  0  0  0  0  0  0
   -4.1718   -9.2856    2.2974 C   0  0  3  0  0  0  0  0  0  0  0  0
   -4.4276  -10.6054    1.6623 N   0  0  0  0  0  0  0  0  0  0  0  0
   -4.0108   -9.4842    3.8137 C   0  0  0  0  0  0  0  0  0  0  0  0
   -3.7978   -8.1989    4.6454 C   0  0  0  0  0  0  0  0  0  0  0  0
   -4.9356   -7.1890    4.4924 C   0  0  0  0  0  0  0  0  0  0  0  0
   -3.6333   -8.5612    6.1249 C   0  0  0  0  0  0  0  0  0  0  0  0
    1.6130   -6.7281    1.6053 C   0  0  0  0  0  0  0  0  0  0  0  0
    1.7890   -8.0862    1.3023 C   0  0  0  0  0  0  0  0  0  0  0  0
    3.0642   -8.5160    0.9379 C   0  0  0  0  0  0  0  0  0  0  0  0
    4.1234   -7.6170    0.8621 C   0  0  0  0  0  0  0  0  0  0  0  0
    3.9613   -6.2852    1.2697 C   0  0  0  0  0  0  0  0  0  0  0  0
    2.6890   -5.8365    1.6843 C   0  0  0  0  0  0  0  0  0  0  0  0
    2.6530   -4.9108    4.8495 C   0  0  0  0  0  0  0  0  0  0  0  0
    2.2291   -6.0512    4.9911 O   0  0  0  0  0  0  0  0  0  0  0  0
    3.0274   -4.1064    5.8498 N   0  0  0  0  0  0  0  0  0  0  0  0
    3.2525   -2.8637    5.3887 C   0  0  0  0  0  0  0  0  0  0  0  0
    3.4174   -1.8830    6.0914 O   0  0  0  0  0  0  0  0  0  0  0  0
    3.8283   -1.9199    1.7165 C   0  0  0  0  0  0  0  0  0  0  0  0
    4.0150   -0.8350    0.8548 C   0  0  0  0  0  0  0  0  0  0  0  0
    4.4129   -1.0075   -0.4508 O   0  0  0  0  0  0  0  0  0  0  0  0
    3.9320   -2.1983   -1.0730 C   0  0  0  0  0  0  0  0  0  0  0  0
    3.8410    0.4840    1.3209 C   0  0  0  0  0  0  0  0  0  0  0  0
    4.0572    1.4618    0.3789 O   0  0  0  0  0  0  0  0  0  0  0  0
    4.5387    2.7184    0.8359 C   0  0  0  0  0  0  0  0  0  0  0  0
    2.9202    3.3092    4.5776 H   0  0  0  0  0  0  0  0  0  0  0  0
    4.0934    2.0182    4.8848 H   0  0  0  0  0  0  0  0  0  0  0  0
    2.3146    1.7061    4.9630 H   0  0  0  0  0  0  0  0  0  0  0  0
    2.8163   -0.2672    4.4819 H   0  0  0  0  0  0  0  0  0  0  0  0
    0.0517   -4.0556    2.6684 H   0  0  0  0  0  0  0  0  0  0  0  0
   -1.1549   -6.1064    3.2420 H   0  0  0  0  0  0  0  0  0  0  0  0
   -0.5650   -7.6538    2.7176 H   0  0  0  0  0  0  0  0  0  0  0  0
   -1.4284   -7.0755    0.3218 H   0  0  0  0  0  0  0  0  0  0  0  0
   -2.0963   -5.6015    1.0135 H   0  0  0  0  0  0  0  0  0  0  0  0
   -5.0307   -8.6495    2.0621 H   0  0  0  0  0  0  0  0  0  0  0  0
   -3.6183  -11.2066    1.8404 H   0  0  0  0  0  0  0  0  0  0  0  0
   -4.4238  -10.4805    0.6476 H   0  0  0  0  0  0  0  0  0  0  0  0
   -3.1548  -10.1492    3.9980 H   0  0  0  0  0  0  0  0  0  0  0  0
   -4.8957  -10.0090    4.1992 H   0  0  0  0  0  0  0  0  0  0  0  0
   -2.8659   -7.7167    4.3295 H   0  0  0  0  0  0  0  0  0  0  0  0
   -5.9079   -7.6508    4.6921 H   0  0  0  0  0  0  0  0  0  0  0  0
   -4.9600   -6.7620    3.4858 H   0  0  0  0  0  0  0  0  0  0  0  0
   -4.8094   -6.3544    5.1914 H   0  0  0  0  0  0  0  0  0  0  0  0
   -4.5306   -9.0524    6.5160 H   0  0  0  0  0  0  0  0  0  0  0  0
   -3.4490   -7.6645    6.7268 H   0  0  0  0  0  0  0  0  0  0  0  0
   -2.7836   -9.2366    6.2684 H   0  0  0  0  0  0  0  0  0  0  0  0
    0.9715   -8.7976    1.3812 H   0  0  0  0  0  0  0  0  0  0  0  0
    3.2255   -9.5690    0.7191 H   0  0  0  0  0  0  0  0  0  0  0  0
    5.0965   -7.9675    0.5275 H   0  0  0  0  0  0  0  0  0  0  0  0
    4.8141   -5.6130    1.2602 H   0  0  0  0  0  0  0  0  0  0  0  0
    2.9189   -4.3447    6.8203 H   0  0  0  0  0  0  0  0  0  0  0  0
    4.0482   -2.9232    1.3680 H   0  0  0  0  0  0  0  0  0  0  0  0
    4.0456   -2.0835   -2.1544 H   0  0  0  0  0  0  0  0  0  0  0  0
    2.8690   -2.3667   -0.8630 H   0  0  0  0  0  0  0  0  0  0  0  0
    4.5299   -3.0634   -0.7675 H   0  0  0  0  0  0  0  0  0  0  0  0
    4.9674    3.2401   -0.0262 H   0  0  0  0  0  0  0  0  0  0  0  0
    5.3313    2.6140    1.5849 H   0  0  0  0  0  0  0  0  0  0  0  0
    3.7172    3.3405    1.2014 H   0  0  0  0  0  0  0  0  0  0  0  0
  1  2  1  0  0  0  0
  1 40  1  0  0  0  0
  1 41  1  0  0  0  0
  1 42  1  0  0  0  0
  2  3  1  0  0  0  0
  3  4  1  0  0  0  0
  3 37  2  0  0  0  0
  4  5  2  0  0  0  0
  4 43  1  0  0  0  0
  5  6  1  0  0  0  0
  5 33  1  0  0  0  0
  6  7  2  0  0  0  0
  6 31  1  0  0  0  0
  7  8  1  0  0  0  0
  7 28  1  0  0  0  0
  8  9  2  0  0  0  0
  8 27  1  0  0  0  0
  9 10  1  0  0  0  0
  9 44  1  0  0  0  0
 10 11  1  0  0  0  0
 10 22  1  0  0  0  0
 11 12  1  0  0  0  0
 11 45  1  0  0  0  0
 11 46  1  0  0  0  0
 12 13  1  0  0  0  0
 12 47  1  0  0  0  0
 12 48  1  0  0  0  0
 13 14  1  0  0  0  0
 14 15  2  0  0  0  0
 14 16  1  0  0  0  0
 16 17  1  0  0  0  0
 16 18  1  0  0  0  0
 16 49  1  0  0  0  0
 17 50  1  0  0  0  0
 17 51  1  0  0  0  0
 18 19  1  0  0  0  0
 18 52  1  0  0  0  0
 18 53  1  0  0  0  0
 19 20  1  0  0  0  0
 19 21  1  0  0  0  0
 19 54  1  0  0  0  0
 20 55  1  0  0  0  0
 20 56  1  0  0  0  0
 20 57  1  0  0  0  0
 21 58  1  0  0  0  0
 21 59  1  0  0  0  0
 21 60  1  0  0  0  0
 22 23  1  0  0  0  0
 22 27  2  0  0  0  0
 23 24  2  0  0  0  0
 23 61  1  0  0  0  0
 24 25  1  0  0  0  0
 24 62  1  0  0  0  0
 25 26  2  0  0  0  0
 25 63  1  0  0  0  0
 26 27  1  0  0  0  0
 26 64  1  0  0  0  0
 28 29  2  0  0  0  0
 28 30  1  0  0  0  0
 30 31  1  0  0  0  0
 30 65  1  0  0  0  0
 31 32  2  0  0  0  0
 33 34  2  0  0  0  0
 33 66  1  0  0  0  0
 34 35  1  0  0  0  0
 34 37  1  0  0  0  0
 35 36  1  0  0  0  0
 36 67  1  0  0  0  0
 36 68  1  0  0  0  0
 36 69  1  0  0  0  0
 37 38  1  0  0  0  0
 38 39  1  0  0  0  0
 39 70  1  0  0  0  0
 39 71  1  0  0  0  0
 39 72  1  0  0  0  0
M  END
$$$$
