CHEMBL2036870
 OpenBabel04072215363D

 39 42  0  0  0  0  0  0  0  0999 V2000
   -0.8756   -2.9692    1.3127 C   0  0  0  0  0  0  0  0  0  0  0  0
   -0.8813   -1.6482    0.7329 N   0  0  0  0  0  0  0  0  0  0  0  0
   -1.9270   -0.9857    0.1175 C   0  0  0  0  0  0  0  0  0  0  0  0
   -3.3046   -1.4728   -0.0287 C   0  0  0  0  0  0  0  0  0  0  0  0
   -4.0740   -1.0525   -1.0933 C   0  0  0  0  0  0  0  0  0  0  0  0
   -5.3510   -1.5380   -1.1240 C   0  0  0  0  0  0  0  0  0  0  0  0
   -5.8481   -2.3506   -0.1792 N   0  0  0  0  0  0  0  0  0  0  0  0
   -5.0398   -2.7006    0.8346 C   0  0  0  0  0  0  0  0  0  0  0  0
   -5.5142   -3.5531    1.8344 N   0  0  0  0  0  0  0  0  0  0  0  0
   -6.8088   -3.5767    2.3866 C   0  0  0  0  0  0  0  0  0  0  0  0
   -7.6862   -2.4882    2.2934 C   0  0  0  0  0  0  0  0  0  0  0  0
   -8.9661   -2.5410    2.8495 C   0  0  0  0  0  0  0  0  0  0  0  0
   -9.3928   -3.6913    3.5054 C   0  0  0  0  0  0  0  0  0  0  0  0
   -8.5264   -4.7745    3.6073 C   0  0  0  0  0  0  0  0  0  0  0  0
   -8.9071   -5.9239    4.2363 O   0  0  0  0  0  0  0  0  0  0  0  0
   -7.2434   -4.7229    3.0653 C   0  0  0  0  0  0  0  0  0  0  0  0
   -3.7666   -2.2954    0.9396 N   0  0  0  0  0  0  0  0  0  0  0  0
   -1.5022    0.1778   -0.3600 N   0  0  0  0  0  0  0  0  0  0  0  0
   -0.1867    0.2915    0.0043 C   0  0  0  0  0  0  0  0  0  0  0  0
    0.7165    1.3423   -0.2167 C   0  0  0  0  0  0  0  0  0  0  0  0
    2.0292    1.2126    0.2536 C   0  0  0  0  0  0  0  0  0  0  0  0
    2.4351    0.0586    0.9248 C   0  0  0  0  0  0  0  0  0  0  0  0
    1.5461   -0.9976    1.1545 C   0  0  0  0  0  0  0  0  0  0  0  0
    0.2370   -0.8421    0.6828 C   0  0  0  0  0  0  0  0  0  0  0  0
   -1.7784   -3.5257    1.0708 H   0  0  0  0  0  0  0  0  0  0  0  0
   -0.7724   -2.8651    2.3963 H   0  0  0  0  0  0  0  0  0  0  0  0
   -0.0255   -3.5220    0.9030 H   0  0  0  0  0  0  0  0  0  0  0  0
   -3.6922   -0.3870   -1.8550 H   0  0  0  0  0  0  0  0  0  0  0  0
   -6.0368   -1.2831   -1.9261 H   0  0  0  0  0  0  0  0  0  0  0  0
   -4.7827   -3.7021    2.5170 H   0  0  0  0  0  0  0  0  0  0  0  0
   -7.3784   -1.5744    1.7913 H   0  0  0  0  0  0  0  0  0  0  0  0
   -9.6253   -1.6815    2.7624 H   0  0  0  0  0  0  0  0  0  0  0  0
  -10.3937   -3.7239    3.9233 H   0  0  0  0  0  0  0  0  0  0  0  0
   -9.8266   -5.8213    4.5322 H   0  0  0  0  0  0  0  0  0  0  0  0
   -6.5975   -5.5924    3.1469 H   0  0  0  0  0  0  0  0  0  0  0  0
    0.3945    2.2357   -0.7394 H   0  0  0  0  0  0  0  0  0  0  0  0
    2.7378    2.0215    0.0930 H   0  0  0  0  0  0  0  0  0  0  0  0
    3.4610   -0.0224    1.2787 H   0  0  0  0  0  0  0  0  0  0  0  0
    1.8661   -1.8916    1.6783 H   0  0  0  0  0  0  0  0  0  0  0  0
  1  2  1  0  0  0  0
  1 25  1  0  0  0  0
  1 26  1  0  0  0  0
  1 27  1  0  0  0  0
  2  3  1  0  0  0  0
  2 24  1  0  0  0  0
  3  4  1  0  0  0  0
  3 18  2  0  0  0  0
  4  5  1  0  0  0  0
  4 17  2  0  0  0  0
  5  6  2  0  0  0  0
  5 28  1  0  0  0  0
  6  7  1  0  0  0  0
  6 29  1  0  0  0  0
  7  8  2  0  0  0  0
  8  9  1  0  0  0  0
  8 17  1  0  0  0  0
  9 10  1  0  0  0  0
  9 30  1  0  0  0  0
 10 11  1  0  0  0  0
 10 16  2  0  0  0  0
 11 12  2  0  0  0  0
 11 31  1  0  0  0  0
 12 13  1  0  0  0  0
 12 32  1  0  0  0  0
 13 14  2  0  0  0  0
 13 33  1  0  0  0  0
 14 15  1  0  0  0  0
 14 16  1  0  0  0  0
 15 34  1  0  0  0  0
 16 35  1  0  0  0  0
 18 19  1  0  0  0  0
 19 20  1  0  0  0  0
 19 24  2  0  0  0  0
 20 21  2  0  0  0  0
 20 36  1  0  0  0  0
 21 22  1  0  0  0  0
 21 37  1  0  0  0  0
 22 23  2  0  0  0  0
 22 38  1  0  0  0  0
 23 24  1  0  0  0  0
 23 39  1  0  0  0  0
M  END
$$$$
