CHEMBL495529
 OpenBabel04072215383D

 58 62  0  0  0  0  0  0  0  0999 V2000
    2.1252   -1.0964   -1.0300 C   0  0  0  0  0  0  0  0  0  0  0  0
    0.9616   -0.2692   -0.7178 N   0  0  0  0  0  0  0  0  0  0  0  0
   -0.2235   -0.7420   -1.4751 C   0  0  0  0  0  0  0  0  0  0  0  0
   -1.5223    0.0194   -1.1120 C   0  0  0  0  0  0  0  0  0  0  0  0
   -1.7405   -0.0955    0.3366 N   0  0  0  0  0  0  0  0  0  0  0  0
   -3.0123   -0.0550    0.8861 C   0  0  0  0  0  0  0  0  0  0  0  0
   -3.2344   -0.6561    2.1401 C   0  0  0  0  0  0  0  0  0  0  0  0
   -4.4895   -0.7036    2.7605 C   0  0  0  0  0  0  0  0  0  0  0  0
   -5.5380   -0.1325    2.0573 C   0  0  0  0  0  0  0  0  0  0  0  0
   -6.8673    0.0188    2.3454 N   0  0  0  0  0  0  0  0  0  0  0  0
   -7.4802    0.6254    1.2753 C   0  0  0  0  0  0  0  0  0  0  0  0
   -8.8848    0.8791    1.3185 C   0  0  0  0  0  0  0  0  0  0  0  0
   -9.5821    0.9738    0.1592 C   0  0  0  0  0  0  0  0  0  0  0  0
   -9.0394    0.7376   -1.1088 N   0  0  0  0  0  0  0  0  0  0  0  0
  -11.0138    1.3805    0.2135 C   0  0  0  0  0  0  0  0  0  0  0  0
  -11.8054    1.5348   -0.9424 C   0  0  0  0  0  0  0  0  0  0  0  0
  -13.1289    2.0153   -0.9167 C   0  0  0  0  0  0  0  0  0  0  0  0
  -13.8306    2.2545   -2.0902 N   0  0  0  0  0  0  0  0  0  0  0  0
  -13.6313    1.4347   -3.2846 C   0  0  0  0  0  0  0  0  0  0  0  0
  -15.0325    3.0824   -2.1180 C   0  0  0  0  0  0  0  0  0  0  0  0
  -13.6552    2.2997    0.3531 C   0  0  0  0  0  0  0  0  0  0  0  0
  -12.9089    2.1256    1.5249 C   0  0  0  0  0  0  0  0  0  0  0  0
  -11.5961    1.6743    1.4469 C   0  0  0  0  0  0  0  0  0  0  0  0
  -10.8599    1.5150    2.6213 N   0  0  0  0  0  0  0  0  0  0  0  0
   -9.5621    1.0936    2.6401 C   0  0  0  0  0  0  0  0  0  0  0  0
   -8.9864    0.8999    3.7113 O   0  0  0  0  0  0  0  0  0  0  0  0
   -6.5969    0.8789    0.3215 N   0  0  0  0  0  0  0  0  0  0  0  0
   -5.3878    0.4415    0.8034 C   0  0  0  0  0  0  0  0  0  0  0  0
   -4.1144    0.4958    0.2135 C   0  0  0  0  0  0  0  0  0  0  0  0
   -0.6155    0.4373    1.1258 C   0  0  0  0  0  0  0  0  0  0  0  0
    0.6749   -0.3197    0.7365 C   0  0  0  0  0  0  0  0  0  0  0  0
    2.3578   -1.0398   -2.1002 H   0  0  0  0  0  0  0  0  0  0  0  0
    1.9740   -2.1496   -0.7667 H   0  0  0  0  0  0  0  0  0  0  0  0
    3.0090   -0.7303   -0.4967 H   0  0  0  0  0  0  0  0  0  0  0  0
   -0.3880   -1.8114   -1.2805 H   0  0  0  0  0  0  0  0  0  0  0  0
   -0.0426   -0.6277   -2.5501 H   0  0  0  0  0  0  0  0  0  0  0  0
   -2.3459   -0.4317   -1.6779 H   0  0  0  0  0  0  0  0  0  0  0  0
   -1.4421    1.0740   -1.4055 H   0  0  0  0  0  0  0  0  0  0  0  0
   -2.4038   -1.1462    2.6456 H   0  0  0  0  0  0  0  0  0  0  0  0
   -4.6255   -1.1854    3.7207 H   0  0  0  0  0  0  0  0  0  0  0  0
   -7.3228   -0.2287    3.2123 H   0  0  0  0  0  0  0  0  0  0  0  0
   -8.0129    0.6732   -1.0510 H   0  0  0  0  0  0  0  0  0  0  0  0
   -9.2765    1.4712   -1.7697 H   0  0  0  0  0  0  0  0  0  0  0  0
  -11.3510    1.3127   -1.9007 H   0  0  0  0  0  0  0  0  0  0  0  0
  -12.7624    0.7728   -3.2545 H   0  0  0  0  0  0  0  0  0  0  0  0
  -13.5160    2.0833   -4.1601 H   0  0  0  0  0  0  0  0  0  0  0  0
  -14.5065    0.7959   -3.4493 H   0  0  0  0  0  0  0  0  0  0  0  0
  -15.0969    3.7920   -1.2879 H   0  0  0  0  0  0  0  0  0  0  0  0
  -15.9310    2.4560   -2.1229 H   0  0  0  0  0  0  0  0  0  0  0  0
  -15.0352    3.6890   -3.0312 H   0  0  0  0  0  0  0  0  0  0  0  0
  -14.6745    2.6573    0.4660 H   0  0  0  0  0  0  0  0  0  0  0  0
  -13.3632    2.3635    2.4824 H   0  0  0  0  0  0  0  0  0  0  0  0
  -11.2854    1.6908    3.5212 H   0  0  0  0  0  0  0  0  0  0  0  0
   -4.0139    0.9793   -0.7505 H   0  0  0  0  0  0  0  0  0  0  0  0
   -0.7673    0.3330    2.2056 H   0  0  0  0  0  0  0  0  0  0  0  0
   -0.4985    1.5102    0.9222 H   0  0  0  0  0  0  0  0  0  0  0  0
    0.5731   -1.3635    1.0644 H   0  0  0  0  0  0  0  0  0  0  0  0
    1.5137    0.1190    1.2895 H   0  0  0  0  0  0  0  0  0  0  0  0
  1  2  1  0  0  0  0
  1 32  1  0  0  0  0
  1 33  1  0  0  0  0
  1 34  1  0  0  0  0
  2  3  1  0  0  0  0
  2 31  1  0  0  0  0
  3  4  1  0  0  0  0
  3 35  1  0  0  0  0
  3 36  1  0  0  0  0
  4  5  1  0  0  0  0
  4 37  1  0  0  0  0
  4 38  1  0  0  0  0
  5  6  1  0  0  0  0
  5 30  1  0  0  0  0
  6  7  1  0  0  0  0
  6 29  2  0  0  0  0
  7  8  2  0  0  0  0
  7 39  1  0  0  0  0
  8  9  1  0  0  0  0
  8 40  1  0  0  0  0
  9 10  1  0  0  0  0
  9 28  2  0  0  0  0
 10 11  1  0  0  0  0
 10 41  1  0  0  0  0
 11 12  1  0  0  0  0
 11 27  2  0  0  0  0
 12 13  2  0  0  0  0
 12 25  1  0  0  0  0
 13 14  1  0  0  0  0
 13 15  1  0  0  0  0
 14 42  1  0  0  0  0
 14 43  1  0  0  0  0
 15 16  1  0  0  0  0
 15 23  2  0  0  0  0
 16 17  2  0  0  0  0
 16 44  1  0  0  0  0
 17 18  1  0  0  0  0
 17 21  1  0  0  0  0
 18 19  1  0  0  0  0
 18 20  1  0  0  0  0
 19 45  1  0  0  0  0
 19 46  1  0  0  0  0
 19 47  1  0  0  0  0
 20 48  1  0  0  0  0
 20 49  1  0  0  0  0
 20 50  1  0  0  0  0
 21 22  2  0  0  0  0
 21 51  1  0  0  0  0
 22 23  1  0  0  0  0
 22 52  1  0  0  0  0
 23 24  1  0  0  0  0
 24 25  1  0  0  0  0
 24 53  1  0  0  0  0
 25 26  2  0  0  0  0
 27 28  1  0  0  0  0
 28 29  1  0  0  0  0
 29 54  1  0  0  0  0
 30 31  1  0  0  0  0
 30 55  1  0  0  0  0
 30 56  1  0  0  0  0
 31 57  1  0  0  0  0
 31 58  1  0  0  0  0
M  END
$$$$
