CHEMBL410840
 OpenBabel04072215383D

 52 55  0  0  0  0  0  0  0  0999 V2000
    4.4492   -1.3537   -0.0438 C   0  0  0  0  0  0  0  0  0  0  0  0
    4.0418   -0.1534    0.6161 O   0  0  0  0  0  0  0  0  0  0  0  0
    4.2818    0.9770   -0.1227 C   0  0  0  0  0  0  0  0  0  0  0  0
    5.4434    1.1207   -0.8922 C   0  0  0  0  0  0  0  0  0  0  0  0
    5.6600    2.2156   -1.7169 C   0  0  0  0  0  0  0  0  0  0  0  0
    6.8050    2.2278   -2.4150 N   0  0  0  0  0  0  0  0  0  0  0  0
    7.0567    3.2710   -3.2260 C   0  0  0  0  0  0  0  0  0  0  0  0
    6.2148    4.3497   -3.3521 C   0  0  0  0  0  0  0  0  0  0  0  0
    5.0337    4.3570   -2.6106 C   0  0  0  0  0  0  0  0  0  0  0  0
    4.3075    5.5240   -2.7984 O   0  0  0  0  0  0  0  0  0  0  0  0
    3.5442    6.0410   -1.7824 C   0  0  0  0  0  0  0  0  0  0  0  0
    3.8744    5.9441   -0.4399 C   0  0  0  0  0  0  0  0  0  0  0  0
    2.8740    6.1385    0.5108 C   0  0  0  0  0  0  0  0  0  0  0  0
    1.5833    6.6294    0.1782 C   0  0  0  0  0  0  0  0  0  0  0  0
    0.4908    6.8081    1.0830 C   0  0  0  0  0  0  0  0  0  0  0  0
    0.5013    6.3928    2.5206 C   0  0  0  0  0  0  0  0  0  0  0  0
   -0.5236    5.9857    3.0577 O   0  0  0  0  0  0  0  0  0  0  0  0
    1.6834    6.5188    3.2099 N   0  0  0  0  0  0  0  0  0  0  0  0
    1.7770    6.1674    4.6253 C   0  0  0  0  0  0  0  0  0  0  0  0
    1.5940    7.3462    5.5834 C   0  0  0  0  0  0  0  0  0  0  0  0
    1.3796    8.5071    4.9205 F   0  0  0  0  0  0  0  0  0  0  0  0
    0.5711    7.1524    6.4407 F   0  0  0  0  0  0  0  0  0  0  0  0
    2.7167    7.5205    6.3237 F   0  0  0  0  0  0  0  0  0  0  0  0
   -0.7354    7.3242    0.6263 C   0  0  0  0  0  0  0  0  0  0  0  0
   -0.9079    7.6728   -0.7076 C   0  0  0  0  0  0  0  0  0  0  0  0
    0.1292    7.4647   -1.6096 C   0  0  0  0  0  0  0  0  0  0  0  0
    1.3609    6.9311   -1.1889 C   0  0  0  0  0  0  0  0  0  0  0  0
    2.3306    6.6180   -2.1517 C   0  0  0  0  0  0  0  0  0  0  0  0
    4.6900    3.2329   -1.7960 C   0  0  0  0  0  0  0  0  0  0  0  0
    3.4969    3.0411   -1.0407 C   0  0  0  0  0  0  0  0  0  0  0  0
    3.3328    1.9917   -0.1315 C   0  0  0  0  0  0  0  0  0  0  0  0
    2.1971    2.0719    0.6267 O   0  0  0  0  0  0  0  0  0  0  0  0
    2.2955    1.5904    1.9665 C   0  0  0  0  0  0  0  0  0  0  0  0
    3.8634   -2.1832    0.3603 H   0  0  0  0  0  0  0  0  0  0  0  0
    5.5064   -1.5513    0.1593 H   0  0  0  0  0  0  0  0  0  0  0  0
    4.2655   -1.3152   -1.1251 H   0  0  0  0  0  0  0  0  0  0  0  0
    6.2207    0.3612   -0.8620 H   0  0  0  0  0  0  0  0  0  0  0  0
    7.9872    3.2113   -3.7825 H   0  0  0  0  0  0  0  0  0  0  0  0
    6.4718    5.1739   -4.0069 H   0  0  0  0  0  0  0  0  0  0  0  0
    4.8367    5.5507   -0.1246 H   0  0  0  0  0  0  0  0  0  0  0  0
    3.1221    5.8044    1.5123 H   0  0  0  0  0  0  0  0  0  0  0  0
    2.3830    7.1485    2.8361 H   0  0  0  0  0  0  0  0  0  0  0  0
    2.7720    5.7302    4.7616 H   0  0  0  0  0  0  0  0  0  0  0  0
    1.0480    5.3820    4.8548 H   0  0  0  0  0  0  0  0  0  0  0  0
   -1.5687    7.4466    1.3170 H   0  0  0  0  0  0  0  0  0  0  0  0
   -1.8588    8.0729   -1.0488 H   0  0  0  0  0  0  0  0  0  0  0  0
   -0.0395    7.7046   -2.6596 H   0  0  0  0  0  0  0  0  0  0  0  0
    2.1206    6.7503   -3.2127 H   0  0  0  0  0  0  0  0  0  0  0  0
    2.6717    3.7417   -1.1221 H   0  0  0  0  0  0  0  0  0  0  0  0
    1.6411    2.2068    2.5942 H   0  0  0  0  0  0  0  0  0  0  0  0
    3.3049    1.6658    2.3878 H   0  0  0  0  0  0  0  0  0  0  0  0
    1.9270    0.5620    2.0152 H   0  0  0  0  0  0  0  0  0  0  0  0
  1  2  1  0  0  0  0
  1 34  1  0  0  0  0
  1 35  1  0  0  0  0
  1 36  1  0  0  0  0
  2  3  1  0  0  0  0
  3  4  1  0  0  0  0
  3 31  2  0  0  0  0
  4  5  2  0  0  0  0
  4 37  1  0  0  0  0
  5  6  1  0  0  0  0
  5 29  1  0  0  0  0
  6  7  2  0  0  0  0
  7  8  1  0  0  0  0
  7 38  1  0  0  0  0
  8  9  2  0  0  0  0
  8 39  1  0  0  0  0
  9 10  1  0  0  0  0
  9 29  1  0  0  0  0
 10 11  1  0  0  0  0
 11 12  1  0  0  0  0
 11 28  2  0  0  0  0
 12 13  2  0  0  0  0
 12 40  1  0  0  0  0
 13 14  1  0  0  0  0
 13 41  1  0  0  0  0
 14 15  1  0  0  0  0
 14 27  2  0  0  0  0
 15 16  1  0  0  0  0
 15 24  2  0  0  0  0
 16 17  2  0  0  0  0
 16 18  1  0  0  0  0
 18 19  1  0  0  0  0
 18 42  1  0  0  0  0
 19 20  1  0  0  0  0
 19 43  1  0  0  0  0
 19 44  1  0  0  0  0
 20 21  1  0  0  0  0
 20 22  1  0  0  0  0
 20 23  1  0  0  0  0
 24 25  1  0  0  0  0
 24 45  1  0  0  0  0
 25 26  2  0  0  0  0
 25 46  1  0  0  0  0
 26 27  1  0  0  0  0
 26 47  1  0  0  0  0
 27 28  1  0  0  0  0
 28 48  1  0  0  0  0
 29 30  2  0  0  0  0
 30 31  1  0  0  0  0
 30 49  1  0  0  0  0
 31 32  1  0  0  0  0
 32 33  1  0  0  0  0
 33 50  1  0  0  0  0
 33 51  1  0  0  0  0
 33 52  1  0  0  0  0
M  END
$$$$
