CHEMBL4584717
 OpenBabel04072215383D

 41 43  0  0  0  0  0  0  0  0999 V2000
    1.2279    0.4398    0.2508 O   0  0  0  0  0  0  0  0  0  0  0  0
    2.3872    0.0899    0.0460 C   0  0  0  0  0  0  0  0  0  0  0  0
    2.9787   -0.0597   -1.2056 N   0  0  0  0  0  0  0  0  0  0  0  0
    2.3175    0.2350   -2.4235 C   0  0  0  0  0  0  0  0  0  0  0  0
    1.2177    1.1043   -2.4607 C   0  0  0  0  0  0  0  0  0  0  0  0
    0.5319    1.3592   -3.6421 C   0  0  0  0  0  0  0  0  0  0  0  0
    0.9633    0.7682   -4.8174 C   0  0  0  0  0  0  0  0  0  0  0  0
    2.0749   -0.0830   -4.8146 C   0  0  0  0  0  0  0  0  0  0  0  0
    2.4960   -0.5250   -6.0774 N   0  0  0  0  0  0  0  0  0  0  0  0
    3.3216   -1.5564   -6.4628 C   0  0  0  0  0  0  0  0  0  0  0  0
    3.3316   -3.0981   -5.8328 S   0  0  0  0  0  0  0  0  0  0  0  0
    4.0471   -1.2557   -7.6039 N   0  0  0  0  0  0  0  0  0  0  0  0
    4.5832    0.0214   -7.8828 C   0  0  0  0  0  0  0  0  0  0  0  0
    4.8956    0.9078   -6.8419 C   0  0  0  0  0  0  0  0  0  0  0  0
    5.2990    2.2116   -7.1092 C   0  0  0  0  0  0  0  0  0  0  0  0
    5.4208    2.6309   -8.4278 C   0  0  0  0  0  0  0  0  0  0  0  0
    5.1919    1.7291   -9.4707 C   0  0  0  0  0  0  0  0  0  0  0  0
    4.7941    0.4145   -9.2011 C   0  0  0  0  0  0  0  0  0  0  0  0
    2.7660   -0.3391   -3.6210 C   0  0  0  0  0  0  0  0  0  0  0  0
    3.2221   -0.2454    1.2351 C   0  0  0  0  0  0  0  0  0  0  0  0
    2.6052   -0.1936    2.4855 C   0  0  0  0  0  0  0  0  0  0  0  0
    3.3613   -0.4616    3.6153 C   0  0  0  0  0  0  0  0  0  0  0  0
    4.7062   -0.7662    3.4591 C   0  0  0  0  0  0  0  0  0  0  0  0
    5.2381   -0.7987    2.1726 C   0  0  0  0  0  0  0  0  0  0  0  0
    4.5274   -0.5558    1.0445 N   0  0  0  0  0  0  0  0  0  0  0  0
    3.8769   -0.5342   -1.2263 H   0  0  0  0  0  0  0  0  0  0  0  0
    0.8749    1.6243   -1.5718 H   0  0  0  0  0  0  0  0  0  0  0  0
   -0.3320    2.0170   -3.6348 H   0  0  0  0  0  0  0  0  0  0  0  0
    0.4162    0.9719   -5.7341 H   0  0  0  0  0  0  0  0  0  0  0  0
    2.1542    0.0185   -6.8607 H   0  0  0  0  0  0  0  0  0  0  0  0
    4.2084   -2.0114   -8.2598 H   0  0  0  0  0  0  0  0  0  0  0  0
    4.8365    0.5899   -5.8038 H   0  0  0  0  0  0  0  0  0  0  0  0
    5.5041    2.8905   -6.2858 H   0  0  0  0  0  0  0  0  0  0  0  0
    5.7015    3.6587   -8.6409 H   0  0  0  0  0  0  0  0  0  0  0  0
    5.3049    2.0619  -10.4990 H   0  0  0  0  0  0  0  0  0  0  0  0
    4.5945   -0.2610  -10.0274 H   0  0  0  0  0  0  0  0  0  0  0  0
    3.6557   -0.9599   -3.6259 H   0  0  0  0  0  0  0  0  0  0  0  0
    1.5518    0.0574    2.5759 H   0  0  0  0  0  0  0  0  0  0  0  0
    2.9026   -0.4218    4.5997 H   0  0  0  0  0  0  0  0  0  0  0  0
    5.3274   -0.9691    4.3259 H   0  0  0  0  0  0  0  0  0  0  0  0
    6.2894   -1.0302    2.0278 H   0  0  0  0  0  0  0  0  0  0  0  0
  1  2  2  0  0  0  0
  2  3  1  0  0  0  0
  2 20  1  0  0  0  0
  3  4  1  0  0  0  0
  3 26  1  0  0  0  0
  4  5  1  0  0  0  0
  4 19  2  0  0  0  0
  5  6  2  0  0  0  0
  5 27  1  0  0  0  0
  6  7  1  0  0  0  0
  6 28  1  0  0  0  0
  7  8  2  0  0  0  0
  7 29  1  0  0  0  0
  8  9  1  0  0  0  0
  8 19  1  0  0  0  0
  9 10  1  0  0  0  0
  9 30  1  0  0  0  0
 10 11  2  0  0  0  0
 10 12  1  0  0  0  0
 12 13  1  0  0  0  0
 12 31  1  0  0  0  0
 13 14  1  0  0  0  0
 13 18  2  0  0  0  0
 14 15  2  0  0  0  0
 14 32  1  0  0  0  0
 15 16  1  0  0  0  0
 15 33  1  0  0  0  0
 16 17  2  0  0  0  0
 16 34  1  0  0  0  0
 17 18  1  0  0  0  0
 17 35  1  0  0  0  0
 18 36  1  0  0  0  0
 19 37  1  0  0  0  0
 20 21  1  0  0  0  0
 20 25  2  0  0  0  0
 21 22  2  0  0  0  0
 21 38  1  0  0  0  0
 22 23  1  0  0  0  0
 22 39  1  0  0  0  0
 23 24  2  0  0  0  0
 23 40  1  0  0  0  0
 24 25  1  0  0  0  0
 24 41  1  0  0  0  0
M  END
$$$$
