CHEMBL3633280
 OpenBabel04072215373D

 73 75  0  0  0  0  0  0  0  0999 V2000
    0.9693   -0.5752   -0.4233 C   0  0  0  0  0  0  0  0  0  0  0  0
    2.2302   -0.0565   -0.0015 O   0  0  0  0  0  0  0  0  0  0  0  0
    3.0161   -0.9236    0.7221 C   0  0  0  0  0  0  0  0  0  0  0  0
    2.7239   -2.2993    0.8638 C   0  0  0  0  0  0  0  0  0  0  0  0
    3.5740   -3.1481    1.5683 C   0  0  0  0  0  0  0  0  0  0  0  0
    4.7330   -2.6402    2.1333 C   0  0  0  0  0  0  0  0  0  0  0  0
    5.6077   -3.5488    2.9157 C   0  0  0  0  0  0  0  0  0  0  0  0
    5.3664   -4.7176    3.1271 O   0  0  0  0  0  0  0  0  0  0  0  0
    6.6456   -2.8444    3.4177 O   0  0  0  0  0  0  0  0  0  0  0  0
    6.8759   -3.0524    4.8078 C   0  0  0  0  0  0  0  0  0  0  0  0
    6.0680   -2.0041    5.6175 C   0  0  0  0  0  0  0  0  0  0  0  0
    4.5628   -1.9972    5.5536 N   0  0  0  0  0  0  0  0  0  0  0  0
    4.0025   -3.3189    5.9807 C   0  0  0  0  0  0  0  0  0  0  0  0
    4.3656   -3.7484    7.4079 C   0  0  0  0  0  0  0  0  0  0  0  0
    2.5131   -3.5940    5.6935 C   0  0  0  0  0  0  0  0  0  0  0  0
    4.0470   -0.7802    6.2730 C   0  0  0  0  0  0  0  0  0  0  0  0
    4.5808    0.5464    5.6797 C   0  0  0  0  0  0  0  0  0  0  0  0
    2.5208   -0.5995    6.3014 C   0  0  0  0  0  0  0  0  0  0  0  0
    5.0011   -1.2685    2.0339 C   0  0  0  0  0  0  0  0  0  0  0  0
    4.1787   -0.3932    1.3194 C   0  0  0  0  0  0  0  0  0  0  0  0
    4.4807    1.0040    1.2307 N   0  0  0  0  0  0  0  0  0  0  0  0
    5.7214    1.5524    1.5380 C   0  0  0  0  0  0  0  0  0  0  0  0
    6.7028    0.8669    1.8146 O   0  0  0  0  0  0  0  0  0  0  0  0
    5.7607    2.9412    1.5313 N   0  0  0  0  0  0  0  0  0  0  0  0
    6.9540    3.6906    1.7855 C   0  0  0  0  0  0  0  0  0  0  0  0
    8.2323    3.1206    1.6644 C   0  0  0  0  0  0  0  0  0  0  0  0
    9.4225    3.7830    2.0214 C   0  0  0  0  0  0  0  0  0  0  0  0
   10.7315    3.0907    1.9275 C   0  0  0  0  0  0  0  0  0  0  0  0
   10.8581    1.7001    2.0858 C   0  0  0  0  0  0  0  0  0  0  0  0
   12.0931    1.0684    1.9387 C   0  0  0  0  0  0  0  0  0  0  0  0
   13.1967    1.8490    1.6550 C   0  0  0  0  0  0  0  0  0  0  0  0
   13.1439    3.1880    1.5151 N   0  0  0  0  0  0  0  0  0  0  0  0
   11.9226    3.7666    1.6482 C   0  0  0  0  0  0  0  0  0  0  0  0
    9.2967    5.1091    2.4453 C   0  0  0  0  0  0  0  0  0  0  0  0
    8.0449    5.7540    2.4879 C   0  0  0  0  0  0  0  0  0  0  0  0
    7.9710    7.2146    2.8684 C   0  0  0  0  0  0  0  0  0  0  0  0
    9.1853    7.7685    3.1468 F   0  0  0  0  0  0  0  0  0  0  0  0
    7.4357    7.9799    1.8784 F   0  0  0  0  0  0  0  0  0  0  0  0
    7.2017    7.4320    3.9698 F   0  0  0  0  0  0  0  0  0  0  0  0
    6.8738    5.0306    2.1678 C   0  0  0  0  0  0  0  0  0  0  0  0
    0.4431    0.2083   -0.9743 H   0  0  0  0  0  0  0  0  0  0  0  0
    0.3581   -0.8465    0.4449 H   0  0  0  0  0  0  0  0  0  0  0  0
    1.0846   -1.4274   -1.1036 H   0  0  0  0  0  0  0  0  0  0  0  0
    1.8336   -2.7509    0.4403 H   0  0  0  0  0  0  0  0  0  0  0  0
    3.3206   -4.2007    1.6906 H   0  0  0  0  0  0  0  0  0  0  0  0
    7.9429   -2.8598    4.9726 H   0  0  0  0  0  0  0  0  0  0  0  0
    6.6897   -4.0823    5.1202 H   0  0  0  0  0  0  0  0  0  0  0  0
    6.4260   -1.0539    5.2125 H   0  0  0  0  0  0  0  0  0  0  0  0
    6.3940   -2.0507    6.6630 H   0  0  0  0  0  0  0  0  0  0  0  0
    4.4779   -4.0709    5.3432 H   0  0  0  0  0  0  0  0  0  0  0  0
    4.2031   -2.9487    8.1371 H   0  0  0  0  0  0  0  0  0  0  0  0
    5.4159   -4.0568    7.4587 H   0  0  0  0  0  0  0  0  0  0  0  0
    3.7745   -4.6116    7.7247 H   0  0  0  0  0  0  0  0  0  0  0  0
    1.8159   -2.8731    6.1060 H   0  0  0  0  0  0  0  0  0  0  0  0
    2.2063   -4.5498    6.1365 H   0  0  0  0  0  0  0  0  0  0  0  0
    2.3231   -3.6620    4.6178 H   0  0  0  0  0  0  0  0  0  0  0  0
    4.3855   -0.8202    7.3157 H   0  0  0  0  0  0  0  0  0  0  0  0
    4.3472    0.6276    4.6129 H   0  0  0  0  0  0  0  0  0  0  0  0
    5.6558    0.6778    5.8222 H   0  0  0  0  0  0  0  0  0  0  0  0
    4.1221    1.4067    6.1835 H   0  0  0  0  0  0  0  0  0  0  0  0
    2.0694   -0.8238    5.3286 H   0  0  0  0  0  0  0  0  0  0  0  0
    2.2337    0.4303    6.5449 H   0  0  0  0  0  0  0  0  0  0  0  0
    2.0697   -1.2074    7.0896 H   0  0  0  0  0  0  0  0  0  0  0  0
    5.8608   -0.8941    2.5769 H   0  0  0  0  0  0  0  0  0  0  0  0
    3.8127    1.5619    0.7073 H   0  0  0  0  0  0  0  0  0  0  0  0
    4.8789    3.4231    1.6232 H   0  0  0  0  0  0  0  0  0  0  0  0
    8.3310    2.1208    1.2557 H   0  0  0  0  0  0  0  0  0  0  0  0
    9.9929    1.0818    2.3231 H   0  0  0  0  0  0  0  0  0  0  0  0
   12.1833   -0.0073    2.0384 H   0  0  0  0  0  0  0  0  0  0  0  0
   14.1797    1.4054    1.5269 H   0  0  0  0  0  0  0  0  0  0  0  0
   11.9405    4.8421    1.4961 H   0  0  0  0  0  0  0  0  0  0  0  0
   10.1826    5.6686    2.7476 H   0  0  0  0  0  0  0  0  0  0  0  0
    5.9094    5.5300    2.2384 H   0  0  0  0  0  0  0  0  0  0  0  0
  1  2  1  0  0  0  0
  1 41  1  0  0  0  0
  1 42  1  0  0  0  0
  1 43  1  0  0  0  0
  2  3  1  0  0  0  0
  3  4  1  0  0  0  0
  3 20  2  0  0  0  0
  4  5  2  0  0  0  0
  4 44  1  0  0  0  0
  5  6  1  0  0  0  0
  5 45  1  0  0  0  0
  6  7  1  0  0  0  0
  6 19  2  0  0  0  0
  7  8  2  0  0  0  0
  7  9  1  0  0  0  0
  9 10  1  0  0  0  0
 10 11  1  0  0  0  0
 10 46  1  0  0  0  0
 10 47  1  0  0  0  0
 11 12  1  0  0  0  0
 11 48  1  0  0  0  0
 11 49  1  0  0  0  0
 12 13  1  0  0  0  0
 12 16  1  0  0  0  0
 13 14  1  0  0  0  0
 13 15  1  0  0  0  0
 13 50  1  0  0  0  0
 14 51  1  0  0  0  0
 14 52  1  0  0  0  0
 14 53  1  0  0  0  0
 15 54  1  0  0  0  0
 15 55  1  0  0  0  0
 15 56  1  0  0  0  0
 16 17  1  0  0  0  0
 16 18  1  0  0  0  0
 16 57  1  0  0  0  0
 17 58  1  0  0  0  0
 17 59  1  0  0  0  0
 17 60  1  0  0  0  0
 18 61  1  0  0  0  0
 18 62  1  0  0  0  0
 18 63  1  0  0  0  0
 19 20  1  0  0  0  0
 19 64  1  0  0  0  0
 20 21  1  0  0  0  0
 21 22  1  0  0  0  0
 21 65  1  0  0  0  0
 22 23  2  0  0  0  0
 22 24  1  0  0  0  0
 24 25  1  0  0  0  0
 24 66  1  0  0  0  0
 25 26  1  0  0  0  0
 25 40  2  0  0  0  0
 26 27  2  0  0  0  0
 26 67  1  0  0  0  0
 27 28  1  0  0  0  0
 27 34  1  0  0  0  0
 28 29  1  0  0  0  0
 28 33  2  0  0  0  0
 29 30  2  0  0  0  0
 29 68  1  0  0  0  0
 30 31  1  0  0  0  0
 30 69  1  0  0  0  0
 31 32  2  0  0  0  0
 31 70  1  0  0  0  0
 32 33  1  0  0  0  0
 33 71  1  0  0  0  0
 34 35  2  0  0  0  0
 34 72  1  0  0  0  0
 35 36  1  0  0  0  0
 35 40  1  0  0  0  0
 36 37  1  0  0  0  0
 36 38  1  0  0  0  0
 36 39  1  0  0  0  0
 40 73  1  0  0  0  0
M  END
$$$$
