CHEMBL3690584
 OpenBabel04072215373D

 45 48  0  0  0  0  0  0  0  0999 V2000
    1.0790    0.2312    0.0398 C   0  0  0  0  0  0  0  0  0  0  0  0
    2.5496   -0.0748   -0.1171 C   0  0  0  0  0  0  0  0  0  0  0  0
    3.1939    0.7242   -1.1447 N   0  0  0  0  0  0  0  0  0  0  0  0
    4.5569    0.5388   -1.3063 C   0  0  0  0  0  0  0  0  0  0  0  0
    5.1898   -0.2387   -0.6067 O   0  0  0  0  0  0  0  0  0  0  0  0
    5.0725    1.3511   -2.2929 N   0  0  0  0  0  0  0  0  0  0  0  0
    6.4196    1.3505   -2.7183 C   0  0  0  0  0  0  0  0  0  0  0  0
    7.2876    0.2810   -2.4941 C   0  0  0  0  0  0  0  0  0  0  0  0
    8.6151    0.3430   -2.9155 C   0  0  0  0  0  0  0  0  0  0  0  0
    9.0725    1.4521   -3.6232 C   0  0  0  0  0  0  0  0  0  0  0  0
    8.2085    2.5135   -3.9199 C   0  0  0  0  0  0  0  0  0  0  0  0
    8.6879    3.6160   -4.7633 C   0  0  0  0  0  0  0  0  0  0  0  0
    9.9506    4.1851   -4.8485 C   0  0  0  0  0  0  0  0  0  0  0  0
   10.0219    5.1487   -5.8191 N   0  0  0  0  0  0  0  0  0  0  0  0
    8.8259    5.1808   -6.3605 C   0  0  0  0  0  0  0  0  0  0  0  0
    8.3119    5.9732   -7.4308 C   0  0  0  0  0  0  0  0  0  0  0  0
    7.0173    5.8672   -7.8215 C   0  0  0  0  0  0  0  0  0  0  0  0
    6.5765    6.7079   -8.8996 C   0  0  0  0  0  0  0  0  0  0  0  0
    7.2902    7.1285   -9.9290 N   0  0  0  0  0  0  0  0  0  0  0  0
    6.5700    7.8970  -10.8192 N   0  0  0  0  0  0  0  0  0  0  0  0
    5.3222    8.0744  -10.4344 C   0  0  0  0  0  0  0  0  0  0  0  0
    4.2739    8.8561  -11.1488 C   0  0  0  0  0  0  0  0  0  0  0  0
    4.7134    9.4005  -12.3127 F   0  0  0  0  0  0  0  0  0  0  0  0
    3.1932    8.0897  -11.4650 F   0  0  0  0  0  0  0  0  0  0  0  0
    3.8034    9.8858  -10.3926 F   0  0  0  0  0  0  0  0  0  0  0  0
    4.9451    7.2993   -8.9491 S   0  0  0  0  0  0  0  0  0  0  0  0
    6.1573    4.8780   -7.1577 C   0  0  0  0  0  0  0  0  0  0  0  0
    6.6477    4.1012   -6.1822 C   0  0  0  0  0  0  0  0  0  0  0  0
    7.9665    4.2636   -5.7593 N   0  0  0  0  0  0  0  0  0  0  0  0
    6.8959    2.4682   -3.4154 C   0  0  0  0  0  0  0  0  0  0  0  0
    0.6679   -0.3379    0.8806 H   0  0  0  0  0  0  0  0  0  0  0  0
    0.5240   -0.0468   -0.8620 H   0  0  0  0  0  0  0  0  0  0  0  0
    0.9103    1.2955    0.2293 H   0  0  0  0  0  0  0  0  0  0  0  0
    2.6944   -1.1331   -0.3644 H   0  0  0  0  0  0  0  0  0  0  0  0
    3.0724    0.1184    0.8309 H   0  0  0  0  0  0  0  0  0  0  0  0
    2.6844    0.8564   -2.0051 H   0  0  0  0  0  0  0  0  0  0  0  0
    4.5042    2.1500   -2.5330 H   0  0  0  0  0  0  0  0  0  0  0  0
    6.9577   -0.6233   -1.9911 H   0  0  0  0  0  0  0  0  0  0  0  0
    9.2865   -0.4849   -2.7026 H   0  0  0  0  0  0  0  0  0  0  0  0
   10.1071    1.4620   -3.9592 H   0  0  0  0  0  0  0  0  0  0  0  0
   10.8234    3.9382   -4.2558 H   0  0  0  0  0  0  0  0  0  0  0  0
    9.0049    6.6625   -7.9067 H   0  0  0  0  0  0  0  0  0  0  0  0
    5.1317    4.7507   -7.4883 H   0  0  0  0  0  0  0  0  0  0  0  0
    6.0425    3.3373   -5.7191 H   0  0  0  0  0  0  0  0  0  0  0  0
    6.2378    3.3215   -3.5493 H   0  0  0  0  0  0  0  0  0  0  0  0
  1  2  1  0  0  0  0
  1 31  1  0  0  0  0
  1 32  1  0  0  0  0
  1 33  1  0  0  0  0
  2  3  1  0  0  0  0
  2 34  1  0  0  0  0
  2 35  1  0  0  0  0
  3  4  1  0  0  0  0
  3 36  1  0  0  0  0
  4  5  2  0  0  0  0
  4  6  1  0  0  0  0
  6  7  1  0  0  0  0
  6 37  1  0  0  0  0
  7  8  1  0  0  0  0
  7 30  2  0  0  0  0
  8  9  2  0  0  0  0
  8 38  1  0  0  0  0
  9 10  1  0  0  0  0
  9 39  1  0  0  0  0
 10 11  2  0  0  0  0
 10 40  1  0  0  0  0
 11 12  1  0  0  0  0
 11 30  1  0  0  0  0
 12 13  2  0  0  0  0
 12 29  1  0  0  0  0
 13 14  1  0  0  0  0
 13 41  1  0  0  0  0
 14 15  2  0  0  0  0
 15 16  1  0  0  0  0
 15 29  1  0  0  0  0
 16 17  2  0  0  0  0
 16 42  1  0  0  0  0
 17 18  1  0  0  0  0
 17 27  1  0  0  0  0
 18 19  2  0  0  0  0
 18 26  1  0  0  0  0
 19 20  1  0  0  0  0
 20 21  2  0  0  0  0
 21 22  1  0  0  0  0
 21 26  1  0  0  0  0
 22 23  1  0  0  0  0
 22 24  1  0  0  0  0
 22 25  1  0  0  0  0
 27 28  2  0  0  0  0
 27 43  1  0  0  0  0
 28 29  1  0  0  0  0
 28 44  1  0  0  0  0
 30 45  1  0  0  0  0
M  END
$$$$
