CHEMBL2364611
 OpenBabel04072215363D

 47 51  0  0  0  0  0  0  0  0999 V2000
   -1.9419   -2.1764    0.7813 C   0  0  0  0  0  0  0  0  0  0  0  0
   -1.1862   -1.0391    0.1645 C   0  0  0  0  0  0  0  0  0  0  0  0
    0.0340   -1.2459   -0.4679 C   0  0  0  0  0  0  0  0  0  0  0  0
    0.7067   -0.1497   -0.9968 C   0  0  0  0  0  0  0  0  0  0  0  0
    0.1445    1.1186   -0.8790 C   0  0  0  0  0  0  0  0  0  0  0  0
   -1.0827    1.2521   -0.2353 C   0  0  0  0  0  0  0  0  0  0  0  0
   -1.6984    2.5796   -0.0542 C   0  0  0  0  0  0  0  0  0  0  0  0
   -1.4904    3.5588   -0.9710 N   0  0  0  0  0  0  0  0  0  0  0  0
   -2.2015    4.5646   -0.4941 N   0  0  0  0  0  0  0  0  0  0  0  0
   -2.7861    4.3724    0.7110 C   0  0  0  0  0  0  0  0  0  0  0  0
   -2.5515    3.0510    1.0404 C   0  0  0  0  0  0  0  0  0  0  0  0
   -3.0002    2.3750    2.2712 C   0  0  0  0  0  0  0  0  0  0  0  0
   -2.0948    1.5455    2.9403 C   0  0  0  0  0  0  0  0  0  0  0  0
   -2.4866    0.9267    4.1096 C   0  0  0  0  0  0  0  0  0  0  0  0
   -3.6727    1.1399    4.7079 N   0  0  0  0  0  0  0  0  0  0  0  0
   -4.5418    1.9613    4.0986 C   0  0  0  0  0  0  0  0  0  0  0  0
   -5.7299    2.2489    4.7585 C   0  0  0  0  0  0  0  0  0  0  0  0
   -6.6838    3.1244    4.2265 C   0  0  0  0  0  0  0  0  0  0  0  0
   -6.4878    3.6506    2.9562 C   0  0  0  0  0  0  0  0  0  0  0  0
   -7.3929    4.6653    2.3471 C   0  0  0  0  0  0  0  0  0  0  0  0
   -8.6986    4.6546    2.7467 N   0  0  0  0  0  0  0  0  0  0  0  0
   -6.9984    5.4694    1.5193 O   0  0  0  0  0  0  0  0  0  0  0  0
   -5.3406    3.2943    2.2482 C   0  0  0  0  0  0  0  0  0  0  0  0
   -4.2909    2.5522    2.8407 C   0  0  0  0  0  0  0  0  0  0  0  0
   -3.4419    5.6387    1.1269 C   0  0  0  0  0  0  0  0  0  0  0  0
   -3.5998    6.3726   -0.2291 C   0  0  0  0  0  0  0  0  0  0  0  0
   -2.4309    5.8696   -1.0872 C   0  0  0  0  0  0  0  0  0  0  0  0
   -1.7475    0.1874    0.2809 N   0  0  0  0  0  0  0  0  0  0  0  0
   -1.4348   -3.1337    0.6265 H   0  0  0  0  0  0  0  0  0  0  0  0
   -2.9408   -2.2419    0.3396 H   0  0  0  0  0  0  0  0  0  0  0  0
   -2.0409   -2.0132    1.8594 H   0  0  0  0  0  0  0  0  0  0  0  0
    0.4601   -2.2405   -0.5508 H   0  0  0  0  0  0  0  0  0  0  0  0
    1.6628   -0.2800   -1.4957 H   0  0  0  0  0  0  0  0  0  0  0  0
    0.6603    1.9880   -1.2749 H   0  0  0  0  0  0  0  0  0  0  0  0
   -1.0973    1.3572    2.5608 H   0  0  0  0  0  0  0  0  0  0  0  0
   -1.8267    0.2288    4.6184 H   0  0  0  0  0  0  0  0  0  0  0  0
   -5.8971    1.8134    5.7421 H   0  0  0  0  0  0  0  0  0  0  0  0
   -7.5469    3.3932    4.8269 H   0  0  0  0  0  0  0  0  0  0  0  0
   -9.1142    3.8778    3.2410 H   0  0  0  0  0  0  0  0  0  0  0  0
   -9.3197    5.2883    2.2571 H   0  0  0  0  0  0  0  0  0  0  0  0
   -5.2436    3.6434    1.2233 H   0  0  0  0  0  0  0  0  0  0  0  0
   -2.7875    6.2057    1.7970 H   0  0  0  0  0  0  0  0  0  0  0  0
   -4.4116    5.5496    1.6080 H   0  0  0  0  0  0  0  0  0  0  0  0
   -3.6247    7.4600   -0.1254 H   0  0  0  0  0  0  0  0  0  0  0  0
   -4.5468    6.0637   -0.6977 H   0  0  0  0  0  0  0  0  0  0  0  0
   -1.5256    6.4651   -0.9450 H   0  0  0  0  0  0  0  0  0  0  0  0
   -2.6868    5.7581   -2.1426 H   0  0  0  0  0  0  0  0  0  0  0  0
  1  2  1  0  0  0  0
  1 29  1  0  0  0  0
  1 30  1  0  0  0  0
  1 31  1  0  0  0  0
  2  3  1  0  0  0  0
  2 28  2  0  0  0  0
  3  4  2  0  0  0  0
  3 32  1  0  0  0  0
  4  5  1  0  0  0  0
  4 33  1  0  0  0  0
  5  6  2  0  0  0  0
  5 34  1  0  0  0  0
  6  7  1  0  0  0  0
  6 28  1  0  0  0  0
  7  8  2  0  0  0  0
  7 11  1  0  0  0  0
  8  9  1  0  0  0  0
  9 10  1  0  0  0  0
  9 27  1  0  0  0  0
 10 11  2  0  0  0  0
 10 25  1  0  0  0  0
 11 12  1  0  0  0  0
 12 13  1  0  0  0  0
 12 24  2  0  0  0  0
 13 14  2  0  0  0  0
 13 35  1  0  0  0  0
 14 15  1  0  0  0  0
 14 36  1  0  0  0  0
 15 16  2  0  0  0  0
 16 17  1  0  0  0  0
 16 24  1  0  0  0  0
 17 18  2  0  0  0  0
 17 37  1  0  0  0  0
 18 19  1  0  0  0  0
 18 38  1  0  0  0  0
 19 20  1  0  0  0  0
 19 23  2  0  0  0  0
 20 21  1  0  0  0  0
 20 22  2  0  0  0  0
 21 39  1  0  0  0  0
 21 40  1  0  0  0  0
 23 24  1  0  0  0  0
 23 41  1  0  0  0  0
 25 26  1  0  0  0  0
 25 42  1  0  0  0  0
 25 43  1  0  0  0  0
 26 27  1  0  0  0  0
 26 44  1  0  0  0  0
 26 45  1  0  0  0  0
 27 46  1  0  0  0  0
 27 47  1  0  0  0  0
M  END
$$$$
