CHEMBL4248225
 OpenBabel04072215383D

 61 65  0  0  0  0  0  0  0  0999 V2000
   -3.1234   -4.1022   -5.4907 O   0  0  0  0  0  0  0  0  0  0  0  0
   -3.4188   -3.2434   -4.4759 C   0  0  0  0  0  0  0  0  0  0  0  0
   -3.0704   -1.8993   -4.5381 C   0  0  0  0  0  0  0  0  0  0  0  0
   -3.3826   -1.0551   -3.4651 C   0  0  0  0  0  0  0  0  0  0  0  0
   -4.0355   -1.5385   -2.3163 C   0  0  0  0  0  0  0  0  0  0  0  0
   -4.3489   -0.6572   -1.1779 C   0  0  0  0  0  0  0  0  0  0  0  0
   -4.1523    0.6545   -1.2934 N   0  0  0  0  0  0  0  0  0  0  0  0
   -4.5074    1.4110   -0.2282 C   0  0  0  0  0  0  0  0  0  0  0  0
   -4.2660    3.0829   -0.6085 Cl  0  0  0  0  0  0  0  0  0  0  0  0
   -5.0666    0.9599    0.9650 C   0  0  0  0  0  0  0  0  0  0  0  0
   -5.3790    1.8078    2.1485 C   0  0  0  0  0  0  0  0  0  0  0  0
   -6.5282    1.6042    2.9374 C   0  0  0  0  0  0  0  0  0  0  0  0
   -6.7716    2.3495    4.0981 C   0  0  0  0  0  0  0  0  0  0  0  0
   -5.8972    3.3600    4.4770 C   0  0  0  0  0  0  0  0  0  0  0  0
   -4.7717    3.6128    3.7046 C   0  0  0  0  0  0  0  0  0  0  0  0
   -4.5059    2.8296    2.5748 C   0  0  0  0  0  0  0  0  0  0  0  0
   -5.2823   -0.4120    0.9119 C   0  0  0  0  0  0  0  0  0  0  0  0
   -5.9855   -1.0447    1.9331 O   0  0  0  0  0  0  0  0  0  0  0  0
   -6.8324   -2.0702    1.5466 C   0  0  0  0  0  0  0  0  0  0  0  0
   -6.9268   -3.1711    2.3985 C   0  0  0  0  0  0  0  0  0  0  0  0
   -7.6845   -4.2870    2.0159 C   0  0  0  0  0  0  0  0  0  0  0  0
   -8.3618   -4.2904    0.7947 C   0  0  0  0  0  0  0  0  0  0  0  0
   -9.0880   -5.3324    0.2878 O   0  0  0  0  0  0  0  0  0  0  0  0
   -9.6776   -6.1969    1.2587 C   0  0  0  0  0  0  0  0  0  0  0  0
  -10.9864   -6.7486    0.6708 C   0  0  0  0  0  0  0  0  0  0  0  0
  -11.7224   -7.6206    1.6042 N   0  0  0  0  0  0  0  0  0  0  0  0
  -12.9147   -8.1987    0.9619 C   0  0  0  0  0  0  0  0  0  0  0  0
  -14.0146   -7.1789    1.1865 C   0  0  0  0  0  0  0  0  0  0  0  0
  -13.7224   -6.6598    2.5789 C   0  0  0  0  0  0  0  0  0  0  0  0
  -12.2318   -6.8961    2.7833 C   0  0  0  0  0  0  0  0  0  0  0  0
   -8.3054   -3.1670   -0.0299 C   0  0  0  0  0  0  0  0  0  0  0  0
   -7.5785   -2.0455    0.3619 C   0  0  0  0  0  0  0  0  0  0  0  0
   -4.8829   -1.2193   -0.0971 N   0  0  0  0  0  0  0  0  0  0  0  0
   -4.3863   -2.9056   -2.2998 C   0  0  0  0  0  0  0  0  0  0  0  0
   -4.0804   -3.7515   -3.3699 C   0  0  0  0  0  0  0  0  0  0  0  0
   -2.6221   -3.6203   -6.1681 H   0  0  0  0  0  0  0  0  0  0  0  0
   -2.5614   -1.4883   -5.4021 H   0  0  0  0  0  0  0  0  0  0  0  0
   -3.1063   -0.0035   -3.5303 H   0  0  0  0  0  0  0  0  0  0  0  0
   -7.2627    0.8461    2.6754 H   0  0  0  0  0  0  0  0  0  0  0  0
   -7.6473    2.1333    4.7053 H   0  0  0  0  0  0  0  0  0  0  0  0
   -6.0896    3.9450    5.3723 H   0  0  0  0  0  0  0  0  0  0  0  0
   -4.0868    4.4096    3.9846 H   0  0  0  0  0  0  0  0  0  0  0  0
   -3.5810    3.0385    2.0403 H   0  0  0  0  0  0  0  0  0  0  0  0
   -6.3901   -3.1807    3.3428 H   0  0  0  0  0  0  0  0  0  0  0  0
   -7.7059   -5.1479    2.6765 H   0  0  0  0  0  0  0  0  0  0  0  0
   -9.8933   -5.6437    2.1767 H   0  0  0  0  0  0  0  0  0  0  0  0
   -8.9834   -7.0140    1.4847 H   0  0  0  0  0  0  0  0  0  0  0  0
  -10.7225   -7.3205   -0.2301 H   0  0  0  0  0  0  0  0  0  0  0  0
  -11.6062   -5.9136    0.3179 H   0  0  0  0  0  0  0  0  0  0  0  0
  -13.1666   -9.1351    1.4751 H   0  0  0  0  0  0  0  0  0  0  0  0
  -12.7719   -8.4401   -0.0970 H   0  0  0  0  0  0  0  0  0  0  0  0
  -15.0157   -7.6125    1.1117 H   0  0  0  0  0  0  0  0  0  0  0  0
  -13.9427   -6.3626    0.4579 H   0  0  0  0  0  0  0  0  0  0  0  0
  -14.2936   -7.2227    3.3254 H   0  0  0  0  0  0  0  0  0  0  0  0
  -13.9863   -5.6017    2.6745 H   0  0  0  0  0  0  0  0  0  0  0  0
  -12.0716   -7.5180    3.6714 H   0  0  0  0  0  0  0  0  0  0  0  0
  -11.7313   -5.9446    2.9814 H   0  0  0  0  0  0  0  0  0  0  0  0
   -8.8235   -3.1700   -0.9835 H   0  0  0  0  0  0  0  0  0  0  0  0
   -7.5541   -1.1865   -0.3032 H   0  0  0  0  0  0  0  0  0  0  0  0
   -4.9085   -3.3288   -1.4415 H   0  0  0  0  0  0  0  0  0  0  0  0
   -4.3568   -4.8015   -3.3311 H   0  0  0  0  0  0  0  0  0  0  0  0
  1  2  1  0  0  0  0
  1 36  1  0  0  0  0
  2  3  1  0  0  0  0
  2 35  2  0  0  0  0
  3  4  2  0  0  0  0
  3 37  1  0  0  0  0
  4  5  1  0  0  0  0
  4 38  1  0  0  0  0
  5  6  1  0  0  0  0
  5 34  2  0  0  0  0
  6  7  1  0  0  0  0
  6 33  2  0  0  0  0
  7  8  2  0  0  0  0
  8  9  1  0  0  0  0
  8 10  1  0  0  0  0
 10 11  1  0  0  0  0
 10 17  2  0  0  0  0
 11 12  1  0  0  0  0
 11 16  2  0  0  0  0
 12 13  2  0  0  0  0
 12 39  1  0  0  0  0
 13 14  1  0  0  0  0
 13 40  1  0  0  0  0
 14 15  2  0  0  0  0
 14 41  1  0  0  0  0
 15 16  1  0  0  0  0
 15 42  1  0  0  0  0
 16 43  1  0  0  0  0
 17 18  1  0  0  0  0
 17 33  1  0  0  0  0
 18 19  1  0  0  0  0
 19 20  1  0  0  0  0
 19 32  2  0  0  0  0
 20 21  2  0  0  0  0
 20 44  1  0  0  0  0
 21 22  1  0  0  0  0
 21 45  1  0  0  0  0
 22 23  1  0  0  0  0
 22 31  2  0  0  0  0
 23 24  1  0  0  0  0
 24 25  1  0  0  0  0
 24 46  1  0  0  0  0
 24 47  1  0  0  0  0
 25 26  1  0  0  0  0
 25 48  1  0  0  0  0
 25 49  1  0  0  0  0
 26 27  1  0  0  0  0
 26 30  1  0  0  0  0
 27 28  1  0  0  0  0
 27 50  1  0  0  0  0
 27 51  1  0  0  0  0
 28 29  1  0  0  0  0
 28 52  1  0  0  0  0
 28 53  1  0  0  0  0
 29 30  1  0  0  0  0
 29 54  1  0  0  0  0
 29 55  1  0  0  0  0
 30 56  1  0  0  0  0
 30 57  1  0  0  0  0
 31 32  1  0  0  0  0
 31 58  1  0  0  0  0
 32 59  1  0  0  0  0
 34 35  1  0  0  0  0
 34 60  1  0  0  0  0
 35 61  1  0  0  0  0
M  END
$$$$
