CHEMBL401896
 OpenBabel04072215373D

 63 68  0  0  0  0  0  0  0  0999 V2000
    0.3661   -2.9784   -1.9436 C   0  0  0  0  0  0  0  0  0  0  0  0
    1.7816   -3.4220   -2.2691 C   0  0  0  0  0  0  0  0  0  0  0  0
    2.6403   -2.8786   -1.2660 O   0  0  0  0  0  0  0  0  0  0  0  0
    3.9716   -3.2534   -1.5059 N   0  0  0  0  0  0  0  0  0  0  0  0
    4.7718   -2.7635   -0.5987 C   0  0  0  0  0  0  0  0  0  0  0  0
    4.3324   -1.8641    0.5460 C   0  0  0  0  0  0  0  0  0  0  0  0
    6.2325   -3.0755   -0.6671 C   0  0  0  0  0  0  0  0  0  0  0  0
    7.0954   -2.5617    0.2877 C   0  0  0  0  0  0  0  0  0  0  0  0
    8.4712   -2.8227    0.2208 C   0  0  0  0  0  0  0  0  0  0  0  0
    9.0055   -3.5858   -0.8451 C   0  0  0  0  0  0  0  0  0  0  0  0
    8.1270   -4.1354   -1.8166 C   0  0  0  0  0  0  0  0  0  0  0  0
    6.7369   -3.8713   -1.7061 C   0  0  0  0  0  0  0  0  0  0  0  0
    8.9953   -4.8200   -2.6735 C   0  0  0  0  0  0  0  0  0  0  0  0
    8.7737   -5.6767   -3.7749 C   0  0  0  0  0  0  0  0  0  0  0  0
   10.1566   -6.5211   -4.5256 C   0  0  0  0  0  0  0  0  0  0  0  0
   11.9829   -6.6703   -4.2785 C   0  0  0  0  0  0  0  0  0  0  0  0
   11.0315   -5.6042   -3.2096 C   0  0  0  0  0  0  0  0  0  0  0  0
   10.2970   -4.7451   -2.3345 C   0  0  0  0  0  0  0  0  0  0  0  0
   10.3445   -3.9241   -1.1985 N   0  0  0  0  0  0  0  0  0  0  0  0
   11.5830   -3.4964   -0.4734 C   0  0  0  0  0  0  0  0  0  0  0  0
   12.6780   -2.6394   -1.3340 C   0  0  0  0  0  0  0  0  0  0  0  0
   11.5129   -2.7858    0.8295 C   0  0  0  0  0  0  0  0  0  0  0  0
   12.1881   -5.8737   -2.6406 C   0  0  0  0  0  0  0  0  0  0  0  0
   12.8367   -5.1992   -1.6641 C   0  0  0  0  0  0  0  0  0  0  0  0
   13.9944   -5.2072   -2.4094 C   0  0  0  0  0  0  0  0  0  0  0  0
   14.8643   -4.3116   -2.0034 N   0  0  0  0  0  0  0  0  0  0  0  0
   15.9766   -4.9311   -2.2051 N   0  0  0  0  0  0  0  0  0  0  0  0
   17.1739   -4.1918   -1.6122 C   0  0  0  0  0  0  0  0  0  0  0  0
   15.3544   -6.3738   -2.8363 C   0  0  0  0  0  0  0  0  0  0  0  0
   13.8911   -6.1820   -3.6775 C   0  0  0  0  0  0  0  0  0  0  0  0
    8.9939   -7.1661   -5.5708 C   0  0  0  0  0  0  0  0  0  0  0  0
    9.0568   -7.6514   -6.7031 O   0  0  0  0  0  0  0  0  0  0  0  0
    7.5693   -6.9376   -5.1223 N   0  0  0  0  0  0  0  0  0  0  0  0
    7.3550   -5.8422   -4.2546 C   0  0  0  0  0  0  0  0  0  0  0  0
   -0.3506   -3.3577   -2.6772 H   0  0  0  0  0  0  0  0  0  0  0  0
    0.3031   -1.8849   -1.9218 H   0  0  0  0  0  0  0  0  0  0  0  0
    0.0725   -3.3315   -0.9489 H   0  0  0  0  0  0  0  0  0  0  0  0
    2.0714   -3.0469   -3.2567 H   0  0  0  0  0  0  0  0  0  0  0  0
    1.8389   -4.5163   -2.2652 H   0  0  0  0  0  0  0  0  0  0  0  0
    3.2601   -1.6687    0.5387 H   0  0  0  0  0  0  0  0  0  0  0  0
    4.8524   -0.9032    0.4709 H   0  0  0  0  0  0  0  0  0  0  0  0
    4.5710   -2.3168    1.5118 H   0  0  0  0  0  0  0  0  0  0  0  0
    6.7061   -1.9452    1.0965 H   0  0  0  0  0  0  0  0  0  0  0  0
    9.0905   -2.3952    0.9982 H   0  0  0  0  0  0  0  0  0  0  0  0
    6.0450   -4.2276   -2.4590 H   0  0  0  0  0  0  0  0  0  0  0  0
   11.9688   -4.4245   -0.0127 H   0  0  0  0  0  0  0  0  0  0  0  0
   12.2366   -1.7183   -1.6645 H   0  0  0  0  0  0  0  0  0  0  0  0
   13.0588   -2.9650   -2.3285 H   0  0  0  0  0  0  0  0  0  0  0  0
   13.6103   -2.5618   -0.7553 H   0  0  0  0  0  0  0  0  0  0  0  0
   11.1465   -1.7984    0.5924 H   0  0  0  0  0  0  0  0  0  0  0  0
   12.5263   -2.7263    1.2524 H   0  0  0  0  0  0  0  0  0  0  0  0
   10.9006   -3.3559    1.5292 H   0  0  0  0  0  0  0  0  0  0  0  0
   12.5058   -5.0119   -3.6477 H   0  0  0  0  0  0  0  0  0  0  0  0
   12.3799   -6.9677   -2.4194 H   0  0  0  0  0  0  0  0  0  0  0  0
   12.4857   -5.8625   -0.8928 H   0  0  0  0  0  0  0  0  0  0  0  0
   12.3377   -4.3551   -2.0502 H   0  0  0  0  0  0  0  0  0  0  0  0
   16.9418   -3.0824   -1.5467 H   0  0  0  0  0  0  0  0  0  0  0  0
   18.0224   -4.2148   -2.2938 H   0  0  0  0  0  0  0  0  0  0  0  0
   17.5171   -4.3703   -0.5639 H   0  0  0  0  0  0  0  0  0  0  0  0
   16.0478   -7.0922   -2.3561 H   0  0  0  0  0  0  0  0  0  0  0  0
    6.7337   -7.2269   -5.6487 H   0  0  0  0  0  0  0  0  0  0  0  0
    6.5480   -6.0743   -3.5220 H   0  0  0  0  0  0  0  0  0  0  0  0
    6.9208   -4.9735   -4.8037 H   0  0  0  0  0  0  0  0  0  0  0  0
  1  2  1  0  0  0  0
  1 35  1  0  0  0  0
  1 36  1  0  0  0  0
  1 37  1  0  0  0  0
  2  3  1  0  0  0  0
  2 38  1  0  0  0  0
  2 39  1  0  0  0  0
  3  4  1  0  0  0  0
  4  5  2  0  0  0  0
  5  6  1  0  0  0  0
  5  7  1  0  0  0  0
  6 40  1  0  0  0  0
  6 41  1  0  0  0  0
  6 42  1  0  0  0  0
  7  8  1  0  0  0  0
  7 12  2  0  0  0  0
  8  9  2  0  0  0  0
  8 43  1  0  0  0  0
  9 10  1  0  0  0  0
  9 44  1  0  0  0  0
 10 11  2  0  0  0  0
 10 19  1  0  0  0  0
 11 12  1  0  0  0  0
 11 13  1  0  0  0  0
 12 45  1  0  0  0  0
 13 14  1  0  0  0  0
 13 18  2  0  0  0  0
 14 15  2  0  0  0  0
 14 34  1  0  0  0  0
 15 16  1  0  0  0  0
 15 31  1  0  0  0  0
 16 17  2  0  0  0  0
 16 30  1  0  0  0  0
 17 18  1  0  0  0  0
 17 23  1  0  0  0  0
 18 19  1  0  0  0  0
 19 20  1  0  0  0  0
 20 21  1  0  0  0  0
 20 22  1  0  0  0  0
 20 46  1  0  0  0  0
 21 47  1  0  0  0  0
 21 48  1  0  0  0  0
 21 49  1  0  0  0  0
 22 50  1  0  0  0  0
 22 51  1  0  0  0  0
 22 52  1  0  0  0  0
 23 24  1  0  0  0  0
 23 53  1  0  0  0  0
 23 54  1  0  0  0  0
 24 25  1  0  0  0  0
 24 55  1  0  0  0  0
 24 56  1  0  0  0  0
 25 26  2  0  0  0  0
 25 30  1  0  0  0  0
 26 27  1  0  0  0  0
 27 28  1  0  0  0  0
 27 29  1  0  0  0  0
 28 57  1  0  0  0  0
 28 58  1  0  0  0  0
 28 59  1  0  0  0  0
 29 30  2  0  0  0  0
 29 60  1  0  0  0  0
 31 32  2  0  0  0  0
 31 33  1  0  0  0  0
 33 34  1  0  0  0  0
 33 61  1  0  0  0  0
 34 62  1  0  0  0  0
 34 63  1  0  0  0  0
M  END
$$$$
