CHEMBL1095035
 OpenBabel04072215363D

 82 87  0  0  1  0  0  0  0  0999 V2000
    2.5439    5.4152    7.2058 C   0  0  0  0  0  0  0  0  0  0  0  0
    2.4574    4.1470    6.5666 O   0  0  0  0  0  0  0  0  0  0  0  0
    2.0050    3.1438    7.4845 C   0  0  0  0  0  0  0  0  0  0  0  0
    1.9636    1.7602    6.7852 C   0  0  2  0  0  0  0  0  0  0  0  0
    1.1984    0.7678    7.6644 C   0  0  0  0  0  0  0  0  0  0  0  0
    3.2975    1.2290    6.3574 N   0  0  0  0  0  0  0  0  0  0  0  0
    3.4801    0.6529    5.0172 C   0  0  0  0  0  0  0  0  0  0  0  0
    2.2656    0.4233    4.1671 C   0  0  0  0  0  0  0  0  0  0  0  0
    1.8602    1.3866    3.2371 C   0  0  0  0  0  0  0  0  0  0  0  0
    0.6630    1.2281    2.5388 C   0  0  0  0  0  0  0  0  0  0  0  0
   -0.1443    0.1043    2.7603 C   0  0  0  0  0  0  0  0  0  0  0  0
   -1.4851    0.0340    2.1691 C   0  0  0  0  0  0  0  0  0  0  0  0
   -1.9642    0.5539    0.9817 C   0  0  0  0  0  0  0  0  0  0  0  0
   -3.3609    0.3288    0.8009 C   0  0  0  0  0  0  0  0  0  0  0  0
   -4.0924    0.7360   -0.2713 N   0  0  0  0  0  0  0  0  0  0  0  0
   -5.3920    0.3804   -0.2575 C   0  0  0  0  0  0  0  0  0  0  0  0
   -6.0144   -0.3449    0.7416 C   0  0  0  0  0  0  0  0  0  0  0  0
   -5.2723   -0.7123    1.8594 C   0  0  0  0  0  0  0  0  0  0  0  0
   -5.7775   -1.4586    2.8987 O   0  0  0  0  0  0  0  0  0  0  0  0
   -6.9758   -1.1021    3.4641 C   0  0  0  0  0  0  0  0  0  0  0  0
   -7.5243    0.1755    3.4087 C   0  0  0  0  0  0  0  0  0  0  0  0
   -8.7788    0.4228    3.9661 C   0  0  0  0  0  0  0  0  0  0  0  0
   -9.4747   -0.5809    4.6395 C   0  0  0  0  0  0  0  0  0  0  0  0
  -10.7295   -0.3693    5.2469 N   0  0  0  0  0  0  0  0  0  0  0  0
  -11.4807    0.7891    5.1879 C   0  0  0  0  0  0  0  0  0  0  0  0
  -11.2694    1.7693    4.4786 O   0  0  0  0  0  0  0  0  0  0  0  0
  -12.5993    0.7971    6.1050 C   0  0  0  0  0  0  0  0  0  0  0  0
  -13.5059   -0.2250    6.4096 C   0  0  0  0  0  0  0  0  0  0  0  0
  -14.3414    0.1186    7.3839 N   0  0  0  0  0  0  0  0  0  0  0  0
  -14.0755    1.4335    7.6367 N   0  0  0  0  0  0  0  0  0  0  0  0
  -14.8939    2.1191    8.5797 C   0  0  0  0  0  0  0  0  0  0  0  0
  -15.5154    1.3731    9.5938 C   0  0  0  0  0  0  0  0  0  0  0  0
  -16.2781    2.0114   10.5729 C   0  0  0  0  0  0  0  0  0  0  0  0
  -16.4513    3.3926   10.5323 C   0  0  0  0  0  0  0  0  0  0  0  0
  -15.8788    4.1337    9.5016 C   0  0  0  0  0  0  0  0  0  0  0  0
  -15.1069    3.5006    8.5231 C   0  0  0  0  0  0  0  0  0  0  0  0
  -12.9730    1.8561    6.9223 C   0  0  0  0  0  0  0  0  0  0  0  0
  -12.2879    3.1411    7.1616 C   0  0  0  0  0  0  0  0  0  0  0  0
  -11.0102    3.1493    6.7060 F   0  0  0  0  0  0  0  0  0  0  0  0
  -12.9179    4.1824    6.5673 F   0  0  0  0  0  0  0  0  0  0  0  0
  -12.1952    3.4256    8.4858 F   0  0  0  0  0  0  0  0  0  0  0  0
   -8.8893   -1.8456    4.7637 C   0  0  0  0  0  0  0  0  0  0  0  0
   -7.6513   -2.0946    4.1737 C   0  0  0  0  0  0  0  0  0  0  0  0
   -7.1137   -3.3178    4.2982 F   0  0  0  0  0  0  0  0  0  0  0  0
   -3.9143   -0.3746    1.8652 C   0  0  0  0  0  0  0  0  0  0  0  0
   -2.7485   -0.7021    3.0659 S   0  0  0  0  0  0  0  0  0  0  0  0
    0.3227   -0.9004    3.6209 C   0  0  0  0  0  0  0  0  0  0  0  0
    1.5092   -0.7427    4.3253 C   0  0  0  0  0  0  0  0  0  0  0  0
    4.3684    1.2307    7.2511 C   0  0  0  0  0  0  0  0  0  0  0  0
    5.7528    0.8835    6.7299 C   0  0  0  0  0  0  0  0  0  0  0  0
    4.2490    1.5321    8.4397 O   0  0  0  0  0  0  0  0  0  0  0  0
    2.8102    6.1626    6.4545 H   0  0  0  0  0  0  0  0  0  0  0  0
    3.3207    5.3991    7.9765 H   0  0  0  0  0  0  0  0  0  0  0  0
    1.5820    5.6940    7.6491 H   0  0  0  0  0  0  0  0  0  0  0  0
    0.9883    3.4121    7.8017 H   0  0  0  0  0  0  0  0  0  0  0  0
    2.6310    3.1490    8.3803 H   0  0  0  0  0  0  0  0  0  0  0  0
    1.3736    1.9298    5.8822 H   0  0  0  0  0  0  0  0  0  0  0  0
    1.6731    0.6313    8.6393 H   0  0  0  0  0  0  0  0  0  0  0  0
    1.1173   -0.2133    7.1873 H   0  0  0  0  0  0  0  0  0  0  0  0
    0.1758    1.1293    7.8399 H   0  0  0  0  0  0  0  0  0  0  0  0
    3.9691   -0.3221    5.1391 H   0  0  0  0  0  0  0  0  0  0  0  0
    4.1861    1.2958    4.4764 H   0  0  0  0  0  0  0  0  0  0  0  0
    2.4486    2.2901    3.0892 H   0  0  0  0  0  0  0  0  0  0  0  0
    0.3462    2.0215    1.8657 H   0  0  0  0  0  0  0  0  0  0  0  0
   -1.3519    1.0802    0.2605 H   0  0  0  0  0  0  0  0  0  0  0  0
   -5.9591    0.7092   -1.1249 H   0  0  0  0  0  0  0  0  0  0  0  0
   -7.0635   -0.6028    0.6524 H   0  0  0  0  0  0  0  0  0  0  0  0
   -7.0038    1.0026    2.9324 H   0  0  0  0  0  0  0  0  0  0  0  0
   -9.1683    1.4310    3.8675 H   0  0  0  0  0  0  0  0  0  0  0  0
  -11.0716   -1.1163    5.8349 H   0  0  0  0  0  0  0  0  0  0  0  0
  -13.5805   -1.2180    5.9840 H   0  0  0  0  0  0  0  0  0  0  0  0
  -15.3831    0.2937    9.6553 H   0  0  0  0  0  0  0  0  0  0  0  0
  -16.7314    1.4287   11.3704 H   0  0  0  0  0  0  0  0  0  0  0  0
  -17.0428    3.8902   11.2964 H   0  0  0  0  0  0  0  0  0  0  0  0
  -16.0383    5.2088    9.4523 H   0  0  0  0  0  0  0  0  0  0  0  0
  -14.7391    4.1172    7.7118 H   0  0  0  0  0  0  0  0  0  0  0  0
   -9.3722   -2.6555    5.3014 H   0  0  0  0  0  0  0  0  0  0  0  0
   -0.2526   -1.8106    3.7870 H   0  0  0  0  0  0  0  0  0  0  0  0
    1.8194   -1.5120    5.0288 H   0  0  0  0  0  0  0  0  0  0  0  0
    5.7797    0.3904    5.7591 H   0  0  0  0  0  0  0  0  0  0  0  0
    6.2333    0.2057    7.4397 H   0  0  0  0  0  0  0  0  0  0  0  0
    6.3372    1.8048    6.6494 H   0  0  0  0  0  0  0  0  0  0  0  0
  1  2  1  0  0  0  0
  1 52  1  0  0  0  0
  1 53  1  0  0  0  0
  1 54  1  0  0  0  0
  2  3  1  0  0  0  0
  3 55  1  0  0  0  0
  3 56  1  0  0  0  0
  4  6  1  0  0  0  0
  4  5  1  0  0  0  0
  4  3  1  0  0  0  0
  4 57  1  6  0  0  0
  5 58  1  0  0  0  0
  5 59  1  0  0  0  0
  5 60  1  0  0  0  0
  6  7  1  0  0  0  0
  6 49  1  0  0  0  0
  7  8  1  0  0  0  0
  7 61  1  0  0  0  0
  7 62  1  0  0  0  0
  8  9  1  0  0  0  0
  8 48  2  0  0  0  0
  9 10  2  0  0  0  0
  9 63  1  0  0  0  0
 10 11  1  0  0  0  0
 10 64  1  0  0  0  0
 11 12  1  0  0  0  0
 11 47  2  0  0  0  0
 12 13  2  0  0  0  0
 12 46  1  0  0  0  0
 13 14  1  0  0  0  0
 13 65  1  0  0  0  0
 14 15  1  0  0  0  0
 14 45  2  0  0  0  0
 15 16  2  0  0  0  0
 16 17  1  0  0  0  0
 16 66  1  0  0  0  0
 17 18  2  0  0  0  0
 17 67  1  0  0  0  0
 18 19  1  0  0  0  0
 18 45  1  0  0  0  0
 19 20  1  0  0  0  0
 20 21  1  0  0  0  0
 20 43  2  0  0  0  0
 21 22  2  0  0  0  0
 21 68  1  0  0  0  0
 22 23  1  0  0  0  0
 22 69  1  0  0  0  0
 23 24  1  0  0  0  0
 23 42  2  0  0  0  0
 24 25  1  0  0  0  0
 24 70  1  0  0  0  0
 25 26  2  0  0  0  0
 25 27  1  0  0  0  0
 27 28  1  0  0  0  0
 27 37  2  0  0  0  0
 28 29  2  0  0  0  0
 28 71  1  0  0  0  0
 29 30  1  0  0  0  0
 30 31  1  0  0  0  0
 30 37  1  0  0  0  0
 31 32  1  0  0  0  0
 31 36  2  0  0  0  0
 32 33  2  0  0  0  0
 32 72  1  0  0  0  0
 33 34  1  0  0  0  0
 33 73  1  0  0  0  0
 34 35  2  0  0  0  0
 34 74  1  0  0  0  0
 35 36  1  0  0  0  0
 35 75  1  0  0  0  0
 36 76  1  0  0  0  0
 37 38  1  0  0  0  0
 38 39  1  0  0  0  0
 38 40  1  0  0  0  0
 38 41  1  0  0  0  0
 42 43  1  0  0  0  0
 42 77  1  0  0  0  0
 43 44  1  0  0  0  0
 45 46  1  0  0  0  0
 47 48  1  0  0  0  0
 47 78  1  0  0  0  0
 48 79  1  0  0  0  0
 49 50  1  0  0  0  0
 49 51  2  0  0  0  0
 50 80  1  0  0  0  0
 50 81  1  0  0  0  0
 50 82  1  0  0  0  0
M  END
$$$$
