CHEMBL422918
 OpenBabel04072215383D

 70 74  0  0  1  0  0  0  0  0999 V2000
   -0.2678    1.0335    3.9312 C   0  0  0  0  0  0  0  0  0  0  0  0
    1.1748    1.0906    3.7024 N   0  0  0  0  0  0  0  0  0  0  0  0
    1.8727    0.4433    4.8190 C   0  0  0  0  0  0  0  0  0  0  0  0
    1.5823    0.4639    2.4266 C   0  0  0  0  0  0  0  0  0  0  0  0
    1.0061    1.1143    1.1413 C   0  0  3  0  0  0  0  0  0  0  0  0
    1.4452    0.3520   -0.1209 C   0  0  0  0  0  0  0  0  0  0  0  0
    2.9052    0.6119   -0.4644 C   0  0  0  0  0  0  0  0  0  0  0  0
    3.2072    2.1055   -0.5337 C   0  0  0  0  0  0  0  0  0  0  0  0
    2.8094    2.8113    0.6922 N   0  0  0  0  0  0  0  0  0  0  0  0
    3.0921    4.2573    0.6014 C   0  0  0  0  0  0  0  0  0  0  0  0
    4.5980    4.5399    0.4925 C   0  0  0  0  0  0  0  0  0  0  0  0
    4.9407    6.0295    0.5012 C   0  0  0  0  0  0  0  0  0  0  0  0
    4.4861    6.7946    1.6524 N   0  0  0  0  0  0  0  0  0  0  0  0
    4.4858    6.2507    2.9286 C   0  0  0  0  0  0  0  0  0  0  0  0
    4.0432    6.9326    3.9869 C   0  0  0  0  0  0  0  0  0  0  0  0
    3.5653    8.2955    3.8353 C   0  0  0  0  0  0  0  0  0  0  0  0
    3.0166    9.0537    4.9677 C   0  0  0  0  0  0  0  0  0  0  0  0
    1.9667    8.5116    5.8605 C   0  0  0  0  0  0  0  0  0  0  0  0
    1.6146    9.1954    6.9726 C   0  0  0  0  0  0  0  0  0  0  0  0
    2.1058   10.5073    7.1318 N   0  0  0  0  0  0  0  0  0  0  0  0
    1.6168   11.5824    7.8900 C   0  0  0  0  0  0  0  0  0  0  0  0
    2.4204   12.4329    8.8293 C   0  0  0  0  0  0  0  0  0  0  0  0
    1.9932   13.7614    9.0395 C   0  0  0  0  0  0  0  0  0  0  0  0
    2.7896   14.7030    9.6917 C   0  0  0  0  0  0  0  0  0  0  0  0
    4.0313   14.3281   10.1827 C   0  0  0  0  0  0  0  0  0  0  0  0
    4.4651   13.0111   10.0222 C   0  0  0  0  0  0  0  0  0  0  0  0
    3.6689   12.0647    9.3491 C   0  0  0  0  0  0  0  0  0  0  0  0
    0.9653   12.1883    6.8039 C   0  0  0  0  0  0  0  0  0  0  0  0
    1.8171   12.1313    5.7158 N   0  0  0  0  0  0  0  0  0  0  0  0
    2.6406   11.1353    6.0070 C   0  0  0  0  0  0  0  0  0  0  0  0
    3.4164   10.3316    5.1439 C   0  0  0  0  0  0  0  0  0  0  0  0
    3.6191    8.8664    2.6142 C   0  0  0  0  0  0  0  0  0  0  0  0
    4.1401    8.1307    1.4335 C   0  0  0  0  0  0  0  0  0  0  0  0
    4.2123    8.7121    0.3516 O   0  0  0  0  0  0  0  0  0  0  0  0
    1.3778    2.6007    0.9876 C   0  0  0  0  0  0  0  0  0  0  0  0
   -0.5206    1.5406    4.8699 H   0  0  0  0  0  0  0  0  0  0  0  0
   -0.6395    0.0045    3.9854 H   0  0  0  0  0  0  0  0  0  0  0  0
   -0.8207    1.5658    3.1519 H   0  0  0  0  0  0  0  0  0  0  0  0
    1.5923    0.9056    5.7725 H   0  0  0  0  0  0  0  0  0  0  0  0
    2.9573    0.5632    4.7216 H   0  0  0  0  0  0  0  0  0  0  0  0
    1.6472   -0.6282    4.8806 H   0  0  0  0  0  0  0  0  0  0  0  0
    1.3017   -0.5986    2.4359 H   0  0  0  0  0  0  0  0  0  0  0  0
    2.6776    0.4926    2.3710 H   0  0  0  0  0  0  0  0  0  0  0  0
   -0.0874    1.0374    1.1797 H   0  0  0  0  0  0  0  0  0  0  0  0
    0.8255    0.6828   -0.9649 H   0  0  0  0  0  0  0  0  0  0  0  0
    1.2729   -0.7238   -0.0085 H   0  0  0  0  0  0  0  0  0  0  0  0
    3.1444    0.1530   -1.4306 H   0  0  0  0  0  0  0  0  0  0  0  0
    3.5584    0.1369    0.2771 H   0  0  0  0  0  0  0  0  0  0  0  0
    2.7155    2.5455   -1.4104 H   0  0  0  0  0  0  0  0  0  0  0  0
    4.2877    2.1918   -0.6870 H   0  0  0  0  0  0  0  0  0  0  0  0
    2.7041    4.7383    1.5072 H   0  0  0  0  0  0  0  0  0  0  0  0
    2.5639    4.7093   -0.2453 H   0  0  0  0  0  0  0  0  0  0  0  0
    4.9891    4.1452   -0.4518 H   0  0  0  0  0  0  0  0  0  0  0  0
    5.1375    4.0168    1.2905 H   0  0  0  0  0  0  0  0  0  0  0  0
    4.5266    6.4771   -0.4106 H   0  0  0  0  0  0  0  0  0  0  0  0
    6.0279    6.1554    0.4440 H   0  0  0  0  0  0  0  0  0  0  0  0
    4.8365    5.2295    3.0489 H   0  0  0  0  0  0  0  0  0  0  0  0
    4.0303    6.4774    4.9665 H   0  0  0  0  0  0  0  0  0  0  0  0
    1.4663    7.5917    5.5706 H   0  0  0  0  0  0  0  0  0  0  0  0
    0.8311    8.8694    7.6455 H   0  0  0  0  0  0  0  0  0  0  0  0
    1.0503   14.1080    8.6235 H   0  0  0  0  0  0  0  0  0  0  0  0
    2.4490   15.7322    9.7723 H   0  0  0  0  0  0  0  0  0  0  0  0
    4.6654   15.0664   10.6678 H   0  0  0  0  0  0  0  0  0  0  0  0
    5.4497   12.7338   10.3930 H   0  0  0  0  0  0  0  0  0  0  0  0
    4.0742   11.0683    9.1972 H   0  0  0  0  0  0  0  0  0  0  0  0
    0.1656   12.9139    6.8291 H   0  0  0  0  0  0  0  0  0  0  0  0
    4.2017   10.8095    4.5687 H   0  0  0  0  0  0  0  0  0  0  0  0
    3.2834    9.8680    2.4099 H   0  0  0  0  0  0  0  0  0  0  0  0
    0.7665    3.0316    0.1818 H   0  0  0  0  0  0  0  0  0  0  0  0
    1.0996    3.1365    1.9034 H   0  0  0  0  0  0  0  0  0  0  0  0
  1  2  1  0  0  0  0
  1 36  1  0  0  0  0
  1 37  1  0  0  0  0
  1 38  1  0  0  0  0
  2  3  1  0  0  0  0
  2  4  1  0  0  0  0
  3 39  1  0  0  0  0
  3 40  1  0  0  0  0
  3 41  1  0  0  0  0
  4  5  1  0  0  0  0
  4 42  1  0  0  0  0
  4 43  1  0  0  0  0
  5  6  1  0  0  0  0
  5 35  1  0  0  0  0
  5 44  1  0  0  0  0
  6  7  1  0  0  0  0
  6 45  1  0  0  0  0
  6 46  1  0  0  0  0
  7  8  1  0  0  0  0
  7 47  1  0  0  0  0
  7 48  1  0  0  0  0
  8  9  1  0  0  0  0
  8 49  1  0  0  0  0
  8 50  1  0  0  0  0
  9 10  1  0  0  0  0
  9 35  1  0  0  0  0
 10 11  1  0  0  0  0
 10 51  1  0  0  0  0
 10 52  1  0  0  0  0
 11 12  1  0  0  0  0
 11 53  1  0  0  0  0
 11 54  1  0  0  0  0
 12 13  1  0  0  0  0
 12 55  1  0  0  0  0
 12 56  1  0  0  0  0
 13 14  1  0  0  0  0
 13 33  1  0  0  0  0
 14 15  2  0  0  0  0
 14 57  1  0  0  0  0
 15 16  1  0  0  0  0
 15 58  1  0  0  0  0
 16 17  1  0  0  0  0
 16 32  2  0  0  0  0
 17 18  1  0  0  0  0
 17 31  2  0  0  0  0
 18 19  2  0  0  0  0
 18 59  1  0  0  0  0
 19 20  1  0  0  0  0
 19 60  1  0  0  0  0
 20 21  1  0  0  0  0
 20 30  1  0  0  0  0
 21 22  1  0  0  0  0
 21 28  2  0  0  0  0
 22 23  1  0  0  0  0
 22 27  2  0  0  0  0
 23 24  2  0  0  0  0
 23 61  1  0  0  0  0
 24 25  1  0  0  0  0
 24 62  1  0  0  0  0
 25 26  2  0  0  0  0
 25 63  1  0  0  0  0
 26 27  1  0  0  0  0
 26 64  1  0  0  0  0
 27 65  1  0  0  0  0
 28 29  1  0  0  0  0
 28 66  1  0  0  0  0
 29 30  2  0  0  0  0
 30 31  1  0  0  0  0
 31 67  1  0  0  0  0
 32 33  1  0  0  0  0
 32 68  1  0  0  0  0
 33 34  2  0  0  0  0
 35 69  1  0  0  0  0
 35 70  1  0  0  0  0
M  END
$$$$
