CHEMBL67560
 OpenBabel04072215383D

 57 61  0  0  1  0  0  0  0  0999 V2000
    1.0291   -0.5209   -0.2395 C   0  0  0  0  0  0  0  0  0  0  0  0
    2.4795   -0.1061   -0.0617 C   0  0  3  0  0  0  0  0  0  0  0  0
    3.3523   -1.1852    0.2315 O   0  0  0  0  0  0  0  0  0  0  0  0
    3.0120    0.6586   -1.2624 C   0  0  0  0  0  0  0  0  0  0  0  0
    2.9399    2.0390   -1.5138 C   0  0  0  0  0  0  0  0  0  0  0  0
    2.3861    2.9884   -0.5516 C   0  0  0  0  0  0  0  0  0  0  0  0
    2.6924    2.8600    0.8045 C   0  0  0  0  0  0  0  0  0  0  0  0
    2.0105    3.5992    1.7525 C   0  0  0  0  0  0  0  0  0  0  0  0
    1.2568    4.7070    1.3568 C   0  0  0  0  0  0  0  0  0  0  0  0
    0.7087    5.6101    2.2329 O   0  0  0  0  0  0  0  0  0  0  0  0
    1.2893    5.7772    3.4708 C   0  0  0  0  0  0  0  0  0  0  0  0
    2.6671    5.6779    3.7097 C   0  0  0  0  0  0  0  0  0  0  0  0
    3.1588    5.7528    5.0078 C   0  0  0  0  0  0  0  0  0  0  0  0
    2.2832    6.0230    6.0617 C   0  0  0  0  0  0  0  0  0  0  0  0
    0.9211    6.2055    5.8116 C   0  0  0  0  0  0  0  0  0  0  0  0
    0.4225    6.0742    4.5184 C   0  0  0  0  0  0  0  0  0  0  0  0
    1.0231    4.9204    0.0061 C   0  0  0  0  0  0  0  0  0  0  0  0
    1.5138    4.0133   -0.9334 C   0  0  0  0  0  0  0  0  0  0  0  0
    3.3842    2.2671   -2.8571 C   0  0  0  0  0  0  0  0  0  0  0  0
    3.4796    3.3631   -3.7451 C   0  0  0  0  0  0  0  0  0  0  0  0
    3.1108    4.6679   -3.4385 N   0  0  0  0  0  0  0  0  0  0  0  0
    3.9300    3.1617   -4.9986 N   0  0  0  0  0  0  0  0  0  0  0  0
    4.2962    1.9288   -5.3385 C   0  0  0  0  0  0  0  0  0  0  0  0
    4.2816    0.8178   -4.5913 N   0  0  0  0  0  0  0  0  0  0  0  0
    3.7956    1.0410   -3.3518 C   0  0  0  0  0  0  0  0  0  0  0  0
    3.5982    0.0703   -2.3895 N   0  0  0  0  0  0  0  0  0  0  0  0
    3.8760   -1.3467   -2.5357 C   0  0  0  0  0  0  0  0  0  0  0  0
    5.2955   -1.7912   -2.1553 C   0  0  0  0  0  0  0  0  0  0  0  0
    5.3373   -3.2626   -2.5770 C   0  0  0  0  0  0  0  0  0  0  0  0
    4.2291   -3.4404   -3.6189 C   0  0  0  0  0  0  0  0  0  0  0  0
    3.6818   -2.0371   -3.8855 C   0  0  0  0  0  0  0  0  0  0  0  0
    0.6669   -1.0076    0.6741 H   0  0  0  0  0  0  0  0  0  0  0  0
    0.9008   -1.2294   -1.0587 H   0  0  0  0  0  0  0  0  0  0  0  0
    0.3908    0.3521   -0.4288 H   0  0  0  0  0  0  0  0  0  0  0  0
    2.5009    0.4804    0.8475 H   0  0  0  0  0  0  0  0  0  0  0  0
    2.8421   -2.0086    0.1767 H   0  0  0  0  0  0  0  0  0  0  0  0
    3.4362    2.1491    1.1520 H   0  0  0  0  0  0  0  0  0  0  0  0
    2.1351    3.3348    2.7973 H   0  0  0  0  0  0  0  0  0  0  0  0
    3.3665    5.4926    2.8997 H   0  0  0  0  0  0  0  0  0  0  0  0
    4.2151    5.5890    5.1969 H   0  0  0  0  0  0  0  0  0  0  0  0
    2.6659    6.0936    7.0727 H   0  0  0  0  0  0  0  0  0  0  0  0
    0.2487    6.4361    6.6338 H   0  0  0  0  0  0  0  0  0  0  0  0
   -0.6415    6.1923    4.3295 H   0  0  0  0  0  0  0  0  0  0  0  0
    0.4438    5.7810   -0.3172 H   0  0  0  0  0  0  0  0  0  0  0  0
    1.2179    4.1425   -1.9733 H   0  0  0  0  0  0  0  0  0  0  0  0
    3.2736    4.9406   -2.4768 H   0  0  0  0  0  0  0  0  0  0  0  0
    3.4264    5.3195   -4.1457 H   0  0  0  0  0  0  0  0  0  0  0  0
    4.6637    1.8083   -6.3625 H   0  0  0  0  0  0  0  0  0  0  0  0
    3.1613   -1.8628   -1.8907 H   0  0  0  0  0  0  0  0  0  0  0  0
    5.5187   -1.6753   -1.0905 H   0  0  0  0  0  0  0  0  0  0  0  0
    6.0518   -1.2227   -2.7102 H   0  0  0  0  0  0  0  0  0  0  0  0
    5.1425   -3.9142   -1.7142 H   0  0  0  0  0  0  0  0  0  0  0  0
    6.3191   -3.5388   -2.9748 H   0  0  0  0  0  0  0  0  0  0  0  0
    3.4371   -4.0777   -3.2048 H   0  0  0  0  0  0  0  0  0  0  0  0
    4.5920   -3.9194   -4.5321 H   0  0  0  0  0  0  0  0  0  0  0  0
    2.6314   -2.0553   -4.1917 H   0  0  0  0  0  0  0  0  0  0  0  0
    4.2686   -1.5805   -4.6870 H   0  0  0  0  0  0  0  0  0  0  0  0
  1  2  1  0  0  0  0
  1 32  1  0  0  0  0
  1 33  1  0  0  0  0
  1 34  1  0  0  0  0
  2  3  1  0  0  0  0
  2  4  1  0  0  0  0
  2 35  1  0  0  0  0
  3 36  1  0  0  0  0
  4  5  2  0  0  0  0
  4 26  1  0  0  0  0
  5  6  1  0  0  0  0
  5 19  1  0  0  0  0
  6  7  1  0  0  0  0
  6 18  2  0  0  0  0
  7  8  2  0  0  0  0
  7 37  1  0  0  0  0
  8  9  1  0  0  0  0
  8 38  1  0  0  0  0
  9 10  1  0  0  0  0
  9 17  2  0  0  0  0
 10 11  1  0  0  0  0
 11 12  1  0  0  0  0
 11 16  2  0  0  0  0
 12 13  2  0  0  0  0
 12 39  1  0  0  0  0
 13 14  1  0  0  0  0
 13 40  1  0  0  0  0
 14 15  2  0  0  0  0
 14 41  1  0  0  0  0
 15 16  1  0  0  0  0
 15 42  1  0  0  0  0
 16 43  1  0  0  0  0
 17 18  1  0  0  0  0
 17 44  1  0  0  0  0
 18 45  1  0  0  0  0
 19 20  1  0  0  0  0
 19 25  2  0  0  0  0
 20 21  1  0  0  0  0
 20 22  2  0  0  0  0
 21 46  1  0  0  0  0
 21 47  1  0  0  0  0
 22 23  1  0  0  0  0
 23 24  2  0  0  0  0
 23 48  1  0  0  0  0
 24 25  1  0  0  0  0
 25 26  1  0  0  0  0
 26 27  1  0  0  0  0
 27 28  1  0  0  0  0
 27 31  1  0  0  0  0
 27 49  1  0  0  0  0
 28 29  1  0  0  0  0
 28 50  1  0  0  0  0
 28 51  1  0  0  0  0
 29 30  1  0  0  0  0
 29 52  1  0  0  0  0
 29 53  1  0  0  0  0
 30 31  1  0  0  0  0
 30 54  1  0  0  0  0
 30 55  1  0  0  0  0
 31 56  1  0  0  0  0
 31 57  1  0  0  0  0
M  END
$$$$
