CHEMBL3648120
 OpenBabel04072215373D

 51 52  0  0  1  0  0  0  0  0999 V2000
   15.1560   12.6957    2.6497 C   0  0  0  0  0  0  0  0  0  0  0  0
   15.5557   11.2586    2.3726 C   0  0  0  0  0  0  0  0  0  0  0  0
   15.6793   10.9381    0.6210 S   0  0  3  0  0  0  0  0  0  0  0  0
   14.3082   11.2191   -0.0259 N   0  0  0  0  0  0  0  0  0  0  0  0
   16.9173   11.5273    0.1567 O   0  0  0  0  0  0  0  0  0  0  0  0
   15.8958    9.1663    0.5598 C   0  0  0  0  0  0  0  0  0  0  0  0
   14.7642    8.3472    0.5074 C   0  0  0  0  0  0  0  0  0  0  0  0
   14.9107    6.9791    0.3487 C   0  0  0  0  0  0  0  0  0  0  0  0
   16.1830    6.4001    0.2347 C   0  0  0  0  0  0  0  0  0  0  0  0
   16.3391    5.0233    0.0482 N   0  0  0  0  0  0  0  0  0  0  0  0
   15.5651    4.2004   -0.7707 C   0  0  0  0  0  0  0  0  0  0  0  0
   15.6094    2.8893   -0.5080 N   0  0  0  0  0  0  0  0  0  0  0  0
   15.0856    2.0771   -1.4466 C   0  0  0  0  0  0  0  0  0  0  0  0
   14.5478    2.5270   -2.6313 C   0  0  0  0  0  0  0  0  0  0  0  0
   14.0197    1.2919   -3.9574 Br  0  0  0  0  0  0  0  0  0  0  0  0
   14.4173    3.8995   -2.7574 C   0  0  0  0  0  0  0  0  0  0  0  0
   13.7808    4.4482   -3.8795 N   0  0  0  0  0  0  0  0  0  0  0  0
   13.2483    5.8263   -3.7852 C   0  0  2  0  0  0  0  0  0  0  0  0
   11.8376    5.8116   -3.1473 C   0  0  0  0  0  0  0  0  0  0  0  0
   10.7945    5.2528   -3.9583 O   0  0  0  0  0  0  0  0  0  0  0  0
   10.9059    3.8473   -4.1516 C   0  0  0  0  0  0  0  0  0  0  0  0
   13.2725    6.4472   -5.2089 C   0  0  1  0  0  0  0  0  0  0  0  0
   12.9200    7.9295   -5.2491 C   0  0  0  0  0  0  0  0  0  0  0  0
   14.6058    6.3015   -5.7447 O   0  0  0  0  0  0  0  0  0  0  0  0
   14.9180    4.7282   -1.8261 N   0  0  0  0  0  0  0  0  0  0  0  0
   17.3137    7.2252    0.3501 C   0  0  0  0  0  0  0  0  0  0  0  0
   17.1760    8.6106    0.4869 C   0  0  0  0  0  0  0  0  0  0  0  0
   15.1354   12.8854    3.7267 H   0  0  0  0  0  0  0  0  0  0  0  0
   14.1593   12.9121    2.2518 H   0  0  0  0  0  0  0  0  0  0  0  0
   15.8581   13.3976    2.1886 H   0  0  0  0  0  0  0  0  0  0  0  0
   14.8190   10.5707    2.7985 H   0  0  0  0  0  0  0  0  0  0  0  0
   16.5351   11.0465    2.8133 H   0  0  0  0  0  0  0  0  0  0  0  0
   14.1500   12.2219   -0.1260 H   0  0  0  0  0  0  0  0  0  0  0  0
   13.7632    8.7691    0.5538 H   0  0  0  0  0  0  0  0  0  0  0  0
   14.0250    6.3535    0.2836 H   0  0  0  0  0  0  0  0  0  0  0  0
   16.6641    4.5014    0.8493 H   0  0  0  0  0  0  0  0  0  0  0  0
   15.1333    1.0181   -1.2120 H   0  0  0  0  0  0  0  0  0  0  0  0
   14.3652    4.3264   -4.7090 H   0  0  0  0  0  0  0  0  0  0  0  0
   13.9067    6.4397   -3.1569 H   0  0  0  0  0  0  0  0  0  0  0  0
   11.8469    5.2983   -2.1776 H   0  0  0  0  0  0  0  0  0  0  0  0
   11.5310    6.8430   -2.9404 H   0  0  0  0  0  0  0  0  0  0  0  0
    9.9008    3.4323   -4.2681 H   0  0  0  0  0  0  0  0  0  0  0  0
   11.3768    3.3443   -3.3013 H   0  0  0  0  0  0  0  0  0  0  0  0
   11.4600    3.6473   -5.0734 H   0  0  0  0  0  0  0  0  0  0  0  0
   12.6069    5.8961   -5.8811 H   0  0  0  0  0  0  0  0  0  0  0  0
   13.6054    8.5161   -4.6287 H   0  0  0  0  0  0  0  0  0  0  0  0
   11.8952    8.1184   -4.9196 H   0  0  0  0  0  0  0  0  0  0  0  0
   13.0259    8.3122   -6.2708 H   0  0  0  0  0  0  0  0  0  0  0  0
   15.2165    6.7399   -5.1241 H   0  0  0  0  0  0  0  0  0  0  0  0
   18.3113    6.7942    0.2627 H   0  0  0  0  0  0  0  0  0  0  0  0
   18.0619    9.2429    0.5051 H   0  0  0  0  0  0  0  0  0  0  0  0
  1  2  1  0  0  0  0
  1 28  1  0  0  0  0
  1 29  1  0  0  0  0
  1 30  1  0  0  0  0
  2  3  1  0  0  0  0
  2 31  1  0  0  0  0
  2 32  1  0  0  0  0
  3  4  2  0  0  0  0
  3  5  2  0  0  0  0
  3  6  1  0  0  0  0
  4 33  1  0  0  0  0
  6  7  1  0  0  0  0
  6 27  2  0  0  0  0
  7  8  2  0  0  0  0
  7 34  1  0  0  0  0
  8  9  1  0  0  0  0
  8 35  1  0  0  0  0
  9 10  1  0  0  0  0
  9 26  2  0  0  0  0
 10 11  1  0  0  0  0
 10 36  1  0  0  0  0
 11 12  1  0  0  0  0
 11 25  2  0  0  0  0
 12 13  2  0  0  0  0
 13 14  1  0  0  0  0
 13 37  1  0  0  0  0
 14 15  1  0  0  0  0
 14 16  2  0  0  0  0
 16 17  1  0  0  0  0
 16 25  1  0  0  0  0
 17 38  1  0  0  0  0
 18 22  1  0  0  0  0
 18 19  1  0  0  0  0
 18 17  1  0  0  0  0
 18 39  1  1  0  0  0
 19 20  1  0  0  0  0
 19 40  1  0  0  0  0
 19 41  1  0  0  0  0
 20 21  1  0  0  0  0
 21 42  1  0  0  0  0
 21 43  1  0  0  0  0
 21 44  1  0  0  0  0
 22 23  1  0  0  0  0
 22 24  1  0  0  0  0
 22 45  1  6  0  0  0
 23 46  1  0  0  0  0
 23 47  1  0  0  0  0
 23 48  1  0  0  0  0
 24 49  1  0  0  0  0
 26 27  1  0  0  0  0
 26 50  1  0  0  0  0
 27 51  1  0  0  0  0
M  END
$$$$
