CHEMBL2018754
 OpenBabel04072215363D

 53 55  0  0  0  0  0  0  0  0999 V2000
    0.8990    6.7468    2.1312 C   0  0  0  0  0  0  0  0  0  0  0  0
    2.1398    5.8808    2.2437 C   0  0  0  0  0  0  0  0  0  0  0  0
    2.8310    5.6384    0.8979 C   0  0  0  0  0  0  0  0  0  0  0  0
    4.0375    4.7310    1.1170 C   0  0  0  0  0  0  0  0  0  0  0  0
    4.7464    4.4116   -0.0874 O   0  0  0  0  0  0  0  0  0  0  0  0
    5.8932    5.1300   -0.2303 C   0  0  0  0  0  0  0  0  0  0  0  0
    6.0250    6.2710    0.1879 O   0  0  0  0  0  0  0  0  0  0  0  0
    6.8495    4.3383   -0.8026 N   0  0  0  0  0  0  0  0  0  0  0  0
    8.2466    4.5607   -0.8154 C   0  0  0  0  0  0  0  0  0  0  0  0
    8.8434    5.6333   -0.1450 C   0  0  0  0  0  0  0  0  0  0  0  0
   10.2344    5.8118   -0.1564 C   0  0  0  0  0  0  0  0  0  0  0  0
   11.0720    4.9080   -0.8152 C   0  0  0  0  0  0  0  0  0  0  0  0
   12.4612    5.1449   -0.8758 N   0  0  0  0  0  0  0  0  0  0  0  0
   13.4712    4.1571   -0.9968 C   0  0  0  0  0  0  0  0  0  0  0  0
   13.2398    2.9426   -0.4697 N   0  0  0  0  0  0  0  0  0  0  0  0
   14.1781    2.0197   -0.6718 C   0  0  0  0  0  0  0  0  0  0  0  0
   15.3072    2.1840   -1.3762 N   0  0  0  0  0  0  0  0  0  0  0  0
   15.5310    3.3866   -1.9049 C   0  0  0  0  0  0  0  0  0  0  0  0
   16.6135    3.5979   -2.7507 C   0  0  0  0  0  0  0  0  0  0  0  0
   16.8828    4.8303   -3.3991 C   0  0  0  0  0  0  0  0  0  0  0  0
   17.7739    4.7200   -4.4356 O   0  0  0  0  0  0  0  0  0  0  0  0
   18.9929    5.4424   -4.3425 C   0  0  0  0  0  0  0  0  0  0  0  0
   16.0595    5.9208   -3.1240 C   0  0  0  0  0  0  0  0  0  0  0  0
   16.0367    7.2075   -3.5644 O   0  0  0  0  0  0  0  0  0  0  0  0
   16.9899    7.7347   -4.4548 C   0  0  0  0  0  0  0  0  0  0  0  0
   14.9604    5.7127   -2.2714 C   0  0  0  0  0  0  0  0  0  0  0  0
   14.6550    4.4555   -1.6999 C   0  0  0  0  0  0  0  0  0  0  0  0
   10.4738    3.8382   -1.4946 C   0  0  0  0  0  0  0  0  0  0  0  0
    9.0845    3.6577   -1.4862 C   0  0  0  0  0  0  0  0  0  0  0  0
    8.4342    2.2965   -2.3375 Cl  0  0  0  0  0  0  0  0  0  0  0  0
    0.4479    6.8795    3.1207 H   0  0  0  0  0  0  0  0  0  0  0  0
    0.1525    6.2827    1.4799 H   0  0  0  0  0  0  0  0  0  0  0  0
    1.1429    7.7371    1.7357 H   0  0  0  0  0  0  0  0  0  0  0  0
    1.8591    4.9188    2.6896 H   0  0  0  0  0  0  0  0  0  0  0  0
    2.8435    6.3586    2.9365 H   0  0  0  0  0  0  0  0  0  0  0  0
    3.1438    6.5890    0.4496 H   0  0  0  0  0  0  0  0  0  0  0  0
    2.1397    5.1738    0.1849 H   0  0  0  0  0  0  0  0  0  0  0  0
    3.7053    3.7750    1.5350 H   0  0  0  0  0  0  0  0  0  0  0  0
    4.7125    5.1692    1.8643 H   0  0  0  0  0  0  0  0  0  0  0  0
    6.5200    3.4524   -1.1687 H   0  0  0  0  0  0  0  0  0  0  0  0
    8.2553    6.3504    0.4195 H   0  0  0  0  0  0  0  0  0  0  0  0
   10.6457    6.6685    0.3722 H   0  0  0  0  0  0  0  0  0  0  0  0
   12.7810    5.9003   -0.2805 H   0  0  0  0  0  0  0  0  0  0  0  0
   14.0000    1.0447   -0.2281 H   0  0  0  0  0  0  0  0  0  0  0  0
   17.2428    2.7364   -2.9850 H   0  0  0  0  0  0  0  0  0  0  0  0
   19.8193    4.7808   -4.6210 H   0  0  0  0  0  0  0  0  0  0  0  0
   19.1916    5.8642   -3.3531 H   0  0  0  0  0  0  0  0  0  0  0  0
   18.9812    6.2254   -5.1054 H   0  0  0  0  0  0  0  0  0  0  0  0
   16.6941    8.7679   -4.6656 H   0  0  0  0  0  0  0  0  0  0  0  0
   16.9913    7.1971   -5.4051 H   0  0  0  0  0  0  0  0  0  0  0  0
   17.9746    7.7945   -3.9866 H   0  0  0  0  0  0  0  0  0  0  0  0
   14.2754    6.5441   -2.1173 H   0  0  0  0  0  0  0  0  0  0  0  0
   11.0944    3.1398   -2.0504 H   0  0  0  0  0  0  0  0  0  0  0  0
  1  2  1  0  0  0  0
  1 31  1  0  0  0  0
  1 32  1  0  0  0  0
  1 33  1  0  0  0  0
  2  3  1  0  0  0  0
  2 34  1  0  0  0  0
  2 35  1  0  0  0  0
  3  4  1  0  0  0  0
  3 36  1  0  0  0  0
  3 37  1  0  0  0  0
  4  5  1  0  0  0  0
  4 38  1  0  0  0  0
  4 39  1  0  0  0  0
  5  6  1  0  0  0  0
  6  7  2  0  0  0  0
  6  8  1  0  0  0  0
  8  9  1  0  0  0  0
  8 40  1  0  0  0  0
  9 10  1  0  0  0  0
  9 29  2  0  0  0  0
 10 11  2  0  0  0  0
 10 41  1  0  0  0  0
 11 12  1  0  0  0  0
 11 42  1  0  0  0  0
 12 13  1  0  0  0  0
 12 28  2  0  0  0  0
 13 14  1  0  0  0  0
 13 43  1  0  0  0  0
 14 15  1  0  0  0  0
 14 27  2  0  0  0  0
 15 16  2  0  0  0  0
 16 17  1  0  0  0  0
 16 44  1  0  0  0  0
 17 18  2  0  0  0  0
 18 19  1  0  0  0  0
 18 27  1  0  0  0  0
 19 20  2  0  0  0  0
 19 45  1  0  0  0  0
 20 21  1  0  0  0  0
 20 23  1  0  0  0  0
 21 22  1  0  0  0  0
 22 46  1  0  0  0  0
 22 47  1  0  0  0  0
 22 48  1  0  0  0  0
 23 24  1  0  0  0  0
 23 26  2  0  0  0  0
 24 25  1  0  0  0  0
 25 49  1  0  0  0  0
 25 50  1  0  0  0  0
 25 51  1  0  0  0  0
 26 27  1  0  0  0  0
 26 52  1  0  0  0  0
 28 29  1  0  0  0  0
 28 53  1  0  0  0  0
 29 30  1  0  0  0  0
M  END
$$$$
