CHEMBL3924442
 OpenBabel04072215373D

 66 71  0  0  1  0  0  0  0  0999 V2000
   -1.9468    1.7746   -6.4052 C   0  0  0  0  0  0  0  0  0  0  0  0
   -1.1277    1.3590   -5.3118 O   0  0  0  0  0  0  0  0  0  0  0  0
    0.2197    1.5616   -5.4385 C   0  0  0  0  0  0  0  0  0  0  0  0
    0.8054    2.2089   -6.5327 C   0  0  0  0  0  0  0  0  0  0  0  0
    2.2043    2.3893   -6.6179 C   0  0  0  0  0  0  0  0  0  0  0  0
    2.8610    3.0924   -7.6350 C   0  0  0  0  0  0  0  0  0  0  0  0
    2.0990    3.7058   -8.6632 N   0  0  0  0  0  0  0  0  0  0  0  0
    2.5774    4.7171   -9.5196 C   0  0  0  0  0  0  0  0  0  0  0  0
    2.1917    4.7466  -10.8563 C   0  0  0  0  0  0  0  0  0  0  0  0
    2.7234    5.7115  -11.7140 C   0  0  0  0  0  0  0  0  0  0  0  0
    3.6305    6.6869  -11.2675 C   0  0  0  0  0  0  0  0  0  0  0  0
    4.1304    7.6114  -12.1707 N   0  0  0  0  0  0  0  0  0  0  0  0
    4.6921    8.8883  -11.7048 C   0  0  0  0  0  0  0  0  0  0  0  0
    4.6220    9.9052  -12.8670 C   0  0  0  0  0  0  0  0  0  0  0  0
    5.3315    9.4388  -14.0831 N   0  0  0  0  0  0  0  0  0  0  0  0
    5.1509   10.3986  -15.1690 C   0  0  0  0  0  0  0  0  0  0  0  0
    4.8107    8.1084  -14.4815 C   0  0  0  0  0  0  0  0  0  0  0  0
    4.8644    7.0738  -13.3346 C   0  0  0  0  0  0  0  0  0  0  0  0
    3.9376    6.6993   -9.9072 C   0  0  0  0  0  0  0  0  0  0  0  0
    3.4095    5.7364   -9.0452 C   0  0  0  0  0  0  0  0  0  0  0  0
    4.1995    3.2351   -7.6484 N   0  0  0  0  0  0  0  0  0  0  0  0
    4.8830    2.6832   -6.6487 C   0  0  0  0  0  0  0  0  0  0  0  0
    4.3589    2.0104   -5.6241 N   0  0  0  0  0  0  0  0  0  0  0  0
    3.0308    1.8798   -5.6158 C   0  0  0  0  0  0  0  0  0  0  0  0
    2.4455    1.2379   -4.5389 C   0  0  0  0  0  0  0  0  0  0  0  0
    1.0554    1.1133   -4.4032 C   0  0  0  0  0  0  0  0  0  0  0  0
    0.4696    0.5795   -3.2717 O   0  0  0  0  0  0  0  0  0  0  0  0
    1.1871    0.7908   -2.0427 C   0  0  1  0  0  0  0  0  0  0  0  0
    1.2965    2.2727   -1.6702 C   0  0  0  0  0  0  0  0  0  0  0  0
    0.9551    2.4356   -0.2851 O   0  0  0  0  0  0  0  0  0  0  0  0
    0.8089    1.1367    0.2865 C   0  0  2  0  0  0  0  0  0  0  0  0
    2.1219    0.5892    0.8117 C   0  0  1  0  0  0  0  0  0  0  0  0
    2.2623    0.8601    2.1318 F   0  0  0  0  0  0  0  0  0  0  0  0
    1.9786   -0.8989    0.5784 C   0  0  0  0  0  0  0  0  0  0  0  0
    1.0101   -1.0965   -0.4713 O   0  0  0  0  0  0  0  0  0  0  0  0
    0.4652    0.1853   -0.8381 C   0  0  2  0  0  0  0  0  0  0  0  0
   -2.9725    1.4468   -6.2150 H   0  0  0  0  0  0  0  0  0  0  0  0
   -1.6287    1.3144   -7.3487 H   0  0  0  0  0  0  0  0  0  0  0  0
   -1.9538    2.8674   -6.4884 H   0  0  0  0  0  0  0  0  0  0  0  0
    0.1895    2.6166   -7.3278 H   0  0  0  0  0  0  0  0  0  0  0  0
    1.5562    3.0053   -9.1533 H   0  0  0  0  0  0  0  0  0  0  0  0
    1.4950    4.0168  -11.2579 H   0  0  0  0  0  0  0  0  0  0  0  0
    2.4037    5.7117  -12.7523 H   0  0  0  0  0  0  0  0  0  0  0  0
    5.7317    8.7574  -11.3758 H   0  0  0  0  0  0  0  0  0  0  0  0
    4.1150    9.2933  -10.8652 H   0  0  0  0  0  0  0  0  0  0  0  0
    5.0556   10.8528  -12.5280 H   0  0  0  0  0  0  0  0  0  0  0  0
    3.5635   10.0896  -13.0986 H   0  0  0  0  0  0  0  0  0  0  0  0
    5.5545   11.3761  -14.8847 H   0  0  0  0  0  0  0  0  0  0  0  0
    4.0961   10.5266  -15.4385 H   0  0  0  0  0  0  0  0  0  0  0  0
    5.6983   10.0745  -16.0603 H   0  0  0  0  0  0  0  0  0  0  0  0
    5.3955    7.7231  -15.3249 H   0  0  0  0  0  0  0  0  0  0  0  0
    3.7675    8.1961  -14.8154 H   0  0  0  0  0  0  0  0  0  0  0  0
    5.9084    6.8740  -13.0565 H   0  0  0  0  0  0  0  0  0  0  0  0
    4.4432    6.1305  -13.7001 H   0  0  0  0  0  0  0  0  0  0  0  0
    4.6141    7.4368   -9.4876 H   0  0  0  0  0  0  0  0  0  0  0  0
    3.6760    5.7766   -7.9925 H   0  0  0  0  0  0  0  0  0  0  0  0
    5.9597    2.8088   -6.6630 H   0  0  0  0  0  0  0  0  0  0  0  0
    3.1266    0.8531   -3.7886 H   0  0  0  0  0  0  0  0  0  0  0  0
    2.1683    0.3078   -2.1082 H   0  0  0  0  0  0  0  0  0  0  0  0
    0.6560    2.9257   -2.2668 H   0  0  0  0  0  0  0  0  0  0  0  0
    2.3328    2.6125   -1.7885 H   0  0  0  0  0  0  0  0  0  0  0  0
    0.0524    1.1603    1.0776 H   0  0  0  0  0  0  0  0  0  0  0  0
    2.9899    1.0044    0.2878 H   0  0  0  0  0  0  0  0  0  0  0  0
    1.6308   -1.4151    1.4787 H   0  0  0  0  0  0  0  0  0  0  0  0
    2.9275   -1.3503    0.2726 H   0  0  0  0  0  0  0  0  0  0  0  0
   -0.6112    0.0884   -1.0113 H   0  0  0  0  0  0  0  0  0  0  0  0
  1  2  1  0  0  0  0
  1 37  1  0  0  0  0
  1 38  1  0  0  0  0
  1 39  1  0  0  0  0
  2  3  1  0  0  0  0
  3  4  1  0  0  0  0
  3 26  2  0  0  0  0
  4  5  2  0  0  0  0
  4 40  1  0  0  0  0
  5  6  1  0  0  0  0
  5 24  1  0  0  0  0
  6  7  1  0  0  0  0
  6 21  2  0  0  0  0
  7  8  1  0  0  0  0
  7 41  1  0  0  0  0
  8  9  1  0  0  0  0
  8 20  2  0  0  0  0
  9 10  2  0  0  0  0
  9 42  1  0  0  0  0
 10 11  1  0  0  0  0
 10 43  1  0  0  0  0
 11 12  1  0  0  0  0
 11 19  2  0  0  0  0
 12 13  1  0  0  0  0
 12 18  1  0  0  0  0
 13 14  1  0  0  0  0
 13 44  1  0  0  0  0
 13 45  1  0  0  0  0
 14 15  1  0  0  0  0
 14 46  1  0  0  0  0
 14 47  1  0  0  0  0
 15 16  1  0  0  0  0
 15 17  1  0  0  0  0
 16 48  1  0  0  0  0
 16 49  1  0  0  0  0
 16 50  1  0  0  0  0
 17 18  1  0  0  0  0
 17 51  1  0  0  0  0
 17 52  1  0  0  0  0
 18 53  1  0  0  0  0
 18 54  1  0  0  0  0
 19 20  1  0  0  0  0
 19 55  1  0  0  0  0
 20 56  1  0  0  0  0
 21 22  1  0  0  0  0
 22 23  2  0  0  0  0
 22 57  1  0  0  0  0
 23 24  1  0  0  0  0
 24 25  2  0  0  0  0
 25 26  1  0  0  0  0
 25 58  1  0  0  0  0
 26 27  1  0  0  0  0
 28 29  1  0  0  0  0
 28 36  1  0  0  0  0
 28 27  1  0  0  0  0
 28 59  1  6  0  0  0
 29 30  1  0  0  0  0
 29 60  1  0  0  0  0
 29 61  1  0  0  0  0
 30 31  1  0  0  0  0
 31 32  1  0  0  0  0
 31 36  1  0  0  0  0
 31 62  1  1  0  0  0
 32 33  1  0  0  0  0
 32 34  1  0  0  0  0
 32 63  1  6  0  0  0
 34 35  1  0  0  0  0
 34 64  1  0  0  0  0
 34 65  1  0  0  0  0
 35 36  1  0  0  0  0
 36 66  1  6  0  0  0
M  END
$$$$
