CHEMBL3633690
 OpenBabel04072215373D

 52 55  0  0  0  0  0  0  0  0999 V2000
    7.3436    5.1463    2.2249 C   0  0  0  0  0  0  0  0  0  0  0  0
    7.0617    3.8454    1.4983 C   0  0  0  0  0  0  0  0  0  0  0  0
    7.4081    3.9897   -0.2471 S   0  0  0  0  0  0  0  0  0  0  0  0
    6.5669    5.0449   -0.7829 O   0  0  0  0  0  0  0  0  0  0  0  0
    8.8441    4.0134   -0.4416 O   0  0  0  0  0  0  0  0  0  0  0  0
    6.8149    2.4595   -0.9271 C   0  0  0  0  0  0  0  0  0  0  0  0
    5.7957    2.4522   -1.8732 C   0  0  0  0  0  0  0  0  0  0  0  0
    5.3462    1.2340   -2.3858 C   0  0  0  0  0  0  0  0  0  0  0  0
    5.9410    0.0290   -1.9845 C   0  0  0  0  0  0  0  0  0  0  0  0
    5.5572   -1.2136   -2.4385 O   0  0  0  0  0  0  0  0  0  0  0  0
    4.3545   -1.2642   -3.2035 C   0  0  0  0  0  0  0  0  0  0  0  0
    7.0372    0.0457   -1.0878 C   0  0  0  0  0  0  0  0  0  0  0  0
    7.7399   -1.1632   -0.8204 N   0  0  0  0  0  0  0  0  0  0  0  0
    8.9635   -1.3177   -0.2670 C   0  0  0  0  0  0  0  0  0  0  0  0
    9.8119   -2.3791   -0.4586 C   0  0  0  0  0  0  0  0  0  0  0  0
   10.9361   -2.0586    0.2730 N   0  0  0  0  0  0  0  0  0  0  0  0
   12.1309   -2.7957    0.4672 C   0  0  0  0  0  0  0  0  0  0  0  0
   13.1105   -2.2894    1.3355 C   0  0  0  0  0  0  0  0  0  0  0  0
   14.2675   -3.0214    1.5920 C   0  0  0  0  0  0  0  0  0  0  0  0
   14.4524   -4.2620    0.9816 C   0  0  0  0  0  0  0  0  0  0  0  0
   15.6008   -4.9577    1.2522 O   0  0  0  0  0  0  0  0  0  0  0  0
   13.4885   -4.7894    0.1023 C   0  0  0  0  0  0  0  0  0  0  0  0
   13.6334   -6.1160   -0.4916 C   0  0  0  0  0  0  0  0  0  0  0  0
   14.1989   -7.2927    0.0749 C   0  0  0  0  0  0  0  0  0  0  0  0
   14.1006   -8.3040   -0.8523 C   0  0  0  0  0  0  0  0  0  0  0  0
   13.4994   -7.7899   -1.9696 N   0  0  0  0  0  0  0  0  0  0  0  0
   13.2010   -6.4656   -1.7584 C   0  0  0  0  0  0  0  0  0  0  0  0
   12.3298   -4.0342   -0.1582 C   0  0  0  0  0  0  0  0  0  0  0  0
   10.7560   -0.8619    0.8794 N   0  0  0  0  0  0  0  0  0  0  0  0
    9.5555   -0.4146    0.5607 N   0  0  0  0  0  0  0  0  0  0  0  0
    7.4255    1.2716   -0.5313 C   0  0  0  0  0  0  0  0  0  0  0  0
    7.1123    5.0483    3.2899 H   0  0  0  0  0  0  0  0  0  0  0  0
    6.7368    5.9622    1.8193 H   0  0  0  0  0  0  0  0  0  0  0  0
    8.3957    5.4321    2.1262 H   0  0  0  0  0  0  0  0  0  0  0  0
    6.0074    3.5739    1.6072 H   0  0  0  0  0  0  0  0  0  0  0  0
    7.6840    3.0430    1.9059 H   0  0  0  0  0  0  0  0  0  0  0  0
    5.3536    3.3820   -2.2238 H   0  0  0  0  0  0  0  0  0  0  0  0
    4.5479    1.2634   -3.1201 H   0  0  0  0  0  0  0  0  0  0  0  0
    4.1119   -2.3152   -3.3868 H   0  0  0  0  0  0  0  0  0  0  0  0
    4.4942   -0.7809   -4.1761 H   0  0  0  0  0  0  0  0  0  0  0  0
    3.5114   -0.8213   -2.6607 H   0  0  0  0  0  0  0  0  0  0  0  0
    7.3472   -1.9155   -1.3841 H   0  0  0  0  0  0  0  0  0  0  0  0
    9.7234   -3.2817   -1.0389 H   0  0  0  0  0  0  0  0  0  0  0  0
   12.9823   -1.3312    1.8377 H   0  0  0  0  0  0  0  0  0  0  0  0
   15.0034   -2.6153    2.2799 H   0  0  0  0  0  0  0  0  0  0  0  0
   16.1620   -4.4349    1.8460 H   0  0  0  0  0  0  0  0  0  0  0  0
   14.6313   -7.3860    1.0636 H   0  0  0  0  0  0  0  0  0  0  0  0
   14.4158   -9.3375   -0.8102 H   0  0  0  0  0  0  0  0  0  0  0  0
   13.2995   -8.3059   -2.8138 H   0  0  0  0  0  0  0  0  0  0  0  0
   12.7228   -5.8911   -2.5403 H   0  0  0  0  0  0  0  0  0  0  0  0
   11.5826   -4.4450   -0.8300 H   0  0  0  0  0  0  0  0  0  0  0  0
    8.2327    1.3290    0.1896 H   0  0  0  0  0  0  0  0  0  0  0  0
  1  2  1  0  0  0  0
  1 32  1  0  0  0  0
  1 33  1  0  0  0  0
  1 34  1  0  0  0  0
  2  3  1  0  0  0  0
  2 35  1  0  0  0  0
  2 36  1  0  0  0  0
  3  4  2  0  0  0  0
  3  5  2  0  0  0  0
  3  6  1  0  0  0  0
  6  7  1  0  0  0  0
  6 31  2  0  0  0  0
  7  8  2  0  0  0  0
  7 37  1  0  0  0  0
  8  9  1  0  0  0  0
  8 38  1  0  0  0  0
  9 10  1  0  0  0  0
  9 12  2  0  0  0  0
 10 11  1  0  0  0  0
 11 39  1  0  0  0  0
 11 40  1  0  0  0  0
 11 41  1  0  0  0  0
 12 13  1  0  0  0  0
 12 31  1  0  0  0  0
 13 14  1  0  0  0  0
 13 42  1  0  0  0  0
 14 15  2  0  0  0  0
 14 30  1  0  0  0  0
 15 16  1  0  0  0  0
 15 43  1  0  0  0  0
 16 17  1  0  0  0  0
 16 29  1  0  0  0  0
 17 18  1  0  0  0  0
 17 28  2  0  0  0  0
 18 19  2  0  0  0  0
 18 44  1  0  0  0  0
 19 20  1  0  0  0  0
 19 45  1  0  0  0  0
 20 21  1  0  0  0  0
 20 22  2  0  0  0  0
 21 46  1  0  0  0  0
 22 23  1  0  0  0  0
 22 28  1  0  0  0  0
 23 24  1  0  0  0  0
 23 27  2  0  0  0  0
 24 25  2  0  0  0  0
 24 47  1  0  0  0  0
 25 26  1  0  0  0  0
 25 48  1  0  0  0  0
 26 27  1  0  0  0  0
 26 49  1  0  0  0  0
 27 50  1  0  0  0  0
 28 51  1  0  0  0  0
 29 30  2  0  0  0  0
 31 52  1  0  0  0  0
M  END
$$$$
