CHEMBL3690414
 OpenBabel04072215373D

 49 52  0  0  0  0  0  0  0  0999 V2000
    1.1803    1.3962    0.6717 C   0  0  0  0  0  0  0  0  0  0  0  0
    1.8923    0.4843   -0.1590 O   0  0  0  0  0  0  0  0  0  0  0  0
    2.8424    1.1089   -0.9398 C   0  0  0  0  0  0  0  0  0  0  0  0
    3.5816    0.3155   -1.7851 C   0  0  0  0  0  0  0  0  0  0  0  0
    4.5187    0.9256   -2.6145 C   0  0  0  0  0  0  0  0  0  0  0  0
    4.6579    2.3099   -2.5689 C   0  0  0  0  0  0  0  0  0  0  0  0
    5.5916    3.0661   -3.4376 C   0  0  0  0  0  0  0  0  0  0  0  0
    6.2414    4.3062   -2.9885 C   0  0  0  0  0  0  0  0  0  0  0  0
    7.0667    4.9778   -3.8098 C   0  0  0  0  0  0  0  0  0  0  0  0
    7.2807    4.5133   -5.1090 N   0  0  0  0  0  0  0  0  0  0  0  0
    8.0544    5.0071   -6.1552 C   0  0  0  0  0  0  0  0  0  0  0  0
    8.9114    6.2024   -6.1780 C   0  0  0  0  0  0  0  0  0  0  0  0
   10.0945    6.1506   -6.9321 C   0  0  0  0  0  0  0  0  0  0  0  0
   10.9328    7.2547   -7.0277 C   0  0  0  0  0  0  0  0  0  0  0  0
   10.6043    8.4350   -6.3703 C   0  0  0  0  0  0  0  0  0  0  0  0
    9.4253    8.5377   -5.6301 C   0  0  0  0  0  0  0  0  0  0  0  0
    9.0390    9.7310   -4.9641 N   0  0  0  0  0  0  0  0  0  0  0  0
    9.6958   10.9385   -5.0153 C   0  0  0  0  0  0  0  0  0  0  0  0
   10.7028   11.2069   -5.6559 O   0  0  0  0  0  0  0  0  0  0  0  0
    9.1197   11.8879   -4.1968 N   0  0  0  0  0  0  0  0  0  0  0  0
    9.7122   13.2315   -4.1845 C   0  0  0  0  0  0  0  0  0  0  0  0
    9.3465   14.1413   -5.3674 C   0  0  0  0  0  0  0  0  0  0  0  0
    8.3800   13.6033   -6.1450 F   0  0  0  0  0  0  0  0  0  0  0  0
    8.8631   15.3238   -4.9063 F   0  0  0  0  0  0  0  0  0  0  0  0
   10.4094   14.4253   -6.1505 F   0  0  0  0  0  0  0  0  0  0  0  0
    8.5821    7.4131   -5.5402 C   0  0  0  0  0  0  0  0  0  0  0  0
    7.8780    4.0680   -7.1656 C   0  0  0  0  0  0  0  0  0  0  0  0
    7.0381    3.0571   -6.8045 N   0  0  0  0  0  0  0  0  0  0  0  0
    6.6829    3.3422   -5.5749 C   0  0  0  0  0  0  0  0  0  0  0  0
    5.8160    2.6333   -4.6997 C   0  0  0  0  0  0  0  0  0  0  0  0
    3.9316    3.0480   -1.6983 N   0  0  0  0  0  0  0  0  0  0  0  0
    3.0154    2.4455   -0.8775 N   0  0  0  0  0  0  0  0  0  0  0  0
    0.3798    0.8406    1.1685 H   0  0  0  0  0  0  0  0  0  0  0  0
    0.7119    2.1975    0.0887 H   0  0  0  0  0  0  0  0  0  0  0  0
    1.8387    1.8069    1.4448 H   0  0  0  0  0  0  0  0  0  0  0  0
    3.4326   -0.7603   -1.8113 H   0  0  0  0  0  0  0  0  0  0  0  0
    5.1188    0.3152   -3.2802 H   0  0  0  0  0  0  0  0  0  0  0  0
    6.0422    4.6598   -1.9802 H   0  0  0  0  0  0  0  0  0  0  0  0
    7.5770    5.8742   -3.4909 H   0  0  0  0  0  0  0  0  0  0  0  0
   10.3810    5.2455   -7.4633 H   0  0  0  0  0  0  0  0  0  0  0  0
   11.8434    7.2027   -7.6190 H   0  0  0  0  0  0  0  0  0  0  0  0
   11.3015    9.2598   -6.4638 H   0  0  0  0  0  0  0  0  0  0  0  0
    8.2041    9.6866   -4.3991 H   0  0  0  0  0  0  0  0  0  0  0  0
    8.1165   11.8257   -4.0707 H   0  0  0  0  0  0  0  0  0  0  0  0
   10.8025   13.1320   -4.1377 H   0  0  0  0  0  0  0  0  0  0  0  0
    9.3937   13.6996   -3.2475 H   0  0  0  0  0  0  0  0  0  0  0  0
    7.6446    7.4998   -5.0003 H   0  0  0  0  0  0  0  0  0  0  0  0
    8.3271    4.0766   -8.1513 H   0  0  0  0  0  0  0  0  0  0  0  0
    5.3474    1.7469   -5.1128 H   0  0  0  0  0  0  0  0  0  0  0  0
  1  2  1  0  0  0  0
  1 33  1  0  0  0  0
  1 34  1  0  0  0  0
  1 35  1  0  0  0  0
  2  3  1  0  0  0  0
  3  4  1  0  0  0  0
  3 32  2  0  0  0  0
  4  5  2  0  0  0  0
  4 36  1  0  0  0  0
  5  6  1  0  0  0  0
  5 37  1  0  0  0  0
  6  7  1  0  0  0  0
  6 31  2  0  0  0  0
  7  8  1  0  0  0  0
  7 30  2  0  0  0  0
  8  9  2  0  0  0  0
  8 38  1  0  0  0  0
  9 10  1  0  0  0  0
  9 39  1  0  0  0  0
 10 11  1  0  0  0  0
 10 29  1  0  0  0  0
 11 12  1  0  0  0  0
 11 27  2  0  0  0  0
 12 13  1  0  0  0  0
 12 26  2  0  0  0  0
 13 14  2  0  0  0  0
 13 40  1  0  0  0  0
 14 15  1  0  0  0  0
 14 41  1  0  0  0  0
 15 16  2  0  0  0  0
 15 42  1  0  0  0  0
 16 17  1  0  0  0  0
 16 26  1  0  0  0  0
 17 18  1  0  0  0  0
 17 43  1  0  0  0  0
 18 19  2  0  0  0  0
 18 20  1  0  0  0  0
 20 21  1  0  0  0  0
 20 44  1  0  0  0  0
 21 22  1  0  0  0  0
 21 45  1  0  0  0  0
 21 46  1  0  0  0  0
 22 23  1  0  0  0  0
 22 24  1  0  0  0  0
 22 25  1  0  0  0  0
 26 47  1  0  0  0  0
 27 28  1  0  0  0  0
 27 48  1  0  0  0  0
 28 29  2  0  0  0  0
 29 30  1  0  0  0  0
 30 49  1  0  0  0  0
 31 32  1  0  0  0  0
M  END
$$$$
