CHEMBL3889965
 OpenBabel04072215373D

 63 66  0  0  0  0  0  0  0  0999 V2000
    4.0645   -4.0253    2.9788 C   0  0  0  0  0  0  0  0  0  0  0  0
    3.9273   -3.7130    1.5933 O   0  0  0  0  0  0  0  0  0  0  0  0
    3.5888   -2.3448    1.3984 C   0  0  0  0  0  0  0  0  0  0  0  0
    4.6810   -1.3950    1.8911 C   0  0  0  0  0  0  0  0  0  0  0  0
    4.4872   -0.6141    2.8191 O   0  0  0  0  0  0  0  0  0  0  0  0
    5.8666   -1.5330    1.1841 N   0  0  0  0  0  0  0  0  0  0  0  0
    6.9963   -0.7484    1.4605 C   0  0  0  0  0  0  0  0  0  0  0  0
    7.6341   -0.1234    0.3940 C   0  0  0  0  0  0  0  0  0  0  0  0
    8.6812    0.7783    0.6140 C   0  0  0  0  0  0  0  0  0  0  0  0
    9.1983    1.5834   -0.4358 N   0  0  0  0  0  0  0  0  0  0  0  0
    8.4226    1.9687   -1.5199 C   0  0  0  0  0  0  0  0  0  0  0  0
    7.2218    1.7337   -1.6269 O   0  0  0  0  0  0  0  0  0  0  0  0
    9.1535    2.6315   -2.4991 N   0  0  0  0  0  0  0  0  0  0  0  0
    8.4830    3.0796   -3.6678 C   0  0  0  0  0  0  0  0  0  0  0  0
    7.2515    3.7420   -3.5746 C   0  0  0  0  0  0  0  0  0  0  0  0
    6.5088    4.0416   -4.7191 C   0  0  0  0  0  0  0  0  0  0  0  0
    7.0224    3.7449   -5.9826 C   0  0  0  0  0  0  0  0  0  0  0  0
    6.3453    3.9988   -7.1589 O   0  0  0  0  0  0  0  0  0  0  0  0
    5.5993    5.1549   -7.2787 C   0  0  0  0  0  0  0  0  0  0  0  0
    5.9240    6.3440   -6.6289 C   0  0  0  0  0  0  0  0  0  0  0  0
    5.0740    7.4108   -6.7893 C   0  0  0  0  0  0  0  0  0  0  0  0
    3.9912    7.3848   -7.5858 N   0  0  0  0  0  0  0  0  0  0  0  0
    3.7122    6.2645   -8.2731 C   0  0  0  0  0  0  0  0  0  0  0  0
    2.6069    6.2536   -9.1434 N   0  0  0  0  0  0  0  0  0  0  0  0
    1.7590    7.3321   -9.3171 C   0  0  0  0  0  0  0  0  0  0  0  0
    1.8004    8.4156   -8.7467 O   0  0  0  0  0  0  0  0  0  0  0  0
    0.6606    7.0951  -10.3099 C   0  0  0  0  0  0  0  0  0  0  0  0
   -0.1202    8.2770  -10.8545 C   0  0  0  0  0  0  0  0  0  0  0  0
   -0.7741    7.3322   -9.8902 C   0  0  0  0  0  0  0  0  0  0  0  0
    4.4940    5.1208   -8.1448 C   0  0  0  0  0  0  0  0  0  0  0  0
    8.2589    3.0978   -6.0682 C   0  0  0  0  0  0  0  0  0  0  0  0
    8.7423    2.7333   -7.2654 F   0  0  0  0  0  0  0  0  0  0  0  0
    9.0049    2.7856   -4.9258 C   0  0  0  0  0  0  0  0  0  0  0  0
    9.1978    0.9118    1.9069 C   0  0  0  0  0  0  0  0  0  0  0  0
    8.5992    0.2341    2.9888 C   0  0  0  0  0  0  0  0  0  0  0  0
    9.1228    0.3654    4.3967 C   0  0  0  0  0  0  0  0  0  0  0  0
   10.1839    1.2142    4.5014 F   0  0  0  0  0  0  0  0  0  0  0  0
    8.1871    0.8292    5.2688 F   0  0  0  0  0  0  0  0  0  0  0  0
    9.5506   -0.8248    4.9039 F   0  0  0  0  0  0  0  0  0  0  0  0
    7.4734   -0.5726    2.7556 C   0  0  0  0  0  0  0  0  0  0  0  0
    4.2919   -5.0875    3.0716 H   0  0  0  0  0  0  0  0  0  0  0  0
    3.1345   -3.8120    3.5155 H   0  0  0  0  0  0  0  0  0  0  0  0
    4.8916   -3.4637    3.4267 H   0  0  0  0  0  0  0  0  0  0  0  0
    2.6410   -2.1111    1.8959 H   0  0  0  0  0  0  0  0  0  0  0  0
    3.4416   -2.1818    0.3249 H   0  0  0  0  0  0  0  0  0  0  0  0
    5.7719   -1.9007    0.2439 H   0  0  0  0  0  0  0  0  0  0  0  0
    7.2424   -0.2827   -0.6063 H   0  0  0  0  0  0  0  0  0  0  0  0
    9.9694    2.1979   -0.2128 H   0  0  0  0  0  0  0  0  0  0  0  0
   10.0975    2.2881   -2.6140 H   0  0  0  0  0  0  0  0  0  0  0  0
    6.8360    4.0004   -2.6016 H   0  0  0  0  0  0  0  0  0  0  0  0
    5.5292    4.4965   -4.5972 H   0  0  0  0  0  0  0  0  0  0  0  0
    6.7912    6.4417   -5.9897 H   0  0  0  0  0  0  0  0  0  0  0  0
    5.2340    8.3486   -6.2649 H   0  0  0  0  0  0  0  0  0  0  0  0
    2.4299    5.4098   -9.6668 H   0  0  0  0  0  0  0  0  0  0  0  0
    0.8338    6.2883  -11.0147 H   0  0  0  0  0  0  0  0  0  0  0  0
   -0.4409    8.2532  -11.8887 H   0  0  0  0  0  0  0  0  0  0  0  0
    0.1275    9.2722  -10.4960 H   0  0  0  0  0  0  0  0  0  0  0  0
   -1.5429    6.6736  -10.2739 H   0  0  0  0  0  0  0  0  0  0  0  0
   -0.9611    7.6967   -8.8850 H   0  0  0  0  0  0  0  0  0  0  0  0
    4.2677    4.2131   -8.6918 H   0  0  0  0  0  0  0  0  0  0  0  0
    9.9398    2.2487   -5.0437 H   0  0  0  0  0  0  0  0  0  0  0  0
   10.0380    1.5767    2.0972 H   0  0  0  0  0  0  0  0  0  0  0  0
    6.9903   -1.0823    3.5884 H   0  0  0  0  0  0  0  0  0  0  0  0
  1  2  1  0  0  0  0
  1 41  1  0  0  0  0
  1 42  1  0  0  0  0
  1 43  1  0  0  0  0
  2  3  1  0  0  0  0
  3  4  1  0  0  0  0
  3 44  1  0  0  0  0
  3 45  1  0  0  0  0
  4  5  2  0  0  0  0
  4  6  1  0  0  0  0
  6  7  1  0  0  0  0
  6 46  1  0  0  0  0
  7  8  1  0  0  0  0
  7 40  2  0  0  0  0
  8  9  2  0  0  0  0
  8 47  1  0  0  0  0
  9 10  1  0  0  0  0
  9 34  1  0  0  0  0
 10 11  1  0  0  0  0
 10 48  1  0  0  0  0
 11 12  2  0  0  0  0
 11 13  1  0  0  0  0
 13 14  1  0  0  0  0
 13 49  1  0  0  0  0
 14 15  1  0  0  0  0
 14 33  2  0  0  0  0
 15 16  2  0  0  0  0
 15 50  1  0  0  0  0
 16 17  1  0  0  0  0
 16 51  1  0  0  0  0
 17 18  1  0  0  0  0
 17 31  2  0  0  0  0
 18 19  1  0  0  0  0
 19 20  1  0  0  0  0
 19 30  2  0  0  0  0
 20 21  2  0  0  0  0
 20 52  1  0  0  0  0
 21 22  1  0  0  0  0
 21 53  1  0  0  0  0
 22 23  2  0  0  0  0
 23 24  1  0  0  0  0
 23 30  1  0  0  0  0
 24 25  1  0  0  0  0
 24 54  1  0  0  0  0
 25 26  2  0  0  0  0
 25 27  1  0  0  0  0
 27 28  1  0  0  0  0
 27 29  1  0  0  0  0
 27 55  1  0  0  0  0
 28 29  1  0  0  0  0
 28 56  1  0  0  0  0
 28 57  1  0  0  0  0
 29 58  1  0  0  0  0
 29 59  1  0  0  0  0
 30 60  1  0  0  0  0
 31 32  1  0  0  0  0
 31 33  1  0  0  0  0
 33 61  1  0  0  0  0
 34 35  2  0  0  0  0
 34 62  1  0  0  0  0
 35 36  1  0  0  0  0
 35 40  1  0  0  0  0
 36 37  1  0  0  0  0
 36 38  1  0  0  0  0
 36 39  1  0  0  0  0
 40 63  1  0  0  0  0
M  END
$$$$
