CHEMBL408211
 OpenBabel04072215383D

 55 58  0  0  0  0  0  0  0  0999 V2000
    5.0804    1.5163    0.2148 C   0  0  0  0  0  0  0  0  0  0  0  0
    3.9684    0.8746   -0.4073 O   0  0  0  0  0  0  0  0  0  0  0  0
    4.1997   -0.3761   -0.9157 C   0  0  0  0  0  0  0  0  0  0  0  0
    5.2421   -1.1943   -0.4470 C   0  0  0  0  0  0  0  0  0  0  0  0
    5.5542   -2.4182   -1.0253 C   0  0  0  0  0  0  0  0  0  0  0  0
    6.6450   -3.0591   -0.5687 N   0  0  0  0  0  0  0  0  0  0  0  0
    7.0128   -4.2052   -1.1746 C   0  0  0  0  0  0  0  0  0  0  0  0
    6.3481   -4.7478   -2.2512 C   0  0  0  0  0  0  0  0  0  0  0  0
    5.2169   -4.0894   -2.7285 C   0  0  0  0  0  0  0  0  0  0  0  0
    4.6742   -4.7115   -3.8436 O   0  0  0  0  0  0  0  0  0  0  0  0
    4.0200   -3.9894   -4.8123 C   0  0  0  0  0  0  0  0  0  0  0  0
    4.3696   -2.7046   -5.2012 C   0  0  0  0  0  0  0  0  0  0  0  0
    3.4523   -1.9427   -5.9307 C   0  0  0  0  0  0  0  0  0  0  0  0
    2.2449   -2.4867   -6.4463 C   0  0  0  0  0  0  0  0  0  0  0  0
    1.2358   -1.7677   -7.1588 C   0  0  0  0  0  0  0  0  0  0  0  0
    1.2457   -0.2915   -7.3913 C   0  0  0  0  0  0  0  0  0  0  0  0
    0.1930    0.3405   -7.3431 O   0  0  0  0  0  0  0  0  0  0  0  0
    2.4565    0.2937   -7.6996 N   0  0  0  0  0  0  0  0  0  0  0  0
    2.5766    1.7121   -7.9994 C   0  0  0  0  0  0  0  0  0  0  0  0
    3.8380    2.2863   -7.3605 C   0  0  0  0  0  0  0  0  0  0  0  0
    2.5907    1.9108   -9.5089 C   0  0  0  0  0  0  0  0  0  0  0  0
    0.0837   -2.4300   -7.6254 C   0  0  0  0  0  0  0  0  0  0  0  0
   -0.0945   -3.7899   -7.4056 C   0  0  0  0  0  0  0  0  0  0  0  0
    0.8602   -4.4970   -6.6841 C   0  0  0  0  0  0  0  0  0  0  0  0
    2.0108   -3.8643   -6.1860 C   0  0  0  0  0  0  0  0  0  0  0  0
    2.8914   -4.5908   -5.3673 C   0  0  0  0  0  0  0  0  0  0  0  0
    4.7514   -2.9138   -2.0697 C   0  0  0  0  0  0  0  0  0  0  0  0
    3.5839   -2.1736   -2.3788 C   0  0  0  0  0  0  0  0  0  0  0  0
    3.3576   -0.8754   -1.9033 C   0  0  0  0  0  0  0  0  0  0  0  0
    2.3131   -0.2767   -2.5483 O   0  0  0  0  0  0  0  0  0  0  0  0
    2.1407    1.1301   -2.4843 C   0  0  0  0  0  0  0  0  0  0  0  0
    4.8901    2.5934    0.2226 H   0  0  0  0  0  0  0  0  0  0  0  0
    6.0159    1.3567   -0.3348 H   0  0  0  0  0  0  0  0  0  0  0  0
    5.1753    1.1800    1.2520 H   0  0  0  0  0  0  0  0  0  0  0  0
    5.8633   -0.8816    0.3844 H   0  0  0  0  0  0  0  0  0  0  0  0
    7.9014   -4.6773   -0.7668 H   0  0  0  0  0  0  0  0  0  0  0  0
    6.7106   -5.6547   -2.7214 H   0  0  0  0  0  0  0  0  0  0  0  0
    5.2694   -2.2274   -4.8223 H   0  0  0  0  0  0  0  0  0  0  0  0
    3.6787   -0.8845   -6.0165 H   0  0  0  0  0  0  0  0  0  0  0  0
    3.2216   -0.3115   -7.9682 H   0  0  0  0  0  0  0  0  0  0  0  0
    1.7108    2.2399   -7.5820 H   0  0  0  0  0  0  0  0  0  0  0  0
    4.7372    1.7701   -7.7133 H   0  0  0  0  0  0  0  0  0  0  0  0
    3.8040    2.1815   -6.2700 H   0  0  0  0  0  0  0  0  0  0  0  0
    3.9419    3.3517   -7.5921 H   0  0  0  0  0  0  0  0  0  0  0  0
    3.4450    1.3986   -9.9639 H   0  0  0  0  0  0  0  0  0  0  0  0
    2.6465    2.9722   -9.7678 H   0  0  0  0  0  0  0  0  0  0  0  0
    1.6809    1.4976   -9.9622 H   0  0  0  0  0  0  0  0  0  0  0  0
   -0.6877   -1.8719   -8.1523 H   0  0  0  0  0  0  0  0  0  0  0  0
   -0.9878   -4.2918   -7.7715 H   0  0  0  0  0  0  0  0  0  0  0  0
    0.6858   -5.5545   -6.4890 H   0  0  0  0  0  0  0  0  0  0  0  0
    2.6627   -5.6196   -5.0948 H   0  0  0  0  0  0  0  0  0  0  0  0
    2.8542   -2.5651   -3.0823 H   0  0  0  0  0  0  0  0  0  0  0  0
    1.6547    1.4440   -3.4157 H   0  0  0  0  0  0  0  0  0  0  0  0
    3.0749    1.6946   -2.4234 H   0  0  0  0  0  0  0  0  0  0  0  0
    1.4665    1.3736   -1.6593 H   0  0  0  0  0  0  0  0  0  0  0  0
  1  2  1  0  0  0  0
  1 32  1  0  0  0  0
  1 33  1  0  0  0  0
  1 34  1  0  0  0  0
  2  3  1  0  0  0  0
  3  4  1  0  0  0  0
  3 29  2  0  0  0  0
  4  5  2  0  0  0  0
  4 35  1  0  0  0  0
  5  6  1  0  0  0  0
  5 27  1  0  0  0  0
  6  7  2  0  0  0  0
  7  8  1  0  0  0  0
  7 36  1  0  0  0  0
  8  9  2  0  0  0  0
  8 37  1  0  0  0  0
  9 10  1  0  0  0  0
  9 27  1  0  0  0  0
 10 11  1  0  0  0  0
 11 12  1  0  0  0  0
 11 26  2  0  0  0  0
 12 13  2  0  0  0  0
 12 38  1  0  0  0  0
 13 14  1  0  0  0  0
 13 39  1  0  0  0  0
 14 15  1  0  0  0  0
 14 25  2  0  0  0  0
 15 16  1  0  0  0  0
 15 22  2  0  0  0  0
 16 17  2  0  0  0  0
 16 18  1  0  0  0  0
 18 19  1  0  0  0  0
 18 40  1  0  0  0  0
 19 20  1  0  0  0  0
 19 21  1  0  0  0  0
 19 41  1  0  0  0  0
 20 42  1  0  0  0  0
 20 43  1  0  0  0  0
 20 44  1  0  0  0  0
 21 45  1  0  0  0  0
 21 46  1  0  0  0  0
 21 47  1  0  0  0  0
 22 23  1  0  0  0  0
 22 48  1  0  0  0  0
 23 24  2  0  0  0  0
 23 49  1  0  0  0  0
 24 25  1  0  0  0  0
 24 50  1  0  0  0  0
 25 26  1  0  0  0  0
 26 51  1  0  0  0  0
 27 28  2  0  0  0  0
 28 29  1  0  0  0  0
 28 52  1  0  0  0  0
 29 30  1  0  0  0  0
 30 31  1  0  0  0  0
 31 53  1  0  0  0  0
 31 54  1  0  0  0  0
 31 55  1  0  0  0  0
M  END
$$$$
