CHEMBL3977010
 OpenBabel04072215373D

 80 84  0  0  0  0  0  0  0  0999 V2000
    7.4303   -1.3580    6.4716 C   0  0  0  0  0  0  0  0  0  0  0  0
    7.6438   -1.5236    5.0662 O   0  0  0  0  0  0  0  0  0  0  0  0
    6.9679   -2.5476    4.4447 C   0  0  0  0  0  0  0  0  0  0  0  0
    6.1187   -3.4354    5.1061 C   0  0  0  0  0  0  0  0  0  0  0  0
    5.4276   -4.4014    4.3820 C   0  0  0  0  0  0  0  0  0  0  0  0
    4.5366   -5.3019    4.9033 O   0  0  0  0  0  0  0  0  0  0  0  0
    4.4182   -5.3459    6.3208 C   0  0  0  0  0  0  0  0  0  0  0  0
    5.5957   -4.4841    2.9931 C   0  0  0  0  0  0  0  0  0  0  0  0
    6.4568   -3.6299    2.2851 C   0  0  0  0  0  0  0  0  0  0  0  0
    6.5039   -3.6141    0.8673 N   0  0  0  0  0  0  0  0  0  0  0  0
    5.1990   -3.9130    0.1520 C   0  0  0  0  0  0  0  0  0  0  0  0
    3.9887   -3.0290    0.5086 C   0  0  0  0  0  0  0  0  0  0  0  0
    4.1468   -1.6871    0.0499 O   0  0  0  0  0  0  0  0  0  0  0  0
    7.5863   -3.9456   -0.0369 C   0  0  0  0  0  0  0  0  0  0  0  0
    7.6138   -3.1653   -1.1908 C   0  0  0  0  0  0  0  0  0  0  0  0
    8.0863   -3.7036   -2.3671 C   0  0  0  0  0  0  0  0  0  0  0  0
    8.7212   -4.9243   -2.4054 C   0  0  0  0  0  0  0  0  0  0  0  0
    8.9293   -5.3917   -3.6352 N   0  0  0  0  0  0  0  0  0  0  0  0
    9.7640   -6.4335   -3.7609 C   0  0  0  0  0  0  0  0  0  0  0  0
   10.4822   -6.9141   -2.6850 C   0  0  0  0  0  0  0  0  0  0  0  0
   11.7925   -7.4862   -3.0491 C   0  0  0  0  0  0  0  0  0  0  0  0
   12.3151   -8.7962   -3.0512 C   0  0  0  0  0  0  0  0  0  0  0  0
   13.5011   -8.8941   -3.6746 N   0  0  0  0  0  0  0  0  0  0  0  0
   13.7737   -7.6377   -4.0970 N   0  0  0  0  0  0  0  0  0  0  0  0
   15.1453   -7.3047   -4.5157 C   0  0  0  0  0  0  0  0  0  0  0  0
   15.3827   -5.8963   -5.0968 C   0  0  0  0  0  0  0  0  0  0  0  0
   14.9841   -5.7798   -6.5642 C   0  0  0  0  0  0  0  0  0  0  0  0
   15.5932   -6.8248   -7.3779 N   0  0  0  0  0  0  0  0  0  0  0  0
   16.0526   -6.4843   -8.6486 C   0  0  0  0  0  0  0  0  0  0  0  0
   16.0715   -5.3253   -9.0475 O   0  0  0  0  0  0  0  0  0  0  0  0
   16.4838   -7.5467   -9.3898 O   0  0  0  0  0  0  0  0  0  0  0  0
   16.9903   -7.3225  -10.7411 C   0  0  0  0  0  0  0  0  0  0  0  0
   18.2649   -6.4645  -10.7336 C   0  0  0  0  0  0  0  0  0  0  0  0
   17.3637   -8.7068  -11.3038 C   0  0  0  0  0  0  0  0  0  0  0  0
   15.9041   -6.7302  -11.6505 C   0  0  0  0  0  0  0  0  0  0  0  0
   15.4027   -8.1945   -6.9102 C   0  0  0  0  0  0  0  0  0  0  0  0
   15.8276   -8.3344   -5.4485 C   0  0  0  0  0  0  0  0  0  0  0  0
   12.7242   -6.7914   -3.8258 C   0  0  0  0  0  0  0  0  0  0  0  0
   10.1170   -6.5720   -1.3939 N   0  0  0  0  0  0  0  0  0  0  0  0
    9.1297   -5.5733   -1.2207 C   0  0  0  0  0  0  0  0  0  0  0  0
    8.4411   -5.0939   -0.0256 C   0  0  0  0  0  0  0  0  0  0  0  0
    7.1433   -2.6595    3.0458 C   0  0  0  0  0  0  0  0  0  0  0  0
    7.9927   -0.4807    6.8077 H   0  0  0  0  0  0  0  0  0  0  0  0
    7.8042   -2.2224    7.0323 H   0  0  0  0  0  0  0  0  0  0  0  0
    6.3740   -1.1728    6.7017 H   0  0  0  0  0  0  0  0  0  0  0  0
    5.9825   -3.3660    6.1765 H   0  0  0  0  0  0  0  0  0  0  0  0
    3.7306   -6.1581    6.5737 H   0  0  0  0  0  0  0  0  0  0  0  0
    3.9915   -4.4152    6.7102 H   0  0  0  0  0  0  0  0  0  0  0  0
    5.3819   -5.5661    6.7924 H   0  0  0  0  0  0  0  0  0  0  0  0
    5.0133   -5.2346    2.4681 H   0  0  0  0  0  0  0  0  0  0  0  0
    4.9452   -4.9693    0.2923 H   0  0  0  0  0  0  0  0  0  0  0  0
    5.3105   -3.7815   -0.9320 H   0  0  0  0  0  0  0  0  0  0  0  0
    3.7387   -3.0265    1.5720 H   0  0  0  0  0  0  0  0  0  0  0  0
    3.1151   -3.4283   -0.0232 H   0  0  0  0  0  0  0  0  0  0  0  0
    4.0018   -1.1062    0.8172 H   0  0  0  0  0  0  0  0  0  0  0  0
    7.0910   -2.2159   -1.2257 H   0  0  0  0  0  0  0  0  0  0  0  0
    7.9248   -3.1743   -3.3019 H   0  0  0  0  0  0  0  0  0  0  0  0
    9.9404   -6.7732   -4.7749 H   0  0  0  0  0  0  0  0  0  0  0  0
   11.8744   -9.7024   -2.6566 H   0  0  0  0  0  0  0  0  0  0  0  0
   15.6890   -7.3363   -3.5600 H   0  0  0  0  0  0  0  0  0  0  0  0
   16.4613   -5.6868   -5.0316 H   0  0  0  0  0  0  0  0  0  0  0  0
   14.8908   -5.1179   -4.5057 H   0  0  0  0  0  0  0  0  0  0  0  0
   15.2783   -4.7892   -6.9295 H   0  0  0  0  0  0  0  0  0  0  0  0
   13.8989   -5.8595   -6.6851 H   0  0  0  0  0  0  0  0  0  0  0  0
   19.0360   -6.9203  -10.1019 H   0  0  0  0  0  0  0  0  0  0  0  0
   18.0925   -5.4605  -10.3373 H   0  0  0  0  0  0  0  0  0  0  0  0
   18.6732   -6.3499  -11.7443 H   0  0  0  0  0  0  0  0  0  0  0  0
   18.1355   -9.1884  -10.6932 H   0  0  0  0  0  0  0  0  0  0  0  0
   17.7399   -8.6336  -12.3316 H   0  0  0  0  0  0  0  0  0  0  0  0
   16.4983   -9.3787  -11.3046 H   0  0  0  0  0  0  0  0  0  0  0  0
   15.5969   -5.7290  -11.3378 H   0  0  0  0  0  0  0  0  0  0  0  0
   15.0034   -7.3542  -11.6300 H   0  0  0  0  0  0  0  0  0  0  0  0
   16.2488   -6.6532  -12.6875 H   0  0  0  0  0  0  0  0  0  0  0  0
   15.9713   -8.8981   -7.5266 H   0  0  0  0  0  0  0  0  0  0  0  0
   14.3411   -8.4374   -7.0271 H   0  0  0  0  0  0  0  0  0  0  0  0
   16.9133   -8.1580   -5.4018 H   0  0  0  0  0  0  0  0  0  0  0  0
   15.6711   -9.3617   -5.1053 H   0  0  0  0  0  0  0  0  0  0  0  0
   12.7180   -5.7701   -4.1810 H   0  0  0  0  0  0  0  0  0  0  0  0
    8.5333   -5.6768    0.8873 H   0  0  0  0  0  0  0  0  0  0  0  0
    7.7714   -1.9272    2.5419 H   0  0  0  0  0  0  0  0  0  0  0  0
  1  2  1  0  0  0  0
  1 43  1  0  0  0  0
  1 44  1  0  0  0  0
  1 45  1  0  0  0  0
  2  3  1  0  0  0  0
  3  4  1  0  0  0  0
  3 42  2  0  0  0  0
  4  5  2  0  0  0  0
  4 46  1  0  0  0  0
  5  6  1  0  0  0  0
  5  8  1  0  0  0  0
  6  7  1  0  0  0  0
  7 47  1  0  0  0  0
  7 48  1  0  0  0  0
  7 49  1  0  0  0  0
  8  9  2  0  0  0  0
  8 50  1  0  0  0  0
  9 10  1  0  0  0  0
  9 42  1  0  0  0  0
 10 11  1  0  0  0  0
 10 14  1  0  0  0  0
 11 12  1  0  0  0  0
 11 51  1  0  0  0  0
 11 52  1  0  0  0  0
 12 13  1  0  0  0  0
 12 53  1  0  0  0  0
 12 54  1  0  0  0  0
 13 55  1  0  0  0  0
 14 15  1  0  0  0  0
 14 41  2  0  0  0  0
 15 16  2  0  0  0  0
 15 56  1  0  0  0  0
 16 17  1  0  0  0  0
 16 57  1  0  0  0  0
 17 18  1  0  0  0  0
 17 40  2  0  0  0  0
 18 19  2  0  0  0  0
 19 20  1  0  0  0  0
 19 58  1  0  0  0  0
 20 21  1  0  0  0  0
 20 39  2  0  0  0  0
 21 22  1  0  0  0  0
 21 38  2  0  0  0  0
 22 23  2  0  0  0  0
 22 59  1  0  0  0  0
 23 24  1  0  0  0  0
 24 25  1  0  0  0  0
 24 38  1  0  0  0  0
 25 26  1  0  0  0  0
 25 37  1  0  0  0  0
 25 60  1  0  0  0  0
 26 27  1  0  0  0  0
 26 61  1  0  0  0  0
 26 62  1  0  0  0  0
 27 28  1  0  0  0  0
 27 63  1  0  0  0  0
 27 64  1  0  0  0  0
 28 29  1  0  0  0  0
 28 36  1  0  0  0  0
 29 30  2  0  0  0  0
 29 31  1  0  0  0  0
 31 32  1  0  0  0  0
 32 33  1  0  0  0  0
 32 34  1  0  0  0  0
 32 35  1  0  0  0  0
 33 65  1  0  0  0  0
 33 66  1  0  0  0  0
 33 67  1  0  0  0  0
 34 68  1  0  0  0  0
 34 69  1  0  0  0  0
 34 70  1  0  0  0  0
 35 71  1  0  0  0  0
 35 72  1  0  0  0  0
 35 73  1  0  0  0  0
 36 37  1  0  0  0  0
 36 74  1  0  0  0  0
 36 75  1  0  0  0  0
 37 76  1  0  0  0  0
 37 77  1  0  0  0  0
 38 78  1  0  0  0  0
 39 40  1  0  0  0  0
 40 41  1  0  0  0  0
 41 79  1  0  0  0  0
 42 80  1  0  0  0  0
M  END
$$$$
