CHEMBL3948744
 OpenBabel04072215373D

 73 76  0  0  1  0  0  0  0  0999 V2000
    1.4215    2.4817    4.7481 C   0  0  0  0  0  0  0  0  0  0  0  0
    2.6654    2.7764    4.2136 O   0  0  0  0  0  0  0  0  0  0  0  0
    3.1711    2.4532    2.9908 C   0  0  0  0  0  0  0  0  0  0  0  0
    2.4279    1.7779    2.0004 C   0  0  0  0  0  0  0  0  0  0  0  0
    3.0071    1.4402    0.7797 C   0  0  0  0  0  0  0  0  0  0  0  0
    2.2446    0.7832   -0.1374 O   0  0  0  0  0  0  0  0  0  0  0  0
    2.6627    0.3204   -1.3710 C   0  0  0  0  0  0  0  0  0  0  0  0
    4.3564    1.7711    0.5460 C   0  0  0  0  0  0  0  0  0  0  0  0
    5.1455    2.4337    1.5248 C   0  0  0  0  0  0  0  0  0  0  0  0
    6.5400    2.7536    1.2686 N   0  0  0  0  0  0  0  0  0  0  0  0
    7.1137    2.4981   -0.1168 C   0  0  0  0  0  0  0  0  0  0  0  0
    8.6876    2.5135   -0.1789 C   0  0  0  0  0  0  0  0  0  0  0  0
    9.5980    2.2486   -1.3947 C   0  0  0  0  0  0  0  0  0  0  0  0
   11.0059    2.2456   -0.8870 N   0  0  0  0  0  0  0  0  0  0  0  0
   11.5762    3.4929   -0.3180 C   0  0  0  0  0  0  0  0  0  0  0  0
   12.3288    4.1444   -1.4443 C   0  0  0  0  0  0  0  0  0  0  0  0
   13.0295    2.9700   -2.0629 C   0  0  0  0  0  0  0  0  0  0  0  0
   12.0972    1.7672   -1.7513 C   0  0  2  0  0  0  0  0  0  0  0  0
   11.7889    0.8894   -2.9788 C   0  0  0  0  0  0  0  0  0  0  0  0
   13.1852    0.4276   -3.3627 C   0  0  0  0  0  0  0  0  0  0  0  0
   14.3435    0.0445   -3.6812 N   0  0  0  0  0  0  0  0  0  0  0  0
    7.4244    3.4033    2.2339 C   0  0  0  0  0  0  0  0  0  0  0  0
    8.0388    4.5382    1.7224 C   0  0  0  0  0  0  0  0  0  0  0  0
    9.2656    4.9121    2.1577 C   0  0  0  0  0  0  0  0  0  0  0  0
    9.8381    4.2871    3.2230 C   0  0  0  0  0  0  0  0  0  0  0  0
   11.1371    4.5217    3.3965 N   0  0  0  0  0  0  0  0  0  0  0  0
   11.7907    4.0742    4.4545 C   0  0  0  0  0  0  0  0  0  0  0  0
   11.0738    3.5477    5.5290 C   0  0  0  0  0  0  0  0  0  0  0  0
   11.7643    3.8560    6.8647 C   0  0  0  0  0  0  0  0  0  0  0  0
   12.9377    4.6359    6.9305 C   0  0  0  0  0  0  0  0  0  0  0  0
   13.2266    4.9472    8.1851 N   0  0  0  0  0  0  0  0  0  0  0  0
   12.3094    4.4181    8.9526 N   0  0  0  0  0  0  0  0  0  0  0  0
   12.2979    4.7025   10.3850 C   0  0  0  0  0  0  0  0  0  0  0  0
   11.4001    3.7164    8.2125 C   0  0  0  0  0  0  0  0  0  0  0  0
    9.7636    3.1026    5.2907 N   0  0  0  0  0  0  0  0  0  0  0  0
    9.1437    3.4047    4.0606 C   0  0  0  0  0  0  0  0  0  0  0  0
    7.8884    2.8858    3.5263 C   0  0  0  0  0  0  0  0  0  0  0  0
    4.5165    2.7844    2.7362 C   0  0  0  0  0  0  0  0  0  0  0  0
    1.9076   -2.6388    1.3624 Cl  0  0  0  0  0  0  0  0  0  0  0  0
    1.0262    3.3714    5.2802 H   0  0  0  0  0  0  0  0  0  0  0  0
    1.5454    1.6658    5.4905 H   0  0  0  0  0  0  0  0  0  0  0  0
    0.6655    2.1759    4.0028 H   0  0  0  0  0  0  0  0  0  0  0  0
    1.3973    1.4929    2.1506 H   0  0  0  0  0  0  0  0  0  0  0  0
    1.8248   -0.2177   -1.8618 H   0  0  0  0  0  0  0  0  0  0  0  0
    3.5049   -0.3954   -1.2486 H   0  0  0  0  0  0  0  0  0  0  0  0
    2.9726    1.1680   -2.0163 H   0  0  0  0  0  0  0  0  0  0  0  0
    4.7672    1.4952   -0.4093 H   0  0  0  0  0  0  0  0  0  0  0  0
    6.6777    3.2205   -0.8472 H   0  0  0  0  0  0  0  0  0  0  0  0
    6.8693    1.4704   -0.4396 H   0  0  0  0  0  0  0  0  0  0  0  0
    9.0243    1.8226    0.6232 H   0  0  0  0  0  0  0  0  0  0  0  0
    8.9942    3.5190   -0.0278 H   0  0  0  0  0  0  0  0  0  0  0  0
    9.4600    3.0047   -2.2016 H   0  0  0  0  0  0  0  0  0  0  0  0
    9.3478    1.2452   -1.7932 H   0  0  0  0  0  0  0  0  0  0  0  0
   12.3024    3.2062    0.4797 H   0  0  0  0  0  0  0  0  0  0  0  0
   10.8838    4.2100    0.1346 H   0  0  0  0  0  0  0  0  0  0  0  0
   13.0163    4.9681   -1.1459 H   0  0  0  0  0  0  0  0  0  0  0  0
   11.5755    4.5325   -2.1612 H   0  0  0  0  0  0  0  0  0  0  0  0
   13.9962    2.7941   -1.5360 H   0  0  0  0  0  0  0  0  0  0  0  0
   13.2428    3.1655   -3.1370 H   0  0  0  0  0  0  0  0  0  0  0  0
   12.6777    1.1108   -1.0550 H   0  0  0  0  0  0  0  0  0  0  0  0
   11.1855    0.0082   -2.6761 H   0  0  0  0  0  0  0  0  0  0  0  0
   11.2919    1.4538   -3.7954 H   0  0  0  0  0  0  0  0  0  0  0  0
    7.6868    5.0000    0.8087 H   0  0  0  0  0  0  0  0  0  0  0  0
    9.8278    5.6457    1.6003 H   0  0  0  0  0  0  0  0  0  0  0  0
   12.8237    4.3332    4.4700 H   0  0  0  0  0  0  0  0  0  0  0  0
   13.5403    5.0711    6.1548 H   0  0  0  0  0  0  0  0  0  0  0  0
   13.1129    5.4303   10.6217 H   0  0  0  0  0  0  0  0  0  0  0  0
   12.4673    3.7793   10.9737 H   0  0  0  0  0  0  0  0  0  0  0  0
   11.3419    5.1936   10.6664 H   0  0  0  0  0  0  0  0  0  0  0  0
   10.5272    3.2214    8.6141 H   0  0  0  0  0  0  0  0  0  0  0  0
    7.3722    2.0611    4.0095 H   0  0  0  0  0  0  0  0  0  0  0  0
    5.0664    3.3089    3.5022 H   0  0  0  0  0  0  0  0  0  0  0  0
    2.1789   -1.7430    0.3626 H   0  0  0  0  0  0  0  0  0  0  0  0
  1  2  1  0  0  0  0
  1 40  1  0  0  0  0
  1 41  1  0  0  0  0
  1 42  1  0  0  0  0
  2  3  1  0  0  0  0
  3  4  1  0  0  0  0
  3 38  2  0  0  0  0
  4  5  2  0  0  0  0
  4 43  1  0  0  0  0
  5  6  1  0  0  0  0
  5  8  1  0  0  0  0
  6  7  1  0  0  0  0
  7 44  1  0  0  0  0
  7 45  1  0  0  0  0
  7 46  1  0  0  0  0
  8  9  2  0  0  0  0
  8 47  1  0  0  0  0
  9 10  1  0  0  0  0
  9 38  1  0  0  0  0
 10 11  1  0  0  0  0
 10 22  1  0  0  0  0
 11 12  1  0  0  0  0
 11 48  1  0  0  0  0
 11 49  1  0  0  0  0
 12 13  1  0  0  0  0
 12 50  1  0  0  0  0
 12 51  1  0  0  0  0
 13 14  1  0  0  0  0
 13 52  1  0  0  0  0
 13 53  1  0  0  0  0
 14 15  1  0  0  0  0
 14 18  1  0  0  0  0
 15 16  1  0  0  0  0
 15 54  1  0  0  0  0
 15 55  1  0  0  0  0
 16 17  1  0  0  0  0
 16 56  1  0  0  0  0
 16 57  1  0  0  0  0
 17 18  1  0  0  0  0
 17 58  1  0  0  0  0
 17 59  1  0  0  0  0
 18 19  1  0  0  0  0
 18 60  1  1  0  0  0
 19 20  1  0  0  0  0
 19 61  1  0  0  0  0
 19 62  1  0  0  0  0
 20 21  3  0  0  0  0
 22 23  1  0  0  0  0
 22 37  2  0  0  0  0
 23 24  2  0  0  0  0
 23 63  1  0  0  0  0
 24 25  1  0  0  0  0
 24 64  1  0  0  0  0
 25 26  1  0  0  0  0
 25 36  2  0  0  0  0
 26 27  2  0  0  0  0
 27 28  1  0  0  0  0
 27 65  1  0  0  0  0
 28 29  1  0  0  0  0
 28 35  2  0  0  0  0
 29 30  1  0  0  0  0
 29 34  2  0  0  0  0
 30 31  2  0  0  0  0
 30 66  1  0  0  0  0
 31 32  1  0  0  0  0
 32 33  1  0  0  0  0
 32 34  1  0  0  0  0
 33 67  1  0  0  0  0
 33 68  1  0  0  0  0
 33 69  1  0  0  0  0
 34 70  1  0  0  0  0
 35 36  1  0  0  0  0
 36 37  1  0  0  0  0
 37 71  1  0  0  0  0
 38 72  1  0  0  0  0
 39 73  1  0  0  0  0
M  END
$$$$
