CHEMBL244101
 OpenBabel04072215363D

 52 55  0  0  0  0  0  0  0  0999 V2000
   -0.2638    7.4929    5.8801 C   0  0  0  0  0  0  0  0  0  0  0  0
    0.6132    6.7494    6.7297 O   0  0  0  0  0  0  0  0  0  0  0  0
    1.8701    6.6132    6.2098 C   0  0  0  0  0  0  0  0  0  0  0  0
    2.2065    7.1160    5.1497 O   0  0  0  0  0  0  0  0  0  0  0  0
    2.6068    5.8290    7.0618 N   0  0  0  0  0  0  0  0  0  0  0  0
    3.8705    5.4256    6.7348 C   0  0  0  0  0  0  0  0  0  0  0  0
    4.5773    5.7677    5.6788 N   0  0  0  0  0  0  0  0  0  0  0  0
    5.7142    5.0133    5.7297 C   0  0  0  0  0  0  0  0  0  0  0  0
    6.7920    4.9040    4.8477 C   0  0  0  0  0  0  0  0  0  0  0  0
    7.7945    3.9910    5.1852 C   0  0  0  0  0  0  0  0  0  0  0  0
    7.6887    3.2709    6.3757 C   0  0  0  0  0  0  0  0  0  0  0  0
    8.7459    2.4005    6.6379 O   0  0  0  0  0  0  0  0  0  0  0  0
    9.0255    2.1288    7.9559 C   0  0  0  0  0  0  0  0  0  0  0  0
    9.3495    0.8160    8.2756 C   0  0  0  0  0  0  0  0  0  0  0  0
    9.6337    0.4715    9.6004 C   0  0  0  0  0  0  0  0  0  0  0  0
    9.6100    1.4328   10.6179 C   0  0  0  0  0  0  0  0  0  0  0  0
    9.8235    1.1339   11.9834 N   0  0  0  0  0  0  0  0  0  0  0  0
   10.1877   -0.0932   12.4982 C   0  0  0  0  0  0  0  0  0  0  0  0
   10.4735   -1.0846   11.8352 O   0  0  0  0  0  0  0  0  0  0  0  0
   10.1586   -0.1045   13.8882 N   0  0  0  0  0  0  0  0  0  0  0  0
   10.5123   -1.2921   14.5783 C   0  0  0  0  0  0  0  0  0  0  0  0
   11.6683   -2.0085   14.2447 C   0  0  0  0  0  0  0  0  0  0  0  0
   11.9614   -3.2311   14.8690 C   0  0  0  0  0  0  0  0  0  0  0  0
   13.2121   -4.0000   14.5145 C   0  0  0  0  0  0  0  0  0  0  0  0
   13.9998   -3.3787   13.5941 F   0  0  0  0  0  0  0  0  0  0  0  0
   14.0081   -4.2078   15.6011 F   0  0  0  0  0  0  0  0  0  0  0  0
   12.9436   -5.2351   14.0095 F   0  0  0  0  0  0  0  0  0  0  0  0
   11.0660   -3.7338   15.8283 C   0  0  0  0  0  0  0  0  0  0  0  0
    9.9248   -3.0086   16.1826 C   0  0  0  0  0  0  0  0  0  0  0  0
    9.6695   -1.7829   15.5747 C   0  0  0  0  0  0  0  0  0  0  0  0
    8.5593   -1.1046   15.9032 F   0  0  0  0  0  0  0  0  0  0  0  0
    9.3341    2.7605   10.2759 C   0  0  0  0  0  0  0  0  0  0  0  0
    9.0608    3.1095    8.9490 C   0  0  0  0  0  0  0  0  0  0  0  0
    6.6524    3.3394    7.2564 N   0  0  0  0  0  0  0  0  0  0  0  0
    5.7218    4.2259    6.8687 C   0  0  0  0  0  0  0  0  0  0  0  0
    4.5610    4.5364    7.5169 N   0  0  0  0  0  0  0  0  0  0  0  0
   -1.2167    7.6224    6.3990 H   0  0  0  0  0  0  0  0  0  0  0  0
   -0.4456    6.9408    4.9518 H   0  0  0  0  0  0  0  0  0  0  0  0
    0.1496    8.4837    5.6652 H   0  0  0  0  0  0  0  0  0  0  0  0
    2.1271    5.4868    7.8764 H   0  0  0  0  0  0  0  0  0  0  0  0
    6.8293    5.4949    3.9407 H   0  0  0  0  0  0  0  0  0  0  0  0
    8.6493    3.8505    4.5322 H   0  0  0  0  0  0  0  0  0  0  0  0
    9.3656    0.0479    7.5070 H   0  0  0  0  0  0  0  0  0  0  0  0
    9.8590   -0.5713    9.7973 H   0  0  0  0  0  0  0  0  0  0  0  0
    9.8021    1.9065   12.6330 H   0  0  0  0  0  0  0  0  0  0  0  0
    9.3870    0.4115   14.2936 H   0  0  0  0  0  0  0  0  0  0  0  0
   12.3426   -1.6206   13.4811 H   0  0  0  0  0  0  0  0  0  0  0  0
   11.2578   -4.6973   16.2997 H   0  0  0  0  0  0  0  0  0  0  0  0
    9.2251   -3.4022   16.9135 H   0  0  0  0  0  0  0  0  0  0  0  0
    9.3176    3.5436   11.0279 H   0  0  0  0  0  0  0  0  0  0  0  0
    8.8509    4.1464    8.7029 H   0  0  0  0  0  0  0  0  0  0  0  0
    4.2638    4.1262    8.3880 H   0  0  0  0  0  0  0  0  0  0  0  0
  1  2  1  0  0  0  0
  1 37  1  0  0  0  0
  1 38  1  0  0  0  0
  1 39  1  0  0  0  0
  2  3  1  0  0  0  0
  3  4  2  0  0  0  0
  3  5  1  0  0  0  0
  5  6  1  0  0  0  0
  5 40  1  0  0  0  0
  6  7  2  0  0  0  0
  6 36  1  0  0  0  0
  7  8  1  0  0  0  0
  8  9  1  0  0  0  0
  8 35  2  0  0  0  0
  9 10  2  0  0  0  0
  9 41  1  0  0  0  0
 10 11  1  0  0  0  0
 10 42  1  0  0  0  0
 11 12  1  0  0  0  0
 11 34  2  0  0  0  0
 12 13  1  0  0  0  0
 13 14  1  0  0  0  0
 13 33  2  0  0  0  0
 14 15  2  0  0  0  0
 14 43  1  0  0  0  0
 15 16  1  0  0  0  0
 15 44  1  0  0  0  0
 16 17  1  0  0  0  0
 16 32  2  0  0  0  0
 17 18  1  0  0  0  0
 17 45  1  0  0  0  0
 18 19  2  0  0  0  0
 18 20  1  0  0  0  0
 20 21  1  0  0  0  0
 20 46  1  0  0  0  0
 21 22  1  0  0  0  0
 21 30  2  0  0  0  0
 22 23  2  0  0  0  0
 22 47  1  0  0  0  0
 23 24  1  0  0  0  0
 23 28  1  0  0  0  0
 24 25  1  0  0  0  0
 24 26  1  0  0  0  0
 24 27  1  0  0  0  0
 28 29  2  0  0  0  0
 28 48  1  0  0  0  0
 29 30  1  0  0  0  0
 29 49  1  0  0  0  0
 30 31  1  0  0  0  0
 32 33  1  0  0  0  0
 32 50  1  0  0  0  0
 33 51  1  0  0  0  0
 34 35  1  0  0  0  0
 35 36  1  0  0  0  0
 36 52  1  0  0  0  0
M  END
$$$$
