CHEMBL3891115
 OpenBabel04072215373D

 60 63  0  0  0  0  0  0  0  0999 V2000
    2.3143    2.1643    1.0590 C   0  0  0  0  0  0  0  0  0  0  0  0
    3.3934    1.4263    0.4928 O   0  0  0  0  0  0  0  0  0  0  0  0
    3.5043    1.4526   -0.8716 C   0  0  0  0  0  0  0  0  0  0  0  0
    2.5534    1.9544   -1.7460 C   0  0  0  0  0  0  0  0  0  0  0  0
    2.7723    1.8782   -3.1223 C   0  0  0  0  0  0  0  0  0  0  0  0
    3.9615    1.3375   -3.6478 C   0  0  0  0  0  0  0  0  0  0  0  0
    4.1431    1.1280   -4.9970 O   0  0  0  0  0  0  0  0  0  0  0  0
    3.0130    1.3454   -5.8402 C   0  0  0  0  0  0  0  0  0  0  0  0
    4.9912    0.9112   -2.7730 C   0  0  0  0  0  0  0  0  0  0  0  0
    6.2422    0.4280   -3.2285 N   0  0  0  0  0  0  0  0  0  0  0  0
    6.7953   -0.8275   -2.5548 C   0  0  0  0  0  0  0  0  0  0  0  0
    5.8650   -2.0708   -2.3232 C   0  0  0  0  0  0  0  0  0  0  0  0
    5.3962   -2.9164   -3.4355 N   0  0  0  0  0  0  0  0  0  0  0  0
    6.4004   -3.6181   -4.2439 C   0  0  0  0  0  0  0  0  0  0  0  0
    7.3790   -4.5009   -3.4625 C   0  0  0  0  0  0  0  0  0  0  0  0
    5.6679   -4.4991   -5.2690 C   0  0  0  0  0  0  0  0  0  0  0  0
    7.1610    0.9650   -4.2066 C   0  0  0  0  0  0  0  0  0  0  0  0
    7.5034    0.0480   -5.1732 C   0  0  0  0  0  0  0  0  0  0  0  0
    8.8001    0.0451   -5.6107 C   0  0  0  0  0  0  0  0  0  0  0  0
    9.6571    1.0564   -5.3193 C   0  0  0  0  0  0  0  0  0  0  0  0
   10.9109    0.6422   -5.4686 N   0  0  0  0  0  0  0  0  0  0  0  0
   11.8148    1.5585   -5.7381 C   0  0  0  0  0  0  0  0  0  0  0  0
   11.4533    2.8468   -6.0513 C   0  0  0  0  0  0  0  0  0  0  0  0
   12.3216    3.3404   -7.1800 C   0  0  0  0  0  0  0  0  0  0  0  0
   13.0765    2.4743   -8.0731 C   0  0  0  0  0  0  0  0  0  0  0  0
   13.8964    3.1046   -8.9031 N   0  0  0  0  0  0  0  0  0  0  0  0
   13.6731    4.3855   -8.6346 N   0  0  0  0  0  0  0  0  0  0  0  0
   12.7468    4.5847   -7.6070 C   0  0  0  0  0  0  0  0  0  0  0  0
   10.2230    3.3113   -5.5684 N   0  0  0  0  0  0  0  0  0  0  0  0
    9.2350    2.3385   -5.0394 C   0  0  0  0  0  0  0  0  0  0  0  0
    7.9219    2.1914   -4.2507 C   0  0  0  0  0  0  0  0  0  0  0  0
    4.6961    0.9250   -1.3886 C   0  0  0  0  0  0  0  0  0  0  0  0
    2.4463    2.1755    2.1452 H   0  0  0  0  0  0  0  0  0  0  0  0
    1.3544    1.6831    0.8433 H   0  0  0  0  0  0  0  0  0  0  0  0
    2.3180    3.2051    0.7167 H   0  0  0  0  0  0  0  0  0  0  0  0
    1.6232    2.3917   -1.3987 H   0  0  0  0  0  0  0  0  0  0  0  0
    1.9781    2.2476   -3.7630 H   0  0  0  0  0  0  0  0  0  0  0  0
    3.2791    1.0427   -6.8570 H   0  0  0  0  0  0  0  0  0  0  0  0
    2.7531    2.4089   -5.8687 H   0  0  0  0  0  0  0  0  0  0  0  0
    2.1495    0.7401   -5.5358 H   0  0  0  0  0  0  0  0  0  0  0  0
    7.1872   -0.5261   -1.5754 H   0  0  0  0  0  0  0  0  0  0  0  0
    7.6757   -1.2149   -3.0824 H   0  0  0  0  0  0  0  0  0  0  0  0
    4.9706   -1.7707   -1.7675 H   0  0  0  0  0  0  0  0  0  0  0  0
    6.3910   -2.7356   -1.6222 H   0  0  0  0  0  0  0  0  0  0  0  0
    4.7868   -2.3601   -4.0359 H   0  0  0  0  0  0  0  0  0  0  0  0
    6.9836   -2.8840   -4.8029 H   0  0  0  0  0  0  0  0  0  0  0  0
    6.8627   -5.2860   -2.8992 H   0  0  0  0  0  0  0  0  0  0  0  0
    7.9896   -3.9172   -2.7683 H   0  0  0  0  0  0  0  0  0  0  0  0
    8.0727   -4.9973   -4.1539 H   0  0  0  0  0  0  0  0  0  0  0  0
    5.1140   -5.3123   -4.7837 H   0  0  0  0  0  0  0  0  0  0  0  0
    6.3814   -4.9572   -5.9648 H   0  0  0  0  0  0  0  0  0  0  0  0
    4.9591   -3.9164   -5.8669 H   0  0  0  0  0  0  0  0  0  0  0  0
    6.8852   -0.7964   -5.3889 H   0  0  0  0  0  0  0  0  0  0  0  0
    9.1816   -0.8102   -6.1485 H   0  0  0  0  0  0  0  0  0  0  0  0
   12.7846    1.1309   -5.9539 H   0  0  0  0  0  0  0  0  0  0  0  0
   13.0916    1.3865   -8.1065 H   0  0  0  0  0  0  0  0  0  0  0  0
   14.1993    5.0715   -9.1580 H   0  0  0  0  0  0  0  0  0  0  0  0
   12.5402    5.5962   -7.2919 H   0  0  0  0  0  0  0  0  0  0  0  0
    7.5873    3.0368   -3.6365 H   0  0  0  0  0  0  0  0  0  0  0  0
    5.4131    0.5324   -0.6723 H   0  0  0  0  0  0  0  0  0  0  0  0
  1  2  1  0  0  0  0
  1 33  1  0  0  0  0
  1 34  1  0  0  0  0
  1 35  1  0  0  0  0
  2  3  1  0  0  0  0
  3  4  1  0  0  0  0
  3 32  2  0  0  0  0
  4  5  2  0  0  0  0
  4 36  1  0  0  0  0
  5  6  1  0  0  0  0
  5 37  1  0  0  0  0
  6  7  1  0  0  0  0
  6  9  2  0  0  0  0
  7  8  1  0  0  0  0
  8 38  1  0  0  0  0
  8 39  1  0  0  0  0
  8 40  1  0  0  0  0
  9 10  1  0  0  0  0
  9 32  1  0  0  0  0
 10 11  1  0  0  0  0
 10 17  1  0  0  0  0
 11 12  1  0  0  0  0
 11 41  1  0  0  0  0
 11 42  1  0  0  0  0
 12 13  1  0  0  0  0
 12 43  1  0  0  0  0
 12 44  1  0  0  0  0
 13 14  1  0  0  0  0
 13 45  1  0  0  0  0
 14 15  1  0  0  0  0
 14 16  1  0  0  0  0
 14 46  1  0  0  0  0
 15 47  1  0  0  0  0
 15 48  1  0  0  0  0
 15 49  1  0  0  0  0
 16 50  1  0  0  0  0
 16 51  1  0  0  0  0
 16 52  1  0  0  0  0
 17 18  1  0  0  0  0
 17 31  2  0  0  0  0
 18 19  2  0  0  0  0
 18 53  1  0  0  0  0
 19 20  1  0  0  0  0
 19 54  1  0  0  0  0
 20 21  1  0  0  0  0
 20 30  2  0  0  0  0
 21 22  2  0  0  0  0
 22 23  1  0  0  0  0
 22 55  1  0  0  0  0
 23 24  1  0  0  0  0
 23 29  2  0  0  0  0
 24 25  1  0  0  0  0
 24 28  2  0  0  0  0
 25 26  2  0  0  0  0
 25 56  1  0  0  0  0
 26 27  1  0  0  0  0
 27 28  1  0  0  0  0
 27 57  1  0  0  0  0
 28 58  1  0  0  0  0
 29 30  1  0  0  0  0
 30 31  1  0  0  0  0
 31 59  1  0  0  0  0
 32 60  1  0  0  0  0
M  END
$$$$
