CHEMBL371239
 OpenBabel04072215373D

 41 44  0  0  0  0  0  0  0  0999 V2000
   -3.2941    1.6891   -4.6788 C   0  0  0  0  0  0  0  0  0  0  0  0
   -3.7497    1.4443   -3.3120 N   0  0  0  0  0  0  0  0  0  0  0  0
   -3.8234   -0.0009   -3.0525 C   0  0  0  0  0  0  0  0  0  0  0  0
   -4.3181   -0.3015   -1.6307 C   0  0  0  0  0  0  0  0  0  0  0  0
   -3.5369    0.3882   -0.5938 N   0  0  0  0  0  0  0  0  0  0  0  0
   -3.2897   -0.0923    0.7004 C   0  0  0  0  0  0  0  0  0  0  0  0
   -2.5795    0.5625    1.4660 O   0  0  0  0  0  0  0  0  0  0  0  0
   -3.8870   -1.3652    1.1175 C   0  0  0  0  0  0  0  0  0  0  0  0
   -5.1672   -1.8976    0.8224 C   0  0  0  0  0  0  0  0  0  0  0  0
   -5.3541   -3.1862    1.3699 C   0  0  0  0  0  0  0  0  0  0  0  0
   -6.1943   -4.2546    1.4471 C   0  0  0  0  0  0  0  0  0  0  0  0
   -7.4979   -4.5601    0.8652 C   0  0  0  0  0  0  0  0  0  0  0  0
   -7.8886   -5.8849    0.6175 C   0  0  0  0  0  0  0  0  0  0  0  0
   -9.1473   -6.1716    0.0807 C   0  0  0  0  0  0  0  0  0  0  0  0
  -10.0301   -5.1373   -0.2212 C   0  0  0  0  0  0  0  0  0  0  0  0
   -9.6483   -3.8173   -0.0023 C   0  0  0  0  0  0  0  0  0  0  0  0
   -8.3900   -3.5308    0.5350 C   0  0  0  0  0  0  0  0  0  0  0  0
   -5.4899   -5.1182    2.3042 N   0  0  0  0  0  0  0  0  0  0  0  0
   -4.2633   -4.6470    2.7035 N   0  0  0  0  0  0  0  0  0  0  0  0
   -4.2344   -3.4887    2.1148 C   0  0  0  0  0  0  0  0  0  0  0  0
   -2.9007   -2.3826    2.2234 S   0  0  0  0  0  0  0  0  0  0  0  0
   -3.2668    1.8025   -0.8735 C   0  0  0  0  0  0  0  0  0  0  0  0
   -2.8344    2.0645   -2.3312 C   0  0  0  0  0  0  0  0  0  0  0  0
   -3.9870    1.2355   -5.3973 H   0  0  0  0  0  0  0  0  0  0  0  0
   -2.2936    1.2807   -4.8626 H   0  0  0  0  0  0  0  0  0  0  0  0
   -3.2758    2.7633   -4.8915 H   0  0  0  0  0  0  0  0  0  0  0  0
   -2.8397   -0.4684   -3.1909 H   0  0  0  0  0  0  0  0  0  0  0  0
   -4.5163   -0.4750   -3.7575 H   0  0  0  0  0  0  0  0  0  0  0  0
   -4.2733   -1.3823   -1.4875 H   0  0  0  0  0  0  0  0  0  0  0  0
   -5.3580    0.0317   -1.5211 H   0  0  0  0  0  0  0  0  0  0  0  0
   -5.9007   -1.3812    0.2202 H   0  0  0  0  0  0  0  0  0  0  0  0
   -7.2171   -6.7159    0.8183 H   0  0  0  0  0  0  0  0  0  0  0  0
   -9.4380   -7.2039   -0.1013 H   0  0  0  0  0  0  0  0  0  0  0  0
  -11.0114   -5.3614   -0.6312 H   0  0  0  0  0  0  0  0  0  0  0  0
  -10.3327   -3.0078   -0.2427 H   0  0  0  0  0  0  0  0  0  0  0  0
   -8.1269   -2.4905    0.7080 H   0  0  0  0  0  0  0  0  0  0  0  0
   -5.7944   -6.0203    2.6518 H   0  0  0  0  0  0  0  0  0  0  0  0
   -2.4985    2.1925   -0.1977 H   0  0  0  0  0  0  0  0  0  0  0  0
   -4.1940    2.3470   -0.6586 H   0  0  0  0  0  0  0  0  0  0  0  0
   -1.8147    1.6818   -2.4714 H   0  0  0  0  0  0  0  0  0  0  0  0
   -2.8027    3.1492   -2.4892 H   0  0  0  0  0  0  0  0  0  0  0  0
  1  2  1  0  0  0  0
  1 24  1  0  0  0  0
  1 25  1  0  0  0  0
  1 26  1  0  0  0  0
  2  3  1  0  0  0  0
  2 23  1  0  0  0  0
  3  4  1  0  0  0  0
  3 27  1  0  0  0  0
  3 28  1  0  0  0  0
  4  5  1  0  0  0  0
  4 29  1  0  0  0  0
  4 30  1  0  0  0  0
  5  6  1  0  0  0  0
  5 22  1  0  0  0  0
  6  7  2  0  0  0  0
  6  8  1  0  0  0  0
  8  9  2  0  0  0  0
  8 21  1  0  0  0  0
  9 10  1  0  0  0  0
  9 31  1  0  0  0  0
 10 11  2  0  0  0  0
 10 20  1  0  0  0  0
 11 12  1  0  0  0  0
 11 18  1  0  0  0  0
 12 13  1  0  0  0  0
 12 17  2  0  0  0  0
 13 14  2  0  0  0  0
 13 32  1  0  0  0  0
 14 15  1  0  0  0  0
 14 33  1  0  0  0  0
 15 16  2  0  0  0  0
 15 34  1  0  0  0  0
 16 17  1  0  0  0  0
 16 35  1  0  0  0  0
 17 36  1  0  0  0  0
 18 19  1  0  0  0  0
 18 37  1  0  0  0  0
 19 20  2  0  0  0  0
 20 21  1  0  0  0  0
 22 23  1  0  0  0  0
 22 38  1  0  0  0  0
 22 39  1  0  0  0  0
 23 40  1  0  0  0  0
 23 41  1  0  0  0  0
M  END
$$$$
