CHEMBL2001539
 OpenBabel04072215363D

 20 22  0  0  0  0  0  0  0  0999 V2000
    2.9831    1.0754    0.0848 C   0  0  0  0  0  0  0  0  0  0  0  0
    1.6848    1.5493    0.0927 C   0  0  0  0  0  0  0  0  0  0  0  0
    0.7602    0.4849    0.0070 C   0  0  0  0  0  0  0  0  0  0  0  0
    1.3617   -0.7538   -0.0978 C   0  0  0  0  0  0  0  0  0  0  0  0
    3.0581   -0.6350   -0.0596 S   0  0  0  0  0  0  0  0  0  0  0  0
    0.6260   -2.0600   -0.2993 C   0  0  0  0  0  0  0  0  0  0  0  0
   -0.8046   -2.0069    0.2956 C   0  0  0  0  0  0  0  0  0  0  0  0
   -1.4363   -0.6654    0.1092 C   0  0  0  0  0  0  0  0  0  0  0  0
   -2.7767   -0.2422    0.0585 C   0  0  0  0  0  0  0  0  0  0  0  0
   -2.8885    1.0879   -0.0560 N   0  0  0  0  0  0  0  0  0  0  0  0
   -1.6080    1.5203   -0.0676 N   0  0  0  0  0  0  0  0  0  0  0  0
   -0.7152    0.5037    0.0081 C   0  0  0  0  0  0  0  0  0  0  0  0
    3.8978    1.6483    0.1544 H   0  0  0  0  0  0  0  0  0  0  0  0
    1.4392    2.5990    0.1804 H   0  0  0  0  0  0  0  0  0  0  0  0
    1.1753   -2.9030    0.1342 H   0  0  0  0  0  0  0  0  0  0  0  0
    0.5521   -2.2372   -1.3805 H   0  0  0  0  0  0  0  0  0  0  0  0
   -0.7443   -2.2021    1.3746 H   0  0  0  0  0  0  0  0  0  0  0  0
   -1.4221   -2.7977   -0.1430 H   0  0  0  0  0  0  0  0  0  0  0  0
   -3.6784   -0.8386    0.1106 H   0  0  0  0  0  0  0  0  0  0  0  0
   -1.4300    2.5154   -0.1515 H   0  0  0  0  0  0  0  0  0  0  0  0
  1  2  2  0  0  0  0
  1  5  1  0  0  0  0
  1 13  1  0  0  0  0
  2  3  1  0  0  0  0
  2 14  1  0  0  0  0
  3  4  2  0  0  0  0
  3 12  1  0  0  0  0
  4  5  1  0  0  0  0
  4  6  1  0  0  0  0
  6  7  1  0  0  0  0
  6 15  1  0  0  0  0
  6 16  1  0  0  0  0
  7  8  1  0  0  0  0
  7 17  1  0  0  0  0
  7 18  1  0  0  0  0
  8  9  1  0  0  0  0
  8 12  2  0  0  0  0
  9 10  2  0  0  0  0
  9 19  1  0  0  0  0
 10 11  1  0  0  0  0
 11 12  1  0  0  0  0
 11 20  1  0  0  0  0
M  END
$$$$
