CHEMBL1986979
 OpenBabel04072215363D

 46 49  0  0  0  0  0  0  0  0999 V2000
   -9.9304   -0.9864   -2.1563 C   0  0  0  0  0  0  0  0  0  0  0  0
   -8.5330   -1.2087   -1.6559 C   0  0  0  0  0  0  0  0  0  0  0  0
   -7.7129   -0.1151   -1.3442 C   0  0  0  0  0  0  0  0  0  0  0  0
   -6.4106   -0.2849   -0.8527 C   0  0  0  0  0  0  0  0  0  0  0  0
   -5.5630    0.8042   -0.5290 N   0  0  0  0  0  0  0  0  0  0  0  0
   -5.9712    2.1205   -0.4576 C   0  0  0  0  0  0  0  0  0  0  0  0
   -7.1351    2.5095   -0.5533 O   0  0  0  0  0  0  0  0  0  0  0  0
   -4.8994    2.9949   -0.3126 N   0  0  0  0  0  0  0  0  0  0  0  0
   -5.1152    4.3926   -0.2288 C   0  0  0  0  0  0  0  0  0  0  0  0
   -4.2443    5.2595   -0.8802 C   0  0  0  0  0  0  0  0  0  0  0  0
   -4.4756    6.6445   -0.8457 C   0  0  0  0  0  0  0  0  0  0  0  0
   -5.5698    7.2041   -0.1496 C   0  0  0  0  0  0  0  0  0  0  0  0
   -5.7764    8.6691   -0.1080 C   0  0  0  0  0  0  0  0  0  0  0  0
   -5.5724    9.4447   -1.2818 C   0  0  0  0  0  0  0  0  0  0  0  0
   -5.7279   10.8287   -1.3093 C   0  0  0  0  0  0  0  0  0  0  0  0
   -6.1367   11.5150   -0.1738 C   0  0  0  0  0  0  0  0  0  0  0  0
   -6.3507   10.7633    0.9835 C   0  0  0  0  0  0  0  0  0  0  0  0
   -6.7614   11.1705    2.2226 N   0  0  0  0  0  0  0  0  0  0  0  0
   -6.7965   10.2032    3.1377 N   0  0  0  0  0  0  0  0  0  0  0  0
   -6.4015    9.1219    2.4708 C   0  0  0  0  0  0  0  0  0  0  0  0
   -6.2652    7.9582    3.1274 N   0  0  0  0  0  0  0  0  0  0  0  0
   -6.1587    9.3797    1.0749 C   0  0  0  0  0  0  0  0  0  0  0  0
   -6.4491    6.2919    0.4452 C   0  0  0  0  0  0  0  0  0  0  0  0
   -7.5568    6.7216    1.0696 F   0  0  0  0  0  0  0  0  0  0  0  0
   -6.2078    4.9226    0.4558 C   0  0  0  0  0  0  0  0  0  0  0  0
   -5.9132   -1.5838   -0.7057 C   0  0  0  0  0  0  0  0  0  0  0  0
   -6.7162   -2.6839   -1.0262 C   0  0  0  0  0  0  0  0  0  0  0  0
   -8.0113   -2.4880   -1.4989 C   0  0  0  0  0  0  0  0  0  0  0  0
   -8.7624   -3.5550   -1.8022 F   0  0  0  0  0  0  0  0  0  0  0  0
  -10.1698    0.0834   -2.2111 H   0  0  0  0  0  0  0  0  0  0  0  0
  -10.6469   -1.4603   -1.4824 H   0  0  0  0  0  0  0  0  0  0  0  0
  -10.0390   -1.4002   -3.1615 H   0  0  0  0  0  0  0  0  0  0  0  0
   -8.1361    0.8731   -1.4992 H   0  0  0  0  0  0  0  0  0  0  0  0
   -4.6532    0.5869   -0.1482 H   0  0  0  0  0  0  0  0  0  0  0  0
   -4.0266    2.6894   -0.7214 H   0  0  0  0  0  0  0  0  0  0  0  0
   -3.4105    4.8797   -1.4656 H   0  0  0  0  0  0  0  0  0  0  0  0
   -3.7869    7.2882   -1.3887 H   0  0  0  0  0  0  0  0  0  0  0  0
   -5.2840    8.9544   -2.2109 H   0  0  0  0  0  0  0  0  0  0  0  0
   -5.5348   11.3768   -2.2289 H   0  0  0  0  0  0  0  0  0  0  0  0
   -6.2719   12.5916   -0.1882 H   0  0  0  0  0  0  0  0  0  0  0  0
   -7.0165   12.1076    2.5092 H   0  0  0  0  0  0  0  0  0  0  0  0
   -6.7458    7.9340    4.0204 H   0  0  0  0  0  0  0  0  0  0  0  0
   -6.3940    7.0940    2.6218 H   0  0  0  0  0  0  0  0  0  0  0  0
   -6.9030    4.2866    0.9965 H   0  0  0  0  0  0  0  0  0  0  0  0
   -4.9075   -1.7597   -0.3350 H   0  0  0  0  0  0  0  0  0  0  0  0
   -6.3384   -3.6948   -0.9180 H   0  0  0  0  0  0  0  0  0  0  0  0
  1  2  1  0  0  0  0
  1 30  1  0  0  0  0
  1 31  1  0  0  0  0
  1 32  1  0  0  0  0
  2  3  1  0  0  0  0
  2 28  2  0  0  0  0
  3  4  2  0  0  0  0
  3 33  1  0  0  0  0
  4  5  1  0  0  0  0
  4 26  1  0  0  0  0
  5  6  1  0  0  0  0
  5 34  1  0  0  0  0
  6  7  2  0  0  0  0
  6  8  1  0  0  0  0
  8  9  1  0  0  0  0
  8 35  1  0  0  0  0
  9 10  1  0  0  0  0
  9 25  2  0  0  0  0
 10 11  2  0  0  0  0
 10 36  1  0  0  0  0
 11 12  1  0  0  0  0
 11 37  1  0  0  0  0
 12 13  1  0  0  0  0
 12 23  2  0  0  0  0
 13 14  1  0  0  0  0
 13 22  2  0  0  0  0
 14 15  2  0  0  0  0
 14 38  1  0  0  0  0
 15 16  1  0  0  0  0
 15 39  1  0  0  0  0
 16 17  2  0  0  0  0
 16 40  1  0  0  0  0
 17 18  1  0  0  0  0
 17 22  1  0  0  0  0
 18 19  1  0  0  0  0
 18 41  1  0  0  0  0
 19 20  2  0  0  0  0
 20 21  1  0  0  0  0
 20 22  1  0  0  0  0
 21 42  1  0  0  0  0
 21 43  1  0  0  0  0
 23 24  1  0  0  0  0
 23 25  1  0  0  0  0
 25 44  1  0  0  0  0
 26 27  2  0  0  0  0
 26 45  1  0  0  0  0
 27 28  1  0  0  0  0
 27 46  1  0  0  0  0
 28 29  1  0  0  0  0
M  END
$$$$
