CHEMBL3974328
 OpenBabel04072215373D

 54 58  0  0  1  0  0  0  0  0999 V2000
    3.3004    5.5753    4.9567 C   0  0  0  0  0  0  0  0  0  0  0  0
    2.9162    4.8426    3.7576 N   0  0  0  0  0  0  0  0  0  0  0  0
    1.7565    5.4359    3.0541 C   0  0  1  0  0  0  0  0  0  0  0  0
    1.9933    6.8421    2.4916 C   0  0  0  0  0  0  0  0  0  0  0  0
    2.6170    6.7006    1.2080 O   0  0  0  0  0  0  0  0  0  0  0  0
    2.2719    5.4035    0.6862 C   0  0  2  0  0  0  0  0  0  0  0  0
    1.2782    5.5576   -0.4664 C   0  0  1  0  0  0  0  0  0  0  0  0
    1.8114    5.1832   -1.7394 O   0  0  0  0  0  0  0  0  0  0  0  0
    2.7967    5.9665   -2.2868 C   0  0  0  0  0  0  0  0  0  0  0  0
    2.9876    7.3130   -1.9375 C   0  0  0  0  0  0  0  0  0  0  0  0
    4.0139    8.0909   -2.4608 C   0  0  0  0  0  0  0  0  0  0  0  0
    4.1210    9.3592   -2.0554 N   0  0  0  0  0  0  0  0  0  0  0  0
    5.1387   10.0684   -2.5493 C   0  0  0  0  0  0  0  0  0  0  0  0
    6.0457    9.6352   -3.4255 N   0  0  0  0  0  0  0  0  0  0  0  0
    5.9236    8.3645   -3.8449 C   0  0  0  0  0  0  0  0  0  0  0  0
    6.8655    7.8551   -4.7733 N   0  0  0  0  0  0  0  0  0  0  0  0
    8.2047    8.2211   -5.0019 C   0  0  0  0  0  0  0  0  0  0  0  0
    8.8852    7.6467   -6.0866 C   0  0  0  0  0  0  0  0  0  0  0  0
   10.2675    7.8021   -6.2397 C   0  0  0  0  0  0  0  0  0  0  0  0
   10.9982    8.5337   -5.3022 C   0  0  0  0  0  0  0  0  0  0  0  0
   12.8839    8.5973   -5.5131 Br  0  0  0  0  0  0  0  0  0  0  0  0
   10.3345    9.1442   -4.2365 C   0  0  0  0  0  0  0  0  0  0  0  0
   11.1583   10.0786   -3.0373 Cl  0  0  0  0  0  0  0  0  0  0  0  0
    8.9510    8.9799   -4.0909 C   0  0  0  0  0  0  0  0  0  0  0  0
    4.8980    7.5148   -3.3750 C   0  0  0  0  0  0  0  0  0  0  0  0
    4.7178    6.1567   -3.7384 C   0  0  0  0  0  0  0  0  0  0  0  0
    3.6578    5.3947   -3.2313 C   0  0  0  0  0  0  0  0  0  0  0  0
    3.6403    4.1136   -3.7171 O   0  0  0  0  0  0  0  0  0  0  0  0
    2.3882    3.4407   -3.7429 C   0  0  0  0  0  0  0  0  0  0  0  0
    0.1692    4.5933   -0.0656 C   0  0  0  0  0  0  0  0  0  0  0  0
    0.1227    4.6560    1.3685 O   0  0  0  0  0  0  0  0  0  0  0  0
    1.5055    4.6545    1.7688 C   0  0  2  0  0  0  0  0  0  0  0  0
    4.0689    5.0069    5.4910 H   0  0  0  0  0  0  0  0  0  0  0  0
    2.4551    5.7160    5.6372 H   0  0  0  0  0  0  0  0  0  0  0  0
    3.7411    6.5465    4.7165 H   0  0  0  0  0  0  0  0  0  0  0  0
    2.6745    3.8883    4.0295 H   0  0  0  0  0  0  0  0  0  0  0  0
    0.8853    5.4310    3.7191 H   0  0  0  0  0  0  0  0  0  0  0  0
    2.6121    7.4885    3.1181 H   0  0  0  0  0  0  0  0  0  0  0  0
    1.0376    7.3573    2.3391 H   0  0  0  0  0  0  0  0  0  0  0  0
    3.2004    4.8955    0.4084 H   0  0  0  0  0  0  0  0  0  0  0  0
    0.8371    6.5609   -0.5068 H   0  0  0  0  0  0  0  0  0  0  0  0
    2.3371    7.8067   -1.2221 H   0  0  0  0  0  0  0  0  0  0  0  0
    5.2345   11.0932   -2.2076 H   0  0  0  0  0  0  0  0  0  0  0  0
    6.3919    7.4855   -5.5906 H   0  0  0  0  0  0  0  0  0  0  0  0
    8.3491    7.0378   -6.8112 H   0  0  0  0  0  0  0  0  0  0  0  0
   10.7667    7.3197   -7.0767 H   0  0  0  0  0  0  0  0  0  0  0  0
    8.4652    9.4301   -3.2299 H   0  0  0  0  0  0  0  0  0  0  0  0
    5.4180    5.6757   -4.4183 H   0  0  0  0  0  0  0  0  0  0  0  0
    2.4761    2.6061   -4.4463 H   0  0  0  0  0  0  0  0  0  0  0  0
    1.5786    4.0857   -4.1015 H   0  0  0  0  0  0  0  0  0  0  0  0
    2.1610    3.0122   -2.7624 H   0  0  0  0  0  0  0  0  0  0  0  0
    0.3806    3.5626   -0.3768 H   0  0  0  0  0  0  0  0  0  0  0  0
   -0.8019    4.8776   -0.4820 H   0  0  0  0  0  0  0  0  0  0  0  0
    1.8057    3.6018    1.8329 H   0  0  0  0  0  0  0  0  0  0  0  0
  1  2  1  0  0  0  0
  1 33  1  0  0  0  0
  1 34  1  0  0  0  0
  1 35  1  0  0  0  0
  2 36  1  0  0  0  0
  3  4  1  0  0  0  0
  3 32  1  0  0  0  0
  3  2  1  0  0  0  0
  3 37  1  1  0  0  0
  4  5  1  0  0  0  0
  4 38  1  0  0  0  0
  4 39  1  0  0  0  0
  5  6  1  0  0  0  0
  6  7  1  0  0  0  0
  6 32  1  0  0  0  0
  6 40  1  6  0  0  0
  7  8  1  0  0  0  0
  7 30  1  0  0  0  0
  7 41  1  6  0  0  0
  8  9  1  0  0  0  0
  9 10  1  0  0  0  0
  9 27  2  0  0  0  0
 10 11  2  0  0  0  0
 10 42  1  0  0  0  0
 11 12  1  0  0  0  0
 11 25  1  0  0  0  0
 12 13  2  0  0  0  0
 13 14  1  0  0  0  0
 13 43  1  0  0  0  0
 14 15  2  0  0  0  0
 15 16  1  0  0  0  0
 15 25  1  0  0  0  0
 16 17  1  0  0  0  0
 16 44  1  0  0  0  0
 17 18  1  0  0  0  0
 17 24  2  0  0  0  0
 18 19  2  0  0  0  0
 18 45  1  0  0  0  0
 19 20  1  0  0  0  0
 19 46  1  0  0  0  0
 20 21  1  0  0  0  0
 20 22  2  0  0  0  0
 22 23  1  0  0  0  0
 22 24  1  0  0  0  0
 24 47  1  0  0  0  0
 25 26  2  0  0  0  0
 26 27  1  0  0  0  0
 26 48  1  0  0  0  0
 27 28  1  0  0  0  0
 28 29  1  0  0  0  0
 29 49  1  0  0  0  0
 29 50  1  0  0  0  0
 29 51  1  0  0  0  0
 30 31  1  0  0  0  0
 30 52  1  0  0  0  0
 30 53  1  0  0  0  0
 31 32  1  0  0  0  0
 32 54  1  1  0  0  0
M  END
$$$$
