CHEMBL600603
 OpenBabel04072215383D

 61 64  0  0  1  0  0  0  0  0999 V2000
   10.6991   -0.8605    1.9340 C   0  0  0  0  0  0  0  0  0  0  0  0
    9.8255   -1.2809    2.9864 O   0  0  0  0  0  0  0  0  0  0  0  0
    9.0320   -2.3637    2.7074 C   0  0  0  0  0  0  0  0  0  0  0  0
    9.4438   -3.3564    1.8032 C   0  0  0  0  0  0  0  0  0  0  0  0
    8.6249   -4.4040    1.4129 C   0  0  0  0  0  0  0  0  0  0  0  0
    9.0925   -5.2565    0.4846 N   0  0  0  0  0  0  0  0  0  0  0  0
    8.2857   -6.2481    0.0648 C   0  0  0  0  0  0  0  0  0  0  0  0
    7.0029   -6.4443    0.5246 C   0  0  0  0  0  0  0  0  0  0  0  0
    6.5064   -5.5417    1.4641 C   0  0  0  0  0  0  0  0  0  0  0  0
    5.2213   -5.6526    1.9553 O   0  0  0  0  0  0  0  0  0  0  0  0
    4.1785   -5.9832    1.1118 C   0  0  0  0  0  0  0  0  0  0  0  0
    3.1580   -6.7415    1.6780 C   0  0  0  0  0  0  0  0  0  0  0  0
    2.0019   -7.0532    0.9451 C   0  0  0  0  0  0  0  0  0  0  0  0
    1.8382   -6.6018   -0.3700 C   0  0  0  0  0  0  0  0  0  0  0  0
    0.6624   -6.8425   -1.1319 N   0  0  0  0  0  0  0  0  0  0  0  0
   -0.5696   -7.1992   -0.6050 C   0  0  0  0  0  0  0  0  0  0  0  0
   -0.8403   -7.2507    0.5899 O   0  0  0  0  0  0  0  0  0  0  0  0
   -1.6372   -7.4921   -1.6503 C   0  0  0  0  0  0  0  0  0  0  0  0
   -2.9404   -7.9597   -0.9664 C   0  0  3  0  0  0  0  0  0  0  0  0
   -4.0465   -8.0922   -1.9805 N   0  0  0  0  0  0  0  0  0  0  0  0
   -4.9636   -7.0384   -2.1423 C   0  0  0  0  0  0  0  0  0  0  0  0
   -4.5975   -5.6893   -2.0970 C   0  0  0  0  0  0  0  0  0  0  0  0
   -5.5205   -4.6737   -2.3725 C   0  0  0  0  0  0  0  0  0  0  0  0
   -6.8334   -4.9898   -2.7047 C   0  0  0  0  0  0  0  0  0  0  0  0
   -7.2175   -6.3237   -2.7778 C   0  0  0  0  0  0  0  0  0  0  0  0
   -6.2853   -7.3349   -2.5188 C   0  0  0  0  0  0  0  0  0  0  0  0
   -2.6950   -9.3184   -0.2222 C   0  0  0  0  0  0  0  0  0  0  0  0
   -1.4637   -9.8308   -0.4380 F   0  0  0  0  0  0  0  0  0  0  0  0
   -2.8839   -9.2051    1.1112 F   0  0  0  0  0  0  0  0  0  0  0  0
   -3.5819  -10.2562   -0.6566 F   0  0  0  0  0  0  0  0  0  0  0  0
    2.8809   -5.8804   -0.9549 C   0  0  0  0  0  0  0  0  0  0  0  0
    4.0255   -5.5529   -0.2105 C   0  0  0  0  0  0  0  0  0  0  0  0
    4.9595   -4.7962   -0.8037 F   0  0  0  0  0  0  0  0  0  0  0  0
    7.3406   -4.5152    1.9727 C   0  0  0  0  0  0  0  0  0  0  0  0
    6.9732   -3.5942    2.9826 C   0  0  0  0  0  0  0  0  0  0  0  0
    7.7955   -2.5127    3.3458 C   0  0  0  0  0  0  0  0  0  0  0  0
    7.2221   -1.7269    4.3081 O   0  0  0  0  0  0  0  0  0  0  0  0
    7.7608   -0.4417    4.5775 C   0  0  0  0  0  0  0  0  0  0  0  0
   10.8209    0.2247    2.0030 H   0  0  0  0  0  0  0  0  0  0  0  0
   10.3054   -1.0715    0.9320 H   0  0  0  0  0  0  0  0  0  0  0  0
   11.6823   -1.3244    2.0631 H   0  0  0  0  0  0  0  0  0  0  0  0
   10.4348   -3.3208    1.3583 H   0  0  0  0  0  0  0  0  0  0  0  0
    8.7133   -6.8982   -0.6938 H   0  0  0  0  0  0  0  0  0  0  0  0
    6.4082   -7.2647    0.1431 H   0  0  0  0  0  0  0  0  0  0  0  0
    3.2439   -7.0926    2.7050 H   0  0  0  0  0  0  0  0  0  0  0  0
    1.2450   -7.6612    1.4326 H   0  0  0  0  0  0  0  0  0  0  0  0
    0.6944   -6.5911   -2.1128 H   0  0  0  0  0  0  0  0  0  0  0  0
   -1.2704   -8.2552   -2.3459 H   0  0  0  0  0  0  0  0  0  0  0  0
   -1.8016   -6.5787   -2.2317 H   0  0  0  0  0  0  0  0  0  0  0  0
   -3.2531   -7.2394   -0.2042 H   0  0  0  0  0  0  0  0  0  0  0  0
   -4.5590   -8.9684   -1.8231 H   0  0  0  0  0  0  0  0  0  0  0  0
   -3.5831   -5.3906   -1.8612 H   0  0  0  0  0  0  0  0  0  0  0  0
   -5.2052   -3.6340   -2.3373 H   0  0  0  0  0  0  0  0  0  0  0  0
   -7.5499   -4.2002   -2.9170 H   0  0  0  0  0  0  0  0  0  0  0  0
   -8.2382   -6.5806   -3.0483 H   0  0  0  0  0  0  0  0  0  0  0  0
   -6.6123   -8.3688   -2.6063 H   0  0  0  0  0  0  0  0  0  0  0  0
    2.8171   -5.5164   -1.9752 H   0  0  0  0  0  0  0  0  0  0  0  0
    6.0115   -3.7017    3.4837 H   0  0  0  0  0  0  0  0  0  0  0  0
    6.9949    0.1195    5.1244 H   0  0  0  0  0  0  0  0  0  0  0  0
    7.9709    0.1249    3.6659 H   0  0  0  0  0  0  0  0  0  0  0  0
    8.6390   -0.5151    5.2260 H   0  0  0  0  0  0  0  0  0  0  0  0
  1  2  1  0  0  0  0
  1 39  1  0  0  0  0
  1 40  1  0  0  0  0
  1 41  1  0  0  0  0
  2  3  1  0  0  0  0
  3  4  1  0  0  0  0
  3 36  2  0  0  0  0
  4  5  2  0  0  0  0
  4 42  1  0  0  0  0
  5  6  1  0  0  0  0
  5 34  1  0  0  0  0
  6  7  2  0  0  0  0
  7  8  1  0  0  0  0
  7 43  1  0  0  0  0
  8  9  2  0  0  0  0
  8 44  1  0  0  0  0
  9 10  1  0  0  0  0
  9 34  1  0  0  0  0
 10 11  1  0  0  0  0
 11 12  1  0  0  0  0
 11 32  2  0  0  0  0
 12 13  2  0  0  0  0
 12 45  1  0  0  0  0
 13 14  1  0  0  0  0
 13 46  1  0  0  0  0
 14 15  1  0  0  0  0
 14 31  2  0  0  0  0
 15 16  1  0  0  0  0
 15 47  1  0  0  0  0
 16 17  2  0  0  0  0
 16 18  1  0  0  0  0
 18 19  1  0  0  0  0
 18 48  1  0  0  0  0
 18 49  1  0  0  0  0
 19 20  1  0  0  0  0
 19 27  1  0  0  0  0
 19 50  1  0  0  0  0
 20 21  1  0  0  0  0
 20 51  1  0  0  0  0
 21 22  1  0  0  0  0
 21 26  2  0  0  0  0
 22 23  2  0  0  0  0
 22 52  1  0  0  0  0
 23 24  1  0  0  0  0
 23 53  1  0  0  0  0
 24 25  2  0  0  0  0
 24 54  1  0  0  0  0
 25 26  1  0  0  0  0
 25 55  1  0  0  0  0
 26 56  1  0  0  0  0
 27 28  1  0  0  0  0
 27 29  1  0  0  0  0
 27 30  1  0  0  0  0
 31 32  1  0  0  0  0
 31 57  1  0  0  0  0
 32 33  1  0  0  0  0
 34 35  2  0  0  0  0
 35 36  1  0  0  0  0
 35 58  1  0  0  0  0
 36 37  1  0  0  0  0
 37 38  1  0  0  0  0
 38 59  1  0  0  0  0
 38 60  1  0  0  0  0
 38 61  1  0  0  0  0
M  END
$$$$
