CHEMBL1688350
 OpenBabel04072215363D

 46 50  0  0  0  0  0  0  0  0999 V2000
   -0.1717    0.3346    1.5934 C   0  0  0  0  0  0  0  0  0  0  0  0
   -0.4688    1.1319    0.5089 C   0  0  0  0  0  0  0  0  0  0  0  0
   -0.0875    0.8491   -0.7548 N   0  0  0  0  0  0  0  0  0  0  0  0
    0.6258   -0.2803   -0.9838 C   0  0  0  0  0  0  0  0  0  0  0  0
    1.0437   -0.5429   -2.2998 N   0  0  0  0  0  0  0  0  0  0  0  0
    0.8551    0.5492   -3.2451 C   0  0  0  0  0  0  0  0  0  0  0  0
    1.5713    0.3280   -4.5300 C   0  0  0  0  0  0  0  0  0  0  0  0
    1.4281    0.8992   -5.7751 C   0  0  0  0  0  0  0  0  0  0  0  0
    2.3678    0.4142   -6.6477 N   0  0  0  0  0  0  0  0  0  0  0  0
    3.0814   -0.4394   -5.9494 C   0  0  0  0  0  0  0  0  0  0  0  0
    2.6358   -0.5301   -4.6622 N   0  0  0  0  0  0  0  0  0  0  0  0
    0.9756   -1.1538    0.0625 C   0  0  0  0  0  0  0  0  0  0  0  0
    1.7651   -2.3553   -0.1647 C   0  0  0  0  0  0  0  0  0  0  0  0
    1.9378   -3.0754   -1.2534 N   0  0  0  0  0  0  0  0  0  0  0  0
    2.7428   -4.1318   -0.8942 N   0  0  0  0  0  0  0  0  0  0  0  0
    3.0063   -3.9975    0.3888 C   0  0  0  0  0  0  0  0  0  0  0  0
    3.6930   -4.7699    1.2548 N   0  0  0  0  0  0  0  0  0  0  0  0
    3.8276   -6.1713    1.1707 C   0  0  0  0  0  0  0  0  0  0  0  0
    4.6741   -6.8360    2.0753 C   0  0  0  0  0  0  0  0  0  0  0  0
    4.8549   -8.2235    2.0092 C   0  0  0  0  0  0  0  0  0  0  0  0
    4.2100   -8.9649    1.0262 C   0  0  0  0  0  0  0  0  0  0  0  0
    3.3688   -8.3192    0.1171 C   0  0  0  0  0  0  0  0  0  0  0  0
    3.2051   -6.9380    0.1763 C   0  0  0  0  0  0  0  0  0  0  0  0
    2.6748   -8.9717   -0.8682 O   0  0  0  0  0  0  0  0  0  0  0  0
    2.6247  -10.3788   -0.6246 C   0  0  0  0  0  0  0  0  0  0  0  0
    3.9954  -10.9005   -0.2273 C   0  0  0  0  0  0  0  0  0  0  0  0
    4.4297  -10.3164    1.0083 O   0  0  0  0  0  0  0  0  0  0  0  0
    2.4440   -2.8693    0.9152 O   0  0  0  0  0  0  0  0  0  0  0  0
    0.5597   -0.8229    1.3634 C   0  0  0  0  0  0  0  0  0  0  0  0
   -0.4965    0.6067    2.5910 H   0  0  0  0  0  0  0  0  0  0  0  0
   -1.0368    2.0502    0.6259 H   0  0  0  0  0  0  0  0  0  0  0  0
    0.6081   -1.4081   -2.6179 H   0  0  0  0  0  0  0  0  0  0  0  0
    1.2562    1.4804   -2.8232 H   0  0  0  0  0  0  0  0  0  0  0  0
   -0.2126    0.6996   -3.4481 H   0  0  0  0  0  0  0  0  0  0  0  0
    0.7076    1.6448   -6.0859 H   0  0  0  0  0  0  0  0  0  0  0  0
    3.9237   -1.0106   -6.3155 H   0  0  0  0  0  0  0  0  0  0  0  0
    3.0159   -1.1114   -3.9259 H   0  0  0  0  0  0  0  0  0  0  0  0
    3.8242   -4.4023    2.1886 H   0  0  0  0  0  0  0  0  0  0  0  0
    5.2083   -6.2774    2.8409 H   0  0  0  0  0  0  0  0  0  0  0  0
    5.5146   -8.7206    2.7189 H   0  0  0  0  0  0  0  0  0  0  0  0
    2.5474   -6.4859   -0.5606 H   0  0  0  0  0  0  0  0  0  0  0  0
    2.2871  -10.8597   -1.5480 H   0  0  0  0  0  0  0  0  0  0  0  0
    1.8764  -10.5711    0.1542 H   0  0  0  0  0  0  0  0  0  0  0  0
    4.7447  -10.6796   -0.9975 H   0  0  0  0  0  0  0  0  0  0  0  0
    3.9578  -11.9851   -0.0877 H   0  0  0  0  0  0  0  0  0  0  0  0
    0.8044   -1.4662    2.2060 H   0  0  0  0  0  0  0  0  0  0  0  0
  1  2  1  0  0  0  0
  1 29  2  0  0  0  0
  1 30  1  0  0  0  0
  2  3  2  0  0  0  0
  2 31  1  0  0  0  0
  3  4  1  0  0  0  0
  4  5  1  0  0  0  0
  4 12  2  0  0  0  0
  5  6  1  0  0  0  0
  5 32  1  0  0  0  0
  6  7  1  0  0  0  0
  6 33  1  0  0  0  0
  6 34  1  0  0  0  0
  7  8  2  0  0  0  0
  7 11  1  0  0  0  0
  8  9  1  0  0  0  0
  8 35  1  0  0  0  0
  9 10  2  0  0  0  0
 10 11  1  0  0  0  0
 10 36  1  0  0  0  0
 11 37  1  0  0  0  0
 12 13  1  0  0  0  0
 12 29  1  0  0  0  0
 13 14  2  0  0  0  0
 13 28  1  0  0  0  0
 14 15  1  0  0  0  0
 15 16  2  0  0  0  0
 16 17  1  0  0  0  0
 16 28  1  0  0  0  0
 17 18  1  0  0  0  0
 17 38  1  0  0  0  0
 18 19  1  0  0  0  0
 18 23  2  0  0  0  0
 19 20  2  0  0  0  0
 19 39  1  0  0  0  0
 20 21  1  0  0  0  0
 20 40  1  0  0  0  0
 21 22  2  0  0  0  0
 21 27  1  0  0  0  0
 22 23  1  0  0  0  0
 22 24  1  0  0  0  0
 23 41  1  0  0  0  0
 24 25  1  0  0  0  0
 25 26  1  0  0  0  0
 25 42  1  0  0  0  0
 25 43  1  0  0  0  0
 26 27  1  0  0  0  0
 26 44  1  0  0  0  0
 26 45  1  0  0  0  0
 29 46  1  0  0  0  0
M  END
$$$$
