CHEMBL3690496
 OpenBabel04072215373D

 49 52  0  0  0  0  0  0  0  0999 V2000
    2.1929    0.5768    1.1144 C   0  0  0  0  0  0  0  0  0  0  0  0
    2.4249   -0.0261   -0.1554 O   0  0  0  0  0  0  0  0  0  0  0  0
    3.1608    0.7010   -1.0360 C   0  0  0  0  0  0  0  0  0  0  0  0
    3.6763    1.9659   -0.8641 C   0  0  0  0  0  0  0  0  0  0  0  0
    4.4114    2.6158   -1.7920 N   0  0  0  0  0  0  0  0  0  0  0  0
    4.6415    1.9665   -2.9490 C   0  0  0  0  0  0  0  0  0  0  0  0
    5.4788    2.6366   -3.9815 C   0  0  0  0  0  0  0  0  0  0  0  0
    5.8167    1.9908   -5.2579 C   0  0  0  0  0  0  0  0  0  0  0  0
    6.5847    2.6255   -6.1589 C   0  0  0  0  0  0  0  0  0  0  0  0
    7.0379    3.9233   -5.9012 N   0  0  0  0  0  0  0  0  0  0  0  0
    7.7629    4.8259   -6.6846 C   0  0  0  0  0  0  0  0  0  0  0  0
    8.1437    4.6727   -8.0990 C   0  0  0  0  0  0  0  0  0  0  0  0
    7.3123    3.9777   -8.9854 C   0  0  0  0  0  0  0  0  0  0  0  0
    7.6618    3.8129  -10.3191 C   0  0  0  0  0  0  0  0  0  0  0  0
    8.8130    4.4139  -10.8128 C   0  0  0  0  0  0  0  0  0  0  0  0
    9.6292    5.1944   -9.9913 C   0  0  0  0  0  0  0  0  0  0  0  0
   10.7588    5.9036  -10.4924 N   0  0  0  0  0  0  0  0  0  0  0  0
   11.1292    5.9876  -11.8150 C   0  0  0  0  0  0  0  0  0  0  0  0
   10.5670    5.4870  -12.7806 O   0  0  0  0  0  0  0  0  0  0  0  0
   12.2986    6.6962  -11.9989 N   0  0  0  0  0  0  0  0  0  0  0  0
   12.7891    6.8572  -13.3765 C   0  0  0  0  0  0  0  0  0  0  0  0
   12.0912    7.9286  -14.2297 C   0  0  0  0  0  0  0  0  0  0  0  0
   11.2400    8.6870  -13.5021 F   0  0  0  0  0  0  0  0  0  0  0  0
   13.0180    8.7740  -14.7502 F   0  0  0  0  0  0  0  0  0  0  0  0
   11.4080    7.4021  -15.2675 F   0  0  0  0  0  0  0  0  0  0  0  0
    9.3046    5.2903   -8.6238 C   0  0  0  0  0  0  0  0  0  0  0  0
    7.9627    5.9048   -5.8373 C   0  0  0  0  0  0  0  0  0  0  0  0
    7.3595    5.7345   -4.6199 N   0  0  0  0  0  0  0  0  0  0  0  0
    6.7810    4.5587   -4.6881 C   0  0  0  0  0  0  0  0  0  0  0  0
    5.9714    3.8753   -3.7327 C   0  0  0  0  0  0  0  0  0  0  0  0
    4.1756    0.7326   -3.2284 N   0  0  0  0  0  0  0  0  0  0  0  0
    3.4455    0.1340   -2.2595 C   0  0  0  0  0  0  0  0  0  0  0  0
    1.6228   -0.1292    1.7248 H   0  0  0  0  0  0  0  0  0  0  0  0
    1.5967    1.4896    1.0100 H   0  0  0  0  0  0  0  0  0  0  0  0
    3.1364    0.7814    1.6323 H   0  0  0  0  0  0  0  0  0  0  0  0
    3.5278    2.5370    0.0454 H   0  0  0  0  0  0  0  0  0  0  0  0
    5.4380    0.9904   -5.4504 H   0  0  0  0  0  0  0  0  0  0  0  0
    6.8665    2.1529   -7.0883 H   0  0  0  0  0  0  0  0  0  0  0  0
    6.3604    3.5657   -8.6646 H   0  0  0  0  0  0  0  0  0  0  0  0
    7.0251    3.2382  -10.9855 H   0  0  0  0  0  0  0  0  0  0  0  0
    9.0295    4.2572  -11.8639 H   0  0  0  0  0  0  0  0  0  0  0  0
   11.3075    6.4134   -9.8183 H   0  0  0  0  0  0  0  0  0  0  0  0
   12.4783    7.4523  -11.3548 H   0  0  0  0  0  0  0  0  0  0  0  0
   12.7059    5.8905  -13.8893 H   0  0  0  0  0  0  0  0  0  0  0  0
   13.8559    7.0844  -13.2977 H   0  0  0  0  0  0  0  0  0  0  0  0
    9.9468    5.8644   -7.9597 H   0  0  0  0  0  0  0  0  0  0  0  0
    8.4831    6.8278   -6.0594 H   0  0  0  0  0  0  0  0  0  0  0  0
    5.7700    4.4002   -2.8042 H   0  0  0  0  0  0  0  0  0  0  0  0
    3.0846   -0.8612   -2.5063 H   0  0  0  0  0  0  0  0  0  0  0  0
  1  2  1  0  0  0  0
  1 33  1  0  0  0  0
  1 34  1  0  0  0  0
  1 35  1  0  0  0  0
  2  3  1  0  0  0  0
  3  4  1  0  0  0  0
  3 32  2  0  0  0  0
  4  5  2  0  0  0  0
  4 36  1  0  0  0  0
  5  6  1  0  0  0  0
  6  7  1  0  0  0  0
  6 31  2  0  0  0  0
  7  8  1  0  0  0  0
  7 30  2  0  0  0  0
  8  9  2  0  0  0  0
  8 37  1  0  0  0  0
  9 10  1  0  0  0  0
  9 38  1  0  0  0  0
 10 11  1  0  0  0  0
 10 29  1  0  0  0  0
 11 12  1  0  0  0  0
 11 27  2  0  0  0  0
 12 13  1  0  0  0  0
 12 26  2  0  0  0  0
 13 14  2  0  0  0  0
 13 39  1  0  0  0  0
 14 15  1  0  0  0  0
 14 40  1  0  0  0  0
 15 16  2  0  0  0  0
 15 41  1  0  0  0  0
 16 17  1  0  0  0  0
 16 26  1  0  0  0  0
 17 18  1  0  0  0  0
 17 42  1  0  0  0  0
 18 19  2  0  0  0  0
 18 20  1  0  0  0  0
 20 21  1  0  0  0  0
 20 43  1  0  0  0  0
 21 22  1  0  0  0  0
 21 44  1  0  0  0  0
 21 45  1  0  0  0  0
 22 23  1  0  0  0  0
 22 24  1  0  0  0  0
 22 25  1  0  0  0  0
 26 46  1  0  0  0  0
 27 28  1  0  0  0  0
 27 47  1  0  0  0  0
 28 29  2  0  0  0  0
 29 30  1  0  0  0  0
 30 48  1  0  0  0  0
 31 32  1  0  0  0  0
 32 49  1  0  0  0  0
M  END
$$$$
