CHEMBL3809754
 OpenBabel04072215373D

 52 56  0  0  0  0  0  0  0  0999 V2000
    1.7900   -3.1124    3.2825 C   0  0  0  0  0  0  0  0  0  0  0  0
    2.7452   -2.6725    2.1596 C   0  0  0  0  0  0  0  0  0  0  0  0
    3.7727   -3.7864    1.8969 C   0  0  0  0  0  0  0  0  0  0  0  0
    1.9192   -2.4625    0.8738 C   0  0  0  0  0  0  0  0  0  0  0  0
    3.4580   -1.4122    2.5732 C   0  0  0  0  0  0  0  0  0  0  0  0
    4.3249   -1.0791    3.5898 C   0  0  0  0  0  0  0  0  0  0  0  0
    4.5735    0.3070    3.4227 C   0  0  0  0  0  0  0  0  0  0  0  0
    5.3758    1.0724    4.2504 N   0  0  0  0  0  0  0  0  0  0  0  0
    5.3434    2.4491    4.2270 C   0  0  0  0  0  0  0  0  0  0  0  0
    4.6551    3.2228    3.5826 O   0  0  0  0  0  0  0  0  0  0  0  0
    6.1823    2.9739    5.2274 N   0  0  0  0  0  0  0  0  0  0  0  0
    7.4903    2.5980    5.5065 C   0  0  0  0  0  0  0  0  0  0  0  0
    7.9884    3.4184    6.4945 C   0  0  0  0  0  0  0  0  0  0  0  0
    6.9309    4.2630    6.9041 C   0  0  0  0  0  0  0  0  0  0  0  0
    6.9285    5.2012    7.8749 N   0  0  0  0  0  0  0  0  0  0  0  0
    5.7128    5.7402    8.1321 C   0  0  0  0  0  0  0  0  0  0  0  0
    4.5177    5.4111    7.4919 C   0  0  0  0  0  0  0  0  0  0  0  0
    3.2726    5.8800    7.8560 O   0  0  0  0  0  0  0  0  0  0  0  0
    3.1103    6.1852    9.1982 C   0  0  0  0  0  0  0  0  0  0  0  0
    3.6015    5.3320   10.1235 N   0  0  0  0  0  0  0  0  0  0  0  0
    3.7387    5.8247   11.3694 C   0  0  0  0  0  0  0  0  0  0  0  0
    3.4660    7.0804   11.7606 N   0  0  0  0  0  0  0  0  0  0  0  0
    2.9310    7.8438   10.7995 C   0  0  0  0  0  0  0  0  0  0  0  0
    2.6677    7.4292    9.5170 C   0  0  0  0  0  0  0  0  0  0  0  0
    2.1352    8.5543    8.7219 C   0  0  0  0  0  0  0  0  0  0  0  0
    2.6940    9.7502    9.3954 N   0  0  0  0  0  0  0  0  0  0  0  0
    2.7839    9.3455   10.8348 C   0  0  0  0  0  0  0  0  0  0  0  0
    4.5706    4.5547    6.4008 C   0  0  0  0  0  0  0  0  0  0  0  0
    5.8123    3.9604    6.1332 C   0  0  0  0  0  0  0  0  0  0  0  0
    3.9166    0.7664    2.3561 N   0  0  0  0  0  0  0  0  0  0  0  0
    3.2259   -0.2979    1.8296 O   0  0  0  0  0  0  0  0  0  0  0  0
    1.2684   -4.0394    3.0179 H   0  0  0  0  0  0  0  0  0  0  0  0
    1.0297   -2.3469    3.4792 H   0  0  0  0  0  0  0  0  0  0  0  0
    2.3261   -3.2907    4.2217 H   0  0  0  0  0  0  0  0  0  0  0  0
    3.2766   -4.7206    1.6088 H   0  0  0  0  0  0  0  0  0  0  0  0
    4.3791   -3.9950    2.7854 H   0  0  0  0  0  0  0  0  0  0  0  0
    4.4582   -3.5108    1.0865 H   0  0  0  0  0  0  0  0  0  0  0  0
    1.4127   -3.3864    0.5721 H   0  0  0  0  0  0  0  0  0  0  0  0
    2.5532   -2.1449    0.0371 H   0  0  0  0  0  0  0  0  0  0  0  0
    1.1479   -1.6951    1.0126 H   0  0  0  0  0  0  0  0  0  0  0  0
    4.6896   -1.7373    4.3660 H   0  0  0  0  0  0  0  0  0  0  0  0
    5.8219    0.5944    5.0229 H   0  0  0  0  0  0  0  0  0  0  0  0
    7.9787    1.8258    4.9236 H   0  0  0  0  0  0  0  0  0  0  0  0
    8.9859    3.4086    6.9037 H   0  0  0  0  0  0  0  0  0  0  0  0
    5.7344    6.4632    8.9418 H   0  0  0  0  0  0  0  0  0  0  0  0
    4.1593    5.1555   12.1126 H   0  0  0  0  0  0  0  0  0  0  0  0
    1.0397    8.5851    8.8026 H   0  0  0  0  0  0  0  0  0  0  0  0
    2.4070    8.5176    7.6648 H   0  0  0  0  0  0  0  0  0  0  0  0
    3.6574    9.8375    9.0612 H   0  0  0  0  0  0  0  0  0  0  0  0
    1.8703    9.6357   11.3608 H   0  0  0  0  0  0  0  0  0  0  0  0
    3.6547    9.8141   11.3041 H   0  0  0  0  0  0  0  0  0  0  0  0
    3.6805    4.3101    5.8294 H   0  0  0  0  0  0  0  0  0  0  0  0
  1  2  1  0  0  0  0
  1 32  1  0  0  0  0
  1 33  1  0  0  0  0
  1 34  1  0  0  0  0
  2  3  1  0  0  0  0
  2  4  1  0  0  0  0
  2  5  1  0  0  0  0
  3 35  1  0  0  0  0
  3 36  1  0  0  0  0
  3 37  1  0  0  0  0
  4 38  1  0  0  0  0
  4 39  1  0  0  0  0
  4 40  1  0  0  0  0
  5  6  2  0  0  0  0
  5 31  1  0  0  0  0
  6  7  1  0  0  0  0
  6 41  1  0  0  0  0
  7  8  1  0  0  0  0
  7 30  2  0  0  0  0
  8  9  1  0  0  0  0
  8 42  1  0  0  0  0
  9 10  2  0  0  0  0
  9 11  1  0  0  0  0
 11 12  1  0  0  0  0
 11 29  1  0  0  0  0
 12 13  2  0  0  0  0
 12 43  1  0  0  0  0
 13 14  1  0  0  0  0
 13 44  1  0  0  0  0
 14 15  1  0  0  0  0
 14 29  2  0  0  0  0
 15 16  2  0  0  0  0
 16 17  1  0  0  0  0
 16 45  1  0  0  0  0
 17 18  1  0  0  0  0
 17 28  2  0  0  0  0
 18 19  1  0  0  0  0
 19 20  1  0  0  0  0
 19 24  2  0  0  0  0
 20 21  2  0  0  0  0
 21 22  1  0  0  0  0
 21 46  1  0  0  0  0
 22 23  2  0  0  0  0
 23 24  1  0  0  0  0
 23 27  1  0  0  0  0
 24 25  1  0  0  0  0
 25 26  1  0  0  0  0
 25 47  1  0  0  0  0
 25 48  1  0  0  0  0
 26 27  1  0  0  0  0
 26 49  1  0  0  0  0
 27 50  1  0  0  0  0
 27 51  1  0  0  0  0
 28 29  1  0  0  0  0
 28 52  1  0  0  0  0
 30 31  1  0  0  0  0
M  END
$$$$
