CHEMBL396523
 OpenBabel04072215373D

 40 43  0  0  0  0  0  0  0  0999 V2000
    6.7348   -2.4526   -1.4759 O   0  0  0  0  0  0  0  0  0  0  0  0
    6.2277   -1.7138   -0.6485 C   0  0  0  0  0  0  0  0  0  0  0  0
    5.3338   -0.7512   -0.9707 O   0  0  0  0  0  0  0  0  0  0  0  0
    6.5956   -1.7447    0.7902 C   0  0  0  0  0  0  0  0  0  0  0  0
    7.8950   -2.1728    1.1034 C   0  0  0  0  0  0  0  0  0  0  0  0
    8.3286   -2.2026    2.4277 C   0  0  0  0  0  0  0  0  0  0  0  0
    7.4642   -1.8107    3.4467 C   0  0  0  0  0  0  0  0  0  0  0  0
    6.1612   -1.4090    3.1449 C   0  0  0  0  0  0  0  0  0  0  0  0
    5.7076   -1.3605    1.8158 C   0  0  0  0  0  0  0  0  0  0  0  0
    4.3284   -1.1333    1.5232 N   0  0  0  0  0  0  0  0  0  0  0  0
    3.4650   -0.3040    2.2887 C   0  0  0  0  0  0  0  0  0  0  0  0
    2.1301   -0.6474    2.3667 C   0  0  0  0  0  0  0  0  0  0  0  0
    1.3303    0.2086    3.0675 C   0  0  0  0  0  0  0  0  0  0  0  0
    1.7906    1.3271    3.6388 N   0  0  0  0  0  0  0  0  0  0  0  0
    3.0952    1.6129    3.5136 C   0  0  0  0  0  0  0  0  0  0  0  0
    3.6272    2.7608    4.1056 N   0  0  0  0  0  0  0  0  0  0  0  0
    3.1205    3.5984    5.1135 C   0  0  0  0  0  0  0  0  0  0  0  0
    1.9462    3.2963    5.8209 C   0  0  0  0  0  0  0  0  0  0  0  0
    1.3722    4.1651    6.7569 C   0  0  0  0  0  0  0  0  0  0  0  0
    2.0339    5.3638    6.9805 C   0  0  0  0  0  0  0  0  0  0  0  0
    1.7338    6.4267    7.7891 N   0  0  0  0  0  0  0  0  0  0  0  0
    2.6613    7.3996    7.7805 N   0  0  0  0  0  0  0  0  0  0  0  0
    3.5627    6.9563    6.8978 C   0  0  0  0  0  0  0  0  0  0  0  0
    3.2188    5.7046    6.3411 C   0  0  0  0  0  0  0  0  0  0  0  0
    3.7621    4.8228    5.3814 C   0  0  0  0  0  0  0  0  0  0  0  0
    3.9458    0.8336    2.8301 N   0  0  0  0  0  0  0  0  0  0  0  0
    5.0095   -0.2551   -0.1872 H   0  0  0  0  0  0  0  0  0  0  0  0
    8.5741   -2.4850    0.3107 H   0  0  0  0  0  0  0  0  0  0  0  0
    9.3363   -2.5326    2.6647 H   0  0  0  0  0  0  0  0  0  0  0  0
    7.7964   -1.8348    4.4822 H   0  0  0  0  0  0  0  0  0  0  0  0
    5.4976   -1.1474    3.9668 H   0  0  0  0  0  0  0  0  0  0  0  0
    3.8975   -2.0557    1.4273 H   0  0  0  0  0  0  0  0  0  0  0  0
    1.7241   -1.5469    1.9257 H   0  0  0  0  0  0  0  0  0  0  0  0
    0.2690    0.0209    3.2043 H   0  0  0  0  0  0  0  0  0  0  0  0
    4.5945    2.8785    3.8431 H   0  0  0  0  0  0  0  0  0  0  0  0
    1.4384    2.3490    5.6655 H   0  0  0  0  0  0  0  0  0  0  0  0
    0.4569    3.8952    7.2731 H   0  0  0  0  0  0  0  0  0  0  0  0
    0.9100    6.5481    8.3669 H   0  0  0  0  0  0  0  0  0  0  0  0
    4.4376    7.5615    6.7006 H   0  0  0  0  0  0  0  0  0  0  0  0
    4.6660    5.1055    4.8509 H   0  0  0  0  0  0  0  0  0  0  0  0
  1  2  2  0  0  0  0
  2  3  1  0  0  0  0
  2  4  1  0  0  0  0
  3 27  1  0  0  0  0
  4  5  1  0  0  0  0
  4  9  2  0  0  0  0
  5  6  2  0  0  0  0
  5 28  1  0  0  0  0
  6  7  1  0  0  0  0
  6 29  1  0  0  0  0
  7  8  2  0  0  0  0
  7 30  1  0  0  0  0
  8  9  1  0  0  0  0
  8 31  1  0  0  0  0
  9 10  1  0  0  0  0
 10 11  1  0  0  0  0
 10 32  1  0  0  0  0
 11 12  1  0  0  0  0
 11 26  2  0  0  0  0
 12 13  2  0  0  0  0
 12 33  1  0  0  0  0
 13 14  1  0  0  0  0
 13 34  1  0  0  0  0
 14 15  2  0  0  0  0
 15 16  1  0  0  0  0
 15 26  1  0  0  0  0
 16 17  1  0  0  0  0
 16 35  1  0  0  0  0
 17 18  1  0  0  0  0
 17 25  2  0  0  0  0
 18 19  2  0  0  0  0
 18 36  1  0  0  0  0
 19 20  1  0  0  0  0
 19 37  1  0  0  0  0
 20 21  1  0  0  0  0
 20 24  2  0  0  0  0
 21 22  1  0  0  0  0
 21 38  1  0  0  0  0
 22 23  2  0  0  0  0
 23 24  1  0  0  0  0
 23 39  1  0  0  0  0
 24 25  1  0  0  0  0
 25 40  1  0  0  0  0
M  END
$$$$
