CHEMBL3656113
 OpenBabel04072215373D

 64 67  0  0  1  0  0  0  0  0999 V2000
   -7.5893  -16.1991   -0.0842 C   0  0  0  0  0  0  0  0  0  0  0  0
   -7.8307  -14.8180    0.4449 C   0  0  0  0  0  0  0  0  0  0  0  0
   -7.9594  -14.6232    1.8251 C   0  0  0  0  0  0  0  0  0  0  0  0
   -8.1873  -13.3505    2.3282 C   0  0  0  0  0  0  0  0  0  0  0  0
   -8.2862  -12.2649    1.4626 C   0  0  0  0  0  0  0  0  0  0  0  0
   -8.1416  -12.4183    0.0797 C   0  0  0  0  0  0  0  0  0  0  0  0
   -8.2280  -11.3354   -0.8346 N   0  0  0  0  0  0  0  0  0  0  0  0
   -8.3280   -9.9970   -0.4725 C   0  0  0  0  0  0  0  0  0  0  0  0
   -8.2720   -9.5701    0.6726 O   0  0  0  0  0  0  0  0  0  0  0  0
   -8.5637   -9.1700   -1.5682 N   0  0  0  0  0  0  0  0  0  0  0  0
   -8.7731   -7.7873   -1.3325 C   0  0  0  0  0  0  0  0  0  0  0  0
   -7.9006   -7.0404   -0.5315 C   0  0  0  0  0  0  0  0  0  0  0  0
   -8.1935   -5.7140   -0.2038 C   0  0  0  0  0  0  0  0  0  0  0  0
   -9.3698   -5.1301   -0.6773 C   0  0  0  0  0  0  0  0  0  0  0  0
   -9.6131   -3.8314   -0.2760 O   0  0  0  0  0  0  0  0  0  0  0  0
  -10.3344   -3.0093   -1.1137 C   0  0  0  0  0  0  0  0  0  0  0  0
  -10.1693   -3.0056   -2.4965 C   0  0  0  0  0  0  0  0  0  0  0  0
  -10.9905   -2.1864   -3.2433 C   0  0  0  0  0  0  0  0  0  0  0  0
  -11.8972   -1.3458   -2.7051 N   0  0  0  0  0  0  0  0  0  0  0  0
  -11.9872   -1.3119   -1.3508 C   0  0  0  0  0  0  0  0  0  0  0  0
  -12.9558   -0.3380   -0.8563 C   0  0  0  0  0  0  0  0  0  0  0  0
  -13.3659    0.0267    0.4166 C   0  0  0  0  0  0  0  0  0  0  0  0
  -14.3701    1.0415    0.3062 C   0  0  0  0  0  0  0  0  0  0  0  0
  -15.1439    1.7282    1.3388 C   0  0  0  0  0  0  0  0  0  0  0  0
  -16.0425    2.5224    1.0743 O   0  0  0  0  0  0  0  0  0  0  0  0
  -14.7935    1.4202    2.6344 N   0  0  0  0  0  0  0  0  0  0  0  0
  -15.4385    2.0853    3.7487 C   0  0  0  0  0  0  0  0  0  0  0  0
  -14.9613    1.5222    5.0895 C   0  0  3  0  0  0  0  0  0  0  0  0
  -13.5430    1.7175    5.2000 O   0  0  0  0  0  0  0  0  0  0  0  0
  -15.7013    2.1906    6.2560 C   0  0  0  0  0  0  0  0  0  0  0  0
  -15.2342    1.7086    7.5131 O   0  0  0  0  0  0  0  0  0  0  0  0
  -14.5251    1.2664   -1.0497 C   0  0  0  0  0  0  0  0  0  0  0  0
  -13.6787    0.4418   -1.7319 N   0  0  0  0  0  0  0  0  0  0  0  0
  -11.2312   -2.1255   -0.5196 C   0  0  0  0  0  0  0  0  0  0  0  0
  -10.2496   -5.8845   -1.4587 C   0  0  0  0  0  0  0  0  0  0  0  0
   -9.9282   -7.1916   -1.8332 C   0  0  0  0  0  0  0  0  0  0  0  0
   -7.9221  -13.7124   -0.4229 C   0  0  0  0  0  0  0  0  0  0  0  0
   -7.5652  -16.9396    0.7227 H   0  0  0  0  0  0  0  0  0  0  0  0
   -6.6280  -16.2455   -0.6068 H   0  0  0  0  0  0  0  0  0  0  0  0
   -8.3932  -16.4880   -0.7724 H   0  0  0  0  0  0  0  0  0  0  0  0
   -7.8842  -15.4587    2.5176 H   0  0  0  0  0  0  0  0  0  0  0  0
   -8.2874  -13.1914    3.3992 H   0  0  0  0  0  0  0  0  0  0  0  0
   -8.4742  -11.3001    1.9221 H   0  0  0  0  0  0  0  0  0  0  0  0
   -8.0727  -11.5452   -1.8084 H   0  0  0  0  0  0  0  0  0  0  0  0
   -9.1452   -9.5918   -2.2774 H   0  0  0  0  0  0  0  0  0  0  0  0
   -6.9969   -7.4951   -0.1260 H   0  0  0  0  0  0  0  0  0  0  0  0
   -7.5200   -5.1541    0.4376 H   0  0  0  0  0  0  0  0  0  0  0  0
   -9.4442   -3.6443   -2.9871 H   0  0  0  0  0  0  0  0  0  0  0  0
  -10.9422   -2.1895   -4.3281 H   0  0  0  0  0  0  0  0  0  0  0  0
  -12.9922   -0.4081    1.3335 H   0  0  0  0  0  0  0  0  0  0  0  0
  -13.8975    0.9835    2.8073 H   0  0  0  0  0  0  0  0  0  0  0  0
  -16.5225    1.9676    3.6382 H   0  0  0  0  0  0  0  0  0  0  0  0
  -15.1966    3.1517    3.6694 H   0  0  0  0  0  0  0  0  0  0  0  0
  -15.1178    0.4381    5.1262 H   0  0  0  0  0  0  0  0  0  0  0  0
  -13.3921    2.6266    5.5183 H   0  0  0  0  0  0  0  0  0  0  0  0
  -16.7780    2.0036    6.1944 H   0  0  0  0  0  0  0  0  0  0  0  0
  -15.5360    3.2727    6.2518 H   0  0  0  0  0  0  0  0  0  0  0  0
  -15.1705    0.7388    7.4605 H   0  0  0  0  0  0  0  0  0  0  0  0
  -15.1820    1.9482   -1.5782 H   0  0  0  0  0  0  0  0  0  0  0  0
  -13.5781    0.3771   -2.7379 H   0  0  0  0  0  0  0  0  0  0  0  0
  -11.3332   -2.0894    0.5575 H   0  0  0  0  0  0  0  0  0  0  0  0
  -11.2051   -5.4742   -1.7732 H   0  0  0  0  0  0  0  0  0  0  0  0
  -10.6337   -7.7538   -2.4368 H   0  0  0  0  0  0  0  0  0  0  0  0
   -7.8165  -13.8731   -1.4931 H   0  0  0  0  0  0  0  0  0  0  0  0
  1  2  1  0  0  0  0
  1 38  1  0  0  0  0
  1 39  1  0  0  0  0
  1 40  1  0  0  0  0
  2  3  1  0  0  0  0
  2 37  2  0  0  0  0
  3  4  2  0  0  0  0
  3 41  1  0  0  0  0
  4  5  1  0  0  0  0
  4 42  1  0  0  0  0
  5  6  2  0  0  0  0
  5 43  1  0  0  0  0
  6  7  1  0  0  0  0
  6 37  1  0  0  0  0
  7  8  1  0  0  0  0
  7 44  1  0  0  0  0
  8  9  2  0  0  0  0
  8 10  1  0  0  0  0
 10 11  1  0  0  0  0
 10 45  1  0  0  0  0
 11 12  1  0  0  0  0
 11 36  2  0  0  0  0
 12 13  2  0  0  0  0
 12 46  1  0  0  0  0
 13 14  1  0  0  0  0
 13 47  1  0  0  0  0
 14 15  1  0  0  0  0
 14 35  2  0  0  0  0
 15 16  1  0  0  0  0
 16 17  1  0  0  0  0
 16 34  2  0  0  0  0
 17 18  2  0  0  0  0
 17 48  1  0  0  0  0
 18 19  1  0  0  0  0
 18 49  1  0  0  0  0
 19 20  2  0  0  0  0
 20 21  1  0  0  0  0
 20 34  1  0  0  0  0
 21 22  2  0  0  0  0
 21 33  1  0  0  0  0
 22 23  1  0  0  0  0
 22 50  1  0  0  0  0
 23 24  1  0  0  0  0
 23 32  2  0  0  0  0
 24 25  2  0  0  0  0
 24 26  1  0  0  0  0
 26 27  1  0  0  0  0
 26 51  1  0  0  0  0
 27 28  1  0  0  0  0
 27 52  1  0  0  0  0
 27 53  1  0  0  0  0
 28 29  1  0  0  0  0
 28 30  1  0  0  0  0
 28 54  1  0  0  0  0
 29 55  1  0  0  0  0
 30 31  1  0  0  0  0
 30 56  1  0  0  0  0
 30 57  1  0  0  0  0
 31 58  1  0  0  0  0
 32 33  1  0  0  0  0
 32 59  1  0  0  0  0
 33 60  1  0  0  0  0
 34 61  1  0  0  0  0
 35 36  1  0  0  0  0
 35 62  1  0  0  0  0
 36 63  1  0  0  0  0
 37 64  1  0  0  0  0
M  END
$$$$
