CHEMBL3612323
 OpenBabel04072215363D

 45 48  0  0  0  0  0  0  0  0999 V2000
    0.0512   -0.1334   -1.7397 C   0  0  0  0  0  0  0  0  0  0  0  0
    1.4021   -0.2539   -2.1807 O   0  0  0  0  0  0  0  0  0  0  0  0
    2.0860    0.9210   -2.3399 C   0  0  0  0  0  0  0  0  0  0  0  0
    1.5650    2.1766   -2.0669 C   0  0  0  0  0  0  0  0  0  0  0  0
    2.3390    3.3225   -2.2779 C   0  0  0  0  0  0  0  0  0  0  0  0
    3.6428    3.2491   -2.7710 C   0  0  0  0  0  0  0  0  0  0  0  0
    4.4220    4.4052   -3.0394 N   0  0  0  0  0  0  0  0  0  0  0  0
    4.0233    5.7071   -2.7867 C   0  0  0  0  0  0  0  0  0  0  0  0
    2.9858    6.0276   -2.2083 O   0  0  0  0  0  0  0  0  0  0  0  0
    4.9015    6.6571   -3.2968 N   0  0  0  0  0  0  0  0  0  0  0  0
    4.5838    8.0319   -3.1283 C   0  0  0  0  0  0  0  0  0  0  0  0
    4.2124    8.5383   -1.8758 C   0  0  0  0  0  0  0  0  0  0  0  0
    3.7806    9.8610   -1.7412 C   0  0  0  0  0  0  0  0  0  0  0  0
    3.7271   10.6978   -2.8573 C   0  0  0  0  0  0  0  0  0  0  0  0
    3.0934   12.3573   -2.7081 S   0  0  0  0  0  0  0  0  0  0  0  0
    4.5839   13.2966   -2.4625 C   0  0  0  0  0  0  0  0  0  0  0  0
    5.3587   13.1351   -1.3138 C   0  0  0  0  0  0  0  0  0  0  0  0
    6.4797   13.9221   -1.1420 C   0  0  0  0  0  0  0  0  0  0  0  0
    6.9061   14.8608   -2.0027 N   0  0  0  0  0  0  0  0  0  0  0  0
    6.1487   15.0284   -3.1196 C   0  0  0  0  0  0  0  0  0  0  0  0
    6.4331   15.9781   -4.1444 C   0  0  0  0  0  0  0  0  0  0  0  0
    5.5086   15.9460   -5.1622 C   0  0  0  0  0  0  0  0  0  0  0  0
    4.2961   14.7784   -4.8847 S   0  0  0  0  0  0  0  0  0  0  0  0
    4.9958   14.2810   -3.3840 C   0  0  0  0  0  0  0  0  0  0  0  0
    4.1104   10.1953   -4.1064 C   0  0  0  0  0  0  0  0  0  0  0  0
    4.5601    8.8739   -4.2399 C   0  0  0  0  0  0  0  0  0  0  0  0
    4.1747    1.9841   -3.0263 C   0  0  0  0  0  0  0  0  0  0  0  0
    3.3974    0.8273   -2.8136 C   0  0  0  0  0  0  0  0  0  0  0  0
   -0.3702   -1.1364   -1.6348 H   0  0  0  0  0  0  0  0  0  0  0  0
   -0.5581    0.4084   -2.4747 H   0  0  0  0  0  0  0  0  0  0  0  0
   -0.0055    0.3503   -0.7566 H   0  0  0  0  0  0  0  0  0  0  0  0
    0.5618    2.3278   -1.6907 H   0  0  0  0  0  0  0  0  0  0  0  0
    1.8520    4.2596   -2.0453 H   0  0  0  0  0  0  0  0  0  0  0  0
    5.3643    4.2625   -3.3685 H   0  0  0  0  0  0  0  0  0  0  0  0
    5.3201    6.4014   -4.1790 H   0  0  0  0  0  0  0  0  0  0  0  0
    4.2174    7.8952   -0.9983 H   0  0  0  0  0  0  0  0  0  0  0  0
    3.4561   10.2117   -0.7649 H   0  0  0  0  0  0  0  0  0  0  0  0
    5.0905   12.4122   -0.5509 H   0  0  0  0  0  0  0  0  0  0  0  0
    7.0939   13.8127   -0.2510 H   0  0  0  0  0  0  0  0  0  0  0  0
    7.2815   16.6495   -4.1225 H   0  0  0  0  0  0  0  0  0  0  0  0
    5.4889   16.5562   -6.0546 H   0  0  0  0  0  0  0  0  0  0  0  0
    4.0228   10.8183   -4.9936 H   0  0  0  0  0  0  0  0  0  0  0  0
    4.8003    8.4984   -5.2300 H   0  0  0  0  0  0  0  0  0  0  0  0
    5.1871    1.8618   -3.4011 H   0  0  0  0  0  0  0  0  0  0  0  0
    3.8192   -0.1552   -3.0208 H   0  0  0  0  0  0  0  0  0  0  0  0
  1  2  1  0  0  0  0
  1 29  1  0  0  0  0
  1 30  1  0  0  0  0
  1 31  1  0  0  0  0
  2  3  1  0  0  0  0
  3  4  1  0  0  0  0
  3 28  2  0  0  0  0
  4  5  2  0  0  0  0
  4 32  1  0  0  0  0
  5  6  1  0  0  0  0
  5 33  1  0  0  0  0
  6  7  1  0  0  0  0
  6 27  2  0  0  0  0
  7  8  1  0  0  0  0
  7 34  1  0  0  0  0
  8  9  2  0  0  0  0
  8 10  1  0  0  0  0
 10 11  1  0  0  0  0
 10 35  1  0  0  0  0
 11 12  1  0  0  0  0
 11 26  2  0  0  0  0
 12 13  2  0  0  0  0
 12 36  1  0  0  0  0
 13 14  1  0  0  0  0
 13 37  1  0  0  0  0
 14 15  1  0  0  0  0
 14 25  2  0  0  0  0
 15 16  1  0  0  0  0
 16 17  1  0  0  0  0
 16 24  2  0  0  0  0
 17 18  2  0  0  0  0
 17 38  1  0  0  0  0
 18 19  1  0  0  0  0
 18 39  1  0  0  0  0
 19 20  2  0  0  0  0
 20 21  1  0  0  0  0
 20 24  1  0  0  0  0
 21 22  2  0  0  0  0
 21 40  1  0  0  0  0
 22 23  1  0  0  0  0
 22 41  1  0  0  0  0
 23 24  1  0  0  0  0
 25 26  1  0  0  0  0
 25 42  1  0  0  0  0
 26 43  1  0  0  0  0
 27 28  1  0  0  0  0
 27 44  1  0  0  0  0
 28 45  1  0  0  0  0
M  END
$$$$
