CHEMBL3690430
 OpenBabel04072215373D

 54 57  0  0  0  0  0  0  0  0999 V2000
    5.3892   -1.1009    3.1116 O   0  0  0  0  0  0  0  0  0  0  0  0
    6.3104   -1.8311    2.7694 C   0  0  0  0  0  0  0  0  0  0  0  0
    6.9818   -2.6174    3.6822 N   0  0  0  0  0  0  0  0  0  0  0  0
    6.6821   -2.4425    5.1073 C   0  0  0  0  0  0  0  0  0  0  0  0
    7.4067   -1.2669    5.7770 C   0  0  0  0  0  0  0  0  0  0  0  0
    8.2726   -0.6610    4.9303 F   0  0  0  0  0  0  0  0  0  0  0  0
    6.5540   -0.3346    6.2460 F   0  0  0  0  0  0  0  0  0  0  0  0
    8.1399   -1.7143    6.8267 F   0  0  0  0  0  0  0  0  0  0  0  0
    6.8080   -2.0022    1.4997 N   0  0  0  0  0  0  0  0  0  0  0  0
    6.3436   -1.4027    0.3116 C   0  0  0  0  0  0  0  0  0  0  0  0
    5.2420   -0.5509    0.2453 C   0  0  0  0  0  0  0  0  0  0  0  0
    4.8242   -0.0414   -0.9845 C   0  0  0  0  0  0  0  0  0  0  0  0
    5.4947   -0.3917   -2.1573 C   0  0  0  0  0  0  0  0  0  0  0  0
    6.6111   -1.2346   -2.1157 C   0  0  0  0  0  0  0  0  0  0  0  0
    7.3349   -1.5535   -3.3517 C   0  0  0  0  0  0  0  0  0  0  0  0
    7.5309   -0.7627   -4.4754 C   0  0  0  0  0  0  0  0  0  0  0  0
    8.3122   -1.3767   -5.4129 N   0  0  0  0  0  0  0  0  0  0  0  0
    8.5958   -2.5502   -4.8991 C   0  0  0  0  0  0  0  0  0  0  0  0
    9.3629   -3.6184   -5.4392 C   0  0  0  0  0  0  0  0  0  0  0  0
    9.4660   -4.8060   -4.7938 C   0  0  0  0  0  0  0  0  0  0  0  0
   10.1737   -5.9320   -5.4518 C   0  0  0  0  0  0  0  0  0  0  0  0
   10.1320   -6.1232   -6.8243 C   0  0  0  0  0  0  0  0  0  0  0  0
   10.7078   -7.2659   -7.3695 C   0  0  0  0  0  0  0  0  0  0  0  0
   11.2704   -8.2177   -6.5366 C   0  0  0  0  0  0  0  0  0  0  0  0
   11.6478   -9.4321   -7.1240 N   0  0  0  0  0  0  0  0  0  0  0  0
   11.9591  -10.5402   -6.2176 C   0  0  0  0  0  0  0  0  0  0  0  0
   10.6484  -11.1587   -5.7072 C   0  0  0  0  0  0  0  0  0  0  0  0
    9.7889  -11.4426   -6.8159 O   0  0  0  0  0  0  0  0  0  0  0  0
   11.3057   -8.0017   -5.2060 N   0  0  0  0  0  0  0  0  0  0  0  0
   10.7663   -6.8487   -4.6578 N   0  0  0  0  0  0  0  0  0  0  0  0
    8.8206   -4.9564   -3.4834 C   0  0  0  0  0  0  0  0  0  0  0  0
    8.0878   -3.9534   -2.9733 C   0  0  0  0  0  0  0  0  0  0  0  0
    7.9898   -2.7425   -3.6633 N   0  0  0  0  0  0  0  0  0  0  0  0
    7.0375   -1.7078   -0.8667 C   0  0  0  0  0  0  0  0  0  0  0  0
    7.9425   -2.8345    3.4575 H   0  0  0  0  0  0  0  0  0  0  0  0
    6.9642   -3.3798    5.5969 H   0  0  0  0  0  0  0  0  0  0  0  0
    5.5995   -2.3239    5.2313 H   0  0  0  0  0  0  0  0  0  0  0  0
    7.5457   -2.6833    1.4014 H   0  0  0  0  0  0  0  0  0  0  0  0
    4.6855   -0.2627    1.1282 H   0  0  0  0  0  0  0  0  0  0  0  0
    3.9673    0.6277   -1.0272 H   0  0  0  0  0  0  0  0  0  0  0  0
    5.1315    0.0090   -3.1018 H   0  0  0  0  0  0  0  0  0  0  0  0
    7.1604    0.2411   -4.6428 H   0  0  0  0  0  0  0  0  0  0  0  0
    9.8231   -3.4301   -6.4029 H   0  0  0  0  0  0  0  0  0  0  0  0
    9.6032   -5.4427   -7.4795 H   0  0  0  0  0  0  0  0  0  0  0  0
   10.6390   -7.4446   -8.4365 H   0  0  0  0  0  0  0  0  0  0  0  0
   12.3295   -9.2937   -7.8646 H   0  0  0  0  0  0  0  0  0  0  0  0
   12.6218  -10.2490   -5.3944 H   0  0  0  0  0  0  0  0  0  0  0  0
   12.4892  -11.2965   -6.8092 H   0  0  0  0  0  0  0  0  0  0  0  0
   10.1135  -10.4760   -5.0409 H   0  0  0  0  0  0  0  0  0  0  0  0
   10.8397  -12.0904   -5.1688 H   0  0  0  0  0  0  0  0  0  0  0  0
    9.8020  -10.6199   -7.3451 H   0  0  0  0  0  0  0  0  0  0  0  0
    8.9273   -5.8996   -2.9541 H   0  0  0  0  0  0  0  0  0  0  0  0
    7.5606   -4.0622   -2.0366 H   0  0  0  0  0  0  0  0  0  0  0  0
    7.9430   -2.3028   -0.7983 H   0  0  0  0  0  0  0  0  0  0  0  0
  1  2  2  0  0  0  0
  2  3  1  0  0  0  0
  2  9  1  0  0  0  0
  3  4  1  0  0  0  0
  3 35  1  0  0  0  0
  4  5  1  0  0  0  0
  4 36  1  0  0  0  0
  4 37  1  0  0  0  0
  5  6  1  0  0  0  0
  5  7  1  0  0  0  0
  5  8  1  0  0  0  0
  9 10  1  0  0  0  0
  9 38  1  0  0  0  0
 10 11  1  0  0  0  0
 10 34  2  0  0  0  0
 11 12  2  0  0  0  0
 11 39  1  0  0  0  0
 12 13  1  0  0  0  0
 12 40  1  0  0  0  0
 13 14  2  0  0  0  0
 13 41  1  0  0  0  0
 14 15  1  0  0  0  0
 14 34  1  0  0  0  0
 15 16  2  0  0  0  0
 15 33  1  0  0  0  0
 16 17  1  0  0  0  0
 16 42  1  0  0  0  0
 17 18  2  0  0  0  0
 18 19  1  0  0  0  0
 18 33  1  0  0  0  0
 19 20  2  0  0  0  0
 19 43  1  0  0  0  0
 20 21  1  0  0  0  0
 20 31  1  0  0  0  0
 21 22  1  0  0  0  0
 21 30  2  0  0  0  0
 22 23  2  0  0  0  0
 22 44  1  0  0  0  0
 23 24  1  0  0  0  0
 23 45  1  0  0  0  0
 24 25  1  0  0  0  0
 24 29  2  0  0  0  0
 25 26  1  0  0  0  0
 25 46  1  0  0  0  0
 26 27  1  0  0  0  0
 26 47  1  0  0  0  0
 26 48  1  0  0  0  0
 27 28  1  0  0  0  0
 27 49  1  0  0  0  0
 27 50  1  0  0  0  0
 28 51  1  0  0  0  0
 29 30  1  0  0  0  0
 31 32  2  0  0  0  0
 31 52  1  0  0  0  0
 32 33  1  0  0  0  0
 32 53  1  0  0  0  0
 34 54  1  0  0  0  0
M  END
$$$$
