CHEMBL1934323
 OpenBabel04072215363D

 62 65  0  0  0  0  0  0  0  0999 V2000
    0.6890    3.8759   -5.1851 C   0  0  0  0  0  0  0  0  0  0  0  0
    2.0220    4.1489   -4.5265 C   0  0  0  0  0  0  0  0  0  0  0  0
    3.0442    3.1651   -4.8376 N   0  0  0  0  0  0  0  0  0  0  0  0
    4.2977    3.3946   -4.2927 C   0  0  0  0  0  0  0  0  0  0  0  0
    4.5287    4.4141   -3.6455 O   0  0  0  0  0  0  0  0  0  0  0  0
    5.2007    2.4041   -4.5878 N   0  0  0  0  0  0  0  0  0  0  0  0
    6.5388    2.3774   -4.1162 C   0  0  0  0  0  0  0  0  0  0  0  0
    6.9599    3.1021   -2.9991 C   0  0  0  0  0  0  0  0  0  0  0  0
    8.3065    3.1289   -2.6213 C   0  0  0  0  0  0  0  0  0  0  0  0
    9.2650    2.3949   -3.3243 C   0  0  0  0  0  0  0  0  0  0  0  0
   10.6275    2.5424   -2.9905 N   0  0  0  0  0  0  0  0  0  0  0  0
   11.6647    1.5835   -3.1220 C   0  0  0  0  0  0  0  0  0  0  0  0
   11.3407    0.2832   -3.2324 N   0  0  0  0  0  0  0  0  0  0  0  0
   12.3525   -0.5838   -3.3121 C   0  0  0  0  0  0  0  0  0  0  0  0
   13.6544   -0.2824   -3.3252 N   0  0  0  0  0  0  0  0  0  0  0  0
   13.9701    1.0092   -3.2126 C   0  0  0  0  0  0  0  0  0  0  0  0
   15.3121    1.3590   -3.1914 C   0  0  0  0  0  0  0  0  0  0  0  0
   15.7261    2.6808   -3.0270 C   0  0  0  0  0  0  0  0  0  0  0  0
   17.0814    2.8668   -2.9817 O   0  0  0  0  0  0  0  0  0  0  0  0
   17.5144    4.1881   -3.2976 C   0  0  0  0  0  0  0  0  0  0  0  0
   18.9952    4.1791   -3.7018 C   0  0  0  0  0  0  0  0  0  0  0  0
   19.4277    5.5869   -4.1300 C   0  0  0  0  0  0  0  0  0  0  0  0
   18.8117    5.9882   -5.4746 C   0  0  0  0  0  0  0  0  0  0  0  0
   19.1423    5.0174   -6.5236 N   0  0  0  0  0  0  0  0  0  0  0  0
   18.5410    5.4229   -7.7956 C   0  0  0  0  0  0  0  0  0  0  0  0
   18.7260    3.6497   -6.1811 C   0  0  0  0  0  0  0  0  0  0  0  0
   19.2964    3.1904   -4.8368 C   0  0  0  0  0  0  0  0  0  0  0  0
   14.7748    3.6876   -2.9008 C   0  0  0  0  0  0  0  0  0  0  0  0
   13.4211    3.3652   -2.9603 C   0  0  0  0  0  0  0  0  0  0  0  0
   13.0041    2.0187   -3.0957 C   0  0  0  0  0  0  0  0  0  0  0  0
    8.8341    1.6340   -4.4175 C   0  0  0  0  0  0  0  0  0  0  0  0
    7.4840    1.6122   -4.8052 C   0  0  0  0  0  0  0  0  0  0  0  0
   -0.0038    4.6975   -4.9695 H   0  0  0  0  0  0  0  0  0  0  0  0
    0.2444    2.9516   -4.8042 H   0  0  0  0  0  0  0  0  0  0  0  0
    0.7886    3.7885   -6.2707 H   0  0  0  0  0  0  0  0  0  0  0  0
    1.9010    4.1808   -3.4371 H   0  0  0  0  0  0  0  0  0  0  0  0
    2.3939    5.1305   -4.8455 H   0  0  0  0  0  0  0  0  0  0  0  0
    2.7670    2.1936   -4.8628 H   0  0  0  0  0  0  0  0  0  0  0  0
    4.9930    1.8465   -5.3996 H   0  0  0  0  0  0  0  0  0  0  0  0
    6.2594    3.6770   -2.4003 H   0  0  0  0  0  0  0  0  0  0  0  0
    8.5871    3.7404   -1.7683 H   0  0  0  0  0  0  0  0  0  0  0  0
   10.7585    3.0619   -2.1295 H   0  0  0  0  0  0  0  0  0  0  0  0
   12.0948   -1.6357   -3.3579 H   0  0  0  0  0  0  0  0  0  0  0  0
   16.0612    0.5779   -3.3005 H   0  0  0  0  0  0  0  0  0  0  0  0
   17.3864    4.8257   -2.4138 H   0  0  0  0  0  0  0  0  0  0  0  0
   16.9098    4.5910   -4.1161 H   0  0  0  0  0  0  0  0  0  0  0  0
   19.5800    3.8683   -2.8261 H   0  0  0  0  0  0  0  0  0  0  0  0
   20.5214    5.6204   -4.2100 H   0  0  0  0  0  0  0  0  0  0  0  0
   19.1459    6.3193   -3.3638 H   0  0  0  0  0  0  0  0  0  0  0  0
   19.2052    6.9754   -5.7463 H   0  0  0  0  0  0  0  0  0  0  0  0
   17.7256    6.1054   -5.3786 H   0  0  0  0  0  0  0  0  0  0  0  0
   18.8809    6.4243   -8.0816 H   0  0  0  0  0  0  0  0  0  0  0  0
   17.4455    5.4329   -7.7482 H   0  0  0  0  0  0  0  0  0  0  0  0
   18.8451    4.7440   -8.5995 H   0  0  0  0  0  0  0  0  0  0  0  0
   19.0932    2.9600   -6.9516 H   0  0  0  0  0  0  0  0  0  0  0  0
   17.6326    3.5612   -6.1683 H   0  0  0  0  0  0  0  0  0  0  0  0
   20.3847    3.0801   -4.9296 H   0  0  0  0  0  0  0  0  0  0  0  0
   18.9093    2.1928   -4.5988 H   0  0  0  0  0  0  0  0  0  0  0  0
   15.0527    4.7257   -2.7493 H   0  0  0  0  0  0  0  0  0  0  0  0
   12.6924    4.1699   -2.8935 H   0  0  0  0  0  0  0  0  0  0  0  0
    9.5557    1.0720   -5.0047 H   0  0  0  0  0  0  0  0  0  0  0  0
    7.2046    1.0262   -5.6748 H   0  0  0  0  0  0  0  0  0  0  0  0
  1  2  1  0  0  0  0
  1 33  1  0  0  0  0
  1 34  1  0  0  0  0
  1 35  1  0  0  0  0
  2  3  1  0  0  0  0
  2 36  1  0  0  0  0
  2 37  1  0  0  0  0
  3  4  1  0  0  0  0
  3 38  1  0  0  0  0
  4  5  2  0  0  0  0
  4  6  1  0  0  0  0
  6  7  1  0  0  0  0
  6 39  1  0  0  0  0
  7  8  1  0  0  0  0
  7 32  2  0  0  0  0
  8  9  2  0  0  0  0
  8 40  1  0  0  0  0
  9 10  1  0  0  0  0
  9 41  1  0  0  0  0
 10 11  1  0  0  0  0
 10 31  2  0  0  0  0
 11 12  1  0  0  0  0
 11 42  1  0  0  0  0
 12 13  1  0  0  0  0
 12 30  2  0  0  0  0
 13 14  2  0  0  0  0
 14 15  1  0  0  0  0
 14 43  1  0  0  0  0
 15 16  2  0  0  0  0
 16 17  1  0  0  0  0
 16 30  1  0  0  0  0
 17 18  2  0  0  0  0
 17 44  1  0  0  0  0
 18 19  1  0  0  0  0
 18 28  1  0  0  0  0
 19 20  1  0  0  0  0
 20 21  1  0  0  0  0
 20 45  1  0  0  0  0
 20 46  1  0  0  0  0
 21 22  1  0  0  0  0
 21 27  1  0  0  0  0
 21 47  1  0  0  0  0
 22 23  1  0  0  0  0
 22 48  1  0  0  0  0
 22 49  1  0  0  0  0
 23 24  1  0  0  0  0
 23 50  1  0  0  0  0
 23 51  1  0  0  0  0
 24 25  1  0  0  0  0
 24 26  1  0  0  0  0
 25 52  1  0  0  0  0
 25 53  1  0  0  0  0
 25 54  1  0  0  0  0
 26 27  1  0  0  0  0
 26 55  1  0  0  0  0
 26 56  1  0  0  0  0
 27 57  1  0  0  0  0
 27 58  1  0  0  0  0
 28 29  2  0  0  0  0
 28 59  1  0  0  0  0
 29 30  1  0  0  0  0
 29 60  1  0  0  0  0
 31 32  1  0  0  0  0
 31 61  1  0  0  0  0
 32 62  1  0  0  0  0
M  END
$$$$
