CHEMBL4434974
 OpenBabel04072215383D

 60 65  0  0  0  0  0  0  0  0999 V2000
   -6.2363   -7.0118    1.8933 O   0  0  0  0  0  0  0  0  0  0  0  0
   -6.0088   -7.0332    0.6898 C   0  0  0  0  0  0  0  0  0  0  0  0
   -4.8888   -6.5563    0.0486 N   0  0  0  0  0  0  0  0  0  0  0  0
   -3.7924   -5.9311    0.6953 C   0  0  0  0  0  0  0  0  0  0  0  0
   -2.7479   -5.4539   -0.0875 C   0  0  0  0  0  0  0  0  0  0  0  0
   -1.7330   -4.7060    0.5264 C   0  0  0  0  0  0  0  0  0  0  0  0
   -0.7136   -4.0562   -0.1450 O   0  0  0  0  0  0  0  0  0  0  0  0
   -0.9870   -3.5751   -1.4028 C   0  0  0  0  0  0  0  0  0  0  0  0
   -2.2239   -3.0214   -1.7480 C   0  0  0  0  0  0  0  0  0  0  0  0
   -2.5633   -2.8795   -3.0888 C   0  0  0  0  0  0  0  0  0  0  0  0
   -1.6407   -3.2137   -4.0762 C   0  0  0  0  0  0  0  0  0  0  0  0
   -2.0119   -3.4995   -5.3945 N   0  0  0  0  0  0  0  0  0  0  0  0
   -3.2353   -3.4292   -6.0638 C   0  0  0  0  0  0  0  0  0  0  0  0
   -3.1568   -2.4911   -7.0750 N   0  0  0  0  0  0  0  0  0  0  0  0
   -3.8658   -2.6638   -8.2046 C   0  0  0  0  0  0  0  0  0  0  0  0
   -4.5428   -3.8145   -8.4541 C   0  0  0  0  0  0  0  0  0  0  0  0
   -4.6412   -4.7180   -7.4111 C   0  0  0  0  0  0  0  0  0  0  0  0
   -5.4113   -5.8625   -7.6751 N   0  0  0  0  0  0  0  0  0  0  0  0
   -6.4248   -5.9321   -6.7631 C   0  0  0  0  0  0  0  0  0  0  0  0
   -6.1830   -6.0124   -5.4382 C   0  0  0  0  0  0  0  0  0  0  0  0
   -7.0614   -7.1422   -4.9823 C   0  0  0  0  0  0  0  0  0  0  0  0
   -6.5301   -8.4433   -5.1677 C   0  0  0  0  0  0  0  0  0  0  0  0
   -7.3434   -9.4812   -5.6480 C   0  0  0  0  0  0  0  0  0  0  0  0
   -8.6953   -9.2679   -5.8872 C   0  0  0  0  0  0  0  0  0  0  0  0
   -9.4290  -10.2304   -6.4633 F   0  0  0  0  0  0  0  0  0  0  0  0
   -9.2745   -8.0388   -5.5990 C   0  0  0  0  0  0  0  0  0  0  0  0
   -8.4749   -6.9907   -5.1134 C   0  0  0  0  0  0  0  0  0  0  0  0
   -4.7509   -5.4528   -5.0344 C   0  0  0  0  0  0  0  0  0  0  0  0
   -4.2459   -5.7222   -3.9509 O   0  0  0  0  0  0  0  0  0  0  0  0
   -4.1430   -4.4885   -6.1177 C   0  0  0  0  0  0  0  0  0  0  0  0
   -0.3148   -3.4942   -3.7060 C   0  0  0  0  0  0  0  0  0  0  0  0
   -0.0016   -3.7009   -2.3729 C   0  0  0  0  0  0  0  0  0  0  0  0
    1.2331   -4.1143   -2.0510 F   0  0  0  0  0  0  0  0  0  0  0  0
   -1.7197   -4.5651    1.9043 C   0  0  0  0  0  0  0  0  0  0  0  0
   -2.7673   -5.1173    2.6075 C   0  0  0  0  0  0  0  0  0  0  0  0
   -3.7949   -5.7714    2.0295 N   0  0  0  0  0  0  0  0  0  0  0  0
   -7.0173   -7.6233   -0.2399 C   0  0  0  0  0  0  0  0  0  0  0  0
   -8.4349   -7.1071   -0.2011 C   0  0  0  0  0  0  0  0  0  0  0  0
   -8.1238   -8.4824    0.3191 C   0  0  0  0  0  0  0  0  0  0  0  0
   -4.8413   -6.5898   -0.9626 H   0  0  0  0  0  0  0  0  0  0  0  0
   -2.7546   -5.6166   -1.1610 H   0  0  0  0  0  0  0  0  0  0  0  0
   -2.9755   -2.8192   -0.9903 H   0  0  0  0  0  0  0  0  0  0  0  0
   -3.5708   -2.5726   -3.3503 H   0  0  0  0  0  0  0  0  0  0  0  0
   -1.2854   -3.2345   -6.0554 H   0  0  0  0  0  0  0  0  0  0  0  0
   -3.8451   -1.8655   -8.9354 H   0  0  0  0  0  0  0  0  0  0  0  0
   -5.0648   -4.0082   -9.3836 H   0  0  0  0  0  0  0  0  0  0  0  0
   -4.7818   -6.6521   -7.4327 H   0  0  0  0  0  0  0  0  0  0  0  0
   -7.3276   -6.2727   -7.2620 H   0  0  0  0  0  0  0  0  0  0  0  0
   -5.4583   -8.5964   -5.1426 H   0  0  0  0  0  0  0  0  0  0  0  0
   -6.9080  -10.4380   -5.9257 H   0  0  0  0  0  0  0  0  0  0  0  0
  -10.3209   -7.8805   -5.8505 H   0  0  0  0  0  0  0  0  0  0  0  0
   -8.9295   -5.9971   -5.0657 H   0  0  0  0  0  0  0  0  0  0  0  0
    0.4552   -3.6579   -4.4543 H   0  0  0  0  0  0  0  0  0  0  0  0
   -0.9307   -4.0212    2.4084 H   0  0  0  0  0  0  0  0  0  0  0  0
   -2.8274   -5.0337    3.6882 H   0  0  0  0  0  0  0  0  0  0  0  0
   -6.6356   -7.9090   -1.2130 H   0  0  0  0  0  0  0  0  0  0  0  0
   -8.9866   -7.0380   -1.1296 H   0  0  0  0  0  0  0  0  0  0  0  0
   -8.6940   -6.3461    0.5245 H   0  0  0  0  0  0  0  0  0  0  0  0
   -8.4434   -9.3384   -0.2596 H   0  0  0  0  0  0  0  0  0  0  0  0
   -8.1610   -8.6396    1.3924 H   0  0  0  0  0  0  0  0  0  0  0  0
  1  2  2  0  0  0  0
  2  3  1  0  0  0  0
  2 37  1  0  0  0  0
  3  4  1  0  0  0  0
  3 40  1  0  0  0  0
  4  5  1  0  0  0  0
  4 36  2  0  0  0  0
  5  6  2  0  0  0  0
  5 41  1  0  0  0  0
  6  7  1  0  0  0  0
  6 34  1  0  0  0  0
  7  8  1  0  0  0  0
  8  9  1  0  0  0  0
  8 32  2  0  0  0  0
  9 10  2  0  0  0  0
  9 42  1  0  0  0  0
 10 11  1  0  0  0  0
 10 43  1  0  0  0  0
 11 12  1  0  0  0  0
 11 31  2  0  0  0  0
 12 13  1  0  0  0  0
 12 44  1  0  0  0  0
 13 14  1  0  0  0  0
 13 30  2  0  0  0  0
 14 15  2  0  0  0  0
 15 16  1  0  0  0  0
 15 45  1  0  0  0  0
 16 17  2  0  0  0  0
 16 46  1  0  0  0  0
 17 18  1  0  0  0  0
 17 30  1  0  0  0  0
 18 19  1  0  0  0  0
 18 47  1  0  0  0  0
 19 20  2  0  0  0  0
 19 48  1  0  0  0  0
 20 21  1  0  0  0  0
 20 28  1  0  0  0  0
 21 22  1  0  0  0  0
 21 27  2  0  0  0  0
 22 23  2  0  0  0  0
 22 49  1  0  0  0  0
 23 24  1  0  0  0  0
 23 50  1  0  0  0  0
 24 25  1  0  0  0  0
 24 26  2  0  0  0  0
 26 27  1  0  0  0  0
 26 51  1  0  0  0  0
 27 52  1  0  0  0  0
 28 29  2  0  0  0  0
 28 30  1  0  0  0  0
 31 32  1  0  0  0  0
 31 53  1  0  0  0  0
 32 33  1  0  0  0  0
 34 35  2  0  0  0  0
 34 54  1  0  0  0  0
 35 36  1  0  0  0  0
 35 55  1  0  0  0  0
 37 38  1  0  0  0  0
 37 39  1  0  0  0  0
 37 56  1  0  0  0  0
 38 39  1  0  0  0  0
 38 57  1  0  0  0  0
 38 58  1  0  0  0  0
 39 59  1  0  0  0  0
 39 60  1  0  0  0  0
M  END
$$$$
