CHEMBL224834
 OpenBabel04072215363D

 53 58  0  0  0  0  0  0  0  0999 V2000
   -1.5793    2.5984    3.3413 C   0  0  0  0  0  0  0  0  0  0  0  0
   -2.0728    1.5549    2.7350 C   0  0  0  0  0  0  0  0  0  0  0  0
   -2.4696    0.5121    1.8097 C   0  0  0  0  0  0  0  0  0  0  0  0
   -3.7635    0.2227    1.4502 C   0  0  0  0  0  0  0  0  0  0  0  0
   -3.9123   -0.9320    0.5574 C   0  0  0  0  0  0  0  0  0  0  0  0
   -5.3328   -1.4363    0.2074 C   0  0  0  0  0  0  0  0  0  0  0  0
   -6.2621   -0.9742    1.0765 N   0  0  0  0  0  0  0  0  0  0  0  0
   -6.8046    0.0433    0.3681 N   0  0  0  0  0  0  0  0  0  0  0  0
   -6.4229   -0.0056   -0.9606 C   0  0  0  0  0  0  0  0  0  0  0  0
   -6.0422   -1.3740   -1.0368 C   0  0  0  0  0  0  0  0  0  0  0  0
   -5.7690   -1.6865   -2.4777 C   0  0  0  0  0  0  0  0  0  0  0  0
   -4.9861   -0.4200   -2.7358 C   0  0  0  0  0  0  0  0  0  0  0  0
   -3.7385   -0.4945   -3.3233 C   0  0  0  0  0  0  0  0  0  0  0  0
   -2.7849    0.4224   -2.9034 C   0  0  0  0  0  0  0  0  0  0  0  0
   -1.3334   -0.0098   -3.0089 C   0  0  0  0  0  0  0  0  0  0  0  0
   -0.6899    0.1609   -4.2945 N   0  0  0  0  0  0  0  0  0  0  0  0
    0.3043   -0.6452   -4.7951 C   0  0  0  0  0  0  0  0  0  0  0  0
    0.7983    0.0359   -5.8888 C   0  0  0  0  0  0  0  0  0  0  0  0
    0.0910    1.1926   -6.0956 N   0  0  0  0  0  0  0  0  0  0  0  0
   -0.8006    1.2336   -5.1305 C   0  0  0  0  0  0  0  0  0  0  0  0
   -3.1950    1.5439   -2.1284 C   0  0  0  0  0  0  0  0  0  0  0  0
   -4.5155    1.6665   -1.6153 C   0  0  0  0  0  0  0  0  0  0  0  0
   -5.4052    0.6382   -1.8696 C   0  0  0  0  0  0  0  0  0  0  0  0
   -2.6720   -1.3916    0.1600 C   0  0  0  0  0  0  0  0  0  0  0  0
   -1.3941   -0.4776    0.9097 S   0  0  0  0  0  0  0  0  0  0  0  0
   -1.0040    3.8149    4.0482 C   0  0  0  0  0  0  0  0  0  0  0  0
   -1.6019    3.9526    5.3283 O   0  0  0  0  0  0  0  0  0  0  0  0
   -1.1526    5.0183    6.0608 C   0  0  0  0  0  0  0  0  0  0  0  0
   -0.1926    5.9445    5.6502 C   0  0  0  0  0  0  0  0  0  0  0  0
    0.1886    6.9919    6.4945 C   0  0  0  0  0  0  0  0  0  0  0  0
   -0.4011    7.1277    7.7486 C   0  0  0  0  0  0  0  0  0  0  0  0
   -1.3626    6.2051    8.1602 C   0  0  0  0  0  0  0  0  0  0  0  0
   -1.7457    5.1552    7.3240 C   0  0  0  0  0  0  0  0  0  0  0  0
   -4.5969    0.8057    1.8234 H   0  0  0  0  0  0  0  0  0  0  0  0
   -7.6859    0.3991    0.7017 H   0  0  0  0  0  0  0  0  0  0  0  0
   -6.7047   -1.6574   -3.0590 H   0  0  0  0  0  0  0  0  0  0  0  0
   -5.2363   -2.6255   -2.6554 H   0  0  0  0  0  0  0  0  0  0  0  0
   -3.4496   -1.4021   -3.8512 H   0  0  0  0  0  0  0  0  0  0  0  0
   -1.2825   -1.0870   -2.7809 H   0  0  0  0  0  0  0  0  0  0  0  0
   -0.7061    0.4873   -2.2595 H   0  0  0  0  0  0  0  0  0  0  0  0
    0.5985   -1.5742   -4.3263 H   0  0  0  0  0  0  0  0  0  0  0  0
    1.6260   -0.2449   -6.5203 H   0  0  0  0  0  0  0  0  0  0  0  0
   -1.5292    2.0234   -4.9838 H   0  0  0  0  0  0  0  0  0  0  0  0
   -2.4450    2.2572   -1.7939 H   0  0  0  0  0  0  0  0  0  0  0  0
   -4.7310    2.4391   -0.8818 H   0  0  0  0  0  0  0  0  0  0  0  0
   -2.4370   -2.1751   -0.5239 H   0  0  0  0  0  0  0  0  0  0  0  0
   -1.2195    4.6907    3.4241 H   0  0  0  0  0  0  0  0  0  0  0  0
    0.0785    3.6629    4.1380 H   0  0  0  0  0  0  0  0  0  0  0  0
    0.2967    5.8831    4.6823 H   0  0  0  0  0  0  0  0  0  0  0  0
    0.9374    7.7055    6.1653 H   0  0  0  0  0  0  0  0  0  0  0  0
   -0.1073    7.9378    8.4018 H   0  0  0  0  0  0  0  0  0  0  0  0
   -1.8240    6.3057    9.1423 H   0  0  0  0  0  0  0  0  0  0  0  0
   -2.4900    4.4429    7.6524 H   0  0  0  0  0  0  0  0  0  0  0  0
  1  2  3  0  0  0  0
  1 26  1  0  0  0  0
  2  3  1  0  0  0  0
  3  4  2  0  0  0  0
  3 25  1  0  0  0  0
  4  5  1  0  0  0  0
  4 34  1  0  0  0  0
  5  6  1  0  0  0  0
  5 24  2  0  0  0  0
  6  7  2  0  0  0  0
  6 10  1  0  0  0  0
  7  8  1  0  0  0  0
  8  9  1  0  0  0  0
  8 35  1  0  0  0  0
  9 10  2  0  0  0  0
  9 23  1  0  0  0  0
 10 11  1  0  0  0  0
 11 12  1  0  0  0  0
 11 36  1  0  0  0  0
 11 37  1  0  0  0  0
 12 13  1  0  0  0  0
 12 23  2  0  0  0  0
 13 14  2  0  0  0  0
 13 38  1  0  0  0  0
 14 15  1  0  0  0  0
 14 21  1  0  0  0  0
 15 16  1  0  0  0  0
 15 39  1  0  0  0  0
 15 40  1  0  0  0  0
 16 17  1  0  0  0  0
 16 20  1  0  0  0  0
 17 18  2  0  0  0  0
 17 41  1  0  0  0  0
 18 19  1  0  0  0  0
 18 42  1  0  0  0  0
 19 20  2  0  0  0  0
 20 43  1  0  0  0  0
 21 22  2  0  0  0  0
 21 44  1  0  0  0  0
 22 23  1  0  0  0  0
 22 45  1  0  0  0  0
 24 25  1  0  0  0  0
 24 46  1  0  0  0  0
 26 27  1  0  0  0  0
 26 47  1  0  0  0  0
 26 48  1  0  0  0  0
 27 28  1  0  0  0  0
 28 29  1  0  0  0  0
 28 33  2  0  0  0  0
 29 30  2  0  0  0  0
 29 49  1  0  0  0  0
 30 31  1  0  0  0  0
 30 50  1  0  0  0  0
 31 32  2  0  0  0  0
 31 51  1  0  0  0  0
 32 33  1  0  0  0  0
 32 52  1  0  0  0  0
 33 53  1  0  0  0  0
M  END
$$$$
