CHEMBL3911339
 OpenBabel04072215373D

 50 53  0  0  0  0  0  0  0  0999 V2000
    0.2838   -3.9321    1.5148 C   0  0  0  0  0  0  0  0  0  0  0  0
    1.6782   -4.0010    1.2224 O   0  0  0  0  0  0  0  0  0  0  0  0
    2.3779   -2.8696    1.5335 C   0  0  0  0  0  0  0  0  0  0  0  0
    1.8721   -1.8575    2.0038 O   0  0  0  0  0  0  0  0  0  0  0  0
    3.7793   -3.0772    1.2305 C   0  0  0  0  0  0  0  0  0  0  0  0
    4.3895   -4.1591    0.6245 C   0  0  0  0  0  0  0  0  0  0  0  0
    5.7974   -4.0061    0.5041 C   0  0  0  0  0  0  0  0  0  0  0  0
    6.6307   -4.9232   -0.0587 N   0  0  0  0  0  0  0  0  0  0  0  0
    7.9298   -4.5824   -0.1041 C   0  0  0  0  0  0  0  0  0  0  0  0
    8.4600   -3.4108    0.3931 C   0  0  0  0  0  0  0  0  0  0  0  0
    7.6139   -2.5167    1.0512 C   0  0  0  0  0  0  0  0  0  0  0  0
    8.0588   -1.3561    1.6418 O   0  0  0  0  0  0  0  0  0  0  0  0
    9.2517   -1.3798    2.3254 C   0  0  0  0  0  0  0  0  0  0  0  0
    9.9708   -0.1917    2.3220 C   0  0  0  0  0  0  0  0  0  0  0  0
   11.2181   -0.1349    2.9426 C   0  0  0  0  0  0  0  0  0  0  0  0
   11.7615   -1.2545    3.5847 C   0  0  0  0  0  0  0  0  0  0  0  0
   13.0356   -1.2624    4.1964 N   0  0  0  0  0  0  0  0  0  0  0  0
   13.8308   -0.1534    4.3820 C   0  0  0  0  0  0  0  0  0  0  0  0
   13.5076    0.9965    4.0990 O   0  0  0  0  0  0  0  0  0  0  0  0
   15.0752   -0.4762    4.9114 N   0  0  0  0  0  0  0  0  0  0  0  0
   15.9795    0.5959    5.1259 C   0  0  0  0  0  0  0  0  0  0  0  0
   15.5718    1.7422    5.8201 C   0  0  0  0  0  0  0  0  0  0  0  0
   16.3693    2.8904    5.8289 C   0  0  0  0  0  0  0  0  0  0  0  0
   15.8774    4.1448    6.4890 C   0  0  0  0  0  0  0  0  0  0  0  0
   17.5904    2.8732    5.1427 C   0  0  0  0  0  0  0  0  0  0  0  0
   18.0303    1.7074    4.5062 C   0  0  0  0  0  0  0  0  0  0  0  0
   17.2327    0.5687    4.5218 C   0  0  0  0  0  0  0  0  0  0  0  0
   17.6307   -0.5277    3.8565 F   0  0  0  0  0  0  0  0  0  0  0  0
   11.0105   -2.4318    3.6233 C   0  0  0  0  0  0  0  0  0  0  0  0
    9.7477   -2.4838    3.0237 C   0  0  0  0  0  0  0  0  0  0  0  0
    6.2409   -2.8058    1.0498 C   0  0  0  0  0  0  0  0  0  0  0  0
    4.9255   -1.8804    1.6552 S   0  0  0  0  0  0  0  0  0  0  0  0
   -0.1404   -4.9276    1.3574 H   0  0  0  0  0  0  0  0  0  0  0  0
   -0.2080   -3.2310    0.8345 H   0  0  0  0  0  0  0  0  0  0  0  0
    0.1157   -3.6486    2.5584 H   0  0  0  0  0  0  0  0  0  0  0  0
    3.8571   -5.0346    0.2769 H   0  0  0  0  0  0  0  0  0  0  0  0
    8.5786   -5.3221   -0.5671 H   0  0  0  0  0  0  0  0  0  0  0  0
    9.5240   -3.2180    0.2975 H   0  0  0  0  0  0  0  0  0  0  0  0
    9.5760    0.6912    1.8275 H   0  0  0  0  0  0  0  0  0  0  0  0
   11.7384    0.8158    2.8885 H   0  0  0  0  0  0  0  0  0  0  0  0
   13.3296   -2.1113    4.6579 H   0  0  0  0  0  0  0  0  0  0  0  0
   15.4900   -1.3019    4.4961 H   0  0  0  0  0  0  0  0  0  0  0  0
   14.5960    1.7592    6.3030 H   0  0  0  0  0  0  0  0  0  0  0  0
   14.9878    3.9532    7.0996 H   0  0  0  0  0  0  0  0  0  0  0  0
   15.6139    4.8908    5.7324 H   0  0  0  0  0  0  0  0  0  0  0  0
   16.6479    4.5532    7.1495 H   0  0  0  0  0  0  0  0  0  0  0  0
   18.1946    3.7757    5.0852 H   0  0  0  0  0  0  0  0  0  0  0  0
   18.9678    1.6986    3.9603 H   0  0  0  0  0  0  0  0  0  0  0  0
   11.3891   -3.3209    4.1180 H   0  0  0  0  0  0  0  0  0  0  0  0
    9.1729   -3.4037    3.0929 H   0  0  0  0  0  0  0  0  0  0  0  0
  1  2  1  0  0  0  0
  1 33  1  0  0  0  0
  1 34  1  0  0  0  0
  1 35  1  0  0  0  0
  2  3  1  0  0  0  0
  3  4  2  0  0  0  0
  3  5  1  0  0  0  0
  5  6  2  0  0  0  0
  5 32  1  0  0  0  0
  6  7  1  0  0  0  0
  6 36  1  0  0  0  0
  7  8  1  0  0  0  0
  7 31  2  0  0  0  0
  8  9  2  0  0  0  0
  9 10  1  0  0  0  0
  9 37  1  0  0  0  0
 10 11  2  0  0  0  0
 10 38  1  0  0  0  0
 11 12  1  0  0  0  0
 11 31  1  0  0  0  0
 12 13  1  0  0  0  0
 13 14  1  0  0  0  0
 13 30  2  0  0  0  0
 14 15  2  0  0  0  0
 14 39  1  0  0  0  0
 15 16  1  0  0  0  0
 15 40  1  0  0  0  0
 16 17  1  0  0  0  0
 16 29  2  0  0  0  0
 17 18  1  0  0  0  0
 17 41  1  0  0  0  0
 18 19  2  0  0  0  0
 18 20  1  0  0  0  0
 20 21  1  0  0  0  0
 20 42  1  0  0  0  0
 21 22  1  0  0  0  0
 21 27  2  0  0  0  0
 22 23  2  0  0  0  0
 22 43  1  0  0  0  0
 23 24  1  0  0  0  0
 23 25  1  0  0  0  0
 24 44  1  0  0  0  0
 24 45  1  0  0  0  0
 24 46  1  0  0  0  0
 25 26  2  0  0  0  0
 25 47  1  0  0  0  0
 26 27  1  0  0  0  0
 26 48  1  0  0  0  0
 27 28  1  0  0  0  0
 29 30  1  0  0  0  0
 29 49  1  0  0  0  0
 30 50  1  0  0  0  0
 31 32  1  0  0  0  0
M  END
$$$$
