CHEMBL1269858
 OpenBabel04072215363D

 66 71  0  0  0  0  0  0  0  0999 V2000
    1.4828   -0.6247   -0.7581 C   0  0  0  0  0  0  0  0  0  0  0  0
    2.8760   -0.2832   -0.4693 N   0  0  0  0  0  0  0  0  0  0  0  0
    3.4853   -0.8782    0.6726 C   0  0  0  0  0  0  0  0  0  0  0  0
    3.1171   -2.1498    1.0884 C   0  0  0  0  0  0  0  0  0  0  0  0
    3.7268   -2.6494    2.2087 C   0  0  0  0  0  0  0  0  0  0  0  0
    4.6668   -1.9937    2.8827 N   0  0  0  0  0  0  0  0  0  0  0  0
    5.0210   -0.7847    2.4220 C   0  0  0  0  0  0  0  0  0  0  0  0
    5.9932   -0.0651    3.1203 N   0  0  0  0  0  0  0  0  0  0  0  0
    7.0251   -0.5979    3.9196 C   0  0  0  0  0  0  0  0  0  0  0  0
    7.5795   -1.8576    3.6786 C   0  0  0  0  0  0  0  0  0  0  0  0
    8.5938   -2.3970    4.4796 C   0  0  0  0  0  0  0  0  0  0  0  0
    9.1526   -3.6163    4.1412 N   0  0  0  0  0  0  0  0  0  0  0  0
   10.5335   -3.9534    4.4996 C   0  0  0  0  0  0  0  0  0  0  0  0
   11.0675   -4.9328    3.4418 C   0  0  0  0  0  0  0  0  0  0  0  0
   10.2449   -6.1117    3.3482 O   0  0  0  0  0  0  0  0  0  0  0  0
    8.8900   -5.7557    3.0068 C   0  0  0  0  0  0  0  0  0  0  0  0
    8.2808   -4.7963    4.0382 C   0  0  0  0  0  0  0  0  0  0  0  0
    9.0534   -1.6196    5.5483 C   0  0  0  0  0  0  0  0  0  0  0  0
    8.5560   -0.3367    5.8251 C   0  0  0  0  0  0  0  0  0  0  0  0
    9.0826    0.4286    6.8446 N   0  0  0  0  0  0  0  0  0  0  0  0
    9.1049    1.8934    6.7763 C   0  0  0  0  0  0  0  0  0  0  0  0
   10.5159    2.3864    7.1302 C   0  0  0  0  0  0  0  0  0  0  0  0
   10.9383    1.9086    8.4187 O   0  0  0  0  0  0  0  0  0  0  0  0
   10.9581    0.4697    8.4344 C   0  0  0  0  0  0  0  0  0  0  0  0
    9.5762   -0.1243    8.1142 C   0  0  0  0  0  0  0  0  0  0  0  0
    7.5336    0.1484    4.9865 C   0  0  0  0  0  0  0  0  0  0  0  0
    4.4457   -0.2120    1.3480 N   0  0  0  0  0  0  0  0  0  0  0  0
    3.3910    0.8666   -1.1259 C   0  0  0  0  0  0  0  0  0  0  0  0
    2.5786    1.9742   -1.4748 C   0  0  0  0  0  0  0  0  0  0  0  0
    3.0950    3.1649   -2.0039 C   0  0  0  0  0  0  0  0  0  0  0  0
    4.4659    3.3390   -2.1726 C   0  0  0  0  0  0  0  0  0  0  0  0
    5.2690    2.2391   -1.8766 C   0  0  0  0  0  0  0  0  0  0  0  0
    6.6302    2.0821   -1.8844 N   0  0  0  0  0  0  0  0  0  0  0  0
    7.0362    0.8111   -1.7450 N   0  0  0  0  0  0  0  0  0  0  0  0
    5.8994    0.1640   -1.4682 C   0  0  0  0  0  0  0  0  0  0  0  0
    4.7630    1.0139   -1.4466 C   0  0  0  0  0  0  0  0  0  0  0  0
    1.0896   -1.4766   -0.2023 H   0  0  0  0  0  0  0  0  0  0  0  0
    1.3727   -0.8797   -1.8183 H   0  0  0  0  0  0  0  0  0  0  0  0
    0.7921    0.1921   -0.5076 H   0  0  0  0  0  0  0  0  0  0  0  0
    2.3909   -2.7612    0.5793 H   0  0  0  0  0  0  0  0  0  0  0  0
    3.4668   -3.6256    2.6020 H   0  0  0  0  0  0  0  0  0  0  0  0
    6.2208    0.7865    2.6248 H   0  0  0  0  0  0  0  0  0  0  0  0
    7.2541   -2.4196    2.8072 H   0  0  0  0  0  0  0  0  0  0  0  0
   10.5531   -4.4200    5.4921 H   0  0  0  0  0  0  0  0  0  0  0  0
   11.1778   -3.0672    4.5125 H   0  0  0  0  0  0  0  0  0  0  0  0
   12.0811   -5.2494    3.7042 H   0  0  0  0  0  0  0  0  0  0  0  0
   11.1098   -4.4512    2.4566 H   0  0  0  0  0  0  0  0  0  0  0  0
    8.3065   -6.6799    2.9600 H   0  0  0  0  0  0  0  0  0  0  0  0
    8.8836   -5.3016    2.0082 H   0  0  0  0  0  0  0  0  0  0  0  0
    8.2347   -5.2887    5.0207 H   0  0  0  0  0  0  0  0  0  0  0  0
    7.2519   -4.5480    3.7478 H   0  0  0  0  0  0  0  0  0  0  0  0
    9.8520   -2.0170    6.1646 H   0  0  0  0  0  0  0  0  0  0  0  0
    8.3741    2.2874    7.4911 H   0  0  0  0  0  0  0  0  0  0  0  0
    8.8567    2.2756    5.7807 H   0  0  0  0  0  0  0  0  0  0  0  0
   10.5273    3.4802    7.1571 H   0  0  0  0  0  0  0  0  0  0  0  0
   11.2429    2.0622    6.3751 H   0  0  0  0  0  0  0  0  0  0  0  0
   11.2744    0.1570    9.4347 H   0  0  0  0  0  0  0  0  0  0  0  0
   11.7126    0.1178    7.7203 H   0  0  0  0  0  0  0  0  0  0  0  0
    8.8700    0.1638    8.9027 H   0  0  0  0  0  0  0  0  0  0  0  0
    9.6335   -1.2169    8.1275 H   0  0  0  0  0  0  0  0  0  0  0  0
    7.0780    1.1103    5.1970 H   0  0  0  0  0  0  0  0  0  0  0  0
    1.5072    1.9580   -1.2947 H   0  0  0  0  0  0  0  0  0  0  0  0
    2.4171    3.9785   -2.2448 H   0  0  0  0  0  0  0  0  0  0  0  0
    4.8751    4.2741   -2.5347 H   0  0  0  0  0  0  0  0  0  0  0  0
    7.3334    2.8044   -1.9795 H   0  0  0  0  0  0  0  0  0  0  0  0
    5.9279   -0.9033   -1.3015 H   0  0  0  0  0  0  0  0  0  0  0  0
  1  2  1  0  0  0  0
  1 37  1  0  0  0  0
  1 38  1  0  0  0  0
  1 39  1  0  0  0  0
  2  3  1  0  0  0  0
  2 28  1  0  0  0  0
  3  4  1  0  0  0  0
  3 27  2  0  0  0  0
  4  5  2  0  0  0  0
  4 40  1  0  0  0  0
  5  6  1  0  0  0  0
  5 41  1  0  0  0  0
  6  7  2  0  0  0  0
  7  8  1  0  0  0  0
  7 27  1  0  0  0  0
  8  9  1  0  0  0  0
  8 42  1  0  0  0  0
  9 10  1  0  0  0  0
  9 26  2  0  0  0  0
 10 11  2  0  0  0  0
 10 43  1  0  0  0  0
 11 12  1  0  0  0  0
 11 18  1  0  0  0  0
 12 13  1  0  0  0  0
 12 17  1  0  0  0  0
 13 14  1  0  0  0  0
 13 44  1  0  0  0  0
 13 45  1  0  0  0  0
 14 15  1  0  0  0  0
 14 46  1  0  0  0  0
 14 47  1  0  0  0  0
 15 16  1  0  0  0  0
 16 17  1  0  0  0  0
 16 48  1  0  0  0  0
 16 49  1  0  0  0  0
 17 50  1  0  0  0  0
 17 51  1  0  0  0  0
 18 19  2  0  0  0  0
 18 52  1  0  0  0  0
 19 20  1  0  0  0  0
 19 26  1  0  0  0  0
 20 21  1  0  0  0  0
 20 25  1  0  0  0  0
 21 22  1  0  0  0  0
 21 53  1  0  0  0  0
 21 54  1  0  0  0  0
 22 23  1  0  0  0  0
 22 55  1  0  0  0  0
 22 56  1  0  0  0  0
 23 24  1  0  0  0  0
 24 25  1  0  0  0  0
 24 57  1  0  0  0  0
 24 58  1  0  0  0  0
 25 59  1  0  0  0  0
 25 60  1  0  0  0  0
 26 61  1  0  0  0  0
 28 29  1  0  0  0  0
 28 36  2  0  0  0  0
 29 30  2  0  0  0  0
 29 62  1  0  0  0  0
 30 31  1  0  0  0  0
 30 63  1  0  0  0  0
 31 32  2  0  0  0  0
 31 64  1  0  0  0  0
 32 33  1  0  0  0  0
 32 36  1  0  0  0  0
 33 34  1  0  0  0  0
 33 65  1  0  0  0  0
 34 35  2  0  0  0  0
 35 36  1  0  0  0  0
 35 66  1  0  0  0  0
M  END
$$$$
