CHEMBL59110
 OpenBabel04072215383D

 33 36  0  0  0  0  0  0  0  0999 V2000
    1.3450    0.5869   -0.2600 O   0  0  0  0  0  0  0  0  0  0  0  0
    2.5169    0.2819   -0.1716 C   0  0  0  0  0  0  0  0  0  0  0  0
    3.5923    1.1549   -0.1095 N   0  0  0  0  0  0  0  0  0  0  0  0
    4.8028    0.4722   -0.0926 C   0  0  0  0  0  0  0  0  0  0  0  0
    6.0668    1.0250   -0.0454 C   0  0  0  0  0  0  0  0  0  0  0  0
    7.1486    0.1420   -0.0313 C   0  0  0  0  0  0  0  0  0  0  0  0
    6.9357   -1.2440   -0.0640 C   0  0  0  0  0  0  0  0  0  0  0  0
    7.9915   -2.0683   -0.0413 F   0  0  0  0  0  0  0  0  0  0  0  0
    5.6543   -1.7887   -0.1150 C   0  0  0  0  0  0  0  0  0  0  0  0
    4.5861   -0.9091   -0.1302 C   0  0  0  0  0  0  0  0  0  0  0  0
    3.1269   -1.0991   -0.1579 C   0  0  0  0  0  0  0  0  0  0  0  0
    2.5548   -2.3107   -0.1188 C   0  0  0  0  0  0  0  0  0  0  0  0
    1.1783   -2.6295   -0.0254 C   0  0  0  0  0  0  0  0  0  0  0  0
    0.1802   -1.7747   -0.4384 N   0  0  0  0  0  0  0  0  0  0  0  0
   -1.0491   -2.3605   -0.2643 C   0  0  0  0  0  0  0  0  0  0  0  0
   -0.8504   -3.6096    0.2820 C   0  0  0  0  0  0  0  0  0  0  0  0
    0.5500   -3.7726    0.4306 C   0  0  0  0  0  0  0  0  0  0  0  0
    1.0905   -5.0288    1.0041 C   0  0  0  0  0  0  0  0  0  0  0  0
    0.0026   -5.6776    1.8680 C   0  0  0  0  0  0  0  0  0  0  0  0
   -1.2940   -5.7564    1.2213 O   0  0  0  0  0  0  0  0  0  0  0  0
   -1.8273   -4.6246    0.6452 C   0  0  0  0  0  0  0  0  0  0  0  0
   -3.0268   -4.5200    0.4214 O   0  0  0  0  0  0  0  0  0  0  0  0
    3.4762    2.1574   -0.1026 H   0  0  0  0  0  0  0  0  0  0  0  0
    6.2225    2.0974   -0.0173 H   0  0  0  0  0  0  0  0  0  0  0  0
    8.1677    0.5174    0.0080 H   0  0  0  0  0  0  0  0  0  0  0  0
    5.5279   -2.8637   -0.1350 H   0  0  0  0  0  0  0  0  0  0  0  0
    3.2101   -3.1793   -0.0958 H   0  0  0  0  0  0  0  0  0  0  0  0
    0.3230   -0.8276   -0.7787 H   0  0  0  0  0  0  0  0  0  0  0  0
   -1.9552   -1.8353   -0.5361 H   0  0  0  0  0  0  0  0  0  0  0  0
    1.9821   -4.8399    1.6123 H   0  0  0  0  0  0  0  0  0  0  0  0
    1.3710   -5.6998    0.1847 H   0  0  0  0  0  0  0  0  0  0  0  0
   -0.1316   -5.1327    2.8103 H   0  0  0  0  0  0  0  0  0  0  0  0
    0.3010   -6.7000    2.1222 H   0  0  0  0  0  0  0  0  0  0  0  0
  1  2  2  0  0  0  0
  2  3  1  0  0  0  0
  2 11  1  0  0  0  0
  3  4  1  0  0  0  0
  3 23  1  0  0  0  0
  4  5  1  0  0  0  0
  4 10  2  0  0  0  0
  5  6  2  0  0  0  0
  5 24  1  0  0  0  0
  6  7  1  0  0  0  0
  6 25  1  0  0  0  0
  7  8  1  0  0  0  0
  7  9  2  0  0  0  0
  9 10  1  0  0  0  0
  9 26  1  0  0  0  0
 10 11  1  0  0  0  0
 11 12  2  0  0  0  0
 12 13  1  0  0  0  0
 12 27  1  0  0  0  0
 13 14  1  0  0  0  0
 13 17  2  0  0  0  0
 14 15  1  0  0  0  0
 14 28  1  0  0  0  0
 15 16  2  0  0  0  0
 15 29  1  0  0  0  0
 16 17  1  0  0  0  0
 16 21  1  0  0  0  0
 17 18  1  0  0  0  0
 18 19  1  0  0  0  0
 18 30  1  0  0  0  0
 18 31  1  0  0  0  0
 19 20  1  0  0  0  0
 19 32  1  0  0  0  0
 19 33  1  0  0  0  0
 20 21  1  0  0  0  0
 21 22  2  0  0  0  0
M  END
$$$$
