CHEMBL461392
 OpenBabel04072215383D

 54 57  0  0  0  0  0  0  0  0999 V2000
    2.9924    0.9547    0.8669 C   0  0  0  0  0  0  0  0  0  0  0  0
    2.4250   -0.1356   -0.0703 C   0  0  0  0  0  0  0  0  0  0  0  0
    2.7174   -1.5007    0.5901 C   0  0  0  0  0  0  0  0  0  0  0  0
    0.8984    0.0740   -0.1468 C   0  0  0  0  0  0  0  0  0  0  0  0
    3.0380   -0.1059   -1.4803 C   0  0  0  0  0  0  0  0  0  0  0  0
    4.0212    0.8236   -1.8555 C   0  0  0  0  0  0  0  0  0  0  0  0
    4.6097    0.7973   -3.1244 C   0  0  0  0  0  0  0  0  0  0  0  0
    4.2205   -0.1640   -4.0586 C   0  0  0  0  0  0  0  0  0  0  0  0
    4.8221   -0.2147   -5.3386 N   0  0  0  0  0  0  0  0  0  0  0  0
    5.8596    0.5456   -5.8295 C   0  0  0  0  0  0  0  0  0  0  0  0
    5.9773    0.1740   -7.1485 C   0  0  0  0  0  0  0  0  0  0  0  0
    6.9035    0.6789   -8.1520 C   0  0  0  0  0  0  0  0  0  0  0  0
    7.3747   -0.2726   -9.0826 C   0  0  0  0  0  0  0  0  0  0  0  0
    8.2257    0.0863  -10.1245 C   0  0  0  0  0  0  0  0  0  0  0  0
    8.6339    1.4048  -10.2434 C   0  0  0  0  0  0  0  0  0  0  0  0
    8.1855    2.3582   -9.3243 C   0  0  0  0  0  0  0  0  0  0  0  0
    7.2858    2.0409   -8.2865 C   0  0  0  0  0  0  0  0  0  0  0  0
    6.8926    3.0332   -7.3576 N   0  0  0  0  0  0  0  0  0  0  0  0
    6.7282    4.4019   -7.8397 C   0  0  0  0  0  0  0  0  0  0  0  0
    6.2805    5.2854   -6.7019 C   0  0  0  0  0  0  0  0  0  0  0  0
    7.2165    5.9947   -5.9400 C   0  0  0  0  0  0  0  0  0  0  0  0
    6.7623    6.8048   -4.9125 C   0  0  0  0  0  0  0  0  0  0  0  0
    5.4607    6.9452   -4.5867 N   0  0  0  0  0  0  0  0  0  0  0  0
    4.5727    6.2400   -5.3219 C   0  0  0  0  0  0  0  0  0  0  0  0
    4.9260    5.4083   -6.3716 C   0  0  0  0  0  0  0  0  0  0  0  0
    5.0849   -0.8336   -7.4027 N   0  0  0  0  0  0  0  0  0  0  0  0
    4.3938   -1.0692   -6.2969 N   0  0  0  0  0  0  0  0  0  0  0  0
    3.2147   -1.0765   -3.7246 C   0  0  0  0  0  0  0  0  0  0  0  0
    2.6375   -1.0460   -2.4497 C   0  0  0  0  0  0  0  0  0  0  0  0
    2.5429    0.8946    1.8650 H   0  0  0  0  0  0  0  0  0  0  0  0
    2.7920    1.9609    0.4809 H   0  0  0  0  0  0  0  0  0  0  0  0
    4.0769    0.8495    0.9948 H   0  0  0  0  0  0  0  0  0  0  0  0
    2.2734   -1.5572    1.5909 H   0  0  0  0  0  0  0  0  0  0  0  0
    3.7967   -1.6645    0.6950 H   0  0  0  0  0  0  0  0  0  0  0  0
    2.3134   -2.3389    0.0123 H   0  0  0  0  0  0  0  0  0  0  0  0
    0.4456    0.0214    0.8507 H   0  0  0  0  0  0  0  0  0  0  0  0
    0.4035   -0.6833   -0.7637 H   0  0  0  0  0  0  0  0  0  0  0  0
    0.6553    1.0552   -0.5707 H   0  0  0  0  0  0  0  0  0  0  0  0
    4.3659    1.5905   -1.1672 H   0  0  0  0  0  0  0  0  0  0  0  0
    5.3642    1.5475   -3.3400 H   0  0  0  0  0  0  0  0  0  0  0  0
    6.4075    1.2545   -5.2289 H   0  0  0  0  0  0  0  0  0  0  0  0
    7.0732   -1.3168   -8.9958 H   0  0  0  0  0  0  0  0  0  0  0  0
    8.5696   -0.6639  -10.8309 H   0  0  0  0  0  0  0  0  0  0  0  0
    9.3032    1.6963  -11.0469 H   0  0  0  0  0  0  0  0  0  0  0  0
    8.5692    3.3669   -9.4471 H   0  0  0  0  0  0  0  0  0  0  0  0
    6.0597    2.7460   -6.8539 H   0  0  0  0  0  0  0  0  0  0  0  0
    5.9814    4.4356   -8.6428 H   0  0  0  0  0  0  0  0  0  0  0  0
    7.6616    4.8133   -8.2382 H   0  0  0  0  0  0  0  0  0  0  0  0
    8.2797    5.9224   -6.1458 H   0  0  0  0  0  0  0  0  0  0  0  0
    7.4563    7.3827   -4.3076 H   0  0  0  0  0  0  0  0  0  0  0  0
    3.5325    6.3734   -5.0380 H   0  0  0  0  0  0  0  0  0  0  0  0
    4.1602    4.8745   -6.9230 H   0  0  0  0  0  0  0  0  0  0  0  0
    2.8739   -1.8296   -4.4329 H   0  0  0  0  0  0  0  0  0  0  0  0
    1.8709   -1.7853   -2.2209 H   0  0  0  0  0  0  0  0  0  0  0  0
  1  2  1  0  0  0  0
  1 30  1  0  0  0  0
  1 31  1  0  0  0  0
  1 32  1  0  0  0  0
  2  3  1  0  0  0  0
  2  4  1  0  0  0  0
  2  5  1  0  0  0  0
  3 33  1  0  0  0  0
  3 34  1  0  0  0  0
  3 35  1  0  0  0  0
  4 36  1  0  0  0  0
  4 37  1  0  0  0  0
  4 38  1  0  0  0  0
  5  6  1  0  0  0  0
  5 29  2  0  0  0  0
  6  7  2  0  0  0  0
  6 39  1  0  0  0  0
  7  8  1  0  0  0  0
  7 40  1  0  0  0  0
  8  9  1  0  0  0  0
  8 28  2  0  0  0  0
  9 10  1  0  0  0  0
  9 27  1  0  0  0  0
 10 11  2  0  0  0  0
 10 41  1  0  0  0  0
 11 12  1  0  0  0  0
 11 26  1  0  0  0  0
 12 13  1  0  0  0  0
 12 17  2  0  0  0  0
 13 14  2  0  0  0  0
 13 42  1  0  0  0  0
 14 15  1  0  0  0  0
 14 43  1  0  0  0  0
 15 16  2  0  0  0  0
 15 44  1  0  0  0  0
 16 17  1  0  0  0  0
 16 45  1  0  0  0  0
 17 18  1  0  0  0  0
 18 19  1  0  0  0  0
 18 46  1  0  0  0  0
 19 20  1  0  0  0  0
 19 47  1  0  0  0  0
 19 48  1  0  0  0  0
 20 21  1  0  0  0  0
 20 25  2  0  0  0  0
 21 22  2  0  0  0  0
 21 49  1  0  0  0  0
 22 23  1  0  0  0  0
 22 50  1  0  0  0  0
 23 24  2  0  0  0  0
 24 25  1  0  0  0  0
 24 51  1  0  0  0  0
 25 52  1  0  0  0  0
 26 27  2  0  0  0  0
 28 29  1  0  0  0  0
 28 53  1  0  0  0  0
 29 54  1  0  0  0  0
M  END
$$$$
