CHEMBL437754
 OpenBabel04072215383D

 73 78  0  0  0  0  0  0  0  0999 V2000
    1.4952   -0.2438    0.0683 C   0  0  0  0  0  0  0  0  0  0  0  0
    1.0264    0.9661   -0.4326 C   0  0  0  0  0  0  0  0  0  0  0  0
   -0.3424    1.2410   -0.4229 C   0  0  0  0  0  0  0  0  0  0  0  0
   -1.2724    0.2694   -0.0255 C   0  0  0  0  0  0  0  0  0  0  0  0
   -2.7189    0.4993   -0.1088 C   0  0  0  0  0  0  0  0  0  0  0  0
   -3.3411    1.1288   -1.1921 C   0  0  0  0  0  0  0  0  0  0  0  0
   -2.8413    1.7192   -2.4368 C   0  0  0  0  0  0  0  0  0  0  0  0
   -1.8055    1.0729   -3.1184 C   0  0  0  0  0  0  0  0  0  0  0  0
   -1.0649    1.7373   -4.0925 C   0  0  0  0  0  0  0  0  0  0  0  0
   -1.4168    3.0273   -4.4864 C   0  0  0  0  0  0  0  0  0  0  0  0
   -0.7109    3.7682   -5.4061 O   0  0  0  0  0  0  0  0  0  0  0  0
    0.0402    2.9668   -6.3290 C   0  0  0  0  0  0  0  0  0  0  0  0
    0.7445    3.8382   -7.3776 C   0  0  0  0  0  0  0  0  0  0  0  0
    1.5452    3.0455   -8.3411 N   0  0  0  0  0  0  0  0  0  0  0  0
    0.7000    2.1368   -9.1345 C   0  0  0  0  0  0  0  0  0  0  0  0
    1.5151    1.3222  -10.1351 C   0  0  0  0  0  0  0  0  0  0  0  0
    2.3208    2.2250  -11.0545 C   0  0  0  0  0  0  0  0  0  0  0  0
    3.1697    3.1818  -10.2280 C   0  0  0  0  0  0  0  0  0  0  0  0
    2.3195    3.9473   -9.2098 C   0  0  0  0  0  0  0  0  0  0  0  0
   -2.5238    3.6393   -3.8960 C   0  0  0  0  0  0  0  0  0  0  0  0
   -3.2399    2.9895   -2.8737 C   0  0  0  0  0  0  0  0  0  0  0  0
   -4.6868    1.1565   -1.0158 O   0  0  0  0  0  0  0  0  0  0  0  0
   -4.9609    0.5013    0.1481 C   0  0  0  0  0  0  0  0  0  0  0  0
   -6.2255    0.2998    0.5704 N   0  0  0  0  0  0  0  0  0  0  0  0
   -6.2854   -0.4015    1.7189 C   0  0  0  0  0  0  0  0  0  0  0  0
   -5.1974   -0.8532    2.4537 C   0  0  0  0  0  0  0  0  0  0  0  0
   -3.8916   -0.5781    2.0255 C   0  0  0  0  0  0  0  0  0  0  0  0
   -2.7927   -0.8861    2.8428 N   0  0  0  0  0  0  0  0  0  0  0  0
   -2.7071   -2.2134    3.4575 C   0  0  0  0  0  0  0  0  0  0  0  0
   -1.2895   -2.4576    3.9977 C   0  0  0  0  0  0  0  0  0  0  0  0
   -1.1970   -3.7131    4.8151 C   0  0  0  0  0  0  0  0  0  0  0  0
   -1.4301   -3.6888    6.1944 C   0  0  0  0  0  0  0  0  0  0  0  0
   -1.3696   -4.8724    6.9253 C   0  0  0  0  0  0  0  0  0  0  0  0
   -1.0743   -6.0451    6.2498 C   0  0  0  0  0  0  0  0  0  0  0  0
   -0.8384   -6.1058    4.9224 N   0  0  0  0  0  0  0  0  0  0  0  0
   -0.9031   -4.9412    4.2387 C   0  0  0  0  0  0  0  0  0  0  0  0
   -3.7773    0.1016    0.7779 C   0  0  0  0  0  0  0  0  0  0  0  0
   -0.7804   -0.9694    0.4110 C   0  0  0  0  0  0  0  0  0  0  0  0
    0.5921   -1.2029    0.5125 C   0  0  0  0  0  0  0  0  0  0  0  0
    2.5631   -0.4421    0.1001 H   0  0  0  0  0  0  0  0  0  0  0  0
    1.7232    1.6987   -0.8356 H   0  0  0  0  0  0  0  0  0  0  0  0
   -0.6685    2.2131   -0.7904 H   0  0  0  0  0  0  0  0  0  0  0  0
   -1.4841    0.0766   -2.8209 H   0  0  0  0  0  0  0  0  0  0  0  0
   -0.1883    1.2269   -4.4722 H   0  0  0  0  0  0  0  0  0  0  0  0
   -0.6620    2.2821   -6.8159 H   0  0  0  0  0  0  0  0  0  0  0  0
    0.8198    2.4029   -5.8041 H   0  0  0  0  0  0  0  0  0  0  0  0
    1.4116    4.5220   -6.8314 H   0  0  0  0  0  0  0  0  0  0  0  0
    0.0127    4.4737   -7.8883 H   0  0  0  0  0  0  0  0  0  0  0  0
   -0.0824    2.7008   -9.6634 H   0  0  0  0  0  0  0  0  0  0  0  0
    0.2010    1.4132   -8.4881 H   0  0  0  0  0  0  0  0  0  0  0  0
    0.8467    0.6872  -10.7269 H   0  0  0  0  0  0  0  0  0  0  0  0
    2.1952    0.6486   -9.5926 H   0  0  0  0  0  0  0  0  0  0  0  0
    1.6368    2.7982  -11.6966 H   0  0  0  0  0  0  0  0  0  0  0  0
    2.9559    1.6256  -11.7118 H   0  0  0  0  0  0  0  0  0  0  0  0
    3.6776    3.8894  -10.8920 H   0  0  0  0  0  0  0  0  0  0  0  0
    3.9510    2.6155   -9.7052 H   0  0  0  0  0  0  0  0  0  0  0  0
    1.6509    4.6364   -9.7427 H   0  0  0  0  0  0  0  0  0  0  0  0
    2.9964    4.5556   -8.5980 H   0  0  0  0  0  0  0  0  0  0  0  0
   -2.8178    4.6394   -4.2058 H   0  0  0  0  0  0  0  0  0  0  0  0
   -4.0651    3.5051   -2.3898 H   0  0  0  0  0  0  0  0  0  0  0  0
   -7.2952   -0.5854    2.0795 H   0  0  0  0  0  0  0  0  0  0  0  0
   -5.3781   -1.3750    3.3855 H   0  0  0  0  0  0  0  0  0  0  0  0
   -1.9144   -0.5482    2.4589 H   0  0  0  0  0  0  0  0  0  0  0  0
   -2.9590   -2.9959    2.7325 H   0  0  0  0  0  0  0  0  0  0  0  0
   -3.4280   -2.2804    4.2852 H   0  0  0  0  0  0  0  0  0  0  0  0
   -0.9598   -1.6020    4.5969 H   0  0  0  0  0  0  0  0  0  0  0  0
   -0.5725   -2.5187    3.1605 H   0  0  0  0  0  0  0  0  0  0  0  0
   -1.6602   -2.7559    6.7045 H   0  0  0  0  0  0  0  0  0  0  0  0
   -1.5495   -4.8804    7.9945 H   0  0  0  0  0  0  0  0  0  0  0  0
   -1.0197   -6.9943    6.7753 H   0  0  0  0  0  0  0  0  0  0  0  0
   -0.7048   -5.0352    3.1736 H   0  0  0  0  0  0  0  0  0  0  0  0
   -1.4651   -1.7703    0.6799 H   0  0  0  0  0  0  0  0  0  0  0  0
    0.9547   -2.1415    0.9234 H   0  0  0  0  0  0  0  0  0  0  0  0
  1  2  1  0  0  0  0
  1 39  2  0  0  0  0
  1 40  1  0  0  0  0
  2  3  2  0  0  0  0
  2 41  1  0  0  0  0
  3  4  1  0  0  0  0
  3 42  1  0  0  0  0
  4  5  1  0  0  0  0
  4 38  2  0  0  0  0
  5  6  2  0  0  0  0
  5 37  1  0  0  0  0
  6  7  1  0  0  0  0
  6 22  1  0  0  0  0
  7  8  1  0  0  0  0
  7 21  2  0  0  0  0
  8  9  2  0  0  0  0
  8 43  1  0  0  0  0
  9 10  1  0  0  0  0
  9 44  1  0  0  0  0
 10 11  1  0  0  0  0
 10 20  2  0  0  0  0
 11 12  1  0  0  0  0
 12 13  1  0  0  0  0
 12 45  1  0  0  0  0
 12 46  1  0  0  0  0
 13 14  1  0  0  0  0
 13 47  1  0  0  0  0
 13 48  1  0  0  0  0
 14 15  1  0  0  0  0
 14 19  1  0  0  0  0
 15 16  1  0  0  0  0
 15 49  1  0  0  0  0
 15 50  1  0  0  0  0
 16 17  1  0  0  0  0
 16 51  1  0  0  0  0
 16 52  1  0  0  0  0
 17 18  1  0  0  0  0
 17 53  1  0  0  0  0
 17 54  1  0  0  0  0
 18 19  1  0  0  0  0
 18 55  1  0  0  0  0
 18 56  1  0  0  0  0
 19 57  1  0  0  0  0
 19 58  1  0  0  0  0
 20 21  1  0  0  0  0
 20 59  1  0  0  0  0
 21 60  1  0  0  0  0
 22 23  1  0  0  0  0
 23 24  1  0  0  0  0
 23 37  2  0  0  0  0
 24 25  2  0  0  0  0
 25 26  1  0  0  0  0
 25 61  1  0  0  0  0
 26 27  2  0  0  0  0
 26 62  1  0  0  0  0
 27 28  1  0  0  0  0
 27 37  1  0  0  0  0
 28 29  1  0  0  0  0
 28 63  1  0  0  0  0
 29 30  1  0  0  0  0
 29 64  1  0  0  0  0
 29 65  1  0  0  0  0
 30 31  1  0  0  0  0
 30 66  1  0  0  0  0
 30 67  1  0  0  0  0
 31 32  1  0  0  0  0
 31 36  2  0  0  0  0
 32 33  2  0  0  0  0
 32 68  1  0  0  0  0
 33 34  1  0  0  0  0
 33 69  1  0  0  0  0
 34 35  2  0  0  0  0
 34 70  1  0  0  0  0
 35 36  1  0  0  0  0
 36 71  1  0  0  0  0
 38 39  1  0  0  0  0
 38 72  1  0  0  0  0
 39 73  1  0  0  0  0
M  END
$$$$
