CHEMBL56109
 OpenBabel04072215383D

 74 78  0  0  0  0  0  0  0  0999 V2000
    2.7137   -1.3650    2.0308 C   0  0  0  0  0  0  0  0  0  0  0  0
    2.8192   -0.4895    0.8655 N   0  0  0  0  0  0  0  0  0  0  0  0
    2.9345    1.1658    1.1108 S   0  0  0  0  0  0  0  0  0  0  0  0
    2.5497    1.7798   -0.1468 O   0  0  0  0  0  0  0  0  0  0  0  0
    2.2657    1.4970    2.3523 O   0  0  0  0  0  0  0  0  0  0  0  0
    4.6800    1.4244    1.3251 C   0  0  0  0  0  0  0  0  0  0  0  0
    5.2162    1.2932    2.6239 C   0  0  0  0  0  0  0  0  0  0  0  0
    6.5644    1.5567    2.8568 C   0  0  0  0  0  0  0  0  0  0  0  0
    7.3260    1.9578    1.7768 C   0  0  0  0  0  0  0  0  0  0  0  0
    6.8137    2.1054    0.4787 C   0  0  0  0  0  0  0  0  0  0  0  0
    5.4732    1.8426    0.2377 C   0  0  0  0  0  0  0  0  0  0  0  0
    7.9440    2.5676   -0.3526 C   0  0  0  0  0  0  0  0  0  0  0  0
    7.9121    2.8790   -1.6611 C   0  0  0  0  0  0  0  0  0  0  0  0
    9.0392    3.4012   -2.3537 C   0  0  0  0  0  0  0  0  0  0  0  0
    9.9361    2.5264   -2.9177 N   0  0  0  0  0  0  0  0  0  0  0  0
   10.9835    3.2319   -3.4410 C   0  0  0  0  0  0  0  0  0  0  0  0
   10.7841    4.5744   -3.1969 C   0  0  0  0  0  0  0  0  0  0  0  0
    9.4920    4.6975   -2.5906 C   0  0  0  0  0  0  0  0  0  0  0  0
    8.7597    5.9191   -2.1453 C   0  0  0  0  0  0  0  0  0  0  0  0
    9.0703    7.2349   -2.8397 C   0  0  0  0  0  0  0  0  0  0  0  0
    8.8521    7.2865   -4.3662 C   0  0  0  0  0  0  0  0  0  0  0  0
    9.2275    8.6169   -4.9072 N   0  0  0  0  0  0  0  0  0  0  0  0
    8.5012    9.7197   -4.2514 C   0  0  0  0  0  0  0  0  0  0  0  0
    6.9846    9.6802   -4.5498 C   0  0  0  0  0  0  0  0  0  0  0  0
    6.6740    9.8587   -5.9904 N   0  0  0  0  0  0  0  0  0  0  0  0
    6.8873   11.2801   -6.3432 C   0  0  0  0  0  0  0  0  0  0  0  0
    6.4771   11.6718   -7.7670 C   0  0  0  0  0  0  0  0  0  0  0  0
    5.1359   11.2849   -8.0394 O   0  0  0  0  0  0  0  0  0  0  0  0
    7.4905    8.9003   -6.7781 C   0  0  0  0  0  0  0  0  0  0  0  0
    8.9796    8.7258   -6.3627 C   0  0  0  0  0  0  0  0  0  0  0  0
   11.8483    5.5896   -3.4930 C   0  0  0  0  0  0  0  0  0  0  0  0
   12.9329    5.0343   -4.4330 C   0  0  0  0  0  0  0  0  0  0  0  0
   13.3512    3.6042   -4.0605 C   0  0  0  0  0  0  0  0  0  0  0  0
   12.1645    2.6278   -4.1161 C   0  0  0  0  0  0  0  0  0  0  0  0
    9.1494    2.6493    0.5644 C   0  0  0  0  0  0  0  0  0  0  0  0
   10.2998    2.9368    0.3094 O   0  0  0  0  0  0  0  0  0  0  0  0
    8.6753    2.2793    1.8120 N   0  0  0  0  0  0  0  0  0  0  0  0
    2.6935   -2.4049    1.6929 H   0  0  0  0  0  0  0  0  0  0  0  0
    1.7848   -1.1769    2.5768 H   0  0  0  0  0  0  0  0  0  0  0  0
    3.5709   -1.2441    2.6971 H   0  0  0  0  0  0  0  0  0  0  0  0
    2.2136   -0.7010    0.0712 H   0  0  0  0  0  0  0  0  0  0  0  0
    4.5783    1.0019    3.4561 H   0  0  0  0  0  0  0  0  0  0  0  0
    6.9865    1.4651    3.8512 H   0  0  0  0  0  0  0  0  0  0  0  0
    5.0403    1.9708   -0.7500 H   0  0  0  0  0  0  0  0  0  0  0  0
    6.9845    2.8059   -2.2208 H   0  0  0  0  0  0  0  0  0  0  0  0
    9.8647    1.5205   -2.8905 H   0  0  0  0  0  0  0  0  0  0  0  0
    8.9585    6.0520   -1.0736 H   0  0  0  0  0  0  0  0  0  0  0  0
    7.6801    5.7394   -2.2329 H   0  0  0  0  0  0  0  0  0  0  0  0
   10.0870    7.5605   -2.5926 H   0  0  0  0  0  0  0  0  0  0  0  0
    8.3981    7.9530   -2.3574 H   0  0  0  0  0  0  0  0  0  0  0  0
    7.8162    7.0187   -4.6013 H   0  0  0  0  0  0  0  0  0  0  0  0
    9.4693    6.5309   -4.8637 H   0  0  0  0  0  0  0  0  0  0  0  0
    8.9390   10.6659   -4.5910 H   0  0  0  0  0  0  0  0  0  0  0  0
    8.6828    9.7452   -3.1739 H   0  0  0  0  0  0  0  0  0  0  0  0
    6.4728   10.4372   -3.9448 H   0  0  0  0  0  0  0  0  0  0  0  0
    6.5549    8.7268   -4.2174 H   0  0  0  0  0  0  0  0  0  0  0  0
    7.9220   11.5970   -6.1837 H   0  0  0  0  0  0  0  0  0  0  0  0
    6.2563   11.8729   -5.6662 H   0  0  0  0  0  0  0  0  0  0  0  0
    7.1322   11.2181   -8.5147 H   0  0  0  0  0  0  0  0  0  0  0  0
    6.5474   12.7588   -7.8769 H   0  0  0  0  0  0  0  0  0  0  0  0
    5.0519   10.3772   -7.6888 H   0  0  0  0  0  0  0  0  0  0  0  0
    7.4430    9.1358   -7.8470 H   0  0  0  0  0  0  0  0  0  0  0  0
    7.0053    7.9196   -6.6891 H   0  0  0  0  0  0  0  0  0  0  0  0
    9.5364    9.6002   -6.7271 H   0  0  0  0  0  0  0  0  0  0  0  0
    9.4140    7.8673   -6.8910 H   0  0  0  0  0  0  0  0  0  0  0  0
   12.3115    5.8881   -2.5444 H   0  0  0  0  0  0  0  0  0  0  0  0
   11.4477    6.4931   -3.9520 H   0  0  0  0  0  0  0  0  0  0  0  0
   13.8054    5.6980   -4.4101 H   0  0  0  0  0  0  0  0  0  0  0  0
   12.5569    5.0408   -5.4642 H   0  0  0  0  0  0  0  0  0  0  0  0
   13.7752    3.6109   -3.0481 H   0  0  0  0  0  0  0  0  0  0  0  0
   14.1409    3.2609   -4.7378 H   0  0  0  0  0  0  0  0  0  0  0  0
   12.4422    1.6751   -3.6552 H   0  0  0  0  0  0  0  0  0  0  0  0
   11.9065    2.4313   -5.1640 H   0  0  0  0  0  0  0  0  0  0  0  0
    9.2730    2.2522    2.6237 H   0  0  0  0  0  0  0  0  0  0  0  0
  1  2  1  0  0  0  0
  1 38  1  0  0  0  0
  1 39  1  0  0  0  0
  1 40  1  0  0  0  0
  2  3  1  0  0  0  0
  2 41  1  0  0  0  0
  3  4  2  0  0  0  0
  3  5  2  0  0  0  0
  3  6  1  0  0  0  0
  6  7  1  0  0  0  0
  6 11  2  0  0  0  0
  7  8  2  0  0  0  0
  7 42  1  0  0  0  0
  8  9  1  0  0  0  0
  8 43  1  0  0  0  0
  9 10  2  0  0  0  0
  9 37  1  0  0  0  0
 10 11  1  0  0  0  0
 10 12  1  0  0  0  0
 11 44  1  0  0  0  0
 12 13  2  0  0  0  0
 12 35  1  0  0  0  0
 13 14  1  0  0  0  0
 13 45  1  0  0  0  0
 14 15  1  0  0  0  0
 14 18  2  0  0  0  0
 15 16  1  0  0  0  0
 15 46  1  0  0  0  0
 16 17  2  0  0  0  0
 16 34  1  0  0  0  0
 17 18  1  0  0  0  0
 17 31  1  0  0  0  0
 18 19  1  0  0  0  0
 19 20  1  0  0  0  0
 19 47  1  0  0  0  0
 19 48  1  0  0  0  0
 20 21  1  0  0  0  0
 20 49  1  0  0  0  0
 20 50  1  0  0  0  0
 21 22  1  0  0  0  0
 21 51  1  0  0  0  0
 21 52  1  0  0  0  0
 22 23  1  0  0  0  0
 22 30  1  0  0  0  0
 23 24  1  0  0  0  0
 23 53  1  0  0  0  0
 23 54  1  0  0  0  0
 24 25  1  0  0  0  0
 24 55  1  0  0  0  0
 24 56  1  0  0  0  0
 25 26  1  0  0  0  0
 25 29  1  0  0  0  0
 26 27  1  0  0  0  0
 26 57  1  0  0  0  0
 26 58  1  0  0  0  0
 27 28  1  0  0  0  0
 27 59  1  0  0  0  0
 27 60  1  0  0  0  0
 28 61  1  0  0  0  0
 29 30  1  0  0  0  0
 29 62  1  0  0  0  0
 29 63  1  0  0  0  0
 30 64  1  0  0  0  0
 30 65  1  0  0  0  0
 31 32  1  0  0  0  0
 31 66  1  0  0  0  0
 31 67  1  0  0  0  0
 32 33  1  0  0  0  0
 32 68  1  0  0  0  0
 32 69  1  0  0  0  0
 33 34  1  0  0  0  0
 33 70  1  0  0  0  0
 33 71  1  0  0  0  0
 34 72  1  0  0  0  0
 34 73  1  0  0  0  0
 35 36  2  0  0  0  0
 35 37  1  0  0  0  0
 37 74  1  0  0  0  0
M  END
$$$$
