CHEMBL3671487
 OpenBabel04072215373D

 53 55  0  0  0  0  0  0  0  0999 V2000
    3.1653   -3.8086   -0.6440 C   0  0  0  0  0  0  0  0  0  0  0  0
    3.2954   -2.6898   -1.3672 C   0  0  0  0  0  0  0  0  0  0  0  0
    3.5394   -1.3945   -0.6760 C   0  0  0  0  0  0  0  0  0  0  0  0
    3.1222   -1.1674    0.4555 O   0  0  0  0  0  0  0  0  0  0  0  0
    4.3107   -0.4614   -1.3343 N   0  0  0  0  0  0  0  0  0  0  0  0
    5.1499   -0.8047   -2.4124 C   0  0  0  0  0  0  0  0  0  0  0  0
    6.2307   -1.6449   -2.1466 C   0  0  0  0  0  0  0  0  0  0  0  0
    6.9063   -2.2845   -3.2057 C   0  0  0  0  0  0  0  0  0  0  0  0
    7.8809   -3.2779   -3.0349 C   0  0  0  0  0  0  0  0  0  0  0  0
    8.1924   -3.7514   -1.7316 N   0  0  0  0  0  0  0  0  0  0  0  0
    8.8509   -4.9814   -1.4930 C   0  0  0  0  0  0  0  0  0  0  0  0
    8.4638   -6.1451   -2.1791 C   0  0  0  0  0  0  0  0  0  0  0  0
    9.2089   -7.3195   -2.0589 C   0  0  0  0  0  0  0  0  0  0  0  0
   10.3238   -7.3464   -1.2314 C   0  0  0  0  0  0  0  0  0  0  0  0
   11.3980   -8.9032   -1.1685 Br  0  0  0  0  0  0  0  0  0  0  0  0
   10.6771   -6.2300   -0.4770 C   0  0  0  0  0  0  0  0  0  0  0  0
    9.9330   -5.0611   -0.6089 C   0  0  0  0  0  0  0  0  0  0  0  0
   10.2887   -3.9754    0.0968 F   0  0  0  0  0  0  0  0  0  0  0  0
    8.4733   -3.8726   -4.0874 N   0  0  0  0  0  0  0  0  0  0  0  0
    8.0760   -3.4975   -5.3034 C   0  0  0  0  0  0  0  0  0  0  0  0
    7.1279   -2.5960   -5.5739 N   0  0  0  0  0  0  0  0  0  0  0  0
    6.5436   -2.0072   -4.5309 C   0  0  0  0  0  0  0  0  0  0  0  0
    5.5070   -1.1097   -4.7720 C   0  0  0  0  0  0  0  0  0  0  0  0
    4.8147   -0.4803   -3.7349 C   0  0  0  0  0  0  0  0  0  0  0  0
    3.8258    0.3836   -4.1434 O   0  0  0  0  0  0  0  0  0  0  0  0
    3.5949    1.4809   -3.2568 C   0  0  0  0  0  0  0  0  0  0  0  0
    3.1604    2.7342   -4.0123 C   0  0  0  0  0  0  0  0  0  0  0  0
    3.0273    3.8717   -3.0009 C   0  0  0  0  0  0  0  0  0  0  0  0
    2.6190    5.1268   -3.5865 N   0  0  0  0  0  0  0  0  0  0  0  0
    3.5399    6.0441   -4.0390 C   0  0  0  0  0  0  0  0  0  0  0  0
    2.9443    7.3599   -4.4645 C   0  0  0  0  0  0  0  0  0  0  0  0
    4.7480    5.8345   -4.0744 O   0  0  0  0  0  0  0  0  0  0  0  0
    3.0539   -4.7728   -1.1277 H   0  0  0  0  0  0  0  0  0  0  0  0
    3.1890   -3.7866    0.4420 H   0  0  0  0  0  0  0  0  0  0  0  0
    3.2914   -2.7196   -2.4496 H   0  0  0  0  0  0  0  0  0  0  0  0
    4.7082    0.1636   -0.6388 H   0  0  0  0  0  0  0  0  0  0  0  0
    6.4834   -1.8780   -1.1147 H   0  0  0  0  0  0  0  0  0  0  0  0
    8.5600   -3.0045   -1.1486 H   0  0  0  0  0  0  0  0  0  0  0  0
    7.6055   -6.1235   -2.8403 H   0  0  0  0  0  0  0  0  0  0  0  0
    8.9210   -8.1894   -2.6421 H   0  0  0  0  0  0  0  0  0  0  0  0
   11.5366   -6.2466    0.1875 H   0  0  0  0  0  0  0  0  0  0  0  0
    8.5545   -3.9827   -6.1463 H   0  0  0  0  0  0  0  0  0  0  0  0
    5.2107   -0.9187   -5.8003 H   0  0  0  0  0  0  0  0  0  0  0  0
    4.5062    1.7355   -2.7023 H   0  0  0  0  0  0  0  0  0  0  0  0
    2.7985    1.1985   -2.5588 H   0  0  0  0  0  0  0  0  0  0  0  0
    2.2123    2.5576   -4.5344 H   0  0  0  0  0  0  0  0  0  0  0  0
    3.8934    2.9801   -4.7900 H   0  0  0  0  0  0  0  0  0  0  0  0
    3.9811    4.0226   -2.4808 H   0  0  0  0  0  0  0  0  0  0  0  0
    2.2773    3.6174   -2.2440 H   0  0  0  0  0  0  0  0  0  0  0  0
    1.6467    5.3963   -3.5127 H   0  0  0  0  0  0  0  0  0  0  0  0
    1.8519    7.3300   -4.4663 H   0  0  0  0  0  0  0  0  0  0  0  0
    3.2852    7.5965   -5.4752 H   0  0  0  0  0  0  0  0  0  0  0  0
    3.2715    8.1388   -3.7702 H   0  0  0  0  0  0  0  0  0  0  0  0
  1  2  2  0  0  0  0
  1 33  1  0  0  0  0
  1 34  1  0  0  0  0
  2  3  1  0  0  0  0
  2 35  1  0  0  0  0
  3  4  2  0  0  0  0
  3  5  1  0  0  0  0
  5  6  1  0  0  0  0
  5 36  1  0  0  0  0
  6  7  1  0  0  0  0
  6 24  2  0  0  0  0
  7  8  2  0  0  0  0
  7 37  1  0  0  0  0
  8  9  1  0  0  0  0
  8 22  1  0  0  0  0
  9 10  1  0  0  0  0
  9 19  2  0  0  0  0
 10 11  1  0  0  0  0
 10 38  1  0  0  0  0
 11 12  1  0  0  0  0
 11 17  2  0  0  0  0
 12 13  2  0  0  0  0
 12 39  1  0  0  0  0
 13 14  1  0  0  0  0
 13 40  1  0  0  0  0
 14 15  1  0  0  0  0
 14 16  2  0  0  0  0
 16 17  1  0  0  0  0
 16 41  1  0  0  0  0
 17 18  1  0  0  0  0
 19 20  1  0  0  0  0
 20 21  2  0  0  0  0
 20 42  1  0  0  0  0
 21 22  1  0  0  0  0
 22 23  2  0  0  0  0
 23 24  1  0  0  0  0
 23 43  1  0  0  0  0
 24 25  1  0  0  0  0
 25 26  1  0  0  0  0
 26 27  1  0  0  0  0
 26 44  1  0  0  0  0
 26 45  1  0  0  0  0
 27 28  1  0  0  0  0
 27 46  1  0  0  0  0
 27 47  1  0  0  0  0
 28 29  1  0  0  0  0
 28 48  1  0  0  0  0
 28 49  1  0  0  0  0
 29 30  1  0  0  0  0
 29 50  1  0  0  0  0
 30 31  1  0  0  0  0
 30 32  2  0  0  0  0
 31 51  1  0  0  0  0
 31 52  1  0  0  0  0
 31 53  1  0  0  0  0
M  END
$$$$
