CHEMBL4577123
 OpenBabel04072215383D

 47 50  0  0  0  0  0  0  0  0999 V2000
    2.4678   -0.2257    1.3614 O   0  0  0  0  0  0  0  0  0  0  0  0
    2.0872   -0.5014    0.2358 C   0  0  0  0  0  0  0  0  0  0  0  0
    0.7505   -0.5703   -0.1379 N   0  0  0  0  0  0  0  0  0  0  0  0
   -0.3657   -0.3529    0.7033 C   0  0  0  0  0  0  0  0  0  0  0  0
   -0.2767    0.2034    1.9829 C   0  0  0  0  0  0  0  0  0  0  0  0
   -1.4100    0.3307    2.7891 C   0  0  0  0  0  0  0  0  0  0  0  0
   -2.6482   -0.0887    2.3144 C   0  0  0  0  0  0  0  0  0  0  0  0
   -2.7567   -0.6130    1.0277 C   0  0  0  0  0  0  0  0  0  0  0  0
   -1.6219   -0.7392    0.2219 C   0  0  0  0  0  0  0  0  0  0  0  0
    2.9194   -0.8160   -0.8269 N   0  0  0  0  0  0  0  0  0  0  0  0
    4.3274   -0.9387   -0.7826 C   0  0  0  0  0  0  0  0  0  0  0  0
    5.0697   -0.8538    0.4006 C   0  0  0  0  0  0  0  0  0  0  0  0
    6.4636   -0.9385    0.3803 C   0  0  0  0  0  0  0  0  0  0  0  0
    7.1281   -1.0918   -0.8290 C   0  0  0  0  0  0  0  0  0  0  0  0
    8.6084   -1.1261   -0.8322 C   0  0  0  0  0  0  0  0  0  0  0  0
    9.2108   -1.8477   -0.0476 O   0  0  0  0  0  0  0  0  0  0  0  0
    9.1720   -0.3146   -1.8034 N   0  0  0  0  0  0  0  0  0  0  0  0
   10.2462   -0.8158   -2.4736 N   0  0  0  0  0  0  0  0  0  0  0  0
   10.5256   -0.2519   -3.6031 C   0  0  0  0  0  0  0  0  0  0  0  0
    9.9756    1.0385   -4.2176 C   0  0  0  0  0  0  0  0  0  0  0  0
    9.4420    1.9400   -3.6104 O   0  0  0  0  0  0  0  0  0  0  0  0
   10.1083    0.8674   -5.5787 N   0  0  0  0  0  0  0  0  0  0  0  0
   10.5355   -0.4313   -5.8452 C   0  0  0  0  0  0  0  0  0  0  0  0
   10.2249   -1.1967   -6.9483 C   0  0  0  0  0  0  0  0  0  0  0  0
   10.5217   -2.5680   -6.8783 C   0  0  0  0  0  0  0  0  0  0  0  0
   11.2026   -3.1150   -5.7694 C   0  0  0  0  0  0  0  0  0  0  0  0
   11.5339   -4.8021   -5.7213 Cl  0  0  0  0  0  0  0  0  0  0  0  0
   11.4990   -2.3379   -4.6577 C   0  0  0  0  0  0  0  0  0  0  0  0
   11.0797   -1.0250   -4.7080 C   0  0  0  0  0  0  0  0  0  0  0  0
    6.4001   -1.2332   -2.0184 C   0  0  0  0  0  0  0  0  0  0  0  0
    5.0054   -1.1501   -1.9934 C   0  0  0  0  0  0  0  0  0  0  0  0
    0.5536   -0.9659   -1.0430 H   0  0  0  0  0  0  0  0  0  0  0  0
    0.6686    0.5449    2.3920 H   0  0  0  0  0  0  0  0  0  0  0  0
   -1.3165    0.7404    3.7922 H   0  0  0  0  0  0  0  0  0  0  0  0
   -3.5255   -0.0164    2.9502 H   0  0  0  0  0  0  0  0  0  0  0  0
   -3.7215   -0.9467    0.6588 H   0  0  0  0  0  0  0  0  0  0  0  0
   -1.7337   -1.1659   -0.7711 H   0  0  0  0  0  0  0  0  0  0  0  0
    2.4948   -0.8731   -1.7386 H   0  0  0  0  0  0  0  0  0  0  0  0
    4.5990   -0.7189    1.3683 H   0  0  0  0  0  0  0  0  0  0  0  0
    7.0248   -0.8638    1.3081 H   0  0  0  0  0  0  0  0  0  0  0  0
    8.5574    0.3177   -2.3144 H   0  0  0  0  0  0  0  0  0  0  0  0
    9.8246    1.5600   -6.2562 H   0  0  0  0  0  0  0  0  0  0  0  0
    9.6156   -0.8094   -7.7590 H   0  0  0  0  0  0  0  0  0  0  0  0
   10.1572   -3.2351   -7.6579 H   0  0  0  0  0  0  0  0  0  0  0  0
   11.9022   -2.7603   -3.7434 H   0  0  0  0  0  0  0  0  0  0  0  0
    6.9077   -1.4313   -2.9582 H   0  0  0  0  0  0  0  0  0  0  0  0
    4.4574   -1.2554   -2.9284 H   0  0  0  0  0  0  0  0  0  0  0  0
  1  2  2  0  0  0  0
  2  3  1  0  0  0  0
  2 10  1  0  0  0  0
  3  4  1  0  0  0  0
  3 32  1  0  0  0  0
  4  5  1  0  0  0  0
  4  9  2  0  0  0  0
  5  6  2  0  0  0  0
  5 33  1  0  0  0  0
  6  7  1  0  0  0  0
  6 34  1  0  0  0  0
  7  8  2  0  0  0  0
  7 35  1  0  0  0  0
  8  9  1  0  0  0  0
  8 36  1  0  0  0  0
  9 37  1  0  0  0  0
 10 11  1  0  0  0  0
 10 38  1  0  0  0  0
 11 12  1  0  0  0  0
 11 31  2  0  0  0  0
 12 13  2  0  0  0  0
 12 39  1  0  0  0  0
 13 14  1  0  0  0  0
 13 40  1  0  0  0  0
 14 15  1  0  0  0  0
 14 30  2  0  0  0  0
 15 16  2  0  0  0  0
 15 17  1  0  0  0  0
 17 18  1  0  0  0  0
 17 41  1  0  0  0  0
 18 19  2  0  0  0  0
 19 20  1  0  0  0  0
 19 29  1  0  0  0  0
 20 21  2  0  0  0  0
 20 22  1  0  0  0  0
 22 23  1  0  0  0  0
 22 42  1  0  0  0  0
 23 24  1  0  0  0  0
 23 29  2  0  0  0  0
 24 25  2  0  0  0  0
 24 43  1  0  0  0  0
 25 26  1  0  0  0  0
 25 44  1  0  0  0  0
 26 27  1  0  0  0  0
 26 28  2  0  0  0  0
 28 29  1  0  0  0  0
 28 45  1  0  0  0  0
 30 31  1  0  0  0  0
 30 46  1  0  0  0  0
 31 47  1  0  0  0  0
M  END
$$$$
