CHEMBL364259
 OpenBabel04072215373D

 43 45  0  0  0  0  0  0  0  0999 V2000
    1.2017    0.3726   -0.5096 C   0  0  0  0  0  0  0  0  0  0  0  0
    2.7103    0.2429   -0.6335 C   0  0  0  0  0  0  0  0  0  0  0  0
    3.1595   -1.2883   -1.4409 S   0  0  0  0  0  0  0  0  0  0  0  0
    2.6629   -2.3793   -0.6257 O   0  0  0  0  0  0  0  0  0  0  0  0
    2.8141   -1.1900   -2.8454 O   0  0  0  0  0  0  0  0  0  0  0  0
    4.9357   -1.3438   -1.3516 C   0  0  0  0  0  0  0  0  0  0  0  0
    5.5857   -2.3577   -0.6543 C   0  0  0  0  0  0  0  0  0  0  0  0
    6.9838   -2.3886   -0.6302 C   0  0  0  0  0  0  0  0  0  0  0  0
    7.7291   -1.3948   -1.2816 C   0  0  0  0  0  0  0  0  0  0  0  0
    9.1043   -1.3285   -1.2788 O   0  0  0  0  0  0  0  0  0  0  0  0
    9.7964   -2.5358   -0.9722 C   0  0  0  0  0  0  0  0  0  0  0  0
    7.0698   -0.3445   -1.9623 C   0  0  0  0  0  0  0  0  0  0  0  0
    7.8365    0.6844   -2.5629 N   0  0  0  0  0  0  0  0  0  0  0  0
    7.3668    1.8713   -2.9854 C   0  0  0  0  0  0  0  0  0  0  0  0
    6.1265    2.2569   -3.2007 N   0  0  0  0  0  0  0  0  0  0  0  0
    6.2275    3.5682   -3.5481 C   0  0  0  0  0  0  0  0  0  0  0  0
    7.5437    3.9636   -3.5263 C   0  0  0  0  0  0  0  0  0  0  0  0
    8.2227    5.2255   -3.7643 C   0  0  0  0  0  0  0  0  0  0  0  0
    7.4659    6.3734   -4.0563 C   0  0  0  0  0  0  0  0  0  0  0  0
    8.0831    7.6035   -4.2880 C   0  0  0  0  0  0  0  0  0  0  0  0
    9.4677    7.6971   -4.2278 C   0  0  0  0  0  0  0  0  0  0  0  0
   10.2322    9.2108   -4.5198 Cl  0  0  0  0  0  0  0  0  0  0  0  0
   10.2393    6.5741   -3.9356 C   0  0  0  0  0  0  0  0  0  0  0  0
    9.6171    5.3406   -3.7039 C   0  0  0  0  0  0  0  0  0  0  0  0
    8.2940    2.8635   -3.1793 O   0  0  0  0  0  0  0  0  0  0  0  0
    5.6677   -0.3680   -2.0225 C   0  0  0  0  0  0  0  0  0  0  0  0
    0.9329    1.3231   -0.0386 H   0  0  0  0  0  0  0  0  0  0  0  0
    0.7868   -0.4365    0.1005 H   0  0  0  0  0  0  0  0  0  0  0  0
    0.7187    0.3290   -1.4913 H   0  0  0  0  0  0  0  0  0  0  0  0
    3.1707    0.2492    0.3588 H   0  0  0  0  0  0  0  0  0  0  0  0
    3.1105    1.0732   -1.2229 H   0  0  0  0  0  0  0  0  0  0  0  0
    5.0195   -3.1317   -0.1410 H   0  0  0  0  0  0  0  0  0  0  0  0
    7.4609   -3.1933   -0.0803 H   0  0  0  0  0  0  0  0  0  0  0  0
   10.8674   -2.3484   -1.0982 H   0  0  0  0  0  0  0  0  0  0  0  0
    9.5137   -3.3388   -1.6616 H   0  0  0  0  0  0  0  0  0  0  0  0
    9.6389   -2.8343    0.0691 H   0  0  0  0  0  0  0  0  0  0  0  0
    8.8298    0.5947   -2.3762 H   0  0  0  0  0  0  0  0  0  0  0  0
    5.3508    4.1555   -3.7787 H   0  0  0  0  0  0  0  0  0  0  0  0
    6.3803    6.3281   -4.1055 H   0  0  0  0  0  0  0  0  0  0  0  0
    7.4762    8.4765   -4.5136 H   0  0  0  0  0  0  0  0  0  0  0  0
   11.3226    6.6473   -3.8863 H   0  0  0  0  0  0  0  0  0  0  0  0
   10.2352    4.4751   -3.4757 H   0  0  0  0  0  0  0  0  0  0  0  0
    5.1214    0.3682   -2.6021 H   0  0  0  0  0  0  0  0  0  0  0  0
  1  2  1  0  0  0  0
  1 27  1  0  0  0  0
  1 28  1  0  0  0  0
  1 29  1  0  0  0  0
  2  3  1  0  0  0  0
  2 30  1  0  0  0  0
  2 31  1  0  0  0  0
  3  4  2  0  0  0  0
  3  5  2  0  0  0  0
  3  6  1  0  0  0  0
  6  7  1  0  0  0  0
  6 26  2  0  0  0  0
  7  8  2  0  0  0  0
  7 32  1  0  0  0  0
  8  9  1  0  0  0  0
  8 33  1  0  0  0  0
  9 10  1  0  0  0  0
  9 12  2  0  0  0  0
 10 11  1  0  0  0  0
 11 34  1  0  0  0  0
 11 35  1  0  0  0  0
 11 36  1  0  0  0  0
 12 13  1  0  0  0  0
 12 26  1  0  0  0  0
 13 14  1  0  0  0  0
 13 37  1  0  0  0  0
 14 15  2  0  0  0  0
 14 25  1  0  0  0  0
 15 16  1  0  0  0  0
 16 17  2  0  0  0  0
 16 38  1  0  0  0  0
 17 18  1  0  0  0  0
 17 25  1  0  0  0  0
 18 19  1  0  0  0  0
 18 24  2  0  0  0  0
 19 20  2  0  0  0  0
 19 39  1  0  0  0  0
 20 21  1  0  0  0  0
 20 40  1  0  0  0  0
 21 22  1  0  0  0  0
 21 23  2  0  0  0  0
 23 24  1  0  0  0  0
 23 41  1  0  0  0  0
 24 42  1  0  0  0  0
 26 43  1  0  0  0  0
M  END
$$$$
