CHEMBL1984363
 OpenBabel04072215363D

 47 50  0  0  0  0  0  0  0  0999 V2000
    0.1025    0.3058   -3.8927 C   0  0  0  0  0  0  0  0  0  0  0  0
   -0.8799    1.4215   -4.0742 C   0  0  0  0  0  0  0  0  0  0  0  0
   -1.8624    1.6680   -3.1060 C   0  0  0  0  0  0  0  0  0  0  0  0
   -2.7670    2.7216   -3.2524 C   0  0  0  0  0  0  0  0  0  0  0  0
   -3.7486    3.0278   -2.2923 N   0  0  0  0  0  0  0  0  0  0  0  0
   -3.8173    2.5584   -0.9868 C   0  0  0  0  0  0  0  0  0  0  0  0
   -3.0040    1.8143   -0.4434 O   0  0  0  0  0  0  0  0  0  0  0  0
   -5.0525    3.0282   -0.2272 C   0  0  0  0  0  0  0  0  0  0  0  0
   -5.1267    4.5313   -0.0983 C   0  0  0  0  0  0  0  0  0  0  0  0
   -5.8141    5.3061   -1.0355 C   0  0  0  0  0  0  0  0  0  0  0  0
   -5.7165    6.7035   -1.0136 C   0  0  0  0  0  0  0  0  0  0  0  0
   -4.9784    7.3682   -0.0216 C   0  0  0  0  0  0  0  0  0  0  0  0
   -4.7998    8.8395   -0.0097 C   0  0  0  0  0  0  0  0  0  0  0  0
   -5.8146    9.7186   -0.4644 C   0  0  0  0  0  0  0  0  0  0  0  0
   -5.7103   11.1053   -0.3395 C   0  0  0  0  0  0  0  0  0  0  0  0
   -4.6153   11.6838    0.2952 C   0  0  0  0  0  0  0  0  0  0  0  0
   -3.5924   10.8247    0.7003 C   0  0  0  0  0  0  0  0  0  0  0  0
   -2.4243   11.0800    1.3654 N   0  0  0  0  0  0  0  0  0  0  0  0
   -1.6015   10.0299    1.4598 N   0  0  0  0  0  0  0  0  0  0  0  0
   -2.2922    9.0381    0.9035 C   0  0  0  0  0  0  0  0  0  0  0  0
   -1.7563    7.8185    0.7516 N   0  0  0  0  0  0  0  0  0  0  0  0
   -3.6102    9.4424    0.4984 C   0  0  0  0  0  0  0  0  0  0  0  0
   -4.4368    6.5672    0.9998 C   0  0  0  0  0  0  0  0  0  0  0  0
   -4.4558    5.1721    0.9394 C   0  0  0  0  0  0  0  0  0  0  0  0
   -2.7138    3.5156   -4.4052 C   0  0  0  0  0  0  0  0  0  0  0  0
   -1.7368    3.2789   -5.3743 C   0  0  0  0  0  0  0  0  0  0  0  0
   -0.8256    2.2409   -5.1970 C   0  0  0  0  0  0  0  0  0  0  0  0
    0.1159    2.0403   -6.1313 F   0  0  0  0  0  0  0  0  0  0  0  0
   -0.0792   -0.2351   -2.9564 H   0  0  0  0  0  0  0  0  0  0  0  0
    1.1213    0.7013   -3.8543 H   0  0  0  0  0  0  0  0  0  0  0  0
    0.0169   -0.4112   -4.7133 H   0  0  0  0  0  0  0  0  0  0  0  0
   -1.9107    1.0109   -2.2435 H   0  0  0  0  0  0  0  0  0  0  0  0
   -4.3896    3.7722   -2.5373 H   0  0  0  0  0  0  0  0  0  0  0  0
   -5.0289    2.5769    0.7739 H   0  0  0  0  0  0  0  0  0  0  0  0
   -5.9451    2.6340   -0.7237 H   0  0  0  0  0  0  0  0  0  0  0  0
   -6.4059    4.8317   -1.8124 H   0  0  0  0  0  0  0  0  0  0  0  0
   -6.2230    7.2614   -1.7970 H   0  0  0  0  0  0  0  0  0  0  0  0
   -6.7280    9.3205   -0.9011 H   0  0  0  0  0  0  0  0  0  0  0  0
   -6.5131   11.7399   -0.7094 H   0  0  0  0  0  0  0  0  0  0  0  0
   -4.5555   12.7570    0.4450 H   0  0  0  0  0  0  0  0  0  0  0  0
   -2.1220   11.9605    1.7657 H   0  0  0  0  0  0  0  0  0  0  0  0
   -0.7794    7.6907    0.9814 H   0  0  0  0  0  0  0  0  0  0  0  0
   -2.1325    7.1495    0.0873 H   0  0  0  0  0  0  0  0  0  0  0  0
   -3.9369    7.0257    1.8520 H   0  0  0  0  0  0  0  0  0  0  0  0
   -3.9187    4.6063    1.7016 H   0  0  0  0  0  0  0  0  0  0  0  0
   -3.4047    4.3371   -4.5522 H   0  0  0  0  0  0  0  0  0  0  0  0
   -1.6715    3.9042   -6.2621 H   0  0  0  0  0  0  0  0  0  0  0  0
  1  2  1  0  0  0  0
  1 29  1  0  0  0  0
  1 30  1  0  0  0  0
  1 31  1  0  0  0  0
  2  3  1  0  0  0  0
  2 27  2  0  0  0  0
  3  4  2  0  0  0  0
  3 32  1  0  0  0  0
  4  5  1  0  0  0  0
  4 25  1  0  0  0  0
  5  6  1  0  0  0  0
  5 33  1  0  0  0  0
  6  7  2  0  0  0  0
  6  8  1  0  0  0  0
  8  9  1  0  0  0  0
  8 34  1  0  0  0  0
  8 35  1  0  0  0  0
  9 10  1  0  0  0  0
  9 24  2  0  0  0  0
 10 11  2  0  0  0  0
 10 36  1  0  0  0  0
 11 12  1  0  0  0  0
 11 37  1  0  0  0  0
 12 13  1  0  0  0  0
 12 23  2  0  0  0  0
 13 14  1  0  0  0  0
 13 22  2  0  0  0  0
 14 15  2  0  0  0  0
 14 38  1  0  0  0  0
 15 16  1  0  0  0  0
 15 39  1  0  0  0  0
 16 17  2  0  0  0  0
 16 40  1  0  0  0  0
 17 18  1  0  0  0  0
 17 22  1  0  0  0  0
 18 19  1  0  0  0  0
 18 41  1  0  0  0  0
 19 20  2  0  0  0  0
 20 21  1  0  0  0  0
 20 22  1  0  0  0  0
 21 42  1  0  0  0  0
 21 43  1  0  0  0  0
 23 24  1  0  0  0  0
 23 44  1  0  0  0  0
 24 45  1  0  0  0  0
 25 26  2  0  0  0  0
 25 46  1  0  0  0  0
 26 27  1  0  0  0  0
 26 47  1  0  0  0  0
 27 28  1  0  0  0  0
M  END
$$$$
