CHEMBL3752606
 OpenBabel04072215373D

 58 62  0  0  0  0  0  0  0  0999 V2000
   -4.3459   -4.9811   -2.4271 C   0  0  0  0  0  0  0  0  0  0  0  0
   -4.0364   -3.7149   -1.6868 C   0  0  0  0  0  0  0  0  0  0  0  0
   -3.7543   -3.7248   -0.3168 C   0  0  0  0  0  0  0  0  0  0  0  0
   -3.4762   -2.5304    0.3539 C   0  0  0  0  0  0  0  0  0  0  0  0
   -3.4946   -1.3153   -0.3432 C   0  0  0  0  0  0  0  0  0  0  0  0
   -3.2629   -0.0579    0.4154 C   0  0  0  0  0  0  0  0  0  0  0  0
   -2.6413   -0.0872    1.4797 O   0  0  0  0  0  0  0  0  0  0  0  0
   -3.8654    1.2442   -0.1129 C   0  0  0  0  0  0  0  0  0  0  0  0
   -5.3418    1.1574   -0.1758 N   0  0  0  0  0  0  0  0  0  0  0  0
   -5.9280    2.4153   -0.6930 C   0  0  0  0  0  0  0  0  0  0  0  0
   -5.7451    3.6565    0.2126 C   0  0  0  0  0  0  0  0  0  0  0  0
   -6.0758    3.3865    1.6199 N   0  0  0  0  0  0  0  0  0  0  0  0
   -6.9548    4.2377    2.2861 C   0  0  0  0  0  0  0  0  0  0  0  0
   -7.8556    4.9194    1.5473 N   0  0  0  0  0  0  0  0  0  0  0  0
   -8.8029    5.7358    2.1276 N   0  0  0  0  0  0  0  0  0  0  0  0
   -8.9057    5.8369    3.4713 C   0  0  0  0  0  0  0  0  0  0  0  0
   -9.9367    6.8090    3.9264 C   0  0  0  0  0  0  0  0  0  0  0  0
  -11.1316    6.9894    3.2034 C   0  0  0  0  0  0  0  0  0  0  0  0
  -12.1212    7.8840    3.6310 C   0  0  0  0  0  0  0  0  0  0  0  0
  -11.9467    8.6125    4.8035 C   0  0  0  0  0  0  0  0  0  0  0  0
  -10.7620    8.4877    5.5172 C   0  0  0  0  0  0  0  0  0  0  0  0
   -9.7591    7.6272    5.0600 C   0  0  0  0  0  0  0  0  0  0  0  0
   -8.0273    5.1084    4.3083 C   0  0  0  0  0  0  0  0  0  0  0  0
   -8.1323    5.0458    5.7271 C   0  0  0  0  0  0  0  0  0  0  0  0
   -7.1650    4.4453    6.5306 C   0  0  0  0  0  0  0  0  0  0  0  0
   -6.0488    3.8889    5.9409 C   0  0  0  0  0  0  0  0  0  0  0  0
   -5.9551    3.8743    4.5520 C   0  0  0  0  0  0  0  0  0  0  0  0
   -6.9685    4.3863    3.6975 C   0  0  0  0  0  0  0  0  0  0  0  0
   -5.7391    2.0619    2.1657 C   0  0  0  0  0  0  0  0  0  0  0  0
   -5.9452    0.9218    1.1547 C   0  0  0  0  0  0  0  0  0  0  0  0
   -3.7671   -1.3056   -1.7130 C   0  0  0  0  0  0  0  0  0  0  0  0
   -4.0341   -2.4991   -2.3795 C   0  0  0  0  0  0  0  0  0  0  0  0
   -4.3426   -5.8507   -1.7600 H   0  0  0  0  0  0  0  0  0  0  0  0
   -3.5973   -5.1497   -3.2077 H   0  0  0  0  0  0  0  0  0  0  0  0
   -5.3367   -4.9144   -2.8878 H   0  0  0  0  0  0  0  0  0  0  0  0
   -3.7572   -4.6572    0.2432 H   0  0  0  0  0  0  0  0  0  0  0  0
   -3.2704   -2.5485    1.4213 H   0  0  0  0  0  0  0  0  0  0  0  0
   -3.4431    1.4456   -1.1039 H   0  0  0  0  0  0  0  0  0  0  0  0
   -3.5139    2.0568    0.5328 H   0  0  0  0  0  0  0  0  0  0  0  0
   -7.0038    2.2485   -0.8443 H   0  0  0  0  0  0  0  0  0  0  0  0
   -5.5233    2.6244   -1.6912 H   0  0  0  0  0  0  0  0  0  0  0  0
   -6.3218    4.4826   -0.2184 H   0  0  0  0  0  0  0  0  0  0  0  0
   -4.6972    3.9769    0.1747 H   0  0  0  0  0  0  0  0  0  0  0  0
  -11.3009    6.4315    2.2827 H   0  0  0  0  0  0  0  0  0  0  0  0
  -13.0286    8.0085    3.0454 H   0  0  0  0  0  0  0  0  0  0  0  0
  -12.7228    9.2898    5.1494 H   0  0  0  0  0  0  0  0  0  0  0  0
  -10.6070    9.0648    6.4254 H   0  0  0  0  0  0  0  0  0  0  0  0
   -8.8224    7.6131    5.6129 H   0  0  0  0  0  0  0  0  0  0  0  0
   -8.9963    5.4661    6.2363 H   0  0  0  0  0  0  0  0  0  0  0  0
   -7.2751    4.4386    7.6101 H   0  0  0  0  0  0  0  0  0  0  0  0
   -5.2605    3.4509    6.5442 H   0  0  0  0  0  0  0  0  0  0  0  0
   -5.0450    3.4562    4.1290 H   0  0  0  0  0  0  0  0  0  0  0  0
   -6.3455    1.8062    3.0416 H   0  0  0  0  0  0  0  0  0  0  0  0
   -4.6889    2.0741    2.4810 H   0  0  0  0  0  0  0  0  0  0  0  0
   -7.0248    0.7622    1.0185 H   0  0  0  0  0  0  0  0  0  0  0  0
   -5.5773   -0.0149    1.5898 H   0  0  0  0  0  0  0  0  0  0  0  0
   -3.7889   -0.3819   -2.2820 H   0  0  0  0  0  0  0  0  0  0  0  0
   -4.2531   -2.4748   -3.4453 H   0  0  0  0  0  0  0  0  0  0  0  0
  1  2  1  0  0  0  0
  1 33  1  0  0  0  0
  1 34  1  0  0  0  0
  1 35  1  0  0  0  0
  2  3  1  0  0  0  0
  2 32  2  0  0  0  0
  3  4  2  0  0  0  0
  3 36  1  0  0  0  0
  4  5  1  0  0  0  0
  4 37  1  0  0  0  0
  5  6  1  0  0  0  0
  5 31  2  0  0  0  0
  6  7  2  0  0  0  0
  6  8  1  0  0  0  0
  8  9  1  0  0  0  0
  8 38  1  0  0  0  0
  8 39  1  0  0  0  0
  9 10  1  0  0  0  0
  9 30  1  0  0  0  0
 10 11  1  0  0  0  0
 10 40  1  0  0  0  0
 10 41  1  0  0  0  0
 11 12  1  0  0  0  0
 11 42  1  0  0  0  0
 11 43  1  0  0  0  0
 12 13  1  0  0  0  0
 12 29  1  0  0  0  0
 13 14  1  0  0  0  0
 13 28  2  0  0  0  0
 14 15  2  0  0  0  0
 15 16  1  0  0  0  0
 16 17  1  0  0  0  0
 16 23  2  0  0  0  0
 17 18  1  0  0  0  0
 17 22  2  0  0  0  0
 18 19  2  0  0  0  0
 18 44  1  0  0  0  0
 19 20  1  0  0  0  0
 19 45  1  0  0  0  0
 20 21  2  0  0  0  0
 20 46  1  0  0  0  0
 21 22  1  0  0  0  0
 21 47  1  0  0  0  0
 22 48  1  0  0  0  0
 23 24  1  0  0  0  0
 23 28  1  0  0  0  0
 24 25  2  0  0  0  0
 24 49  1  0  0  0  0
 25 26  1  0  0  0  0
 25 50  1  0  0  0  0
 26 27  2  0  0  0  0
 26 51  1  0  0  0  0
 27 28  1  0  0  0  0
 27 52  1  0  0  0  0
 29 30  1  0  0  0  0
 29 53  1  0  0  0  0
 29 54  1  0  0  0  0
 30 55  1  0  0  0  0
 30 56  1  0  0  0  0
 31 32  1  0  0  0  0
 31 57  1  0  0  0  0
 32 58  1  0  0  0  0
M  END
$$$$
