CHEMBL198752
 OpenBabel04072215363D

 68 71  0  0  0  0  0  0  0  0999 V2000
    1.7797   -2.2298    0.8297 C   0  0  0  0  0  0  0  0  0  0  0  0
    2.3778   -2.9238    1.9184 O   0  0  0  0  0  0  0  0  0  0  0  0
    3.6969   -3.2648    1.6919 C   0  0  0  0  0  0  0  0  0  0  0  0
    4.3406   -3.9063    2.7361 C   0  0  0  0  0  0  0  0  0  0  0  0
    5.6801   -4.2367    2.5784 C   0  0  0  0  0  0  0  0  0  0  0  0
    6.3218   -3.9371    1.3781 C   0  0  0  0  0  0  0  0  0  0  0  0
    8.0259   -4.2193    1.2910 Cl  0  0  0  0  0  0  0  0  0  0  0  0
    5.5858   -3.3291    0.3495 C   0  0  0  0  0  0  0  0  0  0  0  0
    6.1412   -2.9909   -0.8897 N   0  0  0  0  0  0  0  0  0  0  0  0
    6.7760   -3.8714   -1.8028 C   0  0  0  0  0  0  0  0  0  0  0  0
    6.7808   -5.1897   -1.5230 N   0  0  0  0  0  0  0  0  0  0  0  0
    7.3755   -5.9879   -2.4087 C   0  0  0  0  0  0  0  0  0  0  0  0
    7.9301   -5.6086   -3.5629 N   0  0  0  0  0  0  0  0  0  0  0  0
    7.9238   -4.3001   -3.8355 C   0  0  0  0  0  0  0  0  0  0  0  0
    8.4852   -3.8878   -5.0372 C   0  0  0  0  0  0  0  0  0  0  0  0
    8.5776   -2.5416   -5.3930 C   0  0  0  0  0  0  0  0  0  0  0  0
    9.1073   -2.2810   -6.6271 O   0  0  0  0  0  0  0  0  0  0  0  0
    9.7261   -0.9991   -6.7760 C   0  0  0  0  0  0  0  0  0  0  0  0
   10.1713   -0.8270   -8.2252 C   0  0  0  0  0  0  0  0  0  0  0  0
   10.9469    0.4809   -8.4299 C   0  0  0  0  0  0  0  0  0  0  0  0
   12.1390    0.5949   -7.5787 N   0  0  0  0  0  0  0  0  0  0  0  0
   13.1374   -0.4562   -7.8569 C   0  0  0  0  0  0  0  0  0  0  0  0
   14.3981   -0.3097   -6.9755 C   0  0  0  0  0  0  0  0  0  0  0  0
   15.0617    1.0043   -7.0599 N   0  0  0  0  0  0  0  0  0  0  0  0
   15.7728    1.1646   -8.3254 C   0  0  0  0  0  0  0  0  0  0  0  0
   14.0538    2.0646   -6.8587 C   0  0  0  0  0  0  0  0  0  0  0  0
   12.7674    1.9249   -7.7121 C   0  0  0  0  0  0  0  0  0  0  0  0
    8.0849   -1.5806   -4.5201 C   0  0  0  0  0  0  0  0  0  0  0  0
    7.4408   -1.9654   -3.3453 C   0  0  0  0  0  0  0  0  0  0  0  0
    6.8564   -1.0613   -2.4938 O   0  0  0  0  0  0  0  0  0  0  0  0
    6.3979    0.2001   -2.9930 C   0  0  0  0  0  0  0  0  0  0  0  0
    5.2578    0.0189   -3.9944 C   0  0  0  0  0  0  0  0  0  0  0  0
    5.8862    0.9751   -1.7796 C   0  0  0  0  0  0  0  0  0  0  0  0
    7.3702   -3.3412   -2.9745 C   0  0  0  0  0  0  0  0  0  0  0  0
    4.2865   -2.9625    0.5143 N   0  0  0  0  0  0  0  0  0  0  0  0
    0.7481   -1.9961    1.1115 H   0  0  0  0  0  0  0  0  0  0  0  0
    1.7459   -2.8551   -0.0687 H   0  0  0  0  0  0  0  0  0  0  0  0
    2.2924   -1.2819    0.6326 H   0  0  0  0  0  0  0  0  0  0  0  0
    3.8158   -4.1214    3.6599 H   0  0  0  0  0  0  0  0  0  0  0  0
    6.2243   -4.7046    3.3937 H   0  0  0  0  0  0  0  0  0  0  0  0
    5.4536   -2.4447   -1.4000 H   0  0  0  0  0  0  0  0  0  0  0  0
    7.4098   -7.0453   -2.1694 H   0  0  0  0  0  0  0  0  0  0  0  0
    8.8771   -4.6408   -5.7182 H   0  0  0  0  0  0  0  0  0  0  0  0
   10.5785   -0.9452   -6.0896 H   0  0  0  0  0  0  0  0  0  0  0  0
    9.0226   -0.1892   -6.5595 H   0  0  0  0  0  0  0  0  0  0  0  0
    9.2822   -0.8207   -8.8692 H   0  0  0  0  0  0  0  0  0  0  0  0
   10.7515   -1.6962   -8.5548 H   0  0  0  0  0  0  0  0  0  0  0  0
   10.2648    1.3088   -8.1933 H   0  0  0  0  0  0  0  0  0  0  0  0
   11.2112    0.5835   -9.4896 H   0  0  0  0  0  0  0  0  0  0  0  0
   13.4183   -0.4469   -8.9177 H   0  0  0  0  0  0  0  0  0  0  0  0
   12.7168   -1.4440   -7.6419 H   0  0  0  0  0  0  0  0  0  0  0  0
   15.1079   -1.1106   -7.2167 H   0  0  0  0  0  0  0  0  0  0  0  0
   14.1112   -0.4789   -5.9286 H   0  0  0  0  0  0  0  0  0  0  0  0
   16.5126    0.3657   -8.4509 H   0  0  0  0  0  0  0  0  0  0  0  0
   16.3308    2.1071   -8.3284 H   0  0  0  0  0  0  0  0  0  0  0  0
   15.1142    1.1560   -9.1995 H   0  0  0  0  0  0  0  0  0  0  0  0
   14.5041    3.0500   -7.0313 H   0  0  0  0  0  0  0  0  0  0  0  0
   13.7668    2.0553   -5.7984 H   0  0  0  0  0  0  0  0  0  0  0  0
   13.0038    2.1333   -8.7634 H   0  0  0  0  0  0  0  0  0  0  0  0
   12.0597    2.6953   -7.3818 H   0  0  0  0  0  0  0  0  0  0  0  0
    8.1665   -0.5318   -4.7630 H   0  0  0  0  0  0  0  0  0  0  0  0
    7.2267    0.7722   -3.4239 H   0  0  0  0  0  0  0  0  0  0  0  0
    4.4374   -0.5540   -3.5482 H   0  0  0  0  0  0  0  0  0  0  0  0
    5.5783   -0.5388   -4.8794 H   0  0  0  0  0  0  0  0  0  0  0  0
    4.8729    0.9859   -4.3308 H   0  0  0  0  0  0  0  0  0  0  0  0
    5.0603    0.4413   -1.2951 H   0  0  0  0  0  0  0  0  0  0  0  0
    5.5394    1.9733   -2.0634 H   0  0  0  0  0  0  0  0  0  0  0  0
    6.6757    1.0783   -1.0274 H   0  0  0  0  0  0  0  0  0  0  0  0
  1  2  1  0  0  0  0
  1 36  1  0  0  0  0
  1 37  1  0  0  0  0
  1 38  1  0  0  0  0
  2  3  1  0  0  0  0
  3  4  1  0  0  0  0
  3 35  2  0  0  0  0
  4  5  2  0  0  0  0
  4 39  1  0  0  0  0
  5  6  1  0  0  0  0
  5 40  1  0  0  0  0
  6  7  1  0  0  0  0
  6  8  2  0  0  0  0
  8  9  1  0  0  0  0
  8 35  1  0  0  0  0
  9 10  1  0  0  0  0
  9 41  1  0  0  0  0
 10 11  1  0  0  0  0
 10 34  2  0  0  0  0
 11 12  2  0  0  0  0
 12 13  1  0  0  0  0
 12 42  1  0  0  0  0
 13 14  2  0  0  0  0
 14 15  1  0  0  0  0
 14 34  1  0  0  0  0
 15 16  2  0  0  0  0
 15 43  1  0  0  0  0
 16 17  1  0  0  0  0
 16 28  1  0  0  0  0
 17 18  1  0  0  0  0
 18 19  1  0  0  0  0
 18 44  1  0  0  0  0
 18 45  1  0  0  0  0
 19 20  1  0  0  0  0
 19 46  1  0  0  0  0
 19 47  1  0  0  0  0
 20 21  1  0  0  0  0
 20 48  1  0  0  0  0
 20 49  1  0  0  0  0
 21 22  1  0  0  0  0
 21 27  1  0  0  0  0
 22 23  1  0  0  0  0
 22 50  1  0  0  0  0
 22 51  1  0  0  0  0
 23 24  1  0  0  0  0
 23 52  1  0  0  0  0
 23 53  1  0  0  0  0
 24 25  1  0  0  0  0
 24 26  1  0  0  0  0
 25 54  1  0  0  0  0
 25 55  1  0  0  0  0
 25 56  1  0  0  0  0
 26 27  1  0  0  0  0
 26 57  1  0  0  0  0
 26 58  1  0  0  0  0
 27 59  1  0  0  0  0
 27 60  1  0  0  0  0
 28 29  2  0  0  0  0
 28 61  1  0  0  0  0
 29 30  1  0  0  0  0
 29 34  1  0  0  0  0
 30 31  1  0  0  0  0
 31 32  1  0  0  0  0
 31 33  1  0  0  0  0
 31 62  1  0  0  0  0
 32 63  1  0  0  0  0
 32 64  1  0  0  0  0
 32 65  1  0  0  0  0
 33 66  1  0  0  0  0
 33 67  1  0  0  0  0
 33 68  1  0  0  0  0
M  END
$$$$
