CHEMBL212985
 OpenBabel04072215363D

 69 74  0  0  0  0  0  0  0  0999 V2000
    8.7923   -0.0737    5.0175 C   0  0  0  0  0  0  0  0  0  0  0  0
    8.7510   -0.8611    6.3031 C   0  0  0  0  0  0  0  0  0  0  0  0
    9.2156   -0.2031    7.4635 C   0  0  0  0  0  0  0  0  0  0  0  0
    9.2301   -0.8363    8.7063 C   0  0  0  0  0  0  0  0  0  0  0  0
    8.7587   -2.1331    8.8082 C   0  0  0  0  0  0  0  0  0  0  0  0
    8.2891   -2.7903    7.6669 C   0  0  0  0  0  0  0  0  0  0  0  0
    8.2951   -2.1835    6.3950 C   0  0  0  0  0  0  0  0  0  0  0  0
    7.8118   -2.8957    5.2468 N   0  0  0  0  0  0  0  0  0  0  0  0
    7.5893   -4.2593    5.1887 C   0  0  0  0  0  0  0  0  0  0  0  0
    7.8943   -5.0612    6.0720 O   0  0  0  0  0  0  0  0  0  0  0  0
    6.9645   -4.7003    4.0341 N   0  0  0  0  0  0  0  0  0  0  0  0
    6.7724   -6.1501    3.9917 C   0  0  0  0  0  0  0  0  0  0  0  0
    6.0067   -6.7044    2.8243 C   0  0  0  0  0  0  0  0  0  0  0  0
    4.6505   -6.6670    2.5583 C   0  0  0  0  0  0  0  0  0  0  0  0
    4.2680   -7.5963    1.5291 C   0  0  0  0  0  0  0  0  0  0  0  0
    5.3314   -8.3515    1.0646 C   0  0  0  0  0  0  0  0  0  0  0  0
    5.2679   -9.4433   -0.0082 C   0  0  0  0  0  0  0  0  0  0  0  0
    6.2288  -10.3602   -0.1818 N   0  0  0  0  0  0  0  0  0  0  0  0
    6.1079  -10.7432   -1.4827 N   0  0  0  0  0  0  0  0  0  0  0  0
    5.1426  -10.0528   -2.1861 C   0  0  0  0  0  0  0  0  0  0  0  0
    4.4388   -9.3847   -1.1583 C   0  0  0  0  0  0  0  0  0  0  0  0
    3.7213   -8.2055   -1.7018 C   0  0  0  0  0  0  0  0  0  0  0  0
    4.8801   -7.8936   -2.6325 C   0  0  0  0  0  0  0  0  0  0  0  0
    5.8589   -6.9495   -2.3348 C   0  0  0  0  0  0  0  0  0  0  0  0
    7.0256   -6.9406   -3.0817 C   0  0  0  0  0  0  0  0  0  0  0  0
    7.0963   -7.7592   -4.2159 C   0  0  0  0  0  0  0  0  0  0  0  0
    7.7429   -7.1356   -5.4443 C   0  0  0  0  0  0  0  0  0  0  0  0
    6.7330   -6.5498   -6.3569 N   0  0  0  0  0  0  0  0  0  0  0  0
    5.7860   -5.6199   -5.7001 C   0  0  0  0  0  0  0  0  0  0  0  0
    4.6990   -5.1400   -6.6838 C   0  0  0  0  0  0  0  0  0  0  0  0
    5.2205   -4.4446   -7.8716 N   0  0  0  0  0  0  0  0  0  0  0  0
    5.6681   -3.0940   -7.5451 C   0  0  0  0  0  0  0  0  0  0  0  0
    6.2972   -5.2616   -8.4722 C   0  0  0  0  0  0  0  0  0  0  0  0
    7.3575   -5.8291   -7.4844 C   0  0  0  0  0  0  0  0  0  0  0  0
    6.3289   -8.9415   -4.2415 C   0  0  0  0  0  0  0  0  0  0  0  0
    5.3229   -9.0656   -3.2916 C   0  0  0  0  0  0  0  0  0  0  0  0
    6.8005   -7.8060    1.7622 S   0  0  0  0  0  0  0  0  0  0  0  0
    9.3078    0.8846    5.1587 H   0  0  0  0  0  0  0  0  0  0  0  0
    7.7773    0.1460    4.6810 H   0  0  0  0  0  0  0  0  0  0  0  0
    9.3419   -0.6195    4.2483 H   0  0  0  0  0  0  0  0  0  0  0  0
    9.5843    0.8200    7.4120 H   0  0  0  0  0  0  0  0  0  0  0  0
    9.6005   -0.3197    9.5904 H   0  0  0  0  0  0  0  0  0  0  0  0
    8.7484   -2.6445    9.7679 H   0  0  0  0  0  0  0  0  0  0  0  0
    7.9048   -3.7931    7.8247 H   0  0  0  0  0  0  0  0  0  0  0  0
    7.7234   -2.3800    4.3827 H   0  0  0  0  0  0  0  0  0  0  0  0
    7.2250   -4.2500    3.1634 H   0  0  0  0  0  0  0  0  0  0  0  0
    6.2291   -6.4301    4.9033 H   0  0  0  0  0  0  0  0  0  0  0  0
    7.7641   -6.6094    4.0526 H   0  0  0  0  0  0  0  0  0  0  0  0
    3.9426   -6.0813    3.1346 H   0  0  0  0  0  0  0  0  0  0  0  0
    3.2410   -7.7465    1.2178 H   0  0  0  0  0  0  0  0  0  0  0  0
    6.7978  -11.3858   -1.8474 H   0  0  0  0  0  0  0  0  0  0  0  0
    3.4875   -7.3785   -1.0319 H   0  0  0  0  0  0  0  0  0  0  0  0
    2.8334   -8.5006   -2.2746 H   0  0  0  0  0  0  0  0  0  0  0  0
    5.7650   -6.3129   -1.4623 H   0  0  0  0  0  0  0  0  0  0  0  0
    7.7975   -6.2076   -2.8710 H   0  0  0  0  0  0  0  0  0  0  0  0
    8.3341   -7.8947   -5.9682 H   0  0  0  0  0  0  0  0  0  0  0  0
    8.4477   -6.3568   -5.1191 H   0  0  0  0  0  0  0  0  0  0  0  0
    6.3154   -4.7625   -5.2622 H   0  0  0  0  0  0  0  0  0  0  0  0
    5.2374   -6.1092   -4.8952 H   0  0  0  0  0  0  0  0  0  0  0  0
    3.9728   -4.5096   -6.1549 H   0  0  0  0  0  0  0  0  0  0  0  0
    4.1287   -6.0166   -7.0209 H   0  0  0  0  0  0  0  0  0  0  0  0
    4.8631   -2.5289   -7.0597 H   0  0  0  0  0  0  0  0  0  0  0  0
    5.9163   -2.5490   -8.4617 H   0  0  0  0  0  0  0  0  0  0  0  0
    6.5411   -3.0730   -6.8856 H   0  0  0  0  0  0  0  0  0  0  0  0
    6.7983   -4.6944   -9.2658 H   0  0  0  0  0  0  0  0  0  0  0  0
    5.8174   -6.1120   -8.9748 H   0  0  0  0  0  0  0  0  0  0  0  0
    7.9820   -5.0045   -7.1147 H   0  0  0  0  0  0  0  0  0  0  0  0
    8.0125   -6.5096   -8.0397 H   0  0  0  0  0  0  0  0  0  0  0  0
    6.3250   -9.5856   -5.1175 H   0  0  0  0  0  0  0  0  0  0  0  0
  1  2  1  0  0  0  0
  1 38  1  0  0  0  0
  1 39  1  0  0  0  0
  1 40  1  0  0  0  0
  2  3  1  0  0  0  0
  2  7  2  0  0  0  0
  3  4  2  0  0  0  0
  3 41  1  0  0  0  0
  4  5  1  0  0  0  0
  4 42  1  0  0  0  0
  5  6  2  0  0  0  0
  5 43  1  0  0  0  0
  6  7  1  0  0  0  0
  6 44  1  0  0  0  0
  7  8  1  0  0  0  0
  8  9  1  0  0  0  0
  8 45  1  0  0  0  0
  9 10  2  0  0  0  0
  9 11  1  0  0  0  0
 11 12  1  0  0  0  0
 11 46  1  0  0  0  0
 12 13  1  0  0  0  0
 12 47  1  0  0  0  0
 12 48  1  0  0  0  0
 13 14  2  0  0  0  0
 13 37  1  0  0  0  0
 14 15  1  0  0  0  0
 14 49  1  0  0  0  0
 15 16  2  0  0  0  0
 15 50  1  0  0  0  0
 16 17  1  0  0  0  0
 16 37  1  0  0  0  0
 17 18  2  0  0  0  0
 17 21  1  0  0  0  0
 18 19  1  0  0  0  0
 19 20  1  0  0  0  0
 19 51  1  0  0  0  0
 20 21  2  0  0  0  0
 20 36  1  0  0  0  0
 21 22  1  0  0  0  0
 22 23  1  0  0  0  0
 22 52  1  0  0  0  0
 22 53  1  0  0  0  0
 23 24  1  0  0  0  0
 23 36  2  0  0  0  0
 24 25  2  0  0  0  0
 24 54  1  0  0  0  0
 25 26  1  0  0  0  0
 25 55  1  0  0  0  0
 26 27  1  0  0  0  0
 26 35  2  0  0  0  0
 27 28  1  0  0  0  0
 27 56  1  0  0  0  0
 27 57  1  0  0  0  0
 28 29  1  0  0  0  0
 28 34  1  0  0  0  0
 29 30  1  0  0  0  0
 29 58  1  0  0  0  0
 29 59  1  0  0  0  0
 30 31  1  0  0  0  0
 30 60  1  0  0  0  0
 30 61  1  0  0  0  0
 31 32  1  0  0  0  0
 31 33  1  0  0  0  0
 32 62  1  0  0  0  0
 32 63  1  0  0  0  0
 32 64  1  0  0  0  0
 33 34  1  0  0  0  0
 33 65  1  0  0  0  0
 33 66  1  0  0  0  0
 34 67  1  0  0  0  0
 34 68  1  0  0  0  0
 35 36  1  0  0  0  0
 35 69  1  0  0  0  0
M  END
$$$$
