CHEMBL205142
 OpenBabel04072215363D

 60 64  0  0  0  0  0  0  0  0999 V2000
    2.3244   -0.7184    2.3561 C   0  0  0  0  0  0  0  0  0  0  0  0
    3.6616   -0.6258    1.7217 C   0  0  0  0  0  0  0  0  0  0  0  0
    4.5558   -1.6114    1.3572 C   0  0  0  0  0  0  0  0  0  0  0  0
    5.5471   -1.0106    0.5333 C   0  0  0  0  0  0  0  0  0  0  0  0
    6.5929   -1.5079   -0.2638 C   0  0  0  0  0  0  0  0  0  0  0  0
    6.8315   -2.8273   -0.3248 F   0  0  0  0  0  0  0  0  0  0  0  0
    7.3167   -0.6249   -1.0695 C   0  0  0  0  0  0  0  0  0  0  0  0
    8.1726   -1.2055   -2.0311 O   0  0  0  0  0  0  0  0  0  0  0  0
    9.3307   -0.5678   -2.4261 C   0  0  0  0  0  0  0  0  0  0  0  0
   10.0117    0.2516   -1.6988 N   0  0  0  0  0  0  0  0  0  0  0  0
   11.1288    0.7998   -2.2734 C   0  0  0  0  0  0  0  0  0  0  0  0
   11.5622    0.6032   -3.4819 N   0  0  0  0  0  0  0  0  0  0  0  0
   10.8157   -0.2497   -4.2026 N   0  0  0  0  0  0  0  0  0  0  0  0
   11.0541   -0.5972   -5.4962 C   0  0  0  0  0  0  0  0  0  0  0  0
   10.0970   -1.5248   -5.8697 C   0  0  0  0  0  0  0  0  0  0  0  0
   10.0377   -2.1172   -7.0963 O   0  0  0  0  0  0  0  0  0  0  0  0
   11.3264   -2.1593   -7.7400 C   0  0  0  0  0  0  0  0  0  0  0  0
   11.2548   -2.7135   -9.1541 C   0  0  0  0  0  0  0  0  0  0  0  0
   12.6700   -2.7628   -9.7612 C   0  0  0  0  0  0  0  0  0  0  0  0
   12.6937   -3.2841  -11.1342 N   0  0  0  0  0  0  0  0  0  0  0  0
   11.9287   -2.4308  -12.0562 C   0  0  0  0  0  0  0  0  0  0  0  0
   11.8607   -3.0550  -13.4444 C   0  0  0  0  0  0  0  0  0  0  0  0
   13.2532   -3.3039  -14.0039 C   0  0  0  0  0  0  0  0  0  0  0  0
   14.0974   -4.0886  -13.0051 C   0  0  0  0  0  0  0  0  0  0  0  0
   14.0790   -3.4376  -11.6188 C   0  0  0  0  0  0  0  0  0  0  0  0
    9.2089   -1.6997   -4.7669 C   0  0  0  0  0  0  0  0  0  0  0  0
    7.9961   -2.5580   -4.6481 C   0  0  0  0  0  0  0  0  0  0  0  0
    9.7108   -0.8915   -3.7519 C   0  0  0  0  0  0  0  0  0  0  0  0
    7.0476    0.7441   -1.0640 C   0  0  0  0  0  0  0  0  0  0  0  0
    6.0479    1.2666   -0.2374 C   0  0  0  0  0  0  0  0  0  0  0  0
    5.2954    0.3627    0.5243 C   0  0  0  0  0  0  0  0  0  0  0  0
    4.2009    0.5766    1.3328 N   0  0  0  0  0  0  0  0  0  0  0  0
    2.0536   -1.7624    2.5437 H   0  0  0  0  0  0  0  0  0  0  0  0
    1.5664   -0.2994    1.6830 H   0  0  0  0  0  0  0  0  0  0  0  0
    2.2892   -0.1726    3.3016 H   0  0  0  0  0  0  0  0  0  0  0  0
    4.4456   -2.6711    1.5503 H   0  0  0  0  0  0  0  0  0  0  0  0
   11.7158    1.4816   -1.6346 H   0  0  0  0  0  0  0  0  0  0  0  0
   11.8819   -0.1476   -6.0071 H   0  0  0  0  0  0  0  0  0  0  0  0
   11.9983   -2.7769   -7.1360 H   0  0  0  0  0  0  0  0  0  0  0  0
   11.7402   -1.1494   -7.8371 H   0  0  0  0  0  0  0  0  0  0  0  0
   10.5900   -2.0575   -9.7263 H   0  0  0  0  0  0  0  0  0  0  0  0
   10.7938   -3.7082   -9.1558 H   0  0  0  0  0  0  0  0  0  0  0  0
   13.2814   -3.4176   -9.1243 H   0  0  0  0  0  0  0  0  0  0  0  0
   13.1356   -1.7679   -9.7203 H   0  0  0  0  0  0  0  0  0  0  0  0
   12.3639   -1.4236  -12.1081 H   0  0  0  0  0  0  0  0  0  0  0  0
   10.8942   -2.3231  -11.7217 H   0  0  0  0  0  0  0  0  0  0  0  0
   11.2981   -2.3942  -14.1136 H   0  0  0  0  0  0  0  0  0  0  0  0
   11.3098   -4.0017  -13.3908 H   0  0  0  0  0  0  0  0  0  0  0  0
   13.7358   -2.3416  -14.2161 H   0  0  0  0  0  0  0  0  0  0  0  0
   13.1820   -3.8481  -14.9514 H   0  0  0  0  0  0  0  0  0  0  0  0
   15.1275   -4.1602  -13.3725 H   0  0  0  0  0  0  0  0  0  0  0  0
   13.7126   -5.1136  -12.9300 H   0  0  0  0  0  0  0  0  0  0  0  0
   14.5912   -2.4662  -11.6598 H   0  0  0  0  0  0  0  0  0  0  0  0
   14.6538   -4.0757  -10.9362 H   0  0  0  0  0  0  0  0  0  0  0  0
    7.7687   -3.1117   -5.5603 H   0  0  0  0  0  0  0  0  0  0  0  0
    7.1236   -1.9418   -4.3977 H   0  0  0  0  0  0  0  0  0  0  0  0
    8.1305   -3.2812   -3.8331 H   0  0  0  0  0  0  0  0  0  0  0  0
    7.5808    1.4189   -1.7277 H   0  0  0  0  0  0  0  0  0  0  0  0
    5.8243    2.3289   -0.2434 H   0  0  0  0  0  0  0  0  0  0  0  0
    3.7882    1.4830    1.5061 H   0  0  0  0  0  0  0  0  0  0  0  0
  1  2  1  0  0  0  0
  1 33  1  0  0  0  0
  1 34  1  0  0  0  0
  1 35  1  0  0  0  0
  2  3  2  0  0  0  0
  2 32  1  0  0  0  0
  3  4  1  0  0  0  0
  3 36  1  0  0  0  0
  4  5  1  0  0  0  0
  4 31  2  0  0  0  0
  5  6  1  0  0  0  0
  5  7  2  0  0  0  0
  7  8  1  0  0  0  0
  7 29  1  0  0  0  0
  8  9  1  0  0  0  0
  9 10  2  0  0  0  0
  9 28  1  0  0  0  0
 10 11  1  0  0  0  0
 11 12  2  0  0  0  0
 11 37  1  0  0  0  0
 12 13  1  0  0  0  0
 13 14  1  0  0  0  0
 13 28  1  0  0  0  0
 14 15  2  0  0  0  0
 14 38  1  0  0  0  0
 15 16  1  0  0  0  0
 15 26  1  0  0  0  0
 16 17  1  0  0  0  0
 17 18  1  0  0  0  0
 17 39  1  0  0  0  0
 17 40  1  0  0  0  0
 18 19  1  0  0  0  0
 18 41  1  0  0  0  0
 18 42  1  0  0  0  0
 19 20  1  0  0  0  0
 19 43  1  0  0  0  0
 19 44  1  0  0  0  0
 20 21  1  0  0  0  0
 20 25  1  0  0  0  0
 21 22  1  0  0  0  0
 21 45  1  0  0  0  0
 21 46  1  0  0  0  0
 22 23  1  0  0  0  0
 22 47  1  0  0  0  0
 22 48  1  0  0  0  0
 23 24  1  0  0  0  0
 23 49  1  0  0  0  0
 23 50  1  0  0  0  0
 24 25  1  0  0  0  0
 24 51  1  0  0  0  0
 24 52  1  0  0  0  0
 25 53  1  0  0  0  0
 25 54  1  0  0  0  0
 26 27  1  0  0  0  0
 26 28  2  0  0  0  0
 27 55  1  0  0  0  0
 27 56  1  0  0  0  0
 27 57  1  0  0  0  0
 29 30  2  0  0  0  0
 29 58  1  0  0  0  0
 30 31  1  0  0  0  0
 30 59  1  0  0  0  0
 31 32  1  0  0  0  0
 32 60  1  0  0  0  0
M  END
$$$$
