CHEMBL370266
 OpenBabel04072215373D

 62 65  0  0  1  0  0  0  0  0999 V2000
   -0.7619    5.3848   -9.1561 C   0  0  0  0  0  0  0  0  0  0  0  0
   -1.2789    4.9050   -7.9163 O   0  0  0  0  0  0  0  0  0  0  0  0
   -0.2152    4.3224   -7.1837 N   0  0  0  0  0  0  0  0  0  0  0  0
    0.4091    5.1776   -6.3004 C   0  0  0  0  0  0  0  0  0  0  0  0
    0.2649    6.3972   -6.2894 O   0  0  0  0  0  0  0  0  0  0  0  0
    1.3387    4.5642   -5.3216 C   0  0  0  0  0  0  0  0  0  0  0  0
    2.3769    5.3620   -4.8135 C   0  0  0  0  0  0  0  0  0  0  0  0
    3.2472    4.8884   -3.8203 C   0  0  0  0  0  0  0  0  0  0  0  0
    4.2834    5.6932   -3.3009 N   0  0  0  0  0  0  0  0  0  0  0  0
    4.9837    6.6506   -4.0061 C   0  0  0  0  0  0  0  0  0  0  0  0
    5.1018    6.5148   -5.2999 N   0  0  0  0  0  0  0  0  0  0  0  0
    5.8281    7.4116   -6.0296 C   0  0  0  0  0  0  0  0  0  0  0  0
    6.4595    8.4393   -5.5742 N   0  0  0  0  0  0  0  0  0  0  0  0
    6.3263    8.6075   -4.2550 N   0  0  0  0  0  0  0  0  0  0  0  0
    6.8821    9.6399   -3.5641 C   0  0  0  0  0  0  0  0  0  0  0  0
    6.5160    9.5454   -2.2423 C   0  0  0  0  0  0  0  0  0  0  0  0
    6.9185   10.4360   -1.2590 N   0  0  0  0  0  0  0  0  0  0  0  0
    7.7993   11.4753   -1.4286 C   0  0  0  0  0  0  0  0  0  0  0  0
    8.3089   11.8765   -2.4636 O   0  0  0  0  0  0  0  0  0  0  0  0
    8.1320   11.9713   -0.2046 O   0  0  0  0  0  0  0  0  0  0  0  0
    9.5428   12.1691   -0.0503 C   0  0  0  0  0  0  0  0  0  0  0  0
   10.0058   13.6232    0.0380 C   0  0  3  0  0  0  0  0  0  0  0  0
    9.8428   14.4487   -1.2321 C   0  0  0  0  0  0  0  0  0  0  0  0
   11.0922   15.2991   -1.2477 C   0  0  0  0  0  0  0  0  0  0  0  0
   12.1141   14.3563   -0.6620 C   0  0  0  0  0  0  0  0  0  0  0  0
   11.4210   13.6147    0.3479 O   0  0  0  0  0  0  0  0  0  0  0  0
    5.6776    8.3722   -2.1156 C   0  0  0  0  0  0  0  0  0  0  0  0
    4.9776    7.8491   -0.8752 C   0  0  0  0  0  0  0  0  0  0  0  0
    5.8788    6.9172   -0.0629 C   0  0  0  0  0  0  0  0  0  0  0  0
    4.3924    8.9314    0.0370 C   0  0  0  0  0  0  0  0  0  0  0  0
    5.6200    7.8023   -3.3999 C   0  0  0  0  0  0  0  0  0  0  0  0
    3.0719    3.5670   -3.3844 C   0  0  0  0  0  0  0  0  0  0  0  0
    3.8946    3.0663   -2.4504 F   0  0  0  0  0  0  0  0  0  0  0  0
    2.0628    2.7504   -3.8958 C   0  0  0  0  0  0  0  0  0  0  0  0
    1.1972    3.2581   -4.8599 C   0  0  0  0  0  0  0  0  0  0  0  0
    0.2150    2.4693   -5.3217 F   0  0  0  0  0  0  0  0  0  0  0  0
   -1.5784    5.8539   -9.7113 H   0  0  0  0  0  0  0  0  0  0  0  0
   -0.3642    4.5543   -9.7473 H   0  0  0  0  0  0  0  0  0  0  0  0
    0.0179    6.1353   -8.9906 H   0  0  0  0  0  0  0  0  0  0  0  0
   -0.3378    3.3401   -6.9571 H   0  0  0  0  0  0  0  0  0  0  0  0
    2.4848    6.3800   -5.1873 H   0  0  0  0  0  0  0  0  0  0  0  0
    4.6511    5.4061   -2.4034 H   0  0  0  0  0  0  0  0  0  0  0  0
    5.8792    7.2192   -7.1147 H   0  0  0  0  0  0  0  0  0  0  0  0
    7.4875   10.3582   -4.0963 H   0  0  0  0  0  0  0  0  0  0  0  0
    6.6728   10.2529   -0.3018 H   0  0  0  0  0  0  0  0  0  0  0  0
   10.1161   11.6310   -0.8173 H   0  0  0  0  0  0  0  0  0  0  0  0
    9.8075   11.6704    0.8900 H   0  0  0  0  0  0  0  0  0  0  0  0
    9.4974   14.1262    0.8688 H   0  0  0  0  0  0  0  0  0  0  0  0
    8.9250   15.0443   -1.2302 H   0  0  0  0  0  0  0  0  0  0  0  0
    9.8336   13.8169   -2.1249 H   0  0  0  0  0  0  0  0  0  0  0  0
   10.9643   16.1665   -0.5902 H   0  0  0  0  0  0  0  0  0  0  0  0
   11.3661   15.6564   -2.2441 H   0  0  0  0  0  0  0  0  0  0  0  0
   12.9684   14.8738   -0.2175 H   0  0  0  0  0  0  0  0  0  0  0  0
   12.4848   13.6491   -1.4131 H   0  0  0  0  0  0  0  0  0  0  0  0
    4.1126    7.2627   -1.2088 H   0  0  0  0  0  0  0  0  0  0  0  0
    6.7610    7.4432    0.3181 H   0  0  0  0  0  0  0  0  0  0  0  0
    6.2281    6.0747   -0.6689 H   0  0  0  0  0  0  0  0  0  0  0  0
    5.3354    6.5058    0.7957 H   0  0  0  0  0  0  0  0  0  0  0  0
    5.1601    9.4509    0.6163 H   0  0  0  0  0  0  0  0  0  0  0  0
    3.7147    8.4818    0.7722 H   0  0  0  0  0  0  0  0  0  0  0  0
    3.8254    9.6744   -0.5323 H   0  0  0  0  0  0  0  0  0  0  0  0
    1.9473    1.7325   -3.5381 H   0  0  0  0  0  0  0  0  0  0  0  0
  1  2  1  0  0  0  0
  1 37  1  0  0  0  0
  1 38  1  0  0  0  0
  1 39  1  0  0  0  0
  2  3  1  0  0  0  0
  3  4  1  0  0  0  0
  3 40  1  0  0  0  0
  4  5  2  0  0  0  0
  4  6  1  0  0  0  0
  6  7  1  0  0  0  0
  6 35  2  0  0  0  0
  7  8  2  0  0  0  0
  7 41  1  0  0  0  0
  8  9  1  0  0  0  0
  8 32  1  0  0  0  0
  9 10  1  0  0  0  0
  9 42  1  0  0  0  0
 10 11  2  0  0  0  0
 10 31  1  0  0  0  0
 11 12  1  0  0  0  0
 12 13  2  0  0  0  0
 12 43  1  0  0  0  0
 13 14  1  0  0  0  0
 14 15  1  0  0  0  0
 14 31  1  0  0  0  0
 15 16  2  0  0  0  0
 15 44  1  0  0  0  0
 16 17  1  0  0  0  0
 16 27  1  0  0  0  0
 17 18  1  0  0  0  0
 17 45  1  0  0  0  0
 18 19  2  0  0  0  0
 18 20  1  0  0  0  0
 20 21  1  0  0  0  0
 21 22  1  0  0  0  0
 21 46  1  0  0  0  0
 21 47  1  0  0  0  0
 22 23  1  0  0  0  0
 22 26  1  0  0  0  0
 22 48  1  0  0  0  0
 23 24  1  0  0  0  0
 23 49  1  0  0  0  0
 23 50  1  0  0  0  0
 24 25  1  0  0  0  0
 24 51  1  0  0  0  0
 24 52  1  0  0  0  0
 25 26  1  0  0  0  0
 25 53  1  0  0  0  0
 25 54  1  0  0  0  0
 27 28  1  0  0  0  0
 27 31  2  0  0  0  0
 28 29  1  0  0  0  0
 28 30  1  0  0  0  0
 28 55  1  0  0  0  0
 29 56  1  0  0  0  0
 29 57  1  0  0  0  0
 29 58  1  0  0  0  0
 30 59  1  0  0  0  0
 30 60  1  0  0  0  0
 30 61  1  0  0  0  0
 32 33  1  0  0  0  0
 32 34  2  0  0  0  0
 34 35  1  0  0  0  0
 34 62  1  0  0  0  0
 35 36  1  0  0  0  0
M  END
$$$$
