CHEMBL469171
 OpenBabel04072215383D

 45 49  0  0  0  0  0  0  0  0999 V2000
    2.9265    0.9999   -0.1297 O   0  0  0  0  0  0  0  0  0  0  0  0
    2.4035   -0.1138   -0.0403 C   0  0  0  0  0  0  0  0  0  0  0  0
    3.0768   -1.1662    0.7713 C   0  0  0  0  0  0  0  0  0  0  0  0
    2.7651   -2.5218    0.5245 C   0  0  0  0  0  0  0  0  0  0  0  0
    3.4854   -3.5417    1.1352 C   0  0  0  0  0  0  0  0  0  0  0  0
    4.5563   -3.2297    1.9521 C   0  0  0  0  0  0  0  0  0  0  0  0
    4.8474   -1.8951    2.2380 C   0  0  0  0  0  0  0  0  0  0  0  0
    4.0843   -0.8285    1.7288 C   0  0  0  0  0  0  0  0  0  0  0  0
    4.3980    0.4950    2.0969 N   0  0  0  0  0  0  0  0  0  0  0  0
    4.9196    0.7295    3.4435 C   0  0  0  0  0  0  0  0  0  0  0  0
    5.1667    2.1895    3.7790 C   0  0  0  0  0  0  0  0  0  0  0  0
    5.1010    2.6001    5.1238 C   0  0  0  0  0  0  0  0  0  0  0  0
    5.4171    3.9028    5.5274 C   0  0  0  0  0  0  0  0  0  0  0  0
    5.8365    4.7837    4.5290 C   0  0  0  0  0  0  0  0  0  0  0  0
    6.2121    6.0995    4.5721 N   0  0  0  0  0  0  0  0  0  0  0  0
    6.6135    6.5994    3.3909 N   0  0  0  0  0  0  0  0  0  0  0  0
    6.4553    5.5712    2.5530 C   0  0  0  0  0  0  0  0  0  0  0  0
    5.9512    4.4145    3.1956 C   0  0  0  0  0  0  0  0  0  0  0  0
    5.6105    3.1028    2.8063 C   0  0  0  0  0  0  0  0  0  0  0  0
    1.1168   -0.3813   -0.7021 C   0  0  0  0  0  0  0  0  0  0  0  0
    0.9361   -0.1001   -2.0070 N   0  0  0  0  0  0  0  0  0  0  0  0
   -0.3967   -0.0544   -2.1415 N   0  0  0  0  0  0  0  0  0  0  0  0
   -1.0765   -0.2604   -0.9721 C   0  0  0  0  0  0  0  0  0  0  0  0
   -2.4162   -0.0703   -0.6256 C   0  0  0  0  0  0  0  0  0  0  0  0
   -2.7875   -0.4196    0.6759 C   0  0  0  0  0  0  0  0  0  0  0  0
   -1.8741   -0.9993    1.5572 C   0  0  0  0  0  0  0  0  0  0  0  0
   -0.5257   -1.1310    1.2055 C   0  0  0  0  0  0  0  0  0  0  0  0
   -0.1168   -0.6914   -0.0651 C   0  0  0  0  0  0  0  0  0  0  0  0
    1.9800   -2.7972   -0.1720 H   0  0  0  0  0  0  0  0  0  0  0  0
    3.2436   -4.5783    0.9268 H   0  0  0  0  0  0  0  0  0  0  0  0
    5.1825   -4.0168    2.3678 H   0  0  0  0  0  0  0  0  0  0  0  0
    5.7212   -1.7047    2.8621 H   0  0  0  0  0  0  0  0  0  0  0  0
    3.6836    1.1625    1.8036 H   0  0  0  0  0  0  0  0  0  0  0  0
    5.8957    0.2431    3.5664 H   0  0  0  0  0  0  0  0  0  0  0  0
    4.2245    0.3101    4.1799 H   0  0  0  0  0  0  0  0  0  0  0  0
    4.8118    1.8829    5.8945 H   0  0  0  0  0  0  0  0  0  0  0  0
    5.3654    4.1991    6.5695 H   0  0  0  0  0  0  0  0  0  0  0  0
    6.2308    6.7119    5.3817 H   0  0  0  0  0  0  0  0  0  0  0  0
    6.7141    5.6936    1.5108 H   0  0  0  0  0  0  0  0  0  0  0  0
    5.7155    2.7997    1.7675 H   0  0  0  0  0  0  0  0  0  0  0  0
   -0.7830    0.1766   -3.0495 H   0  0  0  0  0  0  0  0  0  0  0  0
   -3.1261    0.3803   -1.3112 H   0  0  0  0  0  0  0  0  0  0  0  0
   -3.8068   -0.2339    1.0084 H   0  0  0  0  0  0  0  0  0  0  0  0
   -2.2014   -1.3090    2.5462 H   0  0  0  0  0  0  0  0  0  0  0  0
    0.1829   -1.5388    1.9206 H   0  0  0  0  0  0  0  0  0  0  0  0
  1  2  2  0  0  0  0
  2  3  1  0  0  0  0
  2 20  1  0  0  0  0
  3  4  1  0  0  0  0
  3  8  2  0  0  0  0
  4  5  2  0  0  0  0
  4 29  1  0  0  0  0
  5  6  1  0  0  0  0
  5 30  1  0  0  0  0
  6  7  2  0  0  0  0
  6 31  1  0  0  0  0
  7  8  1  0  0  0  0
  7 32  1  0  0  0  0
  8  9  1  0  0  0  0
  9 10  1  0  0  0  0
  9 33  1  0  0  0  0
 10 11  1  0  0  0  0
 10 34  1  0  0  0  0
 10 35  1  0  0  0  0
 11 12  1  0  0  0  0
 11 19  2  0  0  0  0
 12 13  2  0  0  0  0
 12 36  1  0  0  0  0
 13 14  1  0  0  0  0
 13 37  1  0  0  0  0
 14 15  1  0  0  0  0
 14 18  2  0  0  0  0
 15 16  1  0  0  0  0
 15 38  1  0  0  0  0
 16 17  2  0  0  0  0
 17 18  1  0  0  0  0
 17 39  1  0  0  0  0
 18 19  1  0  0  0  0
 19 40  1  0  0  0  0
 20 21  2  0  0  0  0
 20 28  1  0  0  0  0
 21 22  1  0  0  0  0
 22 23  1  0  0  0  0
 22 41  1  0  0  0  0
 23 24  1  0  0  0  0
 23 28  2  0  0  0  0
 24 25  2  0  0  0  0
 24 42  1  0  0  0  0
 25 26  1  0  0  0  0
 25 43  1  0  0  0  0
 26 27  2  0  0  0  0
 26 44  1  0  0  0  0
 27 28  1  0  0  0  0
 27 45  1  0  0  0  0
M  END
$$$$
