CHEMBL46642
 OpenBabel04072215383D

 42 45  0  0  0  0  0  0  0  0999 V2000
   -4.4613   -2.2420   -1.7291 C   0  0  0  0  0  0  0  0  0  0  0  0
   -3.4353   -3.2247   -1.2483 C   0  0  0  0  0  0  0  0  0  0  0  0
   -3.7110   -4.5982   -1.2200 C   0  0  0  0  0  0  0  0  0  0  0  0
   -2.7440   -5.5082   -0.7835 C   0  0  0  0  0  0  0  0  0  0  0  0
   -3.0105   -6.9825   -0.7444 C   0  0  0  0  0  0  0  0  0  0  0  0
   -1.4891   -5.0301   -0.3909 C   0  0  0  0  0  0  0  0  0  0  0  0
   -1.1770   -3.6656   -0.4444 C   0  0  0  0  0  0  0  0  0  0  0  0
    0.0819   -3.1696   -0.0486 N   0  0  0  0  0  0  0  0  0  0  0  0
    1.2796   -3.8903   -0.0928 C   0  0  0  0  0  0  0  0  0  0  0  0
    1.5158   -4.7316   -1.1078 N   0  0  0  0  0  0  0  0  0  0  0  0
    2.6664   -5.4158   -1.0885 C   0  0  0  0  0  0  0  0  0  0  0  0
    3.5957   -5.2962   -0.0885 C   0  0  0  0  0  0  0  0  0  0  0  0
    3.2839   -4.4131    0.9276 C   0  0  0  0  0  0  0  0  0  0  0  0
    4.1726   -4.2627    2.0392 N   0  0  0  0  0  0  0  0  0  0  0  0
    5.3545   -4.9550    2.2401 C   0  0  0  0  0  0  0  0  0  0  0  0
    5.8550   -4.5304    3.4438 C   0  0  0  0  0  0  0  0  0  0  0  0
    5.0309   -3.6067    4.0057 N   0  0  0  0  0  0  0  0  0  0  0  0
    4.0326   -3.4386    3.1555 C   0  0  0  0  0  0  0  0  0  0  0  0
    2.9107   -2.4349    3.4545 C   0  0  0  0  0  0  0  0  0  0  0  0
    3.2346   -1.2327    4.3200 C   0  0  0  0  0  0  0  0  0  0  0  0
    2.4088   -2.3376    4.8819 C   0  0  0  0  0  0  0  0  0  0  0  0
    2.1355   -3.7015    0.9204 N   0  0  0  0  0  0  0  0  0  0  0  0
   -2.1735   -2.7680   -0.8395 C   0  0  0  0  0  0  0  0  0  0  0  0
   -5.3849   -2.7435   -2.0358 H   0  0  0  0  0  0  0  0  0  0  0  0
   -4.0777   -1.6915   -2.5950 H   0  0  0  0  0  0  0  0  0  0  0  0
   -4.7103   -1.5349   -0.9329 H   0  0  0  0  0  0  0  0  0  0  0  0
   -4.6837   -4.9613   -1.5454 H   0  0  0  0  0  0  0  0  0  0  0  0
   -4.0274   -7.2173   -1.0739 H   0  0  0  0  0  0  0  0  0  0  0  0
   -2.8887   -7.3607    0.2760 H   0  0  0  0  0  0  0  0  0  0  0  0
   -2.3125   -7.5072   -1.4052 H   0  0  0  0  0  0  0  0  0  0  0  0
   -0.7426   -5.7433   -0.0484 H   0  0  0  0  0  0  0  0  0  0  0  0
    0.0433   -2.6947    0.8447 H   0  0  0  0  0  0  0  0  0  0  0  0
    2.8148   -6.0919   -1.9260 H   0  0  0  0  0  0  0  0  0  0  0  0
    4.4996   -5.8855   -0.1345 H   0  0  0  0  0  0  0  0  0  0  0  0
    5.7431   -5.6855    1.5489 H   0  0  0  0  0  0  0  0  0  0  0  0
    6.7656   -4.8504    3.9337 H   0  0  0  0  0  0  0  0  0  0  0  0
    2.1698   -2.2772    2.6844 H   0  0  0  0  0  0  0  0  0  0  0  0
    2.7442   -0.2966    4.0817 H   0  0  0  0  0  0  0  0  0  0  0  0
    4.2456   -1.1181    4.6954 H   0  0  0  0  0  0  0  0  0  0  0  0
    1.3485   -2.1661    5.0257 H   0  0  0  0  0  0  0  0  0  0  0  0
    2.8592   -2.9739    5.6357 H   0  0  0  0  0  0  0  0  0  0  0  0
   -1.9509   -1.7035   -0.8713 H   0  0  0  0  0  0  0  0  0  0  0  0
  1  2  1  0  0  0  0
  1 24  1  0  0  0  0
  1 25  1  0  0  0  0
  1 26  1  0  0  0  0
  2  3  1  0  0  0  0
  2 23  2  0  0  0  0
  3  4  2  0  0  0  0
  3 27  1  0  0  0  0
  4  5  1  0  0  0  0
  4  6  1  0  0  0  0
  5 28  1  0  0  0  0
  5 29  1  0  0  0  0
  5 30  1  0  0  0  0
  6  7  2  0  0  0  0
  6 31  1  0  0  0  0
  7  8  1  0  0  0  0
  7 23  1  0  0  0  0
  8  9  1  0  0  0  0
  8 32  1  0  0  0  0
  9 10  1  0  0  0  0
  9 22  2  0  0  0  0
 10 11  2  0  0  0  0
 11 12  1  0  0  0  0
 11 33  1  0  0  0  0
 12 13  2  0  0  0  0
 12 34  1  0  0  0  0
 13 14  1  0  0  0  0
 13 22  1  0  0  0  0
 14 15  1  0  0  0  0
 14 18  1  0  0  0  0
 15 16  2  0  0  0  0
 15 35  1  0  0  0  0
 16 17  1  0  0  0  0
 16 36  1  0  0  0  0
 17 18  2  0  0  0  0
 18 19  1  0  0  0  0
 19 20  1  0  0  0  0
 19 21  1  0  0  0  0
 19 37  1  0  0  0  0
 20 21  1  0  0  0  0
 20 38  1  0  0  0  0
 20 39  1  0  0  0  0
 21 40  1  0  0  0  0
 21 41  1  0  0  0  0
 23 42  1  0  0  0  0
M  END
$$$$
