CHEMBL4570460
 OpenBabel04072215383D

 56 58  0  0  0  0  0  0  0  0999 V2000
   -0.8841   -5.2021    2.2763 C   0  0  0  0  0  0  0  0  0  0  0  0
   -0.6742   -3.8795    2.3259 C   0  0  0  0  0  0  0  0  0  0  0  0
    0.5654   -3.2296    2.8765 C   0  0  0  0  0  0  0  0  0  0  0  0
    1.1725   -2.3061    1.9138 N   0  0  0  0  0  0  0  0  0  0  0  0
    1.7425   -2.9727    0.7289 C   0  0  0  0  0  0  0  0  0  0  0  0
    3.0717   -3.7229    0.9521 C   0  0  0  0  0  0  0  0  0  0  0  0
    4.0955   -2.9050    1.6377 N   0  0  0  0  0  0  0  0  0  0  0  0
    5.4811   -3.0458    1.4296 C   0  0  0  0  0  0  0  0  0  0  0  0
    6.6797   -2.2225    2.2833 S   0  0  0  0  0  0  0  0  0  0  0  0
    5.9677   -4.0858    0.0830 S   0  0  0  0  0  0  0  0  0  0  0  0
    6.9773   -5.3265    0.9476 C   0  0  0  0  0  0  0  0  0  0  0  0
    7.3872   -6.4758    0.0359 C   0  0  0  0  0  0  0  0  0  0  0  0
    7.5644   -7.5876    0.5280 O   0  0  0  0  0  0  0  0  0  0  0  0
    7.6227   -6.1292   -1.2920 N   0  0  0  0  0  0  0  0  0  0  0  0
    7.9624   -7.0168   -2.3403 C   0  0  0  0  0  0  0  0  0  0  0  0
    7.8429   -8.3971   -2.1919 C   0  0  0  0  0  0  0  0  0  0  0  0
    8.2522   -9.2530   -3.2017 C   0  0  0  0  0  0  0  0  0  0  0  0
    8.7659   -8.7344   -4.3852 C   0  0  0  0  0  0  0  0  0  0  0  0
    8.8370   -7.3584   -4.5986 C   0  0  0  0  0  0  0  0  0  0  0  0
    9.3144   -6.8140   -5.8225 N   0  0  0  0  0  0  0  0  0  0  0  0
    9.7990   -7.5362   -6.9090 C   0  0  0  0  0  0  0  0  0  0  0  0
    9.9567   -8.7514   -6.9730 O   0  0  0  0  0  0  0  0  0  0  0  0
   10.1543   -6.7265   -8.1168 C   0  0  0  0  0  0  0  0  0  0  0  0
   10.6501   -7.3833   -9.2434 C   0  0  0  0  0  0  0  0  0  0  0  0
   10.9435   -6.6335  -10.3757 C   0  0  0  0  0  0  0  0  0  0  0  0
   10.7350   -5.2612  -10.3453 C   0  0  0  0  0  0  0  0  0  0  0  0
   10.2469   -4.6881   -9.1772 C   0  0  0  0  0  0  0  0  0  0  0  0
    9.9487   -5.3825   -8.0516 N   0  0  0  0  0  0  0  0  0  0  0  0
    8.4264   -6.4959   -3.5672 C   0  0  0  0  0  0  0  0  0  0  0  0
    3.5641   -2.1747    2.8085 C   0  0  0  0  0  0  0  0  0  0  0  0
    2.2175   -1.4716    2.5356 C   0  0  0  0  0  0  0  0  0  0  0  0
   -1.8103   -5.6005    1.8719 H   0  0  0  0  0  0  0  0  0  0  0  0
   -0.1472   -5.9134    2.6348 H   0  0  0  0  0  0  0  0  0  0  0  0
   -1.4486   -3.2090    1.9599 H   0  0  0  0  0  0  0  0  0  0  0  0
    1.2793   -3.9786    3.2371 H   0  0  0  0  0  0  0  0  0  0  0  0
    0.2360   -2.6588    3.7549 H   0  0  0  0  0  0  0  0  0  0  0  0
    1.9193   -2.1939   -0.0253 H   0  0  0  0  0  0  0  0  0  0  0  0
    1.0160   -3.6520    0.2686 H   0  0  0  0  0  0  0  0  0  0  0  0
    3.4151   -4.0555   -0.0289 H   0  0  0  0  0  0  0  0  0  0  0  0
    2.9148   -4.6182    1.5648 H   0  0  0  0  0  0  0  0  0  0  0  0
    6.3916   -5.7522    1.7714 H   0  0  0  0  0  0  0  0  0  0  0  0
    7.8931   -4.8863    1.3530 H   0  0  0  0  0  0  0  0  0  0  0  0
    7.5876   -5.1400   -1.5123 H   0  0  0  0  0  0  0  0  0  0  0  0
    7.4195   -8.8484   -1.3008 H   0  0  0  0  0  0  0  0  0  0  0  0
    8.1792  -10.3284   -3.0684 H   0  0  0  0  0  0  0  0  0  0  0  0
    9.0876   -9.4577   -5.1266 H   0  0  0  0  0  0  0  0  0  0  0  0
    9.2936   -5.8061   -5.9522 H   0  0  0  0  0  0  0  0  0  0  0  0
   10.7956   -8.4596   -9.2412 H   0  0  0  0  0  0  0  0  0  0  0  0
   11.3247   -7.1205  -11.2698 H   0  0  0  0  0  0  0  0  0  0  0  0
   10.9473   -4.6502  -11.2162 H   0  0  0  0  0  0  0  0  0  0  0  0
   10.0749   -3.6170   -9.1203 H   0  0  0  0  0  0  0  0  0  0  0  0
    8.4914   -5.4211   -3.7072 H   0  0  0  0  0  0  0  0  0  0  0  0
    4.2662   -1.4113    3.1519 H   0  0  0  0  0  0  0  0  0  0  0  0
    3.4587   -2.9061    3.6186 H   0  0  0  0  0  0  0  0  0  0  0  0
    2.4064   -0.6260    1.8610 H   0  0  0  0  0  0  0  0  0  0  0  0
    1.8452   -1.0235    3.4653 H   0  0  0  0  0  0  0  0  0  0  0  0
  1  2  2  0  0  0  0
  1 32  1  0  0  0  0
  1 33  1  0  0  0  0
  2  3  1  0  0  0  0
  2 34  1  0  0  0  0
  3  4  1  0  0  0  0
  3 35  1  0  0  0  0
  3 36  1  0  0  0  0
  4  5  1  0  0  0  0
  4 31  1  0  0  0  0
  5  6  1  0  0  0  0
  5 37  1  0  0  0  0
  5 38  1  0  0  0  0
  6  7  1  0  0  0  0
  6 39  1  0  0  0  0
  6 40  1  0  0  0  0
  7  8  1  0  0  0  0
  7 30  1  0  0  0  0
  8  9  2  0  0  0  0
  8 10  1  0  0  0  0
 10 11  1  0  0  0  0
 11 12  1  0  0  0  0
 11 41  1  0  0  0  0
 11 42  1  0  0  0  0
 12 13  2  0  0  0  0
 12 14  1  0  0  0  0
 14 15  1  0  0  0  0
 14 43  1  0  0  0  0
 15 16  1  0  0  0  0
 15 29  2  0  0  0  0
 16 17  2  0  0  0  0
 16 44  1  0  0  0  0
 17 18  1  0  0  0  0
 17 45  1  0  0  0  0
 18 19  2  0  0  0  0
 18 46  1  0  0  0  0
 19 20  1  0  0  0  0
 19 29  1  0  0  0  0
 20 21  1  0  0  0  0
 20 47  1  0  0  0  0
 21 22  2  0  0  0  0
 21 23  1  0  0  0  0
 23 24  1  0  0  0  0
 23 28  2  0  0  0  0
 24 25  2  0  0  0  0
 24 48  1  0  0  0  0
 25 26  1  0  0  0  0
 25 49  1  0  0  0  0
 26 27  2  0  0  0  0
 26 50  1  0  0  0  0
 27 28  1  0  0  0  0
 27 51  1  0  0  0  0
 29 52  1  0  0  0  0
 30 31  1  0  0  0  0
 30 53  1  0  0  0  0
 30 54  1  0  0  0  0
 31 55  1  0  0  0  0
 31 56  1  0  0  0  0
M  END
$$$$
