CHEMBL1290361
 OpenBabel04072215363D

 50 53  0  0  0  0  0  0  0  0999 V2000
    5.6891   -0.7776   -0.6404 C   0  0  0  0  0  0  0  0  0  0  0  0
    4.5267   -0.4201    0.2149 C   0  0  0  0  0  0  0  0  0  0  0  0
    4.5142    0.5775    1.0705 N   0  0  0  0  0  0  0  0  0  0  0  0
    3.2831    0.5415    1.6705 C   0  0  0  0  0  0  0  0  0  0  0  0
    2.7727    1.3513    2.6949 C   0  0  0  0  0  0  0  0  0  0  0  0
    1.4728    1.1176    3.1580 C   0  0  0  0  0  0  0  0  0  0  0  0
    0.6869    0.1119    2.5963 C   0  0  0  0  0  0  0  0  0  0  0  0
    1.1816   -0.7094    1.5777 C   0  0  0  0  0  0  0  0  0  0  0  0
    2.4971   -0.4824    1.1474 C   0  0  0  0  0  0  0  0  0  0  0  0
    3.3331   -1.1218    0.2574 N   0  0  0  0  0  0  0  0  0  0  0  0
    3.1043   -2.4139   -0.3667 C   0  0  0  0  0  0  0  0  0  0  0  0
    2.9749   -3.5426    0.6599 C   0  0  0  0  0  0  0  0  0  0  0  0
    2.9732   -4.8824   -0.0648 C   0  0  0  0  0  0  0  0  0  0  0  0
    1.9289   -4.9537   -1.0961 N   0  0  0  0  0  0  0  0  0  0  0  0
    1.9670   -6.2572   -1.8052 C   0  0  0  0  0  0  0  0  0  0  0  0
    3.2818   -6.4670   -2.5670 C   0  0  0  0  0  0  0  0  0  0  0  0
    3.5057   -5.8996   -3.6370 O   0  0  0  0  0  0  0  0  0  0  0  0
    4.1792   -7.3054   -1.9238 N   0  0  0  0  0  0  0  0  0  0  0  0
    5.4675   -7.5430   -2.4524 C   0  0  0  0  0  0  0  0  0  0  0  0
    6.2656   -6.4750   -2.8836 C   0  0  0  0  0  0  0  0  0  0  0  0
    7.5080   -6.7171   -3.4706 C   0  0  0  0  0  0  0  0  0  0  0  0
    7.9516   -8.0265   -3.6424 C   0  0  0  0  0  0  0  0  0  0  0  0
    7.1778   -9.0943   -3.1831 C   0  0  0  0  0  0  0  0  0  0  0  0
    5.9514   -8.8511   -2.5617 C   0  0  0  0  0  0  0  0  0  0  0  0
    4.9193  -10.3360   -1.9802 Br  0  0  0  0  0  0  0  0  0  0  0  0
    1.9622   -3.8300   -2.0499 C   0  0  0  0  0  0  0  0  0  0  0  0
    1.9266   -2.4761   -1.3409 C   0  0  0  0  0  0  0  0  0  0  0  0
    6.4785   -0.0253   -0.5428 H   0  0  0  0  0  0  0  0  0  0  0  0
    5.4027   -0.8260   -1.6950 H   0  0  0  0  0  0  0  0  0  0  0  0
    6.1096   -1.7416   -0.3388 H   0  0  0  0  0  0  0  0  0  0  0  0
    3.3920    2.1300    3.1268 H   0  0  0  0  0  0  0  0  0  0  0  0
    1.0738    1.7262    3.9656 H   0  0  0  0  0  0  0  0  0  0  0  0
   -0.3252   -0.0459    2.9625 H   0  0  0  0  0  0  0  0  0  0  0  0
    0.5613   -1.4948    1.1613 H   0  0  0  0  0  0  0  0  0  0  0  0
    4.0059   -2.6207   -0.9570 H   0  0  0  0  0  0  0  0  0  0  0  0
    2.0537   -3.4418    1.2461 H   0  0  0  0  0  0  0  0  0  0  0  0
    3.8083   -3.5121    1.3718 H   0  0  0  0  0  0  0  0  0  0  0  0
    2.8119   -5.6759    0.6750 H   0  0  0  0  0  0  0  0  0  0  0  0
    3.9717   -5.0320   -0.4912 H   0  0  0  0  0  0  0  0  0  0  0  0
    1.1430   -6.3265   -2.5254 H   0  0  0  0  0  0  0  0  0  0  0  0
    1.8093   -7.0729   -1.0897 H   0  0  0  0  0  0  0  0  0  0  0  0
    3.7729   -8.0618   -1.3836 H   0  0  0  0  0  0  0  0  0  0  0  0
    5.9288   -5.4477   -2.7668 H   0  0  0  0  0  0  0  0  0  0  0  0
    8.1174   -5.8834   -3.8121 H   0  0  0  0  0  0  0  0  0  0  0  0
    8.8989   -8.2163   -4.1411 H   0  0  0  0  0  0  0  0  0  0  0  0
    7.5286  -10.1111   -3.3355 H   0  0  0  0  0  0  0  0  0  0  0  0
    1.1030   -3.8959   -2.7279 H   0  0  0  0  0  0  0  0  0  0  0  0
    2.8667   -3.8481   -2.6668 H   0  0  0  0  0  0  0  0  0  0  0  0
    0.9660   -2.3644   -0.8273 H   0  0  0  0  0  0  0  0  0  0  0  0
    1.9895   -1.6683   -2.0793 H   0  0  0  0  0  0  0  0  0  0  0  0
  1  2  1  0  0  0  0
  1 28  1  0  0  0  0
  1 29  1  0  0  0  0
  1 30  1  0  0  0  0
  2  3  2  0  0  0  0
  2 10  1  0  0  0  0
  3  4  1  0  0  0  0
  4  5  1  0  0  0  0
  4  9  2  0  0  0  0
  5  6  2  0  0  0  0
  5 31  1  0  0  0  0
  6  7  1  0  0  0  0
  6 32  1  0  0  0  0
  7  8  2  0  0  0  0
  7 33  1  0  0  0  0
  8  9  1  0  0  0  0
  8 34  1  0  0  0  0
  9 10  1  0  0  0  0
 10 11  1  0  0  0  0
 11 12  1  0  0  0  0
 11 27  1  0  0  0  0
 11 35  1  0  0  0  0
 12 13  1  0  0  0  0
 12 36  1  0  0  0  0
 12 37  1  0  0  0  0
 13 14  1  0  0  0  0
 13 38  1  0  0  0  0
 13 39  1  0  0  0  0
 14 15  1  0  0  0  0
 14 26  1  0  0  0  0
 15 16  1  0  0  0  0
 15 40  1  0  0  0  0
 15 41  1  0  0  0  0
 16 17  2  0  0  0  0
 16 18  1  0  0  0  0
 18 19  1  0  0  0  0
 18 42  1  0  0  0  0
 19 20  1  0  0  0  0
 19 24  2  0  0  0  0
 20 21  2  0  0  0  0
 20 43  1  0  0  0  0
 21 22  1  0  0  0  0
 21 44  1  0  0  0  0
 22 23  2  0  0  0  0
 22 45  1  0  0  0  0
 23 24  1  0  0  0  0
 23 46  1  0  0  0  0
 24 25  1  0  0  0  0
 26 27  1  0  0  0  0
 26 47  1  0  0  0  0
 26 48  1  0  0  0  0
 27 49  1  0  0  0  0
 27 50  1  0  0  0  0
M  END
$$$$
