CHEMBL3694645
 OpenBabel04072215373D

 59 63  0  0  0  0  0  0  0  0999 V2000
    6.1531   -0.2664    8.1957 C   0  0  0  0  0  0  0  0  0  0  0  0
    7.0475    0.3009    7.1612 C   0  0  0  0  0  0  0  0  0  0  0  0
    6.9231    1.4598    6.3976 C   0  0  0  0  0  0  0  0  0  0  0  0
    8.0196    1.4589    5.5844 N   0  0  0  0  0  0  0  0  0  0  0  0
    8.4337    2.2701    4.5663 N   0  0  0  0  0  0  0  0  0  0  0  0
    9.5230    1.7213    4.0967 C   0  0  0  0  0  0  0  0  0  0  0  0
   10.3272    2.1294    2.8877 C   0  0  0  0  0  0  0  0  0  0  0  0
   11.4962    1.3431    2.4872 C   0  0  0  0  0  0  0  0  0  0  0  0
   12.0095    1.4745    1.2616 C   0  0  0  0  0  0  0  0  0  0  0  0
   11.6017    2.5368    0.4653 N   0  0  0  0  0  0  0  0  0  0  0  0
   12.1856    3.0471   -0.6866 C   0  0  0  0  0  0  0  0  0  0  0  0
   13.4778    2.6089   -1.2474 C   0  0  0  0  0  0  0  0  0  0  0  0
   14.5463    2.3063   -0.3833 C   0  0  0  0  0  0  0  0  0  0  0  0
   15.7881    1.8651   -0.8432 C   0  0  0  0  0  0  0  0  0  0  0  0
   16.8362    1.4758    0.0335 N   0  0  0  0  0  0  0  0  0  0  0  0
   16.7215    1.2771    1.3876 C   0  0  0  0  0  0  0  0  0  0  0  0
   15.7102    1.3740    2.0717 O   0  0  0  0  0  0  0  0  0  0  0  0
   17.9342    0.9934    1.9798 N   0  0  0  0  0  0  0  0  0  0  0  0
   17.9641    0.7416    3.4344 C   0  0  0  0  0  0  0  0  0  0  0  0
   17.4227   -0.6143    3.9128 C   0  0  0  0  0  0  0  0  0  0  0  0
   17.1631   -1.4535    2.8829 F   0  0  0  0  0  0  0  0  0  0  0  0
   18.3469   -1.2289    4.6925 F   0  0  0  0  0  0  0  0  0  0  0  0
   16.2990   -0.4882    4.6479 F   0  0  0  0  0  0  0  0  0  0  0  0
   15.9969    1.8043   -2.2238 C   0  0  0  0  0  0  0  0  0  0  0  0
   14.9457    2.0924   -3.1074 C   0  0  0  0  0  0  0  0  0  0  0  0
   15.0162    1.9970   -4.4714 O   0  0  0  0  0  0  0  0  0  0  0  0
   15.9124    1.0383   -5.0515 C   0  0  0  0  0  0  0  0  0  0  0  0
   15.5813   -0.3942   -4.6280 C   0  0  0  0  0  0  0  0  0  0  0  0
   15.7358    1.1535   -6.5673 C   0  0  0  0  0  0  0  0  0  0  0  0
   13.6969    2.5100   -2.6197 C   0  0  0  0  0  0  0  0  0  0  0  0
   11.3744    4.1193   -1.0150 C   0  0  0  0  0  0  0  0  0  0  0  0
   10.3734    4.3171   -0.0869 N   0  0  0  0  0  0  0  0  0  0  0  0
   10.5628    3.3925    0.8315 C   0  0  0  0  0  0  0  0  0  0  0  0
    9.8903    3.1325    2.0777 C   0  0  0  0  0  0  0  0  0  0  0  0
   10.1006    0.2281    4.9307 S   0  0  0  0  0  0  0  0  0  0  0  0
    8.7273    0.3518    5.9093 C   0  0  0  0  0  0  0  0  0  0  0  0
    8.2010   -0.3864    6.8391 N   0  0  0  0  0  0  0  0  0  0  0  0
    5.3285    0.4078    8.4358 H   0  0  0  0  0  0  0  0  0  0  0  0
    6.7196   -0.4635    9.1121 H   0  0  0  0  0  0  0  0  0  0  0  0
    5.7361   -1.2183    7.8488 H   0  0  0  0  0  0  0  0  0  0  0  0
    6.1726    2.2334    6.3526 H   0  0  0  0  0  0  0  0  0  0  0  0
   11.9845    0.6575    3.1707 H   0  0  0  0  0  0  0  0  0  0  0  0
   12.8103    0.8360    0.9119 H   0  0  0  0  0  0  0  0  0  0  0  0
   14.3928    2.4458    0.6810 H   0  0  0  0  0  0  0  0  0  0  0  0
   17.7224    1.2592   -0.3941 H   0  0  0  0  0  0  0  0  0  0  0  0
   18.6088    0.4835    1.4109 H   0  0  0  0  0  0  0  0  0  0  0  0
   17.3997    1.5431    3.9236 H   0  0  0  0  0  0  0  0  0  0  0  0
   19.0096    0.8498    3.7395 H   0  0  0  0  0  0  0  0  0  0  0  0
   16.9699    1.5143   -2.6051 H   0  0  0  0  0  0  0  0  0  0  0  0
   16.9514    1.2940   -4.8115 H   0  0  0  0  0  0  0  0  0  0  0  0
   14.5313   -0.6277   -4.8350 H   0  0  0  0  0  0  0  0  0  0  0  0
   15.7299   -0.5470   -3.5553 H   0  0  0  0  0  0  0  0  0  0  0  0
   16.2142   -1.1159   -5.1536 H   0  0  0  0  0  0  0  0  0  0  0  0
   14.7024    0.9261   -6.8556 H   0  0  0  0  0  0  0  0  0  0  0  0
   16.4025    0.4690   -7.1011 H   0  0  0  0  0  0  0  0  0  0  0  0
   15.9372    2.1750   -6.9062 H   0  0  0  0  0  0  0  0  0  0  0  0
   12.9019    2.7398   -3.3260 H   0  0  0  0  0  0  0  0  0  0  0  0
   11.5067    4.8018   -1.8449 H   0  0  0  0  0  0  0  0  0  0  0  0
    9.0184    3.7314    2.3159 H   0  0  0  0  0  0  0  0  0  0  0  0
  1  2  1  0  0  0  0
  1 38  1  0  0  0  0
  1 39  1  0  0  0  0
  1 40  1  0  0  0  0
  2  3  2  0  0  0  0
  2 37  1  0  0  0  0
  3  4  1  0  0  0  0
  3 41  1  0  0  0  0
  4  5  1  0  0  0  0
  4 36  1  0  0  0  0
  5  6  2  0  0  0  0
  6  7  1  0  0  0  0
  6 35  1  0  0  0  0
  7  8  1  0  0  0  0
  7 34  2  0  0  0  0
  8  9  2  0  0  0  0
  8 42  1  0  0  0  0
  9 10  1  0  0  0  0
  9 43  1  0  0  0  0
 10 11  1  0  0  0  0
 10 33  1  0  0  0  0
 11 12  1  0  0  0  0
 11 31  2  0  0  0  0
 12 13  1  0  0  0  0
 12 30  2  0  0  0  0
 13 14  2  0  0  0  0
 13 44  1  0  0  0  0
 14 15  1  0  0  0  0
 14 24  1  0  0  0  0
 15 16  1  0  0  0  0
 15 45  1  0  0  0  0
 16 17  2  0  0  0  0
 16 18  1  0  0  0  0
 18 19  1  0  0  0  0
 18 46  1  0  0  0  0
 19 20  1  0  0  0  0
 19 47  1  0  0  0  0
 19 48  1  0  0  0  0
 20 21  1  0  0  0  0
 20 22  1  0  0  0  0
 20 23  1  0  0  0  0
 24 25  2  0  0  0  0
 24 49  1  0  0  0  0
 25 26  1  0  0  0  0
 25 30  1  0  0  0  0
 26 27  1  0  0  0  0
 27 28  1  0  0  0  0
 27 29  1  0  0  0  0
 27 50  1  0  0  0  0
 28 51  1  0  0  0  0
 28 52  1  0  0  0  0
 28 53  1  0  0  0  0
 29 54  1  0  0  0  0
 29 55  1  0  0  0  0
 29 56  1  0  0  0  0
 30 57  1  0  0  0  0
 31 32  1  0  0  0  0
 31 58  1  0  0  0  0
 32 33  2  0  0  0  0
 33 34  1  0  0  0  0
 34 59  1  0  0  0  0
 35 36  1  0  0  0  0
 36 37  2  0  0  0  0
M  END
$$$$
