CHEMBL3752008
 OpenBabel04072215373D

 38 40  0  0  0  0  0  0  0  0999 V2000
    2.6079    0.6638   -1.2975 O   0  0  0  0  0  0  0  0  0  0  0  0
    2.2314    0.4833   -0.1471 C   0  0  0  0  0  0  0  0  0  0  0  0
    0.8977    0.4204    0.2298 N   0  0  0  0  0  0  0  0  0  0  0  0
   -0.2141    0.5727   -0.6349 C   0  0  0  0  0  0  0  0  0  0  0  0
   -0.1298    0.5243   -2.0248 C   0  0  0  0  0  0  0  0  0  0  0  0
   -1.2783    0.7379   -2.7694 C   0  0  0  0  0  0  0  0  0  0  0  0
   -2.4892    0.9828   -2.2292 N   0  0  0  0  0  0  0  0  0  0  0  0
   -2.5528    1.0064   -0.8829 C   0  0  0  0  0  0  0  0  0  0  0  0
   -1.4611    0.7992   -0.0529 C   0  0  0  0  0  0  0  0  0  0  0  0
    3.0756    0.3634    0.9498 N   0  0  0  0  0  0  0  0  0  0  0  0
    4.4789    0.5468    0.9577 C   0  0  0  0  0  0  0  0  0  0  0  0
    5.2192    0.8870   -0.1823 C   0  0  0  0  0  0  0  0  0  0  0  0
    6.6051    1.1251   -0.1476 C   0  0  0  0  0  0  0  0  0  0  0  0
    7.3289    1.5402   -1.3645 C   0  0  0  0  0  0  0  0  0  0  0  0
    6.7683    2.3464   -2.3464 C   0  0  0  0  0  0  0  0  0  0  0  0
    7.4016    2.7597   -3.4671 N   0  0  0  0  0  0  0  0  0  0  0  0
    8.6631    2.3369   -3.6078 C   0  0  0  0  0  0  0  0  0  0  0  0
    9.3268    1.5542   -2.7472 N   0  0  0  0  0  0  0  0  0  0  0  0
    8.6355    1.1738   -1.6480 C   0  0  0  0  0  0  0  0  0  0  0  0
    7.2507    0.9818    1.0898 C   0  0  0  0  0  0  0  0  0  0  0  0
    6.5410    0.6368    2.2536 C   0  0  0  0  0  0  0  0  0  0  0  0
    7.2473    0.5350    3.5842 C   0  0  0  0  0  0  0  0  0  0  0  0
    8.5870    0.7673    3.5099 F   0  0  0  0  0  0  0  0  0  0  0  0
    6.7631    1.4255    4.4932 F   0  0  0  0  0  0  0  0  0  0  0  0
    7.1105   -0.6933    4.1537 F   0  0  0  0  0  0  0  0  0  0  0  0
    5.1537    0.4191    2.1738 C   0  0  0  0  0  0  0  0  0  0  0  0
    0.7011    0.4553    1.2177 H   0  0  0  0  0  0  0  0  0  0  0  0
    0.7929    0.3227   -2.5545 H   0  0  0  0  0  0  0  0  0  0  0  0
   -1.2472    0.7186   -3.8558 H   0  0  0  0  0  0  0  0  0  0  0  0
   -3.5372    1.2122   -0.4729 H   0  0  0  0  0  0  0  0  0  0  0  0
   -1.5954    0.8443    1.0210 H   0  0  0  0  0  0  0  0  0  0  0  0
    2.6511    0.1026    1.8253 H   0  0  0  0  0  0  0  0  0  0  0  0
    4.7213    0.9742   -1.1422 H   0  0  0  0  0  0  0  0  0  0  0  0
    5.7485    2.7164   -2.2627 H   0  0  0  0  0  0  0  0  0  0  0  0
    9.1937    2.6565   -4.4977 H   0  0  0  0  0  0  0  0  0  0  0  0
    9.1999    0.5273   -0.9814 H   0  0  0  0  0  0  0  0  0  0  0  0
    8.3222    1.1686    1.1679 H   0  0  0  0  0  0  0  0  0  0  0  0
    4.6099    0.1661    3.0827 H   0  0  0  0  0  0  0  0  0  0  0  0
  1  2  2  0  0  0  0
  2  3  1  0  0  0  0
  2 10  1  0  0  0  0
  3  4  1  0  0  0  0
  3 27  1  0  0  0  0
  4  5  1  0  0  0  0
  4  9  2  0  0  0  0
  5  6  2  0  0  0  0
  5 28  1  0  0  0  0
  6  7  1  0  0  0  0
  6 29  1  0  0  0  0
  7  8  2  0  0  0  0
  8  9  1  0  0  0  0
  8 30  1  0  0  0  0
  9 31  1  0  0  0  0
 10 11  1  0  0  0  0
 10 32  1  0  0  0  0
 11 12  1  0  0  0  0
 11 26  2  0  0  0  0
 12 13  2  0  0  0  0
 12 33  1  0  0  0  0
 13 14  1  0  0  0  0
 13 20  1  0  0  0  0
 14 15  1  0  0  0  0
 14 19  2  0  0  0  0
 15 16  2  0  0  0  0
 15 34  1  0  0  0  0
 16 17  1  0  0  0  0
 17 18  2  0  0  0  0
 17 35  1  0  0  0  0
 18 19  1  0  0  0  0
 19 36  1  0  0  0  0
 20 21  2  0  0  0  0
 20 37  1  0  0  0  0
 21 22  1  0  0  0  0
 21 26  1  0  0  0  0
 22 23  1  0  0  0  0
 22 24  1  0  0  0  0
 22 25  1  0  0  0  0
 26 38  1  0  0  0  0
M  END
$$$$
