CHEMBL3935177
 OpenBabel04072215373D

 60 63  0  0  0  0  0  0  0  0999 V2000
    0.9241    0.3752    1.3957 C   0  0  0  0  0  0  0  0  0  0  0  0
    2.3455    0.3592    1.3542 O   0  0  0  0  0  0  0  0  0  0  0  0
    2.9669    1.3928    0.7051 C   0  0  0  0  0  0  0  0  0  0  0  0
    2.3325    2.4669    0.0868 C   0  0  0  0  0  0  0  0  0  0  0  0
    3.1106    3.4318   -0.5399 C   0  0  0  0  0  0  0  0  0  0  0  0
    2.5417    4.5110   -1.1566 O   0  0  0  0  0  0  0  0  0  0  0  0
    4.5024    3.3422   -0.5542 C   0  0  0  0  0  0  0  0  0  0  0  0
    5.1772    2.2881    0.0882 C   0  0  0  0  0  0  0  0  0  0  0  0
    6.5973    2.2529    0.1356 N   0  0  0  0  0  0  0  0  0  0  0  0
    7.2614    0.9256    0.0920 C   0  0  0  0  0  0  0  0  0  0  0  0
    8.3942    0.7558    1.1192 C   0  0  0  0  0  0  0  0  0  0  0  0
    7.9672    0.8205    2.5877 C   0  0  0  0  0  0  0  0  0  0  0  0
    9.1888    0.6643    3.3836 N   0  0  0  0  0  0  0  0  0  0  0  0
    8.9570    0.6819    4.8428 C   0  0  0  0  0  0  0  0  0  0  0  0
   10.2329    0.5662    5.7171 C   0  0  0  0  0  0  0  0  0  0  0  0
   11.3642    0.5522    4.9734 F   0  0  0  0  0  0  0  0  0  0  0  0
   10.3305    1.6166    6.5664 F   0  0  0  0  0  0  0  0  0  0  0  0
   10.2194   -0.5608    6.4635 F   0  0  0  0  0  0  0  0  0  0  0  0
    7.4452    3.3892    0.0681 C   0  0  0  0  0  0  0  0  0  0  0  0
    8.6446    3.3983   -0.6533 C   0  0  0  0  0  0  0  0  0  0  0  0
    9.5300    4.4730   -0.5591 C   0  0  0  0  0  0  0  0  0  0  0  0
    9.2266    5.5846    0.2049 C   0  0  0  0  0  0  0  0  0  0  0  0
   10.1201    6.5820    0.2899 N   0  0  0  0  0  0  0  0  0  0  0  0
    9.7468    7.6511    1.0316 C   0  0  0  0  0  0  0  0  0  0  0  0
    8.5174    7.7376    1.6690 C   0  0  0  0  0  0  0  0  0  0  0  0
    8.1152    8.9290    2.3905 C   0  0  0  0  0  0  0  0  0  0  0  0
    8.7777   10.1629    2.5887 C   0  0  0  0  0  0  0  0  0  0  0  0
    8.0556   11.0325    3.2930 N   0  0  0  0  0  0  0  0  0  0  0  0
    6.9156   10.3651    3.5413 N   0  0  0  0  0  0  0  0  0  0  0  0
    5.8481   11.0075    4.2701 C   0  0  0  0  0  0  0  0  0  0  0  0
    6.9040    9.1001    3.0314 C   0  0  0  0  0  0  0  0  0  0  0  0
    7.6288    6.7191    1.6073 N   0  0  0  0  0  0  0  0  0  0  0  0
    7.9837    5.6395    0.8786 C   0  0  0  0  0  0  0  0  0  0  0  0
    7.1299    4.5464    0.8016 C   0  0  0  0  0  0  0  0  0  0  0  0
    4.3710    1.3167    0.7058 C   0  0  0  0  0  0  0  0  0  0  0  0
    0.5958   -0.5403    1.8985 H   0  0  0  0  0  0  0  0  0  0  0  0
    0.4931    0.3714    0.3890 H   0  0  0  0  0  0  0  0  0  0  0  0
    0.5591    1.2262    1.9795 H   0  0  0  0  0  0  0  0  0  0  0  0
    1.2545    2.5647    0.0874 H   0  0  0  0  0  0  0  0  0  0  0  0
    1.5818    4.4908   -1.0136 H   0  0  0  0  0  0  0  0  0  0  0  0
    5.0575    4.1157   -1.0794 H   0  0  0  0  0  0  0  0  0  0  0  0
    7.6738    0.7719   -0.9141 H   0  0  0  0  0  0  0  0  0  0  0  0
    6.5641    0.0921    0.2206 H   0  0  0  0  0  0  0  0  0  0  0  0
    9.1838    1.4960    0.9525 H   0  0  0  0  0  0  0  0  0  0  0  0
    8.8692   -0.2161    0.9312 H   0  0  0  0  0  0  0  0  0  0  0  0
    7.2658    0.0074    2.8048 H   0  0  0  0  0  0  0  0  0  0  0  0
    7.4786    1.7739    2.8150 H   0  0  0  0  0  0  0  0  0  0  0  0
    9.8547    1.4050    3.1482 H   0  0  0  0  0  0  0  0  0  0  0  0
    8.2887   -0.1461    5.1063 H   0  0  0  0  0  0  0  0  0  0  0  0
    8.4444    1.6121    5.1152 H   0  0  0  0  0  0  0  0  0  0  0  0
    8.9331    2.5578   -1.2781 H   0  0  0  0  0  0  0  0  0  0  0  0
   10.4819    4.4348   -1.0831 H   0  0  0  0  0  0  0  0  0  0  0  0
   10.4840    8.4432    1.0822 H   0  0  0  0  0  0  0  0  0  0  0  0
    9.7572   10.4722    2.2433 H   0  0  0  0  0  0  0  0  0  0  0  0
    6.1713   11.9969    4.5919 H   0  0  0  0  0  0  0  0  0  0  0  0
    5.6052   10.3934    5.1394 H   0  0  0  0  0  0  0  0  0  0  0  0
    4.9862   11.0938    3.6049 H   0  0  0  0  0  0  0  0  0  0  0  0
    6.0549    8.4389    3.1524 H   0  0  0  0  0  0  0  0  0  0  0  0
    6.2024    4.5876    1.3690 H   0  0  0  0  0  0  0  0  0  0  0  0
    4.8163    0.4867    1.2457 H   0  0  0  0  0  0  0  0  0  0  0  0
  1  2  1  0  0  0  0
  1 36  1  0  0  0  0
  1 37  1  0  0  0  0
  1 38  1  0  0  0  0
  2  3  1  0  0  0  0
  3  4  1  0  0  0  0
  3 35  2  0  0  0  0
  4  5  2  0  0  0  0
  4 39  1  0  0  0  0
  5  6  1  0  0  0  0
  5  7  1  0  0  0  0
  6 40  1  0  0  0  0
  7  8  2  0  0  0  0
  7 41  1  0  0  0  0
  8  9  1  0  0  0  0
  8 35  1  0  0  0  0
  9 10  1  0  0  0  0
  9 19  1  0  0  0  0
 10 11  1  0  0  0  0
 10 42  1  0  0  0  0
 10 43  1  0  0  0  0
 11 12  1  0  0  0  0
 11 44  1  0  0  0  0
 11 45  1  0  0  0  0
 12 13  1  0  0  0  0
 12 46  1  0  0  0  0
 12 47  1  0  0  0  0
 13 14  1  0  0  0  0
 13 48  1  0  0  0  0
 14 15  1  0  0  0  0
 14 49  1  0  0  0  0
 14 50  1  0  0  0  0
 15 16  1  0  0  0  0
 15 17  1  0  0  0  0
 15 18  1  0  0  0  0
 19 20  1  0  0  0  0
 19 34  2  0  0  0  0
 20 21  2  0  0  0  0
 20 51  1  0  0  0  0
 21 22  1  0  0  0  0
 21 52  1  0  0  0  0
 22 23  1  0  0  0  0
 22 33  2  0  0  0  0
 23 24  2  0  0  0  0
 24 25  1  0  0  0  0
 24 53  1  0  0  0  0
 25 26  1  0  0  0  0
 25 32  2  0  0  0  0
 26 27  1  0  0  0  0
 26 31  2  0  0  0  0
 27 28  2  0  0  0  0
 27 54  1  0  0  0  0
 28 29  1  0  0  0  0
 29 30  1  0  0  0  0
 29 31  1  0  0  0  0
 30 55  1  0  0  0  0
 30 56  1  0  0  0  0
 30 57  1  0  0  0  0
 31 58  1  0  0  0  0
 32 33  1  0  0  0  0
 33 34  1  0  0  0  0
 34 59  1  0  0  0  0
 35 60  1  0  0  0  0
M  END
$$$$
