CHEMBL3694655
 OpenBabel04072215373D

 53 56  0  0  0  0  0  0  0  0999 V2000
    5.4066    3.0760   -0.0553 O   0  0  0  0  0  0  0  0  0  0  0  0
    6.2773    2.9397    0.7919 C   0  0  0  0  0  0  0  0  0  0  0  0
    6.9260    4.0319    1.3333 N   0  0  0  0  0  0  0  0  0  0  0  0
    6.6711    5.3549    0.7488 C   0  0  0  0  0  0  0  0  0  0  0  0
    7.5059    5.6828   -0.4971 C   0  0  0  0  0  0  0  0  0  0  0  0
    8.3848    4.6947   -0.7884 F   0  0  0  0  0  0  0  0  0  0  0  0
    6.7436    5.9029   -1.5866 F   0  0  0  0  0  0  0  0  0  0  0  0
    8.2396    6.8030   -0.2798 F   0  0  0  0  0  0  0  0  0  0  0  0
    6.7294    1.7624    1.3387 N   0  0  0  0  0  0  0  0  0  0  0  0
    6.2858    0.4564    1.0331 C   0  0  0  0  0  0  0  0  0  0  0  0
    5.2547    0.1739    0.1403 C   0  0  0  0  0  0  0  0  0  0  0  0
    4.8436   -1.1428   -0.0693 C   0  0  0  0  0  0  0  0  0  0  0  0
    5.4661   -2.1915    0.6072 C   0  0  0  0  0  0  0  0  0  0  0  0
    6.5298   -1.9432    1.4833 C   0  0  0  0  0  0  0  0  0  0  0  0
    7.2412   -3.0693    2.1038 C   0  0  0  0  0  0  0  0  0  0  0  0
    7.4886   -4.3352    1.5881 C   0  0  0  0  0  0  0  0  0  0  0  0
    8.2744   -5.0911    2.4135 N   0  0  0  0  0  0  0  0  0  0  0  0
    8.5223   -4.3188    3.4457 C   0  0  0  0  0  0  0  0  0  0  0  0
    9.3177   -4.5541    4.6031 C   0  0  0  0  0  0  0  0  0  0  0  0
    9.4081   -3.6142    5.5648 C   0  0  0  0  0  0  0  0  0  0  0  0
   10.1862   -3.8451    6.7306 C   0  0  0  0  0  0  0  0  0  0  0  0
   10.8167   -4.0492    7.7280 C   0  0  0  0  0  0  0  0  0  0  0  0
   11.5330   -4.3212    8.9242 C   0  0  0  0  0  0  0  0  0  0  0  0
   12.1057   -3.3820    9.6514 N   0  0  0  0  0  0  0  0  0  0  0  0
   12.6595   -4.0315   10.7247 C   0  0  0  0  0  0  0  0  0  0  0  0
   12.4322   -5.3838   10.6442 C   0  0  0  0  0  0  0  0  0  0  0  0
   11.7127   -5.5554    9.4923 N   0  0  0  0  0  0  0  0  0  0  0  0
   11.1985   -6.8222    9.0071 C   0  0  0  0  0  0  0  0  0  0  0  0
   12.1463   -7.5214    8.0373 C   0  0  0  0  0  0  0  0  0  0  0  0
   13.3840   -7.8561    8.6568 O   0  0  0  0  0  0  0  0  0  0  0  0
    8.6773   -2.3594    5.4510 C   0  0  0  0  0  0  0  0  0  0  0  0
    7.9162   -2.1372    4.3670 C   0  0  0  0  0  0  0  0  0  0  0  0
    7.8669   -3.0905    3.3456 N   0  0  0  0  0  0  0  0  0  0  0  0
    6.9328   -0.6100    1.6740 C   0  0  0  0  0  0  0  0  0  0  0  0
    7.8696    3.8686    1.6547 H   0  0  0  0  0  0  0  0  0  0  0  0
    6.8816    6.0840    1.5371 H   0  0  0  0  0  0  0  0  0  0  0  0
    5.6053    5.4398    0.5058 H   0  0  0  0  0  0  0  0  0  0  0  0
    7.4136    1.8463    2.0744 H   0  0  0  0  0  0  0  0  0  0  0  0
    4.7433    0.9558   -0.4114 H   0  0  0  0  0  0  0  0  0  0  0  0
    4.0361   -1.3479   -0.7681 H   0  0  0  0  0  0  0  0  0  0  0  0
    5.1160   -3.2054    0.4261 H   0  0  0  0  0  0  0  0  0  0  0  0
    7.1633   -4.7280    0.6323 H   0  0  0  0  0  0  0  0  0  0  0  0
    9.8348   -5.5043    4.6743 H   0  0  0  0  0  0  0  0  0  0  0  0
   13.1897   -3.4912   11.4982 H   0  0  0  0  0  0  0  0  0  0  0  0
   12.7073   -6.2085   11.2879 H   0  0  0  0  0  0  0  0  0  0  0  0
   10.2314   -6.6358    8.5279 H   0  0  0  0  0  0  0  0  0  0  0  0
   11.0184   -7.4497    9.8876 H   0  0  0  0  0  0  0  0  0  0  0  0
   12.3497   -6.9166    7.1478 H   0  0  0  0  0  0  0  0  0  0  0  0
   11.6903   -8.4607    7.7078 H   0  0  0  0  0  0  0  0  0  0  0  0
   13.9278   -7.0470    8.6826 H   0  0  0  0  0  0  0  0  0  0  0  0
    8.7496   -1.6259    6.2491 H   0  0  0  0  0  0  0  0  0  0  0  0
    7.3297   -1.2361    4.2604 H   0  0  0  0  0  0  0  0  0  0  0  0
    7.7924   -0.3906    2.2991 H   0  0  0  0  0  0  0  0  0  0  0  0
  1  2  2  0  0  0  0
  2  3  1  0  0  0  0
  2  9  1  0  0  0  0
  3  4  1  0  0  0  0
  3 35  1  0  0  0  0
  4  5  1  0  0  0  0
  4 36  1  0  0  0  0
  4 37  1  0  0  0  0
  5  6  1  0  0  0  0
  5  7  1  0  0  0  0
  5  8  1  0  0  0  0
  9 10  1  0  0  0  0
  9 38  1  0  0  0  0
 10 11  1  0  0  0  0
 10 34  2  0  0  0  0
 11 12  2  0  0  0  0
 11 39  1  0  0  0  0
 12 13  1  0  0  0  0
 12 40  1  0  0  0  0
 13 14  2  0  0  0  0
 13 41  1  0  0  0  0
 14 15  1  0  0  0  0
 14 34  1  0  0  0  0
 15 16  2  0  0  0  0
 15 33  1  0  0  0  0
 16 17  1  0  0  0  0
 16 42  1  0  0  0  0
 17 18  2  0  0  0  0
 18 19  1  0  0  0  0
 18 33  1  0  0  0  0
 19 20  2  0  0  0  0
 19 43  1  0  0  0  0
 20 21  1  0  0  0  0
 20 31  1  0  0  0  0
 21 22  3  0  0  0  0
 22 23  1  0  0  0  0
 23 24  2  0  0  0  0
 23 27  1  0  0  0  0
 24 25  1  0  0  0  0
 25 26  2  0  0  0  0
 25 44  1  0  0  0  0
 26 27  1  0  0  0  0
 26 45  1  0  0  0  0
 27 28  1  0  0  0  0
 28 29  1  0  0  0  0
 28 46  1  0  0  0  0
 28 47  1  0  0  0  0
 29 30  1  0  0  0  0
 29 48  1  0  0  0  0
 29 49  1  0  0  0  0
 30 50  1  0  0  0  0
 31 32  2  0  0  0  0
 31 51  1  0  0  0  0
 32 33  1  0  0  0  0
 32 52  1  0  0  0  0
 34 53  1  0  0  0  0
M  END
$$$$
