CHEMBL2086756
 OpenBabel04072215363D

 64 69  0  0  0  0  0  0  0  0999 V2000
    6.5098   -3.2879   -3.9618 C   0  0  0  0  0  0  0  0  0  0  0  0
    5.4119   -2.4001   -3.3850 C   0  0  0  0  0  0  0  0  0  0  0  0
    4.1632   -2.3921   -4.1769 N   0  0  0  0  0  0  0  0  0  0  0  0
    3.5638   -3.7378   -4.2180 C   0  0  0  0  0  0  0  0  0  0  0  0
    2.1989   -3.7506   -4.9025 C   0  0  0  0  0  0  0  0  0  0  0  0
    1.2217   -2.8055   -4.2015 C   0  0  0  0  0  0  0  0  0  0  0  0
    0.9660   -3.2037   -2.8018 N   0  0  0  0  0  0  0  0  0  0  0  0
    0.4319   -4.4620   -2.4984 C   0  0  0  0  0  0  0  0  0  0  0  0
   -0.4500   -5.1473   -3.3536 C   0  0  0  0  0  0  0  0  0  0  0  0
   -0.9581   -6.4016   -3.0144 C   0  0  0  0  0  0  0  0  0  0  0  0
   -0.5797   -6.9338   -1.7992 C   0  0  0  0  0  0  0  0  0  0  0  0
    0.2543   -6.2702   -0.8948 C   0  0  0  0  0  0  0  0  0  0  0  0
    0.7450   -5.0188   -1.2398 C   0  0  0  0  0  0  0  0  0  0  0  0
    0.4235   -7.1861    0.2624 C   0  0  0  0  0  0  0  0  0  0  0  0
    1.0670   -7.0162    1.4418 C   0  0  0  0  0  0  0  0  0  0  0  0
    1.7472   -5.7464    1.7784 C   0  0  0  0  0  0  0  0  0  0  0  0
    1.0374   -4.7266    2.4317 C   0  0  0  0  0  0  0  0  0  0  0  0
    1.6796   -3.5437    2.8061 C   0  0  0  0  0  0  0  0  0  0  0  0
    3.0373   -3.3781    2.5395 C   0  0  0  0  0  0  0  0  0  0  0  0
    3.7399   -4.3953    1.9022 C   0  0  0  0  0  0  0  0  0  0  0  0
    5.0481   -4.2391    1.6597 F   0  0  0  0  0  0  0  0  0  0  0  0
    3.1120   -5.5761    1.5189 C   0  0  0  0  0  0  0  0  0  0  0  0
    1.0004   -8.0366    2.4411 C   0  0  0  0  0  0  0  0  0  0  0  0
    0.1337   -8.2158    3.4173 N   0  0  0  0  0  0  0  0  0  0  0  0
    0.5634   -9.3358    4.0901 C   0  0  0  0  0  0  0  0  0  0  0  0
   -0.0094   -9.9996    5.1836 C   0  0  0  0  0  0  0  0  0  0  0  0
    0.6328  -11.1360    5.6954 C   0  0  0  0  0  0  0  0  0  0  0  0
    1.8293  -11.5923    5.1351 C   0  0  0  0  0  0  0  0  0  0  0  0
    2.4213  -10.9401    4.0467 C   0  0  0  0  0  0  0  0  0  0  0  0
    1.7486   -9.8205    3.5491 C   0  0  0  0  0  0  0  0  0  0  0  0
    2.0088   -8.9710    2.5033 N   0  0  0  0  0  0  0  0  0  0  0  0
   -0.3314   -8.4557   -0.1086 C   0  0  0  0  0  0  0  0  0  0  0  0
   -0.3669   -9.5262    0.4649 O   0  0  0  0  0  0  0  0  0  0  0  0
   -0.9316   -8.1867   -1.3236 N   0  0  0  0  0  0  0  0  0  0  0  0
    1.8473   -1.4079   -4.2269 C   0  0  0  0  0  0  0  0  0  0  0  0
    3.2378   -1.4045   -3.5864 C   0  0  0  0  0  0  0  0  0  0  0  0
    7.4286   -3.1659   -3.3788 H   0  0  0  0  0  0  0  0  0  0  0  0
    6.7291   -3.0210   -5.0000 H   0  0  0  0  0  0  0  0  0  0  0  0
    6.2437   -4.3488   -3.9214 H   0  0  0  0  0  0  0  0  0  0  0  0
    5.8104   -1.3788   -3.3401 H   0  0  0  0  0  0  0  0  0  0  0  0
    5.2121   -2.7098   -2.3503 H   0  0  0  0  0  0  0  0  0  0  0  0
    3.4769   -4.1580   -3.2080 H   0  0  0  0  0  0  0  0  0  0  0  0
    4.2101   -4.4109   -4.7918 H   0  0  0  0  0  0  0  0  0  0  0  0
    1.8191   -4.7769   -4.9348 H   0  0  0  0  0  0  0  0  0  0  0  0
    2.3158   -3.4384   -5.9495 H   0  0  0  0  0  0  0  0  0  0  0  0
    0.2738   -2.7640   -4.7508 H   0  0  0  0  0  0  0  0  0  0  0  0
    0.4546   -2.4868   -2.2872 H   0  0  0  0  0  0  0  0  0  0  0  0
   -0.7425   -4.7175   -4.3073 H   0  0  0  0  0  0  0  0  0  0  0  0
   -1.6131   -6.9346   -3.6933 H   0  0  0  0  0  0  0  0  0  0  0  0
    1.4094   -4.4694   -0.5826 H   0  0  0  0  0  0  0  0  0  0  0  0
   -0.0174   -4.8615    2.6690 H   0  0  0  0  0  0  0  0  0  0  0  0
    1.1232   -2.7625    3.3181 H   0  0  0  0  0  0  0  0  0  0  0  0
    3.5538   -2.4702    2.8343 H   0  0  0  0  0  0  0  0  0  0  0  0
    3.6978   -6.3488    1.0325 H   0  0  0  0  0  0  0  0  0  0  0  0
   -0.9383   -9.6385    5.6116 H   0  0  0  0  0  0  0  0  0  0  0  0
    0.1912  -11.6669    6.5334 H   0  0  0  0  0  0  0  0  0  0  0  0
    2.3076  -12.4781    5.5496 H   0  0  0  0  0  0  0  0  0  0  0  0
    3.3436  -11.2974    3.6107 H   0  0  0  0  0  0  0  0  0  0  0  0
    2.7915   -9.0368    1.8724 H   0  0  0  0  0  0  0  0  0  0  0  0
   -1.4881   -8.8714   -1.8116 H   0  0  0  0  0  0  0  0  0  0  0  0
    1.2017   -0.6883   -3.7088 H   0  0  0  0  0  0  0  0  0  0  0  0
    1.9277   -1.0661   -5.2678 H   0  0  0  0  0  0  0  0  0  0  0  0
    3.1324   -1.5676   -2.5060 H   0  0  0  0  0  0  0  0  0  0  0  0
    3.6616   -0.4005   -3.7159 H   0  0  0  0  0  0  0  0  0  0  0  0
  1  2  1  0  0  0  0
  1 37  1  0  0  0  0
  1 38  1  0  0  0  0
  1 39  1  0  0  0  0
  2  3  1  0  0  0  0
  2 40  1  0  0  0  0
  2 41  1  0  0  0  0
  3  4  1  0  0  0  0
  3 36  1  0  0  0  0
  4  5  1  0  0  0  0
  4 42  1  0  0  0  0
  4 43  1  0  0  0  0
  5  6  1  0  0  0  0
  5 44  1  0  0  0  0
  5 45  1  0  0  0  0
  6  7  1  0  0  0  0
  6 35  1  0  0  0  0
  6 46  1  0  0  0  0
  7  8  1  0  0  0  0
  7 47  1  0  0  0  0
  8  9  1  0  0  0  0
  8 13  2  0  0  0  0
  9 10  2  0  0  0  0
  9 48  1  0  0  0  0
 10 11  1  0  0  0  0
 10 49  1  0  0  0  0
 11 12  2  0  0  0  0
 11 34  1  0  0  0  0
 12 13  1  0  0  0  0
 12 14  1  0  0  0  0
 13 50  1  0  0  0  0
 14 15  2  3  0  0  0
 14 32  1  0  0  0  0
 15 16  1  0  0  0  0
 15 23  1  0  0  0  0
 16 17  1  0  0  0  0
 16 22  2  0  0  0  0
 17 18  2  0  0  0  0
 17 51  1  0  0  0  0
 18 19  1  0  0  0  0
 18 52  1  0  0  0  0
 19 20  2  0  0  0  0
 19 53  1  0  0  0  0
 20 21  1  0  0  0  0
 20 22  1  0  0  0  0
 22 54  1  0  0  0  0
 23 24  2  0  0  0  0
 23 31  1  0  0  0  0
 24 25  1  0  0  0  0
 25 26  1  0  0  0  0
 25 30  2  0  0  0  0
 26 27  2  0  0  0  0
 26 55  1  0  0  0  0
 27 28  1  0  0  0  0
 27 56  1  0  0  0  0
 28 29  2  0  0  0  0
 28 57  1  0  0  0  0
 29 30  1  0  0  0  0
 29 58  1  0  0  0  0
 30 31  1  0  0  0  0
 31 59  1  0  0  0  0
 32 33  2  0  0  0  0
 32 34  1  0  0  0  0
 34 60  1  0  0  0  0
 35 36  1  0  0  0  0
 35 61  1  0  0  0  0
 35 62  1  0  0  0  0
 36 63  1  0  0  0  0
 36 64  1  0  0  0  0
M  END
$$$$
