CHEMBL463323
 OpenBabel04072215383D

 59 64  0  0  0  0  0  0  0  0999 V2000
    5.6178   -1.4058   11.2399 C   0  0  0  0  0  0  0  0  0  0  0  0
    5.4922   -2.5972   10.4353 N   0  0  0  0  0  0  0  0  0  0  0  0
    4.6519   -2.5141    9.3372 C   0  0  0  0  0  0  0  0  0  0  0  0
    3.9691   -3.6284    9.0579 N   0  0  0  0  0  0  0  0  0  0  0  0
    3.2080   -3.6127    7.9509 C   0  0  0  0  0  0  0  0  0  0  0  0
    3.1056   -2.5306    7.1118 C   0  0  0  0  0  0  0  0  0  0  0  0
    3.8406   -1.4182    7.4645 C   0  0  0  0  0  0  0  0  0  0  0  0
    3.8505   -0.1643    6.6850 C   0  0  0  0  0  0  0  0  0  0  0  0
    3.9331    1.0700    7.3652 C   0  0  0  0  0  0  0  0  0  0  0  0
    3.9867    2.2792    6.6765 C   0  0  0  0  0  0  0  0  0  0  0  0
    3.9121    2.2405    5.3022 C   0  0  0  0  0  0  0  0  0  0  0  0
    3.7970    1.0975    4.6017 N   0  0  0  0  0  0  0  0  0  0  0  0
    3.8225   -0.0814    5.2839 C   0  0  0  0  0  0  0  0  0  0  0  0
    3.8555   -1.2621    4.5295 O   0  0  0  0  0  0  0  0  0  0  0  0
    4.3325   -1.1798    3.2252 C   0  0  0  0  0  0  0  0  0  0  0  0
    5.4891   -0.4503    2.9450 C   0  0  0  0  0  0  0  0  0  0  0  0
    5.8897   -0.2546    1.6307 C   0  0  0  0  0  0  0  0  0  0  0  0
    5.1871   -0.8217    0.5586 C   0  0  0  0  0  0  0  0  0  0  0  0
    5.5310   -0.4765   -0.7832 N   0  0  0  0  0  0  0  0  0  0  0  0
    6.0717    0.7061   -1.1702 C   0  0  0  0  0  0  0  0  0  0  0  0
    6.4193    1.7620   -0.4684 N   0  0  0  0  0  0  0  0  0  0  0  0
    6.8479    2.6991   -1.3686 C   0  0  0  0  0  0  0  0  0  0  0  0
    7.3025    4.0060   -1.1516 C   0  0  0  0  0  0  0  0  0  0  0  0
    7.6955    4.7732   -2.2568 C   0  0  0  0  0  0  0  0  0  0  0  0
    7.6408    4.2544   -3.5628 C   0  0  0  0  0  0  0  0  0  0  0  0
    8.0779    5.0920   -4.7433 C   0  0  0  0  0  0  0  0  0  0  0  0
    8.4677    6.3532   -4.4082 F   0  0  0  0  0  0  0  0  0  0  0  0
    9.1305    4.5399   -5.4086 F   0  0  0  0  0  0  0  0  0  0  0  0
    7.0894    5.2403   -5.6689 F   0  0  0  0  0  0  0  0  0  0  0  0
    7.1782    2.9402   -3.7849 C   0  0  0  0  0  0  0  0  0  0  0  0
    6.7899    2.2034   -2.6631 C   0  0  0  0  0  0  0  0  0  0  0  0
    6.2949    0.9336   -2.5077 N   0  0  0  0  0  0  0  0  0  0  0  0
    4.1273   -1.7430    0.8433 C   0  0  0  0  0  0  0  0  0  0  0  0
    3.4864   -2.5238   -0.1544 C   0  0  0  0  0  0  0  0  0  0  0  0
    2.4375   -3.3998    0.1380 C   0  0  0  0  0  0  0  0  0  0  0  0
    1.9894   -3.5137    1.4435 C   0  0  0  0  0  0  0  0  0  0  0  0
    2.6001   -2.7705    2.4552 C   0  0  0  0  0  0  0  0  0  0  0  0
    3.6809   -1.8978    2.1928 C   0  0  0  0  0  0  0  0  0  0  0  0
    4.5908   -1.3998    8.5965 N   0  0  0  0  0  0  0  0  0  0  0  0
    6.3535   -1.5906   12.0305 H   0  0  0  0  0  0  0  0  0  0  0  0
    4.6704   -1.1501   11.7260 H   0  0  0  0  0  0  0  0  0  0  0  0
    5.9749   -0.5466   10.6627 H   0  0  0  0  0  0  0  0  0  0  0  0
    5.2204   -3.4352   10.9367 H   0  0  0  0  0  0  0  0  0  0  0  0
    2.6698   -4.5337    7.7479 H   0  0  0  0  0  0  0  0  0  0  0  0
    2.4740   -2.5682    6.2355 H   0  0  0  0  0  0  0  0  0  0  0  0
    3.9772    1.0878    8.4535 H   0  0  0  0  0  0  0  0  0  0  0  0
    4.0891    3.2214    7.2028 H   0  0  0  0  0  0  0  0  0  0  0  0
    3.9616    3.1472    4.7059 H   0  0  0  0  0  0  0  0  0  0  0  0
    6.0519    0.0326    3.7386 H   0  0  0  0  0  0  0  0  0  0  0  0
    6.7530    0.3810    1.4553 H   0  0  0  0  0  0  0  0  0  0  0  0
    4.9615   -0.9575   -1.4622 H   0  0  0  0  0  0  0  0  0  0  0  0
    7.3423    4.4054   -0.1439 H   0  0  0  0  0  0  0  0  0  0  0  0
    8.0489    5.7896   -2.0847 H   0  0  0  0  0  0  0  0  0  0  0  0
    7.1262    2.5228   -4.7866 H   0  0  0  0  0  0  0  0  0  0  0  0
    6.1280    0.2684   -3.2448 H   0  0  0  0  0  0  0  0  0  0  0  0
    3.8093   -2.4955   -1.1897 H   0  0  0  0  0  0  0  0  0  0  0  0
    1.9813   -3.9877   -0.6530 H   0  0  0  0  0  0  0  0  0  0  0  0
    1.1695   -4.1866    1.6810 H   0  0  0  0  0  0  0  0  0  0  0  0
    2.2345   -2.8929    3.4723 H   0  0  0  0  0  0  0  0  0  0  0  0
  1  2  1  0  0  0  0
  1 40  1  0  0  0  0
  1 41  1  0  0  0  0
  1 42  1  0  0  0  0
  2  3  1  0  0  0  0
  2 43  1  0  0  0  0
  3  4  1  0  0  0  0
  3 39  2  0  0  0  0
  4  5  2  0  0  0  0
  5  6  1  0  0  0  0
  5 44  1  0  0  0  0
  6  7  2  0  0  0  0
  6 45  1  0  0  0  0
  7  8  1  0  0  0  0
  7 39  1  0  0  0  0
  8  9  1  0  0  0  0
  8 13  2  0  0  0  0
  9 10  2  0  0  0  0
  9 46  1  0  0  0  0
 10 11  1  0  0  0  0
 10 47  1  0  0  0  0
 11 12  2  0  0  0  0
 11 48  1  0  0  0  0
 12 13  1  0  0  0  0
 13 14  1  0  0  0  0
 14 15  1  0  0  0  0
 15 16  1  0  0  0  0
 15 38  2  0  0  0  0
 16 17  2  0  0  0  0
 16 49  1  0  0  0  0
 17 18  1  0  0  0  0
 17 50  1  0  0  0  0
 18 19  1  0  0  0  0
 18 33  2  0  0  0  0
 19 20  1  0  0  0  0
 19 51  1  0  0  0  0
 20 21  2  0  0  0  0
 20 32  1  0  0  0  0
 21 22  1  0  0  0  0
 22 23  1  0  0  0  0
 22 31  2  0  0  0  0
 23 24  2  0  0  0  0
 23 52  1  0  0  0  0
 24 25  1  0  0  0  0
 24 53  1  0  0  0  0
 25 26  1  0  0  0  0
 25 30  2  0  0  0  0
 26 27  1  0  0  0  0
 26 28  1  0  0  0  0
 26 29  1  0  0  0  0
 30 31  1  0  0  0  0
 30 54  1  0  0  0  0
 31 32  1  0  0  0  0
 32 55  1  0  0  0  0
 33 34  1  0  0  0  0
 33 38  1  0  0  0  0
 34 35  2  0  0  0  0
 34 56  1  0  0  0  0
 35 36  1  0  0  0  0
 35 57  1  0  0  0  0
 36 37  2  0  0  0  0
 36 58  1  0  0  0  0
 37 38  1  0  0  0  0
 37 59  1  0  0  0  0
M  END
$$$$
