CHEMBL402036
 OpenBabel04072215373D

 56 59  0  0  0  0  0  0  0  0999 V2000
    0.6227   -0.4881    1.9577 C   0  0  0  0  0  0  0  0  0  0  0  0
    2.0628   -0.6575    1.9994 N   0  0  0  0  0  0  0  0  0  0  0  0
    2.8312   -0.0665    0.9110 C   0  0  0  0  0  0  0  0  0  0  0  0
    2.5871   -1.4283    3.0556 C   0  0  0  0  0  0  0  0  0  0  0  0
    1.8183   -1.9845    3.8452 O   0  0  0  0  0  0  0  0  0  0  0  0
    4.0286   -1.6082    3.1842 C   0  0  0  0  0  0  0  0  0  0  0  0
    4.6865   -2.7269    3.6749 C   0  0  0  0  0  0  0  0  0  0  0  0
    6.1055   -2.6144    3.5811 C   0  0  0  0  0  0  0  0  0  0  0  0
    6.9989   -3.5831    3.9178 N   0  0  0  0  0  0  0  0  0  0  0  0
    8.2901   -3.2877    3.6807 C   0  0  0  0  0  0  0  0  0  0  0  0
    8.7511   -2.1121    3.1193 C   0  0  0  0  0  0  0  0  0  0  0  0
    7.8445   -1.0936    2.8391 C   0  0  0  0  0  0  0  0  0  0  0  0
    8.1828    0.1368    2.3114 O   0  0  0  0  0  0  0  0  0  0  0  0
    9.3543    0.7213    2.7226 C   0  0  0  0  0  0  0  0  0  0  0  0
    9.9075    0.5125    3.9906 C   0  0  0  0  0  0  0  0  0  0  0  0
   11.1696    1.0081    4.2952 C   0  0  0  0  0  0  0  0  0  0  0  0
   11.8571    1.8084    3.3746 C   0  0  0  0  0  0  0  0  0  0  0  0
   13.1147    2.2970    3.7545 N   0  0  0  0  0  0  0  0  0  0  0  0
   13.8168    3.4252    3.3810 C   0  0  0  0  0  0  0  0  0  0  0  0
   13.3282    4.6789    2.3903 S   0  0  0  0  0  0  0  0  0  0  0  0
   15.0654    3.5526    3.9724 N   0  0  0  0  0  0  0  0  0  0  0  0
   15.6185    2.7220    4.9351 C   0  0  0  0  0  0  0  0  0  0  0  0
   15.0711    1.6639    5.2959 O   0  0  0  0  0  0  0  0  0  0  0  0
   16.9062    3.1626    5.5732 C   0  0  0  0  0  0  0  0  0  0  0  0
   18.1423    2.7070    4.8454 C   0  0  0  0  0  0  0  0  0  0  0  0
   19.0710    3.6459    4.3800 C   0  0  0  0  0  0  0  0  0  0  0  0
   20.2723    3.2264    3.8068 C   0  0  0  0  0  0  0  0  0  0  0  0
   20.5510    1.8670    3.6802 C   0  0  0  0  0  0  0  0  0  0  0  0
   19.6263    0.9233    4.1215 C   0  0  0  0  0  0  0  0  0  0  0  0
   18.4282    1.3400    4.7041 C   0  0  0  0  0  0  0  0  0  0  0  0
   11.2806    2.0605    2.1300 C   0  0  0  0  0  0  0  0  0  0  0  0
   10.0252    1.5392    1.8243 C   0  0  0  0  0  0  0  0  0  0  0  0
    9.4874    1.8271    0.6295 F   0  0  0  0  0  0  0  0  0  0  0  0
    6.4921   -1.3771    3.0779 C   0  0  0  0  0  0  0  0  0  0  0  0
    5.1446   -0.3473    2.9026 S   0  0  0  0  0  0  0  0  0  0  0  0
    0.3222    0.1297    1.1078 H   0  0  0  0  0  0  0  0  0  0  0  0
    0.2889   -0.0124    2.8839 H   0  0  0  0  0  0  0  0  0  0  0  0
    0.1535   -1.4726    1.8693 H   0  0  0  0  0  0  0  0  0  0  0  0
    2.1886    0.1985    0.0691 H   0  0  0  0  0  0  0  0  0  0  0  0
    3.5830   -0.7757    0.5537 H   0  0  0  0  0  0  0  0  0  0  0  0
    3.3025    0.8530    1.2709 H   0  0  0  0  0  0  0  0  0  0  0  0
    4.1739   -3.6116    4.0329 H   0  0  0  0  0  0  0  0  0  0  0  0
    8.9968   -4.0604    3.9742 H   0  0  0  0  0  0  0  0  0  0  0  0
    9.8160   -1.9822    2.9583 H   0  0  0  0  0  0  0  0  0  0  0  0
    9.3726   -0.0706    4.7389 H   0  0  0  0  0  0  0  0  0  0  0  0
   11.5917    0.7767    5.2699 H   0  0  0  0  0  0  0  0  0  0  0  0
   13.5472    1.7885    4.5360 H   0  0  0  0  0  0  0  0  0  0  0  0
   15.5735    4.3817    3.6977 H   0  0  0  0  0  0  0  0  0  0  0  0
   16.9285    2.7248    6.5816 H   0  0  0  0  0  0  0  0  0  0  0  0
   16.8973    4.2474    5.7268 H   0  0  0  0  0  0  0  0  0  0  0  0
   18.8854    4.7115    4.4903 H   0  0  0  0  0  0  0  0  0  0  0  0
   21.0025    3.9618    3.4796 H   0  0  0  0  0  0  0  0  0  0  0  0
   21.4959    1.5433    3.2510 H   0  0  0  0  0  0  0  0  0  0  0  0
   19.8489   -0.1373    4.0334 H   0  0  0  0  0  0  0  0  0  0  0  0
   17.7332    0.5866    5.0739 H   0  0  0  0  0  0  0  0  0  0  0  0
   11.8011    2.5972    1.3517 H   0  0  0  0  0  0  0  0  0  0  0  0
  1  2  1  0  0  0  0
  1 36  1  0  0  0  0
  1 37  1  0  0  0  0
  1 38  1  0  0  0  0
  2  3  1  0  0  0  0
  2  4  1  0  0  0  0
  3 39  1  0  0  0  0
  3 40  1  0  0  0  0
  3 41  1  0  0  0  0
  4  5  2  0  0  0  0
  4  6  1  0  0  0  0
  6  7  2  0  0  0  0
  6 35  1  0  0  0  0
  7  8  1  0  0  0  0
  7 42  1  0  0  0  0
  8  9  1  0  0  0  0
  8 34  2  0  0  0  0
  9 10  2  0  0  0  0
 10 11  1  0  0  0  0
 10 43  1  0  0  0  0
 11 12  2  0  0  0  0
 11 44  1  0  0  0  0
 12 13  1  0  0  0  0
 12 34  1  0  0  0  0
 13 14  1  0  0  0  0
 14 15  1  0  0  0  0
 14 32  2  0  0  0  0
 15 16  2  0  0  0  0
 15 45  1  0  0  0  0
 16 17  1  0  0  0  0
 16 46  1  0  0  0  0
 17 18  1  0  0  0  0
 17 31  2  0  0  0  0
 18 19  1  0  0  0  0
 18 47  1  0  0  0  0
 19 20  2  0  0  0  0
 19 21  1  0  0  0  0
 21 22  1  0  0  0  0
 21 48  1  0  0  0  0
 22 23  2  0  0  0  0
 22 24  1  0  0  0  0
 24 25  1  0  0  0  0
 24 49  1  0  0  0  0
 24 50  1  0  0  0  0
 25 26  1  0  0  0  0
 25 30  2  0  0  0  0
 26 27  2  0  0  0  0
 26 51  1  0  0  0  0
 27 28  1  0  0  0  0
 27 52  1  0  0  0  0
 28 29  2  0  0  0  0
 28 53  1  0  0  0  0
 29 30  1  0  0  0  0
 29 54  1  0  0  0  0
 30 55  1  0  0  0  0
 31 32  1  0  0  0  0
 31 56  1  0  0  0  0
 32 33  1  0  0  0  0
 34 35  1  0  0  0  0
M  END
$$$$
