CHEMBL3690394
 OpenBabel04072215373D

 45 48  0  0  0  0  0  0  0  0999 V2000
    7.1177   -3.4377    3.3121 O   0  0  0  0  0  0  0  0  0  0  0  0
    8.0562   -3.2814    2.5450 C   0  0  0  0  0  0  0  0  0  0  0  0
    9.1556   -4.1127    2.5555 N   0  0  0  0  0  0  0  0  0  0  0  0
    9.2611   -5.1438    3.5932 C   0  0  0  0  0  0  0  0  0  0  0  0
    9.8885   -4.6758    4.9138 C   0  0  0  0  0  0  0  0  0  0  0  0
   10.2316   -3.3667    4.8727 F   0  0  0  0  0  0  0  0  0  0  0  0
    9.0697   -4.8641    5.9678 F   0  0  0  0  0  0  0  0  0  0  0  0
   11.0297   -5.3684    5.1540 F   0  0  0  0  0  0  0  0  0  0  0  0
    8.1763   -2.3152    1.5744 N   0  0  0  0  0  0  0  0  0  0  0  0
    7.2732   -1.2644    1.3181 C   0  0  0  0  0  0  0  0  0  0  0  0
    6.0685   -1.0730    1.9860 C   0  0  0  0  0  0  0  0  0  0  0  0
    5.2316   -0.0367    1.7496 N   0  0  0  0  0  0  0  0  0  0  0  0
    5.6144    0.8466    0.8024 C   0  0  0  0  0  0  0  0  0  0  0  0
    6.8011    0.7715    0.0726 C   0  0  0  0  0  0  0  0  0  0  0  0
    7.1285    1.7231   -0.9926 C   0  0  0  0  0  0  0  0  0  0  0  0
    7.9135    1.5682   -2.1271 C   0  0  0  0  0  0  0  0  0  0  0  0
    7.6823    2.5557   -3.0453 N   0  0  0  0  0  0  0  0  0  0  0  0
    6.8590    3.3842   -2.4456 C   0  0  0  0  0  0  0  0  0  0  0  0
    6.2398    4.5761   -2.9025 C   0  0  0  0  0  0  0  0  0  0  0  0
    5.6144    5.3867   -2.0265 C   0  0  0  0  0  0  0  0  0  0  0  0
    5.0030    6.5775   -2.5004 C   0  0  0  0  0  0  0  0  0  0  0  0
    4.4654    7.5305   -2.9833 C   0  0  0  0  0  0  0  0  0  0  0  0
    3.7352    8.5863   -3.6152 C   0  0  0  0  0  0  0  0  0  0  0  0
    4.4558    9.7013   -4.3234 C   0  0  0  0  0  0  0  0  0  0  0  0
    3.7701    9.9631   -3.0132 C   0  0  0  0  0  0  0  0  0  0  0  0
    5.5381    5.0487   -0.6107 C   0  0  0  0  0  0  0  0  0  0  0  0
    6.0470    3.8779   -0.1921 C   0  0  0  0  0  0  0  0  0  0  0  0
    6.6506    3.0210   -1.1181 N   0  0  0  0  0  0  0  0  0  0  0  0
    7.6209   -0.3324    0.3325 C   0  0  0  0  0  0  0  0  0  0  0  0
   10.0269   -3.6786    2.2858 H   0  0  0  0  0  0  0  0  0  0  0  0
    9.8697   -5.9450    3.1619 H   0  0  0  0  0  0  0  0  0  0  0  0
    8.2673   -5.5618    3.7870 H   0  0  0  0  0  0  0  0  0  0  0  0
    8.9927   -2.3692    0.9849 H   0  0  0  0  0  0  0  0  0  0  0  0
    5.7025   -1.7556    2.7447 H   0  0  0  0  0  0  0  0  0  0  0  0
    4.8789    1.6274    0.6347 H   0  0  0  0  0  0  0  0  0  0  0  0
    8.5738    0.7478   -2.3737 H   0  0  0  0  0  0  0  0  0  0  0  0
    6.2851    4.8029   -3.9623 H   0  0  0  0  0  0  0  0  0  0  0  0
    2.7996    8.2690   -4.0660 H   0  0  0  0  0  0  0  0  0  0  0  0
    3.9988   10.0982   -5.2237 H   0  0  0  0  0  0  0  0  0  0  0  0
    5.5396    9.7199   -4.3380 H   0  0  0  0  0  0  0  0  0  0  0  0
    2.8415   10.5213   -3.0156 H   0  0  0  0  0  0  0  0  0  0  0  0
    4.4008   10.1542   -2.1524 H   0  0  0  0  0  0  0  0  0  0  0  0
    5.0596    5.7360    0.0803 H   0  0  0  0  0  0  0  0  0  0  0  0
    6.0316    3.5809    0.8492 H   0  0  0  0  0  0  0  0  0  0  0  0
    8.5354   -0.4681   -0.2380 H   0  0  0  0  0  0  0  0  0  0  0  0
  1  2  2  0  0  0  0
  2  3  1  0  0  0  0
  2  9  1  0  0  0  0
  3  4  1  0  0  0  0
  3 30  1  0  0  0  0
  4  5  1  0  0  0  0
  4 31  1  0  0  0  0
  4 32  1  0  0  0  0
  5  6  1  0  0  0  0
  5  7  1  0  0  0  0
  5  8  1  0  0  0  0
  9 10  1  0  0  0  0
  9 33  1  0  0  0  0
 10 11  1  0  0  0  0
 10 29  2  0  0  0  0
 11 12  2  0  0  0  0
 11 34  1  0  0  0  0
 12 13  1  0  0  0  0
 13 14  2  0  0  0  0
 13 35  1  0  0  0  0
 14 15  1  0  0  0  0
 14 29  1  0  0  0  0
 15 16  2  0  0  0  0
 15 28  1  0  0  0  0
 16 17  1  0  0  0  0
 16 36  1  0  0  0  0
 17 18  2  0  0  0  0
 18 19  1  0  0  0  0
 18 28  1  0  0  0  0
 19 20  2  0  0  0  0
 19 37  1  0  0  0  0
 20 21  1  0  0  0  0
 20 26  1  0  0  0  0
 21 22  3  0  0  0  0
 22 23  1  0  0  0  0
 23 24  1  0  0  0  0
 23 25  1  0  0  0  0
 23 38  1  0  0  0  0
 24 25  1  0  0  0  0
 24 39  1  0  0  0  0
 24 40  1  0  0  0  0
 25 41  1  0  0  0  0
 25 42  1  0  0  0  0
 26 27  2  0  0  0  0
 26 43  1  0  0  0  0
 27 28  1  0  0  0  0
 27 44  1  0  0  0  0
 29 45  1  0  0  0  0
M  END
$$$$
