CHEMBL250684
 OpenBabel04072215363D

 42 44  0  0  0  0  0  0  0  0999 V2000
    0.9197    0.4109    0.1097 O   0  0  0  0  0  0  0  0  0  0  0  0
    2.1069    0.1262   -0.0037 C   0  0  0  0  0  0  0  0  0  0  0  0
    2.6334   -1.1546   -0.0530 N   0  0  0  0  0  0  0  0  0  0  0  0
    1.8898   -2.3582    0.0745 C   0  0  0  0  0  0  0  0  0  0  0  0
    0.5176   -2.3992    0.3328 C   0  0  0  0  0  0  0  0  0  0  0  0
   -0.1473   -3.6170    0.5007 C   0  0  0  0  0  0  0  0  0  0  0  0
    0.5423   -4.8263    0.3985 C   0  0  0  0  0  0  0  0  0  0  0  0
   -0.3833   -6.2593    0.6486 Cl  0  0  0  0  0  0  0  0  0  0  0  0
    1.9112   -4.8237    0.1166 C   0  0  0  0  0  0  0  0  0  0  0  0
    2.7436   -6.0703   -0.0515 C   0  0  0  0  0  0  0  0  0  0  0  0
    2.1315   -7.2521    0.2106 F   0  0  0  0  0  0  0  0  0  0  0  0
    3.2250   -6.1811   -1.3232 F   0  0  0  0  0  0  0  0  0  0  0  0
    3.8479   -6.0498    0.7509 F   0  0  0  0  0  0  0  0  0  0  0  0
    2.5708   -3.5744   -0.0416 C   0  0  0  0  0  0  0  0  0  0  0  0
    3.0510    1.2694   -0.0853 C   0  0  0  0  0  0  0  0  0  0  0  0
    2.7101    2.3853    0.7035 C   0  0  0  0  0  0  0  0  0  0  0  0
    3.4302    3.5651    0.6022 C   0  0  0  0  0  0  0  0  0  0  0  0
    4.4645    3.5965   -0.3009 C   0  0  0  0  0  0  0  0  0  0  0  0
    4.8105    2.5426   -1.0799 N   0  0  0  0  0  0  0  0  0  0  0  0
    4.1142    1.3825   -0.9921 C   0  0  0  0  0  0  0  0  0  0  0  0
    4.5715    0.2984   -1.7780 N   0  0  0  0  0  0  0  0  0  0  0  0
    5.0547    0.7213   -3.1096 C   0  0  0  0  0  0  0  0  0  0  0  0
    6.5550    0.8098   -3.2883 C   0  0  0  0  0  0  0  0  0  0  0  0
    7.1114    0.5095   -4.5412 C   0  0  0  0  0  0  0  0  0  0  0  0
    8.4722    0.6989   -4.7468 C   0  0  0  0  0  0  0  0  0  0  0  0
    9.3115    1.1765   -3.8072 N   0  0  0  0  0  0  0  0  0  0  0  0
    8.7625    1.4738   -2.6109 C   0  0  0  0  0  0  0  0  0  0  0  0
    7.4175    1.3068   -2.3092 C   0  0  0  0  0  0  0  0  0  0  0  0
    3.6457   -1.2412   -0.1050 H   0  0  0  0  0  0  0  0  0  0  0  0
   -0.0818   -1.5006    0.4331 H   0  0  0  0  0  0  0  0  0  0  0  0
   -1.2139   -3.6063    0.7198 H   0  0  0  0  0  0  0  0  0  0  0  0
    3.6373   -3.5781   -0.2646 H   0  0  0  0  0  0  0  0  0  0  0  0
    1.8592    2.3356    1.3821 H   0  0  0  0  0  0  0  0  0  0  0  0
    3.1764    4.4349    1.1987 H   0  0  0  0  0  0  0  0  0  0  0  0
    5.0666    4.4910   -0.4388 H   0  0  0  0  0  0  0  0  0  0  0  0
    3.8009   -0.3483   -1.9313 H   0  0  0  0  0  0  0  0  0  0  0  0
    4.5843    1.6541   -3.4495 H   0  0  0  0  0  0  0  0  0  0  0  0
    4.6967   -0.0511   -3.8047 H   0  0  0  0  0  0  0  0  0  0  0  0
    6.4991    0.1484   -5.3619 H   0  0  0  0  0  0  0  0  0  0  0  0
    8.9311    0.4762   -5.7063 H   0  0  0  0  0  0  0  0  0  0  0  0
    9.4506    1.8774   -1.8736 H   0  0  0  0  0  0  0  0  0  0  0  0
    7.0586    1.5898   -1.3270 H   0  0  0  0  0  0  0  0  0  0  0  0
  1  2  2  0  0  0  0
  2  3  1  0  0  0  0
  2 15  1  0  0  0  0
  3  4  1  0  0  0  0
  3 29  1  0  0  0  0
  4  5  1  0  0  0  0
  4 14  2  0  0  0  0
  5  6  2  0  0  0  0
  5 30  1  0  0  0  0
  6  7  1  0  0  0  0
  6 31  1  0  0  0  0
  7  8  1  0  0  0  0
  7  9  2  0  0  0  0
  9 10  1  0  0  0  0
  9 14  1  0  0  0  0
 10 11  1  0  0  0  0
 10 12  1  0  0  0  0
 10 13  1  0  0  0  0
 14 32  1  0  0  0  0
 15 16  1  0  0  0  0
 15 20  2  0  0  0  0
 16 17  2  0  0  0  0
 16 33  1  0  0  0  0
 17 18  1  0  0  0  0
 17 34  1  0  0  0  0
 18 19  2  0  0  0  0
 18 35  1  0  0  0  0
 19 20  1  0  0  0  0
 20 21  1  0  0  0  0
 21 22  1  0  0  0  0
 21 36  1  0  0  0  0
 22 23  1  0  0  0  0
 22 37  1  0  0  0  0
 22 38  1  0  0  0  0
 23 24  1  0  0  0  0
 23 28  2  0  0  0  0
 24 25  2  0  0  0  0
 24 39  1  0  0  0  0
 25 26  1  0  0  0  0
 25 40  1  0  0  0  0
 26 27  2  0  0  0  0
 27 28  1  0  0  0  0
 27 41  1  0  0  0  0
 28 42  1  0  0  0  0
M  END
$$$$
