CHEMBL2010869
 OpenBabel04072215363D

 66 72  0  0  0  0  0  0  0  0999 V2000
    3.4990    1.2049   -1.8244 C   0  0  0  0  0  0  0  0  0  0  0  0
    3.1836   -0.0127   -0.9694 C   0  0  0  0  0  0  0  0  0  0  0  0
    3.6948   -1.3404   -1.5529 C   0  0  0  0  0  0  0  0  0  0  0  0
    5.1394   -1.5367   -1.4910 N   0  0  0  0  0  0  0  0  0  0  0  0
    5.8146   -1.9714   -0.3261 C   0  0  0  0  0  0  0  0  0  0  0  0
    5.3578   -2.3701    0.9447 C   0  0  0  0  0  0  0  0  0  0  0  0
    6.3101   -2.6504    1.9519 C   0  0  0  0  0  0  0  0  0  0  0  0
    7.6842   -2.5557    1.7285 C   0  0  0  0  0  0  0  0  0  0  0  0
    8.6863   -2.8101    2.6786 N   0  0  0  0  0  0  0  0  0  0  0  0
    8.6723   -2.7141    4.0668 C   0  0  0  0  0  0  0  0  0  0  0  0
    7.5437   -2.8604    4.7694 N   0  0  0  0  0  0  0  0  0  0  0  0
    7.6176   -2.6583    6.0965 C   0  0  0  0  0  0  0  0  0  0  0  0
    8.7702   -2.3012    6.7582 C   0  0  0  0  0  0  0  0  0  0  0  0
    8.7980   -2.0125    8.2234 C   0  0  0  0  0  0  0  0  0  0  0  0
    9.1437   -3.2366    9.0523 C   0  0  0  0  0  0  0  0  0  0  0  0
    9.8836   -2.2116    5.9538 C   0  0  0  0  0  0  0  0  0  0  0  0
    9.8623   -2.4202    4.6222 N   0  0  0  0  0  0  0  0  0  0  0  0
    8.1093   -2.2233    0.4407 C   0  0  0  0  0  0  0  0  0  0  0  0
    7.1908   -1.8813   -0.5651 C   0  0  0  0  0  0  0  0  0  0  0  0
    7.2396   -1.3051   -1.8130 C   0  0  0  0  0  0  0  0  0  0  0  0
    8.3567   -0.5800   -2.2468 C   0  0  0  0  0  0  0  0  0  0  0  0
    8.0910    0.4157   -3.2049 C   0  0  0  0  0  0  0  0  0  0  0  0
    6.8444    0.5832   -3.8363 C   0  0  0  0  0  0  0  0  0  0  0  0
    6.0279   -0.5993   -3.7684 C   0  0  0  0  0  0  0  0  0  0  0  0
    6.0587   -1.2061   -2.4920 C   0  0  0  0  0  0  0  0  0  0  0  0
    6.1365   -1.4383   -5.1231 C   0  0  0  0  0  0  0  0  0  0  0  0
    7.2285   -0.9130   -6.1499 C   0  0  0  0  0  0  0  0  0  0  0  0
    7.0149    0.5534   -6.2801 C   0  0  0  0  0  0  0  0  0  0  0  0
    6.6689    1.2346   -7.3713 N   0  0  0  0  0  0  0  0  0  0  0  0
    6.1664    2.3835   -6.8510 N   0  0  0  0  0  0  0  0  0  0  0  0
    5.5430    3.3490   -7.7229 C   0  0  0  0  0  0  0  0  0  0  0  0
    6.1091    2.3880   -5.4781 C   0  0  0  0  0  0  0  0  0  0  0  0
    6.8203    1.2816   -5.0958 C   0  0  0  0  0  0  0  0  0  0  0  0
    9.3461    1.0656   -3.4961 C   0  0  0  0  0  0  0  0  0  0  0  0
    9.6723    1.9745   -4.2410 O   0  0  0  0  0  0  0  0  0  0  0  0
   10.2765    0.3694   -2.7368 N   0  0  0  0  0  0  0  0  0  0  0  0
    9.7530   -0.6284   -1.8390 C   0  0  0  0  0  0  0  0  0  0  0  0
    3.0626    2.1040   -1.3748 H   0  0  0  0  0  0  0  0  0  0  0  0
    3.0806    1.0985   -2.8301 H   0  0  0  0  0  0  0  0  0  0  0  0
    4.5759    1.3687   -1.9042 H   0  0  0  0  0  0  0  0  0  0  0  0
    2.0916   -0.0754   -0.8720 H   0  0  0  0  0  0  0  0  0  0  0  0
    3.5766    0.1479    0.0416 H   0  0  0  0  0  0  0  0  0  0  0  0
    3.3730   -1.4689   -2.5907 H   0  0  0  0  0  0  0  0  0  0  0  0
    3.2457   -2.1613   -0.9794 H   0  0  0  0  0  0  0  0  0  0  0  0
    4.3001   -2.4244    1.1808 H   0  0  0  0  0  0  0  0  0  0  0  0
    5.9414   -2.9403    2.9315 H   0  0  0  0  0  0  0  0  0  0  0  0
    9.6221   -2.5533    2.3956 H   0  0  0  0  0  0  0  0  0  0  0  0
    6.6778   -2.7853    6.6233 H   0  0  0  0  0  0  0  0  0  0  0  0
    7.8207   -1.6235    8.5334 H   0  0  0  0  0  0  0  0  0  0  0  0
    9.5195   -1.2112    8.4274 H   0  0  0  0  0  0  0  0  0  0  0  0
    8.4310   -4.0494    8.8792 H   0  0  0  0  0  0  0  0  0  0  0  0
    9.1183   -2.9841   10.1175 H   0  0  0  0  0  0  0  0  0  0  0  0
   10.1459   -3.6089    8.8158 H   0  0  0  0  0  0  0  0  0  0  0  0
   10.8596   -1.9515    6.3587 H   0  0  0  0  0  0  0  0  0  0  0  0
    9.1723   -2.1813    0.2310 H   0  0  0  0  0  0  0  0  0  0  0  0
    5.1584   -1.3931   -5.6147 H   0  0  0  0  0  0  0  0  0  0  0  0
    6.3652   -2.4834   -4.8871 H   0  0  0  0  0  0  0  0  0  0  0  0
    7.1778   -1.4260   -7.1134 H   0  0  0  0  0  0  0  0  0  0  0  0
    8.2367   -1.0884   -5.7423 H   0  0  0  0  0  0  0  0  0  0  0  0
    5.8402    3.1511   -8.7557 H   0  0  0  0  0  0  0  0  0  0  0  0
    5.8685    4.3483   -7.4249 H   0  0  0  0  0  0  0  0  0  0  0  0
    4.4595    3.2504   -7.6173 H   0  0  0  0  0  0  0  0  0  0  0  0
    5.5369    3.1229   -4.9294 H   0  0  0  0  0  0  0  0  0  0  0  0
   11.2511    0.6032   -2.8190 H   0  0  0  0  0  0  0  0  0  0  0  0
    9.9092   -0.2943   -0.8131 H   0  0  0  0  0  0  0  0  0  0  0  0
   10.2220   -1.5946   -2.0409 H   0  0  0  0  0  0  0  0  0  0  0  0
  1  2  1  0  0  0  0
  1 38  1  0  0  0  0
  1 39  1  0  0  0  0
  1 40  1  0  0  0  0
  2  3  1  0  0  0  0
  2 41  1  0  0  0  0
  2 42  1  0  0  0  0
  3  4  1  0  0  0  0
  3 43  1  0  0  0  0
  3 44  1  0  0  0  0
  4  5  1  0  0  0  0
  4 25  1  0  0  0  0
  5  6  1  0  0  0  0
  5 19  2  0  0  0  0
  6  7  2  0  0  0  0
  6 45  1  0  0  0  0
  7  8  1  0  0  0  0
  7 46  1  0  0  0  0
  8  9  1  0  0  0  0
  8 18  2  0  0  0  0
  9 10  1  0  0  0  0
  9 47  1  0  0  0  0
 10 11  1  0  0  0  0
 10 17  2  0  0  0  0
 11 12  2  0  0  0  0
 12 13  1  0  0  0  0
 12 48  1  0  0  0  0
 13 14  1  0  0  0  0
 13 16  2  0  0  0  0
 14 15  1  0  0  0  0
 14 49  1  0  0  0  0
 14 50  1  0  0  0  0
 15 51  1  0  0  0  0
 15 52  1  0  0  0  0
 15 53  1  0  0  0  0
 16 17  1  0  0  0  0
 16 54  1  0  0  0  0
 18 19  1  0  0  0  0
 18 55  1  0  0  0  0
 19 20  1  0  0  0  0
 20 21  1  0  0  0  0
 20 25  2  0  0  0  0
 21 22  2  0  0  0  0
 21 37  1  0  0  0  0
 22 23  1  0  0  0  0
 22 34  1  0  0  0  0
 23 24  2  0  0  0  0
 23 33  1  0  0  0  0
 24 25  1  0  0  0  0
 24 26  1  0  0  0  0
 26 27  1  0  0  0  0
 26 56  1  0  0  0  0
 26 57  1  0  0  0  0
 27 28  1  0  0  0  0
 27 58  1  0  0  0  0
 27 59  1  0  0  0  0
 28 29  2  0  0  0  0
 28 33  1  0  0  0  0
 29 30  1  0  0  0  0
 30 31  1  0  0  0  0
 30 32  1  0  0  0  0
 31 60  1  0  0  0  0
 31 61  1  0  0  0  0
 31 62  1  0  0  0  0
 32 33  2  0  0  0  0
 32 63  1  0  0  0  0
 34 35  2  0  0  0  0
 34 36  1  0  0  0  0
 36 37  1  0  0  0  0
 36 64  1  0  0  0  0
 37 65  1  0  0  0  0
 37 66  1  0  0  0  0
M  END
$$$$
