CHEMBL4637872
 OpenBabel04072215383D

 84 88  0  0  0  0  0  0  0  0999 V2000
    9.3935   -0.4262   -1.7307 C   0  0  0  0  0  0  0  0  0  0  0  0
    9.0432   -1.8975   -1.9176 C   0  0  0  0  0  0  0  0  0  0  0  0
    8.1886   -2.3493   -0.8053 N   0  0  0  0  0  0  0  0  0  0  0  0
    7.8964   -4.0124   -0.6533 S   0  0  0  0  0  0  0  0  0  0  0  0
    9.0345   -4.7240   -1.1978 O   0  0  0  0  0  0  0  0  0  0  0  0
    7.4571   -4.2364    0.7106 O   0  0  0  0  0  0  0  0  0  0  0  0
    6.4707   -4.3479   -1.6929 C   0  0  0  0  0  0  0  0  0  0  0  0
    6.6792   -5.1482   -2.8317 C   0  0  0  0  0  0  0  0  0  0  0  0
    5.6053   -5.6376   -3.5642 C   0  0  0  0  0  0  0  0  0  0  0  0
    4.3068   -5.3635   -3.1592 C   0  0  0  0  0  0  0  0  0  0  0  0
    4.0934   -4.5627   -2.0400 C   0  0  0  0  0  0  0  0  0  0  0  0
    5.1605   -3.9975   -1.3087 C   0  0  0  0  0  0  0  0  0  0  0  0
    4.8651   -3.1883   -0.1878 N   0  0  0  0  0  0  0  0  0  0  0  0
    3.6837   -2.4353   -0.0277 C   0  0  0  0  0  0  0  0  0  0  0  0
    3.1109   -1.8481   -1.0708 N   0  0  0  0  0  0  0  0  0  0  0  0
    1.9902   -1.1889   -0.7971 C   0  0  0  0  0  0  0  0  0  0  0  0
    1.4337   -1.0356    0.4011 N   0  0  0  0  0  0  0  0  0  0  0  0
    2.1004   -1.6126    1.3911 C   0  0  0  0  0  0  0  0  0  0  0  0
    1.6097   -1.4324    2.6909 N   0  0  0  0  0  0  0  0  0  0  0  0
    2.1453   -1.9171    3.8941 C   0  0  0  0  0  0  0  0  0  0  0  0
    3.4785   -2.2994    3.9858 C   0  0  0  0  0  0  0  0  0  0  0  0
    3.9469   -3.0629    5.0472 C   0  0  0  0  0  0  0  0  0  0  0  0
    3.1409   -3.4079    6.1395 C   0  0  0  0  0  0  0  0  0  0  0  0
    3.6425   -4.2568    7.1234 N   0  0  0  0  0  0  0  0  0  0  0  0
    2.8107   -5.3700    7.6428 C   0  0  0  0  0  0  0  0  0  0  0  0
    3.2298   -5.6625    9.1148 C   0  0  0  0  0  0  0  0  0  0  0  0
    4.6686   -5.9921    9.2401 N   0  0  0  0  0  0  0  0  0  0  0  0
    5.0364   -6.1691   10.6425 C   0  0  0  0  0  0  0  0  0  0  0  0
    5.4739   -4.9042    8.6410 C   0  0  0  0  0  0  0  0  0  0  0  0
    5.0805   -4.5838    7.1841 C   0  0  0  0  0  0  0  0  0  0  0  0
    1.8497   -2.8200    6.1535 C   0  0  0  0  0  0  0  0  0  0  0  0
    0.9537   -2.8426    7.2020 O   0  0  0  0  0  0  0  0  0  0  0  0
    1.4940   -2.6773    8.5147 C   0  0  0  0  0  0  0  0  0  0  0  0
    1.8194   -1.2501    8.8867 C   0  0  0  0  0  0  0  0  0  0  0  0
    0.5644   -0.4076    9.0032 C   0  0  0  0  0  0  0  0  0  0  0  0
    0.8640    0.9212    9.5559 N   0  0  0  0  0  0  0  0  0  0  0  0
   -0.3780    1.7066    9.6978 C   0  0  0  0  0  0  0  0  0  0  0  0
   -0.9530    2.1916    8.3529 C   0  0  0  0  0  0  0  0  0  0  0  0
    0.0124    2.9488    7.6131 O   0  0  0  0  0  0  0  0  0  0  0  0
    1.2125    2.1913    7.4017 C   0  0  0  0  0  0  0  0  0  0  0  0
    1.8079    1.7108    8.7330 C   0  0  0  0  0  0  0  0  0  0  0  0
    1.3504   -2.1419    5.0182 C   0  0  0  0  0  0  0  0  0  0  0  0
    3.1983   -2.3475    1.1963 N   0  0  0  0  0  0  0  0  0  0  0  0
    9.9333   -0.0484   -2.6060 H   0  0  0  0  0  0  0  0  0  0  0  0
   10.0381   -0.2810   -0.8556 H   0  0  0  0  0  0  0  0  0  0  0  0
    8.4977    0.1866   -1.5898 H   0  0  0  0  0  0  0  0  0  0  0  0
    9.9810   -2.4633   -1.9351 H   0  0  0  0  0  0  0  0  0  0  0  0
    8.5217   -2.0347   -2.8678 H   0  0  0  0  0  0  0  0  0  0  0  0
    7.3366   -1.8031   -0.6604 H   0  0  0  0  0  0  0  0  0  0  0  0
    7.6887   -5.4345   -3.1280 H   0  0  0  0  0  0  0  0  0  0  0  0
    5.7726   -6.2718   -4.4323 H   0  0  0  0  0  0  0  0  0  0  0  0
    3.4546   -5.7734   -3.6960 H   0  0  0  0  0  0  0  0  0  0  0  0
    3.0632   -4.3944   -1.7304 H   0  0  0  0  0  0  0  0  0  0  0  0
    5.0136   -3.6899    0.6922 H   0  0  0  0  0  0  0  0  0  0  0  0
    1.4828   -0.7308   -1.6391 H   0  0  0  0  0  0  0  0  0  0  0  0
    0.7044   -0.9884    2.7016 H   0  0  0  0  0  0  0  0  0  0  0  0
    4.1925   -2.0567    3.2067 H   0  0  0  0  0  0  0  0  0  0  0  0
    4.9695   -3.4114    4.9560 H   0  0  0  0  0  0  0  0  0  0  0  0
    2.9622   -6.2669    7.0302 H   0  0  0  0  0  0  0  0  0  0  0  0
    1.7373   -5.1582    7.6156 H   0  0  0  0  0  0  0  0  0  0  0  0
    2.6160   -6.4840    9.4982 H   0  0  0  0  0  0  0  0  0  0  0  0
    3.0093   -4.7933    9.7500 H   0  0  0  0  0  0  0  0  0  0  0  0
    4.4156   -6.9381   11.1114 H   0  0  0  0  0  0  0  0  0  0  0  0
    4.9320   -5.2425   11.2219 H   0  0  0  0  0  0  0  0  0  0  0  0
    6.0753   -6.5047   10.7153 H   0  0  0  0  0  0  0  0  0  0  0  0
    6.5339   -5.1813    8.6575 H   0  0  0  0  0  0  0  0  0  0  0  0
    5.3658   -3.9814    9.2296 H   0  0  0  0  0  0  0  0  0  0  0  0
    5.3016   -5.4371    6.5292 H   0  0  0  0  0  0  0  0  0  0  0  0
    5.7052   -3.7391    6.8738 H   0  0  0  0  0  0  0  0  0  0  0  0
    2.4169   -3.2074    8.6730 H   0  0  0  0  0  0  0  0  0  0  0  0
    0.7697   -3.1105    9.2119 H   0  0  0  0  0  0  0  0  0  0  0  0
    2.4990   -0.8439    8.1317 H   0  0  0  0  0  0  0  0  0  0  0  0
    2.3508   -1.2575    9.8471 H   0  0  0  0  0  0  0  0  0  0  0  0
   -0.1246   -0.9187    9.6896 H   0  0  0  0  0  0  0  0  0  0  0  0
    0.0643   -0.3629    8.0301 H   0  0  0  0  0  0  0  0  0  0  0  0
   -0.1446    2.5807   10.3198 H   0  0  0  0  0  0  0  0  0  0  0  0
   -1.1335    1.1332   10.2515 H   0  0  0  0  0  0  0  0  0  0  0  0
   -1.8106    2.8433    8.5378 H   0  0  0  0  0  0  0  0  0  0  0  0
   -1.3026    1.3553    7.7377 H   0  0  0  0  0  0  0  0  0  0  0  0
    1.9302    2.8484    6.9004 H   0  0  0  0  0  0  0  0  0  0  0  0
    1.0026    1.3563    6.7224 H   0  0  0  0  0  0  0  0  0  0  0  0
    2.0959    2.5884    9.3259 H   0  0  0  0  0  0  0  0  0  0  0  0
    2.7454    1.1734    8.5576 H   0  0  0  0  0  0  0  0  0  0  0  0
    0.3163   -1.7988    5.0292 H   0  0  0  0  0  0  0  0  0  0  0  0
  1  2  1  0  0  0  0
  1 44  1  0  0  0  0
  1 45  1  0  0  0  0
  1 46  1  0  0  0  0
  2  3  1  0  0  0  0
  2 47  1  0  0  0  0
  2 48  1  0  0  0  0
  3  4  1  0  0  0  0
  3 49  1  0  0  0  0
  4  5  2  0  0  0  0
  4  6  2  0  0  0  0
  4  7  1  0  0  0  0
  7  8  1  0  0  0  0
  7 12  2  0  0  0  0
  8  9  2  0  0  0  0
  8 50  1  0  0  0  0
  9 10  1  0  0  0  0
  9 51  1  0  0  0  0
 10 11  2  0  0  0  0
 10 52  1  0  0  0  0
 11 12  1  0  0  0  0
 11 53  1  0  0  0  0
 12 13  1  0  0  0  0
 13 14  1  0  0  0  0
 13 54  1  0  0  0  0
 14 15  1  0  0  0  0
 14 43  2  0  0  0  0
 15 16  2  0  0  0  0
 16 17  1  0  0  0  0
 16 55  1  0  0  0  0
 17 18  2  0  0  0  0
 18 19  1  0  0  0  0
 18 43  1  0  0  0  0
 19 20  1  0  0  0  0
 19 56  1  0  0  0  0
 20 21  1  0  0  0  0
 20 42  2  0  0  0  0
 21 22  2  0  0  0  0
 21 57  1  0  0  0  0
 22 23  1  0  0  0  0
 22 58  1  0  0  0  0
 23 24  1  0  0  0  0
 23 31  2  0  0  0  0
 24 25  1  0  0  0  0
 24 30  1  0  0  0  0
 25 26  1  0  0  0  0
 25 59  1  0  0  0  0
 25 60  1  0  0  0  0
 26 27  1  0  0  0  0
 26 61  1  0  0  0  0
 26 62  1  0  0  0  0
 27 28  1  0  0  0  0
 27 29  1  0  0  0  0
 28 63  1  0  0  0  0
 28 64  1  0  0  0  0
 28 65  1  0  0  0  0
 29 30  1  0  0  0  0
 29 66  1  0  0  0  0
 29 67  1  0  0  0  0
 30 68  1  0  0  0  0
 30 69  1  0  0  0  0
 31 32  1  0  0  0  0
 31 42  1  0  0  0  0
 32 33  1  0  0  0  0
 33 34  1  0  0  0  0
 33 70  1  0  0  0  0
 33 71  1  0  0  0  0
 34 35  1  0  0  0  0
 34 72  1  0  0  0  0
 34 73  1  0  0  0  0
 35 36  1  0  0  0  0
 35 74  1  0  0  0  0
 35 75  1  0  0  0  0
 36 37  1  0  0  0  0
 36 41  1  0  0  0  0
 37 38  1  0  0  0  0
 37 76  1  0  0  0  0
 37 77  1  0  0  0  0
 38 39  1  0  0  0  0
 38 78  1  0  0  0  0
 38 79  1  0  0  0  0
 39 40  1  0  0  0  0
 40 41  1  0  0  0  0
 40 80  1  0  0  0  0
 40 81  1  0  0  0  0
 41 82  1  0  0  0  0
 41 83  1  0  0  0  0
 42 84  1  0  0  0  0
M  END
$$$$
