CHEMBL2386810
 OpenBabel04072215363D

 65 69  0  0  0  0  0  0  0  0999 V2000
    4.0860    3.7080   -4.0457 C   0  0  0  0  0  0  0  0  0  0  0  0
    3.8403    2.7033   -2.9665 C   0  0  0  0  0  0  0  0  0  0  0  0
    2.9016    3.0265   -2.0608 N   0  0  0  0  0  0  0  0  0  0  0  0
    2.6726    2.1607   -1.0593 C   0  0  0  0  0  0  0  0  0  0  0  0
    1.6840    2.4416   -0.0965 N   0  0  0  0  0  0  0  0  0  0  0  0
    0.9851    3.5973   -0.0234 C   0  0  0  0  0  0  0  0  0  0  0  0
    0.1050    4.0815    0.9079 C   0  0  0  0  0  0  0  0  0  0  0  0
   -0.2744    5.3874    0.4593 C   0  0  0  0  0  0  0  0  0  0  0  0
   -1.1665    6.3405    1.1089 C   0  0  0  0  0  0  0  0  0  0  0  0
   -1.7513    6.0457    2.3523 C   0  0  0  0  0  0  0  0  0  0  0  0
   -2.6047    6.9593    2.9789 C   0  0  0  0  0  0  0  0  0  0  0  0
   -2.9034    8.1857    2.3728 C   0  0  0  0  0  0  0  0  0  0  0  0
   -3.8734    9.1386    3.0154 C   0  0  0  0  0  0  0  0  0  0  0  0
   -3.2334   10.1085    3.8758 N   0  0  0  0  0  0  0  0  0  0  0  0
   -4.0436   11.0518    4.4786 C   0  0  0  0  0  0  0  0  0  0  0  0
   -5.2535   11.0837    4.2810 O   0  0  0  0  0  0  0  0  0  0  0  0
   -3.3192   11.9323    5.2526 N   0  0  0  0  0  0  0  0  0  0  0  0
   -3.8505   13.0019    6.0108 C   0  0  0  0  0  0  0  0  0  0  0  0
   -5.2027   13.1027    6.3582 C   0  0  0  0  0  0  0  0  0  0  0  0
   -5.6763   14.1941    7.0941 C   0  0  0  0  0  0  0  0  0  0  0  0
   -4.8002   15.1983    7.4951 C   0  0  0  0  0  0  0  0  0  0  0  0
   -3.4506   15.0974    7.1647 C   0  0  0  0  0  0  0  0  0  0  0  0
   -2.3642   16.3413    7.6528 Cl  0  0  0  0  0  0  0  0  0  0  0  0
   -2.9716   14.0054    6.4360 C   0  0  0  0  0  0  0  0  0  0  0  0
   -2.3134    8.4910    1.1399 C   0  0  0  0  0  0  0  0  0  0  0  0
   -1.4607    7.5766    0.5152 C   0  0  0  0  0  0  0  0  0  0  0  0
    0.3418    5.6711   -0.7060 N   0  0  0  0  0  0  0  0  0  0  0  0
    1.0779    4.5819   -0.9694 N   0  0  0  0  0  0  0  0  0  0  0  0
    3.3792    0.9883   -0.9749 C   0  0  0  0  0  0  0  0  0  0  0  0
    4.3593    0.7398   -1.9219 C   0  0  0  0  0  0  0  0  0  0  0  0
    5.1007   -0.4247   -1.7750 N   0  0  0  0  0  0  0  0  0  0  0  0
    5.7167   -1.0355   -2.9554 C   0  0  0  0  0  0  0  0  0  0  0  0
    6.0319   -2.5152   -2.5937 C   0  0  0  0  0  0  0  0  0  0  0  0
    6.8637   -2.6878   -1.3739 N   0  0  0  0  0  0  0  0  0  0  0  0
    6.2697   -1.9230   -0.2536 C   0  0  0  0  0  0  0  0  0  0  0  0
    5.9914   -0.4467   -0.6046 C   0  0  0  0  0  0  0  0  0  0  0  0
    4.5795    1.5820   -2.9422 N   0  0  0  0  0  0  0  0  0  0  0  0
    3.4245    4.5736   -3.9220 H   0  0  0  0  0  0  0  0  0  0  0  0
    3.8934    3.2679   -5.0269 H   0  0  0  0  0  0  0  0  0  0  0  0
    5.1189    4.0613   -3.9955 H   0  0  0  0  0  0  0  0  0  0  0  0
    1.7088    1.8306    0.7109 H   0  0  0  0  0  0  0  0  0  0  0  0
   -0.2185    3.5722    1.8024 H   0  0  0  0  0  0  0  0  0  0  0  0
   -1.5613    5.0997    2.8478 H   0  0  0  0  0  0  0  0  0  0  0  0
   -3.0529    6.6909    3.9323 H   0  0  0  0  0  0  0  0  0  0  0  0
   -4.6121    8.5820    3.6052 H   0  0  0  0  0  0  0  0  0  0  0  0
   -4.4336    9.6781    2.2418 H   0  0  0  0  0  0  0  0  0  0  0  0
   -2.4455    9.7845    4.4209 H   0  0  0  0  0  0  0  0  0  0  0  0
   -2.3273   11.9480    5.0675 H   0  0  0  0  0  0  0  0  0  0  0  0
   -5.9196   12.3373    6.0734 H   0  0  0  0  0  0  0  0  0  0  0  0
   -6.7322   14.2567    7.3473 H   0  0  0  0  0  0  0  0  0  0  0  0
   -5.1728   16.0489    8.0588 H   0  0  0  0  0  0  0  0  0  0  0  0
   -1.9158   13.9599    6.1853 H   0  0  0  0  0  0  0  0  0  0  0  0
   -2.5306    9.4343    0.6443 H   0  0  0  0  0  0  0  0  0  0  0  0
   -1.0296    7.8295   -0.4526 H   0  0  0  0  0  0  0  0  0  0  0  0
    1.6622    4.5531   -1.7992 H   0  0  0  0  0  0  0  0  0  0  0  0
    3.1806    0.2621   -0.1952 H   0  0  0  0  0  0  0  0  0  0  0  0
    6.6403   -0.5117   -3.2343 H   0  0  0  0  0  0  0  0  0  0  0  0
    5.0377   -1.0193   -3.8159 H   0  0  0  0  0  0  0  0  0  0  0  0
    6.5398   -3.0005   -3.4334 H   0  0  0  0  0  0  0  0  0  0  0  0
    5.0868   -3.0532   -2.4419 H   0  0  0  0  0  0  0  0  0  0  0  0
    7.7852   -2.2972   -1.5671 H   0  0  0  0  0  0  0  0  0  0  0  0
    6.9413   -1.9715    0.6098 H   0  0  0  0  0  0  0  0  0  0  0  0
    5.3291   -2.4027    0.0473 H   0  0  0  0  0  0  0  0  0  0  0  0
    6.9321    0.0724   -0.8361 H   0  0  0  0  0  0  0  0  0  0  0  0
    5.5540    0.0505    0.2688 H   0  0  0  0  0  0  0  0  0  0  0  0
  1  2  1  0  0  0  0
  1 38  1  0  0  0  0
  1 39  1  0  0  0  0
  1 40  1  0  0  0  0
  2  3  1  0  0  0  0
  2 37  2  0  0  0  0
  3  4  2  0  0  0  0
  4  5  1  0  0  0  0
  4 29  1  0  0  0  0
  5  6  1  0  0  0  0
  5 41  1  0  0  0  0
  6  7  2  0  0  0  0
  6 28  1  0  0  0  0
  7  8  1  0  0  0  0
  7 42  1  0  0  0  0
  8  9  1  0  0  0  0
  8 27  2  0  0  0  0
  9 10  1  0  0  0  0
  9 26  2  0  0  0  0
 10 11  2  0  0  0  0
 10 43  1  0  0  0  0
 11 12  1  0  0  0  0
 11 44  1  0  0  0  0
 12 13  1  0  0  0  0
 12 25  2  0  0  0  0
 13 14  1  0  0  0  0
 13 45  1  0  0  0  0
 13 46  1  0  0  0  0
 14 15  1  0  0  0  0
 14 47  1  0  0  0  0
 15 16  2  0  0  0  0
 15 17  1  0  0  0  0
 17 18  1  0  0  0  0
 17 48  1  0  0  0  0
 18 19  1  0  0  0  0
 18 24  2  0  0  0  0
 19 20  2  0  0  0  0
 19 49  1  0  0  0  0
 20 21  1  0  0  0  0
 20 50  1  0  0  0  0
 21 22  2  0  0  0  0
 21 51  1  0  0  0  0
 22 23  1  0  0  0  0
 22 24  1  0  0  0  0
 24 52  1  0  0  0  0
 25 26  1  0  0  0  0
 25 53  1  0  0  0  0
 26 54  1  0  0  0  0
 27 28  1  0  0  0  0
 28 55  1  0  0  0  0
 29 30  2  0  0  0  0
 29 56  1  0  0  0  0
 30 31  1  0  0  0  0
 30 37  1  0  0  0  0
 31 32  1  0  0  0  0
 31 36  1  0  0  0  0
 32 33  1  0  0  0  0
 32 57  1  0  0  0  0
 32 58  1  0  0  0  0
 33 34  1  0  0  0  0
 33 59  1  0  0  0  0
 33 60  1  0  0  0  0
 34 35  1  0  0  0  0
 34 61  1  0  0  0  0
 35 36  1  0  0  0  0
 35 62  1  0  0  0  0
 35 63  1  0  0  0  0
 36 64  1  0  0  0  0
 36 65  1  0  0  0  0
M  END
$$$$
