CHEMBL4104537
 OpenBabel04072215383D

 66 70  0  0  0  0  0  0  0  0999 V2000
    2.0600   -0.1149   -0.8511 C   0  0  0  0  0  0  0  0  0  0  0  0
    0.6170    0.0908   -0.9648 N   0  0  0  0  0  0  0  0  0  0  0  0
   -0.1117   -1.1398   -0.6194 C   0  0  0  0  0  0  0  0  0  0  0  0
   -1.6443   -0.9308   -0.6554 C   0  0  0  0  0  0  0  0  0  0  0  0
   -2.1439    0.1219    0.2602 N   0  0  0  0  0  0  0  0  0  0  0  0
   -2.0022   -0.2056    1.6944 C   0  0  0  0  0  0  0  0  0  0  0  0
   -2.7130   -1.4819    2.1488 C   0  0  0  0  0  0  0  0  0  0  0  0
   -1.9617   -2.6664    2.1041 C   0  0  0  0  0  0  0  0  0  0  0  0
   -2.4911   -3.9139    2.4436 C   0  0  0  0  0  0  0  0  0  0  0  0
   -3.7955   -4.0560    2.8976 C   0  0  0  0  0  0  0  0  0  0  0  0
   -4.3538   -5.3390    3.2400 N   0  0  0  0  0  0  0  0  0  0  0  0
   -3.6765   -6.5664    3.1618 C   0  0  0  0  0  0  0  0  0  0  0  0
   -2.4946   -6.7083    2.8677 O   0  0  0  0  0  0  0  0  0  0  0  0
   -4.4127   -7.8537    3.4580 C   0  0  0  0  0  0  0  0  0  0  0  0
   -5.7970   -7.9828    3.3481 C   0  0  0  0  0  0  0  0  0  0  0  0
   -6.3994   -9.2342    3.5510 C   0  0  0  0  0  0  0  0  0  0  0  0
   -5.6288  -10.3696    3.8561 C   0  0  0  0  0  0  0  0  0  0  0  0
   -6.4712  -11.8686    4.0937 Cl  0  0  0  0  0  0  0  0  0  0  0  0
   -4.2435  -10.2784    3.9568 C   0  0  0  0  0  0  0  0  0  0  0  0
   -3.4234  -11.4335    4.2569 C   0  0  0  0  0  0  0  0  0  0  0  0
   -2.7458  -12.3838    4.5660 C   0  0  0  0  0  0  0  0  0  0  0  0
   -1.8346  -13.4004    5.0282 C   0  0  0  0  0  0  0  0  0  0  0  0
   -1.6454  -14.5768    4.3078 C   0  0  0  0  0  0  0  0  0  0  0  0
   -0.6754  -15.4864    4.5751 N   0  0  0  0  0  0  0  0  0  0  0  0
    0.1112  -15.2317    5.6458 C   0  0  0  0  0  0  0  0  0  0  0  0
   -0.0700  -14.1567    6.5206 C   0  0  0  0  0  0  0  0  0  0  0  0
    0.6904  -14.0126    7.6961 C   0  0  0  0  0  0  0  0  0  0  0  0
    0.4550  -12.9473    8.5648 C   0  0  0  0  0  0  0  0  0  0  0  0
   -0.5075  -11.9953    8.2503 C   0  0  0  0  0  0  0  0  0  0  0  0
   -1.2492  -12.1160    7.0771 C   0  0  0  0  0  0  0  0  0  0  0  0
   -1.0641  -13.2077    6.1961 C   0  0  0  0  0  0  0  0  0  0  0  0
   -3.6438   -9.0113    3.7572 C   0  0  0  0  0  0  0  0  0  0  0  0
   -4.5582   -2.8727    2.9947 C   0  0  0  0  0  0  0  0  0  0  0  0
   -4.0440   -1.5814    2.6074 C   0  0  0  0  0  0  0  0  0  0  0  0
   -4.9732   -0.3847    2.7411 C   0  0  0  0  0  0  0  0  0  0  0  0
   -4.4760    0.8151    2.3400 F   0  0  0  0  0  0  0  0  0  0  0  0
   -6.1340   -0.5500    2.0440 F   0  0  0  0  0  0  0  0  0  0  0  0
   -5.3582   -0.1920    4.0382 F   0  0  0  0  0  0  0  0  0  0  0  0
   -1.3867    1.3608   -0.0775 C   0  0  0  0  0  0  0  0  0  0  0  0
    0.1633    1.2107   -0.1178 C   0  0  0  0  0  0  0  0  0  0  0  0
    2.3808   -0.9546   -1.4789 H   0  0  0  0  0  0  0  0  0  0  0  0
    2.3707   -0.3249    0.1792 H   0  0  0  0  0  0  0  0  0  0  0  0
    2.6041    0.7676   -1.2036 H   0  0  0  0  0  0  0  0  0  0  0  0
    0.2029   -1.4892    0.3694 H   0  0  0  0  0  0  0  0  0  0  0  0
    0.1437   -1.9326   -1.3322 H   0  0  0  0  0  0  0  0  0  0  0  0
   -2.1625   -1.8789   -0.4849 H   0  0  0  0  0  0  0  0  0  0  0  0
   -1.9266   -0.6494   -1.6803 H   0  0  0  0  0  0  0  0  0  0  0  0
   -2.3536    0.6358    2.3007 H   0  0  0  0  0  0  0  0  0  0  0  0
   -0.9447   -0.2944    1.9740 H   0  0  0  0  0  0  0  0  0  0  0  0
   -0.9259   -2.6473    1.7778 H   0  0  0  0  0  0  0  0  0  0  0  0
   -1.8225   -4.7568    2.3281 H   0  0  0  0  0  0  0  0  0  0  0  0
   -5.3060   -5.3259    3.5816 H   0  0  0  0  0  0  0  0  0  0  0  0
   -6.4275   -7.1458    3.0592 H   0  0  0  0  0  0  0  0  0  0  0  0
   -7.4796   -9.3302    3.4504 H   0  0  0  0  0  0  0  0  0  0  0  0
   -2.2804  -14.8374    3.4656 H   0  0  0  0  0  0  0  0  0  0  0  0
    0.9204  -15.9449    5.7918 H   0  0  0  0  0  0  0  0  0  0  0  0
    1.4488  -14.7472    7.9581 H   0  0  0  0  0  0  0  0  0  0  0  0
    1.0143  -12.8645    9.4925 H   0  0  0  0  0  0  0  0  0  0  0  0
   -0.6952  -11.1605    8.9199 H   0  0  0  0  0  0  0  0  0  0  0  0
   -2.0028  -11.3618    6.8677 H   0  0  0  0  0  0  0  0  0  0  0  0
   -2.5604   -8.9327    3.8176 H   0  0  0  0  0  0  0  0  0  0  0  0
   -5.5817   -2.9201    3.3692 H   0  0  0  0  0  0  0  0  0  0  0  0
   -1.6586    2.1728    0.6076 H   0  0  0  0  0  0  0  0  0  0  0  0
   -1.7181    1.6959   -1.0710 H   0  0  0  0  0  0  0  0  0  0  0  0
    0.5365    1.0926    0.9074 H   0  0  0  0  0  0  0  0  0  0  0  0
    0.5896    2.1435   -0.5076 H   0  0  0  0  0  0  0  0  0  0  0  0
  1  2  1  0  0  0  0
  1 41  1  0  0  0  0
  1 42  1  0  0  0  0
  1 43  1  0  0  0  0
  2  3  1  0  0  0  0
  2 40  1  0  0  0  0
  3  4  1  0  0  0  0
  3 44  1  0  0  0  0
  3 45  1  0  0  0  0
  4  5  1  0  0  0  0
  4 46  1  0  0  0  0
  4 47  1  0  0  0  0
  5  6  1  0  0  0  0
  5 39  1  0  0  0  0
  6  7  1  0  0  0  0
  6 48  1  0  0  0  0
  6 49  1  0  0  0  0
  7  8  1  0  0  0  0
  7 34  2  0  0  0  0
  8  9  2  0  0  0  0
  8 50  1  0  0  0  0
  9 10  1  0  0  0  0
  9 51  1  0  0  0  0
 10 11  1  0  0  0  0
 10 33  2  0  0  0  0
 11 12  1  0  0  0  0
 11 52  1  0  0  0  0
 12 13  2  0  0  0  0
 12 14  1  0  0  0  0
 14 15  1  0  0  0  0
 14 32  2  0  0  0  0
 15 16  2  0  0  0  0
 15 53  1  0  0  0  0
 16 17  1  0  0  0  0
 16 54  1  0  0  0  0
 17 18  1  0  0  0  0
 17 19  2  0  0  0  0
 19 20  1  0  0  0  0
 19 32  1  0  0  0  0
 20 21  3  0  0  0  0
 21 22  1  0  0  0  0
 22 23  1  0  0  0  0
 22 31  2  0  0  0  0
 23 24  2  0  0  0  0
 23 55  1  0  0  0  0
 24 25  1  0  0  0  0
 25 26  2  0  0  0  0
 25 56  1  0  0  0  0
 26 27  1  0  0  0  0
 26 31  1  0  0  0  0
 27 28  2  0  0  0  0
 27 57  1  0  0  0  0
 28 29  1  0  0  0  0
 28 58  1  0  0  0  0
 29 30  2  0  0  0  0
 29 59  1  0  0  0  0
 30 31  1  0  0  0  0
 30 60  1  0  0  0  0
 32 61  1  0  0  0  0
 33 34  1  0  0  0  0
 33 62  1  0  0  0  0
 34 35  1  0  0  0  0
 35 36  1  0  0  0  0
 35 37  1  0  0  0  0
 35 38  1  0  0  0  0
 39 40  1  0  0  0  0
 39 63  1  0  0  0  0
 39 64  1  0  0  0  0
 40 65  1  0  0  0  0
 40 66  1  0  0  0  0
M  END
$$$$
