CHEMBL493670
 OpenBabel04072215383D

 50 53  0  0  0  0  0  0  0  0999 V2000
    2.4261    0.2644   -0.1986 C   0  0  0  0  0  0  0  0  0  0  0  0
    0.9276    0.1045   -0.1113 C   0  0  0  0  0  0  0  0  0  0  0  0
    0.1900    1.3112   -0.0405 C   0  0  0  0  0  0  0  0  0  0  0  0
   -1.2010    1.3160   -0.0083 C   0  0  0  0  0  0  0  0  0  0  0  0
   -1.8833    0.1048   -0.0223 C   0  0  0  0  0  0  0  0  0  0  0  0
   -3.3697    0.0265   -0.0349 C   0  0  0  0  0  0  0  0  0  0  0  0
   -3.9252   -0.9285   -0.5671 O   0  0  0  0  0  0  0  0  0  0  0  0
   -4.0424    1.0510    0.6037 N   0  0  0  0  0  0  0  0  0  0  0  0
   -5.4670    1.0576    0.7118 C   0  0  0  0  0  0  0  0  0  0  0  0
   -6.3057    1.7697   -0.3135 C   0  0  0  0  0  0  0  0  0  0  0  0
   -6.2008    2.3188    1.0800 C   0  0  0  0  0  0  0  0  0  0  0  0
   -1.1612   -1.0991   -0.0600 C   0  0  0  0  0  0  0  0  0  0  0  0
    0.2518   -1.1497   -0.1004 C   0  0  0  0  0  0  0  0  0  0  0  0
    0.9154   -2.4956   -0.1389 C   0  0  0  0  0  0  0  0  0  0  0  0
    0.3185   -3.6053   -0.7738 C   0  0  0  0  0  0  0  0  0  0  0  0
    0.9310   -4.8734   -0.8097 C   0  0  0  0  0  0  0  0  0  0  0  0
    2.2080   -5.0772   -0.2473 C   0  0  0  0  0  0  0  0  0  0  0  0
    2.9561   -6.2684   -0.3047 C   0  0  0  0  0  0  0  0  0  0  0  0
    2.4403   -7.3649   -0.9787 O   0  0  0  0  0  0  0  0  0  0  0  0
    3.4699   -8.2210   -1.5123 C   0  0  0  0  0  0  0  0  0  0  0  0
    3.8486   -9.3243   -0.5230 C   0  0  0  0  0  0  0  0  0  0  0  0
    2.9376   -8.8503   -2.7984 C   0  0  0  0  0  0  0  0  0  0  0  0
    4.1776   -6.3903    0.2705 N   0  0  0  0  0  0  0  0  0  0  0  0
    4.7408   -5.3386    0.9092 N   0  0  0  0  0  0  0  0  0  0  0  0
    4.0642   -4.1755    0.9640 C   0  0  0  0  0  0  0  0  0  0  0  0
    2.8043   -3.9925    0.4085 C   0  0  0  0  0  0  0  0  0  0  0  0
    2.1451   -2.7459    0.4867 C   0  0  0  0  0  0  0  0  0  0  0  0
    2.7037    1.2858   -0.4854 H   0  0  0  0  0  0  0  0  0  0  0  0
    2.8517   -0.3955   -0.9596 H   0  0  0  0  0  0  0  0  0  0  0  0
    2.8882    0.0826    0.7760 H   0  0  0  0  0  0  0  0  0  0  0  0
    0.7115    2.2688   -0.0356 H   0  0  0  0  0  0  0  0  0  0  0  0
   -1.7250    2.2678   -0.0056 H   0  0  0  0  0  0  0  0  0  0  0  0
   -3.5222    1.7067    1.1707 H   0  0  0  0  0  0  0  0  0  0  0  0
   -5.8693    0.1277    1.1086 H   0  0  0  0  0  0  0  0  0  0  0  0
   -7.2335    1.2967   -0.6121 H   0  0  0  0  0  0  0  0  0  0  0  0
   -5.7976    2.2937   -1.1133 H   0  0  0  0  0  0  0  0  0  0  0  0
   -7.0660    2.2269    1.7258 H   0  0  0  0  0  0  0  0  0  0  0  0
   -5.6374    3.2316    1.2186 H   0  0  0  0  0  0  0  0  0  0  0  0
   -1.7403   -2.0219   -0.0479 H   0  0  0  0  0  0  0  0  0  0  0  0
   -0.6492   -3.5087   -1.2654 H   0  0  0  0  0  0  0  0  0  0  0  0
    0.4085   -5.6976   -1.2929 H   0  0  0  0  0  0  0  0  0  0  0  0
    4.3575   -7.6372   -1.7913 H   0  0  0  0  0  0  0  0  0  0  0  0
    3.0362  -10.0499   -0.4090 H   0  0  0  0  0  0  0  0  0  0  0  0
    4.0559   -8.9313    0.4762 H   0  0  0  0  0  0  0  0  0  0  0  0
    4.7383   -9.8599   -0.8717 H   0  0  0  0  0  0  0  0  0  0  0  0
    2.0762   -9.4966   -2.5970 H   0  0  0  0  0  0  0  0  0  0  0  0
    3.7129   -9.4489   -3.2884 H   0  0  0  0  0  0  0  0  0  0  0  0
    2.5997   -8.0773   -3.4961 H   0  0  0  0  0  0  0  0  0  0  0  0
    4.5953   -3.3719    1.4640 H   0  0  0  0  0  0  0  0  0  0  0  0
    2.6250   -1.9642    1.0650 H   0  0  0  0  0  0  0  0  0  0  0  0
  1  2  1  0  0  0  0
  1 28  1  0  0  0  0
  1 29  1  0  0  0  0
  1 30  1  0  0  0  0
  2  3  1  0  0  0  0
  2 13  2  0  0  0  0
  3  4  2  0  0  0  0
  3 31  1  0  0  0  0
  4  5  1  0  0  0  0
  4 32  1  0  0  0  0
  5  6  1  0  0  0  0
  5 12  2  0  0  0  0
  6  7  2  0  0  0  0
  6  8  1  0  0  0  0
  8  9  1  0  0  0  0
  8 33  1  0  0  0  0
  9 10  1  0  0  0  0
  9 11  1  0  0  0  0
  9 34  1  0  0  0  0
 10 11  1  0  0  0  0
 10 35  1  0  0  0  0
 10 36  1  0  0  0  0
 11 37  1  0  0  0  0
 11 38  1  0  0  0  0
 12 13  1  0  0  0  0
 12 39  1  0  0  0  0
 13 14  1  0  0  0  0
 14 15  1  0  0  0  0
 14 27  2  0  0  0  0
 15 16  2  0  0  0  0
 15 40  1  0  0  0  0
 16 17  1  0  0  0  0
 16 41  1  0  0  0  0
 17 18  1  0  0  0  0
 17 26  2  0  0  0  0
 18 19  1  0  0  0  0
 18 23  2  0  0  0  0
 19 20  1  0  0  0  0
 20 21  1  0  0  0  0
 20 22  1  0  0  0  0
 20 42  1  0  0  0  0
 21 43  1  0  0  0  0
 21 44  1  0  0  0  0
 21 45  1  0  0  0  0
 22 46  1  0  0  0  0
 22 47  1  0  0  0  0
 22 48  1  0  0  0  0
 23 24  1  0  0  0  0
 24 25  2  0  0  0  0
 25 26  1  0  0  0  0
 25 49  1  0  0  0  0
 26 27  1  0  0  0  0
 27 50  1  0  0  0  0
M  END
$$$$
