CHEMBL3901627
 OpenBabel04072215373D

 50 53  0  0  0  0  0  0  0  0999 V2000
    0.5802    2.3850    3.1826 C   0  0  0  0  0  0  0  0  0  0  0  0
    1.9460    2.8064    3.1825 O   0  0  0  0  0  0  0  0  0  0  0  0
    2.8566    1.9906    2.5545 C   0  0  0  0  0  0  0  0  0  0  0  0
    2.5341    0.7750    1.9486 C   0  0  0  0  0  0  0  0  0  0  0  0
    3.5171    0.0559    1.2770 C   0  0  0  0  0  0  0  0  0  0  0  0
    3.3275   -1.1207    0.6013 O   0  0  0  0  0  0  0  0  0  0  0  0
    2.0320   -1.7049    0.6703 C   0  0  0  0  0  0  0  0  0  0  0  0
    4.8271    0.5501    1.2242 C   0  0  0  0  0  0  0  0  0  0  0  0
    5.2012    1.7616    1.8280 C   0  0  0  0  0  0  0  0  0  0  0  0
    6.4726    2.3525    1.6158 N   0  0  0  0  0  0  0  0  0  0  0  0
    7.1163    2.0825    0.2725 C   0  0  0  0  0  0  0  0  0  0  0  0
    6.3172    2.5385   -0.9595 C   0  0  0  0  0  0  0  0  0  0  0  0
    6.2256    3.9599   -1.0463 O   0  0  0  0  0  0  0  0  0  0  0  0
    7.5324    2.6212    2.5599 C   0  0  0  0  0  0  0  0  0  0  0  0
    8.2974    3.7537    2.2700 C   0  0  0  0  0  0  0  0  0  0  0  0
    9.6235    3.8081    2.6524 C   0  0  0  0  0  0  0  0  0  0  0  0
   10.1744    2.8460    3.4594 C   0  0  0  0  0  0  0  0  0  0  0  0
   11.5022    2.9281    3.5836 N   0  0  0  0  0  0  0  0  0  0  0  0
   12.0687    2.1262    4.4900 C   0  0  0  0  0  0  0  0  0  0  0  0
   11.3231    1.3119    5.3212 C   0  0  0  0  0  0  0  0  0  0  0  0
   12.0025    0.8685    6.5361 C   0  0  0  0  0  0  0  0  0  0  0  0
   11.9565    1.4467    7.8304 C   0  0  0  0  0  0  0  0  0  0  0  0
   12.9532    1.0355    8.6262 N   0  0  0  0  0  0  0  0  0  0  0  0
   13.6729    0.2267    7.8378 N   0  0  0  0  0  0  0  0  0  0  0  0
   13.1909    0.1517    6.5598 C   0  0  0  0  0  0  0  0  0  0  0  0
    9.9736    1.1308    5.1156 N   0  0  0  0  0  0  0  0  0  0  0  0
    9.3717    1.8691    4.0977 C   0  0  0  0  0  0  0  0  0  0  0  0
    8.0332    1.7447    3.5622 C   0  0  0  0  0  0  0  0  0  0  0  0
    4.1867    2.4650    2.5076 C   0  0  0  0  0  0  0  0  0  0  0  0
   -0.0275    3.1840    3.6195 H   0  0  0  0  0  0  0  0  0  0  0  0
    0.4472    1.4904    3.8014 H   0  0  0  0  0  0  0  0  0  0  0  0
    0.2040    2.2150    2.1666 H   0  0  0  0  0  0  0  0  0  0  0  0
    1.5205    0.3983    1.9845 H   0  0  0  0  0  0  0  0  0  0  0  0
    2.0618   -2.6502    0.1204 H   0  0  0  0  0  0  0  0  0  0  0  0
    1.2830   -1.0650    0.1913 H   0  0  0  0  0  0  0  0  0  0  0  0
    1.7560   -1.9298    1.7059 H   0  0  0  0  0  0  0  0  0  0  0  0
    5.5535   -0.0371    0.6720 H   0  0  0  0  0  0  0  0  0  0  0  0
    7.3702    1.0198    0.1928 H   0  0  0  0  0  0  0  0  0  0  0  0
    8.0747    2.6100    0.1803 H   0  0  0  0  0  0  0  0  0  0  0  0
    5.3175    2.1027   -1.0210 H   0  0  0  0  0  0  0  0  0  0  0  0
    6.8656    2.2159   -1.8529 H   0  0  0  0  0  0  0  0  0  0  0  0
    5.2788    4.1839   -1.0169 H   0  0  0  0  0  0  0  0  0  0  0  0
    7.9159    4.5072    1.5824 H   0  0  0  0  0  0  0  0  0  0  0  0
   10.2594    4.5937    2.2544 H   0  0  0  0  0  0  0  0  0  0  0  0
   13.1446    2.2253    4.5871 H   0  0  0  0  0  0  0  0  0  0  0  0
   11.2798    2.2012    8.2083 H   0  0  0  0  0  0  0  0  0  0  0  0
   14.5224   -0.1892    8.2217 H   0  0  0  0  0  0  0  0  0  0  0  0
   13.7600   -0.3564    5.7945 H   0  0  0  0  0  0  0  0  0  0  0  0
    7.4317    0.8954    3.8823 H   0  0  0  0  0  0  0  0  0  0  0  0
    4.4083    3.4362    2.9465 H   0  0  0  0  0  0  0  0  0  0  0  0
  1  2  1  0  0  0  0
  1 30  1  0  0  0  0
  1 31  1  0  0  0  0
  1 32  1  0  0  0  0
  2  3  1  0  0  0  0
  3  4  1  0  0  0  0
  3 29  2  0  0  0  0
  4  5  2  0  0  0  0
  4 33  1  0  0  0  0
  5  6  1  0  0  0  0
  5  8  1  0  0  0  0
  6  7  1  0  0  0  0
  7 34  1  0  0  0  0
  7 35  1  0  0  0  0
  7 36  1  0  0  0  0
  8  9  2  0  0  0  0
  8 37  1  0  0  0  0
  9 10  1  0  0  0  0
  9 29  1  0  0  0  0
 10 11  1  0  0  0  0
 10 14  1  0  0  0  0
 11 12  1  0  0  0  0
 11 38  1  0  0  0  0
 11 39  1  0  0  0  0
 12 13  1  0  0  0  0
 12 40  1  0  0  0  0
 12 41  1  0  0  0  0
 13 42  1  0  0  0  0
 14 15  1  0  0  0  0
 14 28  2  0  0  0  0
 15 16  2  0  0  0  0
 15 43  1  0  0  0  0
 16 17  1  0  0  0  0
 16 44  1  0  0  0  0
 17 18  1  0  0  0  0
 17 27  2  0  0  0  0
 18 19  2  0  0  0  0
 19 20  1  0  0  0  0
 19 45  1  0  0  0  0
 20 21  1  0  0  0  0
 20 26  2  0  0  0  0
 21 22  1  0  0  0  0
 21 25  2  0  0  0  0
 22 23  2  0  0  0  0
 22 46  1  0  0  0  0
 23 24  1  0  0  0  0
 24 25  1  0  0  0  0
 24 47  1  0  0  0  0
 25 48  1  0  0  0  0
 26 27  1  0  0  0  0
 27 28  1  0  0  0  0
 28 49  1  0  0  0  0
 29 50  1  0  0  0  0
M  END
$$$$
