CHEMBL3671502
 OpenBabel04072215373D

 45 47  0  0  0  0  0  0  0  0999 V2000
    3.6778   -3.8317    0.2774 C   0  0  0  0  0  0  0  0  0  0  0  0
    3.2758   -2.9272   -0.6236 C   0  0  0  0  0  0  0  0  0  0  0  0
    3.5173   -1.4966   -0.3152 C   0  0  0  0  0  0  0  0  0  0  0  0
    3.0793   -0.9720    0.6997 O   0  0  0  0  0  0  0  0  0  0  0  0
    4.3123   -0.7945   -1.1946 N   0  0  0  0  0  0  0  0  0  0  0  0
    5.1617   -1.4480   -2.1083 C   0  0  0  0  0  0  0  0  0  0  0  0
    6.2266   -2.1864   -1.5936 C   0  0  0  0  0  0  0  0  0  0  0  0
    6.8932   -3.1265   -2.4046 C   0  0  0  0  0  0  0  0  0  0  0  0
    7.8439   -4.0416   -1.9327 C   0  0  0  0  0  0  0  0  0  0  0  0
    8.1479   -4.0989   -0.5475 N   0  0  0  0  0  0  0  0  0  0  0  0
    8.7649   -5.2179    0.0612 C   0  0  0  0  0  0  0  0  0  0  0  0
    8.3414   -6.5227   -0.2387 C   0  0  0  0  0  0  0  0  0  0  0  0
    9.0381   -7.6297    0.2435 C   0  0  0  0  0  0  0  0  0  0  0  0
   10.1537   -7.4336    1.0521 C   0  0  0  0  0  0  0  0  0  0  0  0
   11.1713   -8.9298    1.6045 Br  0  0  0  0  0  0  0  0  0  0  0  0
   10.5444   -6.1512    1.4347 C   0  0  0  0  0  0  0  0  0  0  0  0
    9.8391   -5.0564    0.9439 C   0  0  0  0  0  0  0  0  0  0  0  0
   10.2289   -3.8186    1.2884 F   0  0  0  0  0  0  0  0  0  0  0  0
    8.4250   -4.9401   -2.7523 N   0  0  0  0  0  0  0  0  0  0  0  0
    8.0390   -4.9423   -4.0298 C   0  0  0  0  0  0  0  0  0  0  0  0
    7.1143   -4.1469   -4.5702 N   0  0  0  0  0  0  0  0  0  0  0  0
    6.5425   -3.2555   -3.7582 C   0  0  0  0  0  0  0  0  0  0  0  0
    5.5280   -2.4528   -4.2628 C   0  0  0  0  0  0  0  0  0  0  0  0
    4.8379   -1.5355   -3.4661 C   0  0  0  0  0  0  0  0  0  0  0  0
    3.8512   -0.8361   -4.1154 O   0  0  0  0  0  0  0  0  0  0  0  0
    3.6243    0.4883   -3.6205 C   0  0  0  0  0  0  0  0  0  0  0  0
    3.1888    1.4130   -4.7595 C   0  0  0  0  0  0  0  0  0  0  0  0
    3.0386    2.7880   -4.2801 N   0  0  0  0  0  0  0  0  0  0  0  0
    3.6087   -4.8940    0.0728 H   0  0  0  0  0  0  0  0  0  0  0  0
    4.1127   -3.5280    1.2267 H   0  0  0  0  0  0  0  0  0  0  0  0
    2.8858   -3.1951   -1.5962 H   0  0  0  0  0  0  0  0  0  0  0  0
    4.6940    0.0138   -0.7128 H   0  0  0  0  0  0  0  0  0  0  0  0
    6.4650   -2.1094   -0.5348 H   0  0  0  0  0  0  0  0  0  0  0  0
    8.5483   -3.2213   -0.2257 H   0  0  0  0  0  0  0  0  0  0  0  0
    7.4832   -6.6768   -0.8900 H   0  0  0  0  0  0  0  0  0  0  0  0
    8.7228   -8.6295   -0.0530 H   0  0  0  0  0  0  0  0  0  0  0  0
   11.4028   -5.9867    2.0788 H   0  0  0  0  0  0  0  0  0  0  0  0
    8.5080   -5.6717   -4.6788 H   0  0  0  0  0  0  0  0  0  0  0  0
    5.2394   -2.5723   -5.3060 H   0  0  0  0  0  0  0  0  0  0  0  0
    4.5351    0.9102   -3.1764 H   0  0  0  0  0  0  0  0  0  0  0  0
    2.8254    0.4481   -2.8710 H   0  0  0  0  0  0  0  0  0  0  0  0
    2.2466    1.0600   -5.1924 H   0  0  0  0  0  0  0  0  0  0  0  0
    3.9340    1.3856   -5.5627 H   0  0  0  0  0  0  0  0  0  0  0  0
    2.3400    2.8207   -3.5377 H   0  0  0  0  0  0  0  0  0  0  0  0
    2.6831    3.3751   -5.0342 H   0  0  0  0  0  0  0  0  0  0  0  0
  1  2  2  0  0  0  0
  1 29  1  0  0  0  0
  1 30  1  0  0  0  0
  2  3  1  0  0  0  0
  2 31  1  0  0  0  0
  3  4  2  0  0  0  0
  3  5  1  0  0  0  0
  5  6  1  0  0  0  0
  5 32  1  0  0  0  0
  6  7  1  0  0  0  0
  6 24  2  0  0  0  0
  7  8  2  0  0  0  0
  7 33  1  0  0  0  0
  8  9  1  0  0  0  0
  8 22  1  0  0  0  0
  9 10  1  0  0  0  0
  9 19  2  0  0  0  0
 10 11  1  0  0  0  0
 10 34  1  0  0  0  0
 11 12  1  0  0  0  0
 11 17  2  0  0  0  0
 12 13  2  0  0  0  0
 12 35  1  0  0  0  0
 13 14  1  0  0  0  0
 13 36  1  0  0  0  0
 14 15  1  0  0  0  0
 14 16  2  0  0  0  0
 16 17  1  0  0  0  0
 16 37  1  0  0  0  0
 17 18  1  0  0  0  0
 19 20  1  0  0  0  0
 20 21  2  0  0  0  0
 20 38  1  0  0  0  0
 21 22  1  0  0  0  0
 22 23  2  0  0  0  0
 23 24  1  0  0  0  0
 23 39  1  0  0  0  0
 24 25  1  0  0  0  0
 25 26  1  0  0  0  0
 26 27  1  0  0  0  0
 26 40  1  0  0  0  0
 26 41  1  0  0  0  0
 27 28  1  0  0  0  0
 27 42  1  0  0  0  0
 27 43  1  0  0  0  0
 28 44  1  0  0  0  0
 28 45  1  0  0  0  0
M  END
$$$$
