CHEMBL1977931
 OpenBabel04072215363D

 29 31  0  0  0  0  0  0  0  0999 V2000
    1.1353    0.3389    0.2282 C   0  0  0  0  0  0  0  0  0  0  0  0
    2.6295    0.1748    0.0570 C   0  0  0  0  0  0  0  0  0  0  0  0
    3.3162   -0.3658    0.9195 O   0  0  0  0  0  0  0  0  0  0  0  0
    3.2796    0.8100   -1.1246 C   0  0  0  0  0  0  0  0  0  0  0  0
    2.8887    2.1342   -1.4125 C   0  0  0  0  0  0  0  0  0  0  0  0
    3.5262    2.8619   -2.4123 C   0  0  0  0  0  0  0  0  0  0  0  0
    4.5445    2.2706   -3.1430 C   0  0  0  0  0  0  0  0  0  0  0  0
    4.9041    0.9410   -2.8948 C   0  0  0  0  0  0  0  0  0  0  0  0
    4.2977    0.1691   -1.8794 C   0  0  0  0  0  0  0  0  0  0  0  0
    4.6746   -1.2452   -1.6897 C   0  0  0  0  0  0  0  0  0  0  0  0
    3.6739   -2.1243   -1.4008 N   0  0  0  0  0  0  0  0  0  0  0  0
    3.9906   -3.4158   -1.1904 C   0  0  0  0  0  0  0  0  0  0  0  0
    5.1908   -4.0040   -1.3103 N   0  0  0  0  0  0  0  0  0  0  0  0
    6.1357   -3.1203   -1.6590 C   0  0  0  0  0  0  0  0  0  0  0  0
    7.4447   -3.4507   -1.8792 N   0  0  0  0  0  0  0  0  0  0  0  0
    8.1533   -2.3309   -2.2266 C   0  0  0  0  0  0  0  0  0  0  0  0
    7.2806   -1.2628   -2.1956 C   0  0  0  0  0  0  0  0  0  0  0  0
    5.9804   -1.7539   -1.8590 C   0  0  0  0  0  0  0  0  0  0  0  0
    0.7597   -0.4196    0.9156 H   0  0  0  0  0  0  0  0  0  0  0  0
    0.6199    0.2180   -0.7291 H   0  0  0  0  0  0  0  0  0  0  0  0
    0.9185    1.3289    0.6473 H   0  0  0  0  0  0  0  0  0  0  0  0
    2.1106    2.6267   -0.8354 H   0  0  0  0  0  0  0  0  0  0  0  0
    3.2351    3.8908   -2.6090 H   0  0  0  0  0  0  0  0  0  0  0  0
    5.0582    2.8363   -3.9168 H   0  0  0  0  0  0  0  0  0  0  0  0
    5.6692    0.5083   -3.5346 H   0  0  0  0  0  0  0  0  0  0  0  0
    3.1714   -4.0622   -0.8902 H   0  0  0  0  0  0  0  0  0  0  0  0
    7.8082   -4.3890   -1.7868 H   0  0  0  0  0  0  0  0  0  0  0  0
    9.2095   -2.3912   -2.4562 H   0  0  0  0  0  0  0  0  0  0  0  0
    7.5586   -0.2408   -2.4128 H   0  0  0  0  0  0  0  0  0  0  0  0
  1  2  1  0  0  0  0
  1 19  1  0  0  0  0
  1 20  1  0  0  0  0
  1 21  1  0  0  0  0
  2  3  2  0  0  0  0
  2  4  1  0  0  0  0
  4  5  1  0  0  0  0
  4  9  2  0  0  0  0
  5  6  2  0  0  0  0
  5 22  1  0  0  0  0
  6  7  1  0  0  0  0
  6 23  1  0  0  0  0
  7  8  2  0  0  0  0
  7 24  1  0  0  0  0
  8  9  1  0  0  0  0
  8 25  1  0  0  0  0
  9 10  1  0  0  0  0
 10 11  1  0  0  0  0
 10 18  2  0  0  0  0
 11 12  2  0  0  0  0
 12 13  1  0  0  0  0
 12 26  1  0  0  0  0
 13 14  2  0  0  0  0
 14 15  1  0  0  0  0
 14 18  1  0  0  0  0
 15 16  1  0  0  0  0
 15 27  1  0  0  0  0
 16 17  2  0  0  0  0
 16 28  1  0  0  0  0
 17 18  1  0  0  0  0
 17 29  1  0  0  0  0
M  END
$$$$
