CHEMBL3696087
 OpenBabel04072215373D

 43 45  0  0  0  0  0  0  0  0999 V2000
    2.2144   -0.4785   -1.6873 C   0  0  0  0  0  0  0  0  0  0  0  0
    0.7682   -0.2905   -1.3395 C   0  0  0  0  0  0  0  0  0  0  0  0
    0.1785    0.9575   -1.4998 C   0  0  0  0  0  0  0  0  0  0  0  0
   -1.1678    1.1480   -1.1851 C   0  0  0  0  0  0  0  0  0  0  0  0
   -1.9723    0.1116   -0.6915 C   0  0  0  0  0  0  0  0  0  0  0  0
   -3.3511    0.2843   -0.3584 N   0  0  0  0  0  0  0  0  0  0  0  0
   -3.9945    1.5129   -0.3453 C   0  0  0  0  0  0  0  0  0  0  0  0
   -3.4282    2.5778   -0.5708 O   0  0  0  0  0  0  0  0  0  0  0  0
   -5.3532    1.4478   -0.0505 N   0  0  0  0  0  0  0  0  0  0  0  0
   -6.1902    2.6002   -0.1410 C   0  0  0  0  0  0  0  0  0  0  0  0
   -5.8745    3.6618   -0.9932 C   0  0  0  0  0  0  0  0  0  0  0  0
   -6.6093    4.8456   -0.9869 C   0  0  0  0  0  0  0  0  0  0  0  0
   -7.7358    4.9963   -0.1720 C   0  0  0  0  0  0  0  0  0  0  0  0
   -8.4895    6.2672   -0.2595 C   0  0  0  0  0  0  0  0  0  0  0  0
   -8.5233    6.8464   -1.4683 N   0  0  0  0  0  0  0  0  0  0  0  0
   -9.3923    8.2276   -1.4277 S   0  0  0  0  0  0  0  0  0  0  0  0
   -9.7986    8.1430    0.2315 C   0  0  0  0  0  0  0  0  0  0  0  0
  -10.5495    9.1196    0.8038 N   0  0  0  0  0  0  0  0  0  0  0  0
   -9.2106    7.0035    0.7797 C   0  0  0  0  0  0  0  0  0  0  0  0
   -9.2888    6.6350    2.1850 C   0  0  0  0  0  0  0  0  0  0  0  0
  -10.4090    7.0578    2.8560 N   0  0  0  0  0  0  0  0  0  0  0  0
   -8.4526    5.9688    2.7800 O   0  0  0  0  0  0  0  0  0  0  0  0
   -8.1164    3.8975    0.6133 C   0  0  0  0  0  0  0  0  0  0  0  0
   -7.3483    2.7089    0.6331 C   0  0  0  0  0  0  0  0  0  0  0  0
   -1.3791   -1.1455   -0.5405 C   0  0  0  0  0  0  0  0  0  0  0  0
   -0.0207   -1.3433   -0.8593 C   0  0  0  0  0  0  0  0  0  0  0  0
    2.6645    0.4608   -2.0314 H   0  0  0  0  0  0  0  0  0  0  0  0
    2.3202   -1.2087   -2.4947 H   0  0  0  0  0  0  0  0  0  0  0  0
    2.7786   -0.8106   -0.8112 H   0  0  0  0  0  0  0  0  0  0  0  0
    0.7496    1.8054   -1.8716 H   0  0  0  0  0  0  0  0  0  0  0  0
   -1.5428    2.1495   -1.3578 H   0  0  0  0  0  0  0  0  0  0  0  0
   -3.8699   -0.5346   -0.0724 H   0  0  0  0  0  0  0  0  0  0  0  0
   -5.6607    0.6999    0.5514 H   0  0  0  0  0  0  0  0  0  0  0  0
   -5.0380    3.6104   -1.6843 H   0  0  0  0  0  0  0  0  0  0  0  0
   -6.2804    5.6538   -1.6377 H   0  0  0  0  0  0  0  0  0  0  0  0
  -10.6793    9.9732    0.2606 H   0  0  0  0  0  0  0  0  0  0  0  0
  -10.4108    9.3323    1.7907 H   0  0  0  0  0  0  0  0  0  0  0  0
  -11.2042    7.4275    2.3500 H   0  0  0  0  0  0  0  0  0  0  0  0
  -10.5407    6.7080    3.7950 H   0  0  0  0  0  0  0  0  0  0  0  0
   -9.0060    3.9456    1.2353 H   0  0  0  0  0  0  0  0  0  0  0  0
   -7.6608    1.8982    1.2854 H   0  0  0  0  0  0  0  0  0  0  0  0
   -1.9514   -1.9896   -0.1688 H   0  0  0  0  0  0  0  0  0  0  0  0
    0.4194   -2.3296   -0.7289 H   0  0  0  0  0  0  0  0  0  0  0  0
  1  2  1  0  0  0  0
  1 27  1  0  0  0  0
  1 28  1  0  0  0  0
  1 29  1  0  0  0  0
  2  3  1  0  0  0  0
  2 26  2  0  0  0  0
  3  4  2  0  0  0  0
  3 30  1  0  0  0  0
  4  5  1  0  0  0  0
  4 31  1  0  0  0  0
  5  6  1  0  0  0  0
  5 25  2  0  0  0  0
  6  7  1  0  0  0  0
  6 32  1  0  0  0  0
  7  8  2  0  0  0  0
  7  9  1  0  0  0  0
  9 10  1  0  0  0  0
  9 33  1  0  0  0  0
 10 11  1  0  0  0  0
 10 24  2  0  0  0  0
 11 12  2  0  0  0  0
 11 34  1  0  0  0  0
 12 13  1  0  0  0  0
 12 35  1  0  0  0  0
 13 14  1  0  0  0  0
 13 23  2  0  0  0  0
 14 15  2  0  0  0  0
 14 19  1  0  0  0  0
 15 16  1  0  0  0  0
 16 17  1  0  0  0  0
 17 18  1  0  0  0  0
 17 19  2  0  0  0  0
 18 36  1  0  0  0  0
 18 37  1  0  0  0  0
 19 20  1  0  0  0  0
 20 21  1  0  0  0  0
 20 22  2  0  0  0  0
 21 38  1  0  0  0  0
 21 39  1  0  0  0  0
 23 24  1  0  0  0  0
 23 40  1  0  0  0  0
 24 41  1  0  0  0  0
 25 26  1  0  0  0  0
 25 42  1  0  0  0  0
 26 43  1  0  0  0  0
M  END
$$$$
