CHEMBL1082404
 OpenBabel04072215363D

 74 78  0  0  0  0  0  0  0  0999 V2000
    5.8517   -2.4697    2.2897 C   0  0  0  0  0  0  0  0  0  0  0  0
    6.9955   -2.1514    1.3288 C   0  0  0  0  0  0  0  0  0  0  0  0
    7.2495   -3.3446    0.4021 C   0  0  0  0  0  0  0  0  0  0  0  0
    6.6973   -0.9209    0.4664 C   0  0  0  0  0  0  0  0  0  0  0  0
    6.4356    0.2733    1.2138 O   0  0  0  0  0  0  0  0  0  0  0  0
    7.4452    1.1829    1.1487 C   0  0  0  0  0  0  0  0  0  0  0  0
    8.6265    0.8773    1.0948 O   0  0  0  0  0  0  0  0  0  0  0  0
    6.8939    2.4331    1.0754 N   0  0  0  0  0  0  0  0  0  0  0  0
    7.5556    3.6428    0.8033 C   0  0  0  0  0  0  0  0  0  0  0  0
    8.8913    3.7098    0.4007 C   0  0  0  0  0  0  0  0  0  0  0  0
    9.5243    4.9442    0.2344 C   0  0  0  0  0  0  0  0  0  0  0  0
    8.8283    6.1296    0.4726 C   0  0  0  0  0  0  0  0  0  0  0  0
    9.5311    7.4202    0.4249 C   0  0  0  0  0  0  0  0  0  0  0  0
   10.1301    7.9924    1.6697 C   0  0  0  0  0  0  0  0  0  0  0  0
   10.7735    9.1175    1.7782 N   0  0  0  0  0  0  0  0  0  0  0  0
   10.9113    9.8481    0.6288 C   0  0  0  0  0  0  0  0  0  0  0  0
   11.5279   11.0605    0.3459 C   0  0  0  0  0  0  0  0  0  0  0  0
   12.2574   11.9349    1.2552 C   0  0  0  0  0  0  0  0  0  0  0  0
   13.2852   12.7431    0.7479 C   0  0  0  0  0  0  0  0  0  0  0  0
   13.9546   13.6383    1.5695 C   0  0  0  0  0  0  0  0  0  0  0  0
   13.6086   13.7374    2.9172 C   0  0  0  0  0  0  0  0  0  0  0  0
   12.6076   12.9324    3.4764 C   0  0  0  0  0  0  0  0  0  0  0  0
   12.3171   12.9600    4.8303 N   0  0  0  0  0  0  0  0  0  0  0  0
   13.2938   13.4596    5.8076 C   0  0  0  0  0  0  0  0  0  0  0  0
   13.1452   12.6858    7.1306 C   0  0  0  0  0  0  0  0  0  0  0  0
   11.7513   12.6675    7.5992 N   0  0  0  0  0  0  0  0  0  0  0  0
   11.3294   12.9695    8.8803 C   0  0  0  0  0  0  0  0  0  0  0  0
   10.1441   12.8898    9.2150 O   0  0  0  0  0  0  0  0  0  0  0  0
   12.3689   13.4634    9.8951 C   0  0  0  0  0  0  0  0  0  0  0  0
   13.3791   12.4340   10.1861 N   0  0  0  0  0  0  0  0  0  0  0  0
   10.7822   12.2078    6.5947 C   0  0  0  0  0  0  0  0  0  0  0  0
   10.9169   13.0146    5.2895 C   0  0  0  0  0  0  0  0  0  0  0  0
   11.9413   12.0361    2.6193 C   0  0  0  0  0  0  0  0  0  0  0  0
   11.2747   11.2641   -1.0314 C   0  0  0  0  0  0  0  0  0  0  0  0
   10.5894   10.2811   -1.5999 N   0  0  0  0  0  0  0  0  0  0  0  0
   10.3974    9.3901   -0.5872 N   0  0  0  0  0  0  0  0  0  0  0  0
    9.7082    8.1453   -0.6987 C   0  0  0  0  0  0  0  0  0  0  0  0
    9.2627    7.7827   -1.9736 N   0  0  0  0  0  0  0  0  0  0  0  0
    7.4682    6.0705    0.7961 C   0  0  0  0  0  0  0  0  0  0  0  0
    6.8330    4.8322    0.9469 C   0  0  0  0  0  0  0  0  0  0  0  0
    6.0692   -3.3780    2.8625 H   0  0  0  0  0  0  0  0  0  0  0  0
    4.9129   -2.6334    1.7480 H   0  0  0  0  0  0  0  0  0  0  0  0
    5.6966   -1.6549    3.0036 H   0  0  0  0  0  0  0  0  0  0  0  0
    7.8956   -1.9662    1.9278 H   0  0  0  0  0  0  0  0  0  0  0  0
    6.3737   -3.5472   -0.2255 H   0  0  0  0  0  0  0  0  0  0  0  0
    7.4737   -4.2515    0.9717 H   0  0  0  0  0  0  0  0  0  0  0  0
    8.0971   -3.1463   -0.2634 H   0  0  0  0  0  0  0  0  0  0  0  0
    5.7959   -1.0977   -0.1302 H   0  0  0  0  0  0  0  0  0  0  0  0
    7.5093   -0.7608   -0.2551 H   0  0  0  0  0  0  0  0  0  0  0  0
    5.8950    2.4508    1.2253 H   0  0  0  0  0  0  0  0  0  0  0  0
    9.4745    2.8140    0.2085 H   0  0  0  0  0  0  0  0  0  0  0  0
   10.5706    4.9649   -0.0635 H   0  0  0  0  0  0  0  0  0  0  0  0
   10.0056    7.3804    2.5719 H   0  0  0  0  0  0  0  0  0  0  0  0
   13.5851   12.6736   -0.2944 H   0  0  0  0  0  0  0  0  0  0  0  0
   14.7440   14.2669    1.1664 H   0  0  0  0  0  0  0  0  0  0  0  0
   14.1373   14.4669    3.5226 H   0  0  0  0  0  0  0  0  0  0  0  0
   13.1268   14.5301    5.9822 H   0  0  0  0  0  0  0  0  0  0  0  0
   14.3265   13.3248    5.4659 H   0  0  0  0  0  0  0  0  0  0  0  0
   13.8261   13.1248    7.8589 H   0  0  0  0  0  0  0  0  0  0  0  0
   13.4411   11.6393    6.9824 H   0  0  0  0  0  0  0  0  0  0  0  0
   11.8436   13.7194   10.8214 H   0  0  0  0  0  0  0  0  0  0  0  0
   12.8371   14.3772    9.5149 H   0  0  0  0  0  0  0  0  0  0  0  0
   12.8987   11.5734   10.4505 H   0  0  0  0  0  0  0  0  0  0  0  0
   13.9165   12.7240   11.0015 H   0  0  0  0  0  0  0  0  0  0  0  0
    9.7562   12.2746    6.9696 H   0  0  0  0  0  0  0  0  0  0  0  0
   10.9966   11.1495    6.3999 H   0  0  0  0  0  0  0  0  0  0  0  0
   10.6489   14.0627    5.4809 H   0  0  0  0  0  0  0  0  0  0  0  0
   10.2024   12.6328    4.5537 H   0  0  0  0  0  0  0  0  0  0  0  0
   11.1821   11.3768    3.0317 H   0  0  0  0  0  0  0  0  0  0  0  0
   11.5649   12.1122   -1.6413 H   0  0  0  0  0  0  0  0  0  0  0  0
    9.2184    8.5933   -2.5955 H   0  0  0  0  0  0  0  0  0  0  0  0
    8.4295    7.2065   -1.9762 H   0  0  0  0  0  0  0  0  0  0  0  0
    6.8978    6.9834    0.9567 H   0  0  0  0  0  0  0  0  0  0  0  0
    5.7801    4.8142    1.2172 H   0  0  0  0  0  0  0  0  0  0  0  0
  1  2  1  0  0  0  0
  1 41  1  0  0  0  0
  1 42  1  0  0  0  0
  1 43  1  0  0  0  0
  2  3  1  0  0  0  0
  2  4  1  0  0  0  0
  2 44  1  0  0  0  0
  3 45  1  0  0  0  0
  3 46  1  0  0  0  0
  3 47  1  0  0  0  0
  4  5  1  0  0  0  0
  4 48  1  0  0  0  0
  4 49  1  0  0  0  0
  5  6  1  0  0  0  0
  6  7  2  0  0  0  0
  6  8  1  0  0  0  0
  8  9  1  0  0  0  0
  8 50  1  0  0  0  0
  9 10  1  0  0  0  0
  9 40  2  0  0  0  0
 10 11  2  0  0  0  0
 10 51  1  0  0  0  0
 11 12  1  0  0  0  0
 11 52  1  0  0  0  0
 12 13  1  0  0  0  0
 12 39  2  0  0  0  0
 13 14  1  0  0  0  0
 13 37  2  0  0  0  0
 14 15  2  0  0  0  0
 14 53  1  0  0  0  0
 15 16  1  0  0  0  0
 16 17  2  0  0  0  0
 16 36  1  0  0  0  0
 17 18  1  0  0  0  0
 17 34  1  0  0  0  0
 18 19  1  0  0  0  0
 18 33  2  0  0  0  0
 19 20  2  0  0  0  0
 19 54  1  0  0  0  0
 20 21  1  0  0  0  0
 20 55  1  0  0  0  0
 21 22  2  0  0  0  0
 21 56  1  0  0  0  0
 22 23  1  0  0  0  0
 22 33  1  0  0  0  0
 23 24  1  0  0  0  0
 23 32  1  0  0  0  0
 24 25  1  0  0  0  0
 24 57  1  0  0  0  0
 24 58  1  0  0  0  0
 25 26  1  0  0  0  0
 25 59  1  0  0  0  0
 25 60  1  0  0  0  0
 26 27  1  0  0  0  0
 26 31  1  0  0  0  0
 27 28  2  0  0  0  0
 27 29  1  0  0  0  0
 29 30  1  0  0  0  0
 29 61  1  0  0  0  0
 29 62  1  0  0  0  0
 30 63  1  0  0  0  0
 30 64  1  0  0  0  0
 31 32  1  0  0  0  0
 31 65  1  0  0  0  0
 31 66  1  0  0  0  0
 32 67  1  0  0  0  0
 32 68  1  0  0  0  0
 33 69  1  0  0  0  0
 34 35  2  0  0  0  0
 34 70  1  0  0  0  0
 35 36  1  0  0  0  0
 36 37  1  0  0  0  0
 37 38  1  0  0  0  0
 38 71  1  0  0  0  0
 38 72  1  0  0  0  0
 39 40  1  0  0  0  0
 39 73  1  0  0  0  0
 40 74  1  0  0  0  0
M  END
$$$$
