CHEMBL3895443
 OpenBabel04072215373D

 63 66  0  0  0  0  0  0  0  0999 V2000
    0.8225   -2.0348    3.6352 C   0  0  0  0  0  0  0  0  0  0  0  0
    2.2092   -1.9185    3.9407 O   0  0  0  0  0  0  0  0  0  0  0  0
    3.0638   -1.6133    2.9084 C   0  0  0  0  0  0  0  0  0  0  0  0
    2.6706   -1.4903    1.5771 C   0  0  0  0  0  0  0  0  0  0  0  0
    3.5947   -1.1147    0.6062 C   0  0  0  0  0  0  0  0  0  0  0  0
    3.3318   -0.9279   -0.7257 O   0  0  0  0  0  0  0  0  0  0  0  0
    2.0121   -1.2164   -1.1741 C   0  0  0  0  0  0  0  0  0  0  0  0
    4.9218   -0.8576    0.9791 C   0  0  0  0  0  0  0  0  0  0  0  0
    5.3636   -0.9601    2.3078 C   0  0  0  0  0  0  0  0  0  0  0  0
    6.6389   -0.4895    2.7252 N   0  0  0  0  0  0  0  0  0  0  0  0
    7.1890    0.7011    1.9724 C   0  0  0  0  0  0  0  0  0  0  0  0
    6.3395    2.0040    1.9612 C   0  0  0  0  0  0  0  0  0  0  0  0
    6.1101    2.7640    3.2059 N   0  0  0  0  0  0  0  0  0  0  0  0
    7.3139    3.3591    3.7938 C   0  0  0  0  0  0  0  0  0  0  0  0
    6.9476    4.3316    4.9189 C   0  0  0  0  0  0  0  0  0  0  0  0
    8.1734    4.8385    5.6585 C   0  0  0  0  0  0  0  0  0  0  0  0
    9.3300    4.4298    5.0952 F   0  0  0  0  0  0  0  0  0  0  0  0
    8.1959    6.1897    5.6971 F   0  0  0  0  0  0  0  0  0  0  0  0
    8.1725    4.4021    6.9394 F   0  0  0  0  0  0  0  0  0  0  0  0
    7.7672   -1.2334    3.2422 C   0  0  0  0  0  0  0  0  0  0  0  0
    8.5323   -0.5227    4.1672 C   0  0  0  0  0  0  0  0  0  0  0  0
    9.8603   -0.8126    4.3393 C   0  0  0  0  0  0  0  0  0  0  0  0
   10.4443   -1.9074    3.7583 C   0  0  0  0  0  0  0  0  0  0  0  0
   11.7757   -1.9477    3.8912 N   0  0  0  0  0  0  0  0  0  0  0  0
   12.3894   -3.0678    3.4952 C   0  0  0  0  0  0  0  0  0  0  0  0
   11.6861   -4.1595    3.0380 C   0  0  0  0  0  0  0  0  0  0  0  0
   12.4224   -5.4228    3.0078 C   0  0  0  0  0  0  0  0  0  0  0  0
   12.4750   -6.4606    3.9776 C   0  0  0  0  0  0  0  0  0  0  0  0
   13.4472   -7.3505    3.7400 N   0  0  0  0  0  0  0  0  0  0  0  0
   14.0272   -6.8873    2.6203 N   0  0  0  0  0  0  0  0  0  0  0  0
   14.9507   -7.7142    1.8780 C   0  0  0  0  0  0  0  0  0  0  0  0
   13.5592   -5.6557    2.2486 C   0  0  0  0  0  0  0  0  0  0  0  0
   10.3269   -4.0853    2.7929 N   0  0  0  0  0  0  0  0  0  0  0  0
    9.6690   -2.8826    3.0934 C   0  0  0  0  0  0  0  0  0  0  0  0
    8.3021   -2.4749    2.7889 C   0  0  0  0  0  0  0  0  0  0  0  0
    4.4097   -1.3740    3.2578 C   0  0  0  0  0  0  0  0  0  0  0  0
    0.2689   -2.1546    4.5721 H   0  0  0  0  0  0  0  0  0  0  0  0
    0.6309   -2.9229    3.0182 H   0  0  0  0  0  0  0  0  0  0  0  0
    0.4316   -1.1320    3.1454 H   0  0  0  0  0  0  0  0  0  0  0  0
    1.6365   -1.6685    1.2893 H   0  0  0  0  0  0  0  0  0  0  0  0
    1.9856   -1.0635   -2.2573 H   0  0  0  0  0  0  0  0  0  0  0  0
    1.2826   -0.5340   -0.7247 H   0  0  0  0  0  0  0  0  0  0  0  0
    1.7476   -2.2612   -0.9798 H   0  0  0  0  0  0  0  0  0  0  0  0
    5.6036   -0.5406    0.1961 H   0  0  0  0  0  0  0  0  0  0  0  0
    7.4033    0.3983    0.9405 H   0  0  0  0  0  0  0  0  0  0  0  0
    8.1687    1.0070    2.3610 H   0  0  0  0  0  0  0  0  0  0  0  0
    5.3562    1.8013    1.5275 H   0  0  0  0  0  0  0  0  0  0  0  0
    6.8257    2.6873    1.2508 H   0  0  0  0  0  0  0  0  0  0  0  0
    5.6254    2.1682    3.8787 H   0  0  0  0  0  0  0  0  0  0  0  0
    7.8740    3.9149    3.0310 H   0  0  0  0  0  0  0  0  0  0  0  0
    7.9645    2.5736    4.1848 H   0  0  0  0  0  0  0  0  0  0  0  0
    6.2785    3.8443    5.6384 H   0  0  0  0  0  0  0  0  0  0  0  0
    6.3950    5.1865    4.5091 H   0  0  0  0  0  0  0  0  0  0  0  0
    8.1251    0.3624    4.6452 H   0  0  0  0  0  0  0  0  0  0  0  0
   10.4866   -0.1391    4.9291 H   0  0  0  0  0  0  0  0  0  0  0  0
   13.4639   -3.0811    3.6180 H   0  0  0  0  0  0  0  0  0  0  0  0
   11.8752   -6.5851    4.8704 H   0  0  0  0  0  0  0  0  0  0  0  0
   15.0322   -8.6976    2.3496 H   0  0  0  0  0  0  0  0  0  0  0  0
   15.9289   -7.2294    1.8406 H   0  0  0  0  0  0  0  0  0  0  0  0
   14.5437   -7.8297    0.8695 H   0  0  0  0  0  0  0  0  0  0  0  0
   14.0515   -5.0835    1.4749 H   0  0  0  0  0  0  0  0  0  0  0  0
    7.7011   -3.1311    2.1533 H   0  0  0  0  0  0  0  0  0  0  0  0
    4.6857   -1.4305    4.3106 H   0  0  0  0  0  0  0  0  0  0  0  0
  1  2  1  0  0  0  0
  1 37  1  0  0  0  0
  1 38  1  0  0  0  0
  1 39  1  0  0  0  0
  2  3  1  0  0  0  0
  3  4  1  0  0  0  0
  3 36  2  0  0  0  0
  4  5  2  0  0  0  0
  4 40  1  0  0  0  0
  5  6  1  0  0  0  0
  5  8  1  0  0  0  0
  6  7  1  0  0  0  0
  7 41  1  0  0  0  0
  7 42  1  0  0  0  0
  7 43  1  0  0  0  0
  8  9  2  0  0  0  0
  8 44  1  0  0  0  0
  9 10  1  0  0  0  0
  9 36  1  0  0  0  0
 10 11  1  0  0  0  0
 10 20  1  0  0  0  0
 11 12  1  0  0  0  0
 11 45  1  0  0  0  0
 11 46  1  0  0  0  0
 12 13  1  0  0  0  0
 12 47  1  0  0  0  0
 12 48  1  0  0  0  0
 13 14  1  0  0  0  0
 13 49  1  0  0  0  0
 14 15  1  0  0  0  0
 14 50  1  0  0  0  0
 14 51  1  0  0  0  0
 15 16  1  0  0  0  0
 15 52  1  0  0  0  0
 15 53  1  0  0  0  0
 16 17  1  0  0  0  0
 16 18  1  0  0  0  0
 16 19  1  0  0  0  0
 20 21  1  0  0  0  0
 20 35  2  0  0  0  0
 21 22  2  0  0  0  0
 21 54  1  0  0  0  0
 22 23  1  0  0  0  0
 22 55  1  0  0  0  0
 23 24  1  0  0  0  0
 23 34  2  0  0  0  0
 24 25  2  0  0  0  0
 25 26  1  0  0  0  0
 25 56  1  0  0  0  0
 26 27  1  0  0  0  0
 26 33  2  0  0  0  0
 27 28  1  0  0  0  0
 27 32  2  0  0  0  0
 28 29  2  0  0  0  0
 28 57  1  0  0  0  0
 29 30  1  0  0  0  0
 30 31  1  0  0  0  0
 30 32  1  0  0  0  0
 31 58  1  0  0  0  0
 31 59  1  0  0  0  0
 31 60  1  0  0  0  0
 32 61  1  0  0  0  0
 33 34  1  0  0  0  0
 34 35  1  0  0  0  0
 35 62  1  0  0  0  0
 36 63  1  0  0  0  0
M  END
$$$$
