CHEMBL1087128
 OpenBabel04072215363D

 66 70  0  0  0  0  0  0  0  0999 V2000
    2.5225    0.1461    0.0015 C   0  0  0  0  0  0  0  0  0  0  0  0
    1.0143    0.0650    0.0471 C   0  0  0  0  0  0  0  0  0  0  0  0
    0.2777    1.2463   -0.1096 C   0  0  0  0  0  0  0  0  0  0  0  0
   -1.1164    1.2130   -0.1192 C   0  0  0  0  0  0  0  0  0  0  0  0
   -1.7953   -0.0087   -0.0655 C   0  0  0  0  0  0  0  0  0  0  0  0
   -3.2909   -0.0046   -0.0277 C   0  0  0  0  0  0  0  0  0  0  0  0
   -3.8149    1.0174    0.4075 O   0  0  0  0  0  0  0  0  0  0  0  0
   -3.9563   -1.1591   -0.4463 N   0  0  0  0  0  0  0  0  0  0  0  0
   -5.3629   -1.3719   -0.3978 C   0  0  0  0  0  0  0  0  0  0  0  0
   -6.2639   -0.3371   -0.1816 C   0  0  0  0  0  0  0  0  0  0  0  0
   -7.6236   -0.6010   -0.0867 C   0  0  0  0  0  0  0  0  0  0  0  0
   -8.1016   -1.9035   -0.1895 C   0  0  0  0  0  0  0  0  0  0  0  0
   -7.2428   -2.9908   -0.4158 C   0  0  0  0  0  0  0  0  0  0  0  0
   -7.7882   -4.4370   -0.4897 C   0  0  0  0  0  0  0  0  0  0  0  0
   -9.3187   -4.5269   -0.2804 C   0  0  0  0  0  0  0  0  0  0  0  0
   -7.4556   -5.0613   -1.8601 C   0  0  0  0  0  0  0  0  0  0  0  0
   -7.1886   -5.3419    0.6015 C   0  0  0  0  0  0  0  0  0  0  0  0
   -5.8651   -2.6869   -0.5567 C   0  0  0  0  0  0  0  0  0  0  0  0
   -1.0546   -1.1826    0.0716 C   0  0  0  0  0  0  0  0  0  0  0  0
    0.3322   -1.1629    0.2340 C   0  0  0  0  0  0  0  0  0  0  0  0
    1.0738   -2.3043    0.5770 N   0  0  0  0  0  0  0  0  0  0  0  0
    0.7704   -3.4665    1.2161 C   0  0  0  0  0  0  0  0  0  0  0  0
    1.7588   -4.1220    1.7942 N   0  0  0  0  0  0  0  0  0  0  0  0
    1.8570   -5.2405    1.0134 C   0  0  0  0  0  0  0  0  0  0  0  0
    2.9340   -6.1150    0.8630 C   0  0  0  0  0  0  0  0  0  0  0  0
    2.8395   -7.1167   -0.1066 C   0  0  0  0  0  0  0  0  0  0  0  0
    1.6732   -7.2850   -0.8589 C   0  0  0  0  0  0  0  0  0  0  0  0
    0.5589   -6.4615   -0.6734 C   0  0  0  0  0  0  0  0  0  0  0  0
    0.7044   -5.4202    0.2482 C   0  0  0  0  0  0  0  0  0  0  0  0
   -0.1233   -4.4195    0.7387 N   0  0  0  0  0  0  0  0  0  0  0  0
   -1.5256   -4.5239    0.9073 C   0  0  0  0  0  0  0  0  0  0  0  0
   -2.1767   -3.7542    1.8580 C   0  0  0  0  0  0  0  0  0  0  0  0
   -3.5353   -3.9330    1.9507 C   0  0  0  0  0  0  0  0  0  0  0  0
   -4.3260   -3.1163    2.7419 N   0  0  0  0  0  0  0  0  0  0  0  0
   -4.1811   -4.8301    1.2093 N   0  0  0  0  0  0  0  0  0  0  0  0
   -3.4706   -5.5413    0.3310 C   0  0  0  0  0  0  0  0  0  0  0  0
   -2.1647   -5.4252    0.1320 N   0  0  0  0  0  0  0  0  0  0  0  0
    2.8731    1.1795   -0.0864 H   0  0  0  0  0  0  0  0  0  0  0  0
    2.8983   -0.4034   -0.8696 H   0  0  0  0  0  0  0  0  0  0  0  0
    2.9705   -0.2651    0.9115 H   0  0  0  0  0  0  0  0  0  0  0  0
    0.7857    2.2044   -0.1981 H   0  0  0  0  0  0  0  0  0  0  0  0
   -1.6708    2.1477   -0.1742 H   0  0  0  0  0  0  0  0  0  0  0  0
   -3.4119   -1.9578   -0.7295 H   0  0  0  0  0  0  0  0  0  0  0  0
   -5.9435    0.6945   -0.0869 H   0  0  0  0  0  0  0  0  0  0  0  0
   -8.3146    0.2192    0.0856 H   0  0  0  0  0  0  0  0  0  0  0  0
   -9.1761   -2.0343   -0.0842 H   0  0  0  0  0  0  0  0  0  0  0  0
   -9.8668   -3.9797   -1.0533 H   0  0  0  0  0  0  0  0  0  0  0  0
   -9.6055   -4.1275    0.7010 H   0  0  0  0  0  0  0  0  0  0  0  0
   -9.6647   -5.5670   -0.3112 H   0  0  0  0  0  0  0  0  0  0  0  0
   -7.9198   -4.4993   -2.6769 H   0  0  0  0  0  0  0  0  0  0  0  0
   -7.8149   -6.0964   -1.9167 H   0  0  0  0  0  0  0  0  0  0  0  0
   -6.3759   -5.0900   -2.0476 H   0  0  0  0  0  0  0  0  0  0  0  0
   -7.2439   -4.8887    1.5970 H   0  0  0  0  0  0  0  0  0  0  0  0
   -6.1569   -5.5811    0.3746 H   0  0  0  0  0  0  0  0  0  0  0  0
   -7.6970   -6.3136    0.6465 H   0  0  0  0  0  0  0  0  0  0  0  0
   -5.1699   -3.4897   -0.7596 H   0  0  0  0  0  0  0  0  0  0  0  0
   -1.5721   -2.1207    0.0823 H   0  0  0  0  0  0  0  0  0  0  0  0
    2.0510   -2.0847    0.7430 H   0  0  0  0  0  0  0  0  0  0  0  0
    3.8358   -5.9643    1.4438 H   0  0  0  0  0  0  0  0  0  0  0  0
    3.6949   -7.7623   -0.2843 H   0  0  0  0  0  0  0  0  0  0  0  0
    1.6295   -8.0725   -1.6075 H   0  0  0  0  0  0  0  0  0  0  0  0
   -0.3509   -6.6020   -1.2475 H   0  0  0  0  0  0  0  0  0  0  0  0
   -1.6764   -3.0236    2.4798 H   0  0  0  0  0  0  0  0  0  0  0  0
   -4.0374   -3.0636    3.7097 H   0  0  0  0  0  0  0  0  0  0  0  0
   -5.2996   -3.3995    2.6449 H   0  0  0  0  0  0  0  0  0  0  0  0
   -4.0105   -6.2446   -0.2937 H   0  0  0  0  0  0  0  0  0  0  0  0
  1  2  1  0  0  0  0
  1 38  1  0  0  0  0
  1 39  1  0  0  0  0
  1 40  1  0  0  0  0
  2  3  1  0  0  0  0
  2 20  2  0  0  0  0
  3  4  2  0  0  0  0
  3 41  1  0  0  0  0
  4  5  1  0  0  0  0
  4 42  1  0  0  0  0
  5  6  1  0  0  0  0
  5 19  2  0  0  0  0
  6  7  2  0  0  0  0
  6  8  1  0  0  0  0
  8  9  1  0  0  0  0
  8 43  1  0  0  0  0
  9 10  1  0  0  0  0
  9 18  2  0  0  0  0
 10 11  2  0  0  0  0
 10 44  1  0  0  0  0
 11 12  1  0  0  0  0
 11 45  1  0  0  0  0
 12 13  2  0  0  0  0
 12 46  1  0  0  0  0
 13 14  1  0  0  0  0
 13 18  1  0  0  0  0
 14 15  1  0  0  0  0
 14 16  1  0  0  0  0
 14 17  1  0  0  0  0
 15 47  1  0  0  0  0
 15 48  1  0  0  0  0
 15 49  1  0  0  0  0
 16 50  1  0  0  0  0
 16 51  1  0  0  0  0
 16 52  1  0  0  0  0
 17 53  1  0  0  0  0
 17 54  1  0  0  0  0
 17 55  1  0  0  0  0
 18 56  1  0  0  0  0
 19 20  1  0  0  0  0
 19 57  1  0  0  0  0
 20 21  1  0  0  0  0
 21 22  1  0  0  0  0
 21 58  1  0  0  0  0
 22 23  2  0  0  0  0
 22 30  1  0  0  0  0
 23 24  1  0  0  0  0
 24 25  1  0  0  0  0
 24 29  2  0  0  0  0
 25 26  2  0  0  0  0
 25 59  1  0  0  0  0
 26 27  1  0  0  0  0
 26 60  1  0  0  0  0
 27 28  2  0  0  0  0
 27 61  1  0  0  0  0
 28 29  1  0  0  0  0
 28 62  1  0  0  0  0
 29 30  1  0  0  0  0
 30 31  1  0  0  0  0
 31 32  1  0  0  0  0
 31 37  2  0  0  0  0
 32 33  2  0  0  0  0
 32 63  1  0  0  0  0
 33 34  1  0  0  0  0
 33 35  1  0  0  0  0
 34 64  1  0  0  0  0
 34 65  1  0  0  0  0
 35 36  2  0  0  0  0
 36 37  1  0  0  0  0
 36 66  1  0  0  0  0
M  END
$$$$
