CHEMBL1968590
 OpenBabel04072215363D

 42 45  0  0  0  0  0  0  0  0999 V2000
    1.0400   -0.6166    0.3073 C   0  0  0  0  0  0  0  0  0  0  0  0
    2.4782   -0.6546    0.2388 N   0  0  0  0  0  0  0  0  0  0  0  0
    3.1132   -0.9651   -0.9389 C   0  0  0  0  0  0  0  0  0  0  0  0
    2.5266   -1.2276   -1.9864 O   0  0  0  0  0  0  0  0  0  0  0  0
    4.5869   -0.9542   -0.8243 C   0  0  0  0  0  0  0  0  0  0  0  0
    5.3320   -1.2333   -1.9089 C   0  0  0  0  0  0  0  0  0  0  0  0
    6.7998   -1.2358   -1.9140 C   0  0  0  0  0  0  0  0  0  0  0  0
    7.5700   -1.5634   -0.8184 C   0  0  0  0  0  0  0  0  0  0  0  0
    8.9097   -1.5662   -0.7970 N   0  0  0  0  0  0  0  0  0  0  0  0
    9.6099   -1.2589   -1.9083 C   0  0  0  0  0  0  0  0  0  0  0  0
   10.9687   -1.2952   -1.7079 N   0  0  0  0  0  0  0  0  0  0  0  0
    8.9328   -0.9245   -3.1222 C   0  0  0  0  0  0  0  0  0  0  0  0
    9.4143   -0.5403   -4.4603 C   0  0  0  0  0  0  0  0  0  0  0  0
   10.7842   -0.3618   -4.9662 C   0  0  0  0  0  0  0  0  0  0  0  0
   11.1145   -0.7481   -6.2741 C   0  0  0  0  0  0  0  0  0  0  0  0
   12.4009   -0.5731   -6.7941 C   0  0  0  0  0  0  0  0  0  0  0  0
   13.3846   -0.0490   -5.9487 C   0  0  0  0  0  0  0  0  0  0  0  0
   15.0437    0.2449   -6.2770 S   0  0  0  0  0  0  0  0  0  0  0  0
   15.2567    0.8268   -4.6781 C   0  0  0  0  0  0  0  0  0  0  0  0
   16.5915    1.3140   -4.2384 C   0  0  0  0  0  0  0  0  0  0  0  0
   14.1812    0.8248   -3.9210 N   0  0  0  0  0  0  0  0  0  0  0  0
   13.1000    0.3473   -4.6437 C   0  0  0  0  0  0  0  0  0  0  0  0
   11.7722    0.2448   -4.1800 C   0  0  0  0  0  0  0  0  0  0  0  0
    8.3666   -0.3110   -5.3315 C   0  0  0  0  0  0  0  0  0  0  0  0
    6.8482   -0.5152   -4.6293 S   0  0  0  0  0  0  0  0  0  0  0  0
    7.5196   -0.9325   -3.0906 C   0  0  0  0  0  0  0  0  0  0  0  0
    0.7447   -0.3758    1.3306 H   0  0  0  0  0  0  0  0  0  0  0  0
    0.6388   -1.5926    0.0206 H   0  0  0  0  0  0  0  0  0  0  0  0
    0.6657    0.1461   -0.3810 H   0  0  0  0  0  0  0  0  0  0  0  0
    3.0080   -0.4426    1.0705 H   0  0  0  0  0  0  0  0  0  0  0  0
    5.0218   -0.7076    0.1375 H   0  0  0  0  0  0  0  0  0  0  0  0
    4.8321   -1.4521   -2.8502 H   0  0  0  0  0  0  0  0  0  0  0  0
    7.1181   -1.8503    0.1267 H   0  0  0  0  0  0  0  0  0  0  0  0
   11.2557   -1.5781   -0.7819 H   0  0  0  0  0  0  0  0  0  0  0  0
   11.6313   -1.3469   -2.4602 H   0  0  0  0  0  0  0  0  0  0  0  0
   10.3641   -1.1812   -6.9341 H   0  0  0  0  0  0  0  0  0  0  0  0
   12.6281   -0.8417   -7.8207 H   0  0  0  0  0  0  0  0  0  0  0  0
   17.3373    1.2452   -5.0368 H   0  0  0  0  0  0  0  0  0  0  0  0
   16.9501    0.7259   -3.3884 H   0  0  0  0  0  0  0  0  0  0  0  0
   16.5224    2.3623   -3.9321 H   0  0  0  0  0  0  0  0  0  0  0  0
   11.5492    0.6366   -3.1923 H   0  0  0  0  0  0  0  0  0  0  0  0
    8.4140   -0.0136   -6.3706 H   0  0  0  0  0  0  0  0  0  0  0  0
  1  2  1  0  0  0  0
  1 27  1  0  0  0  0
  1 28  1  0  0  0  0
  1 29  1  0  0  0  0
  2  3  1  0  0  0  0
  2 30  1  0  0  0  0
  3  4  2  0  0  0  0
  3  5  1  0  0  0  0
  5  6  2  3  0  0  0
  5 31  1  0  0  0  0
  6  7  1  0  0  0  0
  6 32  1  0  0  0  0
  7  8  1  0  0  0  0
  7 26  2  0  0  0  0
  8  9  2  0  0  0  0
  8 33  1  0  0  0  0
  9 10  1  0  0  0  0
 10 11  1  0  0  0  0
 10 12  2  0  0  0  0
 11 34  1  0  0  0  0
 11 35  1  0  0  0  0
 12 13  1  0  0  0  0
 12 26  1  0  0  0  0
 13 14  1  0  0  0  0
 13 24  2  0  0  0  0
 14 15  1  0  0  0  0
 14 23  2  0  0  0  0
 15 16  2  0  0  0  0
 15 36  1  0  0  0  0
 16 17  1  0  0  0  0
 16 37  1  0  0  0  0
 17 18  1  0  0  0  0
 17 22  2  0  0  0  0
 18 19  1  0  0  0  0
 19 20  1  0  0  0  0
 19 21  2  0  0  0  0
 20 38  1  0  0  0  0
 20 39  1  0  0  0  0
 20 40  1  0  0  0  0
 21 22  1  0  0  0  0
 22 23  1  0  0  0  0
 23 41  1  0  0  0  0
 24 25  1  0  0  0  0
 24 42  1  0  0  0  0
 25 26  1  0  0  0  0
M  END
$$$$
