CHEMBL3983639
 OpenBabel04072215373D

 35 38  0  0  0  0  0  0  0  0999 V2000
    1.1872   -0.1665   -0.2749 N   0  0  0  0  0  0  0  0  0  0  0  0
    2.5618   -0.1575   -0.1798 C   0  0  0  0  0  0  0  0  0  0  0  0
    3.1521    1.0445   -0.0735 N   0  0  0  0  0  0  0  0  0  0  0  0
    4.4983    1.1094   -0.0091 C   0  0  0  0  0  0  0  0  0  0  0  0
    5.1376    2.3612    0.1257 N   0  0  0  0  0  0  0  0  0  0  0  0
    4.5243    3.5072    0.6822 C   0  0  0  0  0  0  0  0  0  0  0  0
    3.6705    3.3970    1.7937 C   0  0  0  0  0  0  0  0  0  0  0  0
    3.0622    4.5209    2.3510 C   0  0  0  0  0  0  0  0  0  0  0  0
    3.3238    5.7698    1.8087 C   0  0  0  0  0  0  0  0  0  0  0  0
    2.7286    6.8513    2.3282 F   0  0  0  0  0  0  0  0  0  0  0  0
    4.1976    5.9139    0.7371 C   0  0  0  0  0  0  0  0  0  0  0  0
    4.8093    4.7848    0.1824 C   0  0  0  0  0  0  0  0  0  0  0  0
    5.2316   -0.0365   -0.0636 C   0  0  0  0  0  0  0  0  0  0  0  0
    4.5199   -1.2247   -0.1106 C   0  0  0  0  0  0  0  0  0  0  0  0
    3.1918   -1.3315   -0.1650 N   0  0  0  0  0  0  0  0  0  0  0  0
    5.4417   -2.3343   -0.0745 C   0  0  0  0  0  0  0  0  0  0  0  0
    5.2138   -3.6984   -0.0720 C   0  0  0  0  0  0  0  0  0  0  0  0
    6.3207   -4.5506   -0.0395 C   0  0  0  0  0  0  0  0  0  0  0  0
    7.6287   -4.0329   -0.0093 C   0  0  0  0  0  0  0  0  0  0  0  0
    7.8572   -2.6539    0.0004 C   0  0  0  0  0  0  0  0  0  0  0  0
    6.7558   -1.8170   -0.0271 C   0  0  0  0  0  0  0  0  0  0  0  0
    6.7110   -0.2989   -0.0082 C   0  0  0  0  0  0  0  0  0  0  0  0
    0.8157    0.6990    0.0951 H   0  0  0  0  0  0  0  0  0  0  0  0
    0.8167   -1.0314    0.0874 H   0  0  0  0  0  0  0  0  0  0  0  0
    5.6736    2.5627   -0.7114 H   0  0  0  0  0  0  0  0  0  0  0  0
    3.4688    2.4218    2.2307 H   0  0  0  0  0  0  0  0  0  0  0  0
    2.3897    4.4227    3.1959 H   0  0  0  0  0  0  0  0  0  0  0  0
    4.3929    6.9035    0.3370 H   0  0  0  0  0  0  0  0  0  0  0  0
    5.4883    4.9140   -0.6558 H   0  0  0  0  0  0  0  0  0  0  0  0
    4.2027   -4.0932   -0.0936 H   0  0  0  0  0  0  0  0  0  0  0  0
    6.1689   -5.6277   -0.0391 H   0  0  0  0  0  0  0  0  0  0  0  0
    8.4728   -4.7191    0.0090 H   0  0  0  0  0  0  0  0  0  0  0  0
    8.8678   -2.2603    0.0287 H   0  0  0  0  0  0  0  0  0  0  0  0
    7.2143    0.1112   -0.8886 H   0  0  0  0  0  0  0  0  0  0  0  0
    7.1465    0.0849    0.9191 H   0  0  0  0  0  0  0  0  0  0  0  0
  1  2  1  0  0  0  0
  1 23  1  0  0  0  0
  1 24  1  0  0  0  0
  2  3  1  0  0  0  0
  2 15  2  0  0  0  0
  3  4  2  0  0  0  0
  4  5  1  0  0  0  0
  4 13  1  0  0  0  0
  5  6  1  0  0  0  0
  5 25  1  0  0  0  0
  6  7  1  0  0  0  0
  6 12  2  0  0  0  0
  7  8  2  0  0  0  0
  7 26  1  0  0  0  0
  8  9  1  0  0  0  0
  8 27  1  0  0  0  0
  9 10  1  0  0  0  0
  9 11  2  0  0  0  0
 11 12  1  0  0  0  0
 11 28  1  0  0  0  0
 12 29  1  0  0  0  0
 13 14  2  0  0  0  0
 13 22  1  0  0  0  0
 14 15  1  0  0  0  0
 14 16  1  0  0  0  0
 16 17  1  0  0  0  0
 16 21  2  0  0  0  0
 17 18  2  0  0  0  0
 17 30  1  0  0  0  0
 18 19  1  0  0  0  0
 18 31  1  0  0  0  0
 19 20  2  0  0  0  0
 19 32  1  0  0  0  0
 20 21  1  0  0  0  0
 20 33  1  0  0  0  0
 21 22  1  0  0  0  0
 22 34  1  0  0  0  0
 22 35  1  0  0  0  0
M  END
$$$$
