CHEMBL458333
 OpenBabel04072215383D

 81 85  0  0  0  0  0  0  0  0999 V2000
    0.9757   -2.1389    0.6940 C   0  0  0  0  0  0  0  0  0  0  0  0
    2.3745   -1.9139    0.7977 O   0  0  0  0  0  0  0  0  0  0  0  0
    2.7992   -0.7101    1.4559 C   0  0  0  0  0  0  0  0  0  0  0  0
    2.2635    0.5400    0.7374 C   0  0  0  0  0  0  0  0  0  0  0  0
    2.3513   -0.6918    2.9255 C   0  0  0  0  0  0  0  0  0  0  0  0
    4.3448   -0.6909    1.3489 C   0  0  0  0  0  0  0  0  0  0  0  0
    5.0313   -1.9114    1.9680 C   0  0  0  0  0  0  0  0  0  0  0  0
    6.4807   -1.8673    1.8439 N   0  0  0  0  0  0  0  0  0  0  0  0
    7.1590   -0.8392    2.3990 N   0  0  0  0  0  0  0  0  0  0  0  0
    8.4438   -1.2107    2.3252 C   0  0  0  0  0  0  0  0  0  0  0  0
    9.5019   -0.5135    2.8119 N   0  0  0  0  0  0  0  0  0  0  0  0
    9.4867    0.5264    3.7734 C   0  0  0  0  0  0  0  0  0  0  0  0
    8.7021    0.4483    4.9518 C   0  0  0  0  0  0  0  0  0  0  0  0
    7.9485   -0.7841    5.3851 C   0  0  0  0  0  0  0  0  0  0  0  0
    8.6178    1.5595    5.8084 C   0  0  0  0  0  0  0  0  0  0  0  0
    9.3184    2.7270    5.5351 C   0  0  0  0  0  0  0  0  0  0  0  0
   10.1204    2.8011    4.4020 C   0  0  0  0  0  0  0  0  0  0  0  0
   10.2144    1.7166    3.5138 C   0  0  0  0  0  0  0  0  0  0  0  0
   11.0697    1.8762    2.2840 C   0  0  0  0  0  0  0  0  0  0  0  0
    8.5810   -2.4815    1.7097 C   0  0  0  0  0  0  0  0  0  0  0  0
    9.5752   -3.4098    1.4307 C   0  0  0  0  0  0  0  0  0  0  0  0
    9.2456   -4.5900    0.8429 N   0  0  0  0  0  0  0  0  0  0  0  0
    7.9498   -4.8514    0.5678 C   0  0  0  0  0  0  0  0  0  0  0  0
    7.6871   -6.1191    0.0378 N   0  0  0  0  0  0  0  0  0  0  0  0
    6.5581   -6.9354    0.2257 C   0  0  0  0  0  0  0  0  0  0  0  0
    5.4522   -6.5336    0.9822 C   0  0  0  0  0  0  0  0  0  0  0  0
    4.3314   -7.3456    1.1334 C   0  0  0  0  0  0  0  0  0  0  0  0
    4.2667   -8.5723    0.4853 C   0  0  0  0  0  0  0  0  0  0  0  0
    3.1870   -9.4131    0.5376 O   0  0  0  0  0  0  0  0  0  0  0  0
    1.9478   -8.7662    0.8701 C   0  0  0  0  0  0  0  0  0  0  0  0
    0.7931   -9.6171    0.3327 C   0  0  0  0  0  0  0  0  0  0  0  0
   -0.5521   -9.0631    0.5879 N   0  0  0  0  0  0  0  0  0  0  0  0
   -1.5838   -9.9647    0.0431 C   0  0  0  0  0  0  0  0  0  0  0  0
   -1.7161   -9.5640   -1.4149 C   0  0  0  0  0  0  0  0  0  0  0  0
   -1.5448   -8.0579   -1.3804 C   0  0  0  0  0  0  0  0  0  0  0  0
   -0.8035   -7.7724   -0.0789 C   0  0  0  0  0  0  0  0  0  0  0  0
    5.3523   -8.9963   -0.2783 C   0  0  0  0  0  0  0  0  0  0  0  0
    6.4827   -8.1777   -0.4193 C   0  0  0  0  0  0  0  0  0  0  0  0
    6.9335   -4.0058    0.7971 N   0  0  0  0  0  0  0  0  0  0  0  0
    7.2971   -2.8592    1.3810 C   0  0  0  0  0  0  0  0  0  0  0  0
    0.8275   -3.0889    0.1724 H   0  0  0  0  0  0  0  0  0  0  0  0
    0.4874   -1.3594    0.1042 H   0  0  0  0  0  0  0  0  0  0  0  0
    0.5101   -2.2242    1.6787 H   0  0  0  0  0  0  0  0  0  0  0  0
    1.1739    0.6173    0.8134 H   0  0  0  0  0  0  0  0  0  0  0  0
    2.5063    0.5102   -0.3306 H   0  0  0  0  0  0  0  0  0  0  0  0
    2.6851    1.4563    1.1653 H   0  0  0  0  0  0  0  0  0  0  0  0
    1.2628   -0.5991    3.0105 H   0  0  0  0  0  0  0  0  0  0  0  0
    2.7928    0.1516    3.4669 H   0  0  0  0  0  0  0  0  0  0  0  0
    2.6187   -1.6206    3.4394 H   0  0  0  0  0  0  0  0  0  0  0  0
    4.7314    0.2270    1.8100 H   0  0  0  0  0  0  0  0  0  0  0  0
    4.6299   -0.6526    0.2885 H   0  0  0  0  0  0  0  0  0  0  0  0
    4.6795   -2.8390    1.5053 H   0  0  0  0  0  0  0  0  0  0  0  0
    4.8303   -1.9761    3.0432 H   0  0  0  0  0  0  0  0  0  0  0  0
   10.3785   -0.5732    2.3096 H   0  0  0  0  0  0  0  0  0  0  0  0
    8.2524   -1.6886    4.8542 H   0  0  0  0  0  0  0  0  0  0  0  0
    6.8717   -0.6355    5.2542 H   0  0  0  0  0  0  0  0  0  0  0  0
    8.1477   -0.9884    6.4429 H   0  0  0  0  0  0  0  0  0  0  0  0
    7.9992    1.5082    6.7020 H   0  0  0  0  0  0  0  0  0  0  0  0
    9.2426    3.5753    6.2092 H   0  0  0  0  0  0  0  0  0  0  0  0
   10.6619    3.7232    4.2048 H   0  0  0  0  0  0  0  0  0  0  0  0
   11.5600    2.8560    2.2544 H   0  0  0  0  0  0  0  0  0  0  0  0
   10.4579    1.7865    1.3812 H   0  0  0  0  0  0  0  0  0  0  0  0
   11.8593    1.1179    2.2699 H   0  0  0  0  0  0  0  0  0  0  0  0
   10.6172   -3.2764    1.6972 H   0  0  0  0  0  0  0  0  0  0  0  0
    8.5602   -6.6130   -0.0826 H   0  0  0  0  0  0  0  0  0  0  0  0
    5.4324   -5.5805    1.4981 H   0  0  0  0  0  0  0  0  0  0  0  0
    3.5276   -6.9789    1.7627 H   0  0  0  0  0  0  0  0  0  0  0  0
    1.9101   -7.7780    0.4018 H   0  0  0  0  0  0  0  0  0  0  0  0
    1.8714   -8.6621    1.9592 H   0  0  0  0  0  0  0  0  0  0  0  0
    0.8660  -10.5975    0.8228 H   0  0  0  0  0  0  0  0  0  0  0  0
    0.9647   -9.8044   -0.7342 H   0  0  0  0  0  0  0  0  0  0  0  0
   -2.5281   -9.7783    0.5693 H   0  0  0  0  0  0  0  0  0  0  0  0
   -1.3475  -11.0266    0.1686 H   0  0  0  0  0  0  0  0  0  0  0  0
   -2.6740   -9.8623   -1.8493 H   0  0  0  0  0  0  0  0  0  0  0  0
   -0.9193  -10.0159   -2.0177 H   0  0  0  0  0  0  0  0  0  0  0  0
   -2.5225   -7.5627   -1.3710 H   0  0  0  0  0  0  0  0  0  0  0  0
   -0.9914   -7.7011   -2.2549 H   0  0  0  0  0  0  0  0  0  0  0  0
   -1.4452   -7.1686    0.5749 H   0  0  0  0  0  0  0  0  0  0  0  0
    0.0861   -7.1653   -0.2629 H   0  0  0  0  0  0  0  0  0  0  0  0
    5.3139   -9.9574   -0.7841 H   0  0  0  0  0  0  0  0  0  0  0  0
    7.3014   -8.5214   -1.0469 H   0  0  0  0  0  0  0  0  0  0  0  0
  1  2  1  0  0  0  0
  1 41  1  0  0  0  0
  1 42  1  0  0  0  0
  1 43  1  0  0  0  0
  2  3  1  0  0  0  0
  3  4  1  0  0  0  0
  3  5  1  0  0  0  0
  3  6  1  0  0  0  0
  4 44  1  0  0  0  0
  4 45  1  0  0  0  0
  4 46  1  0  0  0  0
  5 47  1  0  0  0  0
  5 48  1  0  0  0  0
  5 49  1  0  0  0  0
  6  7  1  0  0  0  0
  6 50  1  0  0  0  0
  6 51  1  0  0  0  0
  7  8  1  0  0  0  0
  7 52  1  0  0  0  0
  7 53  1  0  0  0  0
  8  9  1  0  0  0  0
  8 40  1  0  0  0  0
  9 10  2  0  0  0  0
 10 11  1  0  0  0  0
 10 20  1  0  0  0  0
 11 12  1  0  0  0  0
 11 54  1  0  0  0  0
 12 13  1  0  0  0  0
 12 18  2  0  0  0  0
 13 14  1  0  0  0  0
 13 15  2  0  0  0  0
 14 55  1  0  0  0  0
 14 56  1  0  0  0  0
 14 57  1  0  0  0  0
 15 16  1  0  0  0  0
 15 58  1  0  0  0  0
 16 17  2  0  0  0  0
 16 59  1  0  0  0  0
 17 18  1  0  0  0  0
 17 60  1  0  0  0  0
 18 19  1  0  0  0  0
 19 61  1  0  0  0  0
 19 62  1  0  0  0  0
 19 63  1  0  0  0  0
 20 21  1  0  0  0  0
 20 40  2  0  0  0  0
 21 22  2  0  0  0  0
 21 64  1  0  0  0  0
 22 23  1  0  0  0  0
 23 24  1  0  0  0  0
 23 39  2  0  0  0  0
 24 25  1  0  0  0  0
 24 65  1  0  0  0  0
 25 26  1  0  0  0  0
 25 38  2  0  0  0  0
 26 27  2  0  0  0  0
 26 66  1  0  0  0  0
 27 28  1  0  0  0  0
 27 67  1  0  0  0  0
 28 29  1  0  0  0  0
 28 37  2  0  0  0  0
 29 30  1  0  0  0  0
 30 31  1  0  0  0  0
 30 68  1  0  0  0  0
 30 69  1  0  0  0  0
 31 32  1  0  0  0  0
 31 70  1  0  0  0  0
 31 71  1  0  0  0  0
 32 33  1  0  0  0  0
 32 36  1  0  0  0  0
 33 34  1  0  0  0  0
 33 72  1  0  0  0  0
 33 73  1  0  0  0  0
 34 35  1  0  0  0  0
 34 74  1  0  0  0  0
 34 75  1  0  0  0  0
 35 36  1  0  0  0  0
 35 76  1  0  0  0  0
 35 77  1  0  0  0  0
 36 78  1  0  0  0  0
 36 79  1  0  0  0  0
 37 38  1  0  0  0  0
 37 80  1  0  0  0  0
 38 81  1  0  0  0  0
 39 40  1  0  0  0  0
M  END
$$$$
