CHEMBL3628808
 OpenBabel04072215373D

 40 43  0  0  0  0  0  0  0  0999 V2000
    1.2437    0.7415   -0.2357 O   0  0  0  0  0  0  0  0  0  0  0  0
    2.3082    0.1826    0.0078 C   0  0  0  0  0  0  0  0  0  0  0  0
    2.8048   -0.8972   -0.7124 N   0  0  0  0  0  0  0  0  0  0  0  0
    2.1354   -1.5144   -1.7980 C   0  0  0  0  0  0  0  0  0  0  0  0
    1.0620   -0.9159   -2.4588 C   0  0  0  0  0  0  0  0  0  0  0  0
    0.3469   -1.6015   -3.4375 C   0  0  0  0  0  0  0  0  0  0  0  0
    0.7417   -2.8745   -3.8398 C   0  0  0  0  0  0  0  0  0  0  0  0
    0.0703   -3.6224   -4.7837 O   0  0  0  0  0  0  0  0  0  0  0  0
   -0.6080   -2.9439   -5.7923 C   0  0  0  0  0  0  0  0  0  0  0  0
   -0.0977   -1.7871   -6.2767 N   0  0  0  0  0  0  0  0  0  0  0  0
   -0.7984   -1.1306   -7.2086 C   0  0  0  0  0  0  0  0  0  0  0  0
   -1.9493   -1.5046   -7.7713 N   0  0  0  0  0  0  0  0  0  0  0  0
   -2.3879   -2.6886   -7.3103 C   0  0  0  0  0  0  0  0  0  0  0  0
   -3.8212   -3.3826   -7.9175 S   0  0  0  0  0  0  0  0  0  0  0  0
   -3.6665   -4.7445   -6.8954 C   0  0  0  0  0  0  0  0  0  0  0  0
   -2.5463   -4.6628   -6.0952 C   0  0  0  0  0  0  0  0  0  0  0  0
   -1.7855   -3.4697   -6.3354 C   0  0  0  0  0  0  0  0  0  0  0  0
    1.8386   -3.4714   -3.2135 C   0  0  0  0  0  0  0  0  0  0  0  0
    2.5393   -2.7918   -2.2030 C   0  0  0  0  0  0  0  0  0  0  0  0
    3.1381    0.5333    1.0584 N   0  0  0  0  0  0  0  0  0  0  0  0
    2.8612    1.5082    2.0483 C   0  0  0  0  0  0  0  0  0  0  0  0
    1.6701    2.2435    2.1113 C   0  0  0  0  0  0  0  0  0  0  0  0
    1.4506    3.1833    3.1208 C   0  0  0  0  0  0  0  0  0  0  0  0
    2.4221    3.3973    4.0924 C   0  0  0  0  0  0  0  0  0  0  0  0
    3.6084    2.6704    4.0429 C   0  0  0  0  0  0  0  0  0  0  0  0
    4.9234    2.9491    5.3707 Br  0  0  0  0  0  0  0  0  0  0  0  0
    3.8344    1.7334    3.0293 C   0  0  0  0  0  0  0  0  0  0  0  0
    3.5697   -1.4113   -0.3049 H   0  0  0  0  0  0  0  0  0  0  0  0
    0.7373    0.0954   -2.2379 H   0  0  0  0  0  0  0  0  0  0  0  0
   -0.5151   -1.1060   -3.8741 H   0  0  0  0  0  0  0  0  0  0  0  0
   -0.3849   -0.1815   -7.5362 H   0  0  0  0  0  0  0  0  0  0  0  0
   -4.4045   -5.5345   -6.9295 H   0  0  0  0  0  0  0  0  0  0  0  0
   -2.2751   -5.4242   -5.3729 H   0  0  0  0  0  0  0  0  0  0  0  0
    2.1454   -4.4735   -3.5012 H   0  0  0  0  0  0  0  0  0  0  0  0
    3.3774   -3.2907   -1.7251 H   0  0  0  0  0  0  0  0  0  0  0  0
    4.0427    0.0895    1.0985 H   0  0  0  0  0  0  0  0  0  0  0  0
    0.8710    2.1158    1.3859 H   0  0  0  0  0  0  0  0  0  0  0  0
    0.5178    3.7411    3.1429 H   0  0  0  0  0  0  0  0  0  0  0  0
    2.2407    4.1274    4.8760 H   0  0  0  0  0  0  0  0  0  0  0  0
    4.7676    1.1784    3.0165 H   0  0  0  0  0  0  0  0  0  0  0  0
  1  2  2  0  0  0  0
  2  3  1  0  0  0  0
  2 20  1  0  0  0  0
  3  4  1  0  0  0  0
  3 28  1  0  0  0  0
  4  5  1  0  0  0  0
  4 19  2  0  0  0  0
  5  6  2  0  0  0  0
  5 29  1  0  0  0  0
  6  7  1  0  0  0  0
  6 30  1  0  0  0  0
  7  8  1  0  0  0  0
  7 18  2  0  0  0  0
  8  9  1  0  0  0  0
  9 10  1  0  0  0  0
  9 17  2  0  0  0  0
 10 11  2  0  0  0  0
 11 12  1  0  0  0  0
 11 31  1  0  0  0  0
 12 13  2  0  0  0  0
 13 14  1  0  0  0  0
 13 17  1  0  0  0  0
 14 15  1  0  0  0  0
 15 16  2  0  0  0  0
 15 32  1  0  0  0  0
 16 17  1  0  0  0  0
 16 33  1  0  0  0  0
 18 19  1  0  0  0  0
 18 34  1  0  0  0  0
 19 35  1  0  0  0  0
 20 21  1  0  0  0  0
 20 36  1  0  0  0  0
 21 22  1  0  0  0  0
 21 27  2  0  0  0  0
 22 23  2  0  0  0  0
 22 37  1  0  0  0  0
 23 24  1  0  0  0  0
 23 38  1  0  0  0  0
 24 25  2  0  0  0  0
 24 39  1  0  0  0  0
 25 26  1  0  0  0  0
 25 27  1  0  0  0  0
 27 40  1  0  0  0  0
M  END
$$$$
