CHEMBL3896927
 OpenBabel04072215373D

 55 58  0  0  1  0  0  0  0  0999 V2000
    2.9987    1.1601   -0.3591 C   0  0  0  0  0  0  0  0  0  0  0  0
    2.5111   -0.1844   -0.3307 O   0  0  0  0  0  0  0  0  0  0  0  0
    3.2246   -1.1383    0.3443 C   0  0  0  0  0  0  0  0  0  0  0  0
    4.3178   -0.8565    1.1641 C   0  0  0  0  0  0  0  0  0  0  0  0
    5.0768   -1.8816    1.7779 C   0  0  0  0  0  0  0  0  0  0  0  0
    6.1732   -1.6649    2.6343 C   0  0  0  0  0  0  0  0  0  0  0  0
    6.4456   -0.3378    3.0413 N   0  0  0  0  0  0  0  0  0  0  0  0
    7.6954    0.2527    3.3212 C   0  0  0  0  0  0  0  0  0  0  0  0
    8.8401   -0.2005    2.6405 C   0  0  0  0  0  0  0  0  0  0  0  0
   10.0643    0.4546    2.7599 C   0  0  0  0  0  0  0  0  0  0  0  0
   10.1562    1.5840    3.5594 C   0  0  0  0  0  0  0  0  0  0  0  0
    9.0399    2.0435    4.2645 C   0  0  0  0  0  0  0  0  0  0  0  0
    9.2692    3.4583    5.2343 Cl  0  0  0  0  0  0  0  0  0  0  0  0
    7.7962    1.3868    4.1659 C   0  0  0  0  0  0  0  0  0  0  0  0
    6.5933    1.8441    4.9533 C   0  0  0  0  0  0  0  0  0  0  0  0
    6.9222   -2.6717    3.1130 N   0  0  0  0  0  0  0  0  0  0  0  0
    6.5429   -3.9123    2.7722 C   0  0  0  0  0  0  0  0  0  0  0  0
    5.4960   -4.2323    2.0037 N   0  0  0  0  0  0  0  0  0  0  0  0
    4.7756   -3.2157    1.5173 C   0  0  0  0  0  0  0  0  0  0  0  0
    3.6705   -3.4927    0.7345 C   0  0  0  0  0  0  0  0  0  0  0  0
    2.8438   -2.4856    0.2007 C   0  0  0  0  0  0  0  0  0  0  0  0
    1.6554   -2.7894   -0.4469 O   0  0  0  0  0  0  0  0  0  0  0  0
    1.1083   -4.0623   -0.0480 C   0  0  0  0  0  0  0  0  0  0  0  0
   -0.3909   -4.2378   -0.3394 C   0  0  3  0  0  0  0  0  0  0  0  0
   -1.2670   -3.1578    0.3168 C   0  0  0  0  0  0  0  0  0  0  0  0
   -1.2259   -3.2709    1.7893 N   0  0  0  0  0  0  0  0  0  0  0  0
   -2.0015   -2.2059    2.4122 C   0  0  0  0  0  0  0  0  0  0  0  0
   -1.7201   -4.6054    2.1745 C   0  0  0  0  0  0  0  0  0  0  0  0
   -0.9007   -5.7151    1.4933 C   0  0  0  0  0  0  0  0  0  0  0  0
   -0.8452   -5.5573    0.0636 O   0  0  0  0  0  0  0  0  0  0  0  0
    2.8220    1.5693   -1.3588 H   0  0  0  0  0  0  0  0  0  0  0  0
    4.0719    1.2784   -0.1800 H   0  0  0  0  0  0  0  0  0  0  0  0
    2.4365    1.7620    0.3616 H   0  0  0  0  0  0  0  0  0  0  0  0
    4.6315    0.1671    1.3509 H   0  0  0  0  0  0  0  0  0  0  0  0
    5.6698    0.0131    3.5874 H   0  0  0  0  0  0  0  0  0  0  0  0
    8.7774   -1.0647    1.9827 H   0  0  0  0  0  0  0  0  0  0  0  0
   10.9261    0.0914    2.2108 H   0  0  0  0  0  0  0  0  0  0  0  0
   11.1064    2.1069    3.6315 H   0  0  0  0  0  0  0  0  0  0  0  0
    6.7893    2.6977    5.6055 H   0  0  0  0  0  0  0  0  0  0  0  0
    6.2480    1.0315    5.6031 H   0  0  0  0  0  0  0  0  0  0  0  0
    5.7825    2.1375    4.2787 H   0  0  0  0  0  0  0  0  0  0  0  0
    7.1293   -4.7307    3.1677 H   0  0  0  0  0  0  0  0  0  0  0  0
    3.4602   -4.5442    0.5606 H   0  0  0  0  0  0  0  0  0  0  0  0
    1.2653   -4.2089    1.0265 H   0  0  0  0  0  0  0  0  0  0  0  0
    1.6412   -4.8582   -0.5831 H   0  0  0  0  0  0  0  0  0  0  0  0
   -0.5398   -4.1812   -1.4240 H   0  0  0  0  0  0  0  0  0  0  0  0
   -2.3017   -3.2839   -0.0321 H   0  0  0  0  0  0  0  0  0  0  0  0
   -0.9283   -2.1668   -0.0043 H   0  0  0  0  0  0  0  0  0  0  0  0
   -1.5837   -1.2296    2.1415 H   0  0  0  0  0  0  0  0  0  0  0  0
   -1.9445   -2.2796    3.5033 H   0  0  0  0  0  0  0  0  0  0  0  0
   -3.0553   -2.2260    2.1148 H   0  0  0  0  0  0  0  0  0  0  0  0
   -2.7746   -4.7168    1.8908 H   0  0  0  0  0  0  0  0  0  0  0  0
   -1.6510   -4.7335    3.2614 H   0  0  0  0  0  0  0  0  0  0  0  0
   -1.3605   -6.6879    1.6994 H   0  0  0  0  0  0  0  0  0  0  0  0
    0.1155   -5.7626    1.9006 H   0  0  0  0  0  0  0  0  0  0  0  0
  1  2  1  0  0  0  0
  1 31  1  0  0  0  0
  1 32  1  0  0  0  0
  1 33  1  0  0  0  0
  2  3  1  0  0  0  0
  3  4  1  0  0  0  0
  3 21  2  0  0  0  0
  4  5  2  0  0  0  0
  4 34  1  0  0  0  0
  5  6  1  0  0  0  0
  5 19  1  0  0  0  0
  6  7  1  0  0  0  0
  6 16  2  0  0  0  0
  7  8  1  0  0  0  0
  7 35  1  0  0  0  0
  8  9  1  0  0  0  0
  8 14  2  0  0  0  0
  9 10  2  0  0  0  0
  9 36  1  0  0  0  0
 10 11  1  0  0  0  0
 10 37  1  0  0  0  0
 11 12  2  0  0  0  0
 11 38  1  0  0  0  0
 12 13  1  0  0  0  0
 12 14  1  0  0  0  0
 14 15  1  0  0  0  0
 15 39  1  0  0  0  0
 15 40  1  0  0  0  0
 15 41  1  0  0  0  0
 16 17  1  0  0  0  0
 17 18  2  0  0  0  0
 17 42  1  0  0  0  0
 18 19  1  0  0  0  0
 19 20  2  0  0  0  0
 20 21  1  0  0  0  0
 20 43  1  0  0  0  0
 21 22  1  0  0  0  0
 22 23  1  0  0  0  0
 23 24  1  0  0  0  0
 23 44  1  0  0  0  0
 23 45  1  0  0  0  0
 24 25  1  0  0  0  0
 24 30  1  0  0  0  0
 24 46  1  0  0  0  0
 25 26  1  0  0  0  0
 25 47  1  0  0  0  0
 25 48  1  0  0  0  0
 26 27  1  0  0  0  0
 26 28  1  0  0  0  0
 27 49  1  0  0  0  0
 27 50  1  0  0  0  0
 27 51  1  0  0  0  0
 28 29  1  0  0  0  0
 28 52  1  0  0  0  0
 28 53  1  0  0  0  0
 29 30  1  0  0  0  0
 29 54  1  0  0  0  0
 29 55  1  0  0  0  0
M  END
$$$$
