CHEMBL3633763
 OpenBabel04072215373D

 47 49  0  0  0  0  0  0  0  0999 V2000
    2.5251    1.7591   -0.0420 C   0  0  0  0  0  0  0  0  0  0  0  0
    2.4360    0.3332   -0.0684 O   0  0  0  0  0  0  0  0  0  0  0  0
    3.0470   -0.3124    0.9755 C   0  0  0  0  0  0  0  0  0  0  0  0
    4.1715    0.2293    1.6134 C   0  0  0  0  0  0  0  0  0  0  0  0
    4.7267   -0.3322    2.7467 C   0  0  0  0  0  0  0  0  0  0  0  0
    5.7530    0.3073    3.3123 N   0  0  0  0  0  0  0  0  0  0  0  0
    6.2374   -0.2212    4.4364 C   0  0  0  0  0  0  0  0  0  0  0  0
    5.8033   -1.3354    5.0210 N   0  0  0  0  0  0  0  0  0  0  0  0
    4.7820   -1.9884    4.4297 C   0  0  0  0  0  0  0  0  0  0  0  0
    4.3173   -3.1899    5.0333 N   0  0  0  0  0  0  0  0  0  0  0  0
    4.6929   -3.5967    6.3353 C   0  0  0  0  0  0  0  0  0  0  0  0
    4.5845   -2.7046    7.4149 C   0  0  0  0  0  0  0  0  0  0  0  0
    5.0415   -3.0539    8.6861 C   0  0  0  0  0  0  0  0  0  0  0  0
    5.6051   -4.3090    8.8948 C   0  0  0  0  0  0  0  0  0  0  0  0
    5.6851   -5.2122    7.8358 C   0  0  0  0  0  0  0  0  0  0  0  0
    6.4632   -6.9134    8.1209 Br  0  0  0  0  0  0  0  0  0  0  0  0
    5.2248   -4.8688    6.5626 C   0  0  0  0  0  0  0  0  0  0  0  0
    4.1752   -1.5125    3.2543 C   0  0  0  0  0  0  0  0  0  0  0  0
    3.0710   -2.1047    2.5848 C   0  0  0  0  0  0  0  0  0  0  0  0
    2.5254   -1.5299    1.4317 C   0  0  0  0  0  0  0  0  0  0  0  0
    1.4481   -2.2086    0.9153 O   0  0  0  0  0  0  0  0  0  0  0  0
    1.3762   -2.2488   -0.5120 C   0  0  0  0  0  0  0  0  0  0  0  0
    0.3370   -3.2876   -0.9461 C   0  0  0  0  0  0  0  0  0  0  0  0
    0.2119   -3.3011   -2.4684 C   0  0  0  0  0  0  0  0  0  0  0  0
   -0.8746   -4.2183   -2.9897 C   0  0  0  0  0  0  0  0  0  0  0  0
   -1.6027   -4.9149   -2.2895 O   0  0  0  0  0  0  0  0  0  0  0  0
   -0.9845   -4.1858   -4.3647 N   0  0  0  0  0  0  0  0  0  0  0  0
   -1.9178   -5.0788   -4.9344 O   0  0  0  0  0  0  0  0  0  0  0  0
    1.7000    2.1617   -0.6360 H   0  0  0  0  0  0  0  0  0  0  0  0
    3.4640    2.0852   -0.5011 H   0  0  0  0  0  0  0  0  0  0  0  0
    2.4276    2.1647    0.9724 H   0  0  0  0  0  0  0  0  0  0  0  0
    4.6314    1.1428    1.2424 H   0  0  0  0  0  0  0  0  0  0  0  0
    7.0539    0.3029    4.9202 H   0  0  0  0  0  0  0  0  0  0  0  0
    4.3675   -3.9454    4.3587 H   0  0  0  0  0  0  0  0  0  0  0  0
    4.1645   -1.7140    7.2566 H   0  0  0  0  0  0  0  0  0  0  0  0
    4.9737   -2.3368    9.4996 H   0  0  0  0  0  0  0  0  0  0  0  0
    5.9848   -4.5682    9.8787 H   0  0  0  0  0  0  0  0  0  0  0  0
    5.3162   -5.5790    5.7464 H   0  0  0  0  0  0  0  0  0  0  0  0
    2.6160   -3.0114    2.9778 H   0  0  0  0  0  0  0  0  0  0  0  0
    2.3544   -2.5121   -0.9343 H   0  0  0  0  0  0  0  0  0  0  0  0
    1.0486   -1.2806   -0.8985 H   0  0  0  0  0  0  0  0  0  0  0  0
   -0.6296   -3.0554   -0.4812 H   0  0  0  0  0  0  0  0  0  0  0  0
    0.6144   -4.2806   -0.5708 H   0  0  0  0  0  0  0  0  0  0  0  0
    1.1635   -3.6144   -2.9130 H   0  0  0  0  0  0  0  0  0  0  0  0
   -0.0142   -2.2897   -2.8269 H   0  0  0  0  0  0  0  0  0  0  0  0
   -0.2420   -3.8552   -4.9714 H   0  0  0  0  0  0  0  0  0  0  0  0
   -2.3223   -5.4950   -4.1431 H   0  0  0  0  0  0  0  0  0  0  0  0
  1  2  1  0  0  0  0
  1 29  1  0  0  0  0
  1 30  1  0  0  0  0
  1 31  1  0  0  0  0
  2  3  1  0  0  0  0
  3  4  1  0  0  0  0
  3 20  2  0  0  0  0
  4  5  2  0  0  0  0
  4 32  1  0  0  0  0
  5  6  1  0  0  0  0
  5 18  1  0  0  0  0
  6  7  2  0  0  0  0
  7  8  1  0  0  0  0
  7 33  1  0  0  0  0
  8  9  2  0  0  0  0
  9 10  1  0  0  0  0
  9 18  1  0  0  0  0
 10 11  1  0  0  0  0
 10 34  1  0  0  0  0
 11 12  1  0  0  0  0
 11 17  2  0  0  0  0
 12 13  2  0  0  0  0
 12 35  1  0  0  0  0
 13 14  1  0  0  0  0
 13 36  1  0  0  0  0
 14 15  2  0  0  0  0
 14 37  1  0  0  0  0
 15 16  1  0  0  0  0
 15 17  1  0  0  0  0
 17 38  1  0  0  0  0
 18 19  2  0  0  0  0
 19 20  1  0  0  0  0
 19 39  1  0  0  0  0
 20 21  1  0  0  0  0
 21 22  1  0  0  0  0
 22 23  1  0  0  0  0
 22 40  1  0  0  0  0
 22 41  1  0  0  0  0
 23 24  1  0  0  0  0
 23 42  1  0  0  0  0
 23 43  1  0  0  0  0
 24 25  1  0  0  0  0
 24 44  1  0  0  0  0
 24 45  1  0  0  0  0
 25 26  2  0  0  0  0
 25 27  1  0  0  0  0
 27 28  1  0  0  0  0
 27 46  1  0  0  0  0
 28 47  1  0  0  0  0
M  END
$$$$
