CHEMBL212304
 OpenBabel04072215363D

 41 43  0  0  0  0  0  0  0  0999 V2000
    1.4528   -1.2607   -0.3184 C   0  0  0  0  0  0  0  0  0  0  0  0
    2.8534   -0.9393   -0.2241 N   0  0  0  0  0  0  0  0  0  0  0  0
    3.3772   -0.4044    0.9341 C   0  0  0  0  0  0  0  0  0  0  0  0
    2.7117   -0.1675    1.9359 O   0  0  0  0  0  0  0  0  0  0  0  0
    4.8421   -0.1472    0.9294 C   0  0  0  0  0  0  0  0  0  0  0  0
    5.5206    0.1974   -0.2441 C   0  0  0  0  0  0  0  0  0  0  0  0
    6.8961    0.4047   -0.2060 C   0  0  0  0  0  0  0  0  0  0  0  0
    7.5874    0.2666    0.9965 C   0  0  0  0  0  0  0  0  0  0  0  0
    8.9137    0.4715    0.9688 F   0  0  0  0  0  0  0  0  0  0  0  0
    6.9322   -0.0470    2.2005 C   0  0  0  0  0  0  0  0  0  0  0  0
    7.5679   -0.3051    3.4153 N   0  0  0  0  0  0  0  0  0  0  0  0
    9.0100   -0.1673    3.5502 C   0  0  0  0  0  0  0  0  0  0  0  0
    9.4826   -0.4216    4.9404 C   0  0  0  0  0  0  0  0  0  0  0  0
    9.6801    0.4931    5.9471 C   0  0  0  0  0  0  0  0  0  0  0  0
   10.1392   -0.0238    7.1304 N   0  0  0  0  0  0  0  0  0  0  0  0
   10.3116   -1.3269    7.0455 C   0  0  0  0  0  0  0  0  0  0  0  0
   10.8157   -2.1285    8.0093 N   0  0  0  0  0  0  0  0  0  0  0  0
   11.6030   -1.7227    9.0898 C   0  0  0  0  0  0  0  0  0  0  0  0
   11.5896   -0.4317    9.6131 C   0  0  0  0  0  0  0  0  0  0  0  0
   12.4755   -0.0813   10.6291 C   0  0  0  0  0  0  0  0  0  0  0  0
   13.3385   -1.0410   11.1279 C   0  0  0  0  0  0  0  0  0  0  0  0
   13.2628   -2.3163   10.5958 C   0  0  0  0  0  0  0  0  0  0  0  0
   12.4190   -2.6733    9.5983 N   0  0  0  0  0  0  0  0  0  0  0  0
    9.8564   -1.9922    5.5136 S   0  0  0  0  0  0  0  0  0  0  0  0
    5.5440   -0.2507    2.1401 C   0  0  0  0  0  0  0  0  0  0  0  0
    1.2670   -1.7353   -1.2843 H   0  0  0  0  0  0  0  0  0  0  0  0
    0.8704   -0.3389   -0.2372 H   0  0  0  0  0  0  0  0  0  0  0  0
    1.1765   -1.9393    0.4930 H   0  0  0  0  0  0  0  0  0  0  0  0
    3.4753   -1.2978   -0.9360 H   0  0  0  0  0  0  0  0  0  0  0  0
    4.9924    0.3241   -1.1843 H   0  0  0  0  0  0  0  0  0  0  0  0
    7.4437    0.6730   -1.1046 H   0  0  0  0  0  0  0  0  0  0  0  0
    7.0377    0.0001    4.2281 H   0  0  0  0  0  0  0  0  0  0  0  0
    9.3143    0.8512    3.2756 H   0  0  0  0  0  0  0  0  0  0  0  0
    9.5174   -0.8588    2.8657 H   0  0  0  0  0  0  0  0  0  0  0  0
    9.5084    1.5592    5.8684 H   0  0  0  0  0  0  0  0  0  0  0  0
   11.0224   -3.0936    7.7864 H   0  0  0  0  0  0  0  0  0  0  0  0
   10.9087    0.3235    9.2425 H   0  0  0  0  0  0  0  0  0  0  0  0
   12.4848    0.9344   11.0109 H   0  0  0  0  0  0  0  0  0  0  0  0
   14.0468   -0.8020   11.9122 H   0  0  0  0  0  0  0  0  0  0  0  0
   13.9050   -3.1098   10.9628 H   0  0  0  0  0  0  0  0  0  0  0  0
    5.0008   -0.5281    3.0429 H   0  0  0  0  0  0  0  0  0  0  0  0
  1  2  1  0  0  0  0
  1 26  1  0  0  0  0
  1 27  1  0  0  0  0
  1 28  1  0  0  0  0
  2  3  1  0  0  0  0
  2 29  1  0  0  0  0
  3  4  2  0  0  0  0
  3  5  1  0  0  0  0
  5  6  1  0  0  0  0
  5 25  2  0  0  0  0
  6  7  2  0  0  0  0
  6 30  1  0  0  0  0
  7  8  1  0  0  0  0
  7 31  1  0  0  0  0
  8  9  1  0  0  0  0
  8 10  2  0  0  0  0
 10 11  1  0  0  0  0
 10 25  1  0  0  0  0
 11 12  1  0  0  0  0
 11 32  1  0  0  0  0
 12 13  1  0  0  0  0
 12 33  1  0  0  0  0
 12 34  1  0  0  0  0
 13 14  2  0  0  0  0
 13 24  1  0  0  0  0
 14 15  1  0  0  0  0
 14 35  1  0  0  0  0
 15 16  2  0  0  0  0
 16 17  1  0  0  0  0
 16 24  1  0  0  0  0
 17 18  1  0  0  0  0
 17 36  1  0  0  0  0
 18 19  1  0  0  0  0
 18 23  2  0  0  0  0
 19 20  2  0  0  0  0
 19 37  1  0  0  0  0
 20 21  1  0  0  0  0
 20 38  1  0  0  0  0
 21 22  2  0  0  0  0
 21 39  1  0  0  0  0
 22 23  1  0  0  0  0
 22 40  1  0  0  0  0
 25 41  1  0  0  0  0
M  END
$$$$
