CHEMBL3966540
 OpenBabel04072215373D

 54 57  0  0  0  0  0  0  0  0999 V2000
    2.6014    0.1990    0.1078 C   0  0  0  0  0  0  0  0  0  0  0  0
    1.1042    0.0648    0.1645 C   0  0  0  0  0  0  0  0  0  0  0  0
    0.3667    1.2684    0.2439 C   0  0  0  0  0  0  0  0  0  0  0  0
   -1.0279    1.2811    0.1871 C   0  0  0  0  0  0  0  0  0  0  0  0
   -1.7847    2.4295    0.2760 O   0  0  0  0  0  0  0  0  0  0  0  0
   -1.3443    3.5577   -0.4105 C   0  0  0  0  0  0  0  0  0  0  0  0
   -1.7945    4.7802    0.0444 C   0  0  0  0  0  0  0  0  0  0  0  0
   -1.3540    5.8797   -0.6617 C   0  0  0  0  0  0  0  0  0  0  0  0
   -1.8026    7.1561   -0.2713 N   0  0  0  0  0  0  0  0  0  0  0  0
   -1.4979    8.3217   -0.9598 C   0  0  0  0  0  0  0  0  0  0  0  0
   -0.8272    8.4230   -1.9746 O   0  0  0  0  0  0  0  0  0  0  0  0
   -2.0700    9.5492   -0.3347 C   0  0  0  0  0  0  0  0  0  0  0  0
   -1.9624   10.8815   -1.0462 C   0  0  0  0  0  0  0  0  0  0  0  0
   -1.1223   10.6137    0.1679 C   0  0  0  0  0  0  0  0  0  0  0  0
   -0.5212    5.7627   -1.7028 N   0  0  0  0  0  0  0  0  0  0  0  0
   -0.1592    4.5343   -2.0718 C   0  0  0  0  0  0  0  0  0  0  0  0
   -0.5477    3.4062   -1.4825 N   0  0  0  0  0  0  0  0  0  0  0  0
   -1.7060    0.0749    0.1164 C   0  0  0  0  0  0  0  0  0  0  0  0
   -0.9899   -1.1292    0.0754 C   0  0  0  0  0  0  0  0  0  0  0  0
    0.4165   -1.1668    0.0912 C   0  0  0  0  0  0  0  0  0  0  0  0
    1.1339   -2.3986    0.0713 N   0  0  0  0  0  0  0  0  0  0  0  0
    0.5808   -3.6618   -0.0824 C   0  0  0  0  0  0  0  0  0  0  0  0
   -0.5855   -3.9017   -0.3646 O   0  0  0  0  0  0  0  0  0  0  0  0
    1.4940   -4.6807    0.1917 N   0  0  0  0  0  0  0  0  0  0  0  0
    1.0926   -6.0446    0.1312 C   0  0  0  0  0  0  0  0  0  0  0  0
    1.4355   -6.8946    1.1853 C   0  0  0  0  0  0  0  0  0  0  0  0
    0.9704   -8.2112    1.1921 C   0  0  0  0  0  0  0  0  0  0  0  0
    1.3048   -9.2258    2.5425 Cl  0  0  0  0  0  0  0  0  0  0  0  0
    0.2194   -8.7127    0.1297 C   0  0  0  0  0  0  0  0  0  0  0  0
   -0.0832   -7.8916   -0.9651 C   0  0  0  0  0  0  0  0  0  0  0  0
   -0.8535   -8.4317   -2.1460 C   0  0  0  0  0  0  0  0  0  0  0  0
   -1.1713   -9.7523   -2.0219 F   0  0  0  0  0  0  0  0  0  0  0  0
   -2.0314   -7.7860   -2.3566 F   0  0  0  0  0  0  0  0  0  0  0  0
   -0.1525   -8.3324   -3.3093 F   0  0  0  0  0  0  0  0  0  0  0  0
    0.3470   -6.5515   -0.9441 C   0  0  0  0  0  0  0  0  0  0  0  0
    2.9130    1.2361    0.2901 H   0  0  0  0  0  0  0  0  0  0  0  0
    2.9655   -0.0743   -0.8875 H   0  0  0  0  0  0  0  0  0  0  0  0
    3.0849   -0.4157    0.8706 H   0  0  0  0  0  0  0  0  0  0  0  0
    0.8974    2.2142    0.3276 H   0  0  0  0  0  0  0  0  0  0  0  0
   -2.4553    4.8482    0.8964 H   0  0  0  0  0  0  0  0  0  0  0  0
   -2.3874    7.2215    0.5424 H   0  0  0  0  0  0  0  0  0  0  0  0
   -2.9863    9.3984    0.2264 H   0  0  0  0  0  0  0  0  0  0  0  0
   -2.7836   11.5813   -0.9555 H   0  0  0  0  0  0  0  0  0  0  0  0
   -1.4635   10.9156   -2.0113 H   0  0  0  0  0  0  0  0  0  0  0  0
   -1.3729   11.1340    1.0825 H   0  0  0  0  0  0  0  0  0  0  0  0
   -0.0571   10.4693    0.0119 H   0  0  0  0  0  0  0  0  0  0  0  0
    0.5126    4.4527   -2.9180 H   0  0  0  0  0  0  0  0  0  0  0  0
   -2.7914    0.0499    0.0833 H   0  0  0  0  0  0  0  0  0  0  0  0
   -1.5875   -2.0328    0.0280 H   0  0  0  0  0  0  0  0  0  0  0  0
    2.1410   -2.3442    0.0552 H   0  0  0  0  0  0  0  0  0  0  0  0
    2.1667   -4.4452    0.9076 H   0  0  0  0  0  0  0  0  0  0  0  0
    2.0003   -6.5257    2.0359 H   0  0  0  0  0  0  0  0  0  0  0  0
   -0.1323   -9.7438    0.1538 H   0  0  0  0  0  0  0  0  0  0  0  0
    0.0946   -5.9021   -1.7833 H   0  0  0  0  0  0  0  0  0  0  0  0
  1  2  1  0  0  0  0
  1 36  1  0  0  0  0
  1 37  1  0  0  0  0
  1 38  1  0  0  0  0
  2  3  1  0  0  0  0
  2 20  2  0  0  0  0
  3  4  2  0  0  0  0
  3 39  1  0  0  0  0
  4  5  1  0  0  0  0
  4 18  1  0  0  0  0
  5  6  1  0  0  0  0
  6  7  1  0  0  0  0
  6 17  2  0  0  0  0
  7  8  2  0  0  0  0
  7 40  1  0  0  0  0
  8  9  1  0  0  0  0
  8 15  1  0  0  0  0
  9 10  1  0  0  0  0
  9 41  1  0  0  0  0
 10 11  2  0  0  0  0
 10 12  1  0  0  0  0
 12 13  1  0  0  0  0
 12 14  1  0  0  0  0
 12 42  1  0  0  0  0
 13 14  1  0  0  0  0
 13 43  1  0  0  0  0
 13 44  1  0  0  0  0
 14 45  1  0  0  0  0
 14 46  1  0  0  0  0
 15 16  2  0  0  0  0
 16 17  1  0  0  0  0
 16 47  1  0  0  0  0
 18 19  2  0  0  0  0
 18 48  1  0  0  0  0
 19 20  1  0  0  0  0
 19 49  1  0  0  0  0
 20 21  1  0  0  0  0
 21 22  1  0  0  0  0
 21 50  1  0  0  0  0
 22 23  2  0  0  0  0
 22 24  1  0  0  0  0
 24 25  1  0  0  0  0
 24 51  1  0  0  0  0
 25 26  1  0  0  0  0
 25 35  2  0  0  0  0
 26 27  2  0  0  0  0
 26 52  1  0  0  0  0
 27 28  1  0  0  0  0
 27 29  1  0  0  0  0
 29 30  2  0  0  0  0
 29 53  1  0  0  0  0
 30 31  1  0  0  0  0
 30 35  1  0  0  0  0
 31 32  1  0  0  0  0
 31 33  1  0  0  0  0
 31 34  1  0  0  0  0
 35 54  1  0  0  0  0
M  END
$$$$
