CHEMBL191372
 OpenBabel04072215363D

 74 76  0  0  1  0  0  0  0  0999 V2000
    1.4434   -0.5525   -1.7916 C   0  0  0  0  0  0  0  0  0  0  0  0
    2.6571   -0.2217   -1.1273 O   0  0  0  0  0  0  0  0  0  0  0  0
    3.1581   -1.1563   -0.2622 C   0  0  0  0  0  0  0  0  0  0  0  0
    2.5531   -2.3749    0.0577 C   0  0  0  0  0  0  0  0  0  0  0  0
    3.1782   -3.2638    0.9329 C   0  0  0  0  0  0  0  0  0  0  0  0
    2.7127   -4.4973    1.2932 O   0  0  0  0  0  0  0  0  0  0  0  0
    1.5229   -4.9465    0.6577 C   0  0  0  0  0  0  0  0  0  0  0  0
    4.4044   -2.9188    1.5033 C   0  0  0  0  0  0  0  0  0  0  0  0
    5.0265   -1.6965    1.2037 C   0  0  0  0  0  0  0  0  0  0  0  0
    6.4135   -1.3598    1.7461 C   0  0  3  0  0  0  0  0  0  0  0  0
    7.4694   -1.8876    0.7653 C   0  0  0  0  0  0  0  0  0  0  0  0
    8.3886   -2.9319    1.3177 C   0  0  0  0  0  0  0  0  0  0  0  0
    9.3392   -3.5403    0.5146 C   0  0  0  0  0  0  0  0  0  0  0  0
   10.2359   -4.4521    0.9543 N   0  0  0  0  0  0  0  0  0  0  0  0
   10.1986   -4.8016    2.2530 C   0  0  0  0  0  0  0  0  0  0  0  0
   11.1891   -5.6903    2.7419 N   0  0  0  0  0  0  0  0  0  0  0  0
   12.6018   -5.4624    2.4061 C   0  0  0  0  0  0  0  0  0  0  0  0
   13.0235   -4.1146    1.8040 C   0  0  0  0  0  0  0  0  0  0  0  0
   14.5374   -3.9663    1.6161 C   0  0  0  0  0  0  0  0  0  0  0  0
   15.1414   -5.0080    0.6801 C   0  0  0  0  0  0  0  0  0  0  0  0
   16.5114   -4.7078    0.4466 O   0  0  0  0  0  0  0  0  0  0  0  0
   10.9141   -6.9190    3.3383 C   0  0  0  0  0  0  0  0  0  0  0  0
    9.4951   -7.4012    3.5287 C   0  0  0  0  0  0  0  0  0  0  0  0
   11.8248   -7.6817    3.6887 O   0  0  0  0  0  0  0  0  0  0  0  0
    9.2723   -4.2453    3.1277 C   0  0  0  0  0  0  0  0  0  0  0  0
    8.3542   -3.3042    2.6516 C   0  0  0  0  0  0  0  0  0  0  0  0
    7.4460   -2.7577    3.5600 N   0  0  0  0  0  0  0  0  0  0  0  0
    6.5917   -1.8652    3.1761 C   0  0  0  0  0  0  0  0  0  0  0  0
    5.6879   -1.3401    4.0873 N   0  0  0  0  0  0  0  0  0  0  0  0
    5.2657   -1.8572    5.2920 C   0  0  0  0  0  0  0  0  0  0  0  0
    4.5122   -1.1929    6.0049 O   0  0  0  0  0  0  0  0  0  0  0  0
    5.6683   -3.1338    5.5486 N   0  0  0  0  0  0  0  0  0  0  0  0
    5.3185   -3.9433    6.7152 C   0  0  0  0  0  0  0  0  0  0  0  0
    3.8013   -4.1786    6.7852 C   0  0  0  0  0  0  0  0  0  0  0  0
    6.0123   -5.3115    6.5761 C   0  0  0  0  0  0  0  0  0  0  0  0
    5.8125   -3.2761    8.0068 C   0  0  0  0  0  0  0  0  0  0  0  0
    4.3879   -0.8214    0.3126 C   0  0  0  0  0  0  0  0  0  0  0  0
    1.1690    0.2892   -2.4336 H   0  0  0  0  0  0  0  0  0  0  0  0
    0.6285   -0.7017   -1.0742 H   0  0  0  0  0  0  0  0  0  0  0  0
    1.5724   -1.4330   -2.4310 H   0  0  0  0  0  0  0  0  0  0  0  0
    1.6008   -2.6361   -0.3799 H   0  0  0  0  0  0  0  0  0  0  0  0
    1.3762   -5.9973    0.9224 H   0  0  0  0  0  0  0  0  0  0  0  0
    1.6017   -4.8931   -0.4339 H   0  0  0  0  0  0  0  0  0  0  0  0
    0.6584   -4.3804    1.0194 H   0  0  0  0  0  0  0  0  0  0  0  0
    4.8728   -3.6326    2.1786 H   0  0  0  0  0  0  0  0  0  0  0  0
    6.4897   -0.2613    1.7984 H   0  0  0  0  0  0  0  0  0  0  0  0
    8.0841   -1.0358    0.4285 H   0  0  0  0  0  0  0  0  0  0  0  0
    7.0003   -2.2929   -0.1387 H   0  0  0  0  0  0  0  0  0  0  0  0
    9.4248   -3.2968   -0.5427 H   0  0  0  0  0  0  0  0  0  0  0  0
   12.9132   -6.2852    1.7531 H   0  0  0  0  0  0  0  0  0  0  0  0
   13.1568   -5.5865    3.3475 H   0  0  0  0  0  0  0  0  0  0  0  0
   12.6703   -3.2985    2.4456 H   0  0  0  0  0  0  0  0  0  0  0  0
   12.5658   -3.9781    0.8210 H   0  0  0  0  0  0  0  0  0  0  0  0
   15.0522   -3.9983    2.5839 H   0  0  0  0  0  0  0  0  0  0  0  0
   14.7402   -2.9666    1.2097 H   0  0  0  0  0  0  0  0  0  0  0  0
   14.6222   -5.0303   -0.2835 H   0  0  0  0  0  0  0  0  0  0  0  0
   15.0965   -6.0083    1.1195 H   0  0  0  0  0  0  0  0  0  0  0  0
   16.5487   -3.8645   -0.0361 H   0  0  0  0  0  0  0  0  0  0  0  0
    8.7190   -6.7170    3.1982 H   0  0  0  0  0  0  0  0  0  0  0  0
    9.3467   -7.6115    4.5926 H   0  0  0  0  0  0  0  0  0  0  0  0
    9.3700   -8.3330    2.9666 H   0  0  0  0  0  0  0  0  0  0  0  0
    9.2805   -4.4948    4.1846 H   0  0  0  0  0  0  0  0  0  0  0  0
    5.1831   -0.4977    3.8458 H   0  0  0  0  0  0  0  0  0  0  0  0
    6.4173   -3.4607    4.9416 H   0  0  0  0  0  0  0  0  0  0  0  0
    3.4505   -4.7444    5.9133 H   0  0  0  0  0  0  0  0  0  0  0  0
    3.2387   -3.2410    6.8103 H   0  0  0  0  0  0  0  0  0  0  0  0
    3.5319   -4.7471    7.6824 H   0  0  0  0  0  0  0  0  0  0  0  0
    5.7205   -5.8117    5.6444 H   0  0  0  0  0  0  0  0  0  0  0  0
    5.7575   -5.9760    7.4092 H   0  0  0  0  0  0  0  0  0  0  0  0
    7.1033   -5.2021    6.5541 H   0  0  0  0  0  0  0  0  0  0  0  0
    5.3508   -2.2962    8.1624 H   0  0  0  0  0  0  0  0  0  0  0  0
    6.8978   -3.1253    7.9785 H   0  0  0  0  0  0  0  0  0  0  0  0
    5.5806   -3.8920    8.8819 H   0  0  0  0  0  0  0  0  0  0  0  0
    4.8527    0.1231    0.0378 H   0  0  0  0  0  0  0  0  0  0  0  0
  1  2  1  0  0  0  0
  1 38  1  0  0  0  0
  1 39  1  0  0  0  0
  1 40  1  0  0  0  0
  2  3  1  0  0  0  0
  3  4  1  0  0  0  0
  3 37  2  0  0  0  0
  4  5  2  0  0  0  0
  4 41  1  0  0  0  0
  5  6  1  0  0  0  0
  5  8  1  0  0  0  0
  6  7  1  0  0  0  0
  7 42  1  0  0  0  0
  7 43  1  0  0  0  0
  7 44  1  0  0  0  0
  8  9  2  0  0  0  0
  8 45  1  0  0  0  0
  9 10  1  0  0  0  0
  9 37  1  0  0  0  0
 10 11  1  0  0  0  0
 10 28  1  0  0  0  0
 10 46  1  0  0  0  0
 11 12  1  0  0  0  0
 11 47  1  0  0  0  0
 11 48  1  0  0  0  0
 12 13  1  0  0  0  0
 12 26  2  0  0  0  0
 13 14  2  0  0  0  0
 13 49  1  0  0  0  0
 14 15  1  0  0  0  0
 15 16  1  0  0  0  0
 15 25  2  0  0  0  0
 16 17  1  0  0  0  0
 16 22  1  0  0  0  0
 17 18  1  0  0  0  0
 17 50  1  0  0  0  0
 17 51  1  0  0  0  0
 18 19  1  0  0  0  0
 18 52  1  0  0  0  0
 18 53  1  0  0  0  0
 19 20  1  0  0  0  0
 19 54  1  0  0  0  0
 19 55  1  0  0  0  0
 20 21  1  0  0  0  0
 20 56  1  0  0  0  0
 20 57  1  0  0  0  0
 21 58  1  0  0  0  0
 22 23  1  0  0  0  0
 22 24  2  0  0  0  0
 23 59  1  0  0  0  0
 23 60  1  0  0  0  0
 23 61  1  0  0  0  0
 25 26  1  0  0  0  0
 25 62  1  0  0  0  0
 26 27  1  0  0  0  0
 27 28  2  0  0  0  0
 28 29  1  0  0  0  0
 29 30  1  0  0  0  0
 29 63  1  0  0  0  0
 30 31  2  0  0  0  0
 30 32  1  0  0  0  0
 32 33  1  0  0  0  0
 32 64  1  0  0  0  0
 33 34  1  0  0  0  0
 33 35  1  0  0  0  0
 33 36  1  0  0  0  0
 34 65  1  0  0  0  0
 34 66  1  0  0  0  0
 34 67  1  0  0  0  0
 35 68  1  0  0  0  0
 35 69  1  0  0  0  0
 35 70  1  0  0  0  0
 36 71  1  0  0  0  0
 36 72  1  0  0  0  0
 36 73  1  0  0  0  0
 37 74  1  0  0  0  0
M  END
$$$$
