CHEMBL373575
 OpenBabel04072215373D

 64 69  0  0  0  0  0  0  0  0999 V2000
    1.1076    1.3225   -1.0567 C   0  0  0  0  0  0  0  0  0  0  0  0
    2.2463    0.3109   -1.0756 C   0  0  0  0  0  0  0  0  0  0  0  0
    3.5703    0.9854   -1.4025 C   0  0  0  0  0  0  0  0  0  0  0  0
    4.6827    0.0733   -1.4055 O   0  0  0  0  0  0  0  0  0  0  0  0
    5.0743   -0.2729   -2.6275 C   0  0  0  0  0  0  0  0  0  0  0  0
    4.3454   -0.2725   -3.6215 O   0  0  0  0  0  0  0  0  0  0  0  0
    6.4033   -0.7457   -2.5915 N   0  0  0  0  0  0  0  0  0  0  0  0
    7.2216   -0.9137   -3.7008 C   0  0  0  0  0  0  0  0  0  0  0  0
    6.8599   -0.2665   -4.8641 C   0  0  0  0  0  0  0  0  0  0  0  0
    7.5213   -0.5467   -6.0283 C   0  0  0  0  0  0  0  0  0  0  0  0
    8.5411   -1.4909   -5.9894 C   0  0  0  0  0  0  0  0  0  0  0  0
    9.1000   -2.0648   -4.8245 C   0  0  0  0  0  0  0  0  0  0  0  0
    8.4209   -1.7245   -3.6238 C   0  0  0  0  0  0  0  0  0  0  0  0
   10.2159   -2.7943   -5.3306 C   0  0  0  0  0  0  0  0  0  0  0  0
   11.3087   -3.4400   -4.7242 C   0  0  0  0  0  0  0  0  0  0  0  0
   12.4787   -4.0098   -5.5949 C   0  0  0  0  0  0  0  0  0  0  0  0
   12.4581   -4.0972   -7.1222 C   0  0  0  0  0  0  0  0  0  0  0  0
   11.0726   -3.7421   -7.4661 C   0  0  0  0  0  0  0  0  0  0  0  0
   10.1446   -2.9911   -6.6737 C   0  0  0  0  0  0  0  0  0  0  0  0
    9.1895   -2.0183   -7.0691 N   0  0  0  0  0  0  0  0  0  0  0  0
    9.1757   -1.4122   -8.3856 C   0  0  0  0  0  0  0  0  0  0  0  0
    8.2328   -0.4467   -9.0961 C   0  0  0  0  0  0  0  0  0  0  0  0
    8.6555   -0.3386  -10.5710 C   0  0  0  0  0  0  0  0  0  0  0  0
   10.9247   -3.3942   -8.9140 C   0  0  0  0  0  0  0  0  0  0  0  0
   11.6480   -2.3272   -9.7280 C   0  0  0  0  0  0  0  0  0  0  0  0
   13.0872   -2.3277   -9.2019 C   0  0  0  0  0  0  0  0  0  0  0  0
   13.9743   -1.8781  -10.0850 N   0  0  0  0  0  0  0  0  0  0  0  0
   14.0443   -2.9961  -10.8195 N   0  0  0  0  0  0  0  0  0  0  0  0
   13.8663   -2.7592  -12.2730 C   0  0  0  0  0  0  0  0  0  0  0  0
   13.8248   -4.1091   -9.8254 C   0  0  0  0  0  0  0  0  0  0  0  0
   13.5255   -3.5331   -8.4504 C   0  0  0  0  0  0  0  0  0  0  0  0
   13.2128   -4.8110   -4.5553 C   0  0  0  0  0  0  0  0  0  0  0  0
   14.0838   -5.6696   -4.6148 O   0  0  0  0  0  0  0  0  0  0  0  0
   12.6045   -4.5183   -3.3100 N   0  0  0  0  0  0  0  0  0  0  0  0
   11.3709   -3.7824   -3.3133 C   0  0  0  0  0  0  0  0  0  0  0  0
    0.1675    0.8411   -0.7722 H   0  0  0  0  0  0  0  0  0  0  0  0
    0.9691    1.7735   -2.0453 H   0  0  0  0  0  0  0  0  0  0  0  0
    1.3045    2.1292   -0.3422 H   0  0  0  0  0  0  0  0  0  0  0  0
    2.0280   -0.4777   -1.8021 H   0  0  0  0  0  0  0  0  0  0  0  0
    2.3213   -0.1869   -0.1002 H   0  0  0  0  0  0  0  0  0  0  0  0
    3.8037    1.7386   -0.6450 H   0  0  0  0  0  0  0  0  0  0  0  0
    3.5021    1.5385   -2.3609 H   0  0  0  0  0  0  0  0  0  0  0  0
    6.6616   -0.9816   -1.6375 H   0  0  0  0  0  0  0  0  0  0  0  0
    6.0192    0.4161   -4.9422 H   0  0  0  0  0  0  0  0  0  0  0  0
    7.1667   -0.0855   -6.9368 H   0  0  0  0  0  0  0  0  0  0  0  0
    8.7416   -2.1412   -2.6822 H   0  0  0  0  0  0  0  0  0  0  0  0
    9.1494   -2.2693   -9.0563 H   0  0  0  0  0  0  0  0  0  0  0  0
   10.0984   -0.8303   -8.3491 H   0  0  0  0  0  0  0  0  0  0  0  0
    8.3117    0.5510   -8.6509 H   0  0  0  0  0  0  0  0  0  0  0  0
    7.2020   -0.8003   -9.0369 H   0  0  0  0  0  0  0  0  0  0  0  0
    9.6823    0.0331  -10.6719 H   0  0  0  0  0  0  0  0  0  0  0  0
    7.9994    0.3477  -11.1112 H   0  0  0  0  0  0  0  0  0  0  0  0
    8.6125   -1.3126  -11.0726 H   0  0  0  0  0  0  0  0  0  0  0  0
   11.2983   -4.3521   -9.2942 H   0  0  0  0  0  0  0  0  0  0  0  0
   11.2668   -2.5798   -8.2794 H   0  0  0  0  0  0  0  0  0  0  0  0
   11.3434   -1.2949   -9.5612 H   0  0  0  0  0  0  0  0  0  0  0  0
   11.4065   -2.5095  -10.7733 H   0  0  0  0  0  0  0  0  0  0  0  0
   13.6321   -1.6806  -12.4317 H   0  0  0  0  0  0  0  0  0  0  0  0
   13.0147   -3.2838  -12.7224 H   0  0  0  0  0  0  0  0  0  0  0  0
   14.7948   -2.9190  -12.8275 H   0  0  0  0  0  0  0  0  0  0  0  0
   13.7671   -5.0918  -10.2811 H   0  0  0  0  0  0  0  0  0  0  0  0
   12.8356   -5.0698   -2.4867 H   0  0  0  0  0  0  0  0  0  0  0  0
   11.3833   -2.9421   -2.6145 H   0  0  0  0  0  0  0  0  0  0  0  0
   10.5404   -4.4522   -3.0653 H   0  0  0  0  0  0  0  0  0  0  0  0
  1  2  1  0  0  0  0
  1 36  1  0  0  0  0
  1 37  1  0  0  0  0
  1 38  1  0  0  0  0
  2  3  1  0  0  0  0
  2 39  1  0  0  0  0
  2 40  1  0  0  0  0
  3  4  1  0  0  0  0
  3 41  1  0  0  0  0
  3 42  1  0  0  0  0
  4  5  1  0  0  0  0
  5  6  2  0  0  0  0
  5  7  1  0  0  0  0
  7  8  1  0  0  0  0
  7 43  1  0  0  0  0
  8  9  1  0  0  0  0
  8 13  2  0  0  0  0
  9 10  2  0  0  0  0
  9 44  1  0  0  0  0
 10 11  1  0  0  0  0
 10 45  1  0  0  0  0
 11 12  2  0  0  0  0
 11 20  1  0  0  0  0
 12 13  1  0  0  0  0
 12 14  1  0  0  0  0
 13 46  1  0  0  0  0
 14 15  1  0  0  0  0
 14 19  2  0  0  0  0
 15 16  2  0  0  0  0
 15 35  1  0  0  0  0
 16 17  1  0  0  0  0
 16 32  1  0  0  0  0
 17 18  2  0  0  0  0
 17 31  1  0  0  0  0
 18 19  1  0  0  0  0
 18 24  1  0  0  0  0
 19 20  1  0  0  0  0
 20 21  1  0  0  0  0
 21 22  1  0  0  0  0
 21 47  1  0  0  0  0
 21 48  1  0  0  0  0
 22 23  1  0  0  0  0
 22 49  1  0  0  0  0
 22 50  1  0  0  0  0
 23 51  1  0  0  0  0
 23 52  1  0  0  0  0
 23 53  1  0  0  0  0
 24 25  1  0  0  0  0
 24 54  1  0  0  0  0
 24 55  1  0  0  0  0
 25 26  1  0  0  0  0
 25 56  1  0  0  0  0
 25 57  1  0  0  0  0
 26 27  2  0  0  0  0
 26 31  1  0  0  0  0
 27 28  1  0  0  0  0
 28 29  1  0  0  0  0
 28 30  1  0  0  0  0
 29 58  1  0  0  0  0
 29 59  1  0  0  0  0
 29 60  1  0  0  0  0
 30 31  2  0  0  0  0
 30 61  1  0  0  0  0
 32 33  2  0  0  0  0
 32 34  1  0  0  0  0
 34 35  1  0  0  0  0
 34 62  1  0  0  0  0
 35 63  1  0  0  0  0
 35 64  1  0  0  0  0
M  END
$$$$
