CHEMBL3753904
 OpenBabel04072215373D

 43 45  0  0  0  0  0  0  0  0999 V2000
    2.5515    1.5938    0.2155 C   0  0  0  0  0  0  0  0  0  0  0  0
    2.3672    0.1941    0.0094 O   0  0  0  0  0  0  0  0  0  0  0  0
    3.0715   -0.5632    0.9192 C   0  0  0  0  0  0  0  0  0  0  0  0
    2.9854   -1.9358    0.8106 C   0  0  0  0  0  0  0  0  0  0  0  0
    3.7493   -2.7151    1.6844 C   0  0  0  0  0  0  0  0  0  0  0  0
    4.6046   -2.1147    2.6220 C   0  0  0  0  0  0  0  0  0  0  0  0
    5.5671   -2.8767    3.4473 C   0  0  0  0  0  0  0  0  0  0  0  0
    6.1374   -4.0573    2.9510 C   0  0  0  0  0  0  0  0  0  0  0  0
    7.1596   -4.7617    3.6003 C   0  0  0  0  0  0  0  0  0  0  0  0
    7.7400   -5.9398    3.0522 N   0  0  0  0  0  0  0  0  0  0  0  0
    7.3143   -6.5610    1.8855 C   0  0  0  0  0  0  0  0  0  0  0  0
    6.3425   -6.2045    1.2288 O   0  0  0  0  0  0  0  0  0  0  0  0
    8.0897   -7.6476    1.5199 N   0  0  0  0  0  0  0  0  0  0  0  0
    7.8835   -8.3462    0.2962 C   0  0  0  0  0  0  0  0  0  0  0  0
    7.2902   -7.7503   -0.8211 C   0  0  0  0  0  0  0  0  0  0  0  0
    7.0262   -8.5222   -1.9377 C   0  0  0  0  0  0  0  0  0  0  0  0
    7.3501   -9.8257   -2.0317 N   0  0  0  0  0  0  0  0  0  0  0  0
    7.9679  -10.3701   -0.9619 C   0  0  0  0  0  0  0  0  0  0  0  0
    8.2641   -9.6808    0.2073 C   0  0  0  0  0  0  0  0  0  0  0  0
    7.6503   -4.2442    4.8005 C   0  0  0  0  0  0  0  0  0  0  0  0
    7.1069   -3.0605    5.3396 C   0  0  0  0  0  0  0  0  0  0  0  0
    7.6643   -2.4179    6.5866 C   0  0  0  0  0  0  0  0  0  0  0  0
    8.7289   -3.0804    7.1144 F   0  0  0  0  0  0  0  0  0  0  0  0
    8.0938   -1.1456    6.3554 F   0  0  0  0  0  0  0  0  0  0  0  0
    6.7435   -2.3237    7.5838 F   0  0  0  0  0  0  0  0  0  0  0  0
    6.0495   -2.4123    4.6739 C   0  0  0  0  0  0  0  0  0  0  0  0
    4.5830   -0.7203    2.6475 C   0  0  0  0  0  0  0  0  0  0  0  0
    3.8369    0.0627    1.8392 N   0  0  0  0  0  0  0  0  0  0  0  0
    2.0577    2.1251   -0.6019 H   0  0  0  0  0  0  0  0  0  0  0  0
    3.6117    1.8751    0.1935 H   0  0  0  0  0  0  0  0  0  0  0  0
    2.0850    1.9073    1.1564 H   0  0  0  0  0  0  0  0  0  0  0  0
    2.3624   -2.3919    0.0492 H   0  0  0  0  0  0  0  0  0  0  0  0
    3.6872   -3.7995    1.5851 H   0  0  0  0  0  0  0  0  0  0  0  0
    5.7886   -4.3793    1.9789 H   0  0  0  0  0  0  0  0  0  0  0  0
    8.5312   -6.3358    3.5368 H   0  0  0  0  0  0  0  0  0  0  0  0
    8.5590   -8.1465    2.2606 H   0  0  0  0  0  0  0  0  0  0  0  0
    7.0133   -6.7024   -0.8482 H   0  0  0  0  0  0  0  0  0  0  0  0
    6.5254   -8.0943   -2.8021 H   0  0  0  0  0  0  0  0  0  0  0  0
    8.2160  -11.4219   -1.0695 H   0  0  0  0  0  0  0  0  0  0  0  0
    8.7416  -10.2014    1.0279 H   0  0  0  0  0  0  0  0  0  0  0  0
    8.4681   -4.7372    5.3219 H   0  0  0  0  0  0  0  0  0  0  0  0
    5.6370   -1.5051    5.1160 H   0  0  0  0  0  0  0  0  0  0  0  0
    5.2316   -0.1549    3.3098 H   0  0  0  0  0  0  0  0  0  0  0  0
  1  2  1  0  0  0  0
  1 29  1  0  0  0  0
  1 30  1  0  0  0  0
  1 31  1  0  0  0  0
  2  3  1  0  0  0  0
  3  4  1  0  0  0  0
  3 28  2  0  0  0  0
  4  5  2  0  0  0  0
  4 32  1  0  0  0  0
  5  6  1  0  0  0  0
  5 33  1  0  0  0  0
  6  7  1  0  0  0  0
  6 27  2  0  0  0  0
  7  8  1  0  0  0  0
  7 26  2  0  0  0  0
  8  9  2  0  0  0  0
  8 34  1  0  0  0  0
  9 10  1  0  0  0  0
  9 20  1  0  0  0  0
 10 11  1  0  0  0  0
 10 35  1  0  0  0  0
 11 12  2  0  0  0  0
 11 13  1  0  0  0  0
 13 14  1  0  0  0  0
 13 36  1  0  0  0  0
 14 15  1  0  0  0  0
 14 19  2  0  0  0  0
 15 16  2  0  0  0  0
 15 37  1  0  0  0  0
 16 17  1  0  0  0  0
 16 38  1  0  0  0  0
 17 18  2  0  0  0  0
 18 19  1  0  0  0  0
 18 39  1  0  0  0  0
 19 40  1  0  0  0  0
 20 21  2  0  0  0  0
 20 41  1  0  0  0  0
 21 22  1  0  0  0  0
 21 26  1  0  0  0  0
 22 23  1  0  0  0  0
 22 24  1  0  0  0  0
 22 25  1  0  0  0  0
 26 42  1  0  0  0  0
 27 28  1  0  0  0  0
 27 43  1  0  0  0  0
M  END
$$$$
