CHEMBL190389
 OpenBabel04072215363D

 74 76  0  0  0  0  0  0  0  0999 V2000
    2.4817   -0.3315    1.3701 C   0  0  0  0  0  0  0  0  0  0  0  0
    2.5888    1.1358    1.7461 C   0  0  0  0  0  0  0  0  0  0  0  0
    3.2692    1.9309    0.7439 N   0  0  0  0  0  0  0  0  0  0  0  0
    4.6487    1.9710    0.6692 C   0  0  0  0  0  0  0  0  0  0  0  0
    5.3854    1.3095    1.3884 O   0  0  0  0  0  0  0  0  0  0  0  0
    5.0560    2.9027   -0.2668 N   0  0  0  0  0  0  0  0  0  0  0  0
    6.4360    3.1371   -0.4168 C   0  0  0  0  0  0  0  0  0  0  0  0
    6.8607    4.2614    0.2137 N   0  0  0  0  0  0  0  0  0  0  0  0
    8.1687    4.5742    0.1715 C   0  0  0  0  0  0  0  0  0  0  0  0
    8.6455    5.6749    0.8532 C   0  0  0  0  0  0  0  0  0  0  0  0
    9.9812    6.0576    0.7472 C   0  0  0  0  0  0  0  0  0  0  0  0
   10.4137    7.1803    1.4685 N   0  0  0  0  0  0  0  0  0  0  0  0
   11.6326    7.8013    0.9551 C   0  0  0  0  0  0  0  0  0  0  0  0
   12.0216    8.9771    1.8578 C   0  0  0  0  0  0  0  0  0  0  0  0
   12.4328    8.4948    3.2523 C   0  0  0  0  0  0  0  0  0  0  0  0
   12.8080    9.6279    4.2168 C   0  0  0  0  0  0  0  0  0  0  0  0
   11.7523   10.6143    4.5317 N   0  0  0  0  0  0  0  0  0  0  0  0
   10.5019   10.0076    5.0180 C   0  0  0  0  0  0  0  0  0  0  0  0
   10.5623    9.3118    6.3754 C   0  0  0  0  0  0  0  0  0  0  0  0
   12.3088   11.6341    5.4423 C   0  0  0  0  0  0  0  0  0  0  0  0
   11.3581   12.7754    5.7883 C   0  0  0  0  0  0  0  0  0  0  0  0
   10.8661    5.3259    0.0435 N   0  0  0  0  0  0  0  0  0  0  0  0
   10.4105    4.2256   -0.5785 C   0  0  0  0  0  0  0  0  0  0  0  0
    9.0797    3.8121   -0.5634 C   0  0  0  0  0  0  0  0  0  0  0  0
    8.6097    2.6944   -1.2624 C   0  0  0  0  0  0  0  0  0  0  0  0
    7.2553    2.3141   -1.2177 C   0  0  0  0  0  0  0  0  0  0  0  0
    6.7843    1.1903   -2.0732 C   0  0  0  0  0  0  0  0  0  0  0  0
    7.6158    0.0868   -2.3586 C   0  0  0  0  0  0  0  0  0  0  0  0
    7.2166   -0.9283   -3.2345 C   0  0  0  0  0  0  0  0  0  0  0  0
    7.9751   -2.0049   -3.6102 O   0  0  0  0  0  0  0  0  0  0  0  0
    9.3134   -2.0539   -3.1295 C   0  0  0  0  0  0  0  0  0  0  0  0
    5.9431   -0.8850   -3.8058 C   0  0  0  0  0  0  0  0  0  0  0  0
    5.0888    0.1768   -3.5307 C   0  0  0  0  0  0  0  0  0  0  0  0
    3.8163    0.3419   -4.0054 O   0  0  0  0  0  0  0  0  0  0  0  0
    3.3008   -0.6933   -4.8306 C   0  0  0  0  0  0  0  0  0  0  0  0
    5.5273    1.2116   -2.7003 C   0  0  0  0  0  0  0  0  0  0  0  0
    1.9581   -0.8845    2.1589 H   0  0  0  0  0  0  0  0  0  0  0  0
    3.4683   -0.7843    1.2365 H   0  0  0  0  0  0  0  0  0  0  0  0
    1.9227   -0.4586    0.4387 H   0  0  0  0  0  0  0  0  0  0  0  0
    3.1211    1.2380    2.6982 H   0  0  0  0  0  0  0  0  0  0  0  0
    1.5881    1.5621    1.8690 H   0  0  0  0  0  0  0  0  0  0  0  0
    2.7828    2.1154   -0.1226 H   0  0  0  0  0  0  0  0  0  0  0  0
    4.5789    3.7714   -0.0665 H   0  0  0  0  0  0  0  0  0  0  0  0
    7.9589    6.2532    1.4633 H   0  0  0  0  0  0  0  0  0  0  0  0
    9.6618    7.8602    1.5411 H   0  0  0  0  0  0  0  0  0  0  0  0
   11.4479    8.1812   -0.0581 H   0  0  0  0  0  0  0  0  0  0  0  0
   12.4668    7.0905    0.9064 H   0  0  0  0  0  0  0  0  0  0  0  0
   11.1850    9.6825    1.9243 H   0  0  0  0  0  0  0  0  0  0  0  0
   12.8600    9.5146    1.3980 H   0  0  0  0  0  0  0  0  0  0  0  0
   13.3051    7.8368    3.1478 H   0  0  0  0  0  0  0  0  0  0  0  0
   11.6473    7.8727    3.6945 H   0  0  0  0  0  0  0  0  0  0  0  0
   13.6585   10.1610    3.7716 H   0  0  0  0  0  0  0  0  0  0  0  0
   13.1854    9.1695    5.1394 H   0  0  0  0  0  0  0  0  0  0  0  0
   10.1231    9.2993    4.2730 H   0  0  0  0  0  0  0  0  0  0  0  0
    9.7179   10.7743    5.0542 H   0  0  0  0  0  0  0  0  0  0  0  0
   11.4511    8.6853    6.4870 H   0  0  0  0  0  0  0  0  0  0  0  0
    9.6894    8.6616    6.4965 H   0  0  0  0  0  0  0  0  0  0  0  0
   10.5493   10.0393    7.1930 H   0  0  0  0  0  0  0  0  0  0  0  0
   13.1840   12.0885    4.9596 H   0  0  0  0  0  0  0  0  0  0  0  0
   12.6671   11.1752    6.3724 H   0  0  0  0  0  0  0  0  0  0  0  0
   10.9726   13.2591    4.8856 H   0  0  0  0  0  0  0  0  0  0  0  0
   11.8897   13.5325    6.3751 H   0  0  0  0  0  0  0  0  0  0  0  0
   10.5123   12.4354    6.3931 H   0  0  0  0  0  0  0  0  0  0  0  0
   11.1697    3.6592   -1.1158 H   0  0  0  0  0  0  0  0  0  0  0  0
    9.3145    2.1425   -1.8819 H   0  0  0  0  0  0  0  0  0  0  0  0
    8.5912    0.0322   -1.8861 H   0  0  0  0  0  0  0  0  0  0  0  0
    9.7849   -2.9510   -3.5420 H   0  0  0  0  0  0  0  0  0  0  0  0
    9.3361   -2.1383   -2.0383 H   0  0  0  0  0  0  0  0  0  0  0  0
    9.8911   -1.1879   -3.4717 H   0  0  0  0  0  0  0  0  0  0  0  0
    5.6538   -1.6938   -4.4677 H   0  0  0  0  0  0  0  0  0  0  0  0
    2.2698   -0.4301   -5.0859 H   0  0  0  0  0  0  0  0  0  0  0  0
    3.2783   -1.6518   -4.3016 H   0  0  0  0  0  0  0  0  0  0  0  0
    3.8693   -0.7655   -5.7626 H   0  0  0  0  0  0  0  0  0  0  0  0
    4.8554    2.0548   -2.5660 H   0  0  0  0  0  0  0  0  0  0  0  0
  1  2  1  0  0  0  0
  1 37  1  0  0  0  0
  1 38  1  0  0  0  0
  1 39  1  0  0  0  0
  2  3  1  0  0  0  0
  2 40  1  0  0  0  0
  2 41  1  0  0  0  0
  3  4  1  0  0  0  0
  3 42  1  0  0  0  0
  4  5  2  0  0  0  0
  4  6  1  0  0  0  0
  6  7  1  0  0  0  0
  6 43  1  0  0  0  0
  7  8  1  0  0  0  0
  7 26  2  0  0  0  0
  8  9  2  0  0  0  0
  9 10  1  0  0  0  0
  9 24  1  0  0  0  0
 10 11  2  0  0  0  0
 10 44  1  0  0  0  0
 11 12  1  0  0  0  0
 11 22  1  0  0  0  0
 12 13  1  0  0  0  0
 12 45  1  0  0  0  0
 13 14  1  0  0  0  0
 13 46  1  0  0  0  0
 13 47  1  0  0  0  0
 14 15  1  0  0  0  0
 14 48  1  0  0  0  0
 14 49  1  0  0  0  0
 15 16  1  0  0  0  0
 15 50  1  0  0  0  0
 15 51  1  0  0  0  0
 16 17  1  0  0  0  0
 16 52  1  0  0  0  0
 16 53  1  0  0  0  0
 17 18  1  0  0  0  0
 17 20  1  0  0  0  0
 18 19  1  0  0  0  0
 18 54  1  0  0  0  0
 18 55  1  0  0  0  0
 19 56  1  0  0  0  0
 19 57  1  0  0  0  0
 19 58  1  0  0  0  0
 20 21  1  0  0  0  0
 20 59  1  0  0  0  0
 20 60  1  0  0  0  0
 21 61  1  0  0  0  0
 21 62  1  0  0  0  0
 21 63  1  0  0  0  0
 22 23  2  0  0  0  0
 23 24  1  0  0  0  0
 23 64  1  0  0  0  0
 24 25  2  0  0  0  0
 25 26  1  0  0  0  0
 25 65  1  0  0  0  0
 26 27  1  0  0  0  0
 27 28  1  0  0  0  0
 27 36  2  0  0  0  0
 28 29  2  0  0  0  0
 28 66  1  0  0  0  0
 29 30  1  0  0  0  0
 29 32  1  0  0  0  0
 30 31  1  0  0  0  0
 31 67  1  0  0  0  0
 31 68  1  0  0  0  0
 31 69  1  0  0  0  0
 32 33  2  0  0  0  0
 32 70  1  0  0  0  0
 33 34  1  0  0  0  0
 33 36  1  0  0  0  0
 34 35  1  0  0  0  0
 35 71  1  0  0  0  0
 35 72  1  0  0  0  0
 35 73  1  0  0  0  0
 36 74  1  0  0  0  0
M  END
$$$$
