CHEMBL4467322
 OpenBabel04072215383D

 48 50  0  0  0  0  0  0  0  0999 V2000
    2.7160    0.2683   -1.2630 O   0  0  0  0  0  0  0  0  0  0  0  0
    2.3274    0.0512   -0.1176 C   0  0  0  0  0  0  0  0  0  0  0  0
    0.8429   -0.1587    0.1877 C   0  0  0  0  0  0  0  0  0  0  0  0
   -0.0357   -0.9135   -1.2307 S   0  0  0  0  0  0  0  0  0  0  0  0
   -1.7080   -0.7535   -0.6912 C   0  0  0  0  0  0  0  0  0  0  0  0
   -2.2238   -1.5754    0.6845 S   0  0  0  0  0  0  0  0  0  0  0  0
   -2.5182    0.0801   -1.4623 N   0  0  0  0  0  0  0  0  0  0  0  0
   -2.3142    0.3913   -2.8920 C   0  0  0  0  0  0  0  0  0  0  0  0
   -2.3157    1.9071   -3.1161 C   0  0  0  0  0  0  0  0  0  0  0  0
   -3.5217    2.5034   -2.6071 O   0  0  0  0  0  0  0  0  0  0  0  0
   -3.6798    2.2299   -1.2067 C   0  0  0  0  0  0  0  0  0  0  0  0
   -3.7392    0.7197   -0.9389 C   0  0  0  0  0  0  0  0  0  0  0  0
    3.1398    0.0404    1.0223 N   0  0  0  0  0  0  0  0  0  0  0  0
    4.5498    0.2203    1.0635 C   0  0  0  0  0  0  0  0  0  0  0  0
    5.3137    0.3679   -0.0960 C   0  0  0  0  0  0  0  0  0  0  0  0
    6.6961    0.4993   -0.0292 C   0  0  0  0  0  0  0  0  0  0  0  0
    7.3349    0.5256    1.2034 C   0  0  0  0  0  0  0  0  0  0  0  0
    6.6079    0.4494    2.3929 C   0  0  0  0  0  0  0  0  0  0  0  0
    7.2357    0.5976    3.6582 N   0  0  0  0  0  0  0  0  0  0  0  0
    8.5233    1.0910    3.8661 C   0  0  0  0  0  0  0  0  0  0  0  0
    9.3252    1.4237    2.9983 O   0  0  0  0  0  0  0  0  0  0  0  0
    8.9395    1.2548    5.2939 C   0  0  0  0  0  0  0  0  0  0  0  0
   10.1982    1.7924    5.5663 C   0  0  0  0  0  0  0  0  0  0  0  0
   10.5712    1.9781    6.8916 C   0  0  0  0  0  0  0  0  0  0  0  0
    9.6805    1.6215    7.8968 C   0  0  0  0  0  0  0  0  0  0  0  0
    8.4499    1.0869    7.5327 C   0  0  0  0  0  0  0  0  0  0  0  0
    8.0451    0.8945    6.2535 N   0  0  0  0  0  0  0  0  0  0  0  0
    5.2128    0.2491    2.3136 C   0  0  0  0  0  0  0  0  0  0  0  0
    0.4086    0.8221    0.4075 H   0  0  0  0  0  0  0  0  0  0  0  0
    0.7397   -0.8078    1.0609 H   0  0  0  0  0  0  0  0  0  0  0  0
   -3.1717   -0.0481   -3.4198 H   0  0  0  0  0  0  0  0  0  0  0  0
   -1.4176   -0.0673   -3.3102 H   0  0  0  0  0  0  0  0  0  0  0  0
   -2.2667    2.1289   -4.1868 H   0  0  0  0  0  0  0  0  0  0  0  0
   -1.4533    2.3777   -2.6308 H   0  0  0  0  0  0  0  0  0  0  0  0
   -4.6055    2.7085   -0.8735 H   0  0  0  0  0  0  0  0  0  0  0  0
   -2.8471    2.6899   -0.6607 H   0  0  0  0  0  0  0  0  0  0  0  0
   -4.5905    0.2730   -1.4662 H   0  0  0  0  0  0  0  0  0  0  0  0
   -3.8670    0.5546    0.1324 H   0  0  0  0  0  0  0  0  0  0  0  0
    2.6872   -0.0948    1.9190 H   0  0  0  0  0  0  0  0  0  0  0  0
    4.8753    0.3772   -1.0868 H   0  0  0  0  0  0  0  0  0  0  0  0
    7.2788    0.5930   -0.9415 H   0  0  0  0  0  0  0  0  0  0  0  0
    8.4163    0.6074    1.1931 H   0  0  0  0  0  0  0  0  0  0  0  0
    6.6883    0.4562    4.5022 H   0  0  0  0  0  0  0  0  0  0  0  0
   10.8737    2.0671    4.7603 H   0  0  0  0  0  0  0  0  0  0  0  0
   11.5426    2.4038    7.1316 H   0  0  0  0  0  0  0  0  0  0  0  0
    9.9426    1.7575    8.9410 H   0  0  0  0  0  0  0  0  0  0  0  0
    7.7348    0.7931    8.2962 H   0  0  0  0  0  0  0  0  0  0  0  0
    4.6385    0.1536    3.2309 H   0  0  0  0  0  0  0  0  0  0  0  0
  1  2  2  0  0  0  0
  2  3  1  0  0  0  0
  2 13  1  0  0  0  0
  3  4  1  0  0  0  0
  3 29  1  0  0  0  0
  3 30  1  0  0  0  0
  4  5  1  0  0  0  0
  5  6  2  0  0  0  0
  5  7  1  0  0  0  0
  7  8  1  0  0  0  0
  7 12  1  0  0  0  0
  8  9  1  0  0  0  0
  8 31  1  0  0  0  0
  8 32  1  0  0  0  0
  9 10  1  0  0  0  0
  9 33  1  0  0  0  0
  9 34  1  0  0  0  0
 10 11  1  0  0  0  0
 11 12  1  0  0  0  0
 11 35  1  0  0  0  0
 11 36  1  0  0  0  0
 12 37  1  0  0  0  0
 12 38  1  0  0  0  0
 13 14  1  0  0  0  0
 13 39  1  0  0  0  0
 14 15  1  0  0  0  0
 14 28  2  0  0  0  0
 15 16  2  0  0  0  0
 15 40  1  0  0  0  0
 16 17  1  0  0  0  0
 16 41  1  0  0  0  0
 17 18  2  0  0  0  0
 17 42  1  0  0  0  0
 18 19  1  0  0  0  0
 18 28  1  0  0  0  0
 19 20  1  0  0  0  0
 19 43  1  0  0  0  0
 20 21  2  0  0  0  0
 20 22  1  0  0  0  0
 22 23  1  0  0  0  0
 22 27  2  0  0  0  0
 23 24  2  0  0  0  0
 23 44  1  0  0  0  0
 24 25  1  0  0  0  0
 24 45  1  0  0  0  0
 25 26  2  0  0  0  0
 25 46  1  0  0  0  0
 26 27  1  0  0  0  0
 26 47  1  0  0  0  0
 28 48  1  0  0  0  0
M  END
$$$$
