CHEMBL3963649
 OpenBabel04072215373D

 53 56  0  0  0  0  0  0  0  0999 V2000
    2.4147    1.2254    1.9709 C   0  0  0  0  0  0  0  0  0  0  0  0
    3.4891    0.9184    1.0865 O   0  0  0  0  0  0  0  0  0  0  0  0
    3.5943    1.6932   -0.0375 C   0  0  0  0  0  0  0  0  0  0  0  0
    2.6236    2.5664   -0.5018 C   0  0  0  0  0  0  0  0  0  0  0  0
    2.8348    3.2587   -1.6935 C   0  0  0  0  0  0  0  0  0  0  0  0
    4.0329    3.1167   -2.4238 C   0  0  0  0  0  0  0  0  0  0  0  0
    4.1958    3.6818   -3.6713 O   0  0  0  0  0  0  0  0  0  0  0  0
    3.0517    4.3157   -4.2486 C   0  0  0  0  0  0  0  0  0  0  0  0
    5.0821    2.3008   -1.9187 C   0  0  0  0  0  0  0  0  0  0  0  0
    6.3200    2.1311   -2.5932 N   0  0  0  0  0  0  0  0  0  0  0  0
    6.9304    0.7512   -2.6272 C   0  0  0  0  0  0  0  0  0  0  0  0
    6.0548   -0.4096   -3.1433 C   0  0  0  0  0  0  0  0  0  0  0  0
    5.7584   -0.3256   -4.5360 O   0  0  0  0  0  0  0  0  0  0  0  0
    7.3462    3.1044   -2.9171 C   0  0  0  0  0  0  0  0  0  0  0  0
    7.8350    2.9659   -4.2104 C   0  0  0  0  0  0  0  0  0  0  0  0
    9.1429    3.2970   -4.4764 C   0  0  0  0  0  0  0  0  0  0  0  0
    9.9431    3.9237   -3.5576 C   0  0  0  0  0  0  0  0  0  0  0  0
   11.2300    3.9260   -3.9448 N   0  0  0  0  0  0  0  0  0  0  0  0
   12.0778    4.6750   -3.2432 C   0  0  0  0  0  0  0  0  0  0  0  0
   11.6504    5.5125   -2.2422 C   0  0  0  0  0  0  0  0  0  0  0  0
   12.6535    6.5613   -1.8985 C   0  0  0  0  0  0  0  0  0  0  0  0
   12.7641    7.8822   -2.4322 C   0  0  0  0  0  0  0  0  0  0  0  0
   13.9821    8.4285   -2.2853 N   0  0  0  0  0  0  0  0  0  0  0  0
   14.6987    7.4562   -1.7005 N   0  0  0  0  0  0  0  0  0  0  0  0
   16.0789    7.6843   -1.3247 C   0  0  0  0  0  0  0  0  0  0  0  0
   13.9810    6.2957   -1.5454 C   0  0  0  0  0  0  0  0  0  0  0  0
   10.3643    5.3985   -1.7316 N   0  0  0  0  0  0  0  0  0  0  0  0
    9.4628    4.4918   -2.3765 C   0  0  0  0  0  0  0  0  0  0  0  0
    8.1030    3.9624   -2.0468 C   0  0  0  0  0  0  0  0  0  0  0  0
    4.7957    1.5589   -0.7499 C   0  0  0  0  0  0  0  0  0  0  0  0
    2.5485    0.6336    2.8814 H   0  0  0  0  0  0  0  0  0  0  0  0
    1.4509    0.9476    1.5307 H   0  0  0  0  0  0  0  0  0  0  0  0
    2.4250    2.2824    2.2593 H   0  0  0  0  0  0  0  0  0  0  0  0
    1.6839    2.7178    0.0198 H   0  0  0  0  0  0  0  0  0  0  0  0
    2.0247    3.8979   -2.0323 H   0  0  0  0  0  0  0  0  0  0  0  0
    3.3047    4.6296   -5.2655 H   0  0  0  0  0  0  0  0  0  0  0  0
    2.7801    5.2147   -3.6842 H   0  0  0  0  0  0  0  0  0  0  0  0
    2.1956    3.6321   -4.3249 H   0  0  0  0  0  0  0  0  0  0  0  0
    7.3128    0.5077   -1.6308 H   0  0  0  0  0  0  0  0  0  0  0  0
    7.8080    0.7349   -3.2874 H   0  0  0  0  0  0  0  0  0  0  0  0
    5.1274   -0.5538   -2.5846 H   0  0  0  0  0  0  0  0  0  0  0  0
    6.6375   -1.3327   -3.0265 H   0  0  0  0  0  0  0  0  0  0  0  0
    4.8890    0.1053   -4.6128 H   0  0  0  0  0  0  0  0  0  0  0  0
    7.2697    2.4221   -4.9543 H   0  0  0  0  0  0  0  0  0  0  0  0
    9.5780    2.9847   -5.4230 H   0  0  0  0  0  0  0  0  0  0  0  0
   13.1093    4.6415   -3.5875 H   0  0  0  0  0  0  0  0  0  0  0  0
   12.0333    8.4515   -2.9942 H   0  0  0  0  0  0  0  0  0  0  0  0
   16.3958    8.6886   -1.6242 H   0  0  0  0  0  0  0  0  0  0  0  0
   16.7212    6.9408   -1.8064 H   0  0  0  0  0  0  0  0  0  0  0  0
   16.1471    7.5918   -0.2374 H   0  0  0  0  0  0  0  0  0  0  0  0
   14.4821    5.3845   -1.2551 H   0  0  0  0  0  0  0  0  0  0  0  0
    7.7010    4.1896   -1.0512 H   0  0  0  0  0  0  0  0  0  0  0  0
    5.5231    0.8548   -0.3567 H   0  0  0  0  0  0  0  0  0  0  0  0
  1  2  1  0  0  0  0
  1 31  1  0  0  0  0
  1 32  1  0  0  0  0
  1 33  1  0  0  0  0
  2  3  1  0  0  0  0
  3  4  1  0  0  0  0
  3 30  2  0  0  0  0
  4  5  2  0  0  0  0
  4 34  1  0  0  0  0
  5  6  1  0  0  0  0
  5 35  1  0  0  0  0
  6  7  1  0  0  0  0
  6  9  2  0  0  0  0
  7  8  1  0  0  0  0
  8 36  1  0  0  0  0
  8 37  1  0  0  0  0
  8 38  1  0  0  0  0
  9 10  1  0  0  0  0
  9 30  1  0  0  0  0
 10 11  1  0  0  0  0
 10 14  1  0  0  0  0
 11 12  1  0  0  0  0
 11 39  1  0  0  0  0
 11 40  1  0  0  0  0
 12 13  1  0  0  0  0
 12 41  1  0  0  0  0
 12 42  1  0  0  0  0
 13 43  1  0  0  0  0
 14 15  1  0  0  0  0
 14 29  2  0  0  0  0
 15 16  2  0  0  0  0
 15 44  1  0  0  0  0
 16 17  1  0  0  0  0
 16 45  1  0  0  0  0
 17 18  1  0  0  0  0
 17 28  2  0  0  0  0
 18 19  2  0  0  0  0
 19 20  1  0  0  0  0
 19 46  1  0  0  0  0
 20 21  1  0  0  0  0
 20 27  2  0  0  0  0
 21 22  1  0  0  0  0
 21 26  2  0  0  0  0
 22 23  2  0  0  0  0
 22 47  1  0  0  0  0
 23 24  1  0  0  0  0
 24 25  1  0  0  0  0
 24 26  1  0  0  0  0
 25 48  1  0  0  0  0
 25 49  1  0  0  0  0
 25 50  1  0  0  0  0
 26 51  1  0  0  0  0
 27 28  1  0  0  0  0
 28 29  1  0  0  0  0
 29 52  1  0  0  0  0
 30 53  1  0  0  0  0
M  END
$$$$
