CHEMBL3897783
 OpenBabel04072215373D

 65 69  0  0  0  0  0  0  0  0999 V2000
    7.8942    5.6671    2.5536 C   0  0  0  0  0  0  0  0  0  0  0  0
    7.9887    4.2590    2.3216 O   0  0  0  0  0  0  0  0  0  0  0  0
    7.4133    3.4265    3.2498 C   0  0  0  0  0  0  0  0  0  0  0  0
    6.7726    3.8623    4.4105 C   0  0  0  0  0  0  0  0  0  0  0  0
    6.1621    2.9352    5.2508 C   0  0  0  0  0  0  0  0  0  0  0  0
    5.4628    3.2232    6.3927 O   0  0  0  0  0  0  0  0  0  0  0  0
    5.4595    4.5768    6.8273 C   0  0  0  0  0  0  0  0  0  0  0  0
    6.2048    1.5706    4.9339 C   0  0  0  0  0  0  0  0  0  0  0  0
    6.8514    1.0822    3.7879 C   0  0  0  0  0  0  0  0  0  0  0  0
    6.7455   -0.2733    3.3857 N   0  0  0  0  0  0  0  0  0  0  0  0
    5.4354   -0.9683    3.7069 C   0  0  0  0  0  0  0  0  0  0  0  0
    4.1493   -0.3149    3.1704 C   0  0  0  0  0  0  0  0  0  0  0  0
    4.0565   -0.3947    1.7488 O   0  0  0  0  0  0  0  0  0  0  0  0
    7.7689   -1.2935    3.2798 C   0  0  0  0  0  0  0  0  0  0  0  0
    7.5429   -2.2129    2.2619 C   0  0  0  0  0  0  0  0  0  0  0  0
    8.0186   -3.5080    2.3688 C   0  0  0  0  0  0  0  0  0  0  0  0
    8.8688   -3.8740    3.3821 C   0  0  0  0  0  0  0  0  0  0  0  0
    9.0868   -5.1876    3.4366 N   0  0  0  0  0  0  0  0  0  0  0  0
   10.0925   -5.5973    4.2237 C   0  0  0  0  0  0  0  0  0  0  0  0
   10.9326   -4.7029    4.8521 C   0  0  0  0  0  0  0  0  0  0  0  0
   12.2964   -5.2012    5.0733 C   0  0  0  0  0  0  0  0  0  0  0  0
   13.0328   -5.5609    6.2161 C   0  0  0  0  0  0  0  0  0  0  0  0
   14.2153   -6.1378    5.9231 N   0  0  0  0  0  0  0  0  0  0  0  0
   14.2532   -6.1617    4.5700 N   0  0  0  0  0  0  0  0  0  0  0  0
   15.5414   -6.3388    3.8836 C   0  0  0  0  0  0  0  0  0  0  0  0
   15.4975   -6.4990    2.3505 C   0  0  0  0  0  0  0  0  0  0  0  0
   15.1048   -7.9099    1.9153 C   0  0  0  0  0  0  0  0  0  0  0  0
   15.9450   -8.9412    2.5184 N   0  0  0  0  0  0  0  0  0  0  0  0
   15.9807   -8.8395    3.9776 C   0  0  0  0  0  0  0  0  0  0  0  0
   16.4324   -7.4621    4.4485 C   0  0  0  0  0  0  0  0  0  0  0  0
   13.0640   -5.7257    4.0371 C   0  0  0  0  0  0  0  0  0  0  0  0
   10.5996   -3.3602    4.9359 N   0  0  0  0  0  0  0  0  0  0  0  0
    9.4779   -2.9114    4.2195 C   0  0  0  0  0  0  0  0  0  0  0  0
    8.8219   -1.6072    4.2005 C   0  0  0  0  0  0  0  0  0  0  0  0
    7.4661    2.0376    2.9600 C   0  0  0  0  0  0  0  0  0  0  0  0
    8.3065    6.1903    1.6860 H   0  0  0  0  0  0  0  0  0  0  0  0
    8.4873    5.9550    3.4267 H   0  0  0  0  0  0  0  0  0  0  0  0
    6.8525    5.9967    2.6635 H   0  0  0  0  0  0  0  0  0  0  0  0
    6.7342    4.9157    4.6517 H   0  0  0  0  0  0  0  0  0  0  0  0
    4.9193    4.6194    7.7777 H   0  0  0  0  0  0  0  0  0  0  0  0
    4.9314    5.2188    6.1145 H   0  0  0  0  0  0  0  0  0  0  0  0
    6.4780    4.9369    7.0062 H   0  0  0  0  0  0  0  0  0  0  0  0
    5.6901    0.8899    5.6046 H   0  0  0  0  0  0  0  0  0  0  0  0
    5.3611   -1.1131    4.7905 H   0  0  0  0  0  0  0  0  0  0  0  0
    5.4129   -1.9787    3.2791 H   0  0  0  0  0  0  0  0  0  0  0  0
    4.0114    0.7201    3.4906 H   0  0  0  0  0  0  0  0  0  0  0  0
    3.2974   -0.8866    3.5606 H   0  0  0  0  0  0  0  0  0  0  0  0
    3.8968    0.5088    1.4242 H   0  0  0  0  0  0  0  0  0  0  0  0
    6.8547   -1.9789    1.4554 H   0  0  0  0  0  0  0  0  0  0  0  0
    7.6755   -4.2572    1.6699 H   0  0  0  0  0  0  0  0  0  0  0  0
   10.2779   -6.6692    4.2282 H   0  0  0  0  0  0  0  0  0  0  0  0
   12.7648   -5.4666    7.2614 H   0  0  0  0  0  0  0  0  0  0  0  0
   16.0484   -5.3858    4.0887 H   0  0  0  0  0  0  0  0  0  0  0  0
   16.5040   -6.2911    1.9577 H   0  0  0  0  0  0  0  0  0  0  0  0
   14.8392   -5.7616    1.8808 H   0  0  0  0  0  0  0  0  0  0  0  0
   15.2007   -7.9867    0.8252 H   0  0  0  0  0  0  0  0  0  0  0  0
   14.0532   -8.1074    2.1476 H   0  0  0  0  0  0  0  0  0  0  0  0
   16.8934   -8.8842    2.1452 H   0  0  0  0  0  0  0  0  0  0  0  0
   16.6779   -9.5963    4.3562 H   0  0  0  0  0  0  0  0  0  0  0  0
   14.9974   -9.0843    4.3935 H   0  0  0  0  0  0  0  0  0  0  0  0
   17.4633   -7.2954    4.0881 H   0  0  0  0  0  0  0  0  0  0  0  0
   16.4883   -7.4338    5.5383 H   0  0  0  0  0  0  0  0  0  0  0  0
   12.8665   -5.7882    2.9753 H   0  0  0  0  0  0  0  0  0  0  0  0
    9.1033   -0.8765    4.9656 H   0  0  0  0  0  0  0  0  0  0  0  0
    7.9251    1.7278    2.0225 H   0  0  0  0  0  0  0  0  0  0  0  0
  1  2  1  0  0  0  0
  1 36  1  0  0  0  0
  1 37  1  0  0  0  0
  1 38  1  0  0  0  0
  2  3  1  0  0  0  0
  3  4  1  0  0  0  0
  3 35  2  0  0  0  0
  4  5  2  0  0  0  0
  4 39  1  0  0  0  0
  5  6  1  0  0  0  0
  5  8  1  0  0  0  0
  6  7  1  0  0  0  0
  7 40  1  0  0  0  0
  7 41  1  0  0  0  0
  7 42  1  0  0  0  0
  8  9  2  0  0  0  0
  8 43  1  0  0  0  0
  9 10  1  0  0  0  0
  9 35  1  0  0  0  0
 10 11  1  0  0  0  0
 10 14  1  0  0  0  0
 11 12  1  0  0  0  0
 11 44  1  0  0  0  0
 11 45  1  0  0  0  0
 12 13  1  0  0  0  0
 12 46  1  0  0  0  0
 12 47  1  0  0  0  0
 13 48  1  0  0  0  0
 14 15  1  0  0  0  0
 14 34  2  0  0  0  0
 15 16  2  0  0  0  0
 15 49  1  0  0  0  0
 16 17  1  0  0  0  0
 16 50  1  0  0  0  0
 17 18  1  0  0  0  0
 17 33  2  0  0  0  0
 18 19  2  0  0  0  0
 19 20  1  0  0  0  0
 19 51  1  0  0  0  0
 20 21  1  0  0  0  0
 20 32  2  0  0  0  0
 21 22  1  0  0  0  0
 21 31  2  0  0  0  0
 22 23  2  0  0  0  0
 22 52  1  0  0  0  0
 23 24  1  0  0  0  0
 24 25  1  0  0  0  0
 24 31  1  0  0  0  0
 25 26  1  0  0  0  0
 25 30  1  0  0  0  0
 25 53  1  0  0  0  0
 26 27  1  0  0  0  0
 26 54  1  0  0  0  0
 26 55  1  0  0  0  0
 27 28  1  0  0  0  0
 27 56  1  0  0  0  0
 27 57  1  0  0  0  0
 28 29  1  0  0  0  0
 28 58  1  0  0  0  0
 29 30  1  0  0  0  0
 29 59  1  0  0  0  0
 29 60  1  0  0  0  0
 30 61  1  0  0  0  0
 30 62  1  0  0  0  0
 31 63  1  0  0  0  0
 32 33  1  0  0  0  0
 33 34  1  0  0  0  0
 34 64  1  0  0  0  0
 35 65  1  0  0  0  0
M  END
$$$$
