CHEMBL245745
 OpenBabel04072215363D

 62 65  0  0  0  0  0  0  0  0999 V2000
    0.2850    0.4406   11.8076 C   0  0  0  0  0  0  0  0  0  0  0  0
    0.5605    0.4047   10.3782 N   0  0  0  0  0  0  0  0  0  0  0  0
    0.7714   -0.8939    9.8786 C   0  0  0  0  0  0  0  0  0  0  0  0
    1.0615   -1.0406    8.5183 C   0  0  0  0  0  0  0  0  0  0  0  0
    1.3334   -2.3050    7.9728 C   0  0  0  0  0  0  0  0  0  0  0  0
    1.5786   -2.5436    6.5209 C   0  0  0  0  0  0  0  0  0  0  0  0
    1.1552   -3.7663    5.9502 C   0  0  0  0  0  0  0  0  0  0  0  0
    1.3417   -4.0605    4.6030 C   0  0  0  0  0  0  0  0  0  0  0  0
    1.9637   -3.1196    3.8192 C   0  0  0  0  0  0  0  0  0  0  0  0
    2.3899   -1.9375    4.2953 N   0  0  0  0  0  0  0  0  0  0  0  0
    2.1764   -1.6488    5.6122 C   0  0  0  0  0  0  0  0  0  0  0  0
    2.5973   -0.3927    6.0529 O   0  0  0  0  0  0  0  0  0  0  0  0
    2.7349    0.6116    5.1036 C   0  0  0  0  0  0  0  0  0  0  0  0
    1.7631    0.8230    4.0997 C   0  0  0  0  0  0  0  0  0  0  0  0
    1.9573    1.7907    3.1112 C   0  0  0  0  0  0  0  0  0  0  0  0
    1.0555    2.0142    1.9323 C   0  0  0  0  0  0  0  0  0  0  0  0
    1.3155    2.9720    1.2115 O   0  0  0  0  0  0  0  0  0  0  0  0
   -0.0029    1.1293    1.7346 N   0  0  0  0  0  0  0  0  0  0  0  0
   -0.8926    1.1301    0.6243 C   0  0  0  0  0  0  0  0  0  0  0  0
   -0.7399    1.9702   -0.4814 C   0  0  0  0  0  0  0  0  0  0  0  0
   -1.6091    1.8958   -1.5693 C   0  0  0  0  0  0  0  0  0  0  0  0
   -2.6828    1.0160   -1.5463 C   0  0  0  0  0  0  0  0  0  0  0  0
   -2.9211    0.2225   -0.4162 C   0  0  0  0  0  0  0  0  0  0  0  0
   -4.2409   -0.5153   -0.2622 C   0  0  0  0  0  0  0  0  0  0  0  0
   -5.3723    0.5193   -0.1643 C   0  0  0  0  0  0  0  0  0  0  0  0
   -4.5326   -1.5180   -1.3806 C   0  0  0  0  0  0  0  0  0  0  0  0
   -1.9881    0.2503    0.6439 C   0  0  0  0  0  0  0  0  0  0  0  0
    3.0963    2.6081    3.1964 C   0  0  0  0  0  0  0  0  0  0  0  0
    4.0224    2.4576    4.2278 C   0  0  0  0  0  0  0  0  0  0  0  0
    3.8575    1.4549    5.1908 C   0  0  0  0  0  0  0  0  0  0  0  0
    4.8788    1.3216    6.2836 C   0  0  0  0  0  0  0  0  0  0  0  0
    1.3020   -3.3814    8.8775 C   0  0  0  0  0  0  0  0  0  0  0  0
    0.9458   -3.1655   10.1961 C   0  0  0  0  0  0  0  0  0  0  0  0
    0.6771   -1.9526   10.7030 N   0  0  0  0  0  0  0  0  0  0  0  0
    0.2446    1.4827   12.1391 H   0  0  0  0  0  0  0  0  0  0  0  0
    1.0684   -0.0565   12.3918 H   0  0  0  0  0  0  0  0  0  0  0  0
   -0.6858   -0.0151   12.0320 H   0  0  0  0  0  0  0  0  0  0  0  0
    1.3710    0.9698   10.1398 H   0  0  0  0  0  0  0  0  0  0  0  0
    1.0418   -0.1532    7.8947 H   0  0  0  0  0  0  0  0  0  0  0  0
    0.6451   -4.5157    6.5524 H   0  0  0  0  0  0  0  0  0  0  0  0
    1.0035   -5.0008    4.1819 H   0  0  0  0  0  0  0  0  0  0  0  0
    2.1288   -3.2837    2.7587 H   0  0  0  0  0  0  0  0  0  0  0  0
    0.8879    0.1851    4.0975 H   0  0  0  0  0  0  0  0  0  0  0  0
   -0.1721    0.4143    2.4200 H   0  0  0  0  0  0  0  0  0  0  0  0
    0.0526    2.7072   -0.5392 H   0  0  0  0  0  0  0  0  0  0  0  0
   -1.4613    2.5552   -2.4197 H   0  0  0  0  0  0  0  0  0  0  0  0
   -3.3665    1.0043   -2.3916 H   0  0  0  0  0  0  0  0  0  0  0  0
   -4.2243   -1.0783    0.6797 H   0  0  0  0  0  0  0  0  0  0  0  0
   -5.4590    1.1179   -1.0795 H   0  0  0  0  0  0  0  0  0  0  0  0
   -5.1949    1.2136    0.6649 H   0  0  0  0  0  0  0  0  0  0  0  0
   -6.3360    0.0317    0.0036 H   0  0  0  0  0  0  0  0  0  0  0  0
   -4.5919   -1.0407   -2.3646 H   0  0  0  0  0  0  0  0  0  0  0  0
   -5.4929   -2.0170   -1.2019 H   0  0  0  0  0  0  0  0  0  0  0  0
   -3.7596   -2.2921   -1.4275 H   0  0  0  0  0  0  0  0  0  0  0  0
   -2.1574   -0.3841    1.5101 H   0  0  0  0  0  0  0  0  0  0  0  0
    3.2761    3.3760    2.4434 H   0  0  0  0  0  0  0  0  0  0  0  0
    4.8829    3.1228    4.2571 H   0  0  0  0  0  0  0  0  0  0  0  0
    5.7232    2.0018    6.1231 H   0  0  0  0  0  0  0  0  0  0  0  0
    5.2822    0.3057    6.3157 H   0  0  0  0  0  0  0  0  0  0  0  0
    4.4311    1.5742    7.2491 H   0  0  0  0  0  0  0  0  0  0  0  0
    1.5316   -4.3977    8.5745 H   0  0  0  0  0  0  0  0  0  0  0  0
    0.8642   -3.9895   10.8991 H   0  0  0  0  0  0  0  0  0  0  0  0
  1  2  1  0  0  0  0
  1 35  1  0  0  0  0
  1 36  1  0  0  0  0
  1 37  1  0  0  0  0
  2  3  1  0  0  0  0
  2 38  1  0  0  0  0
  3  4  1  0  0  0  0
  3 34  2  0  0  0  0
  4  5  2  0  0  0  0
  4 39  1  0  0  0  0
  5  6  1  0  0  0  0
  5 32  1  0  0  0  0
  6  7  1  0  0  0  0
  6 11  2  0  0  0  0
  7  8  2  0  0  0  0
  7 40  1  0  0  0  0
  8  9  1  0  0  0  0
  8 41  1  0  0  0  0
  9 10  2  0  0  0  0
  9 42  1  0  0  0  0
 10 11  1  0  0  0  0
 11 12  1  0  0  0  0
 12 13  1  0  0  0  0
 13 14  1  0  0  0  0
 13 30  2  0  0  0  0
 14 15  2  0  0  0  0
 14 43  1  0  0  0  0
 15 16  1  0  0  0  0
 15 28  1  0  0  0  0
 16 17  2  0  0  0  0
 16 18  1  0  0  0  0
 18 19  1  0  0  0  0
 18 44  1  0  0  0  0
 19 20  1  0  0  0  0
 19 27  2  0  0  0  0
 20 21  2  0  0  0  0
 20 45  1  0  0  0  0
 21 22  1  0  0  0  0
 21 46  1  0  0  0  0
 22 23  2  0  0  0  0
 22 47  1  0  0  0  0
 23 24  1  0  0  0  0
 23 27  1  0  0  0  0
 24 25  1  0  0  0  0
 24 26  1  0  0  0  0
 24 48  1  0  0  0  0
 25 49  1  0  0  0  0
 25 50  1  0  0  0  0
 25 51  1  0  0  0  0
 26 52  1  0  0  0  0
 26 53  1  0  0  0  0
 26 54  1  0  0  0  0
 27 55  1  0  0  0  0
 28 29  2  0  0  0  0
 28 56  1  0  0  0  0
 29 30  1  0  0  0  0
 29 57  1  0  0  0  0
 30 31  1  0  0  0  0
 31 58  1  0  0  0  0
 31 59  1  0  0  0  0
 31 60  1  0  0  0  0
 32 33  2  0  0  0  0
 32 61  1  0  0  0  0
 33 34  1  0  0  0  0
 33 62  1  0  0  0  0
M  END
$$$$
