CHEMBL2010871
 OpenBabel04072215363D

 60 66  0  0  0  0  0  0  0  0999 V2000
    3.9892   -0.3178   -3.1059 C   0  0  0  0  0  0  0  0  0  0  0  0
    3.3618    0.5778   -2.0479 C   0  0  0  0  0  0  0  0  0  0  0  0
    3.7825    0.2295   -0.6081 C   0  0  0  0  0  0  0  0  0  0  0  0
    5.2085    0.3979   -0.3441 N   0  0  0  0  0  0  0  0  0  0  0  0
    5.8692    1.6393   -0.4451 C   0  0  0  0  0  0  0  0  0  0  0  0
    5.3792    2.9466   -0.5950 C   0  0  0  0  0  0  0  0  0  0  0  0
    6.2992    3.9795   -0.8700 C   0  0  0  0  0  0  0  0  0  0  0  0
    7.6708    3.7589   -0.9147 C   0  0  0  0  0  0  0  0  0  0  0  0
    8.6208    4.7337   -1.2373 N   0  0  0  0  0  0  0  0  0  0  0  0
    8.5537    5.9358   -1.9290 C   0  0  0  0  0  0  0  0  0  0  0  0
    7.4209    6.3470   -2.5189 N   0  0  0  0  0  0  0  0  0  0  0  0
    7.4653    7.5105   -3.1919 C   0  0  0  0  0  0  0  0  0  0  0  0
    8.5939    8.2852   -3.2944 C   0  0  0  0  0  0  0  0  0  0  0  0
    9.7057    7.7827   -2.6606 C   0  0  0  0  0  0  0  0  0  0  0  0
    9.7124    6.6155   -1.9932 N   0  0  0  0  0  0  0  0  0  0  0  0
    8.1378    2.4565   -0.7222 C   0  0  0  0  0  0  0  0  0  0  0  0
    7.2457    1.3890   -0.5323 C   0  0  0  0  0  0  0  0  0  0  0  0
    7.3000    0.0103   -0.5246 C   0  0  0  0  0  0  0  0  0  0  0  0
    8.3984   -0.7046   -1.0429 C   0  0  0  0  0  0  0  0  0  0  0  0
    8.1069   -2.0125   -1.4810 C   0  0  0  0  0  0  0  0  0  0  0  0
    6.8635   -2.6413   -1.3119 C   0  0  0  0  0  0  0  0  0  0  0  0
    6.0776   -2.0581   -0.2686 C   0  0  0  0  0  0  0  0  0  0  0  0
    6.1312   -0.6414   -0.2480 C   0  0  0  0  0  0  0  0  0  0  0  0
    6.0814   -2.9366    1.0478 C   0  0  0  0  0  0  0  0  0  0  0  0
    7.1232   -4.1308    1.0273 C   0  0  0  0  0  0  0  0  0  0  0  0
    6.9137   -4.8523   -0.2564 C   0  0  0  0  0  0  0  0  0  0  0  0
    6.5100   -6.1109   -0.4233 N   0  0  0  0  0  0  0  0  0  0  0  0
    6.0425   -6.1019   -1.6972 N   0  0  0  0  0  0  0  0  0  0  0  0
    5.3716   -7.2683   -2.2188 C   0  0  0  0  0  0  0  0  0  0  0  0
    6.0669   -4.8578   -2.2823 C   0  0  0  0  0  0  0  0  0  0  0  0
    6.7917   -4.0778   -1.4205 C   0  0  0  0  0  0  0  0  0  0  0  0
    9.3385   -2.5727   -1.9719 C   0  0  0  0  0  0  0  0  0  0  0  0
    9.6482   -3.6659   -2.4320 O   0  0  0  0  0  0  0  0  0  0  0  0
   10.2770   -1.5686   -1.7622 N   0  0  0  0  0  0  0  0  0  0  0  0
    9.7817   -0.3191   -1.2430 C   0  0  0  0  0  0  0  0  0  0  0  0
    3.6174   -0.0424   -4.0989 H   0  0  0  0  0  0  0  0  0  0  0  0
    3.7389   -1.3678   -2.9297 H   0  0  0  0  0  0  0  0  0  0  0  0
    5.0781   -0.2148   -3.1246 H   0  0  0  0  0  0  0  0  0  0  0  0
    2.2704    0.4983   -2.1245 H   0  0  0  0  0  0  0  0  0  0  0  0
    3.6065    1.6182   -2.2885 H   0  0  0  0  0  0  0  0  0  0  0  0
    3.5041   -0.8011   -0.3701 H   0  0  0  0  0  0  0  0  0  0  0  0
    3.2556    0.8819    0.0979 H   0  0  0  0  0  0  0  0  0  0  0  0
    4.3162    3.1646   -0.5857 H   0  0  0  0  0  0  0  0  0  0  0  0
    5.9038    4.9774   -1.0557 H   0  0  0  0  0  0  0  0  0  0  0  0
    9.5858    4.5450   -1.0041 H   0  0  0  0  0  0  0  0  0  0  0  0
    6.5352    7.8094   -3.6622 H   0  0  0  0  0  0  0  0  0  0  0  0
    8.6077    9.2195   -3.8303 H   0  0  0  0  0  0  0  0  0  0  0  0
   10.6536    8.3113   -2.6852 H   0  0  0  0  0  0  0  0  0  0  0  0
    9.2032    2.2621   -0.7823 H   0  0  0  0  0  0  0  0  0  0  0  0
    5.0769   -3.3548    1.1762 H   0  0  0  0  0  0  0  0  0  0  0  0
    6.3117   -2.3015    1.9104 H   0  0  0  0  0  0  0  0  0  0  0  0
    7.0232   -4.7875    1.8948 H   0  0  0  0  0  0  0  0  0  0  0  0
    8.1482   -3.7274    1.0389 H   0  0  0  0  0  0  0  0  0  0  0  0
    5.5898   -8.1288   -1.5812 H   0  0  0  0  0  0  0  0  0  0  0  0
    5.7328   -7.4535   -3.2330 H   0  0  0  0  0  0  0  0  0  0  0  0
    4.2968   -7.0683   -2.2241 H   0  0  0  0  0  0  0  0  0  0  0  0
    5.5293   -4.6463   -3.1967 H   0  0  0  0  0  0  0  0  0  0  0  0
   11.2497   -1.7611   -1.9443 H   0  0  0  0  0  0  0  0  0  0  0  0
    9.9020    0.4496   -2.0074 H   0  0  0  0  0  0  0  0  0  0  0  0
   10.2930   -0.0710   -0.3101 H   0  0  0  0  0  0  0  0  0  0  0  0
  1  2  1  0  0  0  0
  1 36  1  0  0  0  0
  1 37  1  0  0  0  0
  1 38  1  0  0  0  0
  2  3  1  0  0  0  0
  2 39  1  0  0  0  0
  2 40  1  0  0  0  0
  3  4  1  0  0  0  0
  3 41  1  0  0  0  0
  3 42  1  0  0  0  0
  4  5  1  0  0  0  0
  4 23  1  0  0  0  0
  5  6  1  0  0  0  0
  5 17  2  0  0  0  0
  6  7  2  0  0  0  0
  6 43  1  0  0  0  0
  7  8  1  0  0  0  0
  7 44  1  0  0  0  0
  8  9  1  0  0  0  0
  8 16  2  0  0  0  0
  9 10  1  0  0  0  0
  9 45  1  0  0  0  0
 10 11  1  0  0  0  0
 10 15  2  0  0  0  0
 11 12  2  0  0  0  0
 12 13  1  0  0  0  0
 12 46  1  0  0  0  0
 13 14  2  0  0  0  0
 13 47  1  0  0  0  0
 14 15  1  0  0  0  0
 14 48  1  0  0  0  0
 16 17  1  0  0  0  0
 16 49  1  0  0  0  0
 17 18  1  0  0  0  0
 18 19  1  0  0  0  0
 18 23  2  0  0  0  0
 19 20  2  0  0  0  0
 19 35  1  0  0  0  0
 20 21  1  0  0  0  0
 20 32  1  0  0  0  0
 21 22  2  0  0  0  0
 21 31  1  0  0  0  0
 22 23  1  0  0  0  0
 22 24  1  0  0  0  0
 24 25  1  0  0  0  0
 24 50  1  0  0  0  0
 24 51  1  0  0  0  0
 25 26  1  0  0  0  0
 25 52  1  0  0  0  0
 25 53  1  0  0  0  0
 26 27  2  0  0  0  0
 26 31  1  0  0  0  0
 27 28  1  0  0  0  0
 28 29  1  0  0  0  0
 28 30  1  0  0  0  0
 29 54  1  0  0  0  0
 29 55  1  0  0  0  0
 29 56  1  0  0  0  0
 30 31  2  0  0  0  0
 30 57  1  0  0  0  0
 32 33  2  0  0  0  0
 32 34  1  0  0  0  0
 34 35  1  0  0  0  0
 34 58  1  0  0  0  0
 35 59  1  0  0  0  0
 35 60  1  0  0  0  0
M  END
$$$$
