CHEMBL101683
 OpenBabel04072215353D

 40 42  0  0  0  0  0  0  0  0999 V2000
    1.7822   -0.4728   -1.1471 O   0  0  0  0  0  0  0  0  0  0  0  0
    2.2773   -0.0173   -0.1197 C   0  0  0  0  0  0  0  0  0  0  0  0
    2.0639    1.2492    0.3919 N   0  0  0  0  0  0  0  0  0  0  0  0
    1.2437    2.2488   -0.1869 C   0  0  0  0  0  0  0  0  0  0  0  0
    0.4655    2.0486   -1.3359 C   0  0  0  0  0  0  0  0  0  0  0  0
   -0.3150    3.0790   -1.8705 C   0  0  0  0  0  0  0  0  0  0  0  0
   -0.3275    4.3216   -1.2555 C   0  0  0  0  0  0  0  0  0  0  0  0
   -1.2830    5.5919   -1.9135 Cl  0  0  0  0  0  0  0  0  0  0  0  0
    0.4322    4.5408   -0.1090 C   0  0  0  0  0  0  0  0  0  0  0  0
    1.2130    3.5049    0.4268 C   0  0  0  0  0  0  0  0  0  0  0  0
    3.1783   -0.9238    0.6503 C   0  0  0  0  0  0  0  0  0  0  0  0
    2.8152   -2.2892    0.5869 C   0  0  0  0  0  0  0  0  0  0  0  0
    3.6021   -3.2743    1.1694 C   0  0  0  0  0  0  0  0  0  0  0  0
    4.7517   -2.9030    1.8434 C   0  0  0  0  0  0  0  0  0  0  0  0
    5.1076   -1.5517    1.9337 C   0  0  0  0  0  0  0  0  0  0  0  0
    4.3668   -0.5249    1.3062 C   0  0  0  0  0  0  0  0  0  0  0  0
    4.7469    0.8397    1.4327 N   0  0  0  0  0  0  0  0  0  0  0  0
    6.1711    1.0959    1.6751 C   0  0  0  0  0  0  0  0  0  0  0  0
    6.4635    2.5667    1.8264 C   0  0  0  0  0  0  0  0  0  0  0  0
    6.6562    3.1224    3.0978 C   0  0  0  0  0  0  0  0  0  0  0  0
    7.0385    4.4507    3.1943 C   0  0  0  0  0  0  0  0  0  0  0  0
    7.2234    5.2549    2.1275 N   0  0  0  0  0  0  0  0  0  0  0  0
    7.0110    4.7084    0.9113 C   0  0  0  0  0  0  0  0  0  0  0  0
    6.6311    3.3898    0.7101 C   0  0  0  0  0  0  0  0  0  0  0  0
    2.5189    1.4679    1.2746 H   0  0  0  0  0  0  0  0  0  0  0  0
    0.4365    1.0952   -1.8518 H   0  0  0  0  0  0  0  0  0  0  0  0
   -0.9087    2.8902   -2.7614 H   0  0  0  0  0  0  0  0  0  0  0  0
    0.4252    5.5169    0.3716 H   0  0  0  0  0  0  0  0  0  0  0  0
    1.7988    3.7064    1.3186 H   0  0  0  0  0  0  0  0  0  0  0  0
    1.9098   -2.5874    0.0586 H   0  0  0  0  0  0  0  0  0  0  0  0
    3.3182   -4.3201    1.0916 H   0  0  0  0  0  0  0  0  0  0  0  0
    5.3810   -3.6609    2.3039 H   0  0  0  0  0  0  0  0  0  0  0  0
    6.0087   -1.3427    2.5006 H   0  0  0  0  0  0  0  0  0  0  0  0
    4.4309    1.3712    0.6202 H   0  0  0  0  0  0  0  0  0  0  0  0
    6.7728    0.6963    0.8484 H   0  0  0  0  0  0  0  0  0  0  0  0
    6.5129    0.6106    2.5955 H   0  0  0  0  0  0  0  0  0  0  0  0
    6.5424    2.5281    3.9986 H   0  0  0  0  0  0  0  0  0  0  0  0
    7.2272    4.9108    4.1606 H   0  0  0  0  0  0  0  0  0  0  0  0
    7.1771    5.3772    0.0711 H   0  0  0  0  0  0  0  0  0  0  0  0
    6.5020    3.0112   -0.2985 H   0  0  0  0  0  0  0  0  0  0  0  0
  1  2  2  0  0  0  0
  2  3  1  0  0  0  0
  2 11  1  0  0  0  0
  3  4  1  0  0  0  0
  3 25  1  0  0  0  0
  4  5  1  0  0  0  0
  4 10  2  0  0  0  0
  5  6  2  0  0  0  0
  5 26  1  0  0  0  0
  6  7  1  0  0  0  0
  6 27  1  0  0  0  0
  7  8  1  0  0  0  0
  7  9  2  0  0  0  0
  9 10  1  0  0  0  0
  9 28  1  0  0  0  0
 10 29  1  0  0  0  0
 11 12  1  0  0  0  0
 11 16  2  0  0  0  0
 12 13  2  0  0  0  0
 12 30  1  0  0  0  0
 13 14  1  0  0  0  0
 13 31  1  0  0  0  0
 14 15  2  0  0  0  0
 14 32  1  0  0  0  0
 15 16  1  0  0  0  0
 15 33  1  0  0  0  0
 16 17  1  0  0  0  0
 17 18  1  0  0  0  0
 17 34  1  0  0  0  0
 18 19  1  0  0  0  0
 18 35  1  0  0  0  0
 18 36  1  0  0  0  0
 19 20  1  0  0  0  0
 19 24  2  0  0  0  0
 20 21  2  0  0  0  0
 20 37  1  0  0  0  0
 21 22  1  0  0  0  0
 21 38  1  0  0  0  0
 22 23  2  0  0  0  0
 23 24  1  0  0  0  0
 23 39  1  0  0  0  0
 24 40  1  0  0  0  0
M  END
$$$$
