CHEMBL3942671
 OpenBabel04072215373D

 58 62  0  0  0  0  0  0  0  0999 V2000
    1.4295   -0.6196    0.1576 C   0  0  0  0  0  0  0  0  0  0  0  0
    2.7894   -0.2663    0.4072 O   0  0  0  0  0  0  0  0  0  0  0  0
    3.1733    0.9738   -0.0244 C   0  0  0  0  0  0  0  0  0  0  0  0
    4.2530    0.9599   -0.9138 C   0  0  0  0  0  0  0  0  0  0  0  0
    4.8309    2.1608   -1.4053 C   0  0  0  0  0  0  0  0  0  0  0  0
    5.9274    2.2453   -2.2886 C   0  0  0  0  0  0  0  0  0  0  0  0
    6.5398    1.0479   -2.7596 N   0  0  0  0  0  0  0  0  0  0  0  0
    7.7409    0.9232   -3.4983 C   0  0  0  0  0  0  0  0  0  0  0  0
    8.7942    1.8398   -3.3908 C   0  0  0  0  0  0  0  0  0  0  0  0
    9.9662    1.6920   -4.1398 C   0  0  0  0  0  0  0  0  0  0  0  0
   10.1239    0.5933   -4.9806 C   0  0  0  0  0  0  0  0  0  0  0  0
   11.5768    0.4906   -5.9089 Cl  0  0  0  0  0  0  0  0  0  0  0  0
    9.1194   -0.3752   -5.0409 C   0  0  0  0  0  0  0  0  0  0  0  0
    9.2629   -1.7941   -6.0194 Cl  0  0  0  0  0  0  0  0  0  0  0  0
    7.9439   -0.2151   -4.2936 C   0  0  0  0  0  0  0  0  0  0  0  0
    6.4202    3.4313   -2.6884 N   0  0  0  0  0  0  0  0  0  0  0  0
    5.8331    4.5290   -2.2104 C   0  0  0  0  0  0  0  0  0  0  0  0
    4.7900    4.5641   -1.3789 N   0  0  0  0  0  0  0  0  0  0  0  0
    4.3030    3.3850   -0.9760 C   0  0  0  0  0  0  0  0  0  0  0  0
    3.2452    3.3825   -0.0783 C   0  0  0  0  0  0  0  0  0  0  0  0
    2.6940    2.2017    0.4444 C   0  0  0  0  0  0  0  0  0  0  0  0
    1.7527    2.4394    1.4158 O   0  0  0  0  0  0  0  0  0  0  0  0
    1.6203    1.4204    2.3986 C   0  0  0  0  0  0  0  0  0  0  0  0
    1.2613    1.9530    3.7462 C   0  0  0  0  0  0  0  0  0  0  0  0
    0.7542    1.1453    4.6555 N   0  0  0  0  0  0  0  0  0  0  0  0
    0.7961    1.7338    5.9009 C   0  0  0  0  0  0  0  0  0  0  0  0
    0.4483    0.8955    7.0919 C   0  0  0  0  0  0  0  0  0  0  0  0
    1.5382    0.0321    7.5668 N   0  0  0  0  0  0  0  0  0  0  0  0
    2.7628    0.7165    8.0001 C   0  0  0  0  0  0  0  0  0  0  0  0
    3.8557    0.8526    6.9253 C   0  0  0  0  0  0  0  0  0  0  0  0
    4.1624   -0.4116    6.3291 O   0  0  0  0  0  0  0  0  0  0  0  0
    2.9921   -0.9679    5.7188 C   0  0  0  0  0  0  0  0  0  0  0  0
    1.8478   -1.1406    6.7332 C   0  0  0  0  0  0  0  0  0  0  0  0
    1.1764    3.0643    5.8850 C   0  0  0  0  0  0  0  0  0  0  0  0
    1.6239    3.5330    4.2929 S   0  0  0  0  0  0  0  0  0  0  0  0
    1.3834   -1.3699   -0.6348 H   0  0  0  0  0  0  0  0  0  0  0  0
    0.7877    0.2274   -0.1044 H   0  0  0  0  0  0  0  0  0  0  0  0
    1.0452   -1.0927    1.0694 H   0  0  0  0  0  0  0  0  0  0  0  0
    4.6626   -0.0046   -1.2053 H   0  0  0  0  0  0  0  0  0  0  0  0
    5.8201    0.4239   -3.1102 H   0  0  0  0  0  0  0  0  0  0  0  0
    8.7177    2.6979   -2.7278 H   0  0  0  0  0  0  0  0  0  0  0  0
   10.7456    2.4440   -4.0591 H   0  0  0  0  0  0  0  0  0  0  0  0
    7.1776   -0.9846   -4.3480 H   0  0  0  0  0  0  0  0  0  0  0  0
    6.2479    5.4809   -2.5232 H   0  0  0  0  0  0  0  0  0  0  0  0
    2.8631    4.3406    0.2738 H   0  0  0  0  0  0  0  0  0  0  0  0
    2.5383    0.8386    2.5354 H   0  0  0  0  0  0  0  0  0  0  0  0
    0.7865    0.7788    2.1087 H   0  0  0  0  0  0  0  0  0  0  0  0
   -0.4265    0.2763    6.8476 H   0  0  0  0  0  0  0  0  0  0  0  0
    0.1253    1.5435    7.9110 H   0  0  0  0  0  0  0  0  0  0  0  0
    3.1824    0.1093    8.8128 H   0  0  0  0  0  0  0  0  0  0  0  0
    2.5374    1.6936    8.4427 H   0  0  0  0  0  0  0  0  0  0  0  0
    4.7744    1.2264    7.3883 H   0  0  0  0  0  0  0  0  0  0  0  0
    3.5847    1.5626    6.1388 H   0  0  0  0  0  0  0  0  0  0  0  0
    3.2725   -1.9478    5.3176 H   0  0  0  0  0  0  0  0  0  0  0  0
    2.7070   -0.3507    4.8652 H   0  0  0  0  0  0  0  0  0  0  0  0
    2.1640   -1.9281    7.4307 H   0  0  0  0  0  0  0  0  0  0  0  0
    0.9536   -1.5325    6.2346 H   0  0  0  0  0  0  0  0  0  0  0  0
    1.2692    3.7468    6.7172 H   0  0  0  0  0  0  0  0  0  0  0  0
  1  2  1  0  0  0  0
  1 36  1  0  0  0  0
  1 37  1  0  0  0  0
  1 38  1  0  0  0  0
  2  3  1  0  0  0  0
  3  4  1  0  0  0  0
  3 21  2  0  0  0  0
  4  5  2  0  0  0  0
  4 39  1  0  0  0  0
  5  6  1  0  0  0  0
  5 19  1  0  0  0  0
  6  7  1  0  0  0  0
  6 16  2  0  0  0  0
  7  8  1  0  0  0  0
  7 40  1  0  0  0  0
  8  9  1  0  0  0  0
  8 15  2  0  0  0  0
  9 10  2  0  0  0  0
  9 41  1  0  0  0  0
 10 11  1  0  0  0  0
 10 42  1  0  0  0  0
 11 12  1  0  0  0  0
 11 13  2  0  0  0  0
 13 14  1  0  0  0  0
 13 15  1  0  0  0  0
 15 43  1  0  0  0  0
 16 17  1  0  0  0  0
 17 18  2  0  0  0  0
 17 44  1  0  0  0  0
 18 19  1  0  0  0  0
 19 20  2  0  0  0  0
 20 21  1  0  0  0  0
 20 45  1  0  0  0  0
 21 22  1  0  0  0  0
 22 23  1  0  0  0  0
 23 24  1  0  0  0  0
 23 46  1  0  0  0  0
 23 47  1  0  0  0  0
 24 25  2  0  0  0  0
 24 35  1  0  0  0  0
 25 26  1  0  0  0  0
 26 27  1  0  0  0  0
 26 34  2  0  0  0  0
 27 28  1  0  0  0  0
 27 48  1  0  0  0  0
 27 49  1  0  0  0  0
 28 29  1  0  0  0  0
 28 33  1  0  0  0  0
 29 30  1  0  0  0  0
 29 50  1  0  0  0  0
 29 51  1  0  0  0  0
 30 31  1  0  0  0  0
 30 52  1  0  0  0  0
 30 53  1  0  0  0  0
 31 32  1  0  0  0  0
 32 33  1  0  0  0  0
 32 54  1  0  0  0  0
 32 55  1  0  0  0  0
 33 56  1  0  0  0  0
 33 57  1  0  0  0  0
 34 35  1  0  0  0  0
 34 58  1  0  0  0  0
M  END
$$$$
