CHEMBL427725
 OpenBabel04072215383D

 50 52  0  0  0  0  0  0  0  0999 V2000
    3.7259   -5.7760   -3.5537 C   0  0  0  0  0  0  0  0  0  0  0  0
    3.0100   -4.7652   -2.6674 C   0  0  0  0  0  0  0  0  0  0  0  0
    3.6682   -4.5944   -1.2919 C   0  0  0  0  0  0  0  0  0  0  0  0
    5.0713   -4.0420   -1.3569 C   0  0  0  0  0  0  0  0  0  0  0  0
    5.3081   -2.7853   -1.9234 C   0  0  0  0  0  0  0  0  0  0  0  0
    6.6055   -2.2809   -2.0375 C   0  0  0  0  0  0  0  0  0  0  0  0
    7.6922   -3.0203   -1.5810 C   0  0  0  0  0  0  0  0  0  0  0  0
    9.0317   -2.5943   -1.7098 N   0  0  0  0  0  0  0  0  0  0  0  0
    9.4860   -1.3729   -2.1930 C   0  0  0  0  0  0  0  0  0  0  0  0
    8.8016   -0.4176   -2.5344 O   0  0  0  0  0  0  0  0  0  0  0  0
   10.9778   -1.2725   -2.2848 C   0  0  0  0  0  0  0  0  0  0  0  0
   11.7243   -1.7903   -1.2074 C   0  0  0  0  0  0  0  0  0  0  0  0
   13.1142   -1.8190   -1.2515 C   0  0  0  0  0  0  0  0  0  0  0  0
   13.7731   -1.3069   -2.3587 C   0  0  0  0  0  0  0  0  0  0  0  0
   13.0469   -0.7304   -3.4037 C   0  0  0  0  0  0  0  0  0  0  0  0
   11.6378   -0.6961   -3.3981 C   0  0  0  0  0  0  0  0  0  0  0  0
   10.8889    0.0279   -4.5118 C   0  0  0  0  0  0  0  0  0  0  0  0
   11.5689    0.0320   -5.8932 C   0  0  0  0  0  0  0  0  0  0  0  0
   10.7936    0.7991   -6.9368 C   0  0  0  0  0  0  0  0  0  0  0  0
   11.0934    2.1382   -7.2074 C   0  0  0  0  0  0  0  0  0  0  0  0
   10.3739    2.7971   -8.1934 C   0  0  0  0  0  0  0  0  0  0  0  0
    9.3874    2.2235   -8.9136 N   0  0  0  0  0  0  0  0  0  0  0  0
    9.1046    0.9344   -8.6273 C   0  0  0  0  0  0  0  0  0  0  0  0
    9.7678    0.1906   -7.6620 C   0  0  0  0  0  0  0  0  0  0  0  0
    7.4596   -4.2685   -0.9878 C   0  0  0  0  0  0  0  0  0  0  0  0
    6.1592   -4.7745   -0.8716 C   0  0  0  0  0  0  0  0  0  0  0  0
    3.1936   -5.8845   -4.5040 H   0  0  0  0  0  0  0  0  0  0  0  0
    3.7670   -6.7581   -3.0728 H   0  0  0  0  0  0  0  0  0  0  0  0
    4.7486   -5.4602   -3.7826 H   0  0  0  0  0  0  0  0  0  0  0  0
    1.9759   -5.0988   -2.5205 H   0  0  0  0  0  0  0  0  0  0  0  0
    2.9546   -3.8047   -3.1930 H   0  0  0  0  0  0  0  0  0  0  0  0
    3.6609   -5.5566   -0.7654 H   0  0  0  0  0  0  0  0  0  0  0  0
    3.0615   -3.9094   -0.6853 H   0  0  0  0  0  0  0  0  0  0  0  0
    4.4838   -2.1876   -2.3050 H   0  0  0  0  0  0  0  0  0  0  0  0
    6.7307   -1.3130   -2.5107 H   0  0  0  0  0  0  0  0  0  0  0  0
    9.7261   -3.2797   -1.4489 H   0  0  0  0  0  0  0  0  0  0  0  0
   11.2279   -2.1562   -0.3109 H   0  0  0  0  0  0  0  0  0  0  0  0
   13.6803   -2.2308   -0.4207 H   0  0  0  0  0  0  0  0  0  0  0  0
   14.8592   -1.3293   -2.4041 H   0  0  0  0  0  0  0  0  0  0  0  0
   13.6199   -0.2997   -4.2196 H   0  0  0  0  0  0  0  0  0  0  0  0
   10.7342    1.0641   -4.1809 H   0  0  0  0  0  0  0  0  0  0  0  0
    9.8990   -0.4189   -4.6491 H   0  0  0  0  0  0  0  0  0  0  0  0
   11.7159   -1.0000   -6.2378 H   0  0  0  0  0  0  0  0  0  0  0  0
   12.5697    0.4748   -5.8411 H   0  0  0  0  0  0  0  0  0  0  0  0
   11.8773    2.6627   -6.6714 H   0  0  0  0  0  0  0  0  0  0  0  0
   10.5819    3.8350   -8.4380 H   0  0  0  0  0  0  0  0  0  0  0  0
    8.3045    0.4962   -9.2168 H   0  0  0  0  0  0  0  0  0  0  0  0
    9.4898   -0.8435   -7.4889 H   0  0  0  0  0  0  0  0  0  0  0  0
    8.2822   -4.8680   -0.6058 H   0  0  0  0  0  0  0  0  0  0  0  0
    6.0065   -5.7495   -0.4139 H   0  0  0  0  0  0  0  0  0  0  0  0
  1  2  1  0  0  0  0
  1 27  1  0  0  0  0
  1 28  1  0  0  0  0
  1 29  1  0  0  0  0
  2  3  1  0  0  0  0
  2 30  1  0  0  0  0
  2 31  1  0  0  0  0
  3  4  1  0  0  0  0
  3 32  1  0  0  0  0
  3 33  1  0  0  0  0
  4  5  1  0  0  0  0
  4 26  2  0  0  0  0
  5  6  2  0  0  0  0
  5 34  1  0  0  0  0
  6  7  1  0  0  0  0
  6 35  1  0  0  0  0
  7  8  1  0  0  0  0
  7 25  2  0  0  0  0
  8  9  1  0  0  0  0
  8 36  1  0  0  0  0
  9 10  2  0  0  0  0
  9 11  1  0  0  0  0
 11 12  1  0  0  0  0
 11 16  2  0  0  0  0
 12 13  2  0  0  0  0
 12 37  1  0  0  0  0
 13 14  1  0  0  0  0
 13 38  1  0  0  0  0
 14 15  2  0  0  0  0
 14 39  1  0  0  0  0
 15 16  1  0  0  0  0
 15 40  1  0  0  0  0
 16 17  1  0  0  0  0
 17 18  1  0  0  0  0
 17 41  1  0  0  0  0
 17 42  1  0  0  0  0
 18 19  1  0  0  0  0
 18 43  1  0  0  0  0
 18 44  1  0  0  0  0
 19 20  1  0  0  0  0
 19 24  2  0  0  0  0
 20 21  2  0  0  0  0
 20 45  1  0  0  0  0
 21 22  1  0  0  0  0
 21 46  1  0  0  0  0
 22 23  2  0  0  0  0
 23 24  1  0  0  0  0
 23 47  1  0  0  0  0
 24 48  1  0  0  0  0
 25 26  1  0  0  0  0
 25 49  1  0  0  0  0
 26 50  1  0  0  0  0
M  END
$$$$
