CHEMBL231255
 OpenBabel04072215363D

 42 45  0  0  0  0  0  0  0  0999 V2000
    1.2337   -0.2668   -1.7030 N   0  0  0  0  0  0  0  0  0  0  0  0
    2.5946   -0.2789   -1.4192 C   0  0  0  0  0  0  0  0  0  0  0  0
    3.2559    0.8109   -1.8695 N   0  0  0  0  0  0  0  0  0  0  0  0
    4.5641    0.9635   -1.6128 C   0  0  0  0  0  0  0  0  0  0  0  0
    5.3171    0.0611   -0.9019 C   0  0  0  0  0  0  0  0  0  0  0  0
    4.6440   -1.0798   -0.4503 C   0  0  0  0  0  0  0  0  0  0  0  0
    5.3589   -2.3487    0.4597 S   0  0  0  0  0  0  0  0  0  0  0  0
    3.9020   -3.2094    0.5250 C   0  0  0  0  0  0  0  0  0  0  0  0
    2.8488   -2.5664   -0.1034 C   0  0  0  0  0  0  0  0  0  0  0  0
    1.5181   -3.1920   -0.0580 C   0  0  0  0  0  0  0  0  0  0  0  0
    1.0861   -3.8089    1.1224 C   0  0  0  0  0  0  0  0  0  0  0  0
   -0.1798   -4.3878    1.2101 C   0  0  0  0  0  0  0  0  0  0  0  0
   -1.0770   -4.3159    0.1430 C   0  0  0  0  0  0  0  0  0  0  0  0
   -2.4014   -4.8061    0.2429 N   0  0  0  0  0  0  0  0  0  0  0  0
   -3.0602   -4.9664    1.4499 C   0  0  0  0  0  0  0  0  0  0  0  0
   -2.6410   -4.5453    2.5235 O   0  0  0  0  0  0  0  0  0  0  0  0
   -4.2314   -5.7041    1.3147 N   0  0  0  0  0  0  0  0  0  0  0  0
   -4.9407   -6.0584    2.4893 C   0  0  0  0  0  0  0  0  0  0  0  0
   -5.2177   -5.1074    3.4757 C   0  0  0  0  0  0  0  0  0  0  0  0
   -5.7190   -5.5050    4.7155 C   0  0  0  0  0  0  0  0  0  0  0  0
   -5.9636   -6.8520    4.9617 C   0  0  0  0  0  0  0  0  0  0  0  0
   -5.7489   -7.7940    3.9566 C   0  0  0  0  0  0  0  0  0  0  0  0
   -5.2661   -7.3983    2.7057 C   0  0  0  0  0  0  0  0  0  0  0  0
   -0.6419   -3.7499   -1.0553 C   0  0  0  0  0  0  0  0  0  0  0  0
    0.6542   -3.2122   -1.1596 C   0  0  0  0  0  0  0  0  0  0  0  0
    3.2780   -1.2955   -0.6951 C   0  0  0  0  0  0  0  0  0  0  0  0
    0.9869    0.6636   -2.0257 H   0  0  0  0  0  0  0  0  0  0  0  0
    0.6710   -0.6113   -0.9357 H   0  0  0  0  0  0  0  0  0  0  0  0
    5.0139    1.8678   -2.0162 H   0  0  0  0  0  0  0  0  0  0  0  0
    6.3691    0.2243   -0.7011 H   0  0  0  0  0  0  0  0  0  0  0  0
    3.8882   -4.1582    1.0455 H   0  0  0  0  0  0  0  0  0  0  0  0
    1.7183   -3.8464    2.0068 H   0  0  0  0  0  0  0  0  0  0  0  0
   -0.4396   -4.8832    2.1416 H   0  0  0  0  0  0  0  0  0  0  0  0
   -2.9902   -4.7361   -0.5745 H   0  0  0  0  0  0  0  0  0  0  0  0
   -4.1790   -6.4123    0.5960 H   0  0  0  0  0  0  0  0  0  0  0  0
   -4.9929   -4.0550    3.3100 H   0  0  0  0  0  0  0  0  0  0  0  0
   -5.8817   -4.7616    5.4927 H   0  0  0  0  0  0  0  0  0  0  0  0
   -6.2968   -7.1662    5.9467 H   0  0  0  0  0  0  0  0  0  0  0  0
   -5.9219   -8.8472    4.1610 H   0  0  0  0  0  0  0  0  0  0  0  0
   -5.0606   -8.1534    1.9565 H   0  0  0  0  0  0  0  0  0  0  0  0
   -1.3013   -3.6897   -1.9171 H   0  0  0  0  0  0  0  0  0  0  0  0
    0.9664   -2.7891   -2.1126 H   0  0  0  0  0  0  0  0  0  0  0  0
  1  2  1  0  0  0  0
  1 27  1  0  0  0  0
  1 28  1  0  0  0  0
  2  3  1  0  0  0  0
  2 26  2  0  0  0  0
  3  4  2  0  0  0  0
  4  5  1  0  0  0  0
  4 29  1  0  0  0  0
  5  6  2  0  0  0  0
  5 30  1  0  0  0  0
  6  7  1  0  0  0  0
  6 26  1  0  0  0  0
  7  8  1  0  0  0  0
  8  9  2  0  0  0  0
  8 31  1  0  0  0  0
  9 10  1  0  0  0  0
  9 26  1  0  0  0  0
 10 11  1  0  0  0  0
 10 25  2  0  0  0  0
 11 12  2  0  0  0  0
 11 32  1  0  0  0  0
 12 13  1  0  0  0  0
 12 33  1  0  0  0  0
 13 14  1  0  0  0  0
 13 24  2  0  0  0  0
 14 15  1  0  0  0  0
 14 34  1  0  0  0  0
 15 16  2  0  0  0  0
 15 17  1  0  0  0  0
 17 18  1  0  0  0  0
 17 35  1  0  0  0  0
 18 19  1  0  0  0  0
 18 23  2  0  0  0  0
 19 20  2  0  0  0  0
 19 36  1  0  0  0  0
 20 21  1  0  0  0  0
 20 37  1  0  0  0  0
 21 22  2  0  0  0  0
 21 38  1  0  0  0  0
 22 23  1  0  0  0  0
 22 39  1  0  0  0  0
 23 40  1  0  0  0  0
 24 25  1  0  0  0  0
 24 41  1  0  0  0  0
 25 42  1  0  0  0  0
M  END
$$$$
