CHEMBL3977627
 OpenBabel04072215373D

 52 55  0  0  0  0  0  0  0  0999 V2000
    1.1566    0.9201   -0.6217 O   0  0  0  0  0  0  0  0  0  0  0  0
    2.2344    0.4266   -0.3164 C   0  0  0  0  0  0  0  0  0  0  0  0
    2.7624   -0.7109   -0.9089 N   0  0  0  0  0  0  0  0  0  0  0  0
    2.1049   -1.4918   -1.8924 C   0  0  0  0  0  0  0  0  0  0  0  0
    0.9785   -1.0550   -2.6006 C   0  0  0  0  0  0  0  0  0  0  0  0
    0.2692   -1.9220   -3.4363 C   0  0  0  0  0  0  0  0  0  0  0  0
    0.6932   -3.2381   -3.5977 C   0  0  0  0  0  0  0  0  0  0  0  0
   -0.0985   -4.0313   -4.3944 O   0  0  0  0  0  0  0  0  0  0  0  0
   -0.3284   -5.3465   -4.0501 C   0  0  0  0  0  0  0  0  0  0  0  0
   -0.2270   -5.8635   -2.7636 C   0  0  0  0  0  0  0  0  0  0  0  0
   -0.4103   -7.2195   -2.6028 C   0  0  0  0  0  0  0  0  0  0  0  0
   -0.7482   -8.0480   -3.6076 N   0  0  0  0  0  0  0  0  0  0  0  0
   -0.9216   -7.5351   -4.8369 C   0  0  0  0  0  0  0  0  0  0  0  0
   -1.3029   -8.3766   -5.8974 N   0  0  0  0  0  0  0  0  0  0  0  0
   -1.4780   -9.7369   -5.7781 C   0  0  0  0  0  0  0  0  0  0  0  0
   -1.3321  -10.4241   -4.7768 O   0  0  0  0  0  0  0  0  0  0  0  0
   -1.8692  -10.4647   -7.0267 C   0  0  0  0  0  0  0  0  0  0  0  0
   -0.9270  -10.4657   -8.2066 C   0  0  0  0  0  0  0  0  0  0  0  0
   -2.2954   -9.8595   -8.3354 C   0  0  0  0  0  0  0  0  0  0  0  0
   -0.7249   -6.1853   -5.0959 C   0  0  0  0  0  0  0  0  0  0  0  0
    1.8943   -3.6297   -3.0038 C   0  0  0  0  0  0  0  0  0  0  0  0
    2.3987   -4.8543   -3.2139 F   0  0  0  0  0  0  0  0  0  0  0  0
    2.5868   -2.7781   -2.1402 C   0  0  0  0  0  0  0  0  0  0  0  0
    3.0558    0.9147    0.6864 N   0  0  0  0  0  0  0  0  0  0  0  0
    2.7455    1.9775    1.5699 C   0  0  0  0  0  0  0  0  0  0  0  0
    1.5096    2.6325    1.5915 C   0  0  0  0  0  0  0  0  0  0  0  0
    1.2690    3.6809    2.4803 C   0  0  0  0  0  0  0  0  0  0  0  0
    2.2614    4.0771    3.3648 C   0  0  0  0  0  0  0  0  0  0  0  0
    1.9979    5.0860    4.2031 F   0  0  0  0  0  0  0  0  0  0  0  0
    3.4984    3.4397    3.3837 C   0  0  0  0  0  0  0  0  0  0  0  0
    4.5629    3.8584    4.3494 C   0  0  0  0  0  0  0  0  0  0  0  0
    4.2639    4.9388    5.1176 F   0  0  0  0  0  0  0  0  0  0  0  0
    4.8788    2.8580    5.2208 F   0  0  0  0  0  0  0  0  0  0  0  0
    5.7304    4.1680    3.7154 F   0  0  0  0  0  0  0  0  0  0  0  0
    3.7323    2.3829    2.4795 C   0  0  0  0  0  0  0  0  0  0  0  0
    3.5528   -1.1399   -0.4507 H   0  0  0  0  0  0  0  0  0  0  0  0
    0.6076   -0.0374   -2.5153 H   0  0  0  0  0  0  0  0  0  0  0  0
   -0.6264   -1.5649   -3.9392 H   0  0  0  0  0  0  0  0  0  0  0  0
    0.0204   -5.2581   -1.9016 H   0  0  0  0  0  0  0  0  0  0  0  0
   -0.2805   -7.6989   -1.6369 H   0  0  0  0  0  0  0  0  0  0  0  0
   -1.4289   -7.9479   -6.7985 H   0  0  0  0  0  0  0  0  0  0  0  0
   -2.3368  -11.4181   -6.7883 H   0  0  0  0  0  0  0  0  0  0  0  0
   -0.7321  -11.4236   -8.6767 H   0  0  0  0  0  0  0  0  0  0  0  0
   -0.0697   -9.8030   -8.1902 H   0  0  0  0  0  0  0  0  0  0  0  0
   -3.0330  -10.4106   -8.9134 H   0  0  0  0  0  0  0  0  0  0  0  0
   -2.3800   -8.7898   -8.4541 H   0  0  0  0  0  0  0  0  0  0  0  0
   -0.8609   -5.7725   -6.0893 H   0  0  0  0  0  0  0  0  0  0  0  0
    3.4767   -3.1598   -1.6507 H   0  0  0  0  0  0  0  0  0  0  0  0
    3.9892    0.5364    0.7424 H   0  0  0  0  0  0  0  0  0  0  0  0
    0.6951    2.3577    0.9306 H   0  0  0  0  0  0  0  0  0  0  0  0
    0.3082    4.1861    2.4807 H   0  0  0  0  0  0  0  0  0  0  0  0
    4.7001    1.8835    2.4999 H   0  0  0  0  0  0  0  0  0  0  0  0
  1  2  2  0  0  0  0
  2  3  1  0  0  0  0
  2 24  1  0  0  0  0
  3  4  1  0  0  0  0
  3 36  1  0  0  0  0
  4  5  1  0  0  0  0
  4 23  2  0  0  0  0
  5  6  2  0  0  0  0
  5 37  1  0  0  0  0
  6  7  1  0  0  0  0
  6 38  1  0  0  0  0
  7  8  1  0  0  0  0
  7 21  2  0  0  0  0
  8  9  1  0  0  0  0
  9 10  1  0  0  0  0
  9 20  2  0  0  0  0
 10 11  2  0  0  0  0
 10 39  1  0  0  0  0
 11 12  1  0  0  0  0
 11 40  1  0  0  0  0
 12 13  2  0  0  0  0
 13 14  1  0  0  0  0
 13 20  1  0  0  0  0
 14 15  1  0  0  0  0
 14 41  1  0  0  0  0
 15 16  2  0  0  0  0
 15 17  1  0  0  0  0
 17 18  1  0  0  0  0
 17 19  1  0  0  0  0
 17 42  1  0  0  0  0
 18 19  1  0  0  0  0
 18 43  1  0  0  0  0
 18 44  1  0  0  0  0
 19 45  1  0  0  0  0
 19 46  1  0  0  0  0
 20 47  1  0  0  0  0
 21 22  1  0  0  0  0
 21 23  1  0  0  0  0
 23 48  1  0  0  0  0
 24 25  1  0  0  0  0
 24 49  1  0  0  0  0
 25 26  1  0  0  0  0
 25 35  2  0  0  0  0
 26 27  2  0  0  0  0
 26 50  1  0  0  0  0
 27 28  1  0  0  0  0
 27 51  1  0  0  0  0
 28 29  1  0  0  0  0
 28 30  2  0  0  0  0
 30 31  1  0  0  0  0
 30 35  1  0  0  0  0
 31 32  1  0  0  0  0
 31 33  1  0  0  0  0
 31 34  1  0  0  0  0
 35 52  1  0  0  0  0
M  END
$$$$
