CHEMBL3914671
 OpenBabel04072215373D

 54 57  0  0  1  0  0  0  0  0999 V2000
    2.0883   -1.0863   -1.3948 C   0  0  0  0  0  0  0  0  0  0  0  0
    2.5084   -0.4940   -0.1664 O   0  0  0  0  0  0  0  0  0  0  0  0
    3.2345   -1.3015    0.6644 C   0  0  0  0  0  0  0  0  0  0  0  0
    4.3856   -0.7069    1.2042 C   0  0  0  0  0  0  0  0  0  0  0  0
    5.2128   -1.4022    2.1222 C   0  0  0  0  0  0  0  0  0  0  0  0
    6.3553   -0.8858    2.7680 C   0  0  0  0  0  0  0  0  0  0  0  0
    6.6911    0.4922    2.6219 N   0  0  0  0  0  0  0  0  0  0  0  0
    7.9392    1.0447    2.9983 C   0  0  0  0  0  0  0  0  0  0  0  0
    9.1363    0.4408    2.5853 C   0  0  0  0  0  0  0  0  0  0  0  0
   10.3769    0.9480    2.9756 C   0  0  0  0  0  0  0  0  0  0  0  0
   10.4397    2.0780    3.7895 C   0  0  0  0  0  0  0  0  0  0  0  0
   12.0040    2.6357    4.2655 Cl  0  0  0  0  0  0  0  0  0  0  0  0
    9.2564    2.7072    4.1919 C   0  0  0  0  0  0  0  0  0  0  0  0
    9.2621    4.1117    5.2016 Cl  0  0  0  0  0  0  0  0  0  0  0  0
    8.0123    2.1985    3.7880 C   0  0  0  0  0  0  0  0  0  0  0  0
    7.1265   -1.6447    3.5715 N   0  0  0  0  0  0  0  0  0  0  0  0
    6.7419   -2.9070    3.7602 C   0  0  0  0  0  0  0  0  0  0  0  0
    5.6544   -3.4821    3.2388 N   0  0  0  0  0  0  0  0  0  0  0  0
    4.9006   -2.7283    2.4341 C   0  0  0  0  0  0  0  0  0  0  0  0
    3.7381   -3.2868    1.9179 C   0  0  0  0  0  0  0  0  0  0  0  0
    2.8522   -2.5797    1.0895 C   0  0  0  0  0  0  0  0  0  0  0  0
    1.6204   -3.0716    0.7098 O   0  0  0  0  0  0  0  0  0  0  0  0
    1.1005   -4.1269    1.5295 C   0  0  0  0  0  0  0  0  0  0  0  0
   -0.3958   -4.3925    1.2779 C   0  0  0  0  0  0  0  0  0  0  0  0
   -0.7356   -4.9555   -0.1220 C   0  0  3  0  0  0  0  0  0  0  0  0
   -0.0912   -6.3230   -0.3918 C   0  0  0  0  0  0  0  0  0  0  0  0
   -1.1850   -7.3694   -0.1554 C   0  0  0  0  0  0  0  0  0  0  0  0
   -2.4293   -6.5817    0.2069 C   0  0  0  0  0  0  0  0  0  0  0  0
   -2.1509   -5.2783   -0.3798 N   0  0  0  0  0  0  0  0  0  0  0  0
   -3.1430   -4.2713   -0.0688 C   0  0  0  0  0  0  0  0  0  0  0  0
    1.0667   -0.7484   -1.5934 H   0  0  0  0  0  0  0  0  0  0  0  0
    2.1070   -2.1785   -1.4224 H   0  0  0  0  0  0  0  0  0  0  0  0
    2.7283   -0.7181   -2.2038 H   0  0  0  0  0  0  0  0  0  0  0  0
    4.6440    0.3056    0.9003 H   0  0  0  0  0  0  0  0  0  0  0  0
    5.9064    1.0490    2.9497 H   0  0  0  0  0  0  0  0  0  0  0  0
    9.1007   -0.4463    1.9561 H   0  0  0  0  0  0  0  0  0  0  0  0
   11.2847    0.4490    2.6466 H   0  0  0  0  0  0  0  0  0  0  0  0
    7.1034    2.6908    4.1235 H   0  0  0  0  0  0  0  0  0  0  0  0
    7.3641   -3.5181    4.4055 H   0  0  0  0  0  0  0  0  0  0  0  0
    3.5311   -4.3126    2.2109 H   0  0  0  0  0  0  0  0  0  0  0  0
    1.2033   -3.8468    2.5861 H   0  0  0  0  0  0  0  0  0  0  0  0
    1.6794   -5.0376    1.3525 H   0  0  0  0  0  0  0  0  0  0  0  0
   -0.9329   -3.4487    1.4284 H   0  0  0  0  0  0  0  0  0  0  0  0
   -0.7400   -5.0903    2.0522 H   0  0  0  0  0  0  0  0  0  0  0  0
   -0.3928   -4.2336   -0.8710 H   0  0  0  0  0  0  0  0  0  0  0  0
    0.7786   -6.5441    0.2257 H   0  0  0  0  0  0  0  0  0  0  0  0
    0.2298   -6.3777   -1.4367 H   0  0  0  0  0  0  0  0  0  0  0  0
   -0.9103   -8.0728    0.6377 H   0  0  0  0  0  0  0  0  0  0  0  0
   -1.3440   -7.9475   -1.0734 H   0  0  0  0  0  0  0  0  0  0  0  0
   -2.5510   -6.5319    1.2969 H   0  0  0  0  0  0  0  0  0  0  0  0
   -3.3248   -7.0471   -0.2176 H   0  0  0  0  0  0  0  0  0  0  0  0
   -4.1427   -4.6334   -0.3450 H   0  0  0  0  0  0  0  0  0  0  0  0
   -2.9703   -3.3710   -0.6647 H   0  0  0  0  0  0  0  0  0  0  0  0
   -3.1748   -4.0005    0.9905 H   0  0  0  0  0  0  0  0  0  0  0  0
  1  2  1  0  0  0  0
  1 31  1  0  0  0  0
  1 32  1  0  0  0  0
  1 33  1  0  0  0  0
  2  3  1  0  0  0  0
  3  4  1  0  0  0  0
  3 21  2  0  0  0  0
  4  5  2  0  0  0  0
  4 34  1  0  0  0  0
  5  6  1  0  0  0  0
  5 19  1  0  0  0  0
  6  7  1  0  0  0  0
  6 16  2  0  0  0  0
  7  8  1  0  0  0  0
  7 35  1  0  0  0  0
  8  9  1  0  0  0  0
  8 15  2  0  0  0  0
  9 10  2  0  0  0  0
  9 36  1  0  0  0  0
 10 11  1  0  0  0  0
 10 37  1  0  0  0  0
 11 12  1  0  0  0  0
 11 13  2  0  0  0  0
 13 14  1  0  0  0  0
 13 15  1  0  0  0  0
 15 38  1  0  0  0  0
 16 17  1  0  0  0  0
 17 18  2  0  0  0  0
 17 39  1  0  0  0  0
 18 19  1  0  0  0  0
 19 20  2  0  0  0  0
 20 21  1  0  0  0  0
 20 40  1  0  0  0  0
 21 22  1  0  0  0  0
 22 23  1  0  0  0  0
 23 24  1  0  0  0  0
 23 41  1  0  0  0  0
 23 42  1  0  0  0  0
 24 25  1  0  0  0  0
 24 43  1  0  0  0  0
 24 44  1  0  0  0  0
 25 26  1  0  0  0  0
 25 29  1  0  0  0  0
 25 45  1  0  0  0  0
 26 27  1  0  0  0  0
 26 46  1  0  0  0  0
 26 47  1  0  0  0  0
 27 28  1  0  0  0  0
 27 48  1  0  0  0  0
 27 49  1  0  0  0  0
 28 29  1  0  0  0  0
 28 50  1  0  0  0  0
 28 51  1  0  0  0  0
 29 30  1  0  0  0  0
 30 52  1  0  0  0  0
 30 53  1  0  0  0  0
 30 54  1  0  0  0  0
M  END
$$$$
