CHEMBL3938265
 OpenBabel04072215373D

 79 83  0  0  1  0  0  0  0  0999 V2000
    1.7188    1.9317   -0.8281 C   0  0  0  0  0  0  0  0  0  0  0  0
    2.0058    0.5674   -0.1885 C   0  0  1  0  0  0  0  0  0  0  0  0
    2.9696   -0.2041   -0.9738 N   0  0  0  0  0  0  0  0  0  0  0  0
    2.6168   -0.5628   -2.2689 C   0  0  0  0  0  0  0  0  0  0  0  0
    1.3248   -0.6904   -2.6487 N   0  0  0  0  0  0  0  0  0  0  0  0
    1.0634   -0.9814   -3.9402 C   0  0  0  0  0  0  0  0  0  0  0  0
    1.9373   -1.1631   -4.9478 N   0  0  0  0  0  0  0  0  0  0  0  0
    3.1969   -1.0290   -4.5172 C   0  0  0  0  0  0  0  0  0  0  0  0
    4.3119   -1.0939   -5.3097 N   0  0  0  0  0  0  0  0  0  0  0  0
    5.4545   -0.8313   -4.5756 C   0  0  0  0  0  0  0  0  0  0  0  0
    6.7730   -0.6683   -5.1925 C   0  0  0  0  0  0  0  0  0  0  0  0
    6.8781   -0.0194   -6.4310 C   0  0  0  0  0  0  0  0  0  0  0  0
    8.1198    0.1984   -7.0270 C   0  0  0  0  0  0  0  0  0  0  0  0
    9.2975   -0.2428   -6.4146 C   0  0  0  0  0  0  0  0  0  0  0  0
   10.6297    0.0001   -7.0993 C   0  0  0  0  0  0  0  0  0  0  0  0
   11.0919    1.4007   -7.0294 N   0  0  0  0  0  0  0  0  0  0  0  0
   12.2863    1.6147   -7.8753 C   0  0  0  0  0  0  0  0  0  0  0  0
   13.5862    0.9500   -7.3615 C   0  0  0  0  0  0  0  0  0  0  0  0
   13.9002    1.1565   -5.9380 N   0  0  0  0  0  0  0  0  0  0  0  0
   14.7818    2.3054   -5.7090 C   0  0  0  0  0  0  0  0  0  0  0  0
   15.3127    2.3834   -4.2664 C   0  0  0  0  0  0  0  0  0  0  0  0
   15.9125    1.0546   -3.7951 C   0  0  0  0  0  0  0  0  0  0  0  0
   16.1963    1.0663   -2.2987 C   0  0  0  0  0  0  0  0  0  0  0  0
   16.8013   -0.2638   -1.8620 C   0  0  0  0  0  0  0  0  0  0  0  0
   17.0737   -0.2905   -0.3773 C   0  0  0  0  0  0  0  0  0  0  0  0
   16.8241    0.6292    0.3978 O   0  0  0  0  0  0  0  0  0  0  0  0
   17.6300   -1.4729    0.0526 N   0  0  0  0  0  0  0  0  0  0  0  0
   18.0077   -1.4916    1.4162 O   0  0  0  0  0  0  0  0  0  0  0  0
   12.6955    1.1215   -5.0893 C   0  0  0  0  0  0  0  0  0  0  0  0
   11.4448    1.8185   -5.6606 C   0  0  0  0  0  0  0  0  0  0  0  0
    9.1993   -0.8940   -5.1715 C   0  0  0  0  0  0  0  0  0  0  0  0
    7.9483   -1.0969   -4.5639 C   0  0  0  0  0  0  0  0  0  0  0  0
    5.0405   -0.6838   -3.2608 C   0  0  0  0  0  0  0  0  0  0  0  0
    3.6168   -0.7589   -3.2305 C   0  0  0  0  0  0  0  0  0  0  0  0
    2.6344    0.7529    1.1891 C   0  0  0  0  0  0  0  0  0  0  0  0
    1.9815    0.2944    2.3411 C   0  0  0  0  0  0  0  0  0  0  0  0
    2.5986    0.3960    3.5905 C   0  0  0  0  0  0  0  0  0  0  0  0
    3.8700    0.9578    3.7032 C   0  0  0  0  0  0  0  0  0  0  0  0
    4.5236    1.4341    2.5707 C   0  0  0  0  0  0  0  0  0  0  0  0
    3.9092    1.3348    1.3230 C   0  0  0  0  0  0  0  0  0  0  0  0
    1.1597    1.8251   -1.7637 H   0  0  0  0  0  0  0  0  0  0  0  0
    2.6411    2.4735   -1.0677 H   0  0  0  0  0  0  0  0  0  0  0  0
    1.1205    2.5629   -0.1617 H   0  0  0  0  0  0  0  0  0  0  0  0
    1.0660    0.0102   -0.0824 H   0  0  0  0  0  0  0  0  0  0  0  0
    3.2273   -1.0544   -0.4781 H   0  0  0  0  0  0  0  0  0  0  0  0
    0.0140   -1.0772   -4.2005 H   0  0  0  0  0  0  0  0  0  0  0  0
    4.2772   -1.2451   -6.3062 H   0  0  0  0  0  0  0  0  0  0  0  0
    5.9942    0.3586   -6.9340 H   0  0  0  0  0  0  0  0  0  0  0  0
    8.1715    0.7257   -7.9768 H   0  0  0  0  0  0  0  0  0  0  0  0
   10.4746   -0.2587   -8.1566 H   0  0  0  0  0  0  0  0  0  0  0  0
   11.3733   -0.7176   -6.7340 H   0  0  0  0  0  0  0  0  0  0  0  0
   12.4578    2.6970   -7.9514 H   0  0  0  0  0  0  0  0  0  0  0  0
   12.0864    1.2791   -8.9003 H   0  0  0  0  0  0  0  0  0  0  0  0
   14.4237    1.2695   -7.9957 H   0  0  0  0  0  0  0  0  0  0  0  0
   13.5101   -0.1323   -7.5215 H   0  0  0  0  0  0  0  0  0  0  0  0
   14.2933    3.2491   -5.9776 H   0  0  0  0  0  0  0  0  0  0  0  0
   15.6640    2.2068   -6.3568 H   0  0  0  0  0  0  0  0  0  0  0  0
   14.5165    2.7057   -3.5861 H   0  0  0  0  0  0  0  0  0  0  0  0
   16.0819    3.1637   -4.2103 H   0  0  0  0  0  0  0  0  0  0  0  0
   16.8330    0.8523   -4.3555 H   0  0  0  0  0  0  0  0  0  0  0  0
   15.2288    0.2223   -3.9981 H   0  0  0  0  0  0  0  0  0  0  0  0
   15.2622    1.2427   -1.7495 H   0  0  0  0  0  0  0  0  0  0  0  0
   16.8738    1.8913   -2.0494 H   0  0  0  0  0  0  0  0  0  0  0  0
   17.7438   -0.4387   -2.3939 H   0  0  0  0  0  0  0  0  0  0  0  0
   16.1158   -1.0862   -2.1006 H   0  0  0  0  0  0  0  0  0  0  0  0
   18.1483   -2.0860   -0.5673 H   0  0  0  0  0  0  0  0  0  0  0  0
   17.7044   -0.6097    1.7287 H   0  0  0  0  0  0  0  0  0  0  0  0
   12.8817    1.5277   -4.0911 H   0  0  0  0  0  0  0  0  0  0  0  0
   12.4639    0.0656   -4.9066 H   0  0  0  0  0  0  0  0  0  0  0  0
   11.6180    2.9032   -5.6666 H   0  0  0  0  0  0  0  0  0  0  0  0
   10.6013    1.6728   -4.9770 H   0  0  0  0  0  0  0  0  0  0  0  0
   10.0963   -1.2412   -4.6618 H   0  0  0  0  0  0  0  0  0  0  0  0
    7.9044   -1.5957   -3.5972 H   0  0  0  0  0  0  0  0  0  0  0  0
    5.6740   -0.4444   -2.4162 H   0  0  0  0  0  0  0  0  0  0  0  0
    0.9952   -0.1588    2.2730 H   0  0  0  0  0  0  0  0  0  0  0  0
    2.0909    0.0259    4.4773 H   0  0  0  0  0  0  0  0  0  0  0  0
    4.3544    1.0200    4.6739 H   0  0  0  0  0  0  0  0  0  0  0  0
    5.5158    1.8695    2.6520 H   0  0  0  0  0  0  0  0  0  0  0  0
    4.4397    1.6883    0.4403 H   0  0  0  0  0  0  0  0  0  0  0  0
  1  2  1  0  0  0  0
  1 41  1  0  0  0  0
  1 42  1  0  0  0  0
  1 43  1  0  0  0  0
  2  3  1  0  0  0  0
  2 35  1  0  0  0  0
  2 44  1  1  0  0  0
  3  4  1  0  0  0  0
  3 45  1  0  0  0  0
  4  5  1  0  0  0  0
  4 34  2  0  0  0  0
  5  6  2  0  0  0  0
  6  7  1  0  0  0  0
  6 46  1  0  0  0  0
  7  8  2  0  0  0  0
  8  9  1  0  0  0  0
  8 34  1  0  0  0  0
  9 10  1  0  0  0  0
  9 47  1  0  0  0  0
 10 11  1  0  0  0  0
 10 33  2  0  0  0  0
 11 12  1  0  0  0  0
 11 32  2  0  0  0  0
 12 13  2  0  0  0  0
 12 48  1  0  0  0  0
 13 14  1  0  0  0  0
 13 49  1  0  0  0  0
 14 15  1  0  0  0  0
 14 31  2  0  0  0  0
 15 16  1  0  0  0  0
 15 50  1  0  0  0  0
 15 51  1  0  0  0  0
 16 17  1  0  0  0  0
 16 30  1  0  0  0  0
 17 18  1  0  0  0  0
 17 52  1  0  0  0  0
 17 53  1  0  0  0  0
 18 19  1  0  0  0  0
 18 54  1  0  0  0  0
 18 55  1  0  0  0  0
 19 20  1  0  0  0  0
 19 29  1  0  0  0  0
 20 21  1  0  0  0  0
 20 56  1  0  0  0  0
 20 57  1  0  0  0  0
 21 22  1  0  0  0  0
 21 58  1  0  0  0  0
 21 59  1  0  0  0  0
 22 23  1  0  0  0  0
 22 60  1  0  0  0  0
 22 61  1  0  0  0  0
 23 24  1  0  0  0  0
 23 62  1  0  0  0  0
 23 63  1  0  0  0  0
 24 25  1  0  0  0  0
 24 64  1  0  0  0  0
 24 65  1  0  0  0  0
 25 26  2  0  0  0  0
 25 27  1  0  0  0  0
 27 28  1  0  0  0  0
 27 66  1  0  0  0  0
 28 67  1  0  0  0  0
 29 30  1  0  0  0  0
 29 68  1  0  0  0  0
 29 69  1  0  0  0  0
 30 70  1  0  0  0  0
 30 71  1  0  0  0  0
 31 32  1  0  0  0  0
 31 72  1  0  0  0  0
 32 73  1  0  0  0  0
 33 34  1  0  0  0  0
 33 74  1  0  0  0  0
 35 36  1  0  0  0  0
 35 40  2  0  0  0  0
 36 37  2  0  0  0  0
 36 75  1  0  0  0  0
 37 38  1  0  0  0  0
 37 76  1  0  0  0  0
 38 39  2  0  0  0  0
 38 77  1  0  0  0  0
 39 40  1  0  0  0  0
 39 78  1  0  0  0  0
 40 79  1  0  0  0  0
M  END
$$$$
