CHEMBL258437
 OpenBabel04072215363D

 41 46  0  0  0  0  0  0  0  0999 V2000
    1.7815   -0.5626    1.0669 C   0  0  0  0  0  0  0  0  0  0  0  0
    2.8106   -1.4729    0.6242 N   0  0  0  0  0  0  0  0  0  0  0  0
    3.7823   -2.1813    1.3301 C   0  0  0  0  0  0  0  0  0  0  0  0
    4.5963   -2.8283    0.3893 C   0  0  0  0  0  0  0  0  0  0  0  0
    4.2402   -2.0387   -0.7849 C   0  0  0  0  0  0  0  0  0  0  0  0
    3.0809   -1.4160   -0.6880 N   0  0  0  0  0  0  0  0  0  0  0  0
    5.2095   -1.6125   -1.8395 C   0  0  0  0  0  0  0  0  0  0  0  0
    6.2987   -2.6346   -1.8356 C   0  0  0  0  0  0  0  0  0  0  0  0
    6.8168   -2.6399   -0.4078 C   0  0  0  0  0  0  0  0  0  0  0  0
    6.0070   -3.2960    0.5402 C   0  0  0  0  0  0  0  0  0  0  0  0
    6.6551   -4.5210    0.8667 C   0  0  0  0  0  0  0  0  0  0  0  0
    8.1096   -4.6773    0.7754 C   0  0  0  0  0  0  0  0  0  0  0  0
    8.8501   -3.5130    0.4525 C   0  0  0  0  0  0  0  0  0  0  0  0
    8.1365   -2.4928   -0.0977 C   0  0  0  0  0  0  0  0  0  0  0  0
    9.0483   -1.5710   -0.4934 N   0  0  0  0  0  0  0  0  0  0  0  0
   10.3183   -1.9994   -0.1865 C   0  0  0  0  0  0  0  0  0  0  0  0
   11.5067   -1.2939   -0.3796 C   0  0  0  0  0  0  0  0  0  0  0  0
   12.6870   -2.0015   -0.1838 C   0  0  0  0  0  0  0  0  0  0  0  0
   12.6612   -3.3490    0.1767 C   0  0  0  0  0  0  0  0  0  0  0  0
   11.4489   -4.0239    0.4491 C   0  0  0  0  0  0  0  0  0  0  0  0
   10.2351   -3.3264    0.2912 C   0  0  0  0  0  0  0  0  0  0  0  0
    8.5305   -6.0822    0.7705 C   0  0  0  0  0  0  0  0  0  0  0  0
    7.2251   -6.7092    0.8922 N   0  0  0  0  0  0  0  0  0  0  0  0
    6.1149   -5.8488    0.9675 C   0  0  0  0  0  0  0  0  0  0  0  0
    4.9690   -6.2911    0.9939 O   0  0  0  0  0  0  0  0  0  0  0  0
    2.2011    0.4471    1.1213 H   0  0  0  0  0  0  0  0  0  0  0  0
    1.3738   -0.8840    2.0223 H   0  0  0  0  0  0  0  0  0  0  0  0
    0.9894   -0.5640    0.3089 H   0  0  0  0  0  0  0  0  0  0  0  0
    3.8558   -2.0559    2.4037 H   0  0  0  0  0  0  0  0  0  0  0  0
    5.6347   -0.6496   -1.5400 H   0  0  0  0  0  0  0  0  0  0  0  0
    4.7344   -1.5072   -2.8159 H   0  0  0  0  0  0  0  0  0  0  0  0
    7.0887   -2.4487   -2.5630 H   0  0  0  0  0  0  0  0  0  0  0  0
    5.8906   -3.6380   -2.0628 H   0  0  0  0  0  0  0  0  0  0  0  0
    8.8169   -0.6874   -0.9172 H   0  0  0  0  0  0  0  0  0  0  0  0
   11.5061   -0.2600   -0.6907 H   0  0  0  0  0  0  0  0  0  0  0  0
   13.6335   -1.4970   -0.3588 H   0  0  0  0  0  0  0  0  0  0  0  0
   13.5999   -3.8901    0.2533 H   0  0  0  0  0  0  0  0  0  0  0  0
   11.4666   -5.0694    0.7398 H   0  0  0  0  0  0  0  0  0  0  0  0
    9.1708   -6.3777    1.6029 H   0  0  0  0  0  0  0  0  0  0  0  0
    8.9719   -6.3592   -0.1929 H   0  0  0  0  0  0  0  0  0  0  0  0
    7.0690   -7.6850    0.6775 H   0  0  0  0  0  0  0  0  0  0  0  0
  1  2  1  0  0  0  0
  1 26  1  0  0  0  0
  1 27  1  0  0  0  0
  1 28  1  0  0  0  0
  2  3  1  0  0  0  0
  2  6  1  0  0  0  0
  3  4  2  0  0  0  0
  3 29  1  0  0  0  0
  4  5  1  0  0  0  0
  4 10  1  0  0  0  0
  5  6  2  0  0  0  0
  5  7  1  0  0  0  0
  7  8  1  0  0  0  0
  7 30  1  0  0  0  0
  7 31  1  0  0  0  0
  8  9  1  0  0  0  0
  8 32  1  0  0  0  0
  8 33  1  0  0  0  0
  9 10  1  0  0  0  0
  9 14  2  0  0  0  0
 10 11  2  0  0  0  0
 11 12  1  0  0  0  0
 11 24  1  0  0  0  0
 12 13  2  0  0  0  0
 12 22  1  0  0  0  0
 13 14  1  0  0  0  0
 13 21  1  0  0  0  0
 14 15  1  0  0  0  0
 15 16  1  0  0  0  0
 15 34  1  0  0  0  0
 16 17  1  0  0  0  0
 16 21  2  0  0  0  0
 17 18  2  0  0  0  0
 17 35  1  0  0  0  0
 18 19  1  0  0  0  0
 18 36  1  0  0  0  0
 19 20  2  0  0  0  0
 19 37  1  0  0  0  0
 20 21  1  0  0  0  0
 20 38  1  0  0  0  0
 22 23  1  0  0  0  0
 22 39  1  0  0  0  0
 22 40  1  0  0  0  0
 23 24  1  0  0  0  0
 23 41  1  0  0  0  0
 24 25  2  0  0  0  0
M  END
$$$$
