CHEMBL1914911
 OpenBabel04072215363D

 38 41  0  0  0  0  0  0  0  0999 V2000
    1.0676    0.4642    0.2476 C   0  0  0  0  0  0  0  0  0  0  0  0
    2.4765    0.0498   -0.1517 C   0  0  0  0  0  0  0  0  0  0  0  0
    3.0367   -0.9989    0.7723 C   0  0  0  0  0  0  0  0  0  0  0  0
    3.7778   -0.6243    1.9080 C   0  0  0  0  0  0  0  0  0  0  0  0
    4.3312   -1.5710    2.7678 C   0  0  0  0  0  0  0  0  0  0  0  0
    4.1194   -2.9366    2.5553 C   0  0  0  0  0  0  0  0  0  0  0  0
    3.3137   -3.3568    1.4761 C   0  0  0  0  0  0  0  0  0  0  0  0
    2.7933   -4.6183    1.0335 C   0  0  0  0  0  0  0  0  0  0  0  0
    2.8758   -5.8678    1.7158 C   0  0  0  0  0  0  0  0  0  0  0  0
    2.7583   -7.1128    1.2076 C   0  0  0  0  0  0  0  0  0  0  0  0
    2.5932   -7.5448   -0.2298 C   0  0  0  0  0  0  0  0  0  0  0  0
    2.8630   -6.9458   -1.2484 O   0  0  0  0  0  0  0  0  0  0  0  0
    2.1255   -8.8455   -0.1537 N   0  0  0  0  0  0  0  0  0  0  0  0
    2.1843   -9.3299    1.1470 C   0  0  0  0  0  0  0  0  0  0  0  0
    1.9439  -10.6270    1.5523 C   0  0  0  0  0  0  0  0  0  0  0  0
    2.2201  -10.9342    2.8858 C   0  0  0  0  0  0  0  0  0  0  0  0
    2.6982   -9.9441    3.7573 C   0  0  0  0  0  0  0  0  0  0  0  0
    3.0055  -10.2835    5.0169 F   0  0  0  0  0  0  0  0  0  0  0  0
    2.8894   -8.6250    3.3442 C   0  0  0  0  0  0  0  0  0  0  0  0
    2.6220   -8.3279    2.0239 C   0  0  0  0  0  0  0  0  0  0  0  0
    2.0569   -4.3752   -0.1013 C   0  0  0  0  0  0  0  0  0  0  0  0
    2.1424   -3.0445   -0.3913 N   0  0  0  0  0  0  0  0  0  0  0  0
    2.8286   -2.3795    0.5994 C   0  0  0  0  0  0  0  0  0  0  0  0
    0.6958    1.2396   -0.4306 H   0  0  0  0  0  0  0  0  0  0  0  0
    1.0447    0.8652    1.2665 H   0  0  0  0  0  0  0  0  0  0  0  0
    0.3758   -0.3829    0.2038 H   0  0  0  0  0  0  0  0  0  0  0  0
    3.1344    0.9278   -0.1585 H   0  0  0  0  0  0  0  0  0  0  0  0
    2.4673   -0.3304   -1.1789 H   0  0  0  0  0  0  0  0  0  0  0  0
    3.9342    0.4320    2.1205 H   0  0  0  0  0  0  0  0  0  0  0  0
    4.9253   -1.2435    3.6173 H   0  0  0  0  0  0  0  0  0  0  0  0
    4.5618   -3.6650    3.2317 H   0  0  0  0  0  0  0  0  0  0  0  0
    2.9590   -5.7762    2.7979 H   0  0  0  0  0  0  0  0  0  0  0  0
    1.9463   -9.3952   -0.9786 H   0  0  0  0  0  0  0  0  0  0  0  0
    1.5939  -11.3865    0.8633 H   0  0  0  0  0  0  0  0  0  0  0  0
    2.0956  -11.9500    3.2532 H   0  0  0  0  0  0  0  0  0  0  0  0
    3.2699   -7.8895    4.0415 H   0  0  0  0  0  0  0  0  0  0  0  0
    1.4687   -5.0236   -0.7371 H   0  0  0  0  0  0  0  0  0  0  0  0
    1.7042   -2.5973   -1.1844 H   0  0  0  0  0  0  0  0  0  0  0  0
  1  2  1  0  0  0  0
  1 24  1  0  0  0  0
  1 25  1  0  0  0  0
  1 26  1  0  0  0  0
  2  3  1  0  0  0  0
  2 27  1  0  0  0  0
  2 28  1  0  0  0  0
  3  4  1  0  0  0  0
  3 23  2  0  0  0  0
  4  5  2  0  0  0  0
  4 29  1  0  0  0  0
  5  6  1  0  0  0  0
  5 30  1  0  0  0  0
  6  7  2  0  0  0  0
  6 31  1  0  0  0  0
  7  8  1  0  0  0  0
  7 23  1  0  0  0  0
  8  9  1  0  0  0  0
  8 21  2  0  0  0  0
  9 10  2  0  0  0  0
  9 32  1  0  0  0  0
 10 11  1  0  0  0  0
 10 20  1  0  0  0  0
 11 12  2  0  0  0  0
 11 13  1  0  0  0  0
 13 14  1  0  0  0  0
 13 33  1  0  0  0  0
 14 15  1  0  0  0  0
 14 20  2  0  0  0  0
 15 16  2  0  0  0  0
 15 34  1  0  0  0  0
 16 17  1  0  0  0  0
 16 35  1  0  0  0  0
 17 18  1  0  0  0  0
 17 19  2  0  0  0  0
 19 20  1  0  0  0  0
 19 36  1  0  0  0  0
 21 22  1  0  0  0  0
 21 37  1  0  0  0  0
 22 23  1  0  0  0  0
 22 38  1  0  0  0  0
M  END
$$$$
