CHEMBL3690527
 OpenBabel04072215373D

 50 53  0  0  0  0  0  0  0  0999 V2000
    1.0167    0.3484    0.2009 C   0  0  0  0  0  0  0  0  0  0  0  0
    2.5074    0.2720    0.1706 C   0  0  0  0  0  0  0  0  0  0  0  0
    3.1912   -0.0253   -0.9901 C   0  0  0  0  0  0  0  0  0  0  0  0
    4.5298   -0.0897   -1.0787 N   0  0  0  0  0  0  0  0  0  0  0  0
    5.2088    0.1467    0.0562 C   0  0  0  0  0  0  0  0  0  0  0  0
    6.6912    0.0730   -0.0171 C   0  0  0  0  0  0  0  0  0  0  0  0
    7.4407    0.1026   -1.2991 C   0  0  0  0  0  0  0  0  0  0  0  0
    8.7697    0.3516   -1.2935 C   0  0  0  0  0  0  0  0  0  0  0  0
    9.4332    0.3490   -0.0563 N   0  0  0  0  0  0  0  0  0  0  0  0
   10.7957    0.3102    0.2989 C   0  0  0  0  0  0  0  0  0  0  0  0
   11.4466    1.3456    1.1835 C   0  0  0  0  0  0  0  0  0  0  0  0
   10.8615    2.5990    1.3882 C   0  0  0  0  0  0  0  0  0  0  0  0
   11.3063    3.4231    2.4267 C   0  0  0  0  0  0  0  0  0  0  0  0
   12.3547    3.0216    3.2590 C   0  0  0  0  0  0  0  0  0  0  0  0
   12.9980    1.8020    3.0585 C   0  0  0  0  0  0  0  0  0  0  0  0
   14.0647    1.3375    3.8732 N   0  0  0  0  0  0  0  0  0  0  0  0
   14.5886    1.9754    4.9779 C   0  0  0  0  0  0  0  0  0  0  0  0
   14.2039    3.0281    5.4808 O   0  0  0  0  0  0  0  0  0  0  0  0
   15.6921    1.3222    5.4825 N   0  0  0  0  0  0  0  0  0  0  0  0
   16.3917    1.9035    6.6381 C   0  0  0  0  0  0  0  0  0  0  0  0
   15.7642    1.6544    8.0185 C   0  0  0  0  0  0  0  0  0  0  0  0
   14.7681    0.7410    7.9649 F   0  0  0  0  0  0  0  0  0  0  0  0
   16.7020    1.1583    8.8664 F   0  0  0  0  0  0  0  0  0  0  0  0
   15.2783    2.7813    8.5780 F   0  0  0  0  0  0  0  0  0  0  0  0
   12.5467    0.9833    2.0069 C   0  0  0  0  0  0  0  0  0  0  0  0
   10.7576   -1.0290    0.7157 C   0  0  0  0  0  0  0  0  0  0  0  0
    9.5904   -1.2237    1.4387 N   0  0  0  0  0  0  0  0  0  0  0  0
    8.8005   -0.2411    1.0333 C   0  0  0  0  0  0  0  0  0  0  0  0
    7.4005   -0.0467    1.1326 C   0  0  0  0  0  0  0  0  0  0  0  0
    4.6380    0.4361    1.2427 N   0  0  0  0  0  0  0  0  0  0  0  0
    3.3010    0.4909    1.2816 C   0  0  0  0  0  0  0  0  0  0  0  0
    2.7466    0.8494    2.5106 N   0  0  0  0  0  0  0  0  0  0  0  0
    0.5865    0.1734   -0.7911 H   0  0  0  0  0  0  0  0  0  0  0  0
    0.6904    1.3401    0.5310 H   0  0  0  0  0  0  0  0  0  0  0  0
    0.6073   -0.4105    0.8764 H   0  0  0  0  0  0  0  0  0  0  0  0
    2.6644   -0.2172   -1.9192 H   0  0  0  0  0  0  0  0  0  0  0  0
    6.8924   -0.0981   -2.2158 H   0  0  0  0  0  0  0  0  0  0  0  0
    9.3737    0.3881   -2.1915 H   0  0  0  0  0  0  0  0  0  0  0  0
   10.0082    2.9298    0.8027 H   0  0  0  0  0  0  0  0  0  0  0  0
   10.8125    4.3717    2.6248 H   0  0  0  0  0  0  0  0  0  0  0  0
   12.6332    3.6886    4.0682 H   0  0  0  0  0  0  0  0  0  0  0  0
   14.4917    0.4604    3.6078 H   0  0  0  0  0  0  0  0  0  0  0  0
   15.6779    0.3140    5.4172 H   0  0  0  0  0  0  0  0  0  0  0  0
   16.4823    2.9846    6.4779 H   0  0  0  0  0  0  0  0  0  0  0  0
   17.4056    1.4923    6.6180 H   0  0  0  0  0  0  0  0  0  0  0  0
   13.0154    0.0117    1.8649 H   0  0  0  0  0  0  0  0  0  0  0  0
   11.5897   -1.7097    0.8201 H   0  0  0  0  0  0  0  0  0  0  0  0
    6.9518   -0.0471    2.1191 H   0  0  0  0  0  0  0  0  0  0  0  0
    3.5041    0.9073    3.1874 H   0  0  0  0  0  0  0  0  0  0  0  0
    2.0185    0.2133    2.8117 H   0  0  0  0  0  0  0  0  0  0  0  0
  1  2  1  0  0  0  0
  1 33  1  0  0  0  0
  1 34  1  0  0  0  0
  1 35  1  0  0  0  0
  2  3  1  0  0  0  0
  2 31  2  0  0  0  0
  3  4  2  0  0  0  0
  3 36  1  0  0  0  0
  4  5  1  0  0  0  0
  5  6  1  0  0  0  0
  5 30  2  0  0  0  0
  6  7  1  0  0  0  0
  6 29  2  0  0  0  0
  7  8  2  0  0  0  0
  7 37  1  0  0  0  0
  8  9  1  0  0  0  0
  8 38  1  0  0  0  0
  9 10  1  0  0  0  0
  9 28  1  0  0  0  0
 10 11  1  0  0  0  0
 10 26  2  0  0  0  0
 11 12  1  0  0  0  0
 11 25  2  0  0  0  0
 12 13  2  0  0  0  0
 12 39  1  0  0  0  0
 13 14  1  0  0  0  0
 13 40  1  0  0  0  0
 14 15  2  0  0  0  0
 14 41  1  0  0  0  0
 15 16  1  0  0  0  0
 15 25  1  0  0  0  0
 16 17  1  0  0  0  0
 16 42  1  0  0  0  0
 17 18  2  0  0  0  0
 17 19  1  0  0  0  0
 19 20  1  0  0  0  0
 19 43  1  0  0  0  0
 20 21  1  0  0  0  0
 20 44  1  0  0  0  0
 20 45  1  0  0  0  0
 21 22  1  0  0  0  0
 21 23  1  0  0  0  0
 21 24  1  0  0  0  0
 25 46  1  0  0  0  0
 26 27  1  0  0  0  0
 26 47  1  0  0  0  0
 27 28  2  0  0  0  0
 28 29  1  0  0  0  0
 29 48  1  0  0  0  0
 30 31  1  0  0  0  0
 31 32  1  0  0  0  0
 32 49  1  0  0  0  0
 32 50  1  0  0  0  0
M  END
$$$$
