CHEMBL448993
 OpenBabel04072215383D

 64 69  0  0  0  0  0  0  0  0999 V2000
    5.3054    0.2668   -2.8278 C   0  0  0  0  0  0  0  0  0  0  0  0
    4.7242    1.6135   -3.1852 C   0  0  0  0  0  0  0  0  0  0  0  0
    3.8737    1.7296   -4.0634 O   0  0  0  0  0  0  0  0  0  0  0  0
    5.1934    2.8176   -2.4377 C   0  0  0  0  0  0  0  0  0  0  0  0
    4.6828    4.0753   -2.7748 C   0  0  0  0  0  0  0  0  0  0  0  0
    5.0781    5.2075   -2.0611 C   0  0  0  0  0  0  0  0  0  0  0  0
    5.9717    5.0855   -0.9949 C   0  0  0  0  0  0  0  0  0  0  0  0
    6.4907    3.8335   -0.6404 C   0  0  0  0  0  0  0  0  0  0  0  0
    7.3467    3.6836    0.5419 C   0  0  0  0  0  0  0  0  0  0  0  0
    7.2300    4.3050    1.7698 C   0  0  0  0  0  0  0  0  0  0  0  0
    8.1795    3.8377    2.7216 C   0  0  0  0  0  0  0  0  0  0  0  0
    8.2567    4.2559    4.0132 N   0  0  0  0  0  0  0  0  0  0  0  0
    9.1879    3.6469    4.7689 C   0  0  0  0  0  0  0  0  0  0  0  0
   10.0437    2.6548    4.3331 C   0  0  0  0  0  0  0  0  0  0  0  0
    9.9962    2.2673    2.9940 C   0  0  0  0  0  0  0  0  0  0  0  0
   10.7996    1.2785    2.4694 O   0  0  0  0  0  0  0  0  0  0  0  0
   12.1428    1.2941    2.7570 C   0  0  0  0  0  0  0  0  0  0  0  0
   12.8542    2.4479    3.0797 C   0  0  0  0  0  0  0  0  0  0  0  0
   14.2083    2.3693    3.3960 C   0  0  0  0  0  0  0  0  0  0  0  0
   14.8900    1.1549    3.3246 C   0  0  0  0  0  0  0  0  0  0  0  0
   16.2633    1.0374    3.5999 N   0  0  0  0  0  0  0  0  0  0  0  0
   17.1146    2.0307    4.0399 C   0  0  0  0  0  0  0  0  0  0  0  0
   16.8091    3.1967    4.2624 O   0  0  0  0  0  0  0  0  0  0  0  0
   18.4167    1.6043    4.2471 N   0  0  0  0  0  0  0  0  0  0  0  0
   19.3933    2.4932    4.8224 C   0  0  0  0  0  0  0  0  0  0  0  0
   20.5826    1.5886    5.0541 C   0  0  0  0  0  0  0  0  0  0  0  0
   20.4349    0.5940    4.0177 N   0  0  0  0  0  0  0  0  0  0  0  0
   21.4915   -0.2133    3.5504 C   0  0  0  0  0  0  0  0  0  0  0  0
   21.4028   -0.8719    2.3168 C   0  0  0  0  0  0  0  0  0  0  0  0
   22.4763   -1.6156    1.8247 C   0  0  0  0  0  0  0  0  0  0  0  0
   23.6461   -1.7288    2.5695 C   0  0  0  0  0  0  0  0  0  0  0  0
   23.7454   -1.0941    3.8038 C   0  0  0  0  0  0  0  0  0  0  0  0
   22.6771   -0.3331    4.2867 C   0  0  0  0  0  0  0  0  0  0  0  0
   19.0836    0.5285    3.6197 C   0  0  0  0  0  0  0  0  0  0  0  0
   18.5349   -0.3132    2.9194 O   0  0  0  0  0  0  0  0  0  0  0  0
   14.1918    0.0053    2.9499 C   0  0  0  0  0  0  0  0  0  0  0  0
   12.8267    0.0822    2.6712 C   0  0  0  0  0  0  0  0  0  0  0  0
   12.1744   -1.0357    2.3150 F   0  0  0  0  0  0  0  0  0  0  0  0
    9.0233    2.8690    2.1847 C   0  0  0  0  0  0  0  0  0  0  0  0
    8.6771    2.6037    0.5264 S   0  0  0  0  0  0  0  0  0  0  0  0
    6.1057    2.7070   -1.3853 C   0  0  0  0  0  0  0  0  0  0  0  0
    4.8355   -0.5067   -3.4440 H   0  0  0  0  0  0  0  0  0  0  0  0
    5.1018    0.0282   -1.7800 H   0  0  0  0  0  0  0  0  0  0  0  0
    6.3799    0.2562   -3.0276 H   0  0  0  0  0  0  0  0  0  0  0  0
    3.9661    4.1778   -3.5876 H   0  0  0  0  0  0  0  0  0  0  0  0
    4.6760    6.1834   -2.3240 H   0  0  0  0  0  0  0  0  0  0  0  0
    6.2540    5.9787   -0.4399 H   0  0  0  0  0  0  0  0  0  0  0  0
    6.4635    5.0309    2.0077 H   0  0  0  0  0  0  0  0  0  0  0  0
    9.2339    3.9941    5.7984 H   0  0  0  0  0  0  0  0  0  0  0  0
   10.7514    2.2107    5.0245 H   0  0  0  0  0  0  0  0  0  0  0  0
   12.3820    3.4259    3.0979 H   0  0  0  0  0  0  0  0  0  0  0  0
   14.7003    3.2938    3.6785 H   0  0  0  0  0  0  0  0  0  0  0  0
   16.7003    0.1351    3.4228 H   0  0  0  0  0  0  0  0  0  0  0  0
   19.0211    2.9786    5.7277 H   0  0  0  0  0  0  0  0  0  0  0  0
   19.6227    3.2639    4.0752 H   0  0  0  0  0  0  0  0  0  0  0  0
   20.5019    1.0850    6.0242 H   0  0  0  0  0  0  0  0  0  0  0  0
   21.5278    2.1371    4.9869 H   0  0  0  0  0  0  0  0  0  0  0  0
   20.5155   -0.7858    1.6941 H   0  0  0  0  0  0  0  0  0  0  0  0
   22.3971   -2.0981    0.8538 H   0  0  0  0  0  0  0  0  0  0  0  0
   24.4803   -2.3116    2.1869 H   0  0  0  0  0  0  0  0  0  0  0  0
   24.6527   -1.1888    4.3928 H   0  0  0  0  0  0  0  0  0  0  0  0
   22.7867    0.1373    5.2596 H   0  0  0  0  0  0  0  0  0  0  0  0
   14.6820   -0.9616    2.8729 H   0  0  0  0  0  0  0  0  0  0  0  0
    6.5027    1.7352   -1.1074 H   0  0  0  0  0  0  0  0  0  0  0  0
  1  2  1  0  0  0  0
  1 42  1  0  0  0  0
  1 43  1  0  0  0  0
  1 44  1  0  0  0  0
  2  3  2  0  0  0  0
  2  4  1  0  0  0  0
  4  5  1  0  0  0  0
  4 41  2  0  0  0  0
  5  6  2  0  0  0  0
  5 45  1  0  0  0  0
  6  7  1  0  0  0  0
  6 46  1  0  0  0  0
  7  8  2  0  0  0  0
  7 47  1  0  0  0  0
  8  9  1  0  0  0  0
  8 41  1  0  0  0  0
  9 10  2  0  0  0  0
  9 40  1  0  0  0  0
 10 11  1  0  0  0  0
 10 48  1  0  0  0  0
 11 12  1  0  0  0  0
 11 39  2  0  0  0  0
 12 13  2  0  0  0  0
 13 14  1  0  0  0  0
 13 49  1  0  0  0  0
 14 15  2  0  0  0  0
 14 50  1  0  0  0  0
 15 16  1  0  0  0  0
 15 39  1  0  0  0  0
 16 17  1  0  0  0  0
 17 18  1  0  0  0  0
 17 37  2  0  0  0  0
 18 19  2  0  0  0  0
 18 51  1  0  0  0  0
 19 20  1  0  0  0  0
 19 52  1  0  0  0  0
 20 21  1  0  0  0  0
 20 36  2  0  0  0  0
 21 22  1  0  0  0  0
 21 53  1  0  0  0  0
 22 23  2  0  0  0  0
 22 24  1  0  0  0  0
 24 25  1  0  0  0  0
 24 34  1  0  0  0  0
 25 26  1  0  0  0  0
 25 54  1  0  0  0  0
 25 55  1  0  0  0  0
 26 27  1  0  0  0  0
 26 56  1  0  0  0  0
 26 57  1  0  0  0  0
 27 28  1  0  0  0  0
 27 34  1  0  0  0  0
 28 29  1  0  0  0  0
 28 33  2  0  0  0  0
 29 30  2  0  0  0  0
 29 58  1  0  0  0  0
 30 31  1  0  0  0  0
 30 59  1  0  0  0  0
 31 32  2  0  0  0  0
 31 60  1  0  0  0  0
 32 33  1  0  0  0  0
 32 61  1  0  0  0  0
 33 62  1  0  0  0  0
 34 35  2  0  0  0  0
 36 37  1  0  0  0  0
 36 63  1  0  0  0  0
 37 38  1  0  0  0  0
 39 40  1  0  0  0  0
 41 64  1  0  0  0  0
M  END
$$$$
