CHEMBL3656087
 OpenBabel04072215373D

 65 68  0  0  0  0  0  0  0  0999 V2000
   -7.6776   16.2092    1.7433 C   0  0  0  0  0  0  0  0  0  0  0  0
   -7.4552   14.9394    0.9722 C   0  0  0  0  0  0  0  0  0  0  0  0
   -7.0855   15.0007   -0.3737 C   0  0  0  0  0  0  0  0  0  0  0  0
   -6.8433   13.8302   -1.0809 C   0  0  0  0  0  0  0  0  0  0  0  0
   -6.9868   12.5931   -0.4578 C   0  0  0  0  0  0  0  0  0  0  0  0
   -6.6040   11.5312   -1.1764 F   0  0  0  0  0  0  0  0  0  0  0  0
   -7.4201   12.4893    0.8710 C   0  0  0  0  0  0  0  0  0  0  0  0
   -7.6753   11.2659    1.5488 N   0  0  0  0  0  0  0  0  0  0  0  0
   -7.8669   10.0313    0.9486 C   0  0  0  0  0  0  0  0  0  0  0  0
   -7.8570    9.8026   -0.2534 O   0  0  0  0  0  0  0  0  0  0  0  0
   -8.1621    9.0430    1.8792 N   0  0  0  0  0  0  0  0  0  0  0  0
   -8.3760    7.7141    1.4302 C   0  0  0  0  0  0  0  0  0  0  0  0
   -7.4608    7.0521    0.6036 C   0  0  0  0  0  0  0  0  0  0  0  0
   -7.7208    5.7431    0.1831 C   0  0  0  0  0  0  0  0  0  0  0  0
   -8.8995    5.0990    0.5717 C   0  0  0  0  0  0  0  0  0  0  0  0
   -9.0764    3.8189    0.0994 O   0  0  0  0  0  0  0  0  0  0  0  0
   -9.7247    2.8847    0.8771 C   0  0  0  0  0  0  0  0  0  0  0  0
   -9.7117    2.8596    2.2673 C   0  0  0  0  0  0  0  0  0  0  0  0
  -10.4268    1.8626    2.9070 C   0  0  0  0  0  0  0  0  0  0  0  0
  -11.0879    0.8769    2.2626 N   0  0  0  0  0  0  0  0  0  0  0  0
  -11.0315    0.8866    0.9062 C   0  0  0  0  0  0  0  0  0  0  0  0
  -11.7050   -0.2340    0.2660 C   0  0  0  0  0  0  0  0  0  0  0  0
  -11.8520   -0.5759   -1.0690 C   0  0  0  0  0  0  0  0  0  0  0  0
  -12.6188   -1.7769   -1.1629 C   0  0  0  0  0  0  0  0  0  0  0  0
  -13.0633   -2.5162   -2.3442 C   0  0  0  0  0  0  0  0  0  0  0  0
  -13.7846   -3.5065   -2.2690 O   0  0  0  0  0  0  0  0  0  0  0  0
  -12.6238   -2.0051   -3.5469 N   0  0  0  0  0  0  0  0  0  0  0  0
  -12.9979   -2.5848   -4.8153 C   0  0  0  0  0  0  0  0  0  0  0  0
  -14.3216   -2.0241   -5.3419 C   0  0  0  0  0  0  0  0  0  0  0  0
  -14.3157   -0.5136   -5.5635 C   0  0  0  0  0  0  0  0  0  0  0  0
  -13.2748   -0.1016   -6.5703 C   0  0  0  0  0  0  0  0  0  0  0  0
  -12.1244    0.1836   -6.2725 O   0  0  0  0  0  0  0  0  0  0  0  0
  -13.7139   -0.1264   -7.8462 O   0  0  0  0  0  0  0  0  0  0  0  0
  -12.8969   -2.1413    0.1437 C   0  0  0  0  0  0  0  0  0  0  0  0
  -12.3403   -1.2191    0.9875 N   0  0  0  0  0  0  0  0  0  0  0  0
  -10.3735    1.8692    0.1831 C   0  0  0  0  0  0  0  0  0  0  0  0
   -9.8429    5.7821    1.3401 C   0  0  0  0  0  0  0  0  0  0  0  0
   -9.5487    7.0594    1.8051 C   0  0  0  0  0  0  0  0  0  0  0  0
  -10.4419    7.6912    2.5831 F   0  0  0  0  0  0  0  0  0  0  0  0
   -7.6194   13.6819    1.5890 C   0  0  0  0  0  0  0  0  0  0  0  0
   -7.4887   17.0897    1.1187 H   0  0  0  0  0  0  0  0  0  0  0  0
   -6.9950   16.2582    2.5971 H   0  0  0  0  0  0  0  0  0  0  0  0
   -8.7116   16.2664    2.0955 H   0  0  0  0  0  0  0  0  0  0  0  0
   -6.9629   15.9571   -0.8767 H   0  0  0  0  0  0  0  0  0  0  0  0
   -6.5242   13.8611   -2.1181 H   0  0  0  0  0  0  0  0  0  0  0  0
   -7.8469   11.3148    2.5412 H   0  0  0  0  0  0  0  0  0  0  0  0
   -8.8092    9.3430    2.5969 H   0  0  0  0  0  0  0  0  0  0  0  0
   -6.5487    7.5467    0.2796 H   0  0  0  0  0  0  0  0  0  0  0  0
   -7.0053    5.2329   -0.4582 H   0  0  0  0  0  0  0  0  0  0  0  0
   -9.1727    3.5938    2.8536 H   0  0  0  0  0  0  0  0  0  0  0  0
  -10.4837    1.8295    3.9914 H   0  0  0  0  0  0  0  0  0  0  0  0
  -11.4484   -0.0057   -1.8934 H   0  0  0  0  0  0  0  0  0  0  0  0
  -12.0321   -1.1867   -3.5604 H   0  0  0  0  0  0  0  0  0  0  0  0
  -13.0850   -3.6705   -4.6985 H   0  0  0  0  0  0  0  0  0  0  0  0
  -12.1786   -2.3974   -5.5159 H   0  0  0  0  0  0  0  0  0  0  0  0
  -15.1252   -2.2651   -4.6354 H   0  0  0  0  0  0  0  0  0  0  0  0
  -14.5616   -2.5299   -6.2847 H   0  0  0  0  0  0  0  0  0  0  0  0
  -14.1203    0.0295   -4.6317 H   0  0  0  0  0  0  0  0  0  0  0  0
  -15.3005   -0.1730   -5.9035 H   0  0  0  0  0  0  0  0  0  0  0  0
  -14.6524   -0.3762   -7.9443 H   0  0  0  0  0  0  0  0  0  0  0  0
  -13.4472   -2.9877    0.5350 H   0  0  0  0  0  0  0  0  0  0  0  0
  -12.3809   -1.2255    2.0005 H   0  0  0  0  0  0  0  0  0  0  0  0
  -10.3542    1.8555   -0.8999 H   0  0  0  0  0  0  0  0  0  0  0  0
  -10.8025    5.3416    1.5872 H   0  0  0  0  0  0  0  0  0  0  0  0
   -7.9305   13.6494    2.6300 H   0  0  0  0  0  0  0  0  0  0  0  0
  1  2  1  0  0  0  0
  1 41  1  0  0  0  0
  1 42  1  0  0  0  0
  1 43  1  0  0  0  0
  2  3  1  0  0  0  0
  2 40  2  0  0  0  0
  3  4  2  0  0  0  0
  3 44  1  0  0  0  0
  4  5  1  0  0  0  0
  4 45  1  0  0  0  0
  5  6  1  0  0  0  0
  5  7  2  0  0  0  0
  7  8  1  0  0  0  0
  7 40  1  0  0  0  0
  8  9  1  0  0  0  0
  8 46  1  0  0  0  0
  9 10  2  0  0  0  0
  9 11  1  0  0  0  0
 11 12  1  0  0  0  0
 11 47  1  0  0  0  0
 12 13  1  0  0  0  0
 12 38  2  0  0  0  0
 13 14  2  0  0  0  0
 13 48  1  0  0  0  0
 14 15  1  0  0  0  0
 14 49  1  0  0  0  0
 15 16  1  0  0  0  0
 15 37  2  0  0  0  0
 16 17  1  0  0  0  0
 17 18  1  0  0  0  0
 17 36  2  0  0  0  0
 18 19  2  0  0  0  0
 18 50  1  0  0  0  0
 19 20  1  0  0  0  0
 19 51  1  0  0  0  0
 20 21  2  0  0  0  0
 21 22  1  0  0  0  0
 21 36  1  0  0  0  0
 22 23  2  0  0  0  0
 22 35  1  0  0  0  0
 23 24  1  0  0  0  0
 23 52  1  0  0  0  0
 24 25  1  0  0  0  0
 24 34  2  0  0  0  0
 25 26  2  0  0  0  0
 25 27  1  0  0  0  0
 27 28  1  0  0  0  0
 27 53  1  0  0  0  0
 28 29  1  0  0  0  0
 28 54  1  0  0  0  0
 28 55  1  0  0  0  0
 29 30  1  0  0  0  0
 29 56  1  0  0  0  0
 29 57  1  0  0  0  0
 30 31  1  0  0  0  0
 30 58  1  0  0  0  0
 30 59  1  0  0  0  0
 31 32  2  0  0  0  0
 31 33  1  0  0  0  0
 33 60  1  0  0  0  0
 34 35  1  0  0  0  0
 34 61  1  0  0  0  0
 35 62  1  0  0  0  0
 36 63  1  0  0  0  0
 37 38  1  0  0  0  0
 37 64  1  0  0  0  0
 38 39  1  0  0  0  0
 40 65  1  0  0  0  0
M  END
$$$$
