CHEMBL257546
 OpenBabel04072215363D

 55 59  0  0  0  0  0  0  0  0999 V2000
    4.9641   -3.7490   -5.8437 O   0  0  0  0  0  0  0  0  0  0  0  0
    4.3603   -2.8112   -5.3359 C   0  0  0  0  0  0  0  0  0  0  0  0
    3.1026   -2.1891   -5.8772 C   0  0  0  0  0  0  0  0  0  0  0  0
    2.5332   -2.7527   -7.1518 C   0  0  0  0  0  0  0  0  0  0  0  0
    2.1823   -4.1032   -7.2625 C   0  0  0  0  0  0  0  0  0  0  0  0
    1.4836   -4.5546   -8.3804 C   0  0  0  0  0  0  0  0  0  0  0  0
    1.1309   -3.6636   -9.3926 C   0  0  0  0  0  0  0  0  0  0  0  0
    1.4987   -2.3203   -9.3010 C   0  0  0  0  0  0  0  0  0  0  0  0
    2.1986   -1.8681   -8.1873 C   0  0  0  0  0  0  0  0  0  0  0  0
    4.8593   -2.2713   -4.1528 N   0  0  0  0  0  0  0  0  0  0  0  0
    4.4592   -1.3155   -3.2079 C   0  0  0  0  0  0  0  0  0  0  0  0
    3.0654   -0.4109   -3.1455 S   0  0  0  0  0  0  0  0  0  0  0  0
    5.3255   -1.2127   -2.1432 N   0  0  0  0  0  0  0  0  0  0  0  0
    6.7254   -1.2865   -2.1842 C   0  0  0  0  0  0  0  0  0  0  0  0
    7.3945   -1.5743   -0.9989 C   0  0  0  0  0  0  0  0  0  0  0  0
    8.7839   -1.6646   -0.9901 C   0  0  0  0  0  0  0  0  0  0  0  0
    9.5113   -1.5067   -2.1780 C   0  0  0  0  0  0  0  0  0  0  0  0
   10.8762   -1.6453   -2.2723 O   0  0  0  0  0  0  0  0  0  0  0  0
   11.5144   -2.5607   -1.4648 C   0  0  0  0  0  0  0  0  0  0  0  0
   10.9456   -3.7783   -1.0835 C   0  0  0  0  0  0  0  0  0  0  0  0
   11.6251   -4.5900   -0.2006 C   0  0  0  0  0  0  0  0  0  0  0  0
   12.8518   -4.3411    0.2837 N   0  0  0  0  0  0  0  0  0  0  0  0
   13.4516   -3.2136   -0.1789 C   0  0  0  0  0  0  0  0  0  0  0  0
   14.7751   -2.8196    0.1505 C   0  0  0  0  0  0  0  0  0  0  0  0
   15.1643   -1.6511   -0.4722 C   0  0  0  0  0  0  0  0  0  0  0  0
   16.4436   -0.9542   -0.4014 C   0  0  0  0  0  0  0  0  0  0  0  0
   16.5536    0.2695   -0.4275 O   0  0  0  0  0  0  0  0  0  0  0  0
   17.5942   -1.8316   -0.2505 C   0  0  0  0  0  0  0  0  0  0  0  0
   18.8190   -1.6267    0.3602 C   0  0  0  0  0  0  0  0  0  0  0  0
   19.5832   -2.8019    0.1548 C   0  0  0  0  0  0  0  0  0  0  0  0
   18.7896   -3.6503   -0.5793 C   0  0  0  0  0  0  0  0  0  0  0  0
   17.5839   -3.0791   -0.8226 O   0  0  0  0  0  0  0  0  0  0  0  0
   13.8773   -0.9863   -1.3878 S   0  0  0  0  0  0  0  0  0  0  0  0
   12.8291   -2.3083   -1.0348 C   0  0  0  0  0  0  0  0  0  0  0  0
    8.8360   -1.1505   -3.3435 C   0  0  0  0  0  0  0  0  0  0  0  0
    9.5107   -0.9273   -4.4786 F   0  0  0  0  0  0  0  0  0  0  0  0
    7.4521   -1.0339   -3.3536 C   0  0  0  0  0  0  0  0  0  0  0  0
    3.3136   -1.1271   -6.0241 H   0  0  0  0  0  0  0  0  0  0  0  0
    2.3132   -2.3044   -5.1230 H   0  0  0  0  0  0  0  0  0  0  0  0
    2.4280   -4.8064   -6.4688 H   0  0  0  0  0  0  0  0  0  0  0  0
    1.1952   -5.6001   -8.4534 H   0  0  0  0  0  0  0  0  0  0  0  0
    0.5630   -4.0096  -10.2507 H   0  0  0  0  0  0  0  0  0  0  0  0
    1.2208   -1.6225  -10.0833 H   0  0  0  0  0  0  0  0  0  0  0  0
    2.4509   -0.8145   -8.1144 H   0  0  0  0  0  0  0  0  0  0  0  0
    5.6773   -2.7988   -3.8785 H   0  0  0  0  0  0  0  0  0  0  0  0
    4.9003   -0.9170   -1.2691 H   0  0  0  0  0  0  0  0  0  0  0  0
    6.8424   -1.7748   -0.0808 H   0  0  0  0  0  0  0  0  0  0  0  0
    9.2845   -1.8901   -0.0522 H   0  0  0  0  0  0  0  0  0  0  0  0
    9.9674   -4.0866   -1.4369 H   0  0  0  0  0  0  0  0  0  0  0  0
   11.1689   -5.5074    0.1634 H   0  0  0  0  0  0  0  0  0  0  0  0
   15.4121   -3.3957    0.8114 H   0  0  0  0  0  0  0  0  0  0  0  0
   19.1158   -0.7318    0.8906 H   0  0  0  0  0  0  0  0  0  0  0  0
   20.5924   -3.0020    0.4872 H   0  0  0  0  0  0  0  0  0  0  0  0
   18.9292   -4.6407   -0.9904 H   0  0  0  0  0  0  0  0  0  0  0  0
    6.9752   -0.7167   -4.2753 H   0  0  0  0  0  0  0  0  0  0  0  0
  1  2  2  0  0  0  0
  2  3  1  0  0  0  0
  2 10  1  0  0  0  0
  3  4  1  0  0  0  0
  3 38  1  0  0  0  0
  3 39  1  0  0  0  0
  4  5  1  0  0  0  0
  4  9  2  0  0  0  0
  5  6  2  0  0  0  0
  5 40  1  0  0  0  0
  6  7  1  0  0  0  0
  6 41  1  0  0  0  0
  7  8  2  0  0  0  0
  7 42  1  0  0  0  0
  8  9  1  0  0  0  0
  8 43  1  0  0  0  0
  9 44  1  0  0  0  0
 10 11  1  0  0  0  0
 10 45  1  0  0  0  0
 11 12  2  0  0  0  0
 11 13  1  0  0  0  0
 13 14  1  0  0  0  0
 13 46  1  0  0  0  0
 14 15  1  0  0  0  0
 14 37  2  0  0  0  0
 15 16  2  0  0  0  0
 15 47  1  0  0  0  0
 16 17  1  0  0  0  0
 16 48  1  0  0  0  0
 17 18  1  0  0  0  0
 17 35  2  0  0  0  0
 18 19  1  0  0  0  0
 19 20  1  0  0  0  0
 19 34  2  0  0  0  0
 20 21  2  0  0  0  0
 20 49  1  0  0  0  0
 21 22  1  0  0  0  0
 21 50  1  0  0  0  0
 22 23  2  0  0  0  0
 23 24  1  0  0  0  0
 23 34  1  0  0  0  0
 24 25  2  0  0  0  0
 24 51  1  0  0  0  0
 25 26  1  0  0  0  0
 25 33  1  0  0  0  0
 26 27  2  0  0  0  0
 26 28  1  0  0  0  0
 28 29  2  0  0  0  0
 28 32  1  0  0  0  0
 29 30  1  0  0  0  0
 29 52  1  0  0  0  0
 30 31  2  0  0  0  0
 30 53  1  0  0  0  0
 31 32  1  0  0  0  0
 31 54  1  0  0  0  0
 33 34  1  0  0  0  0
 35 36  1  0  0  0  0
 35 37  1  0  0  0  0
 37 55  1  0  0  0  0
M  END
$$$$
