CHEMBL3648099
 OpenBabel04072215373D

 41 42  0  0  1  0  0  0  0  0999 V2000
    3.4512  -12.1526   17.5313 C   0  0  0  0  0  0  0  0  0  0  0  0
    5.0018  -11.4239   17.5837 S   0  0  3  0  0  0  0  0  0  0  0  0
    5.4764  -10.8936   19.0783 N   0  0  0  0  0  0  0  0  0  0  0  0
    5.8085  -12.5662   17.2338 O   0  0  0  0  0  0  0  0  0  0  0  0
    5.2198  -10.3131   16.2762 C   0  0  0  0  0  0  0  0  0  0  0  0
    4.3299   -9.2448   16.1616 C   0  0  0  0  0  0  0  0  0  0  0  0
    4.4575   -8.3508   15.0955 C   0  0  0  0  0  0  0  0  0  0  0  0
    5.4877   -8.4957   14.1585 C   0  0  0  0  0  0  0  0  0  0  0  0
    5.5576   -7.5948   13.0765 N   0  0  0  0  0  0  0  0  0  0  0  0
    6.7183   -7.2544   12.3759 C   0  0  0  0  0  0  0  0  0  0  0  0
    7.8784   -7.1863   13.0473 N   0  0  0  0  0  0  0  0  0  0  0  0
    8.9794   -6.8840   12.3456 C   0  0  0  0  0  0  0  0  0  0  0  0
    8.9582   -6.6330   10.9994 C   0  0  0  0  0  0  0  0  0  0  0  0
   10.5769   -6.3183   10.0798 Br  0  0  0  0  0  0  0  0  0  0  0  0
    7.7171   -6.7007   10.3685 C   0  0  0  0  0  0  0  0  0  0  0  0
    7.6215   -6.3435    9.0027 N   0  0  0  0  0  0  0  0  0  0  0  0
    6.4743   -6.8790    8.2423 C   0  0  2  0  0  0  0  0  0  0  0  0
    6.9015   -6.9384    6.7667 C   0  0  0  0  0  0  0  0  0  0  0  0
    5.2285   -5.9811    8.3787 C   0  0  0  0  0  0  0  0  0  0  0  0
    5.4757   -4.6736    7.8595 O   0  0  0  0  0  0  0  0  0  0  0  0
    6.5967   -7.0056   11.0564 N   0  0  0  0  0  0  0  0  0  0  0  0
    6.3671   -9.5818   14.2922 C   0  0  0  0  0  0  0  0  0  0  0  0
    6.2409  -10.4860   15.3487 C   0  0  0  0  0  0  0  0  0  0  0  0
    3.1787  -12.9475   18.2387 H   0  0  0  0  0  0  0  0  0  0  0  0
    2.7106  -11.8528   16.7766 H   0  0  0  0  0  0  0  0  0  0  0  0
    5.4920  -11.6816   19.7187 H   0  0  0  0  0  0  0  0  0  0  0  0
    4.8217  -10.2156   19.4518 H   0  0  0  0  0  0  0  0  0  0  0  0
    3.5398   -9.0942   16.8908 H   0  0  0  0  0  0  0  0  0  0  0  0
    3.7674   -7.5144   15.0146 H   0  0  0  0  0  0  0  0  0  0  0  0
    4.8209   -7.7373   12.3966 H   0  0  0  0  0  0  0  0  0  0  0  0
    9.8963   -6.8608   12.9270 H   0  0  0  0  0  0  0  0  0  0  0  0
    8.5042   -6.5976    8.5574 H   0  0  0  0  0  0  0  0  0  0  0  0
    6.2312   -7.8978    8.5694 H   0  0  0  0  0  0  0  0  0  0  0  0
    7.3420   -5.9892    6.4371 H   0  0  0  0  0  0  0  0  0  0  0  0
    6.0530   -7.1655    6.1140 H   0  0  0  0  0  0  0  0  0  0  0  0
    7.6611   -7.7138    6.6193 H   0  0  0  0  0  0  0  0  0  0  0  0
    4.9029   -5.8748    9.4164 H   0  0  0  0  0  0  0  0  0  0  0  0
    4.3944   -6.4078    7.8106 H   0  0  0  0  0  0  0  0  0  0  0  0
    6.3392   -4.4132    8.2336 H   0  0  0  0  0  0  0  0  0  0  0  0
    7.1656   -9.7391   13.5717 H   0  0  0  0  0  0  0  0  0  0  0  0
    6.9382  -11.3162   15.4339 H   0  0  0  0  0  0  0  0  0  0  0  0
  1  2  2  0  0  0  0
  1 24  1  0  0  0  0
  1 25  1  0  0  0  0
  2  3  1  0  0  0  0
  2  4  2  0  0  0  0
  2  5  1  0  0  0  0
  3 26  1  0  0  0  0
  3 27  1  0  0  0  0
  5  6  1  0  0  0  0
  5 23  2  0  0  0  0
  6  7  2  0  0  0  0
  6 28  1  0  0  0  0
  7  8  1  0  0  0  0
  7 29  1  0  0  0  0
  8  9  1  0  0  0  0
  8 22  2  0  0  0  0
  9 10  1  0  0  0  0
  9 30  1  0  0  0  0
 10 11  1  0  0  0  0
 10 21  2  0  0  0  0
 11 12  2  0  0  0  0
 12 13  1  0  0  0  0
 12 31  1  0  0  0  0
 13 14  1  0  0  0  0
 13 15  2  0  0  0  0
 15 16  1  0  0  0  0
 15 21  1  0  0  0  0
 16 32  1  0  0  0  0
 17 19  1  0  0  0  0
 17 18  1  0  0  0  0
 17 16  1  0  0  0  0
 17 33  1  1  0  0  0
 18 34  1  0  0  0  0
 18 35  1  0  0  0  0
 18 36  1  0  0  0  0
 19 20  1  0  0  0  0
 19 37  1  0  0  0  0
 19 38  1  0  0  0  0
 20 39  1  0  0  0  0
 22 23  1  0  0  0  0
 22 40  1  0  0  0  0
 23 41  1  0  0  0  0
M  END
$$$$
