CHEMBL3945028
 OpenBabel04072215373D

 50 54  0  0  1  0  0  0  0  0999 V2000
    3.7900    1.7609   -2.7333 C   0  0  0  0  0  0  0  0  0  0  0  0
    3.5502    1.0456   -1.5110 O   0  0  0  0  0  0  0  0  0  0  0  0
    3.6034   -0.3033   -1.7369 C   0  0  0  0  0  0  0  0  0  0  0  0
    4.5976   -1.0307   -1.1069 C   0  0  0  0  0  0  0  0  0  0  0  0
    4.7847   -2.3922   -1.4157 C   0  0  0  0  0  0  0  0  0  0  0  0
    5.6617   -3.2646   -0.7497 C   0  0  0  0  0  0  0  0  0  0  0  0
    6.1931   -3.0075    0.5279 N   0  0  0  0  0  0  0  0  0  0  0  0
    5.6410   -2.3674    1.6575 C   0  0  0  0  0  0  0  0  0  0  0  0
    4.2685   -2.1509    1.8395 C   0  0  0  0  0  0  0  0  0  0  0  0
    3.7969   -1.3611    2.8953 C   0  0  0  0  0  0  0  0  0  0  0  0
    4.6933   -0.7883    3.7999 C   0  0  0  0  0  0  0  0  0  0  0  0
    3.9847    0.3557    5.1398 Br  0  0  0  0  0  0  0  0  0  0  0  0
    6.0581   -1.0531    3.6740 C   0  0  0  0  0  0  0  0  0  0  0  0
    7.2397   -0.4024    4.7552 Cl  0  0  0  0  0  0  0  0  0  0  0  0
    6.5211   -1.8489    2.6180 C   0  0  0  0  0  0  0  0  0  0  0  0
    6.0609   -4.4206   -1.2996 N   0  0  0  0  0  0  0  0  0  0  0  0
    5.4779   -4.7529   -2.4584 C   0  0  0  0  0  0  0  0  0  0  0  0
    4.4570   -4.1074   -3.0427 N   0  0  0  0  0  0  0  0  0  0  0  0
    4.0867   -2.9401   -2.5001 C   0  0  0  0  0  0  0  0  0  0  0  0
    2.9826   -2.2304   -3.0021 C   0  0  0  0  0  0  0  0  0  0  0  0
    2.6678   -0.9568   -2.5396 C   0  0  0  0  0  0  0  0  0  0  0  0
    1.5306   -0.2356   -2.7630 O   0  0  0  0  0  0  0  0  0  0  0  0
    0.3400   -0.8489   -3.2571 C   0  0  2  0  0  0  0  0  0  0  0  0
   -0.6816    0.2830   -3.4296 C   0  0  0  0  0  0  0  0  0  0  0  0
   -1.4571    0.3655   -2.2234 O   0  0  0  0  0  0  0  0  0  0  0  0
   -1.4684   -0.9332   -1.6224 C   0  0  2  0  0  0  0  0  0  0  0  0
   -1.0883   -0.8773   -0.1575 C   0  0  1  0  0  0  0  0  0  0  0  0
   -2.1640   -1.3753    0.6481 O   0  0  0  0  0  0  0  0  0  0  0  0
    0.1288   -1.7839   -0.0374 C   0  0  0  0  0  0  0  0  0  0  0  0
    0.3821   -2.4164   -1.2981 O   0  0  0  0  0  0  0  0  0  0  0  0
   -0.4086   -1.7794   -2.2985 C   0  0  2  0  0  0  0  0  0  0  0  0
    4.8682    1.8751   -2.8915 H   0  0  0  0  0  0  0  0  0  0  0  0
    3.3558    1.2907   -3.6248 H   0  0  0  0  0  0  0  0  0  0  0  0
    3.3438    2.7539   -2.6375 H   0  0  0  0  0  0  0  0  0  0  0  0
    5.2507   -0.5314   -0.3948 H   0  0  0  0  0  0  0  0  0  0  0  0
    6.8129   -3.7759    0.7757 H   0  0  0  0  0  0  0  0  0  0  0  0
    3.5413   -2.5766    1.1510 H   0  0  0  0  0  0  0  0  0  0  0  0
    2.7279   -1.1801    2.9871 H   0  0  0  0  0  0  0  0  0  0  0  0
    7.5890   -2.0249    2.5104 H   0  0  0  0  0  0  0  0  0  0  0  0
    5.8679   -5.6293   -2.9654 H   0  0  0  0  0  0  0  0  0  0  0  0
    2.3887   -2.7045   -3.7771 H   0  0  0  0  0  0  0  0  0  0  0  0
    0.5495   -1.3027   -4.2300 H   0  0  0  0  0  0  0  0  0  0  0  0
   -1.3761    0.0729   -4.2488 H   0  0  0  0  0  0  0  0  0  0  0  0
   -0.2227    1.2640   -3.5938 H   0  0  0  0  0  0  0  0  0  0  0  0
   -2.4699   -1.3614   -1.7689 H   0  0  0  0  0  0  0  0  0  0  0  0
   -0.8719    0.1400    0.1866 H   0  0  0  0  0  0  0  0  0  0  0  0
   -1.9081   -1.2627    1.5799 H   0  0  0  0  0  0  0  0  0  0  0  0
   -0.0016   -2.5668    0.7173 H   0  0  0  0  0  0  0  0  0  0  0  0
    1.0158   -1.2005    0.2272 H   0  0  0  0  0  0  0  0  0  0  0  0
   -0.8945   -2.5656   -2.8857 H   0  0  0  0  0  0  0  0  0  0  0  0
  1  2  1  0  0  0  0
  1 32  1  0  0  0  0
  1 33  1  0  0  0  0
  1 34  1  0  0  0  0
  2  3  1  0  0  0  0
  3  4  1  0  0  0  0
  3 21  2  0  0  0  0
  4  5  2  0  0  0  0
  4 35  1  0  0  0  0
  5  6  1  0  0  0  0
  5 19  1  0  0  0  0
  6  7  1  0  0  0  0
  6 16  2  0  0  0  0
  7  8  1  0  0  0  0
  7 36  1  0  0  0  0
  8  9  1  0  0  0  0
  8 15  2  0  0  0  0
  9 10  2  0  0  0  0
  9 37  1  0  0  0  0
 10 11  1  0  0  0  0
 10 38  1  0  0  0  0
 11 12  1  0  0  0  0
 11 13  2  0  0  0  0
 13 14  1  0  0  0  0
 13 15  1  0  0  0  0
 15 39  1  0  0  0  0
 16 17  1  0  0  0  0
 17 18  2  0  0  0  0
 17 40  1  0  0  0  0
 18 19  1  0  0  0  0
 19 20  2  0  0  0  0
 20 21  1  0  0  0  0
 20 41  1  0  0  0  0
 21 22  1  0  0  0  0
 22 23  1  0  0  0  0
 23 24  1  0  0  0  0
 23 31  1  0  0  0  0
 23 42  1  6  0  0  0
 24 25  1  0  0  0  0
 24 43  1  0  0  0  0
 24 44  1  0  0  0  0
 25 26  1  0  0  0  0
 26 27  1  0  0  0  0
 26 31  1  0  0  0  0
 26 45  1  6  0  0  0
 27 28  1  0  0  0  0
 27 29  1  0  0  0  0
 27 46  1  1  0  0  0
 28 47  1  0  0  0  0
 29 30  1  0  0  0  0
 29 48  1  0  0  0  0
 29 49  1  0  0  0  0
 30 31  1  0  0  0  0
 31 50  1  6  0  0  0
M  END
$$$$
