CHEMBL3823520
 OpenBabel04072215373D

 77 82  0  0  0  0  0  0  0  0999 V2000
    2.4566    0.2504   -1.2354 C   0  0  0  0  0  0  0  0  0  0  0  0
    2.6414   -0.2227    0.0955 O   0  0  0  0  0  0  0  0  0  0  0  0
    3.2410    0.6143    0.9975 C   0  0  0  0  0  0  0  0  0  0  0  0
    4.2657    1.4922    0.6279 C   0  0  0  0  0  0  0  0  0  0  0  0
    4.8590    2.3732    1.5586 C   0  0  0  0  0  0  0  0  0  0  0  0
    5.8723    3.2984    1.2231 C   0  0  0  0  0  0  0  0  0  0  0  0
    6.2836    3.3729   -0.0954 O   0  0  0  0  0  0  0  0  0  0  0  0
    6.6762    4.5882   -0.6150 C   0  0  0  0  0  0  0  0  0  0  0  0
    7.7332    4.5530   -1.5219 C   0  0  0  0  0  0  0  0  0  0  0  0
    8.1668    5.7301   -2.1445 C   0  0  0  0  0  0  0  0  0  0  0  0
    7.5469    6.9573   -1.8803 C   0  0  0  0  0  0  0  0  0  0  0  0
    7.8943    8.1581   -2.5365 N   0  0  0  0  0  0  0  0  0  0  0  0
    8.6085    8.2508   -3.7189 C   0  0  0  0  0  0  0  0  0  0  0  0
    9.0504    7.3071   -4.3649 O   0  0  0  0  0  0  0  0  0  0  0  0
    8.7797    9.6118   -4.2076 C   0  0  0  0  0  0  0  0  0  0  0  0
    9.3742    9.9725   -5.3933 C   0  0  0  0  0  0  0  0  0  0  0  0
    9.3224   11.3407   -5.4390 N   0  0  0  0  0  0  0  0  0  0  0  0
    9.8260   12.2321   -6.4196 C   0  0  0  0  0  0  0  0  0  0  0  0
   10.1725   13.5330   -6.0007 C   0  0  0  0  0  0  0  0  0  0  0  0
   10.7805   14.4290   -6.8852 C   0  0  0  0  0  0  0  0  0  0  0  0
   11.0295   14.0495   -8.1994 C   0  0  0  0  0  0  0  0  0  0  0  0
   10.6445   12.7857   -8.6397 C   0  0  0  0  0  0  0  0  0  0  0  0
   10.0356   11.8757   -7.7628 C   0  0  0  0  0  0  0  0  0  0  0  0
    9.4644   10.4189   -8.5018 Cl  0  0  0  0  0  0  0  0  0  0  0  0
    8.7616   11.7904   -4.2768 N   0  0  0  0  0  0  0  0  0  0  0  0
    8.3887   10.7474   -3.5442 N   0  0  0  0  0  0  0  0  0  0  0  0
    6.5135    6.9966   -0.9429 C   0  0  0  0  0  0  0  0  0  0  0  0
    6.0622    5.8153   -0.3490 C   0  0  0  0  0  0  0  0  0  0  0  0
    5.0124    5.8953    0.4812 F   0  0  0  0  0  0  0  0  0  0  0  0
    6.4646    4.0699    2.2171 C   0  0  0  0  0  0  0  0  0  0  0  0
    5.9525    3.9767    3.4916 C   0  0  0  0  0  0  0  0  0  0  0  0
    4.9558    3.1399    3.8435 N   0  0  0  0  0  0  0  0  0  0  0  0
    4.4314    2.3418    2.8993 C   0  0  0  0  0  0  0  0  0  0  0  0
    3.4531    1.4312    3.2665 C   0  0  0  0  0  0  0  0  0  0  0  0
    2.8794    0.5379    2.3535 C   0  0  0  0  0  0  0  0  0  0  0  0
    2.0003   -0.3460    2.9358 O   0  0  0  0  0  0  0  0  0  0  0  0
    1.8856   -1.6043    2.2774 C   0  0  0  0  0  0  0  0  0  0  0  0
    1.5705   -2.7166    3.2717 C   0  0  0  0  0  0  0  0  0  0  0  0
    1.4949   -4.0374    2.4933 C   0  0  0  0  0  0  0  0  0  0  0  0
    1.2752   -5.2210    3.3298 N   0  0  0  0  0  0  0  0  0  0  0  0
   -0.0352   -5.1978    3.9940 C   0  0  0  0  0  0  0  0  0  0  0  0
   -0.1648   -6.3868    4.9435 C   0  0  0  0  0  0  0  0  0  0  0  0
    0.0364   -7.7087    4.2131 C   0  0  0  0  0  0  0  0  0  0  0  0
    1.3255   -7.6877    3.3995 C   0  0  0  0  0  0  0  0  0  0  0  0
    1.4073   -6.4437    2.5162 C   0  0  0  0  0  0  0  0  0  0  0  0
    2.2843   -0.6236   -1.8711 H   0  0  0  0  0  0  0  0  0  0  0  0
    3.3194    0.7699   -1.6550 H   0  0  0  0  0  0  0  0  0  0  0  0
    1.5717    0.8919   -1.2881 H   0  0  0  0  0  0  0  0  0  0  0  0
    4.6635    1.4792   -0.3803 H   0  0  0  0  0  0  0  0  0  0  0  0
    8.2263    3.6125   -1.7557 H   0  0  0  0  0  0  0  0  0  0  0  0
    9.0061    5.6528   -2.8306 H   0  0  0  0  0  0  0  0  0  0  0  0
    7.4783    9.0226   -2.2033 H   0  0  0  0  0  0  0  0  0  0  0  0
    9.8613    9.3624   -6.1369 H   0  0  0  0  0  0  0  0  0  0  0  0
   10.0142   13.8564   -4.9729 H   0  0  0  0  0  0  0  0  0  0  0  0
   11.0712   15.4187   -6.5406 H   0  0  0  0  0  0  0  0  0  0  0  0
   11.5095   14.7424   -8.8871 H   0  0  0  0  0  0  0  0  0  0  0  0
   10.8093   12.5179   -9.6824 H   0  0  0  0  0  0  0  0  0  0  0  0
    6.0089    7.9242   -0.6906 H   0  0  0  0  0  0  0  0  0  0  0  0
    7.2807    4.7508    2.0106 H   0  0  0  0  0  0  0  0  0  0  0  0
    6.3388    4.5982    4.2932 H   0  0  0  0  0  0  0  0  0  0  0  0
    3.1474    1.3915    4.3090 H   0  0  0  0  0  0  0  0  0  0  0  0
    2.8219   -1.8811    1.7808 H   0  0  0  0  0  0  0  0  0  0  0  0
    1.0696   -1.5363    1.5489 H   0  0  0  0  0  0  0  0  0  0  0  0
    0.6347   -2.4825    3.7901 H   0  0  0  0  0  0  0  0  0  0  0  0
    2.3499   -2.7638    4.0431 H   0  0  0  0  0  0  0  0  0  0  0  0
    2.4560   -4.1605    1.9747 H   0  0  0  0  0  0  0  0  0  0  0  0
    0.7245   -3.9651    1.7143 H   0  0  0  0  0  0  0  0  0  0  0  0
   -0.8490   -5.2089    3.2566 H   0  0  0  0  0  0  0  0  0  0  0  0
   -0.1546   -4.2922    4.5960 H   0  0  0  0  0  0  0  0  0  0  0  0
   -1.1502   -6.3710    5.4215 H   0  0  0  0  0  0  0  0  0  0  0  0
    0.5810   -6.2930    5.7435 H   0  0  0  0  0  0  0  0  0  0  0  0
   -0.8140   -7.8870    3.5440 H   0  0  0  0  0  0  0  0  0  0  0  0
    0.0608   -8.5334    4.9335 H   0  0  0  0  0  0  0  0  0  0  0  0
    1.3866   -8.5895    2.7797 H   0  0  0  0  0  0  0  0  0  0  0  0
    2.1876   -7.7073    4.0782 H   0  0  0  0  0  0  0  0  0  0  0  0
    0.6304   -6.4839    1.7400 H   0  0  0  0  0  0  0  0  0  0  0  0
    2.3767   -6.4561    2.0025 H   0  0  0  0  0  0  0  0  0  0  0  0
  1  2  1  0  0  0  0
  1 46  1  0  0  0  0
  1 47  1  0  0  0  0
  1 48  1  0  0  0  0
  2  3  1  0  0  0  0
  3  4  1  0  0  0  0
  3 35  2  0  0  0  0
  4  5  2  0  0  0  0
  4 49  1  0  0  0  0
  5  6  1  0  0  0  0
  5 33  1  0  0  0  0
  6  7  1  0  0  0  0
  6 30  2  0  0  0  0
  7  8  1  0  0  0  0
  8  9  1  0  0  0  0
  8 28  2  0  0  0  0
  9 10  2  0  0  0  0
  9 50  1  0  0  0  0
 10 11  1  0  0  0  0
 10 51  1  0  0  0  0
 11 12  1  0  0  0  0
 11 27  2  0  0  0  0
 12 13  1  0  0  0  0
 12 52  1  0  0  0  0
 13 14  2  0  0  0  0
 13 15  1  0  0  0  0
 15 16  2  0  0  0  0
 15 26  1  0  0  0  0
 16 17  1  0  0  0  0
 16 53  1  0  0  0  0
 17 18  1  0  0  0  0
 17 25  1  0  0  0  0
 18 19  1  0  0  0  0
 18 23  2  0  0  0  0
 19 20  2  0  0  0  0
 19 54  1  0  0  0  0
 20 21  1  0  0  0  0
 20 55  1  0  0  0  0
 21 22  2  0  0  0  0
 21 56  1  0  0  0  0
 22 23  1  0  0  0  0
 22 57  1  0  0  0  0
 23 24  1  0  0  0  0
 25 26  2  0  0  0  0
 27 28  1  0  0  0  0
 27 58  1  0  0  0  0
 28 29  1  0  0  0  0
 30 31  1  0  0  0  0
 30 59  1  0  0  0  0
 31 32  2  0  0  0  0
 31 60  1  0  0  0  0
 32 33  1  0  0  0  0
 33 34  2  0  0  0  0
 34 35  1  0  0  0  0
 34 61  1  0  0  0  0
 35 36  1  0  0  0  0
 36 37  1  0  0  0  0
 37 38  1  0  0  0  0
 37 62  1  0  0  0  0
 37 63  1  0  0  0  0
 38 39  1  0  0  0  0
 38 64  1  0  0  0  0
 38 65  1  0  0  0  0
 39 40  1  0  0  0  0
 39 66  1  0  0  0  0
 39 67  1  0  0  0  0
 40 41  1  0  0  0  0
 40 45  1  0  0  0  0
 41 42  1  0  0  0  0
 41 68  1  0  0  0  0
 41 69  1  0  0  0  0
 42 43  1  0  0  0  0
 42 70  1  0  0  0  0
 42 71  1  0  0  0  0
 43 44  1  0  0  0  0
 43 72  1  0  0  0  0
 43 73  1  0  0  0  0
 44 45  1  0  0  0  0
 44 74  1  0  0  0  0
 44 75  1  0  0  0  0
 45 76  1  0  0  0  0
 45 77  1  0  0  0  0
M  END
$$$$
