CHEMBL3943917
 OpenBabel04072215373D

 66 70  0  0  0  0  0  0  0  0999 V2000
    7.1573    3.0332   -0.8891 H   0  0  0  0  0  0  0  0  0  0  0  0
    6.5450    2.2488   -0.3965 C   0  0  0  0  0  0  0  0  0  0  0  0
    6.6770    2.3414    0.7028 H   0  0  0  0  0  0  0  0  0  0  0  0
    5.4836    2.4504   -0.6683 H   0  0  0  0  0  0  0  0  0  0  0  0
    6.9607    1.0019   -0.8498 O   0  0  0  0  0  0  0  0  0  0  0  0
    6.3395   -0.1974   -0.6465 C   0  0  0  0  0  0  0  0  0  0  0  0
    5.1634   -0.2947    0.1078 C   0  0  0  0  0  0  0  0  0  0  0  0
    4.4892   -1.5218    0.2350 C   0  0  0  0  0  0  0  0  0  0  0  0
    3.3801   -1.6457    1.0130 O   0  0  0  0  0  0  0  0  0  0  0  0
    2.8544   -0.6270    1.7874 C   0  0  0  0  0  0  0  0  0  0  0  0
    3.6416   -0.2032    2.4523 H   0  0  0  0  0  0  0  0  0  0  0  0
    2.4519    0.1724    1.1310 H   0  0  0  0  0  0  0  0  0  0  0  0
    2.0431   -1.0174    2.4329 H   0  0  0  0  0  0  0  0  0  0  0  0
    4.9748   -2.6481   -0.4494 C   0  0  0  0  0  0  0  0  0  0  0  0
    6.1814   -2.6040   -1.1783 C   0  0  0  0  0  0  0  0  0  0  0  0
    6.5862   -3.7536   -1.9575 N   0  0  0  0  0  0  0  0  0  0  0  0
    5.5156   -4.3646   -2.8416 C   0  0  0  0  0  0  0  0  0  0  0  0
    4.5835   -3.4481   -3.6369 C   0  0  0  0  0  0  0  0  0  0  0  0
    3.7338   -2.8749   -4.3380 C   0  0  0  0  0  0  0  0  0  0  0  0
    2.7206   -2.1536   -5.1630 C   0  0  0  0  0  0  0  0  0  0  0  0
    1.4135   -2.6534   -5.3973 C   0  0  0  0  0  0  0  0  0  0  0  0
    0.4984   -1.9108   -6.1764 C   0  0  0  0  0  0  0  0  0  0  0  0
    0.8632   -0.7188   -6.7124 N   0  0  0  0  0  0  0  0  0  0  0  0
    2.1075   -0.2129   -6.5255 C   0  0  0  0  0  0  0  0  0  0  0  0
    3.0512   -0.9177   -5.7568 C   0  0  0  0  0  0  0  0  0  0  0  0
    7.9296   -4.4058   -1.9767 C   0  0  0  0  0  0  0  0  0  0  0  0
    8.3659   -4.6496   -3.2642 C   0  0  0  0  0  0  0  0  0  0  0  0
    9.4087   -5.4480   -3.5373 C   0  0  0  0  0  0  0  0  0  0  0  0
   10.1382   -6.0612   -2.5784 C   0  0  0  0  0  0  0  0  0  0  0  0
   11.0219   -6.9139   -3.0762 N   0  0  0  0  0  0  0  0  0  0  0  0
   11.8817   -7.5953   -2.3576 C   0  0  0  0  0  0  0  0  0  0  0  0
   11.9843   -7.4074   -1.0052 C   0  0  0  0  0  0  0  0  0  0  0  0
   13.3305   -8.1291   -0.5214 C   0  0  0  0  0  0  0  0  0  0  0  0
   13.8417   -8.3604    0.7433 C   0  0  0  0  0  0  0  0  0  0  0  0
   15.1051   -8.8719    0.6641 N   0  0  0  0  0  0  0  0  0  0  0  0
   15.4812   -9.0149   -0.6004 N   0  0  0  0  0  0  0  0  0  0  0  0
   16.9152   -9.3799   -0.9619 C   0  0  0  0  0  0  0  0  0  0  0  0
   17.1887  -10.7198   -1.6948 C   0  0  0  0  0  0  0  0  0  0  0  0
   17.6317   -8.2510   -1.7315 C   0  0  0  0  0  0  0  0  0  0  0  0
   14.4170   -8.6287   -1.3691 C   0  0  0  0  0  0  0  0  0  0  0  0
   10.9746   -6.5565   -0.3952 N   0  0  0  0  0  0  0  0  0  0  0  0
    9.9841   -5.8642   -1.2008 C   0  0  0  0  0  0  0  0  0  0  0  0
    8.7887   -4.9698   -0.8631 C   0  0  0  0  0  0  0  0  0  0  0  0
    6.8683   -1.3630   -1.2522 C   0  0  0  0  0  0  0  0  0  0  0  0
    4.7661    0.5898    0.5864 H   0  0  0  0  0  0  0  0  0  0  0  0
    4.4184   -3.5758   -0.4011 H   0  0  0  0  0  0  0  0  0  0  0  0
    4.9125   -5.0567   -2.2489 H   0  0  0  0  0  0  0  0  0  0  0  0
    5.9562   -5.0503   -3.6101 H   0  0  0  0  0  0  0  0  0  0  0  0
    1.0841   -3.5940   -4.9853 H   0  0  0  0  0  0  0  0  0  0  0  0
   -0.5112   -2.2712   -6.3538 H   0  0  0  0  0  0  0  0  0  0  0  0
    2.3568    0.7453   -6.9687 H   0  0  0  0  0  0  0  0  0  0  0  0
    4.0335   -0.4877   -5.6258 H   0  0  0  0  0  0  0  0  0  0  0  0
    7.8557   -4.2544   -4.1261 H   0  0  0  0  0  0  0  0  0  0  0  0
    9.6559   -5.6426   -4.5644 H   0  0  0  0  0  0  0  0  0  0  0  0
   12.5081   -8.2461   -2.9150 H   0  0  0  0  0  0  0  0  0  0  0  0
   13.3621   -8.1423    1.6767 H   0  0  0  0  0  0  0  0  0  0  0  0
   17.4834   -9.4818   -0.0115 H   0  0  0  0  0  0  0  0  0  0  0  0
   16.7160  -10.7834   -2.6935 H   0  0  0  0  0  0  0  0  0  0  0  0
   16.9201  -11.5910   -1.0648 H   0  0  0  0  0  0  0  0  0  0  0  0
   18.2968  -10.8268   -1.8648 H   0  0  0  0  0  0  0  0  0  0  0  0
   17.1794   -8.0830   -2.7301 H   0  0  0  0  0  0  0  0  0  0  0  0
   18.7114   -8.5018   -1.8909 H   0  0  0  0  0  0  0  0  0  0  0  0
   17.6141   -7.3154   -1.1392 H   0  0  0  0  0  0  0  0  0  0  0  0
   14.4804   -8.6322   -2.4547 H   0  0  0  0  0  0  0  0  0  0  0  0
    8.4737   -4.7691    0.1654 H   0  0  0  0  0  0  0  0  0  0  0  0
    7.7693   -1.2623   -1.8402 H   0  0  0  0  0  0  0  0  0  0  0  0
  1  2  1  0  0  0  0
  2  3  1  0  0  0  0
  2  4  1  0  0  0  0
  2  5  1  0  0  0  0
  5  6  1  0  0  0  0
  6  7  1  0  0  0  0
  6 44  2  0  0  0  0
  7  8  2  0  0  0  0
  7 45  1  0  0  0  0
  8  9  1  0  0  0  0
  8 14  1  0  0  0  0
  9 10  1  0  0  0  0
 10 11  1  0  0  0  0
 10 12  1  0  0  0  0
 10 13  1  0  0  0  0
 14 15  2  0  0  0  0
 14 46  1  0  0  0  0
 15 16  1  0  0  0  0
 15 44  1  0  0  0  0
 16 17  1  0  0  0  0
 16 26  1  0  0  0  0
 17 18  1  0  0  0  0
 17 47  1  0  0  0  0
 17 48  1  0  0  0  0
 18 19  3  0  0  0  0
 19 20  1  0  0  0  0
 20 21  1  0  0  0  0
 20 25  2  0  0  0  0
 21 22  2  0  0  0  0
 21 49  1  0  0  0  0
 22 23  1  0  0  0  0
 22 50  1  0  0  0  0
 23 24  2  0  0  0  0
 24 25  1  0  0  0  0
 24 51  1  0  0  0  0
 25 52  1  0  0  0  0
 26 27  1  0  0  0  0
 26 43  2  0  0  0  0
 27 28  2  0  0  0  0
 27 53  1  0  0  0  0
 28 29  1  0  0  0  0
 28 54  1  0  0  0  0
 29 30  1  0  0  0  0
 29 42  2  0  0  0  0
 30 31  2  0  0  0  0
 31 32  1  0  0  0  0
 31 55  1  0  0  0  0
 32 33  1  0  0  0  0
 32 41  2  0  0  0  0
 33 34  1  0  0  0  0
 33 40  2  0  0  0  0
 34 35  2  0  0  0  0
 34 56  1  0  0  0  0
 35 36  1  0  0  0  0
 36 37  1  0  0  0  0
 36 40  1  0  0  0  0
 37 38  1  0  0  0  0
 37 39  1  0  0  0  0
 37 57  1  0  0  0  0
 38 58  1  0  0  0  0
 38 59  1  0  0  0  0
 38 60  1  0  0  0  0
 39 61  1  0  0  0  0
 39 62  1  0  0  0  0
 39 63  1  0  0  0  0
 40 64  1  0  0  0  0
 41 42  1  0  0  0  0
 42 43  1  0  0  0  0
 43 65  1  0  0  0  0
 44 66  1  0  0  0  0
M  ISO  6   1   2   3   2   4   2  11   2  12   2  13   2
M  END
$$$$
