CHEMBL257787
 OpenBabel04072215363D

 48 53  0  0  0  0  0  0  0  0999 V2000
    4.1208    0.4377    2.4974 C   0  0  0  0  0  0  0  0  0  0  0  0
    3.6978    0.2937    1.1514 O   0  0  0  0  0  0  0  0  0  0  0  0
    4.7287   -0.3404    0.4374 N   0  0  0  0  0  0  0  0  0  0  0  0
    4.3352   -0.4845   -0.7898 C   0  0  0  0  0  0  0  0  0  0  0  0
    5.1426   -1.1867   -1.7924 C   0  0  0  0  0  0  0  0  0  0  0  0
    4.5027   -1.3710   -3.0157 C   0  0  0  0  0  0  0  0  0  0  0  0
    5.0641   -2.2084   -3.9586 C   0  0  0  0  0  0  0  0  0  0  0  0
    6.2456   -2.8425   -3.5982 C   0  0  0  0  0  0  0  0  0  0  0  0
    6.8050   -3.9110   -4.2317 N   0  0  0  0  0  0  0  0  0  0  0  0
    7.9535   -4.2751   -3.6134 C   0  0  0  0  0  0  0  0  0  0  0  0
    8.7503   -5.3919   -3.7327 C   0  0  0  0  0  0  0  0  0  0  0  0
   10.1181   -5.0489   -3.8829 C   0  0  0  0  0  0  0  0  0  0  0  0
   10.4550   -4.2699   -2.7408 C   0  0  0  0  0  0  0  0  0  0  0  0
    9.4165   -3.4873   -1.9945 C   0  0  0  0  0  0  0  0  0  0  0  0
    8.1984   -3.2978   -2.7046 C   0  0  0  0  0  0  0  0  0  0  0  0
    7.0307   -2.5574   -2.4555 C   0  0  0  0  0  0  0  0  0  0  0  0
    6.4298   -1.7073   -1.5024 C   0  0  0  0  0  0  0  0  0  0  0  0
    9.7178   -3.2661   -0.6033 C   0  0  0  0  0  0  0  0  0  0  0  0
   11.0404   -3.8605   -0.5787 N   0  0  0  0  0  0  0  0  0  0  0  0
   11.4840   -4.4660   -1.7675 C   0  0  0  0  0  0  0  0  0  0  0  0
   12.5479   -5.1105   -1.7893 O   0  0  0  0  0  0  0  0  0  0  0  0
   10.5839   -5.5579   -5.2403 C   0  0  0  0  0  0  0  0  0  0  0  0
   11.7017   -5.7749   -6.0559 C   0  0  0  0  0  0  0  0  0  0  0  0
   11.2371   -6.4058   -7.2392 N   0  0  0  0  0  0  0  0  0  0  0  0
   11.8047   -7.3490   -8.1747 C   0  0  0  0  0  0  0  0  0  0  0  0
    9.9217   -6.2928   -7.3777 N   0  0  0  0  0  0  0  0  0  0  0  0
    9.5563   -6.0740   -6.1420 C   0  0  0  0  0  0  0  0  0  0  0  0
    8.1874   -6.4660   -5.7484 C   0  0  0  0  0  0  0  0  0  0  0  0
    8.2491   -6.6897   -4.2707 C   0  0  0  0  0  0  0  0  0  0  0  0
    3.2956    0.8588    3.0753 H   0  0  0  0  0  0  0  0  0  0  0  0
    4.9757    1.1200    2.5454 H   0  0  0  0  0  0  0  0  0  0  0  0
    4.3900   -0.5357    2.9207 H   0  0  0  0  0  0  0  0  0  0  0  0
    3.3326   -0.1295   -1.0995 H   0  0  0  0  0  0  0  0  0  0  0  0
    3.5343   -0.9342   -3.2311 H   0  0  0  0  0  0  0  0  0  0  0  0
    4.5590   -2.4331   -4.8952 H   0  0  0  0  0  0  0  0  0  0  0  0
    6.4014   -4.3645   -5.0369 H   0  0  0  0  0  0  0  0  0  0  0  0
    6.8970   -1.5227   -0.5387 H   0  0  0  0  0  0  0  0  0  0  0  0
    9.0461   -3.8561    0.0287 H   0  0  0  0  0  0  0  0  0  0  0  0
    9.7417   -2.2242   -0.2798 H   0  0  0  0  0  0  0  0  0  0  0  0
   11.4935   -4.1041    0.3186 H   0  0  0  0  0  0  0  0  0  0  0  0
   12.7676   -5.6195   -5.9459 H   0  0  0  0  0  0  0  0  0  0  0  0
   12.2662   -6.8154   -9.0095 H   0  0  0  0  0  0  0  0  0  0  0  0
   10.9772   -7.9473   -8.6057 H   0  0  0  0  0  0  0  0  0  0  0  0
   12.4647   -8.0493   -7.6795 H   0  0  0  0  0  0  0  0  0  0  0  0
    7.8602   -7.3772   -6.2386 H   0  0  0  0  0  0  0  0  0  0  0  0
    7.4937   -5.6705   -6.0433 H   0  0  0  0  0  0  0  0  0  0  0  0
    8.9810   -7.4719   -3.9926 H   0  0  0  0  0  0  0  0  0  0  0  0
    7.3030   -6.9562   -3.8061 H   0  0  0  0  0  0  0  0  0  0  0  0
  1  2  1  0  0  0  0
  1 30  1  0  0  0  0
  1 31  1  0  0  0  0
  1 32  1  0  0  0  0
  2  3  1  0  0  0  0
  3  4  2  0  0  0  0
  4  5  1  0  0  0  0
  4 33  1  0  0  0  0
  5  6  1  0  0  0  0
  5 17  2  0  0  0  0
  6  7  2  0  0  0  0
  6 34  1  0  0  0  0
  7  8  1  0  0  0  0
  7 35  1  0  0  0  0
  8  9  1  0  0  0  0
  8 16  2  0  0  0  0
  9 10  1  0  0  0  0
  9 36  1  0  0  0  0
 10 11  1  0  0  0  0
 10 15  2  0  0  0  0
 11 12  2  0  0  0  0
 11 29  1  0  0  0  0
 12 13  1  0  0  0  0
 12 22  1  0  0  0  0
 13 14  2  0  0  0  0
 13 20  1  0  0  0  0
 14 15  1  0  0  0  0
 14 18  1  0  0  0  0
 15 16  1  0  0  0  0
 16 17  1  0  0  0  0
 17 37  1  0  0  0  0
 18 19  1  0  0  0  0
 18 38  1  0  0  0  0
 18 39  1  0  0  0  0
 19 20  1  0  0  0  0
 19 40  1  0  0  0  0
 20 21  2  0  0  0  0
 22 23  2  0  0  0  0
 22 27  1  0  0  0  0
 23 24  1  0  0  0  0
 23 41  1  0  0  0  0
 24 25  1  0  0  0  0
 24 26  1  0  0  0  0
 25 42  1  0  0  0  0
 25 43  1  0  0  0  0
 25 44  1  0  0  0  0
 26 27  2  0  0  0  0
 27 28  1  0  0  0  0
 28 29  1  0  0  0  0
 28 45  1  0  0  0  0
 28 46  1  0  0  0  0
 29 47  1  0  0  0  0
 29 48  1  0  0  0  0
M  END
$$$$
