CHEMBL1682556
 OpenBabel04072215363D

 43 47  0  0  0  0  0  0  0  0999 V2000
   -1.7839    0.7588   -0.0597 C   0  0  0  0  0  0  0  0  0  0  0  0
   -0.6414    1.4558   -0.1351 C   0  0  0  0  0  0  0  0  0  0  0  0
    0.4750    0.6598    0.0673 N   0  0  0  0  0  0  0  0  0  0  0  0
    1.8504    0.7994    0.0940 C   0  0  0  0  0  0  0  0  0  0  0  0
    2.4915    1.9938   -0.0835 N   0  0  0  0  0  0  0  0  0  0  0  0
    1.9679    3.2874    0.3729 C   0  0  0  0  0  0  0  0  0  0  0  0
    1.8347    4.2164   -0.8443 C   0  0  0  0  0  0  0  0  0  0  0  0
    1.5064    5.6541   -0.4563 C   0  0  0  0  0  0  0  0  0  0  0  0
    2.5131    6.1867    0.5544 C   0  0  0  0  0  0  0  0  0  0  0  0
    2.5329    5.3177    1.8062 C   0  0  0  0  0  0  0  0  0  0  0  0
    2.8591    3.8591    1.4830 C   0  0  0  0  0  0  0  0  0  0  0  0
    2.3001   -0.5311    0.2126 C   0  0  0  0  0  0  0  0  0  0  0  0
    3.6690   -1.0489    0.1675 C   0  0  0  0  0  0  0  0  0  0  0  0
    3.8728   -2.3618   -0.3028 C   0  0  0  0  0  0  0  0  0  0  0  0
    5.1468   -2.9279   -0.4409 C   0  0  0  0  0  0  0  0  0  0  0  0
    6.2278   -2.1158   -0.1019 C   0  0  0  0  0  0  0  0  0  0  0  0
    7.5804   -2.3236   -0.1774 N   0  0  0  0  0  0  0  0  0  0  0  0
    8.3186   -1.2882    0.2611 N   0  0  0  0  0  0  0  0  0  0  0  0
    7.4009   -0.3901    0.6302 C   0  0  0  0  0  0  0  0  0  0  0  0
    6.0766   -0.8341    0.4138 C   0  0  0  0  0  0  0  0  0  0  0  0
    4.7823   -0.2994    0.5859 C   0  0  0  0  0  0  0  0  0  0  0  0
    1.2399   -1.4226    0.3295 N   0  0  0  0  0  0  0  0  0  0  0  0
    0.1909   -0.6578    0.2530 C   0  0  0  0  0  0  0  0  0  0  0  0
   -1.5204   -0.9612    0.2337 S   0  0  0  0  0  0  0  0  0  0  0  0
   -2.7758    1.1752   -0.1760 H   0  0  0  0  0  0  0  0  0  0  0  0
   -0.5629    2.5092   -0.3423 H   0  0  0  0  0  0  0  0  0  0  0  0
    3.4798    2.0013   -0.3283 H   0  0  0  0  0  0  0  0  0  0  0  0
    0.9827    3.1879    0.8367 H   0  0  0  0  0  0  0  0  0  0  0  0
    1.0502    3.8409   -1.5136 H   0  0  0  0  0  0  0  0  0  0  0  0
    2.7622    4.2061   -1.4302 H   0  0  0  0  0  0  0  0  0  0  0  0
    0.4948    5.7039   -0.0339 H   0  0  0  0  0  0  0  0  0  0  0  0
    1.5081    6.2871   -1.3510 H   0  0  0  0  0  0  0  0  0  0  0  0
    2.2590    7.2184    0.8212 H   0  0  0  0  0  0  0  0  0  0  0  0
    3.5126    6.2068    0.1031 H   0  0  0  0  0  0  0  0  0  0  0  0
    1.5549    5.3758    2.3013 H   0  0  0  0  0  0  0  0  0  0  0  0
    3.2699    5.7091    2.5160 H   0  0  0  0  0  0  0  0  0  0  0  0
    2.7204    3.2592    2.3926 H   0  0  0  0  0  0  0  0  0  0  0  0
    3.9174    3.7707    1.2136 H   0  0  0  0  0  0  0  0  0  0  0  0
    3.0108   -2.9685   -0.5861 H   0  0  0  0  0  0  0  0  0  0  0  0
    5.2754   -3.9382   -0.8149 H   0  0  0  0  0  0  0  0  0  0  0  0
    8.0614   -3.1412   -0.5353 H   0  0  0  0  0  0  0  0  0  0  0  0
    7.7324    0.5608    1.0251 H   0  0  0  0  0  0  0  0  0  0  0  0
    4.6617    0.6809    1.0305 H   0  0  0  0  0  0  0  0  0  0  0  0
  1  2  2  0  0  0  0
  1 24  1  0  0  0  0
  1 25  1  0  0  0  0
  2  3  1  0  0  0  0
  2 26  1  0  0  0  0
  3  4  1  0  0  0  0
  3 23  1  0  0  0  0
  4  5  1  0  0  0  0
  4 12  2  0  0  0  0
  5  6  1  0  0  0  0
  5 27  1  0  0  0  0
  6  7  1  0  0  0  0
  6 11  1  0  0  0  0
  6 28  1  0  0  0  0
  7  8  1  0  0  0  0
  7 29  1  0  0  0  0
  7 30  1  0  0  0  0
  8  9  1  0  0  0  0
  8 31  1  0  0  0  0
  8 32  1  0  0  0  0
  9 10  1  0  0  0  0
  9 33  1  0  0  0  0
  9 34  1  0  0  0  0
 10 11  1  0  0  0  0
 10 35  1  0  0  0  0
 10 36  1  0  0  0  0
 11 37  1  0  0  0  0
 11 38  1  0  0  0  0
 12 13  1  0  0  0  0
 12 22  1  0  0  0  0
 13 14  1  0  0  0  0
 13 21  2  0  0  0  0
 14 15  2  0  0  0  0
 14 39  1  0  0  0  0
 15 16  1  0  0  0  0
 15 40  1  0  0  0  0
 16 17  1  0  0  0  0
 16 20  2  0  0  0  0
 17 18  1  0  0  0  0
 17 41  1  0  0  0  0
 18 19  2  0  0  0  0
 19 20  1  0  0  0  0
 19 42  1  0  0  0  0
 20 21  1  0  0  0  0
 21 43  1  0  0  0  0
 22 23  2  0  0  0  0
 23 24  1  0  0  0  0
M  END
$$$$
