CHEMBL3742168
 OpenBabel04072215373D

 62 66  0  0  0  0  0  0  0  0999 V2000
   18.6115   -1.7125    4.8378 C   0  0  0  0  0  0  0  0  0  0  0  0
   17.7382   -2.8333    3.7764 S   0  0  0  0  0  0  0  0  0  0  0  0
   18.0903   -2.4295    2.4280 O   0  0  0  0  0  0  0  0  0  0  0  0
   18.0123   -4.1767    4.2290 O   0  0  0  0  0  0  0  0  0  0  0  0
   16.0416   -2.5384    3.7269 C   0  0  0  0  0  0  0  0  0  0  0  0
   15.3739   -3.2583    2.5666 C   0  0  0  0  0  0  0  0  0  0  0  0
   15.9717   -3.9501    1.5028 C   0  0  0  0  0  0  0  0  0  0  0  0
   15.2095   -4.5419    0.5016 C   0  0  0  0  0  0  0  0  0  0  0  0
   13.8241   -4.4644    0.5719 C   0  0  0  0  0  0  0  0  0  0  0  0
   13.1964   -3.7218    1.5737 C   0  0  0  0  0  0  0  0  0  0  0  0
   11.7942   -3.6090    1.6270 N   0  0  0  0  0  0  0  0  0  0  0  0
   11.0952   -2.8208    2.5602 C   0  0  0  0  0  0  0  0  0  0  0  0
   10.0318   -3.4037    3.1314 N   0  0  0  0  0  0  0  0  0  0  0  0
    9.4188   -2.7166    4.1117 C   0  0  0  0  0  0  0  0  0  0  0  0
    9.8347   -1.4797    4.5531 C   0  0  0  0  0  0  0  0  0  0  0  0
   10.9495   -0.9673    3.9291 C   0  0  0  0  0  0  0  0  0  0  0  0
   11.4557    0.2539    4.4004 O   0  0  0  0  0  0  0  0  0  0  0  0
   12.7758    0.5602    4.1241 C   0  0  0  0  0  0  0  0  0  0  0  0
   13.0909    1.7025    3.4001 C   0  0  0  0  0  0  0  0  0  0  0  0
   14.4414    1.9610    3.0185 C   0  0  0  0  0  0  0  0  0  0  0  0
   15.5382    1.1552    3.4411 C   0  0  0  0  0  0  0  0  0  0  0  0
   16.9612    1.3812    3.1742 C   0  0  0  0  0  0  0  0  0  0  0  0
   17.8192    0.4513    2.0791 C   0  0  0  0  0  0  0  0  0  0  0  0
   17.1926   -0.0280    1.1387 O   0  0  0  0  0  0  0  0  0  0  0  0
   19.2503    0.2373    2.2921 N   0  0  0  0  0  0  0  0  0  0  0  0
   20.2637   -0.8516    1.9372 C   0  0  0  0  0  0  0  0  0  0  0  0
   20.0968   -2.0859    1.2674 C   0  0  0  0  0  0  0  0  0  0  0  0
   20.9427   -3.2290    1.5170 C   0  0  0  0  0  0  0  0  0  0  0  0
   22.1267   -3.0692    2.1838 C   0  0  0  0  0  0  0  0  0  0  0  0
   22.9503   -4.1264    2.3937 F   0  0  0  0  0  0  0  0  0  0  0  0
   22.4751   -1.7978    2.5993 C   0  0  0  0  0  0  0  0  0  0  0  0
   21.5252   -0.7244    2.5338 C   0  0  0  0  0  0  0  0  0  0  0  0
   17.6589    1.7139    4.3251 C   0  0  0  0  0  0  0  0  0  0  0  0
   17.2390    1.1592    5.5467 C   0  0  0  0  0  0  0  0  0  0  0  0
   16.1002    0.3437    5.6125 C   0  0  0  0  0  0  0  0  0  0  0  0
   15.1626    0.4170    4.5833 C   0  0  0  0  0  0  0  0  0  0  0  0
   13.8324   -0.0572    4.7796 C   0  0  0  0  0  0  0  0  0  0  0  0
   11.5517   -1.5999    2.9116 N   0  0  0  0  0  0  0  0  0  0  0  0
   14.0003   -3.1002    2.5254 C   0  0  0  0  0  0  0  0  0  0  0  0
   19.6808   -1.9033    4.7267 H   0  0  0  0  0  0  0  0  0  0  0  0
   18.3042   -1.8561    5.8687 H   0  0  0  0  0  0  0  0  0  0  0  0
   18.4548   -0.6985    4.5130 H   0  0  0  0  0  0  0  0  0  0  0  0
   15.9410   -1.4885    3.4936 H   0  0  0  0  0  0  0  0  0  0  0  0
   15.6071   -2.7854    4.6963 H   0  0  0  0  0  0  0  0  0  0  0  0
   17.0445   -4.0471    1.3847 H   0  0  0  0  0  0  0  0  0  0  0  0
   15.6998   -5.0558   -0.3277 H   0  0  0  0  0  0  0  0  0  0  0  0
   13.2322   -4.9420   -0.1982 H   0  0  0  0  0  0  0  0  0  0  0  0
   11.3729   -4.5304    1.6624 H   0  0  0  0  0  0  0  0  0  0  0  0
    8.5626   -3.2222    4.5521 H   0  0  0  0  0  0  0  0  0  0  0  0
    9.3176   -0.9622    5.3472 H   0  0  0  0  0  0  0  0  0  0  0  0
   12.3024    2.4148    3.1614 H   0  0  0  0  0  0  0  0  0  0  0  0
   14.6383    2.8922    2.4871 H   0  0  0  0  0  0  0  0  0  0  0  0
   19.6571    0.8900    2.9505 H   0  0  0  0  0  0  0  0  0  0  0  0
   19.1982   -2.3165    0.6891 H   0  0  0  0  0  0  0  0  0  0  0  0
   20.6170   -4.2371    1.2537 H   0  0  0  0  0  0  0  0  0  0  0  0
   23.4344   -1.6648    3.0778 H   0  0  0  0  0  0  0  0  0  0  0  0
   21.8196    0.1977    3.0065 H   0  0  0  0  0  0  0  0  0  0  0  0
   18.5409    2.3418    4.2772 H   0  0  0  0  0  0  0  0  0  0  0  0
   17.8403    1.3066    6.4404 H   0  0  0  0  0  0  0  0  0  0  0  0
   15.8698   -0.1949    6.5301 H   0  0  0  0  0  0  0  0  0  0  0  0
   13.6158   -0.8212    5.5221 H   0  0  0  0  0  0  0  0  0  0  0  0
   13.5671   -2.4635    3.2870 H   0  0  0  0  0  0  0  0  0  0  0  0
  1  2  1  0  0  0  0
  1 40  1  0  0  0  0
  1 41  1  0  0  0  0
  1 42  1  0  0  0  0
  2  3  2  0  0  0  0
  2  4  2  0  0  0  0
  2  5  1  0  0  0  0
  5  6  1  0  0  0  0
  5 43  1  0  0  0  0
  5 44  1  0  0  0  0
  6  7  1  0  0  0  0
  6 39  2  0  0  0  0
  7  8  2  0  0  0  0
  7 45  1  0  0  0  0
  8  9  1  0  0  0  0
  8 46  1  0  0  0  0
  9 10  2  0  0  0  0
  9 47  1  0  0  0  0
 10 11  1  0  0  0  0
 10 39  1  0  0  0  0
 11 12  1  0  0  0  0
 11 48  1  0  0  0  0
 12 13  1  0  0  0  0
 12 38  2  0  0  0  0
 13 14  2  0  0  0  0
 14 15  1  0  0  0  0
 14 49  1  0  0  0  0
 15 16  2  0  0  0  0
 15 50  1  0  0  0  0
 16 17  1  0  0  0  0
 16 38  1  0  0  0  0
 17 18  1  0  0  0  0
 18 19  1  0  0  0  0
 18 37  2  0  0  0  0
 19 20  2  0  0  0  0
 19 51  1  0  0  0  0
 20 21  1  0  0  0  0
 20 52  1  0  0  0  0
 21 22  1  0  0  0  0
 21 36  2  0  0  0  0
 22 23  1  0  0  0  0
 22 33  2  0  0  0  0
 23 24  2  0  0  0  0
 23 25  1  0  0  0  0
 25 26  1  0  0  0  0
 25 53  1  0  0  0  0
 26 27  1  0  0  0  0
 26 32  2  0  0  0  0
 27 28  2  0  0  0  0
 27 54  1  0  0  0  0
 28 29  1  0  0  0  0
 28 55  1  0  0  0  0
 29 30  1  0  0  0  0
 29 31  2  0  0  0  0
 31 32  1  0  0  0  0
 31 56  1  0  0  0  0
 32 57  1  0  0  0  0
 33 34  1  0  0  0  0
 33 58  1  0  0  0  0
 34 35  2  0  0  0  0
 34 59  1  0  0  0  0
 35 36  1  0  0  0  0
 35 60  1  0  0  0  0
 36 37  1  0  0  0  0
 37 61  1  0  0  0  0
 39 62  1  0  0  0  0
M  END
$$$$
