CHEMBL2018884
 OpenBabel04072215363D

 54 57  0  0  0  0  0  0  0  0999 V2000
   10.1684    3.4726   -3.0766 C   0  0  0  0  0  0  0  0  0  0  0  0
   10.3014    4.4007   -1.9929 O   0  0  0  0  0  0  0  0  0  0  0  0
    9.2284    4.4647   -1.1409 C   0  0  0  0  0  0  0  0  0  0  0  0
    8.4465    3.3232   -0.8867 C   0  0  0  0  0  0  0  0  0  0  0  0
    7.2648    3.3774   -0.1705 C   0  0  0  0  0  0  0  0  0  0  0  0
    6.5274    2.2645   -0.0802 N   0  0  0  0  0  0  0  0  0  0  0  0
    5.3395    2.3791    0.5213 C   0  0  0  0  0  0  0  0  0  0  0  0
    4.8309    3.4969    1.0360 N   0  0  0  0  0  0  0  0  0  0  0  0
    5.6262    4.5861    0.9931 C   0  0  0  0  0  0  0  0  0  0  0  0
    5.1375    5.7953    1.5064 O   0  0  0  0  0  0  0  0  0  0  0  0
    4.0665    5.7134    2.3678 C   0  0  0  0  0  0  0  0  0  0  0  0
    4.0623    4.8348    3.4395 C   0  0  0  0  0  0  0  0  0  0  0  0
    2.9316    4.7224    4.2434 C   0  0  0  0  0  0  0  0  0  0  0  0
    1.7865    5.5017    4.0279 C   0  0  0  0  0  0  0  0  0  0  0  0
    0.6185    5.3052    4.8108 N   0  0  0  0  0  0  0  0  0  0  0  0
    0.3767    4.2066    5.6333 C   0  0  0  0  0  0  0  0  0  0  0  0
    1.1386    3.2603    5.8021 O   0  0  0  0  0  0  0  0  0  0  0  0
   -0.8882    4.2459    6.2094 N   0  0  0  0  0  0  0  0  0  0  0  0
   -1.3173    3.1969    7.0646 C   0  0  0  0  0  0  0  0  0  0  0  0
   -2.5842    2.6442    6.8648 C   0  0  0  0  0  0  0  0  0  0  0  0
   -3.0037    1.5538    7.6331 C   0  0  0  0  0  0  0  0  0  0  0  0
   -2.1819    1.0462    8.6397 C   0  0  0  0  0  0  0  0  0  0  0  0
   -0.9357    1.6257    8.8668 C   0  0  0  0  0  0  0  0  0  0  0  0
    0.1643    0.9599   10.2547 Br  0  0  0  0  0  0  0  0  0  0  0  0
   -0.4949    2.6898    8.0791 C   0  0  0  0  0  0  0  0  0  0  0  0
    1.8204    6.4659    2.9938 C   0  0  0  0  0  0  0  0  0  0  0  0
    0.6869    7.4075    2.6779 C   0  0  0  0  0  0  0  0  0  0  0  0
    2.9809    6.5703    2.1813 C   0  0  0  0  0  0  0  0  0  0  0  0
    6.8803    4.5954    0.3827 C   0  0  0  0  0  0  0  0  0  0  0  0
    7.7359    5.7152    0.2733 C   0  0  0  0  0  0  0  0  0  0  0  0
    8.8992    5.6660   -0.5050 C   0  0  0  0  0  0  0  0  0  0  0  0
    9.5440    6.8700   -0.5288 O   0  0  0  0  0  0  0  0  0  0  0  0
   10.5873    7.0931   -1.4626 C   0  0  0  0  0  0  0  0  0  0  0  0
   10.6281    3.9124   -3.9656 H   0  0  0  0  0  0  0  0  0  0  0  0
    9.1275    3.2459   -3.3427 H   0  0  0  0  0  0  0  0  0  0  0  0
   10.7028    2.5496   -2.8324 H   0  0  0  0  0  0  0  0  0  0  0  0
    8.7363    2.3560   -1.2891 H   0  0  0  0  0  0  0  0  0  0  0  0
    4.7311    1.4836    0.5881 H   0  0  0  0  0  0  0  0  0  0  0  0
    4.9118    4.1872    3.6408 H   0  0  0  0  0  0  0  0  0  0  0  0
    2.9950    3.9986    5.0453 H   0  0  0  0  0  0  0  0  0  0  0  0
   -0.1177    5.9865    4.7373 H   0  0  0  0  0  0  0  0  0  0  0  0
   -1.6000    4.6626    5.6291 H   0  0  0  0  0  0  0  0  0  0  0  0
   -3.2285    3.0051    6.0687 H   0  0  0  0  0  0  0  0  0  0  0  0
   -3.9653    1.0880    7.4345 H   0  0  0  0  0  0  0  0  0  0  0  0
   -2.5165    0.2002    9.2346 H   0  0  0  0  0  0  0  0  0  0  0  0
    0.4880    3.1198    8.2550 H   0  0  0  0  0  0  0  0  0  0  0  0
   -0.2872    7.0000    2.9586 H   0  0  0  0  0  0  0  0  0  0  0  0
    0.6346    7.5991    1.5989 H   0  0  0  0  0  0  0  0  0  0  0  0
    0.8376    8.3630    3.1901 H   0  0  0  0  0  0  0  0  0  0  0  0
    3.0220    7.3001    1.3763 H   0  0  0  0  0  0  0  0  0  0  0  0
    7.4752    6.6505    0.7648 H   0  0  0  0  0  0  0  0  0  0  0  0
   10.7557    8.1752   -1.4989 H   0  0  0  0  0  0  0  0  0  0  0  0
   10.3127    6.7850   -2.4753 H   0  0  0  0  0  0  0  0  0  0  0  0
   11.5177    6.6259   -1.1268 H   0  0  0  0  0  0  0  0  0  0  0  0
  1  2  1  0  0  0  0
  1 34  1  0  0  0  0
  1 35  1  0  0  0  0
  1 36  1  0  0  0  0
  2  3  1  0  0  0  0
  3  4  1  0  0  0  0
  3 31  2  0  0  0  0
  4  5  2  0  0  0  0
  4 37  1  0  0  0  0
  5  6  1  0  0  0  0
  5 29  1  0  0  0  0
  6  7  2  0  0  0  0
  7  8  1  0  0  0  0
  7 38  1  0  0  0  0
  8  9  2  0  0  0  0
  9 10  1  0  0  0  0
  9 29  1  0  0  0  0
 10 11  1  0  0  0  0
 11 12  1  0  0  0  0
 11 28  2  0  0  0  0
 12 13  2  0  0  0  0
 12 39  1  0  0  0  0
 13 14  1  0  0  0  0
 13 40  1  0  0  0  0
 14 15  1  0  0  0  0
 14 26  2  0  0  0  0
 15 16  1  0  0  0  0
 15 41  1  0  0  0  0
 16 17  2  0  0  0  0
 16 18  1  0  0  0  0
 18 19  1  0  0  0  0
 18 42  1  0  0  0  0
 19 20  1  0  0  0  0
 19 25  2  0  0  0  0
 20 21  2  0  0  0  0
 20 43  1  0  0  0  0
 21 22  1  0  0  0  0
 21 44  1  0  0  0  0
 22 23  2  0  0  0  0
 22 45  1  0  0  0  0
 23 24  1  0  0  0  0
 23 25  1  0  0  0  0
 25 46  1  0  0  0  0
 26 27  1  0  0  0  0
 26 28  1  0  0  0  0
 27 47  1  0  0  0  0
 27 48  1  0  0  0  0
 27 49  1  0  0  0  0
 28 50  1  0  0  0  0
 29 30  2  0  0  0  0
 30 31  1  0  0  0  0
 30 51  1  0  0  0  0
 31 32  1  0  0  0  0
 32 33  1  0  0  0  0
 33 52  1  0  0  0  0
 33 53  1  0  0  0  0
 33 54  1  0  0  0  0
M  END
$$$$
