CHEMBL3969408
 OpenBabel04072215373D

 59 62  0  0  0  0  0  0  0  0999 V2000
    1.6840    0.7683    0.4978 C   0  0  0  0  0  0  0  0  0  0  0  0
    2.5302   -0.1493   -0.0797 O   0  0  0  0  0  0  0  0  0  0  0  0
    3.1441   -0.0976   -1.2949 C   0  0  0  0  0  0  0  0  0  0  0  0
    2.7305    0.6907   -2.3722 C   0  0  0  0  0  0  0  0  0  0  0  0
    3.4383    0.6316   -3.5927 C   0  0  0  0  0  0  0  0  0  0  0  0
    2.9505    1.4201   -4.7765 C   0  0  0  0  0  0  0  0  0  0  0  0
    4.0246    2.2521   -5.3053 N   0  0  0  0  0  0  0  0  0  0  0  0
    4.6117   -0.1575   -3.7054 C   0  0  0  0  0  0  0  0  0  0  0  0
    5.0914   -0.8852   -2.6054 C   0  0  0  0  0  0  0  0  0  0  0  0
    6.3517   -1.6178   -2.6297 N   0  0  0  0  0  0  0  0  0  0  0  0
    6.7576   -2.3852   -1.3967 C   0  0  0  0  0  0  0  0  0  0  0  0
    7.8651   -1.7330   -0.5334 C   0  0  0  0  0  0  0  0  0  0  0  0
    7.4783   -0.3203   -0.1731 C   0  0  0  0  0  0  0  0  0  0  0  0
    8.7281   -0.5852   -1.0315 C   0  0  0  0  0  0  0  0  0  0  0  0
    7.2785   -1.7594   -3.7543 C   0  0  0  0  0  0  0  0  0  0  0  0
    7.6262   -3.0907   -3.9883 C   0  0  0  0  0  0  0  0  0  0  0  0
    8.6797   -3.4486   -4.7352 C   0  0  0  0  0  0  0  0  0  0  0  0
    9.4403   -2.5233   -5.3617 C   0  0  0  0  0  0  0  0  0  0  0  0
   10.5156   -3.0262   -5.9341 N   0  0  0  0  0  0  0  0  0  0  0  0
   11.3691   -2.2967   -6.6090 C   0  0  0  0  0  0  0  0  0  0  0  0
   11.1520   -0.9358   -6.8439 C   0  0  0  0  0  0  0  0  0  0  0  0
   12.1944   -0.3850   -7.8751 C   0  0  0  0  0  0  0  0  0  0  0  0
   13.0516   -1.2670   -8.5888 C   0  0  0  0  0  0  0  0  0  0  0  0
   13.8262   -0.6117   -9.4350 N   0  0  0  0  0  0  0  0  0  0  0  0
   13.5518    0.6666   -9.3358 N   0  0  0  0  0  0  0  0  0  0  0  0
   14.2738    1.5978  -10.1983 C   0  0  0  0  0  0  0  0  0  0  0  0
   12.5668    0.8715   -8.4024 C   0  0  0  0  0  0  0  0  0  0  0  0
   10.0427   -0.3428   -6.1766 N   0  0  0  0  0  0  0  0  0  0  0  0
    9.1601   -1.1438   -5.3866 C   0  0  0  0  0  0  0  0  0  0  0  0
    8.0083   -0.7305   -4.5376 C   0  0  0  0  0  0  0  0  0  0  0  0
    4.2821   -0.8696   -1.4298 C   0  0  0  0  0  0  0  0  0  0  0  0
   -0.8203   -0.9616   -2.1645 Cl  0  0  0  0  0  0  0  0  0  0  0  0
    1.7841    0.6614    1.6007 H   0  0  0  0  0  0  0  0  0  0  0  0
    0.6264    0.5606    0.2477 H   0  0  0  0  0  0  0  0  0  0  0  0
    1.9901    1.8007    0.2365 H   0  0  0  0  0  0  0  0  0  0  0  0
    1.8571    1.3224   -2.2767 H   0  0  0  0  0  0  0  0  0  0  0  0
    2.0754    2.0554   -4.5064 H   0  0  0  0  0  0  0  0  0  0  0  0
    2.6227    0.7093   -5.5649 H   0  0  0  0  0  0  0  0  0  0  0  0
    4.3282    2.9361   -4.5760 H   0  0  0  0  0  0  0  0  0  0  0  0
    3.6631    2.7767   -6.1334 H   0  0  0  0  0  0  0  0  0  0  0  0
    5.1547   -0.1716   -4.6395 H   0  0  0  0  0  0  0  0  0  0  0  0
    7.0909   -3.4141   -1.5931 H   0  0  0  0  0  0  0  0  0  0  0  0
    5.9437   -2.6807   -0.7315 H   0  0  0  0  0  0  0  0  0  0  0  0
    8.2208   -2.2803    0.3649 H   0  0  0  0  0  0  0  0  0  0  0  0
    7.8930    0.1993    0.7164 H   0  0  0  0  0  0  0  0  0  0  0  0
    6.7528    0.2213   -0.8084 H   0  0  0  0  0  0  0  0  0  0  0  0
    9.6683   -0.6336   -0.4469 H   0  0  0  0  0  0  0  0  0  0  0  0
    8.8674   -0.8787   -2.0796 H   0  0  0  0  0  0  0  0  0  0  0  0
    7.1178   -3.9138   -3.5238 H   0  0  0  0  0  0  0  0  0  0  0  0
    8.9468   -4.4938   -4.7953 H   0  0  0  0  0  0  0  0  0  0  0  0
   12.1891   -2.8684   -6.9539 H   0  0  0  0  0  0  0  0  0  0  0  0
   13.1425   -2.3367   -8.5710 H   0  0  0  0  0  0  0  0  0  0  0  0
   14.9861    1.0255  -10.8530 H   0  0  0  0  0  0  0  0  0  0  0  0
   14.8871    2.3040   -9.6022 H   0  0  0  0  0  0  0  0  0  0  0  0
   13.5720    2.1195  -10.8691 H   0  0  0  0  0  0  0  0  0  0  0  0
   12.1725    1.8475   -8.1536 H   0  0  0  0  0  0  0  0  0  0  0  0
    7.7670    0.3241   -4.4149 H   0  0  0  0  0  0  0  0  0  0  0  0
    4.4943   -1.4050   -0.5295 H   0  0  0  0  0  0  0  0  0  0  0  0
    0.1477   -0.0393   -1.8875 H   0  0  0  0  0  0  0  0  0  0  0  0
  1  2  1  0  0  0  0
  1 33  1  0  0  0  0
  1 34  1  0  0  0  0
  1 35  1  0  0  0  0
  2  3  1  0  0  0  0
  3  4  1  0  0  0  0
  3 31  2  0  0  0  0
  4  5  2  0  0  0  0
  4 36  1  0  0  0  0
  5  6  1  0  0  0  0
  5  8  1  0  0  0  0
  6  7  1  0  0  0  0
  6 37  1  0  0  0  0
  6 38  1  0  0  0  0
  7 39  1  0  0  0  0
  7 40  1  0  0  0  0
  8  9  2  0  0  0  0
  8 41  1  0  0  0  0
  9 10  1  0  0  0  0
  9 31  1  0  0  0  0
 10 11  1  0  0  0  0
 10 15  1  0  0  0  0
 11 12  1  0  0  0  0
 11 42  1  0  0  0  0
 11 43  1  0  0  0  0
 12 13  1  0  0  0  0
 12 14  1  0  0  0  0
 12 44  1  0  0  0  0
 13 14  1  0  0  0  0
 13 45  1  0  0  0  0
 13 46  1  0  0  0  0
 14 47  1  0  0  0  0
 14 48  1  0  0  0  0
 15 16  1  0  0  0  0
 15 30  2  0  0  0  0
 16 17  2  0  0  0  0
 16 49  1  0  0  0  0
 17 18  1  0  0  0  0
 17 50  1  0  0  0  0
 18 19  1  0  0  0  0
 18 29  2  0  0  0  0
 19 20  2  0  0  0  0
 20 21  1  0  0  0  0
 20 51  1  0  0  0  0
 21 22  1  0  0  0  0
 21 28  2  0  0  0  0
 22 23  1  0  0  0  0
 22 27  2  0  0  0  0
 23 24  2  0  0  0  0
 23 52  1  0  0  0  0
 24 25  1  0  0  0  0
 25 26  1  0  0  0  0
 25 27  1  0  0  0  0
 26 53  1  0  0  0  0
 26 54  1  0  0  0  0
 26 55  1  0  0  0  0
 27 56  1  0  0  0  0
 28 29  1  0  0  0  0
 29 30  1  0  0  0  0
 30 57  1  0  0  0  0
 31 58  1  0  0  0  0
 32 59  1  0  0  0  0
M  END
$$$$
