CHEMBL210003
 OpenBabel04072215363D

 46 49  0  0  0  0  0  0  0  0999 V2000
    1.3106    0.3329    0.3789 C   0  0  0  0  0  0  0  0  0  0  0  0
    2.7060   -0.1418    0.0006 C   0  0  0  0  0  0  0  0  0  0  0  0
    3.2389   -1.0996    1.0353 C   0  0  0  0  0  0  0  0  0  0  0  0
    3.9904   -0.5955    2.1053 C   0  0  0  0  0  0  0  0  0  0  0  0
    4.4323   -1.4492    3.1059 C   0  0  0  0  0  0  0  0  0  0  0  0
    4.0996   -2.7980    3.0617 C   0  0  0  0  0  0  0  0  0  0  0  0
    3.3002   -3.3182    2.0386 C   0  0  0  0  0  0  0  0  0  0  0  0
    2.8189   -4.6561    2.0444 N   0  0  0  0  0  0  0  0  0  0  0  0
    2.7305   -5.4231    3.1965 C   0  0  0  0  0  0  0  0  0  0  0  0
    3.0941   -5.0351    4.3008 O   0  0  0  0  0  0  0  0  0  0  0  0
    2.1782   -6.6744    2.9789 N   0  0  0  0  0  0  0  0  0  0  0  0
    1.9046   -7.5858    4.0343 C   0  0  0  0  0  0  0  0  0  0  0  0
    1.7658   -7.1752    5.3647 C   0  0  0  0  0  0  0  0  0  0  0  0
    1.6964   -8.1014    6.4056 C   0  0  0  0  0  0  0  0  0  0  0  0
    1.7072   -9.4698    6.1346 C   0  0  0  0  0  0  0  0  0  0  0  0
    1.8169  -10.4240    7.2393 C   0  0  0  0  0  0  0  0  0  0  0  0
    1.2709  -10.1431    8.4372 N   0  0  0  0  0  0  0  0  0  0  0  0
    1.5895  -11.1991    9.2673 O   0  0  0  0  0  0  0  0  0  0  0  0
    2.3289  -12.1131    8.5862 C   0  0  0  0  0  0  0  0  0  0  0  0
    2.7853  -13.2485    9.1338 N   0  0  0  0  0  0  0  0  0  0  0  0
    3.4900  -13.9628    8.2511 C   0  0  0  0  0  0  0  0  0  0  0  0
    3.7731  -13.6436    6.9754 N   0  0  0  0  0  0  0  0  0  0  0  0
    3.3090  -12.4808    6.4751 C   0  0  0  0  0  0  0  0  0  0  0  0
    3.6849  -12.1925    5.1696 N   0  0  0  0  0  0  0  0  0  0  0  0
    2.5207  -11.6646    7.2928 C   0  0  0  0  0  0  0  0  0  0  0  0
    1.6675   -9.8763    4.7934 C   0  0  0  0  0  0  0  0  0  0  0  0
    1.7935   -8.9456    3.7495 C   0  0  0  0  0  0  0  0  0  0  0  0
    2.9131   -2.4671    0.9948 C   0  0  0  0  0  0  0  0  0  0  0  0
    0.9538    1.0788   -0.3371 H   0  0  0  0  0  0  0  0  0  0  0  0
    1.3007    0.7870    1.3764 H   0  0  0  0  0  0  0  0  0  0  0  0
    0.6000   -0.5007    0.3869 H   0  0  0  0  0  0  0  0  0  0  0  0
    3.3779    0.7215   -0.0850 H   0  0  0  0  0  0  0  0  0  0  0  0
    2.6937   -0.6214   -0.9844 H   0  0  0  0  0  0  0  0  0  0  0  0
    4.2211    0.4639    2.1737 H   0  0  0  0  0  0  0  0  0  0  0  0
    5.0072   -1.0649    3.9461 H   0  0  0  0  0  0  0  0  0  0  0  0
    4.4747   -3.4215    3.8675 H   0  0  0  0  0  0  0  0  0  0  0  0
    2.2458   -4.9413    1.2624 H   0  0  0  0  0  0  0  0  0  0  0  0
    2.2725   -7.0587    2.0509 H   0  0  0  0  0  0  0  0  0  0  0  0
    1.7459   -6.1246    5.6413 H   0  0  0  0  0  0  0  0  0  0  0  0
    1.6722   -7.7301    7.4293 H   0  0  0  0  0  0  0  0  0  0  0  0
    3.8867  -14.9096    8.6035 H   0  0  0  0  0  0  0  0  0  0  0  0
    4.4109  -12.8358    4.8702 H   0  0  0  0  0  0  0  0  0  0  0  0
    3.8962  -11.2150    5.0033 H   0  0  0  0  0  0  0  0  0  0  0  0
    1.5738  -10.9294    4.5386 H   0  0  0  0  0  0  0  0  0  0  0  0
    1.8456   -9.3127    2.7283 H   0  0  0  0  0  0  0  0  0  0  0  0
    2.3058   -2.8421    0.1741 H   0  0  0  0  0  0  0  0  0  0  0  0
  1  2  1  0  0  0  0
  1 29  1  0  0  0  0
  1 30  1  0  0  0  0
  1 31  1  0  0  0  0
  2  3  1  0  0  0  0
  2 32  1  0  0  0  0
  2 33  1  0  0  0  0
  3  4  1  0  0  0  0
  3 28  2  0  0  0  0
  4  5  2  0  0  0  0
  4 34  1  0  0  0  0
  5  6  1  0  0  0  0
  5 35  1  0  0  0  0
  6  7  2  0  0  0  0
  6 36  1  0  0  0  0
  7  8  1  0  0  0  0
  7 28  1  0  0  0  0
  8  9  1  0  0  0  0
  8 37  1  0  0  0  0
  9 10  2  0  0  0  0
  9 11  1  0  0  0  0
 11 12  1  0  0  0  0
 11 38  1  0  0  0  0
 12 13  1  0  0  0  0
 12 27  2  0  0  0  0
 13 14  2  0  0  0  0
 13 39  1  0  0  0  0
 14 15  1  0  0  0  0
 14 40  1  0  0  0  0
 15 16  1  0  0  0  0
 15 26  2  0  0  0  0
 16 17  2  0  0  0  0
 16 25  1  0  0  0  0
 17 18  1  0  0  0  0
 18 19  1  0  0  0  0
 19 20  1  0  0  0  0
 19 25  2  0  0  0  0
 20 21  2  0  0  0  0
 21 22  1  0  0  0  0
 21 41  1  0  0  0  0
 22 23  2  0  0  0  0
 23 24  1  0  0  0  0
 23 25  1  0  0  0  0
 24 42  1  0  0  0  0
 24 43  1  0  0  0  0
 26 27  1  0  0  0  0
 26 44  1  0  0  0  0
 27 45  1  0  0  0  0
 28 46  1  0  0  0  0
M  END
$$$$
