CHEMBL3913719
 OpenBabel04072215373D

 59 62  0  0  1  0  0  0  0  0999 V2000
    1.1366   -1.9617   -5.0925 C   0  0  0  0  0  0  0  0  0  0  0  0
    2.3390   -1.4253   -4.5545 O   0  0  0  0  0  0  0  0  0  0  0  0
    2.8245   -2.1328   -3.4018 C   0  0  0  0  0  0  0  0  0  0  0  0
    4.0852   -1.4021   -2.9041 C   0  0  0  0  0  0  0  0  0  0  0  0
    4.8241   -2.1249   -1.8917 O   0  0  0  0  0  0  0  0  0  0  0  0
    6.1846   -2.2286   -2.0971 C   0  0  0  0  0  0  0  0  0  0  0  0
    6.6976   -2.3905   -3.3943 C   0  0  0  0  0  0  0  0  0  0  0  0
    8.0848   -2.4125   -3.6545 C   0  0  0  0  0  0  0  0  0  0  0  0
    8.6650   -2.3930   -4.9245 C   0  0  0  0  0  0  0  0  0  0  0  0
    7.8236   -2.2512   -6.0621 N   0  0  0  0  0  0  0  0  0  0  0  0
    8.2400   -2.5673   -7.3663 C   0  0  0  0  0  0  0  0  0  0  0  0
    8.9087   -3.7762   -7.6100 C   0  0  0  0  0  0  0  0  0  0  0  0
    9.3936   -4.0833   -8.8790 C   0  0  0  0  0  0  0  0  0  0  0  0
    9.2052   -3.1912   -9.9295 C   0  0  0  0  0  0  0  0  0  0  0  0
    9.8750   -3.6077  -11.4610 Cl  0  0  0  0  0  0  0  0  0  0  0  0
    8.5038   -1.9943   -9.7106 C   0  0  0  0  0  0  0  0  0  0  0  0
    8.2274   -0.8455  -10.9662 Cl  0  0  0  0  0  0  0  0  0  0  0  0
    8.0139   -1.6927   -8.4308 C   0  0  0  0  0  0  0  0  0  0  0  0
    9.9989   -2.4557   -5.1059 N   0  0  0  0  0  0  0  0  0  0  0  0
   10.7553   -2.5279   -4.0115 C   0  0  0  0  0  0  0  0  0  0  0  0
   10.3061   -2.5317   -2.7552 N   0  0  0  0  0  0  0  0  0  0  0  0
    8.9806   -2.4616   -2.5997 C   0  0  0  0  0  0  0  0  0  0  0  0
    8.4748   -2.4255   -1.3189 C   0  0  0  0  0  0  0  0  0  0  0  0
    7.1033   -2.2240   -1.0293 C   0  0  0  0  0  0  0  0  0  0  0  0
    6.6895   -1.9953    0.2837 O   0  0  0  0  0  0  0  0  0  0  0  0
    7.7900   -1.6099    1.1427 C   0  0  0  0  0  0  0  0  0  0  0  0
    7.4561   -1.0056    2.5139 C   0  0  3  0  0  0  0  0  0  0  0  0
    6.4593    0.1562    2.4570 C   0  0  0  0  0  0  0  0  0  0  0  0
    7.0355    1.3184    1.7528 N   0  0  0  0  0  0  0  0  0  0  0  0
    6.0626    2.4021    1.6806 C   0  0  0  0  0  0  0  0  0  0  0  0
    8.2615    1.7453    2.4546 C   0  0  0  0  0  0  0  0  0  0  0  0
    9.2665    0.5896    2.5882 C   0  0  0  0  0  0  0  0  0  0  0  0
    8.6758   -0.5803    3.1877 O   0  0  0  0  0  0  0  0  0  0  0  0
    0.7880   -1.2867   -5.8817 H   0  0  0  0  0  0  0  0  0  0  0  0
    0.3573   -2.0244   -4.3277 H   0  0  0  0  0  0  0  0  0  0  0  0
    1.3133   -2.9444   -5.5397 H   0  0  0  0  0  0  0  0  0  0  0  0
    3.0425   -3.1730   -3.6692 H   0  0  0  0  0  0  0  0  0  0  0  0
    2.0567   -2.1305   -2.6199 H   0  0  0  0  0  0  0  0  0  0  0  0
    3.7812   -0.4448   -2.4662 H   0  0  0  0  0  0  0  0  0  0  0  0
    4.6784   -1.1134   -3.7786 H   0  0  0  0  0  0  0  0  0  0  0  0
    6.0229   -2.5136   -4.2373 H   0  0  0  0  0  0  0  0  0  0  0  0
    7.3229   -1.3698   -5.9993 H   0  0  0  0  0  0  0  0  0  0  0  0
    9.0755   -4.4776   -6.7924 H   0  0  0  0  0  0  0  0  0  0  0  0
    9.9321   -5.0156   -9.0281 H   0  0  0  0  0  0  0  0  0  0  0  0
    7.4880   -0.7546   -8.2672 H   0  0  0  0  0  0  0  0  0  0  0  0
   11.8302   -2.5653   -4.1512 H   0  0  0  0  0  0  0  0  0  0  0  0
    9.2248   -2.5109   -0.5398 H   0  0  0  0  0  0  0  0  0  0  0  0
    8.4028   -0.8783    0.6074 H   0  0  0  0  0  0  0  0  0  0  0  0
    8.4040   -2.4974    1.3491 H   0  0  0  0  0  0  0  0  0  0  0  0
    7.0256   -1.7943    3.1419 H   0  0  0  0  0  0  0  0  0  0  0  0
    6.1990    0.4428    3.4858 H   0  0  0  0  0  0  0  0  0  0  0  0
    5.5415   -0.1802    1.9634 H   0  0  0  0  0  0  0  0  0  0  0  0
    5.1527    2.0618    1.1736 H   0  0  0  0  0  0  0  0  0  0  0  0
    6.4622    3.2324    1.0897 H   0  0  0  0  0  0  0  0  0  0  0  0
    5.7846    2.7786    2.6711 H   0  0  0  0  0  0  0  0  0  0  0  0
    8.0146    2.1108    3.4596 H   0  0  0  0  0  0  0  0  0  0  0  0
    8.7388    2.5674    1.9078 H   0  0  0  0  0  0  0  0  0  0  0  0
   10.1021    0.9028    3.2243 H   0  0  0  0  0  0  0  0  0  0  0  0
    9.7071    0.3335    1.6182 H   0  0  0  0  0  0  0  0  0  0  0  0
  1  2  1  0  0  0  0
  1 34  1  0  0  0  0
  1 35  1  0  0  0  0
  1 36  1  0  0  0  0
  2  3  1  0  0  0  0
  3  4  1  0  0  0  0
  3 37  1  0  0  0  0
  3 38  1  0  0  0  0
  4  5  1  0  0  0  0
  4 39  1  0  0  0  0
  4 40  1  0  0  0  0
  5  6  1  0  0  0  0
  6  7  1  0  0  0  0
  6 24  2  0  0  0  0
  7  8  2  0  0  0  0
  7 41  1  0  0  0  0
  8  9  1  0  0  0  0
  8 22  1  0  0  0  0
  9 10  1  0  0  0  0
  9 19  2  0  0  0  0
 10 11  1  0  0  0  0
 10 42  1  0  0  0  0
 11 12  1  0  0  0  0
 11 18  2  0  0  0  0
 12 13  2  0  0  0  0
 12 43  1  0  0  0  0
 13 14  1  0  0  0  0
 13 44  1  0  0  0  0
 14 15  1  0  0  0  0
 14 16  2  0  0  0  0
 16 17  1  0  0  0  0
 16 18  1  0  0  0  0
 18 45  1  0  0  0  0
 19 20  1  0  0  0  0
 20 21  2  0  0  0  0
 20 46  1  0  0  0  0
 21 22  1  0  0  0  0
 22 23  2  0  0  0  0
 23 24  1  0  0  0  0
 23 47  1  0  0  0  0
 24 25  1  0  0  0  0
 25 26  1  0  0  0  0
 26 27  1  0  0  0  0
 26 48  1  0  0  0  0
 26 49  1  0  0  0  0
 27 28  1  0  0  0  0
 27 33  1  0  0  0  0
 27 50  1  0  0  0  0
 28 29  1  0  0  0  0
 28 51  1  0  0  0  0
 28 52  1  0  0  0  0
 29 30  1  0  0  0  0
 29 31  1  0  0  0  0
 30 53  1  0  0  0  0
 30 54  1  0  0  0  0
 30 55  1  0  0  0  0
 31 32  1  0  0  0  0
 31 56  1  0  0  0  0
 31 57  1  0  0  0  0
 32 33  1  0  0  0  0
 32 58  1  0  0  0  0
 32 59  1  0  0  0  0
M  END
$$$$
