CHEMBL2430250
 OpenBabel04072215363D

 64 67  0  0  1  0  0  0  0  0999 V2000
    1.3256   -2.2684    0.8714 C   0  0  0  0  0  0  0  0  0  0  0  0
    2.8298   -2.0367    0.9774 C   0  0  0  0  0  0  0  0  0  0  0  0
    3.5855   -2.2948   -0.2609 N   0  0  0  0  0  0  0  0  0  0  0  0
    3.0847   -1.5580   -1.4344 C   0  0  0  0  0  0  0  0  0  0  0  0
    3.2284   -0.0380   -1.4033 C   0  0  0  0  0  0  0  0  0  0  0  0
    5.0385   -2.0917   -0.0633 C   0  0  0  0  0  0  0  0  0  0  0  0
    5.6979   -3.0022    1.0074 C   0  0  3  0  0  0  0  0  0  0  0  0
    5.5109   -4.3961    0.7110 O   0  0  0  0  0  0  0  0  0  0  0  0
    7.2039   -2.7309    1.0832 C   0  0  0  0  0  0  0  0  0  0  0  0
    7.8096   -3.5072    2.1487 N   0  0  0  0  0  0  0  0  0  0  0  0
    8.2461   -2.9191    3.3064 C   0  0  0  0  0  0  0  0  0  0  0  0
    8.2243   -1.7009    3.4662 O   0  0  0  0  0  0  0  0  0  0  0  0
    8.8417   -3.8216    4.2926 C   0  0  0  0  0  0  0  0  0  0  0  0
    8.4468   -5.0837    4.7211 C   0  0  0  0  0  0  0  0  0  0  0  0
    7.2632   -5.9165    4.3665 C   0  0  0  0  0  0  0  0  0  0  0  0
    9.3567   -5.5066    5.6865 N   0  0  0  0  0  0  0  0  0  0  0  0
   10.3071   -4.5395    5.8996 C   0  0  0  0  0  0  0  0  0  0  0  0
    9.9903   -3.4860    5.0648 C   0  0  0  0  0  0  0  0  0  0  0  0
   10.7267   -2.1995    4.9896 C   0  0  0  0  0  0  0  0  0  0  0  0
   11.9867   -2.1378    5.8278 C   0  0  0  0  0  0  0  0  0  0  0  0
   12.2282   -3.2492    6.8498 C   0  0  0  0  0  0  0  0  0  0  0  0
   11.4097   -4.5447    6.8187 C   0  0  0  0  0  0  0  0  0  0  0  0
   11.8072   -5.5581    7.6333 C   0  0  0  0  0  0  0  0  0  0  0  0
   11.2436   -6.9591    7.7591 C   0  0  0  0  0  0  0  0  0  0  0  0
   10.2548   -7.4358    7.2304 O   0  0  0  0  0  0  0  0  0  0  0  0
   12.0945   -7.6338    8.6165 N   0  0  0  0  0  0  0  0  0  0  0  0
   13.1168   -6.8164    9.0897 C   0  0  0  0  0  0  0  0  0  0  0  0
   14.1313   -7.1823    9.9655 C   0  0  0  0  0  0  0  0  0  0  0  0
   15.0574   -6.2042   10.3379 C   0  0  0  0  0  0  0  0  0  0  0  0
   14.9246   -4.9067    9.8515 C   0  0  0  0  0  0  0  0  0  0  0  0
   15.8087   -3.9663   10.2139 F   0  0  0  0  0  0  0  0  0  0  0  0
   13.8915   -4.5597    8.9857 C   0  0  0  0  0  0  0  0  0  0  0  0
   12.9861   -5.5320    8.5675 C   0  0  0  0  0  0  0  0  0  0  0  0
    0.8857   -2.2938    1.8745 H   0  0  0  0  0  0  0  0  0  0  0  0
    1.1028   -3.2249    0.3876 H   0  0  0  0  0  0  0  0  0  0  0  0
    0.8303   -1.4662    0.3163 H   0  0  0  0  0  0  0  0  0  0  0  0
    3.1742   -2.7266    1.7543 H   0  0  0  0  0  0  0  0  0  0  0  0
    3.0140   -1.0219    1.3500 H   0  0  0  0  0  0  0  0  0  0  0  0
    2.0320   -1.8106   -1.6056 H   0  0  0  0  0  0  0  0  0  0  0  0
    3.5987   -1.9327   -2.3293 H   0  0  0  0  0  0  0  0  0  0  0  0
    2.8707    0.3952   -0.4652 H   0  0  0  0  0  0  0  0  0  0  0  0
    2.6398    0.4060   -2.2136 H   0  0  0  0  0  0  0  0  0  0  0  0
    4.2699    0.2648   -1.5514 H   0  0  0  0  0  0  0  0  0  0  0  0
    5.2444   -1.0444    0.1910 H   0  0  0  0  0  0  0  0  0  0  0  0
    5.5365   -2.2998   -1.0198 H   0  0  0  0  0  0  0  0  0  0  0  0
    5.2643   -2.8179    1.9958 H   0  0  0  0  0  0  0  0  0  0  0  0
    5.6442   -4.5099   -0.2450 H   0  0  0  0  0  0  0  0  0  0  0  0
    7.3902   -1.6622    1.2371 H   0  0  0  0  0  0  0  0  0  0  0  0
    7.7009   -3.0380    0.1576 H   0  0  0  0  0  0  0  0  0  0  0  0
    7.8139   -4.5151    2.0726 H   0  0  0  0  0  0  0  0  0  0  0  0
    6.6086   -5.4117    3.6494 H   0  0  0  0  0  0  0  0  0  0  0  0
    6.6576   -6.1253    5.2544 H   0  0  0  0  0  0  0  0  0  0  0  0
    7.5749   -6.8673    3.9238 H   0  0  0  0  0  0  0  0  0  0  0  0
    9.3073   -6.3958    6.1777 H   0  0  0  0  0  0  0  0  0  0  0  0
   10.0575   -1.3890    5.3002 H   0  0  0  0  0  0  0  0  0  0  0  0
   10.9988   -2.0040    3.9445 H   0  0  0  0  0  0  0  0  0  0  0  0
   12.0071   -1.1762    6.3589 H   0  0  0  0  0  0  0  0  0  0  0  0
   12.8533   -2.0924    5.1553 H   0  0  0  0  0  0  0  0  0  0  0  0
   12.0834   -2.7986    7.8392 H   0  0  0  0  0  0  0  0  0  0  0  0
   13.2810   -3.5172    6.7044 H   0  0  0  0  0  0  0  0  0  0  0  0
   11.9528   -8.5979    8.8719 H   0  0  0  0  0  0  0  0  0  0  0  0
   14.2199   -8.1901   10.3535 H   0  0  0  0  0  0  0  0  0  0  0  0
   15.8809   -6.4305   11.0084 H   0  0  0  0  0  0  0  0  0  0  0  0
   13.8599   -3.5228    8.6846 H   0  0  0  0  0  0  0  0  0  0  0  0
  1  2  1  0  0  0  0
  1 34  1  0  0  0  0
  1 35  1  0  0  0  0
  1 36  1  0  0  0  0
  2  3  1  0  0  0  0
  2 37  1  0  0  0  0
  2 38  1  0  0  0  0
  3  4  1  0  0  0  0
  3  6  1  0  0  0  0
  4  5  1  0  0  0  0
  4 39  1  0  0  0  0
  4 40  1  0  0  0  0
  5 41  1  0  0  0  0
  5 42  1  0  0  0  0
  5 43  1  0  0  0  0
  6  7  1  0  0  0  0
  6 44  1  0  0  0  0
  6 45  1  0  0  0  0
  7  8  1  0  0  0  0
  7  9  1  0  0  0  0
  7 46  1  0  0  0  0
  8 47  1  0  0  0  0
  9 10  1  0  0  0  0
  9 48  1  0  0  0  0
  9 49  1  0  0  0  0
 10 11  1  0  0  0  0
 10 50  1  0  0  0  0
 11 12  2  0  0  0  0
 11 13  1  0  0  0  0
 13 14  2  0  0  0  0
 13 18  1  0  0  0  0
 14 15  1  0  0  0  0
 14 16  1  0  0  0  0
 15 51  1  0  0  0  0
 15 52  1  0  0  0  0
 15 53  1  0  0  0  0
 16 17  1  0  0  0  0
 16 54  1  0  0  0  0
 17 18  2  0  0  0  0
 17 22  1  0  0  0  0
 18 19  1  0  0  0  0
 19 20  1  0  0  0  0
 19 55  1  0  0  0  0
 19 56  1  0  0  0  0
 20 21  1  0  0  0  0
 20 57  1  0  0  0  0
 20 58  1  0  0  0  0
 21 22  1  0  0  0  0
 21 59  1  0  0  0  0
 21 60  1  0  0  0  0
 22 23  2  0  0  0  0
 23 24  1  0  0  0  0
 23 33  1  0  0  0  0
 24 25  2  0  0  0  0
 24 26  1  0  0  0  0
 26 27  1  0  0  0  0
 26 61  1  0  0  0  0
 27 28  1  0  0  0  0
 27 33  2  0  0  0  0
 28 29  2  0  0  0  0
 28 62  1  0  0  0  0
 29 30  1  0  0  0  0
 29 63  1  0  0  0  0
 30 31  1  0  0  0  0
 30 32  2  0  0  0  0
 32 33  1  0  0  0  0
 32 64  1  0  0  0  0
M  END
$$$$
