CHEMBL3633294
 OpenBabel04072215373D

 43 46  0  0  0  0  0  0  0  0999 V2000
   -0.5411    2.3043    3.3663 N   0  0  0  0  0  0  0  0  0  0  0  0
   -0.8173    1.1185    2.7976 C   0  0  0  0  0  0  0  0  0  0  0  0
   -0.9874    0.0414    3.5581 N   0  0  0  0  0  0  0  0  0  0  0  0
   -1.2089   -0.9377    2.6782 N   0  0  0  0  0  0  0  0  0  0  0  0
   -1.2060   -0.5350    1.3714 C   0  0  0  0  0  0  0  0  0  0  0  0
   -1.3947   -1.2824    0.2053 C   0  0  0  0  0  0  0  0  0  0  0  0
   -1.3473   -0.5993   -1.0020 C   0  0  0  0  0  0  0  0  0  0  0  0
   -1.1090    0.7716   -1.0255 C   0  0  0  0  0  0  0  0  0  0  0  0
   -0.8836    1.5362    0.1521 C   0  0  0  0  0  0  0  0  0  0  0  0
   -0.5180    2.9638    0.0353 C   0  0  0  0  0  0  0  0  0  0  0  0
    0.3908    3.3539   -0.9697 C   0  0  0  0  0  0  0  0  0  0  0  0
    0.7928    4.6739   -1.1156 C   0  0  0  0  0  0  0  0  0  0  0  0
    0.3070    5.6343   -0.2409 C   0  0  0  0  0  0  0  0  0  0  0  0
   -0.6424    5.3135    0.7354 C   0  0  0  0  0  0  0  0  0  0  0  0
   -1.2089    6.2930    1.5941 N   0  0  0  0  0  0  0  0  0  0  0  0
   -1.1918    7.6491    1.3092 C   0  0  0  0  0  0  0  0  0  0  0  0
   -0.6829    8.1308    0.3040 O   0  0  0  0  0  0  0  0  0  0  0  0
   -1.8223    8.4214    2.2747 N   0  0  0  0  0  0  0  0  0  0  0  0
   -2.0490    9.8158    2.1073 C   0  0  0  0  0  0  0  0  0  0  0  0
   -2.0976   10.4186    0.8404 C   0  0  0  0  0  0  0  0  0  0  0  0
   -2.2087   11.8004    0.6929 C   0  0  0  0  0  0  0  0  0  0  0  0
   -2.3084   12.6058    1.8186 C   0  0  0  0  0  0  0  0  0  0  0  0
   -2.3236   12.0154    3.0822 C   0  0  0  0  0  0  0  0  0  0  0  0
   -2.4746   13.0193    4.4739 Cl  0  0  0  0  0  0  0  0  0  0  0  0
   -2.2019   10.6285    3.2362 C   0  0  0  0  0  0  0  0  0  0  0  0
   -1.0538    3.9773    0.8569 C   0  0  0  0  0  0  0  0  0  0  0  0
   -0.9534    0.8417    1.3960 C   0  0  0  0  0  0  0  0  0  0  0  0
   -0.3123    2.2445    4.3534 H   0  0  0  0  0  0  0  0  0  0  0  0
    0.0668    2.9454    2.8700 H   0  0  0  0  0  0  0  0  0  0  0  0
   -1.3539   -1.8761    3.0310 H   0  0  0  0  0  0  0  0  0  0  0  0
   -1.5742   -2.3524    0.2335 H   0  0  0  0  0  0  0  0  0  0  0  0
   -1.4894   -1.1375   -1.9364 H   0  0  0  0  0  0  0  0  0  0  0  0
   -1.0851    1.2618   -1.9988 H   0  0  0  0  0  0  0  0  0  0  0  0
    0.8087    2.6224   -1.6579 H   0  0  0  0  0  0  0  0  0  0  0  0
    1.4864    4.9594   -1.9014 H   0  0  0  0  0  0  0  0  0  0  0  0
    0.7012    6.6386   -0.3590 H   0  0  0  0  0  0  0  0  0  0  0  0
   -1.8599    5.9731    2.2977 H   0  0  0  0  0  0  0  0  0  0  0  0
   -1.8229    8.0606    3.2195 H   0  0  0  0  0  0  0  0  0  0  0  0
   -2.0471    9.8269   -0.0707 H   0  0  0  0  0  0  0  0  0  0  0  0
   -2.1989   12.2352   -0.3048 H   0  0  0  0  0  0  0  0  0  0  0  0
   -2.3759   13.6832    1.7029 H   0  0  0  0  0  0  0  0  0  0  0  0
   -2.1918   10.2039    4.2345 H   0  0  0  0  0  0  0  0  0  0  0  0
   -1.8126    3.7154    1.5917 H   0  0  0  0  0  0  0  0  0  0  0  0
  1  2  1  0  0  0  0
  1 28  1  0  0  0  0
  1 29  1  0  0  0  0
  2  3  2  0  0  0  0
  2 27  1  0  0  0  0
  3  4  1  0  0  0  0
  4  5  1  0  0  0  0
  4 30  1  0  0  0  0
  5  6  1  0  0  0  0
  5 27  2  0  0  0  0
  6  7  2  0  0  0  0
  6 31  1  0  0  0  0
  7  8  1  0  0  0  0
  7 32  1  0  0  0  0
  8  9  2  0  0  0  0
  8 33  1  0  0  0  0
  9 10  1  0  0  0  0
  9 27  1  0  0  0  0
 10 11  1  0  0  0  0
 10 26  2  0  0  0  0
 11 12  2  0  0  0  0
 11 34  1  0  0  0  0
 12 13  1  0  0  0  0
 12 35  1  0  0  0  0
 13 14  2  0  0  0  0
 13 36  1  0  0  0  0
 14 15  1  0  0  0  0
 14 26  1  0  0  0  0
 15 16  1  0  0  0  0
 15 37  1  0  0  0  0
 16 17  2  0  0  0  0
 16 18  1  0  0  0  0
 18 19  1  0  0  0  0
 18 38  1  0  0  0  0
 19 20  1  0  0  0  0
 19 25  2  0  0  0  0
 20 21  2  0  0  0  0
 20 39  1  0  0  0  0
 21 22  1  0  0  0  0
 21 40  1  0  0  0  0
 22 23  2  0  0  0  0
 22 41  1  0  0  0  0
 23 24  1  0  0  0  0
 23 25  1  0  0  0  0
 25 42  1  0  0  0  0
 26 43  1  0  0  0  0
M  END
$$$$
