CHEMBL365336
 OpenBabel04072215373D

 55 57  0  0  0  0  0  0  0  0999 V2000
    6.4601   -0.5779    0.3763 C   0  0  0  0  0  0  0  0  0  0  0  0
    5.3681   -0.5057   -0.6763 C   0  0  0  0  0  0  0  0  0  0  0  0
    5.2510    0.8552   -1.1057 O   0  0  0  0  0  0  0  0  0  0  0  0
    4.4777    1.6496   -0.3004 C   0  0  0  0  0  0  0  0  0  0  0  0
    3.5972    1.2147    0.4305 O   0  0  0  0  0  0  0  0  0  0  0  0
    4.9132    3.0491   -0.3187 C   0  0  0  0  0  0  0  0  0  0  0  0
    5.9423    3.5011   -1.1125 C   0  0  0  0  0  0  0  0  0  0  0  0
    6.1048    4.8312   -0.9195 N   0  0  0  0  0  0  0  0  0  0  0  0
    6.9966    5.5525   -1.6092 N   0  0  0  0  0  0  0  0  0  0  0  0
    7.0493    6.7916   -1.2608 C   0  0  0  0  0  0  0  0  0  0  0  0
    6.3097    7.3845   -0.2721 N   0  0  0  0  0  0  0  0  0  0  0  0
    5.4388    6.6974    0.4097 C   0  0  0  0  0  0  0  0  0  0  0  0
    4.7231    7.3494    1.4045 N   0  0  0  0  0  0  0  0  0  0  0  0
    5.2467    8.4002    2.2033 C   0  0  0  0  0  0  0  0  0  0  0  0
    4.3958    9.3848    2.7065 C   0  0  0  0  0  0  0  0  0  0  0  0
    4.8939   10.3725    3.5592 C   0  0  0  0  0  0  0  0  0  0  0  0
    6.2556   10.4069    3.9346 C   0  0  0  0  0  0  0  0  0  0  0  0
    6.6645   11.5841    4.7740 C   0  0  0  0  0  0  0  0  0  0  0  0
    7.1123    9.3711    3.4896 C   0  0  0  0  0  0  0  0  0  0  0  0
    8.5615    9.1625    3.8691 C   0  0  0  0  0  0  0  0  0  0  0  0
    9.0250    8.0155    3.8787 O   0  0  0  0  0  0  0  0  0  0  0  0
    9.2983   10.2777    4.1410 N   0  0  0  0  0  0  0  0  0  0  0  0
   10.6687   10.1251    4.4435 O   0  0  0  0  0  0  0  0  0  0  0  0
   10.7742    9.9987    5.8604 C   0  0  0  0  0  0  0  0  0  0  0  0
    6.5732    8.3861    2.6402 C   0  0  0  0  0  0  0  0  0  0  0  0
    5.2579    5.2910    0.0623 C   0  0  0  0  0  0  0  0  0  0  0  0
    4.4621    4.1985    0.4748 C   0  0  0  0  0  0  0  0  0  0  0  0
    3.3762    4.0237    1.5422 C   0  0  0  0  0  0  0  0  0  0  0  0
    3.9553    3.5975    2.8933 C   0  0  0  0  0  0  0  0  0  0  0  0
    2.4185    5.1780    1.7811 C   0  0  0  0  0  0  0  0  0  0  0  0
    6.6109   -1.6073    0.7097 H   0  0  0  0  0  0  0  0  0  0  0  0
    6.1970    0.0378    1.2433 H   0  0  0  0  0  0  0  0  0  0  0  0
    7.4046   -0.1858   -0.0160 H   0  0  0  0  0  0  0  0  0  0  0  0
    4.4246   -0.8894   -0.2774 H   0  0  0  0  0  0  0  0  0  0  0  0
    5.6462   -1.1195   -1.5409 H   0  0  0  0  0  0  0  0  0  0  0  0
    6.5755    2.9703   -1.8121 H   0  0  0  0  0  0  0  0  0  0  0  0
    7.7586    7.4457   -1.7969 H   0  0  0  0  0  0  0  0  0  0  0  0
    3.7939    7.5960    1.0925 H   0  0  0  0  0  0  0  0  0  0  0  0
    3.3398    9.4075    2.4474 H   0  0  0  0  0  0  0  0  0  0  0  0
    4.2024   11.1267    3.9362 H   0  0  0  0  0  0  0  0  0  0  0  0
    5.8128   12.2443    4.9852 H   0  0  0  0  0  0  0  0  0  0  0  0
    7.3723   12.2046    4.2202 H   0  0  0  0  0  0  0  0  0  0  0  0
    7.0727   11.2710    5.7370 H   0  0  0  0  0  0  0  0  0  0  0  0
    9.0074   11.2156    3.9226 H   0  0  0  0  0  0  0  0  0  0  0  0
   11.8287    9.9385    6.1417 H   0  0  0  0  0  0  0  0  0  0  0  0
   10.2678    9.0869    6.1900 H   0  0  0  0  0  0  0  0  0  0  0  0
   10.3290   10.8699    6.3535 H   0  0  0  0  0  0  0  0  0  0  0  0
    7.2093    7.5587    2.3139 H   0  0  0  0  0  0  0  0  0  0  0  0
    2.7199    3.2158    1.1911 H   0  0  0  0  0  0  0  0  0  0  0  0
    4.6978    4.3219    3.2434 H   0  0  0  0  0  0  0  0  0  0  0  0
    4.4349    2.6152    2.8423 H   0  0  0  0  0  0  0  0  0  0  0  0
    3.1644    3.5327    3.6510 H   0  0  0  0  0  0  0  0  0  0  0  0
    2.9250    6.0047    2.2732 H   0  0  0  0  0  0  0  0  0  0  0  0
    1.6145    4.8750    2.4674 H   0  0  0  0  0  0  0  0  0  0  0  0
    1.9429    5.5055    0.8549 H   0  0  0  0  0  0  0  0  0  0  0  0
  1  2  1  0  0  0  0
  1 31  1  0  0  0  0
  1 32  1  0  0  0  0
  1 33  1  0  0  0  0
  2  3  1  0  0  0  0
  2 34  1  0  0  0  0
  2 35  1  0  0  0  0
  3  4  1  0  0  0  0
  4  5  2  0  0  0  0
  4  6  1  0  0  0  0
  6  7  2  0  0  0  0
  6 27  1  0  0  0  0
  7  8  1  0  0  0  0
  7 36  1  0  0  0  0
  8  9  1  0  0  0  0
  8 26  1  0  0  0  0
  9 10  2  0  0  0  0
 10 11  1  0  0  0  0
 10 37  1  0  0  0  0
 11 12  2  0  0  0  0
 12 13  1  0  0  0  0
 12 26  1  0  0  0  0
 13 14  1  0  0  0  0
 13 38  1  0  0  0  0
 14 15  1  0  0  0  0
 14 25  2  0  0  0  0
 15 16  2  0  0  0  0
 15 39  1  0  0  0  0
 16 17  1  0  0  0  0
 16 40  1  0  0  0  0
 17 18  1  0  0  0  0
 17 19  2  0  0  0  0
 18 41  1  0  0  0  0
 18 42  1  0  0  0  0
 18 43  1  0  0  0  0
 19 20  1  0  0  0  0
 19 25  1  0  0  0  0
 20 21  2  0  0  0  0
 20 22  1  0  0  0  0
 22 23  1  0  0  0  0
 22 44  1  0  0  0  0
 23 24  1  0  0  0  0
 24 45  1  0  0  0  0
 24 46  1  0  0  0  0
 24 47  1  0  0  0  0
 25 48  1  0  0  0  0
 26 27  2  0  0  0  0
 27 28  1  0  0  0  0
 28 29  1  0  0  0  0
 28 30  1  0  0  0  0
 28 49  1  0  0  0  0
 29 50  1  0  0  0  0
 29 51  1  0  0  0  0
 29 52  1  0  0  0  0
 30 53  1  0  0  0  0
 30 54  1  0  0  0  0
 30 55  1  0  0  0  0
M  END
$$$$
