CHEMBL469172
 OpenBabel04072215383D

 47 51  0  0  0  0  0  0  0  0999 V2000
    3.1705    0.8943    0.5064 O   0  0  0  0  0  0  0  0  0  0  0  0
    2.5466    0.1083   -0.2048 C   0  0  0  0  0  0  0  0  0  0  0  0
    3.1419   -1.2227   -0.5325 C   0  0  0  0  0  0  0  0  0  0  0  0
    2.8689   -1.7654   -1.8072 C   0  0  0  0  0  0  0  0  0  0  0  0
    3.5786   -2.8627   -2.2836 C   0  0  0  0  0  0  0  0  0  0  0  0
    4.5775   -3.4196   -1.5009 C   0  0  0  0  0  0  0  0  0  0  0  0
    4.8207   -2.9253   -0.2155 C   0  0  0  0  0  0  0  0  0  0  0  0
    4.1130   -1.8265    0.3116 C   0  0  0  0  0  0  0  0  0  0  0  0
    4.3218   -1.3904    1.6446 N   0  0  0  0  0  0  0  0  0  0  0  0
    5.5799   -1.7495    2.2916 C   0  0  0  0  0  0  0  0  0  0  0  0
    5.9049   -0.9970    3.5734 C   0  0  0  0  0  0  0  0  0  0  0  0
    6.7238   -1.6397    4.5067 C   0  0  0  0  0  0  0  0  0  0  0  0
    7.1798   -0.9778    5.6532 C   0  0  0  0  0  0  0  0  0  0  0  0
    6.8623    0.3422    5.8987 C   0  0  0  0  0  0  0  0  0  0  0  0
    7.3640    0.9232    7.0009 N   0  0  0  0  0  0  0  0  0  0  0  0
    7.0954    2.2260    7.2005 C   0  0  0  0  0  0  0  0  0  0  0  0
    6.3331    2.9921    6.3391 C   0  0  0  0  0  0  0  0  0  0  0  0
    5.7925    2.3738    5.2113 C   0  0  0  0  0  0  0  0  0  0  0  0
    6.0499    1.0207    4.9657 C   0  0  0  0  0  0  0  0  0  0  0  0
    5.5548    0.3377    3.8184 C   0  0  0  0  0  0  0  0  0  0  0  0
    1.2474    0.4974   -0.7774 C   0  0  0  0  0  0  0  0  0  0  0  0
    1.0697    1.7500   -1.2447 N   0  0  0  0  0  0  0  0  0  0  0  0
   -0.2577    1.8800   -1.3334 N   0  0  0  0  0  0  0  0  0  0  0  0
   -0.9479    0.7821   -0.9055 C   0  0  0  0  0  0  0  0  0  0  0  0
   -2.2975    0.5949   -0.6016 C   0  0  0  0  0  0  0  0  0  0  0  0
   -2.6921   -0.6994   -0.2564 C   0  0  0  0  0  0  0  0  0  0  0  0
   -1.7890   -1.7615   -0.2960 C   0  0  0  0  0  0  0  0  0  0  0  0
   -0.4272   -1.5368   -0.5365 C   0  0  0  0  0  0  0  0  0  0  0  0
    0.0098   -0.2194   -0.7739 C   0  0  0  0  0  0  0  0  0  0  0  0
    2.1377   -1.3102   -2.4716 H   0  0  0  0  0  0  0  0  0  0  0  0
    3.3796   -3.2517   -3.2789 H   0  0  0  0  0  0  0  0  0  0  0  0
    5.1788   -4.2386   -1.8877 H   0  0  0  0  0  0  0  0  0  0  0  0
    5.5997   -3.4210    0.3566 H   0  0  0  0  0  0  0  0  0  0  0  0
    3.5198   -1.6174    2.2281 H   0  0  0  0  0  0  0  0  0  0  0  0
    6.4183   -1.5524    1.6132 H   0  0  0  0  0  0  0  0  0  0  0  0
    5.5590   -2.8212    2.5246 H   0  0  0  0  0  0  0  0  0  0  0  0
    7.0606   -2.6578    4.3337 H   0  0  0  0  0  0  0  0  0  0  0  0
    7.8249   -1.5090    6.3504 H   0  0  0  0  0  0  0  0  0  0  0  0
    7.5410    2.6636    8.0911 H   0  0  0  0  0  0  0  0  0  0  0  0
    6.1713    4.0485    6.5346 H   0  0  0  0  0  0  0  0  0  0  0  0
    5.1964    2.9622    4.5188 H   0  0  0  0  0  0  0  0  0  0  0  0
    4.9403    0.8710    3.0889 H   0  0  0  0  0  0  0  0  0  0  0  0
   -0.6321    2.7649   -1.6564 H   0  0  0  0  0  0  0  0  0  0  0  0
   -2.9982    1.4231   -0.5817 H   0  0  0  0  0  0  0  0  0  0  0  0
   -3.7219   -0.8809    0.0438 H   0  0  0  0  0  0  0  0  0  0  0  0
   -2.1379   -2.7712   -0.0917 H   0  0  0  0  0  0  0  0  0  0  0  0
    0.2663   -2.3721   -0.5163 H   0  0  0  0  0  0  0  0  0  0  0  0
  1  2  2  0  0  0  0
  2  3  1  0  0  0  0
  2 21  1  0  0  0  0
  3  4  1  0  0  0  0
  3  8  2  0  0  0  0
  4  5  2  0  0  0  0
  4 30  1  0  0  0  0
  5  6  1  0  0  0  0
  5 31  1  0  0  0  0
  6  7  2  0  0  0  0
  6 32  1  0  0  0  0
  7  8  1  0  0  0  0
  7 33  1  0  0  0  0
  8  9  1  0  0  0  0
  9 10  1  0  0  0  0
  9 34  1  0  0  0  0
 10 11  1  0  0  0  0
 10 35  1  0  0  0  0
 10 36  1  0  0  0  0
 11 12  1  0  0  0  0
 11 20  2  0  0  0  0
 12 13  2  0  0  0  0
 12 37  1  0  0  0  0
 13 14  1  0  0  0  0
 13 38  1  0  0  0  0
 14 15  1  0  0  0  0
 14 19  2  0  0  0  0
 15 16  2  0  0  0  0
 16 17  1  0  0  0  0
 16 39  1  0  0  0  0
 17 18  2  0  0  0  0
 17 40  1  0  0  0  0
 18 19  1  0  0  0  0
 18 41  1  0  0  0  0
 19 20  1  0  0  0  0
 20 42  1  0  0  0  0
 21 22  2  0  0  0  0
 21 29  1  0  0  0  0
 22 23  1  0  0  0  0
 23 24  1  0  0  0  0
 23 43  1  0  0  0  0
 24 25  1  0  0  0  0
 24 29  2  0  0  0  0
 25 26  2  0  0  0  0
 25 44  1  0  0  0  0
 26 27  1  0  0  0  0
 26 45  1  0  0  0  0
 27 28  2  0  0  0  0
 27 46  1  0  0  0  0
 28 29  1  0  0  0  0
 28 47  1  0  0  0  0
M  END
$$$$
