CHEMBL3929354
 OpenBabel04072215373D

 53 57  0  0  1  0  0  0  0  0999 V2000
   -3.6185   -3.5379    3.2541 C   0  0  0  0  0  0  0  0  0  0  0  0
   -2.4658   -3.1028    2.5354 O   0  0  0  0  0  0  0  0  0  0  0  0
   -1.3881   -3.9540    2.5285 C   0  0  0  0  0  0  0  0  0  0  0  0
   -1.4234   -5.2388    3.0709 C   0  0  0  0  0  0  0  0  0  0  0  0
   -0.2825   -6.0656    3.0607 C   0  0  0  0  0  0  0  0  0  0  0  0
   -0.2625   -7.3800    3.5528 C   0  0  0  0  0  0  0  0  0  0  0  0
   -1.4762   -7.9763    4.0083 N   0  0  0  0  0  0  0  0  0  0  0  0
   -1.5131   -9.1452    4.8005 C   0  0  0  0  0  0  0  0  0  0  0  0
   -0.6999   -9.2477    5.9361 C   0  0  0  0  0  0  0  0  0  0  0  0
   -0.6192  -10.4373    6.6573 C   0  0  0  0  0  0  0  0  0  0  0  0
   -1.3714  -11.5422    6.2596 C   0  0  0  0  0  0  0  0  0  0  0  0
   -1.1144  -13.1599    7.2186 Br  0  0  0  0  0  0  0  0  0  0  0  0
   -2.2469  -11.4308    5.1733 C   0  0  0  0  0  0  0  0  0  0  0  0
   -3.2346  -12.7455    4.6392 Cl  0  0  0  0  0  0  0  0  0  0  0  0
   -2.3274  -10.2291    4.4557 C   0  0  0  0  0  0  0  0  0  0  0  0
    0.8651   -8.1096    3.5752 N   0  0  0  0  0  0  0  0  0  0  0  0
    1.9651   -7.5326    3.0818 C   0  0  0  0  0  0  0  0  0  0  0  0
    2.0459   -6.2994    2.5650 N   0  0  0  0  0  0  0  0  0  0  0  0
    0.9250   -5.5741    2.5578 C   0  0  0  0  0  0  0  0  0  0  0  0
    0.9502   -4.2931    2.0115 C   0  0  0  0  0  0  0  0  0  0  0  0
   -0.1943   -3.4891    1.9505 C   0  0  0  0  0  0  0  0  0  0  0  0
   -0.2596   -2.2996    1.2704 O   0  0  0  0  0  0  0  0  0  0  0  0
    0.9172   -1.4756    1.1583 C   0  0  1  0  0  0  0  0  0  0  0  0
    1.7593   -1.8232   -0.0698 C   0  0  0  0  0  0  0  0  0  0  0  0
    1.2149   -1.1085   -1.1921 O   0  0  0  0  0  0  0  0  0  0  0  0
    0.6691    0.1054   -0.6768 C   0  0  2  0  0  0  0  0  0  0  0  0
    1.6050    1.3191   -0.7807 C   0  0  2  0  0  0  0  0  0  0  0  0
    2.9848    0.9228   -0.8245 O   0  0  0  0  0  0  0  0  0  0  0  0
    3.8778    2.0023   -1.0705 C   0  0  0  0  0  0  0  0  0  0  0  0
    1.2798    2.0350    0.5236 C   0  0  0  0  0  0  0  0  0  0  0  0
    1.1256    0.9826    1.4953 O   0  0  0  0  0  0  0  0  0  0  0  0
    0.4215   -0.0726    0.8196 C   0  0  2  0  0  0  0  0  0  0  0  0
   -4.3310   -2.7102    3.2993 H   0  0  0  0  0  0  0  0  0  0  0  0
   -3.3744   -3.8130    4.2876 H   0  0  0  0  0  0  0  0  0  0  0  0
   -4.1020   -4.3716    2.7329 H   0  0  0  0  0  0  0  0  0  0  0  0
   -2.3305   -5.6277    3.5207 H   0  0  0  0  0  0  0  0  0  0  0  0
   -2.1314   -8.0096    3.2323 H   0  0  0  0  0  0  0  0  0  0  0  0
   -0.0912   -8.3990    6.2417 H   0  0  0  0  0  0  0  0  0  0  0  0
    0.0572  -10.4928    7.5059 H   0  0  0  0  0  0  0  0  0  0  0  0
   -2.9956  -10.1636    3.6011 H   0  0  0  0  0  0  0  0  0  0  0  0
    2.8705   -8.1290    3.0910 H   0  0  0  0  0  0  0  0  0  0  0  0
    1.8961   -3.9587    1.6002 H   0  0  0  0  0  0  0  0  0  0  0  0
    1.4922   -1.5088    2.0900 H   0  0  0  0  0  0  0  0  0  0  0  0
    1.7649   -2.8841   -0.3251 H   0  0  0  0  0  0  0  0  0  0  0  0
    2.7947   -1.4929    0.0707 H   0  0  0  0  0  0  0  0  0  0  0  0
   -0.2744    0.3059   -1.1971 H   0  0  0  0  0  0  0  0  0  0  0  0
    1.3769    1.9214   -1.6674 H   0  0  0  0  0  0  0  0  0  0  0  0
    4.8829    1.5933   -1.2055 H   0  0  0  0  0  0  0  0  0  0  0  0
    3.9084    2.6865   -0.2187 H   0  0  0  0  0  0  0  0  0  0  0  0
    3.5985    2.5466   -1.9778 H   0  0  0  0  0  0  0  0  0  0  0  0
    0.3310    2.5793    0.4514 H   0  0  0  0  0  0  0  0  0  0  0  0
    2.0544    2.7184    0.8743 H   0  0  0  0  0  0  0  0  0  0  0  0
   -0.6420    0.0546    1.0538 H   0  0  0  0  0  0  0  0  0  0  0  0
  1  2  1  0  0  0  0
  1 33  1  0  0  0  0
  1 34  1  0  0  0  0
  1 35  1  0  0  0  0
  2  3  1  0  0  0  0
  3  4  1  0  0  0  0
  3 21  2  0  0  0  0
  4  5  2  0  0  0  0
  4 36  1  0  0  0  0
  5  6  1  0  0  0  0
  5 19  1  0  0  0  0
  6  7  1  0  0  0  0
  6 16  2  0  0  0  0
  7  8  1  0  0  0  0
  7 37  1  0  0  0  0
  8  9  1  0  0  0  0
  8 15  2  0  0  0  0
  9 10  2  0  0  0  0
  9 38  1  0  0  0  0
 10 11  1  0  0  0  0
 10 39  1  0  0  0  0
 11 12  1  0  0  0  0
 11 13  2  0  0  0  0
 13 14  1  0  0  0  0
 13 15  1  0  0  0  0
 15 40  1  0  0  0  0
 16 17  1  0  0  0  0
 17 18  2  0  0  0  0
 17 41  1  0  0  0  0
 18 19  1  0  0  0  0
 19 20  2  0  0  0  0
 20 21  1  0  0  0  0
 20 42  1  0  0  0  0
 21 22  1  0  0  0  0
 23 24  1  0  0  0  0
 23 32  1  0  0  0  0
 23 22  1  0  0  0  0
 23 43  1  1  0  0  0
 24 25  1  0  0  0  0
 24 44  1  0  0  0  0
 24 45  1  0  0  0  0
 25 26  1  0  0  0  0
 26 27  1  0  0  0  0
 26 32  1  0  0  0  0
 26 46  1  6  0  0  0
 27 30  1  0  0  0  0
 27 28  1  0  0  0  0
 27 47  1  6  0  0  0
 28 29  1  0  0  0  0
 29 48  1  0  0  0  0
 29 49  1  0  0  0  0
 29 50  1  0  0  0  0
 30 31  1  0  0  0  0
 30 51  1  0  0  0  0
 30 52  1  0  0  0  0
 31 32  1  0  0  0  0
 32 53  1  1  0  0  0
M  END
$$$$
