CHEMBL4164213
 OpenBabel04072215383D

 57 59  0  0  0  0  0  0  0  0999 V2000
    4.7450   -2.6303    4.5928 C   0  0  0  0  0  0  0  0  0  0  0  0
    5.3365   -1.4433    4.7900 C   0  0  0  0  0  0  0  0  0  0  0  0
    5.0344   -0.3039    3.8827 C   0  0  0  0  0  0  0  0  0  0  0  0
    4.1418   -0.3798    3.0454 O   0  0  0  0  0  0  0  0  0  0  0  0
    5.8806    0.7658    4.0615 N   0  0  0  0  0  0  0  0  0  0  0  0
    5.7856    1.9300    3.2911 C   0  0  0  0  0  0  0  0  0  0  0  0
    4.5560    2.4936    2.9837 C   0  0  0  0  0  0  0  0  0  0  0  0
    4.5263    3.6293    2.1881 C   0  0  0  0  0  0  0  0  0  0  0  0
    5.7195    4.1473    1.6945 C   0  0  0  0  0  0  0  0  0  0  0  0
    6.9222    3.5395    2.0516 C   0  0  0  0  0  0  0  0  0  0  0  0
    8.2391    4.0312    1.5810 C   0  0  0  0  0  0  0  0  0  0  0  0
    9.3842    3.7680    2.3357 C   0  0  0  0  0  0  0  0  0  0  0  0
   10.6376    4.2663    1.9684 C   0  0  0  0  0  0  0  0  0  0  0  0
   10.8059    5.0313    0.8205 C   0  0  0  0  0  0  0  0  0  0  0  0
   12.0540    5.6062    0.4487 N   0  0  0  0  0  0  0  0  0  0  0  0
   13.2496    5.3989    1.1123 C   0  0  0  0  0  0  0  0  0  0  0  0
   13.4126    4.6056    2.0278 O   0  0  0  0  0  0  0  0  0  0  0  0
   14.2650    6.2389    0.6560 N   0  0  0  0  0  0  0  0  0  0  0  0
   15.5404    6.1439    1.2690 C   0  0  0  0  0  0  0  0  0  0  0  0
   16.1336    4.9003    1.4789 C   0  0  0  0  0  0  0  0  0  0  0  0
   17.3031    4.7783    2.2313 C   0  0  0  0  0  0  0  0  0  0  0  0
   17.9205    5.9056    2.7969 C   0  0  0  0  0  0  0  0  0  0  0  0
   19.1672    5.7842    3.6925 C   0  0  0  0  0  0  0  0  0  0  0  0
   19.6572    4.3280    3.8745 C   0  0  0  0  0  0  0  0  0  0  0  0
   20.3287    6.5874    3.0745 C   0  0  0  0  0  0  0  0  0  0  0  0
   18.8719    6.3357    5.1055 C   0  0  0  0  0  0  0  0  0  0  0  0
   17.3403    7.1613    2.5195 C   0  0  0  0  0  0  0  0  0  0  0  0
   16.1770    7.2850    1.7436 C   0  0  0  0  0  0  0  0  0  0  0  0
    9.6885    5.2703    0.0199 C   0  0  0  0  0  0  0  0  0  0  0  0
    8.4214    4.7733    0.3959 C   0  0  0  0  0  0  0  0  0  0  0  0
    6.9556    2.4675    2.8934 N   0  0  0  0  0  0  0  0  0  0  0  0
    4.9178   -3.4639    5.2630 H   0  0  0  0  0  0  0  0  0  0  0  0
    4.0659   -2.7933    3.7583 H   0  0  0  0  0  0  0  0  0  0  0  0
    5.9992   -1.2819    5.6303 H   0  0  0  0  0  0  0  0  0  0  0  0
    6.7962    0.6053    4.4559 H   0  0  0  0  0  0  0  0  0  0  0  0
    3.6331    2.0753    3.3712 H   0  0  0  0  0  0  0  0  0  0  0  0
    3.5786    4.1029    1.9479 H   0  0  0  0  0  0  0  0  0  0  0  0
    5.6948    5.0235    1.0611 H   0  0  0  0  0  0  0  0  0  0  0  0
    9.3182    3.1756    3.2468 H   0  0  0  0  0  0  0  0  0  0  0  0
   11.4524    4.0269    2.6424 H   0  0  0  0  0  0  0  0  0  0  0  0
   12.0912    6.1209   -0.4177 H   0  0  0  0  0  0  0  0  0  0  0  0
   13.9564    7.1651    0.4025 H   0  0  0  0  0  0  0  0  0  0  0  0
   15.6663    3.9915    1.0974 H   0  0  0  0  0  0  0  0  0  0  0  0
   17.6851    3.7762    2.3857 H   0  0  0  0  0  0  0  0  0  0  0  0
   19.9311    3.8729    2.9155 H   0  0  0  0  0  0  0  0  0  0  0  0
   18.8888    3.7001    4.3426 H   0  0  0  0  0  0  0  0  0  0  0  0
   20.5430    4.2829    4.5182 H   0  0  0  0  0  0  0  0  0  0  0  0
   20.5724    6.2185    2.0716 H   0  0  0  0  0  0  0  0  0  0  0  0
   21.2329    6.5086    3.6889 H   0  0  0  0  0  0  0  0  0  0  0  0
   20.0921    7.6534    2.9862 H   0  0  0  0  0  0  0  0  0  0  0  0
   18.0516    5.7881    5.5840 H   0  0  0  0  0  0  0  0  0  0  0  0
   18.5990    7.3956    5.0891 H   0  0  0  0  0  0  0  0  0  0  0  0
   19.7528    6.2417    5.7546 H   0  0  0  0  0  0  0  0  0  0  0  0
   17.7711    8.0677    2.9413 H   0  0  0  0  0  0  0  0  0  0  0  0
   15.7400    8.2691    1.6002 H   0  0  0  0  0  0  0  0  0  0  0  0
    9.7670    5.8454   -0.8986 H   0  0  0  0  0  0  0  0  0  0  0  0
    7.5813    4.9728   -0.2641 H   0  0  0  0  0  0  0  0  0  0  0  0
  1  2  2  0  0  0  0
  1 32  1  0  0  0  0
  1 33  1  0  0  0  0
  2  3  1  0  0  0  0
  2 34  1  0  0  0  0
  3  4  2  0  0  0  0
  3  5  1  0  0  0  0
  5  6  1  0  0  0  0
  5 35  1  0  0  0  0
  6  7  1  0  0  0  0
  6 31  2  0  0  0  0
  7  8  2  0  0  0  0
  7 36  1  0  0  0  0
  8  9  1  0  0  0  0
  8 37  1  0  0  0  0
  9 10  2  0  0  0  0
  9 38  1  0  0  0  0
 10 11  1  0  0  0  0
 10 31  1  0  0  0  0
 11 12  1  0  0  0  0
 11 30  2  0  0  0  0
 12 13  2  0  0  0  0
 12 39  1  0  0  0  0
 13 14  1  0  0  0  0
 13 40  1  0  0  0  0
 14 15  1  0  0  0  0
 14 29  2  0  0  0  0
 15 16  1  0  0  0  0
 15 41  1  0  0  0  0
 16 17  2  0  0  0  0
 16 18  1  0  0  0  0
 18 19  1  0  0  0  0
 18 42  1  0  0  0  0
 19 20  1  0  0  0  0
 19 28  2  0  0  0  0
 20 21  2  0  0  0  0
 20 43  1  0  0  0  0
 21 22  1  0  0  0  0
 21 44  1  0  0  0  0
 22 23  1  0  0  0  0
 22 27  2  0  0  0  0
 23 24  1  0  0  0  0
 23 25  1  0  0  0  0
 23 26  1  0  0  0  0
 24 45  1  0  0  0  0
 24 46  1  0  0  0  0
 24 47  1  0  0  0  0
 25 48  1  0  0  0  0
 25 49  1  0  0  0  0
 25 50  1  0  0  0  0
 26 51  1  0  0  0  0
 26 52  1  0  0  0  0
 26 53  1  0  0  0  0
 27 28  1  0  0  0  0
 27 54  1  0  0  0  0
 28 55  1  0  0  0  0
 29 30  1  0  0  0  0
 29 56  1  0  0  0  0
 30 57  1  0  0  0  0
M  END
$$$$
