CHEMBL1991008
 OpenBabel04072215363D

 27 29  0  0  0  0  0  0  0  0999 V2000
    2.4005    1.4371   -0.1191 N   0  0  0  0  0  0  0  0  0  0  0  0
    1.5639    0.3905   -0.1119 C   0  0  0  0  0  0  0  0  0  0  0  0
    1.9845   -0.8682   -0.1457 N   0  0  0  0  0  0  0  0  0  0  0  0
    0.8461   -1.5784   -0.1693 N   0  0  0  0  0  0  0  0  0  0  0  0
   -0.3029   -0.8369   -0.0598 C   0  0  0  0  0  0  0  0  0  0  0  0
   -1.6669   -1.2092    0.0156 C   0  0  0  0  0  0  0  0  0  0  0  0
   -2.1252   -2.6167    0.0461 C   0  0  0  0  0  0  0  0  0  0  0  0
   -1.4255   -3.6166    0.7438 C   0  0  0  0  0  0  0  0  0  0  0  0
   -1.8643   -4.9452    0.7561 C   0  0  0  0  0  0  0  0  0  0  0  0
   -3.0402   -5.2988    0.1058 C   0  0  0  0  0  0  0  0  0  0  0  0
   -3.7737   -4.3256   -0.5642 C   0  0  0  0  0  0  0  0  0  0  0  0
   -3.3141   -3.0048   -0.6022 C   0  0  0  0  0  0  0  0  0  0  0  0
   -2.5689   -0.1190    0.0531 C   0  0  0  0  0  0  0  0  0  0  0  0
   -2.1491    1.2134    0.0293 C   0  0  0  0  0  0  0  0  0  0  0  0
   -0.7924    1.5294   -0.0181 C   0  0  0  0  0  0  0  0  0  0  0  0
    0.1458    0.4841   -0.0612 C   0  0  0  0  0  0  0  0  0  0  0  0
    3.3819    1.2467    0.0459 H   0  0  0  0  0  0  0  0  0  0  0  0
    2.0925    2.3639    0.1449 H   0  0  0  0  0  0  0  0  0  0  0  0
    0.9203   -2.5852   -0.2545 H   0  0  0  0  0  0  0  0  0  0  0  0
   -0.5355   -3.3744    1.3189 H   0  0  0  0  0  0  0  0  0  0  0  0
   -1.2918   -5.6999    1.2899 H   0  0  0  0  0  0  0  0  0  0  0  0
   -3.3903   -6.3284    0.1271 H   0  0  0  0  0  0  0  0  0  0  0  0
   -4.7046   -4.5908   -1.0590 H   0  0  0  0  0  0  0  0  0  0  0  0
   -3.9067   -2.2763   -1.1530 H   0  0  0  0  0  0  0  0  0  0  0  0
   -3.6397   -0.3085    0.1125 H   0  0  0  0  0  0  0  0  0  0  0  0
   -2.8874    2.0115    0.0513 H   0  0  0  0  0  0  0  0  0  0  0  0
   -0.4676    2.5645   -0.0311 H   0  0  0  0  0  0  0  0  0  0  0  0
  1  2  1  0  0  0  0
  1 17  1  0  0  0  0
  1 18  1  0  0  0  0
  2  3  2  0  0  0  0
  2 16  1  0  0  0  0
  3  4  1  0  0  0  0
  4  5  1  0  0  0  0
  4 19  1  0  0  0  0
  5  6  1  0  0  0  0
  5 16  2  0  0  0  0
  6  7  1  0  0  0  0
  6 13  2  0  0  0  0
  7  8  1  0  0  0  0
  7 12  2  0  0  0  0
  8  9  2  0  0  0  0
  8 20  1  0  0  0  0
  9 10  1  0  0  0  0
  9 21  1  0  0  0  0
 10 11  2  0  0  0  0
 10 22  1  0  0  0  0
 11 12  1  0  0  0  0
 11 23  1  0  0  0  0
 12 24  1  0  0  0  0
 13 14  1  0  0  0  0
 13 25  1  0  0  0  0
 14 15  2  0  0  0  0
 14 26  1  0  0  0  0
 15 16  1  0  0  0  0
 15 27  1  0  0  0  0
M  END
$$$$
