CHEMBL196636
 OpenBabel04072215363D

 58 61  0  0  0  0  0  0  0  0999 V2000
    2.5501   -0.3855   -0.3676 C   0  0  0  0  0  0  0  0  0  0  0  0
    1.0703   -0.2668   -0.5731 C   0  0  0  0  0  0  0  0  0  0  0  0
    0.5328    0.9389   -1.0354 C   0  0  0  0  0  0  0  0  0  0  0  0
   -0.8339    1.0571   -1.2375 C   0  0  0  0  0  0  0  0  0  0  0  0
   -1.6726   -0.0242   -0.9725 C   0  0  0  0  0  0  0  0  0  0  0  0
   -1.1706   -1.2438   -0.4894 C   0  0  0  0  0  0  0  0  0  0  0  0
   -2.0021   -2.3637   -0.1954 N   0  0  0  0  0  0  0  0  0  0  0  0
   -3.3890   -2.3340   -0.1852 C   0  0  0  0  0  0  0  0  0  0  0  0
   -4.0407   -1.3063   -0.3374 O   0  0  0  0  0  0  0  0  0  0  0  0
   -3.9785   -3.5779    0.0040 N   0  0  0  0  0  0  0  0  0  0  0  0
   -5.3822   -3.7695   -0.1378 C   0  0  0  0  0  0  0  0  0  0  0  0
   -6.1537   -2.8927   -0.8960 C   0  0  0  0  0  0  0  0  0  0  0  0
   -7.5435   -2.9245   -0.8444 C   0  0  0  0  0  0  0  0  0  0  0  0
   -8.2282   -3.9456   -0.1856 C   0  0  0  0  0  0  0  0  0  0  0  0
   -9.7104   -3.9357   -0.1274 C   0  0  0  0  0  0  0  0  0  0  0  0
  -10.4874   -3.5153   -1.2227 C   0  0  0  0  0  0  0  0  0  0  0  0
  -10.0502   -3.0377   -2.6031 C   0  0  0  0  0  0  0  0  0  0  0  0
  -11.0230   -3.2805   -3.7674 C   0  0  0  0  0  0  0  0  0  0  0  0
  -10.5158   -2.8047   -5.0763 N   0  0  0  0  0  0  0  0  0  0  0  0
   -9.2778   -3.4701   -5.4805 C   0  0  0  0  0  0  0  0  0  0  0  0
  -11.5438   -3.0110   -6.1020 C   0  0  0  0  0  0  0  0  0  0  0  0
  -12.1561   -3.4933   -0.8404 S   0  0  0  0  0  0  0  0  0  0  0  0
  -11.8978   -4.1000    0.7124 C   0  0  0  0  0  0  0  0  0  0  0  0
  -12.9608   -4.3284    1.5004 N   0  0  0  0  0  0  0  0  0  0  0  0
  -12.6159   -4.7769    2.7021 C   0  0  0  0  0  0  0  0  0  0  0  0
  -11.3769   -4.9765    3.1622 N   0  0  0  0  0  0  0  0  0  0  0  0
  -10.3326   -4.7181    2.3507 C   0  0  0  0  0  0  0  0  0  0  0  0
   -9.0903   -4.8976    2.9487 N   0  0  0  0  0  0  0  0  0  0  0  0
  -10.5579   -4.2788    1.0251 C   0  0  0  0  0  0  0  0  0  0  0  0
   -7.4444   -4.9354    0.4281 C   0  0  0  0  0  0  0  0  0  0  0  0
   -6.0361   -4.8275    0.4944 C   0  0  0  0  0  0  0  0  0  0  0  0
    0.2114   -1.3572   -0.3092 C   0  0  0  0  0  0  0  0  0  0  0  0
    3.0593    0.5575   -0.6005 H   0  0  0  0  0  0  0  0  0  0  0  0
    2.9628   -1.1562   -1.0254 H   0  0  0  0  0  0  0  0  0  0  0  0
    2.7712   -0.6316    0.6748 H   0  0  0  0  0  0  0  0  0  0  0  0
    1.1718    1.7929   -1.2454 H   0  0  0  0  0  0  0  0  0  0  0  0
   -1.2605    1.9882   -1.6020 H   0  0  0  0  0  0  0  0  0  0  0  0
   -2.7241    0.1335   -1.1735 H   0  0  0  0  0  0  0  0  0  0  0  0
   -1.5436   -3.2235    0.0648 H   0  0  0  0  0  0  0  0  0  0  0  0
   -3.4745   -4.2527    0.5607 H   0  0  0  0  0  0  0  0  0  0  0  0
   -5.7033   -2.1191   -1.5116 H   0  0  0  0  0  0  0  0  0  0  0  0
   -8.0569   -2.1047   -1.3337 H   0  0  0  0  0  0  0  0  0  0  0  0
   -9.1171   -3.5602   -2.8400 H   0  0  0  0  0  0  0  0  0  0  0  0
   -9.8410   -1.9642   -2.5466 H   0  0  0  0  0  0  0  0  0  0  0  0
  -11.9499   -2.7307   -3.5619 H   0  0  0  0  0  0  0  0  0  0  0  0
  -11.2778   -4.3462   -3.8191 H   0  0  0  0  0  0  0  0  0  0  0  0
   -8.4433   -3.1824   -4.8310 H   0  0  0  0  0  0  0  0  0  0  0  0
   -8.9812   -3.1587   -6.4881 H   0  0  0  0  0  0  0  0  0  0  0  0
   -9.3726   -4.5608   -5.4700 H   0  0  0  0  0  0  0  0  0  0  0  0
  -12.4564   -2.4573   -5.8456 H   0  0  0  0  0  0  0  0  0  0  0  0
  -11.8000   -4.0674   -6.2160 H   0  0  0  0  0  0  0  0  0  0  0  0
  -11.2078   -2.6247   -7.0686 H   0  0  0  0  0  0  0  0  0  0  0  0
  -13.4277   -4.9956    3.3881 H   0  0  0  0  0  0  0  0  0  0  0  0
   -9.2182   -5.0086    3.9495 H   0  0  0  0  0  0  0  0  0  0  0  0
   -8.4150   -4.1901    2.6847 H   0  0  0  0  0  0  0  0  0  0  0  0
   -7.9166   -5.7885    0.9124 H   0  0  0  0  0  0  0  0  0  0  0  0
   -5.4844   -5.5597    1.0777 H   0  0  0  0  0  0  0  0  0  0  0  0
    0.6440   -2.2867    0.0547 H   0  0  0  0  0  0  0  0  0  0  0  0
  1  2  1  0  0  0  0
  1 33  1  0  0  0  0
  1 34  1  0  0  0  0
  1 35  1  0  0  0  0
  2  3  1  0  0  0  0
  2 32  2  0  0  0  0
  3  4  2  0  0  0  0
  3 36  1  0  0  0  0
  4  5  1  0  0  0  0
  4 37  1  0  0  0  0
  5  6  2  0  0  0  0
  5 38  1  0  0  0  0
  6  7  1  0  0  0  0
  6 32  1  0  0  0  0
  7  8  1  0  0  0  0
  7 39  1  0  0  0  0
  8  9  2  0  0  0  0
  8 10  1  0  0  0  0
 10 11  1  0  0  0  0
 10 40  1  0  0  0  0
 11 12  1  0  0  0  0
 11 31  2  0  0  0  0
 12 13  2  0  0  0  0
 12 41  1  0  0  0  0
 13 14  1  0  0  0  0
 13 42  1  0  0  0  0
 14 15  1  0  0  0  0
 14 30  2  0  0  0  0
 15 16  2  0  0  0  0
 15 29  1  0  0  0  0
 16 17  1  0  0  0  0
 16 22  1  0  0  0  0
 17 18  1  0  0  0  0
 17 43  1  0  0  0  0
 17 44  1  0  0  0  0
 18 19  1  0  0  0  0
 18 45  1  0  0  0  0
 18 46  1  0  0  0  0
 19 20  1  0  0  0  0
 19 21  1  0  0  0  0
 20 47  1  0  0  0  0
 20 48  1  0  0  0  0
 20 49  1  0  0  0  0
 21 50  1  0  0  0  0
 21 51  1  0  0  0  0
 21 52  1  0  0  0  0
 22 23  1  0  0  0  0
 23 24  1  0  0  0  0
 23 29  2  0  0  0  0
 24 25  2  0  0  0  0
 25 26  1  0  0  0  0
 25 53  1  0  0  0  0
 26 27  2  0  0  0  0
 27 28  1  0  0  0  0
 27 29  1  0  0  0  0
 28 54  1  0  0  0  0
 28 55  1  0  0  0  0
 30 31  1  0  0  0  0
 30 56  1  0  0  0  0
 31 57  1  0  0  0  0
 32 58  1  0  0  0  0
M  END
$$$$
