CHEMBL2016900
 OpenBabel04072215363D

 45 49  0  0  0  0  0  0  0  0999 V2000
    2.5021    1.1382   -0.2355 O   0  0  0  0  0  0  0  0  0  0  0  0
    2.1713   -0.0256    0.0021 C   0  0  0  0  0  0  0  0  0  0  0  0
    0.7362   -0.4256   -0.3274 C   0  0  0  0  0  0  0  0  0  0  0  0
    0.0380   -1.5857    0.0499 C   0  0  0  0  0  0  0  0  0  0  0  0
   -1.2969   -1.7985   -0.2822 C   0  0  0  0  0  0  0  0  0  0  0  0
   -1.9524   -0.8112   -0.9689 C   0  0  0  0  0  0  0  0  0  0  0  0
   -1.3554    0.3359   -1.3486 N   0  0  0  0  0  0  0  0  0  0  0  0
   -0.0362    0.4982   -1.0255 C   0  0  0  0  0  0  0  0  0  0  0  0
    3.0980   -0.9156    0.6010 N   0  0  0  0  0  0  0  0  0  0  0  0
    2.6855   -2.2680    0.9499 C   0  0  0  0  0  0  0  0  0  0  0  0
    3.6594   -3.3221    1.4274 C   0  0  0  0  0  0  0  0  0  0  0  0
    4.8270   -2.6831    1.9968 C   0  0  0  0  0  0  0  0  0  0  0  0
    5.7782   -3.3715    2.6594 N   0  0  0  0  0  0  0  0  0  0  0  0
    6.6398   -2.4617    3.0707 C   0  0  0  0  0  0  0  0  0  0  0  0
    7.7860   -2.6763    3.8605 C   0  0  0  0  0  0  0  0  0  0  0  0
    8.2368   -3.9430    3.9715 C   0  0  0  0  0  0  0  0  0  0  0  0
    9.1241   -4.3079    5.0637 C   0  0  0  0  0  0  0  0  0  0  0  0
    9.4570   -5.6405    5.2785 C   0  0  0  0  0  0  0  0  0  0  0  0
    9.4834   -6.1012    6.5812 C   0  0  0  0  0  0  0  0  0  0  0  0
    9.2409   -7.3949    6.8298 F   0  0  0  0  0  0  0  0  0  0  0  0
    9.6858   -5.1961    7.6156 C   0  0  0  0  0  0  0  0  0  0  0  0
    9.7431   -3.8385    7.3305 C   0  0  0  0  0  0  0  0  0  0  0  0
    9.3056   -3.3973    6.0784 C   0  0  0  0  0  0  0  0  0  0  0  0
    9.0782   -2.0703    5.8572 N   0  0  0  0  0  0  0  0  0  0  0  0
    8.3676   -1.6250    4.7738 C   0  0  0  0  0  0  0  0  0  0  0  0
    8.1215   -0.4322    4.5763 O   0  0  0  0  0  0  0  0  0  0  0  0
    6.2480   -1.1970    2.6719 N   0  0  0  0  0  0  0  0  0  0  0  0
    5.0828   -1.3398    1.9502 C   0  0  0  0  0  0  0  0  0  0  0  0
    4.2392   -0.2916    1.3238 C   0  0  0  0  0  0  0  0  0  0  0  0
    0.4327   -2.3952    0.6370 H   0  0  0  0  0  0  0  0  0  0  0  0
   -1.7977   -2.7142    0.0192 H   0  0  0  0  0  0  0  0  0  0  0  0
   -3.0017   -0.9193   -1.2213 H   0  0  0  0  0  0  0  0  0  0  0  0
    0.3776    1.4487   -1.3546 H   0  0  0  0  0  0  0  0  0  0  0  0
    2.2428   -2.6936    0.0456 H   0  0  0  0  0  0  0  0  0  0  0  0
    1.9635   -2.1270    1.7609 H   0  0  0  0  0  0  0  0  0  0  0  0
    3.9416   -3.9924    0.6105 H   0  0  0  0  0  0  0  0  0  0  0  0
    3.1504   -3.9390    2.1799 H   0  0  0  0  0  0  0  0  0  0  0  0
    7.7366   -4.7484    3.4298 H   0  0  0  0  0  0  0  0  0  0  0  0
    9.9085   -6.2324    4.4881 H   0  0  0  0  0  0  0  0  0  0  0  0
    9.7818   -5.5782    8.6334 H   0  0  0  0  0  0  0  0  0  0  0  0
    9.9695   -3.1387    8.1294 H   0  0  0  0  0  0  0  0  0  0  0  0
    9.3419   -1.3544    6.5161 H   0  0  0  0  0  0  0  0  0  0  0  0
    6.7218   -0.3388    2.9182 H   0  0  0  0  0  0  0  0  0  0  0  0
    4.8176    0.3249    0.6265 H   0  0  0  0  0  0  0  0  0  0  0  0
    3.8228    0.3655    2.0974 H   0  0  0  0  0  0  0  0  0  0  0  0
  1  2  2  0  0  0  0
  2  3  1  0  0  0  0
  2  9  1  0  0  0  0
  3  4  1  0  0  0  0
  3  8  2  0  0  0  0
  4  5  2  0  0  0  0
  4 30  1  0  0  0  0
  5  6  1  0  0  0  0
  5 31  1  0  0  0  0
  6  7  2  0  0  0  0
  6 32  1  0  0  0  0
  7  8  1  0  0  0  0
  8 33  1  0  0  0  0
  9 10  1  0  0  0  0
  9 29  1  0  0  0  0
 10 11  1  0  0  0  0
 10 34  1  0  0  0  0
 10 35  1  0  0  0  0
 11 12  1  0  0  0  0
 11 36  1  0  0  0  0
 11 37  1  0  0  0  0
 12 13  1  0  0  0  0
 12 28  2  0  0  0  0
 13 14  2  0  0  0  0
 14 15  1  0  0  0  0
 14 27  1  0  0  0  0
 15 16  2  0  0  0  0
 15 25  1  0  0  0  0
 16 17  1  0  0  0  0
 16 38  1  0  0  0  0
 17 18  1  0  0  0  0
 17 23  2  0  0  0  0
 18 19  2  0  0  0  0
 18 39  1  0  0  0  0
 19 20  1  0  0  0  0
 19 21  1  0  0  0  0
 21 22  2  0  0  0  0
 21 40  1  0  0  0  0
 22 23  1  0  0  0  0
 22 41  1  0  0  0  0
 23 24  1  0  0  0  0
 24 25  1  0  0  0  0
 24 42  1  0  0  0  0
 25 26  2  0  0  0  0
 27 28  1  0  0  0  0
 27 43  1  0  0  0  0
 28 29  1  0  0  0  0
 29 44  1  0  0  0  0
 29 45  1  0  0  0  0
M  END
$$$$
