CHEMBL3966129
 OpenBabel04072215373D

 45 48  0  0  0  0  0  0  0  0999 V2000
   -2.1722    0.0042   -0.0631 Cl  0  0  0  0  0  0  0  0  0  0  0  0
   -0.4550    0.0369    0.0368 C   0  0  0  0  0  0  0  0  0  0  0  0
    0.1776    1.0406    0.7609 C   0  0  0  0  0  0  0  0  0  0  0  0
    1.5760    1.0574    0.8505 C   0  0  0  0  0  0  0  0  0  0  0  0
    2.3635    0.1050    0.1806 C   0  0  0  0  0  0  0  0  0  0  0  0
    3.8737    0.1828    0.2372 C   0  0  0  0  0  0  0  0  0  0  0  0
    4.6871   -1.0896    0.2402 C   0  0  0  0  0  0  0  0  0  0  0  0
    4.3101   -2.2929    0.7022 C   0  0  0  0  0  0  0  0  0  0  0  0
    5.1698   -3.4960    0.7838 C   0  0  0  0  0  0  0  0  0  0  0  0
    6.5588   -3.4339    0.9708 C   0  0  0  0  0  0  0  0  0  0  0  0
    7.3148   -4.5979    1.1896 C   0  0  0  0  0  0  0  0  0  0  0  0
    6.6853   -5.8435    1.2266 C   0  0  0  0  0  0  0  0  0  0  0  0
    5.3122   -5.9230    1.0196 C   0  0  0  0  0  0  0  0  0  0  0  0
    4.5636   -4.7613    0.7989 C   0  0  0  0  0  0  0  0  0  0  0  0
    4.5944    1.2823    0.2657 N   0  0  0  0  0  0  0  0  0  0  0  0
    3.9582    2.4792    0.1100 N   0  0  0  0  0  0  0  0  0  0  0  0
    4.5438    3.6557    0.6979 C   0  0  0  0  0  0  0  0  0  0  0  0
    5.7172    3.6115    1.3726 N   0  0  0  0  0  0  0  0  0  0  0  0
    6.2684    4.7537    1.9048 N   0  0  0  0  0  0  0  0  0  0  0  0
    5.6161    5.9238    1.7845 C   0  0  0  0  0  0  0  0  0  0  0  0
    4.3861    6.0412    1.1517 C   0  0  0  0  0  0  0  0  0  0  0  0
    3.7011    7.2712    1.0768 C   0  0  0  0  0  0  0  0  0  0  0  0
    2.4662    7.3625    0.4369 C   0  0  0  0  0  0  0  0  0  0  0  0
    1.9078    6.2315   -0.1445 C   0  0  0  0  0  0  0  0  0  0  0  0
    2.5755    5.0070   -0.0701 C   0  0  0  0  0  0  0  0  0  0  0  0
    3.8274    4.8776    0.5787 C   0  0  0  0  0  0  0  0  0  0  0  0
    1.7034   -0.8941   -0.5538 C   0  0  0  0  0  0  0  0  0  0  0  0
    0.3008   -0.9390   -0.6081 C   0  0  0  0  0  0  0  0  0  0  0  0
   -0.4040    1.8102    1.2627 H   0  0  0  0  0  0  0  0  0  0  0  0
    2.0402    1.8325    1.4557 H   0  0  0  0  0  0  0  0  0  0  0  0
    5.7001   -0.9307   -0.1243 H   0  0  0  0  0  0  0  0  0  0  0  0
    3.3123   -2.4345    1.1086 H   0  0  0  0  0  0  0  0  0  0  0  0
    7.0791   -2.4790    0.9830 H   0  0  0  0  0  0  0  0  0  0  0  0
    8.3807   -4.5257    1.3589 H   0  0  0  0  0  0  0  0  0  0  0  0
    7.2644   -6.7422    1.4296 H   0  0  0  0  0  0  0  0  0  0  0  0
    4.8161   -6.8903    1.0476 H   0  0  0  0  0  0  0  0  0  0  0  0
    3.4889   -4.8560    0.6577 H   0  0  0  0  0  0  0  0  0  0  0  0
    3.8089    2.7102   -0.8727 H   0  0  0  0  0  0  0  0  0  0  0  0
    6.1239    6.7778    2.2205 H   0  0  0  0  0  0  0  0  0  0  0  0
    4.1215    8.1678    1.5321 H   0  0  0  0  0  0  0  0  0  0  0  0
    1.9392    8.3123    0.3948 H   0  0  0  0  0  0  0  0  0  0  0  0
    0.9479    6.2948   -0.6519 H   0  0  0  0  0  0  0  0  0  0  0  0
    2.0946    4.1408   -0.5190 H   0  0  0  0  0  0  0  0  0  0  0  0
    2.2619   -1.6517   -1.0975 H   0  0  0  0  0  0  0  0  0  0  0  0
   -0.1944   -1.7326   -1.1627 H   0  0  0  0  0  0  0  0  0  0  0  0
  1  2  1  0  0  0  0
  2  3  1  0  0  0  0
  2 28  2  0  0  0  0
  3  4  2  0  0  0  0
  3 29  1  0  0  0  0
  4  5  1  0  0  0  0
  4 30  1  0  0  0  0
  5  6  1  0  0  0  0
  5 27  2  0  0  0  0
  6  7  1  0  0  0  0
  6 15  2  0  0  0  0
  7  8  2  0  0  0  0
  7 31  1  0  0  0  0
  8  9  1  0  0  0  0
  8 32  1  0  0  0  0
  9 10  1  0  0  0  0
  9 14  2  0  0  0  0
 10 11  2  0  0  0  0
 10 33  1  0  0  0  0
 11 12  1  0  0  0  0
 11 34  1  0  0  0  0
 12 13  2  0  0  0  0
 12 35  1  0  0  0  0
 13 14  1  0  0  0  0
 13 36  1  0  0  0  0
 14 37  1  0  0  0  0
 15 16  1  0  0  0  0
 16 17  1  0  0  0  0
 16 38  1  0  0  0  0
 17 18  1  0  0  0  0
 17 26  2  0  0  0  0
 18 19  2  0  0  0  0
 19 20  1  0  0  0  0
 20 21  2  0  0  0  0
 20 39  1  0  0  0  0
 21 22  1  0  0  0  0
 21 26  1  0  0  0  0
 22 23  2  0  0  0  0
 22 40  1  0  0  0  0
 23 24  1  0  0  0  0
 23 41  1  0  0  0  0
 24 25  2  0  0  0  0
 24 42  1  0  0  0  0
 25 26  1  0  0  0  0
 25 43  1  0  0  0  0
 27 28  1  0  0  0  0
 27 44  1  0  0  0  0
 28 45  1  0  0  0  0
M  END
$$$$
