CHEMBL495544
 OpenBabel04072215383D

 43 46  0  0  0  0  0  0  0  0999 V2000
    5.7969   -1.0304    3.3191 C   0  0  0  0  0  0  0  0  0  0  0  0
    5.9843   -1.3116    1.8349 C   0  0  0  0  0  0  0  0  0  0  0  0
    4.6938   -1.0117    1.0723 C   0  0  0  0  0  0  0  0  0  0  0  0
    4.7686   -1.3053   -0.4279 C   0  0  0  0  0  0  0  0  0  0  0  0
    5.0255   -2.7380   -0.7816 C   0  0  0  0  0  0  0  0  0  0  0  0
    6.0632   -3.0107   -1.5837 N   0  0  0  0  0  0  0  0  0  0  0  0
    6.0806   -4.3510   -1.6736 N   0  0  0  0  0  0  0  0  0  0  0  0
    7.0397   -4.9576   -2.4092 N   0  0  0  0  0  0  0  0  0  0  0  0
    6.9401   -6.2461   -2.3947 C   0  0  0  0  0  0  0  0  0  0  0  0
    5.9190   -7.0433   -1.6775 C   0  0  0  0  0  0  0  0  0  0  0  0
    4.9969   -6.3617   -0.9900 C   0  0  0  0  0  0  0  0  0  0  0  0
    5.0619   -4.9472   -0.9720 C   0  0  0  0  0  0  0  0  0  0  0  0
    4.3318   -3.9235   -0.3897 C   0  0  0  0  0  0  0  0  0  0  0  0
    3.1647   -4.1398    0.4536 C   0  0  0  0  0  0  0  0  0  0  0  0
    2.0963   -3.2737    0.4595 C   0  0  0  0  0  0  0  0  0  0  0  0
    1.0793   -3.5988    1.3218 C   0  0  0  0  0  0  0  0  0  0  0  0
    1.0733   -4.7083    2.0823 N   0  0  0  0  0  0  0  0  0  0  0  0
    2.1377   -5.5153    1.9851 C   0  0  0  0  0  0  0  0  0  0  0  0
    2.0874   -6.6986    2.7286 N   0  0  0  0  0  0  0  0  0  0  0  0
    3.3279   -7.3121    3.1884 C   0  0  0  0  0  0  0  0  0  0  0  0
    3.9814   -8.4303    2.4264 C   0  0  0  0  0  0  0  0  0  0  0  0
    3.3115   -8.7118    3.7389 C   0  0  0  0  0  0  0  0  0  0  0  0
    3.1986   -5.2505    1.2165 N   0  0  0  0  0  0  0  0  0  0  0  0
    6.7094   -1.2667    3.8737 H   0  0  0  0  0  0  0  0  0  0  0  0
    4.9827   -1.6371    3.7303 H   0  0  0  0  0  0  0  0  0  0  0  0
    5.5549    0.0237    3.4889 H   0  0  0  0  0  0  0  0  0  0  0  0
    6.2732   -2.3610    1.7097 H   0  0  0  0  0  0  0  0  0  0  0  0
    6.8032   -0.6969    1.4450 H   0  0  0  0  0  0  0  0  0  0  0  0
    4.4419    0.0484    1.2014 H   0  0  0  0  0  0  0  0  0  0  0  0
    3.8757   -1.5727    1.5320 H   0  0  0  0  0  0  0  0  0  0  0  0
    5.5444   -0.6663   -0.8711 H   0  0  0  0  0  0  0  0  0  0  0  0
    3.8264   -0.9975   -0.8977 H   0  0  0  0  0  0  0  0  0  0  0  0
    7.6757   -6.8417   -2.9631 H   0  0  0  0  0  0  0  0  0  0  0  0
    5.9490   -8.1222   -1.7301 H   0  0  0  0  0  0  0  0  0  0  0  0
    4.2210   -6.8812   -0.4362 H   0  0  0  0  0  0  0  0  0  0  0  0
    2.0435   -2.3894   -0.1583 H   0  0  0  0  0  0  0  0  0  0  0  0
    0.2068   -2.9604    1.4276 H   0  0  0  0  0  0  0  0  0  0  0  0
    1.3107   -6.5995    3.3725 H   0  0  0  0  0  0  0  0  0  0  0  0
    3.9854   -6.6066    3.6929 H   0  0  0  0  0  0  0  0  0  0  0  0
    5.0642   -8.4487    2.3920 H   0  0  0  0  0  0  0  0  0  0  0  0
    3.4991   -8.7833    1.5232 H   0  0  0  0  0  0  0  0  0  0  0  0
    3.9393   -8.9254    4.5956 H   0  0  0  0  0  0  0  0  0  0  0  0
    2.3795   -9.2641    3.7188 H   0  0  0  0  0  0  0  0  0  0  0  0
  1  2  1  0  0  0  0
  1 24  1  0  0  0  0
  1 25  1  0  0  0  0
  1 26  1  0  0  0  0
  2  3  1  0  0  0  0
  2 27  1  0  0  0  0
  2 28  1  0  0  0  0
  3  4  1  0  0  0  0
  3 29  1  0  0  0  0
  3 30  1  0  0  0  0
  4  5  1  0  0  0  0
  4 31  1  0  0  0  0
  4 32  1  0  0  0  0
  5  6  2  0  0  0  0
  5 13  1  0  0  0  0
  6  7  1  0  0  0  0
  7  8  1  0  0  0  0
  7 12  1  0  0  0  0
  8  9  2  0  0  0  0
  9 10  1  0  0  0  0
  9 33  1  0  0  0  0
 10 11  2  0  0  0  0
 10 34  1  0  0  0  0
 11 12  1  0  0  0  0
 11 35  1  0  0  0  0
 12 13  2  0  0  0  0
 13 14  1  0  0  0  0
 14 15  1  0  0  0  0
 14 23  2  0  0  0  0
 15 16  2  0  0  0  0
 15 36  1  0  0  0  0
 16 17  1  0  0  0  0
 16 37  1  0  0  0  0
 17 18  2  0  0  0  0
 18 19  1  0  0  0  0
 18 23  1  0  0  0  0
 19 20  1  0  0  0  0
 19 38  1  0  0  0  0
 20 21  1  0  0  0  0
 20 22  1  0  0  0  0
 20 39  1  0  0  0  0
 21 22  1  0  0  0  0
 21 40  1  0  0  0  0
 21 41  1  0  0  0  0
 22 42  1  0  0  0  0
 22 43  1  0  0  0  0
M  END
$$$$
