CHEMBL3920861
 OpenBabel04072215373D

 69 71  0  0  0  0  0  0  0  0999 V2000
    1.6338    2.3402   -8.0270 C   0  0  0  0  0  0  0  0  0  0  0  0
    2.7002    1.4056   -7.8429 O   0  0  0  0  0  0  0  0  0  0  0  0
    3.5794    1.7590   -6.8620 C   0  0  0  0  0  0  0  0  0  0  0  0
    3.5003    2.7735   -6.1837 O   0  0  0  0  0  0  0  0  0  0  0  0
    4.6643    0.7113   -6.7400 C   0  0  0  0  0  0  0  0  0  0  0  0
    5.6730    1.0756   -5.6466 C   0  0  0  0  0  0  0  0  0  0  0  0
    6.7855    0.0322   -5.5121 C   0  0  0  0  0  0  0  0  0  0  0  0
    7.7922    0.4244   -4.4311 C   0  0  0  0  0  0  0  0  0  0  0  0
    9.0741   -0.8109   -4.2170 S   0  0  3  0  0  0  0  0  0  0  0  0
   10.0441   -0.1004   -2.8956 C   0  0  0  0  0  0  0  0  0  0  0  0
    8.4216   -1.9909   -3.6822 O   0  0  0  0  0  0  0  0  0  0  0  0
    9.9428   -0.8194   -5.4974 N   0  0  0  0  0  0  0  0  0  0  0  0
   11.0195   -1.7226   -5.6101 C   0  0  0  0  0  0  0  0  0  0  0  0
   11.6064   -2.1651   -4.6251 O   0  0  0  0  0  0  0  0  0  0  0  0
   11.5894   -2.1028   -6.9311 C   0  0  0  0  0  0  0  0  0  0  0  0
   11.0486   -1.6289   -8.1145 C   0  0  0  0  0  0  0  0  0  0  0  0
   11.5661   -1.8973   -9.3437 N   0  0  0  0  0  0  0  0  0  0  0  0
   12.6665   -2.6776   -9.4062 C   0  0  0  0  0  0  0  0  0  0  0  0
   13.2255   -2.8193  -10.6742 N   0  0  0  0  0  0  0  0  0  0  0  0
   13.2627   -3.2296   -8.2656 C   0  0  0  0  0  0  0  0  0  0  0  0
   14.4015   -4.0983   -8.3514 C   0  0  0  0  0  0  0  0  0  0  0  0
   15.3212   -4.8659   -8.4679 C   0  0  0  0  0  0  0  0  0  0  0  0
   16.4029   -5.7816   -8.6695 C   0  0  0  0  0  0  0  0  0  0  0  0
   17.6806   -5.2988   -8.9594 C   0  0  0  0  0  0  0  0  0  0  0  0
   18.7180   -6.1936   -9.1991 C   0  0  0  0  0  0  0  0  0  0  0  0
   18.4801   -7.5683   -9.1471 C   0  0  0  0  0  0  0  0  0  0  0  0
   17.2130   -8.0731   -8.8380 C   0  0  0  0  0  0  0  0  0  0  0  0
   16.9370   -9.4649   -8.7750 N   0  0  0  0  0  0  0  0  0  0  0  0
   17.9001  -10.4620   -8.7190 C   0  0  0  0  0  0  0  0  0  0  0  0
   19.1142  -10.2904   -8.6413 O   0  0  0  0  0  0  0  0  0  0  0  0
   17.4302  -11.8737   -8.6900 C   0  0  0  0  0  0  0  0  0  0  0  0
   16.2599  -12.3039   -9.3217 C   0  0  0  0  0  0  0  0  0  0  0  0
   15.9239  -13.6622   -9.3032 C   0  0  0  0  0  0  0  0  0  0  0  0
   16.7433  -14.5883   -8.6495 C   0  0  0  0  0  0  0  0  0  0  0  0
   17.9160  -14.1736   -8.0062 C   0  0  0  0  0  0  0  0  0  0  0  0
   18.8046  -15.1475   -7.2712 C   0  0  0  0  0  0  0  0  0  0  0  0
   18.3318  -16.4253   -7.2825 F   0  0  0  0  0  0  0  0  0  0  0  0
   20.0620  -15.2102   -7.7877 F   0  0  0  0  0  0  0  0  0  0  0  0
   18.9531  -14.8198   -5.9575 F   0  0  0  0  0  0  0  0  0  0  0  0
   18.2557  -12.8129   -8.0483 C   0  0  0  0  0  0  0  0  0  0  0  0
   16.1706   -7.1670   -8.6038 C   0  0  0  0  0  0  0  0  0  0  0  0
   12.7082   -2.9376   -7.0191 C   0  0  0  0  0  0  0  0  0  0  0  0
    0.9880    1.9699   -8.8283 H   0  0  0  0  0  0  0  0  0  0  0  0
    2.0268    3.3178   -8.3245 H   0  0  0  0  0  0  0  0  0  0  0  0
    1.0361    2.4254   -7.1137 H   0  0  0  0  0  0  0  0  0  0  0  0
    5.1751    0.6326   -7.7060 H   0  0  0  0  0  0  0  0  0  0  0  0
    4.1904   -0.2483   -6.5054 H   0  0  0  0  0  0  0  0  0  0  0  0
    5.1484    1.1789   -4.6881 H   0  0  0  0  0  0  0  0  0  0  0  0
    6.1137    2.0554   -5.8697 H   0  0  0  0  0  0  0  0  0  0  0  0
    7.3007   -0.0810   -6.4730 H   0  0  0  0  0  0  0  0  0  0  0  0
    6.3450   -0.9425   -5.2719 H   0  0  0  0  0  0  0  0  0  0  0  0
    7.2890    0.5236   -3.4624 H   0  0  0  0  0  0  0  0  0  0  0  0
    8.2786    1.3758   -4.6687 H   0  0  0  0  0  0  0  0  0  0  0  0
    9.4148   -0.0166   -2.0069 H   0  0  0  0  0  0  0  0  0  0  0  0
   10.4038    0.8846   -3.2001 H   0  0  0  0  0  0  0  0  0  0  0  0
   10.8874   -0.7561   -2.6730 H   0  0  0  0  0  0  0  0  0  0  0  0
   10.1679   -0.9919   -8.1256 H   0  0  0  0  0  0  0  0  0  0  0  0
   12.5856   -2.4218  -11.3550 H   0  0  0  0  0  0  0  0  0  0  0  0
   13.5069   -3.7686  -10.8862 H   0  0  0  0  0  0  0  0  0  0  0  0
   17.8775   -4.2300   -9.0126 H   0  0  0  0  0  0  0  0  0  0  0  0
   19.7170   -5.8356   -9.4350 H   0  0  0  0  0  0  0  0  0  0  0  0
   19.3156   -8.2234   -9.3733 H   0  0  0  0  0  0  0  0  0  0  0  0
   15.9698   -9.7281   -8.6497 H   0  0  0  0  0  0  0  0  0  0  0  0
   15.6229  -11.6139   -9.8667 H   0  0  0  0  0  0  0  0  0  0  0  0
   15.0253  -14.0080   -9.8112 H   0  0  0  0  0  0  0  0  0  0  0  0
   16.4637  -15.6416   -8.6485 H   0  0  0  0  0  0  0  0  0  0  0  0
   19.1826  -12.4795   -7.5775 H   0  0  0  0  0  0  0  0  0  0  0  0
   15.1749   -7.5204   -8.3522 H   0  0  0  0  0  0  0  0  0  0  0  0
   13.1617   -3.3425   -6.1141 H   0  0  0  0  0  0  0  0  0  0  0  0
  1  2  1  0  0  0  0
  1 43  1  0  0  0  0
  1 44  1  0  0  0  0
  1 45  1  0  0  0  0
  2  3  1  0  0  0  0
  3  4  2  0  0  0  0
  3  5  1  0  0  0  0
  5  6  1  0  0  0  0
  5 46  1  0  0  0  0
  5 47  1  0  0  0  0
  6  7  1  0  0  0  0
  6 48  1  0  0  0  0
  6 49  1  0  0  0  0
  7  8  1  0  0  0  0
  7 50  1  0  0  0  0
  7 51  1  0  0  0  0
  8  9  1  0  0  0  0
  8 52  1  0  0  0  0
  8 53  1  0  0  0  0
  9 10  1  0  0  0  0
  9 11  2  0  0  0  0
  9 12  2  0  0  0  0
 10 54  1  0  0  0  0
 10 55  1  0  0  0  0
 10 56  1  0  0  0  0
 12 13  1  0  0  0  0
 13 14  2  0  0  0  0
 13 15  1  0  0  0  0
 15 16  1  0  0  0  0
 15 42  2  0  0  0  0
 16 17  2  0  0  0  0
 16 57  1  0  0  0  0
 17 18  1  0  0  0  0
 18 19  1  0  0  0  0
 18 20  2  0  0  0  0
 19 58  1  0  0  0  0
 19 59  1  0  0  0  0
 20 21  1  0  0  0  0
 20 42  1  0  0  0  0
 21 22  3  0  0  0  0
 22 23  1  0  0  0  0
 23 24  1  0  0  0  0
 23 41  2  0  0  0  0
 24 25  2  0  0  0  0
 24 60  1  0  0  0  0
 25 26  1  0  0  0  0
 25 61  1  0  0  0  0
 26 27  2  0  0  0  0
 26 62  1  0  0  0  0
 27 28  1  0  0  0  0
 27 41  1  0  0  0  0
 28 29  1  0  0  0  0
 28 63  1  0  0  0  0
 29 30  2  0  0  0  0
 29 31  1  0  0  0  0
 31 32  1  0  0  0  0
 31 40  2  0  0  0  0
 32 33  2  0  0  0  0
 32 64  1  0  0  0  0
 33 34  1  0  0  0  0
 33 65  1  0  0  0  0
 34 35  2  0  0  0  0
 34 66  1  0  0  0  0
 35 36  1  0  0  0  0
 35 40  1  0  0  0  0
 36 37  1  0  0  0  0
 36 38  1  0  0  0  0
 36 39  1  0  0  0  0
 40 67  1  0  0  0  0
 41 68  1  0  0  0  0
 42 69  1  0  0  0  0
M  END
$$$$
