CHEMBL1241491
 OpenBabel04072215363D

 41 45  0  0  0  0  0  0  0  0999 V2000
    1.1550    0.2034    0.0126 N   0  0  0  0  0  0  0  0  0  0  0  0
    2.5373    0.0654    0.0138 C   0  0  0  0  0  0  0  0  0  0  0  0
    3.2457    1.2105   -0.0322 N   0  0  0  0  0  0  0  0  0  0  0  0
    4.5827    1.1325   -0.0380 C   0  0  0  0  0  0  0  0  0  0  0  0
    5.3546    0.0312   -0.0252 N   0  0  0  0  0  0  0  0  0  0  0  0
    4.6096   -1.0897   -0.0164 C   0  0  0  0  0  0  0  0  0  0  0  0
    3.2218   -1.1565   -0.0103 C   0  0  0  0  0  0  0  0  0  0  0  0
    2.9263   -2.5550   -0.0439 C   0  0  0  0  0  0  0  0  0  0  0  0
    1.6092   -3.2044   -0.1317 C   0  0  0  0  0  0  0  0  0  0  0  0
    0.5453   -2.5870   -0.8151 C   0  0  0  0  0  0  0  0  0  0  0  0
   -0.7415   -3.1247   -0.8766 C   0  0  0  0  0  0  0  0  0  0  0  0
   -0.8830   -4.3921   -0.3285 C   0  0  0  0  0  0  0  0  0  0  0  0
   -2.0199   -5.1337   -0.3627 O   0  0  0  0  0  0  0  0  0  0  0  0
   -1.7239   -6.3205    0.2332 C   0  0  0  0  0  0  0  0  0  0  0  0
   -0.4146   -6.3368    0.6478 C   0  0  0  0  0  0  0  0  0  0  0  0
    0.1431   -5.0851    0.2992 C   0  0  0  0  0  0  0  0  0  0  0  0
    1.4065   -4.4757    0.4297 C   0  0  0  0  0  0  0  0  0  0  0  0
    4.0557   -3.2932    0.0044 N   0  0  0  0  0  0  0  0  0  0  0  0
    5.0591   -2.3846   -0.0089 N   0  0  0  0  0  0  0  0  0  0  0  0
    6.4482   -2.8232   -0.0272 C   0  0  0  0  0  0  0  0  0  0  0  0
    6.8132   -3.7220   -1.2147 C   0  0  0  0  0  0  0  0  0  0  0  0
    8.0540   -4.4984   -0.7778 C   0  0  0  0  0  0  0  0  0  0  0  0
    8.1482   -4.3616    0.7393 C   0  0  0  0  0  0  0  0  0  0  0  0
    6.8633   -3.6654    1.1819 C   0  0  0  0  0  0  0  0  0  0  0  0
    0.8125    1.1599    0.0644 H   0  0  0  0  0  0  0  0  0  0  0  0
    0.5757   -0.5274    0.3740 H   0  0  0  0  0  0  0  0  0  0  0  0
    5.1053    2.0845   -0.0464 H   0  0  0  0  0  0  0  0  0  0  0  0
    0.7017   -1.6533   -1.3489 H   0  0  0  0  0  0  0  0  0  0  0  0
   -1.5602   -2.6103   -1.3666 H   0  0  0  0  0  0  0  0  0  0  0  0
   -2.5329   -7.0401    0.2675 H   0  0  0  0  0  0  0  0  0  0  0  0
    0.0905   -7.1570    1.1358 H   0  0  0  0  0  0  0  0  0  0  0  0
    2.2191   -4.9988    0.9271 H   0  0  0  0  0  0  0  0  0  0  0  0
    7.0807   -1.9268   -0.0625 H   0  0  0  0  0  0  0  0  0  0  0  0
    7.0036   -3.1401   -2.1228 H   0  0  0  0  0  0  0  0  0  0  0  0
    6.0102   -4.4311   -1.4483 H   0  0  0  0  0  0  0  0  0  0  0  0
    8.9590   -4.0980   -1.2502 H   0  0  0  0  0  0  0  0  0  0  0  0
    7.9775   -5.5509   -1.0764 H   0  0  0  0  0  0  0  0  0  0  0  0
    9.0229   -3.7553    1.0024 H   0  0  0  0  0  0  0  0  0  0  0  0
    8.2688   -5.3330    1.2285 H   0  0  0  0  0  0  0  0  0  0  0  0
    7.0278   -3.0531    2.0748 H   0  0  0  0  0  0  0  0  0  0  0  0
    6.1073   -4.4180    1.4312 H   0  0  0  0  0  0  0  0  0  0  0  0
  1  2  1  0  0  0  0
  1 25  1  0  0  0  0
  1 26  1  0  0  0  0
  2  3  1  0  0  0  0
  2  7  2  0  0  0  0
  3  4  2  0  0  0  0
  4  5  1  0  0  0  0
  4 27  1  0  0  0  0
  5  6  2  0  0  0  0
  6  7  1  0  0  0  0
  6 19  1  0  0  0  0
  7  8  1  0  0  0  0
  8  9  1  0  0  0  0
  8 18  2  0  0  0  0
  9 10  1  0  0  0  0
  9 17  2  0  0  0  0
 10 11  2  0  0  0  0
 10 28  1  0  0  0  0
 11 12  1  0  0  0  0
 11 29  1  0  0  0  0
 12 13  1  0  0  0  0
 12 16  2  0  0  0  0
 13 14  1  0  0  0  0
 14 15  2  0  0  0  0
 14 30  1  0  0  0  0
 15 16  1  0  0  0  0
 15 31  1  0  0  0  0
 16 17  1  0  0  0  0
 17 32  1  0  0  0  0
 18 19  1  0  0  0  0
 19 20  1  0  0  0  0
 20 21  1  0  0  0  0
 20 24  1  0  0  0  0
 20 33  1  0  0  0  0
 21 22  1  0  0  0  0
 21 34  1  0  0  0  0
 21 35  1  0  0  0  0
 22 23  1  0  0  0  0
 22 36  1  0  0  0  0
 22 37  1  0  0  0  0
 23 24  1  0  0  0  0
 23 38  1  0  0  0  0
 23 39  1  0  0  0  0
 24 40  1  0  0  0  0
 24 41  1  0  0  0  0
M  END
$$$$
