CHEMBL377400
 OpenBabel04072215373D

 78 83  0  0  0  0  0  0  0  0999 V2000
   -6.3507    1.7850    0.0719 C   0  0  0  0  0  0  0  0  0  0  0  0
   -6.8011    0.4132    0.4655 C   0  0  0  0  0  0  0  0  0  0  0  0
   -8.0748    0.2116    1.0302 C   0  0  0  0  0  0  0  0  0  0  0  0
   -8.4089   -1.0982    1.4649 C   0  0  0  0  0  0  0  0  0  0  0  0
   -7.5373   -2.1517    1.3140 C   0  0  0  0  0  0  0  0  0  0  0  0
   -6.2674   -1.9600    0.7628 C   0  0  0  0  0  0  0  0  0  0  0  0
   -5.2725   -3.0020    0.6184 N   0  0  0  0  0  0  0  0  0  0  0  0
   -5.2839   -4.2010    1.2783 C   0  0  0  0  0  0  0  0  0  0  0  0
   -6.1576   -4.4774    2.0777 O   0  0  0  0  0  0  0  0  0  0  0  0
   -4.1981   -5.0639    1.1212 N   0  0  0  0  0  0  0  0  0  0  0  0
   -3.1682   -4.9818    0.0636 C   0  0  0  0  0  0  0  0  0  0  0  0
   -1.7371   -4.9931    0.5571 C   0  0  0  0  0  0  0  0  0  0  0  0
   -1.0791   -4.0786    1.3471 C   0  0  0  0  0  0  0  0  0  0  0  0
    0.3394   -4.2524    1.2694 C   0  0  0  0  0  0  0  0  0  0  0  0
    0.7518   -5.2645    0.3984 C   0  0  0  0  0  0  0  0  0  0  0  0
    2.1295   -5.5357   -0.0181 C   0  0  0  0  0  0  0  0  0  0  0  0
    2.7637   -6.7419   -0.2738 N   0  0  0  0  0  0  0  0  0  0  0  0
    4.0961   -6.7609    0.1228 N   0  0  0  0  0  0  0  0  0  0  0  0
    4.3810   -5.4743    0.3696 C   0  0  0  0  0  0  0  0  0  0  0  0
    3.2102   -4.6732    0.0902 C   0  0  0  0  0  0  0  0  0  0  0  0
    3.3127   -3.4135    0.8458 C   0  0  0  0  0  0  0  0  0  0  0  0
    3.9317   -4.1440    2.0486 C   0  0  0  0  0  0  0  0  0  0  0  0
    3.3239   -5.0278    2.9995 C   0  0  0  0  0  0  0  0  0  0  0  0
    4.1707   -5.8004    3.8336 C   0  0  0  0  0  0  0  0  0  0  0  0
    3.8339   -7.1080    4.5186 C   0  0  0  0  0  0  0  0  0  0  0  0
    3.8514   -7.0650    5.9828 N   0  0  0  0  0  0  0  0  0  0  0  0
    2.7487   -6.2443    6.5099 C   0  0  0  0  0  0  0  0  0  0  0  0
    2.7690   -6.1750    8.0552 C   0  0  0  0  0  0  0  0  0  0  0  0
    2.8171   -7.4745    8.7577 N   0  0  0  0  0  0  0  0  0  0  0  0
    1.5207   -8.1474    8.7556 C   0  0  0  0  0  0  0  0  0  0  0  0
    3.8634   -8.3133    8.1359 C   0  0  0  0  0  0  0  0  0  0  0  0
    3.7599   -8.4124    6.5902 C   0  0  0  0  0  0  0  0  0  0  0  0
    5.4922   -5.4388    3.7612 C   0  0  0  0  0  0  0  0  0  0  0  0
    5.9762   -5.0583    2.5042 C   0  0  0  0  0  0  0  0  0  0  0  0
    5.0708   -4.7416    1.5185 C   0  0  0  0  0  0  0  0  0  0  0  0
   -0.6163   -6.1957   -0.0275 S   0  0  0  0  0  0  0  0  0  0  0  0
   -4.2182   -6.3103    1.9263 C   0  0  0  0  0  0  0  0  0  0  0  0
   -4.1318   -6.0004    3.4251 C   0  0  0  0  0  0  0  0  0  0  0  0
   -5.4086   -7.2527    1.6622 C   0  0  0  0  0  0  0  0  0  0  0  0
   -5.9188   -0.6825    0.3282 C   0  0  0  0  0  0  0  0  0  0  0  0
   -7.2128    2.4515   -0.0909 H   0  0  0  0  0  0  0  0  0  0  0  0
   -5.7879    1.7459   -0.8625 H   0  0  0  0  0  0  0  0  0  0  0  0
   -5.7252    2.2177    0.8564 H   0  0  0  0  0  0  0  0  0  0  0  0
   -8.7474    1.0277    1.1415 H   0  0  0  0  0  0  0  0  0  0  0  0
   -9.4186   -1.2604    1.8536 H   0  0  0  0  0  0  0  0  0  0  0  0
   -7.8720   -3.1233    1.6592 H   0  0  0  0  0  0  0  0  0  0  0  0
   -4.4509   -2.7334    0.1239 H   0  0  0  0  0  0  0  0  0  0  0  0
   -3.2920   -4.0787   -0.5449 H   0  0  0  0  0  0  0  0  0  0  0  0
   -3.3212   -5.8277   -0.6142 H   0  0  0  0  0  0  0  0  0  0  0  0
   -1.5450   -3.2585    1.8898 H   0  0  0  0  0  0  0  0  0  0  0  0
    0.9769   -3.5911    1.8105 H   0  0  0  0  0  0  0  0  0  0  0  0
    2.3209   -7.6250   -0.5025 H   0  0  0  0  0  0  0  0  0  0  0  0
    2.4507   -2.7914    0.9984 H   0  0  0  0  0  0  0  0  0  0  0  0
    4.0780   -2.7670    0.3779 H   0  0  0  0  0  0  0  0  0  0  0  0
    2.2990   -5.3670    2.8617 H   0  0  0  0  0  0  0  0  0  0  0  0
    4.6399   -7.7984    4.2038 H   0  0  0  0  0  0  0  0  0  0  0  0
    2.9192   -7.5570    4.1159 H   0  0  0  0  0  0  0  0  0  0  0  0
    1.7855   -6.6438    6.1674 H   0  0  0  0  0  0  0  0  0  0  0  0
    2.8364   -5.2216    6.1314 H   0  0  0  0  0  0  0  0  0  0  0  0
    1.9120   -5.5857    8.4011 H   0  0  0  0  0  0  0  0  0  0  0  0
    3.6594   -5.6070    8.3570 H   0  0  0  0  0  0  0  0  0  0  0  0
    0.7593   -7.5203    9.2317 H   0  0  0  0  0  0  0  0  0  0  0  0
    1.5752   -9.0701    9.3455 H   0  0  0  0  0  0  0  0  0  0  0  0
    1.1655   -8.4062    7.7537 H   0  0  0  0  0  0  0  0  0  0  0  0
    3.8626   -9.3134    8.5878 H   0  0  0  0  0  0  0  0  0  0  0  0
    4.8399   -7.8790    8.3926 H   0  0  0  0  0  0  0  0  0  0  0  0
    2.8161   -8.9024    6.3122 H   0  0  0  0  0  0  0  0  0  0  0  0
    4.5662   -9.0652    6.2337 H   0  0  0  0  0  0  0  0  0  0  0  0
    6.1166   -5.4786    4.6509 H   0  0  0  0  0  0  0  0  0  0  0  0
    6.9028   -4.4759    2.5392 H   0  0  0  0  0  0  0  0  0  0  0  0
   -3.3231   -6.8814    1.6641 H   0  0  0  0  0  0  0  0  0  0  0  0
   -5.0067   -5.4581    3.7969 H   0  0  0  0  0  0  0  0  0  0  0  0
   -3.2522   -5.3872    3.6421 H   0  0  0  0  0  0  0  0  0  0  0  0
   -4.0675   -6.9258    4.0034 H   0  0  0  0  0  0  0  0  0  0  0  0
   -6.3797   -6.8085    1.9005 H   0  0  0  0  0  0  0  0  0  0  0  0
   -5.3174   -8.1458    2.2938 H   0  0  0  0  0  0  0  0  0  0  0  0
   -5.4412   -7.5842    0.6202 H   0  0  0  0  0  0  0  0  0  0  0  0
   -4.9344   -0.4946   -0.0989 H   0  0  0  0  0  0  0  0  0  0  0  0
  1  2  1  0  0  0  0
  1 41  1  0  0  0  0
  1 42  1  0  0  0  0
  1 43  1  0  0  0  0
  2  3  1  0  0  0  0
  2 40  2  0  0  0  0
  3  4  2  0  0  0  0
  3 44  1  0  0  0  0
  4  5  1  0  0  0  0
  4 45  1  0  0  0  0
  5  6  2  0  0  0  0
  5 46  1  0  0  0  0
  6  7  1  0  0  0  0
  6 40  1  0  0  0  0
  7  8  1  0  0  0  0
  7 47  1  0  0  0  0
  8  9  2  0  0  0  0
  8 10  1  0  0  0  0
 10 11  1  0  0  0  0
 10 37  1  0  0  0  0
 11 12  1  0  0  0  0
 11 48  1  0  0  0  0
 11 49  1  0  0  0  0
 12 13  2  0  0  0  0
 12 36  1  0  0  0  0
 13 14  1  0  0  0  0
 13 50  1  0  0  0  0
 14 15  2  0  0  0  0
 14 51  1  0  0  0  0
 15 16  1  0  0  0  0
 15 36  1  0  0  0  0
 16 17  1  0  0  0  0
 16 20  2  0  0  0  0
 17 18  1  0  0  0  0
 17 52  1  0  0  0  0
 18 19  2  0  0  0  0
 19 20  1  0  0  0  0
 19 35  1  0  0  0  0
 20 21  1  0  0  0  0
 21 22  1  0  0  0  0
 21 53  1  0  0  0  0
 21 54  1  0  0  0  0
 22 23  1  0  0  0  0
 22 35  2  0  0  0  0
 23 24  2  0  0  0  0
 23 55  1  0  0  0  0
 24 25  1  0  0  0  0
 24 33  1  0  0  0  0
 25 26  1  0  0  0  0
 25 56  1  0  0  0  0
 25 57  1  0  0  0  0
 26 27  1  0  0  0  0
 26 32  1  0  0  0  0
 27 28  1  0  0  0  0
 27 58  1  0  0  0  0
 27 59  1  0  0  0  0
 28 29  1  0  0  0  0
 28 60  1  0  0  0  0
 28 61  1  0  0  0  0
 29 30  1  0  0  0  0
 29 31  1  0  0  0  0
 30 62  1  0  0  0  0
 30 63  1  0  0  0  0
 30 64  1  0  0  0  0
 31 32  1  0  0  0  0
 31 65  1  0  0  0  0
 31 66  1  0  0  0  0
 32 67  1  0  0  0  0
 32 68  1  0  0  0  0
 33 34  2  0  0  0  0
 33 69  1  0  0  0  0
 34 35  1  0  0  0  0
 34 70  1  0  0  0  0
 37 38  1  0  0  0  0
 37 39  1  0  0  0  0
 37 71  1  0  0  0  0
 38 72  1  0  0  0  0
 38 73  1  0  0  0  0
 38 74  1  0  0  0  0
 39 75  1  0  0  0  0
 39 76  1  0  0  0  0
 39 77  1  0  0  0  0
 40 78  1  0  0  0  0
M  END
$$$$
