CHEMBL4469836
 OpenBabel04072215383D

 63 67  0  0  0  0  0  0  0  0999 V2000
   -0.5923   -5.3314   -6.2027 C   0  0  0  0  0  0  0  0  0  0  0  0
    0.5266   -4.5271   -6.5742 O   0  0  0  0  0  0  0  0  0  0  0  0
    1.7464   -5.1603   -6.6109 C   0  0  0  0  0  0  0  0  0  0  0  0
    1.8689   -6.5278   -6.8388 C   0  0  0  0  0  0  0  0  0  0  0  0
    3.1082   -7.1728   -6.7952 C   0  0  0  0  0  0  0  0  0  0  0  0
    2.9546   -8.5156   -7.0071 O   0  0  0  0  0  0  0  0  0  0  0  0
    4.0664   -9.3515   -7.2772 C   0  0  0  0  0  0  0  0  0  0  0  0
    4.2585   -6.4121   -6.5207 C   0  0  0  0  0  0  0  0  0  0  0  0
    5.7568   -7.2071   -6.0963 Cl  0  0  0  0  0  0  0  0  0  0  0  0
    4.2019   -4.9837   -6.4524 C   0  0  0  0  0  0  0  0  0  0  0  0
    5.4570   -4.1783   -6.3901 C   0  0  0  0  0  0  0  0  0  0  0  0
    6.5488   -4.4522   -7.2353 C   0  0  0  0  0  0  0  0  0  0  0  0
    7.7690   -3.7784   -7.0903 C   0  0  0  0  0  0  0  0  0  0  0  0
    7.8050   -2.7369   -6.1570 C   0  0  0  0  0  0  0  0  0  0  0  0
    8.7281   -1.7527   -5.6903 C   0  0  0  0  0  0  0  0  0  0  0  0
   10.0508   -1.6312   -6.0869 N   0  0  0  0  0  0  0  0  0  0  0  0
   10.8865   -0.6441   -5.5954 C   0  0  0  0  0  0  0  0  0  0  0  0
   10.5897    0.2282   -4.7909 O   0  0  0  0  0  0  0  0  0  0  0  0
   12.2955   -0.6322   -6.0780 C   0  0  0  0  0  0  0  0  0  0  0  0
   12.7047   -1.1571   -7.3014 C   0  0  0  0  0  0  0  0  0  0  0  0
   14.0379   -0.9965   -7.7051 C   0  0  0  0  0  0  0  0  0  0  0  0
   14.9867   -0.3116   -6.9229 C   0  0  0  0  0  0  0  0  0  0  0  0
   16.2581   -0.0964   -7.4121 N   0  0  0  0  0  0  0  0  0  0  0  0
   17.1036    1.0107   -6.9380 C   0  0  0  0  0  0  0  0  0  0  0  0
   18.0176    1.4748   -8.1003 C   0  0  0  0  0  0  0  0  0  0  0  0
   18.8236    0.3731   -8.6816 N   0  0  0  0  0  0  0  0  0  0  0  0
   19.5937    0.8522   -9.8263 C   0  0  0  0  0  0  0  0  0  0  0  0
   17.9247   -0.7307   -9.0945 C   0  0  0  0  0  0  0  0  0  0  0  0
   17.0336   -1.2303   -7.9377 C   0  0  0  0  0  0  0  0  0  0  0  0
   14.5544    0.1936   -5.6970 C   0  0  0  0  0  0  0  0  0  0  0  0
   13.2329    0.0337   -5.2766 C   0  0  0  0  0  0  0  0  0  0  0  0
    8.1457   -0.9469   -4.7970 N   0  0  0  0  0  0  0  0  0  0  0  0
    6.8964   -1.4093   -4.6734 N   0  0  0  0  0  0  0  0  0  0  0  0
    6.6445   -2.5075   -5.4321 C   0  0  0  0  0  0  0  0  0  0  0  0
    5.4913   -3.1980   -5.4625 N   0  0  0  0  0  0  0  0  0  0  0  0
    2.9126   -4.3817   -6.4662 C   0  0  0  0  0  0  0  0  0  0  0  0
    2.6987   -2.6553   -6.3180 Cl  0  0  0  0  0  0  0  0  0  0  0  0
   -1.4399   -4.6674   -6.0085 H   0  0  0  0  0  0  0  0  0  0  0  0
   -0.3945   -5.8980   -5.2853 H   0  0  0  0  0  0  0  0  0  0  0  0
   -0.8801   -5.9992   -7.0210 H   0  0  0  0  0  0  0  0  0  0  0  0
    0.9940   -7.1368   -7.0497 H   0  0  0  0  0  0  0  0  0  0  0  0
    3.6805  -10.3008   -7.6615 H   0  0  0  0  0  0  0  0  0  0  0  0
    4.5958   -9.5850   -6.3502 H   0  0  0  0  0  0  0  0  0  0  0  0
    4.7258   -8.9352   -8.0454 H   0  0  0  0  0  0  0  0  0  0  0  0
    6.4752   -5.2280   -7.9933 H   0  0  0  0  0  0  0  0  0  0  0  0
    8.6262   -4.0466   -7.6969 H   0  0  0  0  0  0  0  0  0  0  0  0
   10.3983   -2.3403   -6.7143 H   0  0  0  0  0  0  0  0  0  0  0  0
   12.0126   -1.6317   -7.9882 H   0  0  0  0  0  0  0  0  0  0  0  0
   14.3192   -1.3509   -8.6955 H   0  0  0  0  0  0  0  0  0  0  0  0
   17.7099    0.6873   -6.0822 H   0  0  0  0  0  0  0  0  0  0  0  0
   16.5026    1.8722   -6.6228 H   0  0  0  0  0  0  0  0  0  0  0  0
   18.6833    2.2616   -7.7269 H   0  0  0  0  0  0  0  0  0  0  0  0
   17.3823    1.9235   -8.8772 H   0  0  0  0  0  0  0  0  0  0  0  0
   20.2840    1.6445   -9.5184 H   0  0  0  0  0  0  0  0  0  0  0  0
   18.9529    1.2423  -10.6255 H   0  0  0  0  0  0  0  0  0  0  0  0
   20.2041    0.0420  -10.2398 H   0  0  0  0  0  0  0  0  0  0  0  0
   18.5205   -1.5741   -9.4613 H   0  0  0  0  0  0  0  0  0  0  0  0
   17.2741   -0.4013   -9.9168 H   0  0  0  0  0  0  0  0  0  0  0  0
   17.6555   -1.6513   -7.1364 H   0  0  0  0  0  0  0  0  0  0  0  0
   16.4010   -2.0441   -8.3073 H   0  0  0  0  0  0  0  0  0  0  0  0
   15.2335    0.7313   -5.0418 H   0  0  0  0  0  0  0  0  0  0  0  0
   12.9275    0.4640   -4.3237 H   0  0  0  0  0  0  0  0  0  0  0  0
    6.2504   -0.9200   -4.0670 H   0  0  0  0  0  0  0  0  0  0  0  0
  1  2  1  0  0  0  0
  1 38  1  0  0  0  0
  1 39  1  0  0  0  0
  1 40  1  0  0  0  0
  2  3  1  0  0  0  0
  3  4  1  0  0  0  0
  3 36  2  0  0  0  0
  4  5  2  0  0  0  0
  4 41  1  0  0  0  0
  5  6  1  0  0  0  0
  5  8  1  0  0  0  0
  6  7  1  0  0  0  0
  7 42  1  0  0  0  0
  7 43  1  0  0  0  0
  7 44  1  0  0  0  0
  8  9  1  0  0  0  0
  8 10  2  0  0  0  0
 10 11  1  0  0  0  0
 10 36  1  0  0  0  0
 11 12  1  0  0  0  0
 11 35  2  0  0  0  0
 12 13  2  0  0  0  0
 12 45  1  0  0  0  0
 13 14  1  0  0  0  0
 13 46  1  0  0  0  0
 14 15  1  0  0  0  0
 14 34  2  0  0  0  0
 15 16  1  0  0  0  0
 15 32  2  0  0  0  0
 16 17  1  0  0  0  0
 16 47  1  0  0  0  0
 17 18  2  0  0  0  0
 17 19  1  0  0  0  0
 19 20  1  0  0  0  0
 19 31  2  0  0  0  0
 20 21  2  0  0  0  0
 20 48  1  0  0  0  0
 21 22  1  0  0  0  0
 21 49  1  0  0  0  0
 22 23  1  0  0  0  0
 22 30  2  0  0  0  0
 23 24  1  0  0  0  0
 23 29  1  0  0  0  0
 24 25  1  0  0  0  0
 24 50  1  0  0  0  0
 24 51  1  0  0  0  0
 25 26  1  0  0  0  0
 25 52  1  0  0  0  0
 25 53  1  0  0  0  0
 26 27  1  0  0  0  0
 26 28  1  0  0  0  0
 27 54  1  0  0  0  0
 27 55  1  0  0  0  0
 27 56  1  0  0  0  0
 28 29  1  0  0  0  0
 28 57  1  0  0  0  0
 28 58  1  0  0  0  0
 29 59  1  0  0  0  0
 29 60  1  0  0  0  0
 30 31  1  0  0  0  0
 30 61  1  0  0  0  0
 31 62  1  0  0  0  0
 32 33  1  0  0  0  0
 33 34  1  0  0  0  0
 33 63  1  0  0  0  0
 34 35  1  0  0  0  0
 36 37  1  0  0  0  0
M  END
$$$$
