CHEMBL3288526
 OpenBabel04072215363D

 45 49  0  0  0  0  0  0  0  0999 V2000
    3.9291   -5.5280    0.4157 N   0  0  0  0  0  0  0  0  0  0  0  0
    4.6575   -4.3549    0.2653 C   0  0  0  0  0  0  0  0  0  0  0  0
    5.9842   -4.5303    0.4146 N   0  0  0  0  0  0  0  0  0  0  0  0
    6.7987   -3.4851    0.2517 C   0  0  0  0  0  0  0  0  0  0  0  0
    6.4482   -2.2411   -0.0514 N   0  0  0  0  0  0  0  0  0  0  0  0
    5.1192   -2.0893   -0.1726 C   0  0  0  0  0  0  0  0  0  0  0  0
    4.5032   -0.5557   -0.5503 S   0  0  0  0  0  0  0  0  0  0  0  0
    2.9045   -1.1292   -0.5054 C   0  0  0  0  0  0  0  0  0  0  0  0
    2.7983   -2.4859   -0.2339 C   0  0  0  0  0  0  0  0  0  0  0  0
    1.4617   -3.1223   -0.2038 C   0  0  0  0  0  0  0  0  0  0  0  0
    1.2359   -4.2950    0.5177 C   0  0  0  0  0  0  0  0  0  0  0  0
    0.0587   -5.0358    0.3431 C   0  0  0  0  0  0  0  0  0  0  0  0
   -1.0091   -4.5047   -0.3931 C   0  0  0  0  0  0  0  0  0  0  0  0
   -2.2721   -5.0878   -0.3996 C   0  0  0  0  0  0  0  0  0  0  0  0
   -3.1001   -5.1692   -1.7056 C   0  0  0  0  0  0  0  0  0  0  0  0
   -4.2453   -5.6156   -1.6141 O   0  0  0  0  0  0  0  0  0  0  0  0
   -2.5527   -4.6784   -2.8909 N   0  0  0  0  0  0  0  0  0  0  0  0
   -3.2592   -4.3151   -4.0871 C   0  0  0  0  0  0  0  0  0  0  0  0
   -4.6573   -4.2728   -4.1921 C   0  0  0  0  0  0  0  0  0  0  0  0
   -5.2909   -3.8327   -5.3679 C   0  0  0  0  0  0  0  0  0  0  0  0
   -4.5305   -3.4381   -6.4701 C   0  0  0  0  0  0  0  0  0  0  0  0
   -3.1429   -3.4758   -6.3827 C   0  0  0  0  0  0  0  0  0  0  0  0
   -2.5141   -3.9055   -5.1974 C   0  0  0  0  0  0  0  0  0  0  0  0
   -3.0778   -4.4294    0.5090 C   0  0  0  0  0  0  0  0  0  0  0  0
   -3.0860   -3.0344    0.3978 C   0  0  0  0  0  0  0  0  0  0  0  0
   -2.0855   -2.3955   -0.3461 C   0  0  0  0  0  0  0  0  0  0  0  0
   -0.9309   -3.1391   -0.6306 C   0  0  0  0  0  0  0  0  0  0  0  0
    0.3295   -2.5304   -0.7913 C   0  0  0  0  0  0  0  0  0  0  0  0
    4.1377   -3.0694   -0.0305 C   0  0  0  0  0  0  0  0  0  0  0  0
    4.5676   -6.3159    0.4618 H   0  0  0  0  0  0  0  0  0  0  0  0
    3.1802   -5.6329   -0.2554 H   0  0  0  0  0  0  0  0  0  0  0  0
    7.8601   -3.6787    0.3710 H   0  0  0  0  0  0  0  0  0  0  0  0
    2.1212   -0.4085   -0.6895 H   0  0  0  0  0  0  0  0  0  0  0  0
    1.9510   -4.6399    1.2611 H   0  0  0  0  0  0  0  0  0  0  0  0
   -0.0611   -5.9650    0.9005 H   0  0  0  0  0  0  0  0  0  0  0  0
   -1.5591   -4.5021   -2.9159 H   0  0  0  0  0  0  0  0  0  0  0  0
   -5.2987   -4.5262   -3.3525 H   0  0  0  0  0  0  0  0  0  0  0  0
   -6.3770   -3.7980   -5.4094 H   0  0  0  0  0  0  0  0  0  0  0  0
   -5.0219   -3.1028   -7.3913 H   0  0  0  0  0  0  0  0  0  0  0  0
   -2.5429   -3.1648   -7.2408 H   0  0  0  0  0  0  0  0  0  0  0  0
   -1.4291   -3.9077   -5.1736 H   0  0  0  0  0  0  0  0  0  0  0  0
   -3.8057   -4.9769    1.0966 H   0  0  0  0  0  0  0  0  0  0  0  0
   -3.8571   -2.4669    0.9097 H   0  0  0  0  0  0  0  0  0  0  0  0
   -2.1043   -1.3166   -0.4498 H   0  0  0  0  0  0  0  0  0  0  0  0
    0.3686   -1.5315   -1.2131 H   0  0  0  0  0  0  0  0  0  0  0  0
  1  2  1  0  0  0  0
  1 30  1  0  0  0  0
  1 31  1  0  0  0  0
  2  3  1  0  0  0  0
  2 29  2  0  0  0  0
  3  4  2  0  0  0  0
  4  5  1  0  0  0  0
  4 32  1  0  0  0  0
  5  6  2  0  0  0  0
  6  7  1  0  0  0  0
  6 29  1  0  0  0  0
  7  8  1  0  0  0  0
  8  9  2  0  0  0  0
  8 33  1  0  0  0  0
  9 10  1  0  0  0  0
  9 29  1  0  0  0  0
 10 11  1  0  0  0  0
 10 28  2  0  0  0  0
 11 12  2  0  0  0  0
 11 34  1  0  0  0  0
 12 13  1  0  0  0  0
 12 35  1  0  0  0  0
 13 14  1  0  0  0  0
 13 27  2  0  0  0  0
 14 15  1  0  0  0  0
 14 24  2  0  0  0  0
 15 16  2  0  0  0  0
 15 17  1  0  0  0  0
 17 18  1  0  0  0  0
 17 36  1  0  0  0  0
 18 19  1  0  0  0  0
 18 23  2  0  0  0  0
 19 20  2  0  0  0  0
 19 37  1  0  0  0  0
 20 21  1  0  0  0  0
 20 38  1  0  0  0  0
 21 22  2  0  0  0  0
 21 39  1  0  0  0  0
 22 23  1  0  0  0  0
 22 40  1  0  0  0  0
 23 41  1  0  0  0  0
 24 25  1  0  0  0  0
 24 42  1  0  0  0  0
 25 26  2  0  0  0  0
 25 43  1  0  0  0  0
 26 27  1  0  0  0  0
 26 44  1  0  0  0  0
 27 28  1  0  0  0  0
 28 45  1  0  0  0  0
M  END
$$$$
