CHEMBL516047
 OpenBabel04072215383D

 38 40  0  0  0  0  0  0  0  0999 V2000
    1.0456    0.0342    0.0212 C   0  0  0  0  0  0  0  0  0  0  0  0
    2.8141    0.3836   -0.1883 S   0  0  0  0  0  0  0  0  0  0  0  0
    3.1469    1.2540    1.3319 C   0  0  0  0  0  0  0  0  0  0  0  0
    2.9250    0.6676    2.5740 C   0  0  0  0  0  0  0  0  0  0  0  0
    3.1888    1.3825    3.7524 C   0  0  0  0  0  0  0  0  0  0  0  0
    3.7118    2.6923    3.7359 C   0  0  0  0  0  0  0  0  0  0  0  0
    3.9808    3.4051    4.9292 N   0  0  0  0  0  0  0  0  0  0  0  0
    4.4807    2.5940    6.0521 C   0  0  0  0  0  0  0  0  0  0  0  0
    3.9052    4.7965    5.2522 C   0  0  0  0  0  0  0  0  0  0  0  0
    4.7695    5.2443    6.2051 N   0  0  0  0  0  0  0  0  0  0  0  0
    4.6977    6.5245    6.6024 C   0  0  0  0  0  0  0  0  0  0  0  0
    5.6669    7.0301    7.6263 C   0  0  0  0  0  0  0  0  0  0  0  0
    3.8118    7.4063    6.1475 N   0  0  0  0  0  0  0  0  0  0  0  0
    2.9516    6.9856    5.2314 C   0  0  0  0  0  0  0  0  0  0  0  0
    2.0219    7.9300    4.8266 C   0  0  0  0  0  0  0  0  0  0  0  0
    1.0533    7.6462    3.8706 C   0  0  0  0  0  0  0  0  0  0  0  0
    1.0117    6.3839    3.3109 C   0  0  0  0  0  0  0  0  0  0  0  0
    1.9205    5.4084    3.7339 C   0  0  0  0  0  0  0  0  0  0  0  0
    2.9340    5.6813    4.7004 C   0  0  0  0  0  0  0  0  0  0  0  0
    3.9750    3.2410    2.4726 C   0  0  0  0  0  0  0  0  0  0  0  0
    3.6830    2.5429    1.2888 C   0  0  0  0  0  0  0  0  0  0  0  0
    0.6634   -0.4348   -0.8901 H   0  0  0  0  0  0  0  0  0  0  0  0
    0.4901    0.9606    0.1913 H   0  0  0  0  0  0  0  0  0  0  0  0
    0.8748   -0.6519    0.8550 H   0  0  0  0  0  0  0  0  0  0  0  0
    2.5540   -0.3521    2.6488 H   0  0  0  0  0  0  0  0  0  0  0  0
    2.9660    0.8871    4.6937 H   0  0  0  0  0  0  0  0  0  0  0  0
    4.7663    1.5756    5.7618 H   0  0  0  0  0  0  0  0  0  0  0  0
    3.7064    2.5130    6.8245 H   0  0  0  0  0  0  0  0  0  0  0  0
    5.3905    3.0052    6.5033 H   0  0  0  0  0  0  0  0  0  0  0  0
    5.4084    8.0538    7.9270 H   0  0  0  0  0  0  0  0  0  0  0  0
    6.6780    7.0450    7.2111 H   0  0  0  0  0  0  0  0  0  0  0  0
    5.6469    6.4012    8.5202 H   0  0  0  0  0  0  0  0  0  0  0  0
    2.0454    8.9169    5.2853 H   0  0  0  0  0  0  0  0  0  0  0  0
    0.3361    8.4092    3.5842 H   0  0  0  0  0  0  0  0  0  0  0  0
    0.2658    6.1451    2.5579 H   0  0  0  0  0  0  0  0  0  0  0  0
    1.8202    4.4202    3.2969 H   0  0  0  0  0  0  0  0  0  0  0  0
    4.4071    4.2376    2.3916 H   0  0  0  0  0  0  0  0  0  0  0  0
    3.8846    3.0172    0.3305 H   0  0  0  0  0  0  0  0  0  0  0  0
  1  2  1  0  0  0  0
  1 22  1  0  0  0  0
  1 23  1  0  0  0  0
  1 24  1  0  0  0  0
  2  3  1  0  0  0  0
  3  4  1  0  0  0  0
  3 21  2  0  0  0  0
  4  5  2  0  0  0  0
  4 25  1  0  0  0  0
  5  6  1  0  0  0  0
  5 26  1  0  0  0  0
  6  7  1  0  0  0  0
  6 20  2  0  0  0  0
  7  8  1  0  0  0  0
  7  9  1  0  0  0  0
  8 27  1  0  0  0  0
  8 28  1  0  0  0  0
  8 29  1  0  0  0  0
  9 10  1  0  0  0  0
  9 19  2  0  0  0  0
 10 11  2  0  0  0  0
 11 12  1  0  0  0  0
 11 13  1  0  0  0  0
 12 30  1  0  0  0  0
 12 31  1  0  0  0  0
 12 32  1  0  0  0  0
 13 14  2  0  0  0  0
 14 15  1  0  0  0  0
 14 19  1  0  0  0  0
 15 16  2  0  0  0  0
 15 33  1  0  0  0  0
 16 17  1  0  0  0  0
 16 34  1  0  0  0  0
 17 18  2  0  0  0  0
 17 35  1  0  0  0  0
 18 19  1  0  0  0  0
 18 36  1  0  0  0  0
 20 21  1  0  0  0  0
 20 37  1  0  0  0  0
 21 38  1  0  0  0  0
M  END
$$$$
