CHEMBL3910699
 OpenBabel04072215373D

 51 53  0  0  0  0  0  0  0  0999 V2000
   -2.1800    1.0793    1.0761 C   0  0  0  0  0  0  0  0  0  0  0  0
   -0.9868    0.5047    0.4982 N   0  0  0  0  0  0  0  0  0  0  0  0
   -0.8371   -0.8116    0.1499 C   0  0  0  0  0  0  0  0  0  0  0  0
    0.4265   -0.9018   -0.3727 C   0  0  0  0  0  0  0  0  0  0  0  0
    1.0503    0.3238   -0.3637 N   0  0  0  0  0  0  0  0  0  0  0  0
    0.1845    1.1650    0.1852 C   0  0  0  0  0  0  0  0  0  0  0  0
    0.4598    2.5785    0.4143 C   0  0  0  0  0  0  0  0  0  0  0  0
   -0.3423    3.3040    0.9955 O   0  0  0  0  0  0  0  0  0  0  0  0
    1.6760    3.0106   -0.1213 N   0  0  0  0  0  0  0  0  0  0  0  0
    2.1940    4.3309   -0.0837 C   0  0  0  0  0  0  0  0  0  0  0  0
    1.6824    5.3053    0.7801 C   0  0  0  0  0  0  0  0  0  0  0  0
    2.1559    6.6174    0.7497 C   0  0  0  0  0  0  0  0  0  0  0  0
    3.1541    6.9767   -0.1478 C   0  0  0  0  0  0  0  0  0  0  0  0
    3.7040    6.0211   -0.9959 C   0  0  0  0  0  0  0  0  0  0  0  0
    4.6813    6.4547   -1.9572 C   0  0  0  0  0  0  0  0  0  0  0  0
    5.4183    6.9036   -2.7976 C   0  0  0  0  0  0  0  0  0  0  0  0
    6.1903    7.4205   -3.8954 C   0  0  0  0  0  0  0  0  0  0  0  0
    6.9851    6.5307   -4.6207 C   0  0  0  0  0  0  0  0  0  0  0  0
    7.5945    6.9542   -5.8011 C   0  0  0  0  0  0  0  0  0  0  0  0
    8.3518    5.9979   -6.6545 C   0  0  0  0  0  0  0  0  0  0  0  0
    8.2130    4.8036   -6.4057 O   0  0  0  0  0  0  0  0  0  0  0  0
    9.2524    6.4617   -7.6265 N   0  0  0  0  0  0  0  0  0  0  0  0
    9.5554    5.6398   -8.8954 S   0  0  0  0  0  0  0  0  0  0  0  0
   10.7123    4.3437   -8.5024 C   0  0  0  0  0  0  0  0  0  0  0  0
   10.5433    6.6954   -9.9314 C   0  0  0  0  0  0  0  0  0  0  0  0
    8.5391    5.0657   -9.7556 O   0  0  0  0  0  0  0  0  0  0  0  0
    7.4185    8.2760   -6.1808 C   0  0  0  0  0  0  0  0  0  0  0  0
    6.6957    9.1791   -5.4632 N   0  0  0  0  0  0  0  0  0  0  0  0
    6.0832    8.7454   -4.3411 C   0  0  0  0  0  0  0  0  0  0  0  0
    5.3846    9.7200   -3.6343 N   0  0  0  0  0  0  0  0  0  0  0  0
    3.2410    4.6884   -0.9528 C   0  0  0  0  0  0  0  0  0  0  0  0
   -2.9719    0.3231    1.0987 H   0  0  0  0  0  0  0  0  0  0  0  0
   -2.5067    1.9167    0.4558 H   0  0  0  0  0  0  0  0  0  0  0  0
   -1.9564    1.4011    2.0949 H   0  0  0  0  0  0  0  0  0  0  0  0
   -1.6176   -1.5482    0.2997 H   0  0  0  0  0  0  0  0  0  0  0  0
    0.9186   -1.7851   -0.7565 H   0  0  0  0  0  0  0  0  0  0  0  0
    2.1645    2.3078   -0.6687 H   0  0  0  0  0  0  0  0  0  0  0  0
    0.9109    5.0748    1.5075 H   0  0  0  0  0  0  0  0  0  0  0  0
    1.7291    7.3596    1.4198 H   0  0  0  0  0  0  0  0  0  0  0  0
    3.4915    8.0089   -0.1857 H   0  0  0  0  0  0  0  0  0  0  0  0
    7.1034    5.5053   -4.2804 H   0  0  0  0  0  0  0  0  0  0  0  0
   11.5001    4.7390   -7.8588 H   0  0  0  0  0  0  0  0  0  0  0  0
   11.1458    3.9758   -9.4367 H   0  0  0  0  0  0  0  0  0  0  0  0
   10.1818    3.5275   -8.0090 H   0  0  0  0  0  0  0  0  0  0  0  0
   11.3206    7.1670   -9.3269 H   0  0  0  0  0  0  0  0  0  0  0  0
    9.8878    7.4511  -10.3693 H   0  0  0  0  0  0  0  0  0  0  0  0
   10.9914    6.0926  -10.7236 H   0  0  0  0  0  0  0  0  0  0  0  0
    7.8402    8.6663   -7.1038 H   0  0  0  0  0  0  0  0  0  0  0  0
    5.3786   10.5692   -4.1993 H   0  0  0  0  0  0  0  0  0  0  0  0
    4.4545    9.4220   -3.3677 H   0  0  0  0  0  0  0  0  0  0  0  0
    3.6693    3.9508   -1.6280 H   0  0  0  0  0  0  0  0  0  0  0  0
  1  2  1  0  0  0  0
  1 32  1  0  0  0  0
  1 33  1  0  0  0  0
  1 34  1  0  0  0  0
  2  3  1  0  0  0  0
  2  6  1  0  0  0  0
  3  4  2  0  0  0  0
  3 35  1  0  0  0  0
  4  5  1  0  0  0  0
  4 36  1  0  0  0  0
  5  6  2  0  0  0  0
  6  7  1  0  0  0  0
  7  8  2  0  0  0  0
  7  9  1  0  0  0  0
  9 10  1  0  0  0  0
  9 37  1  0  0  0  0
 10 11  1  0  0  0  0
 10 31  2  0  0  0  0
 11 12  2  0  0  0  0
 11 38  1  0  0  0  0
 12 13  1  0  0  0  0
 12 39  1  0  0  0  0
 13 14  2  0  0  0  0
 13 40  1  0  0  0  0
 14 15  1  0  0  0  0
 14 31  1  0  0  0  0
 15 16  3  0  0  0  0
 16 17  1  0  0  0  0
 17 18  1  0  0  0  0
 17 29  2  0  0  0  0
 18 19  2  0  0  0  0
 18 41  1  0  0  0  0
 19 20  1  0  0  0  0
 19 27  1  0  0  0  0
 20 21  2  0  0  0  0
 20 22  1  0  0  0  0
 22 23  2  0  0  0  0
 23 24  1  0  0  0  0
 23 25  1  0  0  0  0
 23 26  2  0  0  0  0
 24 42  1  0  0  0  0
 24 43  1  0  0  0  0
 24 44  1  0  0  0  0
 25 45  1  0  0  0  0
 25 46  1  0  0  0  0
 25 47  1  0  0  0  0
 27 28  2  0  0  0  0
 27 48  1  0  0  0  0
 28 29  1  0  0  0  0
 29 30  1  0  0  0  0
 30 49  1  0  0  0  0
 30 50  1  0  0  0  0
 31 51  1  0  0  0  0
M  END
$$$$
