CHEMBL2419669
 OpenBabel04072215363D

 79 83  0  0  1  0  0  0  0  0999 V2000
    2.6872   -1.1785    0.3388 C   0  0  0  0  0  0  0  0  0  0  0  0
    2.4525    0.2080    0.1560 O   0  0  0  0  0  0  0  0  0  0  0  0
    3.2512    0.9583   -0.6556 C   0  0  0  0  0  0  0  0  0  0  0  0
    4.4462    0.4743   -1.2122 C   0  0  0  0  0  0  0  0  0  0  0  0
    5.2047    1.2286   -2.1426 C   0  0  0  0  0  0  0  0  0  0  0  0
    6.3754    0.7525   -2.7829 C   0  0  0  0  0  0  0  0  0  0  0  0
    6.7674   -0.5513   -2.5505 O   0  0  0  0  0  0  0  0  0  0  0  0
    7.3300   -1.2900   -3.5721 C   0  0  0  0  0  0  0  0  0  0  0  0
    8.3110   -2.2004   -3.1904 C   0  0  0  0  0  0  0  0  0  0  0  0
    8.9122   -3.0377   -4.1405 C   0  0  0  0  0  0  0  0  0  0  0  0
    8.5485   -2.9897   -5.4936 C   0  0  0  0  0  0  0  0  0  0  0  0
    9.1111   -3.8425   -6.4827 N   0  0  0  0  0  0  0  0  0  0  0  0
   10.2619   -4.5981   -6.3153 C   0  0  0  0  0  0  0  0  0  0  0  0
   11.0060   -4.5247   -5.3343 O   0  0  0  0  0  0  0  0  0  0  0  0
   10.5159   -5.4713   -7.3712 N   0  0  0  0  0  0  0  0  0  0  0  0
   11.6201   -6.2647   -7.2462 N   0  0  0  0  0  0  0  0  0  0  0  0
   11.9195   -7.1155   -8.1694 C   0  0  0  0  0  0  0  0  0  0  0  0
   13.1398   -7.9359   -8.0094 C   0  0  0  0  0  0  0  0  0  0  0  0
   13.9356   -7.8089   -6.8591 C   0  0  0  0  0  0  0  0  0  0  0  0
   15.1013   -8.5659   -6.7240 C   0  0  0  0  0  0  0  0  0  0  0  0
   15.4653   -9.4447   -7.7401 C   0  0  0  0  0  0  0  0  0  0  0  0
   16.5884  -10.1641   -7.6151 F   0  0  0  0  0  0  0  0  0  0  0  0
   14.6850   -9.5859   -8.8830 C   0  0  0  0  0  0  0  0  0  0  0  0
   13.5219   -8.8282   -9.0098 C   0  0  0  0  0  0  0  0  0  0  0  0
   12.7775   -8.9666  -10.1166 F   0  0  0  0  0  0  0  0  0  0  0  0
    7.5551   -2.0833   -5.8723 C   0  0  0  0  0  0  0  0  0  0  0  0
    6.9475   -1.2550   -4.9166 C   0  0  0  0  0  0  0  0  0  0  0  0
    5.9791   -0.4275   -5.3356 F   0  0  0  0  0  0  0  0  0  0  0  0
    7.1255    1.6066   -3.5826 C   0  0  0  0  0  0  0  0  0  0  0  0
    6.6195    2.8645   -3.8228 C   0  0  0  0  0  0  0  0  0  0  0  0
    5.4680    3.3289   -3.2931 N   0  0  0  0  0  0  0  0  0  0  0  0
    4.7824    2.5349   -2.4532 C   0  0  0  0  0  0  0  0  0  0  0  0
    3.6244    3.0219   -1.8567 C   0  0  0  0  0  0  0  0  0  0  0  0
    2.8543    2.2734   -0.9496 C   0  0  0  0  0  0  0  0  0  0  0  0
    1.7900    2.9898   -0.4468 O   0  0  0  0  0  0  0  0  0  0  0  0
    0.9306    2.3818    0.5157 C   0  0  0  0  0  0  0  0  0  0  0  0
    0.2151    3.4168    1.3818 C   0  0  0  0  0  0  0  0  0  0  0  0
   -0.7396    4.3299    0.6140 C   0  0  0  0  0  0  0  0  0  0  0  0
   -1.4543    5.2735    1.5012 N   0  0  0  0  0  0  0  0  0  0  0  0
   -2.3259    4.6405    2.5034 C   0  0  0  0  0  0  0  0  0  0  0  0
   -3.5597    3.9642    1.9040 C   0  0  0  0  0  0  0  0  0  0  0  0
   -4.3782    4.9652    1.0811 C   0  0  3  0  0  0  0  0  0  0  0  0
   -5.5491    4.2725    0.3903 C   0  0  0  0  0  0  0  0  0  0  0  0
   -3.4815    5.6842    0.0642 C   0  0  0  0  0  0  0  0  0  0  0  0
   -2.2236    6.2600    0.7249 C   0  0  0  0  0  0  0  0  0  0  0  0
    3.2188   -1.3358    1.2823 H   0  0  0  0  0  0  0  0  0  0  0  0
    3.2106   -1.6632   -0.4868 H   0  0  0  0  0  0  0  0  0  0  0  0
    1.7085   -1.6623    0.4169 H   0  0  0  0  0  0  0  0  0  0  0  0
    4.8330   -0.4975   -0.9238 H   0  0  0  0  0  0  0  0  0  0  0  0
    8.6169   -2.2749   -2.1487 H   0  0  0  0  0  0  0  0  0  0  0  0
    9.6580   -3.7385   -3.7765 H   0  0  0  0  0  0  0  0  0  0  0  0
    8.7238   -3.7951   -7.4128 H   0  0  0  0  0  0  0  0  0  0  0  0
    9.9168   -5.5567   -8.1809 H   0  0  0  0  0  0  0  0  0  0  0  0
   11.3118   -7.2519   -9.0809 H   0  0  0  0  0  0  0  0  0  0  0  0
   13.6530   -7.1181   -6.0643 H   0  0  0  0  0  0  0  0  0  0  0  0
   15.7252   -8.4700   -5.8407 H   0  0  0  0  0  0  0  0  0  0  0  0
   14.9862  -10.2740   -9.6642 H   0  0  0  0  0  0  0  0  0  0  0  0
    7.2352   -1.9894   -6.9051 H   0  0  0  0  0  0  0  0  0  0  0  0
    8.0595    1.2993   -4.0339 H   0  0  0  0  0  0  0  0  0  0  0  0
    7.1378    3.5558   -4.4812 H   0  0  0  0  0  0  0  0  0  0  0  0
    3.3055    4.0312   -2.1097 H   0  0  0  0  0  0  0  0  0  0  0  0
    1.4981    1.7960    1.2396 H   0  0  0  0  0  0  0  0  0  0  0  0
    0.2037    1.7491   -0.0067 H   0  0  0  0  0  0  0  0  0  0  0  0
    0.9607    4.0306    1.8997 H   0  0  0  0  0  0  0  0  0  0  0  0
   -0.3301    2.8461    2.1407 H   0  0  0  0  0  0  0  0  0  0  0  0
   -1.4356    3.7246    0.0237 H   0  0  0  0  0  0  0  0  0  0  0  0
   -0.1405    4.9107   -0.0990 H   0  0  0  0  0  0  0  0  0  0  0  0
   -2.6574    5.4143    3.2096 H   0  0  0  0  0  0  0  0  0  0  0  0
   -1.7769    3.9285    3.1270 H   0  0  0  0  0  0  0  0  0  0  0  0
   -4.1782    3.5568    2.7131 H   0  0  0  0  0  0  0  0  0  0  0  0
   -3.2597    3.1109    1.2834 H   0  0  0  0  0  0  0  0  0  0  0  0
   -4.7880    5.7173    1.7686 H   0  0  0  0  0  0  0  0  0  0  0  0
   -5.2012    3.5168   -0.3221 H   0  0  0  0  0  0  0  0  0  0  0  0
   -6.1606    4.9981   -0.1558 H   0  0  0  0  0  0  0  0  0  0  0  0
   -6.1924    3.7747    1.1237 H   0  0  0  0  0  0  0  0  0  0  0  0
   -4.0425    6.4987   -0.4095 H   0  0  0  0  0  0  0  0  0  0  0  0
   -3.1960    4.9951   -0.7399 H   0  0  0  0  0  0  0  0  0  0  0  0
   -2.5170    7.0772    1.3976 H   0  0  0  0  0  0  0  0  0  0  0  0
   -1.5852    6.7265   -0.0351 H   0  0  0  0  0  0  0  0  0  0  0  0
  1  2  1  0  0  0  0
  1 46  1  0  0  0  0
  1 47  1  0  0  0  0
  1 48  1  0  0  0  0
  2  3  1  0  0  0  0
  3  4  1  0  0  0  0
  3 34  2  0  0  0  0
  4  5  2  0  0  0  0
  4 49  1  0  0  0  0
  5  6  1  0  0  0  0
  5 32  1  0  0  0  0
  6  7  1  0  0  0  0
  6 29  2  0  0  0  0
  7  8  1  0  0  0  0
  8  9  1  0  0  0  0
  8 27  2  0  0  0  0
  9 10  2  0  0  0  0
  9 50  1  0  0  0  0
 10 11  1  0  0  0  0
 10 51  1  0  0  0  0
 11 12  1  0  0  0  0
 11 26  2  0  0  0  0
 12 13  1  0  0  0  0
 12 52  1  0  0  0  0
 13 14  2  0  0  0  0
 13 15  1  0  0  0  0
 15 16  1  0  0  0  0
 15 53  1  0  0  0  0
 16 17  2  0  0  0  0
 17 18  1  0  0  0  0
 17 54  1  0  0  0  0
 18 19  1  0  0  0  0
 18 24  2  0  0  0  0
 19 20  2  0  0  0  0
 19 55  1  0  0  0  0
 20 21  1  0  0  0  0
 20 56  1  0  0  0  0
 21 22  1  0  0  0  0
 21 23  2  0  0  0  0
 23 24  1  0  0  0  0
 23 57  1  0  0  0  0
 24 25  1  0  0  0  0
 26 27  1  0  0  0  0
 26 58  1  0  0  0  0
 27 28  1  0  0  0  0
 29 30  1  0  0  0  0
 29 59  1  0  0  0  0
 30 31  2  0  0  0  0
 30 60  1  0  0  0  0
 31 32  1  0  0  0  0
 32 33  2  0  0  0  0
 33 34  1  0  0  0  0
 33 61  1  0  0  0  0
 34 35  1  0  0  0  0
 35 36  1  0  0  0  0
 36 37  1  0  0  0  0
 36 62  1  0  0  0  0
 36 63  1  0  0  0  0
 37 38  1  0  0  0  0
 37 64  1  0  0  0  0
 37 65  1  0  0  0  0
 38 39  1  0  0  0  0
 38 66  1  0  0  0  0
 38 67  1  0  0  0  0
 39 40  1  0  0  0  0
 39 45  1  0  0  0  0
 40 41  1  0  0  0  0
 40 68  1  0  0  0  0
 40 69  1  0  0  0  0
 41 42  1  0  0  0  0
 41 70  1  0  0  0  0
 41 71  1  0  0  0  0
 42 43  1  0  0  0  0
 42 44  1  0  0  0  0
 42 72  1  0  0  0  0
 43 73  1  0  0  0  0
 43 74  1  0  0  0  0
 43 75  1  0  0  0  0
 44 45  1  0  0  0  0
 44 76  1  0  0  0  0
 44 77  1  0  0  0  0
 45 78  1  0  0  0  0
 45 79  1  0  0  0  0
M  END
$$$$
