CHEMBL4173756
 OpenBabel04072215383D

 70 75  0  0  0  0  0  0  0  0999 V2000
    1.0521    0.0725    1.8268 C   0  0  0  0  0  0  0  0  0  0  0  0
    2.4643    0.0856    1.6262 O   0  0  0  0  0  0  0  0  0  0  0  0
    3.0306   -1.1302    1.8234 C   0  0  0  0  0  0  0  0  0  0  0  0
    2.4606   -2.1376    2.1801 O   0  0  0  0  0  0  0  0  0  0  0  0
    4.4931   -1.0570    1.5700 C   0  0  0  0  0  0  0  0  0  0  0  0
    5.1648    0.1354    1.2073 C   0  0  0  0  0  0  0  0  0  0  0  0
    6.5635    0.1785    1.0860 C   0  0  0  0  0  0  0  0  0  0  0  0
    7.2772   -0.9716    1.3659 C   0  0  0  0  0  0  0  0  0  0  0  0
    6.5819   -2.1498    1.6720 C   0  0  0  0  0  0  0  0  0  0  0  0
    5.2123   -2.2322    1.7701 C   0  0  0  0  0  0  0  0  0  0  0  0
    7.4470   -3.1820    2.0065 N   0  0  0  0  0  0  0  0  0  0  0  0
    8.7245   -2.6930    2.1439 C   0  0  0  0  0  0  0  0  0  0  0  0
    9.5818   -3.1881    2.8638 O   0  0  0  0  0  0  0  0  0  0  0  0
    8.7082   -1.3265    1.4813 C   0  0  0  0  0  0  0  0  0  0  0  0
    9.8567   -0.6952    1.1581 C   0  0  0  0  0  0  0  0  0  0  0  0
   11.1106   -1.2870    1.1238 N   0  0  0  0  0  0  0  0  0  0  0  0
   11.5023   -2.5219    0.5546 C   0  0  0  0  0  0  0  0  0  0  0  0
   12.6625   -3.1597    1.0273 C   0  0  0  0  0  0  0  0  0  0  0  0
   13.1677   -4.3275    0.4331 C   0  0  0  0  0  0  0  0  0  0  0  0
   12.4511   -4.8704   -0.6346 C   0  0  0  0  0  0  0  0  0  0  0  0
   12.7091   -5.9575   -1.4349 N   0  0  0  0  0  0  0  0  0  0  0  0
   11.6516   -6.1868   -2.2861 C   0  0  0  0  0  0  0  0  0  0  0  0
   11.5428   -7.4326   -3.1005 C   0  0  0  0  0  0  0  0  0  0  0  0
   11.5052   -8.6131   -2.2284 N   0  0  0  0  0  0  0  0  0  0  0  0
   10.3605   -8.5851   -1.2894 C   0  0  0  0  0  0  0  0  0  0  0  0
   10.3630   -9.8254   -0.3709 C   0  0  0  0  0  0  0  0  0  0  0  0
   10.3324  -11.1166   -1.0858 N   0  0  0  0  0  0  0  0  0  0  0  0
    9.0095  -11.3755   -1.6485 C   0  0  0  0  0  0  0  0  0  0  0  0
   11.3827  -11.1167   -2.1257 C   0  0  0  0  0  0  0  0  0  0  0  0
   11.4296   -9.8541   -3.0237 C   0  0  0  0  0  0  0  0  0  0  0  0
   10.7640   -5.1432   -2.1252 C   0  0  0  0  0  0  0  0  0  0  0  0
   11.2386   -4.3229   -1.0721 C   0  0  0  0  0  0  0  0  0  0  0  0
   10.7559   -3.1534   -0.4506 C   0  0  0  0  0  0  0  0  0  0  0  0
    9.8752    0.7798    0.9492 C   0  0  0  0  0  0  0  0  0  0  0  0
   10.1162    1.6177    2.0528 C   0  0  0  0  0  0  0  0  0  0  0  0
   10.1424    3.0095    1.9102 C   0  0  0  0  0  0  0  0  0  0  0  0
    9.9458    3.5844    0.6572 C   0  0  0  0  0  0  0  0  0  0  0  0
    9.7278    2.7660   -0.4512 C   0  0  0  0  0  0  0  0  0  0  0  0
    9.6888    1.3698   -0.3081 C   0  0  0  0  0  0  0  0  0  0  0  0
    0.6565    1.0296    1.4863 H   0  0  0  0  0  0  0  0  0  0  0  0
    0.8213   -0.0507    2.8907 H   0  0  0  0  0  0  0  0  0  0  0  0
    0.5878   -0.7244    1.2348 H   0  0  0  0  0  0  0  0  0  0  0  0
    4.5974    1.0519    1.0458 H   0  0  0  0  0  0  0  0  0  0  0  0
    7.0500    1.1109    0.8232 H   0  0  0  0  0  0  0  0  0  0  0  0
    4.7242   -3.1565    2.0605 H   0  0  0  0  0  0  0  0  0  0  0  0
    7.1636   -4.0556    2.4204 H   0  0  0  0  0  0  0  0  0  0  0  0
   11.8677   -0.7383    1.5095 H   0  0  0  0  0  0  0  0  0  0  0  0
   13.2100   -2.7356    1.8664 H   0  0  0  0  0  0  0  0  0  0  0  0
   14.0983   -4.7691    0.7711 H   0  0  0  0  0  0  0  0  0  0  0  0
   13.5083   -6.5668   -1.3393 H   0  0  0  0  0  0  0  0  0  0  0  0
   12.4141   -7.4920   -3.7670 H   0  0  0  0  0  0  0  0  0  0  0  0
   10.6512   -7.3830   -3.7374 H   0  0  0  0  0  0  0  0  0  0  0  0
    9.4115   -8.5185   -1.8380 H   0  0  0  0  0  0  0  0  0  0  0  0
   10.4097   -7.7112   -0.6308 H   0  0  0  0  0  0  0  0  0  0  0  0
    9.5263   -9.7618    0.3360 H   0  0  0  0  0  0  0  0  0  0  0  0
   11.2706   -9.7985    0.2477 H   0  0  0  0  0  0  0  0  0  0  0  0
    8.2515  -11.3678   -0.8566 H   0  0  0  0  0  0  0  0  0  0  0  0
    8.9782  -12.3724   -2.0993 H   0  0  0  0  0  0  0  0  0  0  0  0
    8.7101  -10.6478   -2.4092 H   0  0  0  0  0  0  0  0  0  0  0  0
   11.2900  -12.0115   -2.7538 H   0  0  0  0  0  0  0  0  0  0  0  0
   12.3528  -11.2125   -1.6192 H   0  0  0  0  0  0  0  0  0  0  0  0
   10.5470   -9.8394   -3.6772 H   0  0  0  0  0  0  0  0  0  0  0  0
   12.3100   -9.9295   -3.6736 H   0  0  0  0  0  0  0  0  0  0  0  0
    9.8345   -5.0192   -2.6628 H   0  0  0  0  0  0  0  0  0  0  0  0
    9.8383   -2.7139   -0.8172 H   0  0  0  0  0  0  0  0  0  0  0  0
   10.2975    1.1875    3.0343 H   0  0  0  0  0  0  0  0  0  0  0  0
   10.3267    3.6414    2.7759 H   0  0  0  0  0  0  0  0  0  0  0  0
    9.9768    4.6658    0.5449 H   0  0  0  0  0  0  0  0  0  0  0  0
    9.5970    3.2177   -1.4315 H   0  0  0  0  0  0  0  0  0  0  0  0
    9.5193    0.7518   -1.1870 H   0  0  0  0  0  0  0  0  0  0  0  0
  1  2  1  0  0  0  0
  1 40  1  0  0  0  0
  1 41  1  0  0  0  0
  1 42  1  0  0  0  0
  2  3  1  0  0  0  0
  3  4  2  0  0  0  0
  3  5  1  0  0  0  0
  5  6  1  0  0  0  0
  5 10  2  0  0  0  0
  6  7  2  0  0  0  0
  6 43  1  0  0  0  0
  7  8  1  0  0  0  0
  7 44  1  0  0  0  0
  8  9  2  0  0  0  0
  8 14  1  0  0  0  0
  9 10  1  0  0  0  0
  9 11  1  0  0  0  0
 10 45  1  0  0  0  0
 11 12  1  0  0  0  0
 11 46  1  0  0  0  0
 12 13  2  0  0  0  0
 12 14  1  0  0  0  0
 14 15  2  0  0  0  0
 15 16  1  0  0  0  0
 15 34  1  0  0  0  0
 16 17  1  0  0  0  0
 16 47  1  0  0  0  0
 17 18  1  0  0  0  0
 17 33  2  0  0  0  0
 18 19  2  0  0  0  0
 18 48  1  0  0  0  0
 19 20  1  0  0  0  0
 19 49  1  0  0  0  0
 20 21  1  0  0  0  0
 20 32  2  0  0  0  0
 21 22  1  0  0  0  0
 21 50  1  0  0  0  0
 22 23  1  0  0  0  0
 22 31  2  0  0  0  0
 23 24  1  0  0  0  0
 23 51  1  0  0  0  0
 23 52  1  0  0  0  0
 24 25  1  0  0  0  0
 24 30  1  0  0  0  0
 25 26  1  0  0  0  0
 25 53  1  0  0  0  0
 25 54  1  0  0  0  0
 26 27  1  0  0  0  0
 26 55  1  0  0  0  0
 26 56  1  0  0  0  0
 27 28  1  0  0  0  0
 27 29  1  0  0  0  0
 28 57  1  0  0  0  0
 28 58  1  0  0  0  0
 28 59  1  0  0  0  0
 29 30  1  0  0  0  0
 29 60  1  0  0  0  0
 29 61  1  0  0  0  0
 30 62  1  0  0  0  0
 30 63  1  0  0  0  0
 31 32  1  0  0  0  0
 31 64  1  0  0  0  0
 32 33  1  0  0  0  0
 33 65  1  0  0  0  0
 34 35  1  0  0  0  0
 34 39  2  0  0  0  0
 35 36  2  0  0  0  0
 35 66  1  0  0  0  0
 36 37  1  0  0  0  0
 36 67  1  0  0  0  0
 37 38  2  0  0  0  0
 37 68  1  0  0  0  0
 38 39  1  0  0  0  0
 38 69  1  0  0  0  0
 39 70  1  0  0  0  0
M  END
$$$$
