CHEMBL223129
 OpenBabel04072215363D

 54 57  0  0  0  0  0  0  0  0999 V2000
    0.6803   -2.6591   -4.3829 C   0  0  0  0  0  0  0  0  0  0  0  0
    2.0922   -2.5792   -4.5197 O   0  0  0  0  0  0  0  0  0  0  0  0
    2.7092   -2.1111   -3.3220 C   0  0  0  0  0  0  0  0  0  0  0  0
    4.2132   -2.0288   -3.5252 C   0  0  0  0  0  0  0  0  0  0  0  0
    4.8354   -1.5600   -2.3217 O   0  0  0  0  0  0  0  0  0  0  0  0
    6.2239   -1.5620   -2.5027 N   0  0  0  0  0  0  0  0  0  0  0  0
    6.7164   -1.2076   -3.6915 N   0  0  0  0  0  0  0  0  0  0  0  0
    8.0005   -1.5035   -3.5965 C   0  0  0  0  0  0  0  0  0  0  0  0
    8.7977   -1.4134   -4.6615 N   0  0  0  0  0  0  0  0  0  0  0  0
    8.3809   -1.9032   -2.2641 C   0  0  0  0  0  0  0  0  0  0  0  0
    9.5769   -2.2581   -1.5694 C   0  0  0  0  0  0  0  0  0  0  0  0
   10.8955   -2.2946   -2.2218 C   0  0  0  0  0  0  0  0  0  0  0  0
   11.2845   -1.3537   -3.1820 C   0  0  0  0  0  0  0  0  0  0  0  0
   12.4707   -1.4747   -3.8973 C   0  0  0  0  0  0  0  0  0  0  0  0
   13.4049   -2.4637   -3.5982 C   0  0  0  0  0  0  0  0  0  0  0  0
   14.6067   -2.6078   -4.3351 N   0  0  0  0  0  0  0  0  0  0  0  0
   15.1527   -1.5979   -5.1274 C   0  0  0  0  0  0  0  0  0  0  0  0
   14.6795   -0.4652   -5.2155 O   0  0  0  0  0  0  0  0  0  0  0  0
   16.2772   -1.9509   -5.8218 N   0  0  0  0  0  0  0  0  0  0  0  0
   16.8994   -0.9933   -6.6639 C   0  0  0  0  0  0  0  0  0  0  0  0
   17.0631   -1.2669   -8.0209 C   0  0  0  0  0  0  0  0  0  0  0  0
   17.7961   -0.4006   -8.8360 C   0  0  0  0  0  0  0  0  0  0  0  0
   18.3920    0.7337   -8.2824 C   0  0  0  0  0  0  0  0  0  0  0  0
   18.1886    1.0347   -6.9371 C   0  0  0  0  0  0  0  0  0  0  0  0
   18.9761    2.4015   -6.2466 Cl  0  0  0  0  0  0  0  0  0  0  0  0
   17.4191    0.1950   -6.1270 C   0  0  0  0  0  0  0  0  0  0  0  0
   13.0990   -3.3453   -2.5597 C   0  0  0  0  0  0  0  0  0  0  0  0
   11.8566   -3.2671   -1.8984 C   0  0  0  0  0  0  0  0  0  0  0  0
    9.4538   -2.5907   -0.1992 C   0  0  0  0  0  0  0  0  0  0  0  0
    8.2252   -2.5954    0.4560 C   0  0  0  0  0  0  0  0  0  0  0  0
    7.0564   -2.2800   -0.2192 C   0  0  0  0  0  0  0  0  0  0  0  0
    7.1608   -1.9222   -1.5741 C   0  0  0  0  0  0  0  0  0  0  0  0
    0.2589   -3.0012   -5.3317 H   0  0  0  0  0  0  0  0  0  0  0  0
    0.2599   -1.6765   -4.1479 H   0  0  0  0  0  0  0  0  0  0  0  0
    0.4164   -3.3792   -3.6025 H   0  0  0  0  0  0  0  0  0  0  0  0
    2.4795   -2.7888   -2.4901 H   0  0  0  0  0  0  0  0  0  0  0  0
    2.3225   -1.1177   -3.0661 H   0  0  0  0  0  0  0  0  0  0  0  0
    4.3968   -1.3305   -4.3537 H   0  0  0  0  0  0  0  0  0  0  0  0
    4.6097   -3.0125   -3.8133 H   0  0  0  0  0  0  0  0  0  0  0  0
    8.3845   -1.1772   -5.5635 H   0  0  0  0  0  0  0  0  0  0  0  0
    9.6951   -1.8533   -4.7230 H   0  0  0  0  0  0  0  0  0  0  0  0
   10.6335   -0.5270   -3.4452 H   0  0  0  0  0  0  0  0  0  0  0  0
   12.6150   -0.7740   -4.7135 H   0  0  0  0  0  0  0  0  0  0  0  0
   15.1710   -3.4167   -4.1634 H   0  0  0  0  0  0  0  0  0  0  0  0
   16.2692   -2.9022   -6.1666 H   0  0  0  0  0  0  0  0  0  0  0  0
   16.5982   -2.1468   -8.4689 H   0  0  0  0  0  0  0  0  0  0  0  0
   17.9341   -0.6272   -9.8887 H   0  0  0  0  0  0  0  0  0  0  0  0
   19.0298    1.3635   -8.8990 H   0  0  0  0  0  0  0  0  0  0  0  0
   17.2788    0.4324   -5.0797 H   0  0  0  0  0  0  0  0  0  0  0  0
   13.7965   -4.0984   -2.2180 H   0  0  0  0  0  0  0  0  0  0  0  0
   11.6428   -3.9977   -1.1168 H   0  0  0  0  0  0  0  0  0  0  0  0
   10.3447   -2.8319    0.3783 H   0  0  0  0  0  0  0  0  0  0  0  0
    8.1945   -2.8507    1.5208 H   0  0  0  0  0  0  0  0  0  0  0  0
    6.0957   -2.2926    0.2926 H   0  0  0  0  0  0  0  0  0  0  0  0
  1  2  1  0  0  0  0
  1 33  1  0  0  0  0
  1 34  1  0  0  0  0
  1 35  1  0  0  0  0
  2  3  1  0  0  0  0
  3  4  1  0  0  0  0
  3 36  1  0  0  0  0
  3 37  1  0  0  0  0
  4  5  1  0  0  0  0
  4 38  1  0  0  0  0
  4 39  1  0  0  0  0
  5  6  1  0  0  0  0
  6  7  1  0  0  0  0
  6 32  1  0  0  0  0
  7  8  2  0  0  0  0
  8  9  1  0  0  0  0
  8 10  1  0  0  0  0
  9 40  1  0  0  0  0
  9 41  1  0  0  0  0
 10 11  1  0  0  0  0
 10 32  2  0  0  0  0
 11 12  1  0  0  0  0
 11 29  2  0  0  0  0
 12 13  1  0  0  0  0
 12 28  2  0  0  0  0
 13 14  2  0  0  0  0
 13 42  1  0  0  0  0
 14 15  1  0  0  0  0
 14 43  1  0  0  0  0
 15 16  1  0  0  0  0
 15 27  2  0  0  0  0
 16 17  1  0  0  0  0
 16 44  1  0  0  0  0
 17 18  2  0  0  0  0
 17 19  1  0  0  0  0
 19 20  1  0  0  0  0
 19 45  1  0  0  0  0
 20 21  1  0  0  0  0
 20 26  2  0  0  0  0
 21 22  2  0  0  0  0
 21 46  1  0  0  0  0
 22 23  1  0  0  0  0
 22 47  1  0  0  0  0
 23 24  2  0  0  0  0
 23 48  1  0  0  0  0
 24 25  1  0  0  0  0
 24 26  1  0  0  0  0
 26 49  1  0  0  0  0
 27 28  1  0  0  0  0
 27 50  1  0  0  0  0
 28 51  1  0  0  0  0
 29 30  1  0  0  0  0
 29 52  1  0  0  0  0
 30 31  2  0  0  0  0
 30 53  1  0  0  0  0
 31 32  1  0  0  0  0
 31 54  1  0  0  0  0
M  END
$$$$
