CHEMBL3959201
 OpenBabel04072215373D

 69 72  0  0  1  0  0  0  0  0999 V2000
    0.5435    4.1552    1.1273 C   0  0  0  0  0  0  0  0  0  0  0  0
    1.8808    4.4122    0.8448 O   0  0  0  0  0  0  0  0  0  0  0  0
    2.8689    3.4713    0.8207 C   0  0  0  0  0  0  0  0  0  0  0  0
    2.5779    2.1182    1.0864 C   0  0  0  0  0  0  0  0  0  0  0  0
    3.5687    1.1486    1.0276 C   0  0  0  0  0  0  0  0  0  0  0  0
    3.2224   -0.1453    1.2552 O   0  0  0  0  0  0  0  0  0  0  0  0
    4.0728   -1.2270    1.1552 C   0  0  0  0  0  0  0  0  0  0  0  0
    4.8759    1.5283    0.6983 C   0  0  0  0  0  0  0  0  0  0  0  0
    5.2177    2.8566    0.3943 C   0  0  0  0  0  0  0  0  0  0  0  0
    6.5327    3.1131   -0.1763 N   0  0  0  0  0  0  0  0  0  0  0  0
    7.0059    2.1904   -1.2706 C   0  0  0  0  0  0  0  0  0  0  0  0
    5.9487    1.4017   -2.1347 C   0  0  0  0  0  0  0  0  0  0  0  0
    6.5648    0.5052   -3.1678 N   0  0  0  0  0  0  0  0  0  0  0  0
    5.5173   -0.2644   -3.8748 C   0  0  0  0  0  0  0  0  0  0  0  0
    5.2775   -1.4993   -3.0176 C   0  0  0  0  0  0  0  0  0  0  0  0
    6.6989   -1.9107   -2.7411 C   0  0  0  0  0  0  0  0  0  0  0  0
    7.4258   -0.5599   -2.5792 C   0  0  1  0  0  0  0  0  0  0  0  0
    8.7662   -0.5812   -3.2873 C   0  0  0  0  0  0  0  0  0  0  0  0
    8.8168   -0.8265   -4.4840 O   0  0  0  0  0  0  0  0  0  0  0  0
    9.9115   -0.3108   -2.6292 O   0  0  0  0  0  0  0  0  0  0  0  0
    7.5123    4.1275    0.2370 C   0  0  0  0  0  0  0  0  0  0  0  0
    8.0620    4.7910   -0.8576 C   0  0  0  0  0  0  0  0  0  0  0  0
    9.2027    5.5033   -0.7706 C   0  0  0  0  0  0  0  0  0  0  0  0
    9.8437    5.6661    0.4111 C   0  0  0  0  0  0  0  0  0  0  0  0
   11.0340    6.2452    0.3079 N   0  0  0  0  0  0  0  0  0  0  0  0
   11.7693    6.5405    1.3543 C   0  0  0  0  0  0  0  0  0  0  0  0
   11.2858    6.3715    2.6557 C   0  0  0  0  0  0  0  0  0  0  0  0
   12.1644    7.1704    3.6696 C   0  0  0  0  0  0  0  0  0  0  0  0
   13.1235    8.1108    3.2228 C   0  0  0  0  0  0  0  0  0  0  0  0
   13.7034    8.7406    4.2353 N   0  0  0  0  0  0  0  0  0  0  0  0
   13.1806    8.2898    5.3462 N   0  0  0  0  0  0  0  0  0  0  0  0
   13.6105    8.8648    6.6219 C   0  0  0  0  0  0  0  0  0  0  0  0
   12.2480    7.3173    5.0741 C   0  0  0  0  0  0  0  0  0  0  0  0
   10.0711    5.6468    2.8027 N   0  0  0  0  0  0  0  0  0  0  0  0
    9.3309    5.2440    1.6544 C   0  0  0  0  0  0  0  0  0  0  0  0
    8.1077    4.4025    1.5666 C   0  0  0  0  0  0  0  0  0  0  0  0
    4.2013    3.8422    0.4803 C   0  0  0  0  0  0  0  0  0  0  0  0
   -0.6188   -0.7754   -1.7048 Cl  0  0  0  0  0  0  0  0  0  0  0  0
   -0.0483    5.0909    1.0641 H   0  0  0  0  0  0  0  0  0  0  0  0
    0.4366    3.7435    2.1551 H   0  0  0  0  0  0  0  0  0  0  0  0
    0.1166    3.4303    0.3975 H   0  0  0  0  0  0  0  0  0  0  0  0
    1.5711    1.7943    1.3216 H   0  0  0  0  0  0  0  0  0  0  0  0
    3.5168   -2.1564    1.3889 H   0  0  0  0  0  0  0  0  0  0  0  0
    4.9138   -1.1157    1.8701 H   0  0  0  0  0  0  0  0  0  0  0  0
    4.4706   -1.3090    0.1246 H   0  0  0  0  0  0  0  0  0  0  0  0
    5.6450    0.7735    0.6214 H   0  0  0  0  0  0  0  0  0  0  0  0
    7.7892    1.5547   -0.8284 H   0  0  0  0  0  0  0  0  0  0  0  0
    7.5259    2.7290   -2.0790 H   0  0  0  0  0  0  0  0  0  0  0  0
    5.3132    2.1536   -2.6575 H   0  0  0  0  0  0  0  0  0  0  0  0
    5.2747    0.8002   -1.5281 H   0  0  0  0  0  0  0  0  0  0  0  0
    5.9232   -0.5948   -4.8612 H   0  0  0  0  0  0  0  0  0  0  0  0
    4.5907    0.3147   -4.0768 H   0  0  0  0  0  0  0  0  0  0  0  0
    4.6635   -2.2965   -3.4874 H   0  0  0  0  0  0  0  0  0  0  0  0
    4.7813   -1.1989   -2.0790 H   0  0  0  0  0  0  0  0  0  0  0  0
    7.0445   -2.4266   -3.6639 H   0  0  0  0  0  0  0  0  0  0  0  0
    6.8321   -2.6099   -1.8855 H   0  0  0  0  0  0  0  0  0  0  0  0
    7.5638   -0.4041   -1.4942 H   0  0  0  0  0  0  0  0  0  0  0  0
    9.9165   -0.0590   -1.6971 H   0  0  0  0  0  0  0  0  0  0  0  0
    7.6477    4.7205   -1.8408 H   0  0  0  0  0  0  0  0  0  0  0  0
    9.6279    5.9151   -1.6744 H   0  0  0  0  0  0  0  0  0  0  0  0
   12.7086    6.9661    1.0944 H   0  0  0  0  0  0  0  0  0  0  0  0
   13.4043    8.4071    2.2314 H   0  0  0  0  0  0  0  0  0  0  0  0
   14.3477    9.6868    6.4281 H   0  0  0  0  0  0  0  0  0  0  0  0
   14.1127    8.1107    7.2584 H   0  0  0  0  0  0  0  0  0  0  0  0
   12.7449    9.3243    7.1343 H   0  0  0  0  0  0  0  0  0  0  0  0
   11.6785    6.8085    5.8351 H   0  0  0  0  0  0  0  0  0  0  0  0
    7.7027    3.9308    2.4580 H   0  0  0  0  0  0  0  0  0  0  0  0
    4.4129    4.8704    0.2151 H   0  0  0  0  0  0  0  0  0  0  0  0
    0.7467   -0.8501   -1.8522 H   0  0  0  0  0  0  0  0  0  0  0  0
  1  2  1  0  0  0  0
  1 39  1  0  0  0  0
  1 40  1  0  0  0  0
  1 41  1  0  0  0  0
  2  3  1  0  0  0  0
  3  4  1  0  0  0  0
  3 37  2  0  0  0  0
  4  5  2  0  0  0  0
  4 42  1  0  0  0  0
  5  6  1  0  0  0  0
  5  8  1  0  0  0  0
  6  7  1  0  0  0  0
  7 43  1  0  0  0  0
  7 44  1  0  0  0  0
  7 45  1  0  0  0  0
  8  9  2  0  0  0  0
  8 46  1  0  0  0  0
  9 10  1  0  0  0  0
  9 37  1  0  0  0  0
 10 11  1  0  0  0  0
 10 21  1  0  0  0  0
 11 12  1  0  0  0  0
 11 47  1  0  0  0  0
 11 48  1  0  0  0  0
 12 13  1  0  0  0  0
 12 49  1  0  0  0  0
 12 50  1  0  0  0  0
 13 14  1  0  0  0  0
 13 17  1  0  0  0  0
 14 15  1  0  0  0  0
 14 51  1  0  0  0  0
 14 52  1  0  0  0  0
 15 16  1  0  0  0  0
 15 53  1  0  0  0  0
 15 54  1  0  0  0  0
 16 17  1  0  0  0  0
 16 55  1  0  0  0  0
 16 56  1  0  0  0  0
 17 18  1  0  0  0  0
 17 57  1  1  0  0  0
 18 19  2  0  0  0  0
 18 20  1  0  0  0  0
 20 58  1  0  0  0  0
 21 22  1  0  0  0  0
 21 36  2  0  0  0  0
 22 23  2  0  0  0  0
 22 59  1  0  0  0  0
 23 24  1  0  0  0  0
 23 60  1  0  0  0  0
 24 25  1  0  0  0  0
 24 35  2  0  0  0  0
 25 26  2  0  0  0  0
 26 27  1  0  0  0  0
 26 61  1  0  0  0  0
 27 28  1  0  0  0  0
 27 34  2  0  0  0  0
 28 29  1  0  0  0  0
 28 33  2  0  0  0  0
 29 30  2  0  0  0  0
 29 62  1  0  0  0  0
 30 31  1  0  0  0  0
 31 32  1  0  0  0  0
 31 33  1  0  0  0  0
 32 63  1  0  0  0  0
 32 64  1  0  0  0  0
 32 65  1  0  0  0  0
 33 66  1  0  0  0  0
 34 35  1  0  0  0  0
 35 36  1  0  0  0  0
 36 67  1  0  0  0  0
 37 68  1  0  0  0  0
 38 69  1  0  0  0  0
M  END
$$$$
