CHEMBL3657552
 OpenBabel04072215373D

 54 58  0  0  0  0  0  0  0  0999 V2000
   -0.4355   -0.6263    2.2044 C   0  0  0  0  0  0  0  0  0  0  0  0
   -0.1744   -1.1425    0.8086 C   0  0  0  0  0  0  0  0  0  0  0  0
   -0.6483   -0.5531   -0.1625 O   0  0  0  0  0  0  0  0  0  0  0  0
    0.6536   -2.3404    0.6616 C   0  0  0  0  0  0  0  0  0  0  0  0
    1.2359   -3.0492    1.6999 C   0  0  0  0  0  0  0  0  0  0  0  0
    1.9214   -4.1075    1.1701 N   0  0  0  0  0  0  0  0  0  0  0  0
    1.8072   -4.1143   -0.1952 C   0  0  0  0  0  0  0  0  0  0  0  0
    2.3433   -5.0026   -1.1240 C   0  0  0  0  0  0  0  0  0  0  0  0
    2.0488   -4.7772   -2.4743 C   0  0  0  0  0  0  0  0  0  0  0  0
    1.2427   -3.7121   -2.8879 C   0  0  0  0  0  0  0  0  0  0  0  0
    0.9531   -3.4824   -4.2517 N   0  0  0  0  0  0  0  0  0  0  0  0
    0.8914   -4.4634   -5.2496 C   0  0  0  0  0  0  0  0  0  0  0  0
    1.2441   -4.1074   -6.4890 N   0  0  0  0  0  0  0  0  0  0  0  0
    1.2461   -5.0802   -7.4248 C   0  0  0  0  0  0  0  0  0  0  0  0
    0.9324   -6.3921   -7.1685 C   0  0  0  0  0  0  0  0  0  0  0  0
    0.5516   -6.6557   -5.8726 C   0  0  0  0  0  0  0  0  0  0  0  0
    0.1556   -7.9686   -5.4961 N   0  0  0  0  0  0  0  0  0  0  0  0
   -0.4227   -8.3123   -4.2963 C   0  0  0  0  0  0  0  0  0  0  0  0
   -0.9285   -9.5892   -4.4383 C   0  0  0  0  0  0  0  0  0  0  0  0
   -1.8281  -10.3097   -3.4815 C   0  0  0  0  0  0  0  0  0  0  0  0
   -3.2460  -10.0222   -3.7820 N   0  0  0  0  0  0  0  0  0  0  0  0
   -3.6712   -8.6492   -3.4218 C   0  0  0  0  0  0  0  0  0  0  0  0
   -4.2022   -9.1494   -2.0639 C   0  0  0  0  0  0  0  0  0  0  0  0
   -3.3857   -8.9104   -0.8916 O   0  0  0  0  0  0  0  0  0  0  0  0
   -4.1049  -10.5567   -2.6923 C   0  0  0  0  0  0  0  0  0  0  0  0
   -0.3091  -10.0440   -5.6376 C   0  0  0  0  0  0  0  0  0  0  0  0
   -0.2221  -11.4231   -6.1815 C   0  0  0  0  0  0  0  0  0  0  0  0
    0.3044   -9.0499   -6.2986 N   0  0  0  0  0  0  0  0  0  0  0  0
    0.5049   -5.7005   -4.9171 N   0  0  0  0  0  0  0  0  0  0  0  0
    0.7588   -2.8087   -1.9281 C   0  0  0  0  0  0  0  0  0  0  0  0
    1.0238   -3.0168   -0.5530 C   0  0  0  0  0  0  0  0  0  0  0  0
   -1.0986    0.2420    2.1588 H   0  0  0  0  0  0  0  0  0  0  0  0
    0.5057   -0.3210    2.6704 H   0  0  0  0  0  0  0  0  0  0  0  0
   -0.9224   -1.3988    2.8062 H   0  0  0  0  0  0  0  0  0  0  0  0
    1.2220   -2.8977    2.7690 H   0  0  0  0  0  0  0  0  0  0  0  0
    2.4418   -4.7910    1.7014 H   0  0  0  0  0  0  0  0  0  0  0  0
    2.9583   -5.8472   -0.8303 H   0  0  0  0  0  0  0  0  0  0  0  0
    2.4697   -5.4644   -3.2057 H   0  0  0  0  0  0  0  0  0  0  0  0
    1.4555   -2.6882   -4.6363 H   0  0  0  0  0  0  0  0  0  0  0  0
    1.5197   -4.7562   -8.4264 H   0  0  0  0  0  0  0  0  0  0  0  0
    0.9531   -7.1473   -7.9431 H   0  0  0  0  0  0  0  0  0  0  0  0
   -0.5139   -7.5837   -3.5024 H   0  0  0  0  0  0  0  0  0  0  0  0
   -1.5481  -10.0620   -2.4512 H   0  0  0  0  0  0  0  0  0  0  0  0
   -1.6758  -11.3895   -3.5977 H   0  0  0  0  0  0  0  0  0  0  0  0
   -4.4702   -8.2660   -4.0717 H   0  0  0  0  0  0  0  0  0  0  0  0
   -2.9062   -7.8717   -3.3675 H   0  0  0  0  0  0  0  0  0  0  0  0
   -5.2306   -8.8343   -1.8553 H   0  0  0  0  0  0  0  0  0  0  0  0
   -2.6642   -8.3318   -1.1917 H   0  0  0  0  0  0  0  0  0  0  0  0
   -5.0725  -10.9336   -3.0457 H   0  0  0  0  0  0  0  0  0  0  0  0
   -3.6610  -11.3255   -2.0505 H   0  0  0  0  0  0  0  0  0  0  0  0
   -0.8585  -12.1232   -5.6352 H   0  0  0  0  0  0  0  0  0  0  0  0
    0.8119  -11.7796   -6.0945 H   0  0  0  0  0  0  0  0  0  0  0  0
   -0.5024  -11.4523   -7.2383 H   0  0  0  0  0  0  0  0  0  0  0  0
    0.1412   -1.9662   -2.2345 H   0  0  0  0  0  0  0  0  0  0  0  0
  1  2  1  0  0  0  0
  1 32  1  0  0  0  0
  1 33  1  0  0  0  0
  1 34  1  0  0  0  0
  2  3  2  0  0  0  0
  2  4  1  0  0  0  0
  4  5  2  0  0  0  0
  4 31  1  0  0  0  0
  5  6  1  0  0  0  0
  5 35  1  0  0  0  0
  6  7  1  0  0  0  0
  6 36  1  0  0  0  0
  7  8  1  0  0  0  0
  7 31  2  0  0  0  0
  8  9  2  0  0  0  0
  8 37  1  0  0  0  0
  9 10  1  0  0  0  0
  9 38  1  0  0  0  0
 10 11  1  0  0  0  0
 10 30  2  0  0  0  0
 11 12  1  0  0  0  0
 11 39  1  0  0  0  0
 12 13  1  0  0  0  0
 12 29  2  0  0  0  0
 13 14  2  0  0  0  0
 14 15  1  0  0  0  0
 14 40  1  0  0  0  0
 15 16  2  0  0  0  0
 15 41  1  0  0  0  0
 16 17  1  0  0  0  0
 16 29  1  0  0  0  0
 17 18  1  0  0  0  0
 17 28  1  0  0  0  0
 18 19  2  0  0  0  0
 18 42  1  0  0  0  0
 19 20  1  0  0  0  0
 19 26  1  0  0  0  0
 20 21  1  0  0  0  0
 20 43  1  0  0  0  0
 20 44  1  0  0  0  0
 21 22  1  0  0  0  0
 21 25  1  0  0  0  0
 22 23  1  0  0  0  0
 22 45  1  0  0  0  0
 22 46  1  0  0  0  0
 23 24  1  0  0  0  0
 23 25  1  0  0  0  0
 23 47  1  0  0  0  0
 24 48  1  0  0  0  0
 25 49  1  0  0  0  0
 25 50  1  0  0  0  0
 26 27  1  0  0  0  0
 26 28  2  0  0  0  0
 27 51  1  0  0  0  0
 27 52  1  0  0  0  0
 27 53  1  0  0  0  0
 30 31  1  0  0  0  0
 30 54  1  0  0  0  0
M  END
$$$$
