CHEMBL488645
 OpenBabel04072215383D

 60 63  0  0  0  0  0  0  0  0999 V2000
    6.8552    3.0777    3.0380 C   0  0  0  0  0  0  0  0  0  0  0  0
    5.9399    2.9447    1.9580 O   0  0  0  0  0  0  0  0  0  0  0  0
    4.9285    2.0260    2.0959 C   0  0  0  0  0  0  0  0  0  0  0  0
    4.4963    1.5578    3.3453 C   0  0  0  0  0  0  0  0  0  0  0  0
    3.4019    0.7042    3.4663 C   0  0  0  0  0  0  0  0  0  0  0  0
    2.9436    0.1873    4.7669 C   0  0  0  0  0  0  0  0  0  0  0  0
    2.9848    0.6879    6.0134 C   0  0  0  0  0  0  0  0  0  0  0  0
    3.6365    1.7973    6.6350 C   0  0  0  0  0  0  0  0  0  0  0  0
    4.8705    1.5962    7.2229 C   0  0  0  0  0  0  0  0  0  0  0  0
    4.8370    2.2693    8.4222 N   0  0  0  0  0  0  0  0  0  0  0  0
    5.5317    1.8644    9.6411 C   0  0  0  0  0  0  0  0  0  0  0  0
    6.7626    1.2027    9.3694 O   0  0  0  0  0  0  0  0  0  0  0  0
    7.4509    0.8975   10.5927 C   0  0  0  0  0  0  0  0  0  0  0  0
    6.7084   -0.1665   11.4030 C   0  0  0  0  0  0  0  0  0  0  0  0
    8.8511    0.4101   10.2470 C   0  0  0  0  0  0  0  0  0  0  0  0
    3.7278    3.1007    8.4672 C   0  0  0  0  0  0  0  0  0  0  0  0
    3.2325    3.8921    9.5178 C   0  0  0  0  0  0  0  0  0  0  0  0
    2.0697    4.6271    9.2959 C   0  0  0  0  0  0  0  0  0  0  0  0
    1.4245    4.5747    8.0684 C   0  0  0  0  0  0  0  0  0  0  0  0
    1.8708    3.7066    7.0579 C   0  0  0  0  0  0  0  0  0  0  0  0
    3.0326    2.9288    7.2631 C   0  0  0  0  0  0  0  0  0  0  0  0
    2.3602   -0.2179    7.0405 C   0  0  0  0  0  0  0  0  0  0  0  0
    2.0684   -1.3692    6.2681 N   0  0  0  0  0  0  0  0  0  0  0  0
    2.4024   -1.1930    4.9553 C   0  0  0  0  0  0  0  0  0  0  0  0
    2.3197   -2.0719    4.1086 O   0  0  0  0  0  0  0  0  0  0  0  0
    2.7178    0.3265    2.2983 C   0  0  0  0  0  0  0  0  0  0  0  0
    3.1176    0.7978    1.0386 C   0  0  0  0  0  0  0  0  0  0  0  0
    2.4717    0.4412   -0.1213 O   0  0  0  0  0  0  0  0  0  0  0  0
    1.0671    0.2457   -0.0052 C   0  0  0  0  0  0  0  0  0  0  0  0
    4.2488    1.6253    0.9296 C   0  0  0  0  0  0  0  0  0  0  0  0
    4.5633    2.0265   -0.3517 O   0  0  0  0  0  0  0  0  0  0  0  0
    5.9497    2.1439   -0.6470 C   0  0  0  0  0  0  0  0  0  0  0  0
    7.6068    3.8165    2.7445 H   0  0  0  0  0  0  0  0  0  0  0  0
    7.3690    2.1300    3.2297 H   0  0  0  0  0  0  0  0  0  0  0  0
    6.3678    3.4579    3.9409 H   0  0  0  0  0  0  0  0  0  0  0  0
    5.0112    1.8606    4.2476 H   0  0  0  0  0  0  0  0  0  0  0  0
    5.6137    0.8242    7.0618 H   0  0  0  0  0  0  0  0  0  0  0  0
    4.8344    1.1810   10.1355 H   0  0  0  0  0  0  0  0  0  0  0  0
    5.7101    2.7600   10.2390 H   0  0  0  0  0  0  0  0  0  0  0  0
    7.5469    1.8156   11.1862 H   0  0  0  0  0  0  0  0  0  0  0  0
    6.4768   -1.0379   10.7818 H   0  0  0  0  0  0  0  0  0  0  0  0
    5.7526    0.2171   11.7789 H   0  0  0  0  0  0  0  0  0  0  0  0
    7.2891   -0.4840   12.2710 H   0  0  0  0  0  0  0  0  0  0  0  0
    8.8135   -0.4804    9.6121 H   0  0  0  0  0  0  0  0  0  0  0  0
    9.4153    0.1721   11.1551 H   0  0  0  0  0  0  0  0  0  0  0  0
    9.3979    1.1788    9.6920 H   0  0  0  0  0  0  0  0  0  0  0  0
    3.7159    3.9203   10.4890 H   0  0  0  0  0  0  0  0  0  0  0  0
    1.6673    5.2391   10.1016 H   0  0  0  0  0  0  0  0  0  0  0  0
    0.5420    5.1895    7.9030 H   0  0  0  0  0  0  0  0  0  0  0  0
    1.3254    3.6445    6.1219 H   0  0  0  0  0  0  0  0  0  0  0  0
    1.4274    0.1839    7.4440 H   0  0  0  0  0  0  0  0  0  0  0  0
    3.0394   -0.4979    7.8525 H   0  0  0  0  0  0  0  0  0  0  0  0
    1.8346   -2.2840    6.6327 H   0  0  0  0  0  0  0  0  0  0  0  0
    1.8788   -0.3551    2.3698 H   0  0  0  0  0  0  0  0  0  0  0  0
    0.6382    0.2636   -1.0112 H   0  0  0  0  0  0  0  0  0  0  0  0
    0.5928    1.0471    0.5733 H   0  0  0  0  0  0  0  0  0  0  0  0
    0.8429   -0.7344    0.4309 H   0  0  0  0  0  0  0  0  0  0  0  0
    6.0728    2.0271   -1.7282 H   0  0  0  0  0  0  0  0  0  0  0  0
    6.5517    1.3675   -0.1608 H   0  0  0  0  0  0  0  0  0  0  0  0
    6.3102    3.1447   -0.3927 H   0  0  0  0  0  0  0  0  0  0  0  0
  1  2  1  0  0  0  0
  1 33  1  0  0  0  0
  1 34  1  0  0  0  0
  1 35  1  0  0  0  0
  2  3  1  0  0  0  0
  3  4  1  0  0  0  0
  3 30  2  0  0  0  0
  4  5  2  0  0  0  0
  4 36  1  0  0  0  0
  5  6  1  0  0  0  0
  5 26  1  0  0  0  0
  6  7  2  0  0  0  0
  6 24  1  0  0  0  0
  7  8  1  0  0  0  0
  7 22  1  0  0  0  0
  8  9  2  0  0  0  0
  8 21  1  0  0  0  0
  9 10  1  0  0  0  0
  9 37  1  0  0  0  0
 10 11  1  0  0  0  0
 10 16  1  0  0  0  0
 11 12  1  0  0  0  0
 11 38  1  0  0  0  0
 11 39  1  0  0  0  0
 12 13  1  0  0  0  0
 13 14  1  0  0  0  0
 13 15  1  0  0  0  0
 13 40  1  0  0  0  0
 14 41  1  0  0  0  0
 14 42  1  0  0  0  0
 14 43  1  0  0  0  0
 15 44  1  0  0  0  0
 15 45  1  0  0  0  0
 15 46  1  0  0  0  0
 16 17  1  0  0  0  0
 16 21  2  0  0  0  0
 17 18  2  0  0  0  0
 17 47  1  0  0  0  0
 18 19  1  0  0  0  0
 18 48  1  0  0  0  0
 19 20  2  0  0  0  0
 19 49  1  0  0  0  0
 20 21  1  0  0  0  0
 20 50  1  0  0  0  0
 22 23  1  0  0  0  0
 22 51  1  0  0  0  0
 22 52  1  0  0  0  0
 23 24  1  0  0  0  0
 23 53  1  0  0  0  0
 24 25  2  0  0  0  0
 26 27  2  0  0  0  0
 26 54  1  0  0  0  0
 27 28  1  0  0  0  0
 27 30  1  0  0  0  0
 28 29  1  0  0  0  0
 29 55  1  0  0  0  0
 29 56  1  0  0  0  0
 29 57  1  0  0  0  0
 30 31  1  0  0  0  0
 31 32  1  0  0  0  0
 32 58  1  0  0  0  0
 32 59  1  0  0  0  0
 32 60  1  0  0  0  0
M  END
$$$$
