CHEMBL512863
 OpenBabel04072215383D

 42 44  0  0  0  0  0  0  0  0999 V2000
    2.5208   -0.0873   -0.3383 C   0  0  0  0  0  0  0  0  0  0  0  0
    1.0242   -0.0907   -0.1648 C   0  0  0  0  0  0  0  0  0  0  0  0
    0.3680    1.1524   -0.1343 C   0  0  0  0  0  0  0  0  0  0  0  0
   -1.0215    1.2770    0.0023 C   0  0  0  0  0  0  0  0  0  0  0  0
   -1.6917    2.5230    0.0250 N   0  0  0  0  0  0  0  0  0  0  0  0
   -1.0916    3.7574   -0.2026 C   0  0  0  0  0  0  0  0  0  0  0  0
    0.0824    3.8672   -0.5180 O   0  0  0  0  0  0  0  0  0  0  0  0
   -1.9604    4.9396   -0.0682 C   0  0  0  0  0  0  0  0  0  0  0  0
   -3.2809    4.7361    0.0939 N   0  0  0  0  0  0  0  0  0  0  0  0
   -4.0709    6.1862    0.0652 S   0  0  0  0  0  0  0  0  0  0  0  0
   -2.6808    7.1498   -0.1250 C   0  0  0  0  0  0  0  0  0  0  0  0
   -1.5563    6.3477   -0.1377 C   0  0  0  0  0  0  0  0  0  0  0  0
   -0.3244    6.9338   -0.2540 N   0  0  0  0  0  0  0  0  0  0  0  0
    0.9411    6.3727    0.2161 C   0  0  0  0  0  0  0  0  0  0  0  0
    1.8490    5.9030   -0.9036 C   0  0  0  0  0  0  0  0  0  0  0  0
    1.5379    6.0656   -2.2578 C   0  0  0  0  0  0  0  0  0  0  0  0
    2.3887    5.5302   -3.2137 C   0  0  0  0  0  0  0  0  0  0  0  0
    3.5257    4.8627   -2.9255 N   0  0  0  0  0  0  0  0  0  0  0  0
    3.8094    4.7049   -1.6165 C   0  0  0  0  0  0  0  0  0  0  0  0
    3.0220    5.2021   -0.5870 C   0  0  0  0  0  0  0  0  0  0  0  0
   -1.7730    0.1133    0.1277 C   0  0  0  0  0  0  0  0  0  0  0  0
   -1.1391   -1.1374    0.1061 C   0  0  0  0  0  0  0  0  0  0  0  0
    0.2621   -1.2623   -0.0402 C   0  0  0  0  0  0  0  0  0  0  0  0
    0.8537   -2.6538   -0.0483 C   0  0  0  0  0  0  0  0  0  0  0  0
    2.2041   -2.7129   -0.2060 F   0  0  0  0  0  0  0  0  0  0  0  0
    0.5934   -3.3252    1.1102 F   0  0  0  0  0  0  0  0  0  0  0  0
    0.3359   -3.4268   -1.0450 F   0  0  0  0  0  0  0  0  0  0  0  0
    2.9178    0.9313   -0.4162 H   0  0  0  0  0  0  0  0  0  0  0  0
    2.7976   -0.6095   -1.2591 H   0  0  0  0  0  0  0  0  0  0  0  0
    3.0063   -0.5539    0.5239 H   0  0  0  0  0  0  0  0  0  0  0  0
    1.0056    2.0254   -0.2200 H   0  0  0  0  0  0  0  0  0  0  0  0
   -2.6965    2.5494    0.1708 H   0  0  0  0  0  0  0  0  0  0  0  0
   -2.7486    8.2254   -0.1990 H   0  0  0  0  0  0  0  0  0  0  0  0
   -0.2576    7.9409   -0.3782 H   0  0  0  0  0  0  0  0  0  0  0  0
    0.7777    5.5820    0.9581 H   0  0  0  0  0  0  0  0  0  0  0  0
    1.4767    7.1671    0.7515 H   0  0  0  0  0  0  0  0  0  0  0  0
    0.6227    6.5536   -2.5729 H   0  0  0  0  0  0  0  0  0  0  0  0
    2.1582    5.6163   -4.2714 H   0  0  0  0  0  0  0  0  0  0  0  0
    4.7109    4.1363   -1.4070 H   0  0  0  0  0  0  0  0  0  0  0  0
    3.2993    5.0036    0.4429 H   0  0  0  0  0  0  0  0  0  0  0  0
   -2.8532    0.1553    0.2350 H   0  0  0  0  0  0  0  0  0  0  0  0
   -1.7500   -2.0355    0.2019 H   0  0  0  0  0  0  0  0  0  0  0  0
  1  2  1  0  0  0  0
  1 28  1  0  0  0  0
  1 29  1  0  0  0  0
  1 30  1  0  0  0  0
  2  3  1  0  0  0  0
  2 23  2  0  0  0  0
  3  4  2  0  0  0  0
  3 31  1  0  0  0  0
  4  5  1  0  0  0  0
  4 21  1  0  0  0  0
  5  6  1  0  0  0  0
  5 32  1  0  0  0  0
  6  7  2  0  0  0  0
  6  8  1  0  0  0  0
  8  9  2  0  0  0  0
  8 12  1  0  0  0  0
  9 10  1  0  0  0  0
 10 11  1  0  0  0  0
 11 12  2  0  0  0  0
 11 33  1  0  0  0  0
 12 13  1  0  0  0  0
 13 14  1  0  0  0  0
 13 34  1  0  0  0  0
 14 15  1  0  0  0  0
 14 35  1  0  0  0  0
 14 36  1  0  0  0  0
 15 16  1  0  0  0  0
 15 20  2  0  0  0  0
 16 17  2  0  0  0  0
 16 37  1  0  0  0  0
 17 18  1  0  0  0  0
 17 38  1  0  0  0  0
 18 19  2  0  0  0  0
 19 20  1  0  0  0  0
 19 39  1  0  0  0  0
 20 40  1  0  0  0  0
 21 22  2  0  0  0  0
 21 41  1  0  0  0  0
 22 23  1  0  0  0  0
 22 42  1  0  0  0  0
 23 24  1  0  0  0  0
 24 25  1  0  0  0  0
 24 26  1  0  0  0  0
 24 27  1  0  0  0  0
M  END
$$$$
