CHEMBL301271
 OpenBabel04072215363D

 55 58  0  0  0  0  0  0  0  0999 V2000
    1.5073    0.0878    0.4744 C   0  0  0  0  0  0  0  0  0  0  0  0
    2.0052    1.3936   -0.1177 C   0  0  0  0  0  0  0  0  0  0  0  0
    3.3242    1.1290   -1.2946 S   0  0  0  0  0  0  0  0  0  0  0  0
    4.4263    0.4908   -0.6013 O   0  0  0  0  0  0  0  0  0  0  0  0
    2.7624    0.5570   -2.5013 O   0  0  0  0  0  0  0  0  0  0  0  0
    3.8679    2.7766   -1.7242 C   0  0  0  0  0  0  0  0  0  0  0  0
    2.9433    3.6313   -2.3567 C   0  0  0  0  0  0  0  0  0  0  0  0
    3.3169    4.9300   -2.7002 C   0  0  0  0  0  0  0  0  0  0  0  0
    4.6124    5.3184   -2.4110 C   0  0  0  0  0  0  0  0  0  0  0  0
    5.5562    4.4725   -1.8122 C   0  0  0  0  0  0  0  0  0  0  0  0
    5.1923    3.1821   -1.4563 C   0  0  0  0  0  0  0  0  0  0  0  0
    6.7993    5.2673   -1.7114 C   0  0  0  0  0  0  0  0  0  0  0  0
    7.9964    4.8586   -1.2574 C   0  0  0  0  0  0  0  0  0  0  0  0
    9.1482    5.6943   -1.2123 C   0  0  0  0  0  0  0  0  0  0  0  0
    9.9978    5.6806   -2.2946 N   0  0  0  0  0  0  0  0  0  0  0  0
   11.0701    6.4862   -2.0443 C   0  0  0  0  0  0  0  0  0  0  0  0
   10.9189    7.0524   -0.7938 C   0  0  0  0  0  0  0  0  0  0  0  0
    9.6784    6.5658   -0.2587 C   0  0  0  0  0  0  0  0  0  0  0  0
    9.0316    6.8759    1.0638 C   0  0  0  0  0  0  0  0  0  0  0  0
    9.2930    8.2439    1.6762 C   0  0  0  0  0  0  0  0  0  0  0  0
    8.9004    9.4788    0.8867 C   0  0  0  0  0  0  0  0  0  0  0  0
    8.1547    9.3431   -0.2376 N   0  0  0  0  0  0  0  0  0  0  0  0
    9.1978   10.6056    1.2831 O   0  0  0  0  0  0  0  0  0  0  0  0
   11.9658    7.9596   -0.2190 C   0  0  0  0  0  0  0  0  0  0  0  0
   13.0035    8.4076   -1.2677 C   0  0  0  0  0  0  0  0  0  0  0  0
   13.4110    7.2710   -2.2155 C   0  0  0  0  0  0  0  0  0  0  0  0
   12.1997    6.7208   -2.9873 C   0  0  0  0  0  0  0  0  0  0  0  0
    6.4784    6.6417   -2.2498 C   0  0  0  0  0  0  0  0  0  0  0  0
    7.1912    7.6215   -2.3146 O   0  0  0  0  0  0  0  0  0  0  0  0
    5.1585    6.5704   -2.6586 N   0  0  0  0  0  0  0  0  0  0  0  0
    0.6932    0.2757    1.1822 H   0  0  0  0  0  0  0  0  0  0  0  0
    2.3070   -0.4339    1.0096 H   0  0  0  0  0  0  0  0  0  0  0  0
    1.1323   -0.5841   -0.3044 H   0  0  0  0  0  0  0  0  0  0  0  0
    2.3884    2.0439    0.6741 H   0  0  0  0  0  0  0  0  0  0  0  0
    1.1870    1.9010   -0.6368 H   0  0  0  0  0  0  0  0  0  0  0  0
    1.9389    3.2858   -2.5937 H   0  0  0  0  0  0  0  0  0  0  0  0
    2.6157    5.6011   -3.1836 H   0  0  0  0  0  0  0  0  0  0  0  0
    5.9007    2.5031   -0.9907 H   0  0  0  0  0  0  0  0  0  0  0  0
    8.1238    3.8407   -0.8978 H   0  0  0  0  0  0  0  0  0  0  0  0
    9.8496    5.1546   -3.1457 H   0  0  0  0  0  0  0  0  0  0  0  0
    9.3618    6.1110    1.7786 H   0  0  0  0  0  0  0  0  0  0  0  0
    7.9448    6.7523    0.9649 H   0  0  0  0  0  0  0  0  0  0  0  0
   10.3528    8.3393    1.9380 H   0  0  0  0  0  0  0  0  0  0  0  0
    8.7449    8.3026    2.6250 H   0  0  0  0  0  0  0  0  0  0  0  0
    8.1373    8.4910   -0.7976 H   0  0  0  0  0  0  0  0  0  0  0  0
    8.0138   10.1849   -0.7794 H   0  0  0  0  0  0  0  0  0  0  0  0
   12.4794    7.4303    0.5928 H   0  0  0  0  0  0  0  0  0  0  0  0
   11.5219    8.8651    0.2012 H   0  0  0  0  0  0  0  0  0  0  0  0
   13.8878    8.8068   -0.7564 H   0  0  0  0  0  0  0  0  0  0  0  0
   12.5854    9.2316   -1.8609 H   0  0  0  0  0  0  0  0  0  0  0  0
   13.8738    6.4668   -1.6292 H   0  0  0  0  0  0  0  0  0  0  0  0
   14.1679    7.6294   -2.9226 H   0  0  0  0  0  0  0  0  0  0  0  0
   12.4793    5.7992   -3.5081 H   0  0  0  0  0  0  0  0  0  0  0  0
   11.8885    7.4521   -3.7434 H   0  0  0  0  0  0  0  0  0  0  0  0
    4.6763    7.3581   -3.0650 H   0  0  0  0  0  0  0  0  0  0  0  0
  1  2  1  0  0  0  0
  1 31  1  0  0  0  0
  1 32  1  0  0  0  0
  1 33  1  0  0  0  0
  2  3  1  0  0  0  0
  2 34  1  0  0  0  0
  2 35  1  0  0  0  0
  3  4  2  0  0  0  0
  3  5  2  0  0  0  0
  3  6  1  0  0  0  0
  6  7  1  0  0  0  0
  6 11  2  0  0  0  0
  7  8  2  0  0  0  0
  7 36  1  0  0  0  0
  8  9  1  0  0  0  0
  8 37  1  0  0  0  0
  9 10  2  0  0  0  0
  9 30  1  0  0  0  0
 10 11  1  0  0  0  0
 10 12  1  0  0  0  0
 11 38  1  0  0  0  0
 12 13  2  0  0  0  0
 12 28  1  0  0  0  0
 13 14  1  0  0  0  0
 13 39  1  0  0  0  0
 14 15  1  0  0  0  0
 14 18  2  0  0  0  0
 15 16  1  0  0  0  0
 15 40  1  0  0  0  0
 16 17  2  0  0  0  0
 16 27  1  0  0  0  0
 17 18  1  0  0  0  0
 17 24  1  0  0  0  0
 18 19  1  0  0  0  0
 19 20  1  0  0  0  0
 19 41  1  0  0  0  0
 19 42  1  0  0  0  0
 20 21  1  0  0  0  0
 20 43  1  0  0  0  0
 20 44  1  0  0  0  0
 21 22  1  0  0  0  0
 21 23  2  0  0  0  0
 22 45  1  0  0  0  0
 22 46  1  0  0  0  0
 24 25  1  0  0  0  0
 24 47  1  0  0  0  0
 24 48  1  0  0  0  0
 25 26  1  0  0  0  0
 25 49  1  0  0  0  0
 25 50  1  0  0  0  0
 26 27  1  0  0  0  0
 26 51  1  0  0  0  0
 26 52  1  0  0  0  0
 27 53  1  0  0  0  0
 27 54  1  0  0  0  0
 28 29  2  0  0  0  0
 28 30  1  0  0  0  0
 30 55  1  0  0  0  0
M  END
$$$$
