CHEMBL255406
 OpenBabel04072215363D

 58 63  0  0  0  0  0  0  0  0999 V2000
    1.6801   -2.5362   -0.2060 C   0  0  0  0  0  0  0  0  0  0  0  0
    2.5336   -2.1616   -1.4016 C   0  0  0  0  0  0  0  0  0  0  0  0
    3.8011   -1.3889   -1.0289 C   0  0  0  0  0  0  0  0  0  0  0  0
    4.8309   -2.1419   -0.1555 C   0  0  0  0  0  0  0  0  0  0  0  0
    5.4120   -3.3414   -0.7452 N   0  0  0  0  0  0  0  0  0  0  0  0
    6.1526   -3.3507   -1.9523 C   0  0  0  0  0  0  0  0  0  0  0  0
    6.6170   -2.3141   -2.7875 C   0  0  0  0  0  0  0  0  0  0  0  0
    7.2317   -2.6553   -4.0121 C   0  0  0  0  0  0  0  0  0  0  0  0
    7.4306   -3.9894   -4.3733 C   0  0  0  0  0  0  0  0  0  0  0  0
    8.0512   -4.4334   -5.6562 C   0  0  0  0  0  0  0  0  0  0  0  0
    9.0030   -3.5254   -6.3771 C   0  0  0  0  0  0  0  0  0  0  0  0
    7.7918   -5.5403   -6.1000 O   0  0  0  0  0  0  0  0  0  0  0  0
    6.9895   -5.0047   -3.5320 C   0  0  0  0  0  0  0  0  0  0  0  0
    6.3210   -4.6861   -2.3391 C   0  0  0  0  0  0  0  0  0  0  0  0
    5.6110   -5.3727   -1.3827 C   0  0  0  0  0  0  0  0  0  0  0  0
    5.1086   -6.6650   -1.6062 C   0  0  0  0  0  0  0  0  0  0  0  0
    3.9873   -7.0112   -0.8241 C   0  0  0  0  0  0  0  0  0  0  0  0
    3.5025   -6.2344    0.2320 C   0  0  0  0  0  0  0  0  0  0  0  0
    4.4606   -5.2859    0.7237 C   0  0  0  0  0  0  0  0  0  0  0  0
    5.1895   -4.6526   -0.3064 C   0  0  0  0  0  0  0  0  0  0  0  0
    5.1636   -5.8160    2.0584 C   0  0  0  0  0  0  0  0  0  0  0  0
    4.7958   -7.3061    2.4559 C   0  0  0  0  0  0  0  0  0  0  0  0
    3.3141   -7.4133    2.3744 C   0  0  0  0  0  0  0  0  0  0  0  0
    2.4634   -7.6670    3.3676 N   0  0  0  0  0  0  0  0  0  0  0  0
    1.2911   -7.1906    2.8763 N   0  0  0  0  0  0  0  0  0  0  0  0
    0.1306   -7.1306    3.7318 C   0  0  0  0  0  0  0  0  0  0  0  0
    1.4130   -6.5824    1.6501 C   0  0  0  0  0  0  0  0  0  0  0  0
    2.6890   -6.8691    1.2398 C   0  0  0  0  0  0  0  0  0  0  0  0
    3.5846   -8.3403   -1.2308 C   0  0  0  0  0  0  0  0  0  0  0  0
    2.6920   -9.0965   -0.8785 O   0  0  0  0  0  0  0  0  0  0  0  0
    4.5161   -8.7042   -2.1996 N   0  0  0  0  0  0  0  0  0  0  0  0
    5.4780   -7.6914   -2.5764 C   0  0  0  0  0  0  0  0  0  0  0  0
    0.7609   -3.0324   -0.5378 H   0  0  0  0  0  0  0  0  0  0  0  0
    1.3956   -1.6480    0.3664 H   0  0  0  0  0  0  0  0  0  0  0  0
    2.2043   -3.2234    0.4629 H   0  0  0  0  0  0  0  0  0  0  0  0
    1.9329   -1.5298   -2.0694 H   0  0  0  0  0  0  0  0  0  0  0  0
    2.7899   -3.0596   -1.9779 H   0  0  0  0  0  0  0  0  0  0  0  0
    3.5070   -0.4717   -0.4985 H   0  0  0  0  0  0  0  0  0  0  0  0
    4.2683   -1.0502   -1.9579 H   0  0  0  0  0  0  0  0  0  0  0  0
    4.3886   -2.4086    0.8086 H   0  0  0  0  0  0  0  0  0  0  0  0
    5.6713   -1.4691    0.0564 H   0  0  0  0  0  0  0  0  0  0  0  0
    6.4644   -1.2713   -2.5385 H   0  0  0  0  0  0  0  0  0  0  0  0
    7.5255   -1.8502   -4.6839 H   0  0  0  0  0  0  0  0  0  0  0  0
    9.3894   -2.7334   -5.7300 H   0  0  0  0  0  0  0  0  0  0  0  0
    8.4973   -3.0891   -7.2431 H   0  0  0  0  0  0  0  0  0  0  0  0
    9.8574   -4.1200   -6.7096 H   0  0  0  0  0  0  0  0  0  0  0  0
    7.1492   -6.0387   -3.8124 H   0  0  0  0  0  0  0  0  0  0  0  0
    4.8586   -5.1561    2.8772 H   0  0  0  0  0  0  0  0  0  0  0  0
    6.2518   -5.7557    1.9441 H   0  0  0  0  0  0  0  0  0  0  0  0
    5.1792   -7.5815    3.4416 H   0  0  0  0  0  0  0  0  0  0  0  0
    5.2391   -8.0049    1.7287 H   0  0  0  0  0  0  0  0  0  0  0  0
    0.3127   -7.7176    4.6353 H   0  0  0  0  0  0  0  0  0  0  0  0
   -0.7241   -7.5361    3.1858 H   0  0  0  0  0  0  0  0  0  0  0  0
   -0.0428   -6.0835    3.9945 H   0  0  0  0  0  0  0  0  0  0  0  0
    0.6269   -5.9704    1.2330 H   0  0  0  0  0  0  0  0  0  0  0  0
    4.4756   -9.6281   -2.6086 H   0  0  0  0  0  0  0  0  0  0  0  0
    5.2888   -7.3958   -3.6055 H   0  0  0  0  0  0  0  0  0  0  0  0
    6.4912   -8.0682   -2.4177 H   0  0  0  0  0  0  0  0  0  0  0  0
  1  2  1  0  0  0  0
  1 33  1  0  0  0  0
  1 34  1  0  0  0  0
  1 35  1  0  0  0  0
  2  3  1  0  0  0  0
  2 36  1  0  0  0  0
  2 37  1  0  0  0  0
  3  4  1  0  0  0  0
  3 38  1  0  0  0  0
  3 39  1  0  0  0  0
  4  5  1  0  0  0  0
  4 40  1  0  0  0  0
  4 41  1  0  0  0  0
  5  6  1  0  0  0  0
  5 20  1  0  0  0  0
  6  7  1  0  0  0  0
  6 14  2  0  0  0  0
  7  8  2  0  0  0  0
  7 42  1  0  0  0  0
  8  9  1  0  0  0  0
  8 43  1  0  0  0  0
  9 10  1  0  0  0  0
  9 13  2  0  0  0  0
 10 11  1  0  0  0  0
 10 12  2  0  0  0  0
 11 44  1  0  0  0  0
 11 45  1  0  0  0  0
 11 46  1  0  0  0  0
 13 14  1  0  0  0  0
 13 47  1  0  0  0  0
 14 15  1  0  0  0  0
 15 16  1  0  0  0  0
 15 20  2  0  0  0  0
 16 17  2  0  0  0  0
 16 32  1  0  0  0  0
 17 18  1  0  0  0  0
 17 29  1  0  0  0  0
 18 19  2  0  0  0  0
 18 28  1  0  0  0  0
 19 20  1  0  0  0  0
 19 21  1  0  0  0  0
 21 22  1  0  0  0  0
 21 48  1  0  0  0  0
 21 49  1  0  0  0  0
 22 23  1  0  0  0  0
 22 50  1  0  0  0  0
 22 51  1  0  0  0  0
 23 24  2  0  0  0  0
 23 28  1  0  0  0  0
 24 25  1  0  0  0  0
 25 26  1  0  0  0  0
 25 27  1  0  0  0  0
 26 52  1  0  0  0  0
 26 53  1  0  0  0  0
 26 54  1  0  0  0  0
 27 28  2  0  0  0  0
 27 55  1  0  0  0  0
 29 30  2  0  0  0  0
 29 31  1  0  0  0  0
 31 32  1  0  0  0  0
 31 56  1  0  0  0  0
 32 57  1  0  0  0  0
 32 58  1  0  0  0  0
M  END
$$$$
