CHEMBL375890
 OpenBabel04072215373D

 63 68  0  0  0  0  0  0  0  0999 V2000
    1.9741    0.0654   -1.0007 C   0  0  0  0  0  0  0  0  0  0  0  0
    0.5268    0.2486   -1.0621 N   0  0  0  0  0  0  0  0  0  0  0  0
   -0.1746   -0.9994   -0.7204 C   0  0  0  0  0  0  0  0  0  0  0  0
   -1.7076   -0.8053   -0.7128 C   0  0  0  0  0  0  0  0  0  0  0  0
   -2.1843    0.2318    0.2290 N   0  0  0  0  0  0  0  0  0  0  0  0
   -1.9995   -0.1184    1.6503 C   0  0  0  0  0  0  0  0  0  0  0  0
   -2.7055   -1.3934    2.0782 C   0  0  0  0  0  0  0  0  0  0  0  0
   -2.0216   -2.6361    1.9878 C   0  0  0  0  0  0  0  0  0  0  0  0
   -2.6452   -3.8479    2.2811 C   0  0  0  0  0  0  0  0  0  0  0  0
   -3.9434   -3.7832    2.7164 C   0  0  0  0  0  0  0  0  0  0  0  0
   -4.6396   -2.5556    2.8856 C   0  0  0  0  0  0  0  0  0  0  0  0
   -4.0318   -1.3573    2.5425 C   0  0  0  0  0  0  0  0  0  0  0  0
   -6.0490   -2.7420    3.4803 C   0  0  0  0  0  0  0  0  0  0  0  0
   -6.0205   -4.2313    3.5748 C   0  0  0  0  0  0  0  0  0  0  0  0
   -6.7776   -5.3176    4.0357 C   0  0  0  0  0  0  0  0  0  0  0  0
   -8.1101   -5.2491    4.7081 C   0  0  0  0  0  0  0  0  0  0  0  0
   -8.8024   -6.3385    5.1955 C   0  0  0  0  0  0  0  0  0  0  0  0
  -10.0418   -5.9593    5.8000 C   0  0  0  0  0  0  0  0  0  0  0  0
  -10.2510   -4.6007    5.7322 C   0  0  0  0  0  0  0  0  0  0  0  0
  -11.3844   -3.8923    6.2152 C   0  0  0  0  0  0  0  0  0  0  0  0
  -12.3057   -3.2249    6.6008 C   0  0  0  0  0  0  0  0  0  0  0  0
  -13.4053   -2.3882    7.0926 C   0  0  0  0  0  0  0  0  0  0  0  0
  -13.6643   -1.3321    6.1668 O   0  0  0  0  0  0  0  0  0  0  0  0
  -14.6870   -0.4817    6.4976 C   0  0  0  0  0  0  0  0  0  0  0  0
  -15.4878   -0.5719    7.6371 C   0  0  0  0  0  0  0  0  0  0  0  0
  -16.5089    0.3563    7.8597 C   0  0  0  0  0  0  0  0  0  0  0  0
  -16.7357    1.3823    6.9442 C   0  0  0  0  0  0  0  0  0  0  0  0
  -15.9385    1.4824    5.8063 C   0  0  0  0  0  0  0  0  0  0  0  0
  -14.9177    0.5540    5.5829 C   0  0  0  0  0  0  0  0  0  0  0  0
   -8.9499   -3.7916    4.9852 S   0  0  0  0  0  0  0  0  0  0  0  0
   -6.1270   -6.4840    3.8243 N   0  0  0  0  0  0  0  0  0  0  0  0
   -4.9460   -6.1182    3.2623 N   0  0  0  0  0  0  0  0  0  0  0  0
   -4.8551   -4.7845    3.1305 C   0  0  0  0  0  0  0  0  0  0  0  0
   -1.4584    1.4833   -0.0991 C   0  0  0  0  0  0  0  0  0  0  0  0
    0.0872    1.3459   -0.1790 C   0  0  0  0  0  0  0  0  0  0  0  0
    2.2876   -0.7490   -1.6638 H   0  0  0  0  0  0  0  0  0  0  0  0
    2.3212   -0.1677    0.0126 H   0  0  0  0  0  0  0  0  0  0  0  0
    2.4889    0.9685   -1.3444 H   0  0  0  0  0  0  0  0  0  0  0  0
    0.1667   -1.3686    0.2536 H   0  0  0  0  0  0  0  0  0  0  0  0
    0.0698   -1.7740   -1.4569 H   0  0  0  0  0  0  0  0  0  0  0  0
   -2.2104   -1.7621   -0.5404 H   0  0  0  0  0  0  0  0  0  0  0  0
   -2.0248   -0.5161   -1.7248 H   0  0  0  0  0  0  0  0  0  0  0  0
   -2.4014    0.6997    2.2646 H   0  0  0  0  0  0  0  0  0  0  0  0
   -0.9424   -0.1963    1.9295 H   0  0  0  0  0  0  0  0  0  0  0  0
   -0.9866   -2.6587    1.6593 H   0  0  0  0  0  0  0  0  0  0  0  0
   -2.1182   -4.7875    2.1779 H   0  0  0  0  0  0  0  0  0  0  0  0
   -4.5664   -0.4163    2.6342 H   0  0  0  0  0  0  0  0  0  0  0  0
   -6.8178   -2.3795    2.7942 H   0  0  0  0  0  0  0  0  0  0  0  0
   -6.1126   -2.2711    4.4650 H   0  0  0  0  0  0  0  0  0  0  0  0
   -8.4361   -7.3567    5.1256 H   0  0  0  0  0  0  0  0  0  0  0  0
  -10.7388   -6.6553    6.2494 H   0  0  0  0  0  0  0  0  0  0  0  0
  -13.1169   -1.9665    8.0626 H   0  0  0  0  0  0  0  0  0  0  0  0
  -14.2954   -3.0160    7.2064 H   0  0  0  0  0  0  0  0  0  0  0  0
  -15.3504   -1.3505    8.3775 H   0  0  0  0  0  0  0  0  0  0  0  0
  -17.1291    0.2763    8.7482 H   0  0  0  0  0  0  0  0  0  0  0  0
  -17.5304    2.1007    7.1194 H   0  0  0  0  0  0  0  0  0  0  0  0
  -16.1121    2.2814    5.0913 H   0  0  0  0  0  0  0  0  0  0  0  0
  -14.3014    0.6381    4.6922 H   0  0  0  0  0  0  0  0  0  0  0  0
   -4.2738   -6.8375    3.0190 H   0  0  0  0  0  0  0  0  0  0  0  0
   -1.7208    2.2719    0.6167 H   0  0  0  0  0  0  0  0  0  0  0  0
   -1.8240    1.8387   -1.0723 H   0  0  0  0  0  0  0  0  0  0  0  0
    0.4862    1.2060    0.8337 H   0  0  0  0  0  0  0  0  0  0  0  0
    0.4944    2.2918   -0.5558 H   0  0  0  0  0  0  0  0  0  0  0  0
  1  2  1  0  0  0  0
  1 36  1  0  0  0  0
  1 37  1  0  0  0  0
  1 38  1  0  0  0  0
  2  3  1  0  0  0  0
  2 35  1  0  0  0  0
  3  4  1  0  0  0  0
  3 39  1  0  0  0  0
  3 40  1  0  0  0  0
  4  5  1  0  0  0  0
  4 41  1  0  0  0  0
  4 42  1  0  0  0  0
  5  6  1  0  0  0  0
  5 34  1  0  0  0  0
  6  7  1  0  0  0  0
  6 43  1  0  0  0  0
  6 44  1  0  0  0  0
  7  8  1  0  0  0  0
  7 12  2  0  0  0  0
  8  9  2  0  0  0  0
  8 45  1  0  0  0  0
  9 10  1  0  0  0  0
  9 46  1  0  0  0  0
 10 11  2  0  0  0  0
 10 33  1  0  0  0  0
 11 12  1  0  0  0  0
 11 13  1  0  0  0  0
 12 47  1  0  0  0  0
 13 14  1  0  0  0  0
 13 48  1  0  0  0  0
 13 49  1  0  0  0  0
 14 15  1  0  0  0  0
 14 33  2  0  0  0  0
 15 16  1  0  0  0  0
 15 31  2  0  0  0  0
 16 17  2  0  0  0  0
 16 30  1  0  0  0  0
 17 18  1  0  0  0  0
 17 50  1  0  0  0  0
 18 19  2  0  0  0  0
 18 51  1  0  0  0  0
 19 20  1  0  0  0  0
 19 30  1  0  0  0  0
 20 21  3  0  0  0  0
 21 22  1  0  0  0  0
 22 23  1  0  0  0  0
 22 52  1  0  0  0  0
 22 53  1  0  0  0  0
 23 24  1  0  0  0  0
 24 25  1  0  0  0  0
 24 29  2  0  0  0  0
 25 26  2  0  0  0  0
 25 54  1  0  0  0  0
 26 27  1  0  0  0  0
 26 55  1  0  0  0  0
 27 28  2  0  0  0  0
 27 56  1  0  0  0  0
 28 29  1  0  0  0  0
 28 57  1  0  0  0  0
 29 58  1  0  0  0  0
 31 32  1  0  0  0  0
 32 33  1  0  0  0  0
 32 59  1  0  0  0  0
 34 35  1  0  0  0  0
 34 60  1  0  0  0  0
 34 61  1  0  0  0  0
 35 62  1  0  0  0  0
 35 63  1  0  0  0  0
M  END
$$$$
