CHEMBL3288509
 OpenBabel04072215363D

 50 54  0  0  0  0  0  0  0  0999 V2000
    2.7387   -0.1487   -2.9676 C   0  0  0  0  0  0  0  0  0  0  0  0
    1.5556   -0.9378   -2.4896 C   0  0  0  0  0  0  0  0  0  0  0  0
    1.4831   -1.3720   -1.1609 C   0  0  0  0  0  0  0  0  0  0  0  0
    0.3686   -2.0823   -0.6998 C   0  0  0  0  0  0  0  0  0  0  0  0
   -0.6930   -2.3759   -1.5555 C   0  0  0  0  0  0  0  0  0  0  0  0
   -1.8525   -3.0862   -1.1612 N   0  0  0  0  0  0  0  0  0  0  0  0
   -2.1870   -3.4594    0.1292 C   0  0  0  0  0  0  0  0  0  0  0  0
   -1.5684   -3.1620    1.1447 O   0  0  0  0  0  0  0  0  0  0  0  0
   -3.4294   -4.2771    0.2672 C   0  0  0  0  0  0  0  0  0  0  0  0
   -4.5729   -3.8908   -0.4494 C   0  0  0  0  0  0  0  0  0  0  0  0
   -5.7595   -4.6010   -0.3007 C   0  0  0  0  0  0  0  0  0  0  0  0
   -5.8245   -5.6658    0.5975 C   0  0  0  0  0  0  0  0  0  0  0  0
   -4.7009   -6.0610    1.3423 C   0  0  0  0  0  0  0  0  0  0  0  0
   -4.7925   -7.1216    2.2723 C   0  0  0  0  0  0  0  0  0  0  0  0
   -3.6811   -7.6046    2.9923 C   0  0  0  0  0  0  0  0  0  0  0  0
   -3.8060   -8.7091    3.9754 C   0  0  0  0  0  0  0  0  0  0  0  0
   -4.6934   -9.7890    3.7189 C   0  0  0  0  0  0  0  0  0  0  0  0
   -4.8601  -10.8563    4.5994 C   0  0  0  0  0  0  0  0  0  0  0  0
   -4.1351  -10.9147    5.7821 C   0  0  0  0  0  0  0  0  0  0  0  0
   -3.2518   -9.8643    6.0435 C   0  0  0  0  0  0  0  0  0  0  0  0
   -2.4136   -9.6733    7.1073 N   0  0  0  0  0  0  0  0  0  0  0  0
   -1.6994   -8.5492    7.0545 N   0  0  0  0  0  0  0  0  0  0  0  0
   -2.0980   -7.9753    5.9233 C   0  0  0  0  0  0  0  0  0  0  0  0
   -1.5926   -6.7853    5.5677 N   0  0  0  0  0  0  0  0  0  0  0  0
   -3.0651   -8.7610    5.2019 C   0  0  0  0  0  0  0  0  0  0  0  0
   -2.4523   -7.0142    2.6972 C   0  0  0  0  0  0  0  0  0  0  0  0
   -2.3546   -5.9039    1.8516 C   0  0  0  0  0  0  0  0  0  0  0  0
   -3.4708   -5.3910    1.1570 C   0  0  0  0  0  0  0  0  0  0  0  0
   -0.6009   -1.9583   -2.8889 C   0  0  0  0  0  0  0  0  0  0  0  0
   -1.6031   -2.2338   -3.7392 F   0  0  0  0  0  0  0  0  0  0  0  0
    0.5028   -1.2421   -3.3564 C   0  0  0  0  0  0  0  0  0  0  0  0
    3.4774   -0.0143   -2.1702 H   0  0  0  0  0  0  0  0  0  0  0  0
    2.4191    0.8453   -3.2964 H   0  0  0  0  0  0  0  0  0  0  0  0
    3.2321   -0.6652   -3.7966 H   0  0  0  0  0  0  0  0  0  0  0  0
    2.2921   -1.1621   -0.4651 H   0  0  0  0  0  0  0  0  0  0  0  0
    0.3730   -2.4018    0.3372 H   0  0  0  0  0  0  0  0  0  0  0  0
   -2.4854   -3.3217   -1.9177 H   0  0  0  0  0  0  0  0  0  0  0  0
   -4.5597   -3.0239   -1.1050 H   0  0  0  0  0  0  0  0  0  0  0  0
   -6.6430   -4.3142   -0.8664 H   0  0  0  0  0  0  0  0  0  0  0  0
   -6.7687   -6.1962    0.7081 H   0  0  0  0  0  0  0  0  0  0  0  0
   -5.7705   -7.5732    2.4423 H   0  0  0  0  0  0  0  0  0  0  0  0
   -5.2672   -9.8105    2.7932 H   0  0  0  0  0  0  0  0  0  0  0  0
   -5.5573  -11.6543    4.3542 H   0  0  0  0  0  0  0  0  0  0  0  0
   -4.2537  -11.7459    6.4699 H   0  0  0  0  0  0  0  0  0  0  0  0
   -2.2836  -10.2832    7.9048 H   0  0  0  0  0  0  0  0  0  0  0  0
   -1.0087   -6.3294    6.2585 H   0  0  0  0  0  0  0  0  0  0  0  0
   -2.1491   -6.1359    5.0238 H   0  0  0  0  0  0  0  0  0  0  0  0
   -1.5341   -7.3943    3.1418 H   0  0  0  0  0  0  0  0  0  0  0  0
   -1.3701   -5.4526    1.7407 H   0  0  0  0  0  0  0  0  0  0  0  0
    0.5245   -0.9260   -4.3968 H   0  0  0  0  0  0  0  0  0  0  0  0
  1  2  1  0  0  0  0
  1 32  1  0  0  0  0
  1 33  1  0  0  0  0
  1 34  1  0  0  0  0
  2  3  1  0  0  0  0
  2 31  2  0  0  0  0
  3  4  2  0  0  0  0
  3 35  1  0  0  0  0
  4  5  1  0  0  0  0
  4 36  1  0  0  0  0
  5  6  1  0  0  0  0
  5 29  2  0  0  0  0
  6  7  1  0  0  0  0
  6 37  1  0  0  0  0
  7  8  2  0  0  0  0
  7  9  1  0  0  0  0
  9 10  1  0  0  0  0
  9 28  2  0  0  0  0
 10 11  2  0  0  0  0
 10 38  1  0  0  0  0
 11 12  1  0  0  0  0
 11 39  1  0  0  0  0
 12 13  2  0  0  0  0
 12 40  1  0  0  0  0
 13 14  1  0  0  0  0
 13 28  1  0  0  0  0
 14 15  2  0  0  0  0
 14 41  1  0  0  0  0
 15 16  1  0  0  0  0
 15 26  1  0  0  0  0
 16 17  1  0  0  0  0
 16 25  2  0  0  0  0
 17 18  2  0  0  0  0
 17 42  1  0  0  0  0
 18 19  1  0  0  0  0
 18 43  1  0  0  0  0
 19 20  2  0  0  0  0
 19 44  1  0  0  0  0
 20 21  1  0  0  0  0
 20 25  1  0  0  0  0
 21 22  1  0  0  0  0
 21 45  1  0  0  0  0
 22 23  2  0  0  0  0
 23 24  1  0  0  0  0
 23 25  1  0  0  0  0
 24 46  1  0  0  0  0
 24 47  1  0  0  0  0
 26 27  2  0  0  0  0
 26 48  1  0  0  0  0
 27 28  1  0  0  0  0
 27 49  1  0  0  0  0
 29 30  1  0  0  0  0
 29 31  1  0  0  0  0
 31 50  1  0  0  0  0
M  END
$$$$
