CHEMBL4740381
 OpenBabel04072215383D

 57 62  0  0  0  0  0  0  0  0999 V2000
   -0.9666   -0.9546    2.6631 C   0  0  0  0  0  0  0  0  0  0  0  0
   -0.8841   -0.2598    1.3374 C   0  0  0  0  0  0  0  0  0  0  0  0
   -0.6141    1.0958    1.2632 C   0  0  0  0  0  0  0  0  0  0  0  0
   -0.6029    1.7477    0.0227 C   0  0  0  0  0  0  0  0  0  0  0  0
   -0.3813    3.2165   -0.0207 C   0  0  0  0  0  0  0  0  0  0  0  0
    0.3247    3.9829   -0.9457 C   0  0  0  0  0  0  0  0  0  0  0  0
    0.3041    5.3153   -0.6558 N   0  0  0  0  0  0  0  0  0  0  0  0
   -0.3543    5.3991    0.4758 C   0  0  0  0  0  0  0  0  0  0  0  0
   -0.6199    6.5372    1.2883 C   0  0  0  0  0  0  0  0  0  0  0  0
   -1.3052    6.3991    2.4431 C   0  0  0  0  0  0  0  0  0  0  0  0
   -1.5059    7.5981    3.2721 C   0  0  0  0  0  0  0  0  0  0  0  0
   -2.6159    8.4209    3.0819 C   0  0  0  0  0  0  0  0  0  0  0  0
   -2.8255    9.5239    3.9223 C   0  0  0  0  0  0  0  0  0  0  0  0
   -1.9391    9.8373    4.9613 C   0  0  0  0  0  0  0  0  0  0  0  0
   -2.1427   10.9017    5.8165 N   0  0  0  0  0  0  0  0  0  0  0  0
   -3.4788   11.3848    6.1872 C   0  0  0  0  0  0  0  0  0  0  0  0
   -3.6794   12.8564    5.7649 C   0  0  0  0  0  0  0  0  0  0  0  0
   -2.6021   13.7595    6.2260 N   0  0  0  0  0  0  0  0  0  0  0  0
   -1.3099   13.2344    5.7347 C   0  0  0  0  0  0  0  0  0  0  0  0
   -1.0204   11.7820    6.1785 C   0  0  0  0  0  0  0  0  0  0  0  0
   -0.8196    9.0042    5.1147 C   0  0  0  0  0  0  0  0  0  0  0  0
   -0.6005    7.8982    4.2889 C   0  0  0  0  0  0  0  0  0  0  0  0
   -1.8117    5.0929    2.8495 C   0  0  0  0  0  0  0  0  0  0  0  0
   -1.5795    4.0235    2.0728 C   0  0  0  0  0  0  0  0  0  0  0  0
   -0.8212    4.1577    0.9005 N   0  0  0  0  0  0  0  0  0  0  0  0
   -0.7870    0.9559   -1.1527 C   0  0  0  0  0  0  0  0  0  0  0  0
   -0.7631    1.4356   -2.4917 C   0  0  0  0  0  0  0  0  0  0  0  0
   -0.9333    0.5976   -3.5906 C   0  0  0  0  0  0  0  0  0  0  0  0
   -1.1723   -0.7468   -3.3808 C   0  0  0  0  0  0  0  0  0  0  0  0
   -1.2185   -1.2399   -2.0767 C   0  0  0  0  0  0  0  0  0  0  0  0
   -1.0287   -0.4283   -0.9659 C   0  0  0  0  0  0  0  0  0  0  0  0
   -1.0878   -1.0109    0.2402 N   0  0  0  0  0  0  0  0  0  0  0  0
   -0.8281   -0.2603    3.4988 H   0  0  0  0  0  0  0  0  0  0  0  0
   -0.1959   -1.7289    2.7282 H   0  0  0  0  0  0  0  0  0  0  0  0
   -1.9509   -1.4222    2.7771 H   0  0  0  0  0  0  0  0  0  0  0  0
   -0.4117    1.6286    2.1851 H   0  0  0  0  0  0  0  0  0  0  0  0
    0.8555    3.6463   -1.8275 H   0  0  0  0  0  0  0  0  0  0  0  0
   -0.2388    7.4934    0.9477 H   0  0  0  0  0  0  0  0  0  0  0  0
   -3.3232    8.2174    2.2837 H   0  0  0  0  0  0  0  0  0  0  0  0
   -3.6897   10.1517    3.7267 H   0  0  0  0  0  0  0  0  0  0  0  0
   -3.5727   11.3124    7.2785 H   0  0  0  0  0  0  0  0  0  0  0  0
   -4.2856   10.7679    5.7768 H   0  0  0  0  0  0  0  0  0  0  0  0
   -4.6300   13.2182    6.1726 H   0  0  0  0  0  0  0  0  0  0  0  0
   -3.7586   12.9223    4.6731 H   0  0  0  0  0  0  0  0  0  0  0  0
   -2.5824   13.7290    7.2456 H   0  0  0  0  0  0  0  0  0  0  0  0
   -0.5072   13.8857    6.0971 H   0  0  0  0  0  0  0  0  0  0  0  0
   -1.2945   13.2949    4.6391 H   0  0  0  0  0  0  0  0  0  0  0  0
   -0.8806   11.7459    7.2656 H   0  0  0  0  0  0  0  0  0  0  0  0
   -0.0751   11.4719    5.7187 H   0  0  0  0  0  0  0  0  0  0  0  0
   -0.1135    9.1871    5.9205 H   0  0  0  0  0  0  0  0  0  0  0  0
    0.2735    7.2736    4.4573 H   0  0  0  0  0  0  0  0  0  0  0  0
   -2.3749    5.0111    3.7721 H   0  0  0  0  0  0  0  0  0  0  0  0
   -1.9654    3.0518    2.3425 H   0  0  0  0  0  0  0  0  0  0  0  0
   -0.6180    2.4841   -2.7172 H   0  0  0  0  0  0  0  0  0  0  0  0
   -0.8880    1.0081   -4.5963 H   0  0  0  0  0  0  0  0  0  0  0  0
   -1.3322   -1.4102   -4.2254 H   0  0  0  0  0  0  0  0  0  0  0  0
   -1.4102   -2.2986   -1.9184 H   0  0  0  0  0  0  0  0  0  0  0  0
  1  2  1  0  0  0  0
  1 33  1  0  0  0  0
  1 34  1  0  0  0  0
  1 35  1  0  0  0  0
  2  3  1  0  0  0  0
  2 32  2  0  0  0  0
  3  4  2  0  0  0  0
  3 36  1  0  0  0  0
  4  5  1  0  0  0  0
  4 26  1  0  0  0  0
  5  6  2  0  0  0  0
  5 25  1  0  0  0  0
  6  7  1  0  0  0  0
  6 37  1  0  0  0  0
  7  8  2  0  0  0  0
  8  9  1  0  0  0  0
  8 25  1  0  0  0  0
  9 10  2  0  0  0  0
  9 38  1  0  0  0  0
 10 11  1  0  0  0  0
 10 23  1  0  0  0  0
 11 12  1  0  0  0  0
 11 22  2  0  0  0  0
 12 13  2  0  0  0  0
 12 39  1  0  0  0  0
 13 14  1  0  0  0  0
 13 40  1  0  0  0  0
 14 15  1  0  0  0  0
 14 21  2  0  0  0  0
 15 16  1  0  0  0  0
 15 20  1  0  0  0  0
 16 17  1  0  0  0  0
 16 41  1  0  0  0  0
 16 42  1  0  0  0  0
 17 18  1  0  0  0  0
 17 43  1  0  0  0  0
 17 44  1  0  0  0  0
 18 19  1  0  0  0  0
 18 45  1  0  0  0  0
 19 20  1  0  0  0  0
 19 46  1  0  0  0  0
 19 47  1  0  0  0  0
 20 48  1  0  0  0  0
 20 49  1  0  0  0  0
 21 22  1  0  0  0  0
 21 50  1  0  0  0  0
 22 51  1  0  0  0  0
 23 24  2  0  0  0  0
 23 52  1  0  0  0  0
 24 25  1  0  0  0  0
 24 53  1  0  0  0  0
 26 27  1  0  0  0  0
 26 31  2  0  0  0  0
 27 28  2  0  0  0  0
 27 54  1  0  0  0  0
 28 29  1  0  0  0  0
 28 55  1  0  0  0  0
 29 30  2  0  0  0  0
 29 56  1  0  0  0  0
 30 31  1  0  0  0  0
 30 57  1  0  0  0  0
 31 32  1  0  0  0  0
M  END
$$$$
