CHEMBL3949434
 OpenBabel04072215373D

 57 60  0  0  1  0  0  0  0  0999 V2000
    1.2795   -2.7125    3.0149 C   0  0  0  0  0  0  0  0  0  0  0  0
    0.8371   -3.7916    3.8288 O   0  0  0  0  0  0  0  0  0  0  0  0
   -0.1641   -4.5998    3.3712 C   0  0  0  0  0  0  0  0  0  0  0  0
   -0.0320   -5.9393    3.7640 C   0  0  0  0  0  0  0  0  0  0  0  0
   -1.0332   -6.9024    3.4699 C   0  0  0  0  0  0  0  0  0  0  0  0
   -1.0284   -8.2536    3.8435 C   0  0  0  0  0  0  0  0  0  0  0  0
    0.0534   -8.7754    4.6013 N   0  0  0  0  0  0  0  0  0  0  0  0
    0.2918  -10.1610    4.7217 C   0  0  0  0  0  0  0  0  0  0  0  0
    0.3233  -10.9670    3.5737 C   0  0  0  0  0  0  0  0  0  0  0  0
    0.4373  -12.3520    3.6690 C   0  0  0  0  0  0  0  0  0  0  0  0
    0.5332  -12.9534    4.9223 C   0  0  0  0  0  0  0  0  0  0  0  0
    0.6144  -14.6775    4.9769 Cl  0  0  0  0  0  0  0  0  0  0  0  0
    0.5411  -12.1584    6.0752 C   0  0  0  0  0  0  0  0  0  0  0  0
    0.6594  -12.8379    7.6607 Cl  0  0  0  0  0  0  0  0  0  0  0  0
    0.4280  -10.7653    5.9737 C   0  0  0  0  0  0  0  0  0  0  0  0
   -2.0264   -9.0997    3.5035 N   0  0  0  0  0  0  0  0  0  0  0  0
   -3.0342   -8.6010    2.7905 C   0  0  0  0  0  0  0  0  0  0  0  0
   -3.1402   -7.3394    2.3818 N   0  0  0  0  0  0  0  0  0  0  0  0
   -2.1445   -6.5204    2.7232 C   0  0  0  0  0  0  0  0  0  0  0  0
   -2.2569   -5.2050    2.3303 C   0  0  0  0  0  0  0  0  0  0  0  0
   -1.3248   -4.2179    2.6939 C   0  0  0  0  0  0  0  0  0  0  0  0
   -1.5663   -2.8871    2.4421 O   0  0  0  0  0  0  0  0  0  0  0  0
   -2.9558   -2.5856    2.2492 C   0  0  0  0  0  0  0  0  0  0  0  0
   -3.2253   -1.0909    2.3630 C   0  0  2  0  0  0  0  0  0  0  0  0
   -2.7917   -0.6501    3.6551 O   0  0  0  0  0  0  0  0  0  0  0  0
   -2.9967    0.7450    3.8510 C   0  0  1  0  0  0  0  0  0  0  0  0
   -2.3164    1.5262    2.8593 O   0  0  0  0  0  0  0  0  0  0  0  0
   -0.9043    1.3341    2.9191 C   0  0  0  0  0  0  0  0  0  0  0  0
   -4.5084    1.0543    3.8147 C   0  0  1  0  0  0  0  0  0  0  0  0
   -4.7517    2.4467    4.0431 O   0  0  0  0  0  0  0  0  0  0  0  0
   -5.1038    0.6068    2.4683 C   0  0  2  0  0  0  0  0  0  0  0  0
   -6.5326    0.7557    2.4636 O   0  0  0  0  0  0  0  0  0  0  0  0
   -4.7306   -0.8530    2.1756 C   0  0  1  0  0  0  0  0  0  0  0  0
   -5.1431   -1.2469    0.8637 O   0  0  0  0  0  0  0  0  0  0  0  0
    1.4369   -1.8477    3.6677 H   0  0  0  0  0  0  0  0  0  0  0  0
    0.6166   -2.4169    2.2022 H   0  0  0  0  0  0  0  0  0  0  0  0
    2.2471   -2.9772    2.5760 H   0  0  0  0  0  0  0  0  0  0  0  0
    0.8593   -6.2323    4.3181 H   0  0  0  0  0  0  0  0  0  0  0  0
    0.1307   -8.2699    5.4788 H   0  0  0  0  0  0  0  0  0  0  0  0
    0.2189  -10.5102    2.5908 H   0  0  0  0  0  0  0  0  0  0  0  0
    0.4239  -12.9496    2.7616 H   0  0  0  0  0  0  0  0  0  0  0  0
    0.4021  -10.1628    6.8773 H   0  0  0  0  0  0  0  0  0  0  0  0
   -3.8361   -9.2778    2.5204 H   0  0  0  0  0  0  0  0  0  0  0  0
   -3.1437   -4.9645    1.7529 H   0  0  0  0  0  0  0  0  0  0  0  0
   -3.5514   -3.0908    3.0214 H   0  0  0  0  0  0  0  0  0  0  0  0
   -3.2515   -2.9207    1.2482 H   0  0  0  0  0  0  0  0  0  0  0  0
   -2.6438   -0.5851    1.5822 H   0  0  0  0  0  0  0  0  0  0  0  0
   -2.6049    1.0216    4.8367 H   0  0  0  0  0  0  0  0  0  0  0  0
   -0.4396    1.9800    2.1695 H   0  0  0  0  0  0  0  0  0  0  0  0
   -0.6391    0.2988    2.6808 H   0  0  0  0  0  0  0  0  0  0  0  0
   -0.5161    1.6009    3.9060 H   0  0  0  0  0  0  0  0  0  0  0  0
   -5.0122    0.5072    4.6211 H   0  0  0  0  0  0  0  0  0  0  0  0
   -4.3201    2.9286    3.3133 H   0  0  0  0  0  0  0  0  0  0  0  0
   -4.7495    1.2576    1.6616 H   0  0  0  0  0  0  0  0  0  0  0  0
   -6.9198    0.0703    3.0359 H   0  0  0  0  0  0  0  0  0  0  0  0
   -5.2895   -1.4915    2.8726 H   0  0  0  0  0  0  0  0  0  0  0  0
   -4.8045   -0.5959    0.2234 H   0  0  0  0  0  0  0  0  0  0  0  0
  1  2  1  0  0  0  0
  1 35  1  0  0  0  0
  1 36  1  0  0  0  0
  1 37  1  0  0  0  0
  2  3  1  0  0  0  0
  3  4  1  0  0  0  0
  3 21  2  0  0  0  0
  4  5  2  0  0  0  0
  4 38  1  0  0  0  0
  5  6  1  0  0  0  0
  5 19  1  0  0  0  0
  6  7  1  0  0  0  0
  6 16  2  0  0  0  0
  7  8  1  0  0  0  0
  7 39  1  0  0  0  0
  8  9  1  0  0  0  0
  8 15  2  0  0  0  0
  9 10  2  0  0  0  0
  9 40  1  0  0  0  0
 10 11  1  0  0  0  0
 10 41  1  0  0  0  0
 11 12  1  0  0  0  0
 11 13  2  0  0  0  0
 13 14  1  0  0  0  0
 13 15  1  0  0  0  0
 15 42  1  0  0  0  0
 16 17  1  0  0  0  0
 17 18  2  0  0  0  0
 17 43  1  0  0  0  0
 18 19  1  0  0  0  0
 19 20  2  0  0  0  0
 20 21  1  0  0  0  0
 20 44  1  0  0  0  0
 21 22  1  0  0  0  0
 22 23  1  0  0  0  0
 23 45  1  0  0  0  0
 23 46  1  0  0  0  0
 24 25  1  0  0  0  0
 24 33  1  0  0  0  0
 24 23  1  0  0  0  0
 24 47  1  6  0  0  0
 25 26  1  0  0  0  0
 26 27  1  0  0  0  0
 26 29  1  0  0  0  0
 26 48  1  1  0  0  0
 27 28  1  0  0  0  0
 28 49  1  0  0  0  0
 28 50  1  0  0  0  0
 28 51  1  0  0  0  0
 29 30  1  0  0  0  0
 29 31  1  0  0  0  0
 29 52  1  1  0  0  0
 30 53  1  0  0  0  0
 31 32  1  0  0  0  0
 31 33  1  0  0  0  0
 31 54  1  6  0  0  0
 32 55  1  0  0  0  0
 33 34  1  0  0  0  0
 33 56  1  1  0  0  0
 34 57  1  0  0  0  0
M  END
$$$$
