CHEMBL184143
 OpenBabel04072215363D

 44 47  0  0  0  0  0  0  0  0999 V2000
   -3.0097    0.7485    1.5602 N   0  0  0  0  0  0  0  0  0  0  0  0
   -1.8555    0.6173    1.5649 C   0  0  0  0  0  0  0  0  0  0  0  0
   -0.4318    0.4609    1.5710 C   0  0  0  0  0  0  0  0  0  0  0  0
    0.1254   -0.7363    2.0233 C   0  0  0  0  0  0  0  0  0  0  0  0
    1.5065   -0.8887    2.0341 C   0  0  0  0  0  0  0  0  0  0  0  0
    2.3240    0.1520    1.5878 C   0  0  0  0  0  0  0  0  0  0  0  0
    1.7889    1.3595    1.1312 C   0  0  0  0  0  0  0  0  0  0  0  0
    2.5656    2.4513    0.6718 N   0  0  0  0  0  0  0  0  0  0  0  0
    3.9487    2.4305    0.4942 C   0  0  0  0  0  0  0  0  0  0  0  0
    4.6630    1.4547    0.6553 O   0  0  0  0  0  0  0  0  0  0  0  0
    4.4339    3.6851    0.1376 N   0  0  0  0  0  0  0  0  0  0  0  0
    5.8220    3.8253   -0.1086 C   0  0  0  0  0  0  0  0  0  0  0  0
    6.4904    2.9424   -0.9613 C   0  0  0  0  0  0  0  0  0  0  0  0
    7.8839    2.9735   -1.0723 C   0  0  0  0  0  0  0  0  0  0  0  0
    8.6477    3.8431   -0.2836 C   0  0  0  0  0  0  0  0  0  0  0  0
   10.1095    3.6794   -0.1140 C   0  0  0  0  0  0  0  0  0  0  0  0
   10.9635    4.7966    0.0414 C   0  0  0  0  0  0  0  0  0  0  0  0
   12.2725    4.6814    0.5566 C   0  0  0  0  0  0  0  0  0  0  0  0
   12.7351    3.4565    1.0212 C   0  0  0  0  0  0  0  0  0  0  0  0
   11.8949    2.3745    0.8530 C   0  0  0  0  0  0  0  0  0  0  0  0
   10.6658    2.4396    0.1933 C   0  0  0  0  0  0  0  0  0  0  0  0
   10.1038    1.0576    0.1660 C   0  0  0  0  0  0  0  0  0  0  0  0
   10.7139    0.4551    1.3148 N   0  0  0  0  0  0  0  0  0  0  0  0
   11.8535    1.1563    1.6816 C   0  0  0  0  0  0  0  0  0  0  0  0
   12.5464    0.9537    2.6566 O   0  0  0  0  0  0  0  0  0  0  0  0
    7.9463    4.7769    0.5113 C   0  0  0  0  0  0  0  0  0  0  0  0
    6.5470    4.7955    0.5746 C   0  0  0  0  0  0  0  0  0  0  0  0
    0.3922    1.5041    1.1181 C   0  0  0  0  0  0  0  0  0  0  0  0
   -0.5031   -1.5494    2.3764 H   0  0  0  0  0  0  0  0  0  0  0  0
    1.9574   -1.8132    2.3797 H   0  0  0  0  0  0  0  0  0  0  0  0
    3.3973   -0.0193    1.6307 H   0  0  0  0  0  0  0  0  0  0  0  0
    2.0882    3.2553    0.3267 H   0  0  0  0  0  0  0  0  0  0  0  0
    3.9909    4.4499    0.6276 H   0  0  0  0  0  0  0  0  0  0  0  0
    5.9362    2.1828   -1.5076 H   0  0  0  0  0  0  0  0  0  0  0  0
    8.3642    2.2415   -1.7182 H   0  0  0  0  0  0  0  0  0  0  0  0
   10.5853    5.7976   -0.1621 H   0  0  0  0  0  0  0  0  0  0  0  0
   12.8779    5.5740    0.7008 H   0  0  0  0  0  0  0  0  0  0  0  0
   13.6655    3.3615    1.5708 H   0  0  0  0  0  0  0  0  0  0  0  0
   10.4937    0.5259   -0.7143 H   0  0  0  0  0  0  0  0  0  0  0  0
    9.0225    0.9537    0.2098 H   0  0  0  0  0  0  0  0  0  0  0  0
   10.1265    0.2206    2.1131 H   0  0  0  0  0  0  0  0  0  0  0  0
    8.4933    5.4519    1.1700 H   0  0  0  0  0  0  0  0  0  0  0  0
    6.0594    5.4907    1.2516 H   0  0  0  0  0  0  0  0  0  0  0  0
   -0.0650    2.4253    0.7650 H   0  0  0  0  0  0  0  0  0  0  0  0
  1  2  3  0  0  0  0
  2  3  1  0  0  0  0
  3  4  1  0  0  0  0
  3 28  2  0  0  0  0
  4  5  2  0  0  0  0
  4 29  1  0  0  0  0
  5  6  1  0  0  0  0
  5 30  1  0  0  0  0
  6  7  2  0  0  0  0
  6 31  1  0  0  0  0
  7  8  1  0  0  0  0
  7 28  1  0  0  0  0
  8  9  1  0  0  0  0
  8 32  1  0  0  0  0
  9 10  2  0  0  0  0
  9 11  1  0  0  0  0
 11 12  1  0  0  0  0
 11 33  1  0  0  0  0
 12 13  1  0  0  0  0
 12 27  2  0  0  0  0
 13 14  2  0  0  0  0
 13 34  1  0  0  0  0
 14 15  1  0  0  0  0
 14 35  1  0  0  0  0
 15 16  1  0  0  0  0
 15 26  2  0  0  0  0
 16 17  1  0  0  0  0
 16 21  2  0  0  0  0
 17 18  2  0  0  0  0
 17 36  1  0  0  0  0
 18 19  1  0  0  0  0
 18 37  1  0  0  0  0
 19 20  2  0  0  0  0
 19 38  1  0  0  0  0
 20 21  1  0  0  0  0
 20 24  1  0  0  0  0
 21 22  1  0  0  0  0
 22 23  1  0  0  0  0
 22 39  1  0  0  0  0
 22 40  1  0  0  0  0
 23 24  1  0  0  0  0
 23 41  1  0  0  0  0
 24 25  2  0  0  0  0
 26 27  1  0  0  0  0
 26 42  1  0  0  0  0
 27 43  1  0  0  0  0
 28 44  1  0  0  0  0
M  END
$$$$
