CHEMBL3628811
 OpenBabel04072215373D

 50 54  0  0  0  0  0  0  0  0999 V2000
    1.1075   -0.1933    0.4948 O   0  0  0  0  0  0  0  0  0  0  0  0
    2.2377   -0.0032    0.0721 C   0  0  0  0  0  0  0  0  0  0  0  0
    2.8096    1.2512   -0.0978 N   0  0  0  0  0  0  0  0  0  0  0  0
    2.1384    2.4655    0.1777 C   0  0  0  0  0  0  0  0  0  0  0  0
    0.9905    2.5158    0.9668 C   0  0  0  0  0  0  0  0  0  0  0  0
    0.2849    3.7018    1.1249 C   0  0  0  0  0  0  0  0  0  0  0  0
    0.7708    4.8854    0.5760 C   0  0  0  0  0  0  0  0  0  0  0  0
    0.1239    6.0933    0.7406 O   0  0  0  0  0  0  0  0  0  0  0  0
   -0.4089    6.3518    2.0046 C   0  0  0  0  0  0  0  0  0  0  0  0
    0.1244    5.7159    3.0771 N   0  0  0  0  0  0  0  0  0  0  0  0
   -0.3932    5.9479    4.2838 C   0  0  0  0  0  0  0  0  0  0  0  0
   -1.3607    6.8089    4.5857 N   0  0  0  0  0  0  0  0  0  0  0  0
   -1.8331    7.4598    3.5081 C   0  0  0  0  0  0  0  0  0  0  0  0
   -3.0389    8.6472    3.6943 S   0  0  0  0  0  0  0  0  0  0  0  0
   -3.1064    8.9222    2.0212 C   0  0  0  0  0  0  0  0  0  0  0  0
   -2.2286    8.1215    1.3079 C   0  0  0  0  0  0  0  0  0  0  0  0
   -1.4410    7.2849    2.1860 C   0  0  0  0  0  0  0  0  0  0  0  0
   -2.1874    8.1650   -0.1949 C   0  0  0  0  0  0  0  0  0  0  0  0
   -2.8468    9.4392   -0.7503 C   0  0  0  0  0  0  0  0  0  0  0  0
   -4.1944    9.7198   -0.0704 C   0  0  0  0  0  0  0  0  0  0  0  0
   -4.0169    9.9578    1.4345 C   0  0  0  0  0  0  0  0  0  0  0  0
    1.9333    4.8575   -0.1960 C   0  0  0  0  0  0  0  0  0  0  0  0
    2.6217    3.6488   -0.3886 C   0  0  0  0  0  0  0  0  0  0  0  0
    3.0845   -1.0126   -0.3351 N   0  0  0  0  0  0  0  0  0  0  0  0
    2.7592   -2.3886   -0.3949 C   0  0  0  0  0  0  0  0  0  0  0  0
    1.5096   -2.9187   -0.0447 C   0  0  0  0  0  0  0  0  0  0  0  0
    1.2649   -4.2917   -0.1303 C   0  0  0  0  0  0  0  0  0  0  0  0
    2.2607   -5.1468   -0.5786 C   0  0  0  0  0  0  0  0  0  0  0  0
    3.5016   -4.6248   -0.9439 C   0  0  0  0  0  0  0  0  0  0  0  0
    4.8532   -5.7820   -1.5779 Br  0  0  0  0  0  0  0  0  0  0  0  0
    3.7527   -3.2551   -0.8520 C   0  0  0  0  0  0  0  0  0  0  0  0
    3.6348    1.3118   -0.6727 H   0  0  0  0  0  0  0  0  0  0  0  0
    0.6037    1.6476    1.4892 H   0  0  0  0  0  0  0  0  0  0  0  0
   -0.6232    3.6790    1.7201 H   0  0  0  0  0  0  0  0  0  0  0  0
    0.0241    5.3682    5.1008 H   0  0  0  0  0  0  0  0  0  0  0  0
   -2.7248    7.2884   -0.5799 H   0  0  0  0  0  0  0  0  0  0  0  0
   -1.1573    8.1093   -0.5601 H   0  0  0  0  0  0  0  0  0  0  0  0
   -2.9874    9.3390   -1.8322 H   0  0  0  0  0  0  0  0  0  0  0  0
   -2.1796   10.2959   -0.5904 H   0  0  0  0  0  0  0  0  0  0  0  0
   -4.8634    8.8653   -0.2313 H   0  0  0  0  0  0  0  0  0  0  0  0
   -4.6730   10.5935   -0.5274 H   0  0  0  0  0  0  0  0  0  0  0  0
   -4.9968    9.9537    1.9250 H   0  0  0  0  0  0  0  0  0  0  0  0
   -3.5721   10.9486    1.5948 H   0  0  0  0  0  0  0  0  0  0  0  0
    2.3111    5.7718   -0.6441 H   0  0  0  0  0  0  0  0  0  0  0  0
    3.5204    3.6503   -0.9993 H   0  0  0  0  0  0  0  0  0  0  0  0
    4.0256   -0.7554   -0.5782 H   0  0  0  0  0  0  0  0  0  0  0  0
    0.6909   -2.2990    0.3007 H   0  0  0  0  0  0  0  0  0  0  0  0
    0.2879   -4.6808    0.1553 H   0  0  0  0  0  0  0  0  0  0  0  0
    2.0649   -6.2151   -0.6435 H   0  0  0  0  0  0  0  0  0  0  0  0
    4.7250   -2.8708   -1.1471 H   0  0  0  0  0  0  0  0  0  0  0  0
  1  2  2  0  0  0  0
  2  3  1  0  0  0  0
  2 24  1  0  0  0  0
  3  4  1  0  0  0  0
  3 32  1  0  0  0  0
  4  5  1  0  0  0  0
  4 23  2  0  0  0  0
  5  6  2  0  0  0  0
  5 33  1  0  0  0  0
  6  7  1  0  0  0  0
  6 34  1  0  0  0  0
  7  8  1  0  0  0  0
  7 22  2  0  0  0  0
  8  9  1  0  0  0  0
  9 10  1  0  0  0  0
  9 17  2  0  0  0  0
 10 11  2  0  0  0  0
 11 12  1  0  0  0  0
 11 35  1  0  0  0  0
 12 13  2  0  0  0  0
 13 14  1  0  0  0  0
 13 17  1  0  0  0  0
 14 15  1  0  0  0  0
 15 16  2  0  0  0  0
 15 21  1  0  0  0  0
 16 17  1  0  0  0  0
 16 18  1  0  0  0  0
 18 19  1  0  0  0  0
 18 36  1  0  0  0  0
 18 37  1  0  0  0  0
 19 20  1  0  0  0  0
 19 38  1  0  0  0  0
 19 39  1  0  0  0  0
 20 21  1  0  0  0  0
 20 40  1  0  0  0  0
 20 41  1  0  0  0  0
 21 42  1  0  0  0  0
 21 43  1  0  0  0  0
 22 23  1  0  0  0  0
 22 44  1  0  0  0  0
 23 45  1  0  0  0  0
 24 25  1  0  0  0  0
 24 46  1  0  0  0  0
 25 26  1  0  0  0  0
 25 31  2  0  0  0  0
 26 27  2  0  0  0  0
 26 47  1  0  0  0  0
 27 28  1  0  0  0  0
 27 48  1  0  0  0  0
 28 29  2  0  0  0  0
 28 49  1  0  0  0  0
 29 30  1  0  0  0  0
 29 31  1  0  0  0  0
 31 50  1  0  0  0  0
M  END
$$$$
