CHEMBL317566
 OpenBabel04072215363D

 37 40  0  0  0  0  0  0  0  0999 V2000
    0.8005    0.0527   -0.5510 C   0  0  0  0  0  0  0  0  0  0  0  0
    1.9757   -0.0963   -1.3414 O   0  0  0  0  0  0  0  0  0  0  0  0
    2.8419    0.9655   -1.3502 C   0  0  0  0  0  0  0  0  0  0  0  0
    2.6305    2.1831   -0.7013 C   0  0  0  0  0  0  0  0  0  0  0  0
    3.5895    3.1896   -0.7767 C   0  0  0  0  0  0  0  0  0  0  0  0
    4.7680    2.9783   -1.4880 C   0  0  0  0  0  0  0  0  0  0  0  0
    5.0159    1.7526   -2.1239 C   0  0  0  0  0  0  0  0  0  0  0  0
    6.2831    1.5169   -2.8029 C   0  0  0  0  0  0  0  0  0  0  0  0
    6.5996    0.7173   -3.9218 C   0  0  0  0  0  0  0  0  0  0  0  0
    7.8936    0.7559   -4.2495 N   0  0  0  0  0  0  0  0  0  0  0  0
    8.4470    1.5839   -3.3301 N   0  0  0  0  0  0  0  0  0  0  0  0
    9.7793    1.9763   -3.2400 C   0  0  0  0  0  0  0  0  0  0  0  0
   10.1782    2.8097   -2.2659 C   0  0  0  0  0  0  0  0  0  0  0  0
   11.5515    3.2781   -2.1231 C   0  0  0  0  0  0  0  0  0  0  0  0
   11.9611    4.4572   -2.7462 C   0  0  0  0  0  0  0  0  0  0  0  0
   13.2754    4.8595   -2.5830 C   0  0  0  0  0  0  0  0  0  0  0  0
   14.1822    4.1762   -1.8530 N   0  0  0  0  0  0  0  0  0  0  0  0
   13.7603    3.0391   -1.2605 C   0  0  0  0  0  0  0  0  0  0  0  0
   12.4683    2.5530   -1.3630 C   0  0  0  0  0  0  0  0  0  0  0  0
    9.1004    3.2321   -1.3220 C   0  0  0  0  0  0  0  0  0  0  0  0
    7.8519    2.8868   -1.3811 N   0  0  0  0  0  0  0  0  0  0  0  0
    7.4989    2.0549   -2.4148 C   0  0  0  0  0  0  0  0  0  0  0  0
    4.0287    0.7600   -2.0682 C   0  0  0  0  0  0  0  0  0  0  0  0
    0.2520   -0.8933   -0.5779 H   0  0  0  0  0  0  0  0  0  0  0  0
    0.1491    0.8302   -0.9642 H   0  0  0  0  0  0  0  0  0  0  0  0
    1.0471    0.2606    0.4961 H   0  0  0  0  0  0  0  0  0  0  0  0
    1.7344    2.3817   -0.1244 H   0  0  0  0  0  0  0  0  0  0  0  0
    3.4303    4.1372   -0.2686 H   0  0  0  0  0  0  0  0  0  0  0  0
    5.4980    3.7821   -1.5275 H   0  0  0  0  0  0  0  0  0  0  0  0
    5.9338    0.1118   -4.5219 H   0  0  0  0  0  0  0  0  0  0  0  0
   10.4375    1.5748   -3.9991 H   0  0  0  0  0  0  0  0  0  0  0  0
   11.2811    5.0531   -3.3461 H   0  0  0  0  0  0  0  0  0  0  0  0
   13.6460    5.7681   -3.0493 H   0  0  0  0  0  0  0  0  0  0  0  0
   14.5135    2.5111   -0.6824 H   0  0  0  0  0  0  0  0  0  0  0  0
   12.1919    1.6321   -0.8600 H   0  0  0  0  0  0  0  0  0  0  0  0
    9.4195    3.9013   -0.5045 H   0  0  0  0  0  0  0  0  0  0  0  0
    4.1790   -0.2011   -2.5558 H   0  0  0  0  0  0  0  0  0  0  0  0
  1  2  1  0  0  0  0
  1 24  1  0  0  0  0
  1 25  1  0  0  0  0
  1 26  1  0  0  0  0
  2  3  1  0  0  0  0
  3  4  1  0  0  0  0
  3 23  2  0  0  0  0
  4  5  2  0  0  0  0
  4 27  1  0  0  0  0
  5  6  1  0  0  0  0
  5 28  1  0  0  0  0
  6  7  2  0  0  0  0
  6 29  1  0  0  0  0
  7  8  1  0  0  0  0
  7 23  1  0  0  0  0
  8  9  1  0  0  0  0
  8 22  2  0  0  0  0
  9 10  2  0  0  0  0
  9 30  1  0  0  0  0
 10 11  1  0  0  0  0
 11 12  1  0  0  0  0
 11 22  1  0  0  0  0
 12 13  2  0  0  0  0
 12 31  1  0  0  0  0
 13 14  1  0  0  0  0
 13 20  1  0  0  0  0
 14 15  1  0  0  0  0
 14 19  2  0  0  0  0
 15 16  2  0  0  0  0
 15 32  1  0  0  0  0
 16 17  1  0  0  0  0
 16 33  1  0  0  0  0
 17 18  2  0  0  0  0
 18 19  1  0  0  0  0
 18 34  1  0  0  0  0
 19 35  1  0  0  0  0
 20 21  2  0  0  0  0
 20 36  1  0  0  0  0
 21 22  1  0  0  0  0
 23 37  1  0  0  0  0
M  END
$$$$
