CHEMBL4166405
 OpenBabel04072215383D

 55 58  0  0  1  0  0  0  0  0999 V2000
    6.2987    5.5402    1.3434 C   0  0  0  0  0  0  0  0  0  0  0  0
    6.2244    4.4878    2.3030 O   0  0  0  0  0  0  0  0  0  0  0  0
    5.4098    3.3895    1.8574 C   0  0  0  0  0  0  0  0  0  0  0  0
    6.0249    2.6793    0.6677 C   0  0  0  0  0  0  0  0  0  0  0  0
    7.2618    2.0589    0.7888 C   0  0  0  0  0  0  0  0  0  0  0  0
    7.9690    1.7122   -0.3735 C   0  0  0  0  0  0  0  0  0  0  0  0
    7.4614    1.9970   -1.6538 C   0  0  0  0  0  0  0  0  0  0  0  0
    8.2270    1.7348   -2.9506 C   0  0  0  0  0  0  0  0  0  0  0  0
    7.5385    1.7833   -4.1635 C   0  0  0  0  0  0  0  0  0  0  0  0
    6.9521    0.5889   -4.5740 C   0  0  0  0  0  0  0  0  0  0  0  0
    5.6757    0.5385   -5.1328 C   0  0  0  0  0  0  0  0  0  0  0  0
    5.2197    1.3653   -6.1761 N   0  0  0  0  0  0  0  0  0  0  0  0
    6.0364    1.4415   -7.4353 C   0  0  1  0  0  0  0  0  0  0  0  0
    6.4004    0.0359   -7.9726 C   0  0  0  0  0  0  0  0  0  0  0  0
    5.3692    2.2031   -8.5794 C   0  0  0  0  0  0  0  0  0  0  0  0
    3.9841    2.3522   -8.8333 C   0  0  0  0  0  0  0  0  0  0  0  0
    3.8701    2.9825  -10.0454 C   0  0  0  0  0  0  0  0  0  0  0  0
    5.1485    3.2322  -10.4298 N   0  0  0  0  0  0  0  0  0  0  0  0
    5.5671    3.8693  -11.6539 C   0  0  0  0  0  0  0  0  0  0  0  0
    6.0715    2.7937   -9.5460 N   0  0  0  0  0  0  0  0  0  0  0  0
    4.8043   -0.2605   -4.3862 C   0  0  0  0  0  0  0  0  0  0  0  0
    3.3461   -0.0981   -4.4580 C   0  0  0  0  0  0  0  0  0  0  0  0
    2.6749    0.1350   -3.2953 N   0  0  0  0  0  0  0  0  0  0  0  0
    2.7706   -0.0557   -5.5328 O   0  0  0  0  0  0  0  0  0  0  0  0
    5.3409   -1.2484   -3.5748 C   0  0  0  0  0  0  0  0  0  0  0  0
    6.6662   -1.5218   -3.5149 N   0  0  0  0  0  0  0  0  0  0  0  0
    7.4743   -0.5574   -3.9647 C   0  0  0  0  0  0  0  0  0  0  0  0
    8.7852   -0.4988   -3.5489 C   0  0  0  0  0  0  0  0  0  0  0  0
    9.1501    0.6976   -2.9569 C   0  0  0  0  0  0  0  0  0  0  0  0
   10.2263    0.7263   -2.1600 F   0  0  0  0  0  0  0  0  0  0  0  0
    6.1444    2.4832   -1.6397 C   0  0  0  0  0  0  0  0  0  0  0  0
    5.4231    2.8285   -0.5348 N   0  0  0  0  0  0  0  0  0  0  0  0
    6.7905    6.3974    1.8119 H   0  0  0  0  0  0  0  0  0  0  0  0
    5.3003    5.8467    1.0175 H   0  0  0  0  0  0  0  0  0  0  0  0
    6.9028    5.2402    0.4812 H   0  0  0  0  0  0  0  0  0  0  0  0
    4.4027    3.7584    1.6279 H   0  0  0  0  0  0  0  0  0  0  0  0
    5.3149    2.6933    2.6981 H   0  0  0  0  0  0  0  0  0  0  0  0
    7.7091    1.9182    1.7697 H   0  0  0  0  0  0  0  0  0  0  0  0
    8.9418    1.2439   -0.2445 H   0  0  0  0  0  0  0  0  0  0  0  0
    7.7347    2.5713   -4.8837 H   0  0  0  0  0  0  0  0  0  0  0  0
    4.2801    1.0451   -6.4429 H   0  0  0  0  0  0  0  0  0  0  0  0
    6.9666    1.9709   -7.2040 H   0  0  0  0  0  0  0  0  0  0  0  0
    5.5068   -0.5288   -8.2636 H   0  0  0  0  0  0  0  0  0  0  0  0
    6.9557   -0.5643   -7.2470 H   0  0  0  0  0  0  0  0  0  0  0  0
    7.0357    0.1152   -8.8665 H   0  0  0  0  0  0  0  0  0  0  0  0
    3.1759    1.9552   -8.2491 H   0  0  0  0  0  0  0  0  0  0  0  0
    3.0018    3.2680  -10.6255 H   0  0  0  0  0  0  0  0  0  0  0  0
    4.6861    4.1648  -12.2272 H   0  0  0  0  0  0  0  0  0  0  0  0
    6.1638    3.1582  -12.2336 H   0  0  0  0  0  0  0  0  0  0  0  0
    6.1598    4.7515  -11.4022 H   0  0  0  0  0  0  0  0  0  0  0  0
    3.1435    0.4518   -2.4391 H   0  0  0  0  0  0  0  0  0  0  0  0
    1.7025    0.3806   -3.3699 H   0  0  0  0  0  0  0  0  0  0  0  0
    4.7165   -1.8583   -2.9299 H   0  0  0  0  0  0  0  0  0  0  0  0
    9.3885   -1.3833   -3.4000 H   0  0  0  0  0  0  0  0  0  0  0  0
    5.5836    2.6287   -2.5602 H   0  0  0  0  0  0  0  0  0  0  0  0
  1  2  1  0  0  0  0
  1 33  1  0  0  0  0
  1 34  1  0  0  0  0
  1 35  1  0  0  0  0
  2  3  1  0  0  0  0
  3  4  1  0  0  0  0
  3 36  1  0  0  0  0
  3 37  1  0  0  0  0
  4  5  1  0  0  0  0
  4 32  2  0  0  0  0
  5  6  2  0  0  0  0
  5 38  1  0  0  0  0
  6  7  1  0  0  0  0
  6 39  1  0  0  0  0
  7  8  1  0  0  0  0
  7 31  2  0  0  0  0
  8  9  1  0  0  0  0
  8 29  2  0  0  0  0
  9 10  2  0  0  0  0
  9 40  1  0  0  0  0
 10 11  1  0  0  0  0
 10 27  1  0  0  0  0
 11 12  1  0  0  0  0
 11 21  2  0  0  0  0
 12 13  1  0  0  0  0
 12 41  1  0  0  0  0
 13 14  1  0  0  0  0
 13 15  1  0  0  0  0
 13 42  1  1  0  0  0
 14 43  1  0  0  0  0
 14 44  1  0  0  0  0
 14 45  1  0  0  0  0
 15 16  1  0  0  0  0
 15 20  2  0  0  0  0
 16 17  2  0  0  0  0
 16 46  1  0  0  0  0
 17 18  1  0  0  0  0
 17 47  1  0  0  0  0
 18 19  1  0  0  0  0
 18 20  1  0  0  0  0
 19 48  1  0  0  0  0
 19 49  1  0  0  0  0
 19 50  1  0  0  0  0
 21 22  1  0  0  0  0
 21 25  1  0  0  0  0
 22 23  1  0  0  0  0
 22 24  2  0  0  0  0
 23 51  1  0  0  0  0
 23 52  1  0  0  0  0
 25 26  2  0  0  0  0
 25 53  1  0  0  0  0
 26 27  1  0  0  0  0
 27 28  2  0  0  0  0
 28 29  1  0  0  0  0
 28 54  1  0  0  0  0
 29 30  1  0  0  0  0
 31 32  1  0  0  0  0
 31 55  1  0  0  0  0
M  END
$$$$
