CHEMBL375447
 OpenBabel04072215373D

 50 53  0  0  0  0  0  0  0  0999 V2000
    2.4449    0.4175   -0.7016 C   0  0  0  0  0  0  0  0  0  0  0  0
    1.0058    0.2334   -0.3070 C   0  0  0  0  0  0  0  0  0  0  0  0
    0.2070    1.3837   -0.1905 C   0  0  0  0  0  0  0  0  0  0  0  0
   -1.1676    1.2818    0.0198 C   0  0  0  0  0  0  0  0  0  0  0  0
   -1.7695    0.0278    0.1351 C   0  0  0  0  0  0  0  0  0  0  0  0
   -3.2570   -0.0320    0.1931 C   0  0  0  0  0  0  0  0  0  0  0  0
   -3.8865    0.8505   -0.3802 O   0  0  0  0  0  0  0  0  0  0  0  0
   -3.7916   -1.0697    0.9367 N   0  0  0  0  0  0  0  0  0  0  0  0
   -5.1674   -1.3178    1.1394 C   0  0  0  0  0  0  0  0  0  0  0  0
   -6.1796   -0.7341    0.3742 C   0  0  0  0  0  0  0  0  0  0  0  0
   -7.5264   -0.9593    0.6778 C   0  0  0  0  0  0  0  0  0  0  0  0
   -7.8876   -1.7814    1.7531 C   0  0  0  0  0  0  0  0  0  0  0  0
   -9.3332   -1.9681    2.1406 C   0  0  0  0  0  0  0  0  0  0  0  0
  -10.2074   -1.2868    1.3481 F   0  0  0  0  0  0  0  0  0  0  0  0
   -9.7234   -3.2719    2.0922 F   0  0  0  0  0  0  0  0  0  0  0  0
   -9.5860   -1.5516    3.4138 F   0  0  0  0  0  0  0  0  0  0  0  0
   -6.8705   -2.4097    2.4866 C   0  0  0  0  0  0  0  0  0  0  0  0
   -5.5244   -2.1873    2.1756 C   0  0  0  0  0  0  0  0  0  0  0  0
   -0.9779   -1.1241    0.0965 C   0  0  0  0  0  0  0  0  0  0  0  0
    0.4110   -1.0233   -0.0875 C   0  0  0  0  0  0  0  0  0  0  0  0
    1.0554   -2.2372   -0.1988 O   0  0  0  0  0  0  0  0  0  0  0  0
    2.2258   -2.4681    0.5157 C   0  0  0  0  0  0  0  0  0  0  0  0
    2.5070   -1.6481    1.5643 N   0  0  0  0  0  0  0  0  0  0  0  0
    3.6828   -1.8276    2.1972 C   0  0  0  0  0  0  0  0  0  0  0  0
    4.5778   -2.8234    1.8689 C   0  0  0  0  0  0  0  0  0  0  0  0
    4.2353   -3.6954    0.8385 C   0  0  0  0  0  0  0  0  0  0  0  0
    3.0348   -3.5439    0.1150 C   0  0  0  0  0  0  0  0  0  0  0  0
    2.7144   -4.4955   -0.9742 C   0  0  0  0  0  0  0  0  0  0  0  0
    2.0034   -4.1696   -2.1162 C   0  0  0  0  0  0  0  0  0  0  0  0
    1.8104   -5.1737   -3.0404 C   0  0  0  0  0  0  0  0  0  0  0  0
    2.2809   -6.4218   -2.8930 N   0  0  0  0  0  0  0  0  0  0  0  0
    2.9669   -6.6452   -1.7671 C   0  0  0  0  0  0  0  0  0  0  0  0
    3.2086   -5.7466   -0.8003 N   0  0  0  0  0  0  0  0  0  0  0  0
    2.6189    1.4272   -1.0909 H   0  0  0  0  0  0  0  0  0  0  0  0
    2.7147   -0.2791   -1.5016 H   0  0  0  0  0  0  0  0  0  0  0  0
    3.1175    0.2920    0.1480 H   0  0  0  0  0  0  0  0  0  0  0  0
    0.6453    2.3726   -0.3064 H   0  0  0  0  0  0  0  0  0  0  0  0
   -1.7737    2.1863    0.0567 H   0  0  0  0  0  0  0  0  0  0  0  0
   -3.1526   -1.6013    1.5128 H   0  0  0  0  0  0  0  0  0  0  0  0
   -5.9527   -0.0913   -0.4721 H   0  0  0  0  0  0  0  0  0  0  0  0
   -8.2905   -0.4715    0.0741 H   0  0  0  0  0  0  0  0  0  0  0  0
   -7.1248   -3.0614    3.3218 H   0  0  0  0  0  0  0  0  0  0  0  0
   -4.7635   -2.6738    2.7806 H   0  0  0  0  0  0  0  0  0  0  0  0
   -1.4283   -2.1115    0.1430 H   0  0  0  0  0  0  0  0  0  0  0  0
    3.8992   -1.1159    2.9889 H   0  0  0  0  0  0  0  0  0  0  0  0
    5.5176   -2.9275    2.3996 H   0  0  0  0  0  0  0  0  0  0  0  0
    4.9235   -4.5018    0.5869 H   0  0  0  0  0  0  0  0  0  0  0  0
    1.6183   -3.1794   -2.3148 H   0  0  0  0  0  0  0  0  0  0  0  0
    1.2587   -4.9899   -3.9581 H   0  0  0  0  0  0  0  0  0  0  0  0
    3.3690   -7.6422   -1.6244 H   0  0  0  0  0  0  0  0  0  0  0  0
  1  2  1  0  0  0  0
  1 34  1  0  0  0  0
  1 35  1  0  0  0  0
  1 36  1  0  0  0  0
  2  3  1  0  0  0  0
  2 20  2  0  0  0  0
  3  4  2  0  0  0  0
  3 37  1  0  0  0  0
  4  5  1  0  0  0  0
  4 38  1  0  0  0  0
  5  6  1  0  0  0  0
  5 19  2  0  0  0  0
  6  7  2  0  0  0  0
  6  8  1  0  0  0  0
  8  9  1  0  0  0  0
  8 39  1  0  0  0  0
  9 10  1  0  0  0  0
  9 18  2  0  0  0  0
 10 11  2  0  0  0  0
 10 40  1  0  0  0  0
 11 12  1  0  0  0  0
 11 41  1  0  0  0  0
 12 13  1  0  0  0  0
 12 17  2  0  0  0  0
 13 14  1  0  0  0  0
 13 15  1  0  0  0  0
 13 16  1  0  0  0  0
 17 18  1  0  0  0  0
 17 42  1  0  0  0  0
 18 43  1  0  0  0  0
 19 20  1  0  0  0  0
 19 44  1  0  0  0  0
 20 21  1  0  0  0  0
 21 22  1  0  0  0  0
 22 23  1  0  0  0  0
 22 27  2  0  0  0  0
 23 24  2  0  0  0  0
 24 25  1  0  0  0  0
 24 45  1  0  0  0  0
 25 26  2  0  0  0  0
 25 46  1  0  0  0  0
 26 27  1  0  0  0  0
 26 47  1  0  0  0  0
 27 28  1  0  0  0  0
 28 29  1  0  0  0  0
 28 33  2  0  0  0  0
 29 30  2  0  0  0  0
 29 48  1  0  0  0  0
 30 31  1  0  0  0  0
 30 49  1  0  0  0  0
 31 32  2  0  0  0  0
 32 33  1  0  0  0  0
 32 50  1  0  0  0  0
M  END
$$$$
