CHEMBL255959
 OpenBabel04072215363D

 59 65  0  0  0  0  0  0  0  0999 V2000
    3.4385   -2.2181   -0.3653 C   0  0  0  0  0  0  0  0  0  0  0  0
    3.0929   -0.9218    0.3529 C   0  0  0  0  0  0  0  0  0  0  0  0
    3.5714   -0.8608    1.8135 C   0  0  0  0  0  0  0  0  0  0  0  0
    5.0136   -0.7303    1.9936 N   0  0  0  0  0  0  0  0  0  0  0  0
    5.7083    0.5019    1.9138 C   0  0  0  0  0  0  0  0  0  0  0  0
    5.2791    1.8384    1.7423 C   0  0  0  0  0  0  0  0  0  0  0  0
    6.2552    2.8552    1.5789 C   0  0  0  0  0  0  0  0  0  0  0  0
    7.6207    2.5633    1.6283 C   0  0  0  0  0  0  0  0  0  0  0  0
    8.7373    3.5087    1.3171 C   0  0  0  0  0  0  0  0  0  0  0  0
    9.7212    3.0020    0.7677 O   0  0  0  0  0  0  0  0  0  0  0  0
    8.6851    4.9151    1.6685 C   0  0  0  0  0  0  0  0  0  0  0  0
    7.9510    5.5938    2.6214 C   0  0  0  0  0  0  0  0  0  0  0  0
    8.2775    6.9843    2.6697 C   0  0  0  0  0  0  0  0  0  0  0  0
    9.2521    7.3229    1.7597 C   0  0  0  0  0  0  0  0  0  0  0  0
    9.7680    5.9776    0.8512 S   0  0  0  0  0  0  0  0  0  0  0  0
    8.0225    1.2431    1.8337 C   0  0  0  0  0  0  0  0  0  0  0  0
    7.0806    0.2104    1.9215 C   0  0  0  0  0  0  0  0  0  0  0  0
    7.1078   -1.1622    1.8922 C   0  0  0  0  0  0  0  0  0  0  0  0
    8.2186   -1.8824    1.4292 C   0  0  0  0  0  0  0  0  0  0  0  0
    7.9497   -3.1819    0.9791 C   0  0  0  0  0  0  0  0  0  0  0  0
    6.6949   -3.8059    1.1010 C   0  0  0  0  0  0  0  0  0  0  0  0
    5.8632   -3.2057    2.1072 C   0  0  0  0  0  0  0  0  0  0  0  0
    5.9158   -1.7928    2.0972 C   0  0  0  0  0  0  0  0  0  0  0  0
    5.8762   -4.0573    3.4495 C   0  0  0  0  0  0  0  0  0  0  0  0
    6.9289   -5.2436    3.4694 C   0  0  0  0  0  0  0  0  0  0  0  0
    6.7459   -5.9936    2.1976 C   0  0  0  0  0  0  0  0  0  0  0  0
    6.3564   -7.2583    2.0459 N   0  0  0  0  0  0  0  0  0  0  0  0
    5.9183   -7.2772    0.7609 N   0  0  0  0  0  0  0  0  0  0  0  0
    5.2621   -8.4554    0.2486 C   0  0  0  0  0  0  0  0  0  0  0  0
    5.9444   -6.0459    0.1514 C   0  0  0  0  0  0  0  0  0  0  0  0
    6.6358   -5.2415    1.0183 C   0  0  0  0  0  0  0  0  0  0  0  0
    9.2172   -3.7435    0.5405 C   0  0  0  0  0  0  0  0  0  0  0  0
    9.5391   -4.8467    0.1167 O   0  0  0  0  0  0  0  0  0  0  0  0
   10.1392   -2.7463    0.7755 N   0  0  0  0  0  0  0  0  0  0  0  0
    9.6210   -1.4951    1.2728 C   0  0  0  0  0  0  0  0  0  0  0  0
    3.0091   -2.2179   -1.3735 H   0  0  0  0  0  0  0  0  0  0  0  0
    3.0350   -3.0842    0.1686 H   0  0  0  0  0  0  0  0  0  0  0  0
    4.5186   -2.3394   -0.4727 H   0  0  0  0  0  0  0  0  0  0  0  0
    1.9995   -0.8187    0.3429 H   0  0  0  0  0  0  0  0  0  0  0  0
    3.4901   -0.0773   -0.2225 H   0  0  0  0  0  0  0  0  0  0  0  0
    3.2322   -1.7357    2.3777 H   0  0  0  0  0  0  0  0  0  0  0  0
    3.1167    0.0173    2.2883 H   0  0  0  0  0  0  0  0  0  0  0  0
    4.2246    2.0880    1.6657 H   0  0  0  0  0  0  0  0  0  0  0  0
    5.9185    3.8645    1.3622 H   0  0  0  0  0  0  0  0  0  0  0  0
    7.2359    5.1229    3.2842 H   0  0  0  0  0  0  0  0  0  0  0  0
    7.8328    7.6995    3.3504 H   0  0  0  0  0  0  0  0  0  0  0  0
    9.6982    8.2929    1.5866 H   0  0  0  0  0  0  0  0  0  0  0  0
    9.0827    1.0098    1.8606 H   0  0  0  0  0  0  0  0  0  0  0  0
    4.8752   -4.4813    3.5836 H   0  0  0  0  0  0  0  0  0  0  0  0
    6.0964   -3.3957    4.2950 H   0  0  0  0  0  0  0  0  0  0  0  0
    6.8220   -5.8828    4.3489 H   0  0  0  0  0  0  0  0  0  0  0  0
    7.9505   -4.8314    3.4894 H   0  0  0  0  0  0  0  0  0  0  0  0
    5.5002   -9.3100    0.8864 H   0  0  0  0  0  0  0  0  0  0  0  0
    5.6158   -8.6372   -0.7688 H   0  0  0  0  0  0  0  0  0  0  0  0
    4.1846   -8.2706    0.2532 H   0  0  0  0  0  0  0  0  0  0  0  0
    5.4303   -5.8555   -0.7800 H   0  0  0  0  0  0  0  0  0  0  0  0
   11.1173   -2.9344    0.6242 H   0  0  0  0  0  0  0  0  0  0  0  0
    9.7688   -0.7264    0.5127 H   0  0  0  0  0  0  0  0  0  0  0  0
   10.0999   -1.2468    2.2232 H   0  0  0  0  0  0  0  0  0  0  0  0
  1  2  1  0  0  0  0
  1 36  1  0  0  0  0
  1 37  1  0  0  0  0
  1 38  1  0  0  0  0
  2  3  1  0  0  0  0
  2 39  1  0  0  0  0
  2 40  1  0  0  0  0
  3  4  1  0  0  0  0
  3 41  1  0  0  0  0
  3 42  1  0  0  0  0
  4  5  1  0  0  0  0
  4 23  1  0  0  0  0
  5  6  1  0  0  0  0
  5 17  2  0  0  0  0
  6  7  2  0  0  0  0
  6 43  1  0  0  0  0
  7  8  1  0  0  0  0
  7 44  1  0  0  0  0
  8  9  1  0  0  0  0
  8 16  2  0  0  0  0
  9 10  2  0  0  0  0
  9 11  1  0  0  0  0
 11 12  2  0  0  0  0
 11 15  1  0  0  0  0
 12 13  1  0  0  0  0
 12 45  1  0  0  0  0
 13 14  2  0  0  0  0
 13 46  1  0  0  0  0
 14 15  1  0  0  0  0
 14 47  1  0  0  0  0
 16 17  1  0  0  0  0
 16 48  1  0  0  0  0
 17 18  1  0  0  0  0
 18 19  1  0  0  0  0
 18 23  2  0  0  0  0
 19 20  2  0  0  0  0
 19 35  1  0  0  0  0
 20 21  1  0  0  0  0
 20 32  1  0  0  0  0
 21 22  2  0  0  0  0
 21 31  1  0  0  0  0
 22 23  1  0  0  0  0
 22 24  1  0  0  0  0
 24 25  1  0  0  0  0
 24 49  1  0  0  0  0
 24 50  1  0  0  0  0
 25 26  1  0  0  0  0
 25 51  1  0  0  0  0
 25 52  1  0  0  0  0
 26 27  2  0  0  0  0
 26 31  1  0  0  0  0
 27 28  1  0  0  0  0
 28 29  1  0  0  0  0
 28 30  1  0  0  0  0
 29 53  1  0  0  0  0
 29 54  1  0  0  0  0
 29 55  1  0  0  0  0
 30 31  2  0  0  0  0
 30 56  1  0  0  0  0
 32 33  2  0  0  0  0
 32 34  1  0  0  0  0
 34 35  1  0  0  0  0
 34 57  1  0  0  0  0
 35 58  1  0  0  0  0
 35 59  1  0  0  0  0
M  END
$$$$
