CHEMBL1992073
 OpenBabel04072215363D

 49 53  0  0  1  0  0  0  0  0999 V2000
    3.0772    1.3337    0.7143 C   0  0  0  0  0  0  0  0  0  0  0  0
    2.5245    0.0328    0.1425 C   0  0  0  0  0  0  0  0  0  0  0  0
    2.9086   -0.2136   -1.3230 C   0  0  3  0  0  0  0  0  0  0  0  0
    2.3707    0.8527   -2.2753 C   0  0  0  0  0  0  0  0  0  0  0  0
    2.4285    0.2362   -3.6754 C   0  0  3  0  0  0  0  0  0  0  0  0
    3.5248    0.7990   -4.5261 N   0  0  0  0  0  0  0  0  0  0  0  0
    3.4231    2.4706   -4.8571 S   0  0  0  0  0  0  0  0  0  0  0  0
    2.1707    2.6736   -5.5434 O   0  0  0  0  0  0  0  0  0  0  0  0
    3.7739    3.2107   -3.6657 O   0  0  0  0  0  0  0  0  0  0  0  0
    4.7697    2.8217   -6.0264 C   0  0  0  0  0  0  0  0  0  0  0  0
    4.8377    4.2858   -6.3921 C   0  0  0  0  0  0  0  0  0  0  0  0
    4.3534    3.2768   -7.3974 C   0  0  0  0  0  0  0  0  0  0  0  0
    2.6880   -1.2690   -3.4574 C   0  0  0  0  0  0  0  0  0  0  0  0
    2.4419   -1.5353   -1.9612 C   0  0  3  0  0  0  0  0  0  0  0  0
    1.0057   -1.8644   -1.6773 C   0  0  0  0  0  0  0  0  0  0  0  0
   -0.0322   -1.4419   -2.3870 N   0  0  0  0  0  0  0  0  0  0  0  0
   -1.1553   -1.8500   -1.7076 C   0  0  0  0  0  0  0  0  0  0  0  0
   -0.8059   -2.5432   -0.5781 C   0  0  0  0  0  0  0  0  0  0  0  0
   -1.5542   -3.1545    0.4971 C   0  0  0  0  0  0  0  0  0  0  0  0
   -0.9852   -3.7933    1.4884 N   0  0  0  0  0  0  0  0  0  0  0  0
    0.3740   -3.8301    1.4133 C   0  0  0  0  0  0  0  0  0  0  0  0
    1.1701   -4.4355    2.3446 N   0  0  0  0  0  0  0  0  0  0  0  0
    2.4899   -4.2790    1.9834 C   0  0  0  0  0  0  0  0  0  0  0  0
    2.5407   -3.5644    0.8003 C   0  0  0  0  0  0  0  0  0  0  0  0
    1.2093   -3.2857    0.4594 C   0  0  0  0  0  0  0  0  0  0  0  0
    0.5729   -2.5934   -0.5889 N   0  0  0  0  0  0  0  0  0  0  0  0
    2.9779    1.3293    1.8046 H   0  0  0  0  0  0  0  0  0  0  0  0
    2.5267    2.2008    0.3363 H   0  0  0  0  0  0  0  0  0  0  0  0
    4.1370    1.4613    0.4735 H   0  0  0  0  0  0  0  0  0  0  0  0
    1.4360    0.0450    0.2679 H   0  0  0  0  0  0  0  0  0  0  0  0
    2.9150   -0.7866    0.7509 H   0  0  0  0  0  0  0  0  0  0  0  0
    4.0070   -0.1933   -1.3865 H   0  0  0  0  0  0  0  0  0  0  0  0
    2.9488    1.7639   -2.1469 H   0  0  0  0  0  0  0  0  0  0  0  0
    1.3291    1.1009   -2.0373 H   0  0  0  0  0  0  0  0  0  0  0  0
    1.4765    0.3677   -4.2054 H   0  0  0  0  0  0  0  0  0  0  0  0
    3.5462    0.3036   -5.4238 H   0  0  0  0  0  0  0  0  0  0  0  0
    5.7011    2.2967   -5.8792 H   0  0  0  0  0  0  0  0  0  0  0  0
    5.8187    4.7239   -6.5280 H   0  0  0  0  0  0  0  0  0  0  0  0
    4.1123    4.9661   -5.9580 H   0  0  0  0  0  0  0  0  0  0  0  0
    5.0056    3.0390   -8.2299 H   0  0  0  0  0  0  0  0  0  0  0  0
    3.3009    3.2951   -7.6614 H   0  0  0  0  0  0  0  0  0  0  0  0
    3.7298   -1.5204   -3.6981 H   0  0  0  0  0  0  0  0  0  0  0  0
    2.0589   -1.8851   -4.1110 H   0  0  0  0  0  0  0  0  0  0  0  0
    3.0788   -2.3690   -1.6555 H   0  0  0  0  0  0  0  0  0  0  0  0
   -2.1461   -1.6058   -2.0684 H   0  0  0  0  0  0  0  0  0  0  0  0
   -2.6545   -3.0745    0.4848 H   0  0  0  0  0  0  0  0  0  0  0  0
    0.8258   -4.9129    3.1665 H   0  0  0  0  0  0  0  0  0  0  0  0
    3.2777   -4.6873    2.6027 H   0  0  0  0  0  0  0  0  0  0  0  0
    3.4520   -3.2869    0.2895 H   0  0  0  0  0  0  0  0  0  0  0  0
  1  2  1  0  0  0  0
  1 27  1  0  0  0  0
  1 28  1  0  0  0  0
  1 29  1  0  0  0  0
  2  3  1  0  0  0  0
  2 30  1  0  0  0  0
  2 31  1  0  0  0  0
  3  4  1  0  0  0  0
  3 14  1  0  0  0  0
  3 32  1  0  0  0  0
  4  5  1  0  0  0  0
  4 33  1  0  0  0  0
  4 34  1  0  0  0  0
  5  6  1  0  0  0  0
  5 13  1  0  0  0  0
  5 35  1  0  0  0  0
  6  7  1  0  0  0  0
  6 36  1  0  0  0  0
  7  8  2  0  0  0  0
  7  9  2  0  0  0  0
  7 10  1  0  0  0  0
 10 11  1  0  0  0  0
 10 12  1  0  0  0  0
 10 37  1  0  0  0  0
 11 12  1  0  0  0  0
 11 38  1  0  0  0  0
 11 39  1  0  0  0  0
 12 40  1  0  0  0  0
 12 41  1  0  0  0  0
 13 14  1  0  0  0  0
 13 42  1  0  0  0  0
 13 43  1  0  0  0  0
 14 15  1  0  0  0  0
 14 44  1  0  0  0  0
 15 16  2  0  0  0  0
 15 26  1  0  0  0  0
 16 17  1  0  0  0  0
 17 18  2  0  0  0  0
 17 45  1  0  0  0  0
 18 19  1  0  0  0  0
 18 26  1  0  0  0  0
 19 20  2  0  0  0  0
 19 46  1  0  0  0  0
 20 21  1  0  0  0  0
 21 22  1  0  0  0  0
 21 25  2  0  0  0  0
 22 23  1  0  0  0  0
 22 47  1  0  0  0  0
 23 24  2  0  0  0  0
 23 48  1  0  0  0  0
 24 25  1  0  0  0  0
 24 49  1  0  0  0  0
 25 26  1  0  0  0  0
M  END
$$$$
