CHEMBL245574
 OpenBabel04072215363D

 42 45  0  0  0  0  0  0  0  0999 V2000
    1.6750   -2.3510    0.0149 C   0  0  0  0  0  0  0  0  0  0  0  0
    2.7371   -2.6154    0.9251 O   0  0  0  0  0  0  0  0  0  0  0  0
    3.2961   -1.5277    1.5471 C   0  0  0  0  0  0  0  0  0  0  0  0
    2.9355   -0.1960    1.3126 C   0  0  0  0  0  0  0  0  0  0  0  0
    3.5579    0.8518    2.0021 C   0  0  0  0  0  0  0  0  0  0  0  0
    4.5582    0.5448    2.9300 C   0  0  0  0  0  0  0  0  0  0  0  0
    5.2955    1.3885    3.7146 N   0  0  0  0  0  0  0  0  0  0  0  0
    6.1174    0.6126    4.3908 C   0  0  0  0  0  0  0  0  0  0  0  0
    7.1496    1.0838    5.3635 C   0  0  0  0  0  0  0  0  0  0  0  0
    8.0089    0.2203    5.9298 N   0  0  0  0  0  0  0  0  0  0  0  0
    8.7799    1.0035    6.7041 N   0  0  0  0  0  0  0  0  0  0  0  0
    8.4384    2.3238    6.6681 C   0  0  0  0  0  0  0  0  0  0  0  0
    7.3640    2.4194    5.8122 C   0  0  0  0  0  0  0  0  0  0  0  0
    6.6143    3.5965    5.5023 C   0  0  0  0  0  0  0  0  0  0  0  0
    6.8269    4.8313    5.9847 C   0  0  0  0  0  0  0  0  0  0  0  0
    5.8937    5.9263    5.6989 C   0  0  0  0  0  0  0  0  0  0  0  0
    4.8177    6.1272    6.5664 C   0  0  0  0  0  0  0  0  0  0  0  0
    3.8906    7.1037    6.4321 N   0  0  0  0  0  0  0  0  0  0  0  0
    4.0368    7.9207    5.3710 C   0  0  0  0  0  0  0  0  0  0  0  0
    5.0593    7.8031    4.4412 C   0  0  0  0  0  0  0  0  0  0  0  0
    6.0083    6.7814    4.5931 C   0  0  0  0  0  0  0  0  0  0  0  0
    7.1122    6.6421    3.5849 C   0  0  0  0  0  0  0  0  0  0  0  0
    5.9175   -0.7094    4.0766 N   0  0  0  0  0  0  0  0  0  0  0  0
    4.9150   -0.7799    3.1424 C   0  0  0  0  0  0  0  0  0  0  0  0
    4.3034   -1.8447    2.4742 C   0  0  0  0  0  0  0  0  0  0  0  0
    1.3247   -3.3080   -0.3825 H   0  0  0  0  0  0  0  0  0  0  0  0
    2.0217   -1.7474   -0.8307 H   0  0  0  0  0  0  0  0  0  0  0  0
    0.8305   -1.8721    0.5224 H   0  0  0  0  0  0  0  0  0  0  0  0
    2.1681    0.0715    0.5937 H   0  0  0  0  0  0  0  0  0  0  0  0
    3.2801    1.8847    1.8248 H   0  0  0  0  0  0  0  0  0  0  0  0
    9.5220    0.5675    7.2422 H   0  0  0  0  0  0  0  0  0  0  0  0
    8.9732    3.0537    7.2581 H   0  0  0  0  0  0  0  0  0  0  0  0
    5.7605    3.4621    4.8379 H   0  0  0  0  0  0  0  0  0  0  0  0
    7.6406    5.0642    6.6629 H   0  0  0  0  0  0  0  0  0  0  0  0
    4.6660    5.4800    7.4270 H   0  0  0  0  0  0  0  0  0  0  0  0
    3.2853    8.6998    5.2801 H   0  0  0  0  0  0  0  0  0  0  0  0
    5.1084    8.4998    3.6105 H   0  0  0  0  0  0  0  0  0  0  0  0
    6.9810    7.3419    2.7519 H   0  0  0  0  0  0  0  0  0  0  0  0
    7.1207    5.6339    3.1590 H   0  0  0  0  0  0  0  0  0  0  0  0
    8.0803    6.8539    4.0488 H   0  0  0  0  0  0  0  0  0  0  0  0
    6.4409   -1.4709    4.4798 H   0  0  0  0  0  0  0  0  0  0  0  0
    4.5886   -2.8752    2.6566 H   0  0  0  0  0  0  0  0  0  0  0  0
  1  2  1  0  0  0  0
  1 26  1  0  0  0  0
  1 27  1  0  0  0  0
  1 28  1  0  0  0  0
  2  3  1  0  0  0  0
  3  4  1  0  0  0  0
  3 25  2  0  0  0  0
  4  5  2  0  0  0  0
  4 29  1  0  0  0  0
  5  6  1  0  0  0  0
  5 30  1  0  0  0  0
  6  7  1  0  0  0  0
  6 24  2  0  0  0  0
  7  8  2  0  0  0  0
  8  9  1  0  0  0  0
  8 23  1  0  0  0  0
  9 10  2  0  0  0  0
  9 13  1  0  0  0  0
 10 11  1  0  0  0  0
 11 12  1  0  0  0  0
 11 31  1  0  0  0  0
 12 13  2  0  0  0  0
 12 32  1  0  0  0  0
 13 14  1  0  0  0  0
 14 15  2  0  0  0  0
 14 33  1  0  0  0  0
 15 16  1  0  0  0  0
 15 34  1  0  0  0  0
 16 17  1  0  0  0  0
 16 21  2  0  0  0  0
 17 18  2  0  0  0  0
 17 35  1  0  0  0  0
 18 19  1  0  0  0  0
 19 20  2  0  0  0  0
 19 36  1  0  0  0  0
 20 21  1  0  0  0  0
 20 37  1  0  0  0  0
 21 22  1  0  0  0  0
 22 38  1  0  0  0  0
 22 39  1  0  0  0  0
 22 40  1  0  0  0  0
 23 24  1  0  0  0  0
 23 41  1  0  0  0  0
 24 25  1  0  0  0  0
 25 42  1  0  0  0  0
M  END
$$$$
