CHEMBL3975447
 OpenBabel04072215373D

 69 72  0  0  1  0  0  0  0  0999 V2000
    1.4210   -4.7385   -2.3265 C   0  0  0  0  0  0  0  0  0  0  0  0
    2.6976   -4.7772   -1.7903 O   0  0  0  0  0  0  0  0  0  0  0  0
    3.2674   -3.7718   -1.0801 C   0  0  0  0  0  0  0  0  0  0  0  0
    2.5457   -2.6107   -0.7590 C   0  0  0  0  0  0  0  0  0  0  0  0
    3.1236   -1.5883   -0.0115 C   0  0  0  0  0  0  0  0  0  0  0  0
    2.4312   -0.4712    0.3434 O   0  0  0  0  0  0  0  0  0  0  0  0
    1.0556   -0.3131    0.2877 C   0  0  0  0  0  0  0  0  0  0  0  0
    4.4577   -1.7244    0.3943 C   0  0  0  0  0  0  0  0  0  0  0  0
    5.2431   -2.8869    0.0847 C   0  0  0  0  0  0  0  0  0  0  0  0
    6.6120   -3.0148    0.5738 N   0  0  0  0  0  0  0  0  0  0  0  0
    7.0696   -1.9572    1.5489 C   0  0  0  0  0  0  0  0  0  0  0  0
    8.5795   -1.8445    2.0004 C   0  0  0  0  0  0  0  0  0  0  0  0
    9.5782   -1.6162    0.8450 C   0  0  0  0  0  0  0  0  0  0  0  0
   10.9709   -1.6713    1.3293 N   0  0  0  0  0  0  0  0  0  0  0  0
   11.3453   -0.6718    2.3477 C   0  0  0  0  0  0  0  0  0  0  0  0
   12.7265   -0.1447    1.9526 C   0  0  0  0  0  0  0  0  0  0  0  0
   13.2517   -1.2189    1.0259 C   0  0  3  0  0  0  0  0  0  0  0  0
   13.6642   -2.3171    1.7638 F   0  0  0  0  0  0  0  0  0  0  0  0
   11.9810   -1.5675    0.2717 C   0  0  0  0  0  0  0  0  0  0  0  0
    7.5361   -4.1154    0.3049 C   0  0  0  0  0  0  0  0  0  0  0  0
    8.1577   -4.5845    1.4557 C   0  0  0  0  0  0  0  0  0  0  0  0
    9.3915   -5.1359    1.4128 C   0  0  0  0  0  0  0  0  0  0  0  0
    9.9799   -5.3948    0.2129 C   0  0  0  0  0  0  0  0  0  0  0  0
   11.2834   -5.6839    0.2595 N   0  0  0  0  0  0  0  0  0  0  0  0
   11.9477   -6.0802   -0.8145 C   0  0  0  0  0  0  0  0  0  0  0  0
   11.2279   -6.4504   -1.9489 C   0  0  0  0  0  0  0  0  0  0  0  0
   11.8558   -7.6753   -2.6181 C   0  0  0  0  0  0  0  0  0  0  0  0
   12.9820   -8.3349   -2.0790 C   0  0  0  0  0  0  0  0  0  0  0  0
   13.1559   -9.5168   -2.6629 N   0  0  0  0  0  0  0  0  0  0  0  0
   12.2071   -9.6639   -3.5615 N   0  0  0  0  0  0  0  0  0  0  0  0
   12.0541  -10.9323   -4.2510 C   0  0  0  0  0  0  0  0  0  0  0  0
   11.4138   -8.5592   -3.6086 C   0  0  0  0  0  0  0  0  0  0  0  0
    9.9111   -5.9629   -2.0881 N   0  0  0  0  0  0  0  0  0  0  0  0
    9.2901   -5.3354   -1.0024 C   0  0  0  0  0  0  0  0  0  0  0  0
    8.0213   -4.6059   -0.9837 C   0  0  0  0  0  0  0  0  0  0  0  0
    4.6081   -3.9053   -0.6517 C   0  0  0  0  0  0  0  0  0  0  0  0
    1.4984    2.3437   -1.7884 Cl  0  0  0  0  0  0  0  0  0  0  0  0
    1.2118   -5.6910   -2.8511 H   0  0  0  0  0  0  0  0  0  0  0  0
    1.3417   -3.9037   -3.0565 H   0  0  0  0  0  0  0  0  0  0  0  0
    0.6593   -4.6029   -1.5265 H   0  0  0  0  0  0  0  0  0  0  0  0
    1.5184   -2.5054   -1.0744 H   0  0  0  0  0  0  0  0  0  0  0  0
    0.7786    0.7206    0.5930 H   0  0  0  0  0  0  0  0  0  0  0  0
    0.5771   -1.0122    1.0011 H   0  0  0  0  0  0  0  0  0  0  0  0
    0.6598   -0.4749   -0.7358 H   0  0  0  0  0  0  0  0  0  0  0  0
    4.8367   -0.8953    0.9698 H   0  0  0  0  0  0  0  0  0  0  0  0
    6.4561   -2.0501    2.4764 H   0  0  0  0  0  0  0  0  0  0  0  0
    6.9071   -0.9589    1.1060 H   0  0  0  0  0  0  0  0  0  0  0  0
    8.9471   -2.6703    2.6331 H   0  0  0  0  0  0  0  0  0  0  0  0
    8.6488   -0.9897    2.7038 H   0  0  0  0  0  0  0  0  0  0  0  0
    9.3611   -0.6503    0.3444 H   0  0  0  0  0  0  0  0  0  0  0  0
    9.4643   -2.4203    0.0937 H   0  0  0  0  0  0  0  0  0  0  0  0
   11.4014   -1.2071    3.3190 H   0  0  0  0  0  0  0  0  0  0  0  0
   10.6334    0.1790    2.4317 H   0  0  0  0  0  0  0  0  0  0  0  0
   13.3851    0.1180    2.8093 H   0  0  0  0  0  0  0  0  0  0  0  0
   12.5781    0.7661    1.3311 H   0  0  0  0  0  0  0  0  0  0  0  0
   14.0907   -0.8795    0.3797 H   0  0  0  0  0  0  0  0  0  0  0  0
   12.0829   -2.5077   -0.3124 H   0  0  0  0  0  0  0  0  0  0  0  0
   11.7212   -0.7316   -0.4201 H   0  0  0  0  0  0  0  0  0  0  0  0
    7.7632   -4.3492    2.4314 H   0  0  0  0  0  0  0  0  0  0  0  0
    9.9359   -5.3042    2.3314 H   0  0  0  0  0  0  0  0  0  0  0  0
   12.9791   -6.2925   -0.6402 H   0  0  0  0  0  0  0  0  0  0  0  0
   13.6048   -8.0770   -1.2378 H   0  0  0  0  0  0  0  0  0  0  0  0
   12.7676  -11.6725   -3.8113 H   0  0  0  0  0  0  0  0  0  0  0  0
   12.2636  -10.8239   -5.3268 H   0  0  0  0  0  0  0  0  0  0  0  0
   11.0343  -11.3220   -4.0595 H   0  0  0  0  0  0  0  0  0  0  0  0
   10.5368   -8.4631   -4.2295 H   0  0  0  0  0  0  0  0  0  0  0  0
    7.5224   -4.3394   -1.9129 H   0  0  0  0  0  0  0  0  0  0  0  0
    5.1415   -4.8138   -0.8838 H   0  0  0  0  0  0  0  0  0  0  0  0
    2.1364    2.2801   -0.5700 H   0  0  0  0  0  0  0  0  0  0  0  0
  1  2  1  0  0  0  0
  1 38  1  0  0  0  0
  1 39  1  0  0  0  0
  1 40  1  0  0  0  0
  2  3  1  0  0  0  0
  3  4  1  0  0  0  0
  3 36  2  0  0  0  0
  4  5  2  0  0  0  0
  4 41  1  0  0  0  0
  5  6  1  0  0  0  0
  5  8  1  0  0  0  0
  6  7  1  0  0  0  0
  7 42  1  0  0  0  0
  7 43  1  0  0  0  0
  7 44  1  0  0  0  0
  8  9  2  0  0  0  0
  8 45  1  0  0  0  0
  9 10  1  0  0  0  0
  9 36  1  0  0  0  0
 10 11  1  0  0  0  0
 10 20  1  0  0  0  0
 11 12  1  0  0  0  0
 11 46  1  0  0  0  0
 11 47  1  0  0  0  0
 12 13  1  0  0  0  0
 12 48  1  0  0  0  0
 12 49  1  0  0  0  0
 13 14  1  0  0  0  0
 13 50  1  0  0  0  0
 13 51  1  0  0  0  0
 14 15  1  0  0  0  0
 14 19  1  0  0  0  0
 15 16  1  0  0  0  0
 15 52  1  0  0  0  0
 15 53  1  0  0  0  0
 16 17  1  0  0  0  0
 16 54  1  0  0  0  0
 16 55  1  0  0  0  0
 17 18  1  0  0  0  0
 17 19  1  0  0  0  0
 17 56  1  0  0  0  0
 19 57  1  0  0  0  0
 19 58  1  0  0  0  0
 20 21  1  0  0  0  0
 20 35  2  0  0  0  0
 21 22  2  0  0  0  0
 21 59  1  0  0  0  0
 22 23  1  0  0  0  0
 22 60  1  0  0  0  0
 23 24  1  0  0  0  0
 23 34  2  0  0  0  0
 24 25  2  0  0  0  0
 25 26  1  0  0  0  0
 25 61  1  0  0  0  0
 26 27  1  0  0  0  0
 26 33  2  0  0  0  0
 27 28  1  0  0  0  0
 27 32  2  0  0  0  0
 28 29  2  0  0  0  0
 28 62  1  0  0  0  0
 29 30  1  0  0  0  0
 30 31  1  0  0  0  0
 30 32  1  0  0  0  0
 31 63  1  0  0  0  0
 31 64  1  0  0  0  0
 31 65  1  0  0  0  0
 32 66  1  0  0  0  0
 33 34  1  0  0  0  0
 34 35  1  0  0  0  0
 35 67  1  0  0  0  0
 36 68  1  0  0  0  0
 37 69  1  0  0  0  0
M  END
$$$$
