CHEMBL4800071
 OpenBabel04072215383D

 50 53  0  0  0  0  0  0  0  0999 V2000
    4.2960    6.6260   -2.6620 C   0  0  0  0  0  0  0  0  0  0  0  0
    4.6008    7.3223   -1.4501 O   0  0  0  0  0  0  0  0  0  0  0  0
    4.7038    6.5338   -0.3330 C   0  0  0  0  0  0  0  0  0  0  0  0
    5.1393    5.1992   -0.4268 C   0  0  0  0  0  0  0  0  0  0  0  0
    5.1878    4.3466    0.6636 C   0  0  0  0  0  0  0  0  0  0  0  0
    5.5284    3.0724    0.4533 N   0  0  0  0  0  0  0  0  0  0  0  0
    5.4955    2.2639    1.5142 C   0  0  0  0  0  0  0  0  0  0  0  0
    5.1614    2.6174    2.7546 N   0  0  0  0  0  0  0  0  0  0  0  0
    4.8337    3.9086    2.9596 C   0  0  0  0  0  0  0  0  0  0  0  0
    4.4222    4.3064    4.2597 N   0  0  0  0  0  0  0  0  0  0  0  0
    3.9847    3.4263    5.2702 C   0  0  0  0  0  0  0  0  0  0  0  0
    4.2897    3.6770    6.6080 C   0  0  0  0  0  0  0  0  0  0  0  0
    3.9321    2.7604    7.6053 C   0  0  0  0  0  0  0  0  0  0  0  0
    3.2501    1.5833    7.2881 C   0  0  0  0  0  0  0  0  0  0  0  0
    2.9829    0.5495    8.2142 N   0  0  0  0  0  0  0  0  0  0  0  0
    3.4047    0.5045    9.5324 C   0  0  0  0  0  0  0  0  0  0  0  0
    3.9712    1.3963   10.1518 O   0  0  0  0  0  0  0  0  0  0  0  0
    3.1933   -0.7886   10.2378 C   0  0  0  0  0  0  0  0  0  0  0  0
    2.0687   -1.5971   10.0189 C   0  0  0  0  0  0  0  0  0  0  0  0
    1.9297   -2.7981   10.7220 C   0  0  0  0  0  0  0  0  0  0  0  0
    2.9057   -3.1879   11.6400 C   0  0  0  0  0  0  0  0  0  0  0  0
    4.0106   -2.3726   11.8580 C   0  0  0  0  0  0  0  0  0  0  0  0
    4.9411   -2.7460   12.7453 F   0  0  0  0  0  0  0  0  0  0  0  0
    4.1618   -1.1774   11.1716 C   0  0  0  0  0  0  0  0  0  0  0  0
    2.8458    1.3842    5.9667 C   0  0  0  0  0  0  0  0  0  0  0  0
    3.2003    2.3033    4.9751 C   0  0  0  0  0  0  0  0  0  0  0  0
    4.8429    4.8489    1.9183 C   0  0  0  0  0  0  0  0  0  0  0  0
    4.4857    6.2112    2.0411 C   0  0  0  0  0  0  0  0  0  0  0  0
    4.3948    7.0560    0.9268 C   0  0  0  0  0  0  0  0  0  0  0  0
    3.9648    8.3005    1.2843 O   0  0  0  0  0  0  0  0  0  0  0  0
    3.6275    9.2684    0.3067 C   0  0  0  0  0  0  0  0  0  0  0  0
    3.8796    7.3437   -3.3741 H   0  0  0  0  0  0  0  0  0  0  0  0
    3.5444    5.8410   -2.5103 H   0  0  0  0  0  0  0  0  0  0  0  0
    5.2084    6.2082   -3.1006 H   0  0  0  0  0  0  0  0  0  0  0  0
    5.4350    4.7755   -1.3828 H   0  0  0  0  0  0  0  0  0  0  0  0
    5.7498    1.2228    1.3526 H   0  0  0  0  0  0  0  0  0  0  0  0
    5.0400    5.0343    4.6065 H   0  0  0  0  0  0  0  0  0  0  0  0
    4.8475    4.5637    6.8958 H   0  0  0  0  0  0  0  0  0  0  0  0
    4.2350    2.9880    8.6220 H   0  0  0  0  0  0  0  0  0  0  0  0
    2.5675   -0.2857    7.8219 H   0  0  0  0  0  0  0  0  0  0  0  0
    1.2811   -1.2931    9.3352 H   0  0  0  0  0  0  0  0  0  0  0  0
    1.0553   -3.4254   10.5650 H   0  0  0  0  0  0  0  0  0  0  0  0
    2.8101   -4.1160   12.1955 H   0  0  0  0  0  0  0  0  0  0  0  0
    5.0327   -0.5559   11.3640 H   0  0  0  0  0  0  0  0  0  0  0  0
    2.2808    0.5048    5.6732 H   0  0  0  0  0  0  0  0  0  0  0  0
    2.8833    2.1193    3.9518 H   0  0  0  0  0  0  0  0  0  0  0  0
    4.2246    6.6185    3.0163 H   0  0  0  0  0  0  0  0  0  0  0  0
    2.9041    9.9485    0.7706 H   0  0  0  0  0  0  0  0  0  0  0  0
    3.1326    8.8576   -0.5747 H   0  0  0  0  0  0  0  0  0  0  0  0
    4.5114    9.8555    0.0427 H   0  0  0  0  0  0  0  0  0  0  0  0
  1  2  1  0  0  0  0
  1 32  1  0  0  0  0
  1 33  1  0  0  0  0
  1 34  1  0  0  0  0
  2  3  1  0  0  0  0
  3  4  1  0  0  0  0
  3 29  2  0  0  0  0
  4  5  2  0  0  0  0
  4 35  1  0  0  0  0
  5  6  1  0  0  0  0
  5 27  1  0  0  0  0
  6  7  2  0  0  0  0
  7  8  1  0  0  0  0
  7 36  1  0  0  0  0
  8  9  2  0  0  0  0
  9 10  1  0  0  0  0
  9 27  1  0  0  0  0
 10 11  1  0  0  0  0
 10 37  1  0  0  0  0
 11 12  1  0  0  0  0
 11 26  2  0  0  0  0
 12 13  2  0  0  0  0
 12 38  1  0  0  0  0
 13 14  1  0  0  0  0
 13 39  1  0  0  0  0
 14 15  1  0  0  0  0
 14 25  2  0  0  0  0
 15 16  1  0  0  0  0
 15 40  1  0  0  0  0
 16 17  2  0  0  0  0
 16 18  1  0  0  0  0
 18 19  1  0  0  0  0
 18 24  2  0  0  0  0
 19 20  2  0  0  0  0
 19 41  1  0  0  0  0
 20 21  1  0  0  0  0
 20 42  1  0  0  0  0
 21 22  2  0  0  0  0
 21 43  1  0  0  0  0
 22 23  1  0  0  0  0
 22 24  1  0  0  0  0
 24 44  1  0  0  0  0
 25 26  1  0  0  0  0
 25 45  1  0  0  0  0
 26 46  1  0  0  0  0
 27 28  2  0  0  0  0
 28 29  1  0  0  0  0
 28 47  1  0  0  0  0
 29 30  1  0  0  0  0
 30 31  1  0  0  0  0
 31 48  1  0  0  0  0
 31 49  1  0  0  0  0
 31 50  1  0  0  0  0
M  END
$$$$
