CHEMBL3622961
 OpenBabel04072215363D

 51 55  0  0  0  0  0  0  0  0999 V2000
    2.1904   -1.5280   -1.5257 C   0  0  0  0  0  0  0  0  0  0  0  0
    2.7170   -0.2714   -0.9296 C   0  0  0  0  0  0  0  0  0  0  0  0
    4.0147    0.0478   -1.0537 N   0  0  0  0  0  0  0  0  0  0  0  0
    4.1557    1.1607   -0.2887 N   0  0  0  0  0  0  0  0  0  0  0  0
    5.3726    1.9073   -0.2133 C   0  0  0  0  0  0  0  0  0  0  0  0
    6.4088    1.5900   -1.0558 C   0  0  0  0  0  0  0  0  0  0  0  0
    7.5295    2.3848   -0.9421 C   0  0  0  0  0  0  0  0  0  0  0  0
    7.6318    3.3918   -0.0518 N   0  0  0  0  0  0  0  0  0  0  0  0
    6.5582    3.6589    0.7116 C   0  0  0  0  0  0  0  0  0  0  0  0
    6.6850    4.7321    1.5960 N   0  0  0  0  0  0  0  0  0  0  0  0
    5.7233    5.5652    2.1915 C   0  0  0  0  0  0  0  0  0  0  0  0
    6.1266    6.4804    3.1774 C   0  0  0  0  0  0  0  0  0  0  0  0
    5.2184    7.3062    3.8651 C   0  0  0  0  0  0  0  0  0  0  0  0
    3.8641    7.1910    3.5329 C   0  0  0  0  0  0  0  0  0  0  0  0
    3.4227    6.3142    2.5442 C   0  0  0  0  0  0  0  0  0  0  0  0
    4.3534    5.4795    1.8920 C   0  0  0  0  0  0  0  0  0  0  0  0
    2.0420    6.5847    2.4432 C   0  0  0  0  0  0  0  0  0  0  0  0
    0.9639    6.0201    1.2851 Cl  0  0  0  0  0  0  0  0  0  0  0  0
    1.6082    7.4606    3.3430 N   0  0  0  0  0  0  0  0  0  0  0  0
    2.7277    7.8197    3.9857 N   0  0  0  0  0  0  0  0  0  0  0  0
    2.6174    8.8346    5.0035 C   0  0  0  0  0  0  0  0  0  0  0  0
    5.4331    2.9374    0.6607 N   0  0  0  0  0  0  0  0  0  0  0  0
    2.9883    1.4605    0.3769 C   0  0  0  0  0  0  0  0  0  0  0  0
    1.9857    0.6683   -0.1516 C   0  0  0  0  0  0  0  0  0  0  0  0
    0.5111    0.6646    0.1238 C   0  0  0  0  0  0  0  0  0  0  0  0
   -0.1678    1.8851   -0.3573 N   0  0  0  0  0  0  0  0  0  0  0  0
    0.2165    3.1276    0.3489 C   0  0  0  0  0  0  0  0  0  0  0  0
   -0.8233    2.8350    1.4519 C   0  0  0  0  0  0  0  0  0  0  0  0
   -0.3850    2.0998    2.6233 O   0  0  0  0  0  0  0  0  0  0  0  0
   -1.5027    2.0172    0.3216 C   0  0  0  0  0  0  0  0  0  0  0  0
    2.9982   -2.1904   -1.8487 H   0  0  0  0  0  0  0  0  0  0  0  0
    1.5415   -1.3126   -2.3777 H   0  0  0  0  0  0  0  0  0  0  0  0
    1.6027   -2.0754   -0.7752 H   0  0  0  0  0  0  0  0  0  0  0  0
    6.3650    0.7863   -1.7812 H   0  0  0  0  0  0  0  0  0  0  0  0
    8.3996    2.2288   -1.5712 H   0  0  0  0  0  0  0  0  0  0  0  0
    7.6221    5.1037    1.5360 H   0  0  0  0  0  0  0  0  0  0  0  0
    7.1826    6.5637    3.4318 H   0  0  0  0  0  0  0  0  0  0  0  0
    5.5650    8.0111    4.6137 H   0  0  0  0  0  0  0  0  0  0  0  0
    3.9914    4.7967    1.1313 H   0  0  0  0  0  0  0  0  0  0  0  0
    1.5578    9.0082    5.2179 H   0  0  0  0  0  0  0  0  0  0  0  0
    3.0697    9.7503    4.6198 H   0  0  0  0  0  0  0  0  0  0  0  0
    3.1206    8.4846    5.9065 H   0  0  0  0  0  0  0  0  0  0  0  0
    2.9897    2.2472    1.1163 H   0  0  0  0  0  0  0  0  0  0  0  0
    0.3452    0.4236    1.1755 H   0  0  0  0  0  0  0  0  0  0  0  0
    0.0556   -0.1574   -0.4397 H   0  0  0  0  0  0  0  0  0  0  0  0
   -0.0296    4.0139   -0.2505 H   0  0  0  0  0  0  0  0  0  0  0  0
    1.2434    3.2442    0.6796 H   0  0  0  0  0  0  0  0  0  0  0  0
   -1.3820    3.7169    1.7820 H   0  0  0  0  0  0  0  0  0  0  0  0
    0.5857    2.1726    2.6218 H   0  0  0  0  0  0  0  0  0  0  0  0
   -2.2196    2.6213   -0.2505 H   0  0  0  0  0  0  0  0  0  0  0  0
   -2.0008    1.0902    0.6136 H   0  0  0  0  0  0  0  0  0  0  0  0
  1  2  1  0  0  0  0
  1 31  1  0  0  0  0
  1 32  1  0  0  0  0
  1 33  1  0  0  0  0
  2  3  2  0  0  0  0
  2 24  1  0  0  0  0
  3  4  1  0  0  0  0
  4  5  1  0  0  0  0
  4 23  1  0  0  0  0
  5  6  1  0  0  0  0
  5 22  2  0  0  0  0
  6  7  2  0  0  0  0
  6 34  1  0  0  0  0
  7  8  1  0  0  0  0
  7 35  1  0  0  0  0
  8  9  2  0  0  0  0
  9 10  1  0  0  0  0
  9 22  1  0  0  0  0
 10 11  1  0  0  0  0
 10 36  1  0  0  0  0
 11 12  1  0  0  0  0
 11 16  2  0  0  0  0
 12 13  2  0  0  0  0
 12 37  1  0  0  0  0
 13 14  1  0  0  0  0
 13 38  1  0  0  0  0
 14 15  2  0  0  0  0
 14 20  1  0  0  0  0
 15 16  1  0  0  0  0
 15 17  1  0  0  0  0
 16 39  1  0  0  0  0
 17 18  1  0  0  0  0
 17 19  2  0  0  0  0
 19 20  1  0  0  0  0
 20 21  1  0  0  0  0
 21 40  1  0  0  0  0
 21 41  1  0  0  0  0
 21 42  1  0  0  0  0
 23 24  2  0  0  0  0
 23 43  1  0  0  0  0
 24 25  1  0  0  0  0
 25 26  1  0  0  0  0
 25 44  1  0  0  0  0
 25 45  1  0  0  0  0
 26 27  1  0  0  0  0
 26 30  1  0  0  0  0
 27 28  1  0  0  0  0
 27 46  1  0  0  0  0
 27 47  1  0  0  0  0
 28 29  1  0  0  0  0
 28 30  1  0  0  0  0
 28 48  1  0  0  0  0
 29 49  1  0  0  0  0
 30 50  1  0  0  0  0
 30 51  1  0  0  0  0
M  END
$$$$
