CHEMBL4454065
 OpenBabel04072215383D

 40 43  0  0  0  0  0  0  0  0999 V2000
    1.4479   -0.0754    1.4067 F   0  0  0  0  0  0  0  0  0  0  0  0
    0.2782   -0.1706    0.7540 C   0  0  0  0  0  0  0  0  0  0  0  0
   -0.5843    0.9214    0.8090 C   0  0  0  0  0  0  0  0  0  0  0  0
   -1.8072    0.8753    0.1432 C   0  0  0  0  0  0  0  0  0  0  0  0
   -2.1519   -0.2602   -0.5889 C   0  0  0  0  0  0  0  0  0  0  0  0
   -1.2812   -1.3537   -0.6462 C   0  0  0  0  0  0  0  0  0  0  0  0
   -0.0570   -1.3268    0.0395 C   0  0  0  0  0  0  0  0  0  0  0  0
    0.7998   -2.4952    0.0225 C   0  0  0  0  0  0  0  0  0  0  0  0
    1.6828   -2.8700    1.0065 C   0  0  0  0  0  0  0  0  0  0  0  0
    2.1885   -4.0596    0.5752 N   0  0  0  0  0  0  0  0  0  0  0  0
    3.1268   -4.9646    1.2215 C   0  0  0  0  0  0  0  0  0  0  0  0
    3.5779   -4.5022    2.5866 C   0  0  0  0  0  0  0  0  0  0  0  0
    2.8306   -4.8087    3.7291 C   0  0  0  0  0  0  0  0  0  0  0  0
    3.2248   -4.3340    4.9865 C   0  0  0  0  0  0  0  0  0  0  0  0
    4.3813   -3.5505    5.1520 C   0  0  0  0  0  0  0  0  0  0  0  0
    4.8057   -3.0650    6.4854 C   0  0  0  0  0  0  0  0  0  0  0  0
    4.5761   -3.7984    7.6600 C   0  0  0  0  0  0  0  0  0  0  0  0
    5.0014   -3.3187    8.8998 C   0  0  0  0  0  0  0  0  0  0  0  0
    5.6628   -2.1059    8.9432 C   0  0  0  0  0  0  0  0  0  0  0  0
    5.9083   -1.3557    7.8522 N   0  0  0  0  0  0  0  0  0  0  0  0
    5.4716   -1.8480    6.6644 C   0  0  0  0  0  0  0  0  0  0  0  0
    5.1193   -3.2534    3.9916 C   0  0  0  0  0  0  0  0  0  0  0  0
    4.7229   -3.7120    2.7292 C   0  0  0  0  0  0  0  0  0  0  0  0
    1.6636   -4.3981   -0.6209 N   0  0  0  0  0  0  0  0  0  0  0  0
    0.7980   -3.4502   -0.9618 N   0  0  0  0  0  0  0  0  0  0  0  0
   -0.2945    1.8001    1.3787 H   0  0  0  0  0  0  0  0  0  0  0  0
   -2.4866    1.7213    0.1945 H   0  0  0  0  0  0  0  0  0  0  0  0
   -3.1051   -0.3003   -1.1119 H   0  0  0  0  0  0  0  0  0  0  0  0
   -1.5726   -2.2353   -1.2145 H   0  0  0  0  0  0  0  0  0  0  0  0
    1.9570   -2.4157    1.9481 H   0  0  0  0  0  0  0  0  0  0  0  0
    3.9846   -5.0750    0.5483 H   0  0  0  0  0  0  0  0  0  0  0  0
    2.6321   -5.9399    1.2974 H   0  0  0  0  0  0  0  0  0  0  0  0
    1.9235   -5.4060    3.6529 H   0  0  0  0  0  0  0  0  0  0  0  0
    2.5959   -4.5775    5.8406 H   0  0  0  0  0  0  0  0  0  0  0  0
    4.0762   -4.7630    7.6259 H   0  0  0  0  0  0  0  0  0  0  0  0
    4.8248   -3.8848    9.8074 H   0  0  0  0  0  0  0  0  0  0  0  0
    6.0229   -1.6950    9.8818 H   0  0  0  0  0  0  0  0  0  0  0  0
    5.6815   -1.1902    5.8247 H   0  0  0  0  0  0  0  0  0  0  0  0
    6.0305   -2.6610    4.0502 H   0  0  0  0  0  0  0  0  0  0  0  0
    5.3183   -3.4377    1.8596 H   0  0  0  0  0  0  0  0  0  0  0  0
  1  2  1  0  0  0  0
  2  3  1  0  0  0  0
  2  7  2  0  0  0  0
  3  4  2  0  0  0  0
  3 26  1  0  0  0  0
  4  5  1  0  0  0  0
  4 27  1  0  0  0  0
  5  6  2  0  0  0  0
  5 28  1  0  0  0  0
  6  7  1  0  0  0  0
  6 29  1  0  0  0  0
  7  8  1  0  0  0  0
  8  9  2  0  0  0  0
  8 25  1  0  0  0  0
  9 10  1  0  0  0  0
  9 30  1  0  0  0  0
 10 11  1  0  0  0  0
 10 24  1  0  0  0  0
 11 12  1  0  0  0  0
 11 31  1  0  0  0  0
 11 32  1  0  0  0  0
 12 13  1  0  0  0  0
 12 23  2  0  0  0  0
 13 14  2  0  0  0  0
 13 33  1  0  0  0  0
 14 15  1  0  0  0  0
 14 34  1  0  0  0  0
 15 16  1  0  0  0  0
 15 22  2  0  0  0  0
 16 17  1  0  0  0  0
 16 21  2  0  0  0  0
 17 18  2  0  0  0  0
 17 35  1  0  0  0  0
 18 19  1  0  0  0  0
 18 36  1  0  0  0  0
 19 20  2  0  0  0  0
 19 37  1  0  0  0  0
 20 21  1  0  0  0  0
 21 38  1  0  0  0  0
 22 23  1  0  0  0  0
 22 39  1  0  0  0  0
 23 40  1  0  0  0  0
 24 25  2  0  0  0  0
M  END
$$$$
