CHEMBL3577117
 OpenBabel04072215363D

 62 64  0  0  1  0  0  0  0  0999 V2000
    2.5620    0.8564    1.7727 C   0  0  0  0  0  0  0  0  0  0  0  0
    3.1391    0.2022    0.6112 N   0  0  0  0  0  0  0  0  0  0  0  0
    3.8008    1.0695   -0.2767 C   0  0  0  0  0  0  0  0  0  0  0  0
    4.2636    0.5397   -1.4746 C   0  0  0  0  0  0  0  0  0  0  0  0
    4.9075    1.3449   -2.3927 C   0  0  0  0  0  0  0  0  0  0  0  0
    5.3292    0.8194   -3.5472 N   0  0  0  0  0  0  0  0  0  0  0  0
    5.9743    1.6051   -4.4517 C   0  0  0  0  0  0  0  0  0  0  0  0
    6.3833    0.8240   -5.6733 C   0  0  0  0  0  0  0  0  0  0  0  0
    6.2151    2.9921   -4.2645 C   0  0  0  0  0  0  0  0  0  0  0  0
    6.9544    3.8458   -5.2551 C   0  0  0  0  0  0  0  0  0  0  0  0
    6.6884    3.6335   -6.6245 C   0  0  0  0  0  0  0  0  0  0  0  0
    7.5314    4.0548   -7.6561 C   0  0  0  0  0  0  0  0  0  0  0  0
    7.4127    3.5809   -8.9901 N   0  0  0  0  0  0  0  0  0  0  0  0
    6.3528    2.8625   -9.4847 C   0  0  0  0  0  0  0  0  0  0  0  0
    5.3142    2.6128   -8.8814 O   0  0  0  0  0  0  0  0  0  0  0  0
    6.5187    2.4459  -10.7915 N   0  0  0  0  0  0  0  0  0  0  0  0
    5.3988    1.6863  -11.3329 C   0  0  0  0  0  0  0  0  0  0  0  0
    5.5430    1.2533  -12.7978 C   0  0  1  0  0  0  0  0  0  0  0  0
    6.6783    0.3804  -12.9009 O   0  0  0  0  0  0  0  0  0  0  0  0
    4.2519    0.5662  -13.3675 C   0  0  0  0  0  0  0  0  0  0  0  0
    3.0586    1.5454  -13.3541 C   0  0  0  0  0  0  0  0  0  0  0  0
    4.4886    0.1355  -14.8285 C   0  0  0  0  0  0  0  0  0  0  0  0
    3.8533   -0.6885  -12.5627 C   0  0  0  0  0  0  0  0  0  0  0  0
    8.5624    4.9167   -7.3208 C   0  0  0  0  0  0  0  0  0  0  0  0
    9.3935    5.3764   -8.2710 F   0  0  0  0  0  0  0  0  0  0  0  0
    8.7455    5.3308   -6.0018 C   0  0  0  0  0  0  0  0  0  0  0  0
    7.9714    4.7848   -4.9514 C   0  0  0  0  0  0  0  0  0  0  0  0
    8.2942    5.2491   -3.5547 C   0  0  0  0  0  0  0  0  0  0  0  0
    5.7251    3.5130   -3.0572 C   0  0  0  0  0  0  0  0  0  0  0  0
    5.0977    2.6915   -2.0974 C   0  0  0  0  0  0  0  0  0  0  0  0
    4.6475    3.1377   -0.8565 C   0  0  0  0  0  0  0  0  0  0  0  0
    4.0132    2.3583    0.0481 N   0  0  0  0  0  0  0  0  0  0  0  0
    1.9411    0.1341    2.3123 H   0  0  0  0  0  0  0  0  0  0  0  0
    1.9159    1.6957    1.4921 H   0  0  0  0  0  0  0  0  0  0  0  0
    3.3417    1.2011    2.4596 H   0  0  0  0  0  0  0  0  0  0  0  0
    2.4462   -0.3336    0.0963 H   0  0  0  0  0  0  0  0  0  0  0  0
    4.1175   -0.5101   -1.7039 H   0  0  0  0  0  0  0  0  0  0  0  0
    6.2839   -0.2521   -5.4921 H   0  0  0  0  0  0  0  0  0  0  0  0
    7.4255    1.0105   -5.9436 H   0  0  0  0  0  0  0  0  0  0  0  0
    5.7185    1.0416   -6.5138 H   0  0  0  0  0  0  0  0  0  0  0  0
    5.8054    3.0548   -6.8616 H   0  0  0  0  0  0  0  0  0  0  0  0
    8.1273    3.8749   -9.6428 H   0  0  0  0  0  0  0  0  0  0  0  0
    7.4467    2.1444  -11.0608 H   0  0  0  0  0  0  0  0  0  0  0  0
    4.5127    2.3158  -11.2064 H   0  0  0  0  0  0  0  0  0  0  0  0
    5.2899    0.8037  -10.6908 H   0  0  0  0  0  0  0  0  0  0  0  0
    5.7791    2.1345  -13.4075 H   0  0  0  0  0  0  0  0  0  0  0  0
    6.5195   -0.3940  -12.3343 H   0  0  0  0  0  0  0  0  0  0  0  0
    3.2884    2.4560  -13.9180 H   0  0  0  0  0  0  0  0  0  0  0  0
    2.7748    1.8386  -12.3386 H   0  0  0  0  0  0  0  0  0  0  0  0
    2.1698    1.0899  -13.8067 H   0  0  0  0  0  0  0  0  0  0  0  0
    4.7245    0.9989  -15.4599 H   0  0  0  0  0  0  0  0  0  0  0  0
    3.5939   -0.3427  -15.2462 H   0  0  0  0  0  0  0  0  0  0  0  0
    5.3112   -0.5819  -14.9116 H   0  0  0  0  0  0  0  0  0  0  0  0
    3.6185   -0.4462  -11.5212 H   0  0  0  0  0  0  0  0  0  0  0  0
    4.6466   -1.4426  -12.5662 H   0  0  0  0  0  0  0  0  0  0  0  0
    2.9579   -1.1580  -12.9871 H   0  0  0  0  0  0  0  0  0  0  0  0
    9.5297    6.0558   -5.7950 H   0  0  0  0  0  0  0  0  0  0  0  0
    9.1619    5.9185   -3.5421 H   0  0  0  0  0  0  0  0  0  0  0  0
    8.5271    4.4028   -2.9033 H   0  0  0  0  0  0  0  0  0  0  0  0
    7.4635    5.8315   -3.1441 H   0  0  0  0  0  0  0  0  0  0  0  0
    5.8059    4.5725   -2.8415 H   0  0  0  0  0  0  0  0  0  0  0  0
    4.7941    4.1661   -0.5396 H   0  0  0  0  0  0  0  0  0  0  0  0
  1  2  1  0  0  0  0
  1 33  1  0  0  0  0
  1 34  1  0  0  0  0
  1 35  1  0  0  0  0
  2  3  1  0  0  0  0
  2 36  1  0  0  0  0
  3  4  1  0  0  0  0
  3 32  2  0  0  0  0
  4  5  2  0  0  0  0
  4 37  1  0  0  0  0
  5  6  1  0  0  0  0
  5 30  1  0  0  0  0
  6  7  2  0  0  0  0
  7  8  1  0  0  0  0
  7  9  1  0  0  0  0
  8 38  1  0  0  0  0
  8 39  1  0  0  0  0
  8 40  1  0  0  0  0
  9 10  1  0  0  0  0
  9 29  2  0  0  0  0
 10 11  1  0  0  0  0
 10 27  2  0  0  0  0
 11 12  2  0  0  0  0
 11 41  1  0  0  0  0
 12 13  1  0  0  0  0
 12 24  1  0  0  0  0
 13 14  1  0  0  0  0
 13 42  1  0  0  0  0
 14 15  2  0  0  0  0
 14 16  1  0  0  0  0
 16 17  1  0  0  0  0
 16 43  1  0  0  0  0
 17 18  1  0  0  0  0
 17 44  1  0  0  0  0
 17 45  1  0  0  0  0
 18 19  1  0  0  0  0
 18 20  1  0  0  0  0
 18 46  1  6  0  0  0
 19 47  1  0  0  0  0
 20 21  1  0  0  0  0
 20 22  1  0  0  0  0
 20 23  1  0  0  0  0
 21 48  1  0  0  0  0
 21 49  1  0  0  0  0
 21 50  1  0  0  0  0
 22 51  1  0  0  0  0
 22 52  1  0  0  0  0
 22 53  1  0  0  0  0
 23 54  1  0  0  0  0
 23 55  1  0  0  0  0
 23 56  1  0  0  0  0
 24 25  1  0  0  0  0
 24 26  2  0  0  0  0
 26 27  1  0  0  0  0
 26 57  1  0  0  0  0
 27 28  1  0  0  0  0
 28 58  1  0  0  0  0
 28 59  1  0  0  0  0
 28 60  1  0  0  0  0
 29 30  1  0  0  0  0
 29 61  1  0  0  0  0
 30 31  2  0  0  0  0
 31 32  1  0  0  0  0
 31 62  1  0  0  0  0
M  END
$$$$
