CHEMBL3912250
 OpenBabel04072215373D

 68 72  0  0  0  0  0  0  0  0999 V2000
    0.9270   -2.7069    3.8933 C   0  0  0  0  0  0  0  0  0  0  0  0
    2.3391   -2.6637    3.9861 O   0  0  0  0  0  0  0  0  0  0  0  0
    2.9879   -2.1662    2.8999 C   0  0  0  0  0  0  0  0  0  0  0  0
    2.4486   -1.7118    1.7551 C   0  0  0  0  0  0  0  0  0  0  0  0
    3.1878   -0.9926    0.8213 C   0  0  0  0  0  0  0  0  0  0  0  0
    2.6319   -0.4521   -0.3015 O   0  0  0  0  0  0  0  0  0  0  0  0
    1.2306   -0.6772   -0.4562 C   0  0  0  0  0  0  0  0  0  0  0  0
    4.5337   -0.7517    1.0336 C   0  0  0  0  0  0  0  0  0  0  0  0
    5.1308   -1.1198    2.2210 C   0  0  0  0  0  0  0  0  0  0  0  0
    6.4514   -0.6849    2.5294 N   0  0  0  0  0  0  0  0  0  0  0  0
    6.9564    0.6063    2.0097 C   0  0  0  0  0  0  0  0  0  0  0  0
    8.1691    0.4707    1.1423 C   0  0  0  0  0  0  0  0  0  0  0  0
    8.7599    1.6872    0.5690 C   0  0  0  0  0  0  0  0  0  0  0  0
    9.9690    1.3885   -0.2790 C   0  0  0  0  0  0  0  0  0  0  0  0
   10.3845    0.0957   -0.4336 N   0  0  0  0  0  0  0  0  0  0  0  0
   11.4860   -0.1088   -1.1765 C   0  0  0  0  0  0  0  0  0  0  0  0
   12.1922    0.9173   -1.7672 C   0  0  0  0  0  0  0  0  0  0  0  0
   11.7613    2.2233   -1.5797 C   0  0  0  0  0  0  0  0  0  0  0  0
   10.6350    2.4830   -0.8247 C   0  0  0  0  0  0  0  0  0  0  0  0
   10.1295    3.7300   -0.5741 O   0  0  0  0  0  0  0  0  0  0  0  0
   10.8239    4.8370   -1.1382 C   0  0  0  0  0  0  0  0  0  0  0  0
    7.4729   -1.4618    3.1205 C   0  0  0  0  0  0  0  0  0  0  0  0
    8.3725   -0.6594    3.9060 C   0  0  0  0  0  0  0  0  0  0  0  0
    9.3758   -1.2714    4.5903 C   0  0  0  0  0  0  0  0  0  0  0  0
    9.5702   -2.5283    4.4700 C   0  0  0  0  0  0  0  0  0  0  0  0
   10.8383   -2.6908    4.6112 N   0  0  0  0  0  0  0  0  0  0  0  0
   11.4575   -2.7078    5.7294 C   0  0  0  0  0  0  0  0  0  0  0  0
   11.7379   -4.0397    5.8055 C   0  0  0  0  0  0  0  0  0  0  0  0
   13.2124   -3.2087    6.6589 C   0  0  0  0  0  0  0  0  0  0  0  0
   14.1162   -1.7761    6.6284 C   0  0  0  0  0  0  0  0  0  0  0  0
   15.1434   -1.4831    7.4991 N   0  0  0  0  0  0  0  0  0  0  0  0
   15.2200   -2.5360    8.3113 N   0  0  0  0  0  0  0  0  0  0  0  0
   16.1382   -2.5288    9.5140 C   0  0  0  0  0  0  0  0  0  0  0  0
   14.1943   -3.5418    7.8420 C   0  0  0  0  0  0  0  0  0  0  0  0
   10.3349   -4.5410    4.8815 N   0  0  0  0  0  0  0  0  0  0  0  0
    9.0768   -3.6850    3.9736 C   0  0  0  0  0  0  0  0  0  0  0  0
    7.7939   -2.7779    3.0564 C   0  0  0  0  0  0  0  0  0  0  0  0
    4.3206   -1.9624    3.0062 C   0  0  0  0  0  0  0  0  0  0  0  0
    0.5201   -3.0508    4.8521 H   0  0  0  0  0  0  0  0  0  0  0  0
    0.6355   -3.4253    3.1243 H   0  0  0  0  0  0  0  0  0  0  0  0
    0.4909   -1.7282    3.6842 H   0  0  0  0  0  0  0  0  0  0  0  0
    1.4295   -1.9379    1.5921 H   0  0  0  0  0  0  0  0  0  0  0  0
    0.9032   -0.2026   -1.3827 H   0  0  0  0  0  0  0  0  0  0  0  0
    0.6528   -0.2380    0.3687 H   0  0  0  0  0  0  0  0  0  0  0  0
    1.0134   -1.7496   -0.5327 H   0  0  0  0  0  0  0  0  0  0  0  0
    5.1378   -0.2706    0.2782 H   0  0  0  0  0  0  0  0  0  0  0  0
    7.2176    1.3194    2.7983 H   0  0  0  0  0  0  0  0  0  0  0  0
    6.1743    1.0244    1.3811 H   0  0  0  0  0  0  0  0  0  0  0  0
    7.8130   -0.0788    0.2432 H   0  0  0  0  0  0  0  0  0  0  0  0
    8.9764    0.0161    1.7648 H   0  0  0  0  0  0  0  0  0  0  0  0
    9.0271    2.3392    1.3901 H   0  0  0  0  0  0  0  0  0  0  0  0
    7.9781    2.1200   -0.0512 H   0  0  0  0  0  0  0  0  0  0  0  0
   11.8174   -1.1349   -1.2991 H   0  0  0  0  0  0  0  0  0  0  0  0
   13.0674    0.7016   -2.3620 H   0  0  0  0  0  0  0  0  0  0  0  0
   12.3177    3.0310   -2.0278 H   0  0  0  0  0  0  0  0  0  0  0  0
   10.3070    5.7612   -0.8547 H   0  0  0  0  0  0  0  0  0  0  0  0
   10.8319    4.7799   -2.2311 H   0  0  0  0  0  0  0  0  0  0  0  0
   11.8468    4.8938   -0.7536 H   0  0  0  0  0  0  0  0  0  0  0  0
    8.4370    0.4047    3.9986 H   0  0  0  0  0  0  0  0  0  0  0  0
   10.1289   -0.7800    5.1928 H   0  0  0  0  0  0  0  0  0  0  0  0
   11.8236   -1.6607    5.9148 H   0  0  0  0  0  0  0  0  0  0  0  0
   14.0140   -0.9476    5.9575 H   0  0  0  0  0  0  0  0  0  0  0  0
   16.7964   -1.6297    9.5775 H   0  0  0  0  0  0  0  0  0  0  0  0
   16.8020   -3.4085    9.5266 H   0  0  0  0  0  0  0  0  0  0  0  0
   15.5339   -2.5399   10.4337 H   0  0  0  0  0  0  0  0  0  0  0  0
   14.3124   -4.4132    8.4591 H   0  0  0  0  0  0  0  0  0  0  0  0
    7.1386   -3.2918    2.2640 H   0  0  0  0  0  0  0  0  0  0  0  0
    4.5976   -2.5764    3.8199 H   0  0  0  0  0  0  0  0  0  0  0  0
  1  2  1  0  0  0  0
  1 39  1  0  0  0  0
  1 40  1  0  0  0  0
  1 41  1  0  0  0  0
  2  3  1  0  0  0  0
  3  4  1  0  0  0  0
  3 38  2  0  0  0  0
  4  5  2  0  0  0  0
  4 42  1  0  0  0  0
  5  6  1  0  0  0  0
  5  8  1  0  0  0  0
  6  7  1  0  0  0  0
  7 43  1  0  0  0  0
  7 44  1  0  0  0  0
  7 45  1  0  0  0  0
  8  9  2  0  0  0  0
  8 46  1  0  0  0  0
  9 10  1  0  0  0  0
  9 38  1  0  0  0  0
 10 11  1  0  0  0  0
 10 22  1  0  0  0  0
 11 12  1  0  0  0  0
 11 47  1  0  0  0  0
 11 48  1  0  0  0  0
 12 13  1  0  0  0  0
 12 49  1  0  0  0  0
 12 50  1  0  0  0  0
 13 14  1  0  0  0  0
 13 51  1  0  0  0  0
 13 52  1  0  0  0  0
 14 15  1  0  0  0  0
 14 19  2  0  0  0  0
 15 16  2  0  0  0  0
 16 17  1  0  0  0  0
 16 53  1  0  0  0  0
 17 18  2  0  0  0  0
 17 54  1  0  0  0  0
 18 19  1  0  0  0  0
 18 55  1  0  0  0  0
 19 20  1  0  0  0  0
 20 21  1  0  0  0  0
 21 56  1  0  0  0  0
 21 57  1  0  0  0  0
 21 58  1  0  0  0  0
 22 23  1  0  0  0  0
 22 37  2  0  0  0  0
 23 24  2  0  0  0  0
 23 59  1  0  0  0  0
 24 25  1  0  0  0  0
 24 60  1  0  0  0  0
 25 26  1  0  0  0  0
 25 36  2  0  0  0  0
 26 27  2  0  0  0  0
 27 28  1  0  0  0  0
 27 61  1  0  0  0  0
 28 29  1  0  0  0  0
 28 35  2  0  0  0  0
 29 30  1  0  0  0  0
 29 34  2  0  0  0  0
 30 31  2  0  0  0  0
 30 62  1  0  0  0  0
 31 32  1  0  0  0  0
 32 33  1  0  0  0  0
 32 34  1  0  0  0  0
 33 63  1  0  0  0  0
 33 64  1  0  0  0  0
 33 65  1  0  0  0  0
 34 66  1  0  0  0  0
 35 36  1  0  0  0  0
 36 37  1  0  0  0  0
 37 67  1  0  0  0  0
 38 68  1  0  0  0  0
M  END
$$$$
