CHEMBL1807480
 OpenBabel04072215363D

 64 68  0  0  0  0  0  0  0  0999 V2000
    1.2321   -0.7066   -0.4733 O   0  0  0  0  0  0  0  0  0  0  0  0
    2.3472   -0.3222   -0.1612 C   0  0  0  0  0  0  0  0  0  0  0  0
    2.9080   -0.5956    1.1332 N   0  0  0  0  0  0  0  0  0  0  0  0
    2.2161   -1.3159    2.0994 C   0  0  0  0  0  0  0  0  0  0  0  0
    1.1084   -2.1148    1.9520 C   0  0  0  0  0  0  0  0  0  0  0  0
    0.7806   -2.5769    3.2536 C   0  0  0  0  0  0  0  0  0  0  0  0
   -0.3183   -3.4640    3.6292 C   0  0  0  0  0  0  0  0  0  0  0  0
   -1.4641   -3.5765    2.8256 C   0  0  0  0  0  0  0  0  0  0  0  0
   -2.4769   -4.4774    3.1590 C   0  0  0  0  0  0  0  0  0  0  0  0
   -2.3496   -5.2753    4.2940 C   0  0  0  0  0  0  0  0  0  0  0  0
   -1.2293   -5.1456    5.1136 C   0  0  0  0  0  0  0  0  0  0  0  0
   -1.1012   -5.9749    6.2592 N   0  0  0  0  0  0  0  0  0  0  0  0
   -0.4844   -7.5362    6.0695 S   0  0  0  0  0  0  0  0  0  0  0  0
   -0.4699   -8.1257    7.3914 O   0  0  0  0  0  0  0  0  0  0  0  0
   -1.1524   -8.1880    4.9633 O   0  0  0  0  0  0  0  0  0  0  0  0
    1.2181   -7.2686    5.6039 C   0  0  0  0  0  0  0  0  0  0  0  0
    2.1898   -7.1491    6.6042 C   0  0  0  0  0  0  0  0  0  0  0  0
    3.5373   -7.0415    6.2511 C   0  0  0  0  0  0  0  0  0  0  0  0
    3.9096   -7.0632    4.9063 C   0  0  0  0  0  0  0  0  0  0  0  0
    2.9381   -7.1882    3.9104 C   0  0  0  0  0  0  0  0  0  0  0  0
    1.5890   -7.2969    4.2562 C   0  0  0  0  0  0  0  0  0  0  0  0
   -0.2203   -4.2435    4.7896 C   0  0  0  0  0  0  0  0  0  0  0  0
    1.6629   -2.1114    4.1527 N   0  0  0  0  0  0  0  0  0  0  0  0
    2.5135   -1.3655    3.4339 N   0  0  0  0  0  0  0  0  0  0  0  0
    3.1444    0.5275   -1.0658 C   0  0  0  0  0  0  0  0  0  0  0  0
    2.4544    1.4532   -1.8552 C   0  0  0  0  0  0  0  0  0  0  0  0
    3.1452    2.2105   -2.8036 C   0  0  0  0  0  0  0  0  0  0  0  0
    4.5213    2.0362   -2.9884 C   0  0  0  0  0  0  0  0  0  0  0  0
    5.2199    2.6842   -4.1647 C   0  0  0  0  0  0  0  0  0  0  0  0
    5.8146    3.9961   -3.9858 N   0  0  0  0  0  0  0  0  0  0  0  0
    6.9101    4.1376   -3.0295 C   0  0  0  0  0  0  0  0  0  0  0  0
    6.5246    4.7819   -1.6858 C   0  0  0  0  0  0  0  0  0  0  0  0
    5.7293    5.9612   -1.8489 O   0  0  0  0  0  0  0  0  0  0  0  0
    4.5527    5.6721   -2.6108 C   0  0  0  0  0  0  0  0  0  0  0  0
    4.9201    5.1521   -4.0042 C   0  0  0  0  0  0  0  0  0  0  0  0
    5.2106    1.1335   -2.1569 C   0  0  0  0  0  0  0  0  0  0  0  0
    4.5279    0.3790   -1.1959 C   0  0  0  0  0  0  0  0  0  0  0  0
    3.7827   -0.1583    1.3904 H   0  0  0  0  0  0  0  0  0  0  0  0
    0.5887   -2.3634    1.0378 H   0  0  0  0  0  0  0  0  0  0  0  0
   -1.5901   -2.9647    1.9349 H   0  0  0  0  0  0  0  0  0  0  0  0
   -3.3626   -4.5614    2.5322 H   0  0  0  0  0  0  0  0  0  0  0  0
   -3.1339   -5.9868    4.5440 H   0  0  0  0  0  0  0  0  0  0  0  0
   -0.7732   -5.5345    7.1167 H   0  0  0  0  0  0  0  0  0  0  0  0
    1.9141   -7.1668    7.6563 H   0  0  0  0  0  0  0  0  0  0  0  0
    4.2992   -6.9676    7.0245 H   0  0  0  0  0  0  0  0  0  0  0  0
    4.9619   -7.0058    4.6342 H   0  0  0  0  0  0  0  0  0  0  0  0
    3.2363   -7.2276    2.8656 H   0  0  0  0  0  0  0  0  0  0  0  0
    0.8410   -7.4231    3.4762 H   0  0  0  0  0  0  0  0  0  0  0  0
    0.6606   -4.1611    5.4216 H   0  0  0  0  0  0  0  0  0  0  0  0
    3.2571   -0.8914    3.9323 H   0  0  0  0  0  0  0  0  0  0  0  0
    1.3765    1.5659   -1.7655 H   0  0  0  0  0  0  0  0  0  0  0  0
    2.5883    2.8977   -3.4388 H   0  0  0  0  0  0  0  0  0  0  0  0
    4.5090    2.7217   -5.0021 H   0  0  0  0  0  0  0  0  0  0  0  0
    5.9952    1.9951   -4.5248 H   0  0  0  0  0  0  0  0  0  0  0  0
    7.6536    4.7894   -3.5060 H   0  0  0  0  0  0  0  0  0  0  0  0
    7.4243    3.1858   -2.8532 H   0  0  0  0  0  0  0  0  0  0  0  0
    7.4360    5.0818   -1.1570 H   0  0  0  0  0  0  0  0  0  0  0  0
    5.9860    4.0781   -1.0429 H   0  0  0  0  0  0  0  0  0  0  0  0
    3.9841    6.6030   -2.7057 H   0  0  0  0  0  0  0  0  0  0  0  0
    3.9301    4.9601   -2.0594 H   0  0  0  0  0  0  0  0  0  0  0  0
    5.4561    5.9539   -4.5295 H   0  0  0  0  0  0  0  0  0  0  0  0
    4.0160    4.9592   -4.5926 H   0  0  0  0  0  0  0  0  0  0  0  0
    6.2773    0.9673   -2.3035 H   0  0  0  0  0  0  0  0  0  0  0  0
    5.0778   -0.3642   -0.6249 H   0  0  0  0  0  0  0  0  0  0  0  0
  1  2  2  0  0  0  0
  2  3  1  0  0  0  0
  2 25  1  0  0  0  0
  3  4  1  0  0  0  0
  3 38  1  0  0  0  0
  4  5  2  0  0  0  0
  4 24  1  0  0  0  0
  5  6  1  0  0  0  0
  5 39  1  0  0  0  0
  6  7  1  0  0  0  0
  6 23  2  0  0  0  0
  7  8  1  0  0  0  0
  7 22  2  0  0  0  0
  8  9  2  0  0  0  0
  8 40  1  0  0  0  0
  9 10  1  0  0  0  0
  9 41  1  0  0  0  0
 10 11  2  0  0  0  0
 10 42  1  0  0  0  0
 11 12  1  0  0  0  0
 11 22  1  0  0  0  0
 12 13  1  0  0  0  0
 12 43  1  0  0  0  0
 13 14  2  0  0  0  0
 13 15  2  0  0  0  0
 13 16  1  0  0  0  0
 16 17  1  0  0  0  0
 16 21  2  0  0  0  0
 17 18  2  0  0  0  0
 17 44  1  0  0  0  0
 18 19  1  0  0  0  0
 18 45  1  0  0  0  0
 19 20  2  0  0  0  0
 19 46  1  0  0  0  0
 20 21  1  0  0  0  0
 20 47  1  0  0  0  0
 21 48  1  0  0  0  0
 22 49  1  0  0  0  0
 23 24  1  0  0  0  0
 24 50  1  0  0  0  0
 25 26  1  0  0  0  0
 25 37  2  0  0  0  0
 26 27  2  0  0  0  0
 26 51  1  0  0  0  0
 27 28  1  0  0  0  0
 27 52  1  0  0  0  0
 28 29  1  0  0  0  0
 28 36  2  0  0  0  0
 29 30  1  0  0  0  0
 29 53  1  0  0  0  0
 29 54  1  0  0  0  0
 30 31  1  0  0  0  0
 30 35  1  0  0  0  0
 31 32  1  0  0  0  0
 31 55  1  0  0  0  0
 31 56  1  0  0  0  0
 32 33  1  0  0  0  0
 32 57  1  0  0  0  0
 32 58  1  0  0  0  0
 33 34  1  0  0  0  0
 34 35  1  0  0  0  0
 34 59  1  0  0  0  0
 34 60  1  0  0  0  0
 35 61  1  0  0  0  0
 35 62  1  0  0  0  0
 36 37  1  0  0  0  0
 36 63  1  0  0  0  0
 37 64  1  0  0  0  0
M  END
$$$$
