CHEMBL2430260
 OpenBabel04072215363D

 58 62  0  0  0  0  0  0  0  0999 V2000
    0.8999    0.2272   -0.1176 C   0  0  0  0  0  0  0  0  0  0  0  0
    2.3611   -0.0559   -0.1448 C   0  0  0  0  0  0  0  0  0  0  0  0
    3.2867    0.9793   -0.1360 N   0  0  0  0  0  0  0  0  0  0  0  0
    4.5636    0.4840   -0.0991 C   0  0  0  0  0  0  0  0  0  0  0  0
    4.4474   -0.8937   -0.0824 C   0  0  0  0  0  0  0  0  0  0  0  0
    3.0638   -1.2565   -0.1185 C   0  0  0  0  0  0  0  0  0  0  0  0
    2.5806   -2.6435   -0.0810 C   0  0  0  0  0  0  0  0  0  0  0  0
    3.2183   -3.5334    0.4792 O   0  0  0  0  0  0  0  0  0  0  0  0
    1.4236   -2.9143   -0.7729 N   0  0  0  0  0  0  0  0  0  0  0  0
    0.9692   -4.2835   -0.9314 C   0  0  0  0  0  0  0  0  0  0  0  0
    0.1236   -4.5156   -2.1972 C   0  0  0  0  0  0  0  0  0  0  0  0
    0.7597   -4.1442   -3.4747 N   0  0  0  0  0  0  0  0  0  0  0  0
   -0.1310   -4.4215   -4.6160 C   0  0  0  0  0  0  0  0  0  0  0  0
    0.5357   -5.5161   -5.4290 C   0  0  0  0  0  0  0  0  0  0  0  0
    2.0055   -5.2645   -5.1831 C   0  0  0  0  0  0  0  0  0  0  0  0
    2.0335   -4.8456   -3.7211 C   0  0  0  0  0  0  0  0  0  0  0  0
    5.5909   -1.8396   -0.0436 C   0  0  0  0  0  0  0  0  0  0  0  0
    6.9634   -1.1916   -0.0487 C   0  0  0  0  0  0  0  0  0  0  0  0
    7.0607    0.3373   -0.0585 C   0  0  0  0  0  0  0  0  0  0  0  0
    5.8017    1.2118   -0.0793 C   0  0  0  0  0  0  0  0  0  0  0  0
    5.9699    2.5602   -0.0768 C   0  0  0  0  0  0  0  0  0  0  0  0
    4.9124    3.6538   -0.0901 C   0  0  0  0  0  0  0  0  0  0  0  0
    3.6997    3.5427   -0.1012 O   0  0  0  0  0  0  0  0  0  0  0  0
    5.5996    4.8558   -0.0871 N   0  0  0  0  0  0  0  0  0  0  0  0
    6.9756    4.6661   -0.0721 C   0  0  0  0  0  0  0  0  0  0  0  0
    7.9397    5.6646   -0.0724 C   0  0  0  0  0  0  0  0  0  0  0  0
    9.2794    5.2791   -0.0630 C   0  0  0  0  0  0  0  0  0  0  0  0
    9.6075    3.9231   -0.0532 C   0  0  0  0  0  0  0  0  0  0  0  0
   10.8952    3.5527   -0.0447 F   0  0  0  0  0  0  0  0  0  0  0  0
    8.6241    2.9356   -0.0537 C   0  0  0  0  0  0  0  0  0  0  0  0
    7.2801    3.3005   -0.0650 C   0  0  0  0  0  0  0  0  0  0  0  0
    0.6930    1.3003   -0.0549 H   0  0  0  0  0  0  0  0  0  0  0  0
    0.4341   -0.2545    0.7491 H   0  0  0  0  0  0  0  0  0  0  0  0
    0.4137   -0.1482   -1.0231 H   0  0  0  0  0  0  0  0  0  0  0  0
    3.0449    1.9664   -0.1316 H   0  0  0  0  0  0  0  0  0  0  0  0
    1.0001   -2.1890   -1.3318 H   0  0  0  0  0  0  0  0  0  0  0  0
    0.3657   -4.5204   -0.0473 H   0  0  0  0  0  0  0  0  0  0  0  0
    1.8286   -4.9636   -0.9189 H   0  0  0  0  0  0  0  0  0  0  0  0
   -0.7895   -3.9161   -2.0919 H   0  0  0  0  0  0  0  0  0  0  0  0
   -0.1838   -5.5696   -2.2173 H   0  0  0  0  0  0  0  0  0  0  0  0
   -0.1995   -3.5082   -5.2186 H   0  0  0  0  0  0  0  0  0  0  0  0
   -1.1524   -4.7002   -4.3334 H   0  0  0  0  0  0  0  0  0  0  0  0
    0.2752   -5.4704   -6.4904 H   0  0  0  0  0  0  0  0  0  0  0  0
    0.2526   -6.5037   -5.0447 H   0  0  0  0  0  0  0  0  0  0  0  0
    2.3627   -4.4519   -5.8268 H   0  0  0  0  0  0  0  0  0  0  0  0
    2.6153   -6.1521   -5.3781 H   0  0  0  0  0  0  0  0  0  0  0  0
    2.8859   -4.1891   -3.5180 H   0  0  0  0  0  0  0  0  0  0  0  0
    2.1380   -5.7454   -3.1031 H   0  0  0  0  0  0  0  0  0  0  0  0
    5.5180   -2.5153   -0.9051 H   0  0  0  0  0  0  0  0  0  0  0  0
    5.5095   -2.4635    0.8542 H   0  0  0  0  0  0  0  0  0  0  0  0
    7.5272   -1.5759   -0.9088 H   0  0  0  0  0  0  0  0  0  0  0  0
    7.5239   -1.5622    0.8201 H   0  0  0  0  0  0  0  0  0  0  0  0
    7.6453    0.5860   -0.9527 H   0  0  0  0  0  0  0  0  0  0  0  0
    7.6275    0.5986    0.8434 H   0  0  0  0  0  0  0  0  0  0  0  0
    5.1315    5.7495   -0.0947 H   0  0  0  0  0  0  0  0  0  0  0  0
    7.6782    6.7177   -0.0808 H   0  0  0  0  0  0  0  0  0  0  0  0
   10.0826    6.0105   -0.0629 H   0  0  0  0  0  0  0  0  0  0  0  0
    8.9799    1.9170   -0.0460 H   0  0  0  0  0  0  0  0  0  0  0  0
  1  2  1  0  0  0  0
  1 32  1  0  0  0  0
  1 33  1  0  0  0  0
  1 34  1  0  0  0  0
  2  3  1  0  0  0  0
  2  6  2  0  0  0  0
  3  4  1  0  0  0  0
  3 35  1  0  0  0  0
  4  5  2  0  0  0  0
  4 20  1  0  0  0  0
  5  6  1  0  0  0  0
  5 17  1  0  0  0  0
  6  7  1  0  0  0  0
  7  8  2  0  0  0  0
  7  9  1  0  0  0  0
  9 10  1  0  0  0  0
  9 36  1  0  0  0  0
 10 11  1  0  0  0  0
 10 37  1  0  0  0  0
 10 38  1  0  0  0  0
 11 12  1  0  0  0  0
 11 39  1  0  0  0  0
 11 40  1  0  0  0  0
 12 13  1  0  0  0  0
 12 16  1  0  0  0  0
 13 14  1  0  0  0  0
 13 41  1  0  0  0  0
 13 42  1  0  0  0  0
 14 15  1  0  0  0  0
 14 43  1  0  0  0  0
 14 44  1  0  0  0  0
 15 16  1  0  0  0  0
 15 45  1  0  0  0  0
 15 46  1  0  0  0  0
 16 47  1  0  0  0  0
 16 48  1  0  0  0  0
 17 18  1  0  0  0  0
 17 49  1  0  0  0  0
 17 50  1  0  0  0  0
 18 19  1  0  0  0  0
 18 51  1  0  0  0  0
 18 52  1  0  0  0  0
 19 20  1  0  0  0  0
 19 53  1  0  0  0  0
 19 54  1  0  0  0  0
 20 21  2  0  0  0  0
 21 22  1  0  0  0  0
 21 31  1  0  0  0  0
 22 23  2  0  0  0  0
 22 24  1  0  0  0  0
 24 25  1  0  0  0  0
 24 55  1  0  0  0  0
 25 26  1  0  0  0  0
 25 31  2  0  0  0  0
 26 27  2  0  0  0  0
 26 56  1  0  0  0  0
 27 28  1  0  0  0  0
 27 57  1  0  0  0  0
 28 29  1  0  0  0  0
 28 30  2  0  0  0  0
 30 31  1  0  0  0  0
 30 58  1  0  0  0  0
M  END
$$$$
