CHEMBL3358999
 OpenBabel04072215363D

 48 50  0  0  0  0  0  0  0  0999 V2000
    1.2672    0.1795   -1.5983 C   0  0  0  0  0  0  0  0  0  0  0  0
    2.5672    0.0849   -1.0345 O   0  0  0  0  0  0  0  0  0  0  0  0
    3.1097    1.2230   -0.4985 C   0  0  0  0  0  0  0  0  0  0  0  0
    2.4841    2.4725   -0.4642 C   0  0  0  0  0  0  0  0  0  0  0  0
    3.1340    3.5843    0.0974 C   0  0  0  0  0  0  0  0  0  0  0  0
    2.4738    4.8999    0.0856 C   0  0  0  0  0  0  0  0  0  0  0  0
    2.6721    5.6953   -0.9774 C   0  0  0  0  0  0  0  0  0  0  0  0
    2.0501    6.9075   -1.0542 N   0  0  0  0  0  0  0  0  0  0  0  0
    1.2087    7.3521   -0.0683 C   0  0  0  0  0  0  0  0  0  0  0  0
    0.6553    8.4391   -0.1269 O   0  0  0  0  0  0  0  0  0  0  0  0
    1.0411    6.3743    1.1207 C   0  0  0  0  0  0  0  0  0  0  0  0
    0.1662    6.7582    2.2641 C   0  0  0  0  0  0  0  0  0  0  0  0
   -0.9608    7.5638    2.0837 C   0  0  0  0  0  0  0  0  0  0  0  0
   -1.7564    7.9578    3.1678 C   0  0  0  0  0  0  0  0  0  0  0  0
   -2.8569    8.7588    3.0085 O   0  0  0  0  0  0  0  0  0  0  0  0
   -3.1850    9.2317    1.7079 C   0  0  0  0  0  0  0  0  0  0  0  0
   -1.4188    7.5136    4.4636 C   0  0  0  0  0  0  0  0  0  0  0  0
   -2.0782    7.8107    5.6351 O   0  0  0  0  0  0  0  0  0  0  0  0
   -3.2182    8.6534    5.6048 C   0  0  0  0  0  0  0  0  0  0  0  0
   -0.2932    6.6678    4.6414 C   0  0  0  0  0  0  0  0  0  0  0  0
   -0.0295    6.2700    5.9327 O   0  0  0  0  0  0  0  0  0  0  0  0
    1.0950    5.4278    6.1513 C   0  0  0  0  0  0  0  0  0  0  0  0
    0.4826    6.2899    3.5408 C   0  0  0  0  0  0  0  0  0  0  0  0
    1.6691    5.2255    1.1541 N   0  0  0  0  0  0  0  0  0  0  0  0
    4.4167    3.4357    0.6400 C   0  0  0  0  0  0  0  0  0  0  0  0
    5.0484    2.1918    0.6164 C   0  0  0  0  0  0  0  0  0  0  0  0
    4.3947    1.0970    0.0486 C   0  0  0  0  0  0  0  0  0  0  0  0
    5.0146   -0.1239    0.0203 O   0  0  0  0  0  0  0  0  0  0  0  0
    0.9983   -0.8076   -1.9870 H   0  0  0  0  0  0  0  0  0  0  0  0
    1.2501    0.8818   -2.4383 H   0  0  0  0  0  0  0  0  0  0  0  0
    0.5266    0.4513   -0.8390 H   0  0  0  0  0  0  0  0  0  0  0  0
    1.4867    2.6126   -0.8666 H   0  0  0  0  0  0  0  0  0  0  0  0
    3.3110    5.4237   -1.8123 H   0  0  0  0  0  0  0  0  0  0  0  0
    2.1903    7.5201   -1.8471 H   0  0  0  0  0  0  0  0  0  0  0  0
   -1.2210    7.8793    1.0812 H   0  0  0  0  0  0  0  0  0  0  0  0
   -4.0919    9.8379    1.7944 H   0  0  0  0  0  0  0  0  0  0  0  0
   -3.4088    8.4013    1.0303 H   0  0  0  0  0  0  0  0  0  0  0  0
   -2.3929    9.8729    1.3073 H   0  0  0  0  0  0  0  0  0  0  0  0
   -3.5728    8.7718    6.6332 H   0  0  0  0  0  0  0  0  0  0  0  0
   -4.0342    8.1955    5.0365 H   0  0  0  0  0  0  0  0  0  0  0  0
   -2.9666    9.6537    5.2378 H   0  0  0  0  0  0  0  0  0  0  0  0
    1.1611    5.2266    7.2249 H   0  0  0  0  0  0  0  0  0  0  0  0
    2.0250    5.9218    5.8506 H   0  0  0  0  0  0  0  0  0  0  0  0
    0.9730    4.4671    5.6403 H   0  0  0  0  0  0  0  0  0  0  0  0
    1.3452    5.6408    3.6554 H   0  0  0  0  0  0  0  0  0  0  0  0
    4.9255    4.2884    1.0840 H   0  0  0  0  0  0  0  0  0  0  0  0
    6.0428    2.0931    1.0395 H   0  0  0  0  0  0  0  0  0  0  0  0
    5.8589   -0.0650    0.4922 H   0  0  0  0  0  0  0  0  0  0  0  0
  1  2  1  0  0  0  0
  1 29  1  0  0  0  0
  1 30  1  0  0  0  0
  1 31  1  0  0  0  0
  2  3  1  0  0  0  0
  3  4  1  0  0  0  0
  3 27  2  0  0  0  0
  4  5  2  0  0  0  0
  4 32  1  0  0  0  0
  5  6  1  0  0  0  0
  5 25  1  0  0  0  0
  6  7  2  0  0  0  0
  6 24  1  0  0  0  0
  7  8  1  0  0  0  0
  7 33  1  0  0  0  0
  8  9  1  0  0  0  0
  8 34  1  0  0  0  0
  9 10  2  0  0  0  0
  9 11  1  0  0  0  0
 11 12  1  0  0  0  0
 11 24  2  0  0  0  0
 12 13  1  0  0  0  0
 12 23  2  0  0  0  0
 13 14  2  0  0  0  0
 13 35  1  0  0  0  0
 14 15  1  0  0  0  0
 14 17  1  0  0  0  0
 15 16  1  0  0  0  0
 16 36  1  0  0  0  0
 16 37  1  0  0  0  0
 16 38  1  0  0  0  0
 17 18  1  0  0  0  0
 17 20  2  0  0  0  0
 18 19  1  0  0  0  0
 19 39  1  0  0  0  0
 19 40  1  0  0  0  0
 19 41  1  0  0  0  0
 20 21  1  0  0  0  0
 20 23  1  0  0  0  0
 21 22  1  0  0  0  0
 22 42  1  0  0  0  0
 22 43  1  0  0  0  0
 22 44  1  0  0  0  0
 23 45  1  0  0  0  0
 25 26  2  0  0  0  0
 25 46  1  0  0  0  0
 26 27  1  0  0  0  0
 26 47  1  0  0  0  0
 27 28  1  0  0  0  0
 28 48  1  0  0  0  0
M  END
$$$$
