CHEMBL3690505
 OpenBabel04072215373D

 50 53  0  0  0  0  0  0  0  0999 V2000
    2.1775   -0.0287   -1.4414 C   0  0  0  0  0  0  0  0  0  0  0  0
    1.7963    0.8089   -0.3534 O   0  0  0  0  0  0  0  0  0  0  0  0
    2.8506    1.5779    0.1009 C   0  0  0  0  0  0  0  0  0  0  0  0
    3.8492    1.8746   -0.7658 N   0  0  0  0  0  0  0  0  0  0  0  0
    4.8560    2.6409   -0.2972 C   0  0  0  0  0  0  0  0  0  0  0  0
    4.9236    3.1181    1.0010 C   0  0  0  0  0  0  0  0  0  0  0  0
    3.8803    2.8142    1.8693 C   0  0  0  0  0  0  0  0  0  0  0  0
    2.8057    2.0430    1.4188 C   0  0  0  0  0  0  0  0  0  0  0  0
    1.6518    1.8312    2.3073 C   0  0  0  0  0  0  0  0  0  0  0  0
    0.5634    2.8057    2.3514 C   0  0  0  0  0  0  0  0  0  0  0  0
   -0.4983    2.5814    3.1395 C   0  0  0  0  0  0  0  0  0  0  0  0
   -0.5647    1.4075    3.8899 N   0  0  0  0  0  0  0  0  0  0  0  0
   -1.5859    0.8938    4.6789 C   0  0  0  0  0  0  0  0  0  0  0  0
   -2.9458    1.4306    4.8191 C   0  0  0  0  0  0  0  0  0  0  0  0
   -3.6072    1.3068    6.0472 C   0  0  0  0  0  0  0  0  0  0  0  0
   -4.9216    1.7418    6.1881 C   0  0  0  0  0  0  0  0  0  0  0  0
   -5.5806    2.3433    5.1176 C   0  0  0  0  0  0  0  0  0  0  0  0
   -4.9410    2.5170    3.8893 C   0  0  0  0  0  0  0  0  0  0  0  0
   -5.5387    3.1727    2.7843 N   0  0  0  0  0  0  0  0  0  0  0  0
   -6.7942    3.7338    2.7550 C   0  0  0  0  0  0  0  0  0  0  0  0
   -7.6054    3.7760    3.6720 O   0  0  0  0  0  0  0  0  0  0  0  0
   -7.1180    4.2471    1.5192 N   0  0  0  0  0  0  0  0  0  0  0  0
   -8.4439    4.8622    1.3612 C   0  0  0  0  0  0  0  0  0  0  0  0
   -8.6039    6.2807    1.9291 C   0  0  0  0  0  0  0  0  0  0  0  0
   -7.4169    6.8169    2.2965 F   0  0  0  0  0  0  0  0  0  0  0  0
   -9.1221    7.0986    0.9775 F   0  0  0  0  0  0  0  0  0  0  0  0
   -9.4354    6.3249    2.9897 F   0  0  0  0  0  0  0  0  0  0  0  0
   -3.6387    2.0171    3.7409 C   0  0  0  0  0  0  0  0  0  0  0  0
   -1.0182   -0.2317    5.2586 C   0  0  0  0  0  0  0  0  0  0  0  0
    0.2502   -0.4704    4.8024 N   0  0  0  0  0  0  0  0  0  0  0  0
    0.4898    0.4963    3.9432 C   0  0  0  0  0  0  0  0  0  0  0  0
    1.6173    0.7367    3.1036 C   0  0  0  0  0  0  0  0  0  0  0  0
    1.3701   -0.7475   -1.6096 H   0  0  0  0  0  0  0  0  0  0  0  0
    3.0836   -0.6003   -1.2080 H   0  0  0  0  0  0  0  0  0  0  0  0
    2.3075    0.5522   -2.3606 H   0  0  0  0  0  0  0  0  0  0  0  0
    5.6342    2.8731   -1.0186 H   0  0  0  0  0  0  0  0  0  0  0  0
    5.7616    3.7236    1.3266 H   0  0  0  0  0  0  0  0  0  0  0  0
    3.8981    3.1921    2.8887 H   0  0  0  0  0  0  0  0  0  0  0  0
    0.6333    3.6988    1.7386 H   0  0  0  0  0  0  0  0  0  0  0  0
   -1.3121    3.2873    3.2146 H   0  0  0  0  0  0  0  0  0  0  0  0
   -3.1119    0.8629    6.9073 H   0  0  0  0  0  0  0  0  0  0  0  0
   -5.4413    1.6172    7.1353 H   0  0  0  0  0  0  0  0  0  0  0  0
   -6.6059    2.6572    5.2814 H   0  0  0  0  0  0  0  0  0  0  0  0
   -4.9985    3.2248    1.9343 H   0  0  0  0  0  0  0  0  0  0  0  0
   -6.3605    4.6506    0.9868 H   0  0  0  0  0  0  0  0  0  0  0  0
   -9.1870    4.2058    1.8310 H   0  0  0  0  0  0  0  0  0  0  0  0
   -8.6534    4.8658    0.2875 H   0  0  0  0  0  0  0  0  0  0  0  0
   -3.1647    2.0720    2.7643 H   0  0  0  0  0  0  0  0  0  0  0  0
   -1.4836   -0.9097    5.9648 H   0  0  0  0  0  0  0  0  0  0  0  0
    2.4171    0.0043    3.1172 H   0  0  0  0  0  0  0  0  0  0  0  0
  1  2  1  0  0  0  0
  1 33  1  0  0  0  0
  1 34  1  0  0  0  0
  1 35  1  0  0  0  0
  2  3  1  0  0  0  0
  3  4  1  0  0  0  0
  3  8  2  0  0  0  0
  4  5  2  0  0  0  0
  5  6  1  0  0  0  0
  5 36  1  0  0  0  0
  6  7  2  0  0  0  0
  6 37  1  0  0  0  0
  7  8  1  0  0  0  0
  7 38  1  0  0  0  0
  8  9  1  0  0  0  0
  9 10  1  0  0  0  0
  9 32  2  0  0  0  0
 10 11  2  0  0  0  0
 10 39  1  0  0  0  0
 11 12  1  0  0  0  0
 11 40  1  0  0  0  0
 12 13  1  0  0  0  0
 12 31  1  0  0  0  0
 13 14  1  0  0  0  0
 13 29  2  0  0  0  0
 14 15  1  0  0  0  0
 14 28  2  0  0  0  0
 15 16  2  0  0  0  0
 15 41  1  0  0  0  0
 16 17  1  0  0  0  0
 16 42  1  0  0  0  0
 17 18  2  0  0  0  0
 17 43  1  0  0  0  0
 18 19  1  0  0  0  0
 18 28  1  0  0  0  0
 19 20  1  0  0  0  0
 19 44  1  0  0  0  0
 20 21  2  0  0  0  0
 20 22  1  0  0  0  0
 22 23  1  0  0  0  0
 22 45  1  0  0  0  0
 23 24  1  0  0  0  0
 23 46  1  0  0  0  0
 23 47  1  0  0  0  0
 24 25  1  0  0  0  0
 24 26  1  0  0  0  0
 24 27  1  0  0  0  0
 28 48  1  0  0  0  0
 29 30  1  0  0  0  0
 29 49  1  0  0  0  0
 30 31  2  0  0  0  0
 31 32  1  0  0  0  0
 32 50  1  0  0  0  0
M  END
$$$$
