CHEMBL3690424
 OpenBabel04072215373D

 48 51  0  0  0  0  0  0  0  0999 V2000
    1.6980    2.2277    1.1295 C   0  0  0  0  0  0  0  0  0  0  0  0
    1.0293    1.0415    0.5085 C   0  0  0  0  0  0  0  0  0  0  0  0
   -0.1664    1.2382   -0.0740 N   0  0  0  0  0  0  0  0  0  0  0  0
   -0.7457    0.1601   -0.6242 C   0  0  0  0  0  0  0  0  0  0  0  0
   -0.1775   -1.0901   -0.6178 C   0  0  0  0  0  0  0  0  0  0  0  0
    1.0645   -1.1987   -0.0183 C   0  0  0  0  0  0  0  0  0  0  0  0
    1.8156   -2.4839    0.0266 C   0  0  0  0  0  0  0  0  0  0  0  0
    2.7126   -2.8337    1.1375 C   0  0  0  0  0  0  0  0  0  0  0  0
    3.3971   -3.9920    1.1252 C   0  0  0  0  0  0  0  0  0  0  0  0
    3.2767   -4.8572    0.0353 N   0  0  0  0  0  0  0  0  0  0  0  0
    3.8799   -6.0783   -0.2540 C   0  0  0  0  0  0  0  0  0  0  0  0
    4.8693   -6.8268    0.5369 C   0  0  0  0  0  0  0  0  0  0  0  0
    4.8208   -8.2296    0.5005 C   0  0  0  0  0  0  0  0  0  0  0  0
    5.7577   -8.9974    1.1822 C   0  0  0  0  0  0  0  0  0  0  0  0
    6.7658   -8.3761    1.9133 C   0  0  0  0  0  0  0  0  0  0  0  0
    6.8666   -6.9845    1.9554 C   0  0  0  0  0  0  0  0  0  0  0  0
    7.8944   -6.3094    2.6584 N   0  0  0  0  0  0  0  0  0  0  0  0
    8.9657   -6.8996    3.2973 C   0  0  0  0  0  0  0  0  0  0  0  0
    9.2319   -8.0893    3.3465 O   0  0  0  0  0  0  0  0  0  0  0  0
    9.7543   -5.9824    3.9616 N   0  0  0  0  0  0  0  0  0  0  0  0
   10.9529   -6.4822    4.6508 C   0  0  0  0  0  0  0  0  0  0  0  0
   12.1688   -6.7835    3.7602 C   0  0  0  0  0  0  0  0  0  0  0  0
   11.9811   -6.3723    2.4851 F   0  0  0  0  0  0  0  0  0  0  0  0
   13.2548   -6.1169    4.2282 F   0  0  0  0  0  0  0  0  0  0  0  0
   12.4835   -8.0947    3.7404 F   0  0  0  0  0  0  0  0  0  0  0  0
    5.9088   -6.2165    1.2648 C   0  0  0  0  0  0  0  0  0  0  0  0
    3.2992   -6.4535   -1.4609 C   0  0  0  0  0  0  0  0  0  0  0  0
    2.4103   -5.5318   -1.9268 N   0  0  0  0  0  0  0  0  0  0  0  0
    2.4226   -4.5745   -1.0299 C   0  0  0  0  0  0  0  0  0  0  0  0
    1.7028   -3.3487   -1.0102 C   0  0  0  0  0  0  0  0  0  0  0  0
    1.6708   -0.1418    0.5668 N   0  0  0  0  0  0  0  0  0  0  0  0
    1.0902    3.1296    1.0044 H   0  0  0  0  0  0  0  0  0  0  0  0
    2.6695    2.3987    0.6569 H   0  0  0  0  0  0  0  0  0  0  0  0
    1.8459    2.0563    2.1996 H   0  0  0  0  0  0  0  0  0  0  0  0
   -1.7113    0.3349   -1.0894 H   0  0  0  0  0  0  0  0  0  0  0  0
   -0.6934   -1.9284   -1.0650 H   0  0  0  0  0  0  0  0  0  0  0  0
    2.8021   -2.1348    1.9642 H   0  0  0  0  0  0  0  0  0  0  0  0
    4.0427   -4.2812    1.9416 H   0  0  0  0  0  0  0  0  0  0  0  0
    4.0524   -8.7490   -0.0683 H   0  0  0  0  0  0  0  0  0  0  0  0
    5.7122  -10.0827    1.1409 H   0  0  0  0  0  0  0  0  0  0  0  0
    7.4621   -9.0220    2.4369 H   0  0  0  0  0  0  0  0  0  0  0  0
    7.8471   -5.3023    2.6854 H   0  0  0  0  0  0  0  0  0  0  0  0
    9.8049   -5.0556    3.5672 H   0  0  0  0  0  0  0  0  0  0  0  0
   10.6829   -7.3923    5.2015 H   0  0  0  0  0  0  0  0  0  0  0  0
   11.2170   -5.7245    5.3942 H   0  0  0  0  0  0  0  0  0  0  0  0
    6.0034   -5.1351    1.2608 H   0  0  0  0  0  0  0  0  0  0  0  0
    3.4918   -7.3571   -2.0263 H   0  0  0  0  0  0  0  0  0  0  0  0
    1.0836   -3.1541   -1.8794 H   0  0  0  0  0  0  0  0  0  0  0  0
  1  2  1  0  0  0  0
  1 32  1  0  0  0  0
  1 33  1  0  0  0  0
  1 34  1  0  0  0  0
  2  3  1  0  0  0  0
  2 31  2  0  0  0  0
  3  4  2  0  0  0  0
  4  5  1  0  0  0  0
  4 35  1  0  0  0  0
  5  6  2  0  0  0  0
  5 36  1  0  0  0  0
  6  7  1  0  0  0  0
  6 31  1  0  0  0  0
  7  8  1  0  0  0  0
  7 30  2  0  0  0  0
  8  9  2  0  0  0  0
  8 37  1  0  0  0  0
  9 10  1  0  0  0  0
  9 38  1  0  0  0  0
 10 11  1  0  0  0  0
 10 29  1  0  0  0  0
 11 12  1  0  0  0  0
 11 27  2  0  0  0  0
 12 13  1  0  0  0  0
 12 26  2  0  0  0  0
 13 14  2  0  0  0  0
 13 39  1  0  0  0  0
 14 15  1  0  0  0  0
 14 40  1  0  0  0  0
 15 16  2  0  0  0  0
 15 41  1  0  0  0  0
 16 17  1  0  0  0  0
 16 26  1  0  0  0  0
 17 18  1  0  0  0  0
 17 42  1  0  0  0  0
 18 19  2  0  0  0  0
 18 20  1  0  0  0  0
 20 21  1  0  0  0  0
 20 43  1  0  0  0  0
 21 22  1  0  0  0  0
 21 44  1  0  0  0  0
 21 45  1  0  0  0  0
 22 23  1  0  0  0  0
 22 24  1  0  0  0  0
 22 25  1  0  0  0  0
 26 46  1  0  0  0  0
 27 28  1  0  0  0  0
 27 47  1  0  0  0  0
 28 29  2  0  0  0  0
 29 30  1  0  0  0  0
 30 48  1  0  0  0  0
M  END
$$$$
