CHEMBL179082
 OpenBabel04072215363D

 52 55  0  0  0  0  0  0  0  0999 V2000
    5.1986   -2.0480    0.2017 C   0  0  0  0  0  0  0  0  0  0  0  0
    4.0409   -1.2784    0.5354 O   0  0  0  0  0  0  0  0  0  0  0  0
    4.2811   -0.0970    1.1864 C   0  0  0  0  0  0  0  0  0  0  0  0
    5.4872    0.6083    1.0290 C   0  0  0  0  0  0  0  0  0  0  0  0
    5.8192    1.7125    1.8041 C   0  0  0  0  0  0  0  0  0  0  0  0
    7.0475    2.2399    1.6624 N   0  0  0  0  0  0  0  0  0  0  0  0
    7.4098    3.2460    2.4823 C   0  0  0  0  0  0  0  0  0  0  0  0
    6.6021    3.7436    3.4825 C   0  0  0  0  0  0  0  0  0  0  0  0
    5.3276    3.2033    3.6323 C   0  0  0  0  0  0  0  0  0  0  0  0
    4.6197    3.7482    4.6949 O   0  0  0  0  0  0  0  0  0  0  0  0
    3.7375    2.9842    5.4273 C   0  0  0  0  0  0  0  0  0  0  0  0
    3.9019    1.6272    5.6911 C   0  0  0  0  0  0  0  0  0  0  0  0
    2.8295    0.8842    6.1975 C   0  0  0  0  0  0  0  0  0  0  0  0
    1.6164    1.4941    6.5315 C   0  0  0  0  0  0  0  0  0  0  0  0
    0.4689    0.7735    6.9428 N   0  0  0  0  0  0  0  0  0  0  0  0
    0.3400   -0.6006    6.9765 C   0  0  0  0  0  0  0  0  0  0  0  0
    1.2056   -1.4106    6.6687 O   0  0  0  0  0  0  0  0  0  0  0  0
   -0.9395   -0.9981    7.3575 N   0  0  0  0  0  0  0  0  0  0  0  0
   -1.2058   -2.3979    7.5031 C   0  0  0  0  0  0  0  0  0  0  0  0
   -0.4493   -3.2308    8.3511 C   0  0  0  0  0  0  0  0  0  0  0  0
    0.7046   -2.6099    9.4856 Cl  0  0  0  0  0  0  0  0  0  0  0  0
   -0.6745   -4.6130    8.3749 C   0  0  0  0  0  0  0  0  0  0  0  0
   -1.6707   -5.1783    7.5811 C   0  0  0  0  0  0  0  0  0  0  0  0
   -2.4650   -4.3590    6.7809 C   0  0  0  0  0  0  0  0  0  0  0  0
   -2.2407   -2.9780    6.7504 C   0  0  0  0  0  0  0  0  0  0  0  0
   -3.2344   -2.0153    5.7103 Cl  0  0  0  0  0  0  0  0  0  0  0  0
    1.5248    2.8869    6.4251 C   0  0  0  0  0  0  0  0  0  0  0  0
    2.5797    3.6277    5.8708 C   0  0  0  0  0  0  0  0  0  0  0  0
    4.8794    2.2028    2.7266 C   0  0  0  0  0  0  0  0  0  0  0  0
    3.5867    1.6349    2.6924 C   0  0  0  0  0  0  0  0  0  0  0  0
    3.2986    0.4510    2.0066 C   0  0  0  0  0  0  0  0  0  0  0  0
    2.0431    0.0034    2.3008 O   0  0  0  0  0  0  0  0  0  0  0  0
    1.6906   -1.3455    2.0520 C   0  0  0  0  0  0  0  0  0  0  0  0
    4.9186   -3.1055    0.2038 H   0  0  0  0  0  0  0  0  0  0  0  0
    6.0174   -1.9351    0.9234 H   0  0  0  0  0  0  0  0  0  0  0  0
    5.5369   -1.7839   -0.8052 H   0  0  0  0  0  0  0  0  0  0  0  0
    6.2315    0.2754    0.3100 H   0  0  0  0  0  0  0  0  0  0  0  0
    8.4090    3.6398    2.3175 H   0  0  0  0  0  0  0  0  0  0  0  0
    6.9617    4.5262    4.1414 H   0  0  0  0  0  0  0  0  0  0  0  0
    4.8081    1.1007    5.4061 H   0  0  0  0  0  0  0  0  0  0  0  0
    2.9727   -0.1879    6.2753 H   0  0  0  0  0  0  0  0  0  0  0  0
   -0.3387    1.3113    7.2202 H   0  0  0  0  0  0  0  0  0  0  0  0
   -1.6607   -0.4907    6.8584 H   0  0  0  0  0  0  0  0  0  0  0  0
   -0.0739   -5.2530    9.0179 H   0  0  0  0  0  0  0  0  0  0  0  0
   -1.8322   -6.2539    7.5956 H   0  0  0  0  0  0  0  0  0  0  0  0
   -3.2459   -4.8050    6.1692 H   0  0  0  0  0  0  0  0  0  0  0  0
    0.6211    3.4134    6.7188 H   0  0  0  0  0  0  0  0  0  0  0  0
    2.4741    4.7005    5.7335 H   0  0  0  0  0  0  0  0  0  0  0  0
    2.7822    2.0667    3.2806 H   0  0  0  0  0  0  0  0  0  0  0  0
    0.8909   -1.6049    2.7560 H   0  0  0  0  0  0  0  0  0  0  0  0
    2.5033   -2.0551    2.2276 H   0  0  0  0  0  0  0  0  0  0  0  0
    1.2833   -1.4337    1.0419 H   0  0  0  0  0  0  0  0  0  0  0  0
  1  2  1  0  0  0  0
  1 34  1  0  0  0  0
  1 35  1  0  0  0  0
  1 36  1  0  0  0  0
  2  3  1  0  0  0  0
  3  4  1  0  0  0  0
  3 31  2  0  0  0  0
  4  5  2  0  0  0  0
  4 37  1  0  0  0  0
  5  6  1  0  0  0  0
  5 29  1  0  0  0  0
  6  7  2  0  0  0  0
  7  8  1  0  0  0  0
  7 38  1  0  0  0  0
  8  9  2  0  0  0  0
  8 39  1  0  0  0  0
  9 10  1  0  0  0  0
  9 29  1  0  0  0  0
 10 11  1  0  0  0  0
 11 12  1  0  0  0  0
 11 28  2  0  0  0  0
 12 13  2  0  0  0  0
 12 40  1  0  0  0  0
 13 14  1  0  0  0  0
 13 41  1  0  0  0  0
 14 15  1  0  0  0  0
 14 27  2  0  0  0  0
 15 16  1  0  0  0  0
 15 42  1  0  0  0  0
 16 17  2  0  0  0  0
 16 18  1  0  0  0  0
 18 19  1  0  0  0  0
 18 43  1  0  0  0  0
 19 20  1  0  0  0  0
 19 25  2  0  0  0  0
 20 21  1  0  0  0  0
 20 22  2  0  0  0  0
 22 23  1  0  0  0  0
 22 44  1  0  0  0  0
 23 24  2  0  0  0  0
 23 45  1  0  0  0  0
 24 25  1  0  0  0  0
 24 46  1  0  0  0  0
 25 26  1  0  0  0  0
 27 28  1  0  0  0  0
 27 47  1  0  0  0  0
 28 48  1  0  0  0  0
 29 30  2  0  0  0  0
 30 31  1  0  0  0  0
 30 49  1  0  0  0  0
 31 32  1  0  0  0  0
 32 33  1  0  0  0  0
 33 50  1  0  0  0  0
 33 51  1  0  0  0  0
 33 52  1  0  0  0  0
M  END
$$$$
