CHEMBL3660285
 OpenBabel04072215373D

 72 76  0  0  0  0  0  0  0  0999 V2000
    2.8810    7.1219    2.5306 C   0  0  0  0  0  0  0  0  0  0  0  0
    1.7587    6.1459    2.3233 C   0  0  0  0  0  0  0  0  0  0  0  0
    2.0417    4.8389    1.9147 C   0  0  0  0  0  0  0  0  0  0  0  0
    1.0093    3.9235    1.7551 C   0  0  0  0  0  0  0  0  0  0  0  0
   -0.3087    4.3100    1.9803 C   0  0  0  0  0  0  0  0  0  0  0  0
   -1.2212    3.3312    1.9406 F   0  0  0  0  0  0  0  0  0  0  0  0
   -0.6380    5.6304    2.3230 C   0  0  0  0  0  0  0  0  0  0  0  0
   -1.9667    6.1204    2.4786 N   0  0  0  0  0  0  0  0  0  0  0  0
   -3.0954    5.5294    1.9482 C   0  0  0  0  0  0  0  0  0  0  0  0
   -3.1082    4.5235    1.2528 O   0  0  0  0  0  0  0  0  0  0  0  0
   -4.2583    6.2463    2.2287 N   0  0  0  0  0  0  0  0  0  0  0  0
   -5.5039    5.6913    1.8357 C   0  0  0  0  0  0  0  0  0  0  0  0
   -5.8177    4.3669    2.1616 C   0  0  0  0  0  0  0  0  0  0  0  0
   -6.9827    3.7741    1.6768 C   0  0  0  0  0  0  0  0  0  0  0  0
   -7.8752    4.5202    0.9071 C   0  0  0  0  0  0  0  0  0  0  0  0
   -9.0449    4.0146    0.3828 O   0  0  0  0  0  0  0  0  0  0  0  0
   -9.7420    3.0590    1.0890 C   0  0  0  0  0  0  0  0  0  0  0  0
   -9.8653    3.0422    2.4723 C   0  0  0  0  0  0  0  0  0  0  0  0
  -10.5685    2.0004    3.0527 C   0  0  0  0  0  0  0  0  0  0  0  0
  -11.1922    1.0248    2.3528 N   0  0  0  0  0  0  0  0  0  0  0  0
  -11.1137    1.1042    1.0040 C   0  0  0  0  0  0  0  0  0  0  0  0
  -11.8437    0.0655    0.2914 C   0  0  0  0  0  0  0  0  0  0  0  0
  -12.1186   -0.0758   -1.0526 C   0  0  0  0  0  0  0  0  0  0  0  0
  -12.7786   -1.3190   -1.2718 C   0  0  0  0  0  0  0  0  0  0  0  0
  -13.2263   -1.9148   -2.5329 C   0  0  0  0  0  0  0  0  0  0  0  0
  -14.2309   -2.6239   -2.5607 O   0  0  0  0  0  0  0  0  0  0  0  0
  -12.5007   -1.6168   -3.6943 N   0  0  0  0  0  0  0  0  0  0  0  0
  -13.1211   -1.8761   -4.9885 C   0  0  0  0  0  0  0  0  0  0  0  0
  -12.2547   -2.7953   -5.8432 C   0  0  0  0  0  0  0  0  0  0  0  0
  -10.8119   -2.2756   -5.9928 C   0  0  0  0  0  0  0  0  0  0  0  0
  -10.7012   -1.0098   -6.8643 C   0  0  0  0  0  0  0  0  0  0  0  0
  -11.1217   -1.2487   -8.2965 C   0  0  0  0  0  0  0  0  0  0  0  0
  -11.0461   -2.3194   -8.8762 O   0  0  0  0  0  0  0  0  0  0  0  0
  -11.5690   -0.1276   -8.9059 O   0  0  0  0  0  0  0  0  0  0  0  0
  -10.2278   -2.0263   -4.5957 C   0  0  0  0  0  0  0  0  0  0  0  0
  -11.1180   -1.1363   -3.7310 C   0  0  0  0  0  0  0  0  0  0  0  0
  -13.0098   -1.8382   -0.0091 C   0  0  0  0  0  0  0  0  0  0  0  0
  -12.4373   -1.0097    0.9189 N   0  0  0  0  0  0  0  0  0  0  0  0
  -10.3984    2.0920    0.3382 C   0  0  0  0  0  0  0  0  0  0  0  0
   -7.5630    5.8429    0.5769 C   0  0  0  0  0  0  0  0  0  0  0  0
   -6.3916    6.4399    1.0621 C   0  0  0  0  0  0  0  0  0  0  0  0
    0.4189    6.5345    2.5283 C   0  0  0  0  0  0  0  0  0  0  0  0
    3.8540    6.6549    2.3398 H   0  0  0  0  0  0  0  0  0  0  0  0
    2.8839    7.4816    3.5640 H   0  0  0  0  0  0  0  0  0  0  0  0
    2.7789    7.9697    1.8467 H   0  0  0  0  0  0  0  0  0  0  0  0
    3.0652    4.5173    1.7366 H   0  0  0  0  0  0  0  0  0  0  0  0
    1.2138    2.8962    1.4703 H   0  0  0  0  0  0  0  0  0  0  0  0
   -2.0738    7.0417    2.8711 H   0  0  0  0  0  0  0  0  0  0  0  0
   -4.1655    7.2454    2.1200 H   0  0  0  0  0  0  0  0  0  0  0  0
   -5.1395    3.7737    2.7713 H   0  0  0  0  0  0  0  0  0  0  0  0
   -7.1637    2.7269    1.9003 H   0  0  0  0  0  0  0  0  0  0  0  0
   -9.4120    3.8040    3.0952 H   0  0  0  0  0  0  0  0  0  0  0  0
  -10.6494    1.9225    4.1330 H   0  0  0  0  0  0  0  0  0  0  0  0
  -11.8394    0.6349   -1.8168 H   0  0  0  0  0  0  0  0  0  0  0  0
  -13.2582   -0.9060   -5.4806 H   0  0  0  0  0  0  0  0  0  0  0  0
  -14.1200   -2.3088   -4.8750 H   0  0  0  0  0  0  0  0  0  0  0  0
  -12.7238   -2.9420   -6.8212 H   0  0  0  0  0  0  0  0  0  0  0  0
  -12.2180   -3.7821   -5.3627 H   0  0  0  0  0  0  0  0  0  0  0  0
  -10.2167   -3.0671   -6.4667 H   0  0  0  0  0  0  0  0  0  0  0  0
   -9.6598   -0.6664   -6.8926 H   0  0  0  0  0  0  0  0  0  0  0  0
  -11.3044   -0.2000   -6.4421 H   0  0  0  0  0  0  0  0  0  0  0  0
  -11.5589    0.6712   -8.3464 H   0  0  0  0  0  0  0  0  0  0  0  0
   -9.2266   -1.5851   -4.6672 H   0  0  0  0  0  0  0  0  0  0  0  0
  -10.1093   -2.9924   -4.0878 H   0  0  0  0  0  0  0  0  0  0  0  0
  -11.1363   -0.1089   -4.1122 H   0  0  0  0  0  0  0  0  0  0  0  0
  -10.6667   -1.1237   -2.7388 H   0  0  0  0  0  0  0  0  0  0  0  0
  -13.5329   -2.7355    0.2990 H   0  0  0  0  0  0  0  0  0  0  0  0
  -12.4379   -1.1360    1.9245 H   0  0  0  0  0  0  0  0  0  0  0  0
  -10.3417    2.1192   -0.7437 H   0  0  0  0  0  0  0  0  0  0  0  0
   -8.2217    6.4047   -0.0808 H   0  0  0  0  0  0  0  0  0  0  0  0
   -6.1533    7.4560    0.7632 H   0  0  0  0  0  0  0  0  0  0  0  0
    0.2133    7.5603    2.8257 H   0  0  0  0  0  0  0  0  0  0  0  0
  1  2  1  0  0  0  0
  1 43  1  0  0  0  0
  1 44  1  0  0  0  0
  1 45  1  0  0  0  0
  2  3  1  0  0  0  0
  2 42  2  0  0  0  0
  3  4  2  0  0  0  0
  3 46  1  0  0  0  0
  4  5  1  0  0  0  0
  4 47  1  0  0  0  0
  5  6  1  0  0  0  0
  5  7  2  0  0  0  0
  7  8  1  0  0  0  0
  7 42  1  0  0  0  0
  8  9  1  0  0  0  0
  8 48  1  0  0  0  0
  9 10  2  0  0  0  0
  9 11  1  0  0  0  0
 11 12  1  0  0  0  0
 11 49  1  0  0  0  0
 12 13  1  0  0  0  0
 12 41  2  0  0  0  0
 13 14  2  0  0  0  0
 13 50  1  0  0  0  0
 14 15  1  0  0  0  0
 14 51  1  0  0  0  0
 15 16  1  0  0  0  0
 15 40  2  0  0  0  0
 16 17  1  0  0  0  0
 17 18  1  0  0  0  0
 17 39  2  0  0  0  0
 18 19  2  0  0  0  0
 18 52  1  0  0  0  0
 19 20  1  0  0  0  0
 19 53  1  0  0  0  0
 20 21  2  0  0  0  0
 21 22  1  0  0  0  0
 21 39  1  0  0  0  0
 22 23  2  0  0  0  0
 22 38  1  0  0  0  0
 23 24  1  0  0  0  0
 23 54  1  0  0  0  0
 24 25  1  0  0  0  0
 24 37  2  0  0  0  0
 25 26  2  0  0  0  0
 25 27  1  0  0  0  0
 27 28  1  0  0  0  0
 27 36  1  0  0  0  0
 28 29  1  0  0  0  0
 28 55  1  0  0  0  0
 28 56  1  0  0  0  0
 29 30  1  0  0  0  0
 29 57  1  0  0  0  0
 29 58  1  0  0  0  0
 30 31  1  0  0  0  0
 30 35  1  0  0  0  0
 30 59  1  0  0  0  0
 31 32  1  0  0  0  0
 31 60  1  0  0  0  0
 31 61  1  0  0  0  0
 32 33  2  0  0  0  0
 32 34  1  0  0  0  0
 34 62  1  0  0  0  0
 35 36  1  0  0  0  0
 35 63  1  0  0  0  0
 35 64  1  0  0  0  0
 36 65  1  0  0  0  0
 36 66  1  0  0  0  0
 37 38  1  0  0  0  0
 37 67  1  0  0  0  0
 38 68  1  0  0  0  0
 39 69  1  0  0  0  0
 40 41  1  0  0  0  0
 40 70  1  0  0  0  0
 41 71  1  0  0  0  0
 42 72  1  0  0  0  0
M  END
$$$$
