CHEMBL3114026
 OpenBabel04072215363D

 43 46  0  0  0  0  0  0  0  0999 V2000
    1.0366   -0.1275   -0.0436 C   0  0  0  0  0  0  0  0  0  0  0  0
    2.5018   -0.0380   -0.0086 N   0  0  0  0  0  0  0  0  0  0  0  0
    3.1600   -0.6489    1.0988 C   0  0  0  0  0  0  0  0  0  0  0  0
    4.4095   -0.0836    1.5626 C   0  0  0  0  0  0  0  0  0  0  0  0
    5.1310   -0.5029    2.7057 C   0  0  0  0  0  0  0  0  0  0  0  0
    4.4744   -1.5430    3.3428 C   0  0  0  0  0  0  0  0  0  0  0  0
    4.8720   -2.1489    4.5021 C   0  0  0  0  0  0  0  0  0  0  0  0
    3.9117   -3.0894    4.7436 N   0  0  0  0  0  0  0  0  0  0  0  0
    3.8493   -3.9895    5.8698 C   0  0  0  0  0  0  0  0  0  0  0  0
    2.9344   -3.1400    3.8148 N   0  0  0  0  0  0  0  0  0  0  0  0
    3.2528   -2.1762    2.9336 C   0  0  0  0  0  0  0  0  0  0  0  0
    2.5765   -1.7549    1.7769 C   0  0  0  0  0  0  0  0  0  0  0  0
    3.1293    0.5097   -1.1607 C   0  0  0  0  0  0  0  0  0  0  0  0
    2.4677    1.4464   -1.9413 C   0  0  0  0  0  0  0  0  0  0  0  0
    3.1241    1.9298   -3.0412 C   0  0  0  0  0  0  0  0  0  0  0  0
    4.3424    1.5223   -3.3896 N   0  0  0  0  0  0  0  0  0  0  0  0
    4.9327    0.6002   -2.6153 C   0  0  0  0  0  0  0  0  0  0  0  0
    6.1895    0.1264   -2.9984 N   0  0  0  0  0  0  0  0  0  0  0  0
    6.6960    0.0602   -4.3092 C   0  0  0  0  0  0  0  0  0  0  0  0
    8.0770    0.1509   -4.5337 C   0  0  0  0  0  0  0  0  0  0  0  0
    8.5891    0.2095   -5.8375 C   0  0  0  0  0  0  0  0  0  0  0  0
    7.7274    0.1562   -6.9317 C   0  0  0  0  0  0  0  0  0  0  0  0
    6.3643    0.0300   -6.7141 C   0  0  0  0  0  0  0  0  0  0  0  0
    5.5280   -0.0301   -7.7595 F   0  0  0  0  0  0  0  0  0  0  0  0
    5.8500   -0.0201   -5.4253 C   0  0  0  0  0  0  0  0  0  0  0  0
    4.3807    0.1106   -1.4960 N   0  0  0  0  0  0  0  0  0  0  0  0
    0.5905   -0.5176    0.8766 H   0  0  0  0  0  0  0  0  0  0  0  0
    0.7075   -0.7645   -0.8726 H   0  0  0  0  0  0  0  0  0  0  0  0
    0.5791    0.8620   -0.1473 H   0  0  0  0  0  0  0  0  0  0  0  0
    4.8246    0.7607    1.0097 H   0  0  0  0  0  0  0  0  0  0  0  0
    6.0517   -0.0392    3.0282 H   0  0  0  0  0  0  0  0  0  0  0  0
    5.7137   -1.9973    5.1620 H   0  0  0  0  0  0  0  0  0  0  0  0
    4.7147   -3.8257    6.5161 H   0  0  0  0  0  0  0  0  0  0  0  0
    3.8530   -5.0147    5.4914 H   0  0  0  0  0  0  0  0  0  0  0  0
    2.9275   -3.7868    6.4213 H   0  0  0  0  0  0  0  0  0  0  0  0
    1.6737   -2.2571    1.4650 H   0  0  0  0  0  0  0  0  0  0  0  0
    1.4844    1.8284   -1.7216 H   0  0  0  0  0  0  0  0  0  0  0  0
    2.6771    2.6730   -3.6922 H   0  0  0  0  0  0  0  0  0  0  0  0
    6.5449   -0.5496   -2.3372 H   0  0  0  0  0  0  0  0  0  0  0  0
    8.7613    0.2318   -3.6931 H   0  0  0  0  0  0  0  0  0  0  0  0
    9.6580    0.3216   -5.9975 H   0  0  0  0  0  0  0  0  0  0  0  0
    8.1032    0.2192   -7.9471 H   0  0  0  0  0  0  0  0  0  0  0  0
    4.7749   -0.1129   -5.3071 H   0  0  0  0  0  0  0  0  0  0  0  0
  1  2  1  0  0  0  0
  1 27  1  0  0  0  0
  1 28  1  0  0  0  0
  1 29  1  0  0  0  0
  2  3  1  0  0  0  0
  2 13  1  0  0  0  0
  3  4  1  0  0  0  0
  3 12  2  0  0  0  0
  4  5  2  0  0  0  0
  4 30  1  0  0  0  0
  5  6  1  0  0  0  0
  5 31  1  0  0  0  0
  6  7  2  0  0  0  0
  6 11  1  0  0  0  0
  7  8  1  0  0  0  0
  7 32  1  0  0  0  0
  8  9  1  0  0  0  0
  8 10  1  0  0  0  0
  9 33  1  0  0  0  0
  9 34  1  0  0  0  0
  9 35  1  0  0  0  0
 10 11  2  0  0  0  0
 11 12  1  0  0  0  0
 12 36  1  0  0  0  0
 13 14  1  0  0  0  0
 13 26  2  0  0  0  0
 14 15  2  0  0  0  0
 14 37  1  0  0  0  0
 15 16  1  0  0  0  0
 15 38  1  0  0  0  0
 16 17  2  0  0  0  0
 17 18  1  0  0  0  0
 17 26  1  0  0  0  0
 18 19  1  0  0  0  0
 18 39  1  0  0  0  0
 19 20  1  0  0  0  0
 19 25  2  0  0  0  0
 20 21  2  0  0  0  0
 20 40  1  0  0  0  0
 21 22  1  0  0  0  0
 21 41  1  0  0  0  0
 22 23  2  0  0  0  0
 22 42  1  0  0  0  0
 23 24  1  0  0  0  0
 23 25  1  0  0  0  0
 25 43  1  0  0  0  0
M  END
$$$$
