CHEMBL1242028
 OpenBabel04072215363D

 35 37  0  0  0  0  0  0  0  0999 V2000
    1.0400    0.2044   -0.0449 C   0  0  0  0  0  0  0  0  0  0  0  0
    2.5602    0.1550    0.1109 C   0  0  0  0  0  0  0  0  0  0  0  0
    3.2533    0.5188   -1.2037 C   0  0  0  0  0  0  0  0  0  0  0  0
    2.9925    1.0109    1.2090 N   0  0  0  0  0  0  0  0  0  0  0  0
    2.7359    2.3386    1.1649 N   0  0  0  0  0  0  0  0  0  0  0  0
    3.1830    2.8061    2.3431 C   0  0  0  0  0  0  0  0  0  0  0  0
    3.1174    4.2225    2.6484 C   0  0  0  0  0  0  0  0  0  0  0  0
    2.0778    5.0136    2.1197 C   0  0  0  0  0  0  0  0  0  0  0  0
    2.0130    6.3457    2.4941 C   0  0  0  0  0  0  0  0  0  0  0  0
    1.0258    7.1162    2.0108 F   0  0  0  0  0  0  0  0  0  0  0  0
    2.9313    6.9149    3.3802 C   0  0  0  0  0  0  0  0  0  0  0  0
    2.8467    8.2157    3.7536 O   0  0  0  0  0  0  0  0  0  0  0  0
    3.9663    6.1547    3.8833 C   0  0  0  0  0  0  0  0  0  0  0  0
    4.0539    4.8526    3.4733 C   0  0  0  0  0  0  0  0  0  0  0  0
    5.1057    4.1657    3.9500 F   0  0  0  0  0  0  0  0  0  0  0  0
    3.6834    1.7483    3.1676 C   0  0  0  0  0  0  0  0  0  0  0  0
    4.1682    1.5785    4.4752 C   0  0  0  0  0  0  0  0  0  0  0  0
    4.2055    2.5443    5.4801 N   0  0  0  0  0  0  0  0  0  0  0  0
    4.6106    0.3516    4.8438 N   0  0  0  0  0  0  0  0  0  0  0  0
    4.4835   -0.6594    3.9595 C   0  0  0  0  0  0  0  0  0  0  0  0
    3.9704   -0.6267    2.7224 N   0  0  0  0  0  0  0  0  0  0  0  0
    3.5872    0.6198    2.3828 C   0  0  0  0  0  0  0  0  0  0  0  0
    0.7070   -0.4651   -0.8464 H   0  0  0  0  0  0  0  0  0  0  0  0
    0.6922    1.2143   -0.2868 H   0  0  0  0  0  0  0  0  0  0  0  0
    0.5432   -0.1030    0.8821 H   0  0  0  0  0  0  0  0  0  0  0  0
    2.8464   -0.8701    0.3722 H   0  0  0  0  0  0  0  0  0  0  0  0
    3.0249    1.5460   -1.5121 H   0  0  0  0  0  0  0  0  0  0  0  0
    2.9310   -0.1497   -2.0075 H   0  0  0  0  0  0  0  0  0  0  0  0
    4.3412    0.4340   -1.1093 H   0  0  0  0  0  0  0  0  0  0  0  0
    1.3527    4.5960    1.4481 H   0  0  0  0  0  0  0  0  0  0  0  0
    2.0788    8.5972    3.2904 H   0  0  0  0  0  0  0  0  0  0  0  0
    4.6930    6.5652    4.5743 H   0  0  0  0  0  0  0  0  0  0  0  0
    4.2888    3.4908    5.1441 H   0  0  0  0  0  0  0  0  0  0  0  0
    4.8947    2.3403    6.1750 H   0  0  0  0  0  0  0  0  0  0  0  0
    4.8363   -1.6117    4.3202 H   0  0  0  0  0  0  0  0  0  0  0  0
  1  2  1  0  0  0  0
  1 23  1  0  0  0  0
  1 24  1  0  0  0  0
  1 25  1  0  0  0  0
  2  3  1  0  0  0  0
  2  4  1  0  0  0  0
  2 26  1  0  0  0  0
  3 27  1  0  0  0  0
  3 28  1  0  0  0  0
  3 29  1  0  0  0  0
  4  5  1  0  0  0  0
  4 22  1  0  0  0  0
  5  6  2  0  0  0  0
  6  7  1  0  0  0  0
  6 16  1  0  0  0  0
  7  8  1  0  0  0  0
  7 14  2  0  0  0  0
  8  9  2  0  0  0  0
  8 30  1  0  0  0  0
  9 10  1  0  0  0  0
  9 11  1  0  0  0  0
 11 12  1  0  0  0  0
 11 13  2  0  0  0  0
 12 31  1  0  0  0  0
 13 14  1  0  0  0  0
 13 32  1  0  0  0  0
 14 15  1  0  0  0  0
 16 17  1  0  0  0  0
 16 22  2  0  0  0  0
 17 18  1  0  0  0  0
 17 19  2  0  0  0  0
 18 33  1  0  0  0  0
 18 34  1  0  0  0  0
 19 20  1  0  0  0  0
 20 21  2  0  0  0  0
 20 35  1  0  0  0  0
 21 22  1  0  0  0  0
M  END
$$$$
