CHEMBL3354191
 OpenBabel04072215363D

 54 57  0  0  0  0  0  0  0  0999 V2000
    1.3604    0.5239    0.3024 C   0  0  0  0  0  0  0  0  0  0  0  0
    1.3920   -0.1218   -0.9562 O   0  0  0  0  0  0  0  0  0  0  0  0
    2.2429    0.4783   -1.9408 C   0  0  0  0  0  0  0  0  0  0  0  0
    2.0337   -0.3324   -3.2216 C   0  0  0  0  0  0  0  0  0  0  0  0
    2.4977   -1.7669   -2.9836 C   0  0  0  0  0  0  0  0  0  0  0  0
    3.9032   -1.7615   -2.5999 N   0  0  0  0  0  0  0  0  0  0  0  0
    4.8533   -2.2806   -3.4443 C   0  0  0  0  0  0  0  0  0  0  0  0
    6.1308   -2.3342   -3.0510 N   0  0  0  0  0  0  0  0  0  0  0  0
    7.0168   -2.8796   -3.9031 C   0  0  0  0  0  0  0  0  0  0  0  0
    6.6805   -3.3564   -5.1449 C   0  0  0  0  0  0  0  0  0  0  0  0
    5.3518   -3.2781   -5.4855 C   0  0  0  0  0  0  0  0  0  0  0  0
    4.9275   -3.8507   -6.6977 N   0  0  0  0  0  0  0  0  0  0  0  0
    3.6223   -4.1656   -7.1006 C   0  0  0  0  0  0  0  0  0  0  0  0
    2.6280   -4.4533   -6.1696 C   0  0  0  0  0  0  0  0  0  0  0  0
    1.3510   -4.6989   -6.6648 C   0  0  0  0  0  0  0  0  0  0  0  0
    1.0987   -4.7408   -8.0295 C   0  0  0  0  0  0  0  0  0  0  0  0
    2.1620   -4.5220   -8.9100 C   0  0  0  0  0  0  0  0  0  0  0  0
    3.4043   -4.2228   -8.4333 N   0  0  0  0  0  0  0  0  0  0  0  0
   -0.2856   -5.0196   -8.1234 C   0  0  0  0  0  0  0  0  0  0  0  0
   -0.9697   -5.1581   -9.2707 N   0  0  0  0  0  0  0  0  0  0  0  0
   -0.8644   -5.1337   -6.9319 N   0  0  0  0  0  0  0  0  0  0  0  0
    0.1382   -4.9039   -6.0583 N   0  0  0  0  0  0  0  0  0  0  0  0
   -0.1456   -4.8348   -4.6262 C   0  0  0  0  0  0  0  0  0  0  0  0
   -1.1108   -3.6972   -4.2959 C   0  0  0  0  0  0  0  0  0  0  0  0
   -0.6526   -6.1693   -4.0810 C   0  0  0  0  0  0  0  0  0  0  0  0
    4.4575   -2.7465   -4.6354 N   0  0  0  0  0  0  0  0  0  0  0  0
    4.2821   -0.9660   -1.4409 C   0  0  0  0  0  0  0  0  0  0  0  0
    3.7338    0.4585   -1.5747 C   0  0  0  0  0  0  0  0  0  0  0  0
    0.5491    0.0740    0.8827 H   0  0  0  0  0  0  0  0  0  0  0  0
    1.1635    1.5929    0.1948 H   0  0  0  0  0  0  0  0  0  0  0  0
    2.2936    0.3513    0.8437 H   0  0  0  0  0  0  0  0  0  0  0  0
    1.9130    1.5107   -2.1095 H   0  0  0  0  0  0  0  0  0  0  0  0
    2.5929    0.1150   -4.0527 H   0  0  0  0  0  0  0  0  0  0  0  0
    0.9725   -0.3406   -3.4956 H   0  0  0  0  0  0  0  0  0  0  0  0
    2.2789   -2.3682   -3.8710 H   0  0  0  0  0  0  0  0  0  0  0  0
    1.9142   -2.2292   -2.1769 H   0  0  0  0  0  0  0  0  0  0  0  0
    8.0350   -2.9362   -3.5371 H   0  0  0  0  0  0  0  0  0  0  0  0
    7.4171   -3.8048   -5.7943 H   0  0  0  0  0  0  0  0  0  0  0  0
    5.4681   -3.5781   -7.5072 H   0  0  0  0  0  0  0  0  0  0  0  0
    2.8315   -4.4592   -5.1057 H   0  0  0  0  0  0  0  0  0  0  0  0
    2.0560   -4.5602   -9.9855 H   0  0  0  0  0  0  0  0  0  0  0  0
   -0.5077   -5.3789  -10.1386 H   0  0  0  0  0  0  0  0  0  0  0  0
   -1.9041   -5.5424   -9.1880 H   0  0  0  0  0  0  0  0  0  0  0  0
    0.8029   -4.6159   -4.1208 H   0  0  0  0  0  0  0  0  0  0  0  0
   -2.0856   -3.8432   -4.7738 H   0  0  0  0  0  0  0  0  0  0  0  0
   -0.7114   -2.7365   -4.6375 H   0  0  0  0  0  0  0  0  0  0  0  0
   -1.2729   -3.6283   -3.2144 H   0  0  0  0  0  0  0  0  0  0  0  0
   -1.6153   -6.4471   -4.5245 H   0  0  0  0  0  0  0  0  0  0  0  0
   -0.7853   -6.1148   -2.9947 H   0  0  0  0  0  0  0  0  0  0  0  0
    0.0594   -6.9746   -4.2925 H   0  0  0  0  0  0  0  0  0  0  0  0
    5.3672   -0.9003   -1.2980 H   0  0  0  0  0  0  0  0  0  0  0  0
    3.8812   -1.4344   -0.5347 H   0  0  0  0  0  0  0  0  0  0  0  0
    4.2946    0.9824   -2.3606 H   0  0  0  0  0  0  0  0  0  0  0  0
    3.9159    1.0030   -0.6424 H   0  0  0  0  0  0  0  0  0  0  0  0
  1  2  1  0  0  0  0
  1 29  1  0  0  0  0
  1 30  1  0  0  0  0
  1 31  1  0  0  0  0
  2  3  1  0  0  0  0
  3  4  1  0  0  0  0
  3 28  1  0  0  0  0
  3 32  1  0  0  0  0
  4  5  1  0  0  0  0
  4 33  1  0  0  0  0
  4 34  1  0  0  0  0
  5  6  1  0  0  0  0
  5 35  1  0  0  0  0
  5 36  1  0  0  0  0
  6  7  1  0  0  0  0
  6 27  1  0  0  0  0
  7  8  1  0  0  0  0
  7 26  2  0  0  0  0
  8  9  2  0  0  0  0
  9 10  1  0  0  0  0
  9 37  1  0  0  0  0
 10 11  2  0  0  0  0
 10 38  1  0  0  0  0
 11 12  1  0  0  0  0
 11 26  1  0  0  0  0
 12 13  1  0  0  0  0
 12 39  1  0  0  0  0
 13 14  1  0  0  0  0
 13 18  2  0  0  0  0
 14 15  2  0  0  0  0
 14 40  1  0  0  0  0
 15 16  1  0  0  0  0
 15 22  1  0  0  0  0
 16 17  2  0  0  0  0
 16 19  1  0  0  0  0
 17 18  1  0  0  0  0
 17 41  1  0  0  0  0
 19 20  1  0  0  0  0
 19 21  2  0  0  0  0
 20 42  1  0  0  0  0
 20 43  1  0  0  0  0
 21 22  1  0  0  0  0
 22 23  1  0  0  0  0
 23 24  1  0  0  0  0
 23 25  1  0  0  0  0
 23 44  1  0  0  0  0
 24 45  1  0  0  0  0
 24 46  1  0  0  0  0
 24 47  1  0  0  0  0
 25 48  1  0  0  0  0
 25 49  1  0  0  0  0
 25 50  1  0  0  0  0
 27 28  1  0  0  0  0
 27 51  1  0  0  0  0
 27 52  1  0  0  0  0
 28 53  1  0  0  0  0
 28 54  1  0  0  0  0
M  END
$$$$
