CHEMBL1993996
 OpenBabel04072215363D

 46 49  0  0  0  0  0  0  0  0999 V2000
    1.2279    1.6592    2.3219 C   0  0  0  0  0  0  0  0  0  0  0  0
    0.0547    0.8271    1.9036 C   0  0  0  0  0  0  0  0  0  0  0  0
   -1.1116    1.4470    1.4386 C   0  0  0  0  0  0  0  0  0  0  0  0
   -2.2269    0.7111    1.0180 C   0  0  0  0  0  0  0  0  0  0  0  0
   -3.4121    1.3231    0.5346 N   0  0  0  0  0  0  0  0  0  0  0  0
   -3.5804    2.6799    0.3196 C   0  0  0  0  0  0  0  0  0  0  0  0
   -2.7106    3.5287    0.4887 O   0  0  0  0  0  0  0  0  0  0  0  0
   -4.8711    3.0081   -0.0640 N   0  0  0  0  0  0  0  0  0  0  0  0
   -5.1695    4.3683   -0.3136 C   0  0  0  0  0  0  0  0  0  0  0  0
   -4.3414    5.1543   -1.1148 C   0  0  0  0  0  0  0  0  0  0  0  0
   -4.5478    6.5332   -1.2219 C   0  0  0  0  0  0  0  0  0  0  0  0
   -5.6071    7.1666   -0.5571 C   0  0  0  0  0  0  0  0  0  0  0  0
   -5.8091    8.6336   -0.6326 C   0  0  0  0  0  0  0  0  0  0  0  0
   -5.5339    9.3819   -1.8035 C   0  0  0  0  0  0  0  0  0  0  0  0
   -4.9876    8.7856   -2.8761 F   0  0  0  0  0  0  0  0  0  0  0  0
   -5.8279   10.7380   -1.9316 C   0  0  0  0  0  0  0  0  0  0  0  0
   -6.4850   11.4197   -0.9140 C   0  0  0  0  0  0  0  0  0  0  0  0
   -6.7312   10.7033    0.2587 C   0  0  0  0  0  0  0  0  0  0  0  0
   -7.3833   11.0696    1.4053 N   0  0  0  0  0  0  0  0  0  0  0  0
   -7.2793   10.1844    2.4021 N   0  0  0  0  0  0  0  0  0  0  0  0
   -6.6191    9.1687    1.8546 C   0  0  0  0  0  0  0  0  0  0  0  0
   -6.2580    8.0985    2.5767 N   0  0  0  0  0  0  0  0  0  0  0  0
   -6.3452    9.3759    0.4621 C   0  0  0  0  0  0  0  0  0  0  0  0
   -6.4893    6.3287    0.1597 C   0  0  0  0  0  0  0  0  0  0  0  0
   -6.2705    4.9519    0.3013 C   0  0  0  0  0  0  0  0  0  0  0  0
   -2.1674   -0.6905    1.0943 C   0  0  0  0  0  0  0  0  0  0  0  0
   -1.0210   -1.3140    1.5744 C   0  0  0  0  0  0  0  0  0  0  0  0
    0.0835   -0.5601    1.9643 C   0  0  0  0  0  0  0  0  0  0  0  0
    1.1815   -1.1861    2.4099 F   0  0  0  0  0  0  0  0  0  0  0  0
    1.0253    2.7288    2.1908 H   0  0  0  0  0  0  0  0  0  0  0  0
    2.1028    1.4137    1.7140 H   0  0  0  0  0  0  0  0  0  0  0  0
    1.4514    1.4933    3.3793 H   0  0  0  0  0  0  0  0  0  0  0  0
   -1.1062    2.5298    1.4170 H   0  0  0  0  0  0  0  0  0  0  0  0
   -4.1472    0.7167    0.2034 H   0  0  0  0  0  0  0  0  0  0  0  0
   -5.5923    2.4635    0.3854 H   0  0  0  0  0  0  0  0  0  0  0  0
   -3.4988    4.7095   -1.6383 H   0  0  0  0  0  0  0  0  0  0  0  0
   -3.8433    7.1019   -1.8251 H   0  0  0  0  0  0  0  0  0  0  0  0
   -5.5695   11.2482   -2.8555 H   0  0  0  0  0  0  0  0  0  0  0  0
   -6.7666   12.4620   -1.0242 H   0  0  0  0  0  0  0  0  0  0  0  0
   -7.9077   11.9204    1.5729 H   0  0  0  0  0  0  0  0  0  0  0  0
   -6.3804    8.1375    3.5814 H   0  0  0  0  0  0  0  0  0  0  0  0
   -5.5218    7.4728    2.2655 H   0  0  0  0  0  0  0  0  0  0  0  0
   -7.3537    6.7505    0.6700 H   0  0  0  0  0  0  0  0  0  0  0  0
   -6.9208    4.3803    0.9586 H   0  0  0  0  0  0  0  0  0  0  0  0
   -3.0133   -1.2974    0.7890 H   0  0  0  0  0  0  0  0  0  0  0  0
   -0.9673   -2.3999    1.6450 H   0  0  0  0  0  0  0  0  0  0  0  0
  1  2  1  0  0  0  0
  1 30  1  0  0  0  0
  1 31  1  0  0  0  0
  1 32  1  0  0  0  0
  2  3  1  0  0  0  0
  2 28  2  0  0  0  0
  3  4  2  0  0  0  0
  3 33  1  0  0  0  0
  4  5  1  0  0  0  0
  4 26  1  0  0  0  0
  5  6  1  0  0  0  0
  5 34  1  0  0  0  0
  6  7  2  0  0  0  0
  6  8  1  0  0  0  0
  8  9  1  0  0  0  0
  8 35  1  0  0  0  0
  9 10  1  0  0  0  0
  9 25  2  0  0  0  0
 10 11  2  0  0  0  0
 10 36  1  0  0  0  0
 11 12  1  0  0  0  0
 11 37  1  0  0  0  0
 12 13  1  0  0  0  0
 12 24  2  0  0  0  0
 13 14  1  0  0  0  0
 13 23  2  0  0  0  0
 14 15  1  0  0  0  0
 14 16  2  0  0  0  0
 16 17  1  0  0  0  0
 16 38  1  0  0  0  0
 17 18  2  0  0  0  0
 17 39  1  0  0  0  0
 18 19  1  0  0  0  0
 18 23  1  0  0  0  0
 19 20  1  0  0  0  0
 19 40  1  0  0  0  0
 20 21  2  0  0  0  0
 21 22  1  0  0  0  0
 21 23  1  0  0  0  0
 22 41  1  0  0  0  0
 22 42  1  0  0  0  0
 24 25  1  0  0  0  0
 24 43  1  0  0  0  0
 25 44  1  0  0  0  0
 26 27  2  0  0  0  0
 26 45  1  0  0  0  0
 27 28  1  0  0  0  0
 27 46  1  0  0  0  0
 28 29  1  0  0  0  0
M  END
$$$$
