CHEMBL3671499
 OpenBabel04072215373D

 51 53  0  0  0  0  0  0  0  0999 V2000
    2.4902    1.0063    1.0611 C   0  0  0  0  0  0  0  0  0  0  0  0
    3.1287    0.2469    0.1613 C   0  0  0  0  0  0  0  0  0  0  0  0
    3.9147   -0.9269    0.6123 C   0  0  0  0  0  0  0  0  0  0  0  0
    3.9785   -1.2630    1.7881 O   0  0  0  0  0  0  0  0  0  0  0  0
    4.5814   -1.5648   -0.4061 N   0  0  0  0  0  0  0  0  0  0  0  0
    5.4221   -2.7231   -0.1402 C   0  0  0  0  0  0  0  0  0  0  0  0
    6.6435   -2.3613    0.7057 C   0  0  0  0  0  0  0  0  0  0  0  0
    7.4121   -3.5179    1.0269 O   0  0  0  0  0  0  0  0  0  0  0  0
    8.7673   -3.3236    1.1480 C   0  0  0  0  0  0  0  0  0  0  0  0
    9.5251   -4.4056    0.6748 C   0  0  0  0  0  0  0  0  0  0  0  0
   10.9135   -4.3947    0.6644 C   0  0  0  0  0  0  0  0  0  0  0  0
   11.5735   -5.4664    0.2123 N   0  0  0  0  0  0  0  0  0  0  0  0
   12.9062   -5.4194    0.2781 C   0  0  0  0  0  0  0  0  0  0  0  0
   13.6343   -4.4101    0.7640 N   0  0  0  0  0  0  0  0  0  0  0  0
   12.9634   -3.3318    1.2101 C   0  0  0  0  0  0  0  0  0  0  0  0
   13.6976   -2.2848    1.8287 N   0  0  0  0  0  0  0  0  0  0  0  0
   15.0221   -2.4297    2.2945 C   0  0  0  0  0  0  0  0  0  0  0  0
   15.3971   -3.5677    3.0226 C   0  0  0  0  0  0  0  0  0  0  0  0
   16.7325   -3.8035    3.3415 C   0  0  0  0  0  0  0  0  0  0  0  0
   17.7026   -2.8816    2.9552 C   0  0  0  0  0  0  0  0  0  0  0  0
   19.5243   -3.2636    3.2791 Br  0  0  0  0  0  0  0  0  0  0  0  0
   17.3434   -1.7024    2.3062 C   0  0  0  0  0  0  0  0  0  0  0  0
   16.0056   -1.4828    1.9901 C   0  0  0  0  0  0  0  0  0  0  0  0
   15.6659   -0.3610    1.3358 F   0  0  0  0  0  0  0  0  0  0  0  0
   11.5666   -3.2617    1.1577 C   0  0  0  0  0  0  0  0  0  0  0  0
   10.8159   -2.1692    1.6333 C   0  0  0  0  0  0  0  0  0  0  0  0
    9.4225   -2.1924    1.6667 C   0  0  0  0  0  0  0  0  0  0  0  0
    8.7226   -1.1443    2.3127 N   0  0  0  0  0  0  0  0  0  0  0  0
    9.1951    0.1418    2.4848 C   0  0  0  0  0  0  0  0  0  0  0  0
   10.2119    0.6113    1.9892 O   0  0  0  0  0  0  0  0  0  0  0  0
    8.3000    0.9767    3.3297 C   0  0  0  0  0  0  0  0  0  0  0  0
    8.6927    2.2097    3.6786 C   0  0  0  0  0  0  0  0  0  0  0  0
    1.9005    1.8629    0.7545 H   0  0  0  0  0  0  0  0  0  0  0  0
    2.5371    0.7866    2.1253 H   0  0  0  0  0  0  0  0  0  0  0  0
    3.0742    0.4704   -0.8956 H   0  0  0  0  0  0  0  0  0  0  0  0
    4.5400   -1.2036   -1.3497 H   0  0  0  0  0  0  0  0  0  0  0  0
    5.7356   -3.1414   -1.1027 H   0  0  0  0  0  0  0  0  0  0  0  0
    4.8190   -3.4853    0.3658 H   0  0  0  0  0  0  0  0  0  0  0  0
    6.2939   -1.9298    1.6456 H   0  0  0  0  0  0  0  0  0  0  0  0
    7.2299   -1.6122    0.1570 H   0  0  0  0  0  0  0  0  0  0  0  0
    9.0135   -5.2924    0.3037 H   0  0  0  0  0  0  0  0  0  0  0  0
   13.4552   -6.2830   -0.0807 H   0  0  0  0  0  0  0  0  0  0  0  0
   13.5342   -1.3910    1.3704 H   0  0  0  0  0  0  0  0  0  0  0  0
   14.6438   -4.3000    3.3058 H   0  0  0  0  0  0  0  0  0  0  0  0
   16.9991   -4.7213    3.8582 H   0  0  0  0  0  0  0  0  0  0  0  0
   18.0865   -0.9692    2.0130 H   0  0  0  0  0  0  0  0  0  0  0  0
   11.3534   -1.3262    2.0553 H   0  0  0  0  0  0  0  0  0  0  0  0
    7.8083   -1.3705    2.6762 H   0  0  0  0  0  0  0  0  0  0  0  0
    7.3506    0.5785    3.6604 H   0  0  0  0  0  0  0  0  0  0  0  0
    9.6497    2.6122    3.3577 H   0  0  0  0  0  0  0  0  0  0  0  0
    8.0712    2.8452    4.2997 H   0  0  0  0  0  0  0  0  0  0  0  0
  1  2  2  0  0  0  0
  1 33  1  0  0  0  0
  1 34  1  0  0  0  0
  2  3  1  0  0  0  0
  2 35  1  0  0  0  0
  3  4  2  0  0  0  0
  3  5  1  0  0  0  0
  5  6  1  0  0  0  0
  5 36  1  0  0  0  0
  6  7  1  0  0  0  0
  6 37  1  0  0  0  0
  6 38  1  0  0  0  0
  7  8  1  0  0  0  0
  7 39  1  0  0  0  0
  7 40  1  0  0  0  0
  8  9  1  0  0  0  0
  9 10  1  0  0  0  0
  9 27  2  0  0  0  0
 10 11  2  0  0  0  0
 10 41  1  0  0  0  0
 11 12  1  0  0  0  0
 11 25  1  0  0  0  0
 12 13  2  0  0  0  0
 13 14  1  0  0  0  0
 13 42  1  0  0  0  0
 14 15  2  0  0  0  0
 15 16  1  0  0  0  0
 15 25  1  0  0  0  0
 16 17  1  0  0  0  0
 16 43  1  0  0  0  0
 17 18  1  0  0  0  0
 17 23  2  0  0  0  0
 18 19  2  0  0  0  0
 18 44  1  0  0  0  0
 19 20  1  0  0  0  0
 19 45  1  0  0  0  0
 20 21  1  0  0  0  0
 20 22  2  0  0  0  0
 22 23  1  0  0  0  0
 22 46  1  0  0  0  0
 23 24  1  0  0  0  0
 25 26  2  0  0  0  0
 26 27  1  0  0  0  0
 26 47  1  0  0  0  0
 27 28  1  0  0  0  0
 28 29  1  0  0  0  0
 28 48  1  0  0  0  0
 29 30  2  0  0  0  0
 29 31  1  0  0  0  0
 31 32  2  0  0  0  0
 31 49  1  0  0  0  0
 32 50  1  0  0  0  0
 32 51  1  0  0  0  0
M  END
$$$$
