CHEMBL202466
 OpenBabel04072215363D

 40 42  0  0  0  0  0  0  0  0999 V2000
    1.3712   -0.7268   -0.2032 O   0  0  0  0  0  0  0  0  0  0  0  0
    2.3256    0.0205    0.0059 C   0  0  0  0  0  0  0  0  0  0  0  0
    2.7787    0.9238   -0.9524 N   0  0  0  0  0  0  0  0  0  0  0  0
    2.1348    1.1496   -2.1934 C   0  0  0  0  0  0  0  0  0  0  0  0
    0.7955    0.8262   -2.4128 C   0  0  0  0  0  0  0  0  0  0  0  0
    0.2155    0.9767   -3.6709 C   0  0  0  0  0  0  0  0  0  0  0  0
    0.9603    1.4756   -4.7398 C   0  0  0  0  0  0  0  0  0  0  0  0
    0.1464    1.5737   -6.2539 Cl  0  0  0  0  0  0  0  0  0  0  0  0
    2.2946    1.8577   -4.5413 C   0  0  0  0  0  0  0  0  0  0  0  0
    3.1778    2.4137   -5.6280 C   0  0  0  0  0  0  0  0  0  0  0  0
    2.6549    2.4539   -6.8803 F   0  0  0  0  0  0  0  0  0  0  0  0
    3.5671    3.6908   -5.3518 F   0  0  0  0  0  0  0  0  0  0  0  0
    4.3357    1.7007   -5.7440 F   0  0  0  0  0  0  0  0  0  0  0  0
    2.8623    1.7064   -3.2479 C   0  0  0  0  0  0  0  0  0  0  0  0
    3.0528   -0.0461    1.2646 C   0  0  0  0  0  0  0  0  0  0  0  0
    4.4334    0.9106    1.6111 S   0  0  0  0  0  0  0  0  0  0  0  0
    4.5510    0.1679    3.1503 C   0  0  0  0  0  0  0  0  0  0  0  0
    3.6398   -0.7361    3.4261 N   0  0  0  0  0  0  0  0  0  0  0  0
    2.7631   -0.8637    2.3565 C   0  0  0  0  0  0  0  0  0  0  0  0
    1.6467   -1.8711    2.4508 C   0  0  0  0  0  0  0  0  0  0  0  0
    1.1013   -2.0876    3.8617 C   0  0  0  0  0  0  0  0  0  0  0  0
   -0.0590   -3.0566    3.8537 C   0  0  0  0  0  0  0  0  0  0  0  0
    0.1584   -4.4296    3.9924 C   0  0  0  0  0  0  0  0  0  0  0  0
   -0.9349   -5.2832    3.9623 C   0  0  0  0  0  0  0  0  0  0  0  0
   -2.2092   -4.8698    3.7969 N   0  0  0  0  0  0  0  0  0  0  0  0
   -2.3971   -3.5414    3.6486 C   0  0  0  0  0  0  0  0  0  0  0  0
   -1.3698   -2.6086    3.6656 C   0  0  0  0  0  0  0  0  0  0  0  0
    3.6977    1.3228   -0.8051 H   0  0  0  0  0  0  0  0  0  0  0  0
    0.1548    0.4532   -1.6181 H   0  0  0  0  0  0  0  0  0  0  0  0
   -0.8229    0.6840   -3.8066 H   0  0  0  0  0  0  0  0  0  0  0  0
    3.9036    1.9926   -3.0989 H   0  0  0  0  0  0  0  0  0  0  0  0
    5.3328    0.4283    3.8531 H   0  0  0  0  0  0  0  0  0  0  0  0
    2.0057   -2.8197    2.0313 H   0  0  0  0  0  0  0  0  0  0  0  0
    0.8037   -1.5504    1.8316 H   0  0  0  0  0  0  0  0  0  0  0  0
    0.7709   -1.1325    4.2904 H   0  0  0  0  0  0  0  0  0  0  0  0
    1.8855   -2.4639    4.5297 H   0  0  0  0  0  0  0  0  0  0  0  0
    1.1574   -4.8326    4.1195 H   0  0  0  0  0  0  0  0  0  0  0  0
   -0.8077   -6.3564    4.0725 H   0  0  0  0  0  0  0  0  0  0  0  0
   -3.4296   -3.2340    3.5090 H   0  0  0  0  0  0  0  0  0  0  0  0
   -1.5949   -1.5560    3.5293 H   0  0  0  0  0  0  0  0  0  0  0  0
  1  2  2  0  0  0  0
  2  3  1  0  0  0  0
  2 15  1  0  0  0  0
  3  4  1  0  0  0  0
  3 28  1  0  0  0  0
  4  5  1  0  0  0  0
  4 14  2  0  0  0  0
  5  6  2  0  0  0  0
  5 29  1  0  0  0  0
  6  7  1  0  0  0  0
  6 30  1  0  0  0  0
  7  8  1  0  0  0  0
  7  9  2  0  0  0  0
  9 10  1  0  0  0  0
  9 14  1  0  0  0  0
 10 11  1  0  0  0  0
 10 12  1  0  0  0  0
 10 13  1  0  0  0  0
 14 31  1  0  0  0  0
 15 16  1  0  0  0  0
 15 19  2  0  0  0  0
 16 17  1  0  0  0  0
 17 18  2  0  0  0  0
 17 32  1  0  0  0  0
 18 19  1  0  0  0  0
 19 20  1  0  0  0  0
 20 21  1  0  0  0  0
 20 33  1  0  0  0  0
 20 34  1  0  0  0  0
 21 22  1  0  0  0  0
 21 35  1  0  0  0  0
 21 36  1  0  0  0  0
 22 23  1  0  0  0  0
 22 27  2  0  0  0  0
 23 24  2  0  0  0  0
 23 37  1  0  0  0  0
 24 25  1  0  0  0  0
 24 38  1  0  0  0  0
 25 26  2  0  0  0  0
 26 27  1  0  0  0  0
 26 39  1  0  0  0  0
 27 40  1  0  0  0  0
M  END
$$$$
