CHEMBL380243
 OpenBabel04072215373D

 69 74  0  0  0  0  0  0  0  0999 V2000
    1.9850   -0.1703   -1.0114 C   0  0  0  0  0  0  0  0  0  0  0  0
    0.5525    0.0984   -1.0777 N   0  0  0  0  0  0  0  0  0  0  0  0
   -0.2230   -1.1025   -0.7269 C   0  0  0  0  0  0  0  0  0  0  0  0
   -1.7415   -0.8167   -0.7276 C   0  0  0  0  0  0  0  0  0  0  0  0
   -2.1581    0.2594    0.1991 N   0  0  0  0  0  0  0  0  0  0  0  0
   -1.9948   -0.0748    1.6274 C   0  0  0  0  0  0  0  0  0  0  0  0
   -2.7757   -1.2907    2.0839 C   0  0  0  0  0  0  0  0  0  0  0  0
   -2.1810   -2.5811    1.9973 C   0  0  0  0  0  0  0  0  0  0  0  0
   -2.8820   -3.7403    2.3249 C   0  0  0  0  0  0  0  0  0  0  0  0
   -4.1701   -3.6034    2.7883 C   0  0  0  0  0  0  0  0  0  0  0  0
   -4.7382   -2.3076    2.9410 C   0  0  0  0  0  0  0  0  0  0  0  0
   -4.0817   -1.1563    2.5797 C   0  0  0  0  0  0  0  0  0  0  0  0
   -6.0248   -2.5199    3.5127 C   0  0  0  0  0  0  0  0  0  0  0  0
   -6.9996   -1.7698    4.0049 N   0  0  0  0  0  0  0  0  0  0  0  0
   -7.8746   -2.7132    4.4514 N   0  0  0  0  0  0  0  0  0  0  0  0
   -7.4641   -4.0173    4.2495 C   0  0  0  0  0  0  0  0  0  0  0  0
   -8.1810   -5.1816    4.6552 C   0  0  0  0  0  0  0  0  0  0  0  0
   -7.9494   -6.4806    4.2570 C   0  0  0  0  0  0  0  0  0  0  0  0
   -8.7428   -7.4170    4.9751 C   0  0  0  0  0  0  0  0  0  0  0  0
   -9.5448   -6.7989    5.9140 C   0  0  0  0  0  0  0  0  0  0  0  0
  -10.4608   -7.4456    6.8970 C   0  0  0  0  0  0  0  0  0  0  0  0
  -10.1456   -7.2487    8.3202 N   0  0  0  0  0  0  0  0  0  0  0  0
   -8.9779   -6.4874    8.7562 C   0  0  0  0  0  0  0  0  0  0  0  0
  -11.1259   -7.7444    9.1792 C   0  0  0  0  0  0  0  0  0  0  0  0
  -12.0637   -8.4040    8.7277 O   0  0  0  0  0  0  0  0  0  0  0  0
  -10.9730   -7.4187   10.5063 N   0  0  0  0  0  0  0  0  0  0  0  0
  -11.8345   -7.7955   11.5586 C   0  0  0  0  0  0  0  0  0  0  0  0
  -12.8192   -8.7782   11.4347 C   0  0  0  0  0  0  0  0  0  0  0  0
  -13.7083   -9.0315   12.4813 C   0  0  0  0  0  0  0  0  0  0  0  0
  -13.5987   -8.3167   13.6694 C   0  0  0  0  0  0  0  0  0  0  0  0
  -14.7290   -8.5858   14.9355 Cl  0  0  0  0  0  0  0  0  0  0  0  0
  -12.5832   -7.3764   13.8298 C   0  0  0  0  0  0  0  0  0  0  0  0
  -11.6972   -7.1217   12.7795 C   0  0  0  0  0  0  0  0  0  0  0  0
   -9.4850   -5.0946    5.7587 S   0  0  0  0  0  0  0  0  0  0  0  0
   -6.2393   -3.8961    3.6538 C   0  0  0  0  0  0  0  0  0  0  0  0
   -5.1119   -4.7413    3.1858 C   0  0  0  0  0  0  0  0  0  0  0  0
   -1.3576    1.4608   -0.1417 C   0  0  0  0  0  0  0  0  0  0  0  0
    0.1769    1.2272   -0.2049 C   0  0  0  0  0  0  0  0  0  0  0  0
    2.2516   -1.0040   -1.6719 H   0  0  0  0  0  0  0  0  0  0  0  0
    2.3161   -0.4211    0.0032 H   0  0  0  0  0  0  0  0  0  0  0  0
    2.5545    0.6993   -1.3566 H   0  0  0  0  0  0  0  0  0  0  0  0
    0.0914   -1.4819    0.2516 H   0  0  0  0  0  0  0  0  0  0  0  0
   -0.0236   -1.8973   -1.4550 H   0  0  0  0  0  0  0  0  0  0  0  0
   -2.3028   -1.7388   -0.5448 H   0  0  0  0  0  0  0  0  0  0  0  0
   -2.0375   -0.5212   -1.7439 H   0  0  0  0  0  0  0  0  0  0  0  0
   -2.3446    0.7789    2.2237 H   0  0  0  0  0  0  0  0  0  0  0  0
   -0.9444   -0.2140    1.9083 H   0  0  0  0  0  0  0  0  0  0  0  0
   -1.1590   -2.6817    1.6419 H   0  0  0  0  0  0  0  0  0  0  0  0
   -2.4188   -4.7178    2.2136 H   0  0  0  0  0  0  0  0  0  0  0  0
   -4.5614   -0.1875    2.6768 H   0  0  0  0  0  0  0  0  0  0  0  0
   -8.7271   -2.4053    4.9055 H   0  0  0  0  0  0  0  0  0  0  0  0
   -7.2206   -6.7633    3.5065 H   0  0  0  0  0  0  0  0  0  0  0  0
   -8.7009   -8.4898    4.8327 H   0  0  0  0  0  0  0  0  0  0  0  0
  -10.4607   -8.5313    6.7277 H   0  0  0  0  0  0  0  0  0  0  0  0
  -11.4867   -7.1015    6.7136 H   0  0  0  0  0  0  0  0  0  0  0  0
   -8.1580   -6.5449    8.0395 H   0  0  0  0  0  0  0  0  0  0  0  0
   -8.5966   -6.8857    9.7016 H   0  0  0  0  0  0  0  0  0  0  0  0
   -9.2825   -5.4481    8.9140 H   0  0  0  0  0  0  0  0  0  0  0  0
  -10.3286   -6.6752   10.7181 H   0  0  0  0  0  0  0  0  0  0  0  0
  -12.9336   -9.3638   10.5279 H   0  0  0  0  0  0  0  0  0  0  0  0
  -14.4875   -9.7775   12.3496 H   0  0  0  0  0  0  0  0  0  0  0  0
  -12.4870   -6.8264   14.7622 H   0  0  0  0  0  0  0  0  0  0  0  0
  -10.9221   -6.3738   12.9203 H   0  0  0  0  0  0  0  0  0  0  0  0
   -5.3845   -5.3418    2.3142 H   0  0  0  0  0  0  0  0  0  0  0  0
   -4.6849   -5.3489    3.9873 H   0  0  0  0  0  0  0  0  0  0  0  0
   -1.5777    2.2737    0.5616 H   0  0  0  0  0  0  0  0  0  0  0  0
   -1.6940    1.8236   -1.1227 H   0  0  0  0  0  0  0  0  0  0  0  0
    0.5579    1.0680    0.8120 H   0  0  0  0  0  0  0  0  0  0  0  0
    0.6462    2.1434   -0.5821 H   0  0  0  0  0  0  0  0  0  0  0  0
  1  2  1  0  0  0  0
  1 39  1  0  0  0  0
  1 40  1  0  0  0  0
  1 41  1  0  0  0  0
  2  3  1  0  0  0  0
  2 38  1  0  0  0  0
  3  4  1  0  0  0  0
  3 42  1  0  0  0  0
  3 43  1  0  0  0  0
  4  5  1  0  0  0  0
  4 44  1  0  0  0  0
  4 45  1  0  0  0  0
  5  6  1  0  0  0  0
  5 37  1  0  0  0  0
  6  7  1  0  0  0  0
  6 46  1  0  0  0  0
  6 47  1  0  0  0  0
  7  8  1  0  0  0  0
  7 12  2  0  0  0  0
  8  9  2  0  0  0  0
  8 48  1  0  0  0  0
  9 10  1  0  0  0  0
  9 49  1  0  0  0  0
 10 11  2  0  0  0  0
 10 36  1  0  0  0  0
 11 12  1  0  0  0  0
 11 13  1  0  0  0  0
 12 50  1  0  0  0  0
 13 14  2  0  0  0  0
 13 35  1  0  0  0  0
 14 15  1  0  0  0  0
 15 16  1  0  0  0  0
 15 51  1  0  0  0  0
 16 17  1  0  0  0  0
 16 35  2  0  0  0  0
 17 18  2  0  0  0  0
 17 34  1  0  0  0  0
 18 19  1  0  0  0  0
 18 52  1  0  0  0  0
 19 20  2  0  0  0  0
 19 53  1  0  0  0  0
 20 21  1  0  0  0  0
 20 34  1  0  0  0  0
 21 22  1  0  0  0  0
 21 54  1  0  0  0  0
 21 55  1  0  0  0  0
 22 23  1  0  0  0  0
 22 24  1  0  0  0  0
 23 56  1  0  0  0  0
 23 57  1  0  0  0  0
 23 58  1  0  0  0  0
 24 25  2  0  0  0  0
 24 26  1  0  0  0  0
 26 27  1  0  0  0  0
 26 59  1  0  0  0  0
 27 28  1  0  0  0  0
 27 33  2  0  0  0  0
 28 29  2  0  0  0  0
 28 60  1  0  0  0  0
 29 30  1  0  0  0  0
 29 61  1  0  0  0  0
 30 31  1  0  0  0  0
 30 32  2  0  0  0  0
 32 33  1  0  0  0  0
 32 62  1  0  0  0  0
 33 63  1  0  0  0  0
 35 36  1  0  0  0  0
 36 64  1  0  0  0  0
 36 65  1  0  0  0  0
 37 38  1  0  0  0  0
 37 66  1  0  0  0  0
 37 67  1  0  0  0  0
 38 68  1  0  0  0  0
 38 69  1  0  0  0  0
M  END
$$$$
