CHEMBL1242666
 OpenBabel04072215363D

 40 43  0  0  0  0  0  0  0  0999 V2000
    1.2885    0.8324    0.2441 C   0  0  0  0  0  0  0  0  0  0  0  0
    2.4936   -0.0999    0.1178 C   0  0  0  0  0  0  0  0  0  0  0  0
    3.6091    0.5481   -0.7021 C   0  0  0  0  0  0  0  0  0  0  0  0
    2.9641   -0.5396    1.4276 N   0  0  0  0  0  0  0  0  0  0  0  0
    3.4173    0.3589    2.3263 N   0  0  0  0  0  0  0  0  0  0  0  0
    3.7545   -0.3801    3.4035 C   0  0  0  0  0  0  0  0  0  0  0  0
    4.3486    0.2728    4.5775 C   0  0  0  0  0  0  0  0  0  0  0  0
    5.3171   -0.3805    5.3470 C   0  0  0  0  0  0  0  0  0  0  0  0
    5.8825    0.2159    6.4811 C   0  0  0  0  0  0  0  0  0  0  0  0
    5.5325    1.5375    6.8128 C   0  0  0  0  0  0  0  0  0  0  0  0
    5.9536    2.4533    7.8248 C   0  0  0  0  0  0  0  0  0  0  0  0
    6.9250    2.2253    8.8775 C   0  0  0  0  0  0  0  0  0  0  0  0
    7.2575    3.0722    9.7001 O   0  0  0  0  0  0  0  0  0  0  0  0
    5.2790    3.6384    7.6007 C   0  0  0  0  0  0  0  0  0  0  0  0
    4.4555    3.4681    6.5212 N   0  0  0  0  0  0  0  0  0  0  0  0
    4.5946    2.1951    6.0166 C   0  0  0  0  0  0  0  0  0  0  0  0
    3.9766    1.5870    4.9131 C   0  0  0  0  0  0  0  0  0  0  0  0
    3.4530   -1.7658    3.1909 C   0  0  0  0  0  0  0  0  0  0  0  0
    3.5081   -2.9848    3.8849 C   0  0  0  0  0  0  0  0  0  0  0  0
    3.8949   -3.1444    5.2095 N   0  0  0  0  0  0  0  0  0  0  0  0
    3.1396   -4.1156    3.2464 N   0  0  0  0  0  0  0  0  0  0  0  0
    2.7121   -4.0282    1.9742 C   0  0  0  0  0  0  0  0  0  0  0  0
    2.5819   -2.9255    1.2240 N   0  0  0  0  0  0  0  0  0  0  0  0
    2.9722   -1.8254    1.8923 C   0  0  0  0  0  0  0  0  0  0  0  0
    0.9064    1.1078   -0.7446 H   0  0  0  0  0  0  0  0  0  0  0  0
    1.5453    1.7560    0.7747 H   0  0  0  0  0  0  0  0  0  0  0  0
    0.4767    0.3462    0.7962 H   0  0  0  0  0  0  0  0  0  0  0  0
    2.1652   -0.9970   -0.4207 H   0  0  0  0  0  0  0  0  0  0  0  0
    3.9750    1.4681   -0.2336 H   0  0  0  0  0  0  0  0  0  0  0  0
    3.2505    0.8023   -1.7057 H   0  0  0  0  0  0  0  0  0  0  0  0
    4.4603   -0.1326   -0.8124 H   0  0  0  0  0  0  0  0  0  0  0  0
    5.6744   -1.3691    5.0676 H   0  0  0  0  0  0  0  0  0  0  0  0
    6.6122   -0.3365    7.0662 H   0  0  0  0  0  0  0  0  0  0  0  0
    7.3671    1.2149    8.9038 H   0  0  0  0  0  0  0  0  0  0  0  0
    5.3301    4.5875    8.1194 H   0  0  0  0  0  0  0  0  0  0  0  0
    3.8540    4.1796    6.1280 H   0  0  0  0  0  0  0  0  0  0  0  0
    3.2489    2.1289    4.3143 H   0  0  0  0  0  0  0  0  0  0  0  0
    3.6306   -2.3786    5.8171 H   0  0  0  0  0  0  0  0  0  0  0  0
    3.6331   -4.0676    5.5390 H   0  0  0  0  0  0  0  0  0  0  0  0
    2.4322   -4.9658    1.5035 H   0  0  0  0  0  0  0  0  0  0  0  0
  1  2  1  0  0  0  0
  1 25  1  0  0  0  0
  1 26  1  0  0  0  0
  1 27  1  0  0  0  0
  2  3  1  0  0  0  0
  2  4  1  0  0  0  0
  2 28  1  0  0  0  0
  3 29  1  0  0  0  0
  3 30  1  0  0  0  0
  3 31  1  0  0  0  0
  4  5  1  0  0  0  0
  4 24  1  0  0  0  0
  5  6  2  0  0  0  0
  6  7  1  0  0  0  0
  6 18  1  0  0  0  0
  7  8  1  0  0  0  0
  7 17  2  0  0  0  0
  8  9  2  0  0  0  0
  8 32  1  0  0  0  0
  9 10  1  0  0  0  0
  9 33  1  0  0  0  0
 10 11  1  0  0  0  0
 10 16  2  0  0  0  0
 11 12  1  0  0  0  0
 11 14  2  0  0  0  0
 12 13  2  0  0  0  0
 12 34  1  0  0  0  0
 14 15  1  0  0  0  0
 14 35  1  0  0  0  0
 15 16  1  0  0  0  0
 15 36  1  0  0  0  0
 16 17  1  0  0  0  0
 17 37  1  0  0  0  0
 18 19  1  0  0  0  0
 18 24  2  0  0  0  0
 19 20  1  0  0  0  0
 19 21  2  0  0  0  0
 20 38  1  0  0  0  0
 20 39  1  0  0  0  0
 21 22  1  0  0  0  0
 22 23  2  0  0  0  0
 22 40  1  0  0  0  0
 23 24  1  0  0  0  0
M  END
$$$$
