CHEMBL4291572
 OpenBabel04072215383D

 41 44  0  0  0  0  0  0  0  0999 V2000
    3.4532    0.8271   -0.8518 C   0  0  0  0  0  0  0  0  0  0  0  0
    2.5433    0.0254   -0.0590 N   0  0  0  0  0  0  0  0  0  0  0  0
    3.1228   -0.4825    1.0964 C   0  0  0  0  0  0  0  0  0  0  0  0
    2.7058   -1.6886    1.4912 N   0  0  0  0  0  0  0  0  0  0  0  0
    3.3152   -2.2135    2.5754 C   0  0  0  0  0  0  0  0  0  0  0  0
    4.3351   -1.5892    3.2632 C   0  0  0  0  0  0  0  0  0  0  0  0
    4.7224   -0.3641    2.7528 C   0  0  0  0  0  0  0  0  0  0  0  0
    4.0904    0.2076    1.7097 N   0  0  0  0  0  0  0  0  0  0  0  0
    5.8542    0.3281    3.2003 N   0  0  0  0  0  0  0  0  0  0  0  0
    7.0212   -0.3320    3.3507 C   0  0  0  0  0  0  0  0  0  0  0  0
    8.1884    0.0817    2.8485 N   0  0  0  0  0  0  0  0  0  0  0  0
    9.0290   -0.9325    3.1234 N   0  0  0  0  0  0  0  0  0  0  0  0
    8.4492   -1.9798    3.7850 C   0  0  0  0  0  0  0  0  0  0  0  0
    9.1863   -3.1976    4.1747 C   0  0  0  0  0  0  0  0  0  0  0  0
    7.1447   -1.5986    3.9665 C   0  0  0  0  0  0  0  0  0  0  0  0
    6.2219   -2.2971    4.7395 N   0  0  0  0  0  0  0  0  0  0  0  0
    4.9511   -2.2230    4.4619 C   0  0  0  0  0  0  0  0  0  0  0  0
    4.0315   -2.8282    5.4929 C   0  0  0  0  0  0  0  0  0  0  0  0
    2.7443   -2.3219    5.7168 C   0  0  0  0  0  0  0  0  0  0  0  0
    1.9611   -2.8233    6.7604 C   0  0  0  0  0  0  0  0  0  0  0  0
    2.4584   -3.8195    7.6070 C   0  0  0  0  0  0  0  0  0  0  0  0
    1.6467   -4.3221    8.7635 C   0  0  0  0  0  0  0  0  0  0  0  0
    3.7387   -4.3344    7.3759 C   0  0  0  0  0  0  0  0  0  0  0  0
    4.5206   -3.8409    6.3291 C   0  0  0  0  0  0  0  0  0  0  0  0
    2.9484    1.1543   -1.7650 H   0  0  0  0  0  0  0  0  0  0  0  0
    4.3409    0.2548   -1.1464 H   0  0  0  0  0  0  0  0  0  0  0  0
    3.7696    1.7300   -0.3163 H   0  0  0  0  0  0  0  0  0  0  0  0
    2.1333   -0.7676   -0.5403 H   0  0  0  0  0  0  0  0  0  0  0  0
    2.9437   -3.1925    2.8670 H   0  0  0  0  0  0  0  0  0  0  0  0
    5.9309    1.1686    2.6369 H   0  0  0  0  0  0  0  0  0  0  0  0
    9.9946   -0.8420    2.8244 H   0  0  0  0  0  0  0  0  0  0  0  0
   10.2062   -3.1948    3.7755 H   0  0  0  0  0  0  0  0  0  0  0  0
    8.6788   -4.0864    3.7849 H   0  0  0  0  0  0  0  0  0  0  0  0
    9.2445   -3.2832    5.2629 H   0  0  0  0  0  0  0  0  0  0  0  0
    2.3390   -1.5078    5.1218 H   0  0  0  0  0  0  0  0  0  0  0  0
    0.9699   -2.4056    6.9254 H   0  0  0  0  0  0  0  0  0  0  0  0
    0.7138   -3.7591    8.8723 H   0  0  0  0  0  0  0  0  0  0  0  0
    2.2105   -4.2104    9.6955 H   0  0  0  0  0  0  0  0  0  0  0  0
    1.3942   -5.3769    8.6175 H   0  0  0  0  0  0  0  0  0  0  0  0
    4.1477   -5.1041    8.0271 H   0  0  0  0  0  0  0  0  0  0  0  0
    5.5270   -4.2310    6.1910 H   0  0  0  0  0  0  0  0  0  0  0  0
  1  2  1  0  0  0  0
  1 25  1  0  0  0  0
  1 26  1  0  0  0  0
  1 27  1  0  0  0  0
  2  3  1  0  0  0  0
  2 28  1  0  0  0  0
  3  4  1  0  0  0  0
  3  8  2  0  0  0  0
  4  5  2  0  0  0  0
  5  6  1  0  0  0  0
  5 29  1  0  0  0  0
  6  7  2  0  0  0  0
  6 17  1  0  0  0  0
  7  8  1  0  0  0  0
  7  9  1  0  0  0  0
  9 10  1  0  0  0  0
  9 30  1  0  0  0  0
 10 11  2  0  0  0  0
 10 15  1  0  0  0  0
 11 12  1  0  0  0  0
 12 13  1  0  0  0  0
 12 31  1  0  0  0  0
 13 14  1  0  0  0  0
 13 15  2  0  0  0  0
 14 32  1  0  0  0  0
 14 33  1  0  0  0  0
 14 34  1  0  0  0  0
 15 16  1  0  0  0  0
 16 17  2  0  0  0  0
 17 18  1  0  0  0  0
 18 19  1  0  0  0  0
 18 24  2  0  0  0  0
 19 20  2  0  0  0  0
 19 35  1  0  0  0  0
 20 21  1  0  0  0  0
 20 36  1  0  0  0  0
 21 22  1  0  0  0  0
 21 23  2  0  0  0  0
 22 37  1  0  0  0  0
 22 38  1  0  0  0  0
 22 39  1  0  0  0  0
 23 24  1  0  0  0  0
 23 40  1  0  0  0  0
 24 41  1  0  0  0  0
M  END
$$$$
