CHEMBL4165429
 OpenBabel04072215383D

 69 74  0  0  0  0  0  0  0  0999 V2000
    1.3444   -2.6655    1.3632 C   0  0  0  0  0  0  0  0  0  0  0  0
    2.6815   -2.2494    1.0796 O   0  0  0  0  0  0  0  0  0  0  0  0
    3.3706   -3.1214    0.3057 C   0  0  0  0  0  0  0  0  0  0  0  0
    2.9288   -4.1626   -0.1654 O   0  0  0  0  0  0  0  0  0  0  0  0
    4.7841   -2.6923    0.1298 C   0  0  0  0  0  0  0  0  0  0  0  0
    5.2970   -1.4827    0.6523 C   0  0  0  0  0  0  0  0  0  0  0  0
    6.6576   -1.1451    0.5141 C   0  0  0  0  0  0  0  0  0  0  0  0
    7.5026   -2.0305   -0.1345 C   0  0  0  0  0  0  0  0  0  0  0  0
    6.9677   -3.2157   -0.6576 C   0  0  0  0  0  0  0  0  0  0  0  0
    5.6356   -3.5660   -0.5546 C   0  0  0  0  0  0  0  0  0  0  0  0
    7.9592   -4.0004   -1.2284 N   0  0  0  0  0  0  0  0  0  0  0  0
    9.2059   -3.4271   -1.0672 C   0  0  0  0  0  0  0  0  0  0  0  0
   10.2684   -3.9965   -1.2299 O   0  0  0  0  0  0  0  0  0  0  0  0
    8.9437   -2.0584   -0.4714 C   0  0  0  0  0  0  0  0  0  0  0  0
    9.9344   -1.1476   -0.3327 C   0  0  0  0  0  0  0  0  0  0  0  0
   11.2188   -1.1899   -0.8860 N   0  0  0  0  0  0  0  0  0  0  0  0
   11.4395   -1.4441   -2.2729 C   0  0  0  0  0  0  0  0  0  0  0  0
   10.6464   -0.8507   -3.2639 C   0  0  0  0  0  0  0  0  0  0  0  0
   10.8234   -1.1359   -4.6262 C   0  0  0  0  0  0  0  0  0  0  0  0
   11.8300   -2.0433   -4.9697 C   0  0  0  0  0  0  0  0  0  0  0  0
   12.1914   -2.5629   -6.1926 N   0  0  0  0  0  0  0  0  0  0  0  0
   13.2966   -3.3766   -6.0739 C   0  0  0  0  0  0  0  0  0  0  0  0
   13.9270   -4.0165   -7.2107 C   0  0  0  0  0  0  0  0  0  0  0  0
   13.2645   -4.3802   -8.1799 O   0  0  0  0  0  0  0  0  0  0  0  0
   15.3177   -4.1850   -7.1607 N   0  0  0  0  0  0  0  0  0  0  0  0
   15.9329   -4.9123   -8.2738 C   0  0  0  0  0  0  0  0  0  0  0  0
   17.3907   -5.3302   -7.9866 C   0  0  0  0  0  0  0  0  0  0  0  0
   18.2625   -4.2605   -7.4564 N   0  0  0  0  0  0  0  0  0  0  0  0
   18.6055   -3.2767   -8.4817 C   0  0  0  0  0  0  0  0  0  0  0  0
   17.6003   -3.6301   -6.2994 C   0  0  0  0  0  0  0  0  0  0  0  0
   16.1686   -3.1426   -6.5728 C   0  0  0  0  0  0  0  0  0  0  0  0
   13.5622   -3.4714   -4.7172 C   0  0  0  0  0  0  0  0  0  0  0  0
   12.6726   -2.6139   -4.0202 C   0  0  0  0  0  0  0  0  0  0  0  0
   12.4956   -2.2863   -2.6611 C   0  0  0  0  0  0  0  0  0  0  0  0
    9.7610    0.0194    0.5552 C   0  0  0  0  0  0  0  0  0  0  0  0
   10.0983   -0.1039    1.9127 C   0  0  0  0  0  0  0  0  0  0  0  0
    9.9983    0.9928    2.7685 C   0  0  0  0  0  0  0  0  0  0  0  0
    9.5566    2.2190    2.2745 C   0  0  0  0  0  0  0  0  0  0  0  0
    9.2234    2.3510    0.9259 C   0  0  0  0  0  0  0  0  0  0  0  0
    9.3316    1.2571    0.0647 C   0  0  0  0  0  0  0  0  0  0  0  0
    0.8219   -1.8318    1.8403 H   0  0  0  0  0  0  0  0  0  0  0  0
    1.3581   -3.5111    2.0582 H   0  0  0  0  0  0  0  0  0  0  0  0
    0.8055   -2.9288    0.4469 H   0  0  0  0  0  0  0  0  0  0  0  0
    4.6405   -0.7941    1.1826 H   0  0  0  0  0  0  0  0  0  0  0  0
    7.0163   -0.2111    0.9326 H   0  0  0  0  0  0  0  0  0  0  0  0
    5.2684   -4.4993   -0.9695 H   0  0  0  0  0  0  0  0  0  0  0  0
    7.8424   -4.9420   -1.5705 H   0  0  0  0  0  0  0  0  0  0  0  0
   11.8148   -1.8024   -0.3304 H   0  0  0  0  0  0  0  0  0  0  0  0
    9.8595   -0.1569   -2.9804 H   0  0  0  0  0  0  0  0  0  0  0  0
   10.1845   -0.6814   -5.3760 H   0  0  0  0  0  0  0  0  0  0  0  0
   11.7389   -2.3562   -7.0733 H   0  0  0  0  0  0  0  0  0  0  0  0
   15.8864   -4.2685   -9.1599 H   0  0  0  0  0  0  0  0  0  0  0  0
   15.3361   -5.8070   -8.4899 H   0  0  0  0  0  0  0  0  0  0  0  0
   17.8368   -5.7674   -8.8882 H   0  0  0  0  0  0  0  0  0  0  0  0
   17.3770   -6.1389   -7.2436 H   0  0  0  0  0  0  0  0  0  0  0  0
   19.1558   -3.7542   -9.2983 H   0  0  0  0  0  0  0  0  0  0  0  0
   19.2686   -2.5098   -8.0643 H   0  0  0  0  0  0  0  0  0  0  0  0
   17.7337   -2.7711   -8.9095 H   0  0  0  0  0  0  0  0  0  0  0  0
   18.2059   -2.7972   -5.9218 H   0  0  0  0  0  0  0  0  0  0  0  0
   17.5678   -4.3666   -5.4856 H   0  0  0  0  0  0  0  0  0  0  0  0
   16.1695   -2.3001   -7.2747 H   0  0  0  0  0  0  0  0  0  0  0  0
   15.7554   -2.7565   -5.6419 H   0  0  0  0  0  0  0  0  0  0  0  0
   14.3308   -4.0904   -4.2730 H   0  0  0  0  0  0  0  0  0  0  0  0
   13.1367   -2.7478   -1.9172 H   0  0  0  0  0  0  0  0  0  0  0  0
   10.4621   -1.0521    2.3033 H   0  0  0  0  0  0  0  0  0  0  0  0
   10.2776    0.8931    3.8142 H   0  0  0  0  0  0  0  0  0  0  0  0
    9.4866    3.0763    2.9389 H   0  0  0  0  0  0  0  0  0  0  0  0
    8.8931    3.3122    0.5409 H   0  0  0  0  0  0  0  0  0  0  0  0
    9.0928    1.3746   -0.9885 H   0  0  0  0  0  0  0  0  0  0  0  0
  1  2  1  0  0  0  0
  1 41  1  0  0  0  0
  1 42  1  0  0  0  0
  1 43  1  0  0  0  0
  2  3  1  0  0  0  0
  3  4  2  0  0  0  0
  3  5  1  0  0  0  0
  5  6  1  0  0  0  0
  5 10  2  0  0  0  0
  6  7  2  0  0  0  0
  6 44  1  0  0  0  0
  7  8  1  0  0  0  0
  7 45  1  0  0  0  0
  8  9  2  0  0  0  0
  8 14  1  0  0  0  0
  9 10  1  0  0  0  0
  9 11  1  0  0  0  0
 10 46  1  0  0  0  0
 11 12  1  0  0  0  0
 11 47  1  0  0  0  0
 12 13  2  0  0  0  0
 12 14  1  0  0  0  0
 14 15  2  0  0  0  0
 15 16  1  0  0  0  0
 15 35  1  0  0  0  0
 16 17  1  0  0  0  0
 16 48  1  0  0  0  0
 17 18  1  0  0  0  0
 17 34  2  0  0  0  0
 18 19  2  0  0  0  0
 18 49  1  0  0  0  0
 19 20  1  0  0  0  0
 19 50  1  0  0  0  0
 20 21  1  0  0  0  0
 20 33  2  0  0  0  0
 21 22  1  0  0  0  0
 21 51  1  0  0  0  0
 22 23  1  0  0  0  0
 22 32  2  0  0  0  0
 23 24  2  0  0  0  0
 23 25  1  0  0  0  0
 25 26  1  0  0  0  0
 25 31  1  0  0  0  0
 26 27  1  0  0  0  0
 26 52  1  0  0  0  0
 26 53  1  0  0  0  0
 27 28  1  0  0  0  0
 27 54  1  0  0  0  0
 27 55  1  0  0  0  0
 28 29  1  0  0  0  0
 28 30  1  0  0  0  0
 29 56  1  0  0  0  0
 29 57  1  0  0  0  0
 29 58  1  0  0  0  0
 30 31  1  0  0  0  0
 30 59  1  0  0  0  0
 30 60  1  0  0  0  0
 31 61  1  0  0  0  0
 31 62  1  0  0  0  0
 32 33  1  0  0  0  0
 32 63  1  0  0  0  0
 33 34  1  0  0  0  0
 34 64  1  0  0  0  0
 35 36  1  0  0  0  0
 35 40  2  0  0  0  0
 36 37  2  0  0  0  0
 36 65  1  0  0  0  0
 37 38  1  0  0  0  0
 37 66  1  0  0  0  0
 38 39  2  0  0  0  0
 38 67  1  0  0  0  0
 39 40  1  0  0  0  0
 39 68  1  0  0  0  0
 40 69  1  0  0  0  0
M  END
$$$$
