CHEMBL4794619
 OpenBabel04072215383D

138144  0  0  1  0  0  0  0  0999 V2000
  -36.8984  -16.3108   -0.2276 C   0  0  0  0  0  0  0  0  0  0  0  0
  -36.8972  -15.2393   -1.2806 C   0  0  0  0  0  0  0  0  0  0  0  0
  -36.5895  -15.5717   -2.6035 C   0  0  0  0  0  0  0  0  0  0  0  0
  -36.6146  -14.5912   -3.5862 C   0  0  0  0  0  0  0  0  0  0  0  0
  -36.9282  -13.2748   -3.2558 C   0  0  0  0  0  0  0  0  0  0  0  0
  -37.0681  -12.4326   -4.2851 F   0  0  0  0  0  0  0  0  0  0  0  0
  -37.1788  -12.8894   -1.9274 C   0  0  0  0  0  0  0  0  0  0  0  0
  -37.4138  -11.5505   -1.4977 N   0  0  0  0  0  0  0  0  0  0  0  0
  -37.0408  -10.4201   -2.2025 C   0  0  0  0  0  0  0  0  0  0  0  0
  -36.4431  -10.4249   -3.2720 O   0  0  0  0  0  0  0  0  0  0  0  0
  -37.3417   -9.2327   -1.5291 N   0  0  0  0  0  0  0  0  0  0  0  0
  -37.0543   -8.0093   -2.1934 C   0  0  0  0  0  0  0  0  0  0  0  0
  -37.5311   -7.7878   -3.4813 C   0  0  0  0  0  0  0  0  0  0  0  0
  -37.1252   -6.6607   -4.1990 C   0  0  0  0  0  0  0  0  0  0  0  0
  -36.2573   -5.6879   -3.6561 C   0  0  0  0  0  0  0  0  0  0  0  0
  -35.9811   -4.4380   -4.4132 C   0  0  0  0  0  0  0  0  0  0  0  0
  -37.0233   -3.9050   -5.2311 C   0  0  0  0  0  0  0  0  0  0  0  0
  -36.9161   -2.7206   -5.9415 C   0  0  0  0  0  0  0  0  0  0  0  0
  -35.7950   -1.9322   -5.7756 C   0  0  0  0  0  0  0  0  0  0  0  0
  -34.7934   -2.3868   -4.9194 C   0  0  0  0  0  0  0  0  0  0  0  0
  -34.7872   -3.6567   -4.3249 C   0  0  0  0  0  0  0  0  0  0  0  0
  -33.4202   -3.7673   -3.9148 C   0  0  0  0  0  0  0  0  0  0  0  0
  -32.7269   -4.9172   -3.7816 N   0  0  0  0  0  0  0  0  0  0  0  0
  -32.7718   -2.6047   -3.9029 N   0  0  0  0  0  0  0  0  0  0  0  0
  -33.6391   -1.7441   -4.4813 N   0  0  0  0  0  0  0  0  0  0  0  0
  -33.3710   -0.3734   -4.6312 C   0  0  0  0  0  0  0  0  0  0  0  0
  -34.1820    0.3463   -5.1904 O   0  0  0  0  0  0  0  0  0  0  0  0
  -32.0743    0.1246   -4.0459 C   0  0  0  0  0  0  0  0  0  0  0  0
  -31.9521    1.6052   -4.4370 C   0  0  0  0  0  0  0  0  0  0  0  0
  -30.7280    2.3165   -3.8869 C   0  0  0  0  0  0  0  0  0  0  0  0
  -29.4478    1.6978   -4.4115 C   0  0  0  0  0  0  0  0  0  0  0  0
  -28.2335    2.4752   -3.9243 C   0  0  0  0  0  0  0  0  0  0  0  0
  -26.9440    1.8974   -4.4924 C   0  0  0  0  0  0  0  0  0  0  0  0
  -26.9022    1.8626   -6.0210 C   0  0  0  0  0  0  0  0  0  0  0  0
  -27.0919    3.2403   -6.6506 C   0  0  0  0  0  0  0  0  0  0  0  0
  -26.9375    3.2140   -8.1745 C   0  0  0  0  0  0  0  0  0  0  0  0
  -25.6152    2.6077   -8.6569 C   0  0  0  0  0  0  0  0  0  0  0  0
  -24.4191    3.2769   -8.0119 C   0  0  0  0  0  0  0  0  0  0  0  0
  -24.4672    4.4009   -7.5343 O   0  0  0  0  0  0  0  0  0  0  0  0
  -23.2794    2.5014   -8.0140 N   0  0  0  0  0  0  0  0  0  0  0  0
  -21.9551    3.0006   -7.6011 C   0  0  2  0  0  0  0  0  0  0  0  0
  -21.9765    3.2426   -6.0481 C   0  0  0  0  0  0  0  0  0  0  0  0
  -21.9304    4.3791   -5.5707 O   0  0  0  0  0  0  0  0  0  0  0  0
  -22.0982    2.1516   -5.1899 N   0  0  0  0  0  0  0  0  0  0  0  0
  -22.0261    0.7208   -5.4995 C   0  0  0  0  0  0  0  0  0  0  0  0
  -22.9135    0.0581   -4.4435 C   0  0  2  0  0  0  0  0  0  0  0  0
  -24.2746    0.1091   -4.8540 O   0  0  0  0  0  0  0  0  0  0  0  0
  -22.7176    0.9276   -3.2148 C   0  0  0  0  0  0  0  0  0  0  0  0
  -22.5375    2.3434   -3.7906 C   0  0  1  0  0  0  0  0  0  0  0  0
  -21.5893    3.1541   -2.8858 C   0  0  0  0  0  0  0  0  0  0  0  0
  -20.6835    2.6572   -2.2218 O   0  0  0  0  0  0  0  0  0  0  0  0
  -21.8669    4.5007   -2.9065 N   0  0  0  0  0  0  0  0  0  0  0  0
  -21.0961    5.4466   -2.1465 C   0  0  0  0  0  0  0  0  0  0  0  0
  -21.9426    6.6451   -1.8169 C   0  0  0  0  0  0  0  0  0  0  0  0
  -22.7064    6.6585   -0.6470 C   0  0  0  0  0  0  0  0  0  0  0  0
  -23.5056    7.7604   -0.3336 C   0  0  0  0  0  0  0  0  0  0  0  0
  -23.6060    8.8598   -1.1974 C   0  0  0  0  0  0  0  0  0  0  0  0
  -24.4991    9.9885   -0.8718 C   0  0  0  0  0  0  0  0  0  0  0  0
  -24.0610   11.6053   -1.2997 S   0  0  0  0  0  0  0  0  0  0  0  0
  -25.5216   12.1817   -0.6325 C   0  0  0  0  0  0  0  0  0  0  0  0
  -26.3044   11.2809   -0.0901 N   0  0  0  0  0  0  0  0  0  0  0  0
  -25.7323   10.0213   -0.2196 C   0  0  0  0  0  0  0  0  0  0  0  0
  -26.5110    8.8732    0.3226 C   0  0  0  0  0  0  0  0  0  0  0  0
  -22.8504    8.8274   -2.3813 C   0  0  0  0  0  0  0  0  0  0  0  0
  -22.0282    7.7353   -2.6880 C   0  0  0  0  0  0  0  0  0  0  0  0
  -21.3819    4.1406   -8.5511 C   0  0  0  0  0  0  0  0  0  0  0  0
  -19.8506    4.2511   -8.3727 C   0  0  0  0  0  0  0  0  0  0  0  0
  -21.6275    3.7583  -10.0352 C   0  0  0  0  0  0  0  0  0  0  0  0
  -21.9430    5.5656   -8.3587 C   0  0  0  0  0  0  0  0  0  0  0  0
  -35.8262   -5.9097   -2.3359 C   0  0  0  0  0  0  0  0  0  0  0  0
  -36.2335   -7.0476   -1.6025 C   0  0  0  0  0  0  0  0  0  0  0  0
  -37.1918  -13.8992   -0.9507 C   0  0  0  0  0  0  0  0  0  0  0  0
  -36.6579  -17.2885   -0.6552 H   0  0  0  0  0  0  0  0  0  0  0  0
  -37.8883  -16.3861    0.2335 H   0  0  0  0  0  0  0  0  0  0  0  0
  -36.1515  -16.0913    0.5410 H   0  0  0  0  0  0  0  0  0  0  0  0
  -36.3463  -16.5940   -2.8818 H   0  0  0  0  0  0  0  0  0  0  0  0
  -36.4089  -14.8375   -4.6240 H   0  0  0  0  0  0  0  0  0  0  0  0
  -37.7335  -11.4170   -0.5529 H   0  0  0  0  0  0  0  0  0  0  0  0
  -37.1346   -9.2583   -0.5430 H   0  0  0  0  0  0  0  0  0  0  0  0
  -38.2057   -8.4997   -3.9532 H   0  0  0  0  0  0  0  0  0  0  0  0
  -37.5121   -6.5589   -5.2111 H   0  0  0  0  0  0  0  0  0  0  0  0
  -37.9725   -4.4304   -5.3194 H   0  0  0  0  0  0  0  0  0  0  0  0
  -37.7174   -2.3880   -6.5895 H   0  0  0  0  0  0  0  0  0  0  0  0
  -35.7193   -0.9830   -6.3009 H   0  0  0  0  0  0  0  0  0  0  0  0
  -31.7894   -4.7795   -4.1627 H   0  0  0  0  0  0  0  0  0  0  0  0
  -32.5359   -5.1949   -2.8237 H   0  0  0  0  0  0  0  0  0  0  0  0
  -31.2442   -0.4555   -4.4617 H   0  0  0  0  0  0  0  0  0  0  0  0
  -32.0942    0.0208   -2.9594 H   0  0  0  0  0  0  0  0  0  0  0  0
  -32.8378    2.1525   -4.0866 H   0  0  0  0  0  0  0  0  0  0  0  0
  -31.9540    1.6888   -5.5320 H   0  0  0  0  0  0  0  0  0  0  0  0
  -30.7406    2.3153   -2.7934 H   0  0  0  0  0  0  0  0  0  0  0  0
  -30.7755    3.3644   -4.2115 H   0  0  0  0  0  0  0  0  0  0  0  0
  -29.4974    1.6947   -5.5068 H   0  0  0  0  0  0  0  0  0  0  0  0
  -29.3535    0.6557   -4.0901 H   0  0  0  0  0  0  0  0  0  0  0  0
  -28.1893    2.4368   -2.8286 H   0  0  0  0  0  0  0  0  0  0  0  0
  -28.3247    3.5339   -4.1912 H   0  0  0  0  0  0  0  0  0  0  0  0
  -26.8126    0.8765   -4.1142 H   0  0  0  0  0  0  0  0  0  0  0  0
  -26.0975    2.4837   -4.1157 H   0  0  0  0  0  0  0  0  0  0  0  0
  -27.6468    1.1652   -6.4194 H   0  0  0  0  0  0  0  0  0  0  0  0
  -25.9383    1.4496   -6.3182 H   0  0  0  0  0  0  0  0  0  0  0  0
  -26.3795    3.9402   -6.2002 H   0  0  0  0  0  0  0  0  0  0  0  0
  -28.0849    3.6399   -6.4205 H   0  0  0  0  0  0  0  0  0  0  0  0
  -27.0339    4.2396   -8.5517 H   0  0  0  0  0  0  0  0  0  0  0  0
  -27.7688    2.6426   -8.6057 H   0  0  0  0  0  0  0  0  0  0  0  0
  -25.5373    2.7299   -9.7428 H   0  0  0  0  0  0  0  0  0  0  0  0
  -25.5976    1.5317   -8.4546 H   0  0  0  0  0  0  0  0  0  0  0  0
  -23.3259    1.5924   -8.4525 H   0  0  0  0  0  0  0  0  0  0  0  0
  -21.2929    2.1362   -7.7485 H   0  0  0  0  0  0  0  0  0  0  0  0
  -20.9847    0.4109   -5.3717 H   0  0  0  0  0  0  0  0  0  0  0  0
  -22.3582    0.5066   -6.5169 H   0  0  0  0  0  0  0  0  0  0  0  0
  -22.6647   -0.9905   -4.2601 H   0  0  0  0  0  0  0  0  0  0  0  0
  -24.4477    1.0312   -5.1130 H   0  0  0  0  0  0  0  0  0  0  0  0
  -21.8298    0.5856   -2.6710 H   0  0  0  0  0  0  0  0  0  0  0  0
  -23.5669    0.8975   -2.5222 H   0  0  0  0  0  0  0  0  0  0  0  0
  -23.5121    2.8484   -3.8284 H   0  0  0  0  0  0  0  0  0  0  0  0
  -22.2502    4.8381   -3.7918 H   0  0  0  0  0  0  0  0  0  0  0  0
  -20.2222    5.7323   -2.7414 H   0  0  0  0  0  0  0  0  0  0  0  0
  -20.7238    4.9796   -1.2272 H   0  0  0  0  0  0  0  0  0  0  0  0
  -22.6859    5.8074    0.0309 H   0  0  0  0  0  0  0  0  0  0  0  0
  -24.0401    7.7378    0.6097 H   0  0  0  0  0  0  0  0  0  0  0  0
  -25.7831   13.2314   -0.6552 H   0  0  0  0  0  0  0  0  0  0  0  0
  -27.4884    9.2015    0.6893 H   0  0  0  0  0  0  0  0  0  0  0  0
  -25.9926    8.4147    1.1691 H   0  0  0  0  0  0  0  0  0  0  0  0
  -26.6756    8.1168   -0.4507 H   0  0  0  0  0  0  0  0  0  0  0  0
  -22.8973    9.6461   -3.0962 H   0  0  0  0  0  0  0  0  0  0  0  0
  -21.4662    7.7376   -3.6201 H   0  0  0  0  0  0  0  0  0  0  0  0
  -19.3558    3.2878   -8.5328 H   0  0  0  0  0  0  0  0  0  0  0  0
  -19.5857    4.6170   -7.3761 H   0  0  0  0  0  0  0  0  0  0  0  0
  -19.4258    4.9537   -9.1028 H   0  0  0  0  0  0  0  0  0  0  0  0
  -21.1158    2.8259  -10.2956 H   0  0  0  0  0  0  0  0  0  0  0  0
  -21.2578    4.5389  -10.7116 H   0  0  0  0  0  0  0  0  0  0  0  0
  -22.6924    3.6348  -10.2580 H   0  0  0  0  0  0  0  0  0  0  0  0
  -21.8236    5.9343   -7.3379 H   0  0  0  0  0  0  0  0  0  0  0  0
  -22.9895    5.6534   -8.6507 H   0  0  0  0  0  0  0  0  0  0  0  0
  -21.4123    6.2781   -9.0042 H   0  0  0  0  0  0  0  0  0  0  0  0
  -35.1743   -5.1904   -1.8477 H   0  0  0  0  0  0  0  0  0  0  0  0
  -35.8505   -7.1914   -0.5977 H   0  0  0  0  0  0  0  0  0  0  0  0
  -37.4006  -13.6520    0.0877 H   0  0  0  0  0  0  0  0  0  0  0  0
  1  2  1  0  0  0  0
  1 73  1  0  0  0  0
  1 74  1  0  0  0  0
  1 75  1  0  0  0  0
  2  3  1  0  0  0  0
  2 72  2  0  0  0  0
  3  4  2  0  0  0  0
  3 76  1  0  0  0  0
  4  5  1  0  0  0  0
  4 77  1  0  0  0  0
  5  6  1  0  0  0  0
  5  7  2  0  0  0  0
  7  8  1  0  0  0  0
  7 72  1  0  0  0  0
  8  9  1  0  0  0  0
  8 78  1  0  0  0  0
  9 10  2  0  0  0  0
  9 11  1  0  0  0  0
 11 12  1  0  0  0  0
 11 79  1  0  0  0  0
 12 13  1  0  0  0  0
 12 71  2  0  0  0  0
 13 14  2  0  0  0  0
 13 80  1  0  0  0  0
 14 15  1  0  0  0  0
 14 81  1  0  0  0  0
 15 16  1  0  0  0  0
 15 70  2  0  0  0  0
 16 17  1  0  0  0  0
 16 21  2  0  0  0  0
 17 18  2  0  0  0  0
 17 82  1  0  0  0  0
 18 19  1  0  0  0  0
 18 83  1  0  0  0  0
 19 20  2  0  0  0  0
 19 84  1  0  0  0  0
 20 21  1  0  0  0  0
 20 25  1  0  0  0  0
 21 22  1  0  0  0  0
 22 23  1  0  0  0  0
 22 24  2  0  0  0  0
 23 85  1  0  0  0  0
 23 86  1  0  0  0  0
 24 25  1  0  0  0  0
 25 26  1  0  0  0  0
 26 27  2  0  0  0  0
 26 28  1  0  0  0  0
 28 29  1  0  0  0  0
 28 87  1  0  0  0  0
 28 88  1  0  0  0  0
 29 30  1  0  0  0  0
 29 89  1  0  0  0  0
 29 90  1  0  0  0  0
 30 31  1  0  0  0  0
 30 91  1  0  0  0  0
 30 92  1  0  0  0  0
 31 32  1  0  0  0  0
 31 93  1  0  0  0  0
 31 94  1  0  0  0  0
 32 33  1  0  0  0  0
 32 95  1  0  0  0  0
 32 96  1  0  0  0  0
 33 34  1  0  0  0  0
 33 97  1  0  0  0  0
 33 98  1  0  0  0  0
 34 35  1  0  0  0  0
 34 99  1  0  0  0  0
 34100  1  0  0  0  0
 35 36  1  0  0  0  0
 35101  1  0  0  0  0
 35102  1  0  0  0  0
 36 37  1  0  0  0  0
 36103  1  0  0  0  0
 36104  1  0  0  0  0
 37 38  1  0  0  0  0
 37105  1  0  0  0  0
 37106  1  0  0  0  0
 38 39  2  0  0  0  0
 38 40  1  0  0  0  0
 40107  1  0  0  0  0
 41 66  1  0  0  0  0
 41 42  1  0  0  0  0
 41 40  1  0  0  0  0
 41108  1  6  0  0  0
 42 43  2  0  0  0  0
 42 44  1  0  0  0  0
 44 45  1  0  0  0  0
 44 49  1  0  0  0  0
 45 46  1  0  0  0  0
 45109  1  0  0  0  0
 45110  1  0  0  0  0
 46 47  1  0  0  0  0
 46 48  1  0  0  0  0
 46111  1  1  0  0  0
 47112  1  0  0  0  0
 48 49  1  0  0  0  0
 48113  1  0  0  0  0
 48114  1  0  0  0  0
 49 50  1  0  0  0  0
 49115  1  6  0  0  0
 50 51  2  0  0  0  0
 50 52  1  0  0  0  0
 52 53  1  0  0  0  0
 52116  1  0  0  0  0
 53 54  1  0  0  0  0
 53117  1  0  0  0  0
 53118  1  0  0  0  0
 54 55  1  0  0  0  0
 54 65  2  0  0  0  0
 55 56  2  0  0  0  0
 55119  1  0  0  0  0
 56 57  1  0  0  0  0
 56120  1  0  0  0  0
 57 58  1  0  0  0  0
 57 64  2  0  0  0  0
 58 59  1  0  0  0  0
 58 62  2  0  0  0  0
 59 60  1  0  0  0  0
 60 61  2  0  0  0  0
 60121  1  0  0  0  0
 61 62  1  0  0  0  0
 62 63  1  0  0  0  0
 63122  1  0  0  0  0
 63123  1  0  0  0  0
 63124  1  0  0  0  0
 64 65  1  0  0  0  0
 64125  1  0  0  0  0
 65126  1  0  0  0  0
 66 67  1  0  0  0  0
 66 68  1  0  0  0  0
 66 69  1  0  0  0  0
 67127  1  0  0  0  0
 67128  1  0  0  0  0
 67129  1  0  0  0  0
 68130  1  0  0  0  0
 68131  1  0  0  0  0
 68132  1  0  0  0  0
 69133  1  0  0  0  0
 69134  1  0  0  0  0
 69135  1  0  0  0  0
 70 71  1  0  0  0  0
 70136  1  0  0  0  0
 71137  1  0  0  0  0
 72138  1  0  0  0  0
M  END
$$$$
