CHEMBL2086753
 OpenBabel04072215363D

 64 69  0  0  0  0  0  0  0  0999 V2000
    1.0736    1.5976    4.4921 C   0  0  0  0  0  0  0  0  0  0  0  0
    2.3259    0.8218    4.8875 C   0  0  0  0  0  0  0  0  0  0  0  0
    3.5733    1.5396    4.5659 N   0  0  0  0  0  0  0  0  0  0  0  0
    4.7252    0.7504    5.0444 C   0  0  0  0  0  0  0  0  0  0  0  0
    6.0400    1.4667    4.7444 C   0  0  0  0  0  0  0  0  0  0  0  0
    6.2118    1.6854    3.2372 C   0  0  0  0  0  0  0  0  0  0  0  0
    6.3166    0.4050    2.4978 N   0  0  0  0  0  0  0  0  0  0  0  0
    7.3664   -0.4791    2.7945 C   0  0  0  0  0  0  0  0  0  0  0  0
    8.6251   -0.0345    3.2349 C   0  0  0  0  0  0  0  0  0  0  0  0
    9.6510   -0.9330    3.5265 C   0  0  0  0  0  0  0  0  0  0  0  0
    9.3937   -2.2766    3.3327 C   0  0  0  0  0  0  0  0  0  0  0  0
    8.1860   -2.7740    2.8385 C   0  0  0  0  0  0  0  0  0  0  0  0
    7.1705   -1.8635    2.5553 C   0  0  0  0  0  0  0  0  0  0  0  0
    8.3477   -4.2530    2.7594 C   0  0  0  0  0  0  0  0  0  0  0  0
    7.5128   -5.2211    2.3110 C   0  0  0  0  0  0  0  0  0  0  0  0
    6.2132   -4.8642    1.7023 C   0  0  0  0  0  0  0  0  0  0  0  0
    6.1557   -4.5677    0.3317 C   0  0  0  0  0  0  0  0  0  0  0  0
    4.9287   -4.3174   -0.2822 C   0  0  0  0  0  0  0  0  0  0  0  0
    3.7573   -4.3580    0.4694 C   0  0  0  0  0  0  0  0  0  0  0  0
    3.8088   -4.6416    1.8355 C   0  0  0  0  0  0  0  0  0  0  0  0
    5.0341   -4.8989    2.4531 C   0  0  0  0  0  0  0  0  0  0  0  0
    7.9129   -6.6021    2.2920 C   0  0  0  0  0  0  0  0  0  0  0  0
    7.7806   -7.5992    3.1506 N   0  0  0  0  0  0  0  0  0  0  0  0
    8.3521   -8.6995    2.5419 C   0  0  0  0  0  0  0  0  0  0  0  0
    8.5417  -10.0173    2.9998 C   0  0  0  0  0  0  0  0  0  0  0  0
    9.2249  -10.9328    2.1734 C   0  0  0  0  0  0  0  0  0  0  0  0
    9.6816  -10.5556    0.9097 C   0  0  0  0  0  0  0  0  0  0  0  0
    9.4533   -9.2695    0.4151 C   0  0  0  0  0  0  0  0  0  0  0  0
    8.7973   -8.3788    1.2652 C   0  0  0  0  0  0  0  0  0  0  0  0
    8.4455   -7.0682    1.1140 N   0  0  0  0  0  0  0  0  0  0  0  0
    9.7672   -4.5375    3.2457 C   0  0  0  0  0  0  0  0  0  0  0  0
   10.3770   -5.5846    3.2768 O   0  0  0  0  0  0  0  0  0  0  0  0
   10.2935   -3.2993    3.5748 N   0  0  0  0  0  0  0  0  0  0  0  0
    5.0010    2.4734    2.7394 C   0  0  0  0  0  0  0  0  0  0  0  0
    3.6852    1.7968    3.1182 C   0  0  0  0  0  0  0  0  0  0  0  0
    0.1779    1.0606    4.8176 H   0  0  0  0  0  0  0  0  0  0  0  0
    0.9935    1.7195    3.4075 H   0  0  0  0  0  0  0  0  0  0  0  0
    1.0666    2.5897    4.9548 H   0  0  0  0  0  0  0  0  0  0  0  0
    2.3052   -0.1670    4.4110 H   0  0  0  0  0  0  0  0  0  0  0  0
    2.2803    0.6564    5.9716 H   0  0  0  0  0  0  0  0  0  0  0  0
    4.7319   -0.2533    4.5982 H   0  0  0  0  0  0  0  0  0  0  0  0
    4.6540    0.6140    6.1306 H   0  0  0  0  0  0  0  0  0  0  0  0
    6.8735    0.9013    5.1726 H   0  0  0  0  0  0  0  0  0  0  0  0
    6.0433    2.4413    5.2521 H   0  0  0  0  0  0  0  0  0  0  0  0
    7.0995    2.2965    3.0411 H   0  0  0  0  0  0  0  0  0  0  0  0
    6.2805    0.5508    1.4889 H   0  0  0  0  0  0  0  0  0  0  0  0
    8.8246    1.0229    3.3750 H   0  0  0  0  0  0  0  0  0  0  0  0
   10.6074   -0.5760    3.8904 H   0  0  0  0  0  0  0  0  0  0  0  0
    6.2004   -2.1898    2.1863 H   0  0  0  0  0  0  0  0  0  0  0  0
    7.0598   -4.5415   -0.2688 H   0  0  0  0  0  0  0  0  0  0  0  0
    4.8866   -4.1039   -1.3470 H   0  0  0  0  0  0  0  0  0  0  0  0
    2.7978   -4.1773   -0.0107 H   0  0  0  0  0  0  0  0  0  0  0  0
    2.8915   -4.6794    2.4179 H   0  0  0  0  0  0  0  0  0  0  0  0
    5.0634   -5.1420    3.5131 H   0  0  0  0  0  0  0  0  0  0  0  0
    8.1892  -10.3142    3.9810 H   0  0  0  0  0  0  0  0  0  0  0  0
    9.4082  -11.9416    2.5289 H   0  0  0  0  0  0  0  0  0  0  0  0
   10.2253  -11.2719    0.2989 H   0  0  0  0  0  0  0  0  0  0  0  0
    9.7982   -8.9731   -0.5693 H   0  0  0  0  0  0  0  0  0  0  0  0
    8.5760   -6.5208    0.2742 H   0  0  0  0  0  0  0  0  0  0  0  0
   11.2363   -3.1936    3.9174 H   0  0  0  0  0  0  0  0  0  0  0  0
    5.0427    2.6110    1.6522 H   0  0  0  0  0  0  0  0  0  0  0  0
    5.0216    3.4789    3.1832 H   0  0  0  0  0  0  0  0  0  0  0  0
    3.5649    0.8694    2.5444 H   0  0  0  0  0  0  0  0  0  0  0  0
    2.8917    2.4826    2.8033 H   0  0  0  0  0  0  0  0  0  0  0  0
  1  2  1  0  0  0  0
  1 36  1  0  0  0  0
  1 37  1  0  0  0  0
  1 38  1  0  0  0  0
  2  3  1  0  0  0  0
  2 39  1  0  0  0  0
  2 40  1  0  0  0  0
  3  4  1  0  0  0  0
  3 35  1  0  0  0  0
  4  5  1  0  0  0  0
  4 41  1  0  0  0  0
  4 42  1  0  0  0  0
  5  6  1  0  0  0  0
  5 43  1  0  0  0  0
  5 44  1  0  0  0  0
  6  7  1  0  0  0  0
  6 34  1  0  0  0  0
  6 45  1  0  0  0  0
  7  8  1  0  0  0  0
  7 46  1  0  0  0  0
  8  9  1  0  0  0  0
  8 13  2  0  0  0  0
  9 10  2  0  0  0  0
  9 47  1  0  0  0  0
 10 11  1  0  0  0  0
 10 48  1  0  0  0  0
 11 12  2  0  0  0  0
 11 33  1  0  0  0  0
 12 13  1  0  0  0  0
 12 14  1  0  0  0  0
 13 49  1  0  0  0  0
 14 15  2  3  0  0  0
 14 31  1  0  0  0  0
 15 16  1  0  0  0  0
 15 22  1  0  0  0  0
 16 17  1  0  0  0  0
 16 21  2  0  0  0  0
 17 18  2  0  0  0  0
 17 50  1  0  0  0  0
 18 19  1  0  0  0  0
 18 51  1  0  0  0  0
 19 20  2  0  0  0  0
 19 52  1  0  0  0  0
 20 21  1  0  0  0  0
 20 53  1  0  0  0  0
 21 54  1  0  0  0  0
 22 23  2  0  0  0  0
 22 30  1  0  0  0  0
 23 24  1  0  0  0  0
 24 25  1  0  0  0  0
 24 29  2  0  0  0  0
 25 26  2  0  0  0  0
 25 55  1  0  0  0  0
 26 27  1  0  0  0  0
 26 56  1  0  0  0  0
 27 28  2  0  0  0  0
 27 57  1  0  0  0  0
 28 29  1  0  0  0  0
 28 58  1  0  0  0  0
 29 30  1  0  0  0  0
 30 59  1  0  0  0  0
 31 32  2  0  0  0  0
 31 33  1  0  0  0  0
 33 60  1  0  0  0  0
 34 35  1  0  0  0  0
 34 61  1  0  0  0  0
 34 62  1  0  0  0  0
 35 63  1  0  0  0  0
 35 64  1  0  0  0  0
M  END
$$$$
