CHEMBL4077930
 OpenBabel04072215383D

 60 64  0  0  0  0  0  0  0  0999 V2000
   10.1509   -4.8679    0.9385 C   0  0  0  0  0  0  0  0  0  0  0  0
   10.1751   -5.2398   -0.4457 O   0  0  0  0  0  0  0  0  0  0  0  0
    9.0898   -4.8332   -1.1800 C   0  0  0  0  0  0  0  0  0  0  0  0
    8.3857   -3.6649   -0.8407 C   0  0  0  0  0  0  0  0  0  0  0  0
    7.1942   -3.3098   -1.4507 C   0  0  0  0  0  0  0  0  0  0  0  0
    6.5320   -2.2518   -0.9725 N   0  0  0  0  0  0  0  0  0  0  0  0
    5.3328   -2.0007   -1.5061 C   0  0  0  0  0  0  0  0  0  0  0  0
    4.7513   -2.6991   -2.4804 N   0  0  0  0  0  0  0  0  0  0  0  0
    5.4747   -3.7122   -3.0015 C   0  0  0  0  0  0  0  0  0  0  0  0
    4.9309   -4.4481   -4.0652 O   0  0  0  0  0  0  0  0  0  0  0  0
    3.9149   -3.8459   -4.7937 C   0  0  0  0  0  0  0  0  0  0  0  0
    4.0545   -2.5220   -5.2003 C   0  0  0  0  0  0  0  0  0  0  0  0
    2.9920   -1.8560   -5.7823 C   0  0  0  0  0  0  0  0  0  0  0  0
    1.7723   -2.4932   -6.0259 C   0  0  0  0  0  0  0  0  0  0  0  0
    0.6521   -1.7259   -6.4742 N   0  0  0  0  0  0  0  0  0  0  0  0
    0.5443   -0.3399   -6.3918 C   0  0  0  0  0  0  0  0  0  0  0  0
    1.4104    0.4202   -5.9720 O   0  0  0  0  0  0  0  0  0  0  0  0
   -0.7063    0.1182   -6.7894 N   0  0  0  0  0  0  0  0  0  0  0  0
   -1.0049    1.5050   -6.7596 C   0  0  0  0  0  0  0  0  0  0  0  0
   -2.2039    1.9198   -6.1793 C   0  0  0  0  0  0  0  0  0  0  0  0
   -2.4953    3.2816   -6.0684 C   0  0  0  0  0  0  0  0  0  0  0  0
   -1.6125    4.2345   -6.5769 C   0  0  0  0  0  0  0  0  0  0  0  0
   -0.4184    3.8375   -7.1953 C   0  0  0  0  0  0  0  0  0  0  0  0
    0.5377    4.8529   -7.7674 C   0  0  0  0  0  0  0  0  0  0  0  0
    0.1184    6.1428   -7.6024 F   0  0  0  0  0  0  0  0  0  0  0  0
    1.7770    4.7974   -7.2078 F   0  0  0  0  0  0  0  0  0  0  0  0
    0.7230    4.7013   -9.1081 F   0  0  0  0  0  0  0  0  0  0  0  0
   -0.1209    2.4641   -7.2752 C   0  0  0  0  0  0  0  0  0  0  0  0
    1.6753   -3.9105   -5.7984 C   0  0  0  0  0  0  0  0  0  0  0  0
    0.5480   -4.6976   -6.1599 C   0  0  0  0  0  0  0  0  0  0  0  0
    0.4980   -6.0764   -5.9235 C   0  0  0  0  0  0  0  0  0  0  0  0
    1.5643   -6.7123   -5.3069 C   0  0  0  0  0  0  0  0  0  0  0  0
    2.6796   -5.9728   -4.9199 C   0  0  0  0  0  0  0  0  0  0  0  0
    2.7696   -4.5849   -5.1668 C   0  0  0  0  0  0  0  0  0  0  0  0
    6.7232   -4.0937   -2.5044 C   0  0  0  0  0  0  0  0  0  0  0  0
    7.4992   -5.1809   -2.9590 C   0  0  0  0  0  0  0  0  0  0  0  0
    8.6661   -5.5761   -2.2889 C   0  0  0  0  0  0  0  0  0  0  0  0
    9.2054   -6.6976   -2.8501 O   0  0  0  0  0  0  0  0  0  0  0  0
   10.2291   -7.4122   -2.1806 C   0  0  0  0  0  0  0  0  0  0  0  0
   10.6936   -5.6268    1.5094 H   0  0  0  0  0  0  0  0  0  0  0  0
    9.1363   -4.8233    1.3551 H   0  0  0  0  0  0  0  0  0  0  0  0
   10.6598   -3.9078    1.0739 H   0  0  0  0  0  0  0  0  0  0  0  0
    8.7404   -3.0141   -0.0449 H   0  0  0  0  0  0  0  0  0  0  0  0
    4.7830   -1.1543   -1.1102 H   0  0  0  0  0  0  0  0  0  0  0  0
    4.9674   -1.9676   -5.0008 H   0  0  0  0  0  0  0  0  0  0  0  0
    3.1591   -0.8116   -6.0225 H   0  0  0  0  0  0  0  0  0  0  0  0
   -0.1766   -2.2276   -6.7442 H   0  0  0  0  0  0  0  0  0  0  0  0
   -1.4708   -0.5021   -6.5700 H   0  0  0  0  0  0  0  0  0  0  0  0
   -2.8920    1.1995   -5.7458 H   0  0  0  0  0  0  0  0  0  0  0  0
   -3.4038    3.6031   -5.5654 H   0  0  0  0  0  0  0  0  0  0  0  0
   -1.8556    5.2924   -6.4803 H   0  0  0  0  0  0  0  0  0  0  0  0
    0.8100    2.1488   -7.7470 H   0  0  0  0  0  0  0  0  0  0  0  0
   -0.3079   -4.2560   -6.6521 H   0  0  0  0  0  0  0  0  0  0  0  0
   -0.3700   -6.6508   -6.2341 H   0  0  0  0  0  0  0  0  0  0  0  0
    1.5343   -7.7850   -5.1311 H   0  0  0  0  0  0  0  0  0  0  0  0
    3.5030   -6.4973   -4.4410 H   0  0  0  0  0  0  0  0  0  0  0  0
    7.1665   -5.7619   -3.8173 H   0  0  0  0  0  0  0  0  0  0  0  0
   10.2497   -8.4170   -2.6180 H   0  0  0  0  0  0  0  0  0  0  0  0
   10.0317   -7.5419   -1.1137 H   0  0  0  0  0  0  0  0  0  0  0  0
   11.2034   -6.9515   -2.3663 H   0  0  0  0  0  0  0  0  0  0  0  0
  1  2  1  0  0  0  0
  1 40  1  0  0  0  0
  1 41  1  0  0  0  0
  1 42  1  0  0  0  0
  2  3  1  0  0  0  0
  3  4  1  0  0  0  0
  3 37  2  0  0  0  0
  4  5  2  0  0  0  0
  4 43  1  0  0  0  0
  5  6  1  0  0  0  0
  5 35  1  0  0  0  0
  6  7  2  0  0  0  0
  7  8  1  0  0  0  0
  7 44  1  0  0  0  0
  8  9  2  0  0  0  0
  9 10  1  0  0  0  0
  9 35  1  0  0  0  0
 10 11  1  0  0  0  0
 11 12  1  0  0  0  0
 11 34  2  0  0  0  0
 12 13  2  0  0  0  0
 12 45  1  0  0  0  0
 13 14  1  0  0  0  0
 13 46  1  0  0  0  0
 14 15  1  0  0  0  0
 14 29  2  0  0  0  0
 15 16  1  0  0  0  0
 15 47  1  0  0  0  0
 16 17  2  0  0  0  0
 16 18  1  0  0  0  0
 18 19  1  0  0  0  0
 18 48  1  0  0  0  0
 19 20  1  0  0  0  0
 19 28  2  0  0  0  0
 20 21  2  0  0  0  0
 20 49  1  0  0  0  0
 21 22  1  0  0  0  0
 21 50  1  0  0  0  0
 22 23  2  0  0  0  0
 22 51  1  0  0  0  0
 23 24  1  0  0  0  0
 23 28  1  0  0  0  0
 24 25  1  0  0  0  0
 24 26  1  0  0  0  0
 24 27  1  0  0  0  0
 28 52  1  0  0  0  0
 29 30  1  0  0  0  0
 29 34  1  0  0  0  0
 30 31  2  0  0  0  0
 30 53  1  0  0  0  0
 31 32  1  0  0  0  0
 31 54  1  0  0  0  0
 32 33  2  0  0  0  0
 32 55  1  0  0  0  0
 33 34  1  0  0  0  0
 33 56  1  0  0  0  0
 35 36  2  0  0  0  0
 36 37  1  0  0  0  0
 36 57  1  0  0  0  0
 37 38  1  0  0  0  0
 38 39  1  0  0  0  0
 39 58  1  0  0  0  0
 39 59  1  0  0  0  0
 39 60  1  0  0  0  0
M  END
$$$$
