CHEMBL416191
 OpenBabel04072215383D

 54 57  0  0  0  0  0  0  0  0999 V2000
    3.1512    1.3592    0.0449 C   0  0  0  0  0  0  0  0  0  0  0  0
    2.5888    0.1316   -0.4111 O   0  0  0  0  0  0  0  0  0  0  0  0
    3.1891   -1.0666   -0.1516 C   0  0  0  0  0  0  0  0  0  0  0  0
    4.2723   -1.1929    0.7140 C   0  0  0  0  0  0  0  0  0  0  0  0
    4.8878   -2.4333    0.9739 C   0  0  0  0  0  0  0  0  0  0  0  0
    5.9572   -2.5803    1.8658 C   0  0  0  0  0  0  0  0  0  0  0  0
    6.3602   -1.4592    2.6466 N   0  0  0  0  0  0  0  0  0  0  0  0
    7.6152   -1.3642    3.2865 C   0  0  0  0  0  0  0  0  0  0  0  0
    8.8109   -1.6461    2.6139 C   0  0  0  0  0  0  0  0  0  0  0  0
    8.7988   -1.9180    1.2994 F   0  0  0  0  0  0  0  0  0  0  0  0
   10.0372   -1.6279    3.2694 C   0  0  0  0  0  0  0  0  0  0  0  0
   10.0800   -1.3010    4.6202 C   0  0  0  0  0  0  0  0  0  0  0  0
   11.7304   -1.3528    5.5384 Br  0  0  0  0  0  0  0  0  0  0  0  0
    8.9182   -0.9493    5.3039 C   0  0  0  0  0  0  0  0  0  0  0  0
    7.7014   -0.9744    4.6275 C   0  0  0  0  0  0  0  0  0  0  0  0
    6.5830   -0.6373    5.2891 F   0  0  0  0  0  0  0  0  0  0  0  0
    6.5742   -3.7594    2.0504 N   0  0  0  0  0  0  0  0  0  0  0  0
    6.1017   -4.7882    1.3319 C   0  0  0  0  0  0  0  0  0  0  0  0
    5.0633   -4.7611    0.4842 N   0  0  0  0  0  0  0  0  0  0  0  0
    4.4565   -3.5797    0.3092 C   0  0  0  0  0  0  0  0  0  0  0  0
    3.3664   -3.4610   -0.5446 C   0  0  0  0  0  0  0  0  0  0  0  0
    2.6994   -2.2367   -0.7613 C   0  0  0  0  0  0  0  0  0  0  0  0
    1.6131   -2.3665   -1.6015 O   0  0  0  0  0  0  0  0  0  0  0  0
    0.6273   -1.3343   -1.5453 C   0  0  0  0  0  0  0  0  0  0  0  0
   -0.7317   -1.8142   -2.1002 C   0  0  0  0  0  0  0  0  0  0  0  0
   -0.7083   -2.2059   -3.5833 C   0  0  0  0  0  0  0  0  0  0  0  0
   -0.5440   -0.9994   -4.5126 C   0  0  0  0  0  0  0  0  0  0  0  0
   -1.5276    0.0621   -4.2484 N   0  0  0  0  0  0  0  0  0  0  0  0
   -1.2568    1.2199   -5.1051 C   0  0  0  0  0  0  0  0  0  0  0  0
   -1.5542    0.4727   -2.8400 C   0  0  0  0  0  0  0  0  0  0  0  0
   -1.7931   -0.7198   -1.9094 C   0  0  0  0  0  0  0  0  0  0  0  0
    3.6184    1.8740   -0.7993 H   0  0  0  0  0  0  0  0  0  0  0  0
    3.8740    1.2977    0.8585 H   0  0  0  0  0  0  0  0  0  0  0  0
    2.3326    1.9802    0.4196 H   0  0  0  0  0  0  0  0  0  0  0  0
    4.6985   -0.3367    1.2147 H   0  0  0  0  0  0  0  0  0  0  0  0
    5.5998   -1.2052    3.2754 H   0  0  0  0  0  0  0  0  0  0  0  0
   10.9331   -1.8781    2.7109 H   0  0  0  0  0  0  0  0  0  0  0  0
    8.9388   -0.6730    6.3537 H   0  0  0  0  0  0  0  0  0  0  0  0
    6.6136   -5.7383    1.4588 H   0  0  0  0  0  0  0  0  0  0  0  0
    3.0051   -4.3540   -1.0521 H   0  0  0  0  0  0  0  0  0  0  0  0
    0.9920   -0.4787   -2.1205 H   0  0  0  0  0  0  0  0  0  0  0  0
    0.4578   -1.0418   -0.5015 H   0  0  0  0  0  0  0  0  0  0  0  0
   -1.0278   -2.7040   -1.5292 H   0  0  0  0  0  0  0  0  0  0  0  0
   -1.6567   -2.7065   -3.8271 H   0  0  0  0  0  0  0  0  0  0  0  0
    0.0838   -2.9367   -3.7802 H   0  0  0  0  0  0  0  0  0  0  0  0
   -0.6748   -1.3511   -5.5438 H   0  0  0  0  0  0  0  0  0  0  0  0
    0.4799   -0.6155   -4.4325 H   0  0  0  0  0  0  0  0  0  0  0  0
   -1.3099    0.9403   -6.1630 H   0  0  0  0  0  0  0  0  0  0  0  0
   -0.2660    1.6493   -4.9126 H   0  0  0  0  0  0  0  0  0  0  0  0
   -2.0049    2.0049   -4.9474 H   0  0  0  0  0  0  0  0  0  0  0  0
   -2.3673    1.1924   -2.6844 H   0  0  0  0  0  0  0  0  0  0  0  0
   -0.6247    0.9857   -2.5639 H   0  0  0  0  0  0  0  0  0  0  0  0
   -2.7880   -1.1396   -2.1082 H   0  0  0  0  0  0  0  0  0  0  0  0
   -1.8034   -0.3770   -0.8680 H   0  0  0  0  0  0  0  0  0  0  0  0
  1  2  1  0  0  0  0
  1 32  1  0  0  0  0
  1 33  1  0  0  0  0
  1 34  1  0  0  0  0
  2  3  1  0  0  0  0
  3  4  1  0  0  0  0
  3 22  2  0  0  0  0
  4  5  2  0  0  0  0
  4 35  1  0  0  0  0
  5  6  1  0  0  0  0
  5 20  1  0  0  0  0
  6  7  1  0  0  0  0
  6 17  2  0  0  0  0
  7  8  1  0  0  0  0
  7 36  1  0  0  0  0
  8  9  1  0  0  0  0
  8 15  2  0  0  0  0
  9 10  1  0  0  0  0
  9 11  2  0  0  0  0
 11 12  1  0  0  0  0
 11 37  1  0  0  0  0
 12 13  1  0  0  0  0
 12 14  2  0  0  0  0
 14 15  1  0  0  0  0
 14 38  1  0  0  0  0
 15 16  1  0  0  0  0
 17 18  1  0  0  0  0
 18 19  2  0  0  0  0
 18 39  1  0  0  0  0
 19 20  1  0  0  0  0
 20 21  2  0  0  0  0
 21 22  1  0  0  0  0
 21 40  1  0  0  0  0
 22 23  1  0  0  0  0
 23 24  1  0  0  0  0
 24 25  1  0  0  0  0
 24 41  1  0  0  0  0
 24 42  1  0  0  0  0
 25 26  1  0  0  0  0
 25 31  1  0  0  0  0
 25 43  1  0  0  0  0
 26 27  1  0  0  0  0
 26 44  1  0  0  0  0
 26 45  1  0  0  0  0
 27 28  1  0  0  0  0
 27 46  1  0  0  0  0
 27 47  1  0  0  0  0
 28 29  1  0  0  0  0
 28 30  1  0  0  0  0
 29 48  1  0  0  0  0
 29 49  1  0  0  0  0
 29 50  1  0  0  0  0
 30 31  1  0  0  0  0
 30 51  1  0  0  0  0
 30 52  1  0  0  0  0
 31 53  1  0  0  0  0
 31 54  1  0  0  0  0
M  END
$$$$
