CHEMBL391127
 OpenBabel04072215373D

 40 42  0  0  0  0  0  0  0  0999 V2000
   -2.1165   -0.0241   -0.0395 C   0  0  0  0  0  0  0  0  0  0  0  0
   -0.6730   -0.1333   -0.0105 N   0  0  0  0  0  0  0  0  0  0  0  0
    0.0523    1.0004    0.0173 N   0  0  0  0  0  0  0  0  0  0  0  0
    1.3071    0.5630    0.0498 C   0  0  0  0  0  0  0  0  0  0  0  0
    1.3927   -0.8477    0.0515 C   0  0  0  0  0  0  0  0  0  0  0  0
    2.5726   -1.5147    0.0635 N   0  0  0  0  0  0  0  0  0  0  0  0
    2.8165   -2.7805   -0.6113 C   0  0  0  0  0  0  0  0  0  0  0  0
    3.3442   -3.8127    0.3604 C   0  0  0  0  0  0  0  0  0  0  0  0
    3.5951   -3.5286    1.7086 C   0  0  0  0  0  0  0  0  0  0  0  0
    4.0471   -4.5399    2.5407 C   0  0  0  0  0  0  0  0  0  0  0  0
    4.2686   -5.8020    2.1234 N   0  0  0  0  0  0  0  0  0  0  0  0
    4.0435   -6.0596    0.8185 C   0  0  0  0  0  0  0  0  0  0  0  0
    3.5878   -5.1149   -0.0887 C   0  0  0  0  0  0  0  0  0  0  0  0
    0.0824   -1.2933    0.0479 C   0  0  0  0  0  0  0  0  0  0  0  0
   -0.5440   -2.5999    0.0474 C   0  0  0  0  0  0  0  0  0  0  0  0
   -1.6133   -2.7709   -0.5283 O   0  0  0  0  0  0  0  0  0  0  0  0
    0.0924   -3.5861    0.7859 N   0  0  0  0  0  0  0  0  0  0  0  0
   -0.3228   -4.9387    0.8805 C   0  0  0  0  0  0  0  0  0  0  0  0
   -1.2393   -5.5111   -0.0071 C   0  0  0  0  0  0  0  0  0  0  0  0
   -1.6916   -6.8218    0.1628 C   0  0  0  0  0  0  0  0  0  0  0  0
   -1.2175   -7.5918    1.2210 C   0  0  0  0  0  0  0  0  0  0  0  0
   -1.8635   -9.1828    1.4050 Cl  0  0  0  0  0  0  0  0  0  0  0  0
   -0.2564   -7.0552    2.0838 C   0  0  0  0  0  0  0  0  0  0  0  0
    0.3861   -7.9599    3.4099 Cl  0  0  0  0  0  0  0  0  0  0  0  0
    0.2010   -5.7383    1.9040 C   0  0  0  0  0  0  0  0  0  0  0  0
   -2.4023    1.0291    0.0304 H   0  0  0  0  0  0  0  0  0  0  0  0
   -2.5264   -0.5687    0.8148 H   0  0  0  0  0  0  0  0  0  0  0  0
   -2.4776   -0.4341   -0.9854 H   0  0  0  0  0  0  0  0  0  0  0  0
    2.1093    1.2888    0.0515 H   0  0  0  0  0  0  0  0  0  0  0  0
    3.4240   -0.9526    0.0786 H   0  0  0  0  0  0  0  0  0  0  0  0
    3.5715   -2.6147   -1.3911 H   0  0  0  0  0  0  0  0  0  0  0  0
    1.9223   -3.1620   -1.1159 H   0  0  0  0  0  0  0  0  0  0  0  0
    3.4311   -2.5396    2.1274 H   0  0  0  0  0  0  0  0  0  0  0  0
    4.2371   -4.3552    3.5937 H   0  0  0  0  0  0  0  0  0  0  0  0
    4.2407   -7.0829    0.5112 H   0  0  0  0  0  0  0  0  0  0  0  0
    3.4250   -5.3980   -1.1240 H   0  0  0  0  0  0  0  0  0  0  0  0
    0.8522   -3.2806    1.3821 H   0  0  0  0  0  0  0  0  0  0  0  0
   -1.6281   -4.9615   -0.8596 H   0  0  0  0  0  0  0  0  0  0  0  0
   -2.4255   -7.2222   -0.5328 H   0  0  0  0  0  0  0  0  0  0  0  0
    0.9439   -5.3432    2.5920 H   0  0  0  0  0  0  0  0  0  0  0  0
  1  2  1  0  0  0  0
  1 26  1  0  0  0  0
  1 27  1  0  0  0  0
  1 28  1  0  0  0  0
  2  3  1  0  0  0  0
  2 14  1  0  0  0  0
  3  4  2  0  0  0  0
  4  5  1  0  0  0  0
  4 29  1  0  0  0  0
  5  6  1  0  0  0  0
  5 14  2  0  0  0  0
  6  7  1  0  0  0  0
  6 30  1  0  0  0  0
  7  8  1  0  0  0  0
  7 31  1  0  0  0  0
  7 32  1  0  0  0  0
  8  9  1  0  0  0  0
  8 13  2  0  0  0  0
  9 10  2  0  0  0  0
  9 33  1  0  0  0  0
 10 11  1  0  0  0  0
 10 34  1  0  0  0  0
 11 12  2  0  0  0  0
 12 13  1  0  0  0  0
 12 35  1  0  0  0  0
 13 36  1  0  0  0  0
 14 15  1  0  0  0  0
 15 16  2  0  0  0  0
 15 17  1  0  0  0  0
 17 18  1  0  0  0  0
 17 37  1  0  0  0  0
 18 19  1  0  0  0  0
 18 25  2  0  0  0  0
 19 20  2  0  0  0  0
 19 38  1  0  0  0  0
 20 21  1  0  0  0  0
 20 39  1  0  0  0  0
 21 22  1  0  0  0  0
 21 23  2  0  0  0  0
 23 24  1  0  0  0  0
 23 25  1  0  0  0  0
 25 40  1  0  0  0  0
M  END
$$$$
