CHEMBL3901357
 OpenBabel04072215373D

 73 77  0  0  1  0  0  0  0  0999 V2000
    0.6996   -3.3295    2.3225 C   0  0  0  0  0  0  0  0  0  0  0  0
    2.0799   -3.3585    2.6937 O   0  0  0  0  0  0  0  0  0  0  0  0
    2.9595   -2.6407    1.9242 C   0  0  0  0  0  0  0  0  0  0  0  0
    2.6209   -2.0142    0.7252 C   0  0  0  0  0  0  0  0  0  0  0  0
    3.5665   -1.2502    0.0488 C   0  0  0  0  0  0  0  0  0  0  0  0
    3.3611   -0.5750   -1.1276 O   0  0  0  0  0  0  0  0  0  0  0  0
    2.1012   -0.7448   -1.7625 C   0  0  0  0  0  0  0  0  0  0  0  0
    4.8570   -1.1024    0.5692 C   0  0  0  0  0  0  0  0  0  0  0  0
    5.2500   -1.7239    1.7652 C   0  0  0  0  0  0  0  0  0  0  0  0
    6.5062   -1.4878    2.3755 N   0  0  0  0  0  0  0  0  0  0  0  0
    7.1188   -0.1094    2.1924 C   0  0  0  0  0  0  0  0  0  0  0  0
    6.3543    1.1240    2.7665 C   0  0  0  0  0  0  0  0  0  0  0  0
    7.0474    2.4011    2.4670 N   0  0  0  0  0  0  0  0  0  0  0  0
    8.4114    2.6165    2.9602 C   0  0  0  0  0  0  0  0  0  0  0  0
    8.6112    3.6289    4.1127 C   0  0  1  0  0  0  0  0  0  0  0  0
   10.0842    4.0477    4.2135 C   0  0  0  0  0  0  0  0  0  0  0  0
    7.7359    4.8727    3.9603 C   0  0  0  0  0  0  0  0  0  0  0  0
    6.2871    4.4533    3.7109 C   0  0  1  0  0  0  0  0  0  0  0  0
    5.3881    5.6849    3.6040 C   0  0  0  0  0  0  0  0  0  0  0  0
    6.2175    3.6031    2.4337 C   0  0  0  0  0  0  0  0  0  0  0  0
    7.6286   -2.4072    2.4382 C   0  0  0  0  0  0  0  0  0  0  0  0
    8.3674   -2.3252    3.6223 C   0  0  0  0  0  0  0  0  0  0  0  0
    9.7027   -2.6646    3.6306 C   0  0  0  0  0  0  0  0  0  0  0  0
   10.3225   -3.1935    2.5256 C   0  0  0  0  0  0  0  0  0  0  0  0
   11.6509   -3.2893    2.6335 N   0  0  0  0  0  0  0  0  0  0  0  0
   12.2922   -3.9173    1.6356 C   0  0  0  0  0  0  0  0  0  0  0  0
   11.6128   -4.4992    0.5874 C   0  0  0  0  0  0  0  0  0  0  0  0
   12.3881   -5.3987   -0.2562 C   0  0  0  0  0  0  0  0  0  0  0  0
   12.5638   -6.8030   -0.1549 C   0  0  0  0  0  0  0  0  0  0  0  0
   13.5208   -7.2670   -0.9685 N   0  0  0  0  0  0  0  0  0  0  0  0
   13.9577   -6.1611   -1.5945 N   0  0  0  0  0  0  0  0  0  0  0  0
   14.7596   -6.2660   -2.7908 C   0  0  0  0  0  0  0  0  0  0  0  0
   13.4401   -5.0092   -1.0673 C   0  0  0  0  0  0  0  0  0  0  0  0
   10.2590   -4.3231    0.4206 N   0  0  0  0  0  0  0  0  0  0  0  0
    9.5754   -3.5900    1.3906 C   0  0  0  0  0  0  0  0  0  0  0  0
    8.2048   -3.1378    1.3605 C   0  0  0  0  0  0  0  0  0  0  0  0
    4.2761   -2.5156    2.4154 C   0  0  0  0  0  0  0  0  0  0  0  0
    0.1161   -3.8095    3.1155 H   0  0  0  0  0  0  0  0  0  0  0  0
    0.5316   -3.8981    1.4014 H   0  0  0  0  0  0  0  0  0  0  0  0
    0.3235   -2.3044    2.2224 H   0  0  0  0  0  0  0  0  0  0  0  0
    1.6175   -2.1011    0.3311 H   0  0  0  0  0  0  0  0  0  0  0  0
    2.1375   -0.2183   -2.7204 H   0  0  0  0  0  0  0  0  0  0  0  0
    1.2970   -0.2991   -1.1674 H   0  0  0  0  0  0  0  0  0  0  0  0
    1.8988   -1.8001   -1.9716 H   0  0  0  0  0  0  0  0  0  0  0  0
    5.5542   -0.4805    0.0247 H   0  0  0  0  0  0  0  0  0  0  0  0
    7.3636    0.0486    1.1363 H   0  0  0  0  0  0  0  0  0  0  0  0
    8.0789   -0.0902    2.7154 H   0  0  0  0  0  0  0  0  0  0  0  0
    6.1932    1.0232    3.8463 H   0  0  0  0  0  0  0  0  0  0  0  0
    5.3616    1.1470    2.3018 H   0  0  0  0  0  0  0  0  0  0  0  0
    8.9998    2.9556    2.0981 H   0  0  0  0  0  0  0  0  0  0  0  0
    8.8842    1.6805    3.2734 H   0  0  0  0  0  0  0  0  0  0  0  0
    8.3346    3.1370    5.0547 H   0  0  0  0  0  0  0  0  0  0  0  0
   10.4233    4.5305    3.2890 H   0  0  0  0  0  0  0  0  0  0  0  0
   10.7285    3.1821    4.3965 H   0  0  0  0  0  0  0  0  0  0  0  0
   10.2369    4.7607    5.0316 H   0  0  0  0  0  0  0  0  0  0  0  0
    8.0993    5.4982    3.1336 H   0  0  0  0  0  0  0  0  0  0  0  0
    7.8030    5.4861    4.8686 H   0  0  0  0  0  0  0  0  0  0  0  0
    5.9387    3.8554    4.5630 H   0  0  0  0  0  0  0  0  0  0  0  0
    5.6318    6.2868    2.7219 H   0  0  0  0  0  0  0  0  0  0  0  0
    5.4934    6.3244    4.4875 H   0  0  0  0  0  0  0  0  0  0  0  0
    4.3371    5.3869    3.5324 H   0  0  0  0  0  0  0  0  0  0  0  0
    6.5730    4.2154    1.5923 H   0  0  0  0  0  0  0  0  0  0  0  0
    5.1757    3.3646    2.1919 H   0  0  0  0  0  0  0  0  0  0  0  0
    7.9381   -1.8305    4.4885 H   0  0  0  0  0  0  0  0  0  0  0  0
   10.3081   -2.4291    4.5052 H   0  0  0  0  0  0  0  0  0  0  0  0
   13.3691   -3.9645    1.7275 H   0  0  0  0  0  0  0  0  0  0  0  0
   12.0611   -7.5044    0.4994 H   0  0  0  0  0  0  0  0  0  0  0  0
   14.9177   -7.3184   -3.0415 H   0  0  0  0  0  0  0  0  0  0  0  0
   15.7162   -5.7625   -2.6354 H   0  0  0  0  0  0  0  0  0  0  0  0
   14.1995   -5.7820   -3.5960 H   0  0  0  0  0  0  0  0  0  0  0  0
   13.8295   -4.0403   -1.3471 H   0  0  0  0  0  0  0  0  0  0  0  0
    7.6298   -3.2968    0.4501 H   0  0  0  0  0  0  0  0  0  0  0  0
    4.5189   -3.0003    3.3603 H   0  0  0  0  0  0  0  0  0  0  0  0
  1  2  1  0  0  0  0
  1 38  1  0  0  0  0
  1 39  1  0  0  0  0
  1 40  1  0  0  0  0
  2  3  1  0  0  0  0
  3  4  1  0  0  0  0
  3 37  2  0  0  0  0
  4  5  2  0  0  0  0
  4 41  1  0  0  0  0
  5  6  1  0  0  0  0
  5  8  1  0  0  0  0
  6  7  1  0  0  0  0
  7 42  1  0  0  0  0
  7 43  1  0  0  0  0
  7 44  1  0  0  0  0
  8  9  2  0  0  0  0
  8 45  1  0  0  0  0
  9 10  1  0  0  0  0
  9 37  1  0  0  0  0
 10 11  1  0  0  0  0
 10 21  1  0  0  0  0
 11 12  1  0  0  0  0
 11 46  1  0  0  0  0
 11 47  1  0  0  0  0
 12 13  1  0  0  0  0
 12 48  1  0  0  0  0
 12 49  1  0  0  0  0
 13 14  1  0  0  0  0
 13 20  1  0  0  0  0
 14 15  1  0  0  0  0
 14 50  1  0  0  0  0
 14 51  1  0  0  0  0
 15 16  1  0  0  0  0
 15 17  1  0  0  0  0
 15 52  1  1  0  0  0
 16 53  1  0  0  0  0
 16 54  1  0  0  0  0
 16 55  1  0  0  0  0
 17 18  1  0  0  0  0
 17 56  1  0  0  0  0
 17 57  1  0  0  0  0
 18 19  1  0  0  0  0
 18 20  1  0  0  0  0
 18 58  1  1  0  0  0
 19 59  1  0  0  0  0
 19 60  1  0  0  0  0
 19 61  1  0  0  0  0
 20 62  1  0  0  0  0
 20 63  1  0  0  0  0
 21 22  1  0  0  0  0
 21 36  2  0  0  0  0
 22 23  2  0  0  0  0
 22 64  1  0  0  0  0
 23 24  1  0  0  0  0
 23 65  1  0  0  0  0
 24 25  1  0  0  0  0
 24 35  2  0  0  0  0
 25 26  2  0  0  0  0
 26 27  1  0  0  0  0
 26 66  1  0  0  0  0
 27 28  1  0  0  0  0
 27 34  2  0  0  0  0
 28 29  1  0  0  0  0
 28 33  2  0  0  0  0
 29 30  2  0  0  0  0
 29 67  1  0  0  0  0
 30 31  1  0  0  0  0
 31 32  1  0  0  0  0
 31 33  1  0  0  0  0
 32 68  1  0  0  0  0
 32 69  1  0  0  0  0
 32 70  1  0  0  0  0
 33 71  1  0  0  0  0
 34 35  1  0  0  0  0
 35 36  1  0  0  0  0
 36 72  1  0  0  0  0
 37 73  1  0  0  0  0
M  END
$$$$
