CHEMBL3633303
 OpenBabel04072215373D

 46 49  0  0  0  0  0  0  0  0999 V2000
    0.4529    1.6369    2.7949 C   0  0  0  0  0  0  0  0  0  0  0  0
   -0.4205    0.5495    2.2383 C   0  0  0  0  0  0  0  0  0  0  0  0
   -1.7960    0.7628    2.1718 C   0  0  0  0  0  0  0  0  0  0  0  0
   -2.6496   -0.2227    1.6667 C   0  0  0  0  0  0  0  0  0  0  0  0
   -2.1626   -1.4464    1.1998 C   0  0  0  0  0  0  0  0  0  0  0  0
   -3.0094   -2.4717    0.6850 N   0  0  0  0  0  0  0  0  0  0  0  0
   -4.3718   -2.3528    0.4865 C   0  0  0  0  0  0  0  0  0  0  0  0
   -5.0211   -1.3246    0.6668 O   0  0  0  0  0  0  0  0  0  0  0  0
   -4.9734   -3.5396    0.0792 N   0  0  0  0  0  0  0  0  0  0  0  0
   -6.3744   -3.5609   -0.1532 C   0  0  0  0  0  0  0  0  0  0  0  0
   -7.0018   -2.5550   -0.8891 C   0  0  0  0  0  0  0  0  0  0  0  0
   -8.3888   -2.5163   -0.9866 C   0  0  0  0  0  0  0  0  0  0  0  0
   -9.1588   -3.4811   -0.3371 C   0  0  0  0  0  0  0  0  0  0  0  0
   -8.5621   -4.5439    0.3657 C   0  0  0  0  0  0  0  0  0  0  0  0
   -9.3828   -5.6304    0.9462 C   0  0  0  0  0  0  0  0  0  0  0  0
  -10.5423   -6.0995    0.2789 C   0  0  0  0  0  0  0  0  0  0  0  0
  -11.2206   -7.2512    0.6747 C   0  0  0  0  0  0  0  0  0  0  0  0
  -10.7440   -8.0269    1.7265 C   0  0  0  0  0  0  0  0  0  0  0  0
   -9.6379   -7.5353    2.4240 C   0  0  0  0  0  0  0  0  0  0  0  0
   -8.9241   -8.0713    3.4620 N   0  0  0  0  0  0  0  0  0  0  0  0
   -8.0157   -7.2420    3.9909 N   0  0  0  0  0  0  0  0  0  0  0  0
   -8.0692   -6.1732    3.2016 C   0  0  0  0  0  0  0  0  0  0  0  0
   -7.3352   -5.0750    3.4473 N   0  0  0  0  0  0  0  0  0  0  0  0
   -8.9972   -6.3327    2.1224 C   0  0  0  0  0  0  0  0  0  0  0  0
   -7.1495   -4.5791    0.4087 C   0  0  0  0  0  0  0  0  0  0  0  0
   -0.7871   -1.6670    1.2599 C   0  0  0  0  0  0  0  0  0  0  0  0
    0.0776   -0.6817    1.7808 C   0  0  0  0  0  0  0  0  0  0  0  0
    1.7701   -1.0265    1.8314 Cl  0  0  0  0  0  0  0  0  0  0  0  0
   -0.1391    2.5173    3.0753 H   0  0  0  0  0  0  0  0  0  0  0  0
    1.1852    1.9659    2.0518 H   0  0  0  0  0  0  0  0  0  0  0  0
    0.9664    1.2928    3.6978 H   0  0  0  0  0  0  0  0  0  0  0  0
   -2.2342    1.6994    2.5145 H   0  0  0  0  0  0  0  0  0  0  0  0
   -3.7036    0.0259    1.6589 H   0  0  0  0  0  0  0  0  0  0  0  0
   -2.5706   -3.3005    0.3313 H   0  0  0  0  0  0  0  0  0  0  0  0
   -4.5767   -4.3716    0.4956 H   0  0  0  0  0  0  0  0  0  0  0  0
   -6.4159   -1.7811   -1.3787 H   0  0  0  0  0  0  0  0  0  0  0  0
   -8.8695   -1.7255   -1.5557 H   0  0  0  0  0  0  0  0  0  0  0  0
  -10.2415   -3.3969   -0.4032 H   0  0  0  0  0  0  0  0  0  0  0  0
  -10.9075   -5.5821   -0.6068 H   0  0  0  0  0  0  0  0  0  0  0  0
  -12.1013   -7.5704    0.1213 H   0  0  0  0  0  0  0  0  0  0  0  0
  -11.2267   -8.9605    1.9957 H   0  0  0  0  0  0  0  0  0  0  0  0
   -9.0185   -8.9979    3.8595 H   0  0  0  0  0  0  0  0  0  0  0  0
   -6.9215   -5.0068    4.3707 H   0  0  0  0  0  0  0  0  0  0  0  0
   -7.6359   -4.1779    3.0778 H   0  0  0  0  0  0  0  0  0  0  0  0
   -6.6479   -5.3867    0.9369 H   0  0  0  0  0  0  0  0  0  0  0  0
   -0.3598   -2.6084    0.9158 H   0  0  0  0  0  0  0  0  0  0  0  0
  1  2  1  0  0  0  0
  1 29  1  0  0  0  0
  1 30  1  0  0  0  0
  1 31  1  0  0  0  0
  2  3  1  0  0  0  0
  2 27  2  0  0  0  0
  3  4  2  0  0  0  0
  3 32  1  0  0  0  0
  4  5  1  0  0  0  0
  4 33  1  0  0  0  0
  5  6  1  0  0  0  0
  5 26  2  0  0  0  0
  6  7  1  0  0  0  0
  6 34  1  0  0  0  0
  7  8  2  0  0  0  0
  7  9  1  0  0  0  0
  9 10  1  0  0  0  0
  9 35  1  0  0  0  0
 10 11  1  0  0  0  0
 10 25  2  0  0  0  0
 11 12  2  0  0  0  0
 11 36  1  0  0  0  0
 12 13  1  0  0  0  0
 12 37  1  0  0  0  0
 13 14  2  0  0  0  0
 13 38  1  0  0  0  0
 14 15  1  0  0  0  0
 14 25  1  0  0  0  0
 15 16  1  0  0  0  0
 15 24  2  0  0  0  0
 16 17  2  0  0  0  0
 16 39  1  0  0  0  0
 17 18  1  0  0  0  0
 17 40  1  0  0  0  0
 18 19  2  0  0  0  0
 18 41  1  0  0  0  0
 19 20  1  0  0  0  0
 19 24  1  0  0  0  0
 20 21  1  0  0  0  0
 20 42  1  0  0  0  0
 21 22  2  0  0  0  0
 22 23  1  0  0  0  0
 22 24  1  0  0  0  0
 23 43  1  0  0  0  0
 23 44  1  0  0  0  0
 25 45  1  0  0  0  0
 26 27  1  0  0  0  0
 26 46  1  0  0  0  0
 27 28  1  0  0  0  0
M  END
$$$$
