CHEMBL3690422
 OpenBabel04072215373D

 48 51  0  0  0  0  0  0  0  0999 V2000
   -1.5803   -0.4523    2.1237 C   0  0  0  0  0  0  0  0  0  0  0  0
   -0.6045   -0.2383    1.0071 C   0  0  0  0  0  0  0  0  0  0  0  0
   -0.3810   -1.2101    0.0558 C   0  0  0  0  0  0  0  0  0  0  0  0
    0.5313   -0.9007   -0.9257 C   0  0  0  0  0  0  0  0  0  0  0  0
    1.1863    0.2718   -0.9839 N   0  0  0  0  0  0  0  0  0  0  0  0
    0.9094    1.1613   -0.0126 C   0  0  0  0  0  0  0  0  0  0  0  0
    1.6220    2.4669   -0.0693 C   0  0  0  0  0  0  0  0  0  0  0  0
    2.5725    2.7774   -1.1464 C   0  0  0  0  0  0  0  0  0  0  0  0
    3.2044    3.9609   -1.1752 C   0  0  0  0  0  0  0  0  0  0  0  0
    2.9327    4.9143   -0.1955 N   0  0  0  0  0  0  0  0  0  0  0  0
    3.4024    6.2131   -0.0290 C   0  0  0  0  0  0  0  0  0  0  0  0
    4.3352    6.9451   -0.8985 C   0  0  0  0  0  0  0  0  0  0  0  0
    5.2391    7.8400   -0.3091 C   0  0  0  0  0  0  0  0  0  0  0  0
    6.1274    8.5709   -1.0915 C   0  0  0  0  0  0  0  0  0  0  0  0
    6.1552    8.3875   -2.4719 C   0  0  0  0  0  0  0  0  0  0  0  0
    5.2921    7.4881   -3.0929 C   0  0  0  0  0  0  0  0  0  0  0  0
    5.3262    7.2190   -4.4861 N   0  0  0  0  0  0  0  0  0  0  0  0
    6.2258    7.7378   -5.3884 C   0  0  0  0  0  0  0  0  0  0  0  0
    7.1509    8.5073   -5.1521 O   0  0  0  0  0  0  0  0  0  0  0  0
    5.9704    7.3481   -6.6843 N   0  0  0  0  0  0  0  0  0  0  0  0
    6.8534    7.8612   -7.7428 C   0  0  0  0  0  0  0  0  0  0  0  0
    8.2225    7.1771   -7.8847 C   0  0  0  0  0  0  0  0  0  0  0  0
    8.3232    6.0691   -7.1155 F   0  0  0  0  0  0  0  0  0  0  0  0
    8.4017    6.7764   -9.1698 F   0  0  0  0  0  0  0  0  0  0  0  0
    9.2467    8.0001   -7.5788 F   0  0  0  0  0  0  0  0  0  0  0  0
    4.3488    6.8094   -2.3011 C   0  0  0  0  0  0  0  0  0  0  0  0
    2.8297    6.6163    1.1707 C   0  0  0  0  0  0  0  0  0  0  0  0
    2.0076    5.6641    1.7044 N   0  0  0  0  0  0  0  0  0  0  0  0
    2.0656    4.6563    0.8654 C   0  0  0  0  0  0  0  0  0  0  0  0
    1.4091    3.3917    0.8987 C   0  0  0  0  0  0  0  0  0  0  0  0
    0.0322    0.9508    0.9872 N   0  0  0  0  0  0  0  0  0  0  0  0
   -2.0591   -1.4343    2.0621 H   0  0  0  0  0  0  0  0  0  0  0  0
   -2.3621    0.3129    2.0827 H   0  0  0  0  0  0  0  0  0  0  0  0
   -1.0654   -0.3816    3.0871 H   0  0  0  0  0  0  0  0  0  0  0  0
   -0.8894   -2.1662    0.0686 H   0  0  0  0  0  0  0  0  0  0  0  0
    0.7686   -1.6045   -1.7154 H   0  0  0  0  0  0  0  0  0  0  0  0
    2.7559    2.0281   -1.9101 H   0  0  0  0  0  0  0  0  0  0  0  0
    3.9299    4.1919   -1.9396 H   0  0  0  0  0  0  0  0  0  0  0  0
    5.2659    7.9825    0.7682 H   0  0  0  0  0  0  0  0  0  0  0  0
    6.8113    9.2784   -0.6293 H   0  0  0  0  0  0  0  0  0  0  0  0
    6.8712    8.9801   -3.0313 H   0  0  0  0  0  0  0  0  0  0  0  0
    4.6430    6.5692   -4.8430 H   0  0  0  0  0  0  0  0  0  0  0  0
    5.5719    6.4305   -6.8194 H   0  0  0  0  0  0  0  0  0  0  0  0
    7.0121    8.9325   -7.5679 H   0  0  0  0  0  0  0  0  0  0  0  0
    6.2954    7.7701   -8.6791 H   0  0  0  0  0  0  0  0  0  0  0  0
    3.6137    6.1755   -2.7873 H   0  0  0  0  0  0  0  0  0  0  0  0
    2.9655    7.5647    1.6754 H   0  0  0  0  0  0  0  0  0  0  0  0
    0.7357    3.2144    1.7318 H   0  0  0  0  0  0  0  0  0  0  0  0
  1  2  1  0  0  0  0
  1 32  1  0  0  0  0
  1 33  1  0  0  0  0
  1 34  1  0  0  0  0
  2  3  1  0  0  0  0
  2 31  2  0  0  0  0
  3  4  2  0  0  0  0
  3 35  1  0  0  0  0
  4  5  1  0  0  0  0
  4 36  1  0  0  0  0
  5  6  2  0  0  0  0
  6  7  1  0  0  0  0
  6 31  1  0  0  0  0
  7  8  1  0  0  0  0
  7 30  2  0  0  0  0
  8  9  2  0  0  0  0
  8 37  1  0  0  0  0
  9 10  1  0  0  0  0
  9 38  1  0  0  0  0
 10 11  1  0  0  0  0
 10 29  1  0  0  0  0
 11 12  1  0  0  0  0
 11 27  2  0  0  0  0
 12 13  1  0  0  0  0
 12 26  2  0  0  0  0
 13 14  2  0  0  0  0
 13 39  1  0  0  0  0
 14 15  1  0  0  0  0
 14 40  1  0  0  0  0
 15 16  2  0  0  0  0
 15 41  1  0  0  0  0
 16 17  1  0  0  0  0
 16 26  1  0  0  0  0
 17 18  1  0  0  0  0
 17 42  1  0  0  0  0
 18 19  2  0  0  0  0
 18 20  1  0  0  0  0
 20 21  1  0  0  0  0
 20 43  1  0  0  0  0
 21 22  1  0  0  0  0
 21 44  1  0  0  0  0
 21 45  1  0  0  0  0
 22 23  1  0  0  0  0
 22 24  1  0  0  0  0
 22 25  1  0  0  0  0
 26 46  1  0  0  0  0
 27 28  1  0  0  0  0
 27 47  1  0  0  0  0
 28 29  2  0  0  0  0
 29 30  1  0  0  0  0
 30 48  1  0  0  0  0
M  END
$$$$
