CHEMBL376951
 OpenBabel04072215373D

 43 46  0  0  0  0  0  0  0  0999 V2000
    2.3617   -0.4426    1.5590 C   0  0  0  0  0  0  0  0  0  0  0  0
    0.8660   -0.3155    1.5299 C   0  0  0  0  0  0  0  0  0  0  0  0
    0.2621    0.8713    1.9539 C   0  0  0  0  0  0  0  0  0  0  0  0
   -1.1207    0.9952    1.9339 C   0  0  0  0  0  0  0  0  0  0  0  0
   -1.9105   -0.0648    1.4893 C   0  0  0  0  0  0  0  0  0  0  0  0
   -1.3337   -1.2574    1.0399 C   0  0  0  0  0  0  0  0  0  0  0  0
   -2.1064   -2.3607    0.5830 N   0  0  0  0  0  0  0  0  0  0  0  0
   -3.4792   -2.3598    0.3870 C   0  0  0  0  0  0  0  0  0  0  0  0
   -4.2079   -1.3824    0.5080 O   0  0  0  0  0  0  0  0  0  0  0  0
   -3.9650   -3.6288    0.0772 N   0  0  0  0  0  0  0  0  0  0  0  0
   -5.3518   -3.8186   -0.1465 C   0  0  0  0  0  0  0  0  0  0  0  0
   -6.0938   -2.9172   -0.9137 C   0  0  0  0  0  0  0  0  0  0  0  0
   -7.4868   -3.0119   -0.9690 C   0  0  0  0  0  0  0  0  0  0  0  0
   -8.1650   -4.0183   -0.2670 C   0  0  0  0  0  0  0  0  0  0  0  0
   -9.6403   -4.0103   -0.2250 C   0  0  0  0  0  0  0  0  0  0  0  0
  -10.2840   -3.6380   -1.3426 N   0  0  0  0  0  0  0  0  0  0  0  0
  -11.9120   -3.6544   -1.0861 S   0  0  0  0  0  0  0  0  0  0  0  0
  -11.8339   -4.1593    0.5308 C   0  0  0  0  0  0  0  0  0  0  0  0
  -12.9355   -4.3512    1.2744 N   0  0  0  0  0  0  0  0  0  0  0  0
  -12.6366   -4.7389    2.5134 C   0  0  0  0  0  0  0  0  0  0  0  0
  -11.4144   -4.9160    3.0344 N   0  0  0  0  0  0  0  0  0  0  0  0
  -10.3324   -4.6941    2.2601 C   0  0  0  0  0  0  0  0  0  0  0  0
   -9.1146   -4.8580    2.9086 N   0  0  0  0  0  0  0  0  0  0  0  0
  -10.5077   -4.3128    0.9153 C   0  0  0  0  0  0  0  0  0  0  0  0
   -7.4017   -4.9940    0.3875 C   0  0  0  0  0  0  0  0  0  0  0  0
   -6.0034   -4.8928    0.4569 C   0  0  0  0  0  0  0  0  0  0  0  0
    0.0604   -1.3790    1.0735 C   0  0  0  0  0  0  0  0  0  0  0  0
    2.8285    0.4653    1.9577 H   0  0  0  0  0  0  0  0  0  0  0  0
    2.7502   -0.6011    0.5499 H   0  0  0  0  0  0  0  0  0  0  0  0
    2.6589   -1.2763    2.2039 H   0  0  0  0  0  0  0  0  0  0  0  0
    0.8624    1.7077    2.3047 H   0  0  0  0  0  0  0  0  0  0  0  0
   -1.5946    1.9167    2.2618 H   0  0  0  0  0  0  0  0  0  0  0  0
   -2.9842    0.0937    1.5068 H   0  0  0  0  0  0  0  0  0  0  0  0
   -1.6007   -3.1642    0.2437 H   0  0  0  0  0  0  0  0  0  0  0  0
   -3.4742   -4.3858    0.5292 H   0  0  0  0  0  0  0  0  0  0  0  0
   -5.6021   -2.1058   -1.4465 H   0  0  0  0  0  0  0  0  0  0  0  0
   -8.0362   -2.2663   -1.5421 H   0  0  0  0  0  0  0  0  0  0  0  0
  -13.4737   -4.9266    3.1789 H   0  0  0  0  0  0  0  0  0  0  0  0
   -9.2730   -4.9425    3.9083 H   0  0  0  0  0  0  0  0  0  0  0  0
   -8.4118   -4.1742    2.6524 H   0  0  0  0  0  0  0  0  0  0  0  0
   -7.8850   -5.8292    0.8895 H   0  0  0  0  0  0  0  0  0  0  0  0
   -5.4558   -5.6173    1.0528 H   0  0  0  0  0  0  0  0  0  0  0  0
    0.5372   -2.2957    0.7406 H   0  0  0  0  0  0  0  0  0  0  0  0
  1  2  1  0  0  0  0
  1 28  1  0  0  0  0
  1 29  1  0  0  0  0
  1 30  1  0  0  0  0
  2  3  1  0  0  0  0
  2 27  2  0  0  0  0
  3  4  2  0  0  0  0
  3 31  1  0  0  0  0
  4  5  1  0  0  0  0
  4 32  1  0  0  0  0
  5  6  2  0  0  0  0
  5 33  1  0  0  0  0
  6  7  1  0  0  0  0
  6 27  1  0  0  0  0
  7  8  1  0  0  0  0
  7 34  1  0  0  0  0
  8  9  2  0  0  0  0
  8 10  1  0  0  0  0
 10 11  1  0  0  0  0
 10 35  1  0  0  0  0
 11 12  1  0  0  0  0
 11 26  2  0  0  0  0
 12 13  2  0  0  0  0
 12 36  1  0  0  0  0
 13 14  1  0  0  0  0
 13 37  1  0  0  0  0
 14 15  1  0  0  0  0
 14 25  2  0  0  0  0
 15 16  2  0  0  0  0
 15 24  1  0  0  0  0
 16 17  1  0  0  0  0
 17 18  1  0  0  0  0
 18 19  1  0  0  0  0
 18 24  2  0  0  0  0
 19 20  2  0  0  0  0
 20 21  1  0  0  0  0
 20 38  1  0  0  0  0
 21 22  2  0  0  0  0
 22 23  1  0  0  0  0
 22 24  1  0  0  0  0
 23 39  1  0  0  0  0
 23 40  1  0  0  0  0
 25 26  1  0  0  0  0
 25 41  1  0  0  0  0
 26 42  1  0  0  0  0
 27 43  1  0  0  0  0
M  END
$$$$
