CHEMBL283088
 OpenBabel04072215363D

 56 59  0  0  0  0  0  0  0  0999 V2000
    2.4067   -1.1768   -0.8358 C   0  0  0  0  0  0  0  0  0  0  0  0
    2.3926   -0.0625    0.0632 O   0  0  0  0  0  0  0  0  0  0  0  0
    3.0294    1.0538   -0.4019 C   0  0  0  0  0  0  0  0  0  0  0  0
    4.1531    0.9290   -1.2196 C   0  0  0  0  0  0  0  0  0  0  0  0
    4.7103    2.0386   -1.8678 C   0  0  0  0  0  0  0  0  0  0  0  0
    5.7095    1.9359   -2.8477 C   0  0  0  0  0  0  0  0  0  0  0  0
    6.1783    0.6493   -3.2321 N   0  0  0  0  0  0  0  0  0  0  0  0
    6.8032    0.3604   -4.4647 C   0  0  0  0  0  0  0  0  0  0  0  0
    6.3225    0.9084   -5.6613 C   0  0  0  0  0  0  0  0  0  0  0  0
    7.0022    0.7050   -6.8624 C   0  0  0  0  0  0  0  0  0  0  0  0
    8.1580   -0.0728   -6.8776 C   0  0  0  0  0  0  0  0  0  0  0  0
    9.0401   -0.2505   -8.3430 Cl  0  0  0  0  0  0  0  0  0  0  0  0
    8.6103   -0.6915   -5.7155 C   0  0  0  0  0  0  0  0  0  0  0  0
    7.9213   -0.4808   -4.5247 C   0  0  0  0  0  0  0  0  0  0  0  0
    8.3640   -1.0702   -3.4024 F   0  0  0  0  0  0  0  0  0  0  0  0
    6.1844    3.0177   -3.4854 N   0  0  0  0  0  0  0  0  0  0  0  0
    5.6540    4.1974   -3.1461 C   0  0  0  0  0  0  0  0  0  0  0  0
    4.6825    4.4007   -2.2470 N   0  0  0  0  0  0  0  0  0  0  0  0
    4.1990    3.3169   -1.6246 C   0  0  0  0  0  0  0  0  0  0  0  0
    3.1412    3.4455   -0.7228 C   0  0  0  0  0  0  0  0  0  0  0  0
    2.5496    2.3364   -0.0938 C   0  0  0  0  0  0  0  0  0  0  0  0
    1.4925    2.6353    0.7391 O   0  0  0  0  0  0  0  0  0  0  0  0
    1.3705    1.7610    1.8749 C   0  0  0  0  0  0  0  0  0  0  0  0
    0.3696    2.2880    2.9265 C   0  0  0  0  0  0  0  0  0  0  0  0
    0.2114    1.3369    4.0481 N   0  0  0  0  0  0  0  0  0  0  0  0
    1.4383    1.1999    4.8564 C   0  0  0  0  0  0  0  0  0  0  0  0
    1.2670    0.1903    6.0150 C   0  0  0  0  0  0  0  0  0  0  0  0
    0.1384    0.4733    6.9196 N   0  0  0  0  0  0  0  0  0  0  0  0
    0.4219    1.6114    7.7895 C   0  0  0  0  0  0  0  0  0  0  0  0
   -1.0784    0.6888    6.1095 C   0  0  0  0  0  0  0  0  0  0  0  0
   -0.9246    1.6818    4.9239 C   0  0  0  0  0  0  0  0  0  0  0  0
    1.5588   -1.8211   -0.5983 H   0  0  0  0  0  0  0  0  0  0  0  0
    3.3258   -1.7537   -0.6930 H   0  0  0  0  0  0  0  0  0  0  0  0
    2.3057   -0.8662   -1.8841 H   0  0  0  0  0  0  0  0  0  0  0  0
    4.5842   -0.0519   -1.3928 H   0  0  0  0  0  0  0  0  0  0  0  0
    6.6303    0.1792   -2.4514 H   0  0  0  0  0  0  0  0  0  0  0  0
    5.4244    1.5224   -5.6557 H   0  0  0  0  0  0  0  0  0  0  0  0
    6.6340    1.1758   -7.7699 H   0  0  0  0  0  0  0  0  0  0  0  0
    9.4995   -1.3124   -5.7192 H   0  0  0  0  0  0  0  0  0  0  0  0
    6.0426    5.0667   -3.6631 H   0  0  0  0  0  0  0  0  0  0  0  0
    2.7437    4.4376   -0.5235 H   0  0  0  0  0  0  0  0  0  0  0  0
    2.3604    1.6503    2.3289 H   0  0  0  0  0  0  0  0  0  0  0  0
    0.9809    0.7925    1.5530 H   0  0  0  0  0  0  0  0  0  0  0  0
   -0.5973    2.4171    2.4208 H   0  0  0  0  0  0  0  0  0  0  0  0
    0.6624    3.2854    3.2768 H   0  0  0  0  0  0  0  0  0  0  0  0
    1.7463    2.1760    5.2521 H   0  0  0  0  0  0  0  0  0  0  0  0
    2.2619    0.8255    4.2417 H   0  0  0  0  0  0  0  0  0  0  0  0
    2.2033    0.1227    6.5833 H   0  0  0  0  0  0  0  0  0  0  0  0
    1.1150   -0.8091    5.5847 H   0  0  0  0  0  0  0  0  0  0  0  0
    1.3188    1.4175    8.3895 H   0  0  0  0  0  0  0  0  0  0  0  0
   -0.3989    1.7600    8.4993 H   0  0  0  0  0  0  0  0  0  0  0  0
    0.5752    2.5480    7.2448 H   0  0  0  0  0  0  0  0  0  0  0  0
   -1.9067    1.0070    6.7548 H   0  0  0  0  0  0  0  0  0  0  0  0
   -1.3824   -0.2866    5.7054 H   0  0  0  0  0  0  0  0  0  0  0  0
   -0.8156    2.7009    5.3143 H   0  0  0  0  0  0  0  0  0  0  0  0
   -1.8545    1.6525    4.3436 H   0  0  0  0  0  0  0  0  0  0  0  0
  1  2  1  0  0  0  0
  1 32  1  0  0  0  0
  1 33  1  0  0  0  0
  1 34  1  0  0  0  0
  2  3  1  0  0  0  0
  3  4  1  0  0  0  0
  3 21  2  0  0  0  0
  4  5  2  0  0  0  0
  4 35  1  0  0  0  0
  5  6  1  0  0  0  0
  5 19  1  0  0  0  0
  6  7  1  0  0  0  0
  6 16  2  0  0  0  0
  7  8  1  0  0  0  0
  7 36  1  0  0  0  0
  8  9  1  0  0  0  0
  8 14  2  0  0  0  0
  9 10  2  0  0  0  0
  9 37  1  0  0  0  0
 10 11  1  0  0  0  0
 10 38  1  0  0  0  0
 11 12  1  0  0  0  0
 11 13  2  0  0  0  0
 13 14  1  0  0  0  0
 13 39  1  0  0  0  0
 14 15  1  0  0  0  0
 16 17  1  0  0  0  0
 17 18  2  0  0  0  0
 17 40  1  0  0  0  0
 18 19  1  0  0  0  0
 19 20  2  0  0  0  0
 20 21  1  0  0  0  0
 20 41  1  0  0  0  0
 21 22  1  0  0  0  0
 22 23  1  0  0  0  0
 23 24  1  0  0  0  0
 23 42  1  0  0  0  0
 23 43  1  0  0  0  0
 24 25  1  0  0  0  0
 24 44  1  0  0  0  0
 24 45  1  0  0  0  0
 25 26  1  0  0  0  0
 25 31  1  0  0  0  0
 26 27  1  0  0  0  0
 26 46  1  0  0  0  0
 26 47  1  0  0  0  0
 27 28  1  0  0  0  0
 27 48  1  0  0  0  0
 27 49  1  0  0  0  0
 28 29  1  0  0  0  0
 28 30  1  0  0  0  0
 29 50  1  0  0  0  0
 29 51  1  0  0  0  0
 29 52  1  0  0  0  0
 30 31  1  0  0  0  0
 30 53  1  0  0  0  0
 30 54  1  0  0  0  0
 31 55  1  0  0  0  0
 31 56  1  0  0  0  0
M  END
$$$$
