CHEMBL371688
 OpenBabel04072215373D

 65 68  0  0  0  0  0  0  0  0999 V2000
    1.5747    0.4741    2.2807 C   0  0  0  0  0  0  0  0  0  0  0  0
    2.1532    1.5424    3.0440 O   0  0  0  0  0  0  0  0  0  0  0  0
    3.4454    1.2455    3.4030 C   0  0  0  0  0  0  0  0  0  0  0  0
    4.1510    2.2056    4.1414 C   0  0  0  0  0  0  0  0  0  0  0  0
    5.4701    1.9331    4.4273 C   0  0  0  0  0  0  0  0  0  0  0  0
    6.0306    0.7067    4.0722 C   0  0  0  0  0  0  0  0  0  0  0  0
    7.7483    0.5294    4.2383 Cl  0  0  0  0  0  0  0  0  0  0  0  0
    5.2218   -0.2372    3.4317 C   0  0  0  0  0  0  0  0  0  0  0  0
    5.7133   -1.5201    3.1230 N   0  0  0  0  0  0  0  0  0  0  0  0
    6.3630   -2.4425    3.9712 C   0  0  0  0  0  0  0  0  0  0  0  0
    6.3878   -2.1684    5.3111 N   0  0  0  0  0  0  0  0  0  0  0  0
    7.0132   -3.0378    6.0774 C   0  0  0  0  0  0  0  0  0  0  0  0
    7.6013   -4.1564    5.6825 N   0  0  0  0  0  0  0  0  0  0  0  0
    7.5935   -4.4262    4.3750 C   0  0  0  0  0  0  0  0  0  0  0  0
    8.1719   -5.6091    3.9651 C   0  0  0  0  0  0  0  0  0  0  0  0
    8.2911   -5.9513    2.6167 C   0  0  0  0  0  0  0  0  0  0  0  0
    8.8747   -7.1652    2.3520 O   0  0  0  0  0  0  0  0  0  0  0  0
    9.5335   -7.2107    1.0842 C   0  0  0  0  0  0  0  0  0  0  0  0
   10.6698   -8.2403    1.0765 C   0  0  0  0  0  0  0  0  0  0  0  0
   11.3806   -8.2779   -0.2170 N   0  0  0  0  0  0  0  0  0  0  0  0
   11.9685   -6.9750   -0.5917 C   0  0  0  0  0  0  0  0  0  0  0  0
   12.7356   -7.0409   -1.9305 C   0  0  0  0  0  0  0  0  0  0  0  0
   13.8049   -8.0521   -1.9685 N   0  0  0  0  0  0  0  0  0  0  0  0
   14.9499   -7.6398   -1.1609 C   0  0  0  0  0  0  0  0  0  0  0  0
   13.2514   -9.3473   -1.5218 C   0  0  0  0  0  0  0  0  0  0  0  0
   12.4420   -9.3047   -0.2002 C   0  0  0  0  0  0  0  0  0  0  0  0
    7.8046   -5.0631    1.6582 C   0  0  0  0  0  0  0  0  0  0  0  0
    7.1145   -3.9233    2.0357 C   0  0  0  0  0  0  0  0  0  0  0  0
    6.5006   -3.0923    1.1114 O   0  0  0  0  0  0  0  0  0  0  0  0
    6.0474   -3.6486   -0.1376 C   0  0  0  0  0  0  0  0  0  0  0  0
    4.9540   -4.7021    0.0545 C   0  0  0  0  0  0  0  0  0  0  0  0
    5.4467   -2.4879   -0.9386 C   0  0  0  0  0  0  0  0  0  0  0  0
    7.0198   -3.5632    3.4161 C   0  0  0  0  0  0  0  0  0  0  0  0
    3.9774    0.0534    3.0373 N   0  0  0  0  0  0  0  0  0  0  0  0
    0.5215    0.7117    2.0974 H   0  0  0  0  0  0  0  0  0  0  0  0
    1.6025   -0.4726    2.8323 H   0  0  0  0  0  0  0  0  0  0  0  0
    2.0745    0.3787    1.3095 H   0  0  0  0  0  0  0  0  0  0  0  0
    3.6892    3.1299    4.4620 H   0  0  0  0  0  0  0  0  0  0  0  0
    6.0946    2.6798    4.9433 H   0  0  0  0  0  0  0  0  0  0  0  0
    5.3202   -1.9155    2.2910 H   0  0  0  0  0  0  0  0  0  0  0  0
    7.0312   -2.8221    7.1476 H   0  0  0  0  0  0  0  0  0  0  0  0
    8.5610   -6.2923    4.7210 H   0  0  0  0  0  0  0  0  0  0  0  0
    9.9791   -6.2284    0.9031 H   0  0  0  0  0  0  0  0  0  0  0  0
    8.8110   -7.4478    0.2956 H   0  0  0  0  0  0  0  0  0  0  0  0
   10.2377   -9.2296    1.2904 H   0  0  0  0  0  0  0  0  0  0  0  0
   11.3576   -8.0279    1.9050 H   0  0  0  0  0  0  0  0  0  0  0  0
   12.6280   -6.6076    0.2046 H   0  0  0  0  0  0  0  0  0  0  0  0
   11.1851   -6.2239   -0.7364 H   0  0  0  0  0  0  0  0  0  0  0  0
   13.1398   -6.0492   -2.1706 H   0  0  0  0  0  0  0  0  0  0  0  0
   12.0198   -7.2656   -2.7325 H   0  0  0  0  0  0  0  0  0  0  0  0
   15.3299   -6.6712   -1.5054 H   0  0  0  0  0  0  0  0  0  0  0  0
   15.7717   -8.3551   -1.2748 H   0  0  0  0  0  0  0  0  0  0  0  0
   14.7214   -7.5508   -0.0942 H   0  0  0  0  0  0  0  0  0  0  0  0
   14.0542  -10.0899   -1.4358 H   0  0  0  0  0  0  0  0  0  0  0  0
   12.5909   -9.7197   -2.3166 H   0  0  0  0  0  0  0  0  0  0  0  0
   13.1279   -9.1303    0.6388 H   0  0  0  0  0  0  0  0  0  0  0  0
   11.9887  -10.2920   -0.0470 H   0  0  0  0  0  0  0  0  0  0  0  0
    7.9510   -5.2895    0.6055 H   0  0  0  0  0  0  0  0  0  0  0  0
    6.8851   -4.0448   -0.7141 H   0  0  0  0  0  0  0  0  0  0  0  0
    4.0989   -4.2816    0.5979 H   0  0  0  0  0  0  0  0  0  0  0  0
    5.2990   -5.5631    0.6353 H   0  0  0  0  0  0  0  0  0  0  0  0
    4.5993   -5.0724   -0.9095 H   0  0  0  0  0  0  0  0  0  0  0  0
    4.5409   -2.1094   -0.4509 H   0  0  0  0  0  0  0  0  0  0  0  0
    5.1834   -2.8036   -1.9522 H   0  0  0  0  0  0  0  0  0  0  0  0
    6.1476   -1.6475   -1.0015 H   0  0  0  0  0  0  0  0  0  0  0  0
  1  2  1  0  0  0  0
  1 35  1  0  0  0  0
  1 36  1  0  0  0  0
  1 37  1  0  0  0  0
  2  3  1  0  0  0  0
  3  4  1  0  0  0  0
  3 34  2  0  0  0  0
  4  5  2  0  0  0  0
  4 38  1  0  0  0  0
  5  6  1  0  0  0  0
  5 39  1  0  0  0  0
  6  7  1  0  0  0  0
  6  8  2  0  0  0  0
  8  9  1  0  0  0  0
  8 34  1  0  0  0  0
  9 10  1  0  0  0  0
  9 40  1  0  0  0  0
 10 11  1  0  0  0  0
 10 33  2  0  0  0  0
 11 12  2  0  0  0  0
 12 13  1  0  0  0  0
 12 41  1  0  0  0  0
 13 14  2  0  0  0  0
 14 15  1  0  0  0  0
 14 33  1  0  0  0  0
 15 16  2  0  0  0  0
 15 42  1  0  0  0  0
 16 17  1  0  0  0  0
 16 27  1  0  0  0  0
 17 18  1  0  0  0  0
 18 19  1  0  0  0  0
 18 43  1  0  0  0  0
 18 44  1  0  0  0  0
 19 20  1  0  0  0  0
 19 45  1  0  0  0  0
 19 46  1  0  0  0  0
 20 21  1  0  0  0  0
 20 26  1  0  0  0  0
 21 22  1  0  0  0  0
 21 47  1  0  0  0  0
 21 48  1  0  0  0  0
 22 23  1  0  0  0  0
 22 49  1  0  0  0  0
 22 50  1  0  0  0  0
 23 24  1  0  0  0  0
 23 25  1  0  0  0  0
 24 51  1  0  0  0  0
 24 52  1  0  0  0  0
 24 53  1  0  0  0  0
 25 26  1  0  0  0  0
 25 54  1  0  0  0  0
 25 55  1  0  0  0  0
 26 56  1  0  0  0  0
 26 57  1  0  0  0  0
 27 28  2  0  0  0  0
 27 58  1  0  0  0  0
 28 29  1  0  0  0  0
 28 33  1  0  0  0  0
 29 30  1  0  0  0  0
 30 31  1  0  0  0  0
 30 32  1  0  0  0  0
 30 59  1  0  0  0  0
 31 60  1  0  0  0  0
 31 61  1  0  0  0  0
 31 62  1  0  0  0  0
 32 63  1  0  0  0  0
 32 64  1  0  0  0  0
 32 65  1  0  0  0  0
M  END
$$$$
