CHEMBL269936
 OpenBabel04072215363D

 54 56  0  0  0  0  0  0  0  0999 V2000
    5.0565   -2.7497    0.7869 C   0  0  0  0  0  0  0  0  0  0  0  0
    4.3796   -1.6281    0.1741 N   0  0  0  0  0  0  0  0  0  0  0  0
    5.1121   -0.9739   -0.8045 C   0  0  0  0  0  0  0  0  0  0  0  0
    4.9169    0.3444   -0.8847 N   0  0  0  0  0  0  0  0  0  0  0  0
    5.6412    1.0066   -1.8101 C   0  0  0  0  0  0  0  0  0  0  0  0
    6.5602    0.4149   -2.6490 C   0  0  0  0  0  0  0  0  0  0  0  0
    7.4109    1.1936   -3.5900 C   0  0  0  0  0  0  0  0  0  0  0  0
    8.5078    0.7298   -3.8986 O   0  0  0  0  0  0  0  0  0  0  0  0
    6.9632    2.4507   -3.9932 N   0  0  0  0  0  0  0  0  0  0  0  0
    7.6751    3.2584   -4.9154 C   0  0  0  0  0  0  0  0  0  0  0  0
    7.9063    4.5977   -4.5484 C   0  0  0  0  0  0  0  0  0  0  0  0
    8.6092    5.4537   -5.4063 C   0  0  0  0  0  0  0  0  0  0  0  0
    8.8548    6.8917   -5.1092 C   0  0  0  0  0  0  0  0  0  0  0  0
    8.8646    7.6623   -6.0653 O   0  0  0  0  0  0  0  0  0  0  0  0
    9.1159    7.2374   -3.7924 N   0  0  0  0  0  0  0  0  0  0  0  0
    9.4133    8.5538   -3.3420 C   0  0  0  0  0  0  0  0  0  0  0  0
    9.1660    9.7005   -4.1029 C   0  0  0  0  0  0  0  0  0  0  0  0
    9.5256   10.9666   -3.6334 C   0  0  0  0  0  0  0  0  0  0  0  0
   10.1394   11.1040   -2.3918 C   0  0  0  0  0  0  0  0  0  0  0  0
   10.3818    9.9735   -1.5990 C   0  0  0  0  0  0  0  0  0  0  0  0
   11.0647   10.0880   -0.2700 C   0  0  0  0  0  0  0  0  0  0  0  0
   11.4203   11.3697    0.0388 F   0  0  0  0  0  0  0  0  0  0  0  0
   10.2879    9.6679    0.7653 F   0  0  0  0  0  0  0  0  0  0  0  0
   12.2173    9.3673   -0.2018 F   0  0  0  0  0  0  0  0  0  0  0  0
    9.9970    8.7155   -2.0768 C   0  0  0  0  0  0  0  0  0  0  0  0
   10.2177    7.6288   -1.3192 F   0  0  0  0  0  0  0  0  0  0  0  0
    9.0407    4.9782   -6.6478 C   0  0  0  0  0  0  0  0  0  0  0  0
    8.7718    3.6676   -7.0369 C   0  0  0  0  0  0  0  0  0  0  0  0
    8.0740    2.7942   -6.1868 C   0  0  0  0  0  0  0  0  0  0  0  0
    7.6706    1.4548   -6.7502 C   0  0  0  0  0  0  0  0  0  0  0  0
    6.6945   -0.9665   -2.5025 C   0  0  0  0  0  0  0  0  0  0  0  0
    7.5124   -1.7022   -3.3709 N   0  0  0  0  0  0  0  0  0  0  0  0
    7.7175   -3.1140   -3.1099 C   0  0  0  0  0  0  0  0  0  0  0  0
    5.9625   -1.6444   -1.5897 N   0  0  0  0  0  0  0  0  0  0  0  0
    4.4293   -3.1507    1.5897 H   0  0  0  0  0  0  0  0  0  0  0  0
    6.0128   -2.4519    1.2317 H   0  0  0  0  0  0  0  0  0  0  0  0
    5.2262   -3.5615    0.0713 H   0  0  0  0  0  0  0  0  0  0  0  0
    4.0576   -0.9124    0.8154 H   0  0  0  0  0  0  0  0  0  0  0  0
    5.4419    2.0710   -1.8115 H   0  0  0  0  0  0  0  0  0  0  0  0
    6.3326    2.9495   -3.3851 H   0  0  0  0  0  0  0  0  0  0  0  0
    7.5408    4.9723   -3.5957 H   0  0  0  0  0  0  0  0  0  0  0  0
    9.2977    6.4935   -3.1260 H   0  0  0  0  0  0  0  0  0  0  0  0
    8.6845    9.6479   -5.0751 H   0  0  0  0  0  0  0  0  0  0  0  0
    9.3324   11.8425   -4.2497 H   0  0  0  0  0  0  0  0  0  0  0  0
   10.4310   12.0964   -2.0498 H   0  0  0  0  0  0  0  0  0  0  0  0
    9.5662    5.6382   -7.3373 H   0  0  0  0  0  0  0  0  0  0  0  0
    9.0813    3.3445   -8.0291 H   0  0  0  0  0  0  0  0  0  0  0  0
    8.0018    1.3448   -7.7894 H   0  0  0  0  0  0  0  0  0  0  0  0
    6.5794    1.3615   -6.7525 H   0  0  0  0  0  0  0  0  0  0  0  0
    8.1125    0.6234   -6.2018 H   0  0  0  0  0  0  0  0  0  0  0  0
    8.3713   -1.1844   -3.5832 H   0  0  0  0  0  0  0  0  0  0  0  0
    7.4612   -3.4335   -2.0946 H   0  0  0  0  0  0  0  0  0  0  0  0
    8.7727   -3.3633   -3.2643 H   0  0  0  0  0  0  0  0  0  0  0  0
    7.1314   -3.7058   -3.8200 H   0  0  0  0  0  0  0  0  0  0  0  0
  1  2  1  0  0  0  0
  1 35  1  0  0  0  0
  1 36  1  0  0  0  0
  1 37  1  0  0  0  0
  2  3  1  0  0  0  0
  2 38  1  0  0  0  0
  3  4  1  0  0  0  0
  3 34  2  0  0  0  0
  4  5  2  0  0  0  0
  5  6  1  0  0  0  0
  5 39  1  0  0  0  0
  6  7  1  0  0  0  0
  6 31  2  0  0  0  0
  7  8  2  0  0  0  0
  7  9  1  0  0  0  0
  9 10  1  0  0  0  0
  9 40  1  0  0  0  0
 10 11  1  0  0  0  0
 10 29  2  0  0  0  0
 11 12  2  0  0  0  0
 11 41  1  0  0  0  0
 12 13  1  0  0  0  0
 12 27  1  0  0  0  0
 13 14  2  0  0  0  0
 13 15  1  0  0  0  0
 15 16  1  0  0  0  0
 15 42  1  0  0  0  0
 16 17  1  0  0  0  0
 16 25  2  0  0  0  0
 17 18  2  0  0  0  0
 17 43  1  0  0  0  0
 18 19  1  0  0  0  0
 18 44  1  0  0  0  0
 19 20  2  0  0  0  0
 19 45  1  0  0  0  0
 20 21  1  0  0  0  0
 20 25  1  0  0  0  0
 21 22  1  0  0  0  0
 21 23  1  0  0  0  0
 21 24  1  0  0  0  0
 25 26  1  0  0  0  0
 27 28  2  0  0  0  0
 27 46  1  0  0  0  0
 28 29  1  0  0  0  0
 28 47  1  0  0  0  0
 29 30  1  0  0  0  0
 30 48  1  0  0  0  0
 30 49  1  0  0  0  0
 30 50  1  0  0  0  0
 31 32  1  0  0  0  0
 31 34  1  0  0  0  0
 32 33  1  0  0  0  0
 32 51  1  0  0  0  0
 33 52  1  0  0  0  0
 33 53  1  0  0  0  0
 33 54  1  0  0  0  0
M  END
$$$$
