CHEMBL4643533
 OpenBabel04072215383D

101106  0  0  0  0  0  0  0  0999 V2000
    4.0172    5.0515    6.6591 C   0  0  0  0  0  0  0  0  0  0  0  0
    4.7537    3.7697    6.3005 C   0  0  0  0  0  0  0  0  0  0  0  0
    4.2256    2.6416    7.0827 N   0  0  0  0  0  0  0  0  0  0  0  0
    4.9532    1.1028    6.7905 S   0  0  0  0  0  0  0  0  0  0  0  0
    6.2953    1.3624    6.3187 O   0  0  0  0  0  0  0  0  0  0  0  0
    4.6766    0.2990    7.9518 O   0  0  0  0  0  0  0  0  0  0  0  0
    3.9480    0.4677    5.4657 C   0  0  0  0  0  0  0  0  0  0  0  0
    2.5766    0.3218    5.7872 C   0  0  0  0  0  0  0  0  0  0  0  0
    1.6588   -0.1349    4.8466 C   0  0  0  0  0  0  0  0  0  0  0  0
    2.0950   -0.4257    3.5671 C   0  0  0  0  0  0  0  0  0  0  0  0
    3.4502   -0.3069    3.2528 C   0  0  0  0  0  0  0  0  0  0  0  0
    4.4305    0.0623    4.2070 C   0  0  0  0  0  0  0  0  0  0  0  0
    5.8070    0.0668    3.7894 N   0  0  0  0  0  0  0  0  0  0  0  0
    6.2867   -0.9201    2.8600 C   0  0  0  0  0  0  0  0  0  0  0  0
    5.7093   -2.1402    2.9215 N   0  0  0  0  0  0  0  0  0  0  0  0
    5.8878   -3.0044    1.9151 C   0  0  0  0  0  0  0  0  0  0  0  0
    5.1107   -4.1446    1.8181 N   0  0  0  0  0  0  0  0  0  0  0  0
    4.3654   -4.8114    2.7848 C   0  0  0  0  0  0  0  0  0  0  0  0
    4.7776   -4.9155    4.1080 C   0  0  0  0  0  0  0  0  0  0  0  0
    3.9922   -5.5902    5.0480 C   0  0  0  0  0  0  0  0  0  0  0  0
    2.7300   -6.1276    4.7143 C   0  0  0  0  0  0  0  0  0  0  0  0
    1.9873   -6.7015    5.7599 N   0  0  0  0  0  0  0  0  0  0  0  0
    0.5346   -6.5708    5.7089 C   0  0  0  0  0  0  0  0  0  0  0  0
    0.0125   -6.6725    7.1388 C   0  0  0  0  0  0  0  0  0  0  0  0
    0.3613   -8.0194    7.8344 C   0  0  0  0  0  0  0  0  0  0  0  0
   -0.5990   -9.1070    7.4773 N   0  0  0  0  0  0  0  0  0  0  0  0
   -1.9917   -8.8197    7.9360 C   0  0  0  0  0  0  0  0  0  0  0  0
   -2.2263   -8.9202    9.4650 C   0  0  0  0  0  0  0  0  0  0  0  0
   -1.8729  -10.2393   10.0099 N   0  0  0  0  0  0  0  0  0  0  0  0
   -1.9538  -10.2301   11.4721 C   0  0  0  0  0  0  0  0  0  0  0  0
   -0.5295  -10.6481    9.5585 C   0  0  0  0  0  0  0  0  0  0  0  0
   -0.2749  -10.4457    8.0375 C   0  0  0  0  0  0  0  0  0  0  0  0
    1.8775   -8.3069    7.5946 C   0  0  0  0  0  0  0  0  0  0  0  0
    2.3977   -8.0491    6.1713 C   0  0  0  0  0  0  0  0  0  0  0  0
    2.3013   -5.9812    3.3738 C   0  0  0  0  0  0  0  0  0  0  0  0
    1.0553   -6.4556    3.0362 O   0  0  0  0  0  0  0  0  0  0  0  0
    0.8131   -6.7077    1.6586 C   0  0  0  0  0  0  0  0  0  0  0  0
    3.1192   -5.3313    2.4357 C   0  0  0  0  0  0  0  0  0  0  0  0
    6.6908   -2.7758    0.8806 N   0  0  0  0  0  0  0  0  0  0  0  0
    7.3686   -1.6169    0.9026 C   0  0  0  0  0  0  0  0  0  0  0  0
    7.2082   -0.6204    1.8544 C   0  0  0  0  0  0  0  0  0  0  0  0
    7.8998    0.6092    1.7603 N   0  0  0  0  0  0  0  0  0  0  0  0
    8.4973    1.0878    0.6000 C   0  0  0  0  0  0  0  0  0  0  0  0
    8.4330    0.5709   -0.5149 O   0  0  0  0  0  0  0  0  0  0  0  0
    9.2310    2.3657    0.7591 C   0  0  0  0  0  0  0  0  0  0  0  0
    9.8192    2.9622   -0.3312 C   0  0  0  0  0  0  0  0  0  0  0  0
   10.4480    4.1402   -0.0647 C   0  0  0  0  0  0  0  0  0  0  0  0
   11.0313    4.7817   -1.1392 O   0  0  0  0  0  0  0  0  0  0  0  0
   11.6979    5.9886   -0.7718 C   0  0  0  0  0  0  0  0  0  0  0  0
   10.5054    4.6941    1.1587 N   0  0  0  0  0  0  0  0  0  0  0  0
    9.8993    4.0190    2.1491 C   0  0  0  0  0  0  0  0  0  0  0  0
    9.9188    4.5124    3.4283 O   0  0  0  0  0  0  0  0  0  0  0  0
   10.5649    5.7713    3.5301 C   0  0  0  0  0  0  0  0  0  0  0  0
    9.2429    2.8692    2.0121 N   0  0  0  0  0  0  0  0  0  0  0  0
    4.4618    5.9020    6.1315 H   0  0  0  0  0  0  0  0  0  0  0  0
    4.0687    5.2565    7.7336 H   0  0  0  0  0  0  0  0  0  0  0  0
    2.9609    4.9943    6.3784 H   0  0  0  0  0  0  0  0  0  0  0  0
    5.8149    3.9045    6.5383 H   0  0  0  0  0  0  0  0  0  0  0  0
    4.6429    3.5744    5.2290 H   0  0  0  0  0  0  0  0  0  0  0  0
    3.2079    2.5729    7.0616 H   0  0  0  0  0  0  0  0  0  0  0  0
    2.2209    0.5306    6.7939 H   0  0  0  0  0  0  0  0  0  0  0  0
    0.6151   -0.2734    5.1140 H   0  0  0  0  0  0  0  0  0  0  0  0
    1.3979   -0.7841    2.8137 H   0  0  0  0  0  0  0  0  0  0  0  0
    3.7452   -0.5713    2.2394 H   0  0  0  0  0  0  0  0  0  0  0  0
    6.0290    0.9929    3.4380 H   0  0  0  0  0  0  0  0  0  0  0  0
    5.0922   -4.4911    0.8723 H   0  0  0  0  0  0  0  0  0  0  0  0
    5.7250   -4.4819    4.4231 H   0  0  0  0  0  0  0  0  0  0  0  0
    4.3488   -5.6534    6.0725 H   0  0  0  0  0  0  0  0  0  0  0  0
    0.0833   -7.3497    5.0829 H   0  0  0  0  0  0  0  0  0  0  0  0
    0.2450   -5.5888    5.3152 H   0  0  0  0  0  0  0  0  0  0  0  0
   -1.0580   -6.4625    7.1197 H   0  0  0  0  0  0  0  0  0  0  0  0
    0.4527   -5.8597    7.7312 H   0  0  0  0  0  0  0  0  0  0  0  0
    0.2675   -7.8496    8.9140 H   0  0  0  0  0  0  0  0  0  0  0  0
   -2.6617   -9.5337    7.4368 H   0  0  0  0  0  0  0  0  0  0  0  0
   -2.3470   -7.8452    7.5953 H   0  0  0  0  0  0  0  0  0  0  0  0
   -3.2913   -8.7362    9.6566 H   0  0  0  0  0  0  0  0  0  0  0  0
   -1.6706   -8.1261    9.9784 H   0  0  0  0  0  0  0  0  0  0  0  0
   -2.9449   -9.9028   11.8077 H   0  0  0  0  0  0  0  0  0  0  0  0
   -1.2094   -9.5618   11.9215 H   0  0  0  0  0  0  0  0  0  0  0  0
   -1.7999  -11.2365   11.8768 H   0  0  0  0  0  0  0  0  0  0  0  0
   -0.4107  -11.7175    9.7781 H   0  0  0  0  0  0  0  0  0  0  0  0
    0.2455  -10.1129   10.1198 H   0  0  0  0  0  0  0  0  0  0  0  0
   -0.8960  -11.1758    7.4990 H   0  0  0  0  0  0  0  0  0  0  0  0
    0.7479  -10.7481    7.7992 H   0  0  0  0  0  0  0  0  0  0  0  0
    2.1655   -9.3136    7.9080 H   0  0  0  0  0  0  0  0  0  0  0  0
    2.4348   -7.6396    8.2679 H   0  0  0  0  0  0  0  0  0  0  0  0
    2.0108   -8.8010    5.4724 H   0  0  0  0  0  0  0  0  0  0  0  0
    3.4910   -8.1471    6.1833 H   0  0  0  0  0  0  0  0  0  0  0  0
   -0.1800   -7.1562    1.5713 H   0  0  0  0  0  0  0  0  0  0  0  0
    1.5451   -7.4180    1.2607 H   0  0  0  0  0  0  0  0  0  0  0  0
    0.7979   -5.7827    1.0729 H   0  0  0  0  0  0  0  0  0  0  0  0
    2.7823   -5.1657    1.4191 H   0  0  0  0  0  0  0  0  0  0  0  0
    8.0725   -1.5348    0.0818 H   0  0  0  0  0  0  0  0  0  0  0  0
    7.9804    1.1942    2.5904 H   0  0  0  0  0  0  0  0  0  0  0  0
    9.7834    2.5287   -1.3267 H   0  0  0  0  0  0  0  0  0  0  0  0
   12.0862    6.4486   -1.6835 H   0  0  0  0  0  0  0  0  0  0  0  0
   12.5465    5.7806   -0.1108 H   0  0  0  0  0  0  0  0  0  0  0  0
   11.0066    6.7038   -0.3081 H   0  0  0  0  0  0  0  0  0  0  0  0
   10.5690    6.0610    4.5837 H   0  0  0  0  0  0  0  0  0  0  0  0
   10.0152    6.5392    2.9720 H   0  0  0  0  0  0  0  0  0  0  0  0
   11.6088    5.7177    3.1964 H   0  0  0  0  0  0  0  0  0  0  0  0
  1  2  1  0  0  0  0
  1 55  1  0  0  0  0
  1 56  1  0  0  0  0
  1 57  1  0  0  0  0
  2  3  1  0  0  0  0
  2 58  1  0  0  0  0
  2 59  1  0  0  0  0
  3  4  1  0  0  0  0
  3 60  1  0  0  0  0
  4  5  2  0  0  0  0
  4  6  2  0  0  0  0
  4  7  1  0  0  0  0
  7  8  1  0  0  0  0
  7 12  2  0  0  0  0
  8  9  2  0  0  0  0
  8 61  1  0  0  0  0
  9 10  1  0  0  0  0
  9 62  1  0  0  0  0
 10 11  2  0  0  0  0
 10 63  1  0  0  0  0
 11 12  1  0  0  0  0
 11 64  1  0  0  0  0
 12 13  1  0  0  0  0
 13 14  1  0  0  0  0
 13 65  1  0  0  0  0
 14 15  1  0  0  0  0
 14 41  2  0  0  0  0
 15 16  2  0  0  0  0
 16 17  1  0  0  0  0
 16 39  1  0  0  0  0
 17 18  1  0  0  0  0
 17 66  1  0  0  0  0
 18 19  1  0  0  0  0
 18 38  2  0  0  0  0
 19 20  2  0  0  0  0
 19 67  1  0  0  0  0
 20 21  1  0  0  0  0
 20 68  1  0  0  0  0
 21 22  1  0  0  0  0
 21 35  2  0  0  0  0
 22 23  1  0  0  0  0
 22 34  1  0  0  0  0
 23 24  1  0  0  0  0
 23 69  1  0  0  0  0
 23 70  1  0  0  0  0
 24 25  1  0  0  0  0
 24 71  1  0  0  0  0
 24 72  1  0  0  0  0
 25 26  1  0  0  0  0
 25 33  1  0  0  0  0
 25 73  1  0  0  0  0
 26 27  1  0  0  0  0
 26 32  1  0  0  0  0
 27 28  1  0  0  0  0
 27 74  1  0  0  0  0
 27 75  1  0  0  0  0
 28 29  1  0  0  0  0
 28 76  1  0  0  0  0
 28 77  1  0  0  0  0
 29 30  1  0  0  0  0
 29 31  1  0  0  0  0
 30 78  1  0  0  0  0
 30 79  1  0  0  0  0
 30 80  1  0  0  0  0
 31 32  1  0  0  0  0
 31 81  1  0  0  0  0
 31 82  1  0  0  0  0
 32 83  1  0  0  0  0
 32 84  1  0  0  0  0
 33 34  1  0  0  0  0
 33 85  1  0  0  0  0
 33 86  1  0  0  0  0
 34 87  1  0  0  0  0
 34 88  1  0  0  0  0
 35 36  1  0  0  0  0
 35 38  1  0  0  0  0
 36 37  1  0  0  0  0
 37 89  1  0  0  0  0
 37 90  1  0  0  0  0
 37 91  1  0  0  0  0
 38 92  1  0  0  0  0
 39 40  2  0  0  0  0
 40 41  1  0  0  0  0
 40 93  1  0  0  0  0
 41 42  1  0  0  0  0
 42 43  1  0  0  0  0
 42 94  1  0  0  0  0
 43 44  2  0  0  0  0
 43 45  1  0  0  0  0
 45 46  1  0  0  0  0
 45 54  2  0  0  0  0
 46 47  2  0  0  0  0
 46 95  1  0  0  0  0
 47 48  1  0  0  0  0
 47 50  1  0  0  0  0
 48 49  1  0  0  0  0
 49 96  1  0  0  0  0
 49 97  1  0  0  0  0
 49 98  1  0  0  0  0
 50 51  2  0  0  0  0
 51 52  1  0  0  0  0
 51 54  1  0  0  0  0
 52 53  1  0  0  0  0
 53 99  1  0  0  0  0
 53100  1  0  0  0  0
 53101  1  0  0  0  0
M  END
$$$$
