CHEMBL2016916
 OpenBabel04072215363D

 60 64  0  0  0  0  0  0  0  0999 V2000
   -0.2406   -0.1913    2.4787 C   0  0  0  0  0  0  0  0  0  0  0  0
    1.0148    0.4724    2.3974 O   0  0  0  0  0  0  0  0  0  0  0  0
    2.1068   -0.2471    2.8024 C   0  0  0  0  0  0  0  0  0  0  0  0
    2.2047   -1.6419    2.7916 C   0  0  0  0  0  0  0  0  0  0  0  0
    3.3909   -2.2694    3.1941 C   0  0  0  0  0  0  0  0  0  0  0  0
    4.4759   -1.4972    3.6065 C   0  0  0  0  0  0  0  0  0  0  0  0
    5.6740   -2.1095    3.9957 N   0  0  0  0  0  0  0  0  0  0  0  0
    6.7915   -1.4142    4.3940 C   0  0  0  0  0  0  0  0  0  0  0  0
    7.8315   -2.0002    4.6937 O   0  0  0  0  0  0  0  0  0  0  0  0
    6.6857    0.0820    4.4471 C   0  0  0  0  0  0  0  0  0  0  0  0
    7.7489    0.9245    4.8799 C   0  0  0  0  0  0  0  0  0  0  0  0
    7.7278    2.2333    5.0766 N   0  0  0  0  0  0  0  0  0  0  0  0
    8.9843    2.5688    5.4651 C   0  0  0  0  0  0  0  0  0  0  0  0
    9.8101    1.4819    5.5143 C   0  0  0  0  0  0  0  0  0  0  0  0
    9.0148    0.4224    5.1478 N   0  0  0  0  0  0  0  0  0  0  0  0
   11.2335    1.4724    5.9164 C   0  0  0  0  0  0  0  0  0  0  0  0
   11.7349    2.8525    6.1410 N   0  0  0  0  0  0  0  0  0  0  0  0
   13.0575    2.9259    6.6171 C   0  0  0  0  0  0  0  0  0  0  0  0
   13.7422    1.9017    6.7382 O   0  0  0  0  0  0  0  0  0  0  0  0
   13.7168    4.3020    6.9201 C   0  0  0  0  0  0  0  0  0  0  0  0
   13.0099    5.1271    7.9117 N   0  0  0  0  0  0  0  0  0  0  0  0
   12.7914    4.4831    9.2118 C   0  0  0  0  0  0  0  0  0  0  0  0
   11.7416    5.3331    9.9627 C   0  0  0  0  0  0  0  0  0  0  0  0
   12.1870    6.7025   10.2806 N   0  0  0  0  0  0  0  0  0  0  0  0
   13.0640    6.7128   11.4447 C   0  0  0  0  0  0  0  0  0  0  0  0
   12.8026    7.3397    9.0940 C   0  0  0  0  0  0  0  0  0  0  0  0
   13.6582    6.4311    8.1580 C   0  0  0  0  0  0  0  0  0  0  0  0
   10.7786    3.9353    6.4628 C   0  0  0  0  0  0  0  0  0  0  0  0
    9.4078    3.9337    5.7784 C   0  0  0  0  0  0  0  0  0  0  0  0
    5.5363    0.6784    4.0772 C   0  0  0  0  0  0  0  0  0  0  0  0
    4.3887   -0.1029    3.6251 C   0  0  0  0  0  0  0  0  0  0  0  0
    3.2000    0.5154    3.2117 C   0  0  0  0  0  0  0  0  0  0  0  0
   -1.0162    0.5273    2.1949 H   0  0  0  0  0  0  0  0  0  0  0  0
   -0.4413   -0.5162    3.5050 H   0  0  0  0  0  0  0  0  0  0  0  0
   -0.3016   -1.0297    1.7786 H   0  0  0  0  0  0  0  0  0  0  0  0
    1.3854   -2.2656    2.4515 H   0  0  0  0  0  0  0  0  0  0  0  0
    3.4510   -3.3525    3.1684 H   0  0  0  0  0  0  0  0  0  0  0  0
    5.7600   -3.1159    3.9726 H   0  0  0  0  0  0  0  0  0  0  0  0
    9.2693   -0.5587    5.0848 H   0  0  0  0  0  0  0  0  0  0  0  0
   11.8545    1.0128    5.1376 H   0  0  0  0  0  0  0  0  0  0  0  0
   11.3622    0.8987    6.8418 H   0  0  0  0  0  0  0  0  0  0  0  0
   13.7684    4.8345    5.9622 H   0  0  0  0  0  0  0  0  0  0  0  0
   14.7472    4.1137    7.2468 H   0  0  0  0  0  0  0  0  0  0  0  0
   13.7250    4.4022    9.7837 H   0  0  0  0  0  0  0  0  0  0  0  0
   12.3964    3.4691    9.1022 H   0  0  0  0  0  0  0  0  0  0  0  0
   11.4107    4.8098   10.8668 H   0  0  0  0  0  0  0  0  0  0  0  0
   10.8430    5.4180    9.3353 H   0  0  0  0  0  0  0  0  0  0  0  0
   12.5671    6.2291   12.2949 H   0  0  0  0  0  0  0  0  0  0  0  0
   13.2689    7.7416   11.7593 H   0  0  0  0  0  0  0  0  0  0  0  0
   14.0163    6.2044   11.2692 H   0  0  0  0  0  0  0  0  0  0  0  0
   13.3933    8.2161    9.3918 H   0  0  0  0  0  0  0  0  0  0  0  0
   11.9769    7.7401    8.4908 H   0  0  0  0  0  0  0  0  0  0  0  0
   14.6510    6.2874    8.6054 H   0  0  0  0  0  0  0  0  0  0  0  0
   13.8042    6.9640    7.2102 H   0  0  0  0  0  0  0  0  0  0  0  0
   11.2430    4.8991    6.2381 H   0  0  0  0  0  0  0  0  0  0  0  0
   10.6142    3.8731    7.5431 H   0  0  0  0  0  0  0  0  0  0  0  0
    9.4412    4.5221    4.8560 H   0  0  0  0  0  0  0  0  0  0  0  0
    8.6776    4.4112    6.4428 H   0  0  0  0  0  0  0  0  0  0  0  0
    5.4232    1.7593    4.1069 H   0  0  0  0  0  0  0  0  0  0  0  0
    3.1193    1.6010    3.2088 H   0  0  0  0  0  0  0  0  0  0  0  0
  1  2  1  0  0  0  0
  1 33  1  0  0  0  0
  1 34  1  0  0  0  0
  1 35  1  0  0  0  0
  2  3  1  0  0  0  0
  3  4  1  0  0  0  0
  3 32  2  0  0  0  0
  4  5  2  0  0  0  0
  4 36  1  0  0  0  0
  5  6  1  0  0  0  0
  5 37  1  0  0  0  0
  6  7  1  0  0  0  0
  6 31  2  0  0  0  0
  7  8  1  0  0  0  0
  7 38  1  0  0  0  0
  8  9  2  0  0  0  0
  8 10  1  0  0  0  0
 10 11  1  0  0  0  0
 10 30  2  0  0  0  0
 11 12  2  0  0  0  0
 11 15  1  0  0  0  0
 12 13  1  0  0  0  0
 13 14  2  0  0  0  0
 13 29  1  0  0  0  0
 14 15  1  0  0  0  0
 14 16  1  0  0  0  0
 15 39  1  0  0  0  0
 16 17  1  0  0  0  0
 16 40  1  0  0  0  0
 16 41  1  0  0  0  0
 17 18  1  0  0  0  0
 17 28  1  0  0  0  0
 18 19  2  0  0  0  0
 18 20  1  0  0  0  0
 20 21  1  0  0  0  0
 20 42  1  0  0  0  0
 20 43  1  0  0  0  0
 21 22  1  0  0  0  0
 21 27  1  0  0  0  0
 22 23  1  0  0  0  0
 22 44  1  0  0  0  0
 22 45  1  0  0  0  0
 23 24  1  0  0  0  0
 23 46  1  0  0  0  0
 23 47  1  0  0  0  0
 24 25  1  0  0  0  0
 24 26  1  0  0  0  0
 25 48  1  0  0  0  0
 25 49  1  0  0  0  0
 25 50  1  0  0  0  0
 26 27  1  0  0  0  0
 26 51  1  0  0  0  0
 26 52  1  0  0  0  0
 27 53  1  0  0  0  0
 27 54  1  0  0  0  0
 28 29  1  0  0  0  0
 28 55  1  0  0  0  0
 28 56  1  0  0  0  0
 29 57  1  0  0  0  0
 29 58  1  0  0  0  0
 30 31  1  0  0  0  0
 30 59  1  0  0  0  0
 31 32  1  0  0  0  0
 32 60  1  0  0  0  0
M  END
$$$$
