CHEMBL3287311
 OpenBabel04072215363D

 67 71  0  0  0  0  0  0  0  0999 V2000
    4.8698    1.8476   -2.5608 C   0  0  0  0  0  0  0  0  0  0  0  0
    4.7293    3.5437   -3.0743 S   0  0  0  0  0  0  0  0  0  0  0  0
    4.9472    3.6006   -4.5082 O   0  0  0  0  0  0  0  0  0  0  0  0
    3.4818    4.0453   -2.5218 O   0  0  0  0  0  0  0  0  0  0  0  0
    6.0523    4.3988   -2.2266 C   0  0  0  0  0  0  0  0  0  0  0  0
    7.4166    3.8461   -2.5467 C   0  0  0  0  0  0  0  0  0  0  0  0
    7.9493    3.8747   -3.8416 C   0  0  0  0  0  0  0  0  0  0  0  0
    9.2478    3.4270   -4.0887 C   0  0  0  0  0  0  0  0  0  0  0  0
   10.0412    2.9695   -3.0391 C   0  0  0  0  0  0  0  0  0  0  0  0
    9.5343    2.9175   -1.7387 C   0  0  0  0  0  0  0  0  0  0  0  0
   10.3840    2.5193   -0.6937 N   0  0  0  0  0  0  0  0  0  0  0  0
    9.9833    1.9210    0.5014 C   0  0  0  0  0  0  0  0  0  0  0  0
    8.9525    1.0591    0.5164 N   0  0  0  0  0  0  0  0  0  0  0  0
    8.6612    0.4613    1.6840 C   0  0  0  0  0  0  0  0  0  0  0  0
    9.3568    0.6914    2.8401 C   0  0  0  0  0  0  0  0  0  0  0  0
   10.3914    1.5860    2.7223 C   0  0  0  0  0  0  0  0  0  0  0  0
   11.1399    1.8385    3.8654 O   0  0  0  0  0  0  0  0  0  0  0  0
   12.4611    2.1895    3.6940 C   0  0  0  0  0  0  0  0  0  0  0  0
   13.2895    1.5981    2.7406 C   0  0  0  0  0  0  0  0  0  0  0  0
   14.6352    1.9609    2.6547 C   0  0  0  0  0  0  0  0  0  0  0  0
   15.1898    2.8798    3.5476 C   0  0  0  0  0  0  0  0  0  0  0  0
   16.5632    3.2134    3.5394 N   0  0  0  0  0  0  0  0  0  0  0  0
   17.5623    2.5274    2.8676 C   0  0  0  0  0  0  0  0  0  0  0  0
   17.4493    1.5035    2.2082 O   0  0  0  0  0  0  0  0  0  0  0  0
   18.9280    3.1214    3.0172 C   0  0  0  0  0  0  0  0  0  0  0  0
   19.5748    2.9068    4.3528 C   0  0  0  0  0  0  0  0  0  0  0  0
   19.1994    3.6292    5.2696 O   0  0  0  0  0  0  0  0  0  0  0  0
   20.5412    1.9158    4.4020 N   0  0  0  0  0  0  0  0  0  0  0  0
   21.2964    1.5705    5.5471 C   0  0  0  0  0  0  0  0  0  0  0  0
   20.9318    1.9650    6.8381 C   0  0  0  0  0  0  0  0  0  0  0  0
   21.7531    1.6922    7.9345 C   0  0  0  0  0  0  0  0  0  0  0  0
   22.9468    1.0071    7.7472 C   0  0  0  0  0  0  0  0  0  0  0  0
   24.0904    0.7078    9.2213 Br  0  0  0  0  0  0  0  0  0  0  0  0
   23.3025    0.5545    6.4784 C   0  0  0  0  0  0  0  0  0  0  0  0
   22.4702    0.8226    5.3811 C   0  0  0  0  0  0  0  0  0  0  0  0
   19.1604    4.4823    2.3588 C   0  0  0  0  0  0  0  0  0  0  0  0
   19.7850    3.2623    1.7671 C   0  0  0  0  0  0  0  0  0  0  0  0
   14.3568    3.4856    4.4941 C   0  0  0  0  0  0  0  0  0  0  0  0
   13.0073    3.1257    4.5687 C   0  0  0  0  0  0  0  0  0  0  0  0
   12.2389    3.6887    5.5148 F   0  0  0  0  0  0  0  0  0  0  0  0
   10.7057    2.2275    1.5802 N   0  0  0  0  0  0  0  0  0  0  0  0
    8.2301    3.3756   -1.5041 C   0  0  0  0  0  0  0  0  0  0  0  0
    4.0663    1.2879   -3.0464 H   0  0  0  0  0  0  0  0  0  0  0  0
    4.7504    1.7972   -1.4769 H   0  0  0  0  0  0  0  0  0  0  0  0
    5.8349    1.4464   -2.8699 H   0  0  0  0  0  0  0  0  0  0  0  0
    5.8314    4.3174   -1.1560 H   0  0  0  0  0  0  0  0  0  0  0  0
    5.9994    5.4567   -2.5008 H   0  0  0  0  0  0  0  0  0  0  0  0
    7.3663    4.2564   -4.6782 H   0  0  0  0  0  0  0  0  0  0  0  0
    9.6449    3.4440   -5.1005 H   0  0  0  0  0  0  0  0  0  0  0  0
   11.0554    2.6317   -3.2413 H   0  0  0  0  0  0  0  0  0  0  0  0
   11.0716    3.2258   -0.4539 H   0  0  0  0  0  0  0  0  0  0  0  0
    7.8319   -0.2389    1.6469 H   0  0  0  0  0  0  0  0  0  0  0  0
    9.1203    0.1897    3.7667 H   0  0  0  0  0  0  0  0  0  0  0  0
   12.9089    0.8562    2.0443 H   0  0  0  0  0  0  0  0  0  0  0  0
   15.2241    1.5022    1.8665 H   0  0  0  0  0  0  0  0  0  0  0  0
   16.8679    3.9453    4.1758 H   0  0  0  0  0  0  0  0  0  0  0  0
   20.7936    1.4645    3.5299 H   0  0  0  0  0  0  0  0  0  0  0  0
   19.9995    2.4858    7.0298 H   0  0  0  0  0  0  0  0  0  0  0  0
   21.4494    2.0336    8.9203 H   0  0  0  0  0  0  0  0  0  0  0  0
   24.2323    0.0103    6.3319 H   0  0  0  0  0  0  0  0  0  0  0  0
   22.7824    0.4731    4.4000 H   0  0  0  0  0  0  0  0  0  0  0  0
   19.8058    5.1969    2.8574 H   0  0  0  0  0  0  0  0  0  0  0  0
   18.3365    4.9439    1.8210 H   0  0  0  0  0  0  0  0  0  0  0  0
   20.8624    3.1719    1.8351 H   0  0  0  0  0  0  0  0  0  0  0  0
   19.3792    2.8882    0.8292 H   0  0  0  0  0  0  0  0  0  0  0  0
   14.7341    4.2150    5.2040 H   0  0  0  0  0  0  0  0  0  0  0  0
    7.8523    3.3859   -0.4828 H   0  0  0  0  0  0  0  0  0  0  0  0
  1  2  1  0  0  0  0
  1 43  1  0  0  0  0
  1 44  1  0  0  0  0
  1 45  1  0  0  0  0
  2  3  2  0  0  0  0
  2  4  2  0  0  0  0
  2  5  1  0  0  0  0
  5  6  1  0  0  0  0
  5 46  1  0  0  0  0
  5 47  1  0  0  0  0
  6  7  1  0  0  0  0
  6 42  2  0  0  0  0
  7  8  2  0  0  0  0
  7 48  1  0  0  0  0
  8  9  1  0  0  0  0
  8 49  1  0  0  0  0
  9 10  2  0  0  0  0
  9 50  1  0  0  0  0
 10 11  1  0  0  0  0
 10 42  1  0  0  0  0
 11 12  1  0  0  0  0
 11 51  1  0  0  0  0
 12 13  1  0  0  0  0
 12 41  2  0  0  0  0
 13 14  2  0  0  0  0
 14 15  1  0  0  0  0
 14 52  1  0  0  0  0
 15 16  2  0  0  0  0
 15 53  1  0  0  0  0
 16 17  1  0  0  0  0
 16 41  1  0  0  0  0
 17 18  1  0  0  0  0
 18 19  1  0  0  0  0
 18 39  2  0  0  0  0
 19 20  2  0  0  0  0
 19 54  1  0  0  0  0
 20 21  1  0  0  0  0
 20 55  1  0  0  0  0
 21 22  1  0  0  0  0
 21 38  2  0  0  0  0
 22 23  1  0  0  0  0
 22 56  1  0  0  0  0
 23 24  2  0  0  0  0
 23 25  1  0  0  0  0
 25 26  1  0  0  0  0
 25 36  1  0  0  0  0
 25 37  1  0  0  0  0
 26 27  2  0  0  0  0
 26 28  1  0  0  0  0
 28 29  1  0  0  0  0
 28 57  1  0  0  0  0
 29 30  1  0  0  0  0
 29 35  2  0  0  0  0
 30 31  2  0  0  0  0
 30 58  1  0  0  0  0
 31 32  1  0  0  0  0
 31 59  1  0  0  0  0
 32 33  1  0  0  0  0
 32 34  2  0  0  0  0
 34 35  1  0  0  0  0
 34 60  1  0  0  0  0
 35 61  1  0  0  0  0
 36 37  1  0  0  0  0
 36 62  1  0  0  0  0
 36 63  1  0  0  0  0
 37 64  1  0  0  0  0
 37 65  1  0  0  0  0
 38 39  1  0  0  0  0
 38 66  1  0  0  0  0
 39 40  1  0  0  0  0
 42 67  1  0  0  0  0
M  END
$$$$
