CHEMBL3980417
 OpenBabel04072215373D

 64 68  0  0  0  0  0  0  0  0999 V2000
    2.2927   -5.0403    2.2544 C   0  0  0  0  0  0  0  0  0  0  0  0
    2.3076   -4.7062    0.8650 O   0  0  0  0  0  0  0  0  0  0  0  0
    3.1921   -3.6967    0.5827 C   0  0  0  0  0  0  0  0  0  0  0  0
    2.7146   -2.6598   -0.2194 C   0  0  0  0  0  0  0  0  0  0  0  0
    3.5300   -1.5603   -0.4699 C   0  0  0  0  0  0  0  0  0  0  0  0
    3.1972   -0.4852   -1.2501 O   0  0  0  0  0  0  0  0  0  0  0  0
    1.8073   -0.2125   -1.3861 C   0  0  0  0  0  0  0  0  0  0  0  0
    4.8181   -1.5140    0.0825 C   0  0  0  0  0  0  0  0  0  0  0  0
    5.3331   -2.5635    0.8602 C   0  0  0  0  0  0  0  0  0  0  0  0
    6.5898   -2.4685    1.4849 N   0  0  0  0  0  0  0  0  0  0  0  0
    6.8910   -1.1172    2.2478 C   0  0  0  0  0  0  0  0  0  0  0  0
    5.8821   -0.3324    3.0703 C   0  0  0  0  0  0  0  0  0  0  0  0
    5.0166    0.3408    3.7759 C   0  0  0  0  0  0  0  0  0  0  0  0
    4.0292    1.0473    4.5480 C   0  0  0  0  0  0  0  0  0  0  0  0
    2.8530    0.4384    4.9858 C   0  0  0  0  0  0  0  0  0  0  0  0
    1.8912    1.2192    5.6469 C   0  0  0  0  0  0  0  0  0  0  0  0
    0.5496    0.6656    6.0550 C   0  0  0  0  0  0  0  0  0  0  0  0
    0.2764    0.9158    7.4285 O   0  0  0  0  0  0  0  0  0  0  0  0
    2.1735    2.5711    5.8599 C   0  0  0  0  0  0  0  0  0  0  0  0
    3.3849    3.0772    5.4206 C   0  0  0  0  0  0  0  0  0  0  0  0
    4.3161    2.3481    4.7662 N   0  0  0  0  0  0  0  0  0  0  0  0
    7.5551   -3.5153    1.7152 C   0  0  0  0  0  0  0  0  0  0  0  0
    7.8748   -3.6324    3.0286 C   0  0  0  0  0  0  0  0  0  0  0  0
    9.1681   -3.9828    3.2801 C   0  0  0  0  0  0  0  0  0  0  0  0
   10.0429   -4.3924    2.3383 C   0  0  0  0  0  0  0  0  0  0  0  0
   11.1783   -4.2461    2.9348 N   0  0  0  0  0  0  0  0  0  0  0  0
   11.9879   -5.2451    2.7729 C   0  0  0  0  0  0  0  0  0  0  0  0
   11.9413   -6.1507    1.7347 C   0  0  0  0  0  0  0  0  0  0  0  0
   13.2807   -6.8928    1.8006 C   0  0  0  0  0  0  0  0  0  0  0  0
   14.4422   -6.1500    2.3006 C   0  0  0  0  0  0  0  0  0  0  0  0
   15.2655   -6.8331    3.0852 N   0  0  0  0  0  0  0  0  0  0  0  0
   14.7559   -8.0671    3.0826 N   0  0  0  0  0  0  0  0  0  0  0  0
   15.4104   -9.0251    3.9588 C   0  0  0  0  0  0  0  0  0  0  0  0
   13.5926   -8.1681    2.3113 C   0  0  0  0  0  0  0  0  0  0  0  0
   10.8700   -6.0127    0.8141 N   0  0  0  0  0  0  0  0  0  0  0  0
    9.7184   -5.0318    1.1598 C   0  0  0  0  0  0  0  0  0  0  0  0
    8.3524   -4.3562    0.7810 C   0  0  0  0  0  0  0  0  0  0  0  0
    4.5104   -3.6801    1.0596 C   0  0  0  0  0  0  0  0  0  0  0  0
    1.4027   -5.6453    2.4515 H   0  0  0  0  0  0  0  0  0  0  0  0
    2.2330   -4.1433    2.8833 H   0  0  0  0  0  0  0  0  0  0  0  0
    3.1681   -5.6401    2.5209 H   0  0  0  0  0  0  0  0  0  0  0  0
    1.7102   -2.7359   -0.6213 H   0  0  0  0  0  0  0  0  0  0  0  0
    1.7049    0.7060   -1.9726 H   0  0  0  0  0  0  0  0  0  0  0  0
    1.3493   -0.0385   -0.4067 H   0  0  0  0  0  0  0  0  0  0  0  0
    1.2873   -1.0065   -1.9305 H   0  0  0  0  0  0  0  0  0  0  0  0
    5.4249   -0.6348   -0.1148 H   0  0  0  0  0  0  0  0  0  0  0  0
    7.2220   -0.4380    1.4488 H   0  0  0  0  0  0  0  0  0  0  0  0
    7.7862   -1.2259    2.8711 H   0  0  0  0  0  0  0  0  0  0  0  0
    2.6789   -0.6157    4.7940 H   0  0  0  0  0  0  0  0  0  0  0  0
    0.4942   -0.4151    5.8941 H   0  0  0  0  0  0  0  0  0  0  0  0
   -0.2409    1.1353    5.4593 H   0  0  0  0  0  0  0  0  0  0  0  0
    1.1219    0.9108    7.9077 H   0  0  0  0  0  0  0  0  0  0  0  0
    1.4519    3.2236    6.3483 H   0  0  0  0  0  0  0  0  0  0  0  0
    3.6392    4.1215    5.5766 H   0  0  0  0  0  0  0  0  0  0  0  0
    7.2872   -3.2521    3.8290 H   0  0  0  0  0  0  0  0  0  0  0  0
    9.5539   -3.8444    4.2962 H   0  0  0  0  0  0  0  0  0  0  0  0
   12.7119   -5.2706    3.5663 H   0  0  0  0  0  0  0  0  0  0  0  0
   14.5589   -5.0701    2.3240 H   0  0  0  0  0  0  0  0  0  0  0  0
   16.1017   -8.4907    4.6310 H   0  0  0  0  0  0  0  0  0  0  0  0
   15.9971   -9.7204    3.3558 H   0  0  0  0  0  0  0  0  0  0  0  0
   14.6751   -9.5409    4.5789 H   0  0  0  0  0  0  0  0  0  0  0  0
   13.0923   -9.1256    2.2671 H   0  0  0  0  0  0  0  0  0  0  0  0
    7.9829   -4.4851   -0.2422 H   0  0  0  0  0  0  0  0  0  0  0  0
    4.8838   -4.5188    1.6364 H   0  0  0  0  0  0  0  0  0  0  0  0
  1  2  1  0  0  0  0
  1 39  1  0  0  0  0
  1 40  1  0  0  0  0
  1 41  1  0  0  0  0
  2  3  1  0  0  0  0
  3  4  1  0  0  0  0
  3 38  2  0  0  0  0
  4  5  2  0  0  0  0
  4 42  1  0  0  0  0
  5  6  1  0  0  0  0
  5  8  1  0  0  0  0
  6  7  1  0  0  0  0
  7 43  1  0  0  0  0
  7 44  1  0  0  0  0
  7 45  1  0  0  0  0
  8  9  2  0  0  0  0
  8 46  1  0  0  0  0
  9 10  1  0  0  0  0
  9 38  1  0  0  0  0
 10 11  1  0  0  0  0
 10 22  1  0  0  0  0
 11 12  1  0  0  0  0
 11 47  1  0  0  0  0
 11 48  1  0  0  0  0
 12 13  3  0  0  0  0
 13 14  1  0  0  0  0
 14 15  1  0  0  0  0
 14 21  2  0  0  0  0
 15 16  2  0  0  0  0
 15 49  1  0  0  0  0
 16 17  1  0  0  0  0
 16 19  1  0  0  0  0
 17 18  1  0  0  0  0
 17 50  1  0  0  0  0
 17 51  1  0  0  0  0
 18 52  1  0  0  0  0
 19 20  2  0  0  0  0
 19 53  1  0  0  0  0
 20 21  1  0  0  0  0
 20 54  1  0  0  0  0
 22 23  1  0  0  0  0
 22 37  2  0  0  0  0
 23 24  2  0  0  0  0
 23 55  1  0  0  0  0
 24 25  1  0  0  0  0
 24 56  1  0  0  0  0
 25 26  1  0  0  0  0
 25 36  2  0  0  0  0
 26 27  2  0  0  0  0
 27 28  1  0  0  0  0
 27 57  1  0  0  0  0
 28 29  1  0  0  0  0
 28 35  2  0  0  0  0
 29 30  1  0  0  0  0
 29 34  2  0  0  0  0
 30 31  2  0  0  0  0
 30 58  1  0  0  0  0
 31 32  1  0  0  0  0
 32 33  1  0  0  0  0
 32 34  1  0  0  0  0
 33 59  1  0  0  0  0
 33 60  1  0  0  0  0
 33 61  1  0  0  0  0
 34 62  1  0  0  0  0
 35 36  1  0  0  0  0
 36 37  1  0  0  0  0
 37 63  1  0  0  0  0
 38 64  1  0  0  0  0
M  END
$$$$
