CHEMBL3656123
 OpenBabel04072215373D

 77 81  0  0  1  0  0  0  0  0999 V2000
    5.2517    0.1076    9.2591 C   0  0  0  0  0  0  0  0  0  0  0  0
    5.2722   -0.7727    8.1363 O   0  0  0  0  0  0  0  0  0  0  0  0
    6.2456   -0.5091    7.2159 C   0  0  0  0  0  0  0  0  0  0  0  0
    7.0172    0.4429    7.2692 O   0  0  0  0  0  0  0  0  0  0  0  0
    6.3119   -1.6200    6.1725 C   0  0  2  0  0  0  0  0  0  0  0  0
    7.4253   -1.4330    5.1540 C   0  0  0  0  0  0  0  0  0  0  0  0
    7.0914   -2.4880    4.1204 C   0  0  0  0  0  0  0  0  0  0  0  0
    5.5770   -2.6688    4.2129 C   0  0  0  0  0  0  0  0  0  0  0  0
    5.0826   -1.8443    5.3409 N   0  0  0  0  0  0  0  0  0  0  0  0
    4.4630   -0.5841    4.8709 C   0  0  0  0  0  0  0  0  0  0  0  0
    3.2175   -0.7669    3.9806 C   0  0  0  0  0  0  0  0  0  0  0  0
    2.1493   -1.5399    4.5800 N   0  0  0  0  0  0  0  0  0  0  0  0
    0.9938   -1.7247    3.8509 C   0  0  0  0  0  0  0  0  0  0  0  0
    0.8351   -1.2034    2.7475 O   0  0  0  0  0  0  0  0  0  0  0  0
   -0.0406   -2.5736    4.4317 C   0  0  0  0  0  0  0  0  0  0  0  0
   -0.1164   -3.1846    5.6717 C   0  0  0  0  0  0  0  0  0  0  0  0
   -1.3284   -3.8378    5.7609 N   0  0  0  0  0  0  0  0  0  0  0  0
   -2.0234   -3.7160    4.5788 C   0  0  0  0  0  0  0  0  0  0  0  0
   -3.3060   -4.3614    4.3210 C   0  0  0  0  0  0  0  0  0  0  0  0
   -3.6899   -4.6840    3.0247 C   0  0  0  0  0  0  0  0  0  0  0  0
   -4.8735   -5.3893    2.8284 C   0  0  0  0  0  0  0  0  0  0  0  0
   -5.3040   -5.8408    1.5948 O   0  0  0  0  0  0  0  0  0  0  0  0
   -4.3640   -6.2520    0.6702 C   0  0  0  0  0  0  0  0  0  0  0  0
   -3.1736   -6.8824    1.0202 C   0  0  0  0  0  0  0  0  0  0  0  0
   -2.2146   -7.1609    0.0470 C   0  0  0  0  0  0  0  0  0  0  0  0
   -2.4500   -6.8920   -1.3050 C   0  0  0  0  0  0  0  0  0  0  0  0
   -1.4773   -7.1078   -2.3145 N   0  0  0  0  0  0  0  0  0  0  0  0
   -0.2139   -7.6370   -2.1050 C   0  0  0  0  0  0  0  0  0  0  0  0
    0.1925   -8.0989   -1.0455 O   0  0  0  0  0  0  0  0  0  0  0  0
    0.5878   -7.5626   -3.2385 N   0  0  0  0  0  0  0  0  0  0  0  0
    1.9176   -8.0625   -3.1722 C   0  0  0  0  0  0  0  0  0  0  0  0
    2.2043   -9.3101   -2.6007 C   0  0  0  0  0  0  0  0  0  0  0  0
    3.5297   -9.7370   -2.4387 C   0  0  0  0  0  0  0  0  0  0  0  0
    3.8326  -11.0655   -1.8087 C   0  0  0  0  0  0  0  0  0  0  0  0
    4.5720   -8.8978   -2.8532 C   0  0  0  0  0  0  0  0  0  0  0  0
    4.2914   -7.6676   -3.4531 C   0  0  0  0  0  0  0  0  0  0  0  0
    2.9691   -7.2698   -3.6296 C   0  0  0  0  0  0  0  0  0  0  0  0
    2.7111   -6.0723   -4.1783 F   0  0  0  0  0  0  0  0  0  0  0  0
   -3.6930   -6.3601   -1.6641 C   0  0  0  0  0  0  0  0  0  0  0  0
   -4.6464   -6.0382   -0.6785 C   0  0  0  0  0  0  0  0  0  0  0  0
   -5.6977   -5.6315    3.9202 C   0  0  0  0  0  0  0  0  0  0  0  0
   -5.2535   -5.2353    5.1745 C   0  0  0  0  0  0  0  0  0  0  0  0
   -4.0588   -4.6406    5.4086 N   0  0  0  0  0  0  0  0  0  0  0  0
   -1.2444   -2.9185    3.7573 C   0  0  0  0  0  0  0  0  0  0  0  0
    4.2644    0.0411    9.7239 H   0  0  0  0  0  0  0  0  0  0  0  0
    5.4267    1.1503    8.9757 H   0  0  0  0  0  0  0  0  0  0  0  0
    6.0005   -0.2208    9.9870 H   0  0  0  0  0  0  0  0  0  0  0  0
    6.5132   -2.5442    6.7334 H   0  0  0  0  0  0  0  0  0  0  0  0
    8.4211   -1.5806    5.5839 H   0  0  0  0  0  0  0  0  0  0  0  0
    7.4072   -0.4316    4.7046 H   0  0  0  0  0  0  0  0  0  0  0  0
    7.5923   -3.4302    4.3732 H   0  0  0  0  0  0  0  0  0  0  0  0
    7.4168   -2.1890    3.1198 H   0  0  0  0  0  0  0  0  0  0  0  0
    5.3445   -3.7190    4.4206 H   0  0  0  0  0  0  0  0  0  0  0  0
    5.1197   -2.4405    3.2473 H   0  0  0  0  0  0  0  0  0  0  0  0
    5.1831    0.0326    4.3198 H   0  0  0  0  0  0  0  0  0  0  0  0
    4.1399   -0.0025    5.7427 H   0  0  0  0  0  0  0  0  0  0  0  0
    3.4710   -1.2368    3.0248 H   0  0  0  0  0  0  0  0  0  0  0  0
    2.8099    0.2208    3.7325 H   0  0  0  0  0  0  0  0  0  0  0  0
    2.3634   -2.1589    5.3521 H   0  0  0  0  0  0  0  0  0  0  0  0
    0.5658   -3.2032    6.5108 H   0  0  0  0  0  0  0  0  0  0  0  0
   -1.6716   -4.3587    6.5594 H   0  0  0  0  0  0  0  0  0  0  0  0
   -3.0433   -4.4325    2.1914 H   0  0  0  0  0  0  0  0  0  0  0  0
   -2.9392   -7.1261    2.0529 H   0  0  0  0  0  0  0  0  0  0  0  0
   -1.2785   -7.5731    0.4058 H   0  0  0  0  0  0  0  0  0  0  0  0
   -1.7337   -6.8957   -3.2657 H   0  0  0  0  0  0  0  0  0  0  0  0
    0.4849   -6.7062   -3.7694 H   0  0  0  0  0  0  0  0  0  0  0  0
    1.3908   -9.9452   -2.2543 H   0  0  0  0  0  0  0  0  0  0  0  0
    2.9164  -11.6016   -1.5380 H   0  0  0  0  0  0  0  0  0  0  0  0
    4.4222  -10.9292   -0.8966 H   0  0  0  0  0  0  0  0  0  0  0  0
    4.3914  -11.6941   -2.5095 H   0  0  0  0  0  0  0  0  0  0  0  0
    5.6069   -9.1976   -2.7019 H   0  0  0  0  0  0  0  0  0  0  0  0
    5.0966   -7.0084   -3.7604 H   0  0  0  0  0  0  0  0  0  0  0  0
   -3.9380   -6.1692   -2.7063 H   0  0  0  0  0  0  0  0  0  0  0  0
   -5.6003   -5.6072   -0.9712 H   0  0  0  0  0  0  0  0  0  0  0  0
   -6.6558   -6.1234    3.8013 H   0  0  0  0  0  0  0  0  0  0  0  0
   -5.8682   -5.3966    6.0566 H   0  0  0  0  0  0  0  0  0  0  0  0
   -1.5083   -2.6093    2.7536 H   0  0  0  0  0  0  0  0  0  0  0  0
  1  2  1  0  0  0  0
  1 45  1  0  0  0  0
  1 46  1  0  0  0  0
  1 47  1  0  0  0  0
  2  3  1  0  0  0  0
  3  4  2  0  0  0  0
  3  5  1  0  0  0  0
  5  6  1  0  0  0  0
  5  9  1  0  0  0  0
  5 48  1  1  0  0  0
  6  7  1  0  0  0  0
  6 49  1  0  0  0  0
  6 50  1  0  0  0  0
  7  8  1  0  0  0  0
  7 51  1  0  0  0  0
  7 52  1  0  0  0  0
  8  9  1  0  0  0  0
  8 53  1  0  0  0  0
  8 54  1  0  0  0  0
  9 10  1  0  0  0  0
 10 11  1  0  0  0  0
 10 55  1  0  0  0  0
 10 56  1  0  0  0  0
 11 12  1  0  0  0  0
 11 57  1  0  0  0  0
 11 58  1  0  0  0  0
 12 13  1  0  0  0  0
 12 59  1  0  0  0  0
 13 14  2  0  0  0  0
 13 15  1  0  0  0  0
 15 16  2  0  0  0  0
 15 44  1  0  0  0  0
 16 17  1  0  0  0  0
 16 60  1  0  0  0  0
 17 18  1  0  0  0  0
 17 61  1  0  0  0  0
 18 19  1  0  0  0  0
 18 44  2  0  0  0  0
 19 20  1  0  0  0  0
 19 43  2  0  0  0  0
 20 21  2  0  0  0  0
 20 62  1  0  0  0  0
 21 22  1  0  0  0  0
 21 41  1  0  0  0  0
 22 23  1  0  0  0  0
 23 24  1  0  0  0  0
 23 40  2  0  0  0  0
 24 25  2  0  0  0  0
 24 63  1  0  0  0  0
 25 26  1  0  0  0  0
 25 64  1  0  0  0  0
 26 27  1  0  0  0  0
 26 39  2  0  0  0  0
 27 28  1  0  0  0  0
 27 65  1  0  0  0  0
 28 29  2  0  0  0  0
 28 30  1  0  0  0  0
 30 31  1  0  0  0  0
 30 66  1  0  0  0  0
 31 32  1  0  0  0  0
 31 37  2  0  0  0  0
 32 33  2  0  0  0  0
 32 67  1  0  0  0  0
 33 34  1  0  0  0  0
 33 35  1  0  0  0  0
 34 68  1  0  0  0  0
 34 69  1  0  0  0  0
 34 70  1  0  0  0  0
 35 36  2  0  0  0  0
 35 71  1  0  0  0  0
 36 37  1  0  0  0  0
 36 72  1  0  0  0  0
 37 38  1  0  0  0  0
 39 40  1  0  0  0  0
 39 73  1  0  0  0  0
 40 74  1  0  0  0  0
 41 42  2  0  0  0  0
 41 75  1  0  0  0  0
 42 43  1  0  0  0  0
 42 76  1  0  0  0  0
 44 77  1  0  0  0  0
M  END
$$$$
