CHEMBL464510
 OpenBabel04072215383D

 56 60  0  0  0  0  0  0  0  0999 V2000
    0.4139    3.0563   -2.3883 C   0  0  0  0  0  0  0  0  0  0  0  0
    0.1415    1.7117   -2.8244 N   0  0  0  0  0  0  0  0  0  0  0  0
    1.0185    0.8521   -3.4172 C   0  0  0  0  0  0  0  0  0  0  0  0
    0.4784   -0.3341   -3.5965 N   0  0  0  0  0  0  0  0  0  0  0  0
   -0.8104   -0.2188   -3.1306 C   0  0  0  0  0  0  0  0  0  0  0  0
   -1.7947   -1.3396   -3.1106 C   0  0  0  0  0  0  0  0  0  0  0  0
   -1.4813   -2.6366   -3.4296 C   0  0  0  0  0  0  0  0  0  0  0  0
   -2.5932   -3.5148   -3.2654 C   0  0  0  0  0  0  0  0  0  0  0  0
   -2.5667   -4.8611   -3.4685 N   0  0  0  0  0  0  0  0  0  0  0  0
   -3.7199   -5.5118   -3.2325 C   0  0  0  0  0  0  0  0  0  0  0  0
   -4.9047   -4.9191   -2.8414 C   0  0  0  0  0  0  0  0  0  0  0  0
   -4.9538   -3.5306   -2.7153 C   0  0  0  0  0  0  0  0  0  0  0  0
   -6.1135   -2.8411   -2.4079 O   0  0  0  0  0  0  0  0  0  0  0  0
   -7.2758   -3.1887   -3.0660 C   0  0  0  0  0  0  0  0  0  0  0  0
   -7.2980   -3.7683   -4.3351 C   0  0  0  0  0  0  0  0  0  0  0  0
   -8.4997   -4.2346   -4.8685 C   0  0  0  0  0  0  0  0  0  0  0  0
   -9.7065   -4.0640   -4.1860 C   0  0  0  0  0  0  0  0  0  0  0  0
  -10.9247   -4.5959   -4.6715 N   0  0  0  0  0  0  0  0  0  0  0  0
  -11.0279   -5.6533   -5.5648 C   0  0  0  0  0  0  0  0  0  0  0  0
  -10.0778   -6.2978   -6.0121 O   0  0  0  0  0  0  0  0  0  0  0  0
  -12.4153   -6.0226   -6.0292 C   0  0  0  0  0  0  0  0  0  0  0  0
  -13.5083   -5.7543   -5.0420 C   0  0  0  0  0  0  0  0  0  0  0  0
  -13.8316   -4.5942   -4.7927 O   0  0  0  0  0  0  0  0  0  0  0  0
  -13.9897   -6.8801   -4.3907 N   0  0  0  0  0  0  0  0  0  0  0  0
  -14.9361   -6.7380   -3.3575 C   0  0  0  0  0  0  0  0  0  0  0  0
  -16.0776   -5.9507   -3.5343 C   0  0  0  0  0  0  0  0  0  0  0  0
  -16.9266   -5.6999   -2.4590 C   0  0  0  0  0  0  0  0  0  0  0  0
  -16.6261   -6.2247   -1.2041 C   0  0  0  0  0  0  0  0  0  0  0  0
  -15.5114   -7.0487   -1.0385 C   0  0  0  0  0  0  0  0  0  0  0  0
  -14.6821   -7.3363   -2.1240 C   0  0  0  0  0  0  0  0  0  0  0  0
   -9.7040   -3.3379   -2.9881 C   0  0  0  0  0  0  0  0  0  0  0  0
   -8.4899   -2.9190   -2.4334 C   0  0  0  0  0  0  0  0  0  0  0  0
   -8.5048   -2.2744   -1.2570 F   0  0  0  0  0  0  0  0  0  0  0  0
   -3.7476   -2.8321   -2.8772 C   0  0  0  0  0  0  0  0  0  0  0  0
   -3.4295   -1.1589   -2.6709 S   0  0  0  0  0  0  0  0  0  0  0  0
   -1.0445    1.0570   -2.6679 C   0  0  0  0  0  0  0  0  0  0  0  0
    1.3994    3.3661   -2.7420 H   0  0  0  0  0  0  0  0  0  0  0  0
    0.3869    3.0691   -1.2949 H   0  0  0  0  0  0  0  0  0  0  0  0
   -0.3559    3.7179   -2.7936 H   0  0  0  0  0  0  0  0  0  0  0  0
    2.0305    1.1291   -3.6831 H   0  0  0  0  0  0  0  0  0  0  0  0
   -0.4949   -2.9628   -3.7372 H   0  0  0  0  0  0  0  0  0  0  0  0
   -3.6733   -6.5876   -3.3871 H   0  0  0  0  0  0  0  0  0  0  0  0
   -5.7846   -5.5322   -2.6792 H   0  0  0  0  0  0  0  0  0  0  0  0
   -6.3894   -3.9084   -4.9156 H   0  0  0  0  0  0  0  0  0  0  0  0
   -8.4590   -4.7226   -5.8375 H   0  0  0  0  0  0  0  0  0  0  0  0
  -11.7810   -4.2505   -4.2372 H   0  0  0  0  0  0  0  0  0  0  0  0
  -12.4146   -7.0862   -6.2965 H   0  0  0  0  0  0  0  0  0  0  0  0
  -12.6343   -5.4584   -6.9419 H   0  0  0  0  0  0  0  0  0  0  0  0
  -13.3564   -7.6694   -4.3208 H   0  0  0  0  0  0  0  0  0  0  0  0
  -16.3062   -5.5179   -4.5053 H   0  0  0  0  0  0  0  0  0  0  0  0
  -17.8023   -5.0714   -2.5973 H   0  0  0  0  0  0  0  0  0  0  0  0
  -17.2566   -5.9829   -0.3526 H   0  0  0  0  0  0  0  0  0  0  0  0
  -15.2719   -7.4416   -0.0539 H   0  0  0  0  0  0  0  0  0  0  0  0
  -13.8000   -7.9503   -1.9684 H   0  0  0  0  0  0  0  0  0  0  0  0
  -10.6190   -3.1320   -2.4437 H   0  0  0  0  0  0  0  0  0  0  0  0
   -1.9129    1.5214   -2.2216 H   0  0  0  0  0  0  0  0  0  0  0  0
  1  2  1  0  0  0  0
  1 37  1  0  0  0  0
  1 38  1  0  0  0  0
  1 39  1  0  0  0  0
  2  3  1  0  0  0  0
  2 36  1  0  0  0  0
  3  4  2  0  0  0  0
  3 40  1  0  0  0  0
  4  5  1  0  0  0  0
  5  6  1  0  0  0  0
  5 36  2  0  0  0  0
  6  7  2  0  0  0  0
  6 35  1  0  0  0  0
  7  8  1  0  0  0  0
  7 41  1  0  0  0  0
  8  9  1  0  0  0  0
  8 34  2  0  0  0  0
  9 10  2  0  0  0  0
 10 11  1  0  0  0  0
 10 42  1  0  0  0  0
 11 12  2  0  0  0  0
 11 43  1  0  0  0  0
 12 13  1  0  0  0  0
 12 34  1  0  0  0  0
 13 14  1  0  0  0  0
 14 15  1  0  0  0  0
 14 32  2  0  0  0  0
 15 16  2  0  0  0  0
 15 44  1  0  0  0  0
 16 17  1  0  0  0  0
 16 45  1  0  0  0  0
 17 18  1  0  0  0  0
 17 31  2  0  0  0  0
 18 19  1  0  0  0  0
 18 46  1  0  0  0  0
 19 20  2  0  0  0  0
 19 21  1  0  0  0  0
 21 22  1  0  0  0  0
 21 47  1  0  0  0  0
 21 48  1  0  0  0  0
 22 23  2  0  0  0  0
 22 24  1  0  0  0  0
 24 25  1  0  0  0  0
 24 49  1  0  0  0  0
 25 26  1  0  0  0  0
 25 30  2  0  0  0  0
 26 27  2  0  0  0  0
 26 50  1  0  0  0  0
 27 28  1  0  0  0  0
 27 51  1  0  0  0  0
 28 29  2  0  0  0  0
 28 52  1  0  0  0  0
 29 30  1  0  0  0  0
 29 53  1  0  0  0  0
 30 54  1  0  0  0  0
 31 32  1  0  0  0  0
 31 55  1  0  0  0  0
 32 33  1  0  0  0  0
 34 35  1  0  0  0  0
 36 56  1  0  0  0  0
M  END
$$$$
