CHEMBL560813
 OpenBabel04072215383D

 36 38  0  0  0  0  0  0  0  0999 V2000
    8.0371    5.2238   -3.2522 N   0  0  0  0  0  0  0  0  0  0  0  0
    8.1323    4.3246   -2.5312 C   0  0  0  0  0  0  0  0  0  0  0  0
    8.2906    3.1797   -1.6849 C   0  0  0  0  0  0  0  0  0  0  0  0
    9.0499    2.0967   -2.0869 C   0  0  0  0  0  0  0  0  0  0  0  0
    9.2179    1.0029   -1.3181 N   0  0  0  0  0  0  0  0  0  0  0  0
    8.6439    1.0217   -0.0824 C   0  0  0  0  0  0  0  0  0  0  0  0
    8.8189   -0.0507    0.7928 N   0  0  0  0  0  0  0  0  0  0  0  0
    9.5938   -1.1682    0.6246 C   0  0  0  0  0  0  0  0  0  0  0  0
    9.6422   -1.9877    1.5392 O   0  0  0  0  0  0  0  0  0  0  0  0
   10.2187   -1.2848   -0.5865 N   0  0  0  0  0  0  0  0  0  0  0  0
   10.9444   -2.3961   -1.0195 C   0  0  0  0  0  0  0  0  0  0  0  0
   10.7121   -2.8104   -2.3396 C   0  0  0  0  0  0  0  0  0  0  0  0
   11.3542   -3.9311   -2.8377 C   0  0  0  0  0  0  0  0  0  0  0  0
   12.1834   -4.6640   -1.9985 C   0  0  0  0  0  0  0  0  0  0  0  0
   12.7161   -5.8548   -2.4486 C   0  0  0  0  0  0  0  0  0  0  0  0
   12.5521   -6.8873   -1.5406 C   0  0  0  0  0  0  0  0  0  0  0  0
   11.4802   -7.8806   -1.8581 C   0  0  0  0  0  0  0  0  0  0  0  0
   10.7964   -8.4296   -1.0123 O   0  0  0  0  0  0  0  0  0  0  0  0
   11.2975   -8.0734   -3.1862 O   0  0  0  0  0  0  0  0  0  0  0  0
   12.8203   -6.6186   -0.1925 C   0  0  0  0  0  0  0  0  0  0  0  0
   12.8643   -5.2852    0.2347 C   0  0  0  0  0  0  0  0  0  0  0  0
   12.3499   -4.3154   -0.6389 C   0  0  0  0  0  0  0  0  0  0  0  0
   11.8038   -3.1113   -0.1856 C   0  0  0  0  0  0  0  0  0  0  0  0
    7.8686    2.1074    0.2956 C   0  0  0  0  0  0  0  0  0  0  0  0
    7.6721    3.2095   -0.4716 N   0  0  0  0  0  0  0  0  0  0  0  0
    9.5486    2.0752   -3.0548 H   0  0  0  0  0  0  0  0  0  0  0  0
    8.3611   -0.0300    1.6924 H   0  0  0  0  0  0  0  0  0  0  0  0
    9.8150   -0.6884   -1.3015 H   0  0  0  0  0  0  0  0  0  0  0  0
    9.9601   -2.3203   -2.9483 H   0  0  0  0  0  0  0  0  0  0  0  0
   11.1113   -4.2907   -3.8354 H   0  0  0  0  0  0  0  0  0  0  0  0
   13.7917   -5.7169   -2.6951 H   0  0  0  0  0  0  0  0  0  0  0  0
   11.8856   -7.5585   -3.7691 H   0  0  0  0  0  0  0  0  0  0  0  0
   12.7563   -7.4091    0.5529 H   0  0  0  0  0  0  0  0  0  0  0  0
   12.9966   -5.0660    1.2921 H   0  0  0  0  0  0  0  0  0  0  0  0
   11.9624   -2.7896    0.8426 H   0  0  0  0  0  0  0  0  0  0  0  0
    7.3786    2.1607    1.2775 H   0  0  0  0  0  0  0  0  0  0  0  0
  1  2  3  0  0  0  0
  2  3  1  0  0  0  0
  3  4  1  0  0  0  0
  3 25  2  0  0  0  0
  4  5  2  0  0  0  0
  4 26  1  0  0  0  0
  5  6  1  0  0  0  0
  6  7  1  0  0  0  0
  6 24  2  0  0  0  0
  7  8  1  0  0  0  0
  7 27  1  0  0  0  0
  8  9  2  0  0  0  0
  8 10  1  0  0  0  0
 10 11  1  0  0  0  0
 10 28  1  0  0  0  0
 11 12  1  0  0  0  0
 11 23  2  0  0  0  0
 12 13  2  0  0  0  0
 12 29  1  0  0  0  0
 13 14  1  0  0  0  0
 13 30  1  0  0  0  0
 14 15  1  0  0  0  0
 14 22  2  0  0  0  0
 15 16  2  0  0  0  0
 15 31  1  0  0  0  0
 16 17  1  0  0  0  0
 16 20  1  0  0  0  0
 17 18  2  0  0  0  0
 17 19  1  0  0  0  0
 19 32  1  0  0  0  0
 20 21  2  0  0  0  0
 20 33  1  0  0  0  0
 21 22  1  0  0  0  0
 21 34  1  0  0  0  0
 22 23  1  0  0  0  0
 23 35  1  0  0  0  0
 24 25  1  0  0  0  0
 24 36  1  0  0  0  0
M  END
$$$$
