CHEMBL231128
 OpenBabel04072215363D

 60 65  0  0  0  0  0  0  0  0999 V2000
    2.5069   -0.3980   -0.0664 C   0  0  0  0  0  0  0  0  0  0  0  0
    1.0369   -0.2721   -0.3415 C   0  0  0  0  0  0  0  0  0  0  0  0
    0.5291    0.9335   -0.8269 C   0  0  0  0  0  0  0  0  0  0  0  0
   -0.8242    1.0546   -1.1038 C   0  0  0  0  0  0  0  0  0  0  0  0
   -1.6879   -0.0195   -0.8744 C   0  0  0  0  0  0  0  0  0  0  0  0
   -1.2237   -1.2370   -0.3663 C   0  0  0  0  0  0  0  0  0  0  0  0
   -2.0790   -2.3482   -0.1029 N   0  0  0  0  0  0  0  0  0  0  0  0
   -3.4670   -2.3133   -0.1701 C   0  0  0  0  0  0  0  0  0  0  0  0
   -4.1136   -1.2919   -0.3714 O   0  0  0  0  0  0  0  0  0  0  0  0
   -4.0714   -3.5534    0.0122 N   0  0  0  0  0  0  0  0  0  0  0  0
   -5.4684   -3.7664   -0.1881 C   0  0  0  0  0  0  0  0  0  0  0  0
   -6.2421   -2.9339   -1.0018 C   0  0  0  0  0  0  0  0  0  0  0  0
   -7.6357   -3.0657   -1.0708 C   0  0  0  0  0  0  0  0  0  0  0  0
   -8.3005   -4.0826   -0.3777 C   0  0  0  0  0  0  0  0  0  0  0  0
   -9.7764   -4.1615   -0.3984 C   0  0  0  0  0  0  0  0  0  0  0  0
  -10.4446   -3.9167   -1.5793 C   0  0  0  0  0  0  0  0  0  0  0  0
  -12.1159   -4.1217   -1.4499 S   0  0  0  0  0  0  0  0  0  0  0  0
  -12.0826   -4.3018    0.2743 C   0  0  0  0  0  0  0  0  0  0  0  0
  -13.1913   -4.4067    1.1752 C   0  0  0  0  0  0  0  0  0  0  0  0
  -14.6489   -4.5727    0.8404 C   0  0  0  0  0  0  0  0  0  0  0  0
  -15.2073   -4.0471   -0.3311 C   0  0  0  0  0  0  0  0  0  0  0  0
  -16.4967   -4.1699   -0.7317 N   0  0  0  0  0  0  0  0  0  0  0  0
  -17.3444   -4.7372    0.1414 C   0  0  0  0  0  0  0  0  0  0  0  0
  -16.9799   -5.1754    1.4062 C   0  0  0  0  0  0  0  0  0  0  0  0
  -17.9689   -5.5426    2.3403 C   0  0  0  0  0  0  0  0  0  0  0  0
  -17.6198   -5.9754    3.6139 C   0  0  0  0  0  0  0  0  0  0  0  0
  -16.2847   -6.1855    3.9070 C   0  0  0  0  0  0  0  0  0  0  0  0
  -15.3056   -5.8643    2.9605 C   0  0  0  0  0  0  0  0  0  0  0  0
  -15.6020   -5.2075    1.7327 C   0  0  0  0  0  0  0  0  0  0  0  0
  -12.7735   -4.3028    2.4998 C   0  0  0  0  0  0  0  0  0  0  0  0
  -11.5246   -4.4420    2.9647 N   0  0  0  0  0  0  0  0  0  0  0  0
  -10.5118   -4.5465    2.0988 C   0  0  0  0  0  0  0  0  0  0  0  0
   -9.2909   -4.7937    2.7143 N   0  0  0  0  0  0  0  0  0  0  0  0
  -10.7290   -4.3416    0.7120 C   0  0  0  0  0  0  0  0  0  0  0  0
   -7.5081   -5.0033    0.3208 C   0  0  0  0  0  0  0  0  0  0  0  0
   -6.1110   -4.8334    0.4423 C   0  0  0  0  0  0  0  0  0  0  0  0
    0.1561   -1.3575   -0.1179 C   0  0  0  0  0  0  0  0  0  0  0  0
    3.0238    0.5557   -0.2286 H   0  0  0  0  0  0  0  0  0  0  0  0
    2.9559   -1.1358   -0.7379 H   0  0  0  0  0  0  0  0  0  0  0  0
    2.6806   -0.6906    0.9732 H   0  0  0  0  0  0  0  0  0  0  0  0
    1.1840    1.7786   -1.0067 H   0  0  0  0  0  0  0  0  0  0  0  0
   -1.2221    1.9941   -1.4793 H   0  0  0  0  0  0  0  0  0  0  0  0
   -2.7382    0.1551   -1.1251 H   0  0  0  0  0  0  0  0  0  0  0  0
   -1.6381   -3.2091    0.1818 H   0  0  0  0  0  0  0  0  0  0  0  0
   -3.5811   -4.2278    0.5811 H   0  0  0  0  0  0  0  0  0  0  0  0
   -5.7887   -2.1411   -1.5910 H   0  0  0  0  0  0  0  0  0  0  0  0
   -8.1801   -2.3354   -1.6655 H   0  0  0  0  0  0  0  0  0  0  0  0
  -10.0243   -3.6671   -2.5452 H   0  0  0  0  0  0  0  0  0  0  0  0
  -14.6350   -3.4412   -1.0234 H   0  0  0  0  0  0  0  0  0  0  0  0
  -18.3699   -4.8180   -0.2114 H   0  0  0  0  0  0  0  0  0  0  0  0
  -19.0244   -5.4385    2.0957 H   0  0  0  0  0  0  0  0  0  0  0  0
  -18.3846   -6.1726    4.3599 H   0  0  0  0  0  0  0  0  0  0  0  0
  -15.9912   -6.5851    4.8747 H   0  0  0  0  0  0  0  0  0  0  0  0
  -14.2839   -6.1251    3.2257 H   0  0  0  0  0  0  0  0  0  0  0  0
  -13.4891   -4.1334    3.3010 H   0  0  0  0  0  0  0  0  0  0  0  0
   -9.4535   -4.7980    3.7167 H   0  0  0  0  0  0  0  0  0  0  0  0
   -8.5826   -4.1324    2.4241 H   0  0  0  0  0  0  0  0  0  0  0  0
   -7.9724   -5.8530    0.8189 H   0  0  0  0  0  0  0  0  0  0  0  0
   -5.5592   -5.5285    1.0694 H   0  0  0  0  0  0  0  0  0  0  0  0
    0.5640   -2.2880    0.2677 H   0  0  0  0  0  0  0  0  0  0  0  0
  1  2  1  0  0  0  0
  1 38  1  0  0  0  0
  1 39  1  0  0  0  0
  1 40  1  0  0  0  0
  2  3  1  0  0  0  0
  2 37  2  0  0  0  0
  3  4  2  0  0  0  0
  3 41  1  0  0  0  0
  4  5  1  0  0  0  0
  4 42  1  0  0  0  0
  5  6  2  0  0  0  0
  5 43  1  0  0  0  0
  6  7  1  0  0  0  0
  6 37  1  0  0  0  0
  7  8  1  0  0  0  0
  7 44  1  0  0  0  0
  8  9  2  0  0  0  0
  8 10  1  0  0  0  0
 10 11  1  0  0  0  0
 10 45  1  0  0  0  0
 11 12  1  0  0  0  0
 11 36  2  0  0  0  0
 12 13  2  0  0  0  0
 12 46  1  0  0  0  0
 13 14  1  0  0  0  0
 13 47  1  0  0  0  0
 14 15  1  0  0  0  0
 14 35  2  0  0  0  0
 15 16  2  0  0  0  0
 15 34  1  0  0  0  0
 16 17  1  0  0  0  0
 16 48  1  0  0  0  0
 17 18  1  0  0  0  0
 18 19  1  0  0  0  0
 18 34  2  0  0  0  0
 19 20  1  0  0  0  0
 19 30  2  0  0  0  0
 20 21  1  0  0  0  0
 20 29  2  0  0  0  0
 21 22  2  0  0  0  0
 21 49  1  0  0  0  0
 22 23  1  0  0  0  0
 23 24  2  0  0  0  0
 23 50  1  0  0  0  0
 24 25  1  0  0  0  0
 24 29  1  0  0  0  0
 25 26  2  0  0  0  0
 25 51  1  0  0  0  0
 26 27  1  0  0  0  0
 26 52  1  0  0  0  0
 27 28  2  0  0  0  0
 27 53  1  0  0  0  0
 28 29  1  0  0  0  0
 28 54  1  0  0  0  0
 30 31  1  0  0  0  0
 30 55  1  0  0  0  0
 31 32  2  0  0  0  0
 32 33  1  0  0  0  0
 32 34  1  0  0  0  0
 33 56  1  0  0  0  0
 33 57  1  0  0  0  0
 35 36  1  0  0  0  0
 35 58  1  0  0  0  0
 36 59  1  0  0  0  0
 37 60  1  0  0  0  0
M  END
$$$$
