CHEMBL1082959
 OpenBabel04072215363D

 66 70  0  0  0  0  0  0  0  0999 V2000
    7.5324   -0.4953    3.1982 C   0  0  0  0  0  0  0  0  0  0  0  0
    8.4675   -0.8724    2.0511 C   0  0  0  0  0  0  0  0  0  0  0  0
    8.9020   -2.3352    2.1826 C   0  0  0  0  0  0  0  0  0  0  0  0
    7.8018   -0.6877    0.6850 C   0  0  0  0  0  0  0  0  0  0  0  0
    7.3610    0.6495    0.4181 O   0  0  0  0  0  0  0  0  0  0  0  0
    8.1918    1.3261   -0.4189 C   0  0  0  0  0  0  0  0  0  0  0  0
    9.3979    1.1386   -0.4673 O   0  0  0  0  0  0  0  0  0  0  0  0
    7.4372    2.1493   -1.2122 N   0  0  0  0  0  0  0  0  0  0  0  0
    7.8678    2.8403   -2.3571 C   0  0  0  0  0  0  0  0  0  0  0  0
    9.1302    2.6498   -2.9269 C   0  0  0  0  0  0  0  0  0  0  0  0
    9.5493    3.4239   -4.0087 C   0  0  0  0  0  0  0  0  0  0  0  0
    8.7061    4.4007   -4.5355 C   0  0  0  0  0  0  0  0  0  0  0  0
    9.1993    5.3194   -5.5581 C   0  0  0  0  0  0  0  0  0  0  0  0
    9.7765    6.6360   -5.1438 C   0  0  0  0  0  0  0  0  0  0  0  0
   10.2177    7.5732   -5.9232 N   0  0  0  0  0  0  0  0  0  0  0  0
   10.1462    7.3180   -7.2667 C   0  0  0  0  0  0  0  0  0  0  0  0
   10.4597    8.0814   -8.3775 C   0  0  0  0  0  0  0  0  0  0  0  0
   10.9719    9.4450   -8.3801 C   0  0  0  0  0  0  0  0  0  0  0  0
   11.7925    9.8769   -9.4285 C   0  0  0  0  0  0  0  0  0  0  0  0
   12.2242   11.1986   -9.4813 C   0  0  0  0  0  0  0  0  0  0  0  0
   11.8322   12.0983   -8.4888 C   0  0  0  0  0  0  0  0  0  0  0  0
   11.0187   11.7080   -7.4139 C   0  0  0  0  0  0  0  0  0  0  0  0
   10.6700   12.6279   -6.4401 N   0  0  0  0  0  0  0  0  0  0  0  0
   10.3691   12.2402   -5.0528 C   0  0  0  0  0  0  0  0  0  0  0  0
    8.8752   12.4049   -4.7427 C   0  0  0  0  0  0  0  0  0  0  0  0
    8.4167   13.7330   -5.0507 O   0  0  0  0  0  0  0  0  0  0  0  0
    8.6147   14.0095   -6.4469 C   0  0  0  0  0  0  0  0  0  0  0  0
   10.0988   13.9249   -6.8448 C   0  0  0  0  0  0  0  0  0  0  0  0
   10.6115   10.3660   -7.3784 C   0  0  0  0  0  0  0  0  0  0  0  0
   10.1408    7.2455   -9.4745 C   0  0  0  0  0  0  0  0  0  0  0  0
    9.6687    6.0569   -9.1167 N   0  0  0  0  0  0  0  0  0  0  0  0
    9.6750    6.0903   -7.7538 N   0  0  0  0  0  0  0  0  0  0  0  0
    9.2051    5.0671   -6.8826 C   0  0  0  0  0  0  0  0  0  0  0  0
    8.7569    3.8883   -7.4786 N   0  0  0  0  0  0  0  0  0  0  0  0
    7.4087    4.5384   -4.0257 C   0  0  0  0  0  0  0  0  0  0  0  0
    6.9881    3.7516   -2.9477 C   0  0  0  0  0  0  0  0  0  0  0  0
    8.0042   -0.6968    4.1660 H   0  0  0  0  0  0  0  0  0  0  0  0
    6.6001   -1.0689    3.1546 H   0  0  0  0  0  0  0  0  0  0  0  0
    7.2792    0.5699    3.1676 H   0  0  0  0  0  0  0  0  0  0  0  0
    9.3550   -0.2290    2.1179 H   0  0  0  0  0  0  0  0  0  0  0  0
    8.0418   -3.0080    2.0908 H   0  0  0  0  0  0  0  0  0  0  0  0
    9.3793   -2.5248    3.1493 H   0  0  0  0  0  0  0  0  0  0  0  0
    9.6166   -2.5980    1.3962 H   0  0  0  0  0  0  0  0  0  0  0  0
    6.9073   -1.3169    0.6183 H   0  0  0  0  0  0  0  0  0  0  0  0
    8.4729   -1.0389   -0.1109 H   0  0  0  0  0  0  0  0  0  0  0  0
    6.4700    2.2266   -0.9316 H   0  0  0  0  0  0  0  0  0  0  0  0
    9.8227    1.9036   -2.5500 H   0  0  0  0  0  0  0  0  0  0  0  0
   10.5472    3.2728   -4.4143 H   0  0  0  0  0  0  0  0  0  0  0  0
    9.8270    6.8034   -4.0575 H   0  0  0  0  0  0  0  0  0  0  0  0
   12.1123    9.1921  -10.2096 H   0  0  0  0  0  0  0  0  0  0  0  0
   12.8701   11.5309  -10.2893 H   0  0  0  0  0  0  0  0  0  0  0  0
   12.2055   13.1183   -8.5401 H   0  0  0  0  0  0  0  0  0  0  0  0
   10.9356   12.9169   -4.4011 H   0  0  0  0  0  0  0  0  0  0  0  0
   10.7050   11.2261   -4.8109 H   0  0  0  0  0  0  0  0  0  0  0  0
    8.6989   12.2379   -3.6758 H   0  0  0  0  0  0  0  0  0  0  0  0
    8.2673   11.6818   -5.2993 H   0  0  0  0  0  0  0  0  0  0  0  0
    8.2395   15.0200   -6.6388 H   0  0  0  0  0  0  0  0  0  0  0  0
    8.0064   13.3118   -7.0347 H   0  0  0  0  0  0  0  0  0  0  0  0
   10.6581   14.7128   -6.3277 H   0  0  0  0  0  0  0  0  0  0  0  0
   10.1832   14.1121   -7.9212 H   0  0  0  0  0  0  0  0  0  0  0  0
    9.9619   10.0322   -6.5752 H   0  0  0  0  0  0  0  0  0  0  0  0
   10.2300    7.4720  -10.5268 H   0  0  0  0  0  0  0  0  0  0  0  0
    8.5470    4.0270   -8.4711 H   0  0  0  0  0  0  0  0  0  0  0  0
    8.0350    3.3999   -6.9588 H   0  0  0  0  0  0  0  0  0  0  0  0
    6.7263    5.2773   -4.4431 H   0  0  0  0  0  0  0  0  0  0  0  0
    5.9827    3.8911   -2.5581 H   0  0  0  0  0  0  0  0  0  0  0  0
  1  2  1  0  0  0  0
  1 37  1  0  0  0  0
  1 38  1  0  0  0  0
  1 39  1  0  0  0  0
  2  3  1  0  0  0  0
  2  4  1  0  0  0  0
  2 40  1  0  0  0  0
  3 41  1  0  0  0  0
  3 42  1  0  0  0  0
  3 43  1  0  0  0  0
  4  5  1  0  0  0  0
  4 44  1  0  0  0  0
  4 45  1  0  0  0  0
  5  6  1  0  0  0  0
  6  7  2  0  0  0  0
  6  8  1  0  0  0  0
  8  9  1  0  0  0  0
  8 46  1  0  0  0  0
  9 10  1  0  0  0  0
  9 36  2  0  0  0  0
 10 11  2  0  0  0  0
 10 47  1  0  0  0  0
 11 12  1  0  0  0  0
 11 48  1  0  0  0  0
 12 13  1  0  0  0  0
 12 35  2  0  0  0  0
 13 14  1  0  0  0  0
 13 33  2  0  0  0  0
 14 15  2  0  0  0  0
 14 49  1  0  0  0  0
 15 16  1  0  0  0  0
 16 17  2  0  0  0  0
 16 32  1  0  0  0  0
 17 18  1  0  0  0  0
 17 30  1  0  0  0  0
 18 19  1  0  0  0  0
 18 29  2  0  0  0  0
 19 20  2  0  0  0  0
 19 50  1  0  0  0  0
 20 21  1  0  0  0  0
 20 51  1  0  0  0  0
 21 22  2  0  0  0  0
 21 52  1  0  0  0  0
 22 23  1  0  0  0  0
 22 29  1  0  0  0  0
 23 24  1  0  0  0  0
 23 28  1  0  0  0  0
 24 25  1  0  0  0  0
 24 53  1  0  0  0  0
 24 54  1  0  0  0  0
 25 26  1  0  0  0  0
 25 55  1  0  0  0  0
 25 56  1  0  0  0  0
 26 27  1  0  0  0  0
 27 28  1  0  0  0  0
 27 57  1  0  0  0  0
 27 58  1  0  0  0  0
 28 59  1  0  0  0  0
 28 60  1  0  0  0  0
 29 61  1  0  0  0  0
 30 31  2  0  0  0  0
 30 62  1  0  0  0  0
 31 32  1  0  0  0  0
 32 33  1  0  0  0  0
 33 34  1  0  0  0  0
 34 63  1  0  0  0  0
 34 64  1  0  0  0  0
 35 36  1  0  0  0  0
 35 65  1  0  0  0  0
 36 66  1  0  0  0  0
M  END
$$$$
