CHEMBL203965
 OpenBabel04072215363D

 54 57  0  0  0  0  0  0  0  0999 V2000
    4.4690    0.3636   -1.4764 C   0  0  0  0  0  0  0  0  0  0  0  0
    3.7267   -0.2325   -0.2501 C   0  0  0  0  0  0  0  0  0  0  0  0
    2.2470   -0.4390   -0.6310 C   0  0  0  0  0  0  0  0  0  0  0  0
    4.3627   -1.6150    0.0119 C   0  0  0  0  0  0  0  0  0  0  0  0
    3.7984    0.6919    0.9705 C   0  0  0  0  0  0  0  0  0  0  0  0
    3.8959    2.0864    0.7797 C   0  0  0  0  0  0  0  0  0  0  0  0
    3.9513    2.9772    1.8494 C   0  0  0  0  0  0  0  0  0  0  0  0
    3.8895    2.5148    3.1588 C   0  0  0  0  0  0  0  0  0  0  0  0
    3.9571    3.3868    4.2583 N   0  0  0  0  0  0  0  0  0  0  0  0
    3.9678    4.7822    4.2184 C   0  0  0  0  0  0  0  0  0  0  0  0
    3.7854    5.5005    3.2392 O   0  0  0  0  0  0  0  0  0  0  0  0
    4.2188    5.4433    5.5285 C   0  0  0  0  0  0  0  0  0  0  0  0
    3.5909    4.8912    6.6620 C   0  0  0  0  0  0  0  0  0  0  0  0
    3.9208    5.3402    7.9417 C   0  0  0  0  0  0  0  0  0  0  0  0
    4.8566    6.3475    8.0882 C   0  0  0  0  0  0  0  0  0  0  0  0
    5.4038    6.9726    6.9662 C   0  0  0  0  0  0  0  0  0  0  0  0
    5.0656    6.5648    5.6610 C   0  0  0  0  0  0  0  0  0  0  0  0
    5.5877    7.3874    4.4951 C   0  0  0  0  0  0  0  0  0  0  0  0
    6.8429    6.9030    3.9295 N   0  0  0  0  0  0  0  0  0  0  0  0
    8.0264    6.8269    4.6270 C   0  0  0  0  0  0  0  0  0  0  0  0
    8.9884    6.3206    3.7855 C   0  0  0  0  0  0  0  0  0  0  0  0
    8.3931    6.1347    2.5096 C   0  0  0  0  0  0  0  0  0  0  0  0
    8.8634    5.6535    1.2808 C   0  0  0  0  0  0  0  0  0  0  0  0
    8.0556    5.6145    0.1943 N   0  0  0  0  0  0  0  0  0  0  0  0
    6.7891    6.0648    0.3174 C   0  0  0  0  0  0  0  0  0  0  0  0
    6.2314    6.5689    1.4835 C   0  0  0  0  0  0  0  0  0  0  0  0
    7.0648    6.5641    2.6064 C   0  0  0  0  0  0  0  0  0  0  0  0
    3.7820    1.1466    3.3748 C   0  0  0  0  0  0  0  0  0  0  0  0
    3.7250    0.2411    2.2973 C   0  0  0  0  0  0  0  0  0  0  0  0
    4.4574   -0.3347   -2.3223 H   0  0  0  0  0  0  0  0  0  0  0  0
    5.5165    0.5806   -1.2320 H   0  0  0  0  0  0  0  0  0  0  0  0
    4.0015    1.2869   -1.8371 H   0  0  0  0  0  0  0  0  0  0  0  0
    2.1554   -1.1000   -1.4994 H   0  0  0  0  0  0  0  0  0  0  0  0
    1.7631    0.5118   -0.8851 H   0  0  0  0  0  0  0  0  0  0  0  0
    1.6804   -0.8895    0.1932 H   0  0  0  0  0  0  0  0  0  0  0  0
    4.2841   -2.2547   -0.8791 H   0  0  0  0  0  0  0  0  0  0  0  0
    3.8722   -2.1555    0.8268 H   0  0  0  0  0  0  0  0  0  0  0  0
    5.4226   -1.5222    0.2608 H   0  0  0  0  0  0  0  0  0  0  0  0
    3.9312    2.5320   -0.2067 H   0  0  0  0  0  0  0  0  0  0  0  0
    4.0706    4.0272    1.6130 H   0  0  0  0  0  0  0  0  0  0  0  0
    4.0444    2.9438    5.1621 H   0  0  0  0  0  0  0  0  0  0  0  0
    2.8406    4.1101    6.5570 H   0  0  0  0  0  0  0  0  0  0  0  0
    3.4348    4.8974    8.8074 H   0  0  0  0  0  0  0  0  0  0  0  0
    5.1414    6.6767    9.0850 H   0  0  0  0  0  0  0  0  0  0  0  0
    6.1042    7.7915    7.1188 H   0  0  0  0  0  0  0  0  0  0  0  0
    5.7876    8.4146    4.8321 H   0  0  0  0  0  0  0  0  0  0  0  0
    4.8400    7.5021    3.7077 H   0  0  0  0  0  0  0  0  0  0  0  0
    8.0863    7.1151    5.6675 H   0  0  0  0  0  0  0  0  0  0  0  0
   10.0157    6.1149    4.0547 H   0  0  0  0  0  0  0  0  0  0  0  0
    9.8745    5.2895    1.1418 H   0  0  0  0  0  0  0  0  0  0  0  0
    6.1931    5.9990   -0.5893 H   0  0  0  0  0  0  0  0  0  0  0  0
    5.2037    6.9082    1.5108 H   0  0  0  0  0  0  0  0  0  0  0  0
    3.7317    0.7445    4.3856 H   0  0  0  0  0  0  0  0  0  0  0  0
    3.6211   -0.8122    2.5199 H   0  0  0  0  0  0  0  0  0  0  0  0
  1  2  1  0  0  0  0
  1 30  1  0  0  0  0
  1 31  1  0  0  0  0
  1 32  1  0  0  0  0
  2  3  1  0  0  0  0
  2  4  1  0  0  0  0
  2  5  1  0  0  0  0
  3 33  1  0  0  0  0
  3 34  1  0  0  0  0
  3 35  1  0  0  0  0
  4 36  1  0  0  0  0
  4 37  1  0  0  0  0
  4 38  1  0  0  0  0
  5  6  1  0  0  0  0
  5 29  2  0  0  0  0
  6  7  2  0  0  0  0
  6 39  1  0  0  0  0
  7  8  1  0  0  0  0
  7 40  1  0  0  0  0
  8  9  1  0  0  0  0
  8 28  2  0  0  0  0
  9 10  1  0  0  0  0
  9 41  1  0  0  0  0
 10 11  2  0  0  0  0
 10 12  1  0  0  0  0
 12 13  1  0  0  0  0
 12 17  2  0  0  0  0
 13 14  2  0  0  0  0
 13 42  1  0  0  0  0
 14 15  1  0  0  0  0
 14 43  1  0  0  0  0
 15 16  2  0  0  0  0
 15 44  1  0  0  0  0
 16 17  1  0  0  0  0
 16 45  1  0  0  0  0
 17 18  1  0  0  0  0
 18 19  1  0  0  0  0
 18 46  1  0  0  0  0
 18 47  1  0  0  0  0
 19 20  1  0  0  0  0
 19 27  1  0  0  0  0
 20 21  2  0  0  0  0
 20 48  1  0  0  0  0
 21 22  1  0  0  0  0
 21 49  1  0  0  0  0
 22 23  1  0  0  0  0
 22 27  2  0  0  0  0
 23 24  2  0  0  0  0
 23 50  1  0  0  0  0
 24 25  1  0  0  0  0
 25 26  2  0  0  0  0
 25 51  1  0  0  0  0
 26 27  1  0  0  0  0
 26 52  1  0  0  0  0
 28 29  1  0  0  0  0
 28 53  1  0  0  0  0
 29 54  1  0  0  0  0
M  END
$$$$
