CHEMBL234443
 OpenBabel04072215363D

 43 45  0  0  0  0  0  0  0  0999 V2000
    0.9517    0.1518   -0.4129 C   0  0  0  0  0  0  0  0  0  0  0  0
    2.4467   -0.0294   -0.0678 C   0  0  0  0  0  0  0  0  0  0  0  0
    3.2194    1.0551   -0.8497 C   0  0  0  0  0  0  0  0  0  0  0  0
    2.5943    0.2392    1.3704 N   0  0  0  0  0  0  0  0  0  0  0  0
    2.9591   -1.4489   -0.3481 C   0  0  0  0  0  0  0  0  0  0  0  0
    4.2863   -1.7042   -0.7296 C   0  0  0  0  0  0  0  0  0  0  0  0
    4.7510   -3.0111   -0.9502 C   0  0  0  0  0  0  0  0  0  0  0  0
    3.9212   -4.1307   -0.7825 C   0  0  0  0  0  0  0  0  0  0  0  0
    4.4436   -5.5054   -0.9964 C   0  0  0  0  0  0  0  0  0  0  0  0
    5.7573   -5.6558   -0.6485 N   0  0  0  0  0  0  0  0  0  0  0  0
    6.3033   -6.8802   -0.7152 C   0  0  0  0  0  0  0  0  0  0  0  0
    7.6418   -7.0213   -0.3537 N   0  0  0  0  0  0  0  0  0  0  0  0
    8.2777   -8.1624    0.1633 C   0  0  0  0  0  0  0  0  0  0  0  0
    9.6527   -8.3441   -0.0316 C   0  0  0  0  0  0  0  0  0  0  0  0
   10.2888   -9.5157    0.3933 C   0  0  0  0  0  0  0  0  0  0  0  0
    9.5592  -10.5187    1.0319 C   0  0  0  0  0  0  0  0  0  0  0  0
    8.1958  -10.3404    1.2445 C   0  0  0  0  0  0  0  0  0  0  0  0
    7.1887  -11.6857    2.1132 Br  0  0  0  0  0  0  0  0  0  0  0  0
    7.5606   -9.1804    0.8083 C   0  0  0  0  0  0  0  0  0  0  0  0
    5.6291   -7.9594   -1.1359 N   0  0  0  0  0  0  0  0  0  0  0  0
    4.3561   -7.7836   -1.5199 C   0  0  0  0  0  0  0  0  0  0  0  0
    3.7025   -6.5742   -1.4874 C   0  0  0  0  0  0  0  0  0  0  0  0
    2.0962   -6.5143   -2.0987 Cl  0  0  0  0  0  0  0  0  0  0  0  0
    2.6144   -3.8730   -0.3434 C   0  0  0  0  0  0  0  0  0  0  0  0
    2.1404   -2.5683   -0.1447 C   0  0  0  0  0  0  0  0  0  0  0  0
    0.6305    1.1906   -0.2639 H   0  0  0  0  0  0  0  0  0  0  0  0
    0.2956   -0.4633    0.2134 H   0  0  0  0  0  0  0  0  0  0  0  0
    0.7536   -0.1086   -1.4592 H   0  0  0  0  0  0  0  0  0  0  0  0
    2.7883    2.0506   -0.6878 H   0  0  0  0  0  0  0  0  0  0  0  0
    3.1915    0.8555   -1.9277 H   0  0  0  0  0  0  0  0  0  0  0  0
    4.2706    1.1202   -0.5476 H   0  0  0  0  0  0  0  0  0  0  0  0
    2.3479    1.2062    1.5702 H   0  0  0  0  0  0  0  0  0  0  0  0
    3.5735    0.1301    1.6300 H   0  0  0  0  0  0  0  0  0  0  0  0
    5.0024   -0.8964   -0.8503 H   0  0  0  0  0  0  0  0  0  0  0  0
    5.7919   -3.1462   -1.2415 H   0  0  0  0  0  0  0  0  0  0  0  0
    8.0782   -6.1321   -0.1599 H   0  0  0  0  0  0  0  0  0  0  0  0
   10.2356   -7.5900   -0.5556 H   0  0  0  0  0  0  0  0  0  0  0  0
   11.3499   -9.6585    0.2082 H   0  0  0  0  0  0  0  0  0  0  0  0
   10.0534  -11.4321    1.3509 H   0  0  0  0  0  0  0  0  0  0  0  0
    6.4950   -9.0635    0.9886 H   0  0  0  0  0  0  0  0  0  0  0  0
    3.8649   -8.6871   -1.8708 H   0  0  0  0  0  0  0  0  0  0  0  0
    1.9287   -4.6845   -0.1126 H   0  0  0  0  0  0  0  0  0  0  0  0
    1.1176   -2.4541    0.2051 H   0  0  0  0  0  0  0  0  0  0  0  0
  1  2  1  0  0  0  0
  1 26  1  0  0  0  0
  1 27  1  0  0  0  0
  1 28  1  0  0  0  0
  2  3  1  0  0  0  0
  2  4  1  0  0  0  0
  2  5  1  0  0  0  0
  3 29  1  0  0  0  0
  3 30  1  0  0  0  0
  3 31  1  0  0  0  0
  4 32  1  0  0  0  0
  4 33  1  0  0  0  0
  5  6  1  0  0  0  0
  5 25  2  0  0  0  0
  6  7  2  0  0  0  0
  6 34  1  0  0  0  0
  7  8  1  0  0  0  0
  7 35  1  0  0  0  0
  8  9  1  0  0  0  0
  8 24  2  0  0  0  0
  9 10  1  0  0  0  0
  9 22  2  0  0  0  0
 10 11  2  0  0  0  0
 11 12  1  0  0  0  0
 11 20  1  0  0  0  0
 12 13  1  0  0  0  0
 12 36  1  0  0  0  0
 13 14  1  0  0  0  0
 13 19  2  0  0  0  0
 14 15  2  0  0  0  0
 14 37  1  0  0  0  0
 15 16  1  0  0  0  0
 15 38  1  0  0  0  0
 16 17  2  0  0  0  0
 16 39  1  0  0  0  0
 17 18  1  0  0  0  0
 17 19  1  0  0  0  0
 19 40  1  0  0  0  0
 20 21  2  0  0  0  0
 21 22  1  0  0  0  0
 21 41  1  0  0  0  0
 22 23  1  0  0  0  0
 24 25  1  0  0  0  0
 24 42  1  0  0  0  0
 25 43  1  0  0  0  0
M  END
$$$$
