CHEMBL74587
 OpenBabel04072215383D

 40 43  0  0  0  0  0  0  0  0999 V2000
    0.6836    0.3118    2.4769 C   0  0  0  0  0  0  0  0  0  0  0  0
   -0.1488   -0.7996    2.4767 C   0  0  0  0  0  0  0  0  0  0  0  0
   -1.2966   -0.8164    1.6774 C   0  0  0  0  0  0  0  0  0  0  0  0
   -1.6203    0.2501    0.8277 C   0  0  0  0  0  0  0  0  0  0  0  0
   -2.8289    0.3151    0.0883 N   0  0  0  0  0  0  0  0  0  0  0  0
   -3.7879   -0.7102   -0.1452 C   0  0  0  0  0  0  0  0  0  0  0  0
   -3.4254   -2.0015   -0.0056 N   0  0  0  0  0  0  0  0  0  0  0  0
   -4.3260   -3.0198   -0.1312 N   0  0  0  0  0  0  0  0  0  0  0  0
   -5.6121   -2.7549   -0.4296 C   0  0  0  0  0  0  0  0  0  0  0  0
   -6.5241   -3.9620   -0.4104 C   0  0  0  0  0  0  0  0  0  0  0  0
   -6.6867   -4.6904   -1.7244 C   0  0  0  0  0  0  0  0  0  0  0  0
   -5.5840   -5.2745   -2.3565 C   0  0  0  0  0  0  0  0  0  0  0  0
   -5.7855   -6.0034   -3.5185 C   0  0  0  0  0  0  0  0  0  0  0  0
   -6.9960   -6.1989   -4.0825 N   0  0  0  0  0  0  0  0  0  0  0  0
   -8.0498   -5.6330   -3.4589 C   0  0  0  0  0  0  0  0  0  0  0  0
   -7.9487   -4.8768   -2.2990 C   0  0  0  0  0  0  0  0  0  0  0  0
   -6.0539   -1.4402   -0.6631 C   0  0  0  0  0  0  0  0  0  0  0  0
   -7.3851   -1.1311   -1.0269 C   0  0  0  0  0  0  0  0  0  0  0  0
   -7.8110    0.1844   -1.2051 C   0  0  0  0  0  0  0  0  0  0  0  0
   -6.9197    1.2247   -0.9994 C   0  0  0  0  0  0  0  0  0  0  0  0
   -5.5960    0.9488   -0.6438 C   0  0  0  0  0  0  0  0  0  0  0  0
   -5.1213   -0.3816   -0.4939 C   0  0  0  0  0  0  0  0  0  0  0  0
   -0.7776    1.3746    0.8626 C   0  0  0  0  0  0  0  0  0  0  0  0
    0.3656    1.4039    1.6752 C   0  0  0  0  0  0  0  0  0  0  0  0
    1.5647    0.3302    3.1128 H   0  0  0  0  0  0  0  0  0  0  0  0
    0.0762   -1.6558    3.1072 H   0  0  0  0  0  0  0  0  0  0  0  0
   -1.9284   -1.6961    1.7421 H   0  0  0  0  0  0  0  0  0  0  0  0
   -2.7360    0.8975   -0.7372 H   0  0  0  0  0  0  0  0  0  0  0  0
   -7.5014   -3.6896    0.0061 H   0  0  0  0  0  0  0  0  0  0  0  0
   -6.1216   -4.6842    0.3144 H   0  0  0  0  0  0  0  0  0  0  0  0
   -4.5824   -5.1804   -1.9467 H   0  0  0  0  0  0  0  0  0  0  0  0
   -4.9519   -6.4706   -4.0350 H   0  0  0  0  0  0  0  0  0  0  0  0
   -9.0132   -5.8179   -3.9261 H   0  0  0  0  0  0  0  0  0  0  0  0
   -8.8470   -4.4644   -1.8524 H   0  0  0  0  0  0  0  0  0  0  0  0
   -8.1187   -1.9166   -1.1831 H   0  0  0  0  0  0  0  0  0  0  0  0
   -8.8398    0.3866   -1.4908 H   0  0  0  0  0  0  0  0  0  0  0  0
   -7.2552    2.2536   -1.1122 H   0  0  0  0  0  0  0  0  0  0  0  0
   -4.9343    1.7946   -0.4637 H   0  0  0  0  0  0  0  0  0  0  0  0
   -1.0120    2.2577    0.2739 H   0  0  0  0  0  0  0  0  0  0  0  0
    0.9993    2.2868    1.6953 H   0  0  0  0  0  0  0  0  0  0  0  0
  1  2  1  0  0  0  0
  1 24  2  0  0  0  0
  1 25  1  0  0  0  0
  2  3  2  0  0  0  0
  2 26  1  0  0  0  0
  3  4  1  0  0  0  0
  3 27  1  0  0  0  0
  4  5  1  0  0  0  0
  4 23  2  0  0  0  0
  5  6  1  0  0  0  0
  5 28  1  0  0  0  0
  6  7  1  0  0  0  0
  6 22  2  0  0  0  0
  7  8  2  0  0  0  0
  8  9  1  0  0  0  0
  9 10  1  0  0  0  0
  9 17  2  0  0  0  0
 10 11  1  0  0  0  0
 10 29  1  0  0  0  0
 10 30  1  0  0  0  0
 11 12  1  0  0  0  0
 11 16  2  0  0  0  0
 12 13  2  0  0  0  0
 12 31  1  0  0  0  0
 13 14  1  0  0  0  0
 13 32  1  0  0  0  0
 14 15  2  0  0  0  0
 15 16  1  0  0  0  0
 15 33  1  0  0  0  0
 16 34  1  0  0  0  0
 17 18  1  0  0  0  0
 17 22  1  0  0  0  0
 18 19  2  0  0  0  0
 18 35  1  0  0  0  0
 19 20  1  0  0  0  0
 19 36  1  0  0  0  0
 20 21  2  0  0  0  0
 20 37  1  0  0  0  0
 21 22  1  0  0  0  0
 21 38  1  0  0  0  0
 23 24  1  0  0  0  0
 23 39  1  0  0  0  0
 24 40  1  0  0  0  0
M  END
$$$$
