CHEMBL1271480
 OpenBabel04072215363D

 54 58  0  0  0  0  0  0  0  0999 V2000
   -1.3281   -4.2927    2.5920 O   0  0  0  0  0  0  0  0  0  0  0  0
   -1.7046   -3.3592    1.8959 C   0  0  0  0  0  0  0  0  0  0  0  0
   -0.7788   -2.6538    0.9806 C   0  0  0  0  0  0  0  0  0  0  0  0
   -1.2250   -1.6298    0.2370 C   0  0  0  0  0  0  0  0  0  0  0  0
   -2.6158   -1.1716    0.2985 C   0  0  0  0  0  0  0  0  0  0  0  0
   -3.0527   -0.0642   -0.5030 C   0  0  0  0  0  0  0  0  0  0  0  0
   -2.2865    1.0300   -0.9617 C   0  0  0  0  0  0  0  0  0  0  0  0
   -2.9863    1.8945   -1.6957 N   0  0  0  0  0  0  0  0  0  0  0  0
   -4.2355    1.3737   -1.7245 N   0  0  0  0  0  0  0  0  0  0  0  0
   -5.3427    1.8932   -2.3835 C   0  0  0  0  0  0  0  0  0  0  0  0
   -6.5243    1.2607   -2.3285 C   0  0  0  0  0  0  0  0  0  0  0  0
   -7.7100    1.7469   -3.0248 C   0  0  0  0  0  0  0  0  0  0  0  0
   -7.9412    1.3686   -4.3501 C   0  0  0  0  0  0  0  0  0  0  0  0
   -9.0753    1.8267   -5.0241 C   0  0  0  0  0  0  0  0  0  0  0  0
  -10.0051    2.6425   -4.3719 C   0  0  0  0  0  0  0  0  0  0  0  0
  -11.1890    3.0747   -4.9190 O   0  0  0  0  0  0  0  0  0  0  0  0
  -11.6747    2.2450   -5.9827 C   0  0  0  0  0  0  0  0  0  0  0  0
  -13.2011    2.3653   -6.1200 C   0  0  0  0  0  0  0  0  0  0  0  0
  -13.7594    1.5233   -7.1993 N   0  0  0  0  0  0  0  0  0  0  0  0
  -15.2288    1.6834   -7.3061 C   0  0  0  0  0  0  0  0  0  0  0  0
  -16.0159    0.9752   -6.1875 C   0  0  0  0  0  0  0  0  0  0  0  0
  -15.6932   -0.4196   -6.1188 O   0  0  0  0  0  0  0  0  0  0  0  0
  -14.2857   -0.6135   -5.9410 C   0  0  0  0  0  0  0  0  0  0  0  0
  -13.4833    0.0752   -7.0560 C   0  0  0  0  0  0  0  0  0  0  0  0
   -9.7515    3.0563   -3.0641 C   0  0  0  0  0  0  0  0  0  0  0  0
   -8.6108    2.6082   -2.3894 C   0  0  0  0  0  0  0  0  0  0  0  0
   -6.5258    0.0026   -1.5206 C   0  0  0  0  0  0  0  0  0  0  0  0
   -5.5088   -0.5111   -0.8930 N   0  0  0  0  0  0  0  0  0  0  0  0
   -4.3256    0.1795   -0.9934 C   0  0  0  0  0  0  0  0  0  0  0  0
   -3.4370   -1.8408    1.1311 C   0  0  0  0  0  0  0  0  0  0  0  0
   -2.9931   -2.8913    1.8991 N   0  0  0  0  0  0  0  0  0  0  0  0
    0.2419   -3.0096    0.9463 H   0  0  0  0  0  0  0  0  0  0  0  0
   -0.5399   -1.1362   -0.4447 H   0  0  0  0  0  0  0  0  0  0  0  0
   -1.2383    1.2386   -0.7882 H   0  0  0  0  0  0  0  0  0  0  0  0
   -5.1745    2.8110   -2.9315 H   0  0  0  0  0  0  0  0  0  0  0  0
   -7.2455    0.7138   -4.8715 H   0  0  0  0  0  0  0  0  0  0  0  0
   -9.2106    1.5238   -6.0582 H   0  0  0  0  0  0  0  0  0  0  0  0
  -11.4395    1.2020   -5.7533 H   0  0  0  0  0  0  0  0  0  0  0  0
  -11.1899    2.5437   -6.9195 H   0  0  0  0  0  0  0  0  0  0  0  0
  -13.4321    3.4177   -6.3346 H   0  0  0  0  0  0  0  0  0  0  0  0
  -13.6624    2.1551   -5.1476 H   0  0  0  0  0  0  0  0  0  0  0  0
  -15.5319    1.2453   -8.2666 H   0  0  0  0  0  0  0  0  0  0  0  0
  -15.5021    2.7433   -7.3550 H   0  0  0  0  0  0  0  0  0  0  0  0
  -17.0888    1.0504   -6.3907 H   0  0  0  0  0  0  0  0  0  0  0  0
  -15.8351    1.4340   -5.2093 H   0  0  0  0  0  0  0  0  0  0  0  0
  -14.0989   -1.6921   -5.9736 H   0  0  0  0  0  0  0  0  0  0  0  0
  -13.9910   -0.2584   -4.9469 H   0  0  0  0  0  0  0  0  0  0  0  0
  -13.7493   -0.3968   -8.0108 H   0  0  0  0  0  0  0  0  0  0  0  0
  -12.4158   -0.1289   -6.9348 H   0  0  0  0  0  0  0  0  0  0  0  0
  -10.4539    3.7149   -2.5592 H   0  0  0  0  0  0  0  0  0  0  0  0
   -8.4387    2.9328   -1.3654 H   0  0  0  0  0  0  0  0  0  0  0  0
   -7.4940   -0.5249   -1.4677 H   0  0  0  0  0  0  0  0  0  0  0  0
   -4.4849   -1.5857    1.2546 H   0  0  0  0  0  0  0  0  0  0  0  0
   -3.6355   -3.3712    2.5181 H   0  0  0  0  0  0  0  0  0  0  0  0
  1  2  2  0  0  0  0
  2  3  1  0  0  0  0
  2 31  1  0  0  0  0
  3  4  2  0  0  0  0
  3 32  1  0  0  0  0
  4  5  1  0  0  0  0
  4 33  1  0  0  0  0
  5  6  1  0  0  0  0
  5 30  2  0  0  0  0
  6  7  1  0  0  0  0
  6 29  2  0  0  0  0
  7  8  2  0  0  0  0
  7 34  1  0  0  0  0
  8  9  1  0  0  0  0
  9 10  1  0  0  0  0
  9 29  1  0  0  0  0
 10 11  2  0  0  0  0
 10 35  1  0  0  0  0
 11 12  1  0  0  0  0
 11 27  1  0  0  0  0
 12 13  1  0  0  0  0
 12 26  2  0  0  0  0
 13 14  2  0  0  0  0
 13 36  1  0  0  0  0
 14 15  1  0  0  0  0
 14 37  1  0  0  0  0
 15 16  1  0  0  0  0
 15 25  2  0  0  0  0
 16 17  1  0  0  0  0
 17 18  1  0  0  0  0
 17 38  1  0  0  0  0
 17 39  1  0  0  0  0
 18 19  1  0  0  0  0
 18 40  1  0  0  0  0
 18 41  1  0  0  0  0
 19 20  1  0  0  0  0
 19 24  1  0  0  0  0
 20 21  1  0  0  0  0
 20 42  1  0  0  0  0
 20 43  1  0  0  0  0
 21 22  1  0  0  0  0
 21 44  1  0  0  0  0
 21 45  1  0  0  0  0
 22 23  1  0  0  0  0
 23 24  1  0  0  0  0
 23 46  1  0  0  0  0
 23 47  1  0  0  0  0
 24 48  1  0  0  0  0
 24 49  1  0  0  0  0
 25 26  1  0  0  0  0
 25 50  1  0  0  0  0
 26 51  1  0  0  0  0
 27 28  2  0  0  0  0
 27 52  1  0  0  0  0
 28 29  1  0  0  0  0
 30 31  1  0  0  0  0
 30 53  1  0  0  0  0
 31 54  1  0  0  0  0
M  END
$$$$
