CHEMBL205050
 OpenBabel04072215363D

 47 50  0  0  0  0  0  0  0  0999 V2000
   10.4540    3.8993   -0.3617 C   0  0  0  0  0  0  0  0  0  0  0  0
    9.9565    2.8471    0.4583 O   0  0  0  0  0  0  0  0  0  0  0  0
    9.7109    1.6487   -0.1565 C   0  0  0  0  0  0  0  0  0  0  0  0
    9.8587    1.3874   -1.5149 C   0  0  0  0  0  0  0  0  0  0  0  0
    9.5866    0.1126   -2.0065 C   0  0  0  0  0  0  0  0  0  0  0  0
    9.1597   -0.9031   -1.1465 C   0  0  0  0  0  0  0  0  0  0  0  0
    8.9768   -0.6680    0.2202 C   0  0  0  0  0  0  0  0  0  0  0  0
    8.5818   -1.6528    1.1470 N   0  0  0  0  0  0  0  0  0  0  0  0
    8.3616   -2.9701    0.9658 C   0  0  0  0  0  0  0  0  0  0  0  0
    7.6386   -3.7847    1.7049 N   0  0  0  0  0  0  0  0  0  0  0  0
    7.7312   -5.0379    1.1304 N   0  0  0  0  0  0  0  0  0  0  0  0
    8.5419   -4.9221    0.0996 C   0  0  0  0  0  0  0  0  0  0  0  0
    9.0308   -5.8998   -0.8726 C   0  0  0  0  0  0  0  0  0  0  0  0
    9.9851   -5.4944   -1.8301 C   0  0  0  0  0  0  0  0  0  0  0  0
   10.4673   -6.3767   -2.7915 C   0  0  0  0  0  0  0  0  0  0  0  0
    9.9787   -7.6611   -2.7850 C   0  0  0  0  0  0  0  0  0  0  0  0
    9.0728   -8.0978   -1.8901 N   0  0  0  0  0  0  0  0  0  0  0  0
    8.6146   -7.2416   -0.9271 C   0  0  0  0  0  0  0  0  0  0  0  0
    7.5839   -7.8531    0.0088 C   0  0  0  0  0  0  0  0  0  0  0  0
    7.7830   -9.3720    0.1938 C   0  0  0  0  0  0  0  0  0  0  0  0
    6.7580  -10.1149    1.0207 C   0  0  0  0  0  0  0  0  0  0  0  0
    6.5744  -11.4839    0.7801 C   0  0  0  0  0  0  0  0  0  0  0  0
    5.6657  -12.1938    1.5500 C   0  0  0  0  0  0  0  0  0  0  0  0
    4.9405  -11.6450    2.5443 N   0  0  0  0  0  0  0  0  0  0  0  0
    5.1429  -10.3305    2.7781 C   0  0  0  0  0  0  0  0  0  0  0  0
    6.0298   -9.5357    2.0609 C   0  0  0  0  0  0  0  0  0  0  0  0
    8.9832   -3.6298   -0.0571 O   0  0  0  0  0  0  0  0  0  0  0  0
    9.2769    0.6235    0.6971 C   0  0  0  0  0  0  0  0  0  0  0  0
   10.6786    4.7527    0.2853 H   0  0  0  0  0  0  0  0  0  0  0  0
    9.6992    4.2189   -1.0880 H   0  0  0  0  0  0  0  0  0  0  0  0
   11.3853    3.6111   -0.8612 H   0  0  0  0  0  0  0  0  0  0  0  0
   10.1834    2.1478   -2.2164 H   0  0  0  0  0  0  0  0  0  0  0  0
    9.7045   -0.0953   -3.0673 H   0  0  0  0  0  0  0  0  0  0  0  0
    8.9462   -1.8714   -1.5864 H   0  0  0  0  0  0  0  0  0  0  0  0
    8.1766   -1.2673    1.9930 H   0  0  0  0  0  0  0  0  0  0  0  0
   10.3688   -4.4755   -1.8368 H   0  0  0  0  0  0  0  0  0  0  0  0
   11.2015   -6.0640   -3.5257 H   0  0  0  0  0  0  0  0  0  0  0  0
   10.3069   -8.3970   -3.5130 H   0  0  0  0  0  0  0  0  0  0  0  0
    6.5858   -7.6491   -0.3978 H   0  0  0  0  0  0  0  0  0  0  0  0
    7.6516   -7.3929    0.9964 H   0  0  0  0  0  0  0  0  0  0  0  0
    8.7681   -9.5499    0.6455 H   0  0  0  0  0  0  0  0  0  0  0  0
    7.7961   -9.8492   -0.7947 H   0  0  0  0  0  0  0  0  0  0  0  0
    7.1324  -11.9962    0.0020 H   0  0  0  0  0  0  0  0  0  0  0  0
    5.4990  -13.2537    1.3812 H   0  0  0  0  0  0  0  0  0  0  0  0
    4.5557   -9.9145    3.5920 H   0  0  0  0  0  0  0  0  0  0  0  0
    6.1379   -8.4917    2.3316 H   0  0  0  0  0  0  0  0  0  0  0  0
    9.1734    0.8495    1.7554 H   0  0  0  0  0  0  0  0  0  0  0  0
  1  2  1  0  0  0  0
  1 29  1  0  0  0  0
  1 30  1  0  0  0  0
  1 31  1  0  0  0  0
  2  3  1  0  0  0  0
  3  4  1  0  0  0  0
  3 28  2  0  0  0  0
  4  5  2  0  0  0  0
  4 32  1  0  0  0  0
  5  6  1  0  0  0  0
  5 33  1  0  0  0  0
  6  7  2  0  0  0  0
  6 34  1  0  0  0  0
  7  8  1  0  0  0  0
  7 28  1  0  0  0  0
  8  9  1  0  0  0  0
  8 35  1  0  0  0  0
  9 10  2  0  0  0  0
  9 27  1  0  0  0  0
 10 11  1  0  0  0  0
 11 12  2  0  0  0  0
 12 13  1  0  0  0  0
 12 27  1  0  0  0  0
 13 14  1  0  0  0  0
 13 18  2  0  0  0  0
 14 15  2  0  0  0  0
 14 36  1  0  0  0  0
 15 16  1  0  0  0  0
 15 37  1  0  0  0  0
 16 17  2  0  0  0  0
 16 38  1  0  0  0  0
 17 18  1  0  0  0  0
 18 19  1  0  0  0  0
 19 20  1  0  0  0  0
 19 39  1  0  0  0  0
 19 40  1  0  0  0  0
 20 21  1  0  0  0  0
 20 41  1  0  0  0  0
 20 42  1  0  0  0  0
 21 22  1  0  0  0  0
 21 26  2  0  0  0  0
 22 23  2  0  0  0  0
 22 43  1  0  0  0  0
 23 24  1  0  0  0  0
 23 44  1  0  0  0  0
 24 25  2  0  0  0  0
 25 26  1  0  0  0  0
 25 45  1  0  0  0  0
 26 46  1  0  0  0  0
 28 47  1  0  0  0  0
M  END
$$$$
