CHEMBL407265
 OpenBabel04072215383D

 31 33  0  0  0  0  0  0  0  0999 V2000
    0.9747   -0.0512   -0.2165 N   0  0  0  0  0  0  0  0  0  0  0  0
    2.3675   -0.0106   -0.0301 C   0  0  0  0  0  0  0  0  0  0  0  0
    3.0235   -1.1625   -0.2319 N   0  0  0  0  0  0  0  0  0  0  0  0
    4.3539   -1.0957   -0.1067 C   0  0  0  0  0  0  0  0  0  0  0  0
    5.0775   -0.0038    0.1841 N   0  0  0  0  0  0  0  0  0  0  0  0
    4.3908    1.1395    0.3672 C   0  0  0  0  0  0  0  0  0  0  0  0
    2.9957    1.2031    0.2704 C   0  0  0  0  0  0  0  0  0  0  0  0
    2.1988    2.3490    0.5336 N   0  0  0  0  0  0  0  0  0  0  0  0
    2.5550    3.5009    0.0484 C   0  0  0  0  0  0  0  0  0  0  0  0
    1.6954    4.6876    0.3304 C   0  0  0  0  0  0  0  0  0  0  0  0
    2.2333    5.9762    0.4114 C   0  0  0  0  0  0  0  0  0  0  0  0
    1.3975    7.0669    0.6651 C   0  0  0  0  0  0  0  0  0  0  0  0
    0.0300    6.8690    0.8482 C   0  0  0  0  0  0  0  0  0  0  0  0
   -0.9921    8.2182    1.1561 Cl  0  0  0  0  0  0  0  0  0  0  0  0
   -0.5123    5.5874    0.7852 C   0  0  0  0  0  0  0  0  0  0  0  0
    0.3208    4.4954    0.5296 C   0  0  0  0  0  0  0  0  0  0  0  0
    3.7854    3.6774   -0.8167 C   0  0  0  0  0  0  0  0  0  0  0  0
    5.0391    3.5062    0.0245 C   0  0  0  0  0  0  0  0  0  0  0  0
    5.1930    2.2252    0.7045 N   0  0  0  0  0  0  0  0  0  0  0  0
    0.6770   -1.0189   -0.2518 H   0  0  0  0  0  0  0  0  0  0  0  0
    0.5220    0.5129    0.4968 H   0  0  0  0  0  0  0  0  0  0  0  0
    4.9045   -2.0175   -0.2580 H   0  0  0  0  0  0  0  0  0  0  0  0
    3.2982    6.1551    0.2992 H   0  0  0  0  0  0  0  0  0  0  0  0
    1.8204    8.0675    0.7228 H   0  0  0  0  0  0  0  0  0  0  0  0
   -1.5774    5.4300    0.9329 H   0  0  0  0  0  0  0  0  0  0  0  0
   -0.1087    3.4960    0.4785 H   0  0  0  0  0  0  0  0  0  0  0  0
    3.7923    4.6616   -1.2958 H   0  0  0  0  0  0  0  0  0  0  0  0
    3.7522    2.9539   -1.6403 H   0  0  0  0  0  0  0  0  0  0  0  0
    5.0822    4.2905    0.7895 H   0  0  0  0  0  0  0  0  0  0  0  0
    5.9114    3.6580   -0.6225 H   0  0  0  0  0  0  0  0  0  0  0  0
    6.1512    1.8804    0.6932 H   0  0  0  0  0  0  0  0  0  0  0  0
  1  2  1  0  0  0  0
  1 20  1  0  0  0  0
  1 21  1  0  0  0  0
  2  3  1  0  0  0  0
  2  7  2  0  0  0  0
  3  4  2  0  0  0  0
  4  5  1  0  0  0  0
  4 22  1  0  0  0  0
  5  6  2  0  0  0  0
  6  7  1  0  0  0  0
  6 19  1  0  0  0  0
  7  8  1  0  0  0  0
  8  9  2  0  0  0  0
  9 10  1  0  0  0  0
  9 17  1  0  0  0  0
 10 11  1  0  0  0  0
 10 16  2  0  0  0  0
 11 12  2  0  0  0  0
 11 23  1  0  0  0  0
 12 13  1  0  0  0  0
 12 24  1  0  0  0  0
 13 14  1  0  0  0  0
 13 15  2  0  0  0  0
 15 16  1  0  0  0  0
 15 25  1  0  0  0  0
 16 26  1  0  0  0  0
 17 18  1  0  0  0  0
 17 27  1  0  0  0  0
 17 28  1  0  0  0  0
 18 19  1  0  0  0  0
 18 29  1  0  0  0  0
 18 30  1  0  0  0  0
 19 31  1  0  0  0  0
M  END
$$$$
