CHEMBL3904099
 OpenBabel04072215373D

 46 49  0  0  0  0  0  0  0  0999 V2000
    2.4856   -0.3147   -0.5745 C   0  0  0  0  0  0  0  0  0  0  0  0
    0.9986   -0.2161   -0.7470 C   0  0  0  0  0  0  0  0  0  0  0  0
    0.4374    0.9829   -1.1944 C   0  0  0  0  0  0  0  0  0  0  0  0
   -0.9340    1.0902   -1.3510 C   0  0  0  0  0  0  0  0  0  0  0  0
   -1.7537    0.0013   -1.0592 C   0  0  0  0  0  0  0  0  0  0  0  0
   -1.2281   -1.2185   -0.6119 C   0  0  0  0  0  0  0  0  0  0  0  0
   -2.0365   -2.3494   -0.2935 N   0  0  0  0  0  0  0  0  0  0  0  0
   -3.4102   -2.3952   -0.4326 C   0  0  0  0  0  0  0  0  0  0  0  0
   -4.0789   -1.4748   -0.8935 O   0  0  0  0  0  0  0  0  0  0  0  0
   -3.9903   -3.5736    0.0238 N   0  0  0  0  0  0  0  0  0  0  0  0
   -5.3771   -3.7825   -0.0542 C   0  0  0  0  0  0  0  0  0  0  0  0
   -6.2355   -3.0978   -0.8931 C   0  0  0  0  0  0  0  0  0  0  0  0
   -7.8663   -3.5083   -0.6838 S   0  0  0  0  0  0  0  0  0  0  0  0
   -7.4886   -4.6259    0.5658 C   0  0  0  0  0  0  0  0  0  0  0  0
   -8.5789   -5.2641    1.2668 C   0  0  0  0  0  0  0  0  0  0  0  0
   -9.7808   -4.6506    1.5923 C   0  0  0  0  0  0  0  0  0  0  0  0
  -10.6128   -5.5808    2.2442 C   0  0  0  0  0  0  0  0  0  0  0  0
  -11.9368   -5.5238    2.7204 C   0  0  0  0  0  0  0  0  0  0  0  0
  -12.5134   -6.6651    3.2810 C   0  0  0  0  0  0  0  0  0  0  0  0
  -11.7817   -7.8427    3.3859 C   0  0  0  0  0  0  0  0  0  0  0  0
  -10.4555   -7.9086    2.9461 C   0  0  0  0  0  0  0  0  0  0  0  0
   -9.8796   -6.7576    2.3751 C   0  0  0  0  0  0  0  0  0  0  0  0
   -8.6170   -6.5544    1.7984 N   0  0  0  0  0  0  0  0  0  0  0  0
   -7.6176   -7.5523    1.7657 C   0  0  0  0  0  0  0  0  0  0  0  0
   -6.9978   -7.6622    0.5555 N   0  0  0  0  0  0  0  0  0  0  0  0
   -7.4201   -8.2895    2.7188 O   0  0  0  0  0  0  0  0  0  0  0  0
   -6.1153   -4.7225    0.7438 C   0  0  0  0  0  0  0  0  0  0  0  0
    0.1621   -1.3156   -0.4607 C   0  0  0  0  0  0  0  0  0  0  0  0
    2.9772    0.6326   -0.8253 H   0  0  0  0  0  0  0  0  0  0  0  0
    2.8936   -1.0857   -1.2344 H   0  0  0  0  0  0  0  0  0  0  0  0
    2.7310   -0.5493    0.4653 H   0  0  0  0  0  0  0  0  0  0  0  0
    1.0609    1.8445   -1.4221 H   0  0  0  0  0  0  0  0  0  0  0  0
   -1.3828    2.0180   -1.6986 H   0  0  0  0  0  0  0  0  0  0  0  0
   -2.8152    0.1653   -1.2006 H   0  0  0  0  0  0  0  0  0  0  0  0
   -1.5584   -3.1901   -0.0100 H   0  0  0  0  0  0  0  0  0  0  0  0
   -3.4715   -4.1562    0.6608 H   0  0  0  0  0  0  0  0  0  0  0  0
   -6.0043   -2.3377   -1.6260 H   0  0  0  0  0  0  0  0  0  0  0  0
  -10.0489   -3.6269    1.3580 H   0  0  0  0  0  0  0  0  0  0  0  0
  -12.5154   -4.6084    2.6300 H   0  0  0  0  0  0  0  0  0  0  0  0
  -13.5428   -6.6317    3.6284 H   0  0  0  0  0  0  0  0  0  0  0  0
  -12.2464   -8.7284    3.8126 H   0  0  0  0  0  0  0  0  0  0  0  0
   -9.8988   -8.8381    3.0289 H   0  0  0  0  0  0  0  0  0  0  0  0
   -7.3763   -7.2292   -0.2784 H   0  0  0  0  0  0  0  0  0  0  0  0
   -6.4009   -8.4696    0.4317 H   0  0  0  0  0  0  0  0  0  0  0  0
   -5.6578   -5.3782    1.4735 H   0  0  0  0  0  0  0  0  0  0  0  0
    0.6145   -2.2413   -0.1143 H   0  0  0  0  0  0  0  0  0  0  0  0
  1  2  1  0  0  0  0
  1 29  1  0  0  0  0
  1 30  1  0  0  0  0
  1 31  1  0  0  0  0
  2  3  1  0  0  0  0
  2 28  2  0  0  0  0
  3  4  2  0  0  0  0
  3 32  1  0  0  0  0
  4  5  1  0  0  0  0
  4 33  1  0  0  0  0
  5  6  2  0  0  0  0
  5 34  1  0  0  0  0
  6  7  1  0  0  0  0
  6 28  1  0  0  0  0
  7  8  1  0  0  0  0
  7 35  1  0  0  0  0
  8  9  2  0  0  0  0
  8 10  1  0  0  0  0
 10 11  1  0  0  0  0
 10 36  1  0  0  0  0
 11 12  2  0  0  0  0
 11 27  1  0  0  0  0
 12 13  1  0  0  0  0
 12 37  1  0  0  0  0
 13 14  1  0  0  0  0
 14 15  1  0  0  0  0
 14 27  2  0  0  0  0
 15 16  2  0  0  0  0
 15 23  1  0  0  0  0
 16 17  1  0  0  0  0
 16 38  1  0  0  0  0
 17 18  1  0  0  0  0
 17 22  2  0  0  0  0
 18 19  2  0  0  0  0
 18 39  1  0  0  0  0
 19 20  1  0  0  0  0
 19 40  1  0  0  0  0
 20 21  2  0  0  0  0
 20 41  1  0  0  0  0
 21 22  1  0  0  0  0
 21 42  1  0  0  0  0
 22 23  1  0  0  0  0
 23 24  1  0  0  0  0
 24 25  1  0  0  0  0
 24 26  2  0  0  0  0
 25 43  1  0  0  0  0
 25 44  1  0  0  0  0
 27 45  1  0  0  0  0
 28 46  1  0  0  0  0
M  END
$$$$
