CHEMBL1971029
 OpenBabel04072215363D

 65 68  0  0  0  0  0  0  0  0999 V2000
    7.3092    3.3044    0.2565 C   0  0  0  0  0  0  0  0  0  0  0  0
    7.4152    2.9284    1.6625 N   0  0  0  0  0  0  0  0  0  0  0  0
    7.4359    1.2894    2.0379 S   0  0  0  0  0  0  0  0  0  0  0  0
    8.3570    0.6359    1.1305 O   0  0  0  0  0  0  0  0  0  0  0  0
    7.6017    1.1798    3.4758 O   0  0  0  0  0  0  0  0  0  0  0  0
    5.7821    0.7401    1.6763 C   0  0  0  0  0  0  0  0  0  0  0  0
    5.6434   -0.2379    0.6740 C   0  0  0  0  0  0  0  0  0  0  0  0
    4.4174   -0.8611    0.4558 C   0  0  0  0  0  0  0  0  0  0  0  0
    3.3355   -0.5430    1.2622 C   0  0  0  0  0  0  0  0  0  0  0  0
    3.4673    0.4434    2.2370 C   0  0  0  0  0  0  0  0  0  0  0  0
    4.6683    1.1646    2.4230 C   0  0  0  0  0  0  0  0  0  0  0  0
    4.7079    2.2040    3.4071 N   0  0  0  0  0  0  0  0  0  0  0  0
    3.5372    2.9492    3.7714 C   0  0  0  0  0  0  0  0  0  0  0  0
    2.5931    3.1599    2.8182 N   0  0  0  0  0  0  0  0  0  0  0  0
    1.4238    3.7152    3.1656 C   0  0  0  0  0  0  0  0  0  0  0  0
    0.4528    3.7974    2.1623 N   0  0  0  0  0  0  0  0  0  0  0  0
   -0.9460    3.6365    2.2918 C   0  0  0  0  0  0  0  0  0  0  0  0
   -1.4814    2.9453    3.4056 C   0  0  0  0  0  0  0  0  0  0  0  0
   -2.8595    2.7945    3.6506 C   0  0  0  0  0  0  0  0  0  0  0  0
   -3.2991    2.1138    4.7761 N   0  0  0  0  0  0  0  0  0  0  0  0
   -4.5871    1.3937    4.7941 C   0  0  0  0  0  0  0  0  0  0  0  0
   -5.6415    2.1271    5.6394 C   0  0  0  0  0  0  0  0  0  0  0  0
   -5.1252    2.4436    6.9780 N   0  0  0  0  0  0  0  0  0  0  0  0
   -5.7824    1.9440    8.0823 C   0  0  0  0  0  0  0  0  0  0  0  0
   -5.2813    2.2437    9.4719 C   0  0  0  0  0  0  0  0  0  0  0  0
   -6.7922    1.2381    7.9702 O   0  0  0  0  0  0  0  0  0  0  0  0
   -3.8820    3.2280    6.9411 C   0  0  0  0  0  0  0  0  0  0  0  0
   -2.7868    2.5292    6.0997 C   0  0  0  0  0  0  0  0  0  0  0  0
   -3.7248    3.3440    2.7087 C   0  0  0  0  0  0  0  0  0  0  0  0
   -3.2330    4.0132    1.5841 C   0  0  0  0  0  0  0  0  0  0  0  0
   -1.8575    4.1481    1.3522 C   0  0  0  0  0  0  0  0  0  0  0  0
   -1.5970    4.8815    0.2245 O   0  0  0  0  0  0  0  0  0  0  0  0
   -0.4077    4.6137   -0.4968 C   0  0  0  0  0  0  0  0  0  0  0  0
    1.1623    4.1487    4.4046 N   0  0  0  0  0  0  0  0  0  0  0  0
    2.1426    4.0215    5.3182 C   0  0  0  0  0  0  0  0  0  0  0  0
    3.3634    3.4396    5.0555 C   0  0  0  0  0  0  0  0  0  0  0  0
    4.6410    3.2684    6.4291 Br  0  0  0  0  0  0  0  0  0  0  0  0
    7.4588    4.3849    0.1722 H   0  0  0  0  0  0  0  0  0  0  0  0
    6.3171    3.0675   -0.1337 H   0  0  0  0  0  0  0  0  0  0  0  0
    8.0786    2.8169   -0.3483 H   0  0  0  0  0  0  0  0  0  0  0  0
    6.8245    3.4463    2.3126 H   0  0  0  0  0  0  0  0  0  0  0  0
    6.4965   -0.5441    0.0705 H   0  0  0  0  0  0  0  0  0  0  0  0
    4.3164   -1.6211   -0.3153 H   0  0  0  0  0  0  0  0  0  0  0  0
    2.3848   -1.0561    1.1405 H   0  0  0  0  0  0  0  0  0  0  0  0
    2.5958    0.6487    2.8552 H   0  0  0  0  0  0  0  0  0  0  0  0
    5.1424    1.8243    4.2548 H   0  0  0  0  0  0  0  0  0  0  0  0
    0.8356    3.3532    1.3390 H   0  0  0  0  0  0  0  0  0  0  0  0
   -0.7961    2.4742    4.1083 H   0  0  0  0  0  0  0  0  0  0  0  0
   -4.4046    0.4064    5.2352 H   0  0  0  0  0  0  0  0  0  0  0  0
   -4.9718    1.2073    3.7846 H   0  0  0  0  0  0  0  0  0  0  0  0
   -6.5492    1.5179    5.6905 H   0  0  0  0  0  0  0  0  0  0  0  0
   -5.9145    3.0795    5.1696 H   0  0  0  0  0  0  0  0  0  0  0  0
   -4.4061    2.8831    9.5221 H   0  0  0  0  0  0  0  0  0  0  0  0
   -5.0376    1.2975    9.9646 H   0  0  0  0  0  0  0  0  0  0  0  0
   -6.0835    2.7384   10.0282 H   0  0  0  0  0  0  0  0  0  0  0  0
   -3.4867    3.4328    7.9348 H   0  0  0  0  0  0  0  0  0  0  0  0
   -4.1356    4.1943    6.4891 H   0  0  0  0  0  0  0  0  0  0  0  0
   -2.4466    1.6320    6.6291 H   0  0  0  0  0  0  0  0  0  0  0  0
   -1.9254    3.2045    6.0267 H   0  0  0  0  0  0  0  0  0  0  0  0
   -4.8009    3.2954    2.8418 H   0  0  0  0  0  0  0  0  0  0  0  0
   -3.9383    4.4511    0.8810 H   0  0  0  0  0  0  0  0  0  0  0  0
   -0.5496    4.9875   -1.5163 H   0  0  0  0  0  0  0  0  0  0  0  0
   -0.2009    3.5412   -0.5718 H   0  0  0  0  0  0  0  0  0  0  0  0
    0.4349    5.1614   -0.0662 H   0  0  0  0  0  0  0  0  0  0  0  0
    1.8830    4.3955    6.3040 H   0  0  0  0  0  0  0  0  0  0  0  0
  1  2  1  0  0  0  0
  1 38  1  0  0  0  0
  1 39  1  0  0  0  0
  1 40  1  0  0  0  0
  2  3  1  0  0  0  0
  2 41  1  0  0  0  0
  3  4  2  0  0  0  0
  3  5  2  0  0  0  0
  3  6  1  0  0  0  0
  6  7  1  0  0  0  0
  6 11  2  0  0  0  0
  7  8  2  0  0  0  0
  7 42  1  0  0  0  0
  8  9  1  0  0  0  0
  8 43  1  0  0  0  0
  9 10  2  0  0  0  0
  9 44  1  0  0  0  0
 10 11  1  0  0  0  0
 10 45  1  0  0  0  0
 11 12  1  0  0  0  0
 12 13  1  0  0  0  0
 12 46  1  0  0  0  0
 13 14  1  0  0  0  0
 13 36  2  0  0  0  0
 14 15  2  0  0  0  0
 15 16  1  0  0  0  0
 15 34  1  0  0  0  0
 16 17  1  0  0  0  0
 16 47  1  0  0  0  0
 17 18  1  0  0  0  0
 17 31  2  0  0  0  0
 18 19  2  0  0  0  0
 18 48  1  0  0  0  0
 19 20  1  0  0  0  0
 19 29  1  0  0  0  0
 20 21  1  0  0  0  0
 20 28  1  0  0  0  0
 21 22  1  0  0  0  0
 21 49  1  0  0  0  0
 21 50  1  0  0  0  0
 22 23  1  0  0  0  0
 22 51  1  0  0  0  0
 22 52  1  0  0  0  0
 23 24  1  0  0  0  0
 23 27  1  0  0  0  0
 24 25  1  0  0  0  0
 24 26  2  0  0  0  0
 25 53  1  0  0  0  0
 25 54  1  0  0  0  0
 25 55  1  0  0  0  0
 27 28  1  0  0  0  0
 27 56  1  0  0  0  0
 27 57  1  0  0  0  0
 28 58  1  0  0  0  0
 28 59  1  0  0  0  0
 29 30  2  0  0  0  0
 29 60  1  0  0  0  0
 30 31  1  0  0  0  0
 30 61  1  0  0  0  0
 31 32  1  0  0  0  0
 32 33  1  0  0  0  0
 33 62  1  0  0  0  0
 33 63  1  0  0  0  0
 33 64  1  0  0  0  0
 34 35  2  0  0  0  0
 35 36  1  0  0  0  0
 35 65  1  0  0  0  0
 36 37  1  0  0  0  0
M  END
$$$$
