CHEMBL4638817
 OpenBabel04072215383D

 67 71  0  0  0  0  0  0  0  0999 V2000
    1.8523    1.3897   -4.1700 C   0  0  0  0  0  0  0  0  0  0  0  0
    3.0720    1.2309   -3.4373 O   0  0  0  0  0  0  0  0  0  0  0  0
    3.9763    2.2164   -3.6599 C   0  0  0  0  0  0  0  0  0  0  0  0
    3.8180    3.1712   -4.4049 O   0  0  0  0  0  0  0  0  0  0  0  0
    5.2264    1.9929   -2.8789 C   0  0  0  0  0  0  0  0  0  0  0  0
    5.4341    0.8634   -2.0563 C   0  0  0  0  0  0  0  0  0  0  0  0
    6.6539    0.6681   -1.3729 C   0  0  0  0  0  0  0  0  0  0  0  0
    7.6672    1.6013   -1.5298 C   0  0  0  0  0  0  0  0  0  0  0  0
    7.4283    2.7213   -2.3387 C   0  0  0  0  0  0  0  0  0  0  0  0
    6.2419    2.9457   -3.0095 C   0  0  0  0  0  0  0  0  0  0  0  0
    8.5565    3.5316   -2.4106 N   0  0  0  0  0  0  0  0  0  0  0  0
    9.6098    2.9955   -1.6943 C   0  0  0  0  0  0  0  0  0  0  0  0
   10.7620    3.3800   -1.6942 O   0  0  0  0  0  0  0  0  0  0  0  0
    9.0537    1.7533   -1.0304 C   0  0  0  0  0  0  0  0  0  0  0  0
    9.8439    1.0367   -0.1952 C   0  0  0  0  0  0  0  0  0  0  0  0
   11.1587    1.3769    0.1916 N   0  0  0  0  0  0  0  0  0  0  0  0
   11.4091    2.2021    1.3362 C   0  0  0  0  0  0  0  0  0  0  0  0
   10.7240    2.0768    2.5417 C   0  0  0  0  0  0  0  0  0  0  0  0
   10.9609    2.9518    3.6104 C   0  0  0  0  0  0  0  0  0  0  0  0
   11.9356    3.9401    3.4934 C   0  0  0  0  0  0  0  0  0  0  0  0
   12.0694    4.9623    4.5009 N   0  0  0  0  0  0  0  0  0  0  0  0
   12.4406    6.2941    4.2420 C   0  0  0  0  0  0  0  0  0  0  0  0
   12.7259    6.8984    2.9056 C   0  0  0  0  0  0  0  0  0  0  0  0
   12.4085    7.0072    5.4257 C   0  0  0  0  0  0  0  0  0  0  0  0
   12.0144    6.1340    6.4412 C   0  0  0  0  0  0  0  0  0  0  0  0
   11.8225    4.8769    5.8862 C   0  0  0  0  0  0  0  0  0  0  0  0
   11.4882    3.6558    6.6988 C   0  0  0  0  0  0  0  0  0  0  0  0
   12.4530    2.5579    6.5648 N   0  0  0  0  0  0  0  0  0  0  0  0
   13.7983    2.9639    6.9906 C   0  0  0  0  0  0  0  0  0  0  0  0
   12.0269    1.4110    7.3737 C   0  0  0  0  0  0  0  0  0  0  0  0
   12.6911    4.0141    2.3665 N   0  0  0  0  0  0  0  0  0  0  0  0
   12.4331    3.1447    1.3456 C   0  0  0  0  0  0  0  0  0  0  0  0
    9.4394   -0.3344    0.1847 C   0  0  0  0  0  0  0  0  0  0  0  0
    9.8133   -1.4001   -0.6506 C   0  0  0  0  0  0  0  0  0  0  0  0
    9.4860   -2.7139   -0.3135 C   0  0  0  0  0  0  0  0  0  0  0  0
    8.7995   -2.9747    0.8707 C   0  0  0  0  0  0  0  0  0  0  0  0
    8.4173   -1.9257    1.7029 C   0  0  0  0  0  0  0  0  0  0  0  0
    8.7133   -0.6081    1.3471 C   0  0  0  0  0  0  0  0  0  0  0  0
    1.1464    0.6297   -3.8233 H   0  0  0  0  0  0  0  0  0  0  0  0
    2.0294    1.2370   -5.2396 H   0  0  0  0  0  0  0  0  0  0  0  0
    1.4102    2.3753   -3.9897 H   0  0  0  0  0  0  0  0  0  0  0  0
    4.6502    0.1143   -1.9497 H   0  0  0  0  0  0  0  0  0  0  0  0
    6.7770   -0.2161   -0.7560 H   0  0  0  0  0  0  0  0  0  0  0  0
    6.1073    3.8268   -3.6318 H   0  0  0  0  0  0  0  0  0  0  0  0
    8.6517    4.3529   -2.9874 H   0  0  0  0  0  0  0  0  0  0  0  0
   11.5999    1.8771   -0.5930 H   0  0  0  0  0  0  0  0  0  0  0  0
    9.9759    1.3147    2.6828 H   0  0  0  0  0  0  0  0  0  0  0  0
   10.3174    2.8711    4.4762 H   0  0  0  0  0  0  0  0  0  0  0  0
   12.5864    6.2476    2.0466 H   0  0  0  0  0  0  0  0  0  0  0  0
   13.7535    7.2773    2.8829 H   0  0  0  0  0  0  0  0  0  0  0  0
   12.0557    7.7524    2.7467 H   0  0  0  0  0  0  0  0  0  0  0  0
   12.6331    8.0618    5.5277 H   0  0  0  0  0  0  0  0  0  0  0  0
   11.9014    6.3794    7.4899 H   0  0  0  0  0  0  0  0  0  0  0  0
   10.4758    3.3264    6.4427 H   0  0  0  0  0  0  0  0  0  0  0  0
   11.4211    3.9480    7.7580 H   0  0  0  0  0  0  0  0  0  0  0  0
   14.2250    3.7049    6.3082 H   0  0  0  0  0  0  0  0  0  0  0  0
   14.4818    2.1075    6.9777 H   0  0  0  0  0  0  0  0  0  0  0  0
   13.8006    3.3828    8.0051 H   0  0  0  0  0  0  0  0  0  0  0  0
   10.9784    1.1545    7.1866 H   0  0  0  0  0  0  0  0  0  0  0  0
   12.1451    1.5927    8.4496 H   0  0  0  0  0  0  0  0  0  0  0  0
   12.6178    0.5267    7.1092 H   0  0  0  0  0  0  0  0  0  0  0  0
   13.0787    3.2793    0.4809 H   0  0  0  0  0  0  0  0  0  0  0  0
   10.3744   -1.2111   -1.5637 H   0  0  0  0  0  0  0  0  0  0  0  0
    9.7780   -3.5320   -0.9656 H   0  0  0  0  0  0  0  0  0  0  0  0
    8.5687   -4.0011    1.1459 H   0  0  0  0  0  0  0  0  0  0  0  0
    7.8973   -2.1276    2.6351 H   0  0  0  0  0  0  0  0  0  0  0  0
    8.3777    0.1971    1.9917 H   0  0  0  0  0  0  0  0  0  0  0  0
  1  2  1  0  0  0  0
  1 39  1  0  0  0  0
  1 40  1  0  0  0  0
  1 41  1  0  0  0  0
  2  3  1  0  0  0  0
  3  4  2  0  0  0  0
  3  5  1  0  0  0  0
  5  6  1  0  0  0  0
  5 10  2  0  0  0  0
  6  7  2  0  0  0  0
  6 42  1  0  0  0  0
  7  8  1  0  0  0  0
  7 43  1  0  0  0  0
  8  9  2  0  0  0  0
  8 14  1  0  0  0  0
  9 10  1  0  0  0  0
  9 11  1  0  0  0  0
 10 44  1  0  0  0  0
 11 12  1  0  0  0  0
 11 45  1  0  0  0  0
 12 13  2  0  0  0  0
 12 14  1  0  0  0  0
 14 15  2  0  0  0  0
 15 16  1  0  0  0  0
 15 33  1  0  0  0  0
 16 17  1  0  0  0  0
 16 46  1  0  0  0  0
 17 18  1  0  0  0  0
 17 32  2  0  0  0  0
 18 19  2  0  0  0  0
 18 47  1  0  0  0  0
 19 20  1  0  0  0  0
 19 48  1  0  0  0  0
 20 21  1  0  0  0  0
 20 31  2  0  0  0  0
 21 22  1  0  0  0  0
 21 26  1  0  0  0  0
 22 23  1  0  0  0  0
 22 24  2  0  0  0  0
 23 49  1  0  0  0  0
 23 50  1  0  0  0  0
 23 51  1  0  0  0  0
 24 25  1  0  0  0  0
 24 52  1  0  0  0  0
 25 26  2  0  0  0  0
 25 53  1  0  0  0  0
 26 27  1  0  0  0  0
 27 28  1  0  0  0  0
 27 54  1  0  0  0  0
 27 55  1  0  0  0  0
 28 29  1  0  0  0  0
 28 30  1  0  0  0  0
 29 56  1  0  0  0  0
 29 57  1  0  0  0  0
 29 58  1  0  0  0  0
 30 59  1  0  0  0  0
 30 60  1  0  0  0  0
 30 61  1  0  0  0  0
 31 32  1  0  0  0  0
 32 62  1  0  0  0  0
 33 34  1  0  0  0  0
 33 38  2  0  0  0  0
 34 35  2  0  0  0  0
 34 63  1  0  0  0  0
 35 36  1  0  0  0  0
 35 64  1  0  0  0  0
 36 37  2  0  0  0  0
 36 65  1  0  0  0  0
 37 38  1  0  0  0  0
 37 66  1  0  0  0  0
 38 67  1  0  0  0  0
M  END
$$$$
