CHEMBL3690559
 OpenBabel04072215373D

 50 53  0  0  0  0  0  0  0  0999 V2000
    3.8177   -2.2206   -2.0589 N   0  0  0  0  0  0  0  0  0  0  0  0
    4.6577   -2.5344   -1.0288 C   0  0  0  0  0  0  0  0  0  0  0  0
    5.7397   -3.0689   -1.2286 O   0  0  0  0  0  0  0  0  0  0  0  0
    4.2305   -2.1427    0.3325 C   0  0  0  0  0  0  0  0  0  0  0  0
    2.8891   -2.0665    0.6933 C   0  0  0  0  0  0  0  0  0  0  0  0
    2.5990   -1.6652    1.9847 C   0  0  0  0  0  0  0  0  0  0  0  0
    3.5370   -1.3370    2.8877 N   0  0  0  0  0  0  0  0  0  0  0  0
    4.8440   -1.4241    2.5241 C   0  0  0  0  0  0  0  0  0  0  0  0
    5.8283   -0.9073    3.5074 C   0  0  0  0  0  0  0  0  0  0  0  0
    5.4682    0.2181    4.3767 C   0  0  0  0  0  0  0  0  0  0  0  0
    6.3746    0.7388    5.2130 C   0  0  0  0  0  0  0  0  0  0  0  0
    7.6398    0.1663    5.3007 N   0  0  0  0  0  0  0  0  0  0  0  0
    8.7025    0.4529    6.1439 C   0  0  0  0  0  0  0  0  0  0  0  0
    8.6945    1.4024    7.2636 C   0  0  0  0  0  0  0  0  0  0  0  0
    9.8581    2.1214    7.5579 C   0  0  0  0  0  0  0  0  0  0  0  0
    9.8990    2.9701    8.6592 C   0  0  0  0  0  0  0  0  0  0  0  0
    8.7603    3.1625    9.4370 C   0  0  0  0  0  0  0  0  0  0  0  0
    7.5579    2.5264    9.1207 C   0  0  0  0  0  0  0  0  0  0  0  0
    6.3485    2.8057    9.8004 N   0  0  0  0  0  0  0  0  0  0  0  0
    6.1236    3.9459   10.5449 C   0  0  0  0  0  0  0  0  0  0  0  0
    6.8996    4.8772   10.6952 O   0  0  0  0  0  0  0  0  0  0  0  0
    4.9046    3.9534   11.1819 N   0  0  0  0  0  0  0  0  0  0  0  0
    4.5704    5.1274   12.0031 C   0  0  0  0  0  0  0  0  0  0  0  0
    4.0138    6.3486   11.2554 C   0  0  0  0  0  0  0  0  0  0  0  0
    3.8046    6.0958    9.9432 F   0  0  0  0  0  0  0  0  0  0  0  0
    2.8124    6.6990   11.7816 F   0  0  0  0  0  0  0  0  0  0  0  0
    4.8208    7.4253   11.3544 F   0  0  0  0  0  0  0  0  0  0  0  0
    7.5580    1.5901    8.0789 C   0  0  0  0  0  0  0  0  0  0  0  0
    9.7235   -0.3628    5.6761 C   0  0  0  0  0  0  0  0  0  0  0  0
    9.3057   -1.1895    4.6674 N   0  0  0  0  0  0  0  0  0  0  0  0
    8.0401   -0.8866    4.4820 C   0  0  0  0  0  0  0  0  0  0  0  0
    7.0757   -1.4325    3.5858 C   0  0  0  0  0  0  0  0  0  0  0  0
    5.2260   -1.8339    1.2583 C   0  0  0  0  0  0  0  0  0  0  0  0
    4.1844   -2.3794   -2.9892 H   0  0  0  0  0  0  0  0  0  0  0  0
    3.0739   -1.5446   -1.9621 H   0  0  0  0  0  0  0  0  0  0  0  0
    2.0902   -2.3207    0.0097 H   0  0  0  0  0  0  0  0  0  0  0  0
    1.5730   -1.5880    2.3310 H   0  0  0  0  0  0  0  0  0  0  0  0
    4.4634    0.6257    4.3159 H   0  0  0  0  0  0  0  0  0  0  0  0
    6.1491    1.5988    5.8270 H   0  0  0  0  0  0  0  0  0  0  0  0
   10.7490    2.0244    6.9415 H   0  0  0  0  0  0  0  0  0  0  0  0
   10.8149    3.4974    8.9125 H   0  0  0  0  0  0  0  0  0  0  0  0
    8.8422    3.8154   10.2992 H   0  0  0  0  0  0  0  0  0  0  0  0
    5.5433    2.2402    9.5692 H   0  0  0  0  0  0  0  0  0  0  0  0
    4.1452    3.4374   10.7645 H   0  0  0  0  0  0  0  0  0  0  0  0
    5.4700    5.4344   12.5503 H   0  0  0  0  0  0  0  0  0  0  0  0
    3.8477    4.7866   12.7506 H   0  0  0  0  0  0  0  0  0  0  0  0
    6.6564    1.0152    7.8919 H   0  0  0  0  0  0  0  0  0  0  0  0
   10.7394   -0.4226    6.0474 H   0  0  0  0  0  0  0  0  0  0  0  0
    7.4022   -2.2689    2.9774 H   0  0  0  0  0  0  0  0  0  0  0  0
    6.2688   -1.8674    0.9610 H   0  0  0  0  0  0  0  0  0  0  0  0
  1  2  1  0  0  0  0
  1 34  1  0  0  0  0
  1 35  1  0  0  0  0
  2  3  2  0  0  0  0
  2  4  1  0  0  0  0
  4  5  1  0  0  0  0
  4 33  2  0  0  0  0
  5  6  2  0  0  0  0
  5 36  1  0  0  0  0
  6  7  1  0  0  0  0
  6 37  1  0  0  0  0
  7  8  2  0  0  0  0
  8  9  1  0  0  0  0
  8 33  1  0  0  0  0
  9 10  1  0  0  0  0
  9 32  2  0  0  0  0
 10 11  2  0  0  0  0
 10 38  1  0  0  0  0
 11 12  1  0  0  0  0
 11 39  1  0  0  0  0
 12 13  1  0  0  0  0
 12 31  1  0  0  0  0
 13 14  1  0  0  0  0
 13 29  2  0  0  0  0
 14 15  1  0  0  0  0
 14 28  2  0  0  0  0
 15 16  2  0  0  0  0
 15 40  1  0  0  0  0
 16 17  1  0  0  0  0
 16 41  1  0  0  0  0
 17 18  2  0  0  0  0
 17 42  1  0  0  0  0
 18 19  1  0  0  0  0
 18 28  1  0  0  0  0
 19 20  1  0  0  0  0
 19 43  1  0  0  0  0
 20 21  2  0  0  0  0
 20 22  1  0  0  0  0
 22 23  1  0  0  0  0
 22 44  1  0  0  0  0
 23 24  1  0  0  0  0
 23 45  1  0  0  0  0
 23 46  1  0  0  0  0
 24 25  1  0  0  0  0
 24 26  1  0  0  0  0
 24 27  1  0  0  0  0
 28 47  1  0  0  0  0
 29 30  1  0  0  0  0
 29 48  1  0  0  0  0
 30 31  2  0  0  0  0
 31 32  1  0  0  0  0
 32 49  1  0  0  0  0
 33 50  1  0  0  0  0
M  END
$$$$
