CHEMBL3980232
 OpenBabel04072215373D

 67 71  0  0  1  0  0  0  0  0999 V2000
    7.3771   -5.5010    4.6673 C   0  0  0  0  0  0  0  0  0  0  0  0
    7.2915   -4.5754    3.5880 O   0  0  0  0  0  0  0  0  0  0  0  0
    6.5678   -4.9740    2.4884 C   0  0  0  0  0  0  0  0  0  0  0  0
    5.6072   -5.9861    2.5132 C   0  0  0  0  0  0  0  0  0  0  0  0
    4.9005   -6.2939    1.3476 C   0  0  0  0  0  0  0  0  0  0  0  0
    3.9147   -7.2446    1.2512 O   0  0  0  0  0  0  0  0  0  0  0  0
    3.6656   -8.0494    2.3973 C   0  0  0  0  0  0  0  0  0  0  0  0
    5.1363   -5.5688    0.1792 C   0  0  0  0  0  0  0  0  0  0  0  0
    6.0636   -4.5139    0.1210 C   0  0  0  0  0  0  0  0  0  0  0  0
    6.1696   -3.6409   -0.9954 N   0  0  0  0  0  0  0  0  0  0  0  0
    4.8914   -3.3843   -1.7612 C   0  0  0  0  0  0  0  0  0  0  0  0
    3.6762   -2.8520   -0.9749 C   0  0  0  0  0  0  0  0  0  0  0  0
    3.7308   -1.3989   -0.4935 C   0  0  0  0  0  0  0  0  0  0  0  0
    3.8831   -0.4973   -1.5809 O   0  0  0  0  0  0  0  0  0  0  0  0
    7.2462   -3.5758   -1.9681 C   0  0  0  0  0  0  0  0  0  0  0  0
    7.4542   -2.3055   -2.5088 C   0  0  0  0  0  0  0  0  0  0  0  0
    7.9761   -2.1696   -3.7763 C   0  0  0  0  0  0  0  0  0  0  0  0
    8.4658   -3.2465   -4.4698 C   0  0  0  0  0  0  0  0  0  0  0  0
    8.7602   -2.9817   -5.7479 N   0  0  0  0  0  0  0  0  0  0  0  0
    9.4478   -3.9281   -6.4014 C   0  0  0  0  0  0  0  0  0  0  0  0
    9.9296   -5.0569   -5.7680 C   0  0  0  0  0  0  0  0  0  0  0  0
   11.1814   -5.5779   -6.3171 C   0  0  0  0  0  0  0  0  0  0  0  0
   11.5760   -6.7742   -6.9489 C   0  0  0  0  0  0  0  0  0  0  0  0
   12.8539   -6.7495   -7.3680 N   0  0  0  0  0  0  0  0  0  0  0  0
   13.3000   -5.5339   -6.9715 N   0  0  0  0  0  0  0  0  0  0  0  0
   14.7336   -5.1888   -7.0030 C   0  0  3  0  0  0  0  0  0  0  0  0
   15.6720   -6.3135   -6.5502 C   0  0  0  0  0  0  0  0  0  0  0  0
   15.4854   -6.6168   -5.0677 C   0  0  0  0  0  0  0  0  0  0  0  0
   15.6295   -5.3530   -4.2328 C   0  0  0  0  0  0  0  0  0  0  0  0
   14.8599   -4.1714   -4.8065 C   0  0  0  0  0  0  0  0  0  0  0  0
   15.0125   -4.0059   -6.2183 O   0  0  0  0  0  0  0  0  0  0  0  0
   12.2701   -4.7449   -6.5349 C   0  0  0  0  0  0  0  0  0  0  0  0
    9.4877   -5.4020   -4.5050 N   0  0  0  0  0  0  0  0  0  0  0  0
    8.6639   -4.4973   -3.8389 C   0  0  0  0  0  0  0  0  0  0  0  0
    7.9471   -4.6517   -2.5785 C   0  0  0  0  0  0  0  0  0  0  0  0
    6.7905   -4.2473    1.2993 C   0  0  0  0  0  0  0  0  0  0  0  0
    8.0062   -5.0632    5.4509 H   0  0  0  0  0  0  0  0  0  0  0  0
    7.8488   -6.4371    4.3458 H   0  0  0  0  0  0  0  0  0  0  0  0
    6.3997   -5.6994    5.1282 H   0  0  0  0  0  0  0  0  0  0  0  0
    5.3911   -6.5118    3.4324 H   0  0  0  0  0  0  0  0  0  0  0  0
    2.9254   -8.8053    2.1195 H   0  0  0  0  0  0  0  0  0  0  0  0
    3.2433   -7.4535    3.2136 H   0  0  0  0  0  0  0  0  0  0  0  0
    4.5708   -8.5749    2.7190 H   0  0  0  0  0  0  0  0  0  0  0  0
    4.5356   -5.8174   -0.6897 H   0  0  0  0  0  0  0  0  0  0  0  0
    4.6040   -4.3093   -2.2797 H   0  0  0  0  0  0  0  0  0  0  0  0
    5.0541   -2.6591   -2.5686 H   0  0  0  0  0  0  0  0  0  0  0  0
    3.4171   -3.4989   -0.1399 H   0  0  0  0  0  0  0  0  0  0  0  0
    2.8376   -2.9038   -1.6854 H   0  0  0  0  0  0  0  0  0  0  0  0
    4.5244   -1.2344    0.2396 H   0  0  0  0  0  0  0  0  0  0  0  0
    2.7788   -1.1605   -0.0104 H   0  0  0  0  0  0  0  0  0  0  0  0
    4.8286   -0.4520   -1.7997 H   0  0  0  0  0  0  0  0  0  0  0  0
    7.0564   -1.4306   -1.9999 H   0  0  0  0  0  0  0  0  0  0  0  0
    7.9653   -1.1915   -4.2541 H   0  0  0  0  0  0  0  0  0  0  0  0
    9.7226   -3.6746   -7.4211 H   0  0  0  0  0  0  0  0  0  0  0  0
   10.9918   -7.6608   -7.1556 H   0  0  0  0  0  0  0  0  0  0  0  0
   14.9500   -4.9337   -8.0472 H   0  0  0  0  0  0  0  0  0  0  0  0
   16.7076   -5.9868   -6.7040 H   0  0  0  0  0  0  0  0  0  0  0  0
   15.5326   -7.2195   -7.1461 H   0  0  0  0  0  0  0  0  0  0  0  0
   16.2224   -7.3627   -4.7441 H   0  0  0  0  0  0  0  0  0  0  0  0
   14.4956   -7.0592   -4.9029 H   0  0  0  0  0  0  0  0  0  0  0  0
   16.6913   -5.0879   -4.1774 H   0  0  0  0  0  0  0  0  0  0  0  0
   15.2934   -5.5432   -3.2073 H   0  0  0  0  0  0  0  0  0  0  0  0
   15.2090   -3.2465   -4.3342 H   0  0  0  0  0  0  0  0  0  0  0  0
   13.8007   -4.2540   -4.5506 H   0  0  0  0  0  0  0  0  0  0  0  0
   12.4262   -3.6925   -6.3361 H   0  0  0  0  0  0  0  0  0  0  0  0
    7.9095   -5.6436   -2.1357 H   0  0  0  0  0  0  0  0  0  0  0  0
    7.4975   -3.4209    1.3215 H   0  0  0  0  0  0  0  0  0  0  0  0
  1  2  1  0  0  0  0
  1 37  1  0  0  0  0
  1 38  1  0  0  0  0
  1 39  1  0  0  0  0
  2  3  1  0  0  0  0
  3  4  1  0  0  0  0
  3 36  2  0  0  0  0
  4  5  2  0  0  0  0
  4 40  1  0  0  0  0
  5  6  1  0  0  0  0
  5  8  1  0  0  0  0
  6  7  1  0  0  0  0
  7 41  1  0  0  0  0
  7 42  1  0  0  0  0
  7 43  1  0  0  0  0
  8  9  2  0  0  0  0
  8 44  1  0  0  0  0
  9 10  1  0  0  0  0
  9 36  1  0  0  0  0
 10 11  1  0  0  0  0
 10 15  1  0  0  0  0
 11 12  1  0  0  0  0
 11 45  1  0  0  0  0
 11 46  1  0  0  0  0
 12 13  1  0  0  0  0
 12 47  1  0  0  0  0
 12 48  1  0  0  0  0
 13 14  1  0  0  0  0
 13 49  1  0  0  0  0
 13 50  1  0  0  0  0
 14 51  1  0  0  0  0
 15 16  1  0  0  0  0
 15 35  2  0  0  0  0
 16 17  2  0  0  0  0
 16 52  1  0  0  0  0
 17 18  1  0  0  0  0
 17 53  1  0  0  0  0
 18 19  1  0  0  0  0
 18 34  2  0  0  0  0
 19 20  2  0  0  0  0
 20 21  1  0  0  0  0
 20 54  1  0  0  0  0
 21 22  1  0  0  0  0
 21 33  2  0  0  0  0
 22 23  1  0  0  0  0
 22 32  2  0  0  0  0
 23 24  2  0  0  0  0
 23 55  1  0  0  0  0
 24 25  1  0  0  0  0
 25 26  1  0  0  0  0
 25 32  1  0  0  0  0
 26 27  1  0  0  0  0
 26 31  1  0  0  0  0
 26 56  1  0  0  0  0
 27 28  1  0  0  0  0
 27 57  1  0  0  0  0
 27 58  1  0  0  0  0
 28 29  1  0  0  0  0
 28 59  1  0  0  0  0
 28 60  1  0  0  0  0
 29 30  1  0  0  0  0
 29 61  1  0  0  0  0
 29 62  1  0  0  0  0
 30 31  1  0  0  0  0
 30 63  1  0  0  0  0
 30 64  1  0  0  0  0
 32 65  1  0  0  0  0
 33 34  1  0  0  0  0
 34 35  1  0  0  0  0
 35 66  1  0  0  0  0
 36 67  1  0  0  0  0
M  END
$$$$
