CHEMBL3968793
 OpenBabel04072215373D

 63 66  0  0  0  0  0  0  0  0999 V2000
    0.4049   -1.7280   -3.4354 C   0  0  0  0  0  0  0  0  0  0  0  0
    1.6755   -2.3836   -3.4372 O   0  0  0  0  0  0  0  0  0  0  0  0
    2.6804   -1.7813   -2.7248 C   0  0  0  0  0  0  0  0  0  0  0  0
    2.5725   -0.5396   -2.0937 C   0  0  0  0  0  0  0  0  0  0  0  0
    3.6491   -0.0379   -1.3601 C   0  0  0  0  0  0  0  0  0  0  0  0
    3.6497    1.1468   -0.6719 O   0  0  0  0  0  0  0  0  0  0  0  0
    2.4937    1.9684   -0.7993 C   0  0  0  0  0  0  0  0  0  0  0  0
    4.8257   -0.7896   -1.2544 C   0  0  0  0  0  0  0  0  0  0  0  0
    4.9739   -2.0461   -1.8480 C   0  0  0  0  0  0  0  0  0  0  0  0
    6.0653   -2.9117   -1.5735 N   0  0  0  0  0  0  0  0  0  0  0  0
    6.6529   -2.8293   -0.1834 C   0  0  0  0  0  0  0  0  0  0  0  0
    5.7140   -2.9625    1.0352 C   0  0  0  0  0  0  0  0  0  0  0  0
    5.1576   -4.3572    1.3807 C   0  0  0  0  0  0  0  0  0  0  0  0
    4.5224   -4.2399    2.6978 N   0  0  0  0  0  0  0  0  0  0  0  0
    3.8328   -5.4638    3.1722 C   0  0  0  0  0  0  0  0  0  0  0  0
    3.0658   -5.3451    4.5216 C   0  0  0  0  0  0  0  0  0  0  0  0
    3.1157   -4.0930    5.0329 F   0  0  0  0  0  0  0  0  0  0  0  0
    1.7566   -5.6536    4.3588 F   0  0  0  0  0  0  0  0  0  0  0  0
    3.5655   -6.1883    5.4533 F   0  0  0  0  0  0  0  0  0  0  0  0
    7.1799   -3.2400   -2.4484 C   0  0  0  0  0  0  0  0  0  0  0  0
    7.7377   -4.4982   -2.2105 C   0  0  0  0  0  0  0  0  0  0  0  0
    9.0621   -4.7414   -2.4996 C   0  0  0  0  0  0  0  0  0  0  0  0
    9.8216   -3.8260   -3.1798 C   0  0  0  0  0  0  0  0  0  0  0  0
   11.1226   -4.1287   -3.2277 N   0  0  0  0  0  0  0  0  0  0  0  0
   11.8779   -3.3823   -4.0303 C   0  0  0  0  0  0  0  0  0  0  0  0
   11.3440   -2.4131   -4.8580 C   0  0  0  0  0  0  0  0  0  0  0  0
   12.1843   -1.9846   -5.9638 C   0  0  0  0  0  0  0  0  0  0  0  0
   12.1842   -2.4328   -7.3116 C   0  0  0  0  0  0  0  0  0  0  0  0
   13.2498   -2.0019   -8.0026 N   0  0  0  0  0  0  0  0  0  0  0  0
   13.9331   -1.2788   -7.0995 N   0  0  0  0  0  0  0  0  0  0  0  0
   14.9685   -0.3661   -7.5249 C   0  0  0  0  0  0  0  0  0  0  0  0
   13.4317   -1.4004   -5.8314 C   0  0  0  0  0  0  0  0  0  0  0  0
   10.0234   -2.0072   -4.7140 N   0  0  0  0  0  0  0  0  0  0  0  0
    9.2328   -2.6965   -3.7993 C   0  0  0  0  0  0  0  0  0  0  0  0
    7.8881   -2.3872   -3.3402 C   0  0  0  0  0  0  0  0  0  0  0  0
    3.8923   -2.5134   -2.6131 C   0  0  0  0  0  0  0  0  0  0  0  0
   -0.2970   -2.3395   -4.0127 H   0  0  0  0  0  0  0  0  0  0  0  0
    0.4620   -0.7493   -3.9226 H   0  0  0  0  0  0  0  0  0  0  0  0
    0.0036   -1.6383   -2.4208 H   0  0  0  0  0  0  0  0  0  0  0  0
    1.6537    0.0236   -2.1612 H   0  0  0  0  0  0  0  0  0  0  0  0
    2.6840    2.8977   -0.2554 H   0  0  0  0  0  0  0  0  0  0  0  0
    1.6165    1.4918   -0.3480 H   0  0  0  0  0  0  0  0  0  0  0  0
    2.3052    2.2285   -1.8463 H   0  0  0  0  0  0  0  0  0  0  0  0
    5.6254   -0.3736   -0.6425 H   0  0  0  0  0  0  0  0  0  0  0  0
    7.1879   -1.8812   -0.0952 H   0  0  0  0  0  0  0  0  0  0  0  0
    7.4118   -3.6031   -0.0169 H   0  0  0  0  0  0  0  0  0  0  0  0
    4.8925   -2.2417    0.9870 H   0  0  0  0  0  0  0  0  0  0  0  0
    6.3304   -2.6553    1.8954 H   0  0  0  0  0  0  0  0  0  0  0  0
    5.9704   -5.0909    1.4297 H   0  0  0  0  0  0  0  0  0  0  0  0
    4.4391   -4.6771    0.6191 H   0  0  0  0  0  0  0  0  0  0  0  0
    3.8474   -3.4605    2.7019 H   0  0  0  0  0  0  0  0  0  0  0  0
    4.5707   -6.2677    3.2792 H   0  0  0  0  0  0  0  0  0  0  0  0
    3.1103   -5.7861    2.4126 H   0  0  0  0  0  0  0  0  0  0  0  0
    7.1827   -5.2348   -1.6357 H   0  0  0  0  0  0  0  0  0  0  0  0
    9.5248   -5.6579   -2.1455 H   0  0  0  0  0  0  0  0  0  0  0  0
   12.9309   -3.6391   -4.0495 H   0  0  0  0  0  0  0  0  0  0  0  0
   11.4822   -3.0868   -7.8095 H   0  0  0  0  0  0  0  0  0  0  0  0
   15.0123   -0.3395   -8.6172 H   0  0  0  0  0  0  0  0  0  0  0  0
   15.9286   -0.6802   -7.1109 H   0  0  0  0  0  0  0  0  0  0  0  0
   14.6967    0.6251   -7.1511 H   0  0  0  0  0  0  0  0  0  0  0  0
   13.9843   -1.0301   -4.9768 H   0  0  0  0  0  0  0  0  0  0  0  0
    7.4487   -1.4397   -3.6508 H   0  0  0  0  0  0  0  0  0  0  0  0
    3.9415   -3.4997   -3.0772 H   0  0  0  0  0  0  0  0  0  0  0  0
  1  2  1  0  0  0  0
  1 37  1  0  0  0  0
  1 38  1  0  0  0  0
  1 39  1  0  0  0  0
  2  3  1  0  0  0  0
  3  4  1  0  0  0  0
  3 36  2  0  0  0  0
  4  5  2  0  0  0  0
  4 40  1  0  0  0  0
  5  6  1  0  0  0  0
  5  8  1  0  0  0  0
  6  7  1  0  0  0  0
  7 41  1  0  0  0  0
  7 42  1  0  0  0  0
  7 43  1  0  0  0  0
  8  9  2  0  0  0  0
  8 44  1  0  0  0  0
  9 10  1  0  0  0  0
  9 36  1  0  0  0  0
 10 11  1  0  0  0  0
 10 20  1  0  0  0  0
 11 12  1  0  0  0  0
 11 45  1  0  0  0  0
 11 46  1  0  0  0  0
 12 13  1  0  0  0  0
 12 47  1  0  0  0  0
 12 48  1  0  0  0  0
 13 14  1  0  0  0  0
 13 49  1  0  0  0  0
 13 50  1  0  0  0  0
 14 15  1  0  0  0  0
 14 51  1  0  0  0  0
 15 16  1  0  0  0  0
 15 52  1  0  0  0  0
 15 53  1  0  0  0  0
 16 17  1  0  0  0  0
 16 18  1  0  0  0  0
 16 19  1  0  0  0  0
 20 21  1  0  0  0  0
 20 35  2  0  0  0  0
 21 22  2  0  0  0  0
 21 54  1  0  0  0  0
 22 23  1  0  0  0  0
 22 55  1  0  0  0  0
 23 24  1  0  0  0  0
 23 34  2  0  0  0  0
 24 25  2  0  0  0  0
 25 26  1  0  0  0  0
 25 56  1  0  0  0  0
 26 27  1  0  0  0  0
 26 33  2  0  0  0  0
 27 28  1  0  0  0  0
 27 32  2  0  0  0  0
 28 29  2  0  0  0  0
 28 57  1  0  0  0  0
 29 30  1  0  0  0  0
 30 31  1  0  0  0  0
 30 32  1  0  0  0  0
 31 58  1  0  0  0  0
 31 59  1  0  0  0  0
 31 60  1  0  0  0  0
 32 61  1  0  0  0  0
 33 34  1  0  0  0  0
 34 35  1  0  0  0  0
 35 62  1  0  0  0  0
 36 63  1  0  0  0  0
M  END
$$$$
