CHEMBL3671516
 OpenBabel04072215373D

 50 52  0  0  0  0  0  0  0  0999 V2000
    4.0226    0.9210   -2.1647 C   0  0  0  0  0  0  0  0  0  0  0  0
    3.9254    0.5197   -0.8915 C   0  0  0  0  0  0  0  0  0  0  0  0
    4.8364   -0.5289   -0.3685 C   0  0  0  0  0  0  0  0  0  0  0  0
    5.7746   -0.9742   -1.0183 O   0  0  0  0  0  0  0  0  0  0  0  0
    4.4734   -0.9559    0.8946 N   0  0  0  0  0  0  0  0  0  0  0  0
    5.3100   -1.8402    1.6024 C   0  0  0  0  0  0  0  0  0  0  0  0
    6.5049   -1.3157    2.1099 C   0  0  0  0  0  0  0  0  0  0  0  0
    7.3128   -2.0736    2.9863 C   0  0  0  0  0  0  0  0  0  0  0  0
    8.4470   -1.5895    3.6643 C   0  0  0  0  0  0  0  0  0  0  0  0
    8.8094   -0.2188    3.5621 N   0  0  0  0  0  0  0  0  0  0  0  0
    9.6220    0.4522    4.5098 C   0  0  0  0  0  0  0  0  0  0  0  0
    9.4379    0.2554    5.8870 C   0  0  0  0  0  0  0  0  0  0  0  0
   10.2999    0.8377    6.8185 C   0  0  0  0  0  0  0  0  0  0  0  0
   11.3426    1.6488    6.3776 C   0  0  0  0  0  0  0  0  0  0  0  0
   12.5641    2.3587    7.6331 Br  0  0  0  0  0  0  0  0  0  0  0  0
   11.5008    1.9215    5.0213 C   0  0  0  0  0  0  0  0  0  0  0  0
   10.6334    1.3314    4.1033 C   0  0  0  0  0  0  0  0  0  0  0  0
   10.8009    1.5856    2.7959 F   0  0  0  0  0  0  0  0  0  0  0  0
    9.1759   -2.3763    4.4792 N   0  0  0  0  0  0  0  0  0  0  0  0
    8.7626   -3.6325    4.6381 C   0  0  0  0  0  0  0  0  0  0  0  0
    7.6738   -4.1762    4.0858 N   0  0  0  0  0  0  0  0  0  0  0  0
    6.9465   -3.3932    3.2828 C   0  0  0  0  0  0  0  0  0  0  0  0
    5.7665   -3.9049    2.7447 C   0  0  0  0  0  0  0  0  0  0  0  0
    4.9257   -3.1480    1.9138 C   0  0  0  0  0  0  0  0  0  0  0  0
    3.4377   -3.9333    1.2787 S   0  0  0  0  0  0  0  0  0  0  0  0
    3.7701   -3.8527   -0.5214 C   0  0  0  0  0  0  0  0  0  0  0  0
    2.7967   -4.6981   -1.3470 C   0  0  0  0  0  0  0  0  0  0  0  0
    3.0842   -4.5896   -2.7728 N   0  0  0  0  0  0  0  0  0  0  0  0
    2.6434   -3.5162   -3.5137 C   0  0  0  0  0  0  0  0  0  0  0  0
    3.1215   -3.4964   -4.9397 C   0  0  0  0  0  0  0  0  0  0  0  0
    1.9338   -2.6202   -3.0503 O   0  0  0  0  0  0  0  0  0  0  0  0
    3.4095    1.7313   -2.5426 H   0  0  0  0  0  0  0  0  0  0  0  0
    4.7203    0.4540   -2.8551 H   0  0  0  0  0  0  0  0  0  0  0  0
    3.2367    0.9961   -0.2052 H   0  0  0  0  0  0  0  0  0  0  0  0
    3.4760   -1.0407    1.0577 H   0  0  0  0  0  0  0  0  0  0  0  0
    6.7712   -0.2869    1.8792 H   0  0  0  0  0  0  0  0  0  0  0  0
    9.0671    0.0110    2.6048 H   0  0  0  0  0  0  0  0  0  0  0  0
    8.6323   -0.3840    6.2416 H   0  0  0  0  0  0  0  0  0  0  0  0
   10.1582    0.6307    7.8761 H   0  0  0  0  0  0  0  0  0  0  0  0
   12.2983    2.5645    4.6648 H   0  0  0  0  0  0  0  0  0  0  0  0
    9.3559   -4.2648    5.2906 H   0  0  0  0  0  0  0  0  0  0  0  0
    5.4957   -4.9288    2.9994 H   0  0  0  0  0  0  0  0  0  0  0  0
    4.7957   -4.1812   -0.7159 H   0  0  0  0  0  0  0  0  0  0  0  0
    3.6787   -2.8158   -0.8464 H   0  0  0  0  0  0  0  0  0  0  0  0
    1.7627   -4.3733   -1.1774 H   0  0  0  0  0  0  0  0  0  0  0  0
    2.8729   -5.7595   -1.0900 H   0  0  0  0  0  0  0  0  0  0  0  0
    3.7910   -5.1959   -3.1737 H   0  0  0  0  0  0  0  0  0  0  0  0
    3.6838   -4.3988   -5.1934 H   0  0  0  0  0  0  0  0  0  0  0  0
    3.7728   -2.6288   -5.0868 H   0  0  0  0  0  0  0  0  0  0  0  0
    2.2621   -3.4267   -5.6120 H   0  0  0  0  0  0  0  0  0  0  0  0
  1  2  2  0  0  0  0
  1 32  1  0  0  0  0
  1 33  1  0  0  0  0
  2  3  1  0  0  0  0
  2 34  1  0  0  0  0
  3  4  2  0  0  0  0
  3  5  1  0  0  0  0
  5  6  1  0  0  0  0
  5 35  1  0  0  0  0
  6  7  1  0  0  0  0
  6 24  2  0  0  0  0
  7  8  2  0  0  0  0
  7 36  1  0  0  0  0
  8  9  1  0  0  0  0
  8 22  1  0  0  0  0
  9 10  1  0  0  0  0
  9 19  2  0  0  0  0
 10 11  1  0  0  0  0
 10 37  1  0  0  0  0
 11 12  1  0  0  0  0
 11 17  2  0  0  0  0
 12 13  2  0  0  0  0
 12 38  1  0  0  0  0
 13 14  1  0  0  0  0
 13 39  1  0  0  0  0
 14 15  1  0  0  0  0
 14 16  2  0  0  0  0
 16 17  1  0  0  0  0
 16 40  1  0  0  0  0
 17 18  1  0  0  0  0
 19 20  1  0  0  0  0
 20 21  2  0  0  0  0
 20 41  1  0  0  0  0
 21 22  1  0  0  0  0
 22 23  2  0  0  0  0
 23 24  1  0  0  0  0
 23 42  1  0  0  0  0
 24 25  1  0  0  0  0
 25 26  1  0  0  0  0
 26 27  1  0  0  0  0
 26 43  1  0  0  0  0
 26 44  1  0  0  0  0
 27 28  1  0  0  0  0
 27 45  1  0  0  0  0
 27 46  1  0  0  0  0
 28 29  1  0  0  0  0
 28 47  1  0  0  0  0
 29 30  1  0  0  0  0
 29 31  2  0  0  0  0
 30 48  1  0  0  0  0
 30 49  1  0  0  0  0
 30 50  1  0  0  0  0
M  END
$$$$
