CHEMBL1269662
 OpenBabel04072215363D

 30 32  0  0  0  0  0  0  0  0999 V2000
    1.1855   -0.0812   -0.9172 O   0  0  0  0  0  0  0  0  0  0  0  0
    2.2744   -0.1229   -0.3545 C   0  0  0  0  0  0  0  0  0  0  0  0
    2.7667   -1.1593    0.4138 N   0  0  0  0  0  0  0  0  0  0  0  0
    2.1111   -2.3888    0.6795 C   0  0  0  0  0  0  0  0  0  0  0  0
    1.0260   -2.8339   -0.0833 C   0  0  0  0  0  0  0  0  0  0  0  0
    0.3697   -4.0135    0.2442 C   0  0  0  0  0  0  0  0  0  0  0  0
    0.7966   -4.7590    1.3354 C   0  0  0  0  0  0  0  0  0  0  0  0
    1.8999   -4.3374    2.0935 C   0  0  0  0  0  0  0  0  0  0  0  0
    2.3290   -5.0760    3.2006 C   0  0  0  0  0  0  0  0  0  0  0  0
    3.4208   -4.6443    3.9398 C   0  0  0  0  0  0  0  0  0  0  0  0
    4.0549   -3.4845    3.5391 C   0  0  0  0  0  0  0  0  0  0  0  0
    3.6655   -2.7339    2.4795 N   0  0  0  0  0  0  0  0  0  0  0  0
    2.5924   -3.1490    1.7626 C   0  0  0  0  0  0  0  0  0  0  0  0
    3.1343    1.0754   -0.4440 C   0  0  0  0  0  0  0  0  0  0  0  0
    2.5254    2.3201   -0.5742 C   0  0  0  0  0  0  0  0  0  0  0  0
    3.2107    3.4873   -0.6615 N   0  0  0  0  0  0  0  0  0  0  0  0
    4.5612    3.3960   -0.6379 C   0  0  0  0  0  0  0  0  0  0  0  0
    5.2502    2.1954   -0.5361 C   0  0  0  0  0  0  0  0  0  0  0  0
    7.1356    2.1653   -0.5284 Br  0  0  0  0  0  0  0  0  0  0  0  0
    4.5276    1.0099   -0.4417 C   0  0  0  0  0  0  0  0  0  0  0  0
    3.5717   -1.0027    1.0173 H   0  0  0  0  0  0  0  0  0  0  0  0
    0.6736   -2.2784   -0.9472 H   0  0  0  0  0  0  0  0  0  0  0  0
   -0.4804   -4.3419   -0.3500 H   0  0  0  0  0  0  0  0  0  0  0  0
    0.2627   -5.6703    1.5917 H   0  0  0  0  0  0  0  0  0  0  0  0
    1.8099   -5.9848    3.4958 H   0  0  0  0  0  0  0  0  0  0  0  0
    3.7634   -5.1995    4.8058 H   0  0  0  0  0  0  0  0  0  0  0  0
    4.9194   -3.1113    4.0815 H   0  0  0  0  0  0  0  0  0  0  0  0
    1.4425    2.4201   -0.6057 H   0  0  0  0  0  0  0  0  0  0  0  0
    5.0825    4.3470   -0.7115 H   0  0  0  0  0  0  0  0  0  0  0  0
    5.0427    0.0562   -0.3952 H   0  0  0  0  0  0  0  0  0  0  0  0
  1  2  2  0  0  0  0
  2  3  1  0  0  0  0
  2 14  1  0  0  0  0
  3  4  1  0  0  0  0
  3 21  1  0  0  0  0
  4  5  1  0  0  0  0
  4 13  2  0  0  0  0
  5  6  2  0  0  0  0
  5 22  1  0  0  0  0
  6  7  1  0  0  0  0
  6 23  1  0  0  0  0
  7  8  2  0  0  0  0
  7 24  1  0  0  0  0
  8  9  1  0  0  0  0
  8 13  1  0  0  0  0
  9 10  2  0  0  0  0
  9 25  1  0  0  0  0
 10 11  1  0  0  0  0
 10 26  1  0  0  0  0
 11 12  2  0  0  0  0
 11 27  1  0  0  0  0
 12 13  1  0  0  0  0
 14 15  1  0  0  0  0
 14 20  2  0  0  0  0
 15 16  2  0  0  0  0
 15 28  1  0  0  0  0
 16 17  1  0  0  0  0
 17 18  2  0  0  0  0
 17 29  1  0  0  0  0
 18 19  1  0  0  0  0
 18 20  1  0  0  0  0
 20 30  1  0  0  0  0
M  END
$$$$
