CHEMBL456463
 OpenBabel04072215383D

 55 60  0  0  0  0  0  0  0  0999 V2000
    2.7451    1.1821   11.4323 C   0  0  0  0  0  0  0  0  0  0  0  0
    3.2927   -0.1240   11.1968 N   0  0  0  0  0  0  0  0  0  0  0  0
    3.5564   -0.5617    9.9229 C   0  0  0  0  0  0  0  0  0  0  0  0
    3.9705   -1.8261    9.8165 N   0  0  0  0  0  0  0  0  0  0  0  0
    4.4173   -2.2170    8.6104 C   0  0  0  0  0  0  0  0  0  0  0  0
    4.4406   -1.4071    7.5000 C   0  0  0  0  0  0  0  0  0  0  0  0
    3.9515   -0.1334    7.6699 C   0  0  0  0  0  0  0  0  0  0  0  0
    4.0135    0.9242    6.6368 C   0  0  0  0  0  0  0  0  0  0  0  0
    4.1596    2.2627    7.0786 C   0  0  0  0  0  0  0  0  0  0  0  0
    4.2682    3.3250    6.1906 C   0  0  0  0  0  0  0  0  0  0  0  0
    4.2000    3.0396    4.8486 C   0  0  0  0  0  0  0  0  0  0  0  0
    4.0345    1.7950    4.3660 N   0  0  0  0  0  0  0  0  0  0  0  0
    3.9894    0.7512    5.2409 C   0  0  0  0  0  0  0  0  0  0  0  0
    3.9214   -0.5321    4.6791 O   0  0  0  0  0  0  0  0  0  0  0  0
    4.4044   -0.7018    3.3796 C   0  0  0  0  0  0  0  0  0  0  0  0
    5.5605   -0.0457    2.9532 C   0  0  0  0  0  0  0  0  0  0  0  0
    5.9564   -0.0936    1.6218 C   0  0  0  0  0  0  0  0  0  0  0  0
    5.2232   -0.8121    0.6688 C   0  0  0  0  0  0  0  0  0  0  0  0
    5.5119   -0.6958   -0.7218 N   0  0  0  0  0  0  0  0  0  0  0  0
    6.0560    0.3966   -1.3042 C   0  0  0  0  0  0  0  0  0  0  0  0
    6.8863    1.3098   -0.8442 N   0  0  0  0  0  0  0  0  0  0  0  0
    6.9946    2.2131   -1.8645 C   0  0  0  0  0  0  0  0  0  0  0  0
    7.7229    3.4046   -1.9603 C   0  0  0  0  0  0  0  0  0  0  0  0
    7.6281    4.1432   -3.1483 C   0  0  0  0  0  0  0  0  0  0  0  0
    6.8257    3.7029   -4.2095 C   0  0  0  0  0  0  0  0  0  0  0  0
    6.0971    2.5072   -4.1303 C   0  0  0  0  0  0  0  0  0  0  0  0
    6.2223    1.8052   -2.9366 C   0  0  0  0  0  0  0  0  0  0  0  0
    5.6284    0.6247   -2.5911 O   0  0  0  0  0  0  0  0  0  0  0  0
    4.1800   -1.6783    1.1289 C   0  0  0  0  0  0  0  0  0  0  0  0
    3.5197   -2.6077    0.2779 C   0  0  0  0  0  0  0  0  0  0  0  0
    2.4678   -3.4104    0.7281 C   0  0  0  0  0  0  0  0  0  0  0  0
    2.0478   -3.3073    2.0436 C   0  0  0  0  0  0  0  0  0  0  0  0
    2.6787   -2.4134    2.9111 C   0  0  0  0  0  0  0  0  0  0  0  0
    3.7521   -1.5969    2.4900 C   0  0  0  0  0  0  0  0  0  0  0  0
    3.4985    0.2817    8.8849 N   0  0  0  0  0  0  0  0  0  0  0  0
    2.7085    1.3686   12.5112 H   0  0  0  0  0  0  0  0  0  0  0  0
    1.7286    1.2795   11.0391 H   0  0  0  0  0  0  0  0  0  0  0  0
    3.3774    1.9639   10.9965 H   0  0  0  0  0  0  0  0  0  0  0  0
    3.1023   -0.8830   11.8341 H   0  0  0  0  0  0  0  0  0  0  0  0
    4.8122   -3.2274    8.5699 H   0  0  0  0  0  0  0  0  0  0  0  0
    4.8748   -1.7554    6.5745 H   0  0  0  0  0  0  0  0  0  0  0  0
    4.2123    2.4810    8.1460 H   0  0  0  0  0  0  0  0  0  0  0  0
    4.3977    4.3413    6.5440 H   0  0  0  0  0  0  0  0  0  0  0  0
    4.2895    3.8179    4.0982 H   0  0  0  0  0  0  0  0  0  0  0  0
    6.1261    0.5859    3.6325 H   0  0  0  0  0  0  0  0  0  0  0  0
    6.8250    0.4954    1.3398 H   0  0  0  0  0  0  0  0  0  0  0  0
    4.7830   -1.0952   -1.2955 H   0  0  0  0  0  0  0  0  0  0  0  0
    8.3378    3.7386   -1.1328 H   0  0  0  0  0  0  0  0  0  0  0  0
    8.1876    5.0720   -3.2428 H   0  0  0  0  0  0  0  0  0  0  0  0
    6.7694    4.3042   -5.1157 H   0  0  0  0  0  0  0  0  0  0  0  0
    5.4747    2.1534   -4.9423 H   0  0  0  0  0  0  0  0  0  0  0  0
    3.8311   -2.7503   -0.7494 H   0  0  0  0  0  0  0  0  0  0  0  0
    1.9860   -4.1074    0.0479 H   0  0  0  0  0  0  0  0  0  0  0  0
    1.2263   -3.9311    2.4061 H   0  0  0  0  0  0  0  0  0  0  0  0
    2.3275   -2.3638    3.9390 H   0  0  0  0  0  0  0  0  0  0  0  0
  1  2  1  0  0  0  0
  1 36  1  0  0  0  0
  1 37  1  0  0  0  0
  1 38  1  0  0  0  0
  2  3  1  0  0  0  0
  2 39  1  0  0  0  0
  3  4  1  0  0  0  0
  3 35  2  0  0  0  0
  4  5  2  0  0  0  0
  5  6  1  0  0  0  0
  5 40  1  0  0  0  0
  6  7  2  0  0  0  0
  6 41  1  0  0  0  0
  7  8  1  0  0  0  0
  7 35  1  0  0  0  0
  8  9  1  0  0  0  0
  8 13  2  0  0  0  0
  9 10  2  0  0  0  0
  9 42  1  0  0  0  0
 10 11  1  0  0  0  0
 10 43  1  0  0  0  0
 11 12  2  0  0  0  0
 11 44  1  0  0  0  0
 12 13  1  0  0  0  0
 13 14  1  0  0  0  0
 14 15  1  0  0  0  0
 15 16  1  0  0  0  0
 15 34  2  0  0  0  0
 16 17  2  0  0  0  0
 16 45  1  0  0  0  0
 17 18  1  0  0  0  0
 17 46  1  0  0  0  0
 18 19  1  0  0  0  0
 18 29  2  0  0  0  0
 19 20  1  0  0  0  0
 19 47  1  0  0  0  0
 20 21  2  0  0  0  0
 20 28  1  0  0  0  0
 21 22  1  0  0  0  0
 22 23  1  0  0  0  0
 22 27  2  0  0  0  0
 23 24  2  0  0  0  0
 23 48  1  0  0  0  0
 24 25  1  0  0  0  0
 24 49  1  0  0  0  0
 25 26  2  0  0  0  0
 25 50  1  0  0  0  0
 26 27  1  0  0  0  0
 26 51  1  0  0  0  0
 27 28  1  0  0  0  0
 29 30  1  0  0  0  0
 29 34  1  0  0  0  0
 30 31  2  0  0  0  0
 30 52  1  0  0  0  0
 31 32  1  0  0  0  0
 31 53  1  0  0  0  0
 32 33  2  0  0  0  0
 32 54  1  0  0  0  0
 33 34  1  0  0  0  0
 33 55  1  0  0  0  0
M  END
$$$$
