CHEMBL525443
 OpenBabel04072215383D

 67 71  0  0  0  0  0  0  0  0999 V2000
    1.3893    0.3314   -0.9172 C   0  0  0  0  0  0  0  0  0  0  0  0
    2.4302    0.5450    0.1676 C   0  0  0  0  0  0  0  0  0  0  0  0
    3.2785    1.6184   -0.2558 O   0  0  0  0  0  0  0  0  0  0  0  0
    4.2884    1.2542   -1.0804 C   0  0  0  0  0  0  0  0  0  0  0  0
    4.7227    0.1251   -1.2393 O   0  0  0  0  0  0  0  0  0  0  0  0
    4.7326    2.4235   -1.8793 C   0  0  0  0  0  0  0  0  0  0  0  0
    4.1438    3.7012   -1.7483 C   0  0  0  0  0  0  0  0  0  0  0  0
    4.5685    4.7805   -2.5384 C   0  0  0  0  0  0  0  0  0  0  0  0
    5.5938    4.5758   -3.4453 C   0  0  0  0  0  0  0  0  0  0  0  0
    6.1439    3.2940   -3.5725 C   0  0  0  0  0  0  0  0  0  0  0  0
    5.7384    2.2098   -2.8235 C   0  0  0  0  0  0  0  0  0  0  0  0
    7.1586    3.2791   -4.5142 N   0  0  0  0  0  0  0  0  0  0  0  0
    7.3955    4.5429   -5.0205 C   0  0  0  0  0  0  0  0  0  0  0  0
    8.3474    4.8380   -5.7157 O   0  0  0  0  0  0  0  0  0  0  0  0
    6.3106    5.4249   -4.4224 C   0  0  0  0  0  0  0  0  0  0  0  0
    6.1287    6.7122   -4.7971 C   0  0  0  0  0  0  0  0  0  0  0  0
    6.7271    7.3733   -5.8613 N   0  0  0  0  0  0  0  0  0  0  0  0
    6.7426    6.9379   -7.2069 C   0  0  0  0  0  0  0  0  0  0  0  0
    6.0209    5.8175   -7.6496 C   0  0  0  0  0  0  0  0  0  0  0  0
    6.2519    5.2677   -8.9095 C   0  0  0  0  0  0  0  0  0  0  0  0
    7.1973    5.8332   -9.7708 C   0  0  0  0  0  0  0  0  0  0  0  0
    7.6031    5.1124  -11.0377 C   0  0  0  0  0  0  0  0  0  0  0  0
    6.4944    4.7948  -11.9642 N   0  0  0  0  0  0  0  0  0  0  0  0
    5.9331    6.0328  -12.5289 C   0  0  0  0  0  0  0  0  0  0  0  0
    4.9094    5.7710  -13.6338 C   0  0  0  0  0  0  0  0  0  0  0  0
    5.5133    4.9148  -14.7363 C   0  0  0  0  0  0  0  0  0  0  0  0
    6.0224    3.6130  -14.1374 C   0  0  0  0  0  0  0  0  0  0  0  0
    7.0077    3.8802  -13.0001 C   0  0  0  0  0  0  0  0  0  0  0  0
    7.8500    7.0083   -9.3746 C   0  0  0  0  0  0  0  0  0  0  0  0
    7.6271    7.5507   -8.1041 C   0  0  0  0  0  0  0  0  0  0  0  0
    5.2495    7.6006   -4.0072 C   0  0  0  0  0  0  0  0  0  0  0  0
    5.7774    8.2892   -2.9089 C   0  0  0  0  0  0  0  0  0  0  0  0
    4.9688    9.1454   -2.1589 C   0  0  0  0  0  0  0  0  0  0  0  0
    3.6310    9.3222   -2.5109 C   0  0  0  0  0  0  0  0  0  0  0  0
    3.1001    8.6478   -3.6082 C   0  0  0  0  0  0  0  0  0  0  0  0
    3.9071    7.7934   -4.3641 C   0  0  0  0  0  0  0  0  0  0  0  0
    0.6582   -0.4250   -0.6257 H   0  0  0  0  0  0  0  0  0  0  0  0
    1.8644    0.0206   -1.8544 H   0  0  0  0  0  0  0  0  0  0  0  0
    0.8688    1.2718   -1.1315 H   0  0  0  0  0  0  0  0  0  0  0  0
    2.9956   -0.3702    0.3766 H   0  0  0  0  0  0  0  0  0  0  0  0
    1.9468    0.8551    1.0990 H   0  0  0  0  0  0  0  0  0  0  0  0
    3.3411    3.8691   -1.0323 H   0  0  0  0  0  0  0  0  0  0  0  0
    4.0873    5.7434   -2.4130 H   0  0  0  0  0  0  0  0  0  0  0  0
    6.1861    1.2307   -2.9610 H   0  0  0  0  0  0  0  0  0  0  0  0
    7.7561    2.4972   -4.7334 H   0  0  0  0  0  0  0  0  0  0  0  0
    6.7732    8.3835   -5.7738 H   0  0  0  0  0  0  0  0  0  0  0  0
    5.3047    5.3250   -7.0056 H   0  0  0  0  0  0  0  0  0  0  0  0
    5.7316    4.3578   -9.2018 H   0  0  0  0  0  0  0  0  0  0  0  0
    8.0839    4.1803  -10.7093 H   0  0  0  0  0  0  0  0  0  0  0  0
    8.3812    5.6857  -11.5602 H   0  0  0  0  0  0  0  0  0  0  0  0
    6.7298    6.6722  -12.9301 H   0  0  0  0  0  0  0  0  0  0  0  0
    5.4261    6.6006  -11.7394 H   0  0  0  0  0  0  0  0  0  0  0  0
    4.5671    6.7246  -14.0509 H   0  0  0  0  0  0  0  0  0  0  0  0
    4.0283    5.2681  -13.2155 H   0  0  0  0  0  0  0  0  0  0  0  0
    6.3412    5.4537  -15.2140 H   0  0  0  0  0  0  0  0  0  0  0  0
    4.7683    4.7105  -15.5121 H   0  0  0  0  0  0  0  0  0  0  0  0
    6.5147    3.0172  -14.9148 H   0  0  0  0  0  0  0  0  0  0  0  0
    5.1763    3.0209  -13.7676 H   0  0  0  0  0  0  0  0  0  0  0  0
    7.9395    4.2696  -13.4306 H   0  0  0  0  0  0  0  0  0  0  0  0
    7.2474    2.9159  -12.5334 H   0  0  0  0  0  0  0  0  0  0  0  0
    8.5845    7.4773  -10.0251 H   0  0  0  0  0  0  0  0  0  0  0  0
    8.2061    8.4166   -7.7931 H   0  0  0  0  0  0  0  0  0  0  0  0
    6.8243    8.1673   -2.6359 H   0  0  0  0  0  0  0  0  0  0  0  0
    5.3863    9.6870   -1.3139 H   0  0  0  0  0  0  0  0  0  0  0  0
    3.0031    9.9940   -1.9300 H   0  0  0  0  0  0  0  0  0  0  0  0
    2.0570    8.7921   -3.8835 H   0  0  0  0  0  0  0  0  0  0  0  0
    3.4892    7.2774   -5.2244 H   0  0  0  0  0  0  0  0  0  0  0  0
  1  2  1  0  0  0  0
  1 37  1  0  0  0  0
  1 38  1  0  0  0  0
  1 39  1  0  0  0  0
  2  3  1  0  0  0  0
  2 40  1  0  0  0  0
  2 41  1  0  0  0  0
  3  4  1  0  0  0  0
  4  5  2  0  0  0  0
  4  6  1  0  0  0  0
  6  7  1  0  0  0  0
  6 11  2  0  0  0  0
  7  8  2  0  0  0  0
  7 42  1  0  0  0  0
  8  9  1  0  0  0  0
  8 43  1  0  0  0  0
  9 10  2  0  0  0  0
  9 15  1  0  0  0  0
 10 11  1  0  0  0  0
 10 12  1  0  0  0  0
 11 44  1  0  0  0  0
 12 13  1  0  0  0  0
 12 45  1  0  0  0  0
 13 14  2  0  0  0  0
 13 15  1  0  0  0  0
 15 16  2  0  0  0  0
 16 17  1  0  0  0  0
 16 31  1  0  0  0  0
 17 18  1  0  0  0  0
 17 46  1  0  0  0  0
 18 19  1  0  0  0  0
 18 30  2  0  0  0  0
 19 20  2  0  0  0  0
 19 47  1  0  0  0  0
 20 21  1  0  0  0  0
 20 48  1  0  0  0  0
 21 22  1  0  0  0  0
 21 29  2  0  0  0  0
 22 23  1  0  0  0  0
 22 49  1  0  0  0  0
 22 50  1  0  0  0  0
 23 24  1  0  0  0  0
 23 28  1  0  0  0  0
 24 25  1  0  0  0  0
 24 51  1  0  0  0  0
 24 52  1  0  0  0  0
 25 26  1  0  0  0  0
 25 53  1  0  0  0  0
 25 54  1  0  0  0  0
 26 27  1  0  0  0  0
 26 55  1  0  0  0  0
 26 56  1  0  0  0  0
 27 28  1  0  0  0  0
 27 57  1  0  0  0  0
 27 58  1  0  0  0  0
 28 59  1  0  0  0  0
 28 60  1  0  0  0  0
 29 30  1  0  0  0  0
 29 61  1  0  0  0  0
 30 62  1  0  0  0  0
 31 32  1  0  0  0  0
 31 36  2  0  0  0  0
 32 33  2  0  0  0  0
 32 63  1  0  0  0  0
 33 34  1  0  0  0  0
 33 64  1  0  0  0  0
 34 35  2  0  0  0  0
 34 65  1  0  0  0  0
 35 36  1  0  0  0  0
 35 66  1  0  0  0  0
 36 67  1  0  0  0  0
M  END
$$$$
