CHEMBL2409785
 OpenBabel04072215363D

 53 57  0  0  0  0  0  0  0  0999 V2000
    2.5118    0.3077    0.0323 C   0  0  0  0  0  0  0  0  0  0  0  0
    1.0122    0.1799    0.0694 C   0  0  0  0  0  0  0  0  0  0  0  0
    0.2819    1.3827    0.1579 C   0  0  0  0  0  0  0  0  0  0  0  0
   -1.1095    1.3852    0.1797 C   0  0  0  0  0  0  0  0  0  0  0  0
   -1.7971    0.1906    0.0317 C   0  0  0  0  0  0  0  0  0  0  0  0
   -3.1768    0.1223   -0.0153 O   0  0  0  0  0  0  0  0  0  0  0  0
   -3.8786    1.0744   -0.7386 C   0  0  0  0  0  0  0  0  0  0  0  0
   -5.2525    1.3100   -0.3006 C   0  0  0  0  0  0  0  0  0  0  0  0
   -6.0362    2.2384   -0.8938 C   0  0  0  0  0  0  0  0  0  0  0  0
   -5.5193    3.0081   -1.9782 C   0  0  0  0  0  0  0  0  0  0  0  0
   -6.0237    3.9653   -2.7335 N   0  0  0  0  0  0  0  0  0  0  0  0
   -4.9648    4.3248   -3.5271 C   0  0  0  0  0  0  0  0  0  0  0  0
   -5.1078    5.3583   -4.4165 N   0  0  0  0  0  0  0  0  0  0  0  0
   -4.0419    5.9604   -5.0359 C   0  0  0  0  0  0  0  0  0  0  0  0
   -2.8526    5.7330   -4.8413 O   0  0  0  0  0  0  0  0  0  0  0  0
   -4.3476    7.0607   -6.0012 C   0  0  0  0  0  0  0  0  0  0  0  0
   -5.1392    8.2659   -5.5529 C   0  0  0  0  0  0  0  0  0  0  0  0
   -5.6837    7.3640   -6.6238 C   0  0  0  0  0  0  0  0  0  0  0  0
   -3.8672    3.5982   -3.3527 N   0  0  0  0  0  0  0  0  0  0  0  0
   -4.2094    2.7464   -2.3761 N   0  0  0  0  0  0  0  0  0  0  0  0
   -3.4175    1.7714   -1.7921 C   0  0  0  0  0  0  0  0  0  0  0  0
   -1.0886   -1.0131   -0.0224 C   0  0  0  0  0  0  0  0  0  0  0  0
    0.3200   -1.0523    0.0093 C   0  0  0  0  0  0  0  0  0  0  0  0
    1.0490   -2.2880    0.0128 N   0  0  0  0  0  0  0  0  0  0  0  0
    0.4915   -3.5732   -0.0415 C   0  0  0  0  0  0  0  0  0  0  0  0
   -0.7047   -3.7637   -0.2366 O   0  0  0  0  0  0  0  0  0  0  0  0
    1.3815   -4.7157    0.1628 C   0  0  0  0  0  0  0  0  0  0  0  0
    2.9060   -4.5796    0.9298 S   0  0  0  0  0  0  0  0  0  0  0  0
    3.0900   -6.2816    1.0236 C   0  0  0  0  0  0  0  0  0  0  0  0
    2.0505   -6.9662    0.4251 C   0  0  0  0  0  0  0  0  0  0  0  0
    1.9176   -8.4582    0.3817 C   0  0  0  0  0  0  0  0  0  0  0  0
    1.0950   -6.0442   -0.1226 C   0  0  0  0  0  0  0  0  0  0  0  0
   -0.2838   -6.6172   -0.9866 Cl  0  0  0  0  0  0  0  0  0  0  0  0
    2.8193    1.3554    0.1479 H   0  0  0  0  0  0  0  0  0  0  0  0
    2.9033   -0.0344   -0.9312 H   0  0  0  0  0  0  0  0  0  0  0  0
    2.9709   -0.2490    0.8488 H   0  0  0  0  0  0  0  0  0  0  0  0
    0.7935    2.3411    0.2045 H   0  0  0  0  0  0  0  0  0  0  0  0
   -1.6366    2.3290    0.2842 H   0  0  0  0  0  0  0  0  0  0  0  0
   -5.6261    0.7139    0.5274 H   0  0  0  0  0  0  0  0  0  0  0  0
   -7.0501    2.4200   -0.5575 H   0  0  0  0  0  0  0  0  0  0  0  0
   -6.0424    5.7155   -4.5106 H   0  0  0  0  0  0  0  0  0  0  0  0
   -3.4920    7.2663   -6.6438 H   0  0  0  0  0  0  0  0  0  0  0  0
   -4.7509    9.2388   -5.8371 H   0  0  0  0  0  0  0  0  0  0  0  0
   -5.6156    8.2519   -4.5802 H   0  0  0  0  0  0  0  0  0  0  0  0
   -5.6804    7.7385   -7.6422 H   0  0  0  0  0  0  0  0  0  0  0  0
   -6.5449    6.7471   -6.3974 H   0  0  0  0  0  0  0  0  0  0  0  0
   -2.4300    1.6637   -2.2174 H   0  0  0  0  0  0  0  0  0  0  0  0
   -1.6919   -1.9096   -0.0985 H   0  0  0  0  0  0  0  0  0  0  0  0
    2.0503   -2.2291    0.1109 H   0  0  0  0  0  0  0  0  0  0  0  0
    3.9508   -6.7057    1.5254 H   0  0  0  0  0  0  0  0  0  0  0  0
    2.7519   -8.9541    0.8877 H   0  0  0  0  0  0  0  0  0  0  0  0
    1.8853   -8.8173   -0.6521 H   0  0  0  0  0  0  0  0  0  0  0  0
    0.9941   -8.7696    0.8837 H   0  0  0  0  0  0  0  0  0  0  0  0
  1  2  1  0  0  0  0
  1 34  1  0  0  0  0
  1 35  1  0  0  0  0
  1 36  1  0  0  0  0
  2  3  1  0  0  0  0
  2 23  2  0  0  0  0
  3  4  2  0  0  0  0
  3 37  1  0  0  0  0
  4  5  1  0  0  0  0
  4 38  1  0  0  0  0
  5  6  1  0  0  0  0
  5 22  2  0  0  0  0
  6  7  1  0  0  0  0
  7  8  1  0  0  0  0
  7 21  2  0  0  0  0
  8  9  2  0  0  0  0
  8 39  1  0  0  0  0
  9 10  1  0  0  0  0
  9 40  1  0  0  0  0
 10 11  2  0  0  0  0
 10 20  1  0  0  0  0
 11 12  1  0  0  0  0
 12 13  1  0  0  0  0
 12 19  2  0  0  0  0
 13 14  1  0  0  0  0
 13 41  1  0  0  0  0
 14 15  2  0  0  0  0
 14 16  1  0  0  0  0
 16 17  1  0  0  0  0
 16 18  1  0  0  0  0
 16 42  1  0  0  0  0
 17 18  1  0  0  0  0
 17 43  1  0  0  0  0
 17 44  1  0  0  0  0
 18 45  1  0  0  0  0
 18 46  1  0  0  0  0
 19 20  1  0  0  0  0
 20 21  1  0  0  0  0
 21 47  1  0  0  0  0
 22 23  1  0  0  0  0
 22 48  1  0  0  0  0
 23 24  1  0  0  0  0
 24 25  1  0  0  0  0
 24 49  1  0  0  0  0
 25 26  2  0  0  0  0
 25 27  1  0  0  0  0
 27 28  1  0  0  0  0
 27 32  2  0  0  0  0
 28 29  1  0  0  0  0
 29 30  2  0  0  0  0
 29 50  1  0  0  0  0
 30 31  1  0  0  0  0
 30 32  1  0  0  0  0
 31 51  1  0  0  0  0
 31 52  1  0  0  0  0
 31 53  1  0  0  0  0
 32 33  1  0  0  0  0
M  END
$$$$
