CHEMBL1985491
 OpenBabel04072215363D

 49 52  0  0  0  0  0  0  0  0999 V2000
    2.8451    0.8857   -2.4607 C   0  0  0  0  0  0  0  0  0  0  0  0
    1.4563    0.5828   -1.9726 C   0  0  0  0  0  0  0  0  0  0  0  0
    0.9659   -0.7298   -2.0373 C   0  0  0  0  0  0  0  0  0  0  0  0
   -0.2994   -1.0212   -1.5495 C   0  0  0  0  0  0  0  0  0  0  0  0
   -1.0968   -0.0044   -1.0199 C   0  0  0  0  0  0  0  0  0  0  0  0
   -2.2377   -0.4022   -0.4443 F   0  0  0  0  0  0  0  0  0  0  0  0
   -0.6649    1.3327   -1.0055 C   0  0  0  0  0  0  0  0  0  0  0  0
   -1.4545    2.4328   -0.5768 N   0  0  0  0  0  0  0  0  0  0  0  0
   -2.8392    2.4291   -0.5086 C   0  0  0  0  0  0  0  0  0  0  0  0
   -3.5513    1.4932   -0.7860 O   0  0  0  0  0  0  0  0  0  0  0  0
   -3.3573    3.6630   -0.1098 N   0  0  0  0  0  0  0  0  0  0  0  0
   -4.7704    3.7688    0.0458 C   0  0  0  0  0  0  0  0  0  0  0  0
   -5.4681    2.8518    0.8304 C   0  0  0  0  0  0  0  0  0  0  0  0
   -6.8690    2.8645    0.8581 C   0  0  0  0  0  0  0  0  0  0  0  0
   -7.6227    3.7988    0.1176 C   0  0  0  0  0  0  0  0  0  0  0  0
   -9.1053    3.8555    0.2156 C   0  0  0  0  0  0  0  0  0  0  0  0
   -9.7615    3.5127    1.4305 C   0  0  0  0  0  0  0  0  0  0  0  0
  -11.1292    3.7081    1.6330 C   0  0  0  0  0  0  0  0  0  0  0  0
  -11.9006    4.3440    0.6691 C   0  0  0  0  0  0  0  0  0  0  0  0
  -11.2782    4.6834   -0.5337 C   0  0  0  0  0  0  0  0  0  0  0  0
   -9.9439    4.3716   -0.8192 C   0  0  0  0  0  0  0  0  0  0  0  0
   -9.8871    4.5730   -2.2324 C   0  0  0  0  0  0  0  0  0  0  0  0
   -9.0533    3.9503   -3.0912 N   0  0  0  0  0  0  0  0  0  0  0  0
  -10.9251    5.2481   -2.7074 N   0  0  0  0  0  0  0  0  0  0  0  0
  -11.7573    5.3014   -1.6615 N   0  0  0  0  0  0  0  0  0  0  0  0
  -13.0964    5.8037   -1.8717 C   0  0  0  0  0  0  0  0  0  0  0  0
   -6.8825    4.7421   -0.6236 C   0  0  0  0  0  0  0  0  0  0  0  0
   -5.4785    4.7451   -0.6482 C   0  0  0  0  0  0  0  0  0  0  0  0
    0.6359    1.6045   -1.4590 C   0  0  0  0  0  0  0  0  0  0  0  0
    3.3490   -0.0211   -2.8180 H   0  0  0  0  0  0  0  0  0  0  0  0
    3.4463    1.3008   -1.6459 H   0  0  0  0  0  0  0  0  0  0  0  0
    2.8074    1.5970   -3.2893 H   0  0  0  0  0  0  0  0  0  0  0  0
    1.5746   -1.5322   -2.4435 H   0  0  0  0  0  0  0  0  0  0  0  0
   -0.6823   -2.0367   -1.5631 H   0  0  0  0  0  0  0  0  0  0  0  0
   -1.0013    3.3253   -0.4877 H   0  0  0  0  0  0  0  0  0  0  0  0
   -2.9120    4.4470   -0.5563 H   0  0  0  0  0  0  0  0  0  0  0  0
   -4.9346    2.0991    1.4030 H   0  0  0  0  0  0  0  0  0  0  0  0
   -7.3613    2.1057    1.4666 H   0  0  0  0  0  0  0  0  0  0  0  0
   -9.1938    3.0957    2.2592 H   0  0  0  0  0  0  0  0  0  0  0  0
  -11.5821    3.3904    2.5687 H   0  0  0  0  0  0  0  0  0  0  0  0
  -12.9595    4.5288    0.8391 H   0  0  0  0  0  0  0  0  0  0  0  0
   -9.6361    3.3993   -3.7320 H   0  0  0  0  0  0  0  0  0  0  0  0
   -8.6266    4.5980   -3.7419 H   0  0  0  0  0  0  0  0  0  0  0  0
  -13.1310    6.3639   -2.8109 H   0  0  0  0  0  0  0  0  0  0  0  0
  -13.3680    6.4601   -1.0419 H   0  0  0  0  0  0  0  0  0  0  0  0
  -13.7686    4.9440   -1.9272 H   0  0  0  0  0  0  0  0  0  0  0  0
   -7.3996    5.5056   -1.1906 H   0  0  0  0  0  0  0  0  0  0  0  0
   -4.9648    5.4733   -1.2677 H   0  0  0  0  0  0  0  0  0  0  0  0
    1.0210    2.6191   -1.4385 H   0  0  0  0  0  0  0  0  0  0  0  0
  1  2  1  0  0  0  0
  1 30  1  0  0  0  0
  1 31  1  0  0  0  0
  1 32  1  0  0  0  0
  2  3  1  0  0  0  0
  2 29  2  0  0  0  0
  3  4  2  0  0  0  0
  3 33  1  0  0  0  0
  4  5  1  0  0  0  0
  4 34  1  0  0  0  0
  5  6  1  0  0  0  0
  5  7  2  0  0  0  0
  7  8  1  0  0  0  0
  7 29  1  0  0  0  0
  8  9  1  0  0  0  0
  8 35  1  0  0  0  0
  9 10  2  0  0  0  0
  9 11  1  0  0  0  0
 11 12  1  0  0  0  0
 11 36  1  0  0  0  0
 12 13  1  0  0  0  0
 12 28  2  0  0  0  0
 13 14  2  0  0  0  0
 13 37  1  0  0  0  0
 14 15  1  0  0  0  0
 14 38  1  0  0  0  0
 15 16  1  0  0  0  0
 15 27  2  0  0  0  0
 16 17  1  0  0  0  0
 16 21  2  0  0  0  0
 17 18  2  0  0  0  0
 17 39  1  0  0  0  0
 18 19  1  0  0  0  0
 18 40  1  0  0  0  0
 19 20  2  0  0  0  0
 19 41  1  0  0  0  0
 20 21  1  0  0  0  0
 20 25  1  0  0  0  0
 21 22  1  0  0  0  0
 22 23  1  0  0  0  0
 22 24  2  0  0  0  0
 23 42  1  0  0  0  0
 23 43  1  0  0  0  0
 24 25  1  0  0  0  0
 25 26  1  0  0  0  0
 26 44  1  0  0  0  0
 26 45  1  0  0  0  0
 26 46  1  0  0  0  0
 27 28  1  0  0  0  0
 27 47  1  0  0  0  0
 28 48  1  0  0  0  0
 29 49  1  0  0  0  0
M  END
$$$$
