CHEMBL269915
 OpenBabel04072215363D

 55 59  0  0  0  0  0  0  0  0999 V2000
    5.0091   -0.7061   -1.9394 C   0  0  0  0  0  0  0  0  0  0  0  0
    3.9118   -0.8323   -1.0332 O   0  0  0  0  0  0  0  0  0  0  0  0
    4.2380   -1.0294    0.2818 C   0  0  0  0  0  0  0  0  0  0  0  0
    5.4435   -0.5597    0.8282 C   0  0  0  0  0  0  0  0  0  0  0  0
    5.8740   -0.9070    2.1012 C   0  0  0  0  0  0  0  0  0  0  0  0
    7.1100   -0.5298    2.4695 N   0  0  0  0  0  0  0  0  0  0  0  0
    7.5835   -0.9582    3.6553 C   0  0  0  0  0  0  0  0  0  0  0  0
    6.8814   -1.7973    4.5023 C   0  0  0  0  0  0  0  0  0  0  0  0
    5.6012   -2.1841    4.1221 C   0  0  0  0  0  0  0  0  0  0  0  0
    5.0341   -3.0790    5.0188 O   0  0  0  0  0  0  0  0  0  0  0  0
    4.1417   -4.0386    4.5966 C   0  0  0  0  0  0  0  0  0  0  0  0
    4.1919   -4.6809    3.3689 C   0  0  0  0  0  0  0  0  0  0  0  0
    3.0672   -5.3786    2.9128 C   0  0  0  0  0  0  0  0  0  0  0  0
    1.9272   -5.5889    3.7316 C   0  0  0  0  0  0  0  0  0  0  0  0
    0.7132   -6.2228    3.3286 C   0  0  0  0  0  0  0  0  0  0  0  0
    0.4011   -6.6098    1.9195 C   0  0  0  0  0  0  0  0  0  0  0  0
   -0.7188   -6.3613    1.4789 O   0  0  0  0  0  0  0  0  0  0  0  0
    1.3700   -7.3239    1.2564 N   0  0  0  0  0  0  0  0  0  0  0  0
    1.2066   -7.8580   -0.0238 C   0  0  0  0  0  0  0  0  0  0  0  0
    0.5222   -7.2113   -1.0407 C   0  0  0  0  0  0  0  0  0  0  0  0
    0.3762   -7.8530   -2.2680 C   0  0  0  0  0  0  0  0  0  0  0  0
    0.8778   -9.1403   -2.4175 C   0  0  0  0  0  0  0  0  0  0  0  0
    1.5639   -9.7002   -1.3544 C   0  0  0  0  0  0  0  0  0  0  0  0
    1.7783   -9.0707   -0.1802 N   0  0  0  0  0  0  0  0  0  0  0  0
   -0.3323   -6.4194    4.2502 C   0  0  0  0  0  0  0  0  0  0  0  0
   -0.2094   -5.9868    5.5646 C   0  0  0  0  0  0  0  0  0  0  0  0
    0.9401   -5.3118    5.9598 C   0  0  0  0  0  0  0  0  0  0  0  0
    1.9952   -5.0909    5.0597 C   0  0  0  0  0  0  0  0  0  0  0  0
    3.0891   -4.3111    5.4686 C   0  0  0  0  0  0  0  0  0  0  0  0
    5.0346   -1.6750    2.9196 C   0  0  0  0  0  0  0  0  0  0  0  0
    3.7148   -1.9044    2.4520 C   0  0  0  0  0  0  0  0  0  0  0  0
    3.3442   -1.6883    1.1221 C   0  0  0  0  0  0  0  0  0  0  0  0
    2.1206   -2.2294    0.8492 O   0  0  0  0  0  0  0  0  0  0  0  0
    1.7172   -2.4258   -0.4955 C   0  0  0  0  0  0  0  0  0  0  0  0
    4.7154   -1.1531   -2.8934 H   0  0  0  0  0  0  0  0  0  0  0  0
    5.9139   -1.2326   -1.6103 H   0  0  0  0  0  0  0  0  0  0  0  0
    5.2243    0.3538   -2.1051 H   0  0  0  0  0  0  0  0  0  0  0  0
    6.1145    0.0580    0.2371 H   0  0  0  0  0  0  0  0  0  0  0  0
    8.5877   -0.6221    3.9032 H   0  0  0  0  0  0  0  0  0  0  0  0
    7.3322   -2.1466    5.4215 H   0  0  0  0  0  0  0  0  0  0  0  0
    5.0310   -4.5358    2.6920 H   0  0  0  0  0  0  0  0  0  0  0  0
    3.0867   -5.7031    1.8752 H   0  0  0  0  0  0  0  0  0  0  0  0
    2.0629   -7.8076    1.8052 H   0  0  0  0  0  0  0  0  0  0  0  0
    0.1286   -6.2035   -0.9064 H   0  0  0  0  0  0  0  0  0  0  0  0
   -0.1420   -7.3657   -3.0881 H   0  0  0  0  0  0  0  0  0  0  0  0
    0.7360   -9.6945   -3.3386 H   0  0  0  0  0  0  0  0  0  0  0  0
    1.9590  -10.7103   -1.4125 H   0  0  0  0  0  0  0  0  0  0  0  0
   -1.2558   -6.9004    3.9335 H   0  0  0  0  0  0  0  0  0  0  0  0
   -1.0228   -6.1398    6.2705 H   0  0  0  0  0  0  0  0  0  0  0  0
    0.9993   -4.9379    6.9807 H   0  0  0  0  0  0  0  0  0  0  0  0
    3.0964   -3.8508    6.4542 H   0  0  0  0  0  0  0  0  0  0  0  0
    2.9714   -2.3555    3.1036 H   0  0  0  0  0  0  0  0  0  0  0  0
    0.9255   -3.1831   -0.4902 H   0  0  0  0  0  0  0  0  0  0  0  0
    2.5157   -2.8150   -1.1343 H   0  0  0  0  0  0  0  0  0  0  0  0
    1.2896   -1.5011   -0.8927 H   0  0  0  0  0  0  0  0  0  0  0  0
  1  2  1  0  0  0  0
  1 35  1  0  0  0  0
  1 36  1  0  0  0  0
  1 37  1  0  0  0  0
  2  3  1  0  0  0  0
  3  4  1  0  0  0  0
  3 32  2  0  0  0  0
  4  5  2  0  0  0  0
  4 38  1  0  0  0  0
  5  6  1  0  0  0  0
  5 30  1  0  0  0  0
  6  7  2  0  0  0  0
  7  8  1  0  0  0  0
  7 39  1  0  0  0  0
  8  9  2  0  0  0  0
  8 40  1  0  0  0  0
  9 10  1  0  0  0  0
  9 30  1  0  0  0  0
 10 11  1  0  0  0  0
 11 12  1  0  0  0  0
 11 29  2  0  0  0  0
 12 13  2  0  0  0  0
 12 41  1  0  0  0  0
 13 14  1  0  0  0  0
 13 42  1  0  0  0  0
 14 15  1  0  0  0  0
 14 28  2  0  0  0  0
 15 16  1  0  0  0  0
 15 25  2  0  0  0  0
 16 17  2  0  0  0  0
 16 18  1  0  0  0  0
 18 19  1  0  0  0  0
 18 43  1  0  0  0  0
 19 20  1  0  0  0  0
 19 24  2  0  0  0  0
 20 21  2  0  0  0  0
 20 44  1  0  0  0  0
 21 22  1  0  0  0  0
 21 45  1  0  0  0  0
 22 23  2  0  0  0  0
 22 46  1  0  0  0  0
 23 24  1  0  0  0  0
 23 47  1  0  0  0  0
 25 26  1  0  0  0  0
 25 48  1  0  0  0  0
 26 27  2  0  0  0  0
 26 49  1  0  0  0  0
 27 28  1  0  0  0  0
 27 50  1  0  0  0  0
 28 29  1  0  0  0  0
 29 51  1  0  0  0  0
 30 31  2  0  0  0  0
 31 32  1  0  0  0  0
 31 52  1  0  0  0  0
 32 33  1  0  0  0  0
 33 34  1  0  0  0  0
 34 53  1  0  0  0  0
 34 54  1  0  0  0  0
 34 55  1  0  0  0  0
M  END
$$$$
