CHEMBL3964701
 OpenBabel04072215373D

 64 67  0  0  1  0  0  0  0  0999 V2000
    8.3599    4.9782   -3.4988 C   0  0  0  0  0  0  0  0  0  0  0  0
    8.3244    4.1092   -2.3611 O   0  0  0  0  0  0  0  0  0  0  0  0
    7.5772    4.5191   -1.2801 C   0  0  0  0  0  0  0  0  0  0  0  0
    6.8707    5.7203   -1.2273 C   0  0  0  0  0  0  0  0  0  0  0  0
    6.0892    6.0161   -0.1132 C   0  0  0  0  0  0  0  0  0  0  0  0
    5.3126    7.1338    0.0431 O   0  0  0  0  0  0  0  0  0  0  0  0
    5.3953    8.1249   -0.9747 C   0  0  0  0  0  0  0  0  0  0  0  0
    6.0343    5.1129    0.9585 C   0  0  0  0  0  0  0  0  0  0  0  0
    6.7423    3.8988    0.9608 C   0  0  0  0  0  0  0  0  0  0  0  0
    6.5587    2.9158    1.9711 N   0  0  0  0  0  0  0  0  0  0  0  0
    5.1582    2.8381    2.5623 C   0  0  0  0  0  0  0  0  0  0  0  0
    4.0002    2.5562    1.5750 C   0  0  1  0  0  0  0  0  0  0  0  0
    4.2013    1.2927    0.8955 O   0  0  0  0  0  0  0  0  0  0  0  0
    2.6604    2.5944    2.3532 C   0  0  0  0  0  0  0  0  0  0  0  0
    2.8261    2.9192    3.6570 F   0  0  0  0  0  0  0  0  0  0  0  0
    1.8012    3.4945    1.8248 F   0  0  0  0  0  0  0  0  0  0  0  0
    2.0428    1.3872    2.3365 F   0  0  0  0  0  0  0  0  0  0  0  0
    7.4952    2.4007    2.9438 C   0  0  0  0  0  0  0  0  0  0  0  0
    7.2867    1.0718    3.3084 C   0  0  0  0  0  0  0  0  0  0  0  0
    7.6634    0.6292    4.5694 C   0  0  0  0  0  0  0  0  0  0  0  0
    8.4293    1.3970    5.4034 C   0  0  0  0  0  0  0  0  0  0  0  0
    8.5431    0.9147    6.6480 N   0  0  0  0  0  0  0  0  0  0  0  0
    9.4757    1.4653    7.4152 C   0  0  0  0  0  0  0  0  0  0  0  0
   10.3570    2.4116    6.9195 C   0  0  0  0  0  0  0  0  0  0  0  0
   11.6903    2.3660    7.5252 C   0  0  0  0  0  0  0  0  0  0  0  0
   12.4304    3.2440    8.3537 C   0  0  0  0  0  0  0  0  0  0  0  0
   13.5650    2.7000    8.8138 N   0  0  0  0  0  0  0  0  0  0  0  0
   13.5616    1.4566    8.2955 N   0  0  0  0  0  0  0  0  0  0  0  0
   14.7196    0.5845    8.4269 C   0  0  0  0  0  0  0  0  0  0  0  0
   15.5874    0.5659    7.1679 C   0  0  0  0  0  0  0  0  0  0  0  0
   16.1248    1.9354    6.7488 C   0  0  0  0  0  0  0  0  0  0  0  0
   16.9959    2.5132    7.7662 N   0  0  0  0  0  0  0  0  0  0  0  0
   12.4108    1.1792    7.6145 C   0  0  0  0  0  0  0  0  0  0  0  0
   10.1143    3.0517    5.7173 N   0  0  0  0  0  0  0  0  0  0  0  0
    9.0574    2.5725    4.9312 C   0  0  0  0  0  0  0  0  0  0  0  0
    8.4724    3.1092    3.7018 C   0  0  0  0  0  0  0  0  0  0  0  0
    7.5201    3.6247   -0.1840 C   0  0  0  0  0  0  0  0  0  0  0  0
    8.9223    4.4840   -4.2937 H   0  0  0  0  0  0  0  0  0  0  0  0
    8.8768    5.9141   -3.2554 H   0  0  0  0  0  0  0  0  0  0  0  0
    7.3547    5.1823   -3.8899 H   0  0  0  0  0  0  0  0  0  0  0  0
    6.9059    6.4153   -2.0562 H   0  0  0  0  0  0  0  0  0  0  0  0
    4.7462    8.9570   -0.6859 H   0  0  0  0  0  0  0  0  0  0  0  0
    5.0348    7.7418   -1.9356 H   0  0  0  0  0  0  0  0  0  0  0  0
    6.4157    8.5139   -1.0630 H   0  0  0  0  0  0  0  0  0  0  0  0
    5.3982    5.3845    1.7946 H   0  0  0  0  0  0  0  0  0  0  0  0
    4.9683    3.7484    3.1417 H   0  0  0  0  0  0  0  0  0  0  0  0
    5.0983    2.0175    3.2892 H   0  0  0  0  0  0  0  0  0  0  0  0
    3.9528    3.3145    0.7898 H   0  0  0  0  0  0  0  0  0  0  0  0
    4.1329    0.5752    1.5505 H   0  0  0  0  0  0  0  0  0  0  0  0
    6.6827    0.4200    2.6820 H   0  0  0  0  0  0  0  0  0  0  0  0
    7.3335   -0.3482    4.9051 H   0  0  0  0  0  0  0  0  0  0  0  0
    9.5963    1.0222    8.3978 H   0  0  0  0  0  0  0  0  0  0  0  0
   12.1803    4.2457    8.6781 H   0  0  0  0  0  0  0  0  0  0  0  0
   14.3470   -0.4293    8.6336 H   0  0  0  0  0  0  0  0  0  0  0  0
   15.2918    0.8940    9.3099 H   0  0  0  0  0  0  0  0  0  0  0  0
   15.0035    0.1569    6.3335 H   0  0  0  0  0  0  0  0  0  0  0  0
   16.4281   -0.1239    7.3204 H   0  0  0  0  0  0  0  0  0  0  0  0
   15.3046    2.6265    6.5286 H   0  0  0  0  0  0  0  0  0  0  0  0
   16.6970    1.8212    5.8217 H   0  0  0  0  0  0  0  0  0  0  0  0
   16.4317    2.7531    8.5861 H   0  0  0  0  0  0  0  0  0  0  0  0
   17.3373    3.4133    7.4260 H   0  0  0  0  0  0  0  0  0  0  0  0
   12.2093    0.1845    7.2429 H   0  0  0  0  0  0  0  0  0  0  0  0
    8.7662    4.1120    3.3939 H   0  0  0  0  0  0  0  0  0  0  0  0
    8.0325    2.6696   -0.2692 H   0  0  0  0  0  0  0  0  0  0  0  0
  1  2  1  0  0  0  0
  1 38  1  0  0  0  0
  1 39  1  0  0  0  0
  1 40  1  0  0  0  0
  2  3  1  0  0  0  0
  3  4  1  0  0  0  0
  3 37  2  0  0  0  0
  4  5  2  0  0  0  0
  4 41  1  0  0  0  0
  5  6  1  0  0  0  0
  5  8  1  0  0  0  0
  6  7  1  0  0  0  0
  7 42  1  0  0  0  0
  7 43  1  0  0  0  0
  7 44  1  0  0  0  0
  8  9  2  0  0  0  0
  8 45  1  0  0  0  0
  9 10  1  0  0  0  0
  9 37  1  0  0  0  0
 10 11  1  0  0  0  0
 10 18  1  0  0  0  0
 11 12  1  0  0  0  0
 11 46  1  0  0  0  0
 11 47  1  0  0  0  0
 12 13  1  0  0  0  0
 12 14  1  0  0  0  0
 12 48  1  6  0  0  0
 13 49  1  0  0  0  0
 14 15  1  0  0  0  0
 14 16  1  0  0  0  0
 14 17  1  0  0  0  0
 18 19  1  0  0  0  0
 18 36  2  0  0  0  0
 19 20  2  0  0  0  0
 19 50  1  0  0  0  0
 20 21  1  0  0  0  0
 20 51  1  0  0  0  0
 21 22  1  0  0  0  0
 21 35  2  0  0  0  0
 22 23  2  0  0  0  0
 23 24  1  0  0  0  0
 23 52  1  0  0  0  0
 24 25  1  0  0  0  0
 24 34  2  0  0  0  0
 25 26  1  0  0  0  0
 25 33  2  0  0  0  0
 26 27  2  0  0  0  0
 26 53  1  0  0  0  0
 27 28  1  0  0  0  0
 28 29  1  0  0  0  0
 28 33  1  0  0  0  0
 29 30  1  0  0  0  0
 29 54  1  0  0  0  0
 29 55  1  0  0  0  0
 30 31  1  0  0  0  0
 30 56  1  0  0  0  0
 30 57  1  0  0  0  0
 31 32  1  0  0  0  0
 31 58  1  0  0  0  0
 31 59  1  0  0  0  0
 32 60  1  0  0  0  0
 32 61  1  0  0  0  0
 33 62  1  0  0  0  0
 34 35  1  0  0  0  0
 35 36  1  0  0  0  0
 36 63  1  0  0  0  0
 37 64  1  0  0  0  0
M  END
$$$$
