CHEMBL1980671
 OpenBabel04072215363D

 26 28  0  0  0  0  0  0  0  0999 V2000
    1.0569   -0.0973    0.1643 N   0  0  0  0  0  0  0  0  0  0  0  0
    2.4249   -0.0132   -0.0917 C   0  0  0  0  0  0  0  0  0  0  0  0
    3.1298   -1.1000    0.2648 N   0  0  0  0  0  0  0  0  0  0  0  0
    4.4549   -1.0217    0.1100 C   0  0  0  0  0  0  0  0  0  0  0  0
    5.1301    0.0287   -0.3719 N   0  0  0  0  0  0  0  0  0  0  0  0
    4.3984    1.1203   -0.6899 C   0  0  0  0  0  0  0  0  0  0  0  0
    3.0285    1.1478   -0.5685 C   0  0  0  0  0  0  0  0  0  0  0  0
    2.2035    2.2945   -0.9448 C   0  0  0  0  0  0  0  0  0  0  0  0
    1.1136    2.1055   -1.4913 O   0  0  0  0  0  0  0  0  0  0  0  0
    2.5576    3.5626   -0.5735 N   0  0  0  0  0  0  0  0  0  0  0  0
    3.8138    4.1098   -0.2667 C   0  0  0  0  0  0  0  0  0  0  0  0
    3.7975    5.3931    0.3014 C   0  0  0  0  0  0  0  0  0  0  0  0
    4.9807    6.0994    0.5097 C   0  0  0  0  0  0  0  0  0  0  0  0
    6.1891    5.5489    0.1049 C   0  0  0  0  0  0  0  0  0  0  0  0
    6.2151    4.2694   -0.4515 C   0  0  0  0  0  0  0  0  0  0  0  0
    5.0408    3.5061   -0.5903 C   0  0  0  0  0  0  0  0  0  0  0  0
    5.1629    2.2072   -1.1299 N   0  0  0  0  0  0  0  0  0  0  0  0
    0.8097   -1.0522    0.3902 H   0  0  0  0  0  0  0  0  0  0  0  0
    0.5097    0.3062   -0.6007 H   0  0  0  0  0  0  0  0  0  0  0  0
    5.0359   -1.8837    0.4174 H   0  0  0  0  0  0  0  0  0  0  0  0
    1.7773    4.2076   -0.6211 H   0  0  0  0  0  0  0  0  0  0  0  0
    2.8574    5.8532    0.5966 H   0  0  0  0  0  0  0  0  0  0  0  0
    4.9536    7.0858    0.9650 H   0  0  0  0  0  0  0  0  0  0  0  0
    7.1123    6.1102    0.2223 H   0  0  0  0  0  0  0  0  0  0  0  0
    7.1734    3.8624   -0.7668 H   0  0  0  0  0  0  0  0  0  0  0  0
    6.1281    1.8833   -1.1207 H   0  0  0  0  0  0  0  0  0  0  0  0
  1  2  1  0  0  0  0
  1 18  1  0  0  0  0
  1 19  1  0  0  0  0
  2  3  1  0  0  0  0
  2  7  2  0  0  0  0
  3  4  2  0  0  0  0
  4  5  1  0  0  0  0
  4 20  1  0  0  0  0
  5  6  2  0  0  0  0
  6  7  1  0  0  0  0
  6 17  1  0  0  0  0
  7  8  1  0  0  0  0
  8  9  2  0  0  0  0
  8 10  1  0  0  0  0
 10 11  1  0  0  0  0
 10 21  1  0  0  0  0
 11 12  1  0  0  0  0
 11 16  2  0  0  0  0
 12 13  2  0  0  0  0
 12 22  1  0  0  0  0
 13 14  1  0  0  0  0
 13 23  1  0  0  0  0
 14 15  2  0  0  0  0
 14 24  1  0  0  0  0
 15 16  1  0  0  0  0
 15 25  1  0  0  0  0
 16 17  1  0  0  0  0
 17 26  1  0  0  0  0
M  END
$$$$
