CHEMBL1988076
 OpenBabel04072215363D

 59 64  0  0  0  0  0  0  0  0999 V2000
   -1.4733   -4.1135    1.9414 C   0  0  0  0  0  0  0  0  0  0  0  0
   -0.9726   -2.7087    2.1387 C   0  0  0  0  0  0  0  0  0  0  0  0
   -1.7442   -1.8257    2.9174 C   0  0  0  0  0  0  0  0  0  0  0  0
   -1.3231   -0.5184    3.1544 C   0  0  0  0  0  0  0  0  0  0  0  0
   -0.1347   -0.0662    2.6030 C   0  0  0  0  0  0  0  0  0  0  0  0
    0.6275   -0.9242    1.8112 C   0  0  0  0  0  0  0  0  0  0  0  0
    0.2395   -2.2572    1.5770 C   0  0  0  0  0  0  0  0  0  0  0  0
    1.0158   -3.1051    0.7475 N   0  0  0  0  0  0  0  0  0  0  0  0
    2.3825   -2.9484    0.4787 C   0  0  0  0  0  0  0  0  0  0  0  0
    2.8233   -3.2849   -0.7412 N   0  0  0  0  0  0  0  0  0  0  0  0
    4.1320   -3.0770   -0.9935 C   0  0  0  0  0  0  0  0  0  0  0  0
    5.0076   -2.5301   -0.0874 C   0  0  0  0  0  0  0  0  0  0  0  0
    4.4549   -2.1714    1.1166 C   0  0  0  0  0  0  0  0  0  0  0  0
    5.1408   -1.3788    2.1256 C   0  0  0  0  0  0  0  0  0  0  0  0
    6.0093   -0.2773    2.0688 C   0  0  0  0  0  0  0  0  0  0  0  0
    6.5283    0.4103    0.8858 C   0  0  0  0  0  0  0  0  0  0  0  0
    7.7994    0.9926    0.9698 C   0  0  0  0  0  0  0  0  0  0  0  0
    8.3630    1.6275   -0.1326 C   0  0  0  0  0  0  0  0  0  0  0  0
    7.6816    1.6535   -1.3494 C   0  0  0  0  0  0  0  0  0  0  0  0
    6.4208    1.0679   -1.4736 C   0  0  0  0  0  0  0  0  0  0  0  0
    5.7235    0.9618   -2.7063 N   0  0  0  0  0  0  0  0  0  0  0  0
    6.1982    1.3397   -3.9542 C   0  0  0  0  0  0  0  0  0  0  0  0
    7.2872    1.8654   -4.1817 O   0  0  0  0  0  0  0  0  0  0  0  0
    5.3307    1.0399   -5.1339 C   0  0  0  0  0  0  0  0  0  0  0  0
    3.9371    0.9453   -5.0551 C   0  0  0  0  0  0  0  0  0  0  0  0
    3.1864    0.6910   -6.2097 C   0  0  0  0  0  0  0  0  0  0  0  0
    3.8202    0.5390   -7.4455 C   0  0  0  0  0  0  0  0  0  0  0  0
    5.2054    0.6444   -7.5332 C   0  0  0  0  0  0  0  0  0  0  0  0
    5.9557    0.8947   -6.3825 C   0  0  0  0  0  0  0  0  0  0  0  0
    5.8257    0.5109   -0.3291 C   0  0  0  0  0  0  0  0  0  0  0  0
    6.4120    0.1230    3.3389 N   0  0  0  0  0  0  0  0  0  0  0  0
    5.7616   -0.6769    4.1310 C   0  0  0  0  0  0  0  0  0  0  0  0
    5.6672   -0.8616    5.8554 S   0  0  0  0  0  0  0  0  0  0  0  0
    4.5206   -2.1903    5.6138 C   0  0  0  0  0  0  0  0  0  0  0  0
    4.2762   -2.4343    4.3141 C   0  0  0  0  0  0  0  0  0  0  0  0
    4.9774   -1.5801    3.4832 N   0  0  0  0  0  0  0  0  0  0  0  0
    3.1735   -2.4174    1.4205 N   0  0  0  0  0  0  0  0  0  0  0  0
   -2.2890   -4.3418    2.6378 H   0  0  0  0  0  0  0  0  0  0  0  0
   -0.6808   -4.8431    2.1346 H   0  0  0  0  0  0  0  0  0  0  0  0
   -1.8541   -4.2421    0.9240 H   0  0  0  0  0  0  0  0  0  0  0  0
   -2.6819   -2.1598    3.3579 H   0  0  0  0  0  0  0  0  0  0  0  0
   -1.9225    0.1470    3.7703 H   0  0  0  0  0  0  0  0  0  0  0  0
    0.2081    0.9472    2.7803 H   0  0  0  0  0  0  0  0  0  0  0  0
    1.5421   -0.5287    1.3776 H   0  0  0  0  0  0  0  0  0  0  0  0
    0.5584   -3.3060   -0.1341 H   0  0  0  0  0  0  0  0  0  0  0  0
    4.4610   -3.3400   -1.9955 H   0  0  0  0  0  0  0  0  0  0  0  0
    6.0426   -2.3413   -0.3393 H   0  0  0  0  0  0  0  0  0  0  0  0
    8.3602    0.9555    1.9027 H   0  0  0  0  0  0  0  0  0  0  0  0
    9.3446    2.0878   -0.0526 H   0  0  0  0  0  0  0  0  0  0  0  0
    8.1744    2.1420   -2.1831 H   0  0  0  0  0  0  0  0  0  0  0  0
    4.8504    0.4531   -2.6740 H   0  0  0  0  0  0  0  0  0  0  0  0
    3.4081    1.1008   -4.1213 H   0  0  0  0  0  0  0  0  0  0  0  0
    2.1034    0.6248   -6.1517 H   0  0  0  0  0  0  0  0  0  0  0  0
    3.2318    0.3535   -8.3415 H   0  0  0  0  0  0  0  0  0  0  0  0
    5.7017    0.5467   -8.4948 H   0  0  0  0  0  0  0  0  0  0  0  0
    7.0387    0.9861   -6.4671 H   0  0  0  0  0  0  0  0  0  0  0  0
    4.8071    0.1414   -0.3929 H   0  0  0  0  0  0  0  0  0  0  0  0
    4.0898   -2.7231    6.4479 H   0  0  0  0  0  0  0  0  0  0  0  0
    3.6140   -3.1853    3.9109 H   0  0  0  0  0  0  0  0  0  0  0  0
  1  2  1  0  0  0  0
  1 38  1  0  0  0  0
  1 39  1  0  0  0  0
  1 40  1  0  0  0  0
  2  3  1  0  0  0  0
  2  7  2  0  0  0  0
  3  4  2  0  0  0  0
  3 41  1  0  0  0  0
  4  5  1  0  0  0  0
  4 42  1  0  0  0  0
  5  6  2  0  0  0  0
  5 43  1  0  0  0  0
  6  7  1  0  0  0  0
  6 44  1  0  0  0  0
  7  8  1  0  0  0  0
  8  9  1  0  0  0  0
  8 45  1  0  0  0  0
  9 10  1  0  0  0  0
  9 37  2  0  0  0  0
 10 11  2  0  0  0  0
 11 12  1  0  0  0  0
 11 46  1  0  0  0  0
 12 13  2  0  0  0  0
 12 47  1  0  0  0  0
 13 14  1  0  0  0  0
 13 37  1  0  0  0  0
 14 15  2  0  0  0  0
 14 36  1  0  0  0  0
 15 16  1  0  0  0  0
 15 31  1  0  0  0  0
 16 17  1  0  0  0  0
 16 30  2  0  0  0  0
 17 18  2  0  0  0  0
 17 48  1  0  0  0  0
 18 19  1  0  0  0  0
 18 49  1  0  0  0  0
 19 20  2  0  0  0  0
 19 50  1  0  0  0  0
 20 21  1  0  0  0  0
 20 30  1  0  0  0  0
 21 22  1  0  0  0  0
 21 51  1  0  0  0  0
 22 23  2  0  0  0  0
 22 24  1  0  0  0  0
 24 25  1  0  0  0  0
 24 29  2  0  0  0  0
 25 26  2  0  0  0  0
 25 52  1  0  0  0  0
 26 27  1  0  0  0  0
 26 53  1  0  0  0  0
 27 28  2  0  0  0  0
 27 54  1  0  0  0  0
 28 29  1  0  0  0  0
 28 55  1  0  0  0  0
 29 56  1  0  0  0  0
 30 57  1  0  0  0  0
 31 32  2  0  0  0  0
 32 33  1  0  0  0  0
 32 36  1  0  0  0  0
 33 34  1  0  0  0  0
 34 35  2  0  0  0  0
 34 58  1  0  0  0  0
 35 36  1  0  0  0  0
 35 59  1  0  0  0  0
M  END
$$$$
