CHEMBL3690379
 OpenBabel04072215373D

 50 52  0  0  0  0  0  0  0  0999 V2000
    0.9389   -0.0429   -0.0393 C   0  0  0  0  0  0  0  0  0  0  0  0
    2.4022   -0.0285   -0.0475 N   0  0  0  0  0  0  0  0  0  0  0  0
    2.8779    1.3478   -0.2207 C   0  0  0  0  0  0  0  0  0  0  0  0
    2.9202   -0.6513    1.1831 C   0  0  0  0  0  0  0  0  0  0  0  0
    4.4402   -0.6513    1.1831 C   0  0  0  0  0  0  0  0  0  0  0  0
    5.7440   -0.6513    1.1831 C   0  0  0  0  0  0  0  0  0  0  0  0
    7.2640   -0.6513    1.1831 C   0  0  0  0  0  0  0  0  0  0  0  0
    7.9528    0.4603    1.8064 C   0  0  0  0  0  0  0  0  0  0  0  0
    9.2939    0.4355    1.8634 C   0  0  0  0  0  0  0  0  0  0  0  0
   10.0031   -0.6251    1.2800 N   0  0  0  0  0  0  0  0  0  0  0  0
   11.3718   -0.8571    1.1498 C   0  0  0  0  0  0  0  0  0  0  0  0
   12.4641    0.0284    1.5737 C   0  0  0  0  0  0  0  0  0  0  0  0
   12.3308    1.4205    1.5030 C   0  0  0  0  0  0  0  0  0  0  0  0
   13.3583    2.2592    1.9135 C   0  0  0  0  0  0  0  0  0  0  0  0
   14.5613    1.7165    2.3477 C   0  0  0  0  0  0  0  0  0  0  0  0
   14.7506    0.3332    2.3998 C   0  0  0  0  0  0  0  0  0  0  0  0
   15.9837   -0.2431    2.7958 N   0  0  0  0  0  0  0  0  0  0  0  0
   16.9769    0.4208    3.4759 C   0  0  0  0  0  0  0  0  0  0  0  0
   16.9057    1.5550    3.9408 O   0  0  0  0  0  0  0  0  0  0  0  0
   18.1465   -0.2891    3.5799 N   0  0  0  0  0  0  0  0  0  0  0  0
   19.2600    0.3290    4.3143 C   0  0  0  0  0  0  0  0  0  0  0  0
   19.1985    0.2453    5.8478 C   0  0  0  0  0  0  0  0  0  0  0  0
   18.1578   -0.5013    6.2820 F   0  0  0  0  0  0  0  0  0  0  0  0
   20.3265   -0.3455    6.3190 F   0  0  0  0  0  0  0  0  0  0  0  0
   19.1155    1.4616    6.4266 F   0  0  0  0  0  0  0  0  0  0  0  0
   13.6945   -0.5062    2.0109 C   0  0  0  0  0  0  0  0  0  0  0  0
   11.4420   -2.0852    0.5075 C   0  0  0  0  0  0  0  0  0  0  0  0
   10.2075   -2.5993    0.2265 N   0  0  0  0  0  0  0  0  0  0  0  0
    9.3560   -1.7060    0.6775 C   0  0  0  0  0  0  0  0  0  0  0  0
    7.9324   -1.6910    0.6467 C   0  0  0  0  0  0  0  0  0  0  0  0
    0.5455    0.3637   -0.9783 H   0  0  0  0  0  0  0  0  0  0  0  0
    0.5255    0.5453    0.7885 H   0  0  0  0  0  0  0  0  0  0  0  0
    0.5612   -1.0676    0.0408 H   0  0  0  0  0  0  0  0  0  0  0  0
    2.4668    1.7820   -1.1395 H   0  0  0  0  0  0  0  0  0  0  0  0
    3.9661    1.3881   -0.3405 H   0  0  0  0  0  0  0  0  0  0  0  0
    2.5977    1.9920    0.6201 H   0  0  0  0  0  0  0  0  0  0  0  0
    2.5836   -1.6928    1.2466 H   0  0  0  0  0  0  0  0  0  0  0  0
    2.5662   -0.1239    2.0775 H   0  0  0  0  0  0  0  0  0  0  0  0
    7.3761    1.2792    2.2229 H   0  0  0  0  0  0  0  0  0  0  0  0
    9.8438    1.2246    2.3523 H   0  0  0  0  0  0  0  0  0  0  0  0
   11.4359    1.8879    1.1045 H   0  0  0  0  0  0  0  0  0  0  0  0
   13.2351    3.3379    1.8743 H   0  0  0  0  0  0  0  0  0  0  0  0
   15.3536    2.4134    2.6010 H   0  0  0  0  0  0  0  0  0  0  0  0
   16.1063   -1.2299    2.6296 H   0  0  0  0  0  0  0  0  0  0  0  0
   18.0924   -1.2965    3.5578 H   0  0  0  0  0  0  0  0  0  0  0  0
   19.3191    1.3865    4.0265 H   0  0  0  0  0  0  0  0  0  0  0  0
   20.1736   -0.1492    3.9505 H   0  0  0  0  0  0  0  0  0  0  0  0
   13.8174   -1.5853    2.0665 H   0  0  0  0  0  0  0  0  0  0  0  0
   12.3367   -2.6172    0.2077 H   0  0  0  0  0  0  0  0  0  0  0  0
    7.4167   -2.5352    0.2016 H   0  0  0  0  0  0  0  0  0  0  0  0
  1  2  1  0  0  0  0
  1 31  1  0  0  0  0
  1 32  1  0  0  0  0
  1 33  1  0  0  0  0
  2  3  1  0  0  0  0
  2  4  1  0  0  0  0
  3 34  1  0  0  0  0
  3 35  1  0  0  0  0
  3 36  1  0  0  0  0
  4  5  1  0  0  0  0
  4 37  1  0  0  0  0
  4 38  1  0  0  0  0
  5  6  3  0  0  0  0
  6  7  1  0  0  0  0
  7  8  1  0  0  0  0
  7 30  2  0  0  0  0
  8  9  2  0  0  0  0
  8 39  1  0  0  0  0
  9 10  1  0  0  0  0
  9 40  1  0  0  0  0
 10 11  1  0  0  0  0
 10 29  1  0  0  0  0
 11 12  1  0  0  0  0
 11 27  2  0  0  0  0
 12 13  1  0  0  0  0
 12 26  2  0  0  0  0
 13 14  2  0  0  0  0
 13 41  1  0  0  0  0
 14 15  1  0  0  0  0
 14 42  1  0  0  0  0
 15 16  2  0  0  0  0
 15 43  1  0  0  0  0
 16 17  1  0  0  0  0
 16 26  1  0  0  0  0
 17 18  1  0  0  0  0
 17 44  1  0  0  0  0
 18 19  2  0  0  0  0
 18 20  1  0  0  0  0
 20 21  1  0  0  0  0
 20 45  1  0  0  0  0
 21 22  1  0  0  0  0
 21 46  1  0  0  0  0
 21 47  1  0  0  0  0
 22 23  1  0  0  0  0
 22 24  1  0  0  0  0
 22 25  1  0  0  0  0
 26 48  1  0  0  0  0
 27 28  1  0  0  0  0
 27 49  1  0  0  0  0
 28 29  2  0  0  0  0
 29 30  1  0  0  0  0
 30 50  1  0  0  0  0
M  END
$$$$
