CHEMBL83171
 OpenBabel04072215383D

 55 59  0  0  0  0  0  0  0  0999 V2000
   -5.4233    4.4221    0.6337 C   0  0  0  0  0  0  0  0  0  0  0  0
   -5.7712    4.0029   -0.6452 C   0  0  0  0  0  0  0  0  0  0  0  0
   -5.2628    2.8068   -1.1306 C   0  0  0  0  0  0  0  0  0  0  0  0
   -4.4045    2.0310   -0.3308 C   0  0  0  0  0  0  0  0  0  0  0  0
   -3.8760    0.8636   -0.9222 N   0  0  0  0  0  0  0  0  0  0  0  0
   -3.3678    0.8446   -2.2061 C   0  0  0  0  0  0  0  0  0  0  0  0
   -3.5521   -0.3068   -2.7996 N   0  0  0  0  0  0  0  0  0  0  0  0
   -4.1549   -1.0835   -1.8488 C   0  0  0  0  0  0  0  0  0  0  0  0
   -4.7333   -2.3484   -2.0065 C   0  0  0  0  0  0  0  0  0  0  0  0
   -5.3277   -2.9804   -0.9061 C   0  0  0  0  0  0  0  0  0  0  0  0
   -6.0646   -4.2438   -1.0604 C   0  0  0  0  0  0  0  0  0  0  0  0
   -7.2046   -4.5046   -0.2996 C   0  0  0  0  0  0  0  0  0  0  0  0
   -7.8068   -5.7540   -0.3442 C   0  0  0  0  0  0  0  0  0  0  0  0
   -7.2938   -6.7312   -1.1863 C   0  0  0  0  0  0  0  0  0  0  0  0
   -7.7332   -8.0439   -1.1631 N   0  0  0  0  0  0  0  0  0  0  0  0
   -9.1363   -8.2788   -0.8818 C   0  0  0  0  0  0  0  0  0  0  0  0
   -9.4635   -9.7795   -0.9164 C   0  0  0  0  0  0  0  0  0  0  0  0
  -10.8469  -10.0862   -0.4951 N   0  0  0  0  0  0  0  0  0  0  0  0
  -11.0943  -11.5454   -0.5369 C   0  0  0  0  0  0  0  0  0  0  0  0
  -11.2180  -12.1095   -1.9653 C   0  0  0  0  0  0  0  0  0  0  0  0
  -12.2028  -11.4079   -2.7372 O   0  0  0  0  0  0  0  0  0  0  0  0
  -11.9426   -9.9990   -2.7579 C   0  0  0  0  0  0  0  0  0  0  0  0
  -11.8807   -9.4365   -1.3310 C   0  0  0  0  0  0  0  0  0  0  0  0
   -6.2716   -6.4775   -2.0198 N   0  0  0  0  0  0  0  0  0  0  0  0
   -5.6834   -5.2565   -1.9388 C   0  0  0  0  0  0  0  0  0  0  0  0
   -5.2261   -2.3592    0.3590 C   0  0  0  0  0  0  0  0  0  0  0  0
   -4.6920   -1.0754    0.5372 C   0  0  0  0  0  0  0  0  0  0  0  0
   -4.2135   -0.4402   -0.6103 C   0  0  0  0  0  0  0  0  0  0  0  0
   -4.0919    2.4127    0.9688 C   0  0  0  0  0  0  0  0  0  0  0  0
   -4.5932    3.6337    1.4372 C   0  0  0  0  0  0  0  0  0  0  0  0
   -5.7924    5.3809    0.9981 H   0  0  0  0  0  0  0  0  0  0  0  0
   -6.4379    4.5953   -1.2669 H   0  0  0  0  0  0  0  0  0  0  0  0
   -5.5623    2.4660   -2.1190 H   0  0  0  0  0  0  0  0  0  0  0  0
   -2.9580    1.7334   -2.6628 H   0  0  0  0  0  0  0  0  0  0  0  0
   -4.7648   -2.7720   -3.0042 H   0  0  0  0  0  0  0  0  0  0  0  0
   -7.6233   -3.7524    0.3639 H   0  0  0  0  0  0  0  0  0  0  0  0
   -8.6449   -5.9460    0.3126 H   0  0  0  0  0  0  0  0  0  0  0  0
   -7.3333   -8.5115   -1.9738 H   0  0  0  0  0  0  0  0  0  0  0  0
   -9.7395   -7.7378   -1.6191 H   0  0  0  0  0  0  0  0  0  0  0  0
   -9.3938   -7.9134    0.1192 H   0  0  0  0  0  0  0  0  0  0  0  0
   -8.7742  -10.2877   -0.2285 H   0  0  0  0  0  0  0  0  0  0  0  0
   -9.2360  -10.1664   -1.9161 H   0  0  0  0  0  0  0  0  0  0  0  0
  -12.0360  -11.7326   -0.0046 H   0  0  0  0  0  0  0  0  0  0  0  0
  -10.3186  -12.0833    0.0207 H   0  0  0  0  0  0  0  0  0  0  0  0
  -11.5278  -13.1579   -1.9170 H   0  0  0  0  0  0  0  0  0  0  0  0
  -10.2599  -12.0778   -2.4956 H   0  0  0  0  0  0  0  0  0  0  0  0
  -12.7582   -9.5183   -3.3070 H   0  0  0  0  0  0  0  0  0  0  0  0
  -11.0180   -9.8051   -3.3138 H   0  0  0  0  0  0  0  0  0  0  0  0
  -12.8506   -9.6087   -0.8456 H   0  0  0  0  0  0  0  0  0  0  0  0
  -11.7595   -8.3490   -1.3477 H   0  0  0  0  0  0  0  0  0  0  0  0
   -4.8401   -5.1331   -2.6136 H   0  0  0  0  0  0  0  0  0  0  0  0
   -5.6104   -2.8703    1.2423 H   0  0  0  0  0  0  0  0  0  0  0  0
   -4.6997   -0.5984    1.5114 H   0  0  0  0  0  0  0  0  0  0  0  0
   -3.4357    1.8225    1.6003 H   0  0  0  0  0  0  0  0  0  0  0  0
   -4.3262    3.9886    2.4300 H   0  0  0  0  0  0  0  0  0  0  0  0
  1  2  1  0  0  0  0
  1 30  2  0  0  0  0
  1 31  1  0  0  0  0
  2  3  2  0  0  0  0
  2 32  1  0  0  0  0
  3  4  1  0  0  0  0
  3 33  1  0  0  0  0
  4  5  1  0  0  0  0
  4 29  2  0  0  0  0
  5  6  1  0  0  0  0
  5 28  1  0  0  0  0
  6  7  2  0  0  0  0
  6 34  1  0  0  0  0
  7  8  1  0  0  0  0
  8  9  1  0  0  0  0
  8 28  2  0  0  0  0
  9 10  2  0  0  0  0
  9 35  1  0  0  0  0
 10 11  1  0  0  0  0
 10 26  1  0  0  0  0
 11 12  1  0  0  0  0
 11 25  2  0  0  0  0
 12 13  2  0  0  0  0
 12 36  1  0  0  0  0
 13 14  1  0  0  0  0
 13 37  1  0  0  0  0
 14 15  1  0  0  0  0
 14 24  2  0  0  0  0
 15 16  1  0  0  0  0
 15 38  1  0  0  0  0
 16 17  1  0  0  0  0
 16 39  1  0  0  0  0
 16 40  1  0  0  0  0
 17 18  1  0  0  0  0
 17 41  1  0  0  0  0
 17 42  1  0  0  0  0
 18 19  1  0  0  0  0
 18 23  1  0  0  0  0
 19 20  1  0  0  0  0
 19 43  1  0  0  0  0
 19 44  1  0  0  0  0
 20 21  1  0  0  0  0
 20 45  1  0  0  0  0
 20 46  1  0  0  0  0
 21 22  1  0  0  0  0
 22 23  1  0  0  0  0
 22 47  1  0  0  0  0
 22 48  1  0  0  0  0
 23 49  1  0  0  0  0
 23 50  1  0  0  0  0
 24 25  1  0  0  0  0
 25 51  1  0  0  0  0
 26 27  2  0  0  0  0
 26 52  1  0  0  0  0
 27 28  1  0  0  0  0
 27 53  1  0  0  0  0
 29 30  1  0  0  0  0
 29 54  1  0  0  0  0
 30 55  1  0  0  0  0
M  END
$$$$
