CHEMBL3929290
 OpenBabel04072215373D

 66 70  0  0  1  0  0  0  0  0999 V2000
    1.9060    1.0892   -1.2692 C   0  0  0  0  0  0  0  0  0  0  0  0
    2.2666    0.0455   -0.2046 C   0  0  1  0  0  0  0  0  0  0  0  0
    3.2348   -0.9301   -0.7142 N   0  0  0  0  0  0  0  0  0  0  0  0
    2.8256   -1.7256   -1.7840 C   0  0  0  0  0  0  0  0  0  0  0  0
    1.5206   -2.0057   -2.0028 N   0  0  0  0  0  0  0  0  0  0  0  0
    1.1931   -2.7248   -3.0976 C   0  0  0  0  0  0  0  0  0  0  0  0
    2.0077   -3.2244   -4.0445 N   0  0  0  0  0  0  0  0  0  0  0  0
    3.2885   -2.9339   -3.7770 C   0  0  0  0  0  0  0  0  0  0  0  0
    4.3513   -3.2735   -4.5663 N   0  0  0  0  0  0  0  0  0  0  0  0
    5.5278   -2.7950   -4.0275 C   0  0  0  0  0  0  0  0  0  0  0  0
    6.8323   -2.9275   -4.6741 C   0  0  0  0  0  0  0  0  0  0  0  0
    6.9522   -2.9605   -6.0679 C   0  0  0  0  0  0  0  0  0  0  0  0
    8.2128   -2.9687   -6.6751 C   0  0  0  0  0  0  0  0  0  0  0  0
    9.3763   -2.9214   -5.9046 C   0  0  0  0  0  0  0  0  0  0  0  0
   10.6610   -2.8563   -6.4409 N   0  0  0  0  0  0  0  0  0  0  0  0
   10.8374   -2.1516   -7.7017 C   0  0  0  0  0  0  0  0  0  0  0  0
   12.2354   -1.5867   -7.7536 C   0  0  0  0  0  0  0  0  0  0  0  0
   13.1182   -1.9520   -8.7727 C   0  0  0  0  0  0  0  0  0  0  0  0
   14.4082   -1.4161   -8.8150 C   0  0  0  0  0  0  0  0  0  0  0  0
   14.8375   -0.4922   -7.8515 C   0  0  0  0  0  0  0  0  0  0  0  0
   16.2004    0.0622   -7.8465 C   0  0  0  0  0  0  0  0  0  0  0  0
   16.9179    0.2747   -8.9610 C   0  0  0  0  0  0  0  0  0  0  0  0
   18.2929    0.8227   -8.8758 C   0  0  0  0  0  0  0  0  0  0  0  0
   18.8434    1.1332   -7.8277 O   0  0  0  0  0  0  0  0  0  0  0  0
   18.8970    0.9396  -10.1000 N   0  0  0  0  0  0  0  0  0  0  0  0
   20.2225    1.4193  -10.1139 O   0  0  0  0  0  0  0  0  0  0  0  0
   13.9546   -0.1320   -6.8281 C   0  0  0  0  0  0  0  0  0  0  0  0
   12.6648   -0.6685   -6.7827 C   0  0  0  0  0  0  0  0  0  0  0  0
    9.2545   -2.9827   -4.5151 C   0  0  0  0  0  0  0  0  0  0  0  0
    7.9991   -2.9630   -3.9037 C   0  0  0  0  0  0  0  0  0  0  0  0
    5.1813   -2.1629   -2.8416 C   0  0  0  0  0  0  0  0  0  0  0  0
    3.7700   -2.2279   -2.6914 C   0  0  0  0  0  0  0  0  0  0  0  0
    2.9135    0.7295    0.9961 C   0  0  0  0  0  0  0  0  0  0  0  0
    2.3052    0.6797    2.2586 C   0  0  0  0  0  0  0  0  0  0  0  0
    2.9303    1.2522    3.3693 C   0  0  0  0  0  0  0  0  0  0  0  0
    4.1653    1.8845    3.2318 C   0  0  0  0  0  0  0  0  0  0  0  0
    4.7702    1.9639    1.9804 C   0  0  0  0  0  0  0  0  0  0  0  0
    4.1479    1.3929    0.8704 C   0  0  0  0  0  0  0  0  0  0  0  0
    1.3190    0.6471   -2.0809 H   0  0  0  0  0  0  0  0  0  0  0  0
    2.7990    1.5319   -1.7256 H   0  0  0  0  0  0  0  0  0  0  0  0
    1.3087    1.9004   -0.8394 H   0  0  0  0  0  0  0  0  0  0  0  0
    1.3539   -0.4660    0.1280 H   0  0  0  0  0  0  0  0  0  0  0  0
    3.5254   -1.5547    0.0352 H   0  0  0  0  0  0  0  0  0  0  0  0
    0.1337   -2.9181   -3.2353 H   0  0  0  0  0  0  0  0  0  0  0  0
    4.2608   -3.7826   -5.4318 H   0  0  0  0  0  0  0  0  0  0  0  0
    6.0746   -2.9308   -6.7075 H   0  0  0  0  0  0  0  0  0  0  0  0
    8.2617   -2.9810   -7.7599 H   0  0  0  0  0  0  0  0  0  0  0  0
   11.1264   -3.7607   -6.4254 H   0  0  0  0  0  0  0  0  0  0  0  0
   10.1406   -1.3090   -7.8008 H   0  0  0  0  0  0  0  0  0  0  0  0
   10.6577   -2.8345   -8.5405 H   0  0  0  0  0  0  0  0  0  0  0  0
   12.8146   -2.6632   -9.5368 H   0  0  0  0  0  0  0  0  0  0  0  0
   15.0732   -1.7464   -9.6077 H   0  0  0  0  0  0  0  0  0  0  0  0
   16.6150    0.3099   -6.8725 H   0  0  0  0  0  0  0  0  0  0  0  0
   16.5254    0.0608   -9.9461 H   0  0  0  0  0  0  0  0  0  0  0  0
   18.4942    0.6693  -10.9907 H   0  0  0  0  0  0  0  0  0  0  0  0
   20.3984    1.5668   -9.1583 H   0  0  0  0  0  0  0  0  0  0  0  0
   14.2566    0.5721   -6.0548 H   0  0  0  0  0  0  0  0  0  0  0  0
   11.9917   -0.3800   -5.9765 H   0  0  0  0  0  0  0  0  0  0  0  0
   10.1487   -2.9766   -3.8959 H   0  0  0  0  0  0  0  0  0  0  0  0
    7.9501   -2.9502   -2.8179 H   0  0  0  0  0  0  0  0  0  0  0  0
    5.8620   -1.6521   -2.1720 H   0  0  0  0  0  0  0  0  0  0  0  0
    1.3447    0.1865    2.3892 H   0  0  0  0  0  0  0  0  0  0  0  0
    2.4571    1.1974    4.3463 H   0  0  0  0  0  0  0  0  0  0  0  0
    4.6581    2.3131    4.1003 H   0  0  0  0  0  0  0  0  0  0  0  0
    5.7309    2.4591    1.8675 H   0  0  0  0  0  0  0  0  0  0  0  0
    4.6391    1.4471   -0.0998 H   0  0  0  0  0  0  0  0  0  0  0  0
  1  2  1  0  0  0  0
  1 39  1  0  0  0  0
  1 40  1  0  0  0  0
  1 41  1  0  0  0  0
  2  3  1  0  0  0  0
  2 33  1  0  0  0  0
  2 42  1  1  0  0  0
  3  4  1  0  0  0  0
  3 43  1  0  0  0  0
  4  5  1  0  0  0  0
  4 32  2  0  0  0  0
  5  6  2  0  0  0  0
  6  7  1  0  0  0  0
  6 44  1  0  0  0  0
  7  8  2  0  0  0  0
  8  9  1  0  0  0  0
  8 32  1  0  0  0  0
  9 10  1  0  0  0  0
  9 45  1  0  0  0  0
 10 11  1  0  0  0  0
 10 31  2  0  0  0  0
 11 12  1  0  0  0  0
 11 30  2  0  0  0  0
 12 13  2  0  0  0  0
 12 46  1  0  0  0  0
 13 14  1  0  0  0  0
 13 47  1  0  0  0  0
 14 15  1  0  0  0  0
 14 29  2  0  0  0  0
 15 16  1  0  0  0  0
 15 48  1  0  0  0  0
 16 17  1  0  0  0  0
 16 49  1  0  0  0  0
 16 50  1  0  0  0  0
 17 18  1  0  0  0  0
 17 28  2  0  0  0  0
 18 19  2  0  0  0  0
 18 51  1  0  0  0  0
 19 20  1  0  0  0  0
 19 52  1  0  0  0  0
 20 21  1  0  0  0  0
 20 27  2  0  0  0  0
 21 22  2  0  0  0  0
 21 53  1  0  0  0  0
 22 23  1  0  0  0  0
 22 54  1  0  0  0  0
 23 24  2  0  0  0  0
 23 25  1  0  0  0  0
 25 26  1  0  0  0  0
 25 55  1  0  0  0  0
 26 56  1  0  0  0  0
 27 28  1  0  0  0  0
 27 57  1  0  0  0  0
 28 58  1  0  0  0  0
 29 30  1  0  0  0  0
 29 59  1  0  0  0  0
 30 60  1  0  0  0  0
 31 32  1  0  0  0  0
 31 61  1  0  0  0  0
 33 34  1  0  0  0  0
 33 38  2  0  0  0  0
 34 35  2  0  0  0  0
 34 62  1  0  0  0  0
 35 36  1  0  0  0  0
 35 63  1  0  0  0  0
 36 37  2  0  0  0  0
 36 64  1  0  0  0  0
 37 38  1  0  0  0  0
 37 65  1  0  0  0  0
 38 66  1  0  0  0  0
M  END
$$$$
