CHEMBL3939717
 OpenBabel04072215373D

 46 49  0  0  0  0  0  0  0  0999 V2000
    3.3439   -1.1020   -0.3200 C   0  0  0  0  0  0  0  0  0  0  0  0
    2.5213   -0.2197    0.4550 O   0  0  0  0  0  0  0  0  0  0  0  0
    3.1747    0.8487    1.0132 C   0  0  0  0  0  0  0  0  0  0  0  0
    4.2966    1.4356    0.4162 C   0  0  0  0  0  0  0  0  0  0  0  0
    5.0231    2.4556    1.0757 C   0  0  0  0  0  0  0  0  0  0  0  0
    6.1847    3.0746    0.5950 C   0  0  0  0  0  0  0  0  0  0  0  0
    6.7082    2.7040   -0.6741 N   0  0  0  0  0  0  0  0  0  0  0  0
    8.0288    3.0129   -1.0654 C   0  0  0  0  0  0  0  0  0  0  0  0
    9.0998    2.7243   -0.2070 C   0  0  0  0  0  0  0  0  0  0  0  0
   10.3974    3.1368   -0.5116 C   0  0  0  0  0  0  0  0  0  0  0  0
   10.6412    3.8327   -1.6923 C   0  0  0  0  0  0  0  0  0  0  0  0
   12.2546    4.3760   -1.9797 Cl  0  0  0  0  0  0  0  0  0  0  0  0
    9.5900    4.0816   -2.5838 C   0  0  0  0  0  0  0  0  0  0  0  0
    9.8251    4.9299   -4.0720 Cl  0  0  0  0  0  0  0  0  0  0  0  0
    8.2883    3.6642   -2.2744 C   0  0  0  0  0  0  0  0  0  0  0  0
    6.8518    4.0028    1.3112 N   0  0  0  0  0  0  0  0  0  0  0  0
    6.3615    4.3136    2.5096 C   0  0  0  0  0  0  0  0  0  0  0  0
    5.2622    3.7970    3.0548 N   0  0  0  0  0  0  0  0  0  0  0  0
    4.6112    2.8823    2.3343 C   0  0  0  0  0  0  0  0  0  0  0  0
    3.4644    2.3463    2.8796 C   0  0  0  0  0  0  0  0  0  0  0  0
    2.6930    1.3776    2.2190 C   0  0  0  0  0  0  0  0  0  0  0  0
    1.4811    0.9302    2.7161 O   0  0  0  0  0  0  0  0  0  0  0  0
    0.9146    1.8103    3.7103 C   0  0  0  0  0  0  0  0  0  0  0  0
   -0.5104    1.5603    4.0851 C   0  0  0  0  0  0  0  0  0  0  0  0
   -1.3790    0.6066    3.5969 C   0  0  0  0  0  0  0  0  0  0  0  0
   -2.9034    0.7472    4.3697 S   0  0  0  0  0  0  0  0  0  0  0  0
   -2.3080    2.0667    5.2913 C   0  0  0  0  0  0  0  0  0  0  0  0
   -3.1739    2.7506    6.3056 C   0  0  0  0  0  0  0  0  0  0  0  0
   -2.8009    4.1312    6.3671 O   0  0  0  0  0  0  0  0  0  0  0  0
   -1.0545    2.3976    5.0580 N   0  0  0  0  0  0  0  0  0  0  0  0
    2.9880   -2.1256   -0.1702 H   0  0  0  0  0  0  0  0  0  0  0  0
    4.4014   -1.0916   -0.0278 H   0  0  0  0  0  0  0  0  0  0  0  0
    3.2478   -0.8549   -1.3824 H   0  0  0  0  0  0  0  0  0  0  0  0
    4.6373    1.0980   -0.5577 H   0  0  0  0  0  0  0  0  0  0  0  0
    6.0179    2.8978   -1.3923 H   0  0  0  0  0  0  0  0  0  0  0  0
    8.9148    2.2054    0.7320 H   0  0  0  0  0  0  0  0  0  0  0  0
   11.1962    2.9321    0.1958 H   0  0  0  0  0  0  0  0  0  0  0  0
    7.4771    3.8899   -2.9608 H   0  0  0  0  0  0  0  0  0  0  0  0
    6.9017    5.0515    3.0906 H   0  0  0  0  0  0  0  0  0  0  0  0
    3.1923    2.7214    3.8618 H   0  0  0  0  0  0  0  0  0  0  0  0
    0.9560    2.8486    3.3474 H   0  0  0  0  0  0  0  0  0  0  0  0
    1.4992    1.7121    4.6334 H   0  0  0  0  0  0  0  0  0  0  0  0
   -1.1913   -0.1462    2.8452 H   0  0  0  0  0  0  0  0  0  0  0  0
   -3.0144    2.3136    7.2963 H   0  0  0  0  0  0  0  0  0  0  0  0
   -4.2371    2.6996    6.0566 H   0  0  0  0  0  0  0  0  0  0  0  0
   -1.8367    4.1528    6.2103 H   0  0  0  0  0  0  0  0  0  0  0  0
  1  2  1  0  0  0  0
  1 31  1  0  0  0  0
  1 32  1  0  0  0  0
  1 33  1  0  0  0  0
  2  3  1  0  0  0  0
  3  4  1  0  0  0  0
  3 21  2  0  0  0  0
  4  5  2  0  0  0  0
  4 34  1  0  0  0  0
  5  6  1  0  0  0  0
  5 19  1  0  0  0  0
  6  7  1  0  0  0  0
  6 16  2  0  0  0  0
  7  8  1  0  0  0  0
  7 35  1  0  0  0  0
  8  9  1  0  0  0  0
  8 15  2  0  0  0  0
  9 10  2  0  0  0  0
  9 36  1  0  0  0  0
 10 11  1  0  0  0  0
 10 37  1  0  0  0  0
 11 12  1  0  0  0  0
 11 13  2  0  0  0  0
 13 14  1  0  0  0  0
 13 15  1  0  0  0  0
 15 38  1  0  0  0  0
 16 17  1  0  0  0  0
 17 18  2  0  0  0  0
 17 39  1  0  0  0  0
 18 19  1  0  0  0  0
 19 20  2  0  0  0  0
 20 21  1  0  0  0  0
 20 40  1  0  0  0  0
 21 22  1  0  0  0  0
 22 23  1  0  0  0  0
 23 24  1  0  0  0  0
 23 41  1  0  0  0  0
 23 42  1  0  0  0  0
 24 25  2  0  0  0  0
 24 30  1  0  0  0  0
 25 26  1  0  0  0  0
 25 43  1  0  0  0  0
 26 27  1  0  0  0  0
 27 28  1  0  0  0  0
 27 30  2  0  0  0  0
 28 29  1  0  0  0  0
 28 44  1  0  0  0  0
 28 45  1  0  0  0  0
 29 46  1  0  0  0  0
M  END
$$$$
