CHEMBL484876
 OpenBabel04072215383D

 53 57  0  0  0  0  0  0  0  0999 V2000
   -2.0255    1.4554    1.4961 O   0  0  0  0  0  0  0  0  0  0  0  0
   -1.3616    0.4854    1.1944 C   0  0  0  0  0  0  0  0  0  0  0  0
   -1.6996   -0.8196    1.4709 N   0  0  0  0  0  0  0  0  0  0  0  0
   -0.6638   -1.7557    1.1334 C   0  0  0  0  0  0  0  0  0  0  0  0
    0.3889   -0.8737    0.5512 C   0  0  0  0  0  0  0  0  0  0  0  0
    1.6250   -1.2389    0.0459 C   0  0  0  0  0  0  0  0  0  0  0  0
    2.4381   -0.2374   -0.4788 C   0  0  0  0  0  0  0  0  0  0  0  0
    1.9985    1.0988   -0.5160 C   0  0  0  0  0  0  0  0  0  0  0  0
    0.7393    1.4829   -0.0163 C   0  0  0  0  0  0  0  0  0  0  0  0
    0.3020    2.8724   -0.1790 C   0  0  0  0  0  0  0  0  0  0  0  0
    0.6050    3.7911   -1.1732 C   0  0  0  0  0  0  0  0  0  0  0  0
   -0.1593    4.9683   -0.9560 C   0  0  0  0  0  0  0  0  0  0  0  0
   -0.3288    6.1721   -1.6637 C   0  0  0  0  0  0  0  0  0  0  0  0
   -1.2076    7.1412   -1.1675 C   0  0  0  0  0  0  0  0  0  0  0  0
   -1.3507    8.2558   -1.9565 O   0  0  0  0  0  0  0  0  0  0  0  0
   -1.6165    9.4545   -1.2250 C   0  0  0  0  0  0  0  0  0  0  0  0
   -1.5902   10.6538   -2.1855 C   0  0  0  0  0  0  0  0  0  0  0  0
   -1.9099   11.9310   -1.5181 N   0  0  0  0  0  0  0  0  0  0  0  0
   -0.8968   12.2933   -0.5156 C   0  0  0  0  0  0  0  0  0  0  0  0
   -1.2818   13.5748    0.2190 C   0  0  0  0  0  0  0  0  0  0  0  0
   -1.4926   14.7248   -0.7534 C   0  0  0  0  0  0  0  0  0  0  0  0
   -2.4741   14.3205   -1.8476 C   0  0  0  0  0  0  0  0  0  0  0  0
   -2.0638   13.0052   -2.5135 C   0  0  0  0  0  0  0  0  0  0  0  0
   -1.9081    6.9172    0.0202 C   0  0  0  0  0  0  0  0  0  0  0  0
   -1.7541    5.7269    0.7382 C   0  0  0  0  0  0  0  0  0  0  0  0
   -0.8806    4.7713    0.2154 C   0  0  0  0  0  0  0  0  0  0  0  0
   -0.5883    3.5049    0.6612 N   0  0  0  0  0  0  0  0  0  0  0  0
   -0.0322    0.4664    0.5440 C   0  0  0  0  0  0  0  0  0  0  0  0
   -2.5621   -1.0431    1.9504 H   0  0  0  0  0  0  0  0  0  0  0  0
   -1.0562   -2.4699    0.4046 H   0  0  0  0  0  0  0  0  0  0  0  0
   -0.3280   -2.2581    2.0431 H   0  0  0  0  0  0  0  0  0  0  0  0
    1.9564   -2.2719    0.0534 H   0  0  0  0  0  0  0  0  0  0  0  0
    3.4187   -0.4877   -0.8793 H   0  0  0  0  0  0  0  0  0  0  0  0
    2.6628    1.8448   -0.9498 H   0  0  0  0  0  0  0  0  0  0  0  0
    1.2596    3.6147   -2.0158 H   0  0  0  0  0  0  0  0  0  0  0  0
    0.2041    6.3437   -2.5933 H   0  0  0  0  0  0  0  0  0  0  0  0
   -0.8459    9.5635   -0.4547 H   0  0  0  0  0  0  0  0  0  0  0  0
   -2.6082    9.4109   -0.7617 H   0  0  0  0  0  0  0  0  0  0  0  0
   -2.3347   10.4548   -2.9692 H   0  0  0  0  0  0  0  0  0  0  0  0
   -0.6213   10.7000   -2.7006 H   0  0  0  0  0  0  0  0  0  0  0  0
    0.0902   12.4073   -0.9829 H   0  0  0  0  0  0  0  0  0  0  0  0
   -0.8080   11.5152    0.2486 H   0  0  0  0  0  0  0  0  0  0  0  0
   -0.4981   13.8348    0.9407 H   0  0  0  0  0  0  0  0  0  0  0  0
   -2.2009   13.4045    0.7942 H   0  0  0  0  0  0  0  0  0  0  0  0
   -0.5321   15.0011   -1.2056 H   0  0  0  0  0  0  0  0  0  0  0  0
   -1.8642   15.6048   -0.2180 H   0  0  0  0  0  0  0  0  0  0  0  0
   -2.5329   15.1150   -2.6005 H   0  0  0  0  0  0  0  0  0  0  0  0
   -3.4775   14.2145   -1.4155 H   0  0  0  0  0  0  0  0  0  0  0  0
   -1.1323   13.1507   -3.0766 H   0  0  0  0  0  0  0  0  0  0  0  0
   -2.8428   12.7351   -3.2369 H   0  0  0  0  0  0  0  0  0  0  0  0
   -2.6173    7.6421    0.4060 H   0  0  0  0  0  0  0  0  0  0  0  0
   -2.3168    5.5445    1.6480 H   0  0  0  0  0  0  0  0  0  0  0  0
   -1.0622    3.0556    1.4371 H   0  0  0  0  0  0  0  0  0  0  0  0
  1  2  2  0  0  0  0
  2  3  1  0  0  0  0
  2 28  1  0  0  0  0
  3  4  1  0  0  0  0
  3 29  1  0  0  0  0
  4  5  1  0  0  0  0
  4 30  1  0  0  0  0
  4 31  1  0  0  0  0
  5  6  1  0  0  0  0
  5 28  2  0  0  0  0
  6  7  2  0  0  0  0
  6 32  1  0  0  0  0
  7  8  1  0  0  0  0
  7 33  1  0  0  0  0
  8  9  2  0  0  0  0
  8 34  1  0  0  0  0
  9 10  1  0  0  0  0
  9 28  1  0  0  0  0
 10 11  2  0  0  0  0
 10 27  1  0  0  0  0
 11 12  1  0  0  0  0
 11 35  1  0  0  0  0
 12 13  1  0  0  0  0
 12 26  2  0  0  0  0
 13 14  2  0  0  0  0
 13 36  1  0  0  0  0
 14 15  1  0  0  0  0
 14 24  1  0  0  0  0
 15 16  1  0  0  0  0
 16 17  1  0  0  0  0
 16 37  1  0  0  0  0
 16 38  1  0  0  0  0
 17 18  1  0  0  0  0
 17 39  1  0  0  0  0
 17 40  1  0  0  0  0
 18 19  1  0  0  0  0
 18 23  1  0  0  0  0
 19 20  1  0  0  0  0
 19 41  1  0  0  0  0
 19 42  1  0  0  0  0
 20 21  1  0  0  0  0
 20 43  1  0  0  0  0
 20 44  1  0  0  0  0
 21 22  1  0  0  0  0
 21 45  1  0  0  0  0
 21 46  1  0  0  0  0
 22 23  1  0  0  0  0
 22 47  1  0  0  0  0
 22 48  1  0  0  0  0
 23 49  1  0  0  0  0
 23 50  1  0  0  0  0
 24 25  2  0  0  0  0
 24 51  1  0  0  0  0
 25 26  1  0  0  0  0
 25 52  1  0  0  0  0
 26 27  1  0  0  0  0
 27 53  1  0  0  0  0
M  END
$$$$
