CHEMBL3809912
 OpenBabel04072215373D

 40 42  0  0  0  0  0  0  0  0999 V2000
    1.9568    0.1145    0.2480 N   0  0  0  0  0  0  0  0  0  0  0  0
    0.6479    0.0733   -0.0096 C   0  0  0  0  0  0  0  0  0  0  0  0
   -0.1404   -1.0781    0.1419 C   0  0  0  0  0  0  0  0  0  0  0  0
   -1.4340   -0.6928   -0.1666 C   0  0  0  0  0  0  0  0  0  0  0  0
   -2.6895   -1.4278   -0.0642 C   0  0  0  0  0  0  0  0  0  0  0  0
   -2.8124   -2.3660    0.9564 C   0  0  0  0  0  0  0  0  0  0  0  0
   -3.9733   -3.1197    1.0990 C   0  0  0  0  0  0  0  0  0  0  0  0
   -5.0525   -2.9828    0.2259 C   0  0  0  0  0  0  0  0  0  0  0  0
   -6.2285   -3.7794    0.3299 N   0  0  0  0  0  0  0  0  0  0  0  0
   -6.3837   -4.8384    1.2116 C   0  0  0  0  0  0  0  0  0  0  0  0
   -5.5015   -5.2306    1.9668 O   0  0  0  0  0  0  0  0  0  0  0  0
   -7.6355   -5.4341    1.1641 N   0  0  0  0  0  0  0  0  0  0  0  0
   -8.0427   -6.4399    2.0873 C   0  0  0  0  0  0  0  0  0  0  0  0
   -7.4404   -6.5888    3.3449 C   0  0  0  0  0  0  0  0  0  0  0  0
   -7.7908   -7.6267    4.2054 C   0  0  0  0  0  0  0  0  0  0  0  0
   -8.7923   -8.5136    3.8403 C   0  0  0  0  0  0  0  0  0  0  0  0
   -9.4618   -8.3558    2.6179 C   0  0  0  0  0  0  0  0  0  0  0  0
  -10.5831   -9.2936    2.2494 C   0  0  0  0  0  0  0  0  0  0  0  0
  -10.8492  -10.2287    3.2048 F   0  0  0  0  0  0  0  0  0  0  0  0
  -11.7574   -8.6370    2.0369 F   0  0  0  0  0  0  0  0  0  0  0  0
  -10.3314   -9.9897    1.1067 F   0  0  0  0  0  0  0  0  0  0  0  0
   -9.0783   -7.3145    1.7423 C   0  0  0  0  0  0  0  0  0  0  0  0
   -4.9499   -2.0206   -0.7856 C   0  0  0  0  0  0  0  0  0  0  0  0
   -3.7762   -1.2480   -0.9298 C   0  0  0  0  0  0  0  0  0  0  0  0
   -1.3218    0.6320   -0.4963 N   0  0  0  0  0  0  0  0  0  0  0  0
   -0.0673    1.1126   -0.4221 N   0  0  0  0  0  0  0  0  0  0  0  0
    2.5133   -0.7212    0.3681 H   0  0  0  0  0  0  0  0  0  0  0  0
    2.4705    0.9461   -0.0153 H   0  0  0  0  0  0  0  0  0  0  0  0
    0.1783   -2.0566    0.4705 H   0  0  0  0  0  0  0  0  0  0  0  0
   -2.0070   -2.5274    1.6704 H   0  0  0  0  0  0  0  0  0  0  0  0
   -3.9735   -3.8080    1.9380 H   0  0  0  0  0  0  0  0  0  0  0  0
   -6.9858   -3.5711   -0.3048 H   0  0  0  0  0  0  0  0  0  0  0  0
   -8.1463   -5.3663    0.2975 H   0  0  0  0  0  0  0  0  0  0  0  0
   -6.6751   -5.9014    3.6951 H   0  0  0  0  0  0  0  0  0  0  0  0
   -7.2733   -7.7334    5.1556 H   0  0  0  0  0  0  0  0  0  0  0  0
   -9.0543   -9.3223    4.5209 H   0  0  0  0  0  0  0  0  0  0  0  0
   -9.5855   -7.2190    0.7846 H   0  0  0  0  0  0  0  0  0  0  0  0
   -5.7639   -1.8637   -1.4887 H   0  0  0  0  0  0  0  0  0  0  0  0
   -3.7194   -0.5310   -1.7453 H   0  0  0  0  0  0  0  0  0  0  0  0
   -2.0656    1.2766   -0.7338 H   0  0  0  0  0  0  0  0  0  0  0  0
  1  2  1  0  0  0  0
  1 27  1  0  0  0  0
  1 28  1  0  0  0  0
  2  3  1  0  0  0  0
  2 26  2  0  0  0  0
  3  4  2  0  0  0  0
  3 29  1  0  0  0  0
  4  5  1  0  0  0  0
  4 25  1  0  0  0  0
  5  6  1  0  0  0  0
  5 24  2  0  0  0  0
  6  7  2  0  0  0  0
  6 30  1  0  0  0  0
  7  8  1  0  0  0  0
  7 31  1  0  0  0  0
  8  9  1  0  0  0  0
  8 23  2  0  0  0  0
  9 10  1  0  0  0  0
  9 32  1  0  0  0  0
 10 11  2  0  0  0  0
 10 12  1  0  0  0  0
 12 13  1  0  0  0  0
 12 33  1  0  0  0  0
 13 14  1  0  0  0  0
 13 22  2  0  0  0  0
 14 15  2  0  0  0  0
 14 34  1  0  0  0  0
 15 16  1  0  0  0  0
 15 35  1  0  0  0  0
 16 17  2  0  0  0  0
 16 36  1  0  0  0  0
 17 18  1  0  0  0  0
 17 22  1  0  0  0  0
 18 19  1  0  0  0  0
 18 20  1  0  0  0  0
 18 21  1  0  0  0  0
 22 37  1  0  0  0  0
 23 24  1  0  0  0  0
 23 38  1  0  0  0  0
 24 39  1  0  0  0  0
 25 26  1  0  0  0  0
 25 40  1  0  0  0  0
M  END
$$$$
