CHEMBL3894754
 OpenBabel04072215373D

 66 70  0  0  0  0  0  0  0  0999 V2000
    9.1990   -9.3565    6.2566 C   0  0  0  0  0  0  0  0  0  0  0  0
    9.3643   -8.2337    5.2442 C   0  0  0  0  0  0  0  0  0  0  0  0
   10.7162   -8.2303    4.7824 O   0  0  0  0  0  0  0  0  0  0  0  0
   10.9714   -7.2075    3.8868 C   0  0  0  0  0  0  0  0  0  0  0  0
   11.9401   -7.4503    2.9354 C   0  0  0  0  0  0  0  0  0  0  0  0
   12.1922   -6.4323    2.0785 C   0  0  0  0  0  0  0  0  0  0  0  0
   11.6037   -5.2111    2.1575 N   0  0  0  0  0  0  0  0  0  0  0  0
   10.7055   -5.0678    3.1502 C   0  0  0  0  0  0  0  0  0  0  0  0
   10.1592   -3.7470    3.3673 C   0  0  0  0  0  0  0  0  0  0  0  0
    9.7081   -2.6437    3.5655 C   0  0  0  0  0  0  0  0  0  0  0  0
    9.1434   -1.2894    3.8208 C   0  0  0  0  0  0  0  0  0  0  0  0
    8.3584   -1.2032    5.0775 N   0  0  0  0  0  0  0  0  0  0  0  0
    6.9277   -1.3746    4.9400 C   0  0  0  0  0  0  0  0  0  0  0  0
    6.3494   -2.2672    4.0127 C   0  0  0  0  0  0  0  0  0  0  0  0
    4.9555   -2.3716    3.8654 C   0  0  0  0  0  0  0  0  0  0  0  0
    4.2831   -3.1387    2.9511 O   0  0  0  0  0  0  0  0  0  0  0  0
    5.0466   -3.9156    2.0412 C   0  0  0  0  0  0  0  0  0  0  0  0
    4.1051   -1.6350    4.6930 C   0  0  0  0  0  0  0  0  0  0  0  0
    4.6289   -0.8056    5.6753 C   0  0  0  0  0  0  0  0  0  0  0  0
    3.8883   -0.0784    6.5717 O   0  0  0  0  0  0  0  0  0  0  0  0
    2.4683   -0.1619    6.4545 C   0  0  0  0  0  0  0  0  0  0  0  0
    6.0249   -0.6698    5.7784 C   0  0  0  0  0  0  0  0  0  0  0  0
    9.0625   -1.1789    6.3203 C   0  0  0  0  0  0  0  0  0  0  0  0
    8.3991   -1.7076    7.4292 C   0  0  0  0  0  0  0  0  0  0  0  0
    8.9320   -1.6624    8.7042 C   0  0  0  0  0  0  0  0  0  0  0  0
   10.1441   -1.0774    8.9506 C   0  0  0  0  0  0  0  0  0  0  0  0
   10.4524   -0.9901   10.2510 N   0  0  0  0  0  0  0  0  0  0  0  0
   11.6084   -0.3806   10.5518 C   0  0  0  0  0  0  0  0  0  0  0  0
   12.4983    0.0585    9.5886 C   0  0  0  0  0  0  0  0  0  0  0  0
   13.7214    0.7201   10.0436 C   0  0  0  0  0  0  0  0  0  0  0  0
   14.0174    1.3474   11.2902 C   0  0  0  0  0  0  0  0  0  0  0  0
   15.2478    1.8637   11.3407 N   0  0  0  0  0  0  0  0  0  0  0  0
   15.7567    1.5655   10.1323 N   0  0  0  0  0  0  0  0  0  0  0  0
   17.1214    1.9177    9.8202 C   0  0  0  0  0  0  0  0  0  0  0  0
   14.8741    0.9152    9.3141 C   0  0  0  0  0  0  0  0  0  0  0  0
   12.1940   -0.0551    8.2460 N   0  0  0  0  0  0  0  0  0  0  0  0
   10.9563   -0.5880    7.8992 C   0  0  0  0  0  0  0  0  0  0  0  0
   10.3707   -0.6615    6.5781 C   0  0  0  0  0  0  0  0  0  0  0  0
   10.3354   -6.0225    4.0215 N   0  0  0  0  0  0  0  0  0  0  0  0
    8.1718   -9.3909    6.6327 H   0  0  0  0  0  0  0  0  0  0  0  0
    9.8786   -9.2186    7.1043 H   0  0  0  0  0  0  0  0  0  0  0  0
    9.4408  -10.3259    5.8089 H   0  0  0  0  0  0  0  0  0  0  0  0
    9.1056   -7.2853    5.7268 H   0  0  0  0  0  0  0  0  0  0  0  0
    8.6949   -8.4159    4.3956 H   0  0  0  0  0  0  0  0  0  0  0  0
   12.4384   -8.4146    2.8830 H   0  0  0  0  0  0  0  0  0  0  0  0
   12.9192   -6.5430    1.2719 H   0  0  0  0  0  0  0  0  0  0  0  0
    8.5162   -1.0041    2.9627 H   0  0  0  0  0  0  0  0  0  0  0  0
    9.9366   -0.5312    3.8073 H   0  0  0  0  0  0  0  0  0  0  0  0
    6.9923   -2.9090    3.4236 H   0  0  0  0  0  0  0  0  0  0  0  0
    4.3519   -4.3443    1.3107 H   0  0  0  0  0  0  0  0  0  0  0  0
    5.5371   -4.7417    2.5637 H   0  0  0  0  0  0  0  0  0  0  0  0
    5.7681   -3.3067    1.4878 H   0  0  0  0  0  0  0  0  0  0  0  0
    3.0349   -1.7327    4.5372 H   0  0  0  0  0  0  0  0  0  0  0  0
    2.0232    0.4310    7.2603 H   0  0  0  0  0  0  0  0  0  0  0  0
    2.1128   -1.1917    6.5724 H   0  0  0  0  0  0  0  0  0  0  0  0
    2.1294    0.2638    5.5036 H   0  0  0  0  0  0  0  0  0  0  0  0
    6.4059    0.0037    6.5439 H   0  0  0  0  0  0  0  0  0  0  0  0
    7.4178   -2.1624    7.3330 H   0  0  0  0  0  0  0  0  0  0  0  0
    8.3552   -2.0676    9.5293 H   0  0  0  0  0  0  0  0  0  0  0  0
   11.7702   -0.2376   11.6142 H   0  0  0  0  0  0  0  0  0  0  0  0
   13.3849    1.4748   12.1612 H   0  0  0  0  0  0  0  0  0  0  0  0
   17.5836    2.4262   10.6721 H   0  0  0  0  0  0  0  0  0  0  0  0
   17.1165    2.5772    8.9498 H   0  0  0  0  0  0  0  0  0  0  0  0
   17.6644    0.9951    9.6032 H   0  0  0  0  0  0  0  0  0  0  0  0
   15.1332    0.6549    8.2996 H   0  0  0  0  0  0  0  0  0  0  0  0
   10.9635   -0.2447    5.7647 H   0  0  0  0  0  0  0  0  0  0  0  0
  1  2  1  0  0  0  0
  1 40  1  0  0  0  0
  1 41  1  0  0  0  0
  1 42  1  0  0  0  0
  2  3  1  0  0  0  0
  2 43  1  0  0  0  0
  2 44  1  0  0  0  0
  3  4  1  0  0  0  0
  4  5  1  0  0  0  0
  4 39  2  0  0  0  0
  5  6  2  0  0  0  0
  5 45  1  0  0  0  0
  6  7  1  0  0  0  0
  6 46  1  0  0  0  0
  7  8  2  0  0  0  0
  8  9  1  0  0  0  0
  8 39  1  0  0  0  0
  9 10  3  0  0  0  0
 10 11  1  0  0  0  0
 11 12  1  0  0  0  0
 11 47  1  0  0  0  0
 11 48  1  0  0  0  0
 12 13  1  0  0  0  0
 12 23  1  0  0  0  0
 13 14  1  0  0  0  0
 13 22  2  0  0  0  0
 14 15  2  0  0  0  0
 14 49  1  0  0  0  0
 15 16  1  0  0  0  0
 15 18  1  0  0  0  0
 16 17  1  0  0  0  0
 17 50  1  0  0  0  0
 17 51  1  0  0  0  0
 17 52  1  0  0  0  0
 18 19  2  0  0  0  0
 18 53  1  0  0  0  0
 19 20  1  0  0  0  0
 19 22  1  0  0  0  0
 20 21  1  0  0  0  0
 21 54  1  0  0  0  0
 21 55  1  0  0  0  0
 21 56  1  0  0  0  0
 22 57  1  0  0  0  0
 23 24  1  0  0  0  0
 23 38  2  0  0  0  0
 24 25  2  0  0  0  0
 24 58  1  0  0  0  0
 25 26  1  0  0  0  0
 25 59  1  0  0  0  0
 26 27  1  0  0  0  0
 26 37  2  0  0  0  0
 27 28  2  0  0  0  0
 28 29  1  0  0  0  0
 28 60  1  0  0  0  0
 29 30  1  0  0  0  0
 29 36  2  0  0  0  0
 30 31  1  0  0  0  0
 30 35  2  0  0  0  0
 31 32  2  0  0  0  0
 31 61  1  0  0  0  0
 32 33  1  0  0  0  0
 33 34  1  0  0  0  0
 33 35  1  0  0  0  0
 34 62  1  0  0  0  0
 34 63  1  0  0  0  0
 34 64  1  0  0  0  0
 35 65  1  0  0  0  0
 36 37  1  0  0  0  0
 37 38  1  0  0  0  0
 38 66  1  0  0  0  0
M  END
$$$$
