CHEMBL2023802
 OpenBabel04072215363D

 65 68  0  0  0  0  0  0  0  0999 V2000
    9.0173    9.2033   -2.6102 C   0  0  0  0  0  0  0  0  0  0  0  0
    8.5740    7.8453   -2.0916 C   0  0  0  0  0  0  0  0  0  0  0  0
    8.6470    6.8680   -3.1174 O   0  0  0  0  0  0  0  0  0  0  0  0
    8.7960    5.5426   -2.8053 C   0  0  0  0  0  0  0  0  0  0  0  0
    9.3772    4.8377   -3.8754 C   0  0  0  0  0  0  0  0  0  0  0  0
    9.7065    3.4774   -3.8375 C   0  0  0  0  0  0  0  0  0  0  0  0
   10.3096    2.9256   -4.9103 N   0  0  0  0  0  0  0  0  0  0  0  0
   10.6725    1.6241   -4.8437 C   0  0  0  0  0  0  0  0  0  0  0  0
   10.4446    0.8183   -3.7500 C   0  0  0  0  0  0  0  0  0  0  0  0
    9.7629    1.3780   -2.6677 C   0  0  0  0  0  0  0  0  0  0  0  0
    9.4837    0.6194   -1.5421 O   0  0  0  0  0  0  0  0  0  0  0  0
    9.0025   -0.6649   -1.6895 C   0  0  0  0  0  0  0  0  0  0  0  0
    9.2944   -1.5805   -0.6890 C   0  0  0  0  0  0  0  0  0  0  0  0
    8.8380   -2.8589   -0.6648 N   0  0  0  0  0  0  0  0  0  0  0  0
    8.0498   -3.2691   -1.6969 C   0  0  0  0  0  0  0  0  0  0  0  0
    7.5901   -4.7056   -1.6347 C   0  0  0  0  0  0  0  0  0  0  0  0
    6.0878   -4.9024   -1.6279 C   0  0  0  0  0  0  0  0  0  0  0  0
    5.5100   -5.3567   -2.6154 O   0  0  0  0  0  0  0  0  0  0  0  0
    5.4722   -4.5660   -0.4345 N   0  0  0  0  0  0  0  0  0  0  0  0
    4.1071   -4.7032   -0.2867 C   0  0  0  0  0  0  0  0  0  0  0  0
    3.3990   -3.6926    0.2195 N   0  0  0  0  0  0  0  0  0  0  0  0
    2.1256   -4.0854    0.0634 N   0  0  0  0  0  0  0  0  0  0  0  0
    1.9910   -5.3730   -0.3773 C   0  0  0  0  0  0  0  0  0  0  0  0
    0.6532   -6.0051   -0.5643 C   0  0  0  0  0  0  0  0  0  0  0  0
    0.1398   -5.8401   -1.9882 C   0  0  0  0  0  0  0  0  0  0  0  0
    3.2844   -5.8376   -0.5560 C   0  0  0  0  0  0  0  0  0  0  0  0
    3.7196   -7.2157   -0.9005 C   0  0  0  0  0  0  0  0  0  0  0  0
    7.7129   -2.4171   -2.7569 C   0  0  0  0  0  0  0  0  0  0  0  0
    6.9637   -2.9406   -3.7725 O   0  0  0  0  0  0  0  0  0  0  0  0
    6.2450   -2.0099   -4.5757 C   0  0  0  0  0  0  0  0  0  0  0  0
    8.1860   -1.0985   -2.7330 C   0  0  0  0  0  0  0  0  0  0  0  0
    9.4169    2.7592   -2.6684 C   0  0  0  0  0  0  0  0  0  0  0  0
    8.8154    3.4571   -1.5919 C   0  0  0  0  0  0  0  0  0  0  0  0
    8.4896    4.8294   -1.6405 C   0  0  0  0  0  0  0  0  0  0  0  0
    8.0040    5.2877   -0.4480 O   0  0  0  0  0  0  0  0  0  0  0  0
    6.8384    6.0989   -0.4378 C   0  0  0  0  0  0  0  0  0  0  0  0
    8.8328    9.9698   -1.8491 H   0  0  0  0  0  0  0  0  0  0  0  0
    8.4634    9.4753   -3.5149 H   0  0  0  0  0  0  0  0  0  0  0  0
   10.0807    9.2039   -2.8604 H   0  0  0  0  0  0  0  0  0  0  0  0
    7.5255    7.9807   -1.8291 H   0  0  0  0  0  0  0  0  0  0  0  0
    9.1800    7.5722   -1.2233 H   0  0  0  0  0  0  0  0  0  0  0  0
    9.6255    5.3821   -4.7874 H   0  0  0  0  0  0  0  0  0  0  0  0
   11.1776    1.2383   -5.7244 H   0  0  0  0  0  0  0  0  0  0  0  0
   10.7822   -0.2102   -3.7528 H   0  0  0  0  0  0  0  0  0  0  0  0
    9.9281   -1.3080    0.1504 H   0  0  0  0  0  0  0  0  0  0  0  0
    7.9905   -5.1900   -0.7348 H   0  0  0  0  0  0  0  0  0  0  0  0
    8.0050   -5.2591   -2.4861 H   0  0  0  0  0  0  0  0  0  0  0  0
    5.8520   -3.7742    0.0679 H   0  0  0  0  0  0  0  0  0  0  0  0
    1.3891   -3.4262    0.2909 H   0  0  0  0  0  0  0  0  0  0  0  0
   -0.0700   -5.5600    0.1296 H   0  0  0  0  0  0  0  0  0  0  0  0
    0.7036   -7.0719   -0.3194 H   0  0  0  0  0  0  0  0  0  0  0  0
    0.0500   -4.7826   -2.2599 H   0  0  0  0  0  0  0  0  0  0  0  0
   -0.8496   -6.2987   -2.0896 H   0  0  0  0  0  0  0  0  0  0  0  0
    0.8089   -6.3175   -2.7121 H   0  0  0  0  0  0  0  0  0  0  0  0
    2.8824   -7.9205   -0.8825 H   0  0  0  0  0  0  0  0  0  0  0  0
    4.4533   -7.5687   -0.1662 H   0  0  0  0  0  0  0  0  0  0  0  0
    4.1710   -7.2668   -1.8924 H   0  0  0  0  0  0  0  0  0  0  0  0
    5.4825   -2.5622   -5.1321 H   0  0  0  0  0  0  0  0  0  0  0  0
    6.9123   -1.5316   -5.3005 H   0  0  0  0  0  0  0  0  0  0  0  0
    5.7314   -1.2606   -3.9633 H   0  0  0  0  0  0  0  0  0  0  0  0
    7.9314   -0.4092   -3.5296 H   0  0  0  0  0  0  0  0  0  0  0  0
    8.6101    2.9131   -0.6646 H   0  0  0  0  0  0  0  0  0  0  0  0
    6.1053    5.6736    0.2536 H   0  0  0  0  0  0  0  0  0  0  0  0
    6.3601    6.2171   -1.4150 H   0  0  0  0  0  0  0  0  0  0  0  0
    7.1155    7.0697   -0.0117 H   0  0  0  0  0  0  0  0  0  0  0  0
  1  2  1  0  0  0  0
  1 37  1  0  0  0  0
  1 38  1  0  0  0  0
  1 39  1  0  0  0  0
  2  3  1  0  0  0  0
  2 40  1  0  0  0  0
  2 41  1  0  0  0  0
  3  4  1  0  0  0  0
  4  5  1  0  0  0  0
  4 34  2  0  0  0  0
  5  6  2  0  0  0  0
  5 42  1  0  0  0  0
  6  7  1  0  0  0  0
  6 32  1  0  0  0  0
  7  8  2  0  0  0  0
  8  9  1  0  0  0  0
  8 43  1  0  0  0  0
  9 10  2  0  0  0  0
  9 44  1  0  0  0  0
 10 11  1  0  0  0  0
 10 32  1  0  0  0  0
 11 12  1  0  0  0  0
 12 13  1  0  0  0  0
 12 31  2  0  0  0  0
 13 14  2  0  0  0  0
 13 45  1  0  0  0  0
 14 15  1  0  0  0  0
 15 16  1  0  0  0  0
 15 28  2  0  0  0  0
 16 17  1  0  0  0  0
 16 46  1  0  0  0  0
 16 47  1  0  0  0  0
 17 18  2  0  0  0  0
 17 19  1  0  0  0  0
 19 20  1  0  0  0  0
 19 48  1  0  0  0  0
 20 21  2  0  0  0  0
 20 26  1  0  0  0  0
 21 22  1  0  0  0  0
 22 23  1  0  0  0  0
 22 49  1  0  0  0  0
 23 24  1  0  0  0  0
 23 26  2  0  0  0  0
 24 25  1  0  0  0  0
 24 50  1  0  0  0  0
 24 51  1  0  0  0  0
 25 52  1  0  0  0  0
 25 53  1  0  0  0  0
 25 54  1  0  0  0  0
 26 27  1  0  0  0  0
 27 55  1  0  0  0  0
 27 56  1  0  0  0  0
 27 57  1  0  0  0  0
 28 29  1  0  0  0  0
 28 31  1  0  0  0  0
 29 30  1  0  0  0  0
 30 58  1  0  0  0  0
 30 59  1  0  0  0  0
 30 60  1  0  0  0  0
 31 61  1  0  0  0  0
 32 33  2  0  0  0  0
 33 34  1  0  0  0  0
 33 62  1  0  0  0  0
 34 35  1  0  0  0  0
 35 36  1  0  0  0  0
 36 63  1  0  0  0  0
 36 64  1  0  0  0  0
 36 65  1  0  0  0  0
M  END
$$$$
