CHEMBL238529
 OpenBabel04072215363D

 48 50  0  0  0  0  0  0  0  0999 V2000
   -0.3792    0.8384    1.2363 C   0  0  0  0  0  0  0  0  0  0  0  0
    0.8990    0.2303    1.0908 O   0  0  0  0  0  0  0  0  0  0  0  0
    1.6805    0.1564    2.2084 C   0  0  0  0  0  0  0  0  0  0  0  0
    1.1528    0.1930    3.5078 C   0  0  0  0  0  0  0  0  0  0  0  0
    1.9801    0.0625    4.6255 C   0  0  0  0  0  0  0  0  0  0  0  0
    3.3443   -0.1958    4.4657 C   0  0  0  0  0  0  0  0  0  0  0  0
    4.1114   -0.3559    5.6335 N   0  0  0  0  0  0  0  0  0  0  0  0
    5.0358   -1.3756    5.7862 C   0  0  0  0  0  0  0  0  0  0  0  0
    5.2315   -2.2340    4.9303 O   0  0  0  0  0  0  0  0  0  0  0  0
    5.6860   -1.4146    7.0827 C   0  0  0  0  0  0  0  0  0  0  0  0
    6.1193   -2.5302    7.7811 C   0  0  0  0  0  0  0  0  0  0  0  0
    5.8665   -3.8109    7.4759 N   0  0  0  0  0  0  0  0  0  0  0  0
    6.7879   -4.8702    7.8331 C   0  0  0  0  0  0  0  0  0  0  0  0
    6.7200   -6.0189    6.8432 C   0  0  0  0  0  0  0  0  0  0  0  0
    6.5368   -5.8091    5.4677 C   0  0  0  0  0  0  0  0  0  0  0  0
    6.5138   -6.9021    4.6176 C   0  0  0  0  0  0  0  0  0  0  0  0
    6.6807   -8.1758    5.0187 N   0  0  0  0  0  0  0  0  0  0  0  0
    6.9000   -8.3603    6.3454 C   0  0  0  0  0  0  0  0  0  0  0  0
    6.9250   -7.3381    7.2799 C   0  0  0  0  0  0  0  0  0  0  0  0
    6.8306   -2.2022    8.8943 N   0  0  0  0  0  0  0  0  0  0  0  0
    6.8076   -0.8927    8.9334 C   0  0  0  0  0  0  0  0  0  0  0  0
    6.1212   -0.3671    7.8730 N   0  0  0  0  0  0  0  0  0  0  0  0
    5.9936    1.0486    7.6256 C   0  0  0  0  0  0  0  0  0  0  0  0
    3.8776   -0.2499    3.1809 C   0  0  0  0  0  0  0  0  0  0  0  0
    3.0658   -0.0392    2.0483 C   0  0  0  0  0  0  0  0  0  0  0  0
    3.7501   -0.0861    0.8576 O   0  0  0  0  0  0  0  0  0  0  0  0
    3.2682    0.7654   -0.1811 C   0  0  0  0  0  0  0  0  0  0  0  0
   -0.8166    0.9411    0.2385 H   0  0  0  0  0  0  0  0  0  0  0  0
   -0.2906    1.8408    1.6689 H   0  0  0  0  0  0  0  0  0  0  0  0
   -1.0552    0.2109    1.8254 H   0  0  0  0  0  0  0  0  0  0  0  0
    0.0861    0.2848    3.6850 H   0  0  0  0  0  0  0  0  0  0  0  0
    1.5298    0.0793    5.6141 H   0  0  0  0  0  0  0  0  0  0  0  0
    3.6941   -0.0335    6.4951 H   0  0  0  0  0  0  0  0  0  0  0  0
    5.1217   -4.0617    6.8345 H   0  0  0  0  0  0  0  0  0  0  0  0
    6.5257   -5.2298    8.8346 H   0  0  0  0  0  0  0  0  0  0  0  0
    7.8256   -4.5165    7.8586 H   0  0  0  0  0  0  0  0  0  0  0  0
    6.4152   -4.8086    5.0618 H   0  0  0  0  0  0  0  0  0  0  0  0
    6.3541   -6.7731    3.5512 H   0  0  0  0  0  0  0  0  0  0  0  0
    7.0607   -9.3903    6.6476 H   0  0  0  0  0  0  0  0  0  0  0  0
    7.1112   -7.5583    8.3219 H   0  0  0  0  0  0  0  0  0  0  0  0
    7.2746   -0.2830    9.6964 H   0  0  0  0  0  0  0  0  0  0  0  0
    6.5437    1.6037    8.3909 H   0  0  0  0  0  0  0  0  0  0  0  0
    4.9382    1.3223    7.6844 H   0  0  0  0  0  0  0  0  0  0  0  0
    6.4077    1.2745    6.6403 H   0  0  0  0  0  0  0  0  0  0  0  0
    4.9408   -0.4302    3.0324 H   0  0  0  0  0  0  0  0  0  0  0  0
    4.0899    0.9343   -0.8847 H   0  0  0  0  0  0  0  0  0  0  0  0
    2.9581    1.7435    0.1980 H   0  0  0  0  0  0  0  0  0  0  0  0
    2.4627    0.2810   -0.7378 H   0  0  0  0  0  0  0  0  0  0  0  0
  1  2  1  0  0  0  0
  1 28  1  0  0  0  0
  1 29  1  0  0  0  0
  1 30  1  0  0  0  0
  2  3  1  0  0  0  0
  3  4  1  0  0  0  0
  3 25  2  0  0  0  0
  4  5  2  0  0  0  0
  4 31  1  0  0  0  0
  5  6  1  0  0  0  0
  5 32  1  0  0  0  0
  6  7  1  0  0  0  0
  6 24  2  0  0  0  0
  7  8  1  0  0  0  0
  7 33  1  0  0  0  0
  8  9  2  0  0  0  0
  8 10  1  0  0  0  0
 10 11  2  0  0  0  0
 10 22  1  0  0  0  0
 11 12  1  0  0  0  0
 11 20  1  0  0  0  0
 12 13  1  0  0  0  0
 12 34  1  0  0  0  0
 13 14  1  0  0  0  0
 13 35  1  0  0  0  0
 13 36  1  0  0  0  0
 14 15  1  0  0  0  0
 14 19  2  0  0  0  0
 15 16  2  0  0  0  0
 15 37  1  0  0  0  0
 16 17  1  0  0  0  0
 16 38  1  0  0  0  0
 17 18  2  0  0  0  0
 18 19  1  0  0  0  0
 18 39  1  0  0  0  0
 19 40  1  0  0  0  0
 20 21  2  0  0  0  0
 21 22  1  0  0  0  0
 21 41  1  0  0  0  0
 22 23  1  0  0  0  0
 23 42  1  0  0  0  0
 23 43  1  0  0  0  0
 23 44  1  0  0  0  0
 24 25  1  0  0  0  0
 24 45  1  0  0  0  0
 25 26  1  0  0  0  0
 26 27  1  0  0  0  0
 27 46  1  0  0  0  0
 27 47  1  0  0  0  0
 27 48  1  0  0  0  0
M  END
$$$$
