CHEMBL3656062
 OpenBabel04072215373D

 61 64  0  0  0  0  0  0  0  0999 V2000
   13.7400    5.3386   -0.3843 C   0  0  0  0  0  0  0  0  0  0  0  0
   13.1168    5.8824    0.7800 O   0  0  0  0  0  0  0  0  0  0  0  0
   12.4066    4.9723    1.5018 C   0  0  0  0  0  0  0  0  0  0  0  0
   12.2873    3.7843    1.2225 O   0  0  0  0  0  0  0  0  0  0  0  0
   11.7698    5.6367    2.7115 C   0  0  0  0  0  0  0  0  0  0  0  0
   11.0287    4.6506    3.4724 N   0  0  0  0  0  0  0  0  0  0  0  0
   10.3846    4.9488    4.6490 C   0  0  0  0  0  0  0  0  0  0  0  0
   10.4079    6.0856    5.1151 O   0  0  0  0  0  0  0  0  0  0  0  0
    9.6864    3.8356    5.2781 C   0  0  0  0  0  0  0  0  0  0  0  0
    8.9027    3.8726    6.4181 C   0  0  0  0  0  0  0  0  0  0  0  0
    8.3414    2.5988    6.7585 C   0  0  0  0  0  0  0  0  0  0  0  0
    7.4180    2.3002    7.8492 C   0  0  0  0  0  0  0  0  0  0  0  0
    7.4309    1.0668    8.4852 C   0  0  0  0  0  0  0  0  0  0  0  0
    6.4000    0.7654    9.3724 C   0  0  0  0  0  0  0  0  0  0  0  0
    6.2449   -0.4670    9.9684 O   0  0  0  0  0  0  0  0  0  0  0  0
    6.5873   -1.5930    9.2590 C   0  0  0  0  0  0  0  0  0  0  0  0
    7.1131   -2.6516    9.9863 C   0  0  0  0  0  0  0  0  0  0  0  0
    7.5538   -3.8087    9.3285 C   0  0  0  0  0  0  0  0  0  0  0  0
    7.4825   -3.9141    7.9321 C   0  0  0  0  0  0  0  0  0  0  0  0
    7.9981   -5.0149    7.2072 N   0  0  0  0  0  0  0  0  0  0  0  0
    8.5627   -6.1570    7.7563 C   0  0  0  0  0  0  0  0  0  0  0  0
    8.6154   -6.4019    8.9523 O   0  0  0  0  0  0  0  0  0  0  0  0
    9.0936   -6.9967    6.7860 N   0  0  0  0  0  0  0  0  0  0  0  0
    9.7036   -8.2066    7.2084 C   0  0  0  0  0  0  0  0  0  0  0  0
    9.0419   -9.0877    8.0751 C   0  0  0  0  0  0  0  0  0  0  0  0
    9.6889  -10.2312    8.5627 C   0  0  0  0  0  0  0  0  0  0  0  0
    8.9779  -11.1720    9.4905 C   0  0  0  0  0  0  0  0  0  0  0  0
   11.0159  -10.4778    8.1847 C   0  0  0  0  0  0  0  0  0  0  0  0
   11.6720   -9.6122    7.3053 C   0  0  0  0  0  0  0  0  0  0  0  0
   11.0050   -8.4983    6.8045 C   0  0  0  0  0  0  0  0  0  0  0  0
   11.6540   -7.6551    5.9846 F   0  0  0  0  0  0  0  0  0  0  0  0
    6.8910   -2.8726    7.2181 C   0  0  0  0  0  0  0  0  0  0  0  0
    6.4174   -1.7328    7.8819 C   0  0  0  0  0  0  0  0  0  0  0  0
    5.4708    1.7429    9.6992 C   0  0  0  0  0  0  0  0  0  0  0  0
    5.5705    2.9675    9.0627 C   0  0  0  0  0  0  0  0  0  0  0  0
    6.5095    3.2613    8.1353 N   0  0  0  0  0  0  0  0  0  0  0  0
    8.7253    1.6355    5.8441 C   0  0  0  0  0  0  0  0  0  0  0  0
    9.7541    2.2488    4.6311 S   0  0  0  0  0  0  0  0  0  0  0  0
   14.2732    6.1471   -0.8919 H   0  0  0  0  0  0  0  0  0  0  0  0
   12.9874    4.9360   -1.0700 H   0  0  0  0  0  0  0  0  0  0  0  0
   14.4641    4.5663   -0.1062 H   0  0  0  0  0  0  0  0  0  0  0  0
   11.0731    6.4136    2.3839 H   0  0  0  0  0  0  0  0  0  0  0  0
   12.5448    6.0625    3.3552 H   0  0  0  0  0  0  0  0  0  0  0  0
   10.9687    3.7067    3.1018 H   0  0  0  0  0  0  0  0  0  0  0  0
    8.7257    4.7820    6.9827 H   0  0  0  0  0  0  0  0  0  0  0  0
    8.2026    0.3393    8.2607 H   0  0  0  0  0  0  0  0  0  0  0  0
    7.2021   -2.5917   11.0722 H   0  0  0  0  0  0  0  0  0  0  0  0
    7.9680   -4.5921    9.9491 H   0  0  0  0  0  0  0  0  0  0  0  0
    7.8823   -5.0071    6.2048 H   0  0  0  0  0  0  0  0  0  0  0  0
    9.5836   -6.5139    6.0441 H   0  0  0  0  0  0  0  0  0  0  0  0
    8.0237   -8.8703    8.3884 H   0  0  0  0  0  0  0  0  0  0  0  0
    7.9545  -10.8400    9.6924 H   0  0  0  0  0  0  0  0  0  0  0  0
    9.5056  -11.2340   10.4477 H   0  0  0  0  0  0  0  0  0  0  0  0
    8.9227  -12.1691    9.0425 H   0  0  0  0  0  0  0  0  0  0  0  0
   11.5451  -11.3398    8.5813 H   0  0  0  0  0  0  0  0  0  0  0  0
   12.7081   -9.7890    7.0274 H   0  0  0  0  0  0  0  0  0  0  0  0
    6.7934   -2.9195    6.1356 H   0  0  0  0  0  0  0  0  0  0  0  0
    5.9416   -0.9485    7.2982 H   0  0  0  0  0  0  0  0  0  0  0  0
    4.6823    1.5513   10.4176 H   0  0  0  0  0  0  0  0  0  0  0  0
    4.8630    3.7653    9.2724 H   0  0  0  0  0  0  0  0  0  0  0  0
    8.4433    0.5920    5.8087 H   0  0  0  0  0  0  0  0  0  0  0  0
  1  2  1  0  0  0  0
  1 39  1  0  0  0  0
  1 40  1  0  0  0  0
  1 41  1  0  0  0  0
  2  3  1  0  0  0  0
  3  4  2  0  0  0  0
  3  5  1  0  0  0  0
  5  6  1  0  0  0  0
  5 42  1  0  0  0  0
  5 43  1  0  0  0  0
  6  7  1  0  0  0  0
  6 44  1  0  0  0  0
  7  8  2  0  0  0  0
  7  9  1  0  0  0  0
  9 10  2  0  0  0  0
  9 38  1  0  0  0  0
 10 11  1  0  0  0  0
 10 45  1  0  0  0  0
 11 12  1  0  0  0  0
 11 37  2  0  0  0  0
 12 13  1  0  0  0  0
 12 36  2  0  0  0  0
 13 14  2  0  0  0  0
 13 46  1  0  0  0  0
 14 15  1  0  0  0  0
 14 34  1  0  0  0  0
 15 16  1  0  0  0  0
 16 17  1  0  0  0  0
 16 33  2  0  0  0  0
 17 18  2  0  0  0  0
 17 47  1  0  0  0  0
 18 19  1  0  0  0  0
 18 48  1  0  0  0  0
 19 20  1  0  0  0  0
 19 32  2  0  0  0  0
 20 21  1  0  0  0  0
 20 49  1  0  0  0  0
 21 22  2  0  0  0  0
 21 23  1  0  0  0  0
 23 24  1  0  0  0  0
 23 50  1  0  0  0  0
 24 25  1  0  0  0  0
 24 30  2  0  0  0  0
 25 26  2  0  0  0  0
 25 51  1  0  0  0  0
 26 27  1  0  0  0  0
 26 28  1  0  0  0  0
 27 52  1  0  0  0  0
 27 53  1  0  0  0  0
 27 54  1  0  0  0  0
 28 29  2  0  0  0  0
 28 55  1  0  0  0  0
 29 30  1  0  0  0  0
 29 56  1  0  0  0  0
 30 31  1  0  0  0  0
 32 33  1  0  0  0  0
 32 57  1  0  0  0  0
 33 58  1  0  0  0  0
 34 35  2  0  0  0  0
 34 59  1  0  0  0  0
 35 36  1  0  0  0  0
 35 60  1  0  0  0  0
 37 38  1  0  0  0  0
 37 61  1  0  0  0  0
M  END
$$$$
