CHEMBL4169073
 OpenBabel04072215383D

 48 52  0  0  0  0  0  0  0  0999 V2000
   -4.9307   -4.8246    2.3230 C   0  0  0  0  0  0  0  0  0  0  0  0
   -4.5429   -3.5478    1.6421 C   0  0  0  0  0  0  0  0  0  0  0  0
   -5.4381   -2.4818    1.5804 C   0  0  0  0  0  0  0  0  0  0  0  0
   -5.0745   -1.2877    0.9539 C   0  0  0  0  0  0  0  0  0  0  0  0
   -3.8172   -1.1282    0.3583 C   0  0  0  0  0  0  0  0  0  0  0  0
   -3.4023    0.0785   -0.2479 N   0  0  0  0  0  0  0  0  0  0  0  0
   -4.0451    1.2702   -0.1717 C   0  0  0  0  0  0  0  0  0  0  0  0
   -4.9119    1.6778    0.7318 N   0  0  0  0  0  0  0  0  0  0  0  0
   -5.3118    2.9289    0.3562 C   0  0  0  0  0  0  0  0  0  0  0  0
   -6.2610    3.7749    0.9503 C   0  0  0  0  0  0  0  0  0  0  0  0
   -6.5187    5.0146    0.3564 C   0  0  0  0  0  0  0  0  0  0  0  0
   -7.4677    5.7990    0.9800 O   0  0  0  0  0  0  0  0  0  0  0  0
   -8.2180    6.6652    0.1960 C   0  0  0  0  0  0  0  0  0  0  0  0
   -8.5221    6.3422   -1.0872 N   0  0  0  0  0  0  0  0  0  0  0  0
   -9.1965    7.2436   -1.8239 C   0  0  0  0  0  0  0  0  0  0  0  0
   -9.6412    8.4536   -1.4439 N   0  0  0  0  0  0  0  0  0  0  0  0
   -9.3595    8.6980   -0.1518 C   0  0  0  0  0  0  0  0  0  0  0  0
   -8.6786    7.8679    0.7195 C   0  0  0  0  0  0  0  0  0  0  0  0
   -8.6538    8.5736    1.9372 C   0  0  0  0  0  0  0  0  0  0  0  0
   -9.2562    9.7672    1.8560 N   0  0  0  0  0  0  0  0  0  0  0  0
   -9.6685    9.8197    0.5678 N   0  0  0  0  0  0  0  0  0  0  0  0
  -10.3420   10.9885    0.0593 C   0  0  0  0  0  0  0  0  0  0  0  0
   -5.7867    5.4246   -0.7649 C   0  0  0  0  0  0  0  0  0  0  0  0
   -4.8478    4.5866   -1.3764 C   0  0  0  0  0  0  0  0  0  0  0  0
   -4.6405    3.3354   -0.7910 C   0  0  0  0  0  0  0  0  0  0  0  0
   -3.8450    2.2590   -1.1140 N   0  0  0  0  0  0  0  0  0  0  0  0
   -3.0237    2.1502   -2.2944 C   0  0  0  0  0  0  0  0  0  0  0  0
   -2.9208   -2.2043    0.4308 C   0  0  0  0  0  0  0  0  0  0  0  0
   -3.2796   -3.4034    1.0584 C   0  0  0  0  0  0  0  0  0  0  0  0
   -5.9280   -4.7500    2.7701 H   0  0  0  0  0  0  0  0  0  0  0  0
   -4.2238   -5.0540    3.1263 H   0  0  0  0  0  0  0  0  0  0  0  0
   -4.9462   -5.6491    1.6034 H   0  0  0  0  0  0  0  0  0  0  0  0
   -6.4278   -2.5564    2.0225 H   0  0  0  0  0  0  0  0  0  0  0  0
   -5.8053   -0.4858    0.9300 H   0  0  0  0  0  0  0  0  0  0  0  0
   -2.6341   -0.0531   -0.8929 H   0  0  0  0  0  0  0  0  0  0  0  0
   -6.7910    3.4512    1.8394 H   0  0  0  0  0  0  0  0  0  0  0  0
   -9.3936    6.9616   -2.8543 H   0  0  0  0  0  0  0  0  0  0  0  0
   -8.2198    8.2691    2.8813 H   0  0  0  0  0  0  0  0  0  0  0  0
  -10.4772   11.7130    0.8651 H   0  0  0  0  0  0  0  0  0  0  0  0
  -11.3138   10.6838   -0.3364 H   0  0  0  0  0  0  0  0  0  0  0  0
   -9.7247   11.4221   -0.7318 H   0  0  0  0  0  0  0  0  0  0  0  0
   -5.9512    6.4061   -1.2022 H   0  0  0  0  0  0  0  0  0  0  0  0
   -4.3231    4.9056   -2.2688 H   0  0  0  0  0  0  0  0  0  0  0  0
   -3.2305    2.9760   -2.9782 H   0  0  0  0  0  0  0  0  0  0  0  0
   -3.2569    1.2097   -2.8011 H   0  0  0  0  0  0  0  0  0  0  0  0
   -1.9756    2.1753   -1.9878 H   0  0  0  0  0  0  0  0  0  0  0  0
   -1.9225   -2.1168    0.0087 H   0  0  0  0  0  0  0  0  0  0  0  0
   -2.5633   -4.2200    1.0993 H   0  0  0  0  0  0  0  0  0  0  0  0
  1  2  1  0  0  0  0
  1 30  1  0  0  0  0
  1 31  1  0  0  0  0
  1 32  1  0  0  0  0
  2  3  1  0  0  0  0
  2 29  2  0  0  0  0
  3  4  2  0  0  0  0
  3 33  1  0  0  0  0
  4  5  1  0  0  0  0
  4 34  1  0  0  0  0
  5  6  1  0  0  0  0
  5 28  2  0  0  0  0
  6  7  1  0  0  0  0
  6 35  1  0  0  0  0
  7  8  2  0  0  0  0
  7 26  1  0  0  0  0
  8  9  1  0  0  0  0
  9 10  1  0  0  0  0
  9 25  2  0  0  0  0
 10 11  2  0  0  0  0
 10 36  1  0  0  0  0
 11 12  1  0  0  0  0
 11 23  1  0  0  0  0
 12 13  1  0  0  0  0
 13 14  1  0  0  0  0
 13 18  2  0  0  0  0
 14 15  2  0  0  0  0
 15 16  1  0  0  0  0
 15 37  1  0  0  0  0
 16 17  2  0  0  0  0
 17 18  1  0  0  0  0
 17 21  1  0  0  0  0
 18 19  1  0  0  0  0
 19 20  2  0  0  0  0
 19 38  1  0  0  0  0
 20 21  1  0  0  0  0
 21 22  1  0  0  0  0
 22 39  1  0  0  0  0
 22 40  1  0  0  0  0
 22 41  1  0  0  0  0
 23 24  2  0  0  0  0
 23 42  1  0  0  0  0
 24 25  1  0  0  0  0
 24 43  1  0  0  0  0
 25 26  1  0  0  0  0
 26 27  1  0  0  0  0
 27 44  1  0  0  0  0
 27 45  1  0  0  0  0
 27 46  1  0  0  0  0
 28 29  1  0  0  0  0
 28 47  1  0  0  0  0
 29 48  1  0  0  0  0
M  END
$$$$
