CHEMBL1973142
 OpenBabel04072215363D

 26 27  0  0  0  0  0  0  0  0999 V2000
    1.0828   -0.1324    0.2597 C   0  0  0  0  0  0  0  0  0  0  0  0
    2.5719   -0.2349    0.0592 C   0  0  0  0  0  0  0  0  0  0  0  0
    3.0780   -1.1200   -0.6236 O   0  0  0  0  0  0  0  0  0  0  0  0
    3.2718    0.7112    0.7938 N   0  0  0  0  0  0  0  0  0  0  0  0
    4.6681    0.7815    0.7406 C   0  0  0  0  0  0  0  0  0  0  0  0
    5.4000    0.8313   -0.4388 C   0  0  0  0  0  0  0  0  0  0  0  0
    4.9322    0.9763   -1.8129 C   0  0  0  0  0  0  0  0  0  0  0  0
    5.7989    0.5845   -2.8004 N   0  0  0  0  0  0  0  0  0  0  0  0
    3.8452    1.4484   -2.1368 O   0  0  0  0  0  0  0  0  0  0  0  0
    7.0786    0.8179   -0.1249 S   0  0  0  0  0  0  0  0  0  0  0  0
    6.8603    0.8283    1.5723 C   0  0  0  0  0  0  0  0  0  0  0  0
    7.8995    0.8206    2.5258 C   0  0  0  0  0  0  0  0  0  0  0  0
    7.5831    0.7999    3.8825 C   0  0  0  0  0  0  0  0  0  0  0  0
    6.2578    0.8007    4.2911 C   0  0  0  0  0  0  0  0  0  0  0  0
    5.9399    0.7525    5.9881 Cl  0  0  0  0  0  0  0  0  0  0  0  0
    5.2325    0.8248    3.3345 C   0  0  0  0  0  0  0  0  0  0  0  0
    3.5689    0.8292    3.7834 Cl  0  0  0  0  0  0  0  0  0  0  0  0
    5.5059    0.8345    1.9347 C   0  0  0  0  0  0  0  0  0  0  0  0
    0.5778   -0.8567   -0.3861 H   0  0  0  0  0  0  0  0  0  0  0  0
    0.7389    0.8708   -0.0066 H   0  0  0  0  0  0  0  0  0  0  0  0
    0.8302   -0.3488    1.3003 H   0  0  0  0  0  0  0  0  0  0  0  0
    2.8431    0.9778    1.6744 H   0  0  0  0  0  0  0  0  0  0  0  0
    6.6684    0.1184   -2.5866 H   0  0  0  0  0  0  0  0  0  0  0  0
    5.4752    0.6259   -3.7558 H   0  0  0  0  0  0  0  0  0  0  0  0
    8.9400    0.8173    2.2073 H   0  0  0  0  0  0  0  0  0  0  0  0
    8.3874    0.7779    4.6147 H   0  0  0  0  0  0  0  0  0  0  0  0
  1  2  1  0  0  0  0
  1 19  1  0  0  0  0
  1 20  1  0  0  0  0
  1 21  1  0  0  0  0
  2  3  2  0  0  0  0
  2  4  1  0  0  0  0
  4  5  1  0  0  0  0
  4 22  1  0  0  0  0
  5  6  2  0  0  0  0
  5 18  1  0  0  0  0
  6  7  1  0  0  0  0
  6 10  1  0  0  0  0
  7  8  1  0  0  0  0
  7  9  2  0  0  0  0
  8 23  1  0  0  0  0
  8 24  1  0  0  0  0
 10 11  1  0  0  0  0
 11 12  1  0  0  0  0
 11 18  2  0  0  0  0
 12 13  2  0  0  0  0
 12 25  1  0  0  0  0
 13 14  1  0  0  0  0
 13 26  1  0  0  0  0
 14 15  1  0  0  0  0
 14 16  2  0  0  0  0
 16 17  1  0  0  0  0
 16 18  1  0  0  0  0
M  END
$$$$
