CHEMBL185614
 OpenBabel04072215363D

 46 49  0  0  0  0  0  0  0  0999 V2000
    3.0203   -5.7149   -0.5942 C   0  0  0  0  0  0  0  0  0  0  0  0
    1.5738   -6.0872   -0.7720 C   0  0  0  0  0  0  0  0  0  0  0  0
    1.2472   -7.3599   -1.2530 C   0  0  0  0  0  0  0  0  0  0  0  0
   -0.0811   -7.7190   -1.4241 C   0  0  0  0  0  0  0  0  0  0  0  0
   -1.0966   -6.8061   -1.1153 C   0  0  0  0  0  0  0  0  0  0  0  0
   -0.7976   -5.5332   -0.6239 C   0  0  0  0  0  0  0  0  0  0  0  0
   -1.8062   -4.5836   -0.2958 N   0  0  0  0  0  0  0  0  0  0  0  0
   -3.1685   -4.8226   -0.3102 C   0  0  0  0  0  0  0  0  0  0  0  0
   -3.7038   -5.8957   -0.5531 O   0  0  0  0  0  0  0  0  0  0  0  0
   -3.9066   -3.6692   -0.0686 N   0  0  0  0  0  0  0  0  0  0  0  0
   -5.3203   -3.7508   -0.0672 C   0  0  0  0  0  0  0  0  0  0  0  0
   -6.0464   -2.9073   -0.8887 C   0  0  0  0  0  0  0  0  0  0  0  0
   -7.4395   -3.0350   -0.9557 C   0  0  0  0  0  0  0  0  0  0  0  0
   -8.1839   -3.8914   -0.1111 C   0  0  0  0  0  0  0  0  0  0  0  0
   -9.6824   -3.7994   -0.1073 C   0  0  0  0  0  0  0  0  0  0  0  0
  -10.5180   -4.9262    0.0893 C   0  0  0  0  0  0  0  0  0  0  0  0
  -11.9242   -4.8376    0.2152 C   0  0  0  0  0  0  0  0  0  0  0  0
  -12.5683   -3.6143    0.1050 C   0  0  0  0  0  0  0  0  0  0  0  0
  -11.7730   -2.5200   -0.1467 C   0  0  0  0  0  0  0  0  0  0  0  0
  -10.3728   -2.5848   -0.2638 C   0  0  0  0  0  0  0  0  0  0  0  0
   -9.8730   -1.2012   -0.5610 C   0  0  0  0  0  0  0  0  0  0  0  0
  -11.0596   -0.3896   -0.5118 N   0  0  0  0  0  0  0  0  0  0  0  0
  -12.1974   -1.1256   -0.3195 C   0  0  0  0  0  0  0  0  0  0  0  0
  -13.3395   -0.7132   -0.3023 O   0  0  0  0  0  0  0  0  0  0  0  0
   -7.4089   -4.7370    0.7203 C   0  0  0  0  0  0  0  0  0  0  0  0
   -8.0773   -5.8573    1.8649 Cl  0  0  0  0  0  0  0  0  0  0  0  0
   -6.0011   -4.6863    0.7109 C   0  0  0  0  0  0  0  0  0  0  0  0
    0.5468   -5.1790   -0.4572 C   0  0  0  0  0  0  0  0  0  0  0  0
    3.6791   -6.5349   -0.9006 H   0  0  0  0  0  0  0  0  0  0  0  0
    3.2265   -5.4973    0.4577 H   0  0  0  0  0  0  0  0  0  0  0  0
    3.2651   -4.8450   -1.2080 H   0  0  0  0  0  0  0  0  0  0  0  0
    2.0209   -8.0819   -1.4990 H   0  0  0  0  0  0  0  0  0  0  0  0
   -0.3473   -8.7023   -1.7967 H   0  0  0  0  0  0  0  0  0  0  0  0
   -2.1102   -7.1450   -1.2781 H   0  0  0  0  0  0  0  0  0  0  0  0
   -1.4947   -3.7104    0.1045 H   0  0  0  0  0  0  0  0  0  0  0  0
   -3.5058   -2.8382   -0.4776 H   0  0  0  0  0  0  0  0  0  0  0  0
   -5.5493   -2.1966   -1.5432 H   0  0  0  0  0  0  0  0  0  0  0  0
   -7.9359   -2.4392   -1.7133 H   0  0  0  0  0  0  0  0  0  0  0  0
  -10.0935   -5.9264    0.1585 H   0  0  0  0  0  0  0  0  0  0  0  0
  -12.5046   -5.7375    0.4092 H   0  0  0  0  0  0  0  0  0  0  0  0
  -13.6440   -3.5160    0.2031 H   0  0  0  0  0  0  0  0  0  0  0  0
   -9.4877   -1.1141   -1.5805 H   0  0  0  0  0  0  0  0  0  0  0  0
   -9.1544   -0.8356    0.1759 H   0  0  0  0  0  0  0  0  0  0  0  0
  -11.1019    0.5974   -0.7311 H   0  0  0  0  0  0  0  0  0  0  0  0
   -5.4369   -5.3711    1.3419 H   0  0  0  0  0  0  0  0  0  0  0  0
    0.8152   -4.1927   -0.0809 H   0  0  0  0  0  0  0  0  0  0  0  0
  1  2  1  0  0  0  0
  1 29  1  0  0  0  0
  1 30  1  0  0  0  0
  1 31  1  0  0  0  0
  2  3  1  0  0  0  0
  2 28  2  0  0  0  0
  3  4  2  0  0  0  0
  3 32  1  0  0  0  0
  4  5  1  0  0  0  0
  4 33  1  0  0  0  0
  5  6  2  0  0  0  0
  5 34  1  0  0  0  0
  6  7  1  0  0  0  0
  6 28  1  0  0  0  0
  7  8  1  0  0  0  0
  7 35  1  0  0  0  0
  8  9  2  0  0  0  0
  8 10  1  0  0  0  0
 10 11  1  0  0  0  0
 10 36  1  0  0  0  0
 11 12  1  0  0  0  0
 11 27  2  0  0  0  0
 12 13  2  0  0  0  0
 12 37  1  0  0  0  0
 13 14  1  0  0  0  0
 13 38  1  0  0  0  0
 14 15  1  0  0  0  0
 14 25  2  0  0  0  0
 15 16  1  0  0  0  0
 15 20  2  0  0  0  0
 16 17  2  0  0  0  0
 16 39  1  0  0  0  0
 17 18  1  0  0  0  0
 17 40  1  0  0  0  0
 18 19  2  0  0  0  0
 18 41  1  0  0  0  0
 19 20  1  0  0  0  0
 19 23  1  0  0  0  0
 20 21  1  0  0  0  0
 21 22  1  0  0  0  0
 21 42  1  0  0  0  0
 21 43  1  0  0  0  0
 22 23  1  0  0  0  0
 22 44  1  0  0  0  0
 23 24  2  0  0  0  0
 25 26  1  0  0  0  0
 25 27  1  0  0  0  0
 27 45  1  0  0  0  0
 28 46  1  0  0  0  0
M  END
$$$$
