CHEMBL1255098
 OpenBabel04072215363D

 51 54  0  0  0  0  0  0  0  0999 V2000
    3.5456   -0.9403   -1.0879 C   0  0  0  0  0  0  0  0  0  0  0  0
    3.3736   -0.6126    0.3144 N   0  0  0  0  0  0  0  0  0  0  0  0
    3.9934    0.4234    0.9946 C   0  0  0  0  0  0  0  0  0  0  0  0
    4.9507    1.3853    0.3889 C   0  0  0  0  0  0  0  0  0  0  0  0
    6.0821    0.6445   -0.0329 O   0  0  0  0  0  0  0  0  0  0  0  0
    3.5162    0.3947    2.2937 C   0  0  0  0  0  0  0  0  0  0  0  0
    2.5908   -0.6631    2.3974 C   0  0  0  0  0  0  0  0  0  0  0  0
    1.8711   -1.0460    3.4721 N   0  0  0  0  0  0  0  0  0  0  0  0
    1.0682   -2.0876    3.2295 C   0  0  0  0  0  0  0  0  0  0  0  0
    0.9313   -2.7681    2.0812 N   0  0  0  0  0  0  0  0  0  0  0  0
    1.6967   -2.4052    1.0268 C   0  0  0  0  0  0  0  0  0  0  0  0
    1.6304   -3.1403   -0.1530 O   0  0  0  0  0  0  0  0  0  0  0  0
    1.4580   -4.5053   -0.0354 C   0  0  0  0  0  0  0  0  0  0  0  0
    2.0137   -5.2559    1.0020 C   0  0  0  0  0  0  0  0  0  0  0  0
    1.7999   -6.6312    1.0791 C   0  0  0  0  0  0  0  0  0  0  0  0
    1.0536   -7.3045    0.1092 C   0  0  0  0  0  0  0  0  0  0  0  0
    0.8250   -8.7073    0.1726 N   0  0  0  0  0  0  0  0  0  0  0  0
    1.1008   -9.5246    1.2564 C   0  0  0  0  0  0  0  0  0  0  0  0
    1.4696   -9.1344    2.3577 O   0  0  0  0  0  0  0  0  0  0  0  0
    0.9693  -10.8678    0.9380 N   0  0  0  0  0  0  0  0  0  0  0  0
    1.2282  -11.8651    1.9098 C   0  0  0  0  0  0  0  0  0  0  0  0
    2.0258  -12.9522    1.5530 C   0  0  0  0  0  0  0  0  0  0  0  0
    2.3464  -13.9230    2.5061 C   0  0  0  0  0  0  0  0  0  0  0  0
    1.8283  -13.8418    3.7972 C   0  0  0  0  0  0  0  0  0  0  0  0
    0.9887  -12.7797    4.1579 C   0  0  0  0  0  0  0  0  0  0  0  0
    0.3782  -12.7005    5.5364 C   0  0  0  0  0  0  0  0  0  0  0  0
    0.6702  -13.7792    6.3190 F   0  0  0  0  0  0  0  0  0  0  0  0
    0.7867  -11.6113    6.2426 F   0  0  0  0  0  0  0  0  0  0  0  0
   -0.9829  -12.6358    5.4993 F   0  0  0  0  0  0  0  0  0  0  0  0
    0.7134  -11.7771    3.2089 C   0  0  0  0  0  0  0  0  0  0  0  0
    0.5488   -6.5526   -0.9677 C   0  0  0  0  0  0  0  0  0  0  0  0
   -0.3395   -7.3162   -2.2443 Cl  0  0  0  0  0  0  0  0  0  0  0  0
    0.7516   -5.1633   -1.0419 C   0  0  0  0  0  0  0  0  0  0  0  0
    2.5221   -1.2941    1.1632 C   0  0  0  0  0  0  0  0  0  0  0  0
    4.1613   -0.1922   -1.5883 H   0  0  0  0  0  0  0  0  0  0  0  0
    2.5589   -0.9555   -1.5587 H   0  0  0  0  0  0  0  0  0  0  0  0
    4.0230   -1.9209   -1.1552 H   0  0  0  0  0  0  0  0  0  0  0  0
    5.2759    2.1407    1.1129 H   0  0  0  0  0  0  0  0  0  0  0  0
    4.5126    1.9024   -0.4694 H   0  0  0  0  0  0  0  0  0  0  0  0
    6.5420    0.3627    0.7768 H   0  0  0  0  0  0  0  0  0  0  0  0
    3.7908    1.0750    3.0887 H   0  0  0  0  0  0  0  0  0  0  0  0
    0.4641   -2.4317    4.0633 H   0  0  0  0  0  0  0  0  0  0  0  0
    2.6013   -4.7858    1.7853 H   0  0  0  0  0  0  0  0  0  0  0  0
    2.2399   -7.1420    1.9289 H   0  0  0  0  0  0  0  0  0  0  0  0
    0.2556   -9.0985   -0.5677 H   0  0  0  0  0  0  0  0  0  0  0  0
    1.2127  -11.0942   -0.0155 H   0  0  0  0  0  0  0  0  0  0  0  0
    2.4567  -13.0297    0.5599 H   0  0  0  0  0  0  0  0  0  0  0  0
    3.0139  -14.7420    2.2427 H   0  0  0  0  0  0  0  0  0  0  0  0
    2.0806  -14.6124    4.5243 H   0  0  0  0  0  0  0  0  0  0  0  0
    0.0748  -10.9401    3.4883 H   0  0  0  0  0  0  0  0  0  0  0  0
    0.3521   -4.5940   -1.8776 H   0  0  0  0  0  0  0  0  0  0  0  0
  1  2  1  0  0  0  0
  1 35  1  0  0  0  0
  1 36  1  0  0  0  0
  1 37  1  0  0  0  0
  2  3  1  0  0  0  0
  2 34  1  0  0  0  0
  3  4  1  0  0  0  0
  3  6  2  0  0  0  0
  4  5  1  0  0  0  0
  4 38  1  0  0  0  0
  4 39  1  0  0  0  0
  5 40  1  0  0  0  0
  6  7  1  0  0  0  0
  6 41  1  0  0  0  0
  7  8  1  0  0  0  0
  7 34  2  0  0  0  0
  8  9  2  0  0  0  0
  9 10  1  0  0  0  0
  9 42  1  0  0  0  0
 10 11  2  0  0  0  0
 11 12  1  0  0  0  0
 11 34  1  0  0  0  0
 12 13  1  0  0  0  0
 13 14  1  0  0  0  0
 13 33  2  0  0  0  0
 14 15  2  0  0  0  0
 14 43  1  0  0  0  0
 15 16  1  0  0  0  0
 15 44  1  0  0  0  0
 16 17  1  0  0  0  0
 16 31  2  0  0  0  0
 17 18  1  0  0  0  0
 17 45  1  0  0  0  0
 18 19  2  0  0  0  0
 18 20  1  0  0  0  0
 20 21  1  0  0  0  0
 20 46  1  0  0  0  0
 21 22  1  0  0  0  0
 21 30  2  0  0  0  0
 22 23  2  0  0  0  0
 22 47  1  0  0  0  0
 23 24  1  0  0  0  0
 23 48  1  0  0  0  0
 24 25  2  0  0  0  0
 24 49  1  0  0  0  0
 25 26  1  0  0  0  0
 25 30  1  0  0  0  0
 26 27  1  0  0  0  0
 26 28  1  0  0  0  0
 26 29  1  0  0  0  0
 30 50  1  0  0  0  0
 31 32  1  0  0  0  0
 31 33  1  0  0  0  0
 33 51  1  0  0  0  0
M  END
$$$$
