CHEMBL371695
 OpenBabel04072215373D

 33 35  0  0  0  0  0  0  0  0999 V2000
    0.9802   -0.1025   -0.0162 C   0  0  0  0  0  0  0  0  0  0  0  0
    2.4472    0.0909   -0.0888 C   0  0  0  0  0  0  0  0  0  0  0  0
    3.2601   -0.9899    0.0022 N   0  0  0  0  0  0  0  0  0  0  0  0
    4.5152   -0.4719   -0.0066 N   0  0  0  0  0  0  0  0  0  0  0  0
    4.4984    0.8721   -0.0764 C   0  0  0  0  0  0  0  0  0  0  0  0
    5.6031    2.0977   -0.0334 S   0  0  0  0  0  0  0  0  0  0  0  0
    4.2980    3.2623   -0.1317 C   0  0  0  0  0  0  0  0  0  0  0  0
    4.5851    4.6910   -0.1874 C   0  0  0  0  0  0  0  0  0  0  0  0
    5.8985    5.0605   -0.3084 N   0  0  0  0  0  0  0  0  0  0  0  0
    3.7150    5.5616   -0.1607 O   0  0  0  0  0  0  0  0  0  0  0  0
    3.0398    2.6418   -0.2101 C   0  0  0  0  0  0  0  0  0  0  0  0
    1.8614    3.3773   -0.2833 N   0  0  0  0  0  0  0  0  0  0  0  0
    0.8304    3.0760   -1.1470 C   0  0  0  0  0  0  0  0  0  0  0  0
    0.8684    2.2078   -2.0122 O   0  0  0  0  0  0  0  0  0  0  0  0
   -0.3398    4.0001   -1.1101 C   0  0  0  0  0  0  0  0  0  0  0  0
   -1.0029    4.2189   -2.3311 C   0  0  0  0  0  0  0  0  0  0  0  0
   -2.0396    5.1475   -2.4229 C   0  0  0  0  0  0  0  0  0  0  0  0
   -2.4319    5.8608   -1.2945 C   0  0  0  0  0  0  0  0  0  0  0  0
   -1.8211    5.6102   -0.0660 C   0  0  0  0  0  0  0  0  0  0  0  0
   -0.7881    4.6702    0.0363 C   0  0  0  0  0  0  0  0  0  0  0  0
   -0.1743    4.3759    1.6264 Cl  0  0  0  0  0  0  0  0  0  0  0  0
    3.2188    1.2538   -0.1665 C   0  0  0  0  0  0  0  0  0  0  0  0
    0.7256   -1.1598    0.1082 H   0  0  0  0  0  0  0  0  0  0  0  0
    0.4808    0.2245   -0.9281 H   0  0  0  0  0  0  0  0  0  0  0  0
    0.5616    0.4447    0.8347 H   0  0  0  0  0  0  0  0  0  0  0  0
    5.3045   -1.1010    0.0761 H   0  0  0  0  0  0  0  0  0  0  0  0
    6.6285    4.3713   -0.4319 H   0  0  0  0  0  0  0  0  0  0  0  0
    6.1085    6.0348   -0.4522 H   0  0  0  0  0  0  0  0  0  0  0  0
    1.9203    4.3413    0.0449 H   0  0  0  0  0  0  0  0  0  0  0  0
   -0.6984    3.6747   -3.2253 H   0  0  0  0  0  0  0  0  0  0  0  0
   -2.5295    5.3220   -3.3783 H   0  0  0  0  0  0  0  0  0  0  0  0
   -3.2216    6.6052   -1.3668 H   0  0  0  0  0  0  0  0  0  0  0  0
   -2.1565    6.1529    0.8145 H   0  0  0  0  0  0  0  0  0  0  0  0
  1  2  1  0  0  0  0
  1 23  1  0  0  0  0
  1 24  1  0  0  0  0
  1 25  1  0  0  0  0
  2  3  2  0  0  0  0
  2 22  1  0  0  0  0
  3  4  1  0  0  0  0
  4  5  1  0  0  0  0
  4 26  1  0  0  0  0
  5  6  1  0  0  0  0
  5 22  2  0  0  0  0
  6  7  1  0  0  0  0
  7  8  1  0  0  0  0
  7 11  2  0  0  0  0
  8  9  1  0  0  0  0
  8 10  2  0  0  0  0
  9 27  1  0  0  0  0
  9 28  1  0  0  0  0
 11 12  1  0  0  0  0
 11 22  1  0  0  0  0
 12 13  1  0  0  0  0
 12 29  1  0  0  0  0
 13 14  2  0  0  0  0
 13 15  1  0  0  0  0
 15 16  1  0  0  0  0
 15 20  2  0  0  0  0
 16 17  2  0  0  0  0
 16 30  1  0  0  0  0
 17 18  1  0  0  0  0
 17 31  1  0  0  0  0
 18 19  2  0  0  0  0
 18 32  1  0  0  0  0
 19 20  1  0  0  0  0
 19 33  1  0  0  0  0
 20 21  1  0  0  0  0
M  END
$$$$
