CHEMBL468618
 OpenBabel04072215383D

 56 60  0  0  0  0  0  0  0  0999 V2000
   -2.7212   -1.3871    7.0200 C   0  0  0  0  0  0  0  0  0  0  0  0
   -2.1488   -0.1554    6.5330 N   0  0  0  0  0  0  0  0  0  0  0  0
   -0.7640   -0.0889    6.5154 C   0  0  0  0  0  0  0  0  0  0  0  0
   -0.2538    1.1151    6.7886 N   0  0  0  0  0  0  0  0  0  0  0  0
    1.0834    1.2322    6.7307 C   0  0  0  0  0  0  0  0  0  0  0  0
    1.9293    0.1985    6.4097 C   0  0  0  0  0  0  0  0  0  0  0  0
    1.3318   -1.0121    6.1309 C   0  0  0  0  0  0  0  0  0  0  0  0
    2.0779   -2.2344    5.7539 C   0  0  0  0  0  0  0  0  0  0  0  0
    1.5692   -3.4935    6.1398 C   0  0  0  0  0  0  0  0  0  0  0  0
    2.1922   -4.6798    5.7600 C   0  0  0  0  0  0  0  0  0  0  0  0
    3.3452   -4.5924    5.0113 C   0  0  0  0  0  0  0  0  0  0  0  0
    3.9016   -3.4239    4.6433 N   0  0  0  0  0  0  0  0  0  0  0  0
    3.2559   -2.2733    4.9858 C   0  0  0  0  0  0  0  0  0  0  0  0
    3.8359   -1.0844    4.5444 O   0  0  0  0  0  0  0  0  0  0  0  0
    4.4227   -1.0728    3.2886 C   0  0  0  0  0  0  0  0  0  0  0  0
    3.8631   -1.7652    2.2135 C   0  0  0  0  0  0  0  0  0  0  0  0
    4.4385   -1.6917    0.9474 C   0  0  0  0  0  0  0  0  0  0  0  0
    5.5567   -0.8798    0.6891 C   0  0  0  0  0  0  0  0  0  0  0  0
    6.0402   -0.8477   -0.6408 N   0  0  0  0  0  0  0  0  0  0  0  0
    7.0374   -0.1262   -1.1886 C   0  0  0  0  0  0  0  0  0  0  0  0
    7.9562    0.6691   -0.6851 N   0  0  0  0  0  0  0  0  0  0  0  0
    8.6553    1.1679   -1.7647 C   0  0  0  0  0  0  0  0  0  0  0  0
    9.7221    2.0782   -1.8227 C   0  0  0  0  0  0  0  0  0  0  0  0
   10.2202    2.4619   -3.0817 C   0  0  0  0  0  0  0  0  0  0  0  0
    9.6778    1.9484   -4.2730 C   0  0  0  0  0  0  0  0  0  0  0  0
   10.1758    2.4047   -5.6263 C   0  0  0  0  0  0  0  0  0  0  0  0
   11.1534    3.3499   -5.5649 F   0  0  0  0  0  0  0  0  0  0  0  0
   10.6876    1.3817   -6.3660 F   0  0  0  0  0  0  0  0  0  0  0  0
    9.1808    2.9465   -6.3846 F   0  0  0  0  0  0  0  0  0  0  0  0
    8.6357    1.0049   -4.2181 C   0  0  0  0  0  0  0  0  0  0  0  0
    8.1594    0.6536   -2.9543 C   0  0  0  0  0  0  0  0  0  0  0  0
    7.1674   -0.1955   -2.5548 N   0  0  0  0  0  0  0  0  0  0  0  0
    6.1234   -0.1982    1.7693 C   0  0  0  0  0  0  0  0  0  0  0  0
    5.5595   -0.2716    3.0685 C   0  0  0  0  0  0  0  0  0  0  0  0
    6.2291    0.4653    4.1943 C   0  0  0  0  0  0  0  0  0  0  0  0
   -0.0186   -1.1611    6.2107 N   0  0  0  0  0  0  0  0  0  0  0  0
   -3.8139   -1.3082    6.9889 H   0  0  0  0  0  0  0  0  0  0  0  0
   -2.4365   -1.5809    8.0598 H   0  0  0  0  0  0  0  0  0  0  0  0
   -2.4422   -2.2441    6.3989 H   0  0  0  0  0  0  0  0  0  0  0  0
   -2.4611    0.6857    7.0064 H   0  0  0  0  0  0  0  0  0  0  0  0
    1.4697    2.2225    6.9526 H   0  0  0  0  0  0  0  0  0  0  0  0
    2.9993    0.3502    6.3902 H   0  0  0  0  0  0  0  0  0  0  0  0
    0.6594   -3.5520    6.7365 H   0  0  0  0  0  0  0  0  0  0  0  0
    1.7799   -5.6431    6.0382 H   0  0  0  0  0  0  0  0  0  0  0  0
    3.8648   -5.4822    4.6684 H   0  0  0  0  0  0  0  0  0  0  0  0
    2.9841   -2.3902    2.3484 H   0  0  0  0  0  0  0  0  0  0  0  0
    3.9947   -2.2848    0.1526 H   0  0  0  0  0  0  0  0  0  0  0  0
    5.3801   -1.3008   -1.2613 H   0  0  0  0  0  0  0  0  0  0  0  0
   10.1372    2.4893   -0.9086 H   0  0  0  0  0  0  0  0  0  0  0  0
   11.0367    3.1829   -3.1224 H   0  0  0  0  0  0  0  0  0  0  0  0
    8.2063    0.5852   -5.1239 H   0  0  0  0  0  0  0  0  0  0  0  0
    6.5958   -0.7586   -3.1616 H   0  0  0  0  0  0  0  0  0  0  0  0
    7.0123    0.4100    1.6105 H   0  0  0  0  0  0  0  0  0  0  0  0
    6.9410    1.2075    3.8158 H   0  0  0  0  0  0  0  0  0  0  0  0
    6.7796   -0.2364    4.8294 H   0  0  0  0  0  0  0  0  0  0  0  0
    5.4955    1.0056    4.8009 H   0  0  0  0  0  0  0  0  0  0  0  0
  1  2  1  0  0  0  0
  1 37  1  0  0  0  0
  1 38  1  0  0  0  0
  1 39  1  0  0  0  0
  2  3  1  0  0  0  0
  2 40  1  0  0  0  0
  3  4  1  0  0  0  0
  3 36  2  0  0  0  0
  4  5  2  0  0  0  0
  5  6  1  0  0  0  0
  5 41  1  0  0  0  0
  6  7  2  0  0  0  0
  6 42  1  0  0  0  0
  7  8  1  0  0  0  0
  7 36  1  0  0  0  0
  8  9  1  0  0  0  0
  8 13  2  0  0  0  0
  9 10  2  0  0  0  0
  9 43  1  0  0  0  0
 10 11  1  0  0  0  0
 10 44  1  0  0  0  0
 11 12  2  0  0  0  0
 11 45  1  0  0  0  0
 12 13  1  0  0  0  0
 13 14  1  0  0  0  0
 14 15  1  0  0  0  0
 15 16  1  0  0  0  0
 15 34  2  0  0  0  0
 16 17  2  0  0  0  0
 16 46  1  0  0  0  0
 17 18  1  0  0  0  0
 17 47  1  0  0  0  0
 18 19  1  0  0  0  0
 18 33  2  0  0  0  0
 19 20  1  0  0  0  0
 19 48  1  0  0  0  0
 20 21  2  0  0  0  0
 20 32  1  0  0  0  0
 21 22  1  0  0  0  0
 22 23  1  0  0  0  0
 22 31  2  0  0  0  0
 23 24  2  0  0  0  0
 23 49  1  0  0  0  0
 24 25  1  0  0  0  0
 24 50  1  0  0  0  0
 25 26  1  0  0  0  0
 25 30  2  0  0  0  0
 26 27  1  0  0  0  0
 26 28  1  0  0  0  0
 26 29  1  0  0  0  0
 30 31  1  0  0  0  0
 30 51  1  0  0  0  0
 31 32  1  0  0  0  0
 32 52  1  0  0  0  0
 33 34  1  0  0  0  0
 33 53  1  0  0  0  0
 34 35  1  0  0  0  0
 35 54  1  0  0  0  0
 35 55  1  0  0  0  0
 35 56  1  0  0  0  0
M  END
$$$$
