CHEMBL173799
 OpenBabel04072215363D

 58 62  0  0  0  0  0  0  0  0999 V2000
    2.7830   -1.1084    0.5729 C   0  0  0  0  0  0  0  0  0  0  0  0
    2.6029    0.2187    0.0717 O   0  0  0  0  0  0  0  0  0  0  0  0
    3.2822    0.5767   -1.0579 C   0  0  0  0  0  0  0  0  0  0  0  0
    4.3780   -0.1490   -1.5179 C   0  0  0  0  0  0  0  0  0  0  0  0
    4.9312    0.0896   -2.7827 C   0  0  0  0  0  0  0  0  0  0  0  0
    5.9495   -0.7049   -3.3265 C   0  0  0  0  0  0  0  0  0  0  0  0
    6.3733   -1.8634   -2.5946 N   0  0  0  0  0  0  0  0  0  0  0  0
    7.6103   -2.5026   -2.8053 C   0  0  0  0  0  0  0  0  0  0  0  0
    8.8476   -1.8190   -2.8174 C   0  0  0  0  0  0  0  0  0  0  0  0
    9.0204   -0.0051   -2.2545 Br  0  0  0  0  0  0  0  0  0  0  0  0
   10.0400   -2.4787   -3.1665 C   0  0  0  0  0  0  0  0  0  0  0  0
   10.0376   -3.8394   -3.4648 C   0  0  0  0  0  0  0  0  0  0  0  0
    8.8436   -4.5154   -3.3634 C   0  0  0  0  0  0  0  0  0  0  0  0
    7.6669   -3.8768   -3.0374 C   0  0  0  0  0  0  0  0  0  0  0  0
    6.6135   -4.7449   -2.9953 O   0  0  0  0  0  0  0  0  0  0  0  0
    7.2806   -6.0002   -3.2664 C   0  0  0  0  0  0  0  0  0  0  0  0
    8.6791   -5.8477   -3.5733 O   0  0  0  0  0  0  0  0  0  0  0  0
    6.5151   -0.4254   -4.5028 N   0  0  0  0  0  0  0  0  0  0  0  0
    6.0647    0.6625   -5.1319 C   0  0  0  0  0  0  0  0  0  0  0  0
    5.0631    1.4626   -4.7315 N   0  0  0  0  0  0  0  0  0  0  0  0
    4.4975    1.1663   -3.5508 C   0  0  0  0  0  0  0  0  0  0  0  0
    3.4725    1.9675   -3.0411 C   0  0  0  0  0  0  0  0  0  0  0  0
    2.8796    1.6967   -1.7944 C   0  0  0  0  0  0  0  0  0  0  0  0
    1.9271    2.6151   -1.4153 O   0  0  0  0  0  0  0  0  0  0  0  0
    1.8577    2.8646   -0.0067 C   0  0  0  0  0  0  0  0  0  0  0  0
    1.5536    4.3393    0.2612 C   0  0  0  0  0  0  0  0  0  0  0  0
    0.1743    4.7263   -0.2695 C   0  0  0  0  0  0  0  0  0  0  0  0
   -0.2701    6.0837    0.0954 N   0  0  0  0  0  0  0  0  0  0  0  0
   -1.6212    6.3408   -0.4584 C   0  0  0  0  0  0  0  0  0  0  0  0
   -1.6149    6.4628   -1.9900 C   0  0  0  0  0  0  0  0  0  0  0  0
   -0.8001    7.5638   -2.4029 O   0  0  0  0  0  0  0  0  0  0  0  0
    0.5353    7.4854   -1.8860 C   0  0  0  0  0  0  0  0  0  0  0  0
    0.6060    7.1749   -0.3772 C   0  0  0  0  0  0  0  0  0  0  0  0
    3.3987   -1.0676    1.4759 H   0  0  0  0  0  0  0  0  0  0  0  0
    3.2326   -1.8179   -0.1382 H   0  0  0  0  0  0  0  0  0  0  0  0
    1.8074   -1.5191    0.8193 H   0  0  0  0  0  0  0  0  0  0  0  0
    4.8385   -0.9008   -0.8908 H   0  0  0  0  0  0  0  0  0  0  0  0
    5.6091   -2.5352   -2.5504 H   0  0  0  0  0  0  0  0  0  0  0  0
   10.9747   -1.9246   -3.1988 H   0  0  0  0  0  0  0  0  0  0  0  0
   10.9504   -4.3526   -3.7469 H   0  0  0  0  0  0  0  0  0  0  0  0
    6.7862   -6.4898   -4.1125 H   0  0  0  0  0  0  0  0  0  0  0  0
    7.1902   -6.6494   -2.3867 H   0  0  0  0  0  0  0  0  0  0  0  0
    6.5637    0.9321   -6.0559 H   0  0  0  0  0  0  0  0  0  0  0  0
    3.1440    2.8241   -3.6132 H   0  0  0  0  0  0  0  0  0  0  0  0
    2.8107    2.6476    0.4901 H   0  0  0  0  0  0  0  0  0  0  0  0
    1.0670    2.2349    0.4171 H   0  0  0  0  0  0  0  0  0  0  0  0
    2.3244    4.9451   -0.2271 H   0  0  0  0  0  0  0  0  0  0  0  0
    1.6072    4.5219    1.3407 H   0  0  0  0  0  0  0  0  0  0  0  0
   -0.5520    4.0207    0.1567 H   0  0  0  0  0  0  0  0  0  0  0  0
    0.1697    4.5719   -1.3519 H   0  0  0  0  0  0  0  0  0  0  0  0
   -1.9838    7.2880   -0.0361 H   0  0  0  0  0  0  0  0  0  0  0  0
   -2.3243    5.5679   -0.1298 H   0  0  0  0  0  0  0  0  0  0  0  0
   -2.6317    6.6523   -2.3465 H   0  0  0  0  0  0  0  0  0  0  0  0
   -1.2788    5.5448   -2.4859 H   0  0  0  0  0  0  0  0  0  0  0  0
    0.9824    8.4719   -2.0556 H   0  0  0  0  0  0  0  0  0  0  0  0
    1.1123    6.7604   -2.4695 H   0  0  0  0  0  0  0  0  0  0  0  0
    0.2953    8.0802    0.1622 H   0  0  0  0  0  0  0  0  0  0  0  0
    1.6470    7.0188   -0.0754 H   0  0  0  0  0  0  0  0  0  0  0  0
  1  2  1  0  0  0  0
  1 34  1  0  0  0  0
  1 35  1  0  0  0  0
  1 36  1  0  0  0  0
  2  3  1  0  0  0  0
  3  4  1  0  0  0  0
  3 23  2  0  0  0  0
  4  5  2  0  0  0  0
  4 37  1  0  0  0  0
  5  6  1  0  0  0  0
  5 21  1  0  0  0  0
  6  7  1  0  0  0  0
  6 18  2  0  0  0  0
  7  8  1  0  0  0  0
  7 38  1  0  0  0  0
  8  9  1  0  0  0  0
  8 14  2  0  0  0  0
  9 10  1  0  0  0  0
  9 11  2  0  0  0  0
 11 12  1  0  0  0  0
 11 39  1  0  0  0  0
 12 13  2  0  0  0  0
 12 40  1  0  0  0  0
 13 14  1  0  0  0  0
 13 17  1  0  0  0  0
 14 15  1  0  0  0  0
 15 16  1  0  0  0  0
 16 17  1  0  0  0  0
 16 41  1  0  0  0  0
 16 42  1  0  0  0  0
 18 19  1  0  0  0  0
 19 20  2  0  0  0  0
 19 43  1  0  0  0  0
 20 21  1  0  0  0  0
 21 22  2  0  0  0  0
 22 23  1  0  0  0  0
 22 44  1  0  0  0  0
 23 24  1  0  0  0  0
 24 25  1  0  0  0  0
 25 26  1  0  0  0  0
 25 45  1  0  0  0  0
 25 46  1  0  0  0  0
 26 27  1  0  0  0  0
 26 47  1  0  0  0  0
 26 48  1  0  0  0  0
 27 28  1  0  0  0  0
 27 49  1  0  0  0  0
 27 50  1  0  0  0  0
 28 29  1  0  0  0  0
 28 33  1  0  0  0  0
 29 30  1  0  0  0  0
 29 51  1  0  0  0  0
 29 52  1  0  0  0  0
 30 31  1  0  0  0  0
 30 53  1  0  0  0  0
 30 54  1  0  0  0  0
 31 32  1  0  0  0  0
 32 33  1  0  0  0  0
 32 55  1  0  0  0  0
 32 56  1  0  0  0  0
 33 57  1  0  0  0  0
 33 58  1  0  0  0  0
M  END
$$$$
