CHEMBL1974254
 OpenBabel04072215363D

 59 63  0  0  0  0  0  0  0  0999 V2000
    1.8146   -0.5461    2.4266 C   0  0  0  0  0  0  0  0  0  0  0  0
    3.1655   -0.5178    1.7408 C   0  0  0  0  0  0  0  0  0  0  0  0
    3.6501    0.8288    1.6931 O   0  0  0  0  0  0  0  0  0  0  0  0
    4.8808    0.9893    1.1108 C   0  0  0  0  0  0  0  0  0  0  0  0
    5.6416   -0.0407    0.5715 C   0  0  0  0  0  0  0  0  0  0  0  0
    6.8903    0.2201    0.0101 C   0  0  0  0  0  0  0  0  0  0  0  0
    7.4121    1.5141   -0.0399 C   0  0  0  0  0  0  0  0  0  0  0  0
    8.6847    1.8070   -0.5874 N   0  0  0  0  0  0  0  0  0  0  0  0
    9.5041    0.8975   -1.2305 C   0  0  0  0  0  0  0  0  0  0  0  0
    9.1903   -0.2556   -1.5081 O   0  0  0  0  0  0  0  0  0  0  0  0
   10.7691    1.4141   -1.4890 N   0  0  0  0  0  0  0  0  0  0  0  0
   11.7416    0.5945   -2.1136 C   0  0  0  0  0  0  0  0  0  0  0  0
   11.4030   -0.2391   -3.1810 C   0  0  0  0  0  0  0  0  0  0  0  0
   12.3084   -1.1897   -3.6517 C   0  0  0  0  0  0  0  0  0  0  0  0
   13.5922   -1.2988   -3.0960 C   0  0  0  0  0  0  0  0  0  0  0  0
   14.5026   -2.3616   -3.5534 C   0  0  0  0  0  0  0  0  0  0  0  0
   14.5261   -2.6663   -4.8997 C   0  0  0  0  0  0  0  0  0  0  0  0
   15.5543   -3.9462   -5.2810 S   0  0  0  0  0  0  0  0  0  0  0  0
   16.1166   -4.1054   -3.6542 C   0  0  0  0  0  0  0  0  0  0  0  0
   17.0995   -5.0001   -3.1718 C   0  0  0  0  0  0  0  0  0  0  0  0
   17.8489   -5.8977   -4.0328 C   0  0  0  0  0  0  0  0  0  0  0  0
   18.3514   -5.7515   -5.3497 C   0  0  0  0  0  0  0  0  0  0  0  0
   19.0245   -6.8214   -5.7784 N   0  0  0  0  0  0  0  0  0  0  0  0
   18.9604   -7.6674   -4.7336 N   0  0  0  0  0  0  0  0  0  0  0  0
   19.6122   -8.9501   -4.8088 C   0  0  0  0  0  0  0  0  0  0  0  0
   18.2783   -7.1597   -3.6682 C   0  0  0  0  0  0  0  0  0  0  0  0
   17.3166   -4.9587   -1.8063 C   0  0  0  0  0  0  0  0  0  0  0  0
   16.6602   -4.1608   -0.9475 N   0  0  0  0  0  0  0  0  0  0  0  0
   15.7232   -3.3069   -1.4021 C   0  0  0  0  0  0  0  0  0  0  0  0
   15.0983   -2.5819   -0.3944 N   0  0  0  0  0  0  0  0  0  0  0  0
   15.4260   -3.2202   -2.7936 C   0  0  0  0  0  0  0  0  0  0  0  0
   13.9620   -0.3724   -2.1126 C   0  0  0  0  0  0  0  0  0  0  0  0
   13.0407    0.5613   -1.6117 C   0  0  0  0  0  0  0  0  0  0  0  0
    6.6478    2.5533    0.4991 C   0  0  0  0  0  0  0  0  0  0  0  0
    5.3905    2.2900    1.0713 C   0  0  0  0  0  0  0  0  0  0  0  0
    1.4443   -1.5740    2.4944 H   0  0  0  0  0  0  0  0  0  0  0  0
    1.0875    0.0540    1.8716 H   0  0  0  0  0  0  0  0  0  0  0  0
    1.8835   -0.1279    3.4351 H   0  0  0  0  0  0  0  0  0  0  0  0
    3.0488   -0.9127    0.7241 H   0  0  0  0  0  0  0  0  0  0  0  0
    3.8576   -1.1483    2.3125 H   0  0  0  0  0  0  0  0  0  0  0  0
    5.3081   -1.0728    0.5655 H   0  0  0  0  0  0  0  0  0  0  0  0
    7.4236   -0.6396   -0.3782 H   0  0  0  0  0  0  0  0  0  0  0  0
    8.9641    2.7766   -0.6182 H   0  0  0  0  0  0  0  0  0  0  0  0
   11.1071    2.0648   -0.7952 H   0  0  0  0  0  0  0  0  0  0  0  0
   10.4117   -0.1960   -3.6279 H   0  0  0  0  0  0  0  0  0  0  0  0
   11.9711   -1.8613   -4.4380 H   0  0  0  0  0  0  0  0  0  0  0  0
   13.9616   -2.2035   -5.6983 H   0  0  0  0  0  0  0  0  0  0  0  0
   18.2618   -4.9042   -6.0168 H   0  0  0  0  0  0  0  0  0  0  0  0
   20.0234   -9.1015   -5.8069 H   0  0  0  0  0  0  0  0  0  0  0  0
   18.8712   -9.7224   -4.5898 H   0  0  0  0  0  0  0  0  0  0  0  0
   20.4144   -8.9681   -4.0662 H   0  0  0  0  0  0  0  0  0  0  0  0
   18.1617   -7.7329   -2.7570 H   0  0  0  0  0  0  0  0  0  0  0  0
   18.0620   -5.5934   -1.3341 H   0  0  0  0  0  0  0  0  0  0  0  0
   15.3496   -2.9912    0.5000 H   0  0  0  0  0  0  0  0  0  0  0  0
   14.1035   -2.4634   -0.5429 H   0  0  0  0  0  0  0  0  0  0  0  0
   14.9623   -0.3916   -1.6849 H   0  0  0  0  0  0  0  0  0  0  0  0
   13.3363    1.1942   -0.7800 H   0  0  0  0  0  0  0  0  0  0  0  0
    7.0107    3.5777    0.4906 H   0  0  0  0  0  0  0  0  0  0  0  0
    4.8084    3.1060    1.4930 H   0  0  0  0  0  0  0  0  0  0  0  0
  1  2  1  0  0  0  0
  1 36  1  0  0  0  0
  1 37  1  0  0  0  0
  1 38  1  0  0  0  0
  2  3  1  0  0  0  0
  2 39  1  0  0  0  0
  2 40  1  0  0  0  0
  3  4  1  0  0  0  0
  4  5  1  0  0  0  0
  4 35  2  0  0  0  0
  5  6  2  0  0  0  0
  5 41  1  0  0  0  0
  6  7  1  0  0  0  0
  6 42  1  0  0  0  0
  7  8  1  0  0  0  0
  7 34  2  0  0  0  0
  8  9  1  0  0  0  0
  8 43  1  0  0  0  0
  9 10  2  0  0  0  0
  9 11  1  0  0  0  0
 11 12  1  0  0  0  0
 11 44  1  0  0  0  0
 12 13  1  0  0  0  0
 12 33  2  0  0  0  0
 13 14  2  0  0  0  0
 13 45  1  0  0  0  0
 14 15  1  0  0  0  0
 14 46  1  0  0  0  0
 15 16  1  0  0  0  0
 15 32  2  0  0  0  0
 16 17  2  0  0  0  0
 16 31  1  0  0  0  0
 17 18  1  0  0  0  0
 17 47  1  0  0  0  0
 18 19  1  0  0  0  0
 19 20  1  0  0  0  0
 19 31  2  0  0  0  0
 20 21  1  0  0  0  0
 20 27  2  0  0  0  0
 21 22  1  0  0  0  0
 21 26  2  0  0  0  0
 22 23  2  0  0  0  0
 22 48  1  0  0  0  0
 23 24  1  0  0  0  0
 24 25  1  0  0  0  0
 24 26  1  0  0  0  0
 25 49  1  0  0  0  0
 25 50  1  0  0  0  0
 25 51  1  0  0  0  0
 26 52  1  0  0  0  0
 27 28  1  0  0  0  0
 27 53  1  0  0  0  0
 28 29  2  0  0  0  0
 29 30  1  0  0  0  0
 29 31  1  0  0  0  0
 30 54  1  0  0  0  0
 30 55  1  0  0  0  0
 32 33  1  0  0  0  0
 32 56  1  0  0  0  0
 33 57  1  0  0  0  0
 34 35  1  0  0  0  0
 34 58  1  0  0  0  0
 35 59  1  0  0  0  0
M  END
$$$$
