CHEMBL3633274
 OpenBabel04072215373D

 67 70  0  0  0  0  0  0  0  0999 V2000
    7.0981    2.8231    2.2748 C   0  0  0  0  0  0  0  0  0  0  0  0
    6.1270    2.6423    1.2247 O   0  0  0  0  0  0  0  0  0  0  0  0
    4.9930    1.9555    1.5898 C   0  0  0  0  0  0  0  0  0  0  0  0
    4.6694    1.6723    2.9344 C   0  0  0  0  0  0  0  0  0  0  0  0
    3.4795    1.0322    3.2752 C   0  0  0  0  0  0  0  0  0  0  0  0
    2.5802    0.6905    2.2751 C   0  0  0  0  0  0  0  0  0  0  0  0
    1.3177   -0.0119    2.6393 C   0  0  0  0  0  0  0  0  0  0  0  0
    1.0366   -0.3839    3.7541 O   0  0  0  0  0  0  0  0  0  0  0  0
    0.6143   -0.2492    1.5047 O   0  0  0  0  0  0  0  0  0  0  0  0
    0.1954   -1.6090    1.3355 C   0  0  0  0  0  0  0  0  0  0  0  0
    1.3446   -2.3843    0.6551 C   0  0  0  0  0  0  0  0  0  0  0  0
    1.0732   -3.8104    0.4004 N   0  0  0  0  0  0  0  0  0  0  0  0
   -0.0535   -3.9928   -0.5120 C   0  0  0  0  0  0  0  0  0  0  0  0
    2.2686   -4.4523   -0.1586 C   0  0  0  0  0  0  0  0  0  0  0  0
    2.9166    0.9270    0.9374 C   0  0  0  0  0  0  0  0  0  0  0  0
    4.1057    1.5608    0.5626 C   0  0  0  0  0  0  0  0  0  0  0  0
    4.4125    1.7519   -0.8207 N   0  0  0  0  0  0  0  0  0  0  0  0
    3.4884    1.6689   -1.8591 C   0  0  0  0  0  0  0  0  0  0  0  0
    2.2775    1.5495   -1.7143 O   0  0  0  0  0  0  0  0  0  0  0  0
    4.0681    1.6822   -3.1129 N   0  0  0  0  0  0  0  0  0  0  0  0
    3.2888    1.5614   -4.2984 C   0  0  0  0  0  0  0  0  0  0  0  0
    2.2448    2.4898   -4.4693 C   0  0  0  0  0  0  0  0  0  0  0  0
    1.4065    2.4893   -5.5942 C   0  0  0  0  0  0  0  0  0  0  0  0
    0.3697    3.5309   -5.7878 C   0  0  0  0  0  0  0  0  0  0  0  0
   -0.8162    3.2309   -6.4795 C   0  0  0  0  0  0  0  0  0  0  0  0
   -1.7548    4.2105   -6.8333 C   0  0  0  0  0  0  0  0  0  0  0  0
   -1.5207    5.4596   -6.3117 C   0  0  0  0  0  0  0  0  0  0  0  0
   -2.2207    6.6597   -6.4695 N   0  0  0  0  0  0  0  0  0  0  0  0
   -2.1102    7.2680   -5.2381 C   0  0  0  0  0  0  0  0  0  0  0  0
   -0.8355    6.9982   -4.8070 C   0  0  0  0  0  0  0  0  0  0  0  0
   -0.4756    5.7791   -5.4592 C   0  0  0  0  0  0  0  0  0  0  0  0
    0.5471    4.8351   -5.2850 C   0  0  0  0  0  0  0  0  0  0  0  0
    1.5916    1.4768   -6.5365 C   0  0  0  0  0  0  0  0  0  0  0  0
    2.6072    0.5304   -6.3791 C   0  0  0  0  0  0  0  0  0  0  0  0
    3.4905    0.5844   -5.2870 C   0  0  0  0  0  0  0  0  0  0  0  0
    4.3524   -0.4697   -5.2886 O   0  0  0  0  0  0  0  0  0  0  0  0
    5.6557   -0.3722   -4.7843 C   0  0  0  0  0  0  0  0  0  0  0  0
    5.9777    0.8335   -4.2735 F   0  0  0  0  0  0  0  0  0  0  0  0
    5.8246   -1.2968   -3.8164 F   0  0  0  0  0  0  0  0  0  0  0  0
    6.5405   -0.6373   -5.7809 F   0  0  0  0  0  0  0  0  0  0  0  0
    7.9676    3.3300    1.8439 H   0  0  0  0  0  0  0  0  0  0  0  0
    7.4363    1.8346    2.6269 H   0  0  0  0  0  0  0  0  0  0  0  0
    6.7253    3.4285    3.0881 H   0  0  0  0  0  0  0  0  0  0  0  0
    5.3186    1.9504    3.7577 H   0  0  0  0  0  0  0  0  0  0  0  0
    3.2597    0.8068    4.3174 H   0  0  0  0  0  0  0  0  0  0  0  0
   -0.6881   -1.5753    0.6933 H   0  0  0  0  0  0  0  0  0  0  0  0
   -0.0900   -2.0637    2.2906 H   0  0  0  0  0  0  0  0  0  0  0  0
    2.2248   -2.3063    1.3078 H   0  0  0  0  0  0  0  0  0  0  0  0
    1.6272   -1.8665   -0.2729 H   0  0  0  0  0  0  0  0  0  0  0  0
   -0.9829   -3.6209   -0.0703 H   0  0  0  0  0  0  0  0  0  0  0  0
   -0.2191   -5.0592   -0.7021 H   0  0  0  0  0  0  0  0  0  0  0  0
    0.1036   -3.4905   -1.4732 H   0  0  0  0  0  0  0  0  0  0  0  0
    3.1176   -4.3651    0.5285 H   0  0  0  0  0  0  0  0  0  0  0  0
    2.5603   -4.0220   -1.1239 H   0  0  0  0  0  0  0  0  0  0  0  0
    2.0912   -5.5244   -0.3002 H   0  0  0  0  0  0  0  0  0  0  0  0
    2.2324    0.5757    0.1777 H   0  0  0  0  0  0  0  0  0  0  0  0
    5.3263    2.1492   -1.0141 H   0  0  0  0  0  0  0  0  0  0  0  0
    5.0343    1.3750   -3.1510 H   0  0  0  0  0  0  0  0  0  0  0  0
    2.0995    3.2424   -3.6973 H   0  0  0  0  0  0  0  0  0  0  0  0
   -1.0517    2.2023   -6.7498 H   0  0  0  0  0  0  0  0  0  0  0  0
   -2.6563    3.9643   -7.3842 H   0  0  0  0  0  0  0  0  0  0  0  0
   -2.1087    7.1917   -7.3233 H   0  0  0  0  0  0  0  0  0  0  0  0
   -2.9292    7.8415   -4.8290 H   0  0  0  0  0  0  0  0  0  0  0  0
   -0.3429    7.4229   -3.9459 H   0  0  0  0  0  0  0  0  0  0  0  0
    1.4220    5.1118   -4.6965 H   0  0  0  0  0  0  0  0  0  0  0  0
    0.9539    1.4010   -7.4185 H   0  0  0  0  0  0  0  0  0  0  0  0
    2.6950   -0.2643   -7.1237 H   0  0  0  0  0  0  0  0  0  0  0  0
  1  2  1  0  0  0  0
  1 41  1  0  0  0  0
  1 42  1  0  0  0  0
  1 43  1  0  0  0  0
  2  3  1  0  0  0  0
  3  4  1  0  0  0  0
  3 16  2  0  0  0  0
  4  5  2  0  0  0  0
  4 44  1  0  0  0  0
  5  6  1  0  0  0  0
  5 45  1  0  0  0  0
  6  7  1  0  0  0  0
  6 15  2  0  0  0  0
  7  8  2  0  0  0  0
  7  9  1  0  0  0  0
  9 10  1  0  0  0  0
 10 11  1  0  0  0  0
 10 46  1  0  0  0  0
 10 47  1  0  0  0  0
 11 12  1  0  0  0  0
 11 48  1  0  0  0  0
 11 49  1  0  0  0  0
 12 13  1  0  0  0  0
 12 14  1  0  0  0  0
 13 50  1  0  0  0  0
 13 51  1  0  0  0  0
 13 52  1  0  0  0  0
 14 53  1  0  0  0  0
 14 54  1  0  0  0  0
 14 55  1  0  0  0  0
 15 16  1  0  0  0  0
 15 56  1  0  0  0  0
 16 17  1  0  0  0  0
 17 18  1  0  0  0  0
 17 57  1  0  0  0  0
 18 19  2  0  0  0  0
 18 20  1  0  0  0  0
 20 21  1  0  0  0  0
 20 58  1  0  0  0  0
 21 22  1  0  0  0  0
 21 35  2  0  0  0  0
 22 23  2  0  0  0  0
 22 59  1  0  0  0  0
 23 24  1  0  0  0  0
 23 33  1  0  0  0  0
 24 25  1  0  0  0  0
 24 32  2  0  0  0  0
 25 26  2  0  0  0  0
 25 60  1  0  0  0  0
 26 27  1  0  0  0  0
 26 61  1  0  0  0  0
 27 28  1  0  0  0  0
 27 31  2  0  0  0  0
 28 29  1  0  0  0  0
 28 62  1  0  0  0  0
 29 30  2  0  0  0  0
 29 63  1  0  0  0  0
 30 31  1  0  0  0  0
 30 64  1  0  0  0  0
 31 32  1  0  0  0  0
 32 65  1  0  0  0  0
 33 34  2  0  0  0  0
 33 66  1  0  0  0  0
 34 35  1  0  0  0  0
 34 67  1  0  0  0  0
 35 36  1  0  0  0  0
 36 37  1  0  0  0  0
 37 38  1  0  0  0  0
 37 39  1  0  0  0  0
 37 40  1  0  0  0  0
M  END
$$$$
