CHEMBL257533
 OpenBabel04072215363D

 39 42  0  0  0  0  0  0  0  0999 V2000
    1.3743   -0.2634   -1.7215 N   0  0  0  0  0  0  0  0  0  0  0  0
    2.6821   -0.3079   -1.4212 C   0  0  0  0  0  0  0  0  0  0  0  0
    3.4912    0.6845   -1.7857 N   0  0  0  0  0  0  0  0  0  0  0  0
    4.6775    0.3261   -1.2737 N   0  0  0  0  0  0  0  0  0  0  0  0
    4.6564   -0.8580   -0.6028 C   0  0  0  0  0  0  0  0  0  0  0  0
    5.7142   -1.4023    0.0234 N   0  0  0  0  0  0  0  0  0  0  0  0
    5.4244   -2.5769    0.6094 C   0  0  0  0  0  0  0  0  0  0  0  0
    4.1859   -3.1977    0.5772 C   0  0  0  0  0  0  0  0  0  0  0  0
    3.0881   -2.5951   -0.0816 C   0  0  0  0  0  0  0  0  0  0  0  0
    1.7551   -3.2253   -0.0572 C   0  0  0  0  0  0  0  0  0  0  0  0
    1.3164   -3.8759    1.1050 C   0  0  0  0  0  0  0  0  0  0  0  0
    0.0537   -4.4605    1.1847 C   0  0  0  0  0  0  0  0  0  0  0  0
   -0.8550   -4.3624    0.1327 C   0  0  0  0  0  0  0  0  0  0  0  0
   -2.1838   -4.8428    0.2339 N   0  0  0  0  0  0  0  0  0  0  0  0
   -2.8185   -5.0773    1.4455 C   0  0  0  0  0  0  0  0  0  0  0  0
   -2.3423   -4.7649    2.5321 O   0  0  0  0  0  0  0  0  0  0  0  0
   -4.0367   -5.7095    1.2943 N   0  0  0  0  0  0  0  0  0  0  0  0
   -4.8377   -6.0654    2.3858 C   0  0  0  0  0  0  0  0  0  0  0  0
   -4.6925   -5.6344    3.7468 C   0  0  0  0  0  0  0  0  0  0  0  0
   -5.5874   -6.2347    4.6039 C   0  0  0  0  0  0  0  0  0  0  0  0
   -6.6581   -7.2690    3.7718 S   0  0  0  0  0  0  0  0  0  0  0  0
   -5.9097   -6.9249    2.2668 C   0  0  0  0  0  0  0  0  0  0  0  0
   -0.4246   -3.7719   -1.0544 C   0  0  0  0  0  0  0  0  0  0  0  0
    0.8747   -3.2395   -1.1522 C   0  0  0  0  0  0  0  0  0  0  0  0
    3.3537   -1.3436   -0.6961 C   0  0  0  0  0  0  0  0  0  0  0  0
    1.0532    0.6275   -2.0861 H   0  0  0  0  0  0  0  0  0  0  0  0
    0.7122   -0.6811   -1.0782 H   0  0  0  0  0  0  0  0  0  0  0  0
    5.4771    0.9317   -1.3997 H   0  0  0  0  0  0  0  0  0  0  0  0
    6.2531   -3.0410    1.1403 H   0  0  0  0  0  0  0  0  0  0  0  0
    4.0766   -4.1563    1.0792 H   0  0  0  0  0  0  0  0  0  0  0  0
    1.9469   -3.9310    1.9905 H   0  0  0  0  0  0  0  0  0  0  0  0
   -0.1902   -4.9795    2.1085 H   0  0  0  0  0  0  0  0  0  0  0  0
   -2.7741   -4.7408   -0.5773 H   0  0  0  0  0  0  0  0  0  0  0  0
   -4.2601   -6.1301    0.4033 H   0  0  0  0  0  0  0  0  0  0  0  0
   -3.9500   -4.9339    4.1085 H   0  0  0  0  0  0  0  0  0  0  0  0
   -5.6515   -6.1045    5.6757 H   0  0  0  0  0  0  0  0  0  0  0  0
   -6.2858   -7.4070    1.3781 H   0  0  0  0  0  0  0  0  0  0  0  0
   -1.0865   -3.6896   -1.9119 H   0  0  0  0  0  0  0  0  0  0  0  0
    1.1828   -2.8098   -2.1046 H   0  0  0  0  0  0  0  0  0  0  0  0
  1  2  1  0  0  0  0
  1 26  1  0  0  0  0
  1 27  1  0  0  0  0
  2  3  2  0  0  0  0
  2 25  1  0  0  0  0
  3  4  1  0  0  0  0
  4  5  1  0  0  0  0
  4 28  1  0  0  0  0
  5  6  1  0  0  0  0
  5 25  2  0  0  0  0
  6  7  2  0  0  0  0
  7  8  1  0  0  0  0
  7 29  1  0  0  0  0
  8  9  2  0  0  0  0
  8 30  1  0  0  0  0
  9 10  1  0  0  0  0
  9 25  1  0  0  0  0
 10 11  1  0  0  0  0
 10 24  2  0  0  0  0
 11 12  2  0  0  0  0
 11 31  1  0  0  0  0
 12 13  1  0  0  0  0
 12 32  1  0  0  0  0
 13 14  1  0  0  0  0
 13 23  2  0  0  0  0
 14 15  1  0  0  0  0
 14 33  1  0  0  0  0
 15 16  2  0  0  0  0
 15 17  1  0  0  0  0
 17 18  1  0  0  0  0
 17 34  1  0  0  0  0
 18 19  1  0  0  0  0
 18 22  2  0  0  0  0
 19 20  2  0  0  0  0
 19 35  1  0  0  0  0
 20 21  1  0  0  0  0
 20 36  1  0  0  0  0
 21 22  1  0  0  0  0
 22 37  1  0  0  0  0
 23 24  1  0  0  0  0
 23 38  1  0  0  0  0
 24 39  1  0  0  0  0
M  END
$$$$
