CHEMBL1241486
 OpenBabel04072215363D

 50 52  0  0  1  0  0  0  0  0999 V2000
    1.1211    0.0459   -0.5869 C   0  0  0  0  0  0  0  0  0  0  0  0
    2.4154    0.1266    0.0021 O   0  0  0  0  0  0  0  0  0  0  0  0
    3.1556   -1.0347    0.0255 C   0  0  0  0  0  0  0  0  0  0  0  0
    2.8672   -2.1635   -0.7634 C   0  0  0  0  0  0  0  0  0  0  0  0
    3.6896   -3.2972   -0.7191 C   0  0  0  0  0  0  0  0  0  0  0  0
    3.3382   -4.5387   -1.4112 C   0  0  0  0  0  0  0  0  0  0  0  0
    2.6835   -4.5135   -2.5864 N   0  0  0  0  0  0  0  0  0  0  0  0
    2.5828   -5.8154   -2.9398 N   0  0  0  0  0  0  0  0  0  0  0  0
    1.9341   -6.1877   -4.1925 C   0  0  0  0  0  0  0  0  0  0  0  0
    0.4619   -5.7739   -4.2077 C   0  0  0  0  0  0  0  0  0  0  0  0
    2.6771   -5.6190   -5.4013 C   0  0  0  0  0  0  0  0  0  0  0  0
    3.1264   -6.6751   -2.0221 C   0  0  0  0  0  0  0  0  0  0  0  0
    3.1878   -8.0153   -2.1055 N   0  0  0  0  0  0  0  0  0  0  0  0
    3.7802   -8.5498   -1.0267 C   0  0  0  0  0  0  0  0  0  0  0  0
    4.2484   -7.9109    0.0596 N   0  0  0  0  0  0  0  0  0  0  0  0
    4.1535   -6.5672    0.1111 C   0  0  0  0  0  0  0  0  0  0  0  0
    4.6191   -5.9796    1.2812 N   0  0  0  0  0  0  0  0  0  0  0  0
    3.5938   -5.8852   -0.9850 C   0  0  0  0  0  0  0  0  0  0  0  0
    4.8535   -3.2396    0.0380 C   0  0  0  0  0  0  0  0  0  0  0  0
    5.0959   -2.1705    0.8888 C   0  0  0  0  0  0  0  0  0  0  0  0
    4.2527   -1.0567    0.9263 C   0  0  0  0  0  0  0  0  0  0  0  0
    4.4904    0.0181    1.7993 N   0  0  0  0  0  0  0  0  0  0  0  0
    5.2415   -0.1873    3.0556 C   0  0  3  0  0  0  0  0  0  0  0  0
    6.7544   -0.0853    2.8765 C   0  0  0  0  0  0  0  0  0  0  0  0
    4.7889    0.8705    4.0858 C   0  0  0  0  0  0  0  0  0  0  0  0
    3.3769    0.8184    4.2738 O   0  0  0  0  0  0  0  0  0  0  0  0
    0.6452    1.0269   -0.4925 H   0  0  0  0  0  0  0  0  0  0  0  0
    0.4977   -0.6812   -0.0554 H   0  0  0  0  0  0  0  0  0  0  0  0
    1.1729   -0.1850   -1.6562 H   0  0  0  0  0  0  0  0  0  0  0  0
    2.0035   -2.1888   -1.4211 H   0  0  0  0  0  0  0  0  0  0  0  0
    1.9739   -7.2815   -4.2612 H   0  0  0  0  0  0  0  0  0  0  0  0
    0.3440   -4.6898   -4.1041 H   0  0  0  0  0  0  0  0  0  0  0  0
   -0.0841   -6.2483   -3.3849 H   0  0  0  0  0  0  0  0  0  0  0  0
   -0.0160   -6.0755   -5.1462 H   0  0  0  0  0  0  0  0  0  0  0  0
    2.6777   -4.5237   -5.3969 H   0  0  0  0  0  0  0  0  0  0  0  0
    2.2084   -5.9511   -6.3340 H   0  0  0  0  0  0  0  0  0  0  0  0
    3.7198   -5.9540   -5.4105 H   0  0  0  0  0  0  0  0  0  0  0  0
    3.8938   -9.6298   -1.0239 H   0  0  0  0  0  0  0  0  0  0  0  0
    4.7730   -6.6813    1.9964 H   0  0  0  0  0  0  0  0  0  0  0  0
    4.1028   -5.1611    1.5815 H   0  0  0  0  0  0  0  0  0  0  0  0
    5.5792   -4.0492    0.0157 H   0  0  0  0  0  0  0  0  0  0  0  0
    5.9713   -2.2498    1.5202 H   0  0  0  0  0  0  0  0  0  0  0  0
    4.7242    0.8625    1.2778 H   0  0  0  0  0  0  0  0  0  0  0  0
    4.9704   -1.1704    3.4633 H   0  0  0  0  0  0  0  0  0  0  0  0
    7.0764    0.9541    2.7627 H   0  0  0  0  0  0  0  0  0  0  0  0
    7.1299   -0.6261    2.0056 H   0  0  0  0  0  0  0  0  0  0  0  0
    7.2555   -0.4972    3.7605 H   0  0  0  0  0  0  0  0  0  0  0  0
    5.0439    1.8815    3.7507 H   0  0  0  0  0  0  0  0  0  0  0  0
    5.2697    0.6984    5.0548 H   0  0  0  0  0  0  0  0  0  0  0  0
    3.0118    0.6962    3.3730 H   0  0  0  0  0  0  0  0  0  0  0  0
  1  2  1  0  0  0  0
  1 27  1  0  0  0  0
  1 28  1  0  0  0  0
  1 29  1  0  0  0  0
  2  3  1  0  0  0  0
  3  4  1  0  0  0  0
  3 21  2  0  0  0  0
  4  5  2  0  0  0  0
  4 30  1  0  0  0  0
  5  6  1  0  0  0  0
  5 19  1  0  0  0  0
  6  7  2  0  0  0  0
  6 18  1  0  0  0  0
  7  8  1  0  0  0  0
  8  9  1  0  0  0  0
  8 12  1  0  0  0  0
  9 10  1  0  0  0  0
  9 11  1  0  0  0  0
  9 31  1  0  0  0  0
 10 32  1  0  0  0  0
 10 33  1  0  0  0  0
 10 34  1  0  0  0  0
 11 35  1  0  0  0  0
 11 36  1  0  0  0  0
 11 37  1  0  0  0  0
 12 13  1  0  0  0  0
 12 18  2  0  0  0  0
 13 14  2  0  0  0  0
 14 15  1  0  0  0  0
 14 38  1  0  0  0  0
 15 16  2  0  0  0  0
 16 17  1  0  0  0  0
 16 18  1  0  0  0  0
 17 39  1  0  0  0  0
 17 40  1  0  0  0  0
 19 20  2  0  0  0  0
 19 41  1  0  0  0  0
 20 21  1  0  0  0  0
 20 42  1  0  0  0  0
 21 22  1  0  0  0  0
 22 23  1  0  0  0  0
 22 43  1  0  0  0  0
 23 24  1  0  0  0  0
 23 25  1  0  0  0  0
 23 44  1  0  0  0  0
 24 45  1  0  0  0  0
 24 46  1  0  0  0  0
 24 47  1  0  0  0  0
 25 26  1  0  0  0  0
 25 48  1  0  0  0  0
 25 49  1  0  0  0  0
 26 50  1  0  0  0  0
M  END
$$$$
