CHEMBL238530
 OpenBabel04072215363D

 46 48  0  0  0  0  0  0  0  0999 V2000
    2.1115    0.0735   -0.0031 C   0  0  0  0  0  0  0  0  0  0  0  0
    0.6722   -0.0506    0.0057 N   0  0  0  0  0  0  0  0  0  0  0  0
   -0.2052    0.9953   -0.0438 C   0  0  0  0  0  0  0  0  0  0  0  0
   -1.4480    0.5765   -0.1190 N   0  0  0  0  0  0  0  0  0  0  0  0
   -1.3647   -0.7815   -0.0715 C   0  0  0  0  0  0  0  0  0  0  0  0
   -2.4554   -1.5637   -0.0722 N   0  0  0  0  0  0  0  0  0  0  0  0
   -3.7286   -1.1075   -0.5867 C   0  0  0  0  0  0  0  0  0  0  0  0
   -4.7997   -1.1218    0.4708 C   0  0  0  0  0  0  0  0  0  0  0  0
   -4.7316   -0.2519    1.5628 C   0  0  0  0  0  0  0  0  0  0  0  0
   -5.7764   -0.2435    2.4733 C   0  0  0  0  0  0  0  0  0  0  0  0
   -6.8678   -1.0334    2.3739 N   0  0  0  0  0  0  0  0  0  0  0  0
   -6.9137   -1.8701    1.3163 C   0  0  0  0  0  0  0  0  0  0  0  0
   -5.9194   -1.9519    0.3527 C   0  0  0  0  0  0  0  0  0  0  0  0
   -0.0568   -1.2221   -0.0322 C   0  0  0  0  0  0  0  0  0  0  0  0
    0.4944   -2.5564   -0.0501 C   0  0  0  0  0  0  0  0  0  0  0  0
    1.5974   -2.8022    0.4303 O   0  0  0  0  0  0  0  0  0  0  0  0
   -0.3003   -3.4768   -0.7230 N   0  0  0  0  0  0  0  0  0  0  0  0
   -0.0545   -4.8563   -0.8614 C   0  0  0  0  0  0  0  0  0  0  0  0
    0.8398   -5.5435   -0.0485 C   0  0  0  0  0  0  0  0  0  0  0  0
    1.0950   -6.8982   -0.2585 C   0  0  0  0  0  0  0  0  0  0  0  0
    0.4602   -7.6117   -1.2891 C   0  0  0  0  0  0  0  0  0  0  0  0
    0.8562   -9.0571   -1.5166 C   0  0  0  0  0  0  0  0  0  0  0  0
    1.8366   -9.4842   -0.6706 F   0  0  0  0  0  0  0  0  0  0  0  0
   -0.1785   -9.9188   -1.3397 F   0  0  0  0  0  0  0  0  0  0  0  0
    1.3432   -9.2652   -2.7689 F   0  0  0  0  0  0  0  0  0  0  0  0
   -0.5016   -6.9441   -2.0817 C   0  0  0  0  0  0  0  0  0  0  0  0
   -1.2898   -7.6211   -3.1882 C   0  0  0  0  0  0  0  0  0  0  0  0
   -1.0014   -8.9301   -3.3881 F   0  0  0  0  0  0  0  0  0  0  0  0
   -2.6309   -7.5706   -2.9538 F   0  0  0  0  0  0  0  0  0  0  0  0
   -1.1030   -7.0126   -4.3920 F   0  0  0  0  0  0  0  0  0  0  0  0
   -0.7489   -5.5662   -1.8468 C   0  0  0  0  0  0  0  0  0  0  0  0
    2.3868    1.1293   -0.0776 H   0  0  0  0  0  0  0  0  0  0  0  0
    2.5030   -0.4629   -0.8719 H   0  0  0  0  0  0  0  0  0  0  0  0
    2.5068   -0.3430    0.9257 H   0  0  0  0  0  0  0  0  0  0  0  0
    0.1102    2.0315   -0.0317 H   0  0  0  0  0  0  0  0  0  0  0  0
   -2.4619   -2.4707    0.3834 H   0  0  0  0  0  0  0  0  0  0  0  0
   -4.0068   -1.7924   -1.3967 H   0  0  0  0  0  0  0  0  0  0  0  0
   -3.6798   -0.1110   -1.0413 H   0  0  0  0  0  0  0  0  0  0  0  0
   -3.8848    0.4166    1.6903 H   0  0  0  0  0  0  0  0  0  0  0  0
   -5.7664    0.4263    3.3282 H   0  0  0  0  0  0  0  0  0  0  0  0
   -7.8053   -2.4882    1.2550 H   0  0  0  0  0  0  0  0  0  0  0  0
   -6.0330   -2.6399   -0.4783 H   0  0  0  0  0  0  0  0  0  0  0  0
   -1.0588   -3.0757   -1.2640 H   0  0  0  0  0  0  0  0  0  0  0  0
    1.3538   -5.0510    0.7719 H   0  0  0  0  0  0  0  0  0  0  0  0
    1.8177   -7.3912    0.3923 H   0  0  0  0  0  0  0  0  0  0  0  0
   -1.4757   -5.0533   -2.4794 H   0  0  0  0  0  0  0  0  0  0  0  0
  1  2  1  0  0  0  0
  1 32  1  0  0  0  0
  1 33  1  0  0  0  0
  1 34  1  0  0  0  0
  2  3  1  0  0  0  0
  2 14  1  0  0  0  0
  3  4  2  0  0  0  0
  3 35  1  0  0  0  0
  4  5  1  0  0  0  0
  5  6  1  0  0  0  0
  5 14  2  0  0  0  0
  6  7  1  0  0  0  0
  6 36  1  0  0  0  0
  7  8  1  0  0  0  0
  7 37  1  0  0  0  0
  7 38  1  0  0  0  0
  8  9  1  0  0  0  0
  8 13  2  0  0  0  0
  9 10  2  0  0  0  0
  9 39  1  0  0  0  0
 10 11  1  0  0  0  0
 10 40  1  0  0  0  0
 11 12  2  0  0  0  0
 12 13  1  0  0  0  0
 12 41  1  0  0  0  0
 13 42  1  0  0  0  0
 14 15  1  0  0  0  0
 15 16  2  0  0  0  0
 15 17  1  0  0  0  0
 17 18  1  0  0  0  0
 17 43  1  0  0  0  0
 18 19  1  0  0  0  0
 18 31  2  0  0  0  0
 19 20  2  0  0  0  0
 19 44  1  0  0  0  0
 20 21  1  0  0  0  0
 20 45  1  0  0  0  0
 21 22  1  0  0  0  0
 21 26  2  0  0  0  0
 22 23  1  0  0  0  0
 22 24  1  0  0  0  0
 22 25  1  0  0  0  0
 26 27  1  0  0  0  0
 26 31  1  0  0  0  0
 27 28  1  0  0  0  0
 27 29  1  0  0  0  0
 27 30  1  0  0  0  0
 31 46  1  0  0  0  0
M  END
$$$$
