CHEMBL1988838
 OpenBabel04072215363D

 50 52  0  0  0  0  0  0  0  0999 V2000
   -2.5658   -0.2160   -0.1783 C   0  0  0  0  0  0  0  0  0  0  0  0
   -1.0741   -0.1495   -0.1234 C   0  0  0  0  0  0  0  0  0  0  0  0
   -0.3469   -1.3152   -0.0367 C   0  0  0  0  0  0  0  0  0  0  0  0
    0.9837   -1.3563    0.0687 N   0  0  0  0  0  0  0  0  0  0  0  0
    1.6273   -0.1816    0.1138 C   0  0  0  0  0  0  0  0  0  0  0  0
    3.0194   -0.1800    0.2304 N   0  0  0  0  0  0  0  0  0  0  0  0
    3.8892   -1.1410   -0.3102 C   0  0  0  0  0  0  0  0  0  0  0  0
    5.1300   -1.3703    0.2956 C   0  0  0  0  0  0  0  0  0  0  0  0
    5.9916   -2.3608   -0.1876 C   0  0  0  0  0  0  0  0  0  0  0  0
    5.6300   -3.1245   -1.2972 C   0  0  0  0  0  0  0  0  0  0  0  0
    4.3997   -2.8907   -1.9108 C   0  0  0  0  0  0  0  0  0  0  0  0
    3.8968   -3.8569   -3.3061 S   0  0  0  0  0  0  0  0  0  0  0  0
    3.0707   -5.1014   -2.5457 N   0  0  0  0  0  0  0  0  0  0  0  0
    2.9260   -3.1062   -4.0642 O   0  0  0  0  0  0  0  0  0  0  0  0
    5.0793   -4.4316   -3.9049 O   0  0  0  0  0  0  0  0  0  0  0  0
    3.5454   -1.8961   -1.4377 C   0  0  0  0  0  0  0  0  0  0  0  0
    1.0101    1.0034    0.0720 N   0  0  0  0  0  0  0  0  0  0  0  0
   -0.3334    1.0256   -0.0507 C   0  0  0  0  0  0  0  0  0  0  0  0
   -1.0194    2.2605   -0.0375 N   0  0  0  0  0  0  0  0  0  0  0  0
   -0.6284    3.5225    0.4551 C   0  0  0  0  0  0  0  0  0  0  0  0
    0.5133    3.7288    1.2352 C   0  0  0  0  0  0  0  0  0  0  0  0
    0.7636    4.9605    1.8506 C   0  0  0  0  0  0  0  0  0  0  0  0
   -0.1322    6.0159    1.7086 C   0  0  0  0  0  0  0  0  0  0  0  0
    0.2042    7.1629    2.3742 O   0  0  0  0  0  0  0  0  0  0  0  0
   -0.4722    8.3412    1.9445 C   0  0  0  0  0  0  0  0  0  0  0  0
    0.2157    9.6045    2.4467 C   0  0  0  0  0  0  0  0  0  0  0  0
    1.2278    9.4257    3.3437 N   0  0  0  0  0  0  0  0  0  0  0  0
   -0.1125   10.7323    2.0878 O   0  0  0  0  0  0  0  0  0  0  0  0
   -1.2827    5.8281    0.9456 C   0  0  0  0  0  0  0  0  0  0  0  0
   -1.5217    4.5965    0.3221 C   0  0  0  0  0  0  0  0  0  0  0  0
   -2.9002   -1.2218   -0.4616 H   0  0  0  0  0  0  0  0  0  0  0  0
   -2.9700    0.4711   -0.9262 H   0  0  0  0  0  0  0  0  0  0  0  0
   -2.9904    0.0144    0.8032 H   0  0  0  0  0  0  0  0  0  0  0  0
   -0.8269   -2.2887   -0.0354 H   0  0  0  0  0  0  0  0  0  0  0  0
    3.3627    0.7709    0.2162 H   0  0  0  0  0  0  0  0  0  0  0  0
    5.4138   -0.8045    1.1809 H   0  0  0  0  0  0  0  0  0  0  0  0
    6.9396   -2.5445    0.3126 H   0  0  0  0  0  0  0  0  0  0  0  0
    6.3003   -3.8954   -1.6684 H   0  0  0  0  0  0  0  0  0  0  0  0
    2.1519   -4.8248   -2.2123 H   0  0  0  0  0  0  0  0  0  0  0  0
    3.6484   -5.6555   -1.9122 H   0  0  0  0  0  0  0  0  0  0  0  0
    2.6018   -1.7138   -1.9484 H   0  0  0  0  0  0  0  0  0  0  0  0
   -1.6979    2.3200   -0.7862 H   0  0  0  0  0  0  0  0  0  0  0  0
    1.2320    2.9325    1.3966 H   0  0  0  0  0  0  0  0  0  0  0  0
    1.6609    5.0818    2.4518 H   0  0  0  0  0  0  0  0  0  0  0  0
   -1.4953    8.3471    2.3365 H   0  0  0  0  0  0  0  0  0  0  0  0
   -0.4693    8.4061    0.8495 H   0  0  0  0  0  0  0  0  0  0  0  0
    1.5282    8.4939    3.6079 H   0  0  0  0  0  0  0  0  0  0  0  0
    1.7393   10.2336    3.6703 H   0  0  0  0  0  0  0  0  0  0  0  0
   -2.0303    6.6069    0.8359 H   0  0  0  0  0  0  0  0  0  0  0  0
   -2.4401    4.4785   -0.2479 H   0  0  0  0  0  0  0  0  0  0  0  0
  1  2  1  0  0  0  0
  1 31  1  0  0  0  0
  1 32  1  0  0  0  0
  1 33  1  0  0  0  0
  2  3  1  0  0  0  0
  2 18  2  0  0  0  0
  3  4  2  0  0  0  0
  3 34  1  0  0  0  0
  4  5  1  0  0  0  0
  5  6  1  0  0  0  0
  5 17  2  0  0  0  0
  6  7  1  0  0  0  0
  6 35  1  0  0  0  0
  7  8  1  0  0  0  0
  7 16  2  0  0  0  0
  8  9  2  0  0  0  0
  8 36  1  0  0  0  0
  9 10  1  0  0  0  0
  9 37  1  0  0  0  0
 10 11  2  0  0  0  0
 10 38  1  0  0  0  0
 11 12  1  0  0  0  0
 11 16  1  0  0  0  0
 12 13  1  0  0  0  0
 12 14  2  0  0  0  0
 12 15  2  0  0  0  0
 13 39  1  0  0  0  0
 13 40  1  0  0  0  0
 16 41  1  0  0  0  0
 17 18  1  0  0  0  0
 18 19  1  0  0  0  0
 19 20  1  0  0  0  0
 19 42  1  0  0  0  0
 20 21  1  0  0  0  0
 20 30  2  0  0  0  0
 21 22  2  0  0  0  0
 21 43  1  0  0  0  0
 22 23  1  0  0  0  0
 22 44  1  0  0  0  0
 23 24  1  0  0  0  0
 23 29  2  0  0  0  0
 24 25  1  0  0  0  0
 25 26  1  0  0  0  0
 25 45  1  0  0  0  0
 25 46  1  0  0  0  0
 26 27  1  0  0  0  0
 26 28  2  0  0  0  0
 27 47  1  0  0  0  0
 27 48  1  0  0  0  0
 29 30  1  0  0  0  0
 29 49  1  0  0  0  0
 30 50  1  0  0  0  0
M  END
$$$$
