CHEMBL2005528
 OpenBabel04072215363D

 33 35  0  0  0  0  0  0  0  0999 V2000
    1.3201    1.0462   -0.0870 C   0  0  0  0  0  0  0  0  0  0  0  0
    2.3250    0.1338    0.5901 C   0  0  0  0  0  0  0  0  0  0  0  0
    3.2146    0.9616    1.3461 O   0  0  0  0  0  0  0  0  0  0  0  0
    4.2662    1.4557    0.6456 C   0  0  0  0  0  0  0  0  0  0  0  0
    4.6849    1.0283   -0.4199 O   0  0  0  0  0  0  0  0  0  0  0  0
    4.7490    2.7092    1.2751 C   0  0  0  0  0  0  0  0  0  0  0  0
    4.2153    3.2047    2.4730 C   0  0  0  0  0  0  0  0  0  0  0  0
    4.6354    4.4332    2.9992 C   0  0  0  0  0  0  0  0  0  0  0  0
    5.6187    5.1338    2.2946 C   0  0  0  0  0  0  0  0  0  0  0  0
    6.2354    6.3330    2.5843 N   0  0  0  0  0  0  0  0  0  0  0  0
    7.2090    6.5906    1.6585 C   0  0  0  0  0  0  0  0  0  0  0  0
    7.1525    5.6029    0.6972 C   0  0  0  0  0  0  0  0  0  0  0  0
    6.1751    4.6613    1.1025 C   0  0  0  0  0  0  0  0  0  0  0  0
    5.7288    3.4351    0.5829 C   0  0  0  0  0  0  0  0  0  0  0  0
    8.0959    5.5807   -0.4545 C   0  0  0  0  0  0  0  0  0  0  0  0
    8.7920    6.9476   -0.6072 C   0  0  0  0  0  0  0  0  0  0  0  0
    9.0648    7.6410    0.6509 N   0  0  0  0  0  0  0  0  0  0  0  0
    8.1683    7.6597    1.6972 C   0  0  0  0  0  0  0  0  0  0  0  0
    8.2374    8.5041    2.5846 O   0  0  0  0  0  0  0  0  0  0  0  0
    0.5799    0.4747   -0.6541 H   0  0  0  0  0  0  0  0  0  0  0  0
    1.8208    1.7449   -0.7706 H   0  0  0  0  0  0  0  0  0  0  0  0
    0.8010    1.6607    0.6564 H   0  0  0  0  0  0  0  0  0  0  0  0
    2.8548   -0.4926   -0.1329 H   0  0  0  0  0  0  0  0  0  0  0  0
    1.8153   -0.5329    1.2920 H   0  0  0  0  0  0  0  0  0  0  0  0
    3.4520    2.6487    3.0126 H   0  0  0  0  0  0  0  0  0  0  0  0
    4.2155    4.8145    3.9250 H   0  0  0  0  0  0  0  0  0  0  0  0
    6.0575    6.9065    3.3989 H   0  0  0  0  0  0  0  0  0  0  0  0
    6.1441    3.0548   -0.3474 H   0  0  0  0  0  0  0  0  0  0  0  0
    7.5743    5.3285   -1.3839 H   0  0  0  0  0  0  0  0  0  0  0  0
    8.8476    4.8032   -0.2758 H   0  0  0  0  0  0  0  0  0  0  0  0
    8.1576    7.6218   -1.1953 H   0  0  0  0  0  0  0  0  0  0  0  0
    9.7410    6.8320   -1.1405 H   0  0  0  0  0  0  0  0  0  0  0  0
    9.7000    8.4281    0.6499 H   0  0  0  0  0  0  0  0  0  0  0  0
  1  2  1  0  0  0  0
  1 20  1  0  0  0  0
  1 21  1  0  0  0  0
  1 22  1  0  0  0  0
  2  3  1  0  0  0  0
  2 23  1  0  0  0  0
  2 24  1  0  0  0  0
  3  4  1  0  0  0  0
  4  5  2  0  0  0  0
  4  6  1  0  0  0  0
  6  7  1  0  0  0  0
  6 14  2  0  0  0  0
  7  8  2  0  0  0  0
  7 25  1  0  0  0  0
  8  9  1  0  0  0  0
  8 26  1  0  0  0  0
  9 10  1  0  0  0  0
  9 13  2  0  0  0  0
 10 11  1  0  0  0  0
 10 27  1  0  0  0  0
 11 12  2  0  0  0  0
 11 18  1  0  0  0  0
 12 13  1  0  0  0  0
 12 15  1  0  0  0  0
 13 14  1  0  0  0  0
 14 28  1  0  0  0  0
 15 16  1  0  0  0  0
 15 29  1  0  0  0  0
 15 30  1  0  0  0  0
 16 17  1  0  0  0  0
 16 31  1  0  0  0  0
 16 32  1  0  0  0  0
 17 18  1  0  0  0  0
 17 33  1  0  0  0  0
 18 19  2  0  0  0  0
M  END
$$$$
