CHEMBL4072731
 OpenBabel04072215383D

 59 63  0  0  0  0  0  0  0  0999 V2000
    2.5936    0.0552    0.3321 C   0  0  0  0  0  0  0  0  0  0  0  0
    1.0882   -0.0465    0.2919 C   0  0  0  0  0  0  0  0  0  0  0  0
    0.4280    1.2019    0.2262 C   0  0  0  0  0  0  0  0  0  0  0  0
   -0.9468    1.3408    0.0675 C   0  0  0  0  0  0  0  0  0  0  0  0
   -1.5870    2.6034   -0.0012 N   0  0  0  0  0  0  0  0  0  0  0  0
   -0.9269    3.8212   -0.0088 C   0  0  0  0  0  0  0  0  0  0  0  0
    0.2903    3.9641   -0.0375 O   0  0  0  0  0  0  0  0  0  0  0  0
   -1.7901    4.9065    0.0701 N   0  0  0  0  0  0  0  0  0  0  0  0
   -1.2421    6.2158    0.0893 C   0  0  0  0  0  0  0  0  0  0  0  0
   -0.2015    6.5849   -0.7685 C   0  0  0  0  0  0  0  0  0  0  0  0
    0.4538    7.8099   -0.6048 C   0  0  0  0  0  0  0  0  0  0  0  0
    0.0619    8.7285    0.3858 C   0  0  0  0  0  0  0  0  0  0  0  0
    0.7916    9.9999    0.5853 C   0  0  0  0  0  0  0  0  0  0  0  0
    1.3270   10.6997   -0.5232 C   0  0  0  0  0  0  0  0  0  0  0  0
    2.0111   11.8936   -0.3492 C   0  0  0  0  0  0  0  0  0  0  0  0
    2.2225   12.4978    0.8295 N   0  0  0  0  0  0  0  0  0  0  0  0
    1.7175   11.8092    1.8678 C   0  0  0  0  0  0  0  0  0  0  0  0
    1.8029   12.2047    3.1626 N   0  0  0  0  0  0  0  0  0  0  0  0
    1.2515   11.3527    4.0345 N   0  0  0  0  0  0  0  0  0  0  0  0
    0.7944   10.3536    3.2617 C   0  0  0  0  0  0  0  0  0  0  0  0
    0.1537    9.2105    3.9616 C   0  0  0  0  0  0  0  0  0  0  0  0
    1.0226   10.5938    1.8590 C   0  0  0  0  0  0  0  0  0  0  0  0
   -1.0726    8.3857    1.1369 C   0  0  0  0  0  0  0  0  0  0  0  0
   -1.7028    7.1372    1.0204 C   0  0  0  0  0  0  0  0  0  0  0  0
   -1.6960    0.1762   -0.0142 C   0  0  0  0  0  0  0  0  0  0  0  0
   -1.0609   -1.0800    0.1035 C   0  0  0  0  0  0  0  0  0  0  0  0
    0.3363   -1.2410    0.2801 C   0  0  0  0  0  0  0  0  0  0  0  0
    0.8726   -2.5014    0.4729 N   0  0  0  0  0  0  0  0  0  0  0  0
    0.3508   -3.7089   -0.1934 C   0  0  0  0  0  0  0  0  0  0  0  0
    0.2085   -4.8355    0.8433 C   0  0  0  0  0  0  0  0  0  0  0  0
    1.4696   -5.1243    1.4705 O   0  0  0  0  0  0  0  0  0  0  0  0
    1.9534   -3.9600    2.1527 C   0  0  0  0  0  0  0  0  0  0  0  0
    2.1189   -2.7559    1.2134 C   0  0  0  0  0  0  0  0  0  0  0  0
    2.9343    1.0480    0.0221 H   0  0  0  0  0  0  0  0  0  0  0  0
    3.0502   -0.6552   -0.3591 H   0  0  0  0  0  0  0  0  0  0  0  0
    2.9639   -0.0810    1.3518 H   0  0  0  0  0  0  0  0  0  0  0  0
    1.0692    2.0719    0.3008 H   0  0  0  0  0  0  0  0  0  0  0  0
   -2.5830    2.6118   -0.1627 H   0  0  0  0  0  0  0  0  0  0  0  0
   -2.6091    4.7513    0.6388 H   0  0  0  0  0  0  0  0  0  0  0  0
    0.1444    5.9042   -1.5421 H   0  0  0  0  0  0  0  0  0  0  0  0
    1.2987    8.0138   -1.2596 H   0  0  0  0  0  0  0  0  0  0  0  0
    1.2100   10.3227   -1.5352 H   0  0  0  0  0  0  0  0  0  0  0  0
    2.4219   12.4202   -1.2068 H   0  0  0  0  0  0  0  0  0  0  0  0
    2.2466   13.0454    3.5058 H   0  0  0  0  0  0  0  0  0  0  0  0
    0.3809    9.2276    5.0337 H   0  0  0  0  0  0  0  0  0  0  0  0
    0.5058    8.2535    3.5683 H   0  0  0  0  0  0  0  0  0  0  0  0
   -0.9353    9.2696    3.8810 H   0  0  0  0  0  0  0  0  0  0  0  0
   -1.4820    9.0936    1.8490 H   0  0  0  0  0  0  0  0  0  0  0  0
   -2.5009    6.8849    1.7118 H   0  0  0  0  0  0  0  0  0  0  0  0
   -2.7738    0.2020   -0.1407 H   0  0  0  0  0  0  0  0  0  0  0  0
   -1.7076   -1.9552    0.0914 H   0  0  0  0  0  0  0  0  0  0  0  0
    1.0765   -4.0150   -0.9581 H   0  0  0  0  0  0  0  0  0  0  0  0
   -0.6032   -3.5577   -0.7050 H   0  0  0  0  0  0  0  0  0  0  0  0
   -0.1335   -5.7544    0.3592 H   0  0  0  0  0  0  0  0  0  0  0  0
   -0.5219   -4.5685    1.6172 H   0  0  0  0  0  0  0  0  0  0  0  0
    2.9214   -4.2083    2.6003 H   0  0  0  0  0  0  0  0  0  0  0  0
    1.2652   -3.7128    2.9701 H   0  0  0  0  0  0  0  0  0  0  0  0
    2.9246   -2.9498    0.4950 H   0  0  0  0  0  0  0  0  0  0  0  0
    2.4012   -1.9258    1.8593 H   0  0  0  0  0  0  0  0  0  0  0  0
  1  2  1  0  0  0  0
  1 34  1  0  0  0  0
  1 35  1  0  0  0  0
  1 36  1  0  0  0  0
  2  3  1  0  0  0  0
  2 27  2  0  0  0  0
  3  4  2  0  0  0  0
  3 37  1  0  0  0  0
  4  5  1  0  0  0  0
  4 25  1  0  0  0  0
  5  6  1  0  0  0  0
  5 38  1  0  0  0  0
  6  7  2  0  0  0  0
  6  8  1  0  0  0  0
  8  9  1  0  0  0  0
  8 39  1  0  0  0  0
  9 10  1  0  0  0  0
  9 24  2  0  0  0  0
 10 11  2  0  0  0  0
 10 40  1  0  0  0  0
 11 12  1  0  0  0  0
 11 41  1  0  0  0  0
 12 13  1  0  0  0  0
 12 23  2  0  0  0  0
 13 14  1  0  0  0  0
 13 22  2  0  0  0  0
 14 15  2  0  0  0  0
 14 42  1  0  0  0  0
 15 16  1  0  0  0  0
 15 43  1  0  0  0  0
 16 17  2  0  0  0  0
 17 18  1  0  0  0  0
 17 22  1  0  0  0  0
 18 19  1  0  0  0  0
 18 44  1  0  0  0  0
 19 20  2  0  0  0  0
 20 21  1  0  0  0  0
 20 22  1  0  0  0  0
 21 45  1  0  0  0  0
 21 46  1  0  0  0  0
 21 47  1  0  0  0  0
 23 24  1  0  0  0  0
 23 48  1  0  0  0  0
 24 49  1  0  0  0  0
 25 26  2  0  0  0  0
 25 50  1  0  0  0  0
 26 27  1  0  0  0  0
 26 51  1  0  0  0  0
 27 28  1  0  0  0  0
 28 29  1  0  0  0  0
 28 33  1  0  0  0  0
 29 30  1  0  0  0  0
 29 52  1  0  0  0  0
 29 53  1  0  0  0  0
 30 31  1  0  0  0  0
 30 54  1  0  0  0  0
 30 55  1  0  0  0  0
 31 32  1  0  0  0  0
 32 33  1  0  0  0  0
 32 56  1  0  0  0  0
 32 57  1  0  0  0  0
 33 58  1  0  0  0  0
 33 59  1  0  0  0  0
M  END
$$$$
