CHEMBL4104034
 OpenBabel04072215383D

 60 64  0  0  0  0  0  0  0  0999 V2000
   -0.4834    2.0412   -3.3507 C   0  0  0  0  0  0  0  0  0  0  0  0
   -0.8639    0.9118   -2.4573 C   0  0  0  0  0  0  0  0  0  0  0  0
   -1.1570   -0.2540   -3.0558 N   0  0  0  0  0  0  0  0  0  0  0  0
   -1.4837   -1.0646   -2.0419 N   0  0  0  0  0  0  0  0  0  0  0  0
   -1.4011   -0.4841   -0.8180 C   0  0  0  0  0  0  0  0  0  0  0  0
   -1.6827   -1.1102    0.3406 N   0  0  0  0  0  0  0  0  0  0  0  0
   -1.5114   -0.3164    1.4152 C   0  0  0  0  0  0  0  0  0  0  0  0
   -1.1001    1.0048    1.3839 C   0  0  0  0  0  0  0  0  0  0  0  0
   -0.8255    1.6412    0.1497 C   0  0  0  0  0  0  0  0  0  0  0  0
   -0.3764    3.0455    0.1056 C   0  0  0  0  0  0  0  0  0  0  0  0
    0.6284    3.4263   -0.7740 C   0  0  0  0  0  0  0  0  0  0  0  0
    0.9895    4.7599   -0.9583 C   0  0  0  0  0  0  0  0  0  0  0  0
    0.4825    5.7757   -0.1518 C   0  0  0  0  0  0  0  0  0  0  0  0
    0.9017    7.1228   -0.2778 N   0  0  0  0  0  0  0  0  0  0  0  0
    1.7530    7.6058   -1.2641 C   0  0  0  0  0  0  0  0  0  0  0  0
    2.1830    6.9364   -2.2061 O   0  0  0  0  0  0  0  0  0  0  0  0
    2.1187    8.9272   -1.0830 N   0  0  0  0  0  0  0  0  0  0  0  0
    3.0460    9.5268   -1.9829 C   0  0  0  0  0  0  0  0  0  0  0  0
    4.1812   10.1439   -1.4639 C   0  0  0  0  0  0  0  0  0  0  0  0
    5.1300   10.6812   -2.3302 C   0  0  0  0  0  0  0  0  0  0  0  0
    4.9333   10.6269   -3.7140 C   0  0  0  0  0  0  0  0  0  0  0  0
    3.8108   10.0032   -4.2748 C   0  0  0  0  0  0  0  0  0  0  0  0
    3.7289    9.8512   -5.6500 N   0  0  0  0  0  0  0  0  0  0  0  0
    2.9688    8.7377   -6.2359 C   0  0  0  0  0  0  0  0  0  0  0  0
    3.6148    8.3293   -7.5809 C   0  0  0  0  0  0  0  0  0  0  0  0
    3.6919    9.4602   -8.5350 N   0  0  0  0  0  0  0  0  0  0  0  0
    4.2995    9.0285   -9.7904 C   0  0  0  0  0  0  0  0  0  0  0  0
    4.4728   10.5546   -7.9111 C   0  0  0  0  0  0  0  0  0  0  0  0
    3.8859   11.0107   -6.5484 C   0  0  0  0  0  0  0  0  0  0  0  0
    2.8701    9.4626   -3.3797 C   0  0  0  0  0  0  0  0  0  0  0  0
   -0.4507    5.4025    0.8260 C   0  0  0  0  0  0  0  0  0  0  0  0
   -0.8837    4.0625    0.9367 C   0  0  0  0  0  0  0  0  0  0  0  0
   -0.9859    0.8338   -1.0171 C   0  0  0  0  0  0  0  0  0  0  0  0
   -0.5732    1.7584   -4.4070 H   0  0  0  0  0  0  0  0  0  0  0  0
    0.5607    2.3265   -3.2269 H   0  0  0  0  0  0  0  0  0  0  0  0
   -1.1300    2.9071   -3.1828 H   0  0  0  0  0  0  0  0  0  0  0  0
   -1.7640   -2.0150   -2.2424 H   0  0  0  0  0  0  0  0  0  0  0  0
   -1.7253   -0.8022    2.3673 H   0  0  0  0  0  0  0  0  0  0  0  0
   -0.9769    1.5356    2.3212 H   0  0  0  0  0  0  0  0  0  0  0  0
    1.1659    2.6838   -1.3523 H   0  0  0  0  0  0  0  0  0  0  0  0
    1.7009    4.9435   -1.7552 H   0  0  0  0  0  0  0  0  0  0  0  0
    0.5003    7.7971    0.3585 H   0  0  0  0  0  0  0  0  0  0  0  0
    2.2070    9.2033   -0.1152 H   0  0  0  0  0  0  0  0  0  0  0  0
    4.3820   10.1399   -0.3974 H   0  0  0  0  0  0  0  0  0  0  0  0
    6.0498   11.1064   -1.9394 H   0  0  0  0  0  0  0  0  0  0  0  0
    5.7147   11.0140   -4.3627 H   0  0  0  0  0  0  0  0  0  0  0  0
    1.9229    9.0305   -6.3908 H   0  0  0  0  0  0  0  0  0  0  0  0
    2.9873    7.8578   -5.5828 H   0  0  0  0  0  0  0  0  0  0  0  0
    3.0254    7.5140   -8.0154 H   0  0  0  0  0  0  0  0  0  0  0  0
    4.6226    7.9367   -7.3829 H   0  0  0  0  0  0  0  0  0  0  0  0
    3.6987    8.2348  -10.2493 H   0  0  0  0  0  0  0  0  0  0  0  0
    5.3199    8.6521   -9.6561 H   0  0  0  0  0  0  0  0  0  0  0  0
    4.3267    9.8552  -10.5083 H   0  0  0  0  0  0  0  0  0  0  0  0
    4.4968   11.4186   -8.5863 H   0  0  0  0  0  0  0  0  0  0  0  0
    5.5124   10.2345   -7.7541 H   0  0  0  0  0  0  0  0  0  0  0  0
    2.9075   11.4821   -6.7109 H   0  0  0  0  0  0  0  0  0  0  0  0
    4.5454   11.7790   -6.1304 H   0  0  0  0  0  0  0  0  0  0  0  0
    1.9792    8.9777   -3.7678 H   0  0  0  0  0  0  0  0  0  0  0  0
   -0.8671    6.1405    1.5094 H   0  0  0  0  0  0  0  0  0  0  0  0
   -1.6331    3.8220    1.6908 H   0  0  0  0  0  0  0  0  0  0  0  0
  1  2  1  0  0  0  0
  1 34  1  0  0  0  0
  1 35  1  0  0  0  0
  1 36  1  0  0  0  0
  2  3  2  0  0  0  0
  2 33  1  0  0  0  0
  3  4  1  0  0  0  0
  4  5  1  0  0  0  0
  4 37  1  0  0  0  0
  5  6  1  0  0  0  0
  5 33  2  0  0  0  0
  6  7  2  0  0  0  0
  7  8  1  0  0  0  0
  7 38  1  0  0  0  0
  8  9  2  0  0  0  0
  8 39  1  0  0  0  0
  9 10  1  0  0  0  0
  9 33  1  0  0  0  0
 10 11  1  0  0  0  0
 10 32  2  0  0  0  0
 11 12  2  0  0  0  0
 11 40  1  0  0  0  0
 12 13  1  0  0  0  0
 12 41  1  0  0  0  0
 13 14  1  0  0  0  0
 13 31  2  0  0  0  0
 14 15  1  0  0  0  0
 14 42  1  0  0  0  0
 15 16  2  0  0  0  0
 15 17  1  0  0  0  0
 17 18  1  0  0  0  0
 17 43  1  0  0  0  0
 18 19  1  0  0  0  0
 18 30  2  0  0  0  0
 19 20  2  0  0  0  0
 19 44  1  0  0  0  0
 20 21  1  0  0  0  0
 20 45  1  0  0  0  0
 21 22  2  0  0  0  0
 21 46  1  0  0  0  0
 22 23  1  0  0  0  0
 22 30  1  0  0  0  0
 23 24  1  0  0  0  0
 23 29  1  0  0  0  0
 24 25  1  0  0  0  0
 24 47  1  0  0  0  0
 24 48  1  0  0  0  0
 25 26  1  0  0  0  0
 25 49  1  0  0  0  0
 25 50  1  0  0  0  0
 26 27  1  0  0  0  0
 26 28  1  0  0  0  0
 27 51  1  0  0  0  0
 27 52  1  0  0  0  0
 27 53  1  0  0  0  0
 28 29  1  0  0  0  0
 28 54  1  0  0  0  0
 28 55  1  0  0  0  0
 29 56  1  0  0  0  0
 29 57  1  0  0  0  0
 30 58  1  0  0  0  0
 31 32  1  0  0  0  0
 31 59  1  0  0  0  0
 32 60  1  0  0  0  0
M  END
$$$$
