CHEMBL4784961
 OpenBabel04072215383D

 67 72  0  0  0  0  0  0  0  0999 V2000
   -2.5148   -3.9292   -1.7945 C   0  0  0  0  0  0  0  0  0  0  0  0
   -3.8602   -4.4343   -2.2438 C   0  0  0  0  0  0  0  0  0  0  0  0
   -3.8651   -5.5967   -3.0496 C   0  0  0  0  0  0  0  0  0  0  0  0
   -5.0551   -6.1405   -3.5247 C   0  0  0  0  0  0  0  0  0  0  0  0
   -5.0327   -7.5327   -4.5334 Cl  0  0  0  0  0  0  0  0  0  0  0  0
   -6.2604   -5.5542   -3.1856 C   0  0  0  0  0  0  0  0  0  0  0  0
   -6.2716   -4.4109   -2.3807 C   0  0  0  0  0  0  0  0  0  0  0  0
   -5.0915   -3.8139   -1.9088 C   0  0  0  0  0  0  0  0  0  0  0  0
   -5.1258   -2.6216   -1.1298 N   0  0  0  0  0  0  0  0  0  0  0  0
   -6.2434   -1.8075   -0.9089 C   0  0  0  0  0  0  0  0  0  0  0  0
   -7.3753   -2.0274   -1.3264 O   0  0  0  0  0  0  0  0  0  0  0  0
   -5.9090   -0.6439   -0.2326 N   0  0  0  0  0  0  0  0  0  0  0  0
   -6.9326    0.3056   -0.0593 C   0  0  0  0  0  0  0  0  0  0  0  0
   -7.9038    0.0845    0.8311 N   0  0  0  0  0  0  0  0  0  0  0  0
   -8.8240    1.0559    0.9415 C   0  0  0  0  0  0  0  0  0  0  0  0
  -10.0936    0.9016    2.1986 S   0  0  0  0  0  0  0  0  0  0  0  0
  -11.1001   -0.4274    1.6616 C   0  0  0  0  0  0  0  0  0  0  0  0
  -10.9161   -1.2230    0.5556 C   0  0  0  0  0  0  0  0  0  0  0  0
  -11.8995   -2.1723    0.5522 N   0  0  0  0  0  0  0  0  0  0  0  0
  -12.7385   -2.0026    1.6262 C   0  0  0  0  0  0  0  0  0  0  0  0
  -13.8560   -2.7503    2.0201 C   0  0  0  0  0  0  0  0  0  0  0  0
  -14.5310   -2.3511    3.1758 C   0  0  0  0  0  0  0  0  0  0  0  0
  -14.1054   -1.2453    3.9055 C   0  0  0  0  0  0  0  0  0  0  0  0
  -12.9799   -0.5117    3.5028 C   0  0  0  0  0  0  0  0  0  0  0  0
  -12.2710   -0.8957    2.3413 C   0  0  0  0  0  0  0  0  0  0  0  0
   -8.8047    2.2028    0.1780 C   0  0  0  0  0  0  0  0  0  0  0  0
   -7.7778    2.3442   -0.7305 C   0  0  0  0  0  0  0  0  0  0  0  0
   -7.7319    3.4055   -1.6092 N   0  0  0  0  0  0  0  0  0  0  0  0
   -8.9031    4.2370   -1.9765 C   0  0  0  0  0  0  0  0  0  0  0  0
   -8.9966    4.4636   -3.5126 C   0  0  0  0  0  0  0  0  0  0  0  0
   -7.6987    4.9484   -3.9826 N   0  0  0  0  0  0  0  0  0  0  0  0
   -7.6205    5.9078   -4.9658 C   0  0  0  0  0  0  0  0  0  0  0  0
   -6.4803    6.7093   -5.0585 C   0  0  0  0  0  0  0  0  0  0  0  0
   -6.4165    7.7421   -5.9897 C   0  0  0  0  0  0  0  0  0  0  0  0
   -7.4925    7.9507   -6.8327 C   0  0  0  0  0  0  0  0  0  0  0  0
   -8.5931    7.1258   -6.6853 C   0  0  0  0  0  0  0  0  0  0  0  0
   -8.6807    6.1296   -5.7708 N   0  0  0  0  0  0  0  0  0  0  0  0
   -6.6014    4.0019   -3.7493 C   0  0  0  0  0  0  0  0  0  0  0  0
   -6.4484    3.7953   -2.2279 C   0  0  0  0  0  0  0  0  0  0  0  0
   -6.7967    1.4266   -0.7869 N   0  0  0  0  0  0  0  0  0  0  0  0
   -1.7034   -4.4256   -2.3443 H   0  0  0  0  0  0  0  0  0  0  0  0
   -2.3636   -4.1372   -0.7315 H   0  0  0  0  0  0  0  0  0  0  0  0
   -2.4101   -2.8587   -1.9884 H   0  0  0  0  0  0  0  0  0  0  0  0
   -2.9266   -6.0806   -3.3222 H   0  0  0  0  0  0  0  0  0  0  0  0
   -7.2013   -5.9676   -3.5350 H   0  0  0  0  0  0  0  0  0  0  0  0
   -7.2500   -4.0182   -2.1271 H   0  0  0  0  0  0  0  0  0  0  0  0
   -4.2651   -2.3335   -0.6881 H   0  0  0  0  0  0  0  0  0  0  0  0
   -5.1132   -0.1964   -0.6555 H   0  0  0  0  0  0  0  0  0  0  0  0
  -10.1565   -1.2240   -0.2159 H   0  0  0  0  0  0  0  0  0  0  0  0
  -11.9862   -2.9127   -0.1351 H   0  0  0  0  0  0  0  0  0  0  0  0
  -14.1868   -3.6158    1.4541 H   0  0  0  0  0  0  0  0  0  0  0  0
  -15.3992   -2.9146    3.5088 H   0  0  0  0  0  0  0  0  0  0  0  0
  -14.6473   -0.9504    4.8017 H   0  0  0  0  0  0  0  0  0  0  0  0
  -12.6581    0.3463    4.0867 H   0  0  0  0  0  0  0  0  0  0  0  0
   -9.5536    2.9692    0.3196 H   0  0  0  0  0  0  0  0  0  0  0  0
   -8.8035    5.2101   -1.4786 H   0  0  0  0  0  0  0  0  0  0  0  0
   -9.8503    3.7945   -1.6532 H   0  0  0  0  0  0  0  0  0  0  0  0
   -9.8072    5.1755   -3.7061 H   0  0  0  0  0  0  0  0  0  0  0  0
   -9.2531    3.5204   -4.0135 H   0  0  0  0  0  0  0  0  0  0  0  0
   -5.6605    6.5750   -4.3621 H   0  0  0  0  0  0  0  0  0  0  0  0
   -5.5404    8.3831   -6.0311 H   0  0  0  0  0  0  0  0  0  0  0  0
   -7.4855    8.7472   -7.5671 H   0  0  0  0  0  0  0  0  0  0  0  0
   -9.4695    7.2519   -7.3143 H   0  0  0  0  0  0  0  0  0  0  0  0
   -5.6469    4.3385   -4.1666 H   0  0  0  0  0  0  0  0  0  0  0  0
   -6.8363    3.0431   -4.2315 H   0  0  0  0  0  0  0  0  0  0  0  0
   -6.1282    4.7426   -1.7745 H   0  0  0  0  0  0  0  0  0  0  0  0
   -5.6437    3.0747   -2.0514 H   0  0  0  0  0  0  0  0  0  0  0  0
  1  2  1  0  0  0  0
  1 41  1  0  0  0  0
  1 42  1  0  0  0  0
  1 43  1  0  0  0  0
  2  3  1  0  0  0  0
  2  8  2  0  0  0  0
  3  4  2  0  0  0  0
  3 44  1  0  0  0  0
  4  5  1  0  0  0  0
  4  6  1  0  0  0  0
  6  7  2  0  0  0  0
  6 45  1  0  0  0  0
  7  8  1  0  0  0  0
  7 46  1  0  0  0  0
  8  9  1  0  0  0  0
  9 10  1  0  0  0  0
  9 47  1  0  0  0  0
 10 11  2  0  0  0  0
 10 12  1  0  0  0  0
 12 13  1  0  0  0  0
 12 48  1  0  0  0  0
 13 14  1  0  0  0  0
 13 40  2  0  0  0  0
 14 15  2  0  0  0  0
 15 16  1  0  0  0  0
 15 26  1  0  0  0  0
 16 17  1  0  0  0  0
 17 18  2  0  0  0  0
 17 25  1  0  0  0  0
 18 19  1  0  0  0  0
 18 49  1  0  0  0  0
 19 20  1  0  0  0  0
 19 50  1  0  0  0  0
 20 21  1  0  0  0  0
 20 25  2  0  0  0  0
 21 22  2  0  0  0  0
 21 51  1  0  0  0  0
 22 23  1  0  0  0  0
 22 52  1  0  0  0  0
 23 24  2  0  0  0  0
 23 53  1  0  0  0  0
 24 25  1  0  0  0  0
 24 54  1  0  0  0  0
 26 27  2  0  0  0  0
 26 55  1  0  0  0  0
 27 28  1  0  0  0  0
 27 40  1  0  0  0  0
 28 29  1  0  0  0  0
 28 39  1  0  0  0  0
 29 30  1  0  0  0  0
 29 56  1  0  0  0  0
 29 57  1  0  0  0  0
 30 31  1  0  0  0  0
 30 58  1  0  0  0  0
 30 59  1  0  0  0  0
 31 32  1  0  0  0  0
 31 38  1  0  0  0  0
 32 33  1  0  0  0  0
 32 37  2  0  0  0  0
 33 34  2  0  0  0  0
 33 60  1  0  0  0  0
 34 35  1  0  0  0  0
 34 61  1  0  0  0  0
 35 36  2  0  0  0  0
 35 62  1  0  0  0  0
 36 37  1  0  0  0  0
 36 63  1  0  0  0  0
 38 39  1  0  0  0  0
 38 64  1  0  0  0  0
 38 65  1  0  0  0  0
 39 66  1  0  0  0  0
 39 67  1  0  0  0  0
M  END
$$$$
