CHEMBL270302
 OpenBabel04072215363D

 45 48  0  0  0  0  0  0  0  0999 V2000
    1.2373    2.0456    3.2094 N   0  0  0  0  0  0  0  0  0  0  0  0
    1.4953    0.9464    2.4781 C   0  0  0  0  0  0  0  0  0  0  0  0
    1.8919   -0.1942    3.0534 N   0  0  0  0  0  0  0  0  0  0  0  0
    2.0821   -1.0918    2.0308 O   0  0  0  0  0  0  0  0  0  0  0  0
    1.7863   -0.5005    0.8476 C   0  0  0  0  0  0  0  0  0  0  0  0
    1.8686   -1.1413   -0.3877 C   0  0  0  0  0  0  0  0  0  0  0  0
    1.5121   -0.3872   -1.5025 C   0  0  0  0  0  0  0  0  0  0  0  0
    1.0967    0.9422   -1.3564 C   0  0  0  0  0  0  0  0  0  0  0  0
    1.0229    1.5872   -0.0932 C   0  0  0  0  0  0  0  0  0  0  0  0
    0.5627    2.9867    0.0038 C   0  0  0  0  0  0  0  0  0  0  0  0
   -0.3492    3.3707    0.9911 C   0  0  0  0  0  0  0  0  0  0  0  0
   -0.7197    4.7051    1.1634 C   0  0  0  0  0  0  0  0  0  0  0  0
   -0.2609    5.6975    0.2993 C   0  0  0  0  0  0  0  0  0  0  0  0
   -0.6382    7.0527    0.4317 N   0  0  0  0  0  0  0  0  0  0  0  0
   -1.2390    7.5995    1.5534 C   0  0  0  0  0  0  0  0  0  0  0  0
   -1.3369    7.0423    2.6406 O   0  0  0  0  0  0  0  0  0  0  0  0
   -1.7819    8.8488    1.2832 N   0  0  0  0  0  0  0  0  0  0  0  0
   -2.5278    9.5435    2.2729 C   0  0  0  0  0  0  0  0  0  0  0  0
   -2.0288    9.6288    3.5836 C   0  0  0  0  0  0  0  0  0  0  0  0
   -2.7553   10.2610    4.5920 C   0  0  0  0  0  0  0  0  0  0  0  0
   -3.9839   10.8379    4.2989 C   0  0  0  0  0  0  0  0  0  0  0  0
   -4.4828   10.7779    2.9983 C   0  0  0  0  0  0  0  0  0  0  0  0
   -3.7679   10.1276    1.9692 C   0  0  0  0  0  0  0  0  0  0  0  0
   -4.4336   10.0069    0.6243 C   0  0  0  0  0  0  0  0  0  0  0  0
   -3.7014    9.3179   -0.3017 F   0  0  0  0  0  0  0  0  0  0  0  0
   -5.6348    9.3672    0.6899 F   0  0  0  0  0  0  0  0  0  0  0  0
   -4.6859   11.2175    0.0552 F   0  0  0  0  0  0  0  0  0  0  0  0
    0.5642    5.3201   -0.7606 C   0  0  0  0  0  0  0  0  0  0  0  0
    0.9834    3.9833   -0.8921 C   0  0  0  0  0  0  0  0  0  0  0  0
    1.3895    0.8129    1.0515 C   0  0  0  0  0  0  0  0  0  0  0  0
    1.4470    2.0144    4.2003 H   0  0  0  0  0  0  0  0  0  0  0  0
    1.2854    2.9747    2.8091 H   0  0  0  0  0  0  0  0  0  0  0  0
    2.1846   -2.1755   -0.4674 H   0  0  0  0  0  0  0  0  0  0  0  0
    1.5446   -0.8345   -2.4888 H   0  0  0  0  0  0  0  0  0  0  0  0
    0.8012    1.4794   -2.2541 H   0  0  0  0  0  0  0  0  0  0  0  0
   -0.7764    2.6352    1.6710 H   0  0  0  0  0  0  0  0  0  0  0  0
   -1.3866    4.9231    1.9913 H   0  0  0  0  0  0  0  0  0  0  0  0
   -0.2955    7.7045   -0.2594 H   0  0  0  0  0  0  0  0  0  0  0  0
   -2.0952    8.9423    0.3230 H   0  0  0  0  0  0  0  0  0  0  0  0
   -1.0688    9.1837    3.8406 H   0  0  0  0  0  0  0  0  0  0  0  0
   -2.3639   10.2860    5.6060 H   0  0  0  0  0  0  0  0  0  0  0  0
   -4.5609   11.3173    5.0856 H   0  0  0  0  0  0  0  0  0  0  0  0
   -5.4597   11.2131    2.7890 H   0  0  0  0  0  0  0  0  0  0  0  0
    0.9105    6.0506   -1.4870 H   0  0  0  0  0  0  0  0  0  0  0  0
    1.6547    3.7349   -1.7132 H   0  0  0  0  0  0  0  0  0  0  0  0
  1  2  1  0  0  0  0
  1 31  1  0  0  0  0
  1 32  1  0  0  0  0
  2  3  2  0  0  0  0
  2 30  1  0  0  0  0
  3  4  1  0  0  0  0
  4  5  1  0  0  0  0
  5  6  1  0  0  0  0
  5 30  2  0  0  0  0
  6  7  2  0  0  0  0
  6 33  1  0  0  0  0
  7  8  1  0  0  0  0
  7 34  1  0  0  0  0
  8  9  2  0  0  0  0
  8 35  1  0  0  0  0
  9 10  1  0  0  0  0
  9 30  1  0  0  0  0
 10 11  1  0  0  0  0
 10 29  2  0  0  0  0
 11 12  2  0  0  0  0
 11 36  1  0  0  0  0
 12 13  1  0  0  0  0
 12 37  1  0  0  0  0
 13 14  1  0  0  0  0
 13 28  2  0  0  0  0
 14 15  1  0  0  0  0
 14 38  1  0  0  0  0
 15 16  2  0  0  0  0
 15 17  1  0  0  0  0
 17 18  1  0  0  0  0
 17 39  1  0  0  0  0
 18 19  1  0  0  0  0
 18 23  2  0  0  0  0
 19 20  2  0  0  0  0
 19 40  1  0  0  0  0
 20 21  1  0  0  0  0
 20 41  1  0  0  0  0
 21 22  2  0  0  0  0
 21 42  1  0  0  0  0
 22 23  1  0  0  0  0
 22 43  1  0  0  0  0
 23 24  1  0  0  0  0
 24 25  1  0  0  0  0
 24 26  1  0  0  0  0
 24 27  1  0  0  0  0
 28 29  1  0  0  0  0
 28 44  1  0  0  0  0
 29 45  1  0  0  0  0
M  END
$$$$
