CHEMBL3942594
 OpenBabel04072215373D

 60 63  0  0  1  0  0  0  0  0999 V2000
    3.9047   -6.1600   -2.1591 C   0  0  0  0  0  0  0  0  0  0  0  0
    3.7532   -4.8219   -1.7047 O   0  0  0  0  0  0  0  0  0  0  0  0
    4.5621   -4.5482   -0.5517 C   0  0  0  0  0  0  0  0  0  0  0  0
    4.4130   -3.0629   -0.1847 C   0  0  3  0  0  0  0  0  0  0  0  0
    3.0461   -2.7711    0.1809 O   0  0  0  0  0  0  0  0  0  0  0  0
    5.3067   -2.5617    0.9685 C   0  0  0  0  0  0  0  0  0  0  0  0
    6.7722   -2.8751    0.8165 N   0  0  0  0  0  0  0  0  0  0  0  0
    7.4991   -1.6514    0.5967 C   0  0  0  0  0  0  0  0  0  0  0  0
    8.6180   -1.2655    1.3583 C   0  0  0  0  0  0  0  0  0  0  0  0
    9.2325   -0.0133    1.1490 C   0  0  0  0  0  0  0  0  0  0  0  0
   10.3036    0.5065    1.8257 O   0  0  0  0  0  0  0  0  0  0  0  0
   10.8793   -0.2796    2.8540 C   0  0  0  0  0  0  0  0  0  0  0  0
    8.7553    0.8528    0.1613 C   0  0  0  0  0  0  0  0  0  0  0  0
    7.6738    0.4815   -0.6186 C   0  0  0  0  0  0  0  0  0  0  0  0
    7.1547    1.2467   -1.6268 O   0  0  0  0  0  0  0  0  0  0  0  0
    8.1539    1.8564   -2.4423 C   0  0  0  0  0  0  0  0  0  0  0  0
    7.0375   -0.7331   -0.3754 C   0  0  0  0  0  0  0  0  0  0  0  0
    7.2311   -4.1124    1.3807 C   0  0  0  0  0  0  0  0  0  0  0  0
    6.3992   -4.8242    2.2472 C   0  0  0  0  0  0  0  0  0  0  0  0
    6.8224   -5.9403    2.9433 C   0  0  0  0  0  0  0  0  0  0  0  0
    8.0312   -6.4901    2.6936 C   0  0  0  0  0  0  0  0  0  0  0  0
    8.2870   -7.5134    3.4992 N   0  0  0  0  0  0  0  0  0  0  0  0
    9.3250   -8.2724    3.1702 C   0  0  0  0  0  0  0  0  0  0  0  0
   10.0690   -8.0341    2.0326 C   0  0  0  0  0  0  0  0  0  0  0  0
   10.8938   -9.1507    1.5979 C   0  0  0  0  0  0  0  0  0  0  0  0
   10.6594  -10.1021    0.5740 C   0  0  0  0  0  0  0  0  0  0  0  0
   11.5070  -11.1382    0.6252 N   0  0  0  0  0  0  0  0  0  0  0  0
   12.2782  -10.8534    1.6879 N   0  0  0  0  0  0  0  0  0  0  0  0
   13.5381  -11.5268    1.8906 C   0  0  0  0  0  0  0  0  0  0  0  0
   11.8247   -9.7842    2.4061 C   0  0  0  0  0  0  0  0  0  0  0  0
    9.8879   -6.9022    1.2604 N   0  0  0  0  0  0  0  0  0  0  0  0
    8.8549   -6.0423    1.6343 C   0  0  0  0  0  0  0  0  0  0  0  0
    8.4594   -4.7687    1.0529 C   0  0  0  0  0  0  0  0  0  0  0  0
    3.2503   -6.3052   -3.0232 H   0  0  0  0  0  0  0  0  0  0  0  0
    3.6107   -6.8646   -1.3758 H   0  0  0  0  0  0  0  0  0  0  0  0
    4.9371   -6.3488   -2.4695 H   0  0  0  0  0  0  0  0  0  0  0  0
    5.6012   -4.7913   -0.7914 H   0  0  0  0  0  0  0  0  0  0  0  0
    4.2057   -5.1857    0.2647 H   0  0  0  0  0  0  0  0  0  0  0  0
    4.6068   -2.4712   -1.0839 H   0  0  0  0  0  0  0  0  0  0  0  0
    2.6824   -3.5433    0.6462 H   0  0  0  0  0  0  0  0  0  0  0  0
    4.8954   -2.8774    1.9321 H   0  0  0  0  0  0  0  0  0  0  0  0
    5.1277   -1.4805    1.0754 H   0  0  0  0  0  0  0  0  0  0  0  0
    8.9681   -1.9215    2.1466 H   0  0  0  0  0  0  0  0  0  0  0  0
   11.7619    0.2556    3.2200 H   0  0  0  0  0  0  0  0  0  0  0  0
   11.2130   -1.2489    2.4735 H   0  0  0  0  0  0  0  0  0  0  0  0
   10.1838   -0.3919    3.6906 H   0  0  0  0  0  0  0  0  0  0  0  0
    9.2382    1.8158    0.0208 H   0  0  0  0  0  0  0  0  0  0  0  0
    7.7249    2.0193   -3.4354 H   0  0  0  0  0  0  0  0  0  0  0  0
    9.0366    1.2173   -2.5661 H   0  0  0  0  0  0  0  0  0  0  0  0
    8.4368    2.8279   -2.0264 H   0  0  0  0  0  0  0  0  0  0  0  0
    6.1614   -0.9508   -0.9782 H   0  0  0  0  0  0  0  0  0  0  0  0
    5.3789   -4.5540    2.4666 H   0  0  0  0  0  0  0  0  0  0  0  0
    6.1511   -6.4164    3.6411 H   0  0  0  0  0  0  0  0  0  0  0  0
    9.4941   -9.1313    3.8145 H   0  0  0  0  0  0  0  0  0  0  0  0
    9.8824  -10.1069   -0.1812 H   0  0  0  0  0  0  0  0  0  0  0  0
   13.7198  -12.2270    1.0721 H   0  0  0  0  0  0  0  0  0  0  0  0
   13.5233  -12.0477    2.8504 H   0  0  0  0  0  0  0  0  0  0  0  0
   14.3137  -10.7551    1.8892 H   0  0  0  0  0  0  0  0  0  0  0  0
   12.2248   -9.5537    3.3839 H   0  0  0  0  0  0  0  0  0  0  0  0
    9.1105   -4.3327    0.2934 H   0  0  0  0  0  0  0  0  0  0  0  0
  1  2  1  0  0  0  0
  1 34  1  0  0  0  0
  1 35  1  0  0  0  0
  1 36  1  0  0  0  0
  2  3  1  0  0  0  0
  3  4  1  0  0  0  0
  3 37  1  0  0  0  0
  3 38  1  0  0  0  0
  4  5  1  0  0  0  0
  4  6  1  0  0  0  0
  4 39  1  0  0  0  0
  5 40  1  0  0  0  0
  6  7  1  0  0  0  0
  6 41  1  0  0  0  0
  6 42  1  0  0  0  0
  7  8  1  0  0  0  0
  7 18  1  0  0  0  0
  8  9  1  0  0  0  0
  8 17  2  0  0  0  0
  9 10  2  0  0  0  0
  9 43  1  0  0  0  0
 10 11  1  0  0  0  0
 10 13  1  0  0  0  0
 11 12  1  0  0  0  0
 12 44  1  0  0  0  0
 12 45  1  0  0  0  0
 12 46  1  0  0  0  0
 13 14  2  0  0  0  0
 13 47  1  0  0  0  0
 14 15  1  0  0  0  0
 14 17  1  0  0  0  0
 15 16  1  0  0  0  0
 16 48  1  0  0  0  0
 16 49  1  0  0  0  0
 16 50  1  0  0  0  0
 17 51  1  0  0  0  0
 18 19  1  0  0  0  0
 18 33  2  0  0  0  0
 19 20  2  0  0  0  0
 19 52  1  0  0  0  0
 20 21  1  0  0  0  0
 20 53  1  0  0  0  0
 21 22  1  0  0  0  0
 21 32  2  0  0  0  0
 22 23  2  0  0  0  0
 23 24  1  0  0  0  0
 23 54  1  0  0  0  0
 24 25  1  0  0  0  0
 24 31  2  0  0  0  0
 25 26  1  0  0  0  0
 25 30  2  0  0  0  0
 26 27  2  0  0  0  0
 26 55  1  0  0  0  0
 27 28  1  0  0  0  0
 28 29  1  0  0  0  0
 28 30  1  0  0  0  0
 29 56  1  0  0  0  0
 29 57  1  0  0  0  0
 29 58  1  0  0  0  0
 30 59  1  0  0  0  0
 31 32  1  0  0  0  0
 32 33  1  0  0  0  0
 33 60  1  0  0  0  0
M  END
$$$$
