CHEMBL1230790
 OpenBabel04072215363D

 35 37  0  0  0  0  0  0  0  0999 V2000
    1.4319    0.8960    0.3745 C   0  0  0  0  0  0  0  0  0  0  0  0
    2.5696   -0.0775    0.0617 C   0  0  0  0  0  0  0  0  0  0  0  0
    3.7187    0.6321   -0.6541 C   0  0  0  0  0  0  0  0  0  0  0  0
    3.0202   -0.7725    1.2611 N   0  0  0  0  0  0  0  0  0  0  0  0
    3.5701   -0.0772    2.2798 N   0  0  0  0  0  0  0  0  0  0  0  0
    3.8314   -1.0052    3.2229 C   0  0  0  0  0  0  0  0  0  0  0  0
    4.4819   -0.6071    4.4804 C   0  0  0  0  0  0  0  0  0  0  0  0
    5.3745   -1.4655    5.1377 C   0  0  0  0  0  0  0  0  0  0  0  0
    5.9465   -1.1096    6.3620 C   0  0  0  0  0  0  0  0  0  0  0  0
    5.6835    0.1389    6.9170 C   0  0  0  0  0  0  0  0  0  0  0  0
    4.8466    1.0215    6.2389 C   0  0  0  0  0  0  0  0  0  0  0  0
    4.6008    2.2707    6.7275 O   0  0  0  0  0  0  0  0  0  0  0  0
    4.2399    0.6561    5.0395 C   0  0  0  0  0  0  0  0  0  0  0  0
    3.3933   -2.3046    2.8002 C   0  0  0  0  0  0  0  0  0  0  0  0
    3.3259   -3.6187    3.2939 C   0  0  0  0  0  0  0  0  0  0  0  0
    3.6946   -4.0231    4.5706 N   0  0  0  0  0  0  0  0  0  0  0  0
    2.8519   -4.5925    2.4882 N   0  0  0  0  0  0  0  0  0  0  0  0
    2.4447   -4.2657    1.2486 C   0  0  0  0  0  0  0  0  0  0  0  0
    2.4221   -3.0505    0.6842 N   0  0  0  0  0  0  0  0  0  0  0  0
    2.9114   -2.1131    1.5135 C   0  0  0  0  0  0  0  0  0  0  0  0
    1.0602    1.3669   -0.5420 H   0  0  0  0  0  0  0  0  0  0  0  0
    1.7579    1.6924    1.0528 H   0  0  0  0  0  0  0  0  0  0  0  0
    0.5936    0.3760    0.8505 H   0  0  0  0  0  0  0  0  0  0  0  0
    2.1755   -0.8422   -0.6209 H   0  0  0  0  0  0  0  0  0  0  0  0
    4.1552    1.4232   -0.0343 H   0  0  0  0  0  0  0  0  0  0  0  0
    3.3689    1.0915   -1.5853 H   0  0  0  0  0  0  0  0  0  0  0  0
    4.5176   -0.0734   -0.9070 H   0  0  0  0  0  0  0  0  0  0  0  0
    5.6478   -2.4238    4.7019 H   0  0  0  0  0  0  0  0  0  0  0  0
    6.6055   -1.8074    6.8717 H   0  0  0  0  0  0  0  0  0  0  0  0
    6.1426    0.4098    7.8619 H   0  0  0  0  0  0  0  0  0  0  0  0
    5.1714    2.4196    7.4993 H   0  0  0  0  0  0  0  0  0  0  0  0
    3.5868    1.3652    4.5368 H   0  0  0  0  0  0  0  0  0  0  0  0
    3.5269   -3.3397    5.2989 H   0  0  0  0  0  0  0  0  0  0  0  0
    3.3488   -4.9571    4.7611 H   0  0  0  0  0  0  0  0  0  0  0  0
    2.0895   -5.0879    0.6340 H   0  0  0  0  0  0  0  0  0  0  0  0
  1  2  1  0  0  0  0
  1 21  1  0  0  0  0
  1 22  1  0  0  0  0
  1 23  1  0  0  0  0
  2  3  1  0  0  0  0
  2  4  1  0  0  0  0
  2 24  1  0  0  0  0
  3 25  1  0  0  0  0
  3 26  1  0  0  0  0
  3 27  1  0  0  0  0
  4  5  1  0  0  0  0
  4 20  1  0  0  0  0
  5  6  2  0  0  0  0
  6  7  1  0  0  0  0
  6 14  1  0  0  0  0
  7  8  1  0  0  0  0
  7 13  2  0  0  0  0
  8  9  2  0  0  0  0
  8 28  1  0  0  0  0
  9 10  1  0  0  0  0
  9 29  1  0  0  0  0
 10 11  2  0  0  0  0
 10 30  1  0  0  0  0
 11 12  1  0  0  0  0
 11 13  1  0  0  0  0
 12 31  1  0  0  0  0
 13 32  1  0  0  0  0
 14 15  1  0  0  0  0
 14 20  2  0  0  0  0
 15 16  1  0  0  0  0
 15 17  2  0  0  0  0
 16 33  1  0  0  0  0
 16 34  1  0  0  0  0
 17 18  1  0  0  0  0
 18 19  2  0  0  0  0
 18 35  1  0  0  0  0
 19 20  1  0  0  0  0
M  END
$$$$
