CHEMBL3952920
 OpenBabel04072215373D

 52 55  0  0  0  0  0  0  0  0999 V2000
    2.7594   -0.1751    1.6603 O   0  0  0  0  0  0  0  0  0  0  0  0
    2.3136   -0.6184    0.6153 C   0  0  0  0  0  0  0  0  0  0  0  0
    0.9628   -0.8057    0.3612 N   0  0  0  0  0  0  0  0  0  0  0  0
   -0.0771   -0.5354    1.2824 C   0  0  0  0  0  0  0  0  0  0  0  0
    0.0915    0.2702    2.4094 C   0  0  0  0  0  0  0  0  0  0  0  0
   -0.9560    0.4481    3.3035 C   0  0  0  0  0  0  0  0  0  0  0  0
   -0.7785    1.2172    4.3836 F   0  0  0  0  0  0  0  0  0  0  0  0
   -2.1810   -0.1664    3.1002 C   0  0  0  0  0  0  0  0  0  0  0  0
   -2.3801   -0.9711    1.9722 C   0  0  0  0  0  0  0  0  0  0  0  0
   -3.6977   -1.6731    1.7625 C   0  0  0  0  0  0  0  0  0  0  0  0
   -4.6005   -1.4396    2.7545 F   0  0  0  0  0  0  0  0  0  0  0  0
   -4.3063   -1.2994    0.6042 F   0  0  0  0  0  0  0  0  0  0  0  0
   -3.5585   -3.0254    1.6944 F   0  0  0  0  0  0  0  0  0  0  0  0
   -1.3249   -1.1313    1.0529 C   0  0  0  0  0  0  0  0  0  0  0  0
    3.0914   -1.0514   -0.4451 N   0  0  0  0  0  0  0  0  0  0  0  0
    4.5007   -1.1328   -0.4613 C   0  0  0  0  0  0  0  0  0  0  0  0
    5.3221   -0.7848    0.6177 C   0  0  0  0  0  0  0  0  0  0  0  0
    6.7179   -0.8061    0.4995 C   0  0  0  0  0  0  0  0  0  0  0  0
    7.3122   -1.2001   -0.6985 C   0  0  0  0  0  0  0  0  0  0  0  0
    8.6868   -1.1481   -0.7308 O   0  0  0  0  0  0  0  0  0  0  0  0
    9.3371   -0.7880   -1.8950 C   0  0  0  0  0  0  0  0  0  0  0  0
    8.7595   -0.0356   -2.9125 C   0  0  0  0  0  0  0  0  0  0  0  0
    9.4971    0.1757   -4.0541 C   0  0  0  0  0  0  0  0  0  0  0  0
   10.7636   -0.2345   -4.1961 N   0  0  0  0  0  0  0  0  0  0  0  0
   11.3554   -0.8900   -3.1852 C   0  0  0  0  0  0  0  0  0  0  0  0
   12.6947   -1.2807   -3.3269 N   0  0  0  0  0  0  0  0  0  0  0  0
   13.4657   -1.0021   -4.4444 C   0  0  0  0  0  0  0  0  0  0  0  0
   13.1492   -0.3899   -5.4482 O   0  0  0  0  0  0  0  0  0  0  0  0
   14.8433   -1.5805   -4.3568 C   0  0  0  0  0  0  0  0  0  0  0  0
   15.8996   -1.2482   -5.3946 C   0  0  0  0  0  0  0  0  0  0  0  0
   15.2675   -2.6091   -5.3787 C   0  0  0  0  0  0  0  0  0  0  0  0
   10.6718   -1.1922   -2.0117 C   0  0  0  0  0  0  0  0  0  0  0  0
    6.4883   -1.6582   -1.7292 C   0  0  0  0  0  0  0  0  0  0  0  0
    7.0048   -2.1380   -2.8692 F   0  0  0  0  0  0  0  0  0  0  0  0
    5.0994   -1.5967   -1.6319 C   0  0  0  0  0  0  0  0  0  0  0  0
    0.7276   -1.3855   -0.4312 H   0  0  0  0  0  0  0  0  0  0  0  0
    1.0226    0.7796    2.6355 H   0  0  0  0  0  0  0  0  0  0  0  0
   -2.9708   -0.0141    3.8326 H   0  0  0  0  0  0  0  0  0  0  0  0
   -1.4802   -1.7584    0.1769 H   0  0  0  0  0  0  0  0  0  0  0  0
    2.6174   -1.2318   -1.3167 H   0  0  0  0  0  0  0  0  0  0  0  0
    4.9174   -0.4692    1.5738 H   0  0  0  0  0  0  0  0  0  0  0  0
    7.3281   -0.4994    1.3437 H   0  0  0  0  0  0  0  0  0  0  0  0
    7.7493    0.3460   -2.8650 H   0  0  0  0  0  0  0  0  0  0  0  0
    9.0765    0.6868   -4.9134 H   0  0  0  0  0  0  0  0  0  0  0  0
   13.1108   -1.8000   -2.5699 H   0  0  0  0  0  0  0  0  0  0  0  0
   15.2157   -1.7158   -3.3492 H   0  0  0  0  0  0  0  0  0  0  0  0
   16.9265   -1.1562   -5.0616 H   0  0  0  0  0  0  0  0  0  0  0  0
   15.6488   -0.5937   -6.2237 H   0  0  0  0  0  0  0  0  0  0  0  0
   15.8581   -3.4466   -5.0323 H   0  0  0  0  0  0  0  0  0  0  0  0
   14.5843   -2.8449   -6.1890 H   0  0  0  0  0  0  0  0  0  0  0  0
   11.1408   -1.7297   -1.1959 H   0  0  0  0  0  0  0  0  0  0  0  0
    4.5124   -1.9210   -2.4846 H   0  0  0  0  0  0  0  0  0  0  0  0
  1  2  2  0  0  0  0
  2  3  1  0  0  0  0
  2 15  1  0  0  0  0
  3  4  1  0  0  0  0
  3 36  1  0  0  0  0
  4  5  1  0  0  0  0
  4 14  2  0  0  0  0
  5  6  2  0  0  0  0
  5 37  1  0  0  0  0
  6  7  1  0  0  0  0
  6  8  1  0  0  0  0
  8  9  2  0  0  0  0
  8 38  1  0  0  0  0
  9 10  1  0  0  0  0
  9 14  1  0  0  0  0
 10 11  1  0  0  0  0
 10 12  1  0  0  0  0
 10 13  1  0  0  0  0
 14 39  1  0  0  0  0
 15 16  1  0  0  0  0
 15 40  1  0  0  0  0
 16 17  1  0  0  0  0
 16 35  2  0  0  0  0
 17 18  2  0  0  0  0
 17 41  1  0  0  0  0
 18 19  1  0  0  0  0
 18 42  1  0  0  0  0
 19 20  1  0  0  0  0
 19 33  2  0  0  0  0
 20 21  1  0  0  0  0
 21 22  1  0  0  0  0
 21 32  2  0  0  0  0
 22 23  2  0  0  0  0
 22 43  1  0  0  0  0
 23 24  1  0  0  0  0
 23 44  1  0  0  0  0
 24 25  2  0  0  0  0
 25 26  1  0  0  0  0
 25 32  1  0  0  0  0
 26 27  1  0  0  0  0
 26 45  1  0  0  0  0
 27 28  2  0  0  0  0
 27 29  1  0  0  0  0
 29 30  1  0  0  0  0
 29 31  1  0  0  0  0
 29 46  1  0  0  0  0
 30 31  1  0  0  0  0
 30 47  1  0  0  0  0
 30 48  1  0  0  0  0
 31 49  1  0  0  0  0
 31 50  1  0  0  0  0
 32 51  1  0  0  0  0
 33 34  1  0  0  0  0
 33 35  1  0  0  0  0
 35 52  1  0  0  0  0
M  END
$$$$
