CHEMBL1242198
 OpenBabel04072215363D

 35 37  0  0  0  0  0  0  0  0999 V2000
    1.2882    0.8719    0.0419 C   0  0  0  0  0  0  0  0  0  0  0  0
    2.5718    0.0397    0.0537 C   0  0  0  0  0  0  0  0  0  0  0  0
    3.6479    0.6810   -0.8237 C   0  0  0  0  0  0  0  0  0  0  0  0
    3.0509   -0.1874    1.4138 N   0  0  0  0  0  0  0  0  0  0  0  0
    3.4263    0.8572    2.1826 N   0  0  0  0  0  0  0  0  0  0  0  0
    3.8615    0.2977    3.3262 C   0  0  0  0  0  0  0  0  0  0  0  0
    4.4201    1.1419    4.3847 C   0  0  0  0  0  0  0  0  0  0  0  0
    5.4581    0.6748    5.2006 C   0  0  0  0  0  0  0  0  0  0  0  0
    5.9359    1.4508    6.2519 C   0  0  0  0  0  0  0  0  0  0  0  0
    6.8834    0.9696    7.1049 O   0  0  0  0  0  0  0  0  0  0  0  0
    5.4536    2.7349    6.4609 C   0  0  0  0  0  0  0  0  0  0  0  0
    4.4690    3.2250    5.6103 C   0  0  0  0  0  0  0  0  0  0  0  0
    4.0193    4.4757    5.7828 F   0  0  0  0  0  0  0  0  0  0  0  0
    3.9368    2.4414    4.5881 C   0  0  0  0  0  0  0  0  0  0  0  0
    3.6933   -1.1247    3.3034 C   0  0  0  0  0  0  0  0  0  0  0  0
    3.9005   -2.2337    4.1408 C   0  0  0  0  0  0  0  0  0  0  0  0
    4.3808   -2.1844    5.4442 N   0  0  0  0  0  0  0  0  0  0  0  0
    3.6202   -3.4656    3.6680 N   0  0  0  0  0  0  0  0  0  0  0  0
    3.1397   -3.5839    2.4179 C   0  0  0  0  0  0  0  0  0  0  0  0
    2.8810   -2.6059    1.5367 N   0  0  0  0  0  0  0  0  0  0  0  0
    3.1810   -1.3961    2.0414 C   0  0  0  0  0  0  0  0  0  0  0  0
    0.9207    1.0003   -0.9809 H   0  0  0  0  0  0  0  0  0  0  0  0
    1.4465    1.8669    0.4700 H   0  0  0  0  0  0  0  0  0  0  0  0
    0.5001    0.3812    0.6241 H   0  0  0  0  0  0  0  0  0  0  0  0
    2.3374   -0.9437   -0.3713 H   0  0  0  0  0  0  0  0  0  0  0  0
    3.9215    1.6794   -0.4651 H   0  0  0  0  0  0  0  0  0  0  0  0
    3.2959    0.7815   -1.8565 H   0  0  0  0  0  0  0  0  0  0  0  0
    4.5573    0.0709   -0.8373 H   0  0  0  0  0  0  0  0  0  0  0  0
    5.9045   -0.2973    5.0142 H   0  0  0  0  0  0  0  0  0  0  0  0
    7.0810    0.0455    6.8711 H   0  0  0  0  0  0  0  0  0  0  0  0
    5.8474    3.3532    7.2546 H   0  0  0  0  0  0  0  0  0  0  0  0
    3.1554    2.8553    3.9570 H   0  0  0  0  0  0  0  0  0  0  0  0
    4.0904   -1.3737    5.9761 H   0  0  0  0  0  0  0  0  0  0  0  0
    4.2400   -3.0756    5.9086 H   0  0  0  0  0  0  0  0  0  0  0  0
    2.9362   -4.5971    2.0836 H   0  0  0  0  0  0  0  0  0  0  0  0
  1  2  1  0  0  0  0
  1 22  1  0  0  0  0
  1 23  1  0  0  0  0
  1 24  1  0  0  0  0
  2  3  1  0  0  0  0
  2  4  1  0  0  0  0
  2 25  1  0  0  0  0
  3 26  1  0  0  0  0
  3 27  1  0  0  0  0
  3 28  1  0  0  0  0
  4  5  1  0  0  0  0
  4 21  1  0  0  0  0
  5  6  2  0  0  0  0
  6  7  1  0  0  0  0
  6 15  1  0  0  0  0
  7  8  1  0  0  0  0
  7 14  2  0  0  0  0
  8  9  2  0  0  0  0
  8 29  1  0  0  0  0
  9 10  1  0  0  0  0
  9 11  1  0  0  0  0
 10 30  1  0  0  0  0
 11 12  2  0  0  0  0
 11 31  1  0  0  0  0
 12 13  1  0  0  0  0
 12 14  1  0  0  0  0
 14 32  1  0  0  0  0
 15 16  1  0  0  0  0
 15 21  2  0  0  0  0
 16 17  1  0  0  0  0
 16 18  2  0  0  0  0
 17 33  1  0  0  0  0
 17 34  1  0  0  0  0
 18 19  1  0  0  0  0
 19 20  2  0  0  0  0
 19 35  1  0  0  0  0
 20 21  1  0  0  0  0
M  END
$$$$
