CHEMBL1976455
 OpenBabel04072215363D

 34 36  0  0  0  0  0  0  0  0999 V2000
    2.3168    1.6397    2.8957 O   0  0  0  0  0  0  0  0  0  0  0  0
    2.0754    1.1523    1.7948 C   0  0  0  0  0  0  0  0  0  0  0  0
    0.7757    0.8256    1.4989 N   0  0  0  0  0  0  0  0  0  0  0  0
    0.2763    0.2199    0.3373 C   0  0  0  0  0  0  0  0  0  0  0  0
   -1.0807   -0.0727    0.2373 C   0  0  0  0  0  0  0  0  0  0  0  0
   -1.6289   -0.6684   -0.8531 N   0  0  0  0  0  0  0  0  0  0  0  0
   -0.7645   -0.9685   -1.8476 C   0  0  0  0  0  0  0  0  0  0  0  0
    0.5837   -0.6837   -1.7591 C   0  0  0  0  0  0  0  0  0  0  0  0
    1.1252   -0.0805   -0.6757 N   0  0  0  0  0  0  0  0  0  0  0  0
    2.9879    0.9173    0.8020 N   0  0  0  0  0  0  0  0  0  0  0  0
    4.3933    1.0348    0.8182 C   0  0  0  0  0  0  0  0  0  0  0  0
    5.0866    1.1501    2.0176 C   0  0  0  0  0  0  0  0  0  0  0  0
    6.4634    1.1626    1.9745 C   0  0  0  0  0  0  0  0  0  0  0  0
    7.1836    1.0689    0.8382 N   0  0  0  0  0  0  0  0  0  0  0  0
    6.5228    0.9726   -0.3220 C   0  0  0  0  0  0  0  0  0  0  0  0
    7.2750    0.8757   -1.4873 C   0  0  0  0  0  0  0  0  0  0  0  0
    6.6872    0.7801   -2.7503 C   0  0  0  0  0  0  0  0  0  0  0  0
    5.2992    0.7969   -2.8754 C   0  0  0  0  0  0  0  0  0  0  0  0
    4.6246    0.6955   -4.2212 C   0  0  0  0  0  0  0  0  0  0  0  0
    5.4889    0.5165   -5.2573 F   0  0  0  0  0  0  0  0  0  0  0  0
    3.7496   -0.3493   -4.2802 F   0  0  0  0  0  0  0  0  0  0  0  0
    3.8954    1.8037   -4.5267 F   0  0  0  0  0  0  0  0  0  0  0  0
    4.5273    0.9011   -1.7063 C   0  0  0  0  0  0  0  0  0  0  0  0
    5.1153    0.9632   -0.4103 C   0  0  0  0  0  0  0  0  0  0  0  0
    0.1361    1.0385    2.2505 H   0  0  0  0  0  0  0  0  0  0  0  0
   -1.7808    0.1575    1.0326 H   0  0  0  0  0  0  0  0  0  0  0  0
   -1.1840   -1.4472   -2.7247 H   0  0  0  0  0  0  0  0  0  0  0  0
    1.2740   -0.9338   -2.5576 H   0  0  0  0  0  0  0  0  0  0  0  0
    2.5605    0.5858   -0.0566 H   0  0  0  0  0  0  0  0  0  0  0  0
    4.5904    1.1841    2.9797 H   0  0  0  0  0  0  0  0  0  0  0  0
    7.0475    1.2336    2.8883 H   0  0  0  0  0  0  0  0  0  0  0  0
    8.3611    0.8750   -1.4034 H   0  0  0  0  0  0  0  0  0  0  0  0
    7.3250    0.6982   -3.6289 H   0  0  0  0  0  0  0  0  0  0  0  0
    3.4478    0.9565   -1.8216 H   0  0  0  0  0  0  0  0  0  0  0  0
  1  2  2  0  0  0  0
  2  3  1  0  0  0  0
  2 10  1  0  0  0  0
  3  4  1  0  0  0  0
  3 25  1  0  0  0  0
  4  5  1  0  0  0  0
  4  9  2  0  0  0  0
  5  6  2  0  0  0  0
  5 26  1  0  0  0  0
  6  7  1  0  0  0  0
  7  8  2  0  0  0  0
  7 27  1  0  0  0  0
  8  9  1  0  0  0  0
  8 28  1  0  0  0  0
 10 11  1  0  0  0  0
 10 29  1  0  0  0  0
 11 12  1  0  0  0  0
 11 24  2  0  0  0  0
 12 13  2  0  0  0  0
 12 30  1  0  0  0  0
 13 14  1  0  0  0  0
 13 31  1  0  0  0  0
 14 15  2  0  0  0  0
 15 16  1  0  0  0  0
 15 24  1  0  0  0  0
 16 17  2  0  0  0  0
 16 32  1  0  0  0  0
 17 18  1  0  0  0  0
 17 33  1  0  0  0  0
 18 19  1  0  0  0  0
 18 23  2  0  0  0  0
 19 20  1  0  0  0  0
 19 21  1  0  0  0  0
 19 22  1  0  0  0  0
 23 24  1  0  0  0  0
 23 34  1  0  0  0  0
M  END
$$$$
