CHEMBL3671520
 OpenBabel04072215373D

 56 58  0  0  0  0  0  0  0  0999 V2000
    2.4649   -2.0056   -1.5327 C   0  0  0  0  0  0  0  0  0  0  0  0
    3.1233   -1.0480   -0.8712 C   0  0  0  0  0  0  0  0  0  0  0  0
    3.9643   -0.0772   -1.6246 C   0  0  0  0  0  0  0  0  0  0  0  0
    4.1623   -0.2218   -2.8262 O   0  0  0  0  0  0  0  0  0  0  0  0
    4.4044    0.9896   -0.8598 N   0  0  0  0  0  0  0  0  0  0  0  0
    5.1200    2.0356   -1.4843 C   0  0  0  0  0  0  0  0  0  0  0  0
    6.2044    1.7045   -2.3062 C   0  0  0  0  0  0  0  0  0  0  0  0
    6.8439    2.6739   -3.0982 C   0  0  0  0  0  0  0  0  0  0  0  0
    7.8784    2.4090   -4.0105 C   0  0  0  0  0  0  0  0  0  0  0  0
    8.3073    1.0788   -4.1892 N   0  0  0  0  0  0  0  0  0  0  0  0
    9.5954    0.6072   -4.4993 C   0  0  0  0  0  0  0  0  0  0  0  0
   10.7506    1.3186   -4.1480 C   0  0  0  0  0  0  0  0  0  0  0  0
   12.0142    0.7398   -4.2864 C   0  0  0  0  0  0  0  0  0  0  0  0
   12.1368   -0.5535   -4.7845 C   0  0  0  0  0  0  0  0  0  0  0  0
   13.8380   -1.3688   -4.8599 Br  0  0  0  0  0  0  0  0  0  0  0  0
   11.0098   -1.2619   -5.1890 C   0  0  0  0  0  0  0  0  0  0  0  0
    9.7555   -0.6786   -5.0360 C   0  0  0  0  0  0  0  0  0  0  0  0
    8.6687   -1.3825   -5.3900 F   0  0  0  0  0  0  0  0  0  0  0  0
    8.4569    3.3833   -4.7366 N   0  0  0  0  0  0  0  0  0  0  0  0
    7.9746    4.6157   -4.5716 C   0  0  0  0  0  0  0  0  0  0  0  0
    7.0059    4.9810   -3.7247 N   0  0  0  0  0  0  0  0  0  0  0  0
    6.4528    4.0081   -2.9953 C   0  0  0  0  0  0  0  0  0  0  0  0
    5.4334    4.3364   -2.1123 C   0  0  0  0  0  0  0  0  0  0  0  0
    4.7220    3.3732   -1.3751 C   0  0  0  0  0  0  0  0  0  0  0  0
    3.5902    3.6719   -0.6365 O   0  0  0  0  0  0  0  0  0  0  0  0
    3.0000    4.9412   -0.9762 C   0  0  0  0  0  0  0  0  0  0  0  0
    1.5804    5.1061   -0.4308 C   0  0  0  0  0  0  0  0  0  0  0  0
    0.9382    6.2939   -0.9882 N   0  0  0  0  0  0  0  0  0  0  0  0
    1.0265    7.5328   -0.3983 C   0  0  0  0  0  0  0  0  0  0  0  0
    1.6388    7.7359    0.6453 O   0  0  0  0  0  0  0  0  0  0  0  0
    0.3344    8.6514   -1.1256 C   0  0  0  0  0  0  0  0  0  0  0  0
   -1.3019    8.8634   -0.4967 S   0  0  0  0  0  0  0  0  0  0  0  0
   -1.1050    9.1851    1.2476 C   0  0  0  0  0  0  0  0  0  0  0  0
   -1.8367   10.0745   -1.0974 O   0  0  0  0  0  0  0  0  0  0  0  0
   -2.0110    7.6098   -0.6527 O   0  0  0  0  0  0  0  0  0  0  0  0
    1.8643   -2.7407   -1.0080 H   0  0  0  0  0  0  0  0  0  0  0  0
    2.5059   -2.0825   -2.6182 H   0  0  0  0  0  0  0  0  0  0  0  0
    3.0934   -0.9781    0.2066 H   0  0  0  0  0  0  0  0  0  0  0  0
    3.9031    1.2172   -0.0105 H   0  0  0  0  0  0  0  0  0  0  0  0
    6.5398    0.6678   -2.3467 H   0  0  0  0  0  0  0  0  0  0  0  0
    7.5580    0.4828   -4.5361 H   0  0  0  0  0  0  0  0  0  0  0  0
   10.6692    2.3162   -3.7208 H   0  0  0  0  0  0  0  0  0  0  0  0
   12.8909    1.3041   -3.9674 H   0  0  0  0  0  0  0  0  0  0  0  0
   11.0843   -2.2665   -5.5907 H   0  0  0  0  0  0  0  0  0  0  0  0
    8.4051    5.3970   -5.1879 H   0  0  0  0  0  0  0  0  0  0  0  0
    5.1775    5.3906   -2.0612 H   0  0  0  0  0  0  0  0  0  0  0  0
    2.9327    5.0353   -2.0688 H   0  0  0  0  0  0  0  0  0  0  0  0
    3.6217    5.7502   -0.5762 H   0  0  0  0  0  0  0  0  0  0  0  0
    1.5995    5.1716    0.6623 H   0  0  0  0  0  0  0  0  0  0  0  0
    0.9624    4.2429   -0.6989 H   0  0  0  0  0  0  0  0  0  0  0  0
    0.4155    6.1855   -1.8523 H   0  0  0  0  0  0  0  0  0  0  0  0
    0.2636    8.4445   -2.1915 H   0  0  0  0  0  0  0  0  0  0  0  0
    0.8860    9.5851   -0.9850 H   0  0  0  0  0  0  0  0  0  0  0  0
   -0.4701   10.0629    1.3691 H   0  0  0  0  0  0  0  0  0  0  0  0
   -0.6698    8.3108    1.7326 H   0  0  0  0  0  0  0  0  0  0  0  0
   -2.0945    9.3784    1.6649 H   0  0  0  0  0  0  0  0  0  0  0  0
  1  2  2  0  0  0  0
  1 36  1  0  0  0  0
  1 37  1  0  0  0  0
  2  3  1  0  0  0  0
  2 38  1  0  0  0  0
  3  4  2  0  0  0  0
  3  5  1  0  0  0  0
  5  6  1  0  0  0  0
  5 39  1  0  0  0  0
  6  7  1  0  0  0  0
  6 24  2  0  0  0  0
  7  8  2  0  0  0  0
  7 40  1  0  0  0  0
  8  9  1  0  0  0  0
  8 22  1  0  0  0  0
  9 10  1  0  0  0  0
  9 19  2  0  0  0  0
 10 11  1  0  0  0  0
 10 41  1  0  0  0  0
 11 12  1  0  0  0  0
 11 17  2  0  0  0  0
 12 13  2  0  0  0  0
 12 42  1  0  0  0  0
 13 14  1  0  0  0  0
 13 43  1  0  0  0  0
 14 15  1  0  0  0  0
 14 16  2  0  0  0  0
 16 17  1  0  0  0  0
 16 44  1  0  0  0  0
 17 18  1  0  0  0  0
 19 20  1  0  0  0  0
 20 21  2  0  0  0  0
 20 45  1  0  0  0  0
 21 22  1  0  0  0  0
 22 23  2  0  0  0  0
 23 24  1  0  0  0  0
 23 46  1  0  0  0  0
 24 25  1  0  0  0  0
 25 26  1  0  0  0  0
 26 27  1  0  0  0  0
 26 47  1  0  0  0  0
 26 48  1  0  0  0  0
 27 28  1  0  0  0  0
 27 49  1  0  0  0  0
 27 50  1  0  0  0  0
 28 29  1  0  0  0  0
 28 51  1  0  0  0  0
 29 30  2  0  0  0  0
 29 31  1  0  0  0  0
 31 32  1  0  0  0  0
 31 52  1  0  0  0  0
 31 53  1  0  0  0  0
 32 33  1  0  0  0  0
 32 34  2  0  0  0  0
 32 35  2  0  0  0  0
 33 54  1  0  0  0  0
 33 55  1  0  0  0  0
 33 56  1  0  0  0  0
M  END
$$$$
