CHEMBL3972326
 OpenBabel04072215373D

 45 48  0  0  0  0  0  0  0  0999 V2000
    2.4489   -0.4270   -0.9096 C   0  0  0  0  0  0  0  0  0  0  0  0
    0.9540   -0.3419   -1.0386 C   0  0  0  0  0  0  0  0  0  0  0  0
    0.3943    0.8365   -1.5438 C   0  0  0  0  0  0  0  0  0  0  0  0
   -0.9779    0.9450   -1.6787 C   0  0  0  0  0  0  0  0  0  0  0  0
   -1.7990   -0.1184   -1.3083 C   0  0  0  0  0  0  0  0  0  0  0  0
   -1.2873   -1.3149   -0.7862 C   0  0  0  0  0  0  0  0  0  0  0  0
   -2.1317   -2.4089   -0.3915 N   0  0  0  0  0  0  0  0  0  0  0  0
   -3.5216   -2.3610   -0.3871 C   0  0  0  0  0  0  0  0  0  0  0  0
   -4.1618   -1.3534   -0.6711 O   0  0  0  0  0  0  0  0  0  0  0  0
   -4.1561   -3.5458   -0.0189 N   0  0  0  0  0  0  0  0  0  0  0  0
   -5.5869   -3.6688   -0.0598 C   0  0  0  0  0  0  0  0  0  0  0  0
   -6.3704   -2.8988   -0.9295 C   0  0  0  0  0  0  0  0  0  0  0  0
   -7.7708   -2.8942   -0.8626 C   0  0  0  0  0  0  0  0  0  0  0  0
   -8.4302   -3.7079    0.0497 C   0  0  0  0  0  0  0  0  0  0  0  0
   -9.8674   -3.6445    0.1342 C   0  0  0  0  0  0  0  0  0  0  0  0
  -11.0692   -3.5678    0.1580 C   0  0  0  0  0  0  0  0  0  0  0  0
  -12.5195   -3.5724    0.1585 C   0  0  0  0  0  0  0  0  0  0  0  0
  -13.2620   -4.8588    0.1450 C   0  0  0  0  0  0  0  0  0  0  0  0
  -14.5991   -4.7921    0.1541 C   0  0  0  0  0  0  0  0  0  0  0  0
  -15.2269   -3.5270    0.1681 C   0  0  0  0  0  0  0  0  0  0  0  0
  -16.5011   -3.1980    0.1840 N   0  0  0  0  0  0  0  0  0  0  0  0
  -16.5164   -1.8269    0.1910 C   0  0  0  0  0  0  0  0  0  0  0  0
  -15.2366   -1.3197    0.1764 C   0  0  0  0  0  0  0  0  0  0  0  0
  -14.4037   -2.4083    0.1679 N   0  0  0  0  0  0  0  0  0  0  0  0
  -13.0304   -2.3809    0.1667 N   0  0  0  0  0  0  0  0  0  0  0  0
   -7.6683   -4.5621    0.8570 C   0  0  0  0  0  0  0  0  0  0  0  0
   -6.2510   -4.5462    0.7971 C   0  0  0  0  0  0  0  0  0  0  0  0
    0.1107   -1.4175   -0.6637 C   0  0  0  0  0  0  0  0  0  0  0  0
    2.9268    0.5070   -1.2336 H   0  0  0  0  0  0  0  0  0  0  0  0
    2.8424   -1.2292   -1.5396 H   0  0  0  0  0  0  0  0  0  0  0  0
    2.7358   -0.5935    0.1322 H   0  0  0  0  0  0  0  0  0  0  0  0
    1.0190    1.6770   -1.8374 H   0  0  0  0  0  0  0  0  0  0  0  0
   -1.4265    1.8533   -2.0724 H   0  0  0  0  0  0  0  0  0  0  0  0
   -2.8576    0.0470   -1.4612 H   0  0  0  0  0  0  0  0  0  0  0  0
   -1.6735   -3.2548   -0.0854 H   0  0  0  0  0  0  0  0  0  0  0  0
   -3.6600   -4.1601    0.6083 H   0  0  0  0  0  0  0  0  0  0  0  0
   -5.9165   -2.2520   -1.6761 H   0  0  0  0  0  0  0  0  0  0  0  0
   -8.3251   -2.2269   -1.5180 H   0  0  0  0  0  0  0  0  0  0  0  0
  -12.7129   -5.7904    0.1285 H   0  0  0  0  0  0  0  0  0  0  0  0
  -15.2181   -5.6809    0.1451 H   0  0  0  0  0  0  0  0  0  0  0  0
  -17.4511   -1.2798    0.2057 H   0  0  0  0  0  0  0  0  0  0  0  0
  -14.8542   -0.3108    0.1746 H   0  0  0  0  0  0  0  0  0  0  0  0
   -8.1649   -5.2284    1.5583 H   0  0  0  0  0  0  0  0  0  0  0  0
   -5.7014   -5.2067    1.4650 H   0  0  0  0  0  0  0  0  0  0  0  0
    0.5655   -2.3225   -0.2705 H   0  0  0  0  0  0  0  0  0  0  0  0
  1  2  1  0  0  0  0
  1 29  1  0  0  0  0
  1 30  1  0  0  0  0
  1 31  1  0  0  0  0
  2  3  1  0  0  0  0
  2 28  2  0  0  0  0
  3  4  2  0  0  0  0
  3 32  1  0  0  0  0
  4  5  1  0  0  0  0
  4 33  1  0  0  0  0
  5  6  2  0  0  0  0
  5 34  1  0  0  0  0
  6  7  1  0  0  0  0
  6 28  1  0  0  0  0
  7  8  1  0  0  0  0
  7 35  1  0  0  0  0
  8  9  2  0  0  0  0
  8 10  1  0  0  0  0
 10 11  1  0  0  0  0
 10 36  1  0  0  0  0
 11 12  1  0  0  0  0
 11 27  2  0  0  0  0
 12 13  2  0  0  0  0
 12 37  1  0  0  0  0
 13 14  1  0  0  0  0
 13 38  1  0  0  0  0
 14 15  1  0  0  0  0
 14 26  2  0  0  0  0
 15 16  3  0  0  0  0
 16 17  1  0  0  0  0
 17 18  1  0  0  0  0
 17 25  2  0  0  0  0
 18 19  2  0  0  0  0
 18 39  1  0  0  0  0
 19 20  1  0  0  0  0
 19 40  1  0  0  0  0
 20 21  2  0  0  0  0
 20 24  1  0  0  0  0
 21 22  1  0  0  0  0
 22 23  2  0  0  0  0
 22 41  1  0  0  0  0
 23 24  1  0  0  0  0
 23 42  1  0  0  0  0
 24 25  1  0  0  0  0
 26 27  1  0  0  0  0
 26 43  1  0  0  0  0
 27 44  1  0  0  0  0
 28 45  1  0  0  0  0
M  END
$$$$
