CHEMBL3287319
 OpenBabel04072215363D

 70 74  0  0  0  0  0  0  0  0999 V2000
   13.3153   -1.9365   -5.7528 C   0  0  0  0  0  0  0  0  0  0  0  0
   14.1975   -1.4365   -7.2110 S   0  0  0  0  0  0  0  0  0  0  0  0
   15.6181   -1.4897   -6.9232 O   0  0  0  0  0  0  0  0  0  0  0  0
   13.6591   -2.2198   -8.3125 O   0  0  0  0  0  0  0  0  0  0  0  0
   13.7083    0.2592   -7.4973 C   0  0  0  0  0  0  0  0  0  0  0  0
   14.0902    1.1552   -6.3522 C   0  0  0  0  0  0  0  0  0  0  0  0
   15.3478    1.7632   -6.2889 C   0  0  0  0  0  0  0  0  0  0  0  0
   15.6615    2.6258   -5.2366 C   0  0  0  0  0  0  0  0  0  0  0  0
   14.7265    2.8801   -4.2294 C   0  0  0  0  0  0  0  0  0  0  0  0
   13.4796    2.2523   -4.2482 C   0  0  0  0  0  0  0  0  0  0  0  0
   12.5399    2.5181   -3.2334 N   0  0  0  0  0  0  0  0  0  0  0  0
   11.5542    1.6215   -2.8070 C   0  0  0  0  0  0  0  0  0  0  0  0
   10.3882    2.1216   -2.3802 N   0  0  0  0  0  0  0  0  0  0  0  0
    9.4675    1.2315   -1.9519 C   0  0  0  0  0  0  0  0  0  0  0  0
    9.6791   -0.1260   -1.8935 C   0  0  0  0  0  0  0  0  0  0  0  0
   10.9181   -0.5321   -2.3121 C   0  0  0  0  0  0  0  0  0  0  0  0
   11.2553   -1.8773   -2.1737 O   0  0  0  0  0  0  0  0  0  0  0  0
   12.5952   -2.1661   -1.9870 C   0  0  0  0  0  0  0  0  0  0  0  0
   13.4433   -1.3535   -1.2379 C   0  0  0  0  0  0  0  0  0  0  0  0
   14.8108   -1.6176   -1.1834 C   0  0  0  0  0  0  0  0  0  0  0  0
   15.3588   -2.7272   -1.8251 C   0  0  0  0  0  0  0  0  0  0  0  0
   16.7547   -2.9657   -1.8422 N   0  0  0  0  0  0  0  0  0  0  0  0
   17.7272   -2.0318   -1.5179 C   0  0  0  0  0  0  0  0  0  0  0  0
   17.5585   -0.8604   -1.2096 O   0  0  0  0  0  0  0  0  0  0  0  0
   19.1374   -2.5268   -1.5389 C   0  0  0  0  0  0  0  0  0  0  0  0
   19.6053   -3.1220   -0.2487 C   0  0  0  0  0  0  0  0  0  0  0  0
   19.4782   -4.3322   -0.1323 O   0  0  0  0  0  0  0  0  0  0  0  0
   20.0790   -2.2387    0.7173 N   0  0  0  0  0  0  0  0  0  0  0  0
   20.4951   -2.6319    2.0199 C   0  0  0  0  0  0  0  0  0  0  0  0
   20.7510   -3.9592    2.3456 C   0  0  0  0  0  0  0  0  0  0  0  0
   21.0521   -4.3382    3.6514 C   0  0  0  0  0  0  0  0  0  0  0  0
   21.1525   -3.3872    4.6633 C   0  0  0  0  0  0  0  0  0  0  0  0
   21.4649   -3.9998    6.2450 Cl  0  0  0  0  0  0  0  0  0  0  0  0
   20.9917   -2.0304    4.3628 C   0  0  0  0  0  0  0  0  0  0  0  0
   21.1541   -0.9334    5.3837 C   0  0  0  0  0  0  0  0  0  0  0  0
   21.4531   -1.3186    6.6536 F   0  0  0  0  0  0  0  0  0  0  0  0
   22.1470   -0.0645    5.0340 F   0  0  0  0  0  0  0  0  0  0  0  0
   20.0300   -0.1692    5.4970 F   0  0  0  0  0  0  0  0  0  0  0  0
   20.6622   -1.6634    3.0242 C   0  0  0  0  0  0  0  0  0  0  0  0
   20.0937   -1.7789   -2.4657 C   0  0  0  0  0  0  0  0  0  0  0  0
   19.7147   -3.1856   -2.7965 C   0  0  0  0  0  0  0  0  0  0  0  0
   14.4934   -3.6200   -2.4685 C   0  0  0  0  0  0  0  0  0  0  0  0
   13.1265   -3.3250   -2.5529 C   0  0  0  0  0  0  0  0  0  0  0  0
   12.3286   -4.1583   -3.2465 F   0  0  0  0  0  0  0  0  0  0  0  0
   11.8279    0.3114   -2.8239 N   0  0  0  0  0  0  0  0  0  0  0  0
   13.1676    1.4172   -5.3309 C   0  0  0  0  0  0  0  0  0  0  0  0
   13.5371   -2.9915   -5.5786 H   0  0  0  0  0  0  0  0  0  0  0  0
   12.2445   -1.8087   -5.9227 H   0  0  0  0  0  0  0  0  0  0  0  0
   13.6534   -1.3462   -4.9014 H   0  0  0  0  0  0  0  0  0  0  0  0
   12.6266    0.2695   -7.6661 H   0  0  0  0  0  0  0  0  0  0  0  0
   14.1906    0.5880   -8.4241 H   0  0  0  0  0  0  0  0  0  0  0  0
   16.0932    1.5724   -7.0592 H   0  0  0  0  0  0  0  0  0  0  0  0
   16.6413    3.0956   -5.1968 H   0  0  0  0  0  0  0  0  0  0  0  0
   14.9944    3.5410   -3.4085 H   0  0  0  0  0  0  0  0  0  0  0  0
   12.1287    3.4410   -3.2912 H   0  0  0  0  0  0  0  0  0  0  0  0
    8.5251    1.6663   -1.6290 H   0  0  0  0  0  0  0  0  0  0  0  0
    8.9371   -0.8139   -1.5173 H   0  0  0  0  0  0  0  0  0  0  0  0
   13.0762   -0.4641   -0.7332 H   0  0  0  0  0  0  0  0  0  0  0  0
   15.4211   -0.9168   -0.6234 H   0  0  0  0  0  0  0  0  0  0  0  0
   17.0708   -3.8738   -2.1706 H   0  0  0  0  0  0  0  0  0  0  0  0
   19.9712   -1.2458    0.5262 H   0  0  0  0  0  0  0  0  0  0  0  0
   20.7172   -4.7507    1.6049 H   0  0  0  0  0  0  0  0  0  0  0  0
   21.1974   -5.3952    3.8646 H   0  0  0  0  0  0  0  0  0  0  0  0
   20.5086   -0.6072    2.7978 H   0  0  0  0  0  0  0  0  0  0  0  0
   21.1007   -1.5770   -2.1244 H   0  0  0  0  0  0  0  0  0  0  0  0
   19.6861   -1.0038   -3.1100 H   0  0  0  0  0  0  0  0  0  0  0  0
   20.4819   -3.9459   -2.6697 H   0  0  0  0  0  0  0  0  0  0  0  0
   19.0617   -3.3680   -3.6409 H   0  0  0  0  0  0  0  0  0  0  0  0
   14.8624   -4.5177   -2.9560 H   0  0  0  0  0  0  0  0  0  0  0  0
   12.1839    0.9539   -5.3732 H   0  0  0  0  0  0  0  0  0  0  0  0
  1  2  1  0  0  0  0
  1 47  1  0  0  0  0
  1 48  1  0  0  0  0
  1 49  1  0  0  0  0
  2  3  2  0  0  0  0
  2  4  2  0  0  0  0
  2  5  1  0  0  0  0
  5  6  1  0  0  0  0
  5 50  1  0  0  0  0
  5 51  1  0  0  0  0
  6  7  1  0  0  0  0
  6 46  2  0  0  0  0
  7  8  2  0  0  0  0
  7 52  1  0  0  0  0
  8  9  1  0  0  0  0
  8 53  1  0  0  0  0
  9 10  2  0  0  0  0
  9 54  1  0  0  0  0
 10 11  1  0  0  0  0
 10 46  1  0  0  0  0
 11 12  1  0  0  0  0
 11 55  1  0  0  0  0
 12 13  1  0  0  0  0
 12 45  2  0  0  0  0
 13 14  2  0  0  0  0
 14 15  1  0  0  0  0
 14 56  1  0  0  0  0
 15 16  2  0  0  0  0
 15 57  1  0  0  0  0
 16 17  1  0  0  0  0
 16 45  1  0  0  0  0
 17 18  1  0  0  0  0
 18 19  1  0  0  0  0
 18 43  2  0  0  0  0
 19 20  2  0  0  0  0
 19 58  1  0  0  0  0
 20 21  1  0  0  0  0
 20 59  1  0  0  0  0
 21 22  1  0  0  0  0
 21 42  2  0  0  0  0
 22 23  1  0  0  0  0
 22 60  1  0  0  0  0
 23 24  2  0  0  0  0
 23 25  1  0  0  0  0
 25 26  1  0  0  0  0
 25 40  1  0  0  0  0
 25 41  1  0  0  0  0
 26 27  2  0  0  0  0
 26 28  1  0  0  0  0
 28 29  1  0  0  0  0
 28 61  1  0  0  0  0
 29 30  1  0  0  0  0
 29 39  2  0  0  0  0
 30 31  2  0  0  0  0
 30 62  1  0  0  0  0
 31 32  1  0  0  0  0
 31 63  1  0  0  0  0
 32 33  1  0  0  0  0
 32 34  2  0  0  0  0
 34 35  1  0  0  0  0
 34 39  1  0  0  0  0
 35 36  1  0  0  0  0
 35 37  1  0  0  0  0
 35 38  1  0  0  0  0
 39 64  1  0  0  0  0
 40 41  1  0  0  0  0
 40 65  1  0  0  0  0
 40 66  1  0  0  0  0
 41 67  1  0  0  0  0
 41 68  1  0  0  0  0
 42 43  1  0  0  0  0
 42 69  1  0  0  0  0
 43 44  1  0  0  0  0
 46 70  1  0  0  0  0
M  END
$$$$
