CHEMBL3690478
 OpenBabel04072215373D

 47 50  0  0  0  0  0  0  0  0999 V2000
    5.1953   -1.7827    2.1246 C   0  0  0  0  0  0  0  0  0  0  0  0
    4.3564   -1.0249    1.1520 C   0  0  0  0  0  0  0  0  0  0  0  0
    4.6391    0.2269    0.8449 N   0  0  0  0  0  0  0  0  0  0  0  0
    3.7020    0.6107   -0.0548 C   0  0  0  0  0  0  0  0  0  0  0  0
    2.8449   -0.4226   -0.3204 C   0  0  0  0  0  0  0  0  0  0  0  0
    3.2219   -1.4992    0.4782 N   0  0  0  0  0  0  0  0  0  0  0  0
    2.5267   -2.7510    0.5669 C   0  0  0  0  0  0  0  0  0  0  0  0
    2.9338   -3.7664    1.5505 C   0  0  0  0  0  0  0  0  0  0  0  0
    2.1776   -4.8437    1.8013 C   0  0  0  0  0  0  0  0  0  0  0  0
    1.1252   -5.1255    0.9524 N   0  0  0  0  0  0  0  0  0  0  0  0
    0.4464   -6.3149    0.7723 C   0  0  0  0  0  0  0  0  0  0  0  0
    0.7645   -7.6092    1.3868 C   0  0  0  0  0  0  0  0  0  0  0  0
   -0.2801   -8.4625    1.7481 C   0  0  0  0  0  0  0  0  0  0  0  0
   -0.0117   -9.7488    2.2036 C   0  0  0  0  0  0  0  0  0  0  0  0
    1.3029  -10.2026    2.3062 C   0  0  0  0  0  0  0  0  0  0  0  0
    2.3723   -9.3740    1.9644 C   0  0  0  0  0  0  0  0  0  0  0  0
    3.7270   -9.7897    2.0404 N   0  0  0  0  0  0  0  0  0  0  0  0
    4.1803  -11.0521    2.3734 C   0  0  0  0  0  0  0  0  0  0  0  0
    3.5093  -12.0377    2.6448 O   0  0  0  0  0  0  0  0  0  0  0  0
    5.5590  -11.1148    2.4150 N   0  0  0  0  0  0  0  0  0  0  0  0
    6.1838  -12.4144    2.7065 C   0  0  0  0  0  0  0  0  0  0  0  0
    6.2372  -13.4113    1.5381 C   0  0  0  0  0  0  0  0  0  0  0  0
    5.8865  -12.8333    0.3655 F   0  0  0  0  0  0  0  0  0  0  0  0
    7.5060  -13.8681    1.3817 F   0  0  0  0  0  0  0  0  0  0  0  0
    5.4461  -14.4849    1.7346 F   0  0  0  0  0  0  0  0  0  0  0  0
    2.0924   -8.0773    1.5052 C   0  0  0  0  0  0  0  0  0  0  0  0
   -0.4612   -6.0199   -0.2297 C   0  0  0  0  0  0  0  0  0  0  0  0
   -0.3009   -4.7469   -0.7187 N   0  0  0  0  0  0  0  0  0  0  0  0
    0.7023   -4.2481   -0.0359 C   0  0  0  0  0  0  0  0  0  0  0  0
    1.4246   -3.0278   -0.1836 C   0  0  0  0  0  0  0  0  0  0  0  0
    6.0686   -1.1886    2.4090 H   0  0  0  0  0  0  0  0  0  0  0  0
    5.5870   -2.7028    1.6824 H   0  0  0  0  0  0  0  0  0  0  0  0
    4.6405   -1.9911    3.0456 H   0  0  0  0  0  0  0  0  0  0  0  0
    3.6880    1.6137   -0.4667 H   0  0  0  0  0  0  0  0  0  0  0  0
    1.9934   -0.4594   -0.9816 H   0  0  0  0  0  0  0  0  0  0  0  0
    3.8869   -3.7506    2.0393 H   0  0  0  0  0  0  0  0  0  0  0  0
    2.4256   -5.5592    2.5713 H   0  0  0  0  0  0  0  0  0  0  0  0
   -1.3151   -8.1435    1.6559 H   0  0  0  0  0  0  0  0  0  0  0  0
   -0.8296  -10.4156    2.4657 H   0  0  0  0  0  0  0  0  0  0  0  0
    1.4533  -11.2155    2.6648 H   0  0  0  0  0  0  0  0  0  0  0  0
    4.4305   -9.0975    1.8267 H   0  0  0  0  0  0  0  0  0  0  0  0
    6.0603  -10.5075    1.7828 H   0  0  0  0  0  0  0  0  0  0  0  0
    5.6534  -12.8762    3.5482 H   0  0  0  0  0  0  0  0  0  0  0  0
    7.1997  -12.1943    3.0486 H   0  0  0  0  0  0  0  0  0  0  0  0
    2.9168   -7.4368    1.1970 H   0  0  0  0  0  0  0  0  0  0  0  0
   -1.1715   -6.7005   -0.6850 H   0  0  0  0  0  0  0  0  0  0  0  0
    1.0369   -2.3546   -0.9407 H   0  0  0  0  0  0  0  0  0  0  0  0
  1  2  1  0  0  0  0
  1 31  1  0  0  0  0
  1 32  1  0  0  0  0
  1 33  1  0  0  0  0
  2  3  2  0  0  0  0
  2  6  1  0  0  0  0
  3  4  1  0  0  0  0
  4  5  2  0  0  0  0
  4 34  1  0  0  0  0
  5  6  1  0  0  0  0
  5 35  1  0  0  0  0
  6  7  1  0  0  0  0
  7  8  1  0  0  0  0
  7 30  2  0  0  0  0
  8  9  2  0  0  0  0
  8 36  1  0  0  0  0
  9 10  1  0  0  0  0
  9 37  1  0  0  0  0
 10 11  1  0  0  0  0
 10 29  1  0  0  0  0
 11 12  1  0  0  0  0
 11 27  2  0  0  0  0
 12 13  1  0  0  0  0
 12 26  2  0  0  0  0
 13 14  2  0  0  0  0
 13 38  1  0  0  0  0
 14 15  1  0  0  0  0
 14 39  1  0  0  0  0
 15 16  2  0  0  0  0
 15 40  1  0  0  0  0
 16 17  1  0  0  0  0
 16 26  1  0  0  0  0
 17 18  1  0  0  0  0
 17 41  1  0  0  0  0
 18 19  2  0  0  0  0
 18 20  1  0  0  0  0
 20 21  1  0  0  0  0
 20 42  1  0  0  0  0
 21 22  1  0  0  0  0
 21 43  1  0  0  0  0
 21 44  1  0  0  0  0
 22 23  1  0  0  0  0
 22 24  1  0  0  0  0
 22 25  1  0  0  0  0
 26 45  1  0  0  0  0
 27 28  1  0  0  0  0
 27 46  1  0  0  0  0
 28 29  2  0  0  0  0
 29 30  1  0  0  0  0
 30 47  1  0  0  0  0
M  END
$$$$
