CHEMBL558752
 OpenBabel04072215383D

 53 57  0  0  0  0  0  0  0  0999 V2000
   -2.3778    1.6094    0.1772 C   0  0  0  0  0  0  0  0  0  0  0  0
   -1.5183    0.4523    0.0881 N   0  0  0  0  0  0  0  0  0  0  0  0
   -1.8754   -0.8814    0.1115 C   0  0  0  0  0  0  0  0  0  0  0  0
   -3.1739   -1.2821    0.0974 N   0  0  0  0  0  0  0  0  0  0  0  0
   -3.6074   -2.6254    0.0128 C   0  0  0  0  0  0  0  0  0  0  0  0
   -2.8609   -3.6956    0.5178 C   0  0  0  0  0  0  0  0  0  0  0  0
   -3.2466   -5.0231    0.3036 C   0  0  0  0  0  0  0  0  0  0  0  0
   -4.3979   -5.3174   -0.4328 C   0  0  0  0  0  0  0  0  0  0  0  0
   -4.7749   -6.7443   -0.7479 C   0  0  0  0  0  0  0  0  0  0  0  0
   -3.9008   -7.6654   -0.2539 F   0  0  0  0  0  0  0  0  0  0  0  0
   -5.9964   -7.0867   -0.2508 F   0  0  0  0  0  0  0  0  0  0  0  0
   -4.8406   -6.9783   -2.0887 F   0  0  0  0  0  0  0  0  0  0  0  0
   -5.1800   -4.2555   -0.9048 C   0  0  0  0  0  0  0  0  0  0  0  0
   -4.7885   -2.9242   -0.6828 C   0  0  0  0  0  0  0  0  0  0  0  0
   -0.7896   -1.6301    0.1114 N   0  0  0  0  0  0  0  0  0  0  0  0
    0.2802   -0.7819    0.0377 C   0  0  0  0  0  0  0  0  0  0  0  0
    1.6532   -1.0673    0.0204 C   0  0  0  0  0  0  0  0  0  0  0  0
    2.5572    0.0005   -0.0524 C   0  0  0  0  0  0  0  0  0  0  0  0
    3.8956   -0.3331   -0.0122 O   0  0  0  0  0  0  0  0  0  0  0  0
    4.7916    0.5334    0.5777 C   0  0  0  0  0  0  0  0  0  0  0  0
    4.4972    1.3480    1.6692 C   0  0  0  0  0  0  0  0  0  0  0  0
    5.4795    2.2077    2.1292 C   0  0  0  0  0  0  0  0  0  0  0  0
    6.7285    2.2632    1.6200 N   0  0  0  0  0  0  0  0  0  0  0  0
    7.0115    1.4082    0.6002 C   0  0  0  0  0  0  0  0  0  0  0  0
    8.3846    1.4577    0.1097 C   0  0  0  0  0  0  0  0  0  0  0  0
    8.9138    0.7676   -0.8833 N   0  0  0  0  0  0  0  0  0  0  0  0
   10.2351    1.1325   -0.9393 C   0  0  0  0  0  0  0  0  0  0  0  0
   10.5261    2.0612    0.0300 C   0  0  0  0  0  0  0  0  0  0  0  0
   11.7740    2.7393    0.4011 C   0  0  0  0  0  0  0  0  0  0  0  0
   12.8243    2.3366   -0.3531 F   0  0  0  0  0  0  0  0  0  0  0  0
   11.6711    4.0833    0.2614 F   0  0  0  0  0  0  0  0  0  0  0  0
   12.0987    2.5044    1.6972 F   0  0  0  0  0  0  0  0  0  0  0  0
    9.3366    2.2744    0.6779 N   0  0  0  0  0  0  0  0  0  0  0  0
    6.0782    0.5357    0.0534 C   0  0  0  0  0  0  0  0  0  0  0  0
    2.0942    1.3136   -0.2016 C   0  0  0  0  0  0  0  0  0  0  0  0
    0.7311    1.6155   -0.1470 C   0  0  0  0  0  0  0  0  0  0  0  0
   -0.1484    0.5360   -0.0158 C   0  0  0  0  0  0  0  0  0  0  0  0
   -3.3656    1.3319    0.5408 H   0  0  0  0  0  0  0  0  0  0  0  0
   -2.4445    2.0617   -0.8159 H   0  0  0  0  0  0  0  0  0  0  0  0
   -1.9321    2.3176    0.8826 H   0  0  0  0  0  0  0  0  0  0  0  0
   -3.9109   -0.6187   -0.1051 H   0  0  0  0  0  0  0  0  0  0  0  0
   -1.9490   -3.5097    1.0809 H   0  0  0  0  0  0  0  0  0  0  0  0
   -2.6189   -5.8211    0.6965 H   0  0  0  0  0  0  0  0  0  0  0  0
   -6.0840   -4.4557   -1.4783 H   0  0  0  0  0  0  0  0  0  0  0  0
   -5.3991   -2.1299   -1.1010 H   0  0  0  0  0  0  0  0  0  0  0  0
    1.9958   -2.0953    0.0740 H   0  0  0  0  0  0  0  0  0  0  0  0
    3.5233    1.3408    2.1454 H   0  0  0  0  0  0  0  0  0  0  0  0
    5.2751    2.8983    2.9424 H   0  0  0  0  0  0  0  0  0  0  0  0
   10.9060    0.6997   -1.6708 H   0  0  0  0  0  0  0  0  0  0  0  0
    9.1513    2.8962    1.4568 H   0  0  0  0  0  0  0  0  0  0  0  0
    6.3524   -0.1255   -0.7625 H   0  0  0  0  0  0  0  0  0  0  0  0
    2.7963    2.1333   -0.3378 H   0  0  0  0  0  0  0  0  0  0  0  0
    0.3851    2.6406   -0.2074 H   0  0  0  0  0  0  0  0  0  0  0  0
  1  2  1  0  0  0  0
  1 38  1  0  0  0  0
  1 39  1  0  0  0  0
  1 40  1  0  0  0  0
  2  3  1  0  0  0  0
  2 37  1  0  0  0  0
  3  4  1  0  0  0  0
  3 15  2  0  0  0  0
  4  5  1  0  0  0  0
  4 41  1  0  0  0  0
  5  6  1  0  0  0  0
  5 14  2  0  0  0  0
  6  7  2  0  0  0  0
  6 42  1  0  0  0  0
  7  8  1  0  0  0  0
  7 43  1  0  0  0  0
  8  9  1  0  0  0  0
  8 13  2  0  0  0  0
  9 10  1  0  0  0  0
  9 11  1  0  0  0  0
  9 12  1  0  0  0  0
 13 14  1  0  0  0  0
 13 44  1  0  0  0  0
 14 45  1  0  0  0  0
 15 16  1  0  0  0  0
 16 17  1  0  0  0  0
 16 37  2  0  0  0  0
 17 18  2  0  0  0  0
 17 46  1  0  0  0  0
 18 19  1  0  0  0  0
 18 35  1  0  0  0  0
 19 20  1  0  0  0  0
 20 21  1  0  0  0  0
 20 34  2  0  0  0  0
 21 22  2  0  0  0  0
 21 47  1  0  0  0  0
 22 23  1  0  0  0  0
 22 48  1  0  0  0  0
 23 24  2  0  0  0  0
 24 25  1  0  0  0  0
 24 34  1  0  0  0  0
 25 26  2  0  0  0  0
 25 33  1  0  0  0  0
 26 27  1  0  0  0  0
 27 28  2  0  0  0  0
 27 49  1  0  0  0  0
 28 29  1  0  0  0  0
 28 33  1  0  0  0  0
 29 30  1  0  0  0  0
 29 31  1  0  0  0  0
 29 32  1  0  0  0  0
 33 50  1  0  0  0  0
 34 51  1  0  0  0  0
 35 36  2  0  0  0  0
 35 52  1  0  0  0  0
 36 37  1  0  0  0  0
 36 53  1  0  0  0  0
M  END
$$$$
