CHEMBL438016
 OpenBabel04072215383D

 76 80  0  0  0  0  0  0  0  0999 V2000
    2.4976    0.8368    0.6012 C   0  0  0  0  0  0  0  0  0  0  0  0
    1.1846    0.2918    0.0950 C   0  0  0  0  0  0  0  0  0  0  0  0
    1.1557   -1.0779   -0.1934 C   0  0  0  0  0  0  0  0  0  0  0  0
   -0.0202   -1.7122   -0.5942 C   0  0  0  0  0  0  0  0  0  0  0  0
   -1.2213   -1.0171   -0.7225 C   0  0  0  0  0  0  0  0  0  0  0  0
   -2.4281   -1.6995   -1.0652 N   0  0  0  0  0  0  0  0  0  0  0  0
   -2.5368   -2.9551   -1.6408 C   0  0  0  0  0  0  0  0  0  0  0  0
   -1.6010   -3.6737   -2.0037 O   0  0  0  0  0  0  0  0  0  0  0  0
   -3.9221   -3.4535   -1.9167 C   0  0  0  0  0  0  0  0  0  0  0  0
   -5.0165   -3.1479   -1.1031 C   0  0  0  0  0  0  0  0  0  0  0  0
   -6.2720   -3.7020   -1.3855 C   0  0  0  0  0  0  0  0  0  0  0  0
   -6.4436   -4.5446   -2.4856 C   0  0  0  0  0  0  0  0  0  0  0  0
   -5.3651   -4.8431   -3.3284 C   0  0  0  0  0  0  0  0  0  0  0  0
   -5.5456   -5.7038   -4.5565 C   0  0  0  0  0  0  0  0  0  0  0  0
   -6.8261   -6.1361   -4.7313 F   0  0  0  0  0  0  0  0  0  0  0  0
   -5.2209   -5.0404   -5.7010 F   0  0  0  0  0  0  0  0  0  0  0  0
   -4.7732   -6.8236   -4.5378 F   0  0  0  0  0  0  0  0  0  0  0  0
   -4.1018   -4.3054   -3.0208 C   0  0  0  0  0  0  0  0  0  0  0  0
   -1.2226    0.3886   -0.4757 C   0  0  0  0  0  0  0  0  0  0  0  0
   -2.4804    1.2076   -0.6887 C   0  0  0  0  0  0  0  0  0  0  0  0
    0.0008    1.0452   -0.0786 C   0  0  0  0  0  0  0  0  0  0  0  0
   -0.0281    2.5333    0.2005 C   0  0  0  0  0  0  0  0  0  0  0  0
   -0.9976    3.0148    0.7760 O   0  0  0  0  0  0  0  0  0  0  0  0
    1.0406    3.2879   -0.2662 N   0  0  0  0  0  0  0  0  0  0  0  0
    1.1609    4.6962   -0.1479 C   0  0  0  0  0  0  0  0  0  0  0  0
    0.3546    5.5170    0.6059 C   0  0  0  0  0  0  0  0  0  0  0  0
    0.4820    6.8613    0.6426 N   0  0  0  0  0  0  0  0  0  0  0  0
    1.4428    7.4327   -0.1015 C   0  0  0  0  0  0  0  0  0  0  0  0
    1.5583    8.8247   -0.1091 N   0  0  0  0  0  0  0  0  0  0  0  0
    1.2362    9.6764    0.9588 C   0  0  0  0  0  0  0  0  0  0  0  0
    1.3252    9.2417    2.2817 C   0  0  0  0  0  0  0  0  0  0  0  0
    0.8698   10.0378    3.3259 C   0  0  0  0  0  0  0  0  0  0  0  0
    0.3042   11.2961    3.0973 C   0  0  0  0  0  0  0  0  0  0  0  0
   -0.1895   12.0006    4.1786 N   0  0  0  0  0  0  0  0  0  0  0  0
   -0.3252   13.4593    4.1644 C   0  0  0  0  0  0  0  0  0  0  0  0
   -0.2429   13.9681    5.6262 C   0  0  0  0  0  0  0  0  0  0  0  0
   -1.2570   13.3446    6.5129 N   0  0  0  0  0  0  0  0  0  0  0  0
   -1.0940   13.8104    7.8866 C   0  0  0  0  0  0  0  0  0  0  0  0
   -1.1208   11.8696    6.4509 C   0  0  0  0  0  0  0  0  0  0  0  0
   -1.2143   11.3315    5.0073 C   0  0  0  0  0  0  0  0  0  0  0  0
    0.3051   11.7693    1.7810 C   0  0  0  0  0  0  0  0  0  0  0  0
    0.7737   10.9728    0.7218 C   0  0  0  0  0  0  0  0  0  0  0  0
    2.2962    6.7273   -0.8571 N   0  0  0  0  0  0  0  0  0  0  0  0
    2.1428    5.3790   -0.8437 C   0  0  0  0  0  0  0  0  0  0  0  0
    3.1476    0.0275    0.9582 H   0  0  0  0  0  0  0  0  0  0  0  0
    2.3544    1.5110    1.4501 H   0  0  0  0  0  0  0  0  0  0  0  0
    3.0421    1.3429   -0.2013 H   0  0  0  0  0  0  0  0  0  0  0  0
    2.0519   -1.6871   -0.0857 H   0  0  0  0  0  0  0  0  0  0  0  0
    0.0343   -2.7866   -0.7570 H   0  0  0  0  0  0  0  0  0  0  0  0
   -3.2864   -1.1920   -0.9593 H   0  0  0  0  0  0  0  0  0  0  0  0
   -4.9152   -2.5152   -0.2260 H   0  0  0  0  0  0  0  0  0  0  0  0
   -7.1218   -3.4840   -0.7409 H   0  0  0  0  0  0  0  0  0  0  0  0
   -7.4274   -4.9708   -2.6843 H   0  0  0  0  0  0  0  0  0  0  0  0
   -3.2484   -4.5509   -3.6543 H   0  0  0  0  0  0  0  0  0  0  0  0
   -3.3357    0.6396   -1.0474 H   0  0  0  0  0  0  0  0  0  0  0  0
   -2.2947    1.9724   -1.4528 H   0  0  0  0  0  0  0  0  0  0  0  0
   -2.8078    1.6672    0.2442 H   0  0  0  0  0  0  0  0  0  0  0  0
    1.7334    2.8241   -0.8374 H   0  0  0  0  0  0  0  0  0  0  0  0
   -0.4442    5.1491    1.2404 H   0  0  0  0  0  0  0  0  0  0  0  0
    2.3053    9.1325   -0.7117 H   0  0  0  0  0  0  0  0  0  0  0  0
    1.7308    8.2629    2.5203 H   0  0  0  0  0  0  0  0  0  0  0  0
    0.9616    9.6590    4.3402 H   0  0  0  0  0  0  0  0  0  0  0  0
   -1.2786   13.7558    3.7090 H   0  0  0  0  0  0  0  0  0  0  0  0
    0.4873   13.9251    3.5948 H   0  0  0  0  0  0  0  0  0  0  0  0
   -0.3718   15.0561    5.6241 H   0  0  0  0  0  0  0  0  0  0  0  0
    0.7660   13.7555    6.0080 H   0  0  0  0  0  0  0  0  0  0  0  0
   -1.2254   14.8963    7.9383 H   0  0  0  0  0  0  0  0  0  0  0  0
   -0.1093   13.5604    8.2980 H   0  0  0  0  0  0  0  0  0  0  0  0
   -1.8598   13.3670    8.5325 H   0  0  0  0  0  0  0  0  0  0  0  0
   -1.9087   11.3985    7.0503 H   0  0  0  0  0  0  0  0  0  0  0  0
   -0.1551   11.5594    6.8747 H   0  0  0  0  0  0  0  0  0  0  0  0
   -2.2131   11.5273    4.5945 H   0  0  0  0  0  0  0  0  0  0  0  0
   -1.0936   10.2426    5.0394 H   0  0  0  0  0  0  0  0  0  0  0  0
   -0.1111   12.7446    1.5454 H   0  0  0  0  0  0  0  0  0  0  0  0
    0.7051   11.3512   -0.2945 H   0  0  0  0  0  0  0  0  0  0  0  0
    2.8642    4.8518   -1.4604 H   0  0  0  0  0  0  0  0  0  0  0  0
  1  2  1  0  0  0  0
  1 45  1  0  0  0  0
  1 46  1  0  0  0  0
  1 47  1  0  0  0  0
  2  3  1  0  0  0  0
  2 21  2  0  0  0  0
  3  4  2  0  0  0  0
  3 48  1  0  0  0  0
  4  5  1  0  0  0  0
  4 49  1  0  0  0  0
  5  6  1  0  0  0  0
  5 19  2  0  0  0  0
  6  7  1  0  0  0  0
  6 50  1  0  0  0  0
  7  8  2  0  0  0  0
  7  9  1  0  0  0  0
  9 10  1  0  0  0  0
  9 18  2  0  0  0  0
 10 11  2  0  0  0  0
 10 51  1  0  0  0  0
 11 12  1  0  0  0  0
 11 52  1  0  0  0  0
 12 13  2  0  0  0  0
 12 53  1  0  0  0  0
 13 14  1  0  0  0  0
 13 18  1  0  0  0  0
 14 15  1  0  0  0  0
 14 16  1  0  0  0  0
 14 17  1  0  0  0  0
 18 54  1  0  0  0  0
 19 20  1  0  0  0  0
 19 21  1  0  0  0  0
 20 55  1  0  0  0  0
 20 56  1  0  0  0  0
 20 57  1  0  0  0  0
 21 22  1  0  0  0  0
 22 23  2  0  0  0  0
 22 24  1  0  0  0  0
 24 25  1  0  0  0  0
 24 58  1  0  0  0  0
 25 26  1  0  0  0  0
 25 44  2  0  0  0  0
 26 27  2  0  0  0  0
 26 59  1  0  0  0  0
 27 28  1  0  0  0  0
 28 29  1  0  0  0  0
 28 43  2  0  0  0  0
 29 30  1  0  0  0  0
 29 60  1  0  0  0  0
 30 31  1  0  0  0  0
 30 42  2  0  0  0  0
 31 32  2  0  0  0  0
 31 61  1  0  0  0  0
 32 33  1  0  0  0  0
 32 62  1  0  0  0  0
 33 34  1  0  0  0  0
 33 41  2  0  0  0  0
 34 35  1  0  0  0  0
 34 40  1  0  0  0  0
 35 36  1  0  0  0  0
 35 63  1  0  0  0  0
 35 64  1  0  0  0  0
 36 37  1  0  0  0  0
 36 65  1  0  0  0  0
 36 66  1  0  0  0  0
 37 38  1  0  0  0  0
 37 39  1  0  0  0  0
 38 67  1  0  0  0  0
 38 68  1  0  0  0  0
 38 69  1  0  0  0  0
 39 40  1  0  0  0  0
 39 70  1  0  0  0  0
 39 71  1  0  0  0  0
 40 72  1  0  0  0  0
 40 73  1  0  0  0  0
 41 42  1  0  0  0  0
 41 74  1  0  0  0  0
 42 75  1  0  0  0  0
 43 44  1  0  0  0  0
 44 76  1  0  0  0  0
M  END
$$$$
