CHEMBL3890120
 OpenBabel04072215373D

 67 71  0  0  0  0  0  0  0  0999 V2000
    4.9389    4.4288    2.7534 C   0  0  0  0  0  0  0  0  0  0  0  0
    3.5412    4.8026    2.2402 C   0  0  0  0  0  0  0  0  0  0  0  0
    2.9209    5.8206    3.2126 C   0  0  0  0  0  0  0  0  0  0  0  0
    3.5707    5.2118    0.7641 C   0  0  0  0  0  0  0  0  0  0  0  0
    3.4256    4.2352   -0.2358 C   0  0  0  0  0  0  0  0  0  0  0  0
    3.4800    4.5601   -1.6232 C   0  0  0  0  0  0  0  0  0  0  0  0
    3.6855    5.8707   -2.0594 C   0  0  0  0  0  0  0  0  0  0  0  0
    3.7718    6.3026   -3.4338 N   0  0  0  0  0  0  0  0  0  0  0  0
    3.6903    5.5181   -4.5703 C   0  0  0  0  0  0  0  0  0  0  0  0
    3.4942    4.2913   -4.5285 O   0  0  0  0  0  0  0  0  0  0  0  0
    3.8431    6.1681   -5.9766 C   0  0  0  0  0  0  0  0  0  0  0  0
    3.8686    5.2140   -7.0099 C   0  0  0  0  0  0  0  0  0  0  0  0
    3.9917    5.5985   -8.3356 C   0  0  0  0  0  0  0  0  0  0  0  0
    4.0705    6.9554   -8.6702 C   0  0  0  0  0  0  0  0  0  0  0  0
    4.0261    8.0151   -7.7208 C   0  0  0  0  0  0  0  0  0  0  0  0
    4.0403    9.3702   -8.1856 N   0  0  0  0  0  0  0  0  0  0  0  0
    4.1653   10.5666   -7.3346 C   0  0  0  0  0  0  0  0  0  0  0  0
    4.0242   12.0176   -8.0111 C   0  0  0  0  0  0  0  0  0  0  0  0
    4.0499   12.1774   -9.5265 C   0  0  0  0  0  0  0  0  0  0  0  0
    4.0409   10.9598  -10.2156 C   0  0  0  0  0  0  0  0  0  0  0  0
    4.0788   11.0161  -11.5987 C   0  0  0  0  0  0  0  0  0  0  0  0
    4.2200   12.1259  -12.3239 N   0  0  0  0  0  0  0  0  0  0  0  0
    4.2151   13.3022  -11.7026 C   0  0  0  0  0  0  0  0  0  0  0  0
    4.3225   14.3452  -12.6093 C   0  0  0  0  0  0  0  0  0  0  0  0
    4.1603   15.6930  -12.2855 C   0  0  0  0  0  0  0  0  0  0  0  0
    4.1352   16.6727  -13.4502 C   0  0  0  0  0  0  0  0  0  0  0  0
    5.1728   17.6380  -13.3941 O   0  0  0  0  0  0  0  0  0  0  0  0
    3.9135   15.9939  -10.9402 C   0  0  0  0  0  0  0  0  0  0  0  0
    3.5222   17.4209  -10.5742 C   0  0  0  0  0  0  0  0  0  0  0  0
    4.4923   18.3792  -10.9989 O   0  0  0  0  0  0  0  0  0  0  0  0
    3.9071   14.9067   -9.9652 C   0  0  0  0  0  0  0  0  0  0  0  0
    4.0562   13.4741  -10.3114 C   0  0  0  0  0  0  0  0  0  0  0  0
    3.9837    9.5722   -9.6400 C   0  0  0  0  0  0  0  0  0  0  0  0
    3.9384    7.5681   -6.3488 C   0  0  0  0  0  0  0  0  0  0  0  0
    3.8252    6.8428   -1.0579 C   0  0  0  0  0  0  0  0  0  0  0  0
    3.7733    6.5237    0.3257 C   0  0  0  0  0  0  0  0  0  0  0  0
    4.8874    4.0626    3.7861 H   0  0  0  0  0  0  0  0  0  0  0  0
    5.6150    5.2909    2.7426 H   0  0  0  0  0  0  0  0  0  0  0  0
    5.3887    3.6359    2.1473 H   0  0  0  0  0  0  0  0  0  0  0  0
    2.9150    3.9031    2.3196 H   0  0  0  0  0  0  0  0  0  0  0  0
    3.5028    6.7464    3.2725 H   0  0  0  0  0  0  0  0  0  0  0  0
    2.8829    5.4028    4.2274 H   0  0  0  0  0  0  0  0  0  0  0  0
    1.8954    6.0744    2.9267 H   0  0  0  0  0  0  0  0  0  0  0  0
    3.2703    3.1953    0.0477 H   0  0  0  0  0  0  0  0  0  0  0  0
    3.3587    3.7346   -2.3203 H   0  0  0  0  0  0  0  0  0  0  0  0
    3.9393    7.2904   -3.5682 H   0  0  0  0  0  0  0  0  0  0  0  0
    3.7894    4.1492   -6.7974 H   0  0  0  0  0  0  0  0  0  0  0  0
    4.0164    4.8442   -9.1163 H   0  0  0  0  0  0  0  0  0  0  0  0
    4.1662    7.1371   -9.7365 H   0  0  0  0  0  0  0  0  0  0  0  0
    5.1395   10.5234   -6.8300 H   0  0  0  0  0  0  0  0  0  0  0  0
    3.4081   10.5058   -6.5432 H   0  0  0  0  0  0  0  0  0  0  0  0
    3.0880   12.4566   -7.6419 H   0  0  0  0  0  0  0  0  0  0  0  0
    4.8380   12.6294   -7.5996 H   0  0  0  0  0  0  0  0  0  0  0  0
    3.9990   10.1147  -12.2041 H   0  0  0  0  0  0  0  0  0  0  0  0
    4.4878   14.0804  -13.6537 H   0  0  0  0  0  0  0  0  0  0  0  0
    3.1639   17.1729  -13.5280 H   0  0  0  0  0  0  0  0  0  0  0  0
    4.2776   16.1407  -14.3999 H   0  0  0  0  0  0  0  0  0  0  0  0
    4.9307   18.2413  -12.6618 H   0  0  0  0  0  0  0  0  0  0  0  0
    3.3514   17.5600   -9.5051 H   0  0  0  0  0  0  0  0  0  0  0  0
    2.5883   17.6747  -11.0931 H   0  0  0  0  0  0  0  0  0  0  0  0
    5.2707   18.2726  -10.4237 H   0  0  0  0  0  0  0  0  0  0  0  0
    3.7090   15.1614   -8.9249 H   0  0  0  0  0  0  0  0  0  0  0  0
    3.0490    9.1254  -10.0076 H   0  0  0  0  0  0  0  0  0  0  0  0
    4.8377    9.0521  -10.0961 H   0  0  0  0  0  0  0  0  0  0  0  0
    3.9219    8.3146   -5.5644 H   0  0  0  0  0  0  0  0  0  0  0  0
    3.9859    7.8815   -1.3265 H   0  0  0  0  0  0  0  0  0  0  0  0
    3.9047    7.3290    1.0446 H   0  0  0  0  0  0  0  0  0  0  0  0
  1  2  1  0  0  0  0
  1 37  1  0  0  0  0
  1 38  1  0  0  0  0
  1 39  1  0  0  0  0
  2  3  1  0  0  0  0
  2  4  1  0  0  0  0
  2 40  1  0  0  0  0
  3 41  1  0  0  0  0
  3 42  1  0  0  0  0
  3 43  1  0  0  0  0
  4  5  1  0  0  0  0
  4 36  2  0  0  0  0
  5  6  2  0  0  0  0
  5 44  1  0  0  0  0
  6  7  1  0  0  0  0
  6 45  1  0  0  0  0
  7  8  1  0  0  0  0
  7 35  2  0  0  0  0
  8  9  1  0  0  0  0
  8 46  1  0  0  0  0
  9 10  2  0  0  0  0
  9 11  1  0  0  0  0
 11 12  1  0  0  0  0
 11 34  2  0  0  0  0
 12 13  2  0  0  0  0
 12 47  1  0  0  0  0
 13 14  1  0  0  0  0
 13 48  1  0  0  0  0
 14 15  2  0  0  0  0
 14 49  1  0  0  0  0
 15 16  1  0  0  0  0
 15 34  1  0  0  0  0
 16 17  1  0  0  0  0
 16 33  1  0  0  0  0
 17 18  1  0  0  0  0
 17 50  1  0  0  0  0
 17 51  1  0  0  0  0
 18 19  1  0  0  0  0
 18 52  1  0  0  0  0
 18 53  1  0  0  0  0
 19 20  1  0  0  0  0
 19 32  2  0  0  0  0
 20 21  2  0  0  0  0
 20 33  1  0  0  0  0
 21 22  1  0  0  0  0
 21 54  1  0  0  0  0
 22 23  2  0  0  0  0
 23 24  1  0  0  0  0
 23 32  1  0  0  0  0
 24 25  2  0  0  0  0
 24 55  1  0  0  0  0
 25 26  1  0  0  0  0
 25 28  1  0  0  0  0
 26 27  1  0  0  0  0
 26 56  1  0  0  0  0
 26 57  1  0  0  0  0
 27 58  1  0  0  0  0
 28 29  1  0  0  0  0
 28 31  2  0  0  0  0
 29 30  1  0  0  0  0
 29 59  1  0  0  0  0
 29 60  1  0  0  0  0
 30 61  1  0  0  0  0
 31 32  1  0  0  0  0
 31 62  1  0  0  0  0
 33 63  1  0  0  0  0
 33 64  1  0  0  0  0
 34 65  1  0  0  0  0
 35 36  1  0  0  0  0
 35 66  1  0  0  0  0
 36 67  1  0  0  0  0
M  END
$$$$
