CHEMBL3690390
 OpenBabel04072215373D

 38 41  0  0  0  0  0  0  0  0999 V2000
    1.2115    0.8053   -0.2874 O   0  0  0  0  0  0  0  0  0  0  0  0
    2.2911    0.2670   -0.0681 C   0  0  0  0  0  0  0  0  0  0  0  0
    2.7656   -0.8922   -0.6612 N   0  0  0  0  0  0  0  0  0  0  0  0
    2.0897   -1.6504   -1.6473 C   0  0  0  0  0  0  0  0  0  0  0  0
    0.9766   -1.1624   -2.3327 C   0  0  0  0  0  0  0  0  0  0  0  0
    0.2616   -1.9819   -3.1973 C   0  0  0  0  0  0  0  0  0  0  0  0
    0.6763   -3.2913   -3.4110 C   0  0  0  0  0  0  0  0  0  0  0  0
    1.8686   -3.7725   -2.8544 C   0  0  0  0  0  0  0  0  0  0  0  0
    2.3701   -5.1091   -3.2054 C   0  0  0  0  0  0  0  0  0  0  0  0
    3.0399   -6.0444   -2.4270 C   0  0  0  0  0  0  0  0  0  0  0  0
    3.3161   -7.1961   -3.1166 N   0  0  0  0  0  0  0  0  0  0  0  0
    2.8332   -7.0011   -4.3241 C   0  0  0  0  0  0  0  0  0  0  0  0
    2.8117   -7.8567   -5.4649 C   0  0  0  0  0  0  0  0  0  0  0  0
    2.2639   -7.4273   -6.6171 C   0  0  0  0  0  0  0  0  0  0  0  0
    2.2231   -8.4372   -8.0131 Cl  0  0  0  0  0  0  0  0  0  0  0  0
    1.7087   -6.0913   -6.7352 C   0  0  0  0  0  0  0  0  0  0  0  0
    1.7462   -5.2732   -5.6704 C   0  0  0  0  0  0  0  0  0  0  0  0
    2.2747   -5.7277   -4.4540 N   0  0  0  0  0  0  0  0  0  0  0  0
    2.5545   -2.9452   -1.9434 C   0  0  0  0  0  0  0  0  0  0  0  0
    3.1827    0.7783    0.8577 N   0  0  0  0  0  0  0  0  0  0  0  0
    2.9043    1.9711    1.5989 C   0  0  0  0  0  0  0  0  0  0  0  0
    3.7349    3.2110    1.4134 C   0  0  0  0  0  0  0  0  0  0  0  0
    3.8344    2.4255    2.6883 C   0  0  0  0  0  0  0  0  0  0  0  0
    3.5659   -1.3256   -0.2278 H   0  0  0  0  0  0  0  0  0  0  0  0
    0.6251   -0.1435   -2.2046 H   0  0  0  0  0  0  0  0  0  0  0  0
   -0.6258   -1.5991   -3.6936 H   0  0  0  0  0  0  0  0  0  0  0  0
    0.0463   -3.9242   -4.0295 H   0  0  0  0  0  0  0  0  0  0  0  0
    3.3251   -5.9514   -1.3881 H   0  0  0  0  0  0  0  0  0  0  0  0
    3.2461   -8.8456   -5.3721 H   0  0  0  0  0  0  0  0  0  0  0  0
    1.2814   -5.7678   -7.6786 H   0  0  0  0  0  0  0  0  0  0  0  0
    1.3740   -4.2608   -5.7279 H   0  0  0  0  0  0  0  0  0  0  0  0
    3.4513   -3.3185   -1.4548 H   0  0  0  0  0  0  0  0  0  0  0  0
    4.0818    0.3384    0.9710 H   0  0  0  0  0  0  0  0  0  0  0  0
    1.8408    2.1281    1.7767 H   0  0  0  0  0  0  0  0  0  0  0  0
    3.2242    4.1677    1.4445 H   0  0  0  0  0  0  0  0  0  0  0  0
    4.5661    3.1784    0.7199 H   0  0  0  0  0  0  0  0  0  0  0  0
    3.3868    2.8458    3.5819 H   0  0  0  0  0  0  0  0  0  0  0  0
    4.7411    1.8625    2.8685 H   0  0  0  0  0  0  0  0  0  0  0  0
  1  2  2  0  0  0  0
  2  3  1  0  0  0  0
  2 20  1  0  0  0  0
  3  4  1  0  0  0  0
  3 24  1  0  0  0  0
  4  5  1  0  0  0  0
  4 19  2  0  0  0  0
  5  6  2  0  0  0  0
  5 25  1  0  0  0  0
  6  7  1  0  0  0  0
  6 26  1  0  0  0  0
  7  8  2  0  0  0  0
  7 27  1  0  0  0  0
  8  9  1  0  0  0  0
  8 19  1  0  0  0  0
  9 10  2  0  0  0  0
  9 18  1  0  0  0  0
 10 11  1  0  0  0  0
 10 28  1  0  0  0  0
 11 12  2  0  0  0  0
 12 13  1  0  0  0  0
 12 18  1  0  0  0  0
 13 14  2  0  0  0  0
 13 29  1  0  0  0  0
 14 15  1  0  0  0  0
 14 16  1  0  0  0  0
 16 17  2  0  0  0  0
 16 30  1  0  0  0  0
 17 18  1  0  0  0  0
 17 31  1  0  0  0  0
 19 32  1  0  0  0  0
 20 21  1  0  0  0  0
 20 33  1  0  0  0  0
 21 22  1  0  0  0  0
 21 23  1  0  0  0  0
 21 34  1  0  0  0  0
 22 23  1  0  0  0  0
 22 35  1  0  0  0  0
 22 36  1  0  0  0  0
 23 37  1  0  0  0  0
 23 38  1  0  0  0  0
M  END
$$$$
