CHEMBL4079318
 OpenBabel04072215383D

 54 59  0  0  1  0  0  0  0  0999 V2000
    2.4289   -0.7101    0.6789 C   0  0  0  0  0  0  0  0  0  0  0  0
    3.9548   -0.5452    0.6889 C   0  0  2  0  0  0  0  0  0  0  0  0
    4.3780    0.9136    0.9540 C   0  0  0  0  0  0  0  0  0  0  0  0
    4.2165    1.7789   -0.2595 C   0  0  0  0  0  0  0  0  0  0  0  0
    4.1364    1.2311   -1.5335 C   0  0  0  0  0  0  0  0  0  0  0  0
    3.9855    1.9845   -2.6438 N   0  0  0  0  0  0  0  0  0  0  0  0
    3.9086    3.3073   -2.4602 C   0  0  0  0  0  0  0  0  0  0  0  0
    3.9978    3.9421   -1.2904 N   0  0  0  0  0  0  0  0  0  0  0  0
    4.1988    3.1567   -0.2116 C   0  0  0  0  0  0  0  0  0  0  0  0
    4.4075    3.7627    1.0236 O   0  0  0  0  0  0  0  0  0  0  0  0
    5.1270    4.9407    1.0394 C   0  0  0  0  0  0  0  0  0  0  0  0
    6.1516    5.2241    0.1349 C   0  0  0  0  0  0  0  0  0  0  0  0
    6.8190    6.4475    0.1606 C   0  0  0  0  0  0  0  0  0  0  0  0
    6.4743    7.3666    1.1573 C   0  0  0  0  0  0  0  0  0  0  0  0
    5.5239    7.0679    2.1411 C   0  0  0  0  0  0  0  0  0  0  0  0
    5.5177    8.1466    3.0612 C   0  0  0  0  0  0  0  0  0  0  0  0
    6.4673    9.0510    2.6496 C   0  0  0  0  0  0  0  0  0  0  0  0
    7.0086    8.6208    1.4493 N   0  0  0  0  0  0  0  0  0  0  0  0
    8.0319    9.2744    0.7496 C   0  0  0  0  0  0  0  0  0  0  0  0
    8.9899    9.7227    1.3566 O   0  0  0  0  0  0  0  0  0  0  0  0
    7.7155    9.4061   -0.5981 N   0  0  0  0  0  0  0  0  0  0  0  0
    8.6027   10.0677   -1.4132 C   0  0  0  0  0  0  0  0  0  0  0  0
    9.9772    9.7747   -1.5755 C   0  0  0  0  0  0  0  0  0  0  0  0
   10.4473   10.7546   -2.4117 C   0  0  0  0  0  0  0  0  0  0  0  0
   11.8971   10.9077   -2.8358 C   0  0  0  0  0  0  0  0  0  0  0  0
   12.4626   12.3076   -2.9593 C   0  0  0  0  0  0  0  0  0  0  0  0
   12.2119   11.5063   -4.1894 C   0  0  0  0  0  0  0  0  0  0  0  0
    9.4090   11.5569   -2.7788 O   0  0  0  0  0  0  0  0  0  0  0  0
    8.2319   11.0818   -2.2077 N   0  0  0  0  0  0  0  0  0  0  0  0
    4.8318    5.8381    2.0724 C   0  0  0  0  0  0  0  0  0  0  0  0
    4.1555   -0.2729   -1.7252 C   0  0  0  0  0  0  0  0  0  0  0  0
    4.5818   -1.0483   -0.5456 N   0  0  0  0  0  0  0  0  0  0  0  0
    2.0091   -0.4255    1.6495 H   0  0  0  0  0  0  0  0  0  0  0  0
    2.1508   -1.7517    0.4875 H   0  0  0  0  0  0  0  0  0  0  0  0
    1.9405   -0.0873   -0.0783 H   0  0  0  0  0  0  0  0  0  0  0  0
    4.3302   -1.1577    1.5182 H   0  0  0  0  0  0  0  0  0  0  0  0
    5.4354    0.9362    1.2487 H   0  0  0  0  0  0  0  0  0  0  0  0
    3.7926    1.3151    1.7898 H   0  0  0  0  0  0  0  0  0  0  0  0
    3.7737    3.9240   -3.3434 H   0  0  0  0  0  0  0  0  0  0  0  0
    6.4394    4.5022   -0.6244 H   0  0  0  0  0  0  0  0  0  0  0  0
    7.6034    6.6494   -0.5647 H   0  0  0  0  0  0  0  0  0  0  0  0
    4.9119    8.2312    3.9561 H   0  0  0  0  0  0  0  0  0  0  0  0
    6.7933    9.9873    3.0804 H   0  0  0  0  0  0  0  0  0  0  0  0
    6.7359    9.5642   -0.8136 H   0  0  0  0  0  0  0  0  0  0  0  0
   10.5367    8.9661   -1.1338 H   0  0  0  0  0  0  0  0  0  0  0  0
   12.5710   10.1420   -2.4643 H   0  0  0  0  0  0  0  0  0  0  0  0
   13.4917   12.4624   -2.6526 H   0  0  0  0  0  0  0  0  0  0  0  0
   11.8172   13.1568   -2.7654 H   0  0  0  0  0  0  0  0  0  0  0  0
   13.0734   11.1204   -4.7237 H   0  0  0  0  0  0  0  0  0  0  0  0
   11.3973   11.8135   -4.8350 H   0  0  0  0  0  0  0  0  0  0  0  0
    4.0867    5.5847    2.8206 H   0  0  0  0  0  0  0  0  0  0  0  0
    4.8345   -0.5118   -2.5527 H   0  0  0  0  0  0  0  0  0  0  0  0
    3.1565   -0.5982   -2.0360 H   0  0  0  0  0  0  0  0  0  0  0  0
    5.5941   -0.9518   -0.4604 H   0  0  0  0  0  0  0  0  0  0  0  0
  1 33  1  0  0  0  0
  1 34  1  0  0  0  0
  1 35  1  0  0  0  0
  2  3  1  0  0  0  0
  2 32  1  0  0  0  0
  2  1  1  0  0  0  0
  2 36  1  1  0  0  0
  3  4  1  0  0  0  0
  3 37  1  0  0  0  0
  3 38  1  0  0  0  0
  4  5  1  0  0  0  0
  4  9  2  0  0  0  0
  5  6  2  0  0  0  0
  5 31  1  0  0  0  0
  6  7  1  0  0  0  0
  7  8  2  0  0  0  0
  7 39  1  0  0  0  0
  8  9  1  0  0  0  0
  9 10  1  0  0  0  0
 10 11  1  0  0  0  0
 11 12  1  0  0  0  0
 11 30  2  0  0  0  0
 12 13  2  0  0  0  0
 12 40  1  0  0  0  0
 13 14  1  0  0  0  0
 13 41  1  0  0  0  0
 14 15  2  0  0  0  0
 14 18  1  0  0  0  0
 15 16  1  0  0  0  0
 15 30  1  0  0  0  0
 16 17  2  0  0  0  0
 16 42  1  0  0  0  0
 17 18  1  0  0  0  0
 17 43  1  0  0  0  0
 18 19  1  0  0  0  0
 19 20  2  0  0  0  0
 19 21  1  0  0  0  0
 21 22  1  0  0  0  0
 21 44  1  0  0  0  0
 22 23  1  0  0  0  0
 22 29  2  0  0  0  0
 23 24  2  0  0  0  0
 23 45  1  0  0  0  0
 24 25  1  0  0  0  0
 24 28  1  0  0  0  0
 25 26  1  0  0  0  0
 25 27  1  0  0  0  0
 25 46  1  0  0  0  0
 26 27  1  0  0  0  0
 26 47  1  0  0  0  0
 26 48  1  0  0  0  0
 27 49  1  0  0  0  0
 27 50  1  0  0  0  0
 28 29  1  0  0  0  0
 30 51  1  0  0  0  0
 31 32  1  0  0  0  0
 31 52  1  0  0  0  0
 31 53  1  0  0  0  0
 32 54  1  0  0  0  0
M  END
$$$$
