CHEMBL245362
 OpenBabel04072215363D

 40 43  0  0  0  0  0  0  0  0999 V2000
    2.8598    1.8625    3.0268 C   0  0  0  0  0  0  0  0  0  0  0  0
    2.6046    0.3738    2.8350 C   0  0  0  0  0  0  0  0  0  0  0  0
    3.1633   -0.1574    1.5184 C   0  0  0  0  0  0  0  0  0  0  0  0
    4.6612    0.0414    1.3778 C   0  0  0  0  0  0  0  0  0  0  0  0
    5.1015    0.7622    0.4874 O   0  0  0  0  0  0  0  0  0  0  0  0
    5.4067   -0.6739    2.3023 N   0  0  0  0  0  0  0  0  0  0  0  0
    6.8102   -0.6183    2.4554 C   0  0  0  0  0  0  0  0  0  0  0  0
    7.5939    0.4045    1.8937 C   0  0  0  0  0  0  0  0  0  0  0  0
    8.9982    0.4289    2.0192 C   0  0  0  0  0  0  0  0  0  0  0  0
    9.6676   -0.5705    2.7175 C   0  0  0  0  0  0  0  0  0  0  0  0
    8.8928   -1.5515    3.2929 C   0  0  0  0  0  0  0  0  0  0  0  0
    7.4727   -1.5985    3.1900 C   0  0  0  0  0  0  0  0  0  0  0  0
    6.8734   -2.8178    3.9142 C   0  0  0  0  0  0  0  0  0  0  0  0
    8.1443   -3.4343    4.3902 C   0  0  0  0  0  0  0  0  0  0  0  0
    9.2811   -2.6975    4.0372 C   0  0  0  0  0  0  0  0  0  0  0  0
   10.4240   -3.2261    4.4446 N   0  0  0  0  0  0  0  0  0  0  0  0
    9.9986   -4.3464    5.0810 N   0  0  0  0  0  0  0  0  0  0  0  0
    8.6275   -4.5213    5.0719 C   0  0  0  0  0  0  0  0  0  0  0  0
    7.8850   -5.6593    5.6756 C   0  0  0  0  0  0  0  0  0  0  0  0
    6.4721   -5.8473    5.6199 C   0  0  0  0  0  0  0  0  0  0  0  0
    6.0707   -6.9977    6.2645 C   0  0  0  0  0  0  0  0  0  0  0  0
    7.3898   -7.8480    6.9403 S   0  0  0  0  0  0  0  0  0  0  0  0
    8.5042   -6.6798    6.3660 C   0  0  0  0  0  0  0  0  0  0  0  0
    2.4140    2.2025    3.9667 H   0  0  0  0  0  0  0  0  0  0  0  0
    2.4206    2.4456    2.2112 H   0  0  0  0  0  0  0  0  0  0  0  0
    3.9312    2.0828    3.0686 H   0  0  0  0  0  0  0  0  0  0  0  0
    1.5226    0.1971    2.8524 H   0  0  0  0  0  0  0  0  0  0  0  0
    3.0307   -0.1762    3.6810 H   0  0  0  0  0  0  0  0  0  0  0  0
    2.6738    0.3489    0.6768 H   0  0  0  0  0  0  0  0  0  0  0  0
    2.9427   -1.2262    1.4153 H   0  0  0  0  0  0  0  0  0  0  0  0
    4.9130   -1.3732    2.8397 H   0  0  0  0  0  0  0  0  0  0  0  0
    7.1371    1.2259    1.3470 H   0  0  0  0  0  0  0  0  0  0  0  0
    9.5588    1.2365    1.5542 H   0  0  0  0  0  0  0  0  0  0  0  0
   10.7482   -0.5781    2.8041 H   0  0  0  0  0  0  0  0  0  0  0  0
    6.3422   -3.4667    3.2138 H   0  0  0  0  0  0  0  0  0  0  0  0
    6.2395   -2.5018    4.7470 H   0  0  0  0  0  0  0  0  0  0  0  0
   10.6985   -4.9556    5.4880 H   0  0  0  0  0  0  0  0  0  0  0  0
    5.7714   -5.1851    5.1298 H   0  0  0  0  0  0  0  0  0  0  0  0
    5.0650   -7.3807    6.3706 H   0  0  0  0  0  0  0  0  0  0  0  0
    9.5549   -6.8184    6.5771 H   0  0  0  0  0  0  0  0  0  0  0  0
  1  2  1  0  0  0  0
  1 24  1  0  0  0  0
  1 25  1  0  0  0  0
  1 26  1  0  0  0  0
  2  3  1  0  0  0  0
  2 27  1  0  0  0  0
  2 28  1  0  0  0  0
  3  4  1  0  0  0  0
  3 29  1  0  0  0  0
  3 30  1  0  0  0  0
  4  5  2  0  0  0  0
  4  6  1  0  0  0  0
  6  7  1  0  0  0  0
  6 31  1  0  0  0  0
  7  8  1  0  0  0  0
  7 12  2  0  0  0  0
  8  9  2  0  0  0  0
  8 32  1  0  0  0  0
  9 10  1  0  0  0  0
  9 33  1  0  0  0  0
 10 11  2  0  0  0  0
 10 34  1  0  0  0  0
 11 12  1  0  0  0  0
 11 15  1  0  0  0  0
 12 13  1  0  0  0  0
 13 14  1  0  0  0  0
 13 35  1  0  0  0  0
 13 36  1  0  0  0  0
 14 15  1  0  0  0  0
 14 18  2  0  0  0  0
 15 16  2  0  0  0  0
 16 17  1  0  0  0  0
 17 18  1  0  0  0  0
 17 37  1  0  0  0  0
 18 19  1  0  0  0  0
 19 20  1  0  0  0  0
 19 23  2  0  0  0  0
 20 21  2  0  0  0  0
 20 38  1  0  0  0  0
 21 22  1  0  0  0  0
 21 39  1  0  0  0  0
 22 23  1  0  0  0  0
 23 40  1  0  0  0  0
M  END
$$$$
