CHEMBL360769
 OpenBabel04072215363D

 48 50  0  0  0  0  0  0  0  0999 V2000
    6.5124   -0.2350    0.4533 C   0  0  0  0  0  0  0  0  0  0  0  0
    5.3219   -0.7902   -0.3121 C   0  0  0  0  0  0  0  0  0  0  0  0
    5.0964    0.0499   -1.4451 O   0  0  0  0  0  0  0  0  0  0  0  0
    4.3724    1.1819   -1.1963 C   0  0  0  0  0  0  0  0  0  0  0  0
    3.6567    1.3323   -0.2184 O   0  0  0  0  0  0  0  0  0  0  0  0
    4.6569    2.2321   -2.1801 C   0  0  0  0  0  0  0  0  0  0  0  0
    5.5210    2.0598   -3.2394 C   0  0  0  0  0  0  0  0  0  0  0  0
    5.6194    3.2244   -3.9242 N   0  0  0  0  0  0  0  0  0  0  0  0
    6.3925    3.3716   -5.0066 N   0  0  0  0  0  0  0  0  0  0  0  0
    6.3880    4.5660   -5.4903 C   0  0  0  0  0  0  0  0  0  0  0  0
    5.6934    5.6309   -5.0017 N   0  0  0  0  0  0  0  0  0  0  0  0
    4.9347    5.5029   -3.9483 C   0  0  0  0  0  0  0  0  0  0  0  0
    4.2321    6.6035   -3.5046 N   0  0  0  0  0  0  0  0  0  0  0  0
    4.7057    7.9335   -3.6223 C   0  0  0  0  0  0  0  0  0  0  0  0
    3.8016    8.9920   -3.7695 C   0  0  0  0  0  0  0  0  0  0  0  0
    4.2521   10.3172   -3.8353 C   0  0  0  0  0  0  0  0  0  0  0  0
    5.6169   10.6211   -3.7315 C   0  0  0  0  0  0  0  0  0  0  0  0
    6.0703   12.0485   -3.8221 C   0  0  0  0  0  0  0  0  0  0  0  0
    6.5117    9.5640   -3.5474 C   0  0  0  0  0  0  0  0  0  0  0  0
    7.8594    9.7464   -3.4111 O   0  0  0  0  0  0  0  0  0  0  0  0
    6.0644    8.2440   -3.4849 C   0  0  0  0  0  0  0  0  0  0  0  0
    4.8508    4.1952   -3.3339 C   0  0  0  0  0  0  0  0  0  0  0  0
    4.2152    3.6227   -2.2175 C   0  0  0  0  0  0  0  0  0  0  0  0
    3.3231    4.2058   -1.1276 C   0  0  0  0  0  0  0  0  0  0  0  0
    4.1454    4.7151    0.0603 C   0  0  0  0  0  0  0  0  0  0  0  0
    2.2804    5.2342   -1.5402 C   0  0  0  0  0  0  0  0  0  0  0  0
    6.7639   -0.8666    1.3092 H   0  0  0  0  0  0  0  0  0  0  0  0
    6.3090    0.7783    0.8092 H   0  0  0  0  0  0  0  0  0  0  0  0
    7.3841   -0.1643   -0.2077 H   0  0  0  0  0  0  0  0  0  0  0  0
    4.4314   -0.8709    0.3242 H   0  0  0  0  0  0  0  0  0  0  0  0
    5.5494   -1.7915   -0.6829 H   0  0  0  0  0  0  0  0  0  0  0  0
    6.1053    1.2016   -3.5482 H   0  0  0  0  0  0  0  0  0  0  0  0
    6.9983    4.7624   -6.3893 H   0  0  0  0  0  0  0  0  0  0  0  0
    3.2476    6.5329   -3.7337 H   0  0  0  0  0  0  0  0  0  0  0  0
    2.7346    8.8008   -3.8495 H   0  0  0  0  0  0  0  0  0  0  0  0
    3.5214   11.1128   -3.9671 H   0  0  0  0  0  0  0  0  0  0  0  0
    5.2263   12.7356   -3.9411 H   0  0  0  0  0  0  0  0  0  0  0  0
    6.7290   12.1792   -4.6871 H   0  0  0  0  0  0  0  0  0  0  0  0
    6.6051   12.3370   -2.9113 H   0  0  0  0  0  0  0  0  0  0  0  0
    8.0689   10.6885   -3.4946 H   0  0  0  0  0  0  0  0  0  0  0  0
    6.7956    7.4558   -3.3251 H   0  0  0  0  0  0  0  0  0  0  0  0
    2.7112    3.3780   -0.7508 H   0  0  0  0  0  0  0  0  0  0  0  0
    4.8313    5.5144   -0.2378 H   0  0  0  0  0  0  0  0  0  0  0  0
    4.7431    3.9087    0.5003 H   0  0  0  0  0  0  0  0  0  0  0  0
    3.4912    5.1027    0.8500 H   0  0  0  0  0  0  0  0  0  0  0  0
    2.7099    6.2230   -1.6950 H   0  0  0  0  0  0  0  0  0  0  0  0
    1.5474    5.3604   -0.7331 H   0  0  0  0  0  0  0  0  0  0  0  0
    1.7350    4.9218   -2.4355 H   0  0  0  0  0  0  0  0  0  0  0  0
  1  2  1  0  0  0  0
  1 27  1  0  0  0  0
  1 28  1  0  0  0  0
  1 29  1  0  0  0  0
  2  3  1  0  0  0  0
  2 30  1  0  0  0  0
  2 31  1  0  0  0  0
  3  4  1  0  0  0  0
  4  5  2  0  0  0  0
  4  6  1  0  0  0  0
  6  7  2  0  0  0  0
  6 23  1  0  0  0  0
  7  8  1  0  0  0  0
  7 32  1  0  0  0  0
  8  9  1  0  0  0  0
  8 22  1  0  0  0  0
  9 10  2  0  0  0  0
 10 11  1  0  0  0  0
 10 33  1  0  0  0  0
 11 12  2  0  0  0  0
 12 13  1  0  0  0  0
 12 22  1  0  0  0  0
 13 14  1  0  0  0  0
 13 34  1  0  0  0  0
 14 15  1  0  0  0  0
 14 21  2  0  0  0  0
 15 16  2  0  0  0  0
 15 35  1  0  0  0  0
 16 17  1  0  0  0  0
 16 36  1  0  0  0  0
 17 18  1  0  0  0  0
 17 19  2  0  0  0  0
 18 37  1  0  0  0  0
 18 38  1  0  0  0  0
 18 39  1  0  0  0  0
 19 20  1  0  0  0  0
 19 21  1  0  0  0  0
 20 40  1  0  0  0  0
 21 41  1  0  0  0  0
 22 23  2  0  0  0  0
 23 24  1  0  0  0  0
 24 25  1  0  0  0  0
 24 26  1  0  0  0  0
 24 42  1  0  0  0  0
 25 43  1  0  0  0  0
 25 44  1  0  0  0  0
 25 45  1  0  0  0  0
 26 46  1  0  0  0  0
 26 47  1  0  0  0  0
 26 48  1  0  0  0  0
M  END
$$$$
