CHEMBL202643
 OpenBabel04072215363D

 44 47  0  0  0  0  0  0  0  0999 V2000
    3.0905   -2.7943    0.6192 C   0  0  0  0  0  0  0  0  0  0  0  0
    1.7402   -3.4423    0.5155 C   0  0  0  0  0  0  0  0  0  0  0  0
    1.5579   -4.7738    0.8946 C   0  0  0  0  0  0  0  0  0  0  0  0
    0.3038   -5.3689    0.7689 C   0  0  0  0  0  0  0  0  0  0  0  0
   -0.7879   -4.6329    0.2935 C   0  0  0  0  0  0  0  0  0  0  0  0
   -0.6432   -3.2866   -0.0411 C   0  0  0  0  0  0  0  0  0  0  0  0
   -1.7100   -2.4508   -0.4593 N   0  0  0  0  0  0  0  0  0  0  0  0
   -3.0507   -2.7845   -0.5975 C   0  0  0  0  0  0  0  0  0  0  0  0
   -3.5523   -3.8574   -0.2814 O   0  0  0  0  0  0  0  0  0  0  0  0
   -3.9300   -1.7287   -1.2246 C   0  0  0  0  0  0  0  0  0  0  0  0
   -3.3455   -0.8898   -2.2005 C   0  0  0  0  0  0  0  0  0  0  0  0
   -4.1040    0.0423   -2.9107 C   0  0  0  0  0  0  0  0  0  0  0  0
   -5.4662    0.1440   -2.6755 C   0  0  0  0  0  0  0  0  0  0  0  0
   -6.0647   -0.6749   -1.7193 C   0  0  0  0  0  0  0  0  0  0  0  0
   -5.3213   -1.6240   -0.9770 C   0  0  0  0  0  0  0  0  0  0  0  0
   -6.1076   -2.4828   -0.0019 C   0  0  0  0  0  0  0  0  0  0  0  0
   -6.3137   -1.8387    1.3178 N   0  0  0  0  0  0  0  0  0  0  0  0
   -5.4766   -2.1578    2.3959 C   0  0  0  0  0  0  0  0  0  0  0  0
   -5.7179   -1.8487    3.6834 C   0  0  0  0  0  0  0  0  0  0  0  0
   -6.9695   -1.1315    3.9476 C   0  0  0  0  0  0  0  0  0  0  0  0
   -7.5143   -0.7388    5.0592 N   0  0  0  0  0  0  0  0  0  0  0  0
   -8.6977   -0.1464    4.6314 C   0  0  0  0  0  0  0  0  0  0  0  0
   -8.9349   -0.1294    3.3475 N   0  0  0  0  0  0  0  0  0  0  0  0
   -7.8446   -0.7662    2.8333 C   0  0  0  0  0  0  0  0  0  0  0  0
   -7.4912   -1.1283    1.5989 C   0  0  0  0  0  0  0  0  0  0  0  0
    0.6361   -2.7103    0.0431 C   0  0  0  0  0  0  0  0  0  0  0  0
    3.8366   -3.4816    1.0331 H   0  0  0  0  0  0  0  0  0  0  0  0
    3.0403   -1.9221    1.2786 H   0  0  0  0  0  0  0  0  0  0  0  0
    3.4385   -2.4801   -0.3700 H   0  0  0  0  0  0  0  0  0  0  0  0
    2.3873   -5.3578    1.2879 H   0  0  0  0  0  0  0  0  0  0  0  0
    0.1689   -6.4102    1.0515 H   0  0  0  0  0  0  0  0  0  0  0  0
   -1.7413   -5.1435    0.2069 H   0  0  0  0  0  0  0  0  0  0  0  0
   -1.4526   -1.4873   -0.6254 H   0  0  0  0  0  0  0  0  0  0  0  0
   -2.2962   -0.9816   -2.4703 H   0  0  0  0  0  0  0  0  0  0  0  0
   -3.6346    0.6671   -3.6670 H   0  0  0  0  0  0  0  0  0  0  0  0
   -6.0697    0.8456   -3.2468 H   0  0  0  0  0  0  0  0  0  0  0  0
   -7.1403   -0.5875   -1.5702 H   0  0  0  0  0  0  0  0  0  0  0  0
   -5.6917   -3.4835    0.1232 H   0  0  0  0  0  0  0  0  0  0  0  0
   -7.0915   -2.6868   -0.4509 H   0  0  0  0  0  0  0  0  0  0  0  0
   -4.5903   -2.7231    2.1212 H   0  0  0  0  0  0  0  0  0  0  0  0
   -5.0759   -2.1221    4.5063 H   0  0  0  0  0  0  0  0  0  0  0  0
   -9.3979    0.2845    5.3675 H   0  0  0  0  0  0  0  0  0  0  0  0
   -8.1281   -0.9080    0.7475 H   0  0  0  0  0  0  0  0  0  0  0  0
    0.7902   -1.6756   -0.2540 H   0  0  0  0  0  0  0  0  0  0  0  0
  1  2  1  0  0  0  0
  1 27  1  0  0  0  0
  1 28  1  0  0  0  0
  1 29  1  0  0  0  0
  2  3  1  0  0  0  0
  2 26  2  0  0  0  0
  3  4  2  0  0  0  0
  3 30  1  0  0  0  0
  4  5  1  0  0  0  0
  4 31  1  0  0  0  0
  5  6  2  0  0  0  0
  5 32  1  0  0  0  0
  6  7  1  0  0  0  0
  6 26  1  0  0  0  0
  7  8  1  0  0  0  0
  7 33  1  0  0  0  0
  8  9  2  0  0  0  0
  8 10  1  0  0  0  0
 10 11  1  0  0  0  0
 10 15  2  0  0  0  0
 11 12  2  0  0  0  0
 11 34  1  0  0  0  0
 12 13  1  0  0  0  0
 12 35  1  0  0  0  0
 13 14  2  0  0  0  0
 13 36  1  0  0  0  0
 14 15  1  0  0  0  0
 14 37  1  0  0  0  0
 15 16  1  0  0  0  0
 16 17  1  0  0  0  0
 16 38  1  0  0  0  0
 16 39  1  0  0  0  0
 17 18  1  0  0  0  0
 17 25  1  0  0  0  0
 18 19  2  0  0  0  0
 18 40  1  0  0  0  0
 19 20  1  0  0  0  0
 19 41  1  0  0  0  0
 20 21  2  0  0  0  0
 20 24  1  0  0  0  0
 21 22  1  0  0  0  0
 22 23  2  0  0  0  0
 22 42  1  0  0  0  0
 23 24  1  0  0  0  0
 24 25  2  0  0  0  0
 25 43  1  0  0  0  0
 26 44  1  0  0  0  0
M  END
$$$$
