CHEMBL435702
 OpenBabel04072215383D

 59 63  0  0  0  0  0  0  0  0999 V2000
    1.0438    0.0548    0.1238 O   0  0  0  0  0  0  0  0  0  0  0  0
    2.2638   -0.0113   -0.0189 C   0  0  0  0  0  0  0  0  0  0  0  0
    3.0445    1.2467   -0.1310 C   0  0  0  0  0  0  0  0  0  0  0  0
    4.3769    1.2228   -0.3191 C   0  0  0  0  0  0  0  0  0  0  0  0
    5.1243    2.4795   -0.3914 C   0  0  0  0  0  0  0  0  0  0  0  0
    5.5772    3.0822   -1.6606 C   0  0  0  0  0  0  0  0  0  0  0  0
    6.1136    4.3296   -1.6496 C   0  0  0  0  0  0  0  0  0  0  0  0
    6.4073    4.9155   -0.4040 N   0  0  0  0  0  0  0  0  0  0  0  0
    7.2608    5.9761   -0.0575 C   0  0  0  0  0  0  0  0  0  0  0  0
    6.8577    7.1681    0.7802 C   0  0  0  0  0  0  0  0  0  0  0  0
    7.8553    7.7966    1.5501 C   0  0  0  0  0  0  0  0  0  0  0  0
    7.5421    8.7140    2.5576 C   0  0  0  0  0  0  0  0  0  0  0  0
    6.2203    9.0548    2.7949 C   0  0  0  0  0  0  0  0  0  0  0  0
    5.2136    8.4836    2.0026 C   0  0  0  0  0  0  0  0  0  0  0  0
    5.5344    7.5441    1.0020 C   0  0  0  0  0  0  0  0  0  0  0  0
    8.2934    5.1445    0.3941 C   0  0  0  0  0  0  0  0  0  0  0  0
    7.7278    4.1159    1.1255 N   0  0  0  0  0  0  0  0  0  0  0  0
    6.4733    4.0808    0.7084 C   0  0  0  0  0  0  0  0  0  0  0  0
    5.5171    3.0376    0.7754 C   0  0  0  0  0  0  0  0  0  0  0  0
    5.0447   -0.0673   -0.3870 C   0  0  0  0  0  0  0  0  0  0  0  0
    4.3654   -1.2044   -0.2703 C   0  0  0  0  0  0  0  0  0  0  0  0
    2.9889   -1.1973   -0.0969 N   0  0  0  0  0  0  0  0  0  0  0  0
    2.2758   -2.4742   -0.0551 C   0  0  0  0  0  0  0  0  0  0  0  0
    1.7331   -2.8972   -1.4243 C   0  0  0  0  0  0  0  0  0  0  0  0
    2.8064   -3.1939   -2.4834 C   0  0  0  0  0  0  0  0  0  0  0  0
    3.8262   -4.1867   -2.0908 N   0  0  0  0  0  0  0  0  0  0  0  0
    3.2418   -5.5179   -1.8609 C   0  0  0  0  0  0  0  0  0  0  0  0
    4.3069   -6.5292   -1.4315 C   0  0  0  0  0  0  0  0  0  0  0  0
    5.4336   -6.6158   -2.4531 C   0  0  0  0  0  0  0  0  0  0  0  0
    5.9891   -5.2284   -2.7393 C   0  0  0  0  0  0  0  0  0  0  0  0
    4.8764   -4.2528   -3.1245 C   0  0  0  0  0  0  0  0  0  0  0  0
    2.4756    2.1624   -0.0459 H   0  0  0  0  0  0  0  0  0  0  0  0
    5.5001    2.4981   -2.5713 H   0  0  0  0  0  0  0  0  0  0  0  0
    6.4918    4.8210   -2.5400 H   0  0  0  0  0  0  0  0  0  0  0  0
    8.9035    7.5225    1.4356 H   0  0  0  0  0  0  0  0  0  0  0  0
    8.3341    9.1236    3.1792 H   0  0  0  0  0  0  0  0  0  0  0  0
    5.9695    9.7374    3.5961 H   0  0  0  0  0  0  0  0  0  0  0  0
    4.1767    8.7401    2.2034 H   0  0  0  0  0  0  0  0  0  0  0  0
    4.7129    7.0847    0.4592 H   0  0  0  0  0  0  0  0  0  0  0  0
    9.3303    5.4036    0.5440 H   0  0  0  0  0  0  0  0  0  0  0  0
    5.2327    2.6563    1.7512 H   0  0  0  0  0  0  0  0  0  0  0  0
    6.1252   -0.0832   -0.5212 H   0  0  0  0  0  0  0  0  0  0  0  0
    4.8573   -2.1705   -0.3191 H   0  0  0  0  0  0  0  0  0  0  0  0
    1.4294   -2.3654    0.6314 H   0  0  0  0  0  0  0  0  0  0  0  0
    2.9242   -3.2440    0.3762 H   0  0  0  0  0  0  0  0  0  0  0  0
    1.0811   -2.1060   -1.8159 H   0  0  0  0  0  0  0  0  0  0  0  0
    1.0913   -3.7757   -1.2918 H   0  0  0  0  0  0  0  0  0  0  0  0
    3.3058   -2.2462   -2.7227 H   0  0  0  0  0  0  0  0  0  0  0  0
    2.3060   -3.5111   -3.4076 H   0  0  0  0  0  0  0  0  0  0  0  0
    2.7301   -5.8792   -2.7627 H   0  0  0  0  0  0  0  0  0  0  0  0
    2.4988   -5.4754   -1.0574 H   0  0  0  0  0  0  0  0  0  0  0  0
    3.8481   -7.5162   -1.3026 H   0  0  0  0  0  0  0  0  0  0  0  0
    4.7182   -6.2377   -0.4569 H   0  0  0  0  0  0  0  0  0  0  0  0
    5.0544   -7.0603   -3.3807 H   0  0  0  0  0  0  0  0  0  0  0  0
    6.2286   -7.2728   -2.0816 H   0  0  0  0  0  0  0  0  0  0  0  0
    6.7271   -5.2867   -3.5492 H   0  0  0  0  0  0  0  0  0  0  0  0
    6.5173   -4.8534   -1.8532 H   0  0  0  0  0  0  0  0  0  0  0  0
    4.4494   -4.5484   -4.0920 H   0  0  0  0  0  0  0  0  0  0  0  0
    5.3286   -3.2623   -3.2575 H   0  0  0  0  0  0  0  0  0  0  0  0
  1  2  2  0  0  0  0
  2  3  1  0  0  0  0
  2 22  1  0  0  0  0
  3  4  2  0  0  0  0
  3 32  1  0  0  0  0
  4  5  1  0  0  0  0
  4 20  1  0  0  0  0
  5  6  1  0  0  0  0
  5 19  2  0  0  0  0
  6  7  2  0  0  0  0
  6 33  1  0  0  0  0
  7  8  1  0  0  0  0
  7 34  1  0  0  0  0
  8  9  1  0  0  0  0
  8 18  1  0  0  0  0
  9 10  1  0  0  0  0
  9 16  2  0  0  0  0
 10 11  1  0  0  0  0
 10 15  2  0  0  0  0
 11 12  2  0  0  0  0
 11 35  1  0  0  0  0
 12 13  1  0  0  0  0
 12 36  1  0  0  0  0
 13 14  2  0  0  0  0
 13 37  1  0  0  0  0
 14 15  1  0  0  0  0
 14 38  1  0  0  0  0
 15 39  1  0  0  0  0
 16 17  1  0  0  0  0
 16 40  1  0  0  0  0
 17 18  2  0  0  0  0
 18 19  1  0  0  0  0
 19 41  1  0  0  0  0
 20 21  2  0  0  0  0
 20 42  1  0  0  0  0
 21 22  1  0  0  0  0
 21 43  1  0  0  0  0
 22 23  1  0  0  0  0
 23 24  1  0  0  0  0
 23 44  1  0  0  0  0
 23 45  1  0  0  0  0
 24 25  1  0  0  0  0
 24 46  1  0  0  0  0
 24 47  1  0  0  0  0
 25 26  1  0  0  0  0
 25 48  1  0  0  0  0
 25 49  1  0  0  0  0
 26 27  1  0  0  0  0
 26 31  1  0  0  0  0
 27 28  1  0  0  0  0
 27 50  1  0  0  0  0
 27 51  1  0  0  0  0
 28 29  1  0  0  0  0
 28 52  1  0  0  0  0
 28 53  1  0  0  0  0
 29 30  1  0  0  0  0
 29 54  1  0  0  0  0
 29 55  1  0  0  0  0
 30 31  1  0  0  0  0
 30 56  1  0  0  0  0
 30 57  1  0  0  0  0
 31 58  1  0  0  0  0
 31 59  1  0  0  0  0
M  END
$$$$
