CHEMBL223236
 OpenBabel04072215363D

 56 59  0  0  0  0  0  0  0  0999 V2000
    3.4188   -3.4519   -5.0061 C   0  0  0  0  0  0  0  0  0  0  0  0
    4.6677   -2.9442   -5.4602 O   0  0  0  0  0  0  0  0  0  0  0  0
    4.6504   -1.5159   -5.5455 C   0  0  0  0  0  0  0  0  0  0  0  0
    6.0313   -1.0280   -5.9595 C   0  0  0  0  0  0  0  0  0  0  0  0
    6.1278    0.4155   -6.0422 N   0  0  0  0  0  0  0  0  0  0  0  0
    6.3763    0.9724   -7.2341 N   0  0  0  0  0  0  0  0  0  0  0  0
    6.4994    2.2671   -6.9687 C   0  0  0  0  0  0  0  0  0  0  0  0
    6.7992    3.1226   -7.9569 N   0  0  0  0  0  0  0  0  0  0  0  0
    6.2726    2.5772   -5.5848 C   0  0  0  0  0  0  0  0  0  0  0  0
    6.2280    3.7343   -4.7377 C   0  0  0  0  0  0  0  0  0  0  0  0
    6.4421    5.1018   -5.2538 C   0  0  0  0  0  0  0  0  0  0  0  0
    5.8592    5.5202   -6.4453 C   0  0  0  0  0  0  0  0  0  0  0  0
    6.1507    6.7689   -7.0009 C   0  0  0  0  0  0  0  0  0  0  0  0
    6.9331    7.7000   -6.3139 C   0  0  0  0  0  0  0  0  0  0  0  0
    7.2243    8.9812   -6.8427 N   0  0  0  0  0  0  0  0  0  0  0  0
    6.5214    9.5614   -7.8802 C   0  0  0  0  0  0  0  0  0  0  0  0
    5.5031    9.0921   -8.3750 O   0  0  0  0  0  0  0  0  0  0  0  0
    7.1051   10.7373   -8.3321 N   0  0  0  0  0  0  0  0  0  0  0  0
    6.4679   11.4099   -9.4091 C   0  0  0  0  0  0  0  0  0  0  0  0
    5.0871   11.6336   -9.3972 C   0  0  0  0  0  0  0  0  0  0  0  0
    4.4230   12.0948  -10.5385 C   0  0  0  0  0  0  0  0  0  0  0  0
    2.9278   12.2150  -10.5456 C   0  0  0  0  0  0  0  0  0  0  0  0
    5.1682   12.3633  -11.6920 C   0  0  0  0  0  0  0  0  0  0  0  0
    6.5584   12.2023  -11.6914 C   0  0  0  0  0  0  0  0  0  0  0  0
    7.2006   11.7429  -10.5454 C   0  0  0  0  0  0  0  0  0  0  0  0
    8.5254   11.5267  -10.5734 F   0  0  0  0  0  0  0  0  0  0  0  0
    7.4542    7.3367   -5.0764 C   0  0  0  0  0  0  0  0  0  0  0  0
    7.2200    6.0478   -4.5565 C   0  0  0  0  0  0  0  0  0  0  0  0
    5.9489    3.5292   -3.3668 C   0  0  0  0  0  0  0  0  0  0  0  0
    5.7473    2.2621   -2.8290 C   0  0  0  0  0  0  0  0  0  0  0  0
    5.8060    1.1347   -3.6397 C   0  0  0  0  0  0  0  0  0  0  0  0
    6.0499    1.3177   -5.0081 C   0  0  0  0  0  0  0  0  0  0  0  0
    3.4828   -4.5424   -4.9670 H   0  0  0  0  0  0  0  0  0  0  0  0
    2.6171   -3.1703   -5.6956 H   0  0  0  0  0  0  0  0  0  0  0  0
    3.1996   -3.0790   -4.0008 H   0  0  0  0  0  0  0  0  0  0  0  0
    4.3706   -1.1145   -4.5668 H   0  0  0  0  0  0  0  0  0  0  0  0
    3.8953   -1.1986   -6.2733 H   0  0  0  0  0  0  0  0  0  0  0  0
    6.2941   -1.4496   -6.9371 H   0  0  0  0  0  0  0  0  0  0  0  0
    6.8026   -1.3710   -5.2599 H   0  0  0  0  0  0  0  0  0  0  0  0
    7.0203    2.7204   -8.8610 H   0  0  0  0  0  0  0  0  0  0  0  0
    7.2663    4.0015   -7.7713 H   0  0  0  0  0  0  0  0  0  0  0  0
    5.1924    4.8667   -7.0034 H   0  0  0  0  0  0  0  0  0  0  0  0
    5.7516    6.9640   -7.9900 H   0  0  0  0  0  0  0  0  0  0  0  0
    7.8076    9.5954   -6.2958 H   0  0  0  0  0  0  0  0  0  0  0  0
    8.1141   10.7009   -8.3883 H   0  0  0  0  0  0  0  0  0  0  0  0
    4.5087   11.3847   -8.5063 H   0  0  0  0  0  0  0  0  0  0  0  0
    2.5052   12.0435   -9.5488 H   0  0  0  0  0  0  0  0  0  0  0  0
    2.4973   11.4745  -11.2247 H   0  0  0  0  0  0  0  0  0  0  0  0
    2.6270   13.2167  -10.8670 H   0  0  0  0  0  0  0  0  0  0  0  0
    4.6659   12.6783  -12.6040 H   0  0  0  0  0  0  0  0  0  0  0  0
    7.1339   12.3878  -12.5915 H   0  0  0  0  0  0  0  0  0  0  0  0
    8.0398    8.0380   -4.4875 H   0  0  0  0  0  0  0  0  0  0  0  0
    7.6552    5.7982   -3.5929 H   0  0  0  0  0  0  0  0  0  0  0  0
    5.8748    4.3840   -2.6951 H   0  0  0  0  0  0  0  0  0  0  0  0
    5.5359    2.1517   -1.7684 H   0  0  0  0  0  0  0  0  0  0  0  0
    5.6517    0.1501   -3.2113 H   0  0  0  0  0  0  0  0  0  0  0  0
  1  2  1  0  0  0  0
  1 33  1  0  0  0  0
  1 34  1  0  0  0  0
  1 35  1  0  0  0  0
  2  3  1  0  0  0  0
  3  4  1  0  0  0  0
  3 36  1  0  0  0  0
  3 37  1  0  0  0  0
  4  5  1  0  0  0  0
  4 38  1  0  0  0  0
  4 39  1  0  0  0  0
  5  6  1  0  0  0  0
  5 32  1  0  0  0  0
  6  7  2  0  0  0  0
  7  8  1  0  0  0  0
  7  9  1  0  0  0  0
  8 40  1  0  0  0  0
  8 41  1  0  0  0  0
  9 10  1  0  0  0  0
  9 32  2  0  0  0  0
 10 11  1  0  0  0  0
 10 29  2  0  0  0  0
 11 12  1  0  0  0  0
 11 28  2  0  0  0  0
 12 13  2  0  0  0  0
 12 42  1  0  0  0  0
 13 14  1  0  0  0  0
 13 43  1  0  0  0  0
 14 15  1  0  0  0  0
 14 27  2  0  0  0  0
 15 16  1  0  0  0  0
 15 44  1  0  0  0  0
 16 17  2  0  0  0  0
 16 18  1  0  0  0  0
 18 19  1  0  0  0  0
 18 45  1  0  0  0  0
 19 20  1  0  0  0  0
 19 25  2  0  0  0  0
 20 21  2  0  0  0  0
 20 46  1  0  0  0  0
 21 22  1  0  0  0  0
 21 23  1  0  0  0  0
 22 47  1  0  0  0  0
 22 48  1  0  0  0  0
 22 49  1  0  0  0  0
 23 24  2  0  0  0  0
 23 50  1  0  0  0  0
 24 25  1  0  0  0  0
 24 51  1  0  0  0  0
 25 26  1  0  0  0  0
 27 28  1  0  0  0  0
 27 52  1  0  0  0  0
 28 53  1  0  0  0  0
 29 30  1  0  0  0  0
 29 54  1  0  0  0  0
 30 31  2  0  0  0  0
 30 55  1  0  0  0  0
 31 32  1  0  0  0  0
 31 56  1  0  0  0  0
M  END
$$$$
