CHEMBL3321899
 OpenBabel04072215363D

 41 45  0  0  0  0  0  0  0  0999 V2000
    1.3412   -0.3781    1.9598 F   0  0  0  0  0  0  0  0  0  0  0  0
    0.4246   -0.1764    0.9989 C   0  0  0  0  0  0  0  0  0  0  0  0
   -0.2533    1.0412    0.9829 C   0  0  0  0  0  0  0  0  0  0  0  0
   -1.2115    1.2869    0.0019 C   0  0  0  0  0  0  0  0  0  0  0  0
   -1.4871    0.3127   -0.9574 C   0  0  0  0  0  0  0  0  0  0  0  0
   -0.8010   -0.9049   -0.9363 C   0  0  0  0  0  0  0  0  0  0  0  0
    0.1671   -1.1668    0.0447 C   0  0  0  0  0  0  0  0  0  0  0  0
    0.8763   -2.4470    0.0351 C   0  0  0  0  0  0  0  0  0  0  0  0
    0.7266   -3.4035   -0.8631 N   0  0  0  0  0  0  0  0  0  0  0  0
    1.5879   -4.4036   -0.4985 C   0  0  0  0  0  0  0  0  0  0  0  0
    1.8382   -5.6254   -1.1227 C   0  0  0  0  0  0  0  0  0  0  0  0
    2.7828   -6.4786   -0.5439 C   0  0  0  0  0  0  0  0  0  0  0  0
    3.4504   -6.1631    0.6560 C   0  0  0  0  0  0  0  0  0  0  0  0
    4.4317   -7.0398    1.1815 N   0  0  0  0  0  0  0  0  0  0  0  0
    4.4338   -8.4441    0.9943 C   0  0  0  0  0  0  0  0  0  0  0  0
    3.2416   -9.0649    0.8967 N   0  0  0  0  0  0  0  0  0  0  0  0
    3.2566  -10.3654    0.6098 C   0  0  0  0  0  0  0  0  0  0  0  0
    4.3457  -11.1095    0.4047 N   0  0  0  0  0  0  0  0  0  0  0  0
    5.5240  -10.4915    0.5283 C   0  0  0  0  0  0  0  0  0  0  0  0
    6.6746  -11.2275    0.2797 C   0  0  0  0  0  0  0  0  0  0  0  0
    7.9484  -10.6642    0.3832 C   0  0  0  0  0  0  0  0  0  0  0  0
    8.0844   -9.3321    0.7513 C   0  0  0  0  0  0  0  0  0  0  0  0
    6.9437   -8.5648    0.9865 C   0  0  0  0  0  0  0  0  0  0  0  0
    5.6491   -9.1372    0.8699 C   0  0  0  0  0  0  0  0  0  0  0  0
    3.2287   -4.9129    1.2576 C   0  0  0  0  0  0  0  0  0  0  0  0
    2.2823   -4.0725    0.6571 C   0  0  0  0  0  0  0  0  0  0  0  0
    1.8128   -2.8245    0.9733 N   0  0  0  0  0  0  0  0  0  0  0  0
   -0.0275    1.7901    1.7353 H   0  0  0  0  0  0  0  0  0  0  0  0
   -1.7431    2.2334   -0.0171 H   0  0  0  0  0  0  0  0  0  0  0  0
   -2.2350    0.4975   -1.7254 H   0  0  0  0  0  0  0  0  0  0  0  0
   -1.0252   -1.6576   -1.6926 H   0  0  0  0  0  0  0  0  0  0  0  0
    1.3194   -5.8996   -2.0336 H   0  0  0  0  0  0  0  0  0  0  0  0
    2.9897   -7.4169   -1.0535 H   0  0  0  0  0  0  0  0  0  0  0  0
    4.7236   -6.8142    2.1254 H   0  0  0  0  0  0  0  0  0  0  0  0
    2.2947  -10.8572    0.5231 H   0  0  0  0  0  0  0  0  0  0  0  0
    6.5758  -12.2698   -0.0191 H   0  0  0  0  0  0  0  0  0  0  0  0
    8.8259  -11.2692    0.1695 H   0  0  0  0  0  0  0  0  0  0  0  0
    9.0729   -8.8879    0.8375 H   0  0  0  0  0  0  0  0  0  0  0  0
    7.0597   -7.5152    1.2443 H   0  0  0  0  0  0  0  0  0  0  0  0
    3.7563   -4.6098    2.1548 H   0  0  0  0  0  0  0  0  0  0  0  0
    2.0994   -2.2583    1.7589 H   0  0  0  0  0  0  0  0  0  0  0  0
  1  2  1  0  0  0  0
  2  3  1  0  0  0  0
  2  7  2  0  0  0  0
  3  4  2  0  0  0  0
  3 28  1  0  0  0  0
  4  5  1  0  0  0  0
  4 29  1  0  0  0  0
  5  6  2  0  0  0  0
  5 30  1  0  0  0  0
  6  7  1  0  0  0  0
  6 31  1  0  0  0  0
  7  8  1  0  0  0  0
  8  9  2  0  0  0  0
  8 27  1  0  0  0  0
  9 10  1  0  0  0  0
 10 11  1  0  0  0  0
 10 26  2  0  0  0  0
 11 12  2  0  0  0  0
 11 32  1  0  0  0  0
 12 13  1  0  0  0  0
 12 33  1  0  0  0  0
 13 14  1  0  0  0  0
 13 25  2  0  0  0  0
 14 15  1  0  0  0  0
 14 34  1  0  0  0  0
 15 16  1  0  0  0  0
 15 24  2  0  0  0  0
 16 17  2  0  0  0  0
 17 18  1  0  0  0  0
 17 35  1  0  0  0  0
 18 19  2  0  0  0  0
 19 20  1  0  0  0  0
 19 24  1  0  0  0  0
 20 21  2  0  0  0  0
 20 36  1  0  0  0  0
 21 22  1  0  0  0  0
 21 37  1  0  0  0  0
 22 23  2  0  0  0  0
 22 38  1  0  0  0  0
 23 24  1  0  0  0  0
 23 39  1  0  0  0  0
 25 26  1  0  0  0  0
 25 40  1  0  0  0  0
 26 27  1  0  0  0  0
 27 41  1  0  0  0  0
M  END
$$$$
