CHEMBL387312
 OpenBabel04072215373D

 49 52  0  0  0  0  0  0  0  0999 V2000
    2.4142   -0.4206    1.4773 C   0  0  0  0  0  0  0  0  0  0  0  0
    0.9201   -0.2944    1.4492 C   0  0  0  0  0  0  0  0  0  0  0  0
    0.3191    0.9050    1.8349 C   0  0  0  0  0  0  0  0  0  0  0  0
   -1.0601    1.0293    1.8212 C   0  0  0  0  0  0  0  0  0  0  0  0
   -1.8498   -0.0499    1.4149 C   0  0  0  0  0  0  0  0  0  0  0  0
   -1.2745   -1.2532    1.0036 C   0  0  0  0  0  0  0  0  0  0  0  0
   -2.0527   -2.3743    0.5754 N   0  0  0  0  0  0  0  0  0  0  0  0
   -3.3957   -2.3449    0.2978 C   0  0  0  0  0  0  0  0  0  0  0  0
   -4.0481   -1.3033    0.2334 O   0  0  0  0  0  0  0  0  0  0  0  0
   -3.9503   -3.5895    0.1275 N   0  0  0  0  0  0  0  0  0  0  0  0
   -5.3577   -3.7245   -0.0647 C   0  0  0  0  0  0  0  0  0  0  0  0
   -6.0643   -2.8330   -0.8759 C   0  0  0  0  0  0  0  0  0  0  0  0
   -7.4642   -2.8439   -0.9031 C   0  0  0  0  0  0  0  0  0  0  0  0
   -8.2122   -3.7717   -0.1638 C   0  0  0  0  0  0  0  0  0  0  0  0
   -9.6924   -3.8258   -0.2738 C   0  0  0  0  0  0  0  0  0  0  0  0
  -10.3412   -3.4824   -1.4917 C   0  0  0  0  0  0  0  0  0  0  0  0
  -11.7087   -3.6569   -1.6990 C   0  0  0  0  0  0  0  0  0  0  0  0
  -12.4949   -4.2732   -0.7313 C   0  0  0  0  0  0  0  0  0  0  0  0
  -11.8779   -4.6064    0.4783 C   0  0  0  0  0  0  0  0  0  0  0  0
  -10.5396   -4.3124    0.7658 C   0  0  0  0  0  0  0  0  0  0  0  0
  -10.4886   -4.5100    2.1807 C   0  0  0  0  0  0  0  0  0  0  0  0
   -9.6265   -3.9158    3.0315 N   0  0  0  0  0  0  0  0  0  0  0  0
  -11.5436   -5.1545    2.6607 N   0  0  0  0  0  0  0  0  0  0  0  0
  -12.3717   -5.2127    1.6078 N   0  0  0  0  0  0  0  0  0  0  0  0
  -13.7097   -5.7217    1.8038 C   0  0  0  0  0  0  0  0  0  0  0  0
   -7.4750   -4.7131    0.5838 C   0  0  0  0  0  0  0  0  0  0  0  0
   -6.0690   -4.6991    0.6290 C   0  0  0  0  0  0  0  0  0  0  0  0
    0.1200   -1.3731    1.0287 C   0  0  0  0  0  0  0  0  0  0  0  0
    2.8910    0.4838    1.8606 H   0  0  0  0  0  0  0  0  0  0  0  0
    2.8017   -0.6094    0.4716 H   0  0  0  0  0  0  0  0  0  0  0  0
    2.7146   -1.2531    2.1403 H   0  0  0  0  0  0  0  0  0  0  0  0
    0.9195    1.7550    2.1557 H   0  0  0  0  0  0  0  0  0  0  0  0
   -1.5378    1.9578    2.1238 H   0  0  0  0  0  0  0  0  0  0  0  0
   -2.9284    0.0986    1.4523 H   0  0  0  0  0  0  0  0  0  0  0  0
   -1.5456   -3.1994    0.2885 H   0  0  0  0  0  0  0  0  0  0  0  0
   -3.5084   -4.3312    0.6551 H   0  0  0  0  0  0  0  0  0  0  0  0
   -5.5354   -2.0886   -1.4742 H   0  0  0  0  0  0  0  0  0  0  0  0
   -7.9472   -2.0911   -1.5214 H   0  0  0  0  0  0  0  0  0  0  0  0
   -9.7625   -3.0804   -2.3205 H   0  0  0  0  0  0  0  0  0  0  0  0
  -12.1515   -3.3424   -2.6372 H   0  0  0  0  0  0  0  0  0  0  0  0
  -13.5524   -4.4447   -0.9045 H   0  0  0  0  0  0  0  0  0  0  0  0
  -10.1790   -3.3316    3.6618 H   0  0  0  0  0  0  0  0  0  0  0  0
   -9.2339   -4.5771    3.6928 H   0  0  0  0  0  0  0  0  0  0  0  0
  -13.7520   -6.2783    2.7450 H   0  0  0  0  0  0  0  0  0  0  0  0
  -13.9677   -6.3794    0.9764 H   0  0  0  0  0  0  0  0  0  0  0  0
  -14.3865   -4.8631    1.8486 H   0  0  0  0  0  0  0  0  0  0  0  0
   -7.9909   -5.4751    1.1564 H   0  0  0  0  0  0  0  0  0  0  0  0
   -5.5564   -5.4194    1.2584 H   0  0  0  0  0  0  0  0  0  0  0  0
    0.5976   -2.2968    0.7243 H   0  0  0  0  0  0  0  0  0  0  0  0
  1  2  1  0  0  0  0
  1 29  1  0  0  0  0
  1 30  1  0  0  0  0
  1 31  1  0  0  0  0
  2  3  1  0  0  0  0
  2 28  2  0  0  0  0
  3  4  2  0  0  0  0
  3 32  1  0  0  0  0
  4  5  1  0  0  0  0
  4 33  1  0  0  0  0
  5  6  2  0  0  0  0
  5 34  1  0  0  0  0
  6  7  1  0  0  0  0
  6 28  1  0  0  0  0
  7  8  1  0  0  0  0
  7 35  1  0  0  0  0
  8  9  2  0  0  0  0
  8 10  1  0  0  0  0
 10 11  1  0  0  0  0
 10 36  1  0  0  0  0
 11 12  1  0  0  0  0
 11 27  2  0  0  0  0
 12 13  2  0  0  0  0
 12 37  1  0  0  0  0
 13 14  1  0  0  0  0
 13 38  1  0  0  0  0
 14 15  1  0  0  0  0
 14 26  2  0  0  0  0
 15 16  1  0  0  0  0
 15 20  2  0  0  0  0
 16 17  2  0  0  0  0
 16 39  1  0  0  0  0
 17 18  1  0  0  0  0
 17 40  1  0  0  0  0
 18 19  2  0  0  0  0
 18 41  1  0  0  0  0
 19 20  1  0  0  0  0
 19 24  1  0  0  0  0
 20 21  1  0  0  0  0
 21 22  1  0  0  0  0
 21 23  2  0  0  0  0
 22 42  1  0  0  0  0
 22 43  1  0  0  0  0
 23 24  1  0  0  0  0
 24 25  1  0  0  0  0
 25 44  1  0  0  0  0
 25 45  1  0  0  0  0
 25 46  1  0  0  0  0
 26 27  1  0  0  0  0
 26 47  1  0  0  0  0
 27 48  1  0  0  0  0
 28 49  1  0  0  0  0
M  END
$$$$
