CHEMBL266188
 OpenBabel04072215363D

 68 73  0  0  0  0  0  0  0  0999 V2000
   -4.0716   -4.8667   -1.4967 C   0  0  0  0  0  0  0  0  0  0  0  0
   -2.8339   -4.5239   -0.9495 C   0  0  0  0  0  0  0  0  0  0  0  0
   -2.4220   -3.1840   -0.8524 C   0  0  0  0  0  0  0  0  0  0  0  0
   -1.2091   -2.8411   -0.1921 N   0  0  0  0  0  0  0  0  0  0  0  0
   -0.0476   -3.6525   -0.1107 C   0  0  0  0  0  0  0  0  0  0  0  0
    0.2128   -4.4451   -1.1715 N   0  0  0  0  0  0  0  0  0  0  0  0
    1.3619   -5.1171   -1.1618 C   0  0  0  0  0  0  0  0  0  0  0  0
    2.2863   -5.0690   -0.2021 N   0  0  0  0  0  0  0  0  0  0  0  0
    2.0222   -4.2947    0.8538 C   0  0  0  0  0  0  0  0  0  0  0  0
    2.9832   -4.2694    1.8610 C   0  0  0  0  0  0  0  0  0  0  0  0
    2.8007   -3.5397    3.0290 C   0  0  0  0  0  0  0  0  0  0  0  0
    3.7916   -3.6572    3.9740 O   0  0  0  0  0  0  0  0  0  0  0  0
    3.3895   -3.3074    5.3062 C   0  0  0  0  0  0  0  0  0  0  0  0
    4.3562   -3.8975    6.3436 C   0  0  0  0  0  0  0  0  0  0  0  0
    3.8546   -3.7561    7.7271 N   0  0  0  0  0  0  0  0  0  0  0  0
    3.7343   -2.3626    8.1813 C   0  0  0  0  0  0  0  0  0  0  0  0
    5.1122   -2.0022    8.6922 C   0  0  0  0  0  0  0  0  0  0  0  0
    5.5528   -3.2776    9.3833 C   0  0  0  0  0  0  0  0  0  0  0  0
    4.7720   -4.3936    8.6919 C   0  0  0  0  0  0  0  0  0  0  0  0
    1.6499   -2.7738    3.1787 C   0  0  0  0  0  0  0  0  0  0  0  0
    0.6504   -2.8000    2.2028 C   0  0  0  0  0  0  0  0  0  0  0  0
   -0.5486   -2.1438    2.3551 O   0  0  0  0  0  0  0  0  0  0  0  0
   -1.0177   -1.7964    3.6743 C   0  0  0  0  0  0  0  0  0  0  0  0
   -1.4893   -3.0340    4.4482 C   0  0  0  0  0  0  0  0  0  0  0  0
   -2.3138   -2.6520    5.6692 C   0  0  0  0  0  0  0  0  0  0  0  0
   -3.3932   -1.7989    5.2998 O   0  0  0  0  0  0  0  0  0  0  0  0
   -2.9332   -0.5636    4.7602 C   0  0  0  0  0  0  0  0  0  0  0  0
   -2.1627   -0.8004    3.4738 C   0  0  0  0  0  0  0  0  0  0  0  0
    0.8461   -3.5420    0.9923 C   0  0  0  0  0  0  0  0  0  0  0  0
   -3.3091   -2.1827   -1.2986 C   0  0  0  0  0  0  0  0  0  0  0  0
   -4.5455   -2.5341   -1.8666 C   0  0  0  0  0  0  0  0  0  0  0  0
   -4.9267   -3.8710   -1.9556 C   0  0  0  0  0  0  0  0  0  0  0  0
   -5.4627   -1.6254   -2.3319 O   0  0  0  0  0  0  0  0  0  0  0  0
   -4.9056   -0.3164   -2.4607 C   0  0  0  0  0  0  0  0  0  0  0  0
   -4.0300    0.0236   -1.2678 C   0  0  0  0  0  0  0  0  0  0  0  0
   -2.9171   -0.8687   -1.1674 O   0  0  0  0  0  0  0  0  0  0  0  0
   -4.3654   -5.9108   -1.5554 H   0  0  0  0  0  0  0  0  0  0  0  0
   -2.1930   -5.3207   -0.5807 H   0  0  0  0  0  0  0  0  0  0  0  0
   -1.4221   -2.4233    0.7121 H   0  0  0  0  0  0  0  0  0  0  0  0
    1.5611   -5.7612   -2.0109 H   0  0  0  0  0  0  0  0  0  0  0  0
    3.8906   -4.8522    1.7343 H   0  0  0  0  0  0  0  0  0  0  0  0
    2.3888   -3.7071    5.5160 H   0  0  0  0  0  0  0  0  0  0  0  0
    3.3805   -2.2150    5.3791 H   0  0  0  0  0  0  0  0  0  0  0  0
    5.3555   -3.4642    6.2132 H   0  0  0  0  0  0  0  0  0  0  0  0
    4.4613   -4.9671    6.1156 H   0  0  0  0  0  0  0  0  0  0  0  0
    3.0129   -2.3314    9.0084 H   0  0  0  0  0  0  0  0  0  0  0  0
    3.3683   -1.6603    7.4287 H   0  0  0  0  0  0  0  0  0  0  0  0
    5.0970   -1.1446    9.3709 H   0  0  0  0  0  0  0  0  0  0  0  0
    5.7865   -1.7672    7.8604 H   0  0  0  0  0  0  0  0  0  0  0  0
    5.2836   -3.2372   10.4457 H   0  0  0  0  0  0  0  0  0  0  0  0
    6.6351   -3.4188    9.3116 H   0  0  0  0  0  0  0  0  0  0  0  0
    4.1779   -4.9372    9.4364 H   0  0  0  0  0  0  0  0  0  0  0  0
    5.4441   -5.1268    8.2319 H   0  0  0  0  0  0  0  0  0  0  0  0
    1.5350   -2.1594    4.0606 H   0  0  0  0  0  0  0  0  0  0  0  0
   -0.2465   -1.2641    4.2418 H   0  0  0  0  0  0  0  0  0  0  0  0
   -0.6337   -3.6416    4.7650 H   0  0  0  0  0  0  0  0  0  0  0  0
   -2.0883   -3.6689    3.7841 H   0  0  0  0  0  0  0  0  0  0  0  0
   -1.7011   -2.1547    6.4305 H   0  0  0  0  0  0  0  0  0  0  0  0
   -2.7406   -3.5494    6.1293 H   0  0  0  0  0  0  0  0  0  0  0  0
   -2.3228   -0.0435    5.5079 H   0  0  0  0  0  0  0  0  0  0  0  0
   -3.8091    0.0612    4.5588 H   0  0  0  0  0  0  0  0  0  0  0  0
   -1.7624    0.1473    3.0938 H   0  0  0  0  0  0  0  0  0  0  0  0
   -2.8410   -1.1806    2.7001 H   0  0  0  0  0  0  0  0  0  0  0  0
   -5.8909   -4.1347   -2.3804 H   0  0  0  0  0  0  0  0  0  0  0  0
   -5.7422    0.3885   -2.5213 H   0  0  0  0  0  0  0  0  0  0  0  0
   -4.3500   -0.2638   -3.4045 H   0  0  0  0  0  0  0  0  0  0  0  0
   -4.5960   -0.0283   -0.3299 H   0  0  0  0  0  0  0  0  0  0  0  0
   -3.6370    1.0401   -1.3711 H   0  0  0  0  0  0  0  0  0  0  0  0
  1  2  1  0  0  0  0
  1 32  2  0  0  0  0
  1 37  1  0  0  0  0
  2  3  2  0  0  0  0
  2 38  1  0  0  0  0
  3  4  1  0  0  0  0
  3 30  1  0  0  0  0
  4  5  1  0  0  0  0
  4 39  1  0  0  0  0
  5  6  1  0  0  0  0
  5 29  2  0  0  0  0
  6  7  2  0  0  0  0
  7  8  1  0  0  0  0
  7 40  1  0  0  0  0
  8  9  2  0  0  0  0
  9 10  1  0  0  0  0
  9 29  1  0  0  0  0
 10 11  2  0  0  0  0
 10 41  1  0  0  0  0
 11 12  1  0  0  0  0
 11 20  1  0  0  0  0
 12 13  1  0  0  0  0
 13 14  1  0  0  0  0
 13 42  1  0  0  0  0
 13 43  1  0  0  0  0
 14 15  1  0  0  0  0
 14 44  1  0  0  0  0
 14 45  1  0  0  0  0
 15 16  1  0  0  0  0
 15 19  1  0  0  0  0
 16 17  1  0  0  0  0
 16 46  1  0  0  0  0
 16 47  1  0  0  0  0
 17 18  1  0  0  0  0
 17 48  1  0  0  0  0
 17 49  1  0  0  0  0
 18 19  1  0  0  0  0
 18 50  1  0  0  0  0
 18 51  1  0  0  0  0
 19 52  1  0  0  0  0
 19 53  1  0  0  0  0
 20 21  2  0  0  0  0
 20 54  1  0  0  0  0
 21 22  1  0  0  0  0
 21 29  1  0  0  0  0
 22 23  1  0  0  0  0
 23 24  1  0  0  0  0
 23 28  1  0  0  0  0
 23 55  1  0  0  0  0
 24 25  1  0  0  0  0
 24 56  1  0  0  0  0
 24 57  1  0  0  0  0
 25 26  1  0  0  0  0
 25 58  1  0  0  0  0
 25 59  1  0  0  0  0
 26 27  1  0  0  0  0
 27 28  1  0  0  0  0
 27 60  1  0  0  0  0
 27 61  1  0  0  0  0
 28 62  1  0  0  0  0
 28 63  1  0  0  0  0
 30 31  2  0  0  0  0
 30 36  1  0  0  0  0
 31 32  1  0  0  0  0
 31 33  1  0  0  0  0
 32 64  1  0  0  0  0
 33 34  1  0  0  0  0
 34 35  1  0  0  0  0
 34 65  1  0  0  0  0
 34 66  1  0  0  0  0
 35 36  1  0  0  0  0
 35 67  1  0  0  0  0
 35 68  1  0  0  0  0
M  END
$$$$
