CHEMBL3287304
 OpenBabel04072215363D

 67 71  0  0  0  0  0  0  0  0999 V2000
    7.4362   -7.4608   -1.1070 C   0  0  0  0  0  0  0  0  0  0  0  0
    5.8789   -7.8251   -0.3347 S   0  0  0  0  0  0  0  0  0  0  0  0
    4.8309   -7.6683   -1.3294 O   0  0  0  0  0  0  0  0  0  0  0  0
    6.0351   -9.1014    0.3403 O   0  0  0  0  0  0  0  0  0  0  0  0
    5.6940   -6.5772    0.9407 C   0  0  0  0  0  0  0  0  0  0  0  0
    5.7328   -5.1657    0.4071 C   0  0  0  0  0  0  0  0  0  0  0  0
    4.7698   -4.6866   -0.4908 C   0  0  0  0  0  0  0  0  0  0  0  0
    4.7797   -3.3516   -0.8971 C   0  0  0  0  0  0  0  0  0  0  0  0
    5.7337   -2.4691   -0.3916 C   0  0  0  0  0  0  0  0  0  0  0  0
    6.7131   -2.9157    0.4983 C   0  0  0  0  0  0  0  0  0  0  0  0
    7.6172   -1.9818    1.0373 N   0  0  0  0  0  0  0  0  0  0  0  0
    8.9235   -2.2413    1.4595 C   0  0  0  0  0  0  0  0  0  0  0  0
    9.6354   -3.1992    0.8424 N   0  0  0  0  0  0  0  0  0  0  0  0
   10.8799   -3.4242    1.2831 C   0  0  0  0  0  0  0  0  0  0  0  0
   11.4369   -2.7411    2.3295 C   0  0  0  0  0  0  0  0  0  0  0  0
   10.6616   -1.7336    2.8634 C   0  0  0  0  0  0  0  0  0  0  0  0
   11.0922   -0.9176    3.8940 O   0  0  0  0  0  0  0  0  0  0  0  0
   12.4258   -0.5816    3.9736 C   0  0  0  0  0  0  0  0  0  0  0  0
   13.2325   -0.3455    2.8607 C   0  0  0  0  0  0  0  0  0  0  0  0
   14.5993   -0.1104    3.0205 C   0  0  0  0  0  0  0  0  0  0  0  0
   15.1629   -0.0454    4.2942 C   0  0  0  0  0  0  0  0  0  0  0  0
   16.5373    0.1317    4.5210 N   0  0  0  0  0  0  0  0  0  0  0  0
   17.5414    0.1900    3.5754 C   0  0  0  0  0  0  0  0  0  0  0  0
   17.4416    0.1096    2.3608 O   0  0  0  0  0  0  0  0  0  0  0  0
   18.9103    0.3309    4.1746 C   0  0  0  0  0  0  0  0  0  0  0  0
   19.5046   -0.9624    4.6173 C   0  0  0  0  0  0  0  0  0  0  0  0
   19.0463   -1.4666    5.6458 O   0  0  0  0  0  0  0  0  0  0  0  0
   20.5329   -1.4788    3.8571 N   0  0  0  0  0  0  0  0  0  0  0  0
   21.1364   -2.7135    4.1784 C   0  0  0  0  0  0  0  0  0  0  0  0
   20.3619   -3.8143    4.5714 C   0  0  0  0  0  0  0  0  0  0  0  0
   20.9737   -4.9955    4.9892 C   0  0  0  0  0  0  0  0  0  0  0  0
   22.3590   -5.0628    5.0291 C   0  0  0  0  0  0  0  0  0  0  0  0
   22.9514   -6.1718    5.4912 F   0  0  0  0  0  0  0  0  0  0  0  0
   23.1406   -3.9916    4.6051 C   0  0  0  0  0  0  0  0  0  0  0  0
   22.5284   -2.8228    4.1426 C   0  0  0  0  0  0  0  0  0  0  0  0
   19.1574    1.5337    5.0960 C   0  0  0  0  0  0  0  0  0  0  0  0
   19.7563    1.5163    3.7259 C   0  0  0  0  0  0  0  0  0  0  0  0
   14.3283   -0.1737    5.4118 C   0  0  0  0  0  0  0  0  0  0  0  0
   12.9640   -0.4436    5.2526 C   0  0  0  0  0  0  0  0  0  0  0  0
    9.3991   -1.4894    2.4605 N   0  0  0  0  0  0  0  0  0  0  0  0
    6.6915   -4.2618    0.9002 C   0  0  0  0  0  0  0  0  0  0  0  0
    7.6034   -8.2060   -1.8915 H   0  0  0  0  0  0  0  0  0  0  0  0
    8.2258   -7.5337   -0.3586 H   0  0  0  0  0  0  0  0  0  0  0  0
    7.4069   -6.4652   -1.5505 H   0  0  0  0  0  0  0  0  0  0  0  0
    6.5033   -6.7536    1.6563 H   0  0  0  0  0  0  0  0  0  0  0  0
    4.7449   -6.7619    1.4490 H   0  0  0  0  0  0  0  0  0  0  0  0
    3.9903   -5.3400   -0.8762 H   0  0  0  0  0  0  0  0  0  0  0  0
    4.0336   -2.9958   -1.6035 H   0  0  0  0  0  0  0  0  0  0  0  0
    5.7241   -1.4302   -0.7131 H   0  0  0  0  0  0  0  0  0  0  0  0
    7.1959   -1.3575    1.7158 H   0  0  0  0  0  0  0  0  0  0  0  0
   11.4319   -4.1888    0.7447 H   0  0  0  0  0  0  0  0  0  0  0  0
   12.4361   -2.9708    2.6707 H   0  0  0  0  0  0  0  0  0  0  0  0
   12.8259   -0.3695    1.8532 H   0  0  0  0  0  0  0  0  0  0  0  0
   15.1972    0.0076    2.1225 H   0  0  0  0  0  0  0  0  0  0  0  0
   16.8418    0.1183    5.4910 H   0  0  0  0  0  0  0  0  0  0  0  0
   21.0296   -0.8499    3.2405 H   0  0  0  0  0  0  0  0  0  0  0  0
   19.2756   -3.7634    4.5502 H   0  0  0  0  0  0  0  0  0  0  0  0
   20.3778   -5.8464    5.3020 H   0  0  0  0  0  0  0  0  0  0  0  0
   24.2217   -4.0674    4.6642 H   0  0  0  0  0  0  0  0  0  0  0  0
   23.1489   -1.9836    3.8428 H   0  0  0  0  0  0  0  0  0  0  0  0
   19.8237    1.4016    5.9429 H   0  0  0  0  0  0  0  0  0  0  0  0
   18.3367    2.2148    5.2907 H   0  0  0  0  0  0  0  0  0  0  0  0
   20.8306    1.4226    3.6524 H   0  0  0  0  0  0  0  0  0  0  0  0
   19.3277    2.1925    2.9898 H   0  0  0  0  0  0  0  0  0  0  0  0
   14.7272   -0.0853    6.4193 H   0  0  0  0  0  0  0  0  0  0  0  0
   12.3302   -0.5614    6.1281 H   0  0  0  0  0  0  0  0  0  0  0  0
    7.4231   -4.6025    1.6309 H   0  0  0  0  0  0  0  0  0  0  0  0
  1  2  1  0  0  0  0
  1 42  1  0  0  0  0
  1 43  1  0  0  0  0
  1 44  1  0  0  0  0
  2  3  2  0  0  0  0
  2  4  2  0  0  0  0
  2  5  1  0  0  0  0
  5  6  1  0  0  0  0
  5 45  1  0  0  0  0
  5 46  1  0  0  0  0
  6  7  1  0  0  0  0
  6 41  2  0  0  0  0
  7  8  2  0  0  0  0
  7 47  1  0  0  0  0
  8  9  1  0  0  0  0
  8 48  1  0  0  0  0
  9 10  2  0  0  0  0
  9 49  1  0  0  0  0
 10 11  1  0  0  0  0
 10 41  1  0  0  0  0
 11 12  1  0  0  0  0
 11 50  1  0  0  0  0
 12 13  1  0  0  0  0
 12 40  2  0  0  0  0
 13 14  2  0  0  0  0
 14 15  1  0  0  0  0
 14 51  1  0  0  0  0
 15 16  2  0  0  0  0
 15 52  1  0  0  0  0
 16 17  1  0  0  0  0
 16 40  1  0  0  0  0
 17 18  1  0  0  0  0
 18 19  1  0  0  0  0
 18 39  2  0  0  0  0
 19 20  2  0  0  0  0
 19 53  1  0  0  0  0
 20 21  1  0  0  0  0
 20 54  1  0  0  0  0
 21 22  1  0  0  0  0
 21 38  2  0  0  0  0
 22 23  1  0  0  0  0
 22 55  1  0  0  0  0
 23 24  2  0  0  0  0
 23 25  1  0  0  0  0
 25 26  1  0  0  0  0
 25 36  1  0  0  0  0
 25 37  1  0  0  0  0
 26 27  2  0  0  0  0
 26 28  1  0  0  0  0
 28 29  1  0  0  0  0
 28 56  1  0  0  0  0
 29 30  1  0  0  0  0
 29 35  2  0  0  0  0
 30 31  2  0  0  0  0
 30 57  1  0  0  0  0
 31 32  1  0  0  0  0
 31 58  1  0  0  0  0
 32 33  1  0  0  0  0
 32 34  2  0  0  0  0
 34 35  1  0  0  0  0
 34 59  1  0  0  0  0
 35 60  1  0  0  0  0
 36 37  1  0  0  0  0
 36 61  1  0  0  0  0
 36 62  1  0  0  0  0
 37 63  1  0  0  0  0
 37 64  1  0  0  0  0
 38 39  1  0  0  0  0
 38 65  1  0  0  0  0
 39 66  1  0  0  0  0
 41 67  1  0  0  0  0
M  END
$$$$
