CHEMBL273187
 OpenBabel04072215363D

 45 48  0  0  0  0  0  0  0  0999 V2000
    1.2357    1.6934    2.3591 C   0  0  0  0  0  0  0  0  0  0  0  0
    0.0720    0.8602    1.9182 C   0  0  0  0  0  0  0  0  0  0  0  0
   -1.0981    1.4743    1.4507 C   0  0  0  0  0  0  0  0  0  0  0  0
   -2.1987    0.7293    1.0034 C   0  0  0  0  0  0  0  0  0  0  0  0
   -3.3893    1.3251    0.5152 N   0  0  0  0  0  0  0  0  0  0  0  0
   -3.5688    2.6751    0.2787 C   0  0  0  0  0  0  0  0  0  0  0  0
   -2.6917    3.5254    0.3876 O   0  0  0  0  0  0  0  0  0  0  0  0
   -4.8796    2.9863   -0.0642 N   0  0  0  0  0  0  0  0  0  0  0  0
   -5.2253    4.3340   -0.3287 C   0  0  0  0  0  0  0  0  0  0  0  0
   -4.3862    5.1583   -1.0809 C   0  0  0  0  0  0  0  0  0  0  0  0
   -4.6113    6.5346   -1.1395 C   0  0  0  0  0  0  0  0  0  0  0  0
   -5.7006    7.1260   -0.4787 C   0  0  0  0  0  0  0  0  0  0  0  0
   -5.8422    8.5961   -0.4397 C   0  0  0  0  0  0  0  0  0  0  0  0
   -5.5127    9.3924   -1.5595 C   0  0  0  0  0  0  0  0  0  0  0  0
   -5.6109   10.7755   -1.5004 C   0  0  0  0  0  0  0  0  0  0  0  0
   -6.0279   11.4793   -0.4328 N   0  0  0  0  0  0  0  0  0  0  0  0
   -6.3323   10.6964    0.6178 C   0  0  0  0  0  0  0  0  0  0  0  0
   -6.7769   11.1527    1.8205 N   0  0  0  0  0  0  0  0  0  0  0  0
   -6.9813   10.1879    2.7289 N   0  0  0  0  0  0  0  0  0  0  0  0
   -6.6442    9.0746    2.0793 C   0  0  0  0  0  0  0  0  0  0  0  0
   -6.6645    7.8897    2.7122 N   0  0  0  0  0  0  0  0  0  0  0  0
   -6.2604    9.3091    0.7185 C   0  0  0  0  0  0  0  0  0  0  0  0
   -6.6150    6.2540    0.1378 C   0  0  0  0  0  0  0  0  0  0  0  0
   -6.3773    4.8737    0.2302 C   0  0  0  0  0  0  0  0  0  0  0  0
   -2.1264   -0.6668    1.0534 C   0  0  0  0  0  0  0  0  0  0  0  0
   -0.9677   -1.2913    1.5304 C   0  0  0  0  0  0  0  0  0  0  0  0
    0.1168   -0.5268    1.9540 C   0  0  0  0  0  0  0  0  0  0  0  0
    1.2161   -1.1508    2.4011 F   0  0  0  0  0  0  0  0  0  0  0  0
    1.0283    2.7645    2.2482 H   0  0  0  0  0  0  0  0  0  0  0  0
    2.1171    1.4661    1.7517 H   0  0  0  0  0  0  0  0  0  0  0  0
    1.4580    1.5078    3.4138 H   0  0  0  0  0  0  0  0  0  0  0  0
   -1.1108    2.5591    1.4514 H   0  0  0  0  0  0  0  0  0  0  0  0
   -4.1105    0.7072    0.1746 H   0  0  0  0  0  0  0  0  0  0  0  0
   -5.5807    2.4234    0.3960 H   0  0  0  0  0  0  0  0  0  0  0  0
   -3.5114    4.7503   -1.5823 H   0  0  0  0  0  0  0  0  0  0  0  0
   -3.8806    7.1391   -1.6729 H   0  0  0  0  0  0  0  0  0  0  0  0
   -5.1745    8.9382   -2.4866 H   0  0  0  0  0  0  0  0  0  0  0  0
   -5.3391   11.3792   -2.3636 H   0  0  0  0  0  0  0  0  0  0  0  0
   -6.9446   12.1171    2.0755 H   0  0  0  0  0  0  0  0  0  0  0  0
   -6.7936    7.9481    3.7172 H   0  0  0  0  0  0  0  0  0  0  0  0
   -5.9792    7.1884    2.4516 H   0  0  0  0  0  0  0  0  0  0  0  0
   -7.5110    6.6499    0.6124 H   0  0  0  0  0  0  0  0  0  0  0  0
   -7.0575    4.2612    0.8158 H   0  0  0  0  0  0  0  0  0  0  0  0
   -2.9570   -1.2744    0.7224 H   0  0  0  0  0  0  0  0  0  0  0  0
   -0.9013   -2.3746    1.5729 H   0  0  0  0  0  0  0  0  0  0  0  0
  1  2  1  0  0  0  0
  1 29  1  0  0  0  0
  1 30  1  0  0  0  0
  1 31  1  0  0  0  0
  2  3  1  0  0  0  0
  2 27  2  0  0  0  0
  3  4  2  0  0  0  0
  3 32  1  0  0  0  0
  4  5  1  0  0  0  0
  4 25  1  0  0  0  0
  5  6  1  0  0  0  0
  5 33  1  0  0  0  0
  6  7  2  0  0  0  0
  6  8  1  0  0  0  0
  8  9  1  0  0  0  0
  8 34  1  0  0  0  0
  9 10  1  0  0  0  0
  9 24  2  0  0  0  0
 10 11  2  0  0  0  0
 10 35  1  0  0  0  0
 11 12  1  0  0  0  0
 11 36  1  0  0  0  0
 12 13  1  0  0  0  0
 12 23  2  0  0  0  0
 13 14  1  0  0  0  0
 13 22  2  0  0  0  0
 14 15  2  0  0  0  0
 14 37  1  0  0  0  0
 15 16  1  0  0  0  0
 15 38  1  0  0  0  0
 16 17  2  0  0  0  0
 17 18  1  0  0  0  0
 17 22  1  0  0  0  0
 18 19  1  0  0  0  0
 18 39  1  0  0  0  0
 19 20  2  0  0  0  0
 20 21  1  0  0  0  0
 20 22  1  0  0  0  0
 21 40  1  0  0  0  0
 21 41  1  0  0  0  0
 23 24  1  0  0  0  0
 23 42  1  0  0  0  0
 24 43  1  0  0  0  0
 25 26  2  0  0  0  0
 25 44  1  0  0  0  0
 26 27  1  0  0  0  0
 26 45  1  0  0  0  0
 27 28  1  0  0  0  0
M  END
$$$$
