CHEMBL273064
 OpenBabel04072215363D

 48 52  0  0  0  0  0  0  0  0999 V2000
    2.8746    0.5614    0.9033 O   0  0  0  0  0  0  0  0  0  0  0  0
    2.2693   -0.0599    0.0375 C   0  0  0  0  0  0  0  0  0  0  0  0
    0.8956   -0.2321   -0.0416 N   0  0  0  0  0  0  0  0  0  0  0  0
   -0.0553    0.2131    0.9047 C   0  0  0  0  0  0  0  0  0  0  0  0
    0.2473    1.0954    1.9454 C   0  0  0  0  0  0  0  0  0  0  0  0
   -0.7064    1.4059    2.9196 C   0  0  0  0  0  0  0  0  0  0  0  0
   -1.9764    0.8451    2.8477 C   0  0  0  0  0  0  0  0  0  0  0  0
   -3.1275    1.1741    4.0820 Cl  0  0  0  0  0  0  0  0  0  0  0  0
   -2.3128    0.0091    1.7862 C   0  0  0  0  0  0  0  0  0  0  0  0
   -1.3573   -0.2971    0.8100 C   0  0  0  0  0  0  0  0  0  0  0  0
    3.0555   -0.7300   -1.0398 C   0  0  0  0  0  0  0  0  0  0  0  0
    2.6209   -0.5599   -2.3633 C   0  0  0  0  0  0  0  0  0  0  0  0
    3.3360   -1.1366   -3.4069 C   0  0  0  0  0  0  0  0  0  0  0  0
    4.4946   -1.8634   -3.1397 C   0  0  0  0  0  0  0  0  0  0  0  0
    4.9596   -2.0431   -1.8241 C   0  0  0  0  0  0  0  0  0  0  0  0
    6.1430   -2.7718   -1.5822 C   0  0  0  0  0  0  0  0  0  0  0  0
    6.6280   -2.9571   -0.2869 C   0  0  0  0  0  0  0  0  0  0  0  0
    7.8076   -3.6666   -0.1538 O   0  0  0  0  0  0  0  0  0  0  0  0
    8.6726   -3.3339    0.8759 C   0  0  0  0  0  0  0  0  0  0  0  0
    8.8868   -2.0065    1.2457 C   0  0  0  0  0  0  0  0  0  0  0  0
    9.6985   -1.7579    2.3289 C   0  0  0  0  0  0  0  0  0  0  0  0
   10.3384   -2.7198    3.0232 N   0  0  0  0  0  0  0  0  0  0  0  0
   10.1976   -3.9933    2.6199 C   0  0  0  0  0  0  0  0  0  0  0  0
   10.8929   -4.9753    3.3130 C   0  0  0  0  0  0  0  0  0  0  0  0
   10.8284   -6.3214    2.9497 C   0  0  0  0  0  0  0  0  0  0  0  0
   10.0485   -6.7010    1.8647 C   0  0  0  0  0  0  0  0  0  0  0  0
    9.3236   -5.7365    1.1627 C   0  0  0  0  0  0  0  0  0  0  0  0
    9.3820   -4.3706    1.5309 C   0  0  0  0  0  0  0  0  0  0  0  0
    5.8920   -2.4666    0.7877 C   0  0  0  0  0  0  0  0  0  0  0  0
    4.7304   -1.7216    0.5603 C   0  0  0  0  0  0  0  0  0  0  0  0
    4.2344   -1.4791   -0.7441 C   0  0  0  0  0  0  0  0  0  0  0  0
    0.5489   -0.8554   -0.7605 H   0  0  0  0  0  0  0  0  0  0  0  0
    1.2252    1.5577    2.0358 H   0  0  0  0  0  0  0  0  0  0  0  0
   -0.4372    2.0716    3.7354 H   0  0  0  0  0  0  0  0  0  0  0  0
   -3.3081   -0.4227    1.7237 H   0  0  0  0  0  0  0  0  0  0  0  0
   -1.6382   -0.9678    0.0019 H   0  0  0  0  0  0  0  0  0  0  0  0
    1.7454    0.0437   -2.5913 H   0  0  0  0  0  0  0  0  0  0  0  0
    3.0019   -1.0032   -4.4340 H   0  0  0  0  0  0  0  0  0  0  0  0
    5.0401   -2.2969   -3.9766 H   0  0  0  0  0  0  0  0  0  0  0  0
    6.7063   -3.1902   -2.4140 H   0  0  0  0  0  0  0  0  0  0  0  0
    8.4127   -1.1815    0.7269 H   0  0  0  0  0  0  0  0  0  0  0  0
    9.8561   -0.7445    2.6891 H   0  0  0  0  0  0  0  0  0  0  0  0
   11.5092   -4.6803    4.1589 H   0  0  0  0  0  0  0  0  0  0  0  0
   11.3916   -7.0608    3.5129 H   0  0  0  0  0  0  0  0  0  0  0  0
   10.0061   -7.7466    1.5676 H   0  0  0  0  0  0  0  0  0  0  0  0
    8.7203   -6.0498    0.3130 H   0  0  0  0  0  0  0  0  0  0  0  0
    6.2126   -2.6300    1.8134 H   0  0  0  0  0  0  0  0  0  0  0  0
    4.2176   -1.3222    1.4342 H   0  0  0  0  0  0  0  0  0  0  0  0
  1  2  2  0  0  0  0
  2  3  1  0  0  0  0
  2 11  1  0  0  0  0
  3  4  1  0  0  0  0
  3 32  1  0  0  0  0
  4  5  1  0  0  0  0
  4 10  2  0  0  0  0
  5  6  2  0  0  0  0
  5 33  1  0  0  0  0
  6  7  1  0  0  0  0
  6 34  1  0  0  0  0
  7  8  1  0  0  0  0
  7  9  2  0  0  0  0
  9 10  1  0  0  0  0
  9 35  1  0  0  0  0
 10 36  1  0  0  0  0
 11 12  1  0  0  0  0
 11 31  2  0  0  0  0
 12 13  2  0  0  0  0
 12 37  1  0  0  0  0
 13 14  1  0  0  0  0
 13 38  1  0  0  0  0
 14 15  2  0  0  0  0
 14 39  1  0  0  0  0
 15 16  1  0  0  0  0
 15 31  1  0  0  0  0
 16 17  2  0  0  0  0
 16 40  1  0  0  0  0
 17 18  1  0  0  0  0
 17 29  1  0  0  0  0
 18 19  1  0  0  0  0
 19 20  1  0  0  0  0
 19 28  2  0  0  0  0
 20 21  2  0  0  0  0
 20 41  1  0  0  0  0
 21 22  1  0  0  0  0
 21 42  1  0  0  0  0
 22 23  2  0  0  0  0
 23 24  1  0  0  0  0
 23 28  1  0  0  0  0
 24 25  2  0  0  0  0
 24 43  1  0  0  0  0
 25 26  1  0  0  0  0
 25 44  1  0  0  0  0
 26 27  2  0  0  0  0
 26 45  1  0  0  0  0
 27 28  1  0  0  0  0
 27 46  1  0  0  0  0
 29 30  2  0  0  0  0
 29 47  1  0  0  0  0
 30 31  1  0  0  0  0
 30 48  1  0  0  0  0
M  END
$$$$
