CHEMBL205884
 OpenBabel04072215363D

 47 50  0  0  0  0  0  0  0  0999 V2000
    2.1033    0.0605   -0.0155 C   0  0  0  0  0  0  0  0  0  0  0  0
    0.6657   -0.0639   -0.0002 N   0  0  0  0  0  0  0  0  0  0  0  0
   -0.2107    0.9808    0.1037 C   0  0  0  0  0  0  0  0  0  0  0  0
   -1.4540    0.5637    0.1960 N   0  0  0  0  0  0  0  0  0  0  0  0
   -1.3770   -0.7913    0.0854 C   0  0  0  0  0  0  0  0  0  0  0  0
   -2.4620   -1.5751    0.1385 N   0  0  0  0  0  0  0  0  0  0  0  0
   -3.7038   -1.1343    0.7335 C   0  0  0  0  0  0  0  0  0  0  0  0
   -4.4241   -2.3387    1.2994 C   0  0  0  0  0  0  0  0  0  0  0  0
   -3.8100   -3.1487    2.2643 C   0  0  0  0  0  0  0  0  0  0  0  0
   -4.5018   -4.2394    2.7642 C   0  0  0  0  0  0  0  0  0  0  0  0
   -5.7505   -4.5739    2.3794 N   0  0  0  0  0  0  0  0  0  0  0  0
   -6.3324   -3.7753    1.4581 C   0  0  0  0  0  0  0  0  0  0  0  0
   -5.7208   -2.6655    0.8946 C   0  0  0  0  0  0  0  0  0  0  0  0
   -0.0734   -1.2240   -0.0358 C   0  0  0  0  0  0  0  0  0  0  0  0
    0.4503   -2.5456   -0.0837 C   0  0  0  0  0  0  0  0  0  0  0  0
    1.7365   -2.8378   -0.0336 N   0  0  0  0  0  0  0  0  0  0  0  0
    1.8319   -4.2074   -0.0043 N   0  0  0  0  0  0  0  0  0  0  0  0
    0.6026   -4.6760   -0.0392 C   0  0  0  0  0  0  0  0  0  0  0  0
    0.1101   -5.9256    0.0187 N   0  0  0  0  0  0  0  0  0  0  0  0
    0.7387   -7.0413    0.6031 C   0  0  0  0  0  0  0  0  0  0  0  0
    1.9723   -6.9724    1.2627 C   0  0  0  0  0  0  0  0  0  0  0  0
    2.5765   -8.1109    1.8100 C   0  0  0  0  0  0  0  0  0  0  0  0
    1.9673   -9.3543    1.6869 C   0  0  0  0  0  0  0  0  0  0  0  0
    2.4759  -10.5353    2.1383 O   0  0  0  0  0  0  0  0  0  0  0  0
    3.2950  -10.4896    3.3036 C   0  0  0  0  0  0  0  0  0  0  0  0
    4.4396   -9.8073    3.0541 F   0  0  0  0  0  0  0  0  0  0  0  0
    2.6338   -9.8573    4.3050 F   0  0  0  0  0  0  0  0  0  0  0  0
    3.6995  -12.1368    3.8005 Cl  0  0  0  0  0  0  0  0  0  0  0  0
    0.7617   -9.4489    0.9899 C   0  0  0  0  0  0  0  0  0  0  0  0
    0.1524   -8.3050    0.4582 C   0  0  0  0  0  0  0  0  0  0  0  0
   -0.3262   -3.6800   -0.1286 O   0  0  0  0  0  0  0  0  0  0  0  0
    2.3797    1.1183   -0.0051 H   0  0  0  0  0  0  0  0  0  0  0  0
    2.4891   -0.4063   -0.9251 H   0  0  0  0  0  0  0  0  0  0  0  0
    2.5059   -0.4256    0.8784 H   0  0  0  0  0  0  0  0  0  0  0  0
    0.1082    2.0149    0.1211 H   0  0  0  0  0  0  0  0  0  0  0  0
   -2.5202   -2.4137   -0.4278 H   0  0  0  0  0  0  0  0  0  0  0  0
   -4.3165   -0.6324   -0.0229 H   0  0  0  0  0  0  0  0  0  0  0  0
   -3.5361   -0.4261    1.5552 H   0  0  0  0  0  0  0  0  0  0  0  0
   -2.8035   -2.9346    2.6136 H   0  0  0  0  0  0  0  0  0  0  0  0
   -4.0581   -4.8905    3.5123 H   0  0  0  0  0  0  0  0  0  0  0  0
   -7.3426   -4.0618    1.1742 H   0  0  0  0  0  0  0  0  0  0  0  0
   -6.2504   -2.0711    0.1579 H   0  0  0  0  0  0  0  0  0  0  0  0
   -0.8934   -6.0206   -0.0738 H   0  0  0  0  0  0  0  0  0  0  0  0
    2.4965   -6.0285    1.3829 H   0  0  0  0  0  0  0  0  0  0  0  0
    3.5334   -7.9732    2.3012 H   0  0  0  0  0  0  0  0  0  0  0  0
    0.2836  -10.4171    0.8614 H   0  0  0  0  0  0  0  0  0  0  0  0
   -0.7862   -8.4184   -0.0801 H   0  0  0  0  0  0  0  0  0  0  0  0
  1  2  1  0  0  0  0
  1 32  1  0  0  0  0
  1 33  1  0  0  0  0
  1 34  1  0  0  0  0
  2  3  1  0  0  0  0
  2 14  1  0  0  0  0
  3  4  2  0  0  0  0
  3 35  1  0  0  0  0
  4  5  1  0  0  0  0
  5  6  1  0  0  0  0
  5 14  2  0  0  0  0
  6  7  1  0  0  0  0
  6 36  1  0  0  0  0
  7  8  1  0  0  0  0
  7 37  1  0  0  0  0
  7 38  1  0  0  0  0
  8  9  1  0  0  0  0
  8 13  2  0  0  0  0
  9 10  2  0  0  0  0
  9 39  1  0  0  0  0
 10 11  1  0  0  0  0
 10 40  1  0  0  0  0
 11 12  2  0  0  0  0
 12 13  1  0  0  0  0
 12 41  1  0  0  0  0
 13 42  1  0  0  0  0
 14 15  1  0  0  0  0
 15 16  2  0  0  0  0
 15 31  1  0  0  0  0
 16 17  1  0  0  0  0
 17 18  2  0  0  0  0
 18 19  1  0  0  0  0
 18 31  1  0  0  0  0
 19 20  1  0  0  0  0
 19 43  1  0  0  0  0
 20 21  1  0  0  0  0
 20 30  2  0  0  0  0
 21 22  2  0  0  0  0
 21 44  1  0  0  0  0
 22 23  1  0  0  0  0
 22 45  1  0  0  0  0
 23 24  1  0  0  0  0
 23 29  2  0  0  0  0
 24 25  1  0  0  0  0
 25 26  1  0  0  0  0
 25 27  1  0  0  0  0
 25 28  1  0  0  0  0
 29 30  1  0  0  0  0
 29 46  1  0  0  0  0
 30 47  1  0  0  0  0
M  END
$$$$
