CHEMBL77555
 OpenBabel04072215383D

 43 46  0  0  0  0  0  0  0  0999 V2000
    1.1359   -4.0693   -0.1795 F   0  0  0  0  0  0  0  0  0  0  0  0
    0.1188   -3.5233   -0.9095 C   0  0  0  0  0  0  0  0  0  0  0  0
   -0.7976   -4.5202   -1.0458 F   0  0  0  0  0  0  0  0  0  0  0  0
   -0.4431   -2.5878   -0.0962 F   0  0  0  0  0  0  0  0  0  0  0  0
    0.5807   -2.9591   -2.2236 C   0  0  0  0  0  0  0  0  0  0  0  0
    1.9517   -2.9846   -2.5562 C   0  0  0  0  0  0  0  0  0  0  0  0
    2.4138   -2.4899   -3.7816 C   0  0  0  0  0  0  0  0  0  0  0  0
    3.7923   -2.4670   -4.0710 N   0  0  0  0  0  0  0  0  0  0  0  0
    4.3527   -2.4813   -5.3718 C   0  0  0  0  0  0  0  0  0  0  0  0
    3.6937   -3.1416   -6.3495 N   0  0  0  0  0  0  0  0  0  0  0  0
    4.1400   -3.1211   -7.6283 N   0  0  0  0  0  0  0  0  0  0  0  0
    5.2250   -2.3848   -7.9552 C   0  0  0  0  0  0  0  0  0  0  0  0
    5.6562   -2.5325   -9.3958 C   0  0  0  0  0  0  0  0  0  0  0  0
    6.7474   -3.5651   -9.5764 C   0  0  0  0  0  0  0  0  0  0  0  0
    6.5219   -4.9088   -9.2515 C   0  0  0  0  0  0  0  0  0  0  0  0
    7.5657   -5.8117   -9.3768 C   0  0  0  0  0  0  0  0  0  0  0  0
    8.7983   -5.4759   -9.8113 N   0  0  0  0  0  0  0  0  0  0  0  0
    8.9904   -4.1816  -10.1420 C   0  0  0  0  0  0  0  0  0  0  0  0
    8.0114   -3.2034  -10.0470 C   0  0  0  0  0  0  0  0  0  0  0  0
    5.9377   -1.6413   -6.9939 C   0  0  0  0  0  0  0  0  0  0  0  0
    7.0200   -0.7792   -7.2974 C   0  0  0  0  0  0  0  0  0  0  0  0
    7.7188   -0.0986   -6.2994 C   0  0  0  0  0  0  0  0  0  0  0  0
    7.3736   -0.2822   -4.9694 C   0  0  0  0  0  0  0  0  0  0  0  0
    6.2851   -1.0916   -4.6462 C   0  0  0  0  0  0  0  0  0  0  0  0
    5.5278   -1.7531   -5.6449 C   0  0  0  0  0  0  0  0  0  0  0  0
    1.4774   -1.9256   -4.6608 C   0  0  0  0  0  0  0  0  0  0  0  0
    0.1191   -1.8833   -4.3448 C   0  0  0  0  0  0  0  0  0  0  0  0
   -0.3275   -2.3987   -3.1304 C   0  0  0  0  0  0  0  0  0  0  0  0
   -2.0176   -2.2950   -2.7982 Cl  0  0  0  0  0  0  0  0  0  0  0  0
    2.6662   -3.4009   -1.8474 H   0  0  0  0  0  0  0  0  0  0  0  0
    4.3843   -2.9693   -3.4203 H   0  0  0  0  0  0  0  0  0  0  0  0
    5.9535   -1.5617   -9.8084 H   0  0  0  0  0  0  0  0  0  0  0  0
    4.7933   -2.8428  -10.0013 H   0  0  0  0  0  0  0  0  0  0  0  0
    5.5555   -5.2502   -8.8903 H   0  0  0  0  0  0  0  0  0  0  0  0
    7.4338   -6.8581   -9.1156 H   0  0  0  0  0  0  0  0  0  0  0  0
    9.9898   -3.9398  -10.4917 H   0  0  0  0  0  0  0  0  0  0  0  0
    8.2430   -2.1830  -10.3309 H   0  0  0  0  0  0  0  0  0  0  0  0
    7.3179   -0.5993   -8.3272 H   0  0  0  0  0  0  0  0  0  0  0  0
    8.5311    0.5741   -6.5635 H   0  0  0  0  0  0  0  0  0  0  0  0
    7.9340    0.2193   -4.1845 H   0  0  0  0  0  0  0  0  0  0  0  0
    6.0197   -1.1921   -3.5955 H   0  0  0  0  0  0  0  0  0  0  0  0
    1.7975   -1.4969   -5.6086 H   0  0  0  0  0  0  0  0  0  0  0  0
   -0.5772   -1.4405   -5.0538 H   0  0  0  0  0  0  0  0  0  0  0  0
  1  2  1  0  0  0  0
  2  3  1  0  0  0  0
  2  4  1  0  0  0  0
  2  5  1  0  0  0  0
  5  6  1  0  0  0  0
  5 28  2  0  0  0  0
  6  7  2  0  0  0  0
  6 30  1  0  0  0  0
  7  8  1  0  0  0  0
  7 26  1  0  0  0  0
  8  9  1  0  0  0  0
  8 31  1  0  0  0  0
  9 10  1  0  0  0  0
  9 25  2  0  0  0  0
 10 11  2  0  0  0  0
 11 12  1  0  0  0  0
 12 13  1  0  0  0  0
 12 20  2  0  0  0  0
 13 14  1  0  0  0  0
 13 32  1  0  0  0  0
 13 33  1  0  0  0  0
 14 15  1  0  0  0  0
 14 19  2  0  0  0  0
 15 16  2  0  0  0  0
 15 34  1  0  0  0  0
 16 17  1  0  0  0  0
 16 35  1  0  0  0  0
 17 18  2  0  0  0  0
 18 19  1  0  0  0  0
 18 36  1  0  0  0  0
 19 37  1  0  0  0  0
 20 21  1  0  0  0  0
 20 25  1  0  0  0  0
 21 22  2  0  0  0  0
 21 38  1  0  0  0  0
 22 23  1  0  0  0  0
 22 39  1  0  0  0  0
 23 24  2  0  0  0  0
 23 40  1  0  0  0  0
 24 25  1  0  0  0  0
 24 41  1  0  0  0  0
 26 27  2  0  0  0  0
 26 42  1  0  0  0  0
 27 28  1  0  0  0  0
 27 43  1  0  0  0  0
 28 29  1  0  0  0  0
M  END
$$$$
