CHEMBL482767
 OpenBabel04072215383D

 43 46  0  0  0  0  0  0  0  0999 V2000
    1.1020    0.2323   -0.6946 O   0  0  0  0  0  0  0  0  0  0  0  0
    2.3025   -0.0193   -0.7876 C   0  0  0  0  0  0  0  0  0  0  0  0
    2.8428   -1.2498   -1.0713 N   0  0  0  0  0  0  0  0  0  0  0  0
    2.1497   -2.4483   -1.3355 C   0  0  0  0  0  0  0  0  0  0  0  0
    0.7957   -2.4868   -1.6725 C   0  0  0  0  0  0  0  0  0  0  0  0
    0.1425   -3.7067   -1.8608 C   0  0  0  0  0  0  0  0  0  0  0  0
    0.8415   -4.9020   -1.7092 C   0  0  0  0  0  0  0  0  0  0  0  0
    2.1998   -4.8666   -1.4039 C   0  0  0  0  0  0  0  0  0  0  0  0
    3.0599   -6.3446   -1.1951 Cl  0  0  0  0  0  0  0  0  0  0  0  0
    2.8629   -3.6500   -1.2384 C   0  0  0  0  0  0  0  0  0  0  0  0
    3.1780    1.0102   -0.5813 N   0  0  0  0  0  0  0  0  0  0  0  0
    4.5327    0.9239   -0.6550 C   0  0  0  0  0  0  0  0  0  0  0  0
    5.2381   -0.1598   -0.8527 N   0  0  0  0  0  0  0  0  0  0  0  0
    6.5692    0.1797   -0.8597 C   0  0  0  0  0  0  0  0  0  0  0  0
    6.8638    1.5187   -0.6447 C   0  0  0  0  0  0  0  0  0  0  0  0
    8.2162    2.1799   -0.5087 C   0  0  0  0  0  0  0  0  0  0  0  0
    9.1659    1.1818    0.1549 C   0  0  0  0  0  0  0  0  0  0  0  0
   10.5226    1.6582    0.3779 N   0  0  0  0  0  0  0  0  0  0  0  0
   11.3677    0.8254    0.9237 C   0  0  0  0  0  0  0  0  0  0  0  0
   12.6559    1.2769    1.1178 N   0  0  0  0  0  0  0  0  0  0  0  0
   13.6430    0.5148    1.6797 C   0  0  0  0  0  0  0  0  0  0  0  0
   13.5473   -0.7094    2.1087 N   0  0  0  0  0  0  0  0  0  0  0  0
   12.2474   -1.2430    1.9408 C   0  0  0  0  0  0  0  0  0  0  0  0
   11.9243   -2.5631    2.3469 C   0  0  0  0  0  0  0  0  0  0  0  0
   10.6079   -2.8567    2.0829 C   0  0  0  0  0  0  0  0  0  0  0  0
    9.7965   -1.5450    1.3585 S   0  0  0  0  0  0  0  0  0  0  0  0
   11.1819   -0.5570    1.3831 C   0  0  0  0  0  0  0  0  0  0  0  0
    5.3914    2.3860   -0.4666 S   0  0  0  0  0  0  0  0  0  0  0  0
    3.8506   -1.3151   -0.9465 H   0  0  0  0  0  0  0  0  0  0  0  0
    0.2215   -1.5737   -1.8068 H   0  0  0  0  0  0  0  0  0  0  0  0
   -0.9149   -3.7172   -2.1120 H   0  0  0  0  0  0  0  0  0  0  0  0
    0.3223   -5.8490   -1.8267 H   0  0  0  0  0  0  0  0  0  0  0  0
    3.9212   -3.6464   -0.9951 H   0  0  0  0  0  0  0  0  0  0  0  0
    2.7628    1.9044   -0.3758 H   0  0  0  0  0  0  0  0  0  0  0  0
    7.2964   -0.6130   -0.9945 H   0  0  0  0  0  0  0  0  0  0  0  0
    8.1491    3.0909    0.0977 H   0  0  0  0  0  0  0  0  0  0  0  0
    8.5876    2.4711   -1.4981 H   0  0  0  0  0  0  0  0  0  0  0  0
    9.2273    0.3176   -0.5132 H   0  0  0  0  0  0  0  0  0  0  0  0
    8.7147    0.9185    1.1177 H   0  0  0  0  0  0  0  0  0  0  0  0
   12.8432    2.2173    0.8117 H   0  0  0  0  0  0  0  0  0  0  0  0
   14.6092    1.0443    1.7528 H   0  0  0  0  0  0  0  0  0  0  0  0
   12.6189   -3.2531    2.8049 H   0  0  0  0  0  0  0  0  0  0  0  0
   10.0773   -3.7824    2.2809 H   0  0  0  0  0  0  0  0  0  0  0  0
  1  2  2  0  0  0  0
  2  3  1  0  0  0  0
  2 11  1  0  0  0  0
  3  4  1  0  0  0  0
  3 29  1  0  0  0  0
  4  5  1  0  0  0  0
  4 10  2  0  0  0  0
  5  6  2  0  0  0  0
  5 30  1  0  0  0  0
  6  7  1  0  0  0  0
  6 31  1  0  0  0  0
  7  8  2  0  0  0  0
  7 32  1  0  0  0  0
  8  9  1  0  0  0  0
  8 10  1  0  0  0  0
 10 33  1  0  0  0  0
 11 12  1  0  0  0  0
 11 34  1  0  0  0  0
 12 13  2  0  0  0  0
 12 28  1  0  0  0  0
 13 14  1  0  0  0  0
 14 15  2  0  0  0  0
 14 35  1  0  0  0  0
 15 16  1  0  0  0  0
 15 28  1  0  0  0  0
 16 17  1  0  0  0  0
 16 36  1  0  0  0  0
 16 37  1  0  0  0  0
 17 18  1  0  0  0  0
 17 38  1  0  0  0  0
 17 39  1  0  0  0  0
 18 19  2  3  0  0  0
 19 20  1  0  0  0  0
 19 27  1  0  0  0  0
 20 21  1  0  0  0  0
 20 40  1  0  0  0  0
 21 22  2  0  0  0  0
 21 41  1  0  0  0  0
 22 23  1  0  0  0  0
 23 24  1  0  0  0  0
 23 27  2  0  0  0  0
 24 25  2  0  0  0  0
 24 42  1  0  0  0  0
 25 26  1  0  0  0  0
 25 43  1  0  0  0  0
 26 27  1  0  0  0  0
M  END
$$$$
