CHEMBL1725279
 OpenBabel04072215363D

 25 28  0  0  0  0  0  0  0  0999 V2000
    1.4236   -0.9491   -0.6546 O   0  0  0  0  0  0  0  0  0  0  0  0
    2.7731   -0.7537   -0.4903 C   0  0  0  0  0  0  0  0  0  0  0  0
    3.6650   -1.8622   -0.3492 C   0  0  0  0  0  0  0  0  0  0  0  0
    3.3125   -3.2092   -0.5673 C   0  0  0  0  0  0  0  0  0  0  0  0
    4.1412   -4.2437   -0.1243 C   0  0  0  0  0  0  0  0  0  0  0  0
    5.3208   -3.9487    0.5560 C   0  0  0  0  0  0  0  0  0  0  0  0
    5.8103   -2.6489    0.5622 C   0  0  0  0  0  0  0  0  0  0  0  0
    5.0020   -1.6237    0.0768 C   0  0  0  0  0  0  0  0  0  0  0  0
    5.4605   -0.3107    0.0657 C   0  0  0  0  0  0  0  0  0  0  0  0
    4.5614    0.6989   -0.1527 C   0  0  0  0  0  0  0  0  0  0  0  0
    5.2833    1.8551   -0.0074 C   0  0  0  0  0  0  0  0  0  0  0  0
    4.6300    3.0791   -0.0463 C   0  0  0  0  0  0  0  0  0  0  0  0
    3.2249    3.0313   -0.1958 C   0  0  0  0  0  0  0  0  0  0  0  0
    2.5271    1.8075   -0.3452 C   0  0  0  0  0  0  0  0  0  0  0  0
    3.2283    0.5805   -0.3498 C   0  0  0  0  0  0  0  0  0  0  0  0
    6.6052    1.5310    0.2245 N   0  0  0  0  0  0  0  0  0  0  0  0
    6.7077    0.2467    0.2846 N   0  0  0  0  0  0  0  0  0  0  0  0
    1.1989   -1.8363   -0.3155 H   0  0  0  0  0  0  0  0  0  0  0  0
    2.3852   -3.4711   -1.0712 H   0  0  0  0  0  0  0  0  0  0  0  0
    3.8518   -5.2803   -0.2784 H   0  0  0  0  0  0  0  0  0  0  0  0
    5.8639   -4.7352    1.0733 H   0  0  0  0  0  0  0  0  0  0  0  0
    6.7819   -2.4368    1.0014 H   0  0  0  0  0  0  0  0  0  0  0  0
    5.1763    4.0072    0.0717 H   0  0  0  0  0  0  0  0  0  0  0  0
    2.6662    3.9648   -0.1857 H   0  0  0  0  0  0  0  0  0  0  0  0
    1.4421    1.8113   -0.4305 H   0  0  0  0  0  0  0  0  0  0  0  0
  1  2  1  0  0  0  0
  1 18  1  0  0  0  0
  2  3  1  0  0  0  0
  2 15  2  0  0  0  0
  3  4  1  0  0  0  0
  3  8  2  0  0  0  0
  4  5  2  0  0  0  0
  4 19  1  0  0  0  0
  5  6  1  0  0  0  0
  5 20  1  0  0  0  0
  6  7  2  0  0  0  0
  6 21  1  0  0  0  0
  7  8  1  0  0  0  0
  7 22  1  0  0  0  0
  8  9  1  0  0  0  0
  9 10  2  0  0  0  0
  9 17  1  0  0  0  0
 10 11  1  0  0  0  0
 10 15  1  0  0  0  0
 11 12  2  0  0  0  0
 11 16  1  0  0  0  0
 12 13  1  0  0  0  0
 12 23  1  0  0  0  0
 13 14  2  0  0  0  0
 13 24  1  0  0  0  0
 14 15  1  0  0  0  0
 14 25  1  0  0  0  0
 16 17  2  0  0  0  0
M  END
$$$$
