CHEMBL473351
 OpenBabel04072215383D

 49 53  0  0  0  0  0  0  0  0999 V2000
    2.3943   -0.5517    1.1356 C   0  0  0  0  0  0  0  0  0  0  0  0
    1.6991   -1.0216   -0.0193 O   0  0  0  0  0  0  0  0  0  0  0  0
    2.4810   -1.3383   -1.0984 C   0  0  0  0  0  0  0  0  0  0  0  0
    3.8139   -1.7768   -0.9586 C   0  0  0  0  0  0  0  0  0  0  0  0
    4.6656   -1.9609   -2.0435 C   0  0  0  0  0  0  0  0  0  0  0  0
    5.9469   -2.2850   -1.8312 N   0  0  0  0  0  0  0  0  0  0  0  0
    6.7318   -2.3780   -2.9116 C   0  0  0  0  0  0  0  0  0  0  0  0
    6.3820   -2.1225   -4.1764 N   0  0  0  0  0  0  0  0  0  0  0  0
    5.0989   -1.7725   -4.3753 C   0  0  0  0  0  0  0  0  0  0  0  0
    4.7790   -1.4002   -5.6950 N   0  0  0  0  0  0  0  0  0  0  0  0
    3.8619   -0.4273   -6.1519 C   0  0  0  0  0  0  0  0  0  0  0  0
    3.5443    0.7128   -5.4021 C   0  0  0  0  0  0  0  0  0  0  0  0
    2.4134    1.4817   -5.7106 C   0  0  0  0  0  0  0  0  0  0  0  0
    1.5947    1.1520   -6.7998 C   0  0  0  0  0  0  0  0  0  0  0  0
    0.3159    1.8432   -7.0524 C   0  0  0  0  0  0  0  0  0  0  0  0
   -0.2534    1.9065   -8.2418 N   0  0  0  0  0  0  0  0  0  0  0  0
   -1.4638    2.5796   -8.1578 C   0  0  0  0  0  0  0  0  0  0  0  0
   -2.3216    2.8780   -9.2361 C   0  0  0  0  0  0  0  0  0  0  0  0
   -3.5239    3.5553   -9.0037 C   0  0  0  0  0  0  0  0  0  0  0  0
   -3.8834    3.9313   -7.7133 C   0  0  0  0  0  0  0  0  0  0  0  0
   -3.0497    3.6490   -6.6276 C   0  0  0  0  0  0  0  0  0  0  0  0
   -1.8402    2.9774   -6.8746 C   0  0  0  0  0  0  0  0  0  0  0  0
   -0.6141    2.5111   -5.7656 S   0  0  0  0  0  0  0  0  0  0  0  0
    2.0183    0.1011   -7.6331 C   0  0  0  0  0  0  0  0  0  0  0  0
    1.3274   -0.2742   -8.7578 O   0  0  0  0  0  0  0  0  0  0  0  0
    3.1427   -0.6743   -7.3224 C   0  0  0  0  0  0  0  0  0  0  0  0
    4.1592   -1.7457   -3.3243 C   0  0  0  0  0  0  0  0  0  0  0  0
    2.7692   -1.5292   -3.4617 C   0  0  0  0  0  0  0  0  0  0  0  0
    1.9394   -1.2513   -2.3803 C   0  0  0  0  0  0  0  0  0  0  0  0
    0.6925   -0.8874   -2.7960 O   0  0  0  0  0  0  0  0  0  0  0  0
   -0.2303   -0.3252   -1.8878 C   0  0  0  0  0  0  0  0  0  0  0  0
    1.7539    0.1755    1.6419 H   0  0  0  0  0  0  0  0  0  0  0  0
    3.3342   -0.0378    0.9006 H   0  0  0  0  0  0  0  0  0  0  0  0
    2.5749   -1.3878    1.8173 H   0  0  0  0  0  0  0  0  0  0  0  0
    4.2294   -1.9611    0.0275 H   0  0  0  0  0  0  0  0  0  0  0  0
    7.7643   -2.6700   -2.7400 H   0  0  0  0  0  0  0  0  0  0  0  0
    5.5615   -1.5558   -6.3167 H   0  0  0  0  0  0  0  0  0  0  0  0
    4.1176    0.9673   -4.5152 H   0  0  0  0  0  0  0  0  0  0  0  0
    2.1659    2.3079   -5.0477 H   0  0  0  0  0  0  0  0  0  0  0  0
   -2.0410    2.5826  -10.2423 H   0  0  0  0  0  0  0  0  0  0  0  0
   -4.1808    3.7866   -9.8392 H   0  0  0  0  0  0  0  0  0  0  0  0
   -4.8237    4.4529   -7.5459 H   0  0  0  0  0  0  0  0  0  0  0  0
   -3.3303    3.9442   -5.6209 H   0  0  0  0  0  0  0  0  0  0  0  0
    0.6064    0.3791   -8.8991 H   0  0  0  0  0  0  0  0  0  0  0  0
    3.3802   -1.5315   -7.9446 H   0  0  0  0  0  0  0  0  0  0  0  0
    2.3187   -1.5099   -4.4531 H   0  0  0  0  0  0  0  0  0  0  0  0
   -1.0163    0.1569   -2.4825 H   0  0  0  0  0  0  0  0  0  0  0  0
    0.2117    0.4555   -1.2613 H   0  0  0  0  0  0  0  0  0  0  0  0
   -0.7025   -1.1120   -1.2921 H   0  0  0  0  0  0  0  0  0  0  0  0
  1  2  1  0  0  0  0
  1 32  1  0  0  0  0
  1 33  1  0  0  0  0
  1 34  1  0  0  0  0
  2  3  1  0  0  0  0
  3  4  1  0  0  0  0
  3 29  2  0  0  0  0
  4  5  2  0  0  0  0
  4 35  1  0  0  0  0
  5  6  1  0  0  0  0
  5 27  1  0  0  0  0
  6  7  2  0  0  0  0
  7  8  1  0  0  0  0
  7 36  1  0  0  0  0
  8  9  2  0  0  0  0
  9 10  1  0  0  0  0
  9 27  1  0  0  0  0
 10 11  1  0  0  0  0
 10 37  1  0  0  0  0
 11 12  1  0  0  0  0
 11 26  2  0  0  0  0
 12 13  2  0  0  0  0
 12 38  1  0  0  0  0
 13 14  1  0  0  0  0
 13 39  1  0  0  0  0
 14 15  1  0  0  0  0
 14 24  2  0  0  0  0
 15 16  2  0  0  0  0
 15 23  1  0  0  0  0
 16 17  1  0  0  0  0
 17 18  1  0  0  0  0
 17 22  2  0  0  0  0
 18 19  2  0  0  0  0
 18 40  1  0  0  0  0
 19 20  1  0  0  0  0
 19 41  1  0  0  0  0
 20 21  2  0  0  0  0
 20 42  1  0  0  0  0
 21 22  1  0  0  0  0
 21 43  1  0  0  0  0
 22 23  1  0  0  0  0
 24 25  1  0  0  0  0
 24 26  1  0  0  0  0
 25 44  1  0  0  0  0
 26 45  1  0  0  0  0
 27 28  2  0  0  0  0
 28 29  1  0  0  0  0
 28 46  1  0  0  0  0
 29 30  1  0  0  0  0
 30 31  1  0  0  0  0
 31 47  1  0  0  0  0
 31 48  1  0  0  0  0
 31 49  1  0  0  0  0
M  END
$$$$
