CHEMBL2409784
 OpenBabel04072215363D

 55 59  0  0  0  0  0  0  0  0999 V2000
    2.5679    0.8968   -0.2690 C   0  0  0  0  0  0  0  0  0  0  0  0
    2.5742   -0.5862   -0.4429 C   0  0  0  0  0  0  0  0  0  0  0  0
    3.6032   -1.4066   -0.2904 N   0  0  0  0  0  0  0  0  0  0  0  0
    3.2039   -2.7367   -0.5610 C   0  0  0  0  0  0  0  0  0  0  0  0
    4.1365   -3.9045   -0.4945 C   0  0  0  0  0  0  0  0  0  0  0  0
    3.7439   -5.0078   -0.8220 O   0  0  0  0  0  0  0  0  0  0  0  0
    5.4211   -3.6516   -0.0367 N   0  0  0  0  0  0  0  0  0  0  0  0
    6.4792   -4.6203    0.0645 C   0  0  0  0  0  0  0  0  0  0  0  0
    6.4251   -5.8731   -0.5779 C   0  0  0  0  0  0  0  0  0  0  0  0
    7.4723   -6.8148   -0.4739 C   0  0  0  0  0  0  0  0  0  0  0  0
    7.2289   -8.0748   -0.9570 O   0  0  0  0  0  0  0  0  0  0  0  0
    8.1848   -8.8502   -1.5763 C   0  0  0  0  0  0  0  0  0  0  0  0
    7.8933  -10.2764   -1.5067 C   0  0  0  0  0  0  0  0  0  0  0  0
    8.3100  -11.1166   -2.4733 C   0  0  0  0  0  0  0  0  0  0  0  0
    9.4421  -10.7137   -3.2441 C   0  0  0  0  0  0  0  0  0  0  0  0
   10.3179  -11.4301   -3.9079 N   0  0  0  0  0  0  0  0  0  0  0  0
   11.2598  -10.5119   -4.2543 C   0  0  0  0  0  0  0  0  0  0  0  0
   12.4289  -10.8225   -4.9027 N   0  0  0  0  0  0  0  0  0  0  0  0
   12.9389  -12.0888   -5.0222 C   0  0  0  0  0  0  0  0  0  0  0  0
   12.4773  -13.1209   -4.5614 O   0  0  0  0  0  0  0  0  0  0  0  0
   14.2363  -12.2004   -5.7692 C   0  0  0  0  0  0  0  0  0  0  0  0
   14.9833  -11.0852   -6.4569 C   0  0  0  0  0  0  0  0  0  0  0  0
   14.2099  -12.0767   -7.2761 C   0  0  0  0  0  0  0  0  0  0  0  0
   10.9701   -9.2408   -3.9386 N   0  0  0  0  0  0  0  0  0  0  0  0
    9.8565   -9.3954   -3.1627 N   0  0  0  0  0  0  0  0  0  0  0  0
    9.1769   -8.4333   -2.3937 C   0  0  0  0  0  0  0  0  0  0  0  0
    8.6071   -6.5083    0.2493 C   0  0  0  0  0  0  0  0  0  0  0  0
    8.6797   -5.2710    0.8960 C   0  0  0  0  0  0  0  0  0  0  0  0
    7.6167   -4.3444    0.8494 C   0  0  0  0  0  0  0  0  0  0  0  0
    7.7266   -3.1212    1.7217 C   0  0  0  0  0  0  0  0  0  0  0  0
    1.8550   -2.8556   -0.8935 C   0  0  0  0  0  0  0  0  0  0  0  0
    1.0111   -4.0413   -1.2258 C   0  0  0  0  0  0  0  0  0  0  0  0
    1.0913   -1.3261   -0.8752 S   0  0  0  0  0  0  0  0  0  0  0  0
    3.5770    1.2912   -0.1346 H   0  0  0  0  0  0  0  0  0  0  0  0
    1.9668    1.1776    0.6045 H   0  0  0  0  0  0  0  0  0  0  0  0
    2.1270    1.3908   -1.1451 H   0  0  0  0  0  0  0  0  0  0  0  0
    5.5863   -2.7092    0.3025 H   0  0  0  0  0  0  0  0  0  0  0  0
    5.5687   -6.1720   -1.1706 H   0  0  0  0  0  0  0  0  0  0  0  0
    7.3197  -10.6484   -0.6674 H   0  0  0  0  0  0  0  0  0  0  0  0
    7.9387  -12.1285   -2.5694 H   0  0  0  0  0  0  0  0  0  0  0  0
   12.9529  -10.0224   -5.2024 H   0  0  0  0  0  0  0  0  0  0  0  0
   14.8629  -12.9953   -5.3672 H   0  0  0  0  0  0  0  0  0  0  0  0
   16.0662  -11.1534   -6.4879 H   0  0  0  0  0  0  0  0  0  0  0  0
   14.6254  -10.0656   -6.4260 H   0  0  0  0  0  0  0  0  0  0  0  0
   14.7577  -12.8158   -7.8492 H   0  0  0  0  0  0  0  0  0  0  0  0
   13.2918  -11.7439   -7.7480 H   0  0  0  0  0  0  0  0  0  0  0  0
    9.4459   -7.4041   -2.5600 H   0  0  0  0  0  0  0  0  0  0  0  0
    9.4079   -7.2302    0.3704 H   0  0  0  0  0  0  0  0  0  0  0  0
    9.5692   -5.0649    1.4907 H   0  0  0  0  0  0  0  0  0  0  0  0
    8.5188   -3.2415    2.4696 H   0  0  0  0  0  0  0  0  0  0  0  0
    6.7990   -2.9702    2.2827 H   0  0  0  0  0  0  0  0  0  0  0  0
    7.9494   -2.2357    1.1219 H   0  0  0  0  0  0  0  0  0  0  0  0
    1.5812   -4.9462   -1.4316 H   0  0  0  0  0  0  0  0  0  0  0  0
    0.4088   -3.8465   -2.1201 H   0  0  0  0  0  0  0  0  0  0  0  0
    0.3317   -4.2579   -0.3949 H   0  0  0  0  0  0  0  0  0  0  0  0
  1  2  1  0  0  0  0
  1 34  1  0  0  0  0
  1 35  1  0  0  0  0
  1 36  1  0  0  0  0
  2  3  2  0  0  0  0
  2 33  1  0  0  0  0
  3  4  1  0  0  0  0
  4  5  1  0  0  0  0
  4 31  2  0  0  0  0
  5  6  2  0  0  0  0
  5  7  1  0  0  0  0
  7  8  1  0  0  0  0
  7 37  1  0  0  0  0
  8  9  1  0  0  0  0
  8 29  2  0  0  0  0
  9 10  2  0  0  0  0
  9 38  1  0  0  0  0
 10 11  1  0  0  0  0
 10 27  1  0  0  0  0
 11 12  1  0  0  0  0
 12 13  1  0  0  0  0
 12 26  2  0  0  0  0
 13 14  2  0  0  0  0
 13 39  1  0  0  0  0
 14 15  1  0  0  0  0
 14 40  1  0  0  0  0
 15 16  2  0  0  0  0
 15 25  1  0  0  0  0
 16 17  1  0  0  0  0
 17 18  1  0  0  0  0
 17 24  2  0  0  0  0
 18 19  1  0  0  0  0
 18 41  1  0  0  0  0
 19 20  2  0  0  0  0
 19 21  1  0  0  0  0
 21 22  1  0  0  0  0
 21 23  1  0  0  0  0
 21 42  1  0  0  0  0
 22 23  1  0  0  0  0
 22 43  1  0  0  0  0
 22 44  1  0  0  0  0
 23 45  1  0  0  0  0
 23 46  1  0  0  0  0
 24 25  1  0  0  0  0
 25 26  1  0  0  0  0
 26 47  1  0  0  0  0
 27 28  2  0  0  0  0
 27 48  1  0  0  0  0
 28 29  1  0  0  0  0
 28 49  1  0  0  0  0
 29 30  1  0  0  0  0
 30 50  1  0  0  0  0
 30 51  1  0  0  0  0
 30 52  1  0  0  0  0
 31 32  1  0  0  0  0
 31 33  1  0  0  0  0
 32 53  1  0  0  0  0
 32 54  1  0  0  0  0
 32 55  1  0  0  0  0
M  END
$$$$
