CHEMBL1230020
 OpenBabel04072215363D

 41 43  0  0  0  0  0  0  0  0999 V2000
    2.7348    0.1140   -1.5825 C   0  0  0  0  0  0  0  0  0  0  0  0
    3.3656   -0.6214   -0.4096 C   0  0  0  0  0  0  0  0  0  0  0  0
    4.0780    0.3212    0.5610 C   0  0  0  0  0  0  0  0  0  0  0  0
    4.8225   -0.6055    1.9125 S   0  0  0  0  0  0  0  0  0  0  0  0
    3.7581   -1.2519    2.6476 O   0  0  0  0  0  0  0  0  0  0  0  0
    5.9588   -1.3378    1.3982 O   0  0  0  0  0  0  0  0  0  0  0  0
    5.3659    0.6478    2.9366 N   0  0  0  0  0  0  0  0  0  0  0  0
    6.7811    0.6640    3.2090 C   0  0  0  0  0  0  0  0  0  0  0  0
    7.6251    1.3229    2.3183 C   0  0  0  0  0  0  0  0  0  0  0  0
    9.0023    1.2892    2.5255 C   0  0  0  0  0  0  0  0  0  0  0  0
    9.5305    0.5865    3.6100 C   0  0  0  0  0  0  0  0  0  0  0  0
   10.8654    0.5346    3.7137 F   0  0  0  0  0  0  0  0  0  0  0  0
    8.7045   -0.0586    4.5325 C   0  0  0  0  0  0  0  0  0  0  0  0
    9.2709   -0.8141    5.6817 C   0  0  0  0  0  0  0  0  0  0  0  0
    8.7114   -1.8477    6.0372 O   0  0  0  0  0  0  0  0  0  0  0  0
   10.4860   -0.3445    6.3597 C   0  0  0  0  0  0  0  0  0  0  0  0
   10.9135    0.9721    6.4921 C   0  0  0  0  0  0  0  0  0  0  0  0
   12.1078    0.9814    7.1656 N   0  0  0  0  0  0  0  0  0  0  0  0
   12.4481   -0.2896    7.5245 C   0  0  0  0  0  0  0  0  0  0  0  0
   13.5613   -0.6026    8.2141 N   0  0  0  0  0  0  0  0  0  0  0  0
   13.6753   -1.9327    8.4492 C   0  0  0  0  0  0  0  0  0  0  0  0
   12.7721   -2.9032    8.0360 C   0  0  0  0  0  0  0  0  0  0  0  0
   13.0507   -4.5598    8.4025 Cl  0  0  0  0  0  0  0  0  0  0  0  0
   11.6359   -2.5228    7.3172 C   0  0  0  0  0  0  0  0  0  0  0  0
   11.4605   -1.1498    7.0512 C   0  0  0  0  0  0  0  0  0  0  0  0
    7.3213   -0.0311    4.3069 C   0  0  0  0  0  0  0  0  0  0  0  0
    6.4721   -0.6326    5.1541 F   0  0  0  0  0  0  0  0  0  0  0  0
    2.2325   -0.5977   -2.2466 H   0  0  0  0  0  0  0  0  0  0  0  0
    3.4904    0.6452   -2.1696 H   0  0  0  0  0  0  0  0  0  0  0  0
    1.9885    0.8381   -1.2410 H   0  0  0  0  0  0  0  0  0  0  0  0
    4.0721   -1.3660   -0.7945 H   0  0  0  0  0  0  0  0  0  0  0  0
    2.5825   -1.1775    0.1194 H   0  0  0  0  0  0  0  0  0  0  0  0
    3.3673    1.0306    0.9963 H   0  0  0  0  0  0  0  0  0  0  0  0
    4.8798    0.8682    0.0556 H   0  0  0  0  0  0  0  0  0  0  0  0
    4.8076    0.5669    3.7951 H   0  0  0  0  0  0  0  0  0  0  0  0
    7.2209    1.8567    1.4628 H   0  0  0  0  0  0  0  0  0  0  0  0
    9.6777    1.7927    1.8405 H   0  0  0  0  0  0  0  0  0  0  0  0
   10.4869    1.9046    6.1488 H   0  0  0  0  0  0  0  0  0  0  0  0
   12.6752    1.7893    7.3823 H   0  0  0  0  0  0  0  0  0  0  0  0
   14.5642   -2.2121    9.0112 H   0  0  0  0  0  0  0  0  0  0  0  0
   10.9138   -3.2551    6.9754 H   0  0  0  0  0  0  0  0  0  0  0  0
  1  2  1  0  0  0  0
  1 28  1  0  0  0  0
  1 29  1  0  0  0  0
  1 30  1  0  0  0  0
  2  3  1  0  0  0  0
  2 31  1  0  0  0  0
  2 32  1  0  0  0  0
  3  4  1  0  0  0  0
  3 33  1  0  0  0  0
  3 34  1  0  0  0  0
  4  5  2  0  0  0  0
  4  6  2  0  0  0  0
  4  7  1  0  0  0  0
  7  8  1  0  0  0  0
  7 35  1  0  0  0  0
  8  9  1  0  0  0  0
  8 26  2  0  0  0  0
  9 10  2  0  0  0  0
  9 36  1  0  0  0  0
 10 11  1  0  0  0  0
 10 37  1  0  0  0  0
 11 12  1  0  0  0  0
 11 13  2  0  0  0  0
 13 14  1  0  0  0  0
 13 26  1  0  0  0  0
 14 15  2  0  0  0  0
 14 16  1  0  0  0  0
 16 17  2  0  0  0  0
 16 25  1  0  0  0  0
 17 18  1  0  0  0  0
 17 38  1  0  0  0  0
 18 19  1  0  0  0  0
 18 39  1  0  0  0  0
 19 20  1  0  0  0  0
 19 25  2  0  0  0  0
 20 21  2  0  0  0  0
 21 22  1  0  0  0  0
 21 40  1  0  0  0  0
 22 23  1  0  0  0  0
 22 24  2  0  0  0  0
 24 25  1  0  0  0  0
 24 41  1  0  0  0  0
 26 27  1  0  0  0  0
M  END
$$$$
