CHEMBL2403378
 OpenBabel04072215363D

 42 45  0  0  0  0  0  0  0  0999 V2000
    1.3720   -0.4025   -0.6207 C   0  0  0  0  0  0  0  0  0  0  0  0
    2.5114    0.1861    0.1772 C   0  0  0  0  0  0  0  0  0  0  0  0
    2.8936    1.3345   -0.0522 O   0  0  0  0  0  0  0  0  0  0  0  0
    3.0922   -0.6228    1.1568 N   0  0  0  0  0  0  0  0  0  0  0  0
    2.7675   -2.0617    1.2507 C   0  0  0  0  0  0  0  0  0  0  0  0
    3.4046   -2.9275    2.3584 C   0  0  0  0  0  0  0  0  0  0  0  0
    4.4493   -2.1994    3.1011 C   0  0  0  0  0  0  0  0  0  0  0  0
    5.2016   -2.7147    4.1222 N   0  0  0  0  0  0  0  0  0  0  0  0
    6.0973   -1.7588    4.5428 C   0  0  0  0  0  0  0  0  0  0  0  0
    7.0228   -2.0759    5.5621 C   0  0  0  0  0  0  0  0  0  0  0  0
    8.2293   -2.6027    5.3017 C   0  0  0  0  0  0  0  0  0  0  0  0
    8.7728   -3.0038    3.9467 C   0  0  0  0  0  0  0  0  0  0  0  0
    8.2127   -3.0423    2.8700 O   0  0  0  0  0  0  0  0  0  0  0  0
   10.0844   -3.3851    4.1891 N   0  0  0  0  0  0  0  0  0  0  0  0
   10.4005   -3.3070    5.5361 C   0  0  0  0  0  0  0  0  0  0  0  0
   11.6144   -3.6343    6.1083 C   0  0  0  0  0  0  0  0  0  0  0  0
   11.7269   -3.5088    7.4927 C   0  0  0  0  0  0  0  0  0  0  0  0
   10.6243   -3.0614    8.2589 C   0  0  0  0  0  0  0  0  0  0  0  0
   10.7702   -2.9543    9.7180 N   0  3  0  0  0  0  0  0  0  0  0  0
   11.8629   -3.2576   10.2148 O   0  0  0  0  0  0  0  0  0  0  0  0
    9.7866   -2.5694   10.3638 O   0  5  0  0  0  0  0  0  0  0  0  0
    9.3965   -2.7245    7.6561 C   0  0  0  0  0  0  0  0  0  0  0  0
    9.3014   -2.8523    6.2784 C   0  0  0  0  0  0  0  0  0  0  0  0
    5.8790   -0.6203    3.7893 C   0  0  0  0  0  0  0  0  0  0  0  0
    4.8514   -0.9109    2.8529 C   0  0  0  0  0  0  0  0  0  0  0  0
    4.3151   -0.0665    1.7573 C   0  0  0  0  0  0  0  0  0  0  0  0
    1.0316    0.3309   -1.3588 H   0  0  0  0  0  0  0  0  0  0  0  0
    0.5327   -0.6410    0.0361 H   0  0  0  0  0  0  0  0  0  0  0  0
    1.7011   -1.2913   -1.1652 H   0  0  0  0  0  0  0  0  0  0  0  0
    2.9976   -2.5120    0.2775 H   0  0  0  0  0  0  0  0  0  0  0  0
    1.6779   -2.1322    1.3624 H   0  0  0  0  0  0  0  0  0  0  0  0
    3.8295   -3.8295    1.9008 H   0  0  0  0  0  0  0  0  0  0  0  0
    2.6251   -3.2672    3.0505 H   0  0  0  0  0  0  0  0  0  0  0  0
    5.1452   -3.6602    4.4743 H   0  0  0  0  0  0  0  0  0  0  0  0
    6.7468   -1.7994    6.5776 H   0  0  0  0  0  0  0  0  0  0  0  0
   10.6918   -3.7056    3.4499 H   0  0  0  0  0  0  0  0  0  0  0  0
   12.4515   -3.9782    5.5087 H   0  0  0  0  0  0  0  0  0  0  0  0
   12.6741   -3.7636    7.9683 H   0  0  0  0  0  0  0  0  0  0  0  0
    8.5516   -2.3777    8.2434 H   0  0  0  0  0  0  0  0  0  0  0  0
    6.4364    0.3038    3.8680 H   0  0  0  0  0  0  0  0  0  0  0  0
    5.0667    0.0296    0.9646 H   0  0  0  0  0  0  0  0  0  0  0  0
    4.0903    0.9394    2.1315 H   0  0  0  0  0  0  0  0  0  0  0  0
  1  2  1  0  0  0  0
  1 27  1  0  0  0  0
  1 28  1  0  0  0  0
  1 29  1  0  0  0  0
  2  3  2  0  0  0  0
  2  4  1  0  0  0  0
  4  5  1  0  0  0  0
  4 26  1  0  0  0  0
  5  6  1  0  0  0  0
  5 30  1  0  0  0  0
  5 31  1  0  0  0  0
  6  7  1  0  0  0  0
  6 32  1  0  0  0  0
  6 33  1  0  0  0  0
  7  8  1  0  0  0  0
  7 25  2  0  0  0  0
  8  9  1  0  0  0  0
  8 34  1  0  0  0  0
  9 10  1  0  0  0  0
  9 24  2  0  0  0  0
 10 11  2  0  0  0  0
 10 35  1  0  0  0  0
 11 12  1  0  0  0  0
 11 23  1  0  0  0  0
 12 13  2  0  0  0  0
 12 14  1  0  0  0  0
 14 15  1  0  0  0  0
 14 36  1  0  0  0  0
 15 16  1  0  0  0  0
 15 23  2  0  0  0  0
 16 17  2  0  0  0  0
 16 37  1  0  0  0  0
 17 18  1  0  0  0  0
 17 38  1  0  0  0  0
 18 19  1  0  0  0  0
 18 22  2  0  0  0  0
 19 20  2  0  0  0  0
 19 21  1  0  0  0  0
 22 23  1  0  0  0  0
 22 39  1  0  0  0  0
 24 25  1  0  0  0  0
 24 40  1  0  0  0  0
 25 26  1  0  0  0  0
 26 41  1  0  0  0  0
 26 42  1  0  0  0  0
M  CHG  2  19   1  21  -1
M  END
$$$$
