CHEMBL3910921
 OpenBabel04072215373D

 80 84  0  0  1  0  0  0  0  0999 V2000
    0.4451    0.5705    2.4991 C   0  0  0  0  0  0  0  0  0  0  0  0
    1.7141    0.3665    1.9043 O   0  0  0  0  0  0  0  0  0  0  0  0
    2.6228    1.4019    1.9476 C   0  0  0  0  0  0  0  0  0  0  0  0
    3.6398    1.3577    1.0740 C   0  0  0  0  0  0  0  0  0  0  0  0
    4.8584    2.2185    1.1869 C   0  0  3  0  0  0  0  0  0  0  0  0
    6.1089    1.2847    1.4969 N   0  0  0  0  0  0  0  0  0  0  0  0
    7.3442    2.1092    1.3536 C   0  0  0  0  0  0  0  0  0  0  0  0
    7.9537    1.7917   -0.0184 C   0  0  0  0  0  0  0  0  0  0  0  0
    9.2190    2.4477   -0.4115 N   0  0  0  0  0  0  0  0  0  0  0  0
   10.3050    2.2291    0.5916 C   0  0  0  0  0  0  0  0  0  0  0  0
   10.7191    0.7866    0.8892 C   0  0  0  0  0  0  0  0  0  0  0  0
    9.9569    0.0323    1.8059 C   0  0  0  0  0  0  0  0  0  0  0  0
   10.1080   -1.3451    1.9488 C   0  0  0  0  0  0  0  0  0  0  0  0
   11.0528   -1.9967    1.1766 C   0  0  0  0  0  0  0  0  0  0  0  0
   11.8978   -1.2441    0.3649 C   0  0  0  0  0  0  0  0  0  0  0  0
   11.8090    0.1460    0.2780 C   0  0  0  0  0  0  0  0  0  0  0  0
   12.7002    0.8057   -0.5856 N   0  0  0  0  0  0  0  0  0  0  0  0
    9.5814    2.0328   -1.8015 C   0  0  0  0  0  0  0  0  0  0  0  0
    8.4513    2.2800   -2.8327 C   0  0  0  0  0  0  0  0  0  0  0  0
   10.7975    2.7773   -2.3679 C   0  0  0  0  0  0  0  0  0  0  0  0
    6.1004    0.4005    2.6106 C   0  0  0  0  0  0  0  0  0  0  0  0
    5.3808    0.9043    3.6664 C   0  0  0  0  0  0  0  0  0  0  0  0
    5.0885    0.2474    4.7867 C   0  0  0  0  0  0  0  0  0  0  0  0
    5.7946   -0.8284    5.1138 C   0  0  0  0  0  0  0  0  0  0  0  0
    5.4910   -0.8827    6.3303 N   0  0  0  0  0  0  0  0  0  0  0  0
    5.1638   -2.0544    6.7810 C   0  0  0  0  0  0  0  0  0  0  0  0
    5.6411   -3.2228    6.2804 C   0  0  0  0  0  0  0  0  0  0  0  0
    5.0879   -4.3189    7.1955 C   0  0  0  0  0  0  0  0  0  0  0  0
    3.7553   -4.1732    7.7906 C   0  0  0  0  0  0  0  0  0  0  0  0
    3.6124   -4.6625    9.0156 N   0  0  0  0  0  0  0  0  0  0  0  0
    4.7977   -5.2185    9.2718 N   0  0  0  0  0  0  0  0  0  0  0  0
    4.9103   -5.8991   10.5498 C   0  0  0  0  0  0  0  0  0  0  0  0
    5.7284   -4.9911    8.2551 C   0  0  0  0  0  0  0  0  0  0  0  0
    6.3009   -3.1443    5.0146 N   0  0  0  0  0  0  0  0  0  0  0  0
    6.3008   -1.7914    4.2324 C   0  0  0  0  0  0  0  0  0  0  0  0
    6.5780   -0.9569    2.8863 C   0  0  0  0  0  0  0  0  0  0  0  0
    4.5885    3.5096    2.0948 C   0  0  0  0  0  0  0  0  0  0  0  0
    3.5036    3.3499    3.1663 C   0  0  0  0  0  0  0  0  0  0  0  0
    3.6271    3.9559    4.4147 O   0  0  0  0  0  0  0  0  0  0  0  0
    4.4144    5.1333    4.5326 C   0  0  0  0  0  0  0  0  0  0  0  0
    2.6203    2.3374    3.0634 C   0  0  0  0  0  0  0  0  0  0  0  0
   -0.1684   -0.3020    2.2600 H   0  0  0  0  0  0  0  0  0  0  0  0
   -0.0331    1.4608    2.0832 H   0  0  0  0  0  0  0  0  0  0  0  0
    0.5152    0.6280    3.5894 H   0  0  0  0  0  0  0  0  0  0  0  0
    3.6531    0.6090    0.2921 H   0  0  0  0  0  0  0  0  0  0  0  0
    5.0527    2.6339    0.1883 H   0  0  0  0  0  0  0  0  0  0  0  0
    8.0091    1.9999    2.2107 H   0  0  0  0  0  0  0  0  0  0  0  0
    7.1178    3.1823    1.3476 H   0  0  0  0  0  0  0  0  0  0  0  0
    7.1772    2.1309   -0.7129 H   0  0  0  0  0  0  0  0  0  0  0  0
    8.0248    0.7062   -0.1424 H   0  0  0  0  0  0  0  0  0  0  0  0
    9.9943    2.6944    1.5377 H   0  0  0  0  0  0  0  0  0  0  0  0
   11.1774    2.8321    0.3264 H   0  0  0  0  0  0  0  0  0  0  0  0
    9.1920    0.5033    2.4157 H   0  0  0  0  0  0  0  0  0  0  0  0
    9.4618   -1.8993    2.6095 H   0  0  0  0  0  0  0  0  0  0  0  0
   11.1269   -3.0749    1.2130 H   0  0  0  0  0  0  0  0  0  0  0  0
   12.6600   -1.7798   -0.2056 H   0  0  0  0  0  0  0  0  0  0  0  0
   13.5775    0.3114   -0.7184 H   0  0  0  0  0  0  0  0  0  0  0  0
   12.8755    1.7646   -0.3065 H   0  0  0  0  0  0  0  0  0  0  0  0
    9.7891    0.9557   -1.8072 H   0  0  0  0  0  0  0  0  0  0  0  0
    8.1841    3.3425   -2.8794 H   0  0  0  0  0  0  0  0  0  0  0  0
    7.5445    1.7036   -2.6298 H   0  0  0  0  0  0  0  0  0  0  0  0
    8.7739    1.9726   -3.8341 H   0  0  0  0  0  0  0  0  0  0  0  0
   10.5978    3.8476   -2.4776 H   0  0  0  0  0  0  0  0  0  0  0  0
   11.0502    2.3753   -3.3568 H   0  0  0  0  0  0  0  0  0  0  0  0
   11.6915    2.6791   -1.7609 H   0  0  0  0  0  0  0  0  0  0  0  0
    4.9561    1.8508    3.6393 H   0  0  0  0  0  0  0  0  0  0  0  0
    4.3226    0.6511    5.4227 H   0  0  0  0  0  0  0  0  0  0  0  0
    4.3014   -1.9543    7.4331 H   0  0  0  0  0  0  0  0  0  0  0  0
    2.9382   -3.5447    7.4522 H   0  0  0  0  0  0  0  0  0  0  0  0
    4.0379   -5.6466   11.1747 H   0  0  0  0  0  0  0  0  0  0  0  0
    5.8097   -5.5899   11.0839 H   0  0  0  0  0  0  0  0  0  0  0  0
    4.8892   -6.9756   10.3684 H   0  0  0  0  0  0  0  0  0  0  0  0
    6.7566   -5.2771    8.4266 H   0  0  0  0  0  0  0  0  0  0  0  0
    7.1335   -1.4604    2.0919 H   0  0  0  0  0  0  0  0  0  0  0  0
    4.2248    4.3232    1.4496 H   0  0  0  0  0  0  0  0  0  0  0  0
    5.5260    3.8611    2.5321 H   0  0  0  0  0  0  0  0  0  0  0  0
    4.3381    5.4891    5.5669 H   0  0  0  0  0  0  0  0  0  0  0  0
    4.0273    5.9117    3.8722 H   0  0  0  0  0  0  0  0  0  0  0  0
    5.4753    4.9425    4.3441 H   0  0  0  0  0  0  0  0  0  0  0  0
    2.0265    2.1010    3.9418 H   0  0  0  0  0  0  0  0  0  0  0  0
  1  2  1  0  0  0  0
  1 42  1  0  0  0  0
  1 43  1  0  0  0  0
  1 44  1  0  0  0  0
  2  3  1  0  0  0  0
  3  4  2  0  0  0  0
  3 41  1  0  0  0  0
  4  5  1  0  0  0  0
  4 45  1  0  0  0  0
  5  6  1  0  0  0  0
  5 37  1  0  0  0  0
  5 46  1  0  0  0  0
  6  7  1  0  0  0  0
  6 21  1  0  0  0  0
  7  8  1  0  0  0  0
  7 47  1  0  0  0  0
  7 48  1  0  0  0  0
  8  9  1  0  0  0  0
  8 49  1  0  0  0  0
  8 50  1  0  0  0  0
  9 10  1  0  0  0  0
  9 18  1  0  0  0  0
 10 11  1  0  0  0  0
 10 51  1  0  0  0  0
 10 52  1  0  0  0  0
 11 12  1  0  0  0  0
 11 16  2  0  0  0  0
 12 13  2  0  0  0  0
 12 53  1  0  0  0  0
 13 14  1  0  0  0  0
 13 54  1  0  0  0  0
 14 15  2  0  0  0  0
 14 55  1  0  0  0  0
 15 16  1  0  0  0  0
 15 56  1  0  0  0  0
 16 17  1  0  0  0  0
 17 57  1  0  0  0  0
 17 58  1  0  0  0  0
 18 19  1  0  0  0  0
 18 20  1  0  0  0  0
 18 59  1  0  0  0  0
 19 60  1  0  0  0  0
 19 61  1  0  0  0  0
 19 62  1  0  0  0  0
 20 63  1  0  0  0  0
 20 64  1  0  0  0  0
 20 65  1  0  0  0  0
 21 22  1  0  0  0  0
 21 36  2  0  0  0  0
 22 23  2  0  0  0  0
 22 66  1  0  0  0  0
 23 24  1  0  0  0  0
 23 67  1  0  0  0  0
 24 25  1  0  0  0  0
 24 35  2  0  0  0  0
 25 26  2  0  0  0  0
 26 27  1  0  0  0  0
 26 68  1  0  0  0  0
 27 28  1  0  0  0  0
 27 34  2  0  0  0  0
 28 29  1  0  0  0  0
 28 33  2  0  0  0  0
 29 30  2  0  0  0  0
 29 69  1  0  0  0  0
 30 31  1  0  0  0  0
 31 32  1  0  0  0  0
 31 33  1  0  0  0  0
 32 70  1  0  0  0  0
 32 71  1  0  0  0  0
 32 72  1  0  0  0  0
 33 73  1  0  0  0  0
 34 35  1  0  0  0  0
 35 36  1  0  0  0  0
 36 74  1  0  0  0  0
 37 38  1  0  0  0  0
 37 75  1  0  0  0  0
 37 76  1  0  0  0  0
 38 39  1  0  0  0  0
 38 41  2  0  0  0  0
 39 40  1  0  0  0  0
 40 77  1  0  0  0  0
 40 78  1  0  0  0  0
 40 79  1  0  0  0  0
 41 80  1  0  0  0  0
M  END
$$$$
