CHEMBL3925803
 OpenBabel04072215373D

 58 61  0  0  1  0  0  0  0  0999 V2000
    2.9560    0.8563   -0.8179 C   0  0  0  0  0  0  0  0  0  0  0  0
    2.4677   -0.2992   -0.1279 O   0  0  0  0  0  0  0  0  0  0  0  0
    3.2002   -0.8443    0.8904 C   0  0  0  0  0  0  0  0  0  0  0  0
    4.3212   -0.2141    1.4420 C   0  0  0  0  0  0  0  0  0  0  0  0
    5.1036   -0.8302    2.4400 C   0  0  0  0  0  0  0  0  0  0  0  0
    6.2448   -0.2542    3.0103 C   0  0  0  0  0  0  0  0  0  0  0  0
    6.6084    1.0661    2.6316 N   0  0  0  0  0  0  0  0  0  0  0  0
    7.8998    1.5931    2.8067 C   0  0  0  0  0  0  0  0  0  0  0  0
    9.0214    0.8535    2.4076 C   0  0  0  0  0  0  0  0  0  0  0  0
   10.3094    1.3111    2.6692 C   0  0  0  0  0  0  0  0  0  0  0  0
   10.4915    2.5267    3.3273 C   0  0  0  0  0  0  0  0  0  0  0  0
   12.1090    3.0003    3.6993 Cl  0  0  0  0  0  0  0  0  0  0  0  0
    9.3779    3.3017    3.6788 C   0  0  0  0  0  0  0  0  0  0  0  0
    9.5301    4.8241    4.4824 Cl  0  0  0  0  0  0  0  0  0  0  0  0
    8.0852    2.8396    3.4060 C   0  0  0  0  0  0  0  0  0  0  0  0
    6.9993   -0.9057    3.9154 N   0  0  0  0  0  0  0  0  0  0  0  0
    6.6076   -2.1341    4.2538 C   0  0  0  0  0  0  0  0  0  0  0  0
    5.5281   -2.7675    3.7896 N   0  0  0  0  0  0  0  0  0  0  0  0
    4.7914   -2.1117    2.8839 C   0  0  0  0  0  0  0  0  0  0  0  0
    3.6562   -2.7111    2.3739 C   0  0  0  0  0  0  0  0  0  0  0  0
    2.8215   -2.0893    1.4232 C   0  0  0  0  0  0  0  0  0  0  0  0
    1.6241   -2.6816    1.0321 O   0  0  0  0  0  0  0  0  0  0  0  0
    1.1344   -3.6226    2.0111 C   0  0  0  0  0  0  0  0  0  0  0  0
   -0.3519   -3.9852    1.9121 C   0  0  3  0  0  0  0  0  0  0  0  0
   -0.6402   -4.8774    0.6934 C   0  0  0  0  0  0  0  0  0  0  0  0
   -1.9233   -5.6467    0.8511 N   0  0  0  0  0  0  0  0  0  0  0  0
   -2.0220   -6.6949    2.1888 S   0  0  0  0  0  0  0  0  0  0  0  0
   -3.0999   -8.0006    1.6389 C   0  0  0  0  0  0  0  0  0  0  0  0
   -0.7065   -7.2646    2.3924 O   0  0  0  0  0  0  0  0  0  0  0  0
   -2.6978   -5.9951    3.2593 O   0  0  0  0  0  0  0  0  0  0  0  0
   -3.1372   -4.9021    0.4456 C   0  0  0  0  0  0  0  0  0  0  0  0
   -3.1254   -3.3994    0.7232 C   0  0  0  0  0  0  0  0  0  0  0  0
   -2.5291   -2.9764    2.0559 C   0  0  0  0  0  0  0  0  0  0  0  0
   -1.1226   -2.7796    1.9398 O   0  0  0  0  0  0  0  0  0  0  0  0
    2.8887    0.6728   -1.8944 H   0  0  0  0  0  0  0  0  0  0  0  0
    3.9987    1.1320   -0.6375 H   0  0  0  0  0  0  0  0  0  0  0  0
    2.3211    1.7136   -0.5731 H   0  0  0  0  0  0  0  0  0  0  0  0
    4.6272    0.7753    1.1226 H   0  0  0  0  0  0  0  0  0  0  0  0
    5.8679    1.7047    2.9045 H   0  0  0  0  0  0  0  0  0  0  0  0
    8.8866   -0.1063    1.9111 H   0  0  0  0  0  0  0  0  0  0  0  0
   11.1587    0.6985    2.3791 H   0  0  0  0  0  0  0  0  0  0  0  0
    7.2290    3.4405    3.7000 H   0  0  0  0  0  0  0  0  0  0  0  0
    7.2150   -2.6596    4.9798 H   0  0  0  0  0  0  0  0  0  0  0  0
    3.4560   -3.7101    2.7502 H   0  0  0  0  0  0  0  0  0  0  0  0
    1.2617   -3.1966    3.0163 H   0  0  0  0  0  0  0  0  0  0  0  0
    1.7155   -4.5495    1.9244 H   0  0  0  0  0  0  0  0  0  0  0  0
   -0.5636   -4.5318    2.8374 H   0  0  0  0  0  0  0  0  0  0  0  0
    0.1595   -5.6122    0.5401 H   0  0  0  0  0  0  0  0  0  0  0  0
   -0.6866   -4.2802   -0.2245 H   0  0  0  0  0  0  0  0  0  0  0  0
   -2.6138   -8.5638    0.8428 H   0  0  0  0  0  0  0  0  0  0  0  0
   -4.0538   -7.5840    1.3156 H   0  0  0  0  0  0  0  0  0  0  0  0
   -3.2744   -8.6533    2.5002 H   0  0  0  0  0  0  0  0  0  0  0  0
   -4.0277   -5.3461    0.9010 H   0  0  0  0  0  0  0  0  0  0  0  0
   -3.2578   -5.0513   -0.6357 H   0  0  0  0  0  0  0  0  0  0  0  0
   -4.1634   -3.0497    0.6702 H   0  0  0  0  0  0  0  0  0  0  0  0
   -2.5859   -2.8887   -0.0844 H   0  0  0  0  0  0  0  0  0  0  0  0
   -2.7777   -3.6409    2.8861 H   0  0  0  0  0  0  0  0  0  0  0  0
   -2.9418   -1.9975    2.3220 H   0  0  0  0  0  0  0  0  0  0  0  0
  1  2  1  0  0  0  0
  1 35  1  0  0  0  0
  1 36  1  0  0  0  0
  1 37  1  0  0  0  0
  2  3  1  0  0  0  0
  3  4  1  0  0  0  0
  3 21  2  0  0  0  0
  4  5  2  0  0  0  0
  4 38  1  0  0  0  0
  5  6  1  0  0  0  0
  5 19  1  0  0  0  0
  6  7  1  0  0  0  0
  6 16  2  0  0  0  0
  7  8  1  0  0  0  0
  7 39  1  0  0  0  0
  8  9  1  0  0  0  0
  8 15  2  0  0  0  0
  9 10  2  0  0  0  0
  9 40  1  0  0  0  0
 10 11  1  0  0  0  0
 10 41  1  0  0  0  0
 11 12  1  0  0  0  0
 11 13  2  0  0  0  0
 13 14  1  0  0  0  0
 13 15  1  0  0  0  0
 15 42  1  0  0  0  0
 16 17  1  0  0  0  0
 17 18  2  0  0  0  0
 17 43  1  0  0  0  0
 18 19  1  0  0  0  0
 19 20  2  0  0  0  0
 20 21  1  0  0  0  0
 20 44  1  0  0  0  0
 21 22  1  0  0  0  0
 22 23  1  0  0  0  0
 23 24  1  0  0  0  0
 23 45  1  0  0  0  0
 23 46  1  0  0  0  0
 24 25  1  0  0  0  0
 24 34  1  0  0  0  0
 24 47  1  0  0  0  0
 25 26  1  0  0  0  0
 25 48  1  0  0  0  0
 25 49  1  0  0  0  0
 26 27  1  0  0  0  0
 26 31  1  0  0  0  0
 27 28  1  0  0  0  0
 27 29  2  0  0  0  0
 27 30  2  0  0  0  0
 28 50  1  0  0  0  0
 28 51  1  0  0  0  0
 28 52  1  0  0  0  0
 31 32  1  0  0  0  0
 31 53  1  0  0  0  0
 31 54  1  0  0  0  0
 32 33  1  0  0  0  0
 32 55  1  0  0  0  0
 32 56  1  0  0  0  0
 33 34  1  0  0  0  0
 33 57  1  0  0  0  0
 33 58  1  0  0  0  0
M  END
$$$$
