CHEMBL4764463
 OpenBabel04072215383D

 83 89  0  0  0  0  0  0  0  0999 V2000
    2.8751   -0.3365    1.1657 C   0  0  0  0  0  0  0  0  0  0  0  0
    2.7034    0.4090   -0.0356 O   0  0  0  0  0  0  0  0  0  0  0  0
    3.3850    0.0351   -1.1595 C   0  0  0  0  0  0  0  0  0  0  0  0
    4.6066   -0.6200   -1.0705 C   0  0  0  0  0  0  0  0  0  0  0  0
    5.2187   -1.1960   -2.1983 C   0  0  0  0  0  0  0  0  0  0  0  0
    6.3147   -2.0820   -2.1144 C   0  0  0  0  0  0  0  0  0  0  0  0
    6.8785   -2.5049   -0.9232 O   0  0  0  0  0  0  0  0  0  0  0  0
    6.0906   -3.1355    0.0220 C   0  0  0  0  0  0  0  0  0  0  0  0
    4.8071   -3.6301   -0.2051 C   0  0  0  0  0  0  0  0  0  0  0  0
    4.0557   -4.1597    0.8478 C   0  0  0  0  0  0  0  0  0  0  0  0
    4.5954   -4.2908    2.1284 C   0  0  0  0  0  0  0  0  0  0  0  0
    3.9064   -4.9156    3.1904 N   0  0  0  0  0  0  0  0  0  0  0  0
    2.6748   -5.5479    3.1007 C   0  0  0  0  0  0  0  0  0  0  0  0
    1.9323   -5.5850    2.1304 O   0  0  0  0  0  0  0  0  0  0  0  0
    2.2530   -6.2534    4.3410 C   0  0  0  0  0  0  0  0  0  0  0  0
    1.3395   -5.3958    5.2108 C   0  0  0  0  0  0  0  0  0  0  0  0
    0.8059   -5.7634    6.3583 N   0  0  0  0  0  0  0  0  0  0  0  0
    0.0400   -4.6998    6.7989 N   0  0  0  0  0  0  0  0  0  0  0  0
    0.1628   -3.7541    5.8865 C   0  0  0  0  0  0  0  0  0  0  0  0
   -0.4028   -2.4087    5.8240 C   0  0  0  0  0  0  0  0  0  0  0  0
   -1.1862   -1.9243    6.8836 C   0  0  0  0  0  0  0  0  0  0  0  0
   -1.6953   -0.6226    6.8531 C   0  0  0  0  0  0  0  0  0  0  0  0
   -1.4269    0.1956    5.7625 C   0  0  0  0  0  0  0  0  0  0  0  0
   -1.9023    1.4472    5.7411 F   0  0  0  0  0  0  0  0  0  0  0  0
   -0.6691   -0.2653    4.6941 C   0  0  0  0  0  0  0  0  0  0  0  0
   -0.1613   -1.5660    4.7231 C   0  0  0  0  0  0  0  0  0  0  0  0
    0.9839   -4.1200    4.8629 O   0  0  0  0  0  0  0  0  0  0  0  0
    3.1434   -7.3100    4.9756 C   0  0  0  0  0  0  0  0  0  0  0  0
    1.9191   -7.7401    4.2476 C   0  0  0  0  0  0  0  0  0  0  0  0
    5.8915   -3.8183    2.3564 C   0  0  0  0  0  0  0  0  0  0  0  0
    6.6204   -3.2455    1.3108 C   0  0  0  0  0  0  0  0  0  0  0  0
    7.8529   -2.7828    1.5707 F   0  0  0  0  0  0  0  0  0  0  0  0
    6.9093   -2.5667   -3.2717 C   0  0  0  0  0  0  0  0  0  0  0  0
    6.3509   -2.2018   -4.4798 C   0  0  0  0  0  0  0  0  0  0  0  0
    5.2572   -1.4174   -4.5976 N   0  0  0  0  0  0  0  0  0  0  0  0
    4.6921   -0.9329   -3.4771 C   0  0  0  0  0  0  0  0  0  0  0  0
    3.5450   -0.1566   -3.5696 C   0  0  0  0  0  0  0  0  0  0  0  0
    2.8708    0.3252   -2.4361 C   0  0  0  0  0  0  0  0  0  0  0  0
    1.7405    1.0548   -2.7443 O   0  0  0  0  0  0  0  0  0  0  0  0
    1.0986    1.6607   -1.6325 C   0  0  0  0  0  0  0  0  0  0  0  0
   -0.0240    2.6023   -2.0365 C   0  0  0  0  0  0  0  0  0  0  0  0
   -0.6365    3.1252   -0.7305 C   0  0  0  0  0  0  0  0  0  0  0  0
   -1.7497    4.0683   -0.8785 N   0  0  0  0  0  0  0  0  0  0  0  0
   -2.8855    3.4524   -1.5720 C   0  0  0  0  0  0  0  0  0  0  0  0
   -4.0856    4.3928   -1.6578 C   0  0  0  0  0  0  0  0  0  0  0  0
   -4.5001    4.8810   -0.2775 C   0  0  0  0  0  0  0  0  0  0  0  0
   -3.3086    5.5162    0.4246 C   0  0  0  0  0  0  0  0  0  0  0  0
   -2.1292    4.5500    0.4660 C   0  0  0  0  0  0  0  0  0  0  0  0
    3.4283    0.2788    1.8803 H   0  0  0  0  0  0  0  0  0  0  0  0
    3.3690   -1.3016    1.0425 H   0  0  0  0  0  0  0  0  0  0  0  0
    1.8842   -0.5405    1.5839 H   0  0  0  0  0  0  0  0  0  0  0  0
    5.0818   -0.7284   -0.1016 H   0  0  0  0  0  0  0  0  0  0  0  0
    4.3340   -3.5800   -1.1815 H   0  0  0  0  0  0  0  0  0  0  0  0
    3.0356   -4.4530    0.6187 H   0  0  0  0  0  0  0  0  0  0  0  0
    4.3920   -4.9783    4.0774 H   0  0  0  0  0  0  0  0  0  0  0  0
   -1.3985   -2.5576    7.7440 H   0  0  0  0  0  0  0  0  0  0  0  0
   -2.2951   -0.2430    7.6744 H   0  0  0  0  0  0  0  0  0  0  0  0
   -0.4764    0.3877    3.8485 H   0  0  0  0  0  0  0  0  0  0  0  0
    0.4279   -1.9144    3.8766 H   0  0  0  0  0  0  0  0  0  0  0  0
    3.1473   -7.4059    6.0569 H   0  0  0  0  0  0  0  0  0  0  0  0
    4.0980   -7.5368    4.5109 H   0  0  0  0  0  0  0  0  0  0  0  0
    1.0846   -8.1223    4.8247 H   0  0  0  0  0  0  0  0  0  0  0  0
    2.0284   -8.2178    3.2787 H   0  0  0  0  0  0  0  0  0  0  0  0
    6.3593   -3.8850    3.3351 H   0  0  0  0  0  0  0  0  0  0  0  0
    7.7728   -3.2191   -3.2318 H   0  0  0  0  0  0  0  0  0  0  0  0
    6.7728   -2.5479   -5.4195 H   0  0  0  0  0  0  0  0  0  0  0  0
    3.1413    0.0597   -4.5579 H   0  0  0  0  0  0  0  0  0  0  0  0
    1.8234    2.2587   -1.0670 H   0  0  0  0  0  0  0  0  0  0  0  0
    0.6542    0.8698   -1.0157 H   0  0  0  0  0  0  0  0  0  0  0  0
   -0.7467    2.0575   -2.6521 H   0  0  0  0  0  0  0  0  0  0  0  0
    0.3672    3.4228   -2.6488 H   0  0  0  0  0  0  0  0  0  0  0  0
    0.1664    3.6210   -0.1672 H   0  0  0  0  0  0  0  0  0  0  0  0
   -0.9591    2.2699   -0.1193 H   0  0  0  0  0  0  0  0  0  0  0  0
   -3.1840    2.5221   -1.0710 H   0  0  0  0  0  0  0  0  0  0  0  0
   -2.6049    3.1963   -2.5994 H   0  0  0  0  0  0  0  0  0  0  0  0
   -4.9238    3.8745   -2.1361 H   0  0  0  0  0  0  0  0  0  0  0  0
   -3.8336    5.2520   -2.2922 H   0  0  0  0  0  0  0  0  0  0  0  0
   -4.8685    4.0348    0.3161 H   0  0  0  0  0  0  0  0  0  0  0  0
   -5.3180    5.6022   -0.3613 H   0  0  0  0  0  0  0  0  0  0  0  0
   -3.5875    5.8011    1.4452 H   0  0  0  0  0  0  0  0  0  0  0  0
   -3.0151    6.4349   -0.0981 H   0  0  0  0  0  0  0  0  0  0  0  0
   -2.3805    3.7032    1.1197 H   0  0  0  0  0  0  0  0  0  0  0  0
   -1.2799    5.0702    0.9270 H   0  0  0  0  0  0  0  0  0  0  0  0
  1  2  1  0  0  0  0
  1 49  1  0  0  0  0
  1 50  1  0  0  0  0
  1 51  1  0  0  0  0
  2  3  1  0  0  0  0
  3  4  1  0  0  0  0
  3 38  2  0  0  0  0
  4  5  2  0  0  0  0
  4 52  1  0  0  0  0
  5  6  1  0  0  0  0
  5 36  1  0  0  0  0
  6  7  1  0  0  0  0
  6 33  2  0  0  0  0
  7  8  1  0  0  0  0
  8  9  1  0  0  0  0
  8 31  2  0  0  0  0
  9 10  2  0  0  0  0
  9 53  1  0  0  0  0
 10 11  1  0  0  0  0
 10 54  1  0  0  0  0
 11 12  1  0  0  0  0
 11 30  2  0  0  0  0
 12 13  1  0  0  0  0
 12 55  1  0  0  0  0
 13 14  2  0  0  0  0
 13 15  1  0  0  0  0
 15 16  1  0  0  0  0
 15 28  1  0  0  0  0
 15 29  1  0  0  0  0
 16 17  2  0  0  0  0
 16 27  1  0  0  0  0
 17 18  1  0  0  0  0
 18 19  2  0  0  0  0
 19 20  1  0  0  0  0
 19 27  1  0  0  0  0
 20 21  1  0  0  0  0
 20 26  2  0  0  0  0
 21 22  2  0  0  0  0
 21 56  1  0  0  0  0
 22 23  1  0  0  0  0
 22 57  1  0  0  0  0
 23 24  1  0  0  0  0
 23 25  2  0  0  0  0
 25 26  1  0  0  0  0
 25 58  1  0  0  0  0
 26 59  1  0  0  0  0
 28 29  1  0  0  0  0
 28 60  1  0  0  0  0
 28 61  1  0  0  0  0
 29 62  1  0  0  0  0
 29 63  1  0  0  0  0
 30 31  1  0  0  0  0
 30 64  1  0  0  0  0
 31 32  1  0  0  0  0
 33 34  1  0  0  0  0
 33 65  1  0  0  0  0
 34 35  2  0  0  0  0
 34 66  1  0  0  0  0
 35 36  1  0  0  0  0
 36 37  2  0  0  0  0
 37 38  1  0  0  0  0
 37 67  1  0  0  0  0
 38 39  1  0  0  0  0
 39 40  1  0  0  0  0
 40 41  1  0  0  0  0
 40 68  1  0  0  0  0
 40 69  1  0  0  0  0
 41 42  1  0  0  0  0
 41 70  1  0  0  0  0
 41 71  1  0  0  0  0
 42 43  1  0  0  0  0
 42 72  1  0  0  0  0
 42 73  1  0  0  0  0
 43 44  1  0  0  0  0
 43 48  1  0  0  0  0
 44 45  1  0  0  0  0
 44 74  1  0  0  0  0
 44 75  1  0  0  0  0
 45 46  1  0  0  0  0
 45 76  1  0  0  0  0
 45 77  1  0  0  0  0
 46 47  1  0  0  0  0
 46 78  1  0  0  0  0
 46 79  1  0  0  0  0
 47 48  1  0  0  0  0
 47 80  1  0  0  0  0
 47 81  1  0  0  0  0
 48 82  1  0  0  0  0
 48 83  1  0  0  0  0
M  END
$$$$
