CHEMBL3397936
 OpenBabel04072215363D

 59 62  0  0  0  0  0  0  0  0999 V2000
    1.1955    1.0741    0.0266 O   0  0  0  0  0  0  0  0  0  0  0  0
    2.2910    0.5182    0.0058 C   0  0  0  0  0  0  0  0  0  0  0  0
    2.8500   -0.1668   -1.0606 N   0  0  0  0  0  0  0  0  0  0  0  0
    2.2452   -0.3351   -2.3248 C   0  0  0  0  0  0  0  0  0  0  0  0
    1.1505    0.4188   -2.7545 C   0  0  0  0  0  0  0  0  0  0  0  0
    0.5458    0.1655   -3.9878 C   0  0  0  0  0  0  0  0  0  0  0  0
    1.0282   -0.8413   -4.8211 C   0  0  0  0  0  0  0  0  0  0  0  0
    0.3195   -0.9871   -5.9840 O   0  0  0  0  0  0  0  0  0  0  0  0
    0.7204   -2.0695   -6.8235 C   0  0  0  0  0  0  0  0  0  0  0  0
   -0.2210   -2.1540   -8.0349 C   0  0  0  0  0  0  0  0  0  0  0  0
    0.1575   -3.2061   -9.0018 N   0  0  0  0  0  0  0  0  0  0  0  0
    0.1188   -4.5468   -8.3957 C   0  0  0  0  0  0  0  0  0  0  0  0
    0.5374   -5.6288   -9.3889 C   0  0  0  0  0  0  0  0  0  0  0  0
   -0.3222   -5.5877  -10.6426 C   0  0  0  0  0  0  0  0  0  0  0  0
   -0.3224   -4.1830  -11.2329 C   0  0  0  0  0  0  0  0  0  0  0  0
   -0.7141   -3.1380  -10.1861 C   0  0  0  0  0  0  0  0  0  0  0  0
    2.1463   -1.5694   -4.4021 C   0  0  0  0  0  0  0  0  0  0  0  0
    2.6663   -2.5550   -5.1493 F   0  0  0  0  0  0  0  0  0  0  0  0
    2.7610   -1.3134   -3.1744 C   0  0  0  0  0  0  0  0  0  0  0  0
    3.0709    0.5037    1.2659 C   0  0  0  0  0  0  0  0  0  0  0  0
    2.3635    0.4389    2.4695 C   0  0  0  0  0  0  0  0  0  0  0  0
    3.0501    0.4501    3.6757 C   0  0  0  0  0  0  0  0  0  0  0  0
    4.4462    0.5077    3.6759 C   0  0  0  0  0  0  0  0  0  0  0  0
    5.1897    0.5368    2.4777 C   0  0  0  0  0  0  0  0  0  0  0  0
    6.6695    0.4411    2.4801 C   0  0  0  0  0  0  0  0  0  0  0  0
    7.3354   -0.3273    3.4531 C   0  0  0  0  0  0  0  0  0  0  0  0
    8.7159   -0.5350    3.4075 C   0  0  0  0  0  0  0  0  0  0  0  0
    9.4691    0.0099    2.3715 C   0  0  0  0  0  0  0  0  0  0  0  0
    8.8304    0.7817    1.4085 C   0  0  0  0  0  0  0  0  0  0  0  0
    9.5185    1.2989    0.3510 O   0  0  0  0  0  0  0  0  0  0  0  0
    7.4583    1.0207    1.4692 C   0  0  0  0  0  0  0  0  0  0  0  0
    4.4694    0.5660    1.2699 C   0  0  0  0  0  0  0  0  0  0  0  0
    3.6758   -0.7247   -0.8782 H   0  0  0  0  0  0  0  0  0  0  0  0
    0.7386    1.2225   -2.1523 H   0  0  0  0  0  0  0  0  0  0  0  0
   -0.3175    0.7538   -4.2869 H   0  0  0  0  0  0  0  0  0  0  0  0
    0.6570   -2.9971   -6.2461 H   0  0  0  0  0  0  0  0  0  0  0  0
    1.7427   -1.8994   -7.1803 H   0  0  0  0  0  0  0  0  0  0  0  0
   -0.2004   -1.1758   -8.5346 H   0  0  0  0  0  0  0  0  0  0  0  0
   -1.2542   -2.2881   -7.6868 H   0  0  0  0  0  0  0  0  0  0  0  0
   -0.8826   -4.7660   -8.0032 H   0  0  0  0  0  0  0  0  0  0  0  0
    0.8212   -4.6116   -7.5587 H   0  0  0  0  0  0  0  0  0  0  0  0
    0.4587   -6.6133   -8.9141 H   0  0  0  0  0  0  0  0  0  0  0  0
    1.5918   -5.4884   -9.6599 H   0  0  0  0  0  0  0  0  0  0  0  0
   -1.3486   -5.8826  -10.3924 H   0  0  0  0  0  0  0  0  0  0  0  0
    0.0524   -6.3079  -11.3777 H   0  0  0  0  0  0  0  0  0  0  0  0
   -1.0179   -4.1396  -12.0782 H   0  0  0  0  0  0  0  0  0  0  0  0
    0.6758   -3.9522  -11.6266 H   0  0  0  0  0  0  0  0  0  0  0  0
   -1.7654   -3.2797   -9.9031 H   0  0  0  0  0  0  0  0  0  0  0  0
   -0.6325   -2.1472  -10.6503 H   0  0  0  0  0  0  0  0  0  0  0  0
    3.6190   -1.9173   -2.8966 H   0  0  0  0  0  0  0  0  0  0  0  0
    1.2764    0.3771    2.4640 H   0  0  0  0  0  0  0  0  0  0  0  0
    2.5040    0.4011    4.6144 H   0  0  0  0  0  0  0  0  0  0  0  0
    4.9517    0.5171    4.6393 H   0  0  0  0  0  0  0  0  0  0  0  0
    6.7758   -0.8126    4.2506 H   0  0  0  0  0  0  0  0  0  0  0  0
    9.1943   -1.1410    4.1723 H   0  0  0  0  0  0  0  0  0  0  0  0
   10.5362   -0.1788    2.3325 H   0  0  0  0  0  0  0  0  0  0  0  0
   10.4117    0.9159    0.3487 H   0  0  0  0  0  0  0  0  0  0  0  0
    7.0154    1.6474    0.6996 H   0  0  0  0  0  0  0  0  0  0  0  0
    5.0013    0.6312    0.3244 H   0  0  0  0  0  0  0  0  0  0  0  0
  1  2  2  0  0  0  0
  2  3  1  0  0  0  0
  2 20  1  0  0  0  0
  3  4  1  0  0  0  0
  3 33  1  0  0  0  0
  4  5  1  0  0  0  0
  4 19  2  0  0  0  0
  5  6  2  0  0  0  0
  5 34  1  0  0  0  0
  6  7  1  0  0  0  0
  6 35  1  0  0  0  0
  7  8  1  0  0  0  0
  7 17  2  0  0  0  0
  8  9  1  0  0  0  0
  9 10  1  0  0  0  0
  9 36  1  0  0  0  0
  9 37  1  0  0  0  0
 10 11  1  0  0  0  0
 10 38  1  0  0  0  0
 10 39  1  0  0  0  0
 11 12  1  0  0  0  0
 11 16  1  0  0  0  0
 12 13  1  0  0  0  0
 12 40  1  0  0  0  0
 12 41  1  0  0  0  0
 13 14  1  0  0  0  0
 13 42  1  0  0  0  0
 13 43  1  0  0  0  0
 14 15  1  0  0  0  0
 14 44  1  0  0  0  0
 14 45  1  0  0  0  0
 15 16  1  0  0  0  0
 15 46  1  0  0  0  0
 15 47  1  0  0  0  0
 16 48  1  0  0  0  0
 16 49  1  0  0  0  0
 17 18  1  0  0  0  0
 17 19  1  0  0  0  0
 19 50  1  0  0  0  0
 20 21  1  0  0  0  0
 20 32  2  0  0  0  0
 21 22  2  0  0  0  0
 21 51  1  0  0  0  0
 22 23  1  0  0  0  0
 22 52  1  0  0  0  0
 23 24  2  0  0  0  0
 23 53  1  0  0  0  0
 24 25  1  0  0  0  0
 24 32  1  0  0  0  0
 25 26  1  0  0  0  0
 25 31  2  0  0  0  0
 26 27  2  0  0  0  0
 26 54  1  0  0  0  0
 27 28  1  0  0  0  0
 27 55  1  0  0  0  0
 28 29  2  0  0  0  0
 28 56  1  0  0  0  0
 29 30  1  0  0  0  0
 29 31  1  0  0  0  0
 30 57  1  0  0  0  0
 31 58  1  0  0  0  0
 32 59  1  0  0  0  0
M  END
$$$$
