CHEMBL346631
 OpenBabel04072215363D

 74 79  0  0  0  0  0  0  0  0999 V2000
    1.5996   -0.6676   -1.6218 C   0  0  0  0  0  0  0  0  0  0  0  0
    2.8033   -0.6749   -0.6871 C   0  0  0  0  0  0  0  0  0  0  0  0
    3.8103   -1.7337   -1.1222 C   0  0  0  0  0  0  0  0  0  0  0  0
    3.3727    0.6217   -0.7517 O   0  0  0  0  0  0  0  0  0  0  0  0
    4.4154    0.8474    0.1920 C   0  0  0  0  0  0  0  0  0  0  0  0
    4.8818    2.2495   -0.0275 C   0  0  0  0  0  0  0  0  0  0  0  0
    6.1450    2.4764   -0.5764 C   0  0  0  0  0  0  0  0  0  0  0  0
    6.5371    3.7413   -0.9926 C   0  0  0  0  0  0  0  0  0  0  0  0
    5.6320    4.8029   -0.8891 C   0  0  0  0  0  0  0  0  0  0  0  0
    4.3933    4.5994   -0.2492 C   0  0  0  0  0  0  0  0  0  0  0  0
    4.0258    3.3251    0.2114 C   0  0  0  0  0  0  0  0  0  0  0  0
    3.8863    5.8706   -0.1938 C   0  0  0  0  0  0  0  0  0  0  0  0
    3.0789    6.3807    0.8521 C   0  0  0  0  0  0  0  0  0  0  0  0
    3.2462    7.8094    1.1191 C   0  0  0  0  0  0  0  0  0  0  0  0
    4.0008    8.5935    0.2293 C   0  0  0  0  0  0  0  0  0  0  0  0
    3.9412    8.0330   -1.0484 C   0  0  0  0  0  0  0  0  0  0  0  0
    4.4286    6.7502   -1.0837 C   0  0  0  0  0  0  0  0  0  0  0  0
    5.7162    6.1723   -1.2289 N   0  0  0  0  0  0  0  0  0  0  0  0
    6.9561    6.9433   -1.2035 C   0  0  0  0  0  0  0  0  0  0  0  0
    8.3330    6.2851   -1.3230 C   0  0  0  0  0  0  0  0  0  0  0  0
    8.5986    5.7255   -2.7218 C   0  0  0  0  0  0  0  0  0  0  0  0
    9.8165    4.9789   -2.7240 O   0  0  0  0  0  0  0  0  0  0  0  0
   10.9256    5.7163   -3.0023 C   0  0  0  0  0  0  0  0  0  0  0  0
   10.9295    6.9329   -3.1406 O   0  0  0  0  0  0  0  0  0  0  0  0
   12.1739    4.8580   -3.1189 C   0  0  0  0  0  0  0  0  0  0  0  0
   12.0781    3.8217   -4.1744 N   0  0  0  0  0  0  0  0  0  0  0  0
   11.7964    4.4120   -5.4867 C   0  0  0  0  0  0  0  0  0  0  0  0
   13.3405    3.0794   -4.2303 C   0  0  0  0  0  0  0  0  0  0  0  0
    3.8857    9.1399   -2.0074 C   0  0  0  0  0  0  0  0  0  0  0  0
    5.0069    9.9265   -1.4052 C   0  0  0  0  0  0  0  0  0  0  0  0
    6.0527   10.3449   -2.2243 C   0  0  0  0  0  0  0  0  0  0  0  0
    7.2987   10.4124   -1.6478 C   0  0  0  0  0  0  0  0  0  0  0  0
    7.4365   10.1615   -0.2663 C   0  0  0  0  0  0  0  0  0  0  0  0
    6.3305    9.7848    0.5745 C   0  0  0  0  0  0  0  0  0  0  0  0
    5.0671    9.6165    0.0058 C   0  0  0  0  0  0  0  0  0  0  0  0
    1.9519    8.2065    1.6716 C   0  0  0  0  0  0  0  0  0  0  0  0
    1.4538    9.3057    1.8906 O   0  0  0  0  0  0  0  0  0  0  0  0
    1.1832    7.0304    1.7539 N   0  0  0  0  0  0  0  0  0  0  0  0
    1.8101    5.8088    1.2897 C   0  0  0  0  0  0  0  0  0  0  0  0
    1.0848   -1.6300   -1.6131 H   0  0  0  0  0  0  0  0  0  0  0  0
    1.9035   -0.4386   -2.6495 H   0  0  0  0  0  0  0  0  0  0  0  0
    0.8899    0.1119   -1.3242 H   0  0  0  0  0  0  0  0  0  0  0  0
    2.4597   -0.8651    0.3360 H   0  0  0  0  0  0  0  0  0  0  0  0
    4.2700   -1.4614   -2.0783 H   0  0  0  0  0  0  0  0  0  0  0  0
    3.3433   -2.7168   -1.2132 H   0  0  0  0  0  0  0  0  0  0  0  0
    4.6259   -1.8204   -0.3961 H   0  0  0  0  0  0  0  0  0  0  0  0
    5.2480    0.1620    0.0089 H   0  0  0  0  0  0  0  0  0  0  0  0
    4.0500    0.7165    1.2121 H   0  0  0  0  0  0  0  0  0  0  0  0
    6.8281    1.6485   -0.7174 H   0  0  0  0  0  0  0  0  0  0  0  0
    7.5591    3.8439   -1.3476 H   0  0  0  0  0  0  0  0  0  0  0  0
    3.0401    3.1584    0.6422 H   0  0  0  0  0  0  0  0  0  0  0  0
    6.9589    7.4133   -0.2150 H   0  0  0  0  0  0  0  0  0  0  0  0
    6.8663    7.6970   -1.9842 H   0  0  0  0  0  0  0  0  0  0  0  0
    8.5045    5.5473   -0.5302 H   0  0  0  0  0  0  0  0  0  0  0  0
    9.1005    7.0464   -1.1242 H   0  0  0  0  0  0  0  0  0  0  0  0
    8.5829    6.5000   -3.4721 H   0  0  0  0  0  0  0  0  0  0  0  0
    7.7989    5.0163   -3.0164 H   0  0  0  0  0  0  0  0  0  0  0  0
   12.3429    4.3962   -2.1389 H   0  0  0  0  0  0  0  0  0  0  0  0
   13.0163    5.5319   -3.3131 H   0  0  0  0  0  0  0  0  0  0  0  0
   10.8133    4.8956   -5.5012 H   0  0  0  0  0  0  0  0  0  0  0  0
   11.7602    3.6328   -6.2560 H   0  0  0  0  0  0  0  0  0  0  0  0
   12.5510    5.1502   -5.7789 H   0  0  0  0  0  0  0  0  0  0  0  0
   13.5542    2.6076   -3.2641 H   0  0  0  0  0  0  0  0  0  0  0  0
   14.1870    3.7263   -4.4906 H   0  0  0  0  0  0  0  0  0  0  0  0
   13.2836    2.2738   -4.9695 H   0  0  0  0  0  0  0  0  0  0  0  0
    2.9509    9.7117   -1.8461 H   0  0  0  0  0  0  0  0  0  0  0  0
    3.9596    8.8445   -3.0487 H   0  0  0  0  0  0  0  0  0  0  0  0
    5.9170   10.3678   -3.3037 H   0  0  0  0  0  0  0  0  0  0  0  0
    8.1664   10.5352   -2.2952 H   0  0  0  0  0  0  0  0  0  0  0  0
    8.4545   10.1385    0.1245 H   0  0  0  0  0  0  0  0  0  0  0  0
    6.5670    9.4394    1.5769 H   0  0  0  0  0  0  0  0  0  0  0  0
    0.1771    7.1298    1.7492 H   0  0  0  0  0  0  0  0  0  0  0  0
    1.2530    5.4118    0.4359 H   0  0  0  0  0  0  0  0  0  0  0  0
    1.8904    5.0845    2.0937 H   0  0  0  0  0  0  0  0  0  0  0  0
  1  2  1  0  0  0  0
  1 40  1  0  0  0  0
  1 41  1  0  0  0  0
  1 42  1  0  0  0  0
  2  3  1  0  0  0  0
  2  4  1  0  0  0  0
  2 43  1  0  0  0  0
  3 44  1  0  0  0  0
  3 45  1  0  0  0  0
  3 46  1  0  0  0  0
  4  5  1  0  0  0  0
  5  6  1  0  0  0  0
  5 47  1  0  0  0  0
  5 48  1  0  0  0  0
  6  7  1  0  0  0  0
  6 11  2  0  0  0  0
  7  8  2  0  0  0  0
  7 49  1  0  0  0  0
  8  9  1  0  0  0  0
  8 50  1  0  0  0  0
  9 10  2  0  0  0  0
  9 18  1  0  0  0  0
 10 11  1  0  0  0  0
 10 12  1  0  0  0  0
 11 51  1  0  0  0  0
 12 13  1  0  0  0  0
 12 17  2  0  0  0  0
 13 14  2  0  0  0  0
 13 39  1  0  0  0  0
 14 15  1  0  0  0  0
 14 36  1  0  0  0  0
 15 16  2  0  0  0  0
 15 35  1  0  0  0  0
 16 17  1  0  0  0  0
 16 29  1  0  0  0  0
 17 18  1  0  0  0  0
 18 19  1  0  0  0  0
 19 20  1  0  0  0  0
 19 52  1  0  0  0  0
 19 53  1  0  0  0  0
 20 21  1  0  0  0  0
 20 54  1  0  0  0  0
 20 55  1  0  0  0  0
 21 22  1  0  0  0  0
 21 56  1  0  0  0  0
 21 57  1  0  0  0  0
 22 23  1  0  0  0  0
 23 24  2  0  0  0  0
 23 25  1  0  0  0  0
 25 26  1  0  0  0  0
 25 58  1  0  0  0  0
 25 59  1  0  0  0  0
 26 27  1  0  0  0  0
 26 28  1  0  0  0  0
 27 60  1  0  0  0  0
 27 61  1  0  0  0  0
 27 62  1  0  0  0  0
 28 63  1  0  0  0  0
 28 64  1  0  0  0  0
 28 65  1  0  0  0  0
 29 30  1  0  0  0  0
 29 66  1  0  0  0  0
 29 67  1  0  0  0  0
 30 31  1  0  0  0  0
 30 35  2  0  0  0  0
 31 32  2  0  0  0  0
 31 68  1  0  0  0  0
 32 33  1  0  0  0  0
 32 69  1  0  0  0  0
 33 34  2  0  0  0  0
 33 70  1  0  0  0  0
 34 35  1  0  0  0  0
 34 71  1  0  0  0  0
 36 37  2  0  0  0  0
 36 38  1  0  0  0  0
 38 39  1  0  0  0  0
 38 72  1  0  0  0  0
 39 73  1  0  0  0  0
 39 74  1  0  0  0  0
M  END
$$$$
