CHEMBL3671511
 OpenBabel04072215373D

 61 63  0  0  1  0  0  0  0  0999 V2000
    2.2580    2.0501    0.6113 C   0  0  0  0  0  0  0  0  0  0  0  0
    2.8034    0.8586    0.3410 C   0  0  0  0  0  0  0  0  0  0  0  0
    3.4798    0.0595    1.3983 C   0  0  0  0  0  0  0  0  0  0  0  0
    3.2827    0.2495    2.5902 O   0  0  0  0  0  0  0  0  0  0  0  0
    4.3509   -0.8648    0.8451 N   0  0  0  0  0  0  0  0  0  0  0  0
    5.1554   -1.6500    1.6953 C   0  0  0  0  0  0  0  0  0  0  0  0
    6.3421   -1.0836    2.1639 C   0  0  0  0  0  0  0  0  0  0  0  0
    7.1476   -1.7732    3.0971 C   0  0  0  0  0  0  0  0  0  0  0  0
    8.2925   -1.2398    3.7116 C   0  0  0  0  0  0  0  0  0  0  0  0
    8.6725    0.1058    3.4598 N   0  0  0  0  0  0  0  0  0  0  0  0
    9.4972    0.8625    4.3266 C   0  0  0  0  0  0  0  0  0  0  0  0
    9.3181    0.8080    5.7169 C   0  0  0  0  0  0  0  0  0  0  0  0
   10.1923    1.4700    6.5796 C   0  0  0  0  0  0  0  0  0  0  0  0
   11.2422    2.2182    6.0530 C   0  0  0  0  0  0  0  0  0  0  0  0
   12.4823    3.0316    7.2242 Br  0  0  0  0  0  0  0  0  0  0  0  0
   11.3952    2.3517    4.6752 C   0  0  0  0  0  0  0  0  0  0  0  0
   10.5153    1.6829    3.8263 C   0  0  0  0  0  0  0  0  0  0  0  0
   10.6767    1.8001    2.4985 F   0  0  0  0  0  0  0  0  0  0  0  0
    9.0264   -1.9527    4.5857 N   0  0  0  0  0  0  0  0  0  0  0  0
    8.6021   -3.1835    4.8719 C   0  0  0  0  0  0  0  0  0  0  0  0
    7.5043   -3.7689    4.3867 N   0  0  0  0  0  0  0  0  0  0  0  0
    6.7791   -3.0592    3.5150 C   0  0  0  0  0  0  0  0  0  0  0  0
    5.6097   -3.6172    3.0117 C   0  0  0  0  0  0  0  0  0  0  0  0
    4.7969   -2.9472    2.0863 C   0  0  0  0  0  0  0  0  0  0  0  0
    3.7185   -3.6828    1.6485 O   0  0  0  0  0  0  0  0  0  0  0  0
    3.3139   -3.4287    0.3012 C   0  0  0  0  0  0  0  0  0  0  0  0
    2.6893   -4.6707   -0.3418 C   0  0  0  0  0  0  0  0  0  0  0  0
    2.3954   -4.4386   -1.7576 N   0  0  0  0  0  0  0  0  0  0  0  0
    3.3935   -4.5310   -2.6878 C   0  0  0  0  0  0  0  0  0  0  0  0
    4.5399   -4.8432   -2.4101 O   0  0  0  0  0  0  0  0  0  0  0  0
    2.9817   -4.1878   -3.9476 N   0  0  0  0  0  0  0  0  0  0  0  0
    3.8718   -4.3559   -5.0962 C   0  0  3  0  0  0  0  0  0  0  0  0
    3.6803   -5.7443   -5.7045 C   0  0  0  0  0  0  0  0  0  0  0  0
    3.6476   -3.2710   -6.1594 C   0  0  0  0  0  0  0  0  0  0  0  0
    3.9433   -1.8700   -5.6428 C   0  0  0  0  0  0  0  0  0  0  0  0
    1.7315    2.6060   -0.1581 H   0  0  0  0  0  0  0  0  0  0  0  0
    2.3161    2.4929    1.6022 H   0  0  0  0  0  0  0  0  0  0  0  0
    2.7250    0.4204   -0.6460 H   0  0  0  0  0  0  0  0  0  0  0  0
    4.8200   -0.5075    0.0207 H   0  0  0  0  0  0  0  0  0  0  0  0
    6.6124   -0.0781    1.8537 H   0  0  0  0  0  0  0  0  0  0  0  0
    8.9233    0.2340    2.4832 H   0  0  0  0  0  0  0  0  0  0  0  0
    8.5064    0.2171    6.1363 H   0  0  0  0  0  0  0  0  0  0  0  0
   10.0531    1.3720    7.6529 H   0  0  0  0  0  0  0  0  0  0  0  0
   12.1980    2.9451    4.2518 H   0  0  0  0  0  0  0  0  0  0  0  0
    9.2025   -3.7572    5.5707 H   0  0  0  0  0  0  0  0  0  0  0  0
    5.3226   -4.6114    3.3468 H   0  0  0  0  0  0  0  0  0  0  0  0
    4.1668   -3.1244   -0.3159 H   0  0  0  0  0  0  0  0  0  0  0  0
    2.5610   -2.6328    0.3076 H   0  0  0  0  0  0  0  0  0  0  0  0
    1.7565   -4.9431    0.1636 H   0  0  0  0  0  0  0  0  0  0  0  0
    3.3676   -5.5269   -0.2492 H   0  0  0  0  0  0  0  0  0  0  0  0
    1.4351   -4.4147   -2.0545 H   0  0  0  0  0  0  0  0  0  0  0  0
    2.0237   -3.9195   -4.1012 H   0  0  0  0  0  0  0  0  0  0  0  0
    4.9063   -4.2847   -4.7417 H   0  0  0  0  0  0  0  0  0  0  0  0
    2.6874   -5.8482   -6.1561 H   0  0  0  0  0  0  0  0  0  0  0  0
    3.7824   -6.5266   -4.9450 H   0  0  0  0  0  0  0  0  0  0  0  0
    4.4286   -5.9306   -6.4824 H   0  0  0  0  0  0  0  0  0  0  0  0
    2.6173   -3.3063   -6.5329 H   0  0  0  0  0  0  0  0  0  0  0  0
    4.3058   -3.4673   -7.0152 H   0  0  0  0  0  0  0  0  0  0  0  0
    3.2771   -1.5991   -4.8183 H   0  0  0  0  0  0  0  0  0  0  0  0
    3.8021   -1.1368   -6.4434 H   0  0  0  0  0  0  0  0  0  0  0  0
    4.9775   -1.7923   -5.2918 H   0  0  0  0  0  0  0  0  0  0  0  0
  1  2  2  0  0  0  0
  1 36  1  0  0  0  0
  1 37  1  0  0  0  0
  2  3  1  0  0  0  0
  2 38  1  0  0  0  0
  3  4  2  0  0  0  0
  3  5  1  0  0  0  0
  5  6  1  0  0  0  0
  5 39  1  0  0  0  0
  6  7  1  0  0  0  0
  6 24  2  0  0  0  0
  7  8  2  0  0  0  0
  7 40  1  0  0  0  0
  8  9  1  0  0  0  0
  8 22  1  0  0  0  0
  9 10  1  0  0  0  0
  9 19  2  0  0  0  0
 10 11  1  0  0  0  0
 10 41  1  0  0  0  0
 11 12  1  0  0  0  0
 11 17  2  0  0  0  0
 12 13  2  0  0  0  0
 12 42  1  0  0  0  0
 13 14  1  0  0  0  0
 13 43  1  0  0  0  0
 14 15  1  0  0  0  0
 14 16  2  0  0  0  0
 16 17  1  0  0  0  0
 16 44  1  0  0  0  0
 17 18  1  0  0  0  0
 19 20  1  0  0  0  0
 20 21  2  0  0  0  0
 20 45  1  0  0  0  0
 21 22  1  0  0  0  0
 22 23  2  0  0  0  0
 23 24  1  0  0  0  0
 23 46  1  0  0  0  0
 24 25  1  0  0  0  0
 25 26  1  0  0  0  0
 26 27  1  0  0  0  0
 26 47  1  0  0  0  0
 26 48  1  0  0  0  0
 27 28  1  0  0  0  0
 27 49  1  0  0  0  0
 27 50  1  0  0  0  0
 28 29  1  0  0  0  0
 28 51  1  0  0  0  0
 29 30  2  0  0  0  0
 29 31  1  0  0  0  0
 31 32  1  0  0  0  0
 31 52  1  0  0  0  0
 32 33  1  0  0  0  0
 32 34  1  0  0  0  0
 32 53  1  0  0  0  0
 33 54  1  0  0  0  0
 33 55  1  0  0  0  0
 33 56  1  0  0  0  0
 34 35  1  0  0  0  0
 34 57  1  0  0  0  0
 34 58  1  0  0  0  0
 35 59  1  0  0  0  0
 35 60  1  0  0  0  0
 35 61  1  0  0  0  0
M  END
$$$$
