CHEMBL1241771
 OpenBabel04072215363D

 35 37  0  0  0  0  0  0  0  0999 V2000
    3.4111    0.7075    1.0897 C   0  0  0  0  0  0  0  0  0  0  0  0
    2.5878   -0.1056    0.0884 C   0  0  0  0  0  0  0  0  0  0  0  0
    2.5240    0.6091   -1.2626 C   0  0  0  0  0  0  0  0  0  0  0  0
    3.0763   -1.4742   -0.0554 N   0  0  0  0  0  0  0  0  0  0  0  0
    4.3304   -1.7084   -0.5006 N   0  0  0  0  0  0  0  0  0  0  0  0
    4.4051   -3.0483   -0.6172 C   0  0  0  0  0  0  0  0  0  0  0  0
    5.6254   -3.6616   -1.1594 C   0  0  0  0  0  0  0  0  0  0  0  0
    5.5720   -4.8468   -1.9077 C   0  0  0  0  0  0  0  0  0  0  0  0
    6.7364   -5.4506   -2.3900 C   0  0  0  0  0  0  0  0  0  0  0  0
    7.9714   -4.8307   -2.1979 C   0  0  0  0  0  0  0  0  0  0  0  0
    9.1562   -5.4150   -2.7374 C   0  0  0  0  0  0  0  0  0  0  0  0
   10.0953   -5.9229   -3.1979 N   0  0  0  0  0  0  0  0  0  0  0  0
    8.0268   -3.6285   -1.4969 C   0  0  0  0  0  0  0  0  0  0  0  0
    9.2006   -3.0015   -1.3224 F   0  0  0  0  0  0  0  0  0  0  0  0
    6.8723   -3.0521   -0.9698 C   0  0  0  0  0  0  0  0  0  0  0  0
    3.1965   -3.6740   -0.1663 C   0  0  0  0  0  0  0  0  0  0  0  0
    2.6638   -4.9632   -0.0001 C   0  0  0  0  0  0  0  0  0  0  0  0
    3.3351   -6.1553   -0.2432 N   0  0  0  0  0  0  0  0  0  0  0  0
    1.3967   -5.0912    0.4421 N   0  0  0  0  0  0  0  0  0  0  0  0
    0.6934   -3.9801    0.7212 C   0  0  0  0  0  0  0  0  0  0  0  0
    1.0979   -2.7039    0.6227 N   0  0  0  0  0  0  0  0  0  0  0  0
    2.3614   -2.6194    0.1723 C   0  0  0  0  0  0  0  0  0  0  0  0
    2.9485    1.6865    1.2570 H   0  0  0  0  0  0  0  0  0  0  0  0
    4.4312    0.8796    0.7284 H   0  0  0  0  0  0  0  0  0  0  0  0
    3.4769    0.1972    2.0556 H   0  0  0  0  0  0  0  0  0  0  0  0
    1.5661   -0.1751    0.4803 H   0  0  0  0  0  0  0  0  0  0  0  0
    3.5117    0.6747   -1.7324 H   0  0  0  0  0  0  0  0  0  0  0  0
    2.1410    1.6288   -1.1449 H   0  0  0  0  0  0  0  0  0  0  0  0
    1.8612    0.0777   -1.9537 H   0  0  0  0  0  0  0  0  0  0  0  0
    4.6199   -5.3130   -2.1510 H   0  0  0  0  0  0  0  0  0  0  0  0
    6.6628   -6.3919   -2.9336 H   0  0  0  0  0  0  0  0  0  0  0  0
    6.9554   -2.1126   -0.4253 H   0  0  0  0  0  0  0  0  0  0  0  0
    4.3169   -6.1451    0.0018 H   0  0  0  0  0  0  0  0  0  0  0  0
    2.8077   -6.9360    0.1331 H   0  0  0  0  0  0  0  0  0  0  0  0
   -0.3213   -4.1378    1.0721 H   0  0  0  0  0  0  0  0  0  0  0  0
  1  2  1  0  0  0  0
  1 23  1  0  0  0  0
  1 24  1  0  0  0  0
  1 25  1  0  0  0  0
  2  3  1  0  0  0  0
  2  4  1  0  0  0  0
  2 26  1  0  0  0  0
  3 27  1  0  0  0  0
  3 28  1  0  0  0  0
  3 29  1  0  0  0  0
  4  5  1  0  0  0  0
  4 22  1  0  0  0  0
  5  6  2  0  0  0  0
  6  7  1  0  0  0  0
  6 16  1  0  0  0  0
  7  8  1  0  0  0  0
  7 15  2  0  0  0  0
  8  9  2  0  0  0  0
  8 30  1  0  0  0  0
  9 10  1  0  0  0  0
  9 31  1  0  0  0  0
 10 11  1  0  0  0  0
 10 13  2  0  0  0  0
 11 12  3  0  0  0  0
 13 14  1  0  0  0  0
 13 15  1  0  0  0  0
 15 32  1  0  0  0  0
 16 17  1  0  0  0  0
 16 22  2  0  0  0  0
 17 18  1  0  0  0  0
 17 19  2  0  0  0  0
 18 33  1  0  0  0  0
 18 34  1  0  0  0  0
 19 20  1  0  0  0  0
 20 21  2  0  0  0  0
 20 35  1  0  0  0  0
 21 22  1  0  0  0  0
M  END
$$$$
