CHEMBL3739587
 OpenBabel04072215373D

 57 61  0  0  0  0  0  0  0  0999 V2000
    1.8587   -0.5880   -1.6479 C   0  0  0  0  0  0  0  0  0  0  0  0
    3.1250   -0.0550   -1.0272 C   0  0  0  0  0  0  0  0  0  0  0  0
    3.5492    1.0546   -1.3533 O   0  0  0  0  0  0  0  0  0  0  0  0
    3.8553   -0.9225   -0.0873 C   0  0  0  0  0  0  0  0  0  0  0  0
    3.7984   -2.2651   -0.1699 N   0  0  0  0  0  0  0  0  0  0  0  0
    4.5977   -2.7167    0.8285 N   0  0  0  0  0  0  0  0  0  0  0  0
    4.8297   -4.1048    1.0182 C   0  0  0  0  0  0  0  0  0  0  0  0
    4.2933   -5.0268    0.1087 C   0  0  0  0  0  0  0  0  0  0  0  0
    4.5211   -6.3937    0.2846 C   0  0  0  0  0  0  0  0  0  0  0  0
    5.2768   -6.8376    1.3677 C   0  0  0  0  0  0  0  0  0  0  0  0
    5.5482   -8.5202    1.5924 Cl  0  0  0  0  0  0  0  0  0  0  0  0
    5.8180   -5.9281    2.2724 C   0  0  0  0  0  0  0  0  0  0  0  0
    5.6001   -4.5607    2.0988 C   0  0  0  0  0  0  0  0  0  0  0  0
    5.1087   -1.6883    1.5740 C   0  0  0  0  0  0  0  0  0  0  0  0
    4.7010   -0.5162    0.9809 C   0  0  0  0  0  0  0  0  0  0  0  0
    4.9343    0.8377    1.4356 C   0  0  0  0  0  0  0  0  0  0  0  0
    4.0140    1.6372    1.3129 O   0  0  0  0  0  0  0  0  0  0  0  0
    6.2232    1.1658    2.0917 C   0  0  0  0  0  0  0  0  0  0  0  0
    7.4808    0.6132    1.8654 C   0  0  0  0  0  0  0  0  0  0  0  0
    7.9924   -0.4078    0.9022 C   0  0  0  0  0  0  0  0  0  0  0  0
    8.3663    1.2004    2.7447 N   0  0  0  0  0  0  0  0  0  0  0  0
    7.7478    2.1513    3.5230 C   0  0  0  0  0  0  0  0  0  0  0  0
    8.4663    2.8976    4.5706 C   0  0  0  0  0  0  0  0  0  0  0  0
    8.1581    4.2446    4.8115 C   0  0  0  0  0  0  0  0  0  0  0  0
    8.5681    4.8720    5.9850 C   0  0  0  0  0  0  0  0  0  0  0  0
    9.3789    4.1937    6.8880 C   0  0  0  0  0  0  0  0  0  0  0  0
    9.8032    2.8973    6.5993 C   0  0  0  0  0  0  0  0  0  0  0  0
    9.3451    2.2476    5.4478 C   0  0  0  0  0  0  0  0  0  0  0  0
    6.4054    2.1716    3.1362 C   0  0  0  0  0  0  0  0  0  0  0  0
    5.3787    3.0319    3.7561 C   0  0  0  0  0  0  0  0  0  0  0  0
    4.4668    3.7389    2.9643 C   0  0  0  0  0  0  0  0  0  0  0  0
    3.4319    4.4831    3.5327 C   0  0  0  0  0  0  0  0  0  0  0  0
    3.3818    4.6570    4.9092 C   0  0  0  0  0  0  0  0  0  0  0  0
    4.3358    4.0419    5.7141 C   0  0  0  0  0  0  0  0  0  0  0  0
    5.2877    3.1880    5.1467 C   0  0  0  0  0  0  0  0  0  0  0  0
    1.2960    0.2397   -2.0924 H   0  0  0  0  0  0  0  0  0  0  0  0
    1.2252   -1.0540   -0.8882 H   0  0  0  0  0  0  0  0  0  0  0  0
    2.1093   -1.3087   -2.4293 H   0  0  0  0  0  0  0  0  0  0  0  0
    3.7037   -4.6971   -0.7460 H   0  0  0  0  0  0  0  0  0  0  0  0
    4.1066   -7.1031   -0.4264 H   0  0  0  0  0  0  0  0  0  0  0  0
    6.4110   -6.2724    3.1153 H   0  0  0  0  0  0  0  0  0  0  0  0
    6.0393   -3.8872    2.8281 H   0  0  0  0  0  0  0  0  0  0  0  0
    5.7185   -1.8446    2.4506 H   0  0  0  0  0  0  0  0  0  0  0  0
    7.2614   -0.6697    0.1340 H   0  0  0  0  0  0  0  0  0  0  0  0
    8.2732   -1.3239    1.4347 H   0  0  0  0  0  0  0  0  0  0  0  0
    8.8793   -0.0368    0.3780 H   0  0  0  0  0  0  0  0  0  0  0  0
    9.3510    0.9779    2.7965 H   0  0  0  0  0  0  0  0  0  0  0  0
    7.5023    4.7838    4.1309 H   0  0  0  0  0  0  0  0  0  0  0  0
    8.2133    5.8751    6.2067 H   0  0  0  0  0  0  0  0  0  0  0  0
    9.6705    4.6721    7.8191 H   0  0  0  0  0  0  0  0  0  0  0  0
   10.4529    2.3763    7.2975 H   0  0  0  0  0  0  0  0  0  0  0  0
    9.6347    1.2115    5.2890 H   0  0  0  0  0  0  0  0  0  0  0  0
    4.5251    3.7034    1.8797 H   0  0  0  0  0  0  0  0  0  0  0  0
    2.6766    4.9256    2.8888 H   0  0  0  0  0  0  0  0  0  0  0  0
    2.6054    5.2749    5.3496 H   0  0  0  0  0  0  0  0  0  0  0  0
    4.3385    4.2183    6.7858 H   0  0  0  0  0  0  0  0  0  0  0  0
    5.9895    2.6866    5.8087 H   0  0  0  0  0  0  0  0  0  0  0  0
  1  2  1  0  0  0  0
  1 36  1  0  0  0  0
  1 37  1  0  0  0  0
  1 38  1  0  0  0  0
  2  3  2  0  0  0  0
  2  4  1  0  0  0  0
  4  5  2  0  0  0  0
  4 15  1  0  0  0  0
  5  6  1  0  0  0  0
  6  7  1  0  0  0  0
  6 14  1  0  0  0  0
  7  8  1  0  0  0  0
  7 13  2  0  0  0  0
  8  9  2  0  0  0  0
  8 39  1  0  0  0  0
  9 10  1  0  0  0  0
  9 40  1  0  0  0  0
 10 11  1  0  0  0  0
 10 12  2  0  0  0  0
 12 13  1  0  0  0  0
 12 41  1  0  0  0  0
 13 42  1  0  0  0  0
 14 15  2  0  0  0  0
 14 43  1  0  0  0  0
 15 16  1  0  0  0  0
 16 17  2  0  0  0  0
 16 18  1  0  0  0  0
 18 19  2  0  0  0  0
 18 29  1  0  0  0  0
 19 20  1  0  0  0  0
 19 21  1  0  0  0  0
 20 44  1  0  0  0  0
 20 45  1  0  0  0  0
 20 46  1  0  0  0  0
 21 22  1  0  0  0  0
 21 47  1  0  0  0  0
 22 23  1  0  0  0  0
 22 29  2  0  0  0  0
 23 24  1  0  0  0  0
 23 28  2  0  0  0  0
 24 25  2  0  0  0  0
 24 48  1  0  0  0  0
 25 26  1  0  0  0  0
 25 49  1  0  0  0  0
 26 27  2  0  0  0  0
 26 50  1  0  0  0  0
 27 28  1  0  0  0  0
 27 51  1  0  0  0  0
 28 52  1  0  0  0  0
 29 30  1  0  0  0  0
 30 31  1  0  0  0  0
 30 35  2  0  0  0  0
 31 32  2  0  0  0  0
 31 53  1  0  0  0  0
 32 33  1  0  0  0  0
 32 54  1  0  0  0  0
 33 34  2  0  0  0  0
 33 55  1  0  0  0  0
 34 35  1  0  0  0  0
 34 56  1  0  0  0  0
 35 57  1  0  0  0  0
M  END
$$$$
