CHEMBL3656089
 OpenBabel04072215373D

 65 68  0  0  0  0  0  0  0  0999 V2000
   -5.3669  -15.5572   -0.3491 C   0  0  0  0  0  0  0  0  0  0  0  0
   -5.8849  -14.3078    0.3032 C   0  0  0  0  0  0  0  0  0  0  0  0
   -6.0389  -14.2615    1.6913 C   0  0  0  0  0  0  0  0  0  0  0  0
   -6.5129  -13.1160    2.3078 C   0  0  0  0  0  0  0  0  0  0  0  0
   -6.8433  -12.0003    1.5402 C   0  0  0  0  0  0  0  0  0  0  0  0
   -6.6971  -12.0031    0.1497 C   0  0  0  0  0  0  0  0  0  0  0  0
   -7.0316  -10.8846   -0.6595 N   0  0  0  0  0  0  0  0  0  0  0  0
   -7.3866   -9.6340   -0.1923 C   0  0  0  0  0  0  0  0  0  0  0  0
   -7.3587   -9.2736    0.9793 O   0  0  0  0  0  0  0  0  0  0  0  0
   -7.8331   -8.7982   -1.2118 N   0  0  0  0  0  0  0  0  0  0  0  0
   -8.2808   -7.4843   -0.9120 C   0  0  0  0  0  0  0  0  0  0  0  0
   -7.5732   -6.6255   -0.0643 C   0  0  0  0  0  0  0  0  0  0  0  0
   -8.0659   -5.3448    0.2135 C   0  0  0  0  0  0  0  0  0  0  0  0
   -9.2735   -4.9190   -0.3470 C   0  0  0  0  0  0  0  0  0  0  0  0
   -9.6827   -3.6438   -0.0227 O   0  0  0  0  0  0  0  0  0  0  0  0
  -10.3830   -2.8956   -0.9455 C   0  0  0  0  0  0  0  0  0  0  0  0
  -10.2141   -2.9908   -2.3238 C   0  0  0  0  0  0  0  0  0  0  0  0
  -11.0148   -2.2075   -3.1334 C   0  0  0  0  0  0  0  0  0  0  0  0
  -11.9087   -1.3128   -2.6642 N   0  0  0  0  0  0  0  0  0  0  0  0
  -12.0046   -1.1830   -1.3175 C   0  0  0  0  0  0  0  0  0  0  0  0
  -12.9498   -0.1552   -0.8898 C   0  0  0  0  0  0  0  0  0  0  0  0
  -13.3285    0.3145    0.3585 C   0  0  0  0  0  0  0  0  0  0  0  0
  -14.3039    1.3483    0.1907 C   0  0  0  0  0  0  0  0  0  0  0  0
  -15.0196    2.1555    1.1801 C   0  0  0  0  0  0  0  0  0  0  0  0
  -15.8833    2.9686    0.8629 O   0  0  0  0  0  0  0  0  0  0  0  0
  -14.6592    1.9333    2.4915 N   0  0  0  0  0  0  0  0  0  0  0  0
  -15.2713    2.6519    3.5863 C   0  0  0  0  0  0  0  0  0  0  0  0
  -16.5489    1.9739    4.0887 C   0  0  0  0  0  0  0  0  0  0  0  0
  -16.3367    0.5531    4.6038 C   0  0  0  0  0  0  0  0  0  0  0  0
  -15.3795    0.5193    5.7656 C   0  0  0  0  0  0  0  0  0  0  0  0
  -14.1711    0.3870    5.6403 O   0  0  0  0  0  0  0  0  0  0  0  0
  -15.9734    0.7026    6.9636 O   0  0  0  0  0  0  0  0  0  0  0  0
  -14.4799    1.4732   -1.1771 C   0  0  0  0  0  0  0  0  0  0  0  0
  -13.6662    0.5775   -1.8101 N   0  0  0  0  0  0  0  0  0  0  0  0
  -11.2679   -1.9520   -0.4279 C   0  0  0  0  0  0  0  0  0  0  0  0
  -10.0138   -5.7991   -1.1376 C   0  0  0  0  0  0  0  0  0  0  0  0
   -9.4899   -7.0503   -1.4527 C   0  0  0  0  0  0  0  0  0  0  0  0
  -10.1936   -7.8688   -2.2492 F   0  0  0  0  0  0  0  0  0  0  0  0
   -6.2181  -13.1703   -0.4667 C   0  0  0  0  0  0  0  0  0  0  0  0
   -5.1869  -16.3431    0.3931 H   0  0  0  0  0  0  0  0  0  0  0  0
   -4.4183  -15.3578   -0.8559 H   0  0  0  0  0  0  0  0  0  0  0  0
   -6.0954  -15.9448   -1.0675 H   0  0  0  0  0  0  0  0  0  0  0  0
   -5.7858  -15.1274    2.3048 H   0  0  0  0  0  0  0  0  0  0  0  0
   -6.6337  -13.0794    3.3850 H   0  0  0  0  0  0  0  0  0  0  0  0
   -7.2232  -11.1383    2.0782 H   0  0  0  0  0  0  0  0  0  0  0  0
   -6.8730  -10.9748   -1.6526 H   0  0  0  0  0  0  0  0  0  0  0  0
   -8.3582   -9.2711   -1.9375 H   0  0  0  0  0  0  0  0  0  0  0  0
   -6.6345   -6.9396    0.3891 H   0  0  0  0  0  0  0  0  0  0  0  0
   -7.5073   -4.6857    0.8743 H   0  0  0  0  0  0  0  0  0  0  0  0
   -9.4942   -3.6643   -2.7736 H   0  0  0  0  0  0  0  0  0  0  0  0
  -10.9555   -2.2831   -4.2155 H   0  0  0  0  0  0  0  0  0  0  0  0
  -12.9387   -0.0550    1.2970 H   0  0  0  0  0  0  0  0  0  0  0  0
  -13.9403    1.2577    2.7093 H   0  0  0  0  0  0  0  0  0  0  0  0
  -15.5100    3.6690    3.2556 H   0  0  0  0  0  0  0  0  0  0  0  0
  -14.5254    2.7377    4.3823 H   0  0  0  0  0  0  0  0  0  0  0  0
  -17.2869    1.9408    3.2780 H   0  0  0  0  0  0  0  0  0  0  0  0
  -16.9788    2.5910    4.8869 H   0  0  0  0  0  0  0  0  0  0  0  0
  -15.9432   -0.1039    3.8199 H   0  0  0  0  0  0  0  0  0  0  0  0
  -17.2913    0.1102    4.9106 H   0  0  0  0  0  0  0  0  0  0  0  0
  -16.9436    0.8005    6.9212 H   0  0  0  0  0  0  0  0  0  0  0  0
  -15.1208    2.1363   -1.7447 H   0  0  0  0  0  0  0  0  0  0  0  0
  -13.5767    0.4456   -2.8107 H   0  0  0  0  0  0  0  0  0  0  0  0
  -11.3700   -1.8301    0.6436 H   0  0  0  0  0  0  0  0  0  0  0  0
  -10.9946   -5.5336   -1.5183 H   0  0  0  0  0  0  0  0  0  0  0  0
   -6.0983  -13.2117   -1.5446 H   0  0  0  0  0  0  0  0  0  0  0  0
  1  2  1  0  0  0  0
  1 40  1  0  0  0  0
  1 41  1  0  0  0  0
  1 42  1  0  0  0  0
  2  3  1  0  0  0  0
  2 39  2  0  0  0  0
  3  4  2  0  0  0  0
  3 43  1  0  0  0  0
  4  5  1  0  0  0  0
  4 44  1  0  0  0  0
  5  6  2  0  0  0  0
  5 45  1  0  0  0  0
  6  7  1  0  0  0  0
  6 39  1  0  0  0  0
  7  8  1  0  0  0  0
  7 46  1  0  0  0  0
  8  9  2  0  0  0  0
  8 10  1  0  0  0  0
 10 11  1  0  0  0  0
 10 47  1  0  0  0  0
 11 12  1  0  0  0  0
 11 37  2  0  0  0  0
 12 13  2  0  0  0  0
 12 48  1  0  0  0  0
 13 14  1  0  0  0  0
 13 49  1  0  0  0  0
 14 15  1  0  0  0  0
 14 36  2  0  0  0  0
 15 16  1  0  0  0  0
 16 17  1  0  0  0  0
 16 35  2  0  0  0  0
 17 18  2  0  0  0  0
 17 50  1  0  0  0  0
 18 19  1  0  0  0  0
 18 51  1  0  0  0  0
 19 20  2  0  0  0  0
 20 21  1  0  0  0  0
 20 35  1  0  0  0  0
 21 22  2  0  0  0  0
 21 34  1  0  0  0  0
 22 23  1  0  0  0  0
 22 52  1  0  0  0  0
 23 24  1  0  0  0  0
 23 33  2  0  0  0  0
 24 25  2  0  0  0  0
 24 26  1  0  0  0  0
 26 27  1  0  0  0  0
 26 53  1  0  0  0  0
 27 28  1  0  0  0  0
 27 54  1  0  0  0  0
 27 55  1  0  0  0  0
 28 29  1  0  0  0  0
 28 56  1  0  0  0  0
 28 57  1  0  0  0  0
 29 30  1  0  0  0  0
 29 58  1  0  0  0  0
 29 59  1  0  0  0  0
 30 31  2  0  0  0  0
 30 32  1  0  0  0  0
 32 60  1  0  0  0  0
 33 34  1  0  0  0  0
 33 61  1  0  0  0  0
 34 62  1  0  0  0  0
 35 63  1  0  0  0  0
 36 37  1  0  0  0  0
 36 64  1  0  0  0  0
 37 38  1  0  0  0  0
 39 65  1  0  0  0  0
M  END
$$$$
