CHEMBL424664
 OpenBabel04072215383D

 69 73  0  0  0  0  0  0  0  0999 V2000
    1.3542    2.1460   -1.8269 C   0  0  0  0  0  0  0  0  0  0  0  0
    1.8746    2.4415   -3.1183 O   0  0  0  0  0  0  0  0  0  0  0  0
    3.2052    2.8125   -3.0904 C   0  0  0  0  0  0  0  0  0  0  0  0
    3.8058    3.0017   -4.3219 C   0  0  0  0  0  0  0  0  0  0  0  0
    5.1548    3.3283   -4.3481 C   0  0  0  0  0  0  0  0  0  0  0  0
    5.8495    3.4663   -3.1466 C   0  0  0  0  0  0  0  0  0  0  0  0
    7.5606    3.7027   -3.2504 Cl  0  0  0  0  0  0  0  0  0  0  0  0
    5.1537    3.3104   -1.9350 C   0  0  0  0  0  0  0  0  0  0  0  0
    5.7568    3.4327   -0.6736 N   0  0  0  0  0  0  0  0  0  0  0  0
    6.5359    4.5224   -0.2289 C   0  0  0  0  0  0  0  0  0  0  0  0
    6.5268    5.6415   -0.9943 N   0  0  0  0  0  0  0  0  0  0  0  0
    7.2583    6.6719   -0.5796 C   0  0  0  0  0  0  0  0  0  0  0  0
    7.9507    6.7149    0.5540 N   0  0  0  0  0  0  0  0  0  0  0  0
    7.9292    5.6176    1.3116 C   0  0  0  0  0  0  0  0  0  0  0  0
    8.6212    5.7146    2.4981 C   0  0  0  0  0  0  0  0  0  0  0  0
    8.6764    4.6658    3.4086 C   0  0  0  0  0  0  0  0  0  0  0  0
    9.2895    4.7214    4.6330 O   0  0  0  0  0  0  0  0  0  0  0  0
    9.7560    6.0162    5.0301 C   0  0  0  0  0  0  0  0  0  0  0  0
   10.3221    5.9426    6.4417 C   0  0  0  0  0  0  0  0  0  0  0  0
    9.2360    5.5818    7.4600 C   0  0  0  0  0  0  0  0  0  0  0  0
    9.7170    5.6030    8.8518 N   0  0  0  0  0  0  0  0  0  0  0  0
   10.7796    4.6112    9.1348 C   0  0  0  0  0  0  0  0  0  0  0  0
   10.2880    3.1543    9.1672 C   0  0  0  0  0  0  0  0  0  0  0  0
    9.2187    2.9826   10.1068 O   0  0  0  0  0  0  0  0  0  0  0  0
    8.1323    3.8737    9.8080 C   0  0  0  0  0  0  0  0  0  0  0  0
    8.6013    5.3406    9.7930 C   0  0  0  0  0  0  0  0  0  0  0  0
    8.0767    3.4524    3.0862 C   0  0  0  0  0  0  0  0  0  0  0  0
    7.3920    3.3046    1.8753 C   0  0  0  0  0  0  0  0  0  0  0  0
    6.7949    2.1202    1.5079 O   0  0  0  0  0  0  0  0  0  0  0  0
    7.3173    0.8674    2.0044 C   0  0  0  0  0  0  0  0  0  0  0  0
    8.7010    0.5497    1.4205 C   0  0  0  0  0  0  0  0  0  0  0  0
    9.1000   -0.8995    1.6642 C   0  0  0  0  0  0  0  0  0  0  0  0
    8.0994   -1.7905    1.1808 O   0  0  0  0  0  0  0  0  0  0  0  0
    6.8615   -1.6167    1.8638 C   0  0  0  0  0  0  0  0  0  0  0  0
    6.3082   -0.2222    1.6174 C   0  0  0  0  0  0  0  0  0  0  0  0
    7.2633    4.4274    0.9813 C   0  0  0  0  0  0  0  0  0  0  0  0
    3.8418    2.9599   -1.9071 N   0  0  0  0  0  0  0  0  0  0  0  0
    0.3058    1.8570   -1.9473 H   0  0  0  0  0  0  0  0  0  0  0  0
    1.3844    3.0262   -1.1758 H   0  0  0  0  0  0  0  0  0  0  0  0
    1.8827    1.3007   -1.3719 H   0  0  0  0  0  0  0  0  0  0  0  0
    3.2447    2.8689   -5.2403 H   0  0  0  0  0  0  0  0  0  0  0  0
    5.6668    3.4496   -5.2979 H   0  0  0  0  0  0  0  0  0  0  0  0
    5.0520    3.2236    0.0270 H   0  0  0  0  0  0  0  0  0  0  0  0
    7.2942    7.5478   -1.2176 H   0  0  0  0  0  0  0  0  0  0  0  0
    9.1117    6.6622    2.6996 H   0  0  0  0  0  0  0  0  0  0  0  0
    8.9348    6.7439    5.0048 H   0  0  0  0  0  0  0  0  0  0  0  0
   10.5602    6.3359    4.3572 H   0  0  0  0  0  0  0  0  0  0  0  0
   10.7684    6.9105    6.6980 H   0  0  0  0  0  0  0  0  0  0  0  0
   11.1146    5.1881    6.4467 H   0  0  0  0  0  0  0  0  0  0  0  0
    8.7910    4.6164    7.1973 H   0  0  0  0  0  0  0  0  0  0  0  0
    8.4373    6.3305    7.3671 H   0  0  0  0  0  0  0  0  0  0  0  0
   11.1919    4.8562   10.1222 H   0  0  0  0  0  0  0  0  0  0  0  0
   11.6201    4.7111    8.4417 H   0  0  0  0  0  0  0  0  0  0  0  0
   11.1075    2.5013    9.4841 H   0  0  0  0  0  0  0  0  0  0  0  0
    9.9612    2.8138    8.1779 H   0  0  0  0  0  0  0  0  0  0  0  0
    7.3768    3.7378   10.5876 H   0  0  0  0  0  0  0  0  0  0  0  0
    7.6758    3.5803    8.8635 H   0  0  0  0  0  0  0  0  0  0  0  0
    8.9526    5.6068   10.7991 H   0  0  0  0  0  0  0  0  0  0  0  0
    7.7549    6.0055    9.5811 H   0  0  0  0  0  0  0  0  0  0  0  0
    8.1443    2.6460    3.8084 H   0  0  0  0  0  0  0  0  0  0  0  0
    7.3596    0.8749    3.0993 H   0  0  0  0  0  0  0  0  0  0  0  0
    9.4620    1.2096    1.8516 H   0  0  0  0  0  0  0  0  0  0  0  0
    8.6913    0.7507    0.3423 H   0  0  0  0  0  0  0  0  0  0  0  0
    9.2768   -1.0960    2.7284 H   0  0  0  0  0  0  0  0  0  0  0  0
   10.0306   -1.1257    1.1329 H   0  0  0  0  0  0  0  0  0  0  0  0
    7.0051   -1.8130    2.9330 H   0  0  0  0  0  0  0  0  0  0  0  0
    6.1630   -2.3698    1.4844 H   0  0  0  0  0  0  0  0  0  0  0  0
    5.3777   -0.0830    2.1805 H   0  0  0  0  0  0  0  0  0  0  0  0
    6.0469   -0.1131    0.5574 H   0  0  0  0  0  0  0  0  0  0  0  0
  1  2  1  0  0  0  0
  1 38  1  0  0  0  0
  1 39  1  0  0  0  0
  1 40  1  0  0  0  0
  2  3  1  0  0  0  0
  3  4  1  0  0  0  0
  3 37  2  0  0  0  0
  4  5  2  0  0  0  0
  4 41  1  0  0  0  0
  5  6  1  0  0  0  0
  5 42  1  0  0  0  0
  6  7  1  0  0  0  0
  6  8  2  0  0  0  0
  8  9  1  0  0  0  0
  8 37  1  0  0  0  0
  9 10  1  0  0  0  0
  9 43  1  0  0  0  0
 10 11  1  0  0  0  0
 10 36  2  0  0  0  0
 11 12  2  0  0  0  0
 12 13  1  0  0  0  0
 12 44  1  0  0  0  0
 13 14  2  0  0  0  0
 14 15  1  0  0  0  0
 14 36  1  0  0  0  0
 15 16  2  0  0  0  0
 15 45  1  0  0  0  0
 16 17  1  0  0  0  0
 16 27  1  0  0  0  0
 17 18  1  0  0  0  0
 18 19  1  0  0  0  0
 18 46  1  0  0  0  0
 18 47  1  0  0  0  0
 19 20  1  0  0  0  0
 19 48  1  0  0  0  0
 19 49  1  0  0  0  0
 20 21  1  0  0  0  0
 20 50  1  0  0  0  0
 20 51  1  0  0  0  0
 21 22  1  0  0  0  0
 21 26  1  0  0  0  0
 22 23  1  0  0  0  0
 22 52  1  0  0  0  0
 22 53  1  0  0  0  0
 23 24  1  0  0  0  0
 23 54  1  0  0  0  0
 23 55  1  0  0  0  0
 24 25  1  0  0  0  0
 25 26  1  0  0  0  0
 25 56  1  0  0  0  0
 25 57  1  0  0  0  0
 26 58  1  0  0  0  0
 26 59  1  0  0  0  0
 27 28  2  0  0  0  0
 27 60  1  0  0  0  0
 28 29  1  0  0  0  0
 28 36  1  0  0  0  0
 29 30  1  0  0  0  0
 30 31  1  0  0  0  0
 30 35  1  0  0  0  0
 30 61  1  0  0  0  0
 31 32  1  0  0  0  0
 31 62  1  0  0  0  0
 31 63  1  0  0  0  0
 32 33  1  0  0  0  0
 32 64  1  0  0  0  0
 32 65  1  0  0  0  0
 33 34  1  0  0  0  0
 34 35  1  0  0  0  0
 34 66  1  0  0  0  0
 34 67  1  0  0  0  0
 35 68  1  0  0  0  0
 35 69  1  0  0  0  0
M  END
$$$$
