CHEMBL4101428
 OpenBabel04072215383D

 52 55  0  0  0  0  0  0  0  0999 V2000
   -3.5888    3.1265    1.7012 C   0  0  0  0  0  0  0  0  0  0  0  0
   -3.1665    1.7209    1.4666 C   0  0  0  0  0  0  0  0  0  0  0  0
   -3.9897    0.7640    1.9166 N   0  0  0  0  0  0  0  0  0  0  0  0
   -3.3943   -0.3770    1.5379 N   0  0  0  0  0  0  0  0  0  0  0  0
   -2.2175   -0.1944    0.8853 C   0  0  0  0  0  0  0  0  0  0  0  0
   -1.4607   -1.1977    0.4061 N   0  0  0  0  0  0  0  0  0  0  0  0
   -0.3431   -0.7641   -0.1965 C   0  0  0  0  0  0  0  0  0  0  0  0
    0.0312    0.5653   -0.3133 C   0  0  0  0  0  0  0  0  0  0  0  0
   -0.7834    1.6032    0.2019 C   0  0  0  0  0  0  0  0  0  0  0  0
   -0.3709    3.0161    0.0536 C   0  0  0  0  0  0  0  0  0  0  0  0
    0.3456    3.4394   -1.0763 C   0  0  0  0  0  0  0  0  0  0  0  0
    0.7850    4.7592   -1.2224 C   0  0  0  0  0  0  0  0  0  0  0  0
    0.4813    5.7265   -0.2692 C   0  0  0  0  0  0  0  0  0  0  0  0
    0.9031    7.0710   -0.3603 N   0  0  0  0  0  0  0  0  0  0  0  0
    1.7108    7.5933   -1.3448 C   0  0  0  0  0  0  0  0  0  0  0  0
    2.1305    6.9978   -2.3297 O   0  0  0  0  0  0  0  0  0  0  0  0
    2.0594    8.9014   -1.1096 N   0  0  0  0  0  0  0  0  0  0  0  0
    2.9110    9.5957   -2.0584 C   0  0  0  0  0  0  0  0  0  0  0  0
    2.1464   10.0830   -3.2908 C   0  0  0  0  0  0  0  0  0  0  0  0
    1.1530   11.1830   -2.9231 C   0  0  0  0  0  0  0  0  0  0  0  0
    0.4305   11.7442   -4.1197 C   0  0  0  0  0  0  0  0  0  0  0  0
   -0.7709   11.1717   -4.5573 C   0  0  0  0  0  0  0  0  0  0  0  0
   -1.4686   11.7289   -5.6298 C   0  0  0  0  0  0  0  0  0  0  0  0
   -0.9656   12.8538   -6.2809 C   0  0  0  0  0  0  0  0  0  0  0  0
    0.2448   13.4111   -5.8729 C   0  0  0  0  0  0  0  0  0  0  0  0
    0.9436   12.8557   -4.8005 C   0  0  0  0  0  0  0  0  0  0  0  0
   -0.2417    5.3356    0.8552 C   0  0  0  0  0  0  0  0  0  0  0  0
   -0.6037    3.9903    1.0322 C   0  0  0  0  0  0  0  0  0  0  0  0
   -1.9892    1.1801    0.8328 C   0  0  0  0  0  0  0  0  0  0  0  0
   -4.6510    3.1825    1.9626 H   0  0  0  0  0  0  0  0  0  0  0  0
   -3.4397    3.7423    0.8109 H   0  0  0  0  0  0  0  0  0  0  0  0
   -3.0463    3.5599    2.5481 H   0  0  0  0  0  0  0  0  0  0  0  0
   -3.8361   -1.2603    1.7505 H   0  0  0  0  0  0  0  0  0  0  0  0
    0.2887   -1.5486   -0.6068 H   0  0  0  0  0  0  0  0  0  0  0  0
    0.9746    0.7840   -0.8066 H   0  0  0  0  0  0  0  0  0  0  0  0
    0.6012    2.7468   -1.8755 H   0  0  0  0  0  0  0  0  0  0  0  0
    1.3694    4.9833   -2.1084 H   0  0  0  0  0  0  0  0  0  0  0  0
    0.6315    7.6896    0.3861 H   0  0  0  0  0  0  0  0  0  0  0  0
    1.6456    9.4157   -0.3489 H   0  0  0  0  0  0  0  0  0  0  0  0
    3.7053    8.9099   -2.3772 H   0  0  0  0  0  0  0  0  0  0  0  0
    3.3879   10.4300   -1.5339 H   0  0  0  0  0  0  0  0  0  0  0  0
    1.6195    9.2493   -3.7729 H   0  0  0  0  0  0  0  0  0  0  0  0
    2.8677   10.4627   -4.0252 H   0  0  0  0  0  0  0  0  0  0  0  0
    1.6762   11.9973   -2.4064 H   0  0  0  0  0  0  0  0  0  0  0  0
    0.4120   10.8042   -2.2081 H   0  0  0  0  0  0  0  0  0  0  0  0
   -1.1756   10.2941   -4.0578 H   0  0  0  0  0  0  0  0  0  0  0  0
   -2.4079   11.2882   -5.9533 H   0  0  0  0  0  0  0  0  0  0  0  0
   -1.5158   13.2947   -7.1077 H   0  0  0  0  0  0  0  0  0  0  0  0
    0.6418   14.2831   -6.3856 H   0  0  0  0  0  0  0  0  0  0  0  0
    1.8853   13.3031   -4.4914 H   0  0  0  0  0  0  0  0  0  0  0  0
   -0.5088    6.0515    1.6274 H   0  0  0  0  0  0  0  0  0  0  0  0
   -1.0505    3.7125    1.9791 H   0  0  0  0  0  0  0  0  0  0  0  0
  1  2  1  0  0  0  0
  1 30  1  0  0  0  0
  1 31  1  0  0  0  0
  1 32  1  0  0  0  0
  2  3  2  0  0  0  0
  2 29  1  0  0  0  0
  3  4  1  0  0  0  0
  4  5  1  0  0  0  0
  4 33  1  0  0  0  0
  5  6  1  0  0  0  0
  5 29  2  0  0  0  0
  6  7  2  0  0  0  0
  7  8  1  0  0  0  0
  7 34  1  0  0  0  0
  8  9  2  0  0  0  0
  8 35  1  0  0  0  0
  9 10  1  0  0  0  0
  9 29  1  0  0  0  0
 10 11  1  0  0  0  0
 10 28  2  0  0  0  0
 11 12  2  0  0  0  0
 11 36  1  0  0  0  0
 12 13  1  0  0  0  0
 12 37  1  0  0  0  0
 13 14  1  0  0  0  0
 13 27  2  0  0  0  0
 14 15  1  0  0  0  0
 14 38  1  0  0  0  0
 15 16  2  0  0  0  0
 15 17  1  0  0  0  0
 17 18  1  0  0  0  0
 17 39  1  0  0  0  0
 18 19  1  0  0  0  0
 18 40  1  0  0  0  0
 18 41  1  0  0  0  0
 19 20  1  0  0  0  0
 19 42  1  0  0  0  0
 19 43  1  0  0  0  0
 20 21  1  0  0  0  0
 20 44  1  0  0  0  0
 20 45  1  0  0  0  0
 21 22  1  0  0  0  0
 21 26  2  0  0  0  0
 22 23  2  0  0  0  0
 22 46  1  0  0  0  0
 23 24  1  0  0  0  0
 23 47  1  0  0  0  0
 24 25  2  0  0  0  0
 24 48  1  0  0  0  0
 25 26  1  0  0  0  0
 25 49  1  0  0  0  0
 26 50  1  0  0  0  0
 27 28  1  0  0  0  0
 27 51  1  0  0  0  0
 28 52  1  0  0  0  0
M  END
$$$$
