CHEMBL359084
 OpenBabel04072215363D

 53 58  0  0  0  0  0  0  0  0999 V2000
    0.9322   -0.6958   -0.4580 C   0  0  0  0  0  0  0  0  0  0  0  0
    2.0853    0.2451   -0.2208 C   0  0  0  0  0  0  0  0  0  0  0  0
    2.3583    1.1368   -1.0244 O   0  0  0  0  0  0  0  0  0  0  0  0
    2.9167    0.0530    0.9944 C   0  0  0  0  0  0  0  0  0  0  0  0
    2.6395   -0.9905    1.8877 C   0  0  0  0  0  0  0  0  0  0  0  0
    3.4656   -1.2802    2.9530 C   0  0  0  0  0  0  0  0  0  0  0  0
    4.6086   -0.5091    3.1172 C   0  0  0  0  0  0  0  0  0  0  0  0
    4.8947    0.5851    2.2579 C   0  0  0  0  0  0  0  0  0  0  0  0
    4.0243    0.8768    1.2050 C   0  0  0  0  0  0  0  0  0  0  0  0
    6.0319    1.0989    2.8232 C   0  0  0  0  0  0  0  0  0  0  0  0
    6.3978    2.4844    2.8815 C   0  0  0  0  0  0  0  0  0  0  0  0
    7.0926    2.8976    4.1138 C   0  0  0  0  0  0  0  0  0  0  0  0
    7.3465    1.9343    5.1027 C   0  0  0  0  0  0  0  0  0  0  0  0
    7.6798    0.7849    4.4014 C   0  0  0  0  0  0  0  0  0  0  0  0
    6.6541    0.2462    3.6840 C   0  0  0  0  0  0  0  0  0  0  0  0
    5.5864   -0.5317    4.1222 N   0  0  0  0  0  0  0  0  0  0  0  0
    5.3268   -0.8137    5.5438 C   0  0  0  0  0  0  0  0  0  0  0  0
    4.4537   -1.9996    5.9478 C   0  0  0  0  0  0  0  0  0  0  0  0
    4.3012   -2.1525    7.4596 C   0  0  0  0  0  0  0  0  0  0  0  0
    3.5394   -3.3230    7.7364 O   0  0  0  0  0  0  0  0  0  0  0  0
    9.0244    0.3263    4.7558 C   0  0  0  0  0  0  0  0  0  0  0  0
    8.8275    0.4896    6.2360 C   0  0  0  0  0  0  0  0  0  0  0  0
    8.9435   -0.6545    7.0328 C   0  0  0  0  0  0  0  0  0  0  0  0
    8.0552   -0.8032    8.0787 C   0  0  0  0  0  0  0  0  0  0  0  0
    7.1461    0.2286    8.3637 C   0  0  0  0  0  0  0  0  0  0  0  0
    7.0731    1.4167    7.5767 C   0  0  0  0  0  0  0  0  0  0  0  0
    7.8958    1.5703    6.4359 C   0  0  0  0  0  0  0  0  0  0  0  0
    7.7395    4.1461    3.8000 C   0  0  0  0  0  0  0  0  0  0  0  0
    8.5476    4.8280    4.3944 O   0  0  0  0  0  0  0  0  0  0  0  0
    7.3863    4.4033    2.4510 N   0  0  0  0  0  0  0  0  0  0  0  0
    6.5169    3.4408    1.7926 C   0  0  0  0  0  0  0  0  0  0  0  0
    0.4623   -0.4639   -1.4191 H   0  0  0  0  0  0  0  0  0  0  0  0
    0.1850   -0.5682    0.3306 H   0  0  0  0  0  0  0  0  0  0  0  0
    1.2802   -1.7360   -0.4985 H   0  0  0  0  0  0  0  0  0  0  0  0
    1.7588   -1.6259    1.7620 H   0  0  0  0  0  0  0  0  0  0  0  0
    3.2219   -2.1124    3.5999 H   0  0  0  0  0  0  0  0  0  0  0  0
    4.2417    1.6973    0.5088 H   0  0  0  0  0  0  0  0  0  0  0  0
    4.8982    0.1128    5.9563 H   0  0  0  0  0  0  0  0  0  0  0  0
    6.3050   -0.9754    5.9907 H   0  0  0  0  0  0  0  0  0  0  0  0
    4.8632   -2.9208    5.5201 H   0  0  0  0  0  0  0  0  0  0  0  0
    3.4413   -1.8833    5.5603 H   0  0  0  0  0  0  0  0  0  0  0  0
    3.7799   -1.2967    7.9011 H   0  0  0  0  0  0  0  0  0  0  0  0
    5.2665   -2.2636    7.9593 H   0  0  0  0  0  0  0  0  0  0  0  0
    2.6449   -3.1958    7.3736 H   0  0  0  0  0  0  0  0  0  0  0  0
    9.7682    1.0728    4.4317 H   0  0  0  0  0  0  0  0  0  0  0  0
    9.2936   -0.6597    4.3824 H   0  0  0  0  0  0  0  0  0  0  0  0
    9.5162   -1.5076    6.6705 H   0  0  0  0  0  0  0  0  0  0  0  0
    7.9839   -1.7701    8.5773 H   0  0  0  0  0  0  0  0  0  0  0  0
    6.3970    0.0379    9.1326 H   0  0  0  0  0  0  0  0  0  0  0  0
    6.2127    2.0637    7.7375 H   0  0  0  0  0  0  0  0  0  0  0  0
    7.9838    5.0205    1.9202 H   0  0  0  0  0  0  0  0  0  0  0  0
    7.0362    2.9956    0.9391 H   0  0  0  0  0  0  0  0  0  0  0  0
    5.5829    3.9139    1.4964 H   0  0  0  0  0  0  0  0  0  0  0  0
  1  2  1  0  0  0  0
  1 32  1  0  0  0  0
  1 33  1  0  0  0  0
  1 34  1  0  0  0  0
  2  3  2  0  0  0  0
  2  4  1  0  0  0  0
  4  5  1  0  0  0  0
  4  9  2  0  0  0  0
  5  6  2  0  0  0  0
  5 35  1  0  0  0  0
  6  7  1  0  0  0  0
  6 36  1  0  0  0  0
  7  8  2  0  0  0  0
  7 16  1  0  0  0  0
  8  9  1  0  0  0  0
  8 10  1  0  0  0  0
  9 37  1  0  0  0  0
 10 11  1  0  0  0  0
 10 15  2  0  0  0  0
 11 12  2  0  0  0  0
 11 31  1  0  0  0  0
 12 13  1  0  0  0  0
 12 28  1  0  0  0  0
 13 14  2  0  0  0  0
 13 27  1  0  0  0  0
 14 15  1  0  0  0  0
 14 21  1  0  0  0  0
 15 16  1  0  0  0  0
 16 17  1  0  0  0  0
 17 18  1  0  0  0  0
 17 38  1  0  0  0  0
 17 39  1  0  0  0  0
 18 19  1  0  0  0  0
 18 40  1  0  0  0  0
 18 41  1  0  0  0  0
 19 20  1  0  0  0  0
 19 42  1  0  0  0  0
 19 43  1  0  0  0  0
 20 44  1  0  0  0  0
 21 22  1  0  0  0  0
 21 45  1  0  0  0  0
 21 46  1  0  0  0  0
 22 23  1  0  0  0  0
 22 27  2  0  0  0  0
 23 24  2  0  0  0  0
 23 47  1  0  0  0  0
 24 25  1  0  0  0  0
 24 48  1  0  0  0  0
 25 26  2  0  0  0  0
 25 49  1  0  0  0  0
 26 27  1  0  0  0  0
 26 50  1  0  0  0  0
 28 29  2  0  0  0  0
 28 30  1  0  0  0  0
 30 31  1  0  0  0  0
 30 51  1  0  0  0  0
 31 52  1  0  0  0  0
 31 53  1  0  0  0  0
M  END
$$$$
