CHEMBL270070
 OpenBabel04072215363D

 32 34  0  0  0  0  0  0  0  0999 V2000
    1.0683   -0.0664   -0.2998 N   0  0  0  0  0  0  0  0  0  0  0  0
    2.3585   -0.2241    0.1210 C   0  0  0  0  0  0  0  0  0  0  0  0
    2.6705    0.1140    1.2504 O   0  0  0  0  0  0  0  0  0  0  0  0
    3.1535   -0.7445   -0.8666 N   0  0  0  0  0  0  0  0  0  0  0  0
    4.5365   -0.9960   -0.7970 C   0  0  0  0  0  0  0  0  0  0  0  0
    5.2852   -0.8971    0.3720 C   0  0  0  0  0  0  0  0  0  0  0  0
    6.6805   -1.0400    0.3385 C   0  0  0  0  0  0  0  0  0  0  0  0
    7.3662   -1.3184   -0.8558 C   0  0  0  0  0  0  0  0  0  0  0  0
    8.8437   -1.3957   -0.9007 C   0  0  0  0  0  0  0  0  0  0  0  0
    9.5835   -1.9832    0.1573 C   0  0  0  0  0  0  0  0  0  0  0  0
   10.9746   -2.1127    0.1229 C   0  0  0  0  0  0  0  0  0  0  0  0
   11.7014   -1.6898   -0.9860 C   0  0  0  0  0  0  0  0  0  0  0  0
   10.9703   -1.0891   -2.0060 C   0  0  0  0  0  0  0  0  0  0  0  0
   11.5057   -0.6022   -3.1547 O   0  0  0  0  0  0  0  0  0  0  0  0
   10.5159   -0.0181   -3.9142 N   0  0  0  0  0  0  0  0  0  0  0  0
    9.3914   -0.1435   -3.2060 C   0  0  0  0  0  0  0  0  0  0  0  0
    8.2291    0.4178   -3.5965 N   0  0  0  0  0  0  0  0  0  0  0  0
    9.5958   -0.8892   -2.0001 C   0  0  0  0  0  0  0  0  0  0  0  0
    6.5750   -1.5374   -1.9959 C   0  0  0  0  0  0  0  0  0  0  0  0
    5.1907   -1.3461   -1.9791 C   0  0  0  0  0  0  0  0  0  0  0  0
    0.4478    0.2203    0.4497 H   0  0  0  0  0  0  0  0  0  0  0  0
    0.6815   -0.7545   -0.9286 H   0  0  0  0  0  0  0  0  0  0  0  0
    2.7281   -0.7996   -1.7808 H   0  0  0  0  0  0  0  0  0  0  0  0
    4.8194   -0.6865    1.3298 H   0  0  0  0  0  0  0  0  0  0  0  0
    7.2224   -0.9055    1.2722 H   0  0  0  0  0  0  0  0  0  0  0  0
    9.0641   -2.3664    1.0350 H   0  0  0  0  0  0  0  0  0  0  0  0
   11.4965   -2.5654    0.9650 H   0  0  0  0  0  0  0  0  0  0  0  0
   12.7771   -1.7998   -1.0498 H   0  0  0  0  0  0  0  0  0  0  0  0
    8.2927    1.0866   -4.3572 H   0  0  0  0  0  0  0  0  0  0  0  0
    7.5622    0.7020   -2.8839 H   0  0  0  0  0  0  0  0  0  0  0  0
    7.0401   -1.8275   -2.9384 H   0  0  0  0  0  0  0  0  0  0  0  0
    4.6419   -1.4565   -2.9104 H   0  0  0  0  0  0  0  0  0  0  0  0
  1  2  1  0  0  0  0
  1 21  1  0  0  0  0
  1 22  1  0  0  0  0
  2  3  2  0  0  0  0
  2  4  1  0  0  0  0
  4  5  1  0  0  0  0
  4 23  1  0  0  0  0
  5  6  1  0  0  0  0
  5 20  2  0  0  0  0
  6  7  2  0  0  0  0
  6 24  1  0  0  0  0
  7  8  1  0  0  0  0
  7 25  1  0  0  0  0
  8  9  1  0  0  0  0
  8 19  2  0  0  0  0
  9 10  1  0  0  0  0
  9 18  2  0  0  0  0
 10 11  2  0  0  0  0
 10 26  1  0  0  0  0
 11 12  1  0  0  0  0
 11 27  1  0  0  0  0
 12 13  2  0  0  0  0
 12 28  1  0  0  0  0
 13 14  1  0  0  0  0
 13 18  1  0  0  0  0
 14 15  1  0  0  0  0
 15 16  2  0  0  0  0
 16 17  1  0  0  0  0
 16 18  1  0  0  0  0
 17 29  1  0  0  0  0
 17 30  1  0  0  0  0
 19 20  1  0  0  0  0
 19 31  1  0  0  0  0
 20 32  1  0  0  0  0
M  END
$$$$
