CHEMBL215863
 OpenBabel04072215363D

 61 65  0  0  0  0  0  0  0  0999 V2000
    2.4833    0.1577   -0.0787 C   0  0  0  0  0  0  0  0  0  0  0  0
    0.9816    0.0297    0.0089 C   0  0  0  0  0  0  0  0  0  0  0  0
    0.2523    1.2308    0.0177 C   0  0  0  0  0  0  0  0  0  0  0  0
   -1.1390    1.2274    0.0408 C   0  0  0  0  0  0  0  0  0  0  0  0
   -1.8386    0.0215    0.0760 C   0  0  0  0  0  0  0  0  0  0  0  0
   -3.3249    0.0600    0.0430 C   0  0  0  0  0  0  0  0  0  0  0  0
   -3.8367    1.0366   -0.5072 O   0  0  0  0  0  0  0  0  0  0  0  0
   -4.0026   -0.9675    0.6895 N   0  0  0  0  0  0  0  0  0  0  0  0
   -5.4195   -1.1017    0.7535 C   0  0  0  0  0  0  0  0  0  0  0  0
   -6.2398   -0.4186   -0.1555 C   0  0  0  0  0  0  0  0  0  0  0  0
   -7.6271   -0.4900   -0.0853 C   0  0  0  0  0  0  0  0  0  0  0  0
   -8.2254   -1.2651    0.8990 C   0  0  0  0  0  0  0  0  0  0  0  0
   -7.4435   -1.9865    1.8198 C   0  0  0  0  0  0  0  0  0  0  0  0
   -8.1700   -2.7837    2.8849 C   0  0  0  0  0  0  0  0  0  0  0  0
   -9.5281   -2.6831    2.8143 F   0  0  0  0  0  0  0  0  0  0  0  0
   -7.9000   -4.1164    2.8201 F   0  0  0  0  0  0  0  0  0  0  0  0
   -7.8442   -2.3901    4.1487 F   0  0  0  0  0  0  0  0  0  0  0  0
   -6.0212   -1.9217    1.7414 C   0  0  0  0  0  0  0  0  0  0  0  0
   -5.1681   -2.6845    2.7292 C   0  0  0  0  0  0  0  0  0  0  0  0
   -1.1302   -1.1800    0.0741 C   0  0  0  0  0  0  0  0  0  0  0  0
    0.2860   -1.2123    0.0506 C   0  0  0  0  0  0  0  0  0  0  0  0
    0.9564   -2.5348    0.0600 C   0  0  0  0  0  0  0  0  0  0  0  0
    0.3931   -3.6491   -0.5880 C   0  0  0  0  0  0  0  0  0  0  0  0
    1.0117   -4.8996   -0.5451 C   0  0  0  0  0  0  0  0  0  0  0  0
    2.2255   -5.0692    0.0906 C   0  0  0  0  0  0  0  0  0  0  0  0
    2.7961   -6.2612    0.0864 N   0  0  0  0  0  0  0  0  0  0  0  0
    3.9717   -6.4154    0.7161 C   0  0  0  0  0  0  0  0  0  0  0  0
    4.5294   -7.6832    0.7368 N   0  0  0  0  0  0  0  0  0  0  0  0
    4.3726   -8.6811   -0.2305 C   0  0  0  0  0  0  0  0  0  0  0  0
    4.1003   -8.3773   -1.5764 C   0  0  0  0  0  0  0  0  0  0  0  0
    3.9010   -9.3917   -2.5140 C   0  0  0  0  0  0  0  0  0  0  0  0
    3.9662  -10.7199   -2.1165 C   0  0  0  0  0  0  0  0  0  0  0  0
    4.2228  -11.0365   -0.7813 C   0  0  0  0  0  0  0  0  0  0  0  0
    4.4168  -10.0204    0.1555 C   0  0  0  0  0  0  0  0  0  0  0  0
    4.6228   -5.4321    1.3546 N   0  0  0  0  0  0  0  0  0  0  0  0
    4.0325   -4.2252    1.3307 C   0  0  0  0  0  0  0  0  0  0  0  0
    2.8081   -3.9856    0.7277 C   0  0  0  0  0  0  0  0  0  0  0  0
    2.1547   -2.7497    0.7518 C   0  0  0  0  0  0  0  0  0  0  0  0
    2.7969    1.1964   -0.2250 H   0  0  0  0  0  0  0  0  0  0  0  0
    2.8722   -0.4215   -0.9219 H   0  0  0  0  0  0  0  0  0  0  0  0
    2.9647   -0.1457    0.8526 H   0  0  0  0  0  0  0  0  0  0  0  0
    0.7707    2.1877   -0.0156 H   0  0  0  0  0  0  0  0  0  0  0  0
   -1.6758    2.1741    0.0152 H   0  0  0  0  0  0  0  0  0  0  0  0
   -3.4581   -1.5779    1.2809 H   0  0  0  0  0  0  0  0  0  0  0  0
   -5.8241    0.1845   -0.9575 H   0  0  0  0  0  0  0  0  0  0  0  0
   -8.2316    0.0626   -0.7969 H   0  0  0  0  0  0  0  0  0  0  0  0
   -9.3121   -1.2994    0.9441 H   0  0  0  0  0  0  0  0  0  0  0  0
   -5.7491   -3.2563    3.4559 H   0  0  0  0  0  0  0  0  0  0  0  0
   -4.5448   -1.9904    3.3029 H   0  0  0  0  0  0  0  0  0  0  0  0
   -4.5306   -3.4038    2.2039 H   0  0  0  0  0  0  0  0  0  0  0  0
   -1.6915   -2.1107    0.0579 H   0  0  0  0  0  0  0  0  0  0  0  0
   -0.5448   -3.5764   -1.1350 H   0  0  0  0  0  0  0  0  0  0  0  0
    0.5401   -5.7564   -1.0207 H   0  0  0  0  0  0  0  0  0  0  0  0
    5.3388   -7.7363    1.3335 H   0  0  0  0  0  0  0  0  0  0  0  0
    4.0468   -7.3523   -1.9081 H   0  0  0  0  0  0  0  0  0  0  0  0
    3.6907   -9.1305   -3.5489 H   0  0  0  0  0  0  0  0  0  0  0  0
    3.8077  -11.5109   -2.8422 H   0  0  0  0  0  0  0  0  0  0  0  0
    4.2572  -12.0743   -0.4668 H   0  0  0  0  0  0  0  0  0  0  0  0
    4.5612  -10.2779    1.2027 H   0  0  0  0  0  0  0  0  0  0  0  0
    4.5894   -3.4303    1.8191 H   0  0  0  0  0  0  0  0  0  0  0  0
    2.5975   -1.9718    1.3585 H   0  0  0  0  0  0  0  0  0  0  0  0
  1  2  1  0  0  0  0
  1 39  1  0  0  0  0
  1 40  1  0  0  0  0
  1 41  1  0  0  0  0
  2  3  1  0  0  0  0
  2 21  2  0  0  0  0
  3  4  2  0  0  0  0
  3 42  1  0  0  0  0
  4  5  1  0  0  0  0
  4 43  1  0  0  0  0
  5  6  1  0  0  0  0
  5 20  2  0  0  0  0
  6  7  2  0  0  0  0
  6  8  1  0  0  0  0
  8  9  1  0  0  0  0
  8 44  1  0  0  0  0
  9 10  1  0  0  0  0
  9 18  2  0  0  0  0
 10 11  2  0  0  0  0
 10 45  1  0  0  0  0
 11 12  1  0  0  0  0
 11 46  1  0  0  0  0
 12 13  2  0  0  0  0
 12 47  1  0  0  0  0
 13 14  1  0  0  0  0
 13 18  1  0  0  0  0
 14 15  1  0  0  0  0
 14 16  1  0  0  0  0
 14 17  1  0  0  0  0
 18 19  1  0  0  0  0
 19 48  1  0  0  0  0
 19 49  1  0  0  0  0
 19 50  1  0  0  0  0
 20 21  1  0  0  0  0
 20 51  1  0  0  0  0
 21 22  1  0  0  0  0
 22 23  1  0  0  0  0
 22 38  2  0  0  0  0
 23 24  2  0  0  0  0
 23 52  1  0  0  0  0
 24 25  1  0  0  0  0
 24 53  1  0  0  0  0
 25 26  1  0  0  0  0
 25 37  2  0  0  0  0
 26 27  2  0  0  0  0
 27 28  1  0  0  0  0
 27 35  1  0  0  0  0
 28 29  1  0  0  0  0
 28 54  1  0  0  0  0
 29 30  1  0  0  0  0
 29 34  2  0  0  0  0
 30 31  2  0  0  0  0
 30 55  1  0  0  0  0
 31 32  1  0  0  0  0
 31 56  1  0  0  0  0
 32 33  2  0  0  0  0
 32 57  1  0  0  0  0
 33 34  1  0  0  0  0
 33 58  1  0  0  0  0
 34 59  1  0  0  0  0
 35 36  2  0  0  0  0
 36 37  1  0  0  0  0
 36 60  1  0  0  0  0
 37 38  1  0  0  0  0
 38 61  1  0  0  0  0
M  END
$$$$
