CHEMBL192893
 OpenBabel04072215363D

 38 40  0  0  0  0  0  0  0  0999 V2000
    1.1812   -2.2973    0.6237 C   0  0  0  0  0  0  0  0  0  0  0  0
    2.4363   -1.7193    0.0472 C   0  0  0  0  0  0  0  0  0  0  0  0
    2.8535   -1.9655   -1.0782 O   0  0  0  0  0  0  0  0  0  0  0  0
    3.0969   -1.0337    1.0312 O   0  0  0  0  0  0  0  0  0  0  0  0
    4.4592   -0.8860    0.7576 N   0  0  0  0  0  0  0  0  0  0  0  0
    5.0986    0.3351    0.7912 C   0  0  0  0  0  0  0  0  0  0  0  0
    4.6099    1.4459    0.8981 O   0  0  0  0  0  0  0  0  0  0  0  0
    6.5761   -0.0458    0.8112 C   0  0  0  0  0  0  0  0  0  0  0  0
    7.6369    0.7685    0.6820 C   0  0  0  0  0  0  0  0  0  0  0  0
    7.5003    2.1566    0.4524 C   0  0  0  0  0  0  0  0  0  0  0  0
    7.4587    3.0008    1.5346 N   0  0  0  0  0  0  0  0  0  0  0  0
    7.2664    4.2937    1.1130 C   0  0  0  0  0  0  0  0  0  0  0  0
    7.0927    5.4191    2.0627 C   0  0  0  0  0  0  0  0  0  0  0  0
    7.2324    4.2737   -0.2659 C   0  0  0  0  0  0  0  0  0  0  0  0
    7.3750    2.9234   -0.6936 C   0  0  0  0  0  0  0  0  0  0  0  0
    7.3421    2.4386   -2.0972 C   0  0  0  0  0  0  0  0  0  0  0  0
    6.6440   -1.5093    0.9782 C   0  0  0  0  0  0  0  0  0  0  0  0
    7.6769   -2.4117    1.1541 C   0  0  0  0  0  0  0  0  0  0  0  0
    7.3563   -3.7689    1.3170 C   0  0  0  0  0  0  0  0  0  0  0  0
    6.0229   -4.2046    1.3139 C   0  0  0  0  0  0  0  0  0  0  0  0
    4.9871   -3.2954    1.1467 C   0  0  0  0  0  0  0  0  0  0  0  0
    5.3222   -1.9607    0.9676 C   0  0  0  0  0  0  0  0  0  0  0  0
    0.7181   -2.9671   -0.1058 H   0  0  0  0  0  0  0  0  0  0  0  0
    0.4852   -1.5016    0.8860 H   0  0  0  0  0  0  0  0  0  0  0  0
    1.4377   -2.8932    1.5076 H   0  0  0  0  0  0  0  0  0  0  0  0
    8.6440    0.3686    0.6878 H   0  0  0  0  0  0  0  0  0  0  0  0
    7.5006    2.7080    2.5009 H   0  0  0  0  0  0  0  0  0  0  0  0
    7.1932    5.0919    3.1025 H   0  0  0  0  0  0  0  0  0  0  0  0
    6.0983    5.8620    1.9434 H   0  0  0  0  0  0  0  0  0  0  0  0
    7.8395    6.1972    1.8768 H   0  0  0  0  0  0  0  0  0  0  0  0
    7.0783    5.1368   -0.9014 H   0  0  0  0  0  0  0  0  0  0  0  0
    7.1585    3.2616   -2.7955 H   0  0  0  0  0  0  0  0  0  0  0  0
    6.5434    1.7014   -2.2290 H   0  0  0  0  0  0  0  0  0  0  0  0
    8.2950    1.9717   -2.3647 H   0  0  0  0  0  0  0  0  0  0  0  0
    8.7132   -2.0927    1.1704 H   0  0  0  0  0  0  0  0  0  0  0  0
    8.1494   -4.5005    1.4498 H   0  0  0  0  0  0  0  0  0  0  0  0
    5.7924   -5.2631    1.4357 H   0  0  0  0  0  0  0  0  0  0  0  0
    3.9600   -3.6395    1.1375 H   0  0  0  0  0  0  0  0  0  0  0  0
  1  2  1  0  0  0  0
  1 23  1  0  0  0  0
  1 24  1  0  0  0  0
  1 25  1  0  0  0  0
  2  3  2  0  0  0  0
  2  4  1  0  0  0  0
  4  5  1  0  0  0  0
  5  6  1  0  0  0  0
  5 22  1  0  0  0  0
  6  7  2  0  0  0  0
  6  8  1  0  0  0  0
  8  9  2  0  0  0  0
  8 17  1  0  0  0  0
  9 10  1  0  0  0  0
  9 26  1  0  0  0  0
 10 11  1  0  0  0  0
 10 15  2  0  0  0  0
 11 12  1  0  0  0  0
 11 27  1  0  0  0  0
 12 13  1  0  0  0  0
 12 14  2  0  0  0  0
 13 28  1  0  0  0  0
 13 29  1  0  0  0  0
 13 30  1  0  0  0  0
 14 15  1  0  0  0  0
 14 31  1  0  0  0  0
 15 16  1  0  0  0  0
 16 32  1  0  0  0  0
 16 33  1  0  0  0  0
 16 34  1  0  0  0  0
 17 18  1  0  0  0  0
 17 22  2  0  0  0  0
 18 19  2  0  0  0  0
 18 35  1  0  0  0  0
 19 20  1  0  0  0  0
 19 36  1  0  0  0  0
 20 21  2  0  0  0  0
 20 37  1  0  0  0  0
 21 22  1  0  0  0  0
 21 38  1  0  0  0  0
M  END
$$$$
