CHEMBL3950156
 OpenBabel04072215373D

 60 63  0  0  0  0  0  0  0  0999 V2000
    0.6061   -3.8229   -1.2243 C   0  0  0  0  0  0  0  0  0  0  0  0
    1.9395   -4.2174   -0.8928 O   0  0  0  0  0  0  0  0  0  0  0  0
    2.8903   -3.2253   -0.8391 C   0  0  0  0  0  0  0  0  0  0  0  0
    2.6507   -1.8933   -1.1777 C   0  0  0  0  0  0  0  0  0  0  0  0
    3.6673   -0.9541   -1.0352 C   0  0  0  0  0  0  0  0  0  0  0  0
    3.5570    0.3843   -1.3066 O   0  0  0  0  0  0  0  0  0  0  0  0
    2.3204    0.8352   -1.8484 C   0  0  0  0  0  0  0  0  0  0  0  0
    4.9210   -1.3490   -0.5445 C   0  0  0  0  0  0  0  0  0  0  0  0
    5.2095   -2.6771   -0.1914 C   0  0  0  0  0  0  0  0  0  0  0  0
    6.4043   -3.0514    0.4821 N   0  0  0  0  0  0  0  0  0  0  0  0
    7.0017   -2.0090    1.4044 C   0  0  0  0  0  0  0  0  0  0  0  0
    6.1217   -1.4863    2.5751 C   0  0  0  0  0  0  0  0  0  0  0  0
    5.7225   -2.3796    3.6738 N   0  0  0  0  0  0  0  0  0  0  0  0
    6.8273   -2.8634    4.5318 C   0  0  0  0  0  0  0  0  0  0  0  0
    6.4442   -3.6750    5.8015 C   0  0  0  0  0  0  0  0  0  0  0  0
    5.1158   -3.6728    6.0449 F   0  0  0  0  0  0  0  0  0  0  0  0
    6.8298   -4.9677    5.6745 F   0  0  0  0  0  0  0  0  0  0  0  0
    7.0624   -3.1796    6.8998 F   0  0  0  0  0  0  0  0  0  0  0  0
    7.5015   -3.8675    0.0067 C   0  0  0  0  0  0  0  0  0  0  0  0
    8.1395   -4.5967    1.0106 C   0  0  0  0  0  0  0  0  0  0  0  0
    9.4705   -4.9355    0.8809 C   0  0  0  0  0  0  0  0  0  0  0  0
   10.1565   -4.7369   -0.2891 C   0  0  0  0  0  0  0  0  0  0  0  0
   11.4696   -4.9337   -0.1797 N   0  0  0  0  0  0  0  0  0  0  0  0
   12.1681   -4.9488   -1.3171 C   0  0  0  0  0  0  0  0  0  0  0  0
   11.5570   -4.8533   -2.5507 C   0  0  0  0  0  0  0  0  0  0  0  0
   12.3585   -5.3144   -3.6810 C   0  0  0  0  0  0  0  0  0  0  0  0
   12.3775   -6.5893   -4.3092 C   0  0  0  0  0  0  0  0  0  0  0  0
   13.4166   -6.7498   -5.1393 N   0  0  0  0  0  0  0  0  0  0  0  0
   14.0740   -5.5824   -5.0438 N   0  0  0  0  0  0  0  0  0  0  0  0
   15.0986   -5.2370   -6.0021 C   0  0  0  0  0  0  0  0  0  0  0  0
   13.5780   -4.7718   -4.0578 C   0  0  0  0  0  0  0  0  0  0  0  0
   10.2366   -4.5116   -2.6631 N   0  0  0  0  0  0  0  0  0  0  0  0
    9.4822   -4.3743   -1.4784 C   0  0  0  0  0  0  0  0  0  0  0  0
    8.1309   -3.8660   -1.2701 C   0  0  0  0  0  0  0  0  0  0  0  0
    4.1683   -3.6114   -0.3737 C   0  0  0  0  0  0  0  0  0  0  0  0
   -0.0436   -4.7009   -1.1505 H   0  0  0  0  0  0  0  0  0  0  0  0
    0.5485   -3.4570   -2.2558 H   0  0  0  0  0  0  0  0  0  0  0  0
    0.2192   -3.0730   -0.5235 H   0  0  0  0  0  0  0  0  0  0  0  0
    1.6766   -1.5851   -1.5342 H   0  0  0  0  0  0  0  0  0  0  0  0
    2.4146    1.9062   -2.0505 H   0  0  0  0  0  0  0  0  0  0  0  0
    1.5020    0.7018   -1.1324 H   0  0  0  0  0  0  0  0  0  0  0  0
    2.1006    0.3340   -2.7969 H   0  0  0  0  0  0  0  0  0  0  0  0
    5.6673   -0.5710   -0.4210 H   0  0  0  0  0  0  0  0  0  0  0  0
    7.3470   -1.1588    0.8038 H   0  0  0  0  0  0  0  0  0  0  0  0
    7.9168   -2.3752    1.8869 H   0  0  0  0  0  0  0  0  0  0  0  0
    5.2058   -1.0379    2.1806 H   0  0  0  0  0  0  0  0  0  0  0  0
    6.6719   -0.6482    3.0260 H   0  0  0  0  0  0  0  0  0  0  0  0
    5.1530   -3.1521    3.3280 H   0  0  0  0  0  0  0  0  0  0  0  0
    7.4236   -2.0057    4.8669 H   0  0  0  0  0  0  0  0  0  0  0  0
    7.4929   -3.4938    3.9350 H   0  0  0  0  0  0  0  0  0  0  0  0
    7.6523   -4.7459    1.9674 H   0  0  0  0  0  0  0  0  0  0  0  0
   10.0015   -5.3246    1.7417 H   0  0  0  0  0  0  0  0  0  0  0  0
   13.2336   -5.1215   -1.2077 H   0  0  0  0  0  0  0  0  0  0  0  0
   11.7049   -7.4261   -4.1666 H   0  0  0  0  0  0  0  0  0  0  0  0
   15.1973   -6.0325   -6.7461 H   0  0  0  0  0  0  0  0  0  0  0  0
   16.0481   -5.0806   -5.4850 H   0  0  0  0  0  0  0  0  0  0  0  0
   14.7785   -4.3161   -6.4975 H   0  0  0  0  0  0  0  0  0  0  0  0
   14.1152   -3.8883   -3.7426 H   0  0  0  0  0  0  0  0  0  0  0  0
    7.6187   -3.4087   -2.1184 H   0  0  0  0  0  0  0  0  0  0  0  0
    4.3182   -4.6471   -0.0774 H   0  0  0  0  0  0  0  0  0  0  0  0
  1  2  1  0  0  0  0
  1 36  1  0  0  0  0
  1 37  1  0  0  0  0
  1 38  1  0  0  0  0
  2  3  1  0  0  0  0
  3  4  1  0  0  0  0
  3 35  2  0  0  0  0
  4  5  2  0  0  0  0
  4 39  1  0  0  0  0
  5  6  1  0  0  0  0
  5  8  1  0  0  0  0
  6  7  1  0  0  0  0
  7 40  1  0  0  0  0
  7 41  1  0  0  0  0
  7 42  1  0  0  0  0
  8  9  2  0  0  0  0
  8 43  1  0  0  0  0
  9 10  1  0  0  0  0
  9 35  1  0  0  0  0
 10 11  1  0  0  0  0
 10 19  1  0  0  0  0
 11 12  1  0  0  0  0
 11 44  1  0  0  0  0
 11 45  1  0  0  0  0
 12 13  1  0  0  0  0
 12 46  1  0  0  0  0
 12 47  1  0  0  0  0
 13 14  1  0  0  0  0
 13 48  1  0  0  0  0
 14 15  1  0  0  0  0
 14 49  1  0  0  0  0
 14 50  1  0  0  0  0
 15 16  1  0  0  0  0
 15 17  1  0  0  0  0
 15 18  1  0  0  0  0
 19 20  1  0  0  0  0
 19 34  2  0  0  0  0
 20 21  2  0  0  0  0
 20 51  1  0  0  0  0
 21 22  1  0  0  0  0
 21 52  1  0  0  0  0
 22 23  1  0  0  0  0
 22 33  2  0  0  0  0
 23 24  2  0  0  0  0
 24 25  1  0  0  0  0
 24 53  1  0  0  0  0
 25 26  1  0  0  0  0
 25 32  2  0  0  0  0
 26 27  1  0  0  0  0
 26 31  2  0  0  0  0
 27 28  2  0  0  0  0
 27 54  1  0  0  0  0
 28 29  1  0  0  0  0
 29 30  1  0  0  0  0
 29 31  1  0  0  0  0
 30 55  1  0  0  0  0
 30 56  1  0  0  0  0
 30 57  1  0  0  0  0
 31 58  1  0  0  0  0
 32 33  1  0  0  0  0
 33 34  1  0  0  0  0
 34 59  1  0  0  0  0
 35 60  1  0  0  0  0
M  END
$$$$
