CHEMBL3928180
 OpenBabel04072215373D

 63 67  0  0  1  0  0  0  0  0999 V2000
    3.4966   -2.2614    4.9403 C   0  0  0  0  0  0  0  0  0  0  0  0
    4.3653   -1.5542    4.0624 O   0  0  0  0  0  0  0  0  0  0  0  0
    3.8372   -0.6323    3.2094 C   0  0  0  0  0  0  0  0  0  0  0  0
    4.6766    0.4695    2.9713 C   0  0  0  0  0  0  0  0  0  0  0  0
    4.3245    1.4790    2.0350 C   0  0  0  0  0  0  0  0  0  0  0  0
    5.0909    2.5982    1.6851 C   0  0  0  0  0  0  0  0  0  0  0  0
    6.3671    2.7905    2.2773 N   0  0  0  0  0  0  0  0  0  0  0  0
    7.0350    4.0327    2.2681 C   0  0  0  0  0  0  0  0  0  0  0  0
    6.3483    5.1981    2.6425 C   0  0  0  0  0  0  0  0  0  0  0  0
    6.9605    6.4459    2.5637 C   0  0  0  0  0  0  0  0  0  0  0  0
    8.2799    6.5482    2.1251 C   0  0  0  0  0  0  0  0  0  0  0  0
    8.9664    8.1277    2.0130 Cl  0  0  0  0  0  0  0  0  0  0  0  0
    8.9867    5.3880    1.7837 C   0  0  0  0  0  0  0  0  0  0  0  0
   10.6250    5.4398    1.2305 Cl  0  0  0  0  0  0  0  0  0  0  0  0
    8.3684    4.1350    1.8615 C   0  0  0  0  0  0  0  0  0  0  0  0
    4.6660    3.5165    0.7905 N   0  0  0  0  0  0  0  0  0  0  0  0
    3.4712    3.3233    0.2373 C   0  0  0  0  0  0  0  0  0  0  0  0
    2.6593    2.3022    0.4971 N   0  0  0  0  0  0  0  0  0  0  0  0
    3.0972    1.4063    1.3803 C   0  0  0  0  0  0  0  0  0  0  0  0
    2.2790    0.3310    1.6304 C   0  0  0  0  0  0  0  0  0  0  0  0
    2.6492   -0.7245    2.4766 C   0  0  0  0  0  0  0  0  0  0  0  0
    1.8899   -1.8658    2.5534 O   0  0  0  0  0  0  0  0  0  0  0  0
    1.0415   -2.0795    1.4190 C   0  0  0  0  0  0  0  0  0  0  0  0
    0.5108   -3.4991    1.3946 C   0  0  3  0  0  0  0  0  0  0  0  0
    1.6677   -4.5096    1.3321 C   0  0  0  0  0  0  0  0  0  0  0  0
    1.1775   -5.9023    1.3338 N   0  0  3  0  0  0  0  0  0  0  0  0
    0.6102   -6.3576    2.6295 C   0  0  0  0  0  0  0  0  0  0  0  0
    1.3743   -5.8392    3.8726 C   0  0  0  0  0  0  0  0  0  0  0  0
    0.9094   -6.5119    5.1561 C   0  0  0  0  0  0  0  0  0  0  0  0
    0.9890   -7.9279    5.0507 O   0  0  0  0  0  0  0  0  0  0  0  0
    0.1596   -8.4264    4.0068 C   0  0  0  0  0  0  0  0  0  0  0  0
    0.6147   -7.8965    2.6560 C   0  0  0  0  0  0  0  0  0  0  0  0
    0.2316   -6.0313    0.1953 C   0  0  0  0  0  0  0  0  0  0  0  0
   -0.8632   -4.9466    0.1339 C   0  0  0  0  0  0  0  0  0  0  0  0
   -0.3216   -3.6266    0.2280 O   0  0  0  0  0  0  0  0  0  0  0  0
    3.7725   -3.3206    4.9048 H   0  0  0  0  0  0  0  0  0  0  0  0
    2.4295   -2.1687    4.7381 H   0  0  0  0  0  0  0  0  0  0  0  0
    3.6706   -1.9081    5.9627 H   0  0  0  0  0  0  0  0  0  0  0  0
    5.6159    0.5321    3.5159 H   0  0  0  0  0  0  0  0  0  0  0  0
    6.9668    2.0038    2.0474 H   0  0  0  0  0  0  0  0  0  0  0  0
    5.3104    5.1362    2.9669 H   0  0  0  0  0  0  0  0  0  0  0  0
    6.3932    7.3339    2.8344 H   0  0  0  0  0  0  0  0  0  0  0  0
    8.9203    3.2446    1.5715 H   0  0  0  0  0  0  0  0  0  0  0  0
    3.1300    4.0553   -0.4855 H   0  0  0  0  0  0  0  0  0  0  0  0
    1.3377    0.3214    1.0912 H   0  0  0  0  0  0  0  0  0  0  0  0
    1.5837   -1.8979    0.4799 H   0  0  0  0  0  0  0  0  0  0  0  0
    0.1804   -1.4011    1.4672 H   0  0  0  0  0  0  0  0  0  0  0  0
   -0.1012   -3.6564    2.2913 H   0  0  0  0  0  0  0  0  0  0  0  0
    2.4027   -4.3457    2.1260 H   0  0  0  0  0  0  0  0  0  0  0  0
    2.2293   -4.3569    0.3994 H   0  0  0  0  0  0  0  0  0  0  0  0
   -0.4267   -6.0094    2.7277 H   0  0  0  0  0  0  0  0  0  0  0  0
    1.2462   -4.7585    3.9918 H   0  0  0  0  0  0  0  0  0  0  0  0
    2.4473   -6.0381    3.7454 H   0  0  0  0  0  0  0  0  0  0  0  0
   -0.1158   -6.2201    5.4117 H   0  0  0  0  0  0  0  0  0  0  0  0
    1.5536   -6.2029    5.9863 H   0  0  0  0  0  0  0  0  0  0  0  0
   -0.8846   -8.1602    4.2090 H   0  0  0  0  0  0  0  0  0  0  0  0
    0.2309   -9.5182    4.0174 H   0  0  0  0  0  0  0  0  0  0  0  0
   -0.0346   -8.3112    1.8794 H   0  0  0  0  0  0  0  0  0  0  0  0
    1.6347   -8.2526    2.4609 H   0  0  0  0  0  0  0  0  0  0  0  0
   -0.2321   -7.0207    0.1601 H   0  0  0  0  0  0  0  0  0  0  0  0
    0.8295   -5.9554   -0.7235 H   0  0  0  0  0  0  0  0  0  0  0  0
   -1.6060   -5.0750    0.9273 H   0  0  0  0  0  0  0  0  0  0  0  0
   -1.3901   -5.0092   -0.8251 H   0  0  0  0  0  0  0  0  0  0  0  0
  1  2  1  0  0  0  0
  1 36  1  0  0  0  0
  1 37  1  0  0  0  0
  1 38  1  0  0  0  0
  2  3  1  0  0  0  0
  3  4  1  0  0  0  0
  3 21  2  0  0  0  0
  4  5  2  0  0  0  0
  4 39  1  0  0  0  0
  5  6  1  0  0  0  0
  5 19  1  0  0  0  0
  6  7  1  0  0  0  0
  6 16  2  0  0  0  0
  7  8  1  0  0  0  0
  7 40  1  0  0  0  0
  8  9  1  0  0  0  0
  8 15  2  0  0  0  0
  9 10  2  0  0  0  0
  9 41  1  0  0  0  0
 10 11  1  0  0  0  0
 10 42  1  0  0  0  0
 11 12  1  0  0  0  0
 11 13  2  0  0  0  0
 13 14  1  0  0  0  0
 13 15  1  0  0  0  0
 15 43  1  0  0  0  0
 16 17  1  0  0  0  0
 17 18  2  0  0  0  0
 17 44  1  0  0  0  0
 18 19  1  0  0  0  0
 19 20  2  0  0  0  0
 20 21  1  0  0  0  0
 20 45  1  0  0  0  0
 21 22  1  0  0  0  0
 22 23  1  0  0  0  0
 23 24  1  0  0  0  0
 23 46  1  0  0  0  0
 23 47  1  0  0  0  0
 24 25  1  0  0  0  0
 24 35  1  0  0  0  0
 24 48  1  0  0  0  0
 25 26  1  0  0  0  0
 25 49  1  0  0  0  0
 25 50  1  0  0  0  0
 26 27  1  0  0  0  0
 26 33  1  0  0  0  0
 27 28  1  0  0  0  0
 27 32  1  0  0  0  0
 27 51  1  0  0  0  0
 28 29  1  0  0  0  0
 28 52  1  0  0  0  0
 28 53  1  0  0  0  0
 29 30  1  0  0  0  0
 29 54  1  0  0  0  0
 29 55  1  0  0  0  0
 30 31  1  0  0  0  0
 31 32  1  0  0  0  0
 31 56  1  0  0  0  0
 31 57  1  0  0  0  0
 32 58  1  0  0  0  0
 32 59  1  0  0  0  0
 33 34  1  0  0  0  0
 33 60  1  0  0  0  0
 33 61  1  0  0  0  0
 34 35  1  0  0  0  0
 34 62  1  0  0  0  0
 34 63  1  0  0  0  0
M  END
$$$$
