CHEMBL3774953
 OpenBabel04072215373D

 37 39  0  0  0  0  0  0  0  0999 V2000
    3.3934   -0.8516   -0.9523 C   0  0  0  0  0  0  0  0  0  0  0  0
    2.5413   -0.2411    0.0176 O   0  0  0  0  0  0  0  0  0  0  0  0
    3.0985    0.8007    0.7128 C   0  0  0  0  0  0  0  0  0  0  0  0
    4.0809    1.6251    0.1299 C   0  0  0  0  0  0  0  0  0  0  0  0
    4.7074    2.6522    0.8213 C   0  0  0  0  0  0  0  0  0  0  0  0
    5.6801    3.3379    0.2110 N   0  0  0  0  0  0  0  0  0  0  0  0
    6.2677    4.3022    0.9261 C   0  0  0  0  0  0  0  0  0  0  0  0
    5.9767    4.6407    2.1835 N   0  0  0  0  0  0  0  0  0  0  0  0
    4.9851    3.9536    2.7800 C   0  0  0  0  0  0  0  0  0  0  0  0
    4.6418    4.2713    4.1199 N   0  0  0  0  0  0  0  0  0  0  0  0
    5.0394    5.4568    4.7919 C   0  0  0  0  0  0  0  0  0  0  0  0
    4.8947    6.7168    4.1932 C   0  0  0  0  0  0  0  0  0  0  0  0
    4.3303    6.8359    2.9785 F   0  0  0  0  0  0  0  0  0  0  0  0
    5.2820    7.8876    4.8374 C   0  0  0  0  0  0  0  0  0  0  0  0
    5.8200    7.8277    6.1215 C   0  0  0  0  0  0  0  0  0  0  0  0
    5.9514    6.5902    6.7511 C   0  0  0  0  0  0  0  0  0  0  0  0
    6.4684    6.5311    8.0169 O   0  0  0  0  0  0  0  0  0  0  0  0
    5.5598    5.4102    6.0985 C   0  0  0  0  0  0  0  0  0  0  0  0
    5.7325    3.8770    6.8964 Cl  0  0  0  0  0  0  0  0  0  0  0  0
    4.3013    2.9151    2.1272 C   0  0  0  0  0  0  0  0  0  0  0  0
    3.2594    2.1472    2.6966 C   0  0  0  0  0  0  0  0  0  0  0  0
    2.6680    1.0785    2.0132 C   0  0  0  0  0  0  0  0  0  0  0  0
    1.7402    0.4465    2.7881 O   0  0  0  0  0  0  0  0  0  0  0  0
    1.1294   -0.7594    2.3543 C   0  0  0  0  0  0  0  0  0  0  0  0
    3.0287   -1.8659   -1.1378 H   0  0  0  0  0  0  0  0  0  0  0  0
    4.4304   -0.9365   -0.6039 H   0  0  0  0  0  0  0  0  0  0  0  0
    3.3479   -0.3005   -1.8983 H   0  0  0  0  0  0  0  0  0  0  0  0
    4.3922    1.4736   -0.9004 H   0  0  0  0  0  0  0  0  0  0  0  0
    7.0639    4.8566    0.4412 H   0  0  0  0  0  0  0  0  0  0  0  0
    4.7801    3.4496    4.7057 H   0  0  0  0  0  0  0  0  0  0  0  0
    5.1556    8.8392    4.3306 H   0  0  0  0  0  0  0  0  0  0  0  0
    6.1182    8.7489    6.6140 H   0  0  0  0  0  0  0  0  0  0  0  0
    6.7042    7.4248    8.3147 H   0  0  0  0  0  0  0  0  0  0  0  0
    2.9030    2.3742    3.7001 H   0  0  0  0  0  0  0  0  0  0  0  0
    0.7835   -1.2761    3.2579 H   0  0  0  0  0  0  0  0  0  0  0  0
    1.8242   -1.4435    1.8639 H   0  0  0  0  0  0  0  0  0  0  0  0
    0.2582   -0.5403    1.7375 H   0  0  0  0  0  0  0  0  0  0  0  0
  1  2  1  0  0  0  0
  1 25  1  0  0  0  0
  1 26  1  0  0  0  0
  1 27  1  0  0  0  0
  2  3  1  0  0  0  0
  3  4  1  0  0  0  0
  3 22  2  0  0  0  0
  4  5  2  0  0  0  0
  4 28  1  0  0  0  0
  5  6  1  0  0  0  0
  5 20  1  0  0  0  0
  6  7  2  0  0  0  0
  7  8  1  0  0  0  0
  7 29  1  0  0  0  0
  8  9  2  0  0  0  0
  9 10  1  0  0  0  0
  9 20  1  0  0  0  0
 10 11  1  0  0  0  0
 10 30  1  0  0  0  0
 11 12  1  0  0  0  0
 11 18  2  0  0  0  0
 12 13  1  0  0  0  0
 12 14  2  0  0  0  0
 14 15  1  0  0  0  0
 14 31  1  0  0  0  0
 15 16  2  0  0  0  0
 15 32  1  0  0  0  0
 16 17  1  0  0  0  0
 16 18  1  0  0  0  0
 17 33  1  0  0  0  0
 18 19  1  0  0  0  0
 20 21  2  0  0  0  0
 21 22  1  0  0  0  0
 21 34  1  0  0  0  0
 22 23  1  0  0  0  0
 23 24  1  0  0  0  0
 24 35  1  0  0  0  0
 24 36  1  0  0  0  0
 24 37  1  0  0  0  0
M  END
$$$$
