CHEMBL3940175
 OpenBabel04072215373D

 62 64  0  0  0  0  0  0  0  0999 V2000
    0.8067   -2.4267   -4.2102 C   0  0  0  0  0  0  0  0  0  0  0  0
    2.1521   -2.6308   -4.0083 O   0  0  0  0  0  0  0  0  0  0  0  0
    2.8672   -1.8701   -3.0738 C   0  0  0  0  0  0  0  0  0  0  0  0
    2.4710   -0.8349   -2.2740 C   0  0  0  0  0  0  0  0  0  0  0  0
    3.2650   -0.2845   -1.2321 C   0  0  0  0  0  0  0  0  0  0  0  0
    2.7953    0.6651   -0.3838 O   0  0  0  0  0  0  0  0  0  0  0  0
    3.5850    1.2169    0.6075 C   0  0  0  0  0  0  0  0  0  0  0  0
    4.5431   -0.7694   -1.0975 C   0  0  0  0  0  0  0  0  0  0  0  0
    4.9956   -1.7622   -1.9273 C   0  0  0  0  0  0  0  0  0  0  0  0
    6.2549   -2.4169   -1.6924 N   0  0  0  0  0  0  0  0  0  0  0  0
    6.7808   -2.6357   -0.3037 C   0  0  0  0  0  0  0  0  0  0  0  0
    5.7181   -2.7632    0.7509 C   0  0  0  0  0  0  0  0  0  0  0  0
    6.1472   -2.9335    2.1112 N   0  0  0  0  0  0  0  0  0  0  0  0
    4.9361   -2.9976    2.9666 C   0  0  0  0  0  0  0  0  0  0  0  0
    4.0056   -4.1548    2.5728 C   0  0  0  0  0  0  0  0  0  0  0  0
    5.4073   -3.2129    4.3787 C   0  0  0  0  0  0  0  0  0  0  0  0
    7.1287   -2.7680   -2.7962 C   0  0  0  0  0  0  0  0  0  0  0  0
    7.8761   -3.9147   -2.5669 C   0  0  0  0  0  0  0  0  0  0  0  0
    8.6756   -4.3010   -3.4446 C   0  0  0  0  0  0  0  0  0  0  0  0
    8.8178   -3.6274   -4.5297 C   0  0  0  0  0  0  0  0  0  0  0  0
    9.6859   -4.0814   -4.9653 N   0  0  0  0  0  0  0  0  0  0  0  0
   10.5700   -4.5862   -5.3685 C   0  0  0  0  0  0  0  0  0  0  0  0
   10.7556   -4.3029   -6.5237 C   0  0  0  0  0  0  0  0  0  0  0  0
   12.1645   -5.7891   -6.8136 C   0  0  0  0  0  0  0  0  0  0  0  0
   12.7746   -6.8468   -5.8025 C   0  0  0  0  0  0  0  0  0  0  0  0
   13.4475   -7.8772   -6.4826 N   0  0  0  0  0  0  0  0  0  0  0  0
   13.4164   -7.6292   -7.7823 N   0  0  0  0  0  0  0  0  0  0  0  0
   12.7274   -6.4022   -7.9934 C   0  0  0  0  0  0  0  0  0  0  0  0
    9.5303   -2.9289   -6.6678 N   0  0  0  0  0  0  0  0  0  0  0  0
    8.4789   -2.6337   -5.2598 C   0  0  0  0  0  0  0  0  0  0  0  0
    7.3632   -1.9963   -4.1419 C   0  0  0  0  0  0  0  0  0  0  0  0
    4.1426   -2.1356   -2.9766 C   0  0  0  0  0  0  0  0  0  0  0  0
   -0.4567   -0.4652   -0.9731 Cl  0  0  0  0  0  0  0  0  0  0  0  0
   -0.1289   -2.7472   -4.7680 H   0  0  0  0  0  0  0  0  0  0  0  0
    0.8740   -1.3746   -4.8057 H   0  0  0  0  0  0  0  0  0  0  0  0
    0.3899   -2.8062   -3.1444 H   0  0  0  0  0  0  0  0  0  0  0  0
    1.5636   -0.4140   -2.5633 H   0  0  0  0  0  0  0  0  0  0  0  0
    3.0332    1.9734    1.1757 H   0  0  0  0  0  0  0  0  0  0  0  0
    4.4814    1.6969    0.1535 H   0  0  0  0  0  0  0  0  0  0  0  0
    3.9271    0.4217    1.2996 H   0  0  0  0  0  0  0  0  0  0  0  0
    5.2151   -0.3510   -0.3761 H   0  0  0  0  0  0  0  0  0  0  0  0
    7.4362   -1.8136   -0.0032 H   0  0  0  0  0  0  0  0  0  0  0  0
    7.3001   -3.5890   -0.2589 H   0  0  0  0  0  0  0  0  0  0  0  0
    5.2955   -3.7454    0.4784 H   0  0  0  0  0  0  0  0  0  0  0  0
    5.1608   -1.8239    0.7943 H   0  0  0  0  0  0  0  0  0  0  0  0
    6.6667   -2.0612    2.3390 H   0  0  0  0  0  0  0  0  0  0  0  0
    4.3373   -2.0517    2.9202 H   0  0  0  0  0  0  0  0  0  0  0  0
    4.5765   -5.0990    2.5861 H   0  0  0  0  0  0  0  0  0  0  0  0
    3.5760   -4.0106    1.5681 H   0  0  0  0  0  0  0  0  0  0  0  0
    3.1439   -4.2179    3.2542 H   0  0  0  0  0  0  0  0  0  0  0  0
    5.9905   -4.1525    4.4194 H   0  0  0  0  0  0  0  0  0  0  0  0
    4.5529   -3.2780    5.0709 H   0  0  0  0  0  0  0  0  0  0  0  0
    6.0580   -2.3719    4.6749 H   0  0  0  0  0  0  0  0  0  0  0  0
    7.9395   -4.5817   -1.7507 H   0  0  0  0  0  0  0  0  0  0  0  0
    9.2953   -5.2229   -3.3499 H   0  0  0  0  0  0  0  0  0  0  0  0
   10.8815   -5.4385   -4.8838 H   0  0  0  0  0  0  0  0  0  0  0  0
   12.7634   -7.1281   -4.7452 H   0  0  0  0  0  0  0  0  0  0  0  0
   13.8403   -8.3211   -8.5341 H   0  0  0  0  0  0  0  0  0  0  0  0
   12.6219   -6.1114   -8.9507 H   0  0  0  0  0  0  0  0  0  0  0  0
    6.7258   -1.0819   -3.9657 H   0  0  0  0  0  0  0  0  0  0  0  0
    4.3398   -2.6433   -3.8168 H   0  0  0  0  0  0  0  0  0  0  0  0
    0.8123   -0.6564   -0.8540 H   0  0  0  0  0  0  0  0  0  0  0  0
  1  2  1  0  0  0  0
  1 34  1  0  0  0  0
  1 35  1  0  0  0  0
  1 36  1  0  0  0  0
  2  3  1  0  0  0  0
  3  4  1  0  0  0  0
  3 32  2  0  0  0  0
  4  5  2  0  0  0  0
  4 37  1  0  0  0  0
  5  6  1  0  0  0  0
  5  8  1  0  0  0  0
  6  7  1  0  0  0  0
  7 38  1  0  0  0  0
  7 39  1  0  0  0  0
  7 40  1  0  0  0  0
  8  9  2  0  0  0  0
  8 41  1  0  0  0  0
  9 10  1  0  0  0  0
  9 32  1  0  0  0  0
 10 11  1  0  0  0  0
 10 17  1  0  0  0  0
 11 12  1  0  0  0  0
 11 42  1  0  0  0  0
 11 43  1  0  0  0  0
 12 13  1  0  0  0  0
 12 44  1  0  0  0  0
 12 45  1  0  0  0  0
 13 14  1  0  0  0  0
 13 46  1  0  0  0  0
 14 15  1  0  0  0  0
 14 16  1  0  0  0  0
 14 47  1  0  0  0  0
 15 48  1  0  0  0  0
 15 49  1  0  0  0  0
 15 50  1  0  0  0  0
 16 51  1  0  0  0  0
 16 52  1  0  0  0  0
 16 53  1  0  0  0  0
 17 18  1  0  0  0  0
 17 31  2  0  0  0  0
 18 19  2  0  0  0  0
 18 54  1  0  0  0  0
 19 20  1  0  0  0  0
 19 55  1  0  0  0  0
 20 21  1  0  0  0  0
 20 30  2  0  0  0  0
 21 22  2  0  0  0  0
 22 23  1  0  0  0  0
 22 56  1  0  0  0  0
 23 24  1  0  0  0  0
 23 29  2  0  0  0  0
 24 25  1  0  0  0  0
 24 28  2  0  0  0  0
 25 26  2  0  0  0  0
 25 57  1  0  0  0  0
 26 27  1  0  0  0  0
 27 28  1  0  0  0  0
 27 58  1  0  0  0  0
 28 59  1  0  0  0  0
 29 30  1  0  0  0  0
 30 31  1  0  0  0  0
 31 60  1  0  0  0  0
 32 61  1  0  0  0  0
 33 62  1  0  0  0  0
M  END
$$$$
