CHEMBL3656029
 OpenBabel04072215373D

 48 51  0  0  0  0  0  0  0  0999 V2000
    2.3742   -0.6111    0.2821 C   0  0  0  0  0  0  0  0  0  0  0  0
    0.9970   -0.2552   -0.1483 C   0  0  0  0  0  0  0  0  0  0  0  0
    0.5414    1.0264   -0.5634 C   0  0  0  0  0  0  0  0  0  0  0  0
   -0.7899    0.8887   -0.8728 C   0  0  0  0  0  0  0  0  0  0  0  0
   -1.1925   -0.3934   -0.6842 O   0  0  0  0  0  0  0  0  0  0  0  0
   -0.1058   -1.0986   -0.2314 C   0  0  0  0  0  0  0  0  0  0  0  0
   -0.2579   -2.5147    0.0711 C   0  0  0  0  0  0  0  0  0  0  0  0
    0.6622   -3.1727    0.5488 O   0  0  0  0  0  0  0  0  0  0  0  0
   -1.5058   -3.0233   -0.2685 N   0  0  0  0  0  0  0  0  0  0  0  0
   -1.9606   -4.3501   -0.0996 C   0  0  0  0  0  0  0  0  0  0  0  0
   -1.2927   -5.2827    0.6968 C   0  0  0  0  0  0  0  0  0  0  0  0
   -1.7687   -6.5872    0.8163 C   0  0  0  0  0  0  0  0  0  0  0  0
   -2.9283   -6.9685    0.1488 C   0  0  0  0  0  0  0  0  0  0  0  0
   -3.6391   -6.0499   -0.6330 C   0  0  0  0  0  0  0  0  0  0  0  0
   -4.8443   -6.4143   -1.2731 N   0  0  0  0  0  0  0  0  0  0  0  0
   -5.8515   -7.2743   -0.7916 C   0  0  0  0  0  0  0  0  0  0  0  0
   -6.6329   -8.0363   -1.6557 C   0  0  0  0  0  0  0  0  0  0  0  0
   -7.6040   -8.8716   -1.1144 C   0  0  0  0  0  0  0  0  0  0  0  0
   -7.8554   -8.9921    0.2097 N   0  0  0  0  0  0  0  0  0  0  0  0
   -7.0915   -8.2422    1.0337 C   0  0  0  0  0  0  0  0  0  0  0  0
   -7.3911   -8.3654    2.4567 C   0  0  0  0  0  0  0  0  0  0  0  0
   -6.8180   -7.7621    3.5653 C   0  0  0  0  0  0  0  0  0  0  0  0
   -7.4753   -8.2262    4.7418 C   0  0  0  0  0  0  0  0  0  0  0  0
   -7.2330   -7.8989    6.1453 C   0  0  0  0  0  0  0  0  0  0  0  0
   -7.8822   -8.3749    7.0669 O   0  0  0  0  0  0  0  0  0  0  0  0
   -6.2277   -7.0171    6.3753 O   0  0  0  0  0  0  0  0  0  0  0  0
   -8.4522   -9.1027    4.2971 C   0  0  0  0  0  0  0  0  0  0  0  0
   -8.3968   -9.1745    2.9310 N   0  0  0  0  0  0  0  0  0  0  0  0
   -6.0930   -7.3943    0.5775 C   0  0  0  0  0  0  0  0  0  0  0  0
   -3.1431   -4.7402   -0.7524 C   0  0  0  0  0  0  0  0  0  0  0  0
    3.0486    0.2455    0.1855 H   0  0  0  0  0  0  0  0  0  0  0  0
    2.7744   -1.4222   -0.3344 H   0  0  0  0  0  0  0  0  0  0  0  0
    2.3819   -0.9292    1.3292 H   0  0  0  0  0  0  0  0  0  0  0  0
    1.1185    1.9394   -0.6283 H   0  0  0  0  0  0  0  0  0  0  0  0
   -1.5501    1.5721   -1.2246 H   0  0  0  0  0  0  0  0  0  0  0  0
   -2.1147   -2.3726   -0.7528 H   0  0  0  0  0  0  0  0  0  0  0  0
   -0.3995   -5.0230    1.2563 H   0  0  0  0  0  0  0  0  0  0  0  0
   -1.2303   -7.3048    1.4297 H   0  0  0  0  0  0  0  0  0  0  0  0
   -3.2679   -7.9979    0.2350 H   0  0  0  0  0  0  0  0  0  0  0  0
   -4.8423   -6.2466   -2.2730 H   0  0  0  0  0  0  0  0  0  0  0  0
   -6.4935   -8.0001   -2.7299 H   0  0  0  0  0  0  0  0  0  0  0  0
   -8.2279   -9.4869   -1.7577 H   0  0  0  0  0  0  0  0  0  0  0  0
   -5.9992   -7.0576    3.5134 H   0  0  0  0  0  0  0  0  0  0  0  0
   -5.7927   -6.7188    5.5599 H   0  0  0  0  0  0  0  0  0  0  0  0
   -9.1815   -9.6803    4.8515 H   0  0  0  0  0  0  0  0  0  0  0  0
   -8.9939   -9.7319    2.3316 H   0  0  0  0  0  0  0  0  0  0  0  0
   -5.5160   -6.8023    1.2773 H   0  0  0  0  0  0  0  0  0  0  0  0
   -3.6970   -4.0223   -1.3518 H   0  0  0  0  0  0  0  0  0  0  0  0
  1  2  1  0  0  0  0
  1 31  1  0  0  0  0
  1 32  1  0  0  0  0
  1 33  1  0  0  0  0
  2  3  1  0  0  0  0
  2  6  2  0  0  0  0
  3  4  2  0  0  0  0
  3 34  1  0  0  0  0
  4  5  1  0  0  0  0
  4 35  1  0  0  0  0
  5  6  1  0  0  0  0
  6  7  1  0  0  0  0
  7  8  2  0  0  0  0
  7  9  1  0  0  0  0
  9 10  1  0  0  0  0
  9 36  1  0  0  0  0
 10 11  1  0  0  0  0
 10 30  2  0  0  0  0
 11 12  2  0  0  0  0
 11 37  1  0  0  0  0
 12 13  1  0  0  0  0
 12 38  1  0  0  0  0
 13 14  2  0  0  0  0
 13 39  1  0  0  0  0
 14 15  1  0  0  0  0
 14 30  1  0  0  0  0
 15 16  1  0  0  0  0
 15 40  1  0  0  0  0
 16 17  1  0  0  0  0
 16 29  2  0  0  0  0
 17 18  2  0  0  0  0
 17 41  1  0  0  0  0
 18 19  1  0  0  0  0
 18 42  1  0  0  0  0
 19 20  2  0  0  0  0
 20 21  1  0  0  0  0
 20 29  1  0  0  0  0
 21 22  2  0  0  0  0
 21 28  1  0  0  0  0
 22 23  1  0  0  0  0
 22 43  1  0  0  0  0
 23 24  1  0  0  0  0
 23 27  2  0  0  0  0
 24 25  2  0  0  0  0
 24 26  1  0  0  0  0
 26 44  1  0  0  0  0
 27 28  1  0  0  0  0
 27 45  1  0  0  0  0
 28 46  1  0  0  0  0
 29 47  1  0  0  0  0
 30 48  1  0  0  0  0
M  END
$$$$
