CHEMBL201713
 OpenBabel04072215363D

 37 39  0  0  0  0  0  0  0  0999 V2000
    1.1154   -0.3006   -0.4717 O   0  0  0  0  0  0  0  0  0  0  0  0
    2.1908   -0.0408    0.0625 C   0  0  0  0  0  0  0  0  0  0  0  0
    2.7263    1.2379    0.0871 N   0  0  0  0  0  0  0  0  0  0  0  0
    2.1133    2.3954   -0.4422 C   0  0  0  0  0  0  0  0  0  0  0  0
    0.7507    2.4653   -0.7564 C   0  0  0  0  0  0  0  0  0  0  0  0
    0.2080    3.6061   -1.3529 C   0  0  0  0  0  0  0  0  0  0  0  0
    1.0273    4.6923   -1.6274 C   0  0  0  0  0  0  0  0  0  0  0  0
    0.3051    6.2138   -2.4830 Br  0  0  0  0  0  0  0  0  0  0  0  0
    2.3770    4.6598   -1.2795 C   0  0  0  0  0  0  0  0  0  0  0  0
    2.9156    3.5173   -0.6756 C   0  0  0  0  0  0  0  0  0  0  0  0
    2.9968   -1.0947    0.6674 C   0  0  0  0  0  0  0  0  0  0  0  0
    4.4623   -0.7842    1.5085 S   0  0  0  0  0  0  0  0  0  0  0  0
    4.6320   -2.4591    1.8119 C   0  0  0  0  0  0  0  0  0  0  0  0
    3.6851   -3.2325    1.3328 N   0  0  0  0  0  0  0  0  0  0  0  0
    2.7304   -2.4624    0.6793 C   0  0  0  0  0  0  0  0  0  0  0  0
    1.5635   -3.1545    0.0253 C   0  0  0  0  0  0  0  0  0  0  0  0
    1.1228   -4.4449    0.7166 C   0  0  0  0  0  0  0  0  0  0  0  0
   -0.1081   -5.0301    0.0617 C   0  0  0  0  0  0  0  0  0  0  0  0
    0.0047   -5.9563   -0.9780 C   0  0  0  0  0  0  0  0  0  0  0  0
   -1.1548   -6.4605   -1.5497 C   0  0  0  0  0  0  0  0  0  0  0  0
   -2.4000   -6.1041   -1.1688 N   0  0  0  0  0  0  0  0  0  0  0  0
   -2.4878   -5.1957   -0.1743 C   0  0  0  0  0  0  0  0  0  0  0  0
   -1.3887   -4.6349    0.4601 C   0  0  0  0  0  0  0  0  0  0  0  0
    3.6863    1.3201    0.3999 H   0  0  0  0  0  0  0  0  0  0  0  0
    0.0699    1.6464   -0.5442 H   0  0  0  0  0  0  0  0  0  0  0  0
   -0.8499    3.6196   -1.6027 H   0  0  0  0  0  0  0  0  0  0  0  0
    3.0188    5.5106   -1.4897 H   0  0  0  0  0  0  0  0  0  0  0  0
    3.9742    3.5089   -0.4304 H   0  0  0  0  0  0  0  0  0  0  0  0
    5.4746   -2.8552    2.3644 H   0  0  0  0  0  0  0  0  0  0  0  0
    1.8276   -3.3557   -1.0199 H   0  0  0  0  0  0  0  0  0  0  0  0
    0.6975   -2.4866    0.0104 H   0  0  0  0  0  0  0  0  0  0  0  0
    0.9070   -4.2526    1.7759 H   0  0  0  0  0  0  0  0  0  0  0  0
    1.9299   -5.1876    0.7035 H   0  0  0  0  0  0  0  0  0  0  0  0
    0.9733   -6.2845   -1.3396 H   0  0  0  0  0  0  0  0  0  0  0  0
   -1.1098   -7.1880   -2.3551 H   0  0  0  0  0  0  0  0  0  0  0  0
   -3.4991   -4.9195    0.1107 H   0  0  0  0  0  0  0  0  0  0  0  0
   -1.5356   -3.9035    1.2479 H   0  0  0  0  0  0  0  0  0  0  0  0
  1  2  2  0  0  0  0
  2  3  1  0  0  0  0
  2 11  1  0  0  0  0
  3  4  1  0  0  0  0
  3 24  1  0  0  0  0
  4  5  1  0  0  0  0
  4 10  2  0  0  0  0
  5  6  2  0  0  0  0
  5 25  1  0  0  0  0
  6  7  1  0  0  0  0
  6 26  1  0  0  0  0
  7  8  1  0  0  0  0
  7  9  2  0  0  0  0
  9 10  1  0  0  0  0
  9 27  1  0  0  0  0
 10 28  1  0  0  0  0
 11 12  1  0  0  0  0
 11 15  2  0  0  0  0
 12 13  1  0  0  0  0
 13 14  2  0  0  0  0
 13 29  1  0  0  0  0
 14 15  1  0  0  0  0
 15 16  1  0  0  0  0
 16 17  1  0  0  0  0
 16 30  1  0  0  0  0
 16 31  1  0  0  0  0
 17 18  1  0  0  0  0
 17 32  1  0  0  0  0
 17 33  1  0  0  0  0
 18 19  1  0  0  0  0
 18 23  2  0  0  0  0
 19 20  2  0  0  0  0
 19 34  1  0  0  0  0
 20 21  1  0  0  0  0
 20 35  1  0  0  0  0
 21 22  2  0  0  0  0
 22 23  1  0  0  0  0
 22 36  1  0  0  0  0
 23 37  1  0  0  0  0
M  END
$$$$
