CHEMBL404497
 OpenBabel04072215373D

 46 51  0  0  0  0  0  0  0  0999 V2000
    1.4702   -0.4898   -0.9178 C   0  0  0  0  0  0  0  0  0  0  0  0
    2.5986    0.0278   -0.0694 C   0  0  0  0  0  0  0  0  0  0  0  0
    2.9125    1.2125   -0.0162 O   0  0  0  0  0  0  0  0  0  0  0  0
    3.2962   -0.9453    0.7854 C   0  0  0  0  0  0  0  0  0  0  0  0
    2.8927   -2.2835    0.7782 C   0  0  0  0  0  0  0  0  0  0  0  0
    3.5058   -3.1964    1.6099 C   0  0  0  0  0  0  0  0  0  0  0  0
    4.5390   -2.6977    2.3959 C   0  0  0  0  0  0  0  0  0  0  0  0
    5.3077   -3.3963    3.2769 N   0  0  0  0  0  0  0  0  0  0  0  0
    6.2172   -2.5821    3.8952 C   0  0  0  0  0  0  0  0  0  0  0  0
    7.1381   -2.7037    4.9455 C   0  0  0  0  0  0  0  0  0  0  0  0
    8.2305   -2.4745    6.1354 C   0  0  0  0  0  0  0  0  0  0  0  0
    7.8917   -0.9672    5.2558 C   0  0  0  0  0  0  0  0  0  0  0  0
    6.7972   -0.4847    4.0588 C   0  0  0  0  0  0  0  0  0  0  0  0
    5.9648   -1.3910    3.4203 C   0  0  0  0  0  0  0  0  0  0  0  0
    4.9801   -1.3694    2.4447 C   0  0  0  0  0  0  0  0  0  0  0  0
    4.3391   -0.4670    1.6036 C   0  0  0  0  0  0  0  0  0  0  0  0
    6.7991    0.8623    3.5259 C   0  0  0  0  0  0  0  0  0  0  0  0
    8.0118    1.2939    4.1052 N   0  0  0  0  0  0  0  0  0  0  0  0
    8.5371    0.5242    5.2423 C   0  0  0  0  0  0  0  0  0  0  0  0
    9.2997    1.1508    5.9793 O   0  0  0  0  0  0  0  0  0  0  0  0
    8.3373   -4.3258    6.9290 C   0  0  0  0  0  0  0  0  0  0  0  0
    8.3873   -5.8501    7.5210 C   0  0  0  0  0  0  0  0  0  0  0  0
    7.7588   -7.1917    6.9331 N   0  0  0  0  0  0  0  0  0  0  0  0
    7.4310   -8.6522    7.0211 C   0  0  0  0  0  0  0  0  0  0  0  0
    7.2342   -6.7954    5.8553 N   0  0  0  0  0  0  0  0  0  0  0  0
    7.3217   -5.5156    5.9973 C   0  0  0  0  0  0  0  0  0  0  0  0
    6.3963   -5.1193    4.9943 C   0  0  0  0  0  0  0  0  0  0  0  0
    7.0480   -3.9691    5.2856 C   0  0  0  0  0  0  0  0  0  0  0  0
    1.0323    0.3401   -1.4729 H   0  0  0  0  0  0  0  0  0  0  0  0
    0.7010   -0.9255   -0.2719 H   0  0  0  0  0  0  0  0  0  0  0  0
    1.8244   -1.2340   -1.6359 H   0  0  0  0  0  0  0  0  0  0  0  0
    2.1133   -2.6395    0.1126 H   0  0  0  0  0  0  0  0  0  0  0  0
    3.2094   -4.2423    1.6361 H   0  0  0  0  0  0  0  0  0  0  0  0
    5.1045   -4.3613    3.4838 H   0  0  0  0  0  0  0  0  0  0  0  0
    4.6213    0.5759    1.5771 H   0  0  0  0  0  0  0  0  0  0  0  0
    5.9422    1.4645    3.8619 H   0  0  0  0  0  0  0  0  0  0  0  0
    6.8113    0.9272    2.4239 H   0  0  0  0  0  0  0  0  0  0  0  0
    8.2755    2.2471    3.8733 H   0  0  0  0  0  0  0  0  0  0  0  0
    8.7884   -6.2000    8.4693 H   0  0  0  0  0  0  0  0  0  0  0  0
    7.7488   -9.2117    7.8901 H   0  0  0  0  0  0  0  0  0  0  0  0
    7.7994   -9.1765    6.1010 H   0  0  0  0  0  0  0  0  0  0  0  0
    6.3264   -8.8319    6.8829 H   0  0  0  0  0  0  0  0  0  0  0  0
    5.3568   -5.0050    5.3097 H   0  0  0  0  0  0  0  0  0  0  0  0
    6.6651   -5.3839    3.9714 H   0  0  0  0  0  0  0  0  0  0  0  0
    8.1359   -4.1396    4.8954 H   0  0  0  0  0  0  0  0  0  0  0  0
    6.5586   -3.6656    6.2883 H   0  0  0  0  0  0  0  0  0  0  0  0
  1  2  1  0  0  0  0
  1 29  1  0  0  0  0
  1 30  1  0  0  0  0
  1 31  1  0  0  0  0
  2  3  2  0  0  0  0
  2  4  1  0  0  0  0
  4  5  1  0  0  0  0
  4 16  2  0  0  0  0
  5  6  2  0  0  0  0
  5 32  1  0  0  0  0
  6  7  1  0  0  0  0
  6 33  1  0  0  0  0
  7  8  1  0  0  0  0
  7 15  2  0  0  0  0
  8  9  1  0  0  0  0
  8 34  1  0  0  0  0
  9 10  1  0  0  0  0
  9 14  2  0  0  0  0
 10 11  2  0  0  0  0
 10 28  1  0  0  0  0
 11 12  1  0  0  0  0
 11 21  1  0  0  0  0
 12 13  2  0  0  0  0
 12 19  1  0  0  0  0
 13 14  1  0  0  0  0
 13 17  1  0  0  0  0
 14 15  1  0  0  0  0
 15 16  1  0  0  0  0
 16 35  1  0  0  0  0
 17 18  1  0  0  0  0
 17 36  1  0  0  0  0
 17 37  1  0  0  0  0
 18 19  1  0  0  0  0
 18 38  1  0  0  0  0
 19 20  2  0  0  0  0
 21 22  2  0  0  0  0
 21 26  1  0  0  0  0
 22 23  1  0  0  0  0
 22 39  1  0  0  0  0
 23 24  1  0  0  0  0
 23 25  1  0  0  0  0
 24 40  1  0  0  0  0
 24 41  1  0  0  0  0
 24 42  1  0  0  0  0
 25 26  2  0  0  0  0
 26 27  1  0  0  0  0
 27 28  1  0  0  0  0
 27 43  1  0  0  0  0
 27 44  1  0  0  0  0
 28 45  1  0  0  0  0
 28 46  1  0  0  0  0
M  END
$$$$
