CHEMBL1172838
 OpenBabel04072215363D

 58 63  0  0  0  0  0  0  0  0999 V2000
    1.0156   -0.2939    0.0848 O   0  0  0  0  0  0  0  0  0  0  0  0
    2.1844    0.0508   -0.0790 C   0  0  0  0  0  0  0  0  0  0  0  0
    2.8250    1.0209    0.6789 N   0  0  0  0  0  0  0  0  0  0  0  0
    2.2398    1.7855    1.7151 C   0  0  0  0  0  0  0  0  0  0  0  0
    0.9804    1.5221    2.2357 C   0  0  0  0  0  0  0  0  0  0  0  0
    0.4511    2.3243    3.2444 C   0  0  0  0  0  0  0  0  0  0  0  0
    1.1705    3.3855    3.8287 C   0  0  0  0  0  0  0  0  0  0  0  0
    0.5910    4.0900    4.9997 C   0  0  0  0  0  0  0  0  0  0  0  0
   -0.2865    3.3702    5.8321 C   0  0  0  0  0  0  0  0  0  0  0  0
   -1.0505    3.9949    6.8043 C   0  0  0  0  0  0  0  0  0  0  0  0
   -0.8141    5.3283    7.1092 C   0  0  0  0  0  0  0  0  0  0  0  0
   -1.5844    5.9576    8.0813 C   0  0  0  0  0  0  0  0  0  0  0  0
   -1.0218    6.9625    8.8441 C   0  0  0  0  0  0  0  0  0  0  0  0
    0.1250    7.5866    8.3744 C   0  0  0  0  0  0  0  0  0  0  0  0
    0.6749    7.2031    7.1399 C   0  0  0  0  0  0  0  0  0  0  0  0
    0.2596    6.0073    6.5149 C   0  0  0  0  0  0  0  0  0  0  0  0
    0.8668    5.4229    5.3690 C   0  0  0  0  0  0  0  0  0  0  0  0
    2.4278    3.6621    3.2791 C   0  0  0  0  0  0  0  0  0  0  0  0
    2.9562    2.8690    2.2389 C   0  0  0  0  0  0  0  0  0  0  0  0
    3.0136   -0.4678   -1.0648 N   0  0  0  0  0  0  0  0  0  0  0  0
    2.6262   -1.3583   -2.1004 C   0  0  0  0  0  0  0  0  0  0  0  0
    1.2917   -1.7747   -2.2852 C   0  0  0  0  0  0  0  0  0  0  0  0
    0.9289   -2.6676   -3.2916 C   0  0  0  0  0  0  0  0  0  0  0  0
    1.9194   -3.1345   -4.1343 C   0  0  0  0  0  0  0  0  0  0  0  0
    3.2320   -2.6877   -4.0079 C   0  0  0  0  0  0  0  0  0  0  0  0
    3.6127   -1.8141   -3.0027 C   0  0  0  0  0  0  0  0  0  0  0  0
    4.0202   -3.2309   -5.0245 N   0  0  0  0  0  0  0  0  0  0  0  0
    3.2809   -4.0738   -5.8608 C   0  0  0  0  0  0  0  0  0  0  0  0
    3.6705   -4.6391   -6.8620 O   0  0  0  0  0  0  0  0  0  0  0  0
    1.8921   -4.0680   -5.2605 C   0  0  0  0  0  0  0  0  0  0  0  0
    0.7936   -4.7762   -5.5432 C   0  0  0  0  0  0  0  0  0  0  0  0
    0.6249   -5.7801   -6.5188 C   0  0  0  0  0  0  0  0  0  0  0  0
   -0.2644   -6.8419   -6.5629 C   0  0  0  0  0  0  0  0  0  0  0  0
   -0.0878   -7.5182   -7.7776 C   0  0  0  0  0  0  0  0  0  0  0  0
    0.9050   -6.8450   -8.4539 C   0  0  0  0  0  0  0  0  0  0  0  0
    1.3377   -5.8009   -7.6832 N   0  0  0  0  0  0  0  0  0  0  0  0
    3.7504    1.2935    0.3908 H   0  0  0  0  0  0  0  0  0  0  0  0
    0.3676    0.6901    1.9063 H   0  0  0  0  0  0  0  0  0  0  0  0
   -0.5544    2.0772    3.5822 H   0  0  0  0  0  0  0  0  0  0  0  0
   -0.3989    2.2932    5.7228 H   0  0  0  0  0  0  0  0  0  0  0  0
   -1.7426    3.3995    7.3946 H   0  0  0  0  0  0  0  0  0  0  0  0
   -2.6285    5.6874    8.2118 H   0  0  0  0  0  0  0  0  0  0  0  0
   -1.4973    7.2658    9.7728 H   0  0  0  0  0  0  0  0  0  0  0  0
    0.5545    8.4046    8.9457 H   0  0  0  0  0  0  0  0  0  0  0  0
    1.4879    7.7911    6.7259 H   0  0  0  0  0  0  0  0  0  0  0  0
    1.5725    6.0165    4.7929 H   0  0  0  0  0  0  0  0  0  0  0  0
    3.0318    4.4796    3.6647 H   0  0  0  0  0  0  0  0  0  0  0  0
    3.9408    3.1163    1.8518 H   0  0  0  0  0  0  0  0  0  0  0  0
    3.9950   -0.2423   -1.0053 H   0  0  0  0  0  0  0  0  0  0  0  0
    0.4868   -1.4219   -1.6461 H   0  0  0  0  0  0  0  0  0  0  0  0
   -0.1088   -2.9667   -3.3997 H   0  0  0  0  0  0  0  0  0  0  0  0
    4.6498   -1.5150   -2.9110 H   0  0  0  0  0  0  0  0  0  0  0  0
    5.0045   -3.0570   -5.1726 H   0  0  0  0  0  0  0  0  0  0  0  0
   -0.0878   -4.6280   -4.9225 H   0  0  0  0  0  0  0  0  0  0  0  0
   -0.9825   -7.0947   -5.7830 H   0  0  0  0  0  0  0  0  0  0  0  0
   -0.6238   -8.3956   -8.1297 H   0  0  0  0  0  0  0  0  0  0  0  0
    1.3462   -7.0309   -9.4400 H   0  0  0  0  0  0  0  0  0  0  0  0
    2.1277   -5.1898   -7.9130 H   0  0  0  0  0  0  0  0  0  0  0  0
  1  2  2  0  0  0  0
  2  3  1  0  0  0  0
  2 20  1  0  0  0  0
  3  4  1  0  0  0  0
  3 37  1  0  0  0  0
  4  5  1  0  0  0  0
  4 19  2  0  0  0  0
  5  6  2  0  0  0  0
  5 38  1  0  0  0  0
  6  7  1  0  0  0  0
  6 39  1  0  0  0  0
  7  8  1  0  0  0  0
  7 18  2  0  0  0  0
  8  9  1  0  0  0  0
  8 17  2  0  0  0  0
  9 10  2  0  0  0  0
  9 40  1  0  0  0  0
 10 11  1  0  0  0  0
 10 41  1  0  0  0  0
 11 12  1  0  0  0  0
 11 16  2  0  0  0  0
 12 13  2  0  0  0  0
 12 42  1  0  0  0  0
 13 14  1  0  0  0  0
 13 43  1  0  0  0  0
 14 15  2  0  0  0  0
 14 44  1  0  0  0  0
 15 16  1  0  0  0  0
 15 45  1  0  0  0  0
 16 17  1  0  0  0  0
 17 46  1  0  0  0  0
 18 19  1  0  0  0  0
 18 47  1  0  0  0  0
 19 48  1  0  0  0  0
 20 21  1  0  0  0  0
 20 49  1  0  0  0  0
 21 22  1  0  0  0  0
 21 26  2  0  0  0  0
 22 23  2  0  0  0  0
 22 50  1  0  0  0  0
 23 24  1  0  0  0  0
 23 51  1  0  0  0  0
 24 25  2  0  0  0  0
 24 30  1  0  0  0  0
 25 26  1  0  0  0  0
 25 27  1  0  0  0  0
 26 52  1  0  0  0  0
 27 28  1  0  0  0  0
 27 53  1  0  0  0  0
 28 29  2  0  0  0  0
 28 30  1  0  0  0  0
 30 31  2  0  0  0  0
 31 32  1  0  0  0  0
 31 54  1  0  0  0  0
 32 33  2  0  0  0  0
 32 36  1  0  0  0  0
 33 34  1  0  0  0  0
 33 55  1  0  0  0  0
 34 35  2  0  0  0  0
 34 56  1  0  0  0  0
 35 36  1  0  0  0  0
 35 57  1  0  0  0  0
 36 58  1  0  0  0  0
M  END
$$$$
