CHEMBL205509
 OpenBabel04072215363D

 35 37  0  0  0  0  0  0  0  0999 V2000
    2.5102    0.6368   -0.3664 C   0  0  0  0  0  0  0  0  0  0  0  0
    1.0914    0.2632   -0.1542 C   0  0  0  0  0  0  0  0  0  0  0  0
   -0.0315    1.0214    0.0722 C   0  0  0  0  0  0  0  0  0  0  0  0
   -1.1368    0.1333    0.2023 C   0  0  0  0  0  0  0  0  0  0  0  0
   -2.5447    0.5434    0.4622 C   0  0  0  0  0  0  0  0  0  0  0  0
   -0.6467   -1.1605    0.0423 C   0  0  0  0  0  0  0  0  0  0  0  0
   -1.3141   -2.4166    0.0737 C   0  0  0  0  0  0  0  0  0  0  0  0
   -0.8113   -3.6592    0.0100 C   0  0  0  0  0  0  0  0  0  0  0  0
    0.5756   -4.1385   -0.2301 C   0  0  0  0  0  0  0  0  0  0  0  0
    1.6022   -3.4982   -0.3364 O   0  0  0  0  0  0  0  0  0  0  0  0
    0.4292   -5.5096   -0.3411 N   0  0  0  0  0  0  0  0  0  0  0  0
   -0.8441   -5.9813   -0.1520 N   0  0  0  0  0  0  0  0  0  0  0  0
   -1.5963   -4.9319    0.0847 C   0  0  0  0  0  0  0  0  0  0  0  0
   -3.0380   -5.0458    0.3775 C   0  0  0  0  0  0  0  0  0  0  0  0
   -3.6974   -4.1865    1.2629 C   0  0  0  0  0  0  0  0  0  0  0  0
   -5.0742   -4.3030    1.4634 C   0  0  0  0  0  0  0  0  0  0  0  0
   -5.7875   -5.3186    0.8312 C   0  0  0  0  0  0  0  0  0  0  0  0
   -5.1255   -6.2242    0.0038 C   0  0  0  0  0  0  0  0  0  0  0  0
   -3.7546   -6.0882   -0.2251 C   0  0  0  0  0  0  0  0  0  0  0  0
    0.7051   -1.0522   -0.1665 N   0  0  0  0  0  0  0  0  0  0  0  0
    2.6458    1.7209   -0.3023 H   0  0  0  0  0  0  0  0  0  0  0  0
    2.8475    0.3075   -1.3535 H   0  0  0  0  0  0  0  0  0  0  0  0
    3.1459    0.1675    0.3901 H   0  0  0  0  0  0  0  0  0  0  0  0
   -0.0589    2.1016    0.1393 H   0  0  0  0  0  0  0  0  0  0  0  0
   -2.6263    1.6294    0.5776 H   0  0  0  0  0  0  0  0  0  0  0  0
   -2.9191    0.0800    1.3810 H   0  0  0  0  0  0  0  0  0  0  0  0
   -3.1916    0.2432   -0.3682 H   0  0  0  0  0  0  0  0  0  0  0  0
   -2.3893   -2.3074    0.1538 H   0  0  0  0  0  0  0  0  0  0  0  0
    1.1948   -6.1448   -0.5287 H   0  0  0  0  0  0  0  0  0  0  0  0
   -3.1615   -3.4260    1.8230 H   0  0  0  0  0  0  0  0  0  0  0  0
   -5.5871   -3.6058    2.1217 H   0  0  0  0  0  0  0  0  0  0  0  0
   -6.8577   -5.4147    0.9972 H   0  0  0  0  0  0  0  0  0  0  0  0
   -5.6767   -7.0354   -0.4656 H   0  0  0  0  0  0  0  0  0  0  0  0
   -3.2509   -6.8004   -0.8762 H   0  0  0  0  0  0  0  0  0  0  0  0
    1.3447   -1.8278   -0.3099 H   0  0  0  0  0  0  0  0  0  0  0  0
  1  2  1  0  0  0  0
  1 21  1  0  0  0  0
  1 22  1  0  0  0  0
  1 23  1  0  0  0  0
  2  3  2  0  0  0  0
  2 20  1  0  0  0  0
  3  4  1  0  0  0  0
  3 24  1  0  0  0  0
  4  5  1  0  0  0  0
  4  6  2  0  0  0  0
  5 25  1  0  0  0  0
  5 26  1  0  0  0  0
  5 27  1  0  0  0  0
  6  7  1  0  0  0  0
  6 20  1  0  0  0  0
  7  8  2  0  0  0  0
  7 28  1  0  0  0  0
  8  9  1  0  0  0  0
  8 13  1  0  0  0  0
  9 10  2  0  0  0  0
  9 11  1  0  0  0  0
 11 12  1  0  0  0  0
 11 29  1  0  0  0  0
 12 13  2  0  0  0  0
 13 14  1  0  0  0  0
 14 15  1  0  0  0  0
 14 19  2  0  0  0  0
 15 16  2  0  0  0  0
 15 30  1  0  0  0  0
 16 17  1  0  0  0  0
 16 31  1  0  0  0  0
 17 18  2  0  0  0  0
 17 32  1  0  0  0  0
 18 19  1  0  0  0  0
 18 33  1  0  0  0  0
 19 34  1  0  0  0  0
 20 35  1  0  0  0  0
M  END
$$$$
