CHEMBL206658
 OpenBabel04072215363D

 50 55  0  0  0  0  0  0  0  0999 V2000
   -0.8629   -4.7222   -4.7706 C   0  0  0  0  0  0  0  0  0  0  0  0
    0.0903   -3.9490   -3.9409 C   0  0  0  0  0  0  0  0  0  0  0  0
    0.5259   -4.1419   -2.6461 C   0  0  0  0  0  0  0  0  0  0  0  0
    1.4675   -3.1226   -2.3405 C   0  0  0  0  0  0  0  0  0  0  0  0
    2.2309   -2.8011   -1.1986 C   0  0  0  0  0  0  0  0  0  0  0  0
    3.1243   -1.7186   -1.2292 C   0  0  0  0  0  0  0  0  0  0  0  0
    3.8084   -1.3642   -0.0307 N   0  0  0  0  0  0  0  0  0  0  0  0
    5.0742   -0.7398    0.0168 C   0  0  0  0  0  0  0  0  0  0  0  0
    5.9485   -0.9992   -0.9741 N   0  0  0  0  0  0  0  0  0  0  0  0
    7.1501   -0.3792   -1.0109 N   0  0  0  0  0  0  0  0  0  0  0  0
    7.4899    0.5586   -0.0982 C   0  0  0  0  0  0  0  0  0  0  0  0
    8.8327    1.1669   -0.2865 C   0  0  0  0  0  0  0  0  0  0  0  0
    9.5615    1.5715    0.8561 C   0  0  0  0  0  0  0  0  0  0  0  0
   10.7498    2.2595    0.7972 C   0  0  0  0  0  0  0  0  0  0  0  0
   11.3252    2.5024   -0.4237 C   0  0  0  0  0  0  0  0  0  0  0  0
   10.6921    2.0413   -1.6125 C   0  0  0  0  0  0  0  0  0  0  0  0
   11.2749    2.2534   -2.8649 C   0  0  0  0  0  0  0  0  0  0  0  0
   10.7367    1.8677   -4.0427 N   0  0  0  0  0  0  0  0  0  0  0  0
    9.5545    1.2343   -3.9757 C   0  0  0  0  0  0  0  0  0  0  0  0
    8.8871    0.9820   -2.7923 C   0  0  0  0  0  0  0  0  0  0  0  0
    9.4432    1.3806   -1.5611 C   0  0  0  0  0  0  0  0  0  0  0  0
    6.6211    0.8570    0.9763 C   0  0  0  0  0  0  0  0  0  0  0  0
    6.8764    1.8517    1.9606 C   0  0  0  0  0  0  0  0  0  0  0  0
    6.0477    2.0841    3.0401 C   0  0  0  0  0  0  0  0  0  0  0  0
    4.8898    1.3422    3.1541 C   0  0  0  0  0  0  0  0  0  0  0  0
    4.5846    0.3851    2.1882 C   0  0  0  0  0  0  0  0  0  0  0  0
    5.4177    0.1402    1.0697 C   0  0  0  0  0  0  0  0  0  0  0  0
    3.2055   -0.9433   -2.3963 C   0  0  0  0  0  0  0  0  0  0  0  0
    2.4345   -1.2201   -3.5334 C   0  0  0  0  0  0  0  0  0  0  0  0
    1.5797   -2.3208   -3.4733 C   0  0  0  0  0  0  0  0  0  0  0  0
    0.7227   -2.8297   -4.4213 N   0  0  0  0  0  0  0  0  0  0  0  0
   -1.2311   -5.5977   -4.2271 H   0  0  0  0  0  0  0  0  0  0  0  0
   -0.3763   -5.0723   -5.6868 H   0  0  0  0  0  0  0  0  0  0  0  0
   -1.7234   -4.1050   -5.0472 H   0  0  0  0  0  0  0  0  0  0  0  0
    0.2078   -4.9388   -1.9874 H   0  0  0  0  0  0  0  0  0  0  0  0
    2.1310   -3.4082   -0.3052 H   0  0  0  0  0  0  0  0  0  0  0  0
    3.8117   -2.1457    0.6174 H   0  0  0  0  0  0  0  0  0  0  0  0
    9.1834    1.3646    1.8521 H   0  0  0  0  0  0  0  0  0  0  0  0
   11.2322    2.5975    1.7112 H   0  0  0  0  0  0  0  0  0  0  0  0
   12.2706    3.0069   -0.4846 H   0  0  0  0  0  0  0  0  0  0  0  0
   12.2318    2.7611   -2.9610 H   0  0  0  0  0  0  0  0  0  0  0  0
    9.1346    0.9194   -4.9275 H   0  0  0  0  0  0  0  0  0  0  0  0
    7.9394    0.4640   -2.8606 H   0  0  0  0  0  0  0  0  0  0  0  0
    7.7361    2.5060    1.9178 H   0  0  0  0  0  0  0  0  0  0  0  0
    6.3016    2.8560    3.7724 H   0  0  0  0  0  0  0  0  0  0  0  0
    4.2155    1.5262    3.9807 H   0  0  0  0  0  0  0  0  0  0  0  0
    3.6640   -0.1796    2.3176 H   0  0  0  0  0  0  0  0  0  0  0  0
    3.8885   -0.0962   -2.4553 H   0  0  0  0  0  0  0  0  0  0  0  0
    2.5048   -0.5974   -4.4196 H   0  0  0  0  0  0  0  0  0  0  0  0
    0.5977   -2.4370   -5.3443 H   0  0  0  0  0  0  0  0  0  0  0  0
  1  2  1  0  0  0  0
  1 32  1  0  0  0  0
  1 33  1  0  0  0  0
  1 34  1  0  0  0  0
  2  3  2  0  0  0  0
  2 31  1  0  0  0  0
  3  4  1  0  0  0  0
  3 35  1  0  0  0  0
  4  5  1  0  0  0  0
  4 30  2  0  0  0  0
  5  6  2  0  0  0  0
  5 36  1  0  0  0  0
  6  7  1  0  0  0  0
  6 28  1  0  0  0  0
  7  8  1  0  0  0  0
  7 37  1  0  0  0  0
  8  9  1  0  0  0  0
  8 27  2  0  0  0  0
  9 10  2  0  0  0  0
 10 11  1  0  0  0  0
 11 12  1  0  0  0  0
 11 22  2  0  0  0  0
 12 13  1  0  0  0  0
 12 21  2  0  0  0  0
 13 14  2  0  0  0  0
 13 38  1  0  0  0  0
 14 15  1  0  0  0  0
 14 39  1  0  0  0  0
 15 16  2  0  0  0  0
 15 40  1  0  0  0  0
 16 17  1  0  0  0  0
 16 21  1  0  0  0  0
 17 18  2  0  0  0  0
 17 41  1  0  0  0  0
 18 19  1  0  0  0  0
 19 20  2  0  0  0  0
 19 42  1  0  0  0  0
 20 21  1  0  0  0  0
 20 43  1  0  0  0  0
 22 23  1  0  0  0  0
 22 27  1  0  0  0  0
 23 24  2  0  0  0  0
 23 44  1  0  0  0  0
 24 25  1  0  0  0  0
 24 45  1  0  0  0  0
 25 26  2  0  0  0  0
 25 46  1  0  0  0  0
 26 27  1  0  0  0  0
 26 47  1  0  0  0  0
 28 29  2  0  0  0  0
 28 48  1  0  0  0  0
 29 30  1  0  0  0  0
 29 49  1  0  0  0  0
 30 31  1  0  0  0  0
 31 50  1  0  0  0  0
M  END
$$$$
