CHEMBL3945159
 OpenBabel04072215373D

 68 70  0  0  0  0  0  0  0  0999 V2000
    2.8146   -0.2531    2.7867 C   0  0  0  0  0  0  0  0  0  0  0  0
    3.5073    0.6974    3.7564 C   0  0  0  0  0  0  0  0  0  0  0  0
    3.7677    1.9906    3.1274 N   0  0  0  0  0  0  0  0  0  0  0  0
    2.8536    2.8731    2.6785 C   0  0  0  0  0  0  0  0  0  0  0  0
    3.5311    3.9676    2.1729 C   0  0  0  0  0  0  0  0  0  0  0  0
    3.0088    5.1991    1.5462 C   0  0  0  0  0  0  0  0  0  0  0  0
    1.6338    5.4388    1.3607 C   0  0  0  0  0  0  0  0  0  0  0  0
    1.2324    6.5772    0.7290 N   0  0  0  0  0  0  0  0  0  0  0  0
    2.1374    7.4886    0.2693 C   0  0  0  0  0  0  0  0  0  0  0  0
    1.7224    8.6334   -0.4200 C   0  0  0  0  0  0  0  0  0  0  0  0
    2.6793    9.5244   -0.9308 C   0  0  0  0  0  0  0  0  0  0  0  0
    4.0714    9.3013   -0.7451 C   0  0  0  0  0  0  0  0  0  0  0  0
    5.0477   10.1864   -1.3603 N   0  0  0  0  0  0  0  0  0  0  0  0
    6.3777    9.6760   -1.7656 C   0  0  0  0  0  0  0  0  0  0  0  0
    6.2871    8.3361   -2.5213 C   0  0  0  0  0  0  0  0  0  0  0  0
    7.5812    7.8680   -3.0474 N   0  0  0  0  0  0  0  0  0  0  0  0
    7.4826    6.4477   -3.4651 C   0  0  0  0  0  0  0  0  0  0  0  0
    6.4238    6.2459   -4.5658 C   0  0  0  0  0  0  0  0  0  0  0  0
    8.8354    5.9347   -3.9654 C   0  0  0  0  0  0  0  0  0  0  0  0
    4.7731   11.6065   -1.4545 C   0  0  0  0  0  0  0  0  0  0  0  0
    3.9707   12.2180   -0.4696 C   0  0  0  0  0  0  0  0  0  0  0  0
    3.7276   13.6005   -0.4660 C   0  0  0  0  0  0  0  0  0  0  0  0
    2.9759   14.1996    0.4941 O   0  0  0  0  0  0  0  0  0  0  0  0
    2.3802   13.5543    1.5596 C   0  0  0  0  0  0  0  0  0  0  0  0
    4.2927   14.3947   -1.4645 C   0  0  0  0  0  0  0  0  0  0  0  0
    5.1019   13.8224   -2.4628 C   0  0  0  0  0  0  0  0  0  0  0  0
    5.6900   14.5679   -3.4349 O   0  0  0  0  0  0  0  0  0  0  0  0
    5.6078   15.9413   -3.5596 C   0  0  0  0  0  0  0  0  0  0  0  0
    5.3357   12.4402   -2.4529 C   0  0  0  0  0  0  0  0  0  0  0  0
    4.4548    8.1619   -0.0063 C   0  0  0  0  0  0  0  0  0  0  0  0
    3.5037    7.2588    0.4695 C   0  0  0  0  0  0  0  0  0  0  0  0
    3.8944    6.1296    1.1048 N   0  0  0  0  0  0  0  0  0  0  0  0
    4.8713    3.6777    2.3579 C   0  0  0  0  0  0  0  0  0  0  0  0
    4.9875    2.4727    2.9470 N   0  0  0  0  0  0  0  0  0  0  0  0
   -1.2324    1.2422    0.4577 Cl  0  0  0  0  0  0  0  0  0  0  0  0
    2.6414   -1.2296    3.2868 H   0  0  0  0  0  0  0  0  0  0  0  0
    3.4555   -0.4206    1.8942 H   0  0  0  0  0  0  0  0  0  0  0  0
    1.8372    0.1609    2.4640 H   0  0  0  0  0  0  0  0  0  0  0  0
    4.4709    0.2362    4.0673 H   0  0  0  0  0  0  0  0  0  0  0  0
    2.8804    0.8423    4.6618 H   0  0  0  0  0  0  0  0  0  0  0  0
    1.7779    2.7276    2.7079 H   0  0  0  0  0  0  0  0  0  0  0  0
    0.8906    4.7280    1.6973 H   0  0  0  0  0  0  0  0  0  0  0  0
    0.6690    8.8222   -0.5890 H   0  0  0  0  0  0  0  0  0  0  0  0
    2.3264   10.3746   -1.5012 H   0  0  0  0  0  0  0  0  0  0  0  0
    7.0284    9.5798   -0.8722 H   0  0  0  0  0  0  0  0  0  0  0  0
    6.8988   10.3780   -2.4393 H   0  0  0  0  0  0  0  0  0  0  0  0
    5.5772    8.4846   -3.3555 H   0  0  0  0  0  0  0  0  0  0  0  0
    5.8970    7.5473   -1.8615 H   0  0  0  0  0  0  0  0  0  0  0  0
    8.2949    7.9247   -2.2807 H   0  0  0  0  0  0  0  0  0  0  0  0
    7.2044    5.8168   -2.5885 H   0  0  0  0  0  0  0  0  0  0  0  0
    6.6537    6.8874   -5.4429 H   0  0  0  0  0  0  0  0  0  0  0  0
    5.4053    6.4854   -4.1978 H   0  0  0  0  0  0  0  0  0  0  0  0
    6.3916    5.1834   -4.8802 H   0  0  0  0  0  0  0  0  0  0  0  0
    9.1736    6.5114   -4.8514 H   0  0  0  0  0  0  0  0  0  0  0  0
    8.7428    4.8624   -4.2489 H   0  0  0  0  0  0  0  0  0  0  0  0
    9.5999    6.0075   -3.1635 H   0  0  0  0  0  0  0  0  0  0  0  0
    3.5591   11.6152    0.3241 H   0  0  0  0  0  0  0  0  0  0  0  0
    1.8507   14.2973    2.1883 H   0  0  0  0  0  0  0  0  0  0  0  0
    3.1515   13.0509    2.1828 H   0  0  0  0  0  0  0  0  0  0  0  0
    1.6449   12.8068    1.1915 H   0  0  0  0  0  0  0  0  0  0  0  0
    4.1042   15.4594   -1.4441 H   0  0  0  0  0  0  0  0  0  0  0  0
    6.2285   16.2678   -4.4189 H   0  0  0  0  0  0  0  0  0  0  0  0
    5.9969   16.4328   -2.6417 H   0  0  0  0  0  0  0  0  0  0  0  0
    4.5564   16.2503   -3.7402 H   0  0  0  0  0  0  0  0  0  0  0  0
    5.9535   12.0445   -3.2437 H   0  0  0  0  0  0  0  0  0  0  0  0
    5.4945    7.9507    0.1820 H   0  0  0  0  0  0  0  0  0  0  0  0
    5.7083    4.2998    2.0750 H   0  0  0  0  0  0  0  0  0  0  0  0
    0.0380    1.6458    0.7961 H   0  0  0  0  0  0  0  0  0  0  0  0
  1  2  1  0  0  0  0
  1 36  1  0  0  0  0
  1 37  1  0  0  0  0
  1 38  1  0  0  0  0
  2  3  1  0  0  0  0
  2 39  1  0  0  0  0
  2 40  1  0  0  0  0
  3  4  1  0  0  0  0
  3 34  1  0  0  0  0
  4  5  2  0  0  0  0
  4 41  1  0  0  0  0
  5  6  1  0  0  0  0
  5 33  1  0  0  0  0
  6  7  1  0  0  0  0
  6 32  2  0  0  0  0
  7  8  2  0  0  0  0
  7 42  1  0  0  0  0
  8  9  1  0  0  0  0
  9 10  1  0  0  0  0
  9 31  2  0  0  0  0
 10 11  2  0  0  0  0
 10 43  1  0  0  0  0
 11 12  1  0  0  0  0
 11 44  1  0  0  0  0
 12 13  1  0  0  0  0
 12 30  2  0  0  0  0
 13 14  1  0  0  0  0
 13 20  1  0  0  0  0
 14 15  1  0  0  0  0
 14 45  1  0  0  0  0
 14 46  1  0  0  0  0
 15 16  1  0  0  0  0
 15 47  1  0  0  0  0
 15 48  1  0  0  0  0
 16 17  1  0  0  0  0
 16 49  1  0  0  0  0
 17 18  1  0  0  0  0
 17 19  1  0  0  0  0
 17 50  1  0  0  0  0
 18 51  1  0  0  0  0
 18 52  1  0  0  0  0
 18 53  1  0  0  0  0
 19 54  1  0  0  0  0
 19 55  1  0  0  0  0
 19 56  1  0  0  0  0
 20 21  1  0  0  0  0
 20 29  2  0  0  0  0
 21 22  2  0  0  0  0
 21 57  1  0  0  0  0
 22 23  1  0  0  0  0
 22 25  1  0  0  0  0
 23 24  1  0  0  0  0
 24 58  1  0  0  0  0
 24 59  1  0  0  0  0
 24 60  1  0  0  0  0
 25 26  2  0  0  0  0
 25 61  1  0  0  0  0
 26 27  1  0  0  0  0
 26 29  1  0  0  0  0
 27 28  1  0  0  0  0
 28 62  1  0  0  0  0
 28 63  1  0  0  0  0
 28 64  1  0  0  0  0
 29 65  1  0  0  0  0
 30 31  1  0  0  0  0
 30 66  1  0  0  0  0
 31 32  1  0  0  0  0
 33 34  2  0  0  0  0
 33 67  1  0  0  0  0
 35 68  1  0  0  0  0
M  END
$$$$
