CHEMBL3984623
 OpenBabel04072215373D

 66 71  0  0  0  0  0  0  0  0999 V2000
   12.4441   -7.5811   -1.7275 C   0  0  0  0  0  0  0  0  0  0  0  0
   12.0012   -6.1870   -2.0871 C   0  0  0  0  0  0  0  0  0  0  0  0
   12.4921   -5.2000   -1.5448 O   0  0  0  0  0  0  0  0  0  0  0  0
   10.9490   -6.0047   -3.1271 C   0  0  0  0  0  0  0  0  0  0  0  0
   10.3757   -7.0881   -3.8045 C   0  0  0  0  0  0  0  0  0  0  0  0
    9.3844   -6.8691   -4.7607 C   0  0  0  0  0  0  0  0  0  0  0  0
    8.9670   -5.5692   -5.0431 C   0  0  0  0  0  0  0  0  0  0  0  0
    9.5357   -4.4782   -4.3719 C   0  0  0  0  0  0  0  0  0  0  0  0
    9.0247   -3.1144   -4.6759 C   0  0  0  0  0  0  0  0  0  0  0  0
    7.8485   -3.0198   -5.0080 O   0  0  0  0  0  0  0  0  0  0  0  0
    9.9592   -2.0916   -4.6122 N   0  0  0  0  0  0  0  0  0  0  0  0
    9.6946   -0.7256   -4.8564 C   0  0  0  0  0  0  0  0  0  0  0  0
    8.4069   -0.1968   -4.8742 C   0  0  0  0  0  0  0  0  0  0  0  0
    8.1986    1.1415   -5.1847 C   0  0  0  0  0  0  0  0  0  0  0  0
    9.2857    1.9667   -5.4642 C   0  0  0  0  0  0  0  0  0  0  0  0
   10.6048    1.4933   -5.3930 C   0  0  0  0  0  0  0  0  0  0  0  0
   11.7205    2.3393   -5.6205 N   0  0  0  0  0  0  0  0  0  0  0  0
   11.5230    3.7640   -5.2920 C   0  0  0  0  0  0  0  0  0  0  0  0
   12.8609    2.0752   -6.4391 C   0  0  0  0  0  0  0  0  0  0  0  0
   12.8859    1.0321   -7.3910 C   0  0  0  0  0  0  0  0  0  0  0  0
   14.0253    0.7463   -8.1918 C   0  0  0  0  0  0  0  0  0  0  0  0
   15.1109    1.6401   -8.1448 C   0  0  0  0  0  0  0  0  0  0  0  0
   16.4554    1.8156   -8.6413 C   0  0  0  0  0  0  0  0  0  0  0  0
   17.6626    1.2514   -8.0333 C   0  0  0  0  0  0  0  0  0  0  0  0
   17.6885    0.2830   -7.1062 C   0  0  0  0  0  0  0  0  0  0  0  0
   18.6074    0.2741   -5.9355 C   0  0  0  0  0  0  0  0  0  0  0  0
   19.3311    1.4149   -5.4910 C   0  0  0  0  0  0  0  0  0  0  0  0
   19.9127    1.4557   -4.2132 C   0  0  0  0  0  0  0  0  0  0  0  0
   19.7794    0.3515   -3.4056 C   0  0  0  0  0  0  0  0  0  0  0  0
   19.1077   -0.7655   -3.8368 C   0  0  0  0  0  0  0  0  0  0  0  0
   18.5286   -0.8403   -5.0871 C   0  0  0  0  0  0  0  0  0  0  0  0
   19.0271   -1.7294   -2.8806 O   0  0  0  0  0  0  0  0  0  0  0  0
   19.6962   -1.0764   -1.7841 C   0  0  0  0  0  0  0  0  0  0  0  0
   20.2060    0.2324   -2.1195 O   0  0  0  0  0  0  0  0  0  0  0  0
   16.5791    3.1394   -8.8879 N   0  0  0  0  0  0  0  0  0  0  0  0
   15.8863    3.6534   -7.8508 N   0  0  0  0  0  0  0  0  0  0  0  0
   14.9589    2.7739   -7.3590 C   0  0  0  0  0  0  0  0  0  0  0  0
   13.9782    2.9241   -6.3837 C   0  0  0  0  0  0  0  0  0  0  0  0
   10.7885    0.1344   -5.0712 C   0  0  0  0  0  0  0  0  0  0  0  0
   10.5184   -4.6975   -3.4041 C   0  0  0  0  0  0  0  0  0  0  0  0
   13.1807   -7.5177   -0.9185 H   0  0  0  0  0  0  0  0  0  0  0  0
   12.9174   -8.0565   -2.5866 H   0  0  0  0  0  0  0  0  0  0  0  0
   11.5984   -8.1712   -1.3639 H   0  0  0  0  0  0  0  0  0  0  0  0
   10.6778   -8.1123   -3.6027 H   0  0  0  0  0  0  0  0  0  0  0  0
    8.9338   -7.7072   -5.2855 H   0  0  0  0  0  0  0  0  0  0  0  0
    8.1822   -5.4043   -5.7805 H   0  0  0  0  0  0  0  0  0  0  0  0
   10.9321   -2.3460   -4.5160 H   0  0  0  0  0  0  0  0  0  0  0  0
    7.5359   -0.8062   -4.6495 H   0  0  0  0  0  0  0  0  0  0  0  0
    7.1879    1.5377   -5.2235 H   0  0  0  0  0  0  0  0  0  0  0  0
    9.0718    2.9902   -5.7580 H   0  0  0  0  0  0  0  0  0  0  0  0
   10.6419    3.9601   -4.6729 H   0  0  0  0  0  0  0  0  0  0  0  0
   11.4328    4.3597   -6.2091 H   0  0  0  0  0  0  0  0  0  0  0  0
   12.3489    4.1556   -4.6887 H   0  0  0  0  0  0  0  0  0  0  0  0
   11.9877    0.4387   -7.5585 H   0  0  0  0  0  0  0  0  0  0  0  0
   13.9960   -0.0708   -8.9073 H   0  0  0  0  0  0  0  0  0  0  0  0
   18.5095    1.9340   -8.0974 H   0  0  0  0  0  0  0  0  0  0  0  0
   16.8494   -0.4028   -7.0296 H   0  0  0  0  0  0  0  0  0  0  0  0
   19.3892    2.3154   -6.0968 H   0  0  0  0  0  0  0  0  0  0  0  0
   20.4476    2.3392   -3.8611 H   0  0  0  0  0  0  0  0  0  0  0  0
   17.9638   -1.7250   -5.3588 H   0  0  0  0  0  0  0  0  0  0  0  0
   20.5323   -1.7069   -1.4639 H   0  0  0  0  0  0  0  0  0  0  0  0
   18.9885   -0.9792   -0.9514 H   0  0  0  0  0  0  0  0  0  0  0  0
   16.0073    4.6313   -7.6190 H   0  0  0  0  0  0  0  0  0  0  0  0
   14.0599    3.7421   -5.6826 H   0  0  0  0  0  0  0  0  0  0  0  0
   11.7997   -0.2500   -4.9973 H   0  0  0  0  0  0  0  0  0  0  0  0
   10.9322   -3.8654   -2.8380 H   0  0  0  0  0  0  0  0  0  0  0  0
  1  2  1  0  0  0  0
  1 41  1  0  0  0  0
  1 42  1  0  0  0  0
  1 43  1  0  0  0  0
  2  3  2  0  0  0  0
  2  4  1  0  0  0  0
  4  5  1  0  0  0  0
  4 40  2  0  0  0  0
  5  6  2  0  0  0  0
  5 44  1  0  0  0  0
  6  7  1  0  0  0  0
  6 45  1  0  0  0  0
  7  8  2  0  0  0  0
  7 46  1  0  0  0  0
  8  9  1  0  0  0  0
  8 40  1  0  0  0  0
  9 10  2  0  0  0  0
  9 11  1  0  0  0  0
 11 12  1  0  0  0  0
 11 47  1  0  0  0  0
 12 13  1  0  0  0  0
 12 39  2  0  0  0  0
 13 14  2  0  0  0  0
 13 48  1  0  0  0  0
 14 15  1  0  0  0  0
 14 49  1  0  0  0  0
 15 16  2  0  0  0  0
 15 50  1  0  0  0  0
 16 17  1  0  0  0  0
 16 39  1  0  0  0  0
 17 18  1  0  0  0  0
 17 19  1  0  0  0  0
 18 51  1  0  0  0  0
 18 52  1  0  0  0  0
 18 53  1  0  0  0  0
 19 20  1  0  0  0  0
 19 38  2  0  0  0  0
 20 21  2  0  0  0  0
 20 54  1  0  0  0  0
 21 22  1  0  0  0  0
 21 55  1  0  0  0  0
 22 23  1  0  0  0  0
 22 37  2  0  0  0  0
 23 24  1  0  0  0  0
 23 35  2  0  0  0  0
 24 25  2  0  0  0  0
 24 56  1  0  0  0  0
 25 26  1  0  0  0  0
 25 57  1  0  0  0  0
 26 27  1  0  0  0  0
 26 31  2  0  0  0  0
 27 28  2  0  0  0  0
 27 58  1  0  0  0  0
 28 29  1  0  0  0  0
 28 59  1  0  0  0  0
 29 30  2  0  0  0  0
 29 34  1  0  0  0  0
 30 31  1  0  0  0  0
 30 32  1  0  0  0  0
 31 60  1  0  0  0  0
 32 33  1  0  0  0  0
 33 34  1  0  0  0  0
 33 61  1  0  0  0  0
 33 62  1  0  0  0  0
 35 36  1  0  0  0  0
 36 37  1  0  0  0  0
 36 63  1  0  0  0  0
 37 38  1  0  0  0  0
 38 64  1  0  0  0  0
 39 65  1  0  0  0  0
 40 66  1  0  0  0  0
M  END
$$$$
