CHEMBL3758489
 OpenBabel04072215373D

 50 52  0  0  0  0  0  0  0  0999 V2000
    2.7066   -1.1577   -0.9525 C   0  0  0  0  0  0  0  0  0  0  0  0
    2.4778   -0.0426   -0.0985 O   0  0  0  0  0  0  0  0  0  0  0  0
    3.1550    1.1216   -0.3255 C   0  0  0  0  0  0  0  0  0  0  0  0
    4.3038    1.2065   -1.1197 C   0  0  0  0  0  0  0  0  0  0  0  0
    4.9269    2.4144   -1.3993 C   0  0  0  0  0  0  0  0  0  0  0  0
    5.9967    2.3924   -2.1970 N   0  0  0  0  0  0  0  0  0  0  0  0
    6.5722    3.5682   -2.4584 C   0  0  0  0  0  0  0  0  0  0  0  0
    6.1876    4.7493   -1.9762 N   0  0  0  0  0  0  0  0  0  0  0  0
    5.1194    4.7623   -1.1566 C   0  0  0  0  0  0  0  0  0  0  0  0
    4.7238    6.0016   -0.5767 N   0  0  0  0  0  0  0  0  0  0  0  0
    5.2671    7.2488   -0.9633 C   0  0  0  0  0  0  0  0  0  0  0  0
    5.3219    7.6130   -2.3168 C   0  0  0  0  0  0  0  0  0  0  0  0
    5.9422    8.7976   -2.7169 C   0  0  0  0  0  0  0  0  0  0  0  0
    6.5022    9.6339   -1.7573 C   0  0  0  0  0  0  0  0  0  0  0  0
    7.3199   11.0656   -2.2495 Cl  0  0  0  0  0  0  0  0  0  0  0  0
    6.4214    9.3102   -0.4040 C   0  0  0  0  0  0  0  0  0  0  0  0
    5.7978    8.1222   -0.0064 C   0  0  0  0  0  0  0  0  0  0  0  0
    4.4112    3.5896   -0.8434 C   0  0  0  0  0  0  0  0  0  0  0  0
    3.2575    3.5202   -0.0291 C   0  0  0  0  0  0  0  0  0  0  0  0
    2.6581    2.2924    0.2608 C   0  0  0  0  0  0  0  0  0  0  0  0
    1.5545    2.3817    1.0687 O   0  0  0  0  0  0  0  0  0  0  0  0
    1.5126    1.4350    2.1409 C   0  0  0  0  0  0  0  0  0  0  0  0
    0.4539    1.8784    3.1562 C   0  0  0  0  0  0  0  0  0  0  0  0
   -0.9189    2.0206    2.4957 C   0  0  0  0  0  0  0  0  0  0  0  0
   -2.0343    2.3000    3.4982 C   0  0  0  0  0  0  0  0  0  0  0  0
   -3.3792    2.4070    2.8042 C   0  0  0  0  0  0  0  0  0  0  0  0
   -3.5527    2.3061    1.5924 O   0  0  0  0  0  0  0  0  0  0  0  0
   -4.4308    2.6218    3.6657 N   0  0  0  0  0  0  0  0  0  0  0  0
   -5.6826    2.8400    3.0415 O   0  0  0  0  0  0  0  0  0  0  0  0
    3.3464   -1.8800   -0.4369 H   0  0  0  0  0  0  0  0  0  0  0  0
    3.1272   -0.9084   -1.9305 H   0  0  0  0  0  0  0  0  0  0  0  0
    1.7390   -1.6321   -1.1422 H   0  0  0  0  0  0  0  0  0  0  0  0
    4.7561    0.3191   -1.5511 H   0  0  0  0  0  0  0  0  0  0  0  0
    7.4321    3.5632   -3.1173 H   0  0  0  0  0  0  0  0  0  0  0  0
    4.6948    5.8962    0.4322 H   0  0  0  0  0  0  0  0  0  0  0  0
    4.9018    6.9521   -3.0714 H   0  0  0  0  0  0  0  0  0  0  0  0
    5.9995    9.0412   -3.7731 H   0  0  0  0  0  0  0  0  0  0  0  0
    6.8585    9.9656    0.3440 H   0  0  0  0  0  0  0  0  0  0  0  0
    5.7689    7.8720    1.0503 H   0  0  0  0  0  0  0  0  0  0  0  0
    2.8129    4.4258    0.3774 H   0  0  0  0  0  0  0  0  0  0  0  0
    2.4880    1.3715    2.6390 H   0  0  0  0  0  0  0  0  0  0  0  0
    1.2242    0.4471    1.7714 H   0  0  0  0  0  0  0  0  0  0  0  0
    0.7422    2.8411    3.5948 H   0  0  0  0  0  0  0  0  0  0  0  0
    0.4083    1.1433    3.9681 H   0  0  0  0  0  0  0  0  0  0  0  0
   -1.1534    1.1043    1.9403 H   0  0  0  0  0  0  0  0  0  0  0  0
   -0.8895    2.8322    1.7592 H   0  0  0  0  0  0  0  0  0  0  0  0
   -1.8415    3.2390    4.0301 H   0  0  0  0  0  0  0  0  0  0  0  0
   -2.0919    1.4898    4.2341 H   0  0  0  0  0  0  0  0  0  0  0  0
   -4.3105    3.0252    4.5881 H   0  0  0  0  0  0  0  0  0  0  0  0
   -5.4641    2.7287    2.0883 H   0  0  0  0  0  0  0  0  0  0  0  0
  1  2  1  0  0  0  0
  1 30  1  0  0  0  0
  1 31  1  0  0  0  0
  1 32  1  0  0  0  0
  2  3  1  0  0  0  0
  3  4  1  0  0  0  0
  3 20  2  0  0  0  0
  4  5  2  0  0  0  0
  4 33  1  0  0  0  0
  5  6  1  0  0  0  0
  5 18  1  0  0  0  0
  6  7  2  0  0  0  0
  7  8  1  0  0  0  0
  7 34  1  0  0  0  0
  8  9  2  0  0  0  0
  9 10  1  0  0  0  0
  9 18  1  0  0  0  0
 10 11  1  0  0  0  0
 10 35  1  0  0  0  0
 11 12  1  0  0  0  0
 11 17  2  0  0  0  0
 12 13  2  0  0  0  0
 12 36  1  0  0  0  0
 13 14  1  0  0  0  0
 13 37  1  0  0  0  0
 14 15  1  0  0  0  0
 14 16  2  0  0  0  0
 16 17  1  0  0  0  0
 16 38  1  0  0  0  0
 17 39  1  0  0  0  0
 18 19  2  0  0  0  0
 19 20  1  0  0  0  0
 19 40  1  0  0  0  0
 20 21  1  0  0  0  0
 21 22  1  0  0  0  0
 22 23  1  0  0  0  0
 22 41  1  0  0  0  0
 22 42  1  0  0  0  0
 23 24  1  0  0  0  0
 23 43  1  0  0  0  0
 23 44  1  0  0  0  0
 24 25  1  0  0  0  0
 24 45  1  0  0  0  0
 24 46  1  0  0  0  0
 25 26  1  0  0  0  0
 25 47  1  0  0  0  0
 25 48  1  0  0  0  0
 26 27  2  0  0  0  0
 26 28  1  0  0  0  0
 28 29  1  0  0  0  0
 28 49  1  0  0  0  0
 29 50  1  0  0  0  0
M  END
$$$$
