CHEMBL2086731
 OpenBabel04072215363D

 48 52  0  0  0  0  0  0  0  0999 V2000
    1.5347   -1.5684   -4.4153 C   0  0  0  0  0  0  0  0  0  0  0  0
    2.5929   -0.4912   -4.2373 C   0  0  0  0  0  0  0  0  0  0  0  0
    3.4181   -0.8961   -3.1497 O   0  0  0  0  0  0  0  0  0  0  0  0
    4.5075   -0.1366   -2.8406 C   0  0  0  0  0  0  0  0  0  0  0  0
    4.8999    1.0570   -3.4444 C   0  0  0  0  0  0  0  0  0  0  0  0
    6.1226    1.6560   -3.0930 C   0  0  0  0  0  0  0  0  0  0  0  0
    6.9512    1.0715   -2.1259 C   0  0  0  0  0  0  0  0  0  0  0  0
    8.3709    1.4927   -1.8940 C   0  0  0  0  0  0  0  0  0  0  0  0
    8.6541    2.6021   -1.1675 C   0  0  0  0  0  0  0  0  0  0  0  0
    8.2434    2.4398    0.2975 C   0  0  0  0  0  0  0  0  0  0  0  0
    8.4123    1.4580    1.0150 O   0  0  0  0  0  0  0  0  0  0  0  0
    7.5596    3.5847    0.6550 N   0  0  0  0  0  0  0  0  0  0  0  0
    7.3755    4.4100   -0.4406 C   0  0  0  0  0  0  0  0  0  0  0  0
    6.5813    5.5343   -0.5207 C   0  0  0  0  0  0  0  0  0  0  0  0
    6.5693    6.2243   -1.7355 C   0  0  0  0  0  0  0  0  0  0  0  0
    7.4032    5.8234   -2.7950 C   0  0  0  0  0  0  0  0  0  0  0  0
    8.1782    4.6634   -2.6957 C   0  0  0  0  0  0  0  0  0  0  0  0
    8.0869    3.9201   -1.5313 C   0  0  0  0  0  0  0  0  0  0  0  0
    9.4764    0.6014   -2.1478 C   0  0  0  0  0  0  0  0  0  0  0  0
   10.7220    0.5851   -1.7059 N   0  0  0  0  0  0  0  0  0  0  0  0
   11.3366   -0.4810   -2.3232 C   0  0  0  0  0  0  0  0  0  0  0  0
   12.6521   -0.9618   -2.2147 C   0  0  0  0  0  0  0  0  0  0  0  0
   13.0483   -2.0402   -3.0195 C   0  0  0  0  0  0  0  0  0  0  0  0
   12.1473   -2.6430   -3.9019 C   0  0  0  0  0  0  0  0  0  0  0  0
   10.8195   -2.2093   -3.9927 C   0  0  0  0  0  0  0  0  0  0  0  0
   10.4595   -1.1252   -3.1874 C   0  0  0  0  0  0  0  0  0  0  0  0
    9.2793   -0.4485   -3.0231 N   0  0  0  0  0  0  0  0  0  0  0  0
    6.4831   -0.0576   -1.4398 C   0  0  0  0  0  0  0  0  0  0  0  0
    5.2869   -0.6654   -1.8120 C   0  0  0  0  0  0  0  0  0  0  0  0
    0.8469   -1.3196   -5.2277 H   0  0  0  0  0  0  0  0  0  0  0  0
    0.9603   -1.6972   -3.4914 H   0  0  0  0  0  0  0  0  0  0  0  0
    2.0012   -2.5363   -4.6315 H   0  0  0  0  0  0  0  0  0  0  0  0
    2.1077    0.4615   -4.0010 H   0  0  0  0  0  0  0  0  0  0  0  0
    3.1743   -0.3997   -5.1623 H   0  0  0  0  0  0  0  0  0  0  0  0
    4.2937    1.5302   -4.2111 H   0  0  0  0  0  0  0  0  0  0  0  0
    6.4269    2.5606   -3.6139 H   0  0  0  0  0  0  0  0  0  0  0  0
    7.1988    3.7368    1.5815 H   0  0  0  0  0  0  0  0  0  0  0  0
    5.9525    5.8459    0.3046 H   0  0  0  0  0  0  0  0  0  0  0  0
    5.9132    7.0840   -1.8616 H   0  0  0  0  0  0  0  0  0  0  0  0
    7.4314    6.4161   -3.7073 H   0  0  0  0  0  0  0  0  0  0  0  0
    8.8272    4.3552   -3.5102 H   0  0  0  0  0  0  0  0  0  0  0  0
   13.3466   -0.4940   -1.5261 H   0  0  0  0  0  0  0  0  0  0  0  0
   14.0687   -2.4078   -2.9572 H   0  0  0  0  0  0  0  0  0  0  0  0
   12.4815   -3.4702   -4.5246 H   0  0  0  0  0  0  0  0  0  0  0  0
   10.1150   -2.6863   -4.6651 H   0  0  0  0  0  0  0  0  0  0  0  0
    8.4108   -0.6746   -3.4824 H   0  0  0  0  0  0  0  0  0  0  0  0
    7.0721   -0.4982   -0.6353 H   0  0  0  0  0  0  0  0  0  0  0  0
    4.9724   -1.5802   -1.3136 H   0  0  0  0  0  0  0  0  0  0  0  0
  1  2  1  0  0  0  0
  1 30  1  0  0  0  0
  1 31  1  0  0  0  0
  1 32  1  0  0  0  0
  2  3  1  0  0  0  0
  2 33  1  0  0  0  0
  2 34  1  0  0  0  0
  3  4  1  0  0  0  0
  4  5  1  0  0  0  0
  4 29  2  0  0  0  0
  5  6  2  0  0  0  0
  5 35  1  0  0  0  0
  6  7  1  0  0  0  0
  6 36  1  0  0  0  0
  7  8  1  0  0  0  0
  7 28  2  0  0  0  0
  8  9  2  3  0  0  0
  8 19  1  0  0  0  0
  9 10  1  0  0  0  0
  9 18  1  0  0  0  0
 10 11  2  0  0  0  0
 10 12  1  0  0  0  0
 12 13  1  0  0  0  0
 12 37  1  0  0  0  0
 13 14  1  0  0  0  0
 13 18  2  0  0  0  0
 14 15  2  0  0  0  0
 14 38  1  0  0  0  0
 15 16  1  0  0  0  0
 15 39  1  0  0  0  0
 16 17  2  0  0  0  0
 16 40  1  0  0  0  0
 17 18  1  0  0  0  0
 17 41  1  0  0  0  0
 19 20  2  0  0  0  0
 19 27  1  0  0  0  0
 20 21  1  0  0  0  0
 21 22  1  0  0  0  0
 21 26  2  0  0  0  0
 22 23  2  0  0  0  0
 22 42  1  0  0  0  0
 23 24  1  0  0  0  0
 23 43  1  0  0  0  0
 24 25  2  0  0  0  0
 24 44  1  0  0  0  0
 25 26  1  0  0  0  0
 25 45  1  0  0  0  0
 26 27  1  0  0  0  0
 27 46  1  0  0  0  0
 28 29  1  0  0  0  0
 28 47  1  0  0  0  0
 29 48  1  0  0  0  0
M  END
$$$$
