CHEMBL187930
 OpenBabel04072215363D

 66 68  0  0  0  0  0  0  0  0999 V2000
    1.9409    4.8971    0.3918 C   0  0  0  0  0  0  0  0  0  0  0  0
    1.9597    3.5535    0.9825 N   0  0  0  0  0  0  0  0  0  0  0  0
    0.5805    3.0554    1.0738 C   0  0  0  0  0  0  0  0  0  0  0  0
    2.7620    2.6120    0.1699 C   0  0  0  0  0  0  0  0  0  0  0  0
    4.2488    2.9748    0.0564 C   0  0  0  0  0  0  0  0  0  0  0  0
    4.9524    3.0410    1.3298 N   0  0  0  0  0  0  0  0  0  0  0  0
    6.2813    3.4091    1.2716 C   0  0  0  0  0  0  0  0  0  0  0  0
    6.8361    3.6093    0.1912 O   0  0  0  0  0  0  0  0  0  0  0  0
    6.8846    3.4583    2.5107 N   0  0  0  0  0  0  0  0  0  0  0  0
    8.2378    3.8224    2.7254 C   0  0  0  0  0  0  0  0  0  0  0  0
    8.9722    4.5547    1.7943 C   0  0  0  0  0  0  0  0  0  0  0  0
   10.3295    4.8152    1.9894 C   0  0  0  0  0  0  0  0  0  0  0  0
   11.0191    4.3614    3.1235 C   0  0  0  0  0  0  0  0  0  0  0  0
   12.4099    4.5563    3.2199 N   0  0  0  0  0  0  0  0  0  0  0  0
   13.0277    4.7956    4.5211 C   0  0  0  0  0  0  0  0  0  0  0  0
   13.3681    4.4423    2.1696 C   0  0  0  0  0  0  0  0  0  0  0  0
   13.0927    3.6133    1.0943 C   0  0  0  0  0  0  0  0  0  0  0  0
   14.0427    3.5242    0.1153 C   0  0  0  0  0  0  0  0  0  0  0  0
   15.1892    4.2078    0.1524 N   0  0  0  0  0  0  0  0  0  0  0  0
   15.4065    4.9961    1.2167 C   0  0  0  0  0  0  0  0  0  0  0  0
   16.6059    5.7092    1.2913 N   0  0  0  0  0  0  0  0  0  0  0  0
   17.4591    6.0657    0.2362 C   0  0  0  0  0  0  0  0  0  0  0  0
   16.9701    6.3341   -1.0471 C   0  0  0  0  0  0  0  0  0  0  0  0
   17.8305    6.5459   -2.1279 C   0  0  0  0  0  0  0  0  0  0  0  0
   19.2169    6.4924   -1.9563 C   0  0  0  0  0  0  0  0  0  0  0  0
   20.1498    6.4963   -3.1400 C   0  0  0  0  0  0  0  0  0  0  0  0
   20.1189    8.0132   -4.0836 S   0  0  0  0  0  0  0  0  0  0  0  0
   20.5653    9.2840   -2.9264 C   0  0  0  0  0  0  0  0  0  0  0  0
   21.2052    7.9292   -5.0455 O   0  0  0  0  0  0  0  0  0  0  0  0
   18.7712    8.2818   -4.5488 O   0  0  0  0  0  0  0  0  0  0  0  0
   19.7141    6.2730   -0.6614 C   0  0  0  0  0  0  0  0  0  0  0  0
   18.8443    6.0768    0.4232 C   0  0  0  0  0  0  0  0  0  0  0  0
   14.5463    5.1082    2.2439 N   0  0  0  0  0  0  0  0  0  0  0  0
   10.2560    3.6928    4.0930 C   0  0  0  0  0  0  0  0  0  0  0  0
    8.8824    3.4303    3.9011 C   0  0  0  0  0  0  0  0  0  0  0  0
    1.3187    5.5697    0.9929 H   0  0  0  0  0  0  0  0  0  0  0  0
    1.5523    4.8942   -0.6334 H   0  0  0  0  0  0  0  0  0  0  0  0
    2.9395    5.3439    0.3850 H   0  0  0  0  0  0  0  0  0  0  0  0
   -0.0383    3.7363    1.6688 H   0  0  0  0  0  0  0  0  0  0  0  0
    0.5532    2.0835    1.5785 H   0  0  0  0  0  0  0  0  0  0  0  0
    0.1140    2.9452    0.0871 H   0  0  0  0  0  0  0  0  0  0  0  0
    2.3472    2.5336   -0.8444 H   0  0  0  0  0  0  0  0  0  0  0  0
    2.6973    1.6130    0.6203 H   0  0  0  0  0  0  0  0  0  0  0  0
    4.3767    3.9340   -0.4586 H   0  0  0  0  0  0  0  0  0  0  0  0
    4.7555    2.2217   -0.5599 H   0  0  0  0  0  0  0  0  0  0  0  0
    4.4158    3.4202    2.0998 H   0  0  0  0  0  0  0  0  0  0  0  0
    6.4175    2.9410    3.2413 H   0  0  0  0  0  0  0  0  0  0  0  0
    8.5152    4.9374    0.8847 H   0  0  0  0  0  0  0  0  0  0  0  0
   10.8513    5.3819    1.2208 H   0  0  0  0  0  0  0  0  0  0  0  0
   12.3021    4.8831    5.3361 H   0  0  0  0  0  0  0  0  0  0  0  0
   13.5957    5.7337    4.5230 H   0  0  0  0  0  0  0  0  0  0  0  0
   13.7097    3.9744    4.7744 H   0  0  0  0  0  0  0  0  0  0  0  0
   12.1869    3.0263    1.0280 H   0  0  0  0  0  0  0  0  0  0  0  0
   13.9088    2.8784   -0.7459 H   0  0  0  0  0  0  0  0  0  0  0  0
   16.6786    6.2358    2.1469 H   0  0  0  0  0  0  0  0  0  0  0  0
   15.8976    6.3506   -1.2279 H   0  0  0  0  0  0  0  0  0  0  0  0
   17.3878    6.6999   -3.1110 H   0  0  0  0  0  0  0  0  0  0  0  0
   19.8858    5.6820   -3.8233 H   0  0  0  0  0  0  0  0  0  0  0  0
   21.1885    6.3449   -2.8268 H   0  0  0  0  0  0  0  0  0  0  0  0
   21.5239    9.0263   -2.4743 H   0  0  0  0  0  0  0  0  0  0  0  0
   19.7855    9.3798   -2.1704 H   0  0  0  0  0  0  0  0  0  0  0  0
   20.6600   10.2203   -3.4820 H   0  0  0  0  0  0  0  0  0  0  0  0
   20.7852    6.1870   -0.4875 H   0  0  0  0  0  0  0  0  0  0  0  0
   19.2622    5.8457    1.4004 H   0  0  0  0  0  0  0  0  0  0  0  0
   10.7262    3.3097    4.9948 H   0  0  0  0  0  0  0  0  0  0  0  0
    8.3482    2.8743    4.6666 H   0  0  0  0  0  0  0  0  0  0  0  0
  1  2  1  0  0  0  0
  1 36  1  0  0  0  0
  1 37  1  0  0  0  0
  1 38  1  0  0  0  0
  2  3  1  0  0  0  0
  2  4  1  0  0  0  0
  3 39  1  0  0  0  0
  3 40  1  0  0  0  0
  3 41  1  0  0  0  0
  4  5  1  0  0  0  0
  4 42  1  0  0  0  0
  4 43  1  0  0  0  0
  5  6  1  0  0  0  0
  5 44  1  0  0  0  0
  5 45  1  0  0  0  0
  6  7  1  0  0  0  0
  6 46  1  0  0  0  0
  7  8  2  0  0  0  0
  7  9  1  0  0  0  0
  9 10  1  0  0  0  0
  9 47  1  0  0  0  0
 10 11  1  0  0  0  0
 10 35  2  0  0  0  0
 11 12  2  0  0  0  0
 11 48  1  0  0  0  0
 12 13  1  0  0  0  0
 12 49  1  0  0  0  0
 13 14  1  0  0  0  0
 13 34  2  0  0  0  0
 14 15  1  0  0  0  0
 14 16  1  0  0  0  0
 15 50  1  0  0  0  0
 15 51  1  0  0  0  0
 15 52  1  0  0  0  0
 16 17  1  0  0  0  0
 16 33  2  0  0  0  0
 17 18  2  0  0  0  0
 17 53  1  0  0  0  0
 18 19  1  0  0  0  0
 18 54  1  0  0  0  0
 19 20  2  0  0  0  0
 20 21  1  0  0  0  0
 20 33  1  0  0  0  0
 21 22  1  0  0  0  0
 21 55  1  0  0  0  0
 22 23  1  0  0  0  0
 22 32  2  0  0  0  0
 23 24  2  0  0  0  0
 23 56  1  0  0  0  0
 24 25  1  0  0  0  0
 24 57  1  0  0  0  0
 25 26  1  0  0  0  0
 25 31  2  0  0  0  0
 26 27  1  0  0  0  0
 26 58  1  0  0  0  0
 26 59  1  0  0  0  0
 27 28  1  0  0  0  0
 27 29  2  0  0  0  0
 27 30  2  0  0  0  0
 28 60  1  0  0  0  0
 28 61  1  0  0  0  0
 28 62  1  0  0  0  0
 31 32  1  0  0  0  0
 31 63  1  0  0  0  0
 32 64  1  0  0  0  0
 34 35  1  0  0  0  0
 34 65  1  0  0  0  0
 35 66  1  0  0  0  0
M  END
$$$$
