CHEMBL4636935
 OpenBabel04072215383D

 65 68  0  0  0  0  0  0  0  0999 V2000
    5.5605    1.6215   -4.9386 C   0  0  0  0  0  0  0  0  0  0  0  0
    5.8434    0.2026   -5.4095 C   0  0  0  0  0  0  0  0  0  0  0  0
    6.1406   -0.6448   -4.2453 N   0  0  0  0  0  0  0  0  0  0  0  0
    6.6604   -2.2255   -4.5357 S   0  0  0  0  0  0  0  0  0  0  0  0
    7.3583   -2.2457   -5.8079 O   0  0  0  0  0  0  0  0  0  0  0  0
    7.2944   -2.7031   -3.3293 O   0  0  0  0  0  0  0  0  0  0  0  0
    5.1603   -3.1778   -4.7120 C   0  0  0  0  0  0  0  0  0  0  0  0
    4.8805   -3.7147   -5.9819 C   0  0  0  0  0  0  0  0  0  0  0  0
    3.8215   -4.6051   -6.1558 C   0  0  0  0  0  0  0  0  0  0  0  0
    3.0509   -4.9781   -5.0638 C   0  0  0  0  0  0  0  0  0  0  0  0
    3.3231   -4.4381   -3.8058 C   0  0  0  0  0  0  0  0  0  0  0  0
    4.3581   -3.5036   -3.5990 C   0  0  0  0  0  0  0  0  0  0  0  0
    4.5851   -2.9896   -2.3000 N   0  0  0  0  0  0  0  0  0  0  0  0
    3.6250   -2.8593   -1.2795 C   0  0  0  0  0  0  0  0  0  0  0  0
    2.3698   -2.5605   -1.5946 N   0  0  0  0  0  0  0  0  0  0  0  0
    1.5296   -2.4674   -0.5721 C   0  0  0  0  0  0  0  0  0  0  0  0
    1.8328   -2.6292    0.7096 N   0  0  0  0  0  0  0  0  0  0  0  0
    3.1022   -2.9322    0.9329 C   0  0  0  0  0  0  0  0  0  0  0  0
    3.4714   -3.1412    2.2673 N   0  0  0  0  0  0  0  0  0  0  0  0
    4.5073   -3.9729    2.7084 C   0  0  0  0  0  0  0  0  0  0  0  0
    5.2565   -3.6423    3.8254 C   0  0  0  0  0  0  0  0  0  0  0  0
    6.4057   -4.3798    4.1267 C   0  0  0  0  0  0  0  0  0  0  0  0
    6.8707   -5.4501    3.3214 C   0  0  0  0  0  0  0  0  0  0  0  0
    8.0777   -6.0447    3.7074 N   0  0  0  0  0  0  0  0  0  0  0  0
    8.4382   -7.3957    3.2417 C   0  0  0  0  0  0  0  0  0  0  0  0
    9.5831   -7.9600    4.1278 C   0  0  0  0  0  0  0  0  0  0  0  0
   10.7741   -7.0767    4.1597 N   0  0  0  0  0  0  0  0  0  0  0  0
   11.8142   -7.6241    5.0239 C   0  0  0  0  0  0  0  0  0  0  0  0
   10.3555   -5.7364    4.6251 C   0  0  0  0  0  0  0  0  0  0  0  0
    9.2488   -5.1349    3.7293 C   0  0  0  0  0  0  0  0  0  0  0  0
    6.0525   -5.8218    2.2340 C   0  0  0  0  0  0  0  0  0  0  0  0
    6.4527   -6.8360    1.3935 O   0  0  0  0  0  0  0  0  0  0  0  0
    5.8395   -6.8634    0.1028 C   0  0  0  0  0  0  0  0  0  0  0  0
    4.8627   -5.1184    1.9915 C   0  0  0  0  0  0  0  0  0  0  0  0
    4.0253   -3.0499   -0.0310 N   0  0  0  0  0  0  0  0  0  0  0  0
    5.3072    2.2635   -5.7895 H   0  0  0  0  0  0  0  0  0  0  0  0
    6.4350    2.0551   -4.4397 H   0  0  0  0  0  0  0  0  0  0  0  0
    4.7261    1.6472   -4.2310 H   0  0  0  0  0  0  0  0  0  0  0  0
    6.7032    0.2344   -6.0876 H   0  0  0  0  0  0  0  0  0  0  0  0
    4.9749   -0.1881   -5.9453 H   0  0  0  0  0  0  0  0  0  0  0  0
    5.4310   -0.6355   -3.5119 H   0  0  0  0  0  0  0  0  0  0  0  0
    5.5053   -3.4737   -6.8401 H   0  0  0  0  0  0  0  0  0  0  0  0
    3.6163   -5.0265   -7.1366 H   0  0  0  0  0  0  0  0  0  0  0  0
    2.2423   -5.6968   -5.1804 H   0  0  0  0  0  0  0  0  0  0  0  0
    2.7111   -4.7761   -2.9706 H   0  0  0  0  0  0  0  0  0  0  0  0
    5.4502   -3.3339   -1.8809 H   0  0  0  0  0  0  0  0  0  0  0  0
    0.4950   -2.2462   -0.8088 H   0  0  0  0  0  0  0  0  0  0  0  0
    2.7004   -3.0028    2.9060 H   0  0  0  0  0  0  0  0  0  0  0  0
    5.0008   -2.7818    4.4357 H   0  0  0  0  0  0  0  0  0  0  0  0
    6.9749   -4.0936    5.0096 H   0  0  0  0  0  0  0  0  0  0  0  0
    8.7731   -7.3722    2.1968 H   0  0  0  0  0  0  0  0  0  0  0  0
    7.5833   -8.0762    3.3278 H   0  0  0  0  0  0  0  0  0  0  0  0
    9.8679   -8.9454    3.7410 H   0  0  0  0  0  0  0  0  0  0  0  0
    9.1981   -8.1051    5.1468 H   0  0  0  0  0  0  0  0  0  0  0  0
   12.1323   -8.6087    4.6655 H   0  0  0  0  0  0  0  0  0  0  0  0
   11.4895   -7.7205    6.0650 H   0  0  0  0  0  0  0  0  0  0  0  0
   12.7032   -6.9826    5.0013 H   0  0  0  0  0  0  0  0  0  0  0  0
   11.2150   -5.0555    4.6229 H   0  0  0  0  0  0  0  0  0  0  0  0
    9.9838   -5.7912    5.6584 H   0  0  0  0  0  0  0  0  0  0  0  0
    9.6300   -4.9909    2.7094 H   0  0  0  0  0  0  0  0  0  0  0  0
    9.0050   -4.1427    4.1246 H   0  0  0  0  0  0  0  0  0  0  0  0
    6.4660   -7.4606   -0.5640 H   0  0  0  0  0  0  0  0  0  0  0  0
    5.7577   -5.8648   -0.3454 H   0  0  0  0  0  0  0  0  0  0  0  0
    4.8555   -7.3431    0.1595 H   0  0  0  0  0  0  0  0  0  0  0  0
    4.1944   -5.4318    1.1969 H   0  0  0  0  0  0  0  0  0  0  0  0
  1  2  1  0  0  0  0
  1 36  1  0  0  0  0
  1 37  1  0  0  0  0
  1 38  1  0  0  0  0
  2  3  1  0  0  0  0
  2 39  1  0  0  0  0
  2 40  1  0  0  0  0
  3  4  1  0  0  0  0
  3 41  1  0  0  0  0
  4  5  2  0  0  0  0
  4  6  2  0  0  0  0
  4  7  1  0  0  0  0
  7  8  1  0  0  0  0
  7 12  2  0  0  0  0
  8  9  2  0  0  0  0
  8 42  1  0  0  0  0
  9 10  1  0  0  0  0
  9 43  1  0  0  0  0
 10 11  2  0  0  0  0
 10 44  1  0  0  0  0
 11 12  1  0  0  0  0
 11 45  1  0  0  0  0
 12 13  1  0  0  0  0
 13 14  1  0  0  0  0
 13 46  1  0  0  0  0
 14 15  1  0  0  0  0
 14 35  2  0  0  0  0
 15 16  2  0  0  0  0
 16 17  1  0  0  0  0
 16 47  1  0  0  0  0
 17 18  2  0  0  0  0
 18 19  1  0  0  0  0
 18 35  1  0  0  0  0
 19 20  1  0  0  0  0
 19 48  1  0  0  0  0
 20 21  1  0  0  0  0
 20 34  2  0  0  0  0
 21 22  2  0  0  0  0
 21 49  1  0  0  0  0
 22 23  1  0  0  0  0
 22 50  1  0  0  0  0
 23 24  1  0  0  0  0
 23 31  2  0  0  0  0
 24 25  1  0  0  0  0
 24 30  1  0  0  0  0
 25 26  1  0  0  0  0
 25 51  1  0  0  0  0
 25 52  1  0  0  0  0
 26 27  1  0  0  0  0
 26 53  1  0  0  0  0
 26 54  1  0  0  0  0
 27 28  1  0  0  0  0
 27 29  1  0  0  0  0
 28 55  1  0  0  0  0
 28 56  1  0  0  0  0
 28 57  1  0  0  0  0
 29 30  1  0  0  0  0
 29 58  1  0  0  0  0
 29 59  1  0  0  0  0
 30 60  1  0  0  0  0
 30 61  1  0  0  0  0
 31 32  1  0  0  0  0
 31 34  1  0  0  0  0
 32 33  1  0  0  0  0
 33 62  1  0  0  0  0
 33 63  1  0  0  0  0
 33 64  1  0  0  0  0
 34 65  1  0  0  0  0
M  END
$$$$
