CHEMBL3671501
 OpenBabel04072215373D

 50 52  0  0  0  0  0  0  0  0999 V2000
    3.5466    3.1751    2.2572 C   0  0  0  0  0  0  0  0  0  0  0  0
    3.5755    1.8422    2.3765 C   0  0  0  0  0  0  0  0  0  0  0  0
    3.7488    1.0084    1.1576 C   0  0  0  0  0  0  0  0  0  0  0  0
    3.3294    1.3599    0.0611 O   0  0  0  0  0  0  0  0  0  0  0  0
    4.4458   -0.1701    1.2919 N   0  0  0  0  0  0  0  0  0  0  0  0
    5.2853   -0.4408    2.3877 C   0  0  0  0  0  0  0  0  0  0  0  0
    6.4126    0.3638    2.5655 C   0  0  0  0  0  0  0  0  0  0  0  0
    7.1285    0.3274    3.7800 C   0  0  0  0  0  0  0  0  0  0  0  0
    8.1753    1.2002    4.1152 C   0  0  0  0  0  0  0  0  0  0  0  0
    8.5461    2.2436    3.2242 N   0  0  0  0  0  0  0  0  0  0  0  0
    9.2930    3.3805    3.6184 C   0  0  0  0  0  0  0  0  0  0  0  0
    8.9942    4.0639    4.8063 C   0  0  0  0  0  0  0  0  0  0  0  0
    9.7960    5.1175    5.2479 C   0  0  0  0  0  0  0  0  0  0  0  0
   10.8937    5.5124    4.4867 C   0  0  0  0  0  0  0  0  0  0  0  0
   12.0260    6.8822    5.1290 Br  0  0  0  0  0  0  0  0  0  0  0  0
   11.1716    4.8938    3.2703 C   0  0  0  0  0  0  0  0  0  0  0  0
   10.3636    3.8425    2.8436 C   0  0  0  0  0  0  0  0  0  0  0  0
   10.6458    3.2341    1.6805 F   0  0  0  0  0  0  0  0  0  0  0  0
    8.8029    1.1254    5.3037 N   0  0  0  0  0  0  0  0  0  0  0  0
    8.3749    0.2017    6.1637 C   0  0  0  0  0  0  0  0  0  0  0  0
    7.3635   -0.6462    5.9639 N   0  0  0  0  0  0  0  0  0  0  0  0
    6.7427   -0.5722    4.7853 C   0  0  0  0  0  0  0  0  0  0  0  0
    5.6496   -1.4010    4.5617 C   0  0  0  0  0  0  0  0  0  0  0  0
    4.9222   -1.3695    3.3692 C   0  0  0  0  0  0  0  0  0  0  0  0
    3.8609   -2.2397    3.3210 O   0  0  0  0  0  0  0  0  0  0  0  0
    3.5599   -2.7635    2.0241 C   0  0  0  0  0  0  0  0  0  0  0  0
    3.0283   -4.1951    2.1351 C   0  0  0  0  0  0  0  0  0  0  0  0
    2.8005   -4.7864    0.8247 N   0  0  0  0  0  0  0  0  0  0  0  0
    3.8559   -5.2781    0.0567 C   0  0  0  0  0  0  0  0  0  0  0  0
    5.0016   -5.3386    0.5065 O   0  0  0  0  0  0  0  0  0  0  0  0
    3.4796   -5.7084   -1.3803 C   0  0  0  0  0  0  0  0  0  0  0  0
    2.1805   -5.4037   -1.6738 F   0  0  0  0  0  0  0  0  0  0  0  0
    4.2376   -5.0841   -2.3226 F   0  0  0  0  0  0  0  0  0  0  0  0
    3.6160   -7.0457   -1.5832 F   0  0  0  0  0  0  0  0  0  0  0  0
    3.4875    3.8113    3.1328 H   0  0  0  0  0  0  0  0  0  0  0  0
    3.6027    3.6571    1.2855 H   0  0  0  0  0  0  0  0  0  0  0  0
    3.5406    1.3629    3.3470 H   0  0  0  0  0  0  0  0  0  0  0  0
    4.7938   -0.4484    0.3795 H   0  0  0  0  0  0  0  0  0  0  0  0
    6.6839    1.0805    1.7932 H   0  0  0  0  0  0  0  0  0  0  0  0
    8.8756    1.8642    2.3399 H   0  0  0  0  0  0  0  0  0  0  0  0
    8.1471    3.7530    5.4138 H   0  0  0  0  0  0  0  0  0  0  0  0
    9.5652    5.6003    6.1939 H   0  0  0  0  0  0  0  0  0  0  0  0
   12.0163    5.1982    2.6621 H   0  0  0  0  0  0  0  0  0  0  0  0
    8.8882    0.1466    7.1168 H   0  0  0  0  0  0  0  0  0  0  0  0
    5.3384   -2.0770    5.3552 H   0  0  0  0  0  0  0  0  0  0  0  0
    4.4473   -2.7774    1.3798 H   0  0  0  0  0  0  0  0  0  0  0  0
    2.7869   -2.1379    1.5620 H   0  0  0  0  0  0  0  0  0  0  0  0
    2.0805   -4.2135    2.6831 H   0  0  0  0  0  0  0  0  0  0  0  0
    3.7382   -4.8164    2.6924 H   0  0  0  0  0  0  0  0  0  0  0  0
    1.8978   -4.6573    0.3744 H   0  0  0  0  0  0  0  0  0  0  0  0
  1  2  2  0  0  0  0
  1 35  1  0  0  0  0
  1 36  1  0  0  0  0
  2  3  1  0  0  0  0
  2 37  1  0  0  0  0
  3  4  2  0  0  0  0
  3  5  1  0  0  0  0
  5  6  1  0  0  0  0
  5 38  1  0  0  0  0
  6  7  1  0  0  0  0
  6 24  2  0  0  0  0
  7  8  2  0  0  0  0
  7 39  1  0  0  0  0
  8  9  1  0  0  0  0
  8 22  1  0  0  0  0
  9 10  1  0  0  0  0
  9 19  2  0  0  0  0
 10 11  1  0  0  0  0
 10 40  1  0  0  0  0
 11 12  1  0  0  0  0
 11 17  2  0  0  0  0
 12 13  2  0  0  0  0
 12 41  1  0  0  0  0
 13 14  1  0  0  0  0
 13 42  1  0  0  0  0
 14 15  1  0  0  0  0
 14 16  2  0  0  0  0
 16 17  1  0  0  0  0
 16 43  1  0  0  0  0
 17 18  1  0  0  0  0
 19 20  1  0  0  0  0
 20 21  2  0  0  0  0
 20 44  1  0  0  0  0
 21 22  1  0  0  0  0
 22 23  2  0  0  0  0
 23 24  1  0  0  0  0
 23 45  1  0  0  0  0
 24 25  1  0  0  0  0
 25 26  1  0  0  0  0
 26 27  1  0  0  0  0
 26 46  1  0  0  0  0
 26 47  1  0  0  0  0
 27 28  1  0  0  0  0
 27 48  1  0  0  0  0
 27 49  1  0  0  0  0
 28 29  1  0  0  0  0
 28 50  1  0  0  0  0
 29 30  2  0  0  0  0
 29 31  1  0  0  0  0
 31 32  1  0  0  0  0
 31 33  1  0  0  0  0
 31 34  1  0  0  0  0
M  END
$$$$
