CHEMBL522785
 OpenBabel04072215383D

 60 65  0  0  0  0  0  0  0  0999 V2000
    3.4535   -0.3728    1.0438 C   0  0  0  0  0  0  0  0  0  0  0  0
    2.5594    0.2376    0.1065 O   0  0  0  0  0  0  0  0  0  0  0  0
    3.1455    0.7237   -1.0328 C   0  0  0  0  0  0  0  0  0  0  0  0
    4.2840    0.1091   -1.5808 C   0  0  0  0  0  0  0  0  0  0  0  0
    4.9873    0.6595   -2.6434 C   0  0  0  0  0  0  0  0  0  0  0  0
    6.1044    0.0551   -3.0436 N   0  0  0  0  0  0  0  0  0  0  0  0
    6.7952    0.6194   -4.0391 C   0  0  0  0  0  0  0  0  0  0  0  0
    7.8770   -0.1176   -4.5243 N   0  0  0  0  0  0  0  0  0  0  0  0
    8.4245   -0.0637   -5.7525 C   0  0  0  0  0  0  0  0  0  0  0  0
    8.3769    1.0335   -6.6376 C   0  0  0  0  0  0  0  0  0  0  0  0
    8.9362    0.5947   -7.8130 C   0  0  0  0  0  0  0  0  0  0  0  0
    9.0781    1.2571   -9.1237 C   0  0  0  0  0  0  0  0  0  0  0  0
    9.3441   -0.6822   -7.5566 N   0  0  0  0  0  0  0  0  0  0  0  0
    9.0586   -1.1023   -6.3109 N   0  0  0  0  0  0  0  0  0  0  0  0
    6.4526    1.7845   -4.6006 N   0  0  0  0  0  0  0  0  0  0  0  0
    5.3140    2.3809   -4.2258 C   0  0  0  0  0  0  0  0  0  0  0  0
    4.9189    3.5846   -4.8745 N   0  0  0  0  0  0  0  0  0  0  0  0
    5.7496    4.4631   -5.6117 C   0  0  0  0  0  0  0  0  0  0  0  0
    5.2652    5.0781   -6.7692 C   0  0  0  0  0  0  0  0  0  0  0  0
    6.0763    5.9418   -7.5089 C   0  0  0  0  0  0  0  0  0  0  0  0
    7.3693    6.2449   -7.0708 C   0  0  0  0  0  0  0  0  0  0  0  0
    7.8679    5.7097   -5.8741 C   0  0  0  0  0  0  0  0  0  0  0  0
    9.2243    6.0927   -5.4052 C   0  0  0  0  0  0  0  0  0  0  0  0
   10.0049    6.9923   -5.9756 N   0  0  0  0  0  0  0  0  0  0  0  0
   11.2524    7.0299   -5.3481 C   0  0  0  0  0  0  0  0  0  0  0  0
   12.3610    7.8301   -5.7011 C   0  0  0  0  0  0  0  0  0  0  0  0
   13.5789    7.6792   -5.0175 C   0  0  0  0  0  0  0  0  0  0  0  0
   13.6950    6.7628   -3.9769 C   0  0  0  0  0  0  0  0  0  0  0  0
   12.6019    6.0026   -3.5746 C   0  0  0  0  0  0  0  0  0  0  0  0
   11.3936    6.1496   -4.2774 C   0  0  0  0  0  0  0  0  0  0  0  0
    9.9105    5.3408   -4.0133 S   0  0  0  0  0  0  0  0  0  0  0  0
    7.0366    4.8107   -5.1673 C   0  0  0  0  0  0  0  0  0  0  0  0
    4.5026    1.8251   -3.2326 C   0  0  0  0  0  0  0  0  0  0  0  0
    3.2809    2.3741   -2.7803 C   0  0  0  0  0  0  0  0  0  0  0  0
    2.6033    1.8381   -1.6801 C   0  0  0  0  0  0  0  0  0  0  0  0
    1.4737    2.5515   -1.3958 O   0  0  0  0  0  0  0  0  0  0  0  0
    0.8120    2.3485   -0.1607 C   0  0  0  0  0  0  0  0  0  0  0  0
    3.1116   -0.1257    2.0531 H   0  0  0  0  0  0  0  0  0  0  0  0
    4.4875   -0.0151    0.9652 H   0  0  0  0  0  0  0  0  0  0  0  0
    3.4201   -1.4600    0.9227 H   0  0  0  0  0  0  0  0  0  0  0  0
    4.6686   -0.8168   -1.1609 H   0  0  0  0  0  0  0  0  0  0  0  0
    7.9037   -1.0084   -4.0504 H   0  0  0  0  0  0  0  0  0  0  0  0
    7.9427    2.0107   -6.4722 H   0  0  0  0  0  0  0  0  0  0  0  0
    8.7506    2.2999   -9.0642 H   0  0  0  0  0  0  0  0  0  0  0  0
    8.4569    0.7557   -9.8744 H   0  0  0  0  0  0  0  0  0  0  0  0
   10.1183    1.2435   -9.4603 H   0  0  0  0  0  0  0  0  0  0  0  0
    9.8016   -1.3319   -8.1870 H   0  0  0  0  0  0  0  0  0  0  0  0
    4.0331    3.4174   -5.3414 H   0  0  0  0  0  0  0  0  0  0  0  0
    4.2561    4.8781   -7.1192 H   0  0  0  0  0  0  0  0  0  0  0  0
    5.6988    6.3824   -8.4284 H   0  0  0  0  0  0  0  0  0  0  0  0
    7.9876    6.9120   -7.6702 H   0  0  0  0  0  0  0  0  0  0  0  0
   12.2772    8.5457   -6.5134 H   0  0  0  0  0  0  0  0  0  0  0  0
   14.4419    8.2734   -5.3101 H   0  0  0  0  0  0  0  0  0  0  0  0
   14.6508    6.6323   -3.4696 H   0  0  0  0  0  0  0  0  0  0  0  0
   12.6791    5.2940   -2.7556 H   0  0  0  0  0  0  0  0  0  0  0  0
    7.3762    4.3666   -4.2351 H   0  0  0  0  0  0  0  0  0  0  0  0
    2.8686    3.2542   -3.2630 H   0  0  0  0  0  0  0  0  0  0  0  0
    0.1097    3.1794   -0.0349 H   0  0  0  0  0  0  0  0  0  0  0  0
    1.5015    2.3848    0.6868 H   0  0  0  0  0  0  0  0  0  0  0  0
    0.2290    1.4227   -0.1796 H   0  0  0  0  0  0  0  0  0  0  0  0
  1  2  1  0  0  0  0
  1 38  1  0  0  0  0
  1 39  1  0  0  0  0
  1 40  1  0  0  0  0
  2  3  1  0  0  0  0
  3  4  1  0  0  0  0
  3 35  2  0  0  0  0
  4  5  2  0  0  0  0
  4 41  1  0  0  0  0
  5  6  1  0  0  0  0
  5 33  1  0  0  0  0
  6  7  2  0  0  0  0
  7  8  1  0  0  0  0
  7 15  1  0  0  0  0
  8  9  1  0  0  0  0
  8 42  1  0  0  0  0
  9 10  1  0  0  0  0
  9 14  2  0  0  0  0
 10 11  2  0  0  0  0
 10 43  1  0  0  0  0
 11 12  1  0  0  0  0
 11 13  1  0  0  0  0
 12 44  1  0  0  0  0
 12 45  1  0  0  0  0
 12 46  1  0  0  0  0
 13 14  1  0  0  0  0
 13 47  1  0  0  0  0
 15 16  2  0  0  0  0
 16 17  1  0  0  0  0
 16 33  1  0  0  0  0
 17 18  1  0  0  0  0
 17 48  1  0  0  0  0
 18 19  1  0  0  0  0
 18 32  2  0  0  0  0
 19 20  2  0  0  0  0
 19 49  1  0  0  0  0
 20 21  1  0  0  0  0
 20 50  1  0  0  0  0
 21 22  2  0  0  0  0
 21 51  1  0  0  0  0
 22 23  1  0  0  0  0
 22 32  1  0  0  0  0
 23 24  2  0  0  0  0
 23 31  1  0  0  0  0
 24 25  1  0  0  0  0
 25 26  1  0  0  0  0
 25 30  2  0  0  0  0
 26 27  2  0  0  0  0
 26 52  1  0  0  0  0
 27 28  1  0  0  0  0
 27 53  1  0  0  0  0
 28 29  2  0  0  0  0
 28 54  1  0  0  0  0
 29 30  1  0  0  0  0
 29 55  1  0  0  0  0
 30 31  1  0  0  0  0
 32 56  1  0  0  0  0
 33 34  2  0  0  0  0
 34 35  1  0  0  0  0
 34 57  1  0  0  0  0
 35 36  1  0  0  0  0
 36 37  1  0  0  0  0
 37 58  1  0  0  0  0
 37 59  1  0  0  0  0
 37 60  1  0  0  0  0
M  END
$$$$
