CHEMBL3910102
 OpenBabel04072215373D

 62 66  0  0  1  0  0  0  0  0999 V2000
    1.2195    0.4894    0.1652 C   0  0  0  0  0  0  0  0  0  0  0  0
    2.6329    0.4402    0.0222 O   0  0  0  0  0  0  0  0  0  0  0  0
    3.1315    0.1862   -1.2225 C   0  0  0  0  0  0  0  0  0  0  0  0
    4.2373   -0.6855   -1.2116 C   0  0  0  0  0  0  0  0  0  0  0  0
    4.9570   -0.9928   -2.3959 C   0  0  0  0  0  0  0  0  0  0  0  0
    6.0750   -1.8347   -2.5156 C   0  0  0  0  0  0  0  0  0  0  0  0
    6.5276   -2.5443   -1.3767 N   0  0  0  0  0  0  0  0  0  0  0  0
    7.7864   -3.1768   -1.3201 C   0  0  0  0  0  0  0  0  0  0  0  0
    8.9426   -2.4746   -1.6905 C   0  0  0  0  0  0  0  0  0  0  0  0
   10.1834   -3.1072   -1.7215 C   0  0  0  0  0  0  0  0  0  0  0  0
   10.2853   -4.4518   -1.3740 C   0  0  0  0  0  0  0  0  0  0  0  0
   11.8429   -5.1886   -1.4766 Cl  0  0  0  0  0  0  0  0  0  0  0  0
    9.1424   -5.1561   -0.9737 C   0  0  0  0  0  0  0  0  0  0  0  0
    9.1948   -6.8254   -0.5306 Cl  0  0  0  0  0  0  0  0  0  0  0  0
    7.8983   -4.5158   -0.9405 C   0  0  0  0  0  0  0  0  0  0  0  0
    6.7329   -1.9979   -3.6840 N   0  0  0  0  0  0  0  0  0  0  0  0
    6.2716   -1.3477   -4.7482 C   0  0  0  0  0  0  0  0  0  0  0  0
    5.2010   -0.5644   -4.7584 N   0  0  0  0  0  0  0  0  0  0  0  0
    4.5776   -0.3982   -3.5923 C   0  0  0  0  0  0  0  0  0  0  0  0
    3.4873    0.4324   -3.5873 C   0  0  0  0  0  0  0  0  0  0  0  0
    2.7493    0.7678   -2.4349 C   0  0  0  0  0  0  0  0  0  0  0  0
    1.7137    1.6869   -2.4893 O   0  0  0  0  0  0  0  0  0  0  0  0
    1.5176    2.2020   -3.8157 C   0  0  0  0  0  0  0  0  0  0  0  0
    0.4916    3.3031   -3.9620 C   0  0  3  0  0  0  0  0  0  0  0  0
   -0.9171    2.8769   -3.5216 C   0  0  0  0  0  0  0  0  0  0  0  0
   -1.8952    3.9823   -3.6982 N   0  0  0  0  0  0  0  0  0  0  0  0
   -1.5586    5.0890   -2.7800 C   0  0  0  0  0  0  0  0  0  0  0  0
   -2.4950    6.2679   -2.8535 C   0  0  0  0  0  0  0  0  0  0  0  0
   -3.8570    6.1157   -2.5664 C   0  0  0  0  0  0  0  0  0  0  0  0
   -4.7135    7.2128   -2.6594 C   0  0  0  0  0  0  0  0  0  0  0  0
   -4.2058    8.4542   -3.0312 C   0  0  0  0  0  0  0  0  0  0  0  0
   -5.0346    9.5005   -3.1333 F   0  0  0  0  0  0  0  0  0  0  0  0
   -2.8553    8.6255   -3.3025 C   0  0  0  0  0  0  0  0  0  0  0  0
   -1.9972    7.5331   -3.2117 C   0  0  0  0  0  0  0  0  0  0  0  0
   -1.8548    4.3787   -5.1274 C   0  0  0  0  0  0  0  0  0  0  0  0
   -0.4475    4.6955   -5.6588 C   0  0  0  0  0  0  0  0  0  0  0  0
    0.4867    3.6546   -5.3640 O   0  0  0  0  0  0  0  0  0  0  0  0
    0.9382   -0.2339    0.9399 H   0  0  0  0  0  0  0  0  0  0  0  0
    0.6589    0.2397   -0.7385 H   0  0  0  0  0  0  0  0  0  0  0  0
    0.9401    1.4835    0.5260 H   0  0  0  0  0  0  0  0  0  0  0  0
    4.5584   -1.1015   -0.2588 H   0  0  0  0  0  0  0  0  0  0  0  0
    5.7703   -3.1242   -1.0265 H   0  0  0  0  0  0  0  0  0  0  0  0
    8.8694   -1.4289   -1.9849 H   0  0  0  0  0  0  0  0  0  0  0  0
   11.0568   -2.5422   -2.0378 H   0  0  0  0  0  0  0  0  0  0  0  0
    7.0138   -5.0781   -0.6547 H   0  0  0  0  0  0  0  0  0  0  0  0
    6.8076   -1.4636   -5.6836 H   0  0  0  0  0  0  0  0  0  0  0  0
    3.2645    0.8523   -4.5663 H   0  0  0  0  0  0  0  0  0  0  0  0
    1.2324    1.3862   -4.4930 H   0  0  0  0  0  0  0  0  0  0  0  0
    2.4555    2.6620   -4.1606 H   0  0  0  0  0  0  0  0  0  0  0  0
    0.8610    4.1533   -3.3817 H   0  0  0  0  0  0  0  0  0  0  0  0
   -0.9264    2.5236   -2.4851 H   0  0  0  0  0  0  0  0  0  0  0  0
   -1.2510    2.0303   -4.1384 H   0  0  0  0  0  0  0  0  0  0  0  0
   -0.5462    5.4690   -2.9458 H   0  0  0  0  0  0  0  0  0  0  0  0
   -1.5711    4.7175   -1.7468 H   0  0  0  0  0  0  0  0  0  0  0  0
   -4.2492    5.1415   -2.2874 H   0  0  0  0  0  0  0  0  0  0  0  0
   -5.7725    7.1045   -2.4528 H   0  0  0  0  0  0  0  0  0  0  0  0
   -2.4804    9.6028   -3.5866 H   0  0  0  0  0  0  0  0  0  0  0  0
   -0.9397    7.6712   -3.4286 H   0  0  0  0  0  0  0  0  0  0  0  0
   -2.5287    5.2175   -5.3313 H   0  0  0  0  0  0  0  0  0  0  0  0
   -2.2575    3.5372   -5.7083 H   0  0  0  0  0  0  0  0  0  0  0  0
   -0.0635    5.6388   -5.2584 H   0  0  0  0  0  0  0  0  0  0  0  0
   -0.4833    4.7935   -6.7495 H   0  0  0  0  0  0  0  0  0  0  0  0
  1  2  1  0  0  0  0
  1 38  1  0  0  0  0
  1 39  1  0  0  0  0
  1 40  1  0  0  0  0
  2  3  1  0  0  0  0
  3  4  1  0  0  0  0
  3 21  2  0  0  0  0
  4  5  2  0  0  0  0
  4 41  1  0  0  0  0
  5  6  1  0  0  0  0
  5 19  1  0  0  0  0
  6  7  1  0  0  0  0
  6 16  2  0  0  0  0
  7  8  1  0  0  0  0
  7 42  1  0  0  0  0
  8  9  1  0  0  0  0
  8 15  2  0  0  0  0
  9 10  2  0  0  0  0
  9 43  1  0  0  0  0
 10 11  1  0  0  0  0
 10 44  1  0  0  0  0
 11 12  1  0  0  0  0
 11 13  2  0  0  0  0
 13 14  1  0  0  0  0
 13 15  1  0  0  0  0
 15 45  1  0  0  0  0
 16 17  1  0  0  0  0
 17 18  2  0  0  0  0
 17 46  1  0  0  0  0
 18 19  1  0  0  0  0
 19 20  2  0  0  0  0
 20 21  1  0  0  0  0
 20 47  1  0  0  0  0
 21 22  1  0  0  0  0
 22 23  1  0  0  0  0
 23 24  1  0  0  0  0
 23 48  1  0  0  0  0
 23 49  1  0  0  0  0
 24 25  1  0  0  0  0
 24 37  1  0  0  0  0
 24 50  1  0  0  0  0
 25 26  1  0  0  0  0
 25 51  1  0  0  0  0
 25 52  1  0  0  0  0
 26 27  1  0  0  0  0
 26 35  1  0  0  0  0
 27 28  1  0  0  0  0
 27 53  1  0  0  0  0
 27 54  1  0  0  0  0
 28 29  1  0  0  0  0
 28 34  2  0  0  0  0
 29 30  2  0  0  0  0
 29 55  1  0  0  0  0
 30 31  1  0  0  0  0
 30 56  1  0  0  0  0
 31 32  1  0  0  0  0
 31 33  2  0  0  0  0
 33 34  1  0  0  0  0
 33 57  1  0  0  0  0
 34 58  1  0  0  0  0
 35 36  1  0  0  0  0
 35 59  1  0  0  0  0
 35 60  1  0  0  0  0
 36 37  1  0  0  0  0
 36 61  1  0  0  0  0
 36 62  1  0  0  0  0
M  END
$$$$
