CHEMBL1681956
 OpenBabel04072215363D

 37 38  0  0  0  0  0  0  0  0999 V2000
   10.8823   -3.7274    2.2481 C   0  0  0  0  0  0  0  0  0  0  0  0
   10.3062   -2.4276    2.3490 O   0  0  0  0  0  0  0  0  0  0  0  0
    8.9302   -2.5776    2.5434 N   0  0  0  0  0  0  0  0  0  0  0  0
    8.3686   -1.4172    2.6859 C   0  0  0  0  0  0  0  0  0  0  0  0
    6.9297   -1.2969    2.9626 C   0  0  0  0  0  0  0  0  0  0  0  0
    6.2009   -2.3354    3.5347 C   0  0  0  0  0  0  0  0  0  0  0  0
    6.7903   -3.5084    4.0022 N   0  0  0  0  0  0  0  0  0  0  0  0
    4.8801   -2.2575    3.7747 N   0  0  0  0  0  0  0  0  0  0  0  0
    4.2857   -1.1010    3.4753 C   0  0  0  0  0  0  0  0  0  0  0  0
    4.8850   -0.0359    2.9425 N   0  0  0  0  0  0  0  0  0  0  0  0
    6.1985   -0.1712    2.6360 C   0  0  0  0  0  0  0  0  0  0  0  0
    6.7781    0.8431    1.8624 O   0  0  0  0  0  0  0  0  0  0  0  0
    5.8958    1.5492    1.0555 C   0  0  0  0  0  0  0  0  0  0  0  0
    4.9588    0.8719    0.2712 C   0  0  0  0  0  0  0  0  0  0  0  0
    3.9313    1.5668   -0.3698 C   0  0  0  0  0  0  0  0  0  0  0  0
    3.8562    2.9562   -0.3096 C   0  0  0  0  0  0  0  0  0  0  0  0
    2.7698    3.6840   -0.8454 N   0  0  0  0  0  0  0  0  0  0  0  0
    1.7161    3.1622   -1.5889 C   0  0  0  0  0  0  0  0  0  0  0  0
    0.6000    4.1383   -1.8339 C   0  0  0  0  0  0  0  0  0  0  0  0
    1.6399    2.0283   -2.0466 O   0  0  0  0  0  0  0  0  0  0  0  0
    4.8791    3.6466    0.3611 C   0  0  0  0  0  0  0  0  0  0  0  0
    5.8990    2.9457    1.0320 C   0  0  0  0  0  0  0  0  0  0  0  0
    7.1313    3.8493    1.8330 Cl  0  0  0  0  0  0  0  0  0  0  0  0
   11.9572   -3.6223    2.0830 H   0  0  0  0  0  0  0  0  0  0  0  0
   10.4456   -4.2668    1.4018 H   0  0  0  0  0  0  0  0  0  0  0  0
   10.7213   -4.2923    3.1729 H   0  0  0  0  0  0  0  0  0  0  0  0
    8.9589   -0.4835    2.6128 H   0  0  0  0  0  0  0  0  0  0  0  0
    7.5150   -3.8496    3.3706 H   0  0  0  0  0  0  0  0  0  0  0  0
    6.0722   -4.1863    4.2323 H   0  0  0  0  0  0  0  0  0  0  0  0
    3.2200   -1.0279    3.6612 H   0  0  0  0  0  0  0  0  0  0  0  0
    4.9492   -0.2136    0.2262 H   0  0  0  0  0  0  0  0  0  0  0  0
    3.1737    0.9684   -0.8646 H   0  0  0  0  0  0  0  0  0  0  0  0
    2.7496    4.6799   -0.6542 H   0  0  0  0  0  0  0  0  0  0  0  0
    0.5671    4.9239   -1.0743 H   0  0  0  0  0  0  0  0  0  0  0  0
   -0.3564    3.6031   -1.7966 H   0  0  0  0  0  0  0  0  0  0  0  0
    0.7243    4.5863   -2.8254 H   0  0  0  0  0  0  0  0  0  0  0  0
    4.8824    4.7346    0.3817 H   0  0  0  0  0  0  0  0  0  0  0  0
  1  2  1  0  0  0  0
  1 24  1  0  0  0  0
  1 25  1  0  0  0  0
  1 26  1  0  0  0  0
  2  3  1  0  0  0  0
  3  4  2  0  0  0  0
  4  5  1  0  0  0  0
  4 27  1  0  0  0  0
  5  6  1  0  0  0  0
  5 11  2  0  0  0  0
  6  7  1  0  0  0  0
  6  8  2  0  0  0  0
  7 28  1  0  0  0  0
  7 29  1  0  0  0  0
  8  9  1  0  0  0  0
  9 10  2  0  0  0  0
  9 30  1  0  0  0  0
 10 11  1  0  0  0  0
 11 12  1  0  0  0  0
 12 13  1  0  0  0  0
 13 14  1  0  0  0  0
 13 22  2  0  0  0  0
 14 15  2  0  0  0  0
 14 31  1  0  0  0  0
 15 16  1  0  0  0  0
 15 32  1  0  0  0  0
 16 17  1  0  0  0  0
 16 21  2  0  0  0  0
 17 18  1  0  0  0  0
 17 33  1  0  0  0  0
 18 19  1  0  0  0  0
 18 20  2  0  0  0  0
 19 34  1  0  0  0  0
 19 35  1  0  0  0  0
 19 36  1  0  0  0  0
 21 22  1  0  0  0  0
 21 37  1  0  0  0  0
 22 23  1  0  0  0  0
M  END
$$$$
