CHEMBL3930218
 OpenBabel04072215373D

 62 66  0  0  0  0  0  0  0  0999 V2000
    0.9105   -0.1164   -0.0756 C   0  0  0  0  0  0  0  0  0  0  0  0
    2.3716   -0.1359   -0.1817 N   0  0  0  0  0  0  0  0  0  0  0  0
    2.9671    0.9396   -0.9055 C   0  0  0  0  0  0  0  0  0  0  0  0
    4.1348    0.7338   -1.6556 C   0  0  0  0  0  0  0  0  0  0  0  0
    4.8044    1.8028   -2.2605 C   0  0  0  0  0  0  0  0  0  0  0  0
    4.2618    3.0803   -2.1812 C   0  0  0  0  0  0  0  0  0  0  0  0
    3.0494    3.3140   -1.5366 C   0  0  0  0  0  0  0  0  0  0  0  0
    2.4199    4.5831   -1.5377 N   0  0  0  0  0  0  0  0  0  0  0  0
    2.8956    5.7100   -2.1671 C   0  0  0  0  0  0  0  0  0  0  0  0
    3.9201    5.8046   -2.8244 O   0  0  0  0  0  0  0  0  0  0  0  0
    2.0995    6.7815   -1.9119 O   0  0  0  0  0  0  0  0  0  0  0  0
    2.7954    8.0307   -2.0435 C   0  0  0  0  0  0  0  0  0  0  0  0
    2.3107    8.9070   -3.1730 C   0  0  0  0  0  0  0  0  0  0  0  0
    1.2934    9.8460   -2.9550 C   0  0  0  0  0  0  0  0  0  0  0  0
    0.9033   10.7186   -3.9729 C   0  0  0  0  0  0  0  0  0  0  0  0
    1.5237   10.6626   -5.2192 C   0  0  0  0  0  0  0  0  0  0  0  0
    2.5304    9.7265   -5.4515 C   0  0  0  0  0  0  0  0  0  0  0  0
    2.9191    8.8502   -4.4356 C   0  0  0  0  0  0  0  0  0  0  0  0
    2.4327    2.2472   -0.8646 C   0  0  0  0  0  0  0  0  0  0  0  0
    3.0505   -1.0861    0.6424 C   0  0  0  0  0  0  0  0  0  0  0  0
    2.4332   -2.2469    1.1729 C   0  0  0  0  0  0  0  0  0  0  0  0
    3.1529   -3.2409    1.9008 C   0  0  0  0  0  0  0  0  0  0  0  0
    4.5500   -3.1275    1.9652 C   0  0  0  0  0  0  0  0  0  0  0  0
    5.7220   -3.9648    2.1790 C   0  0  0  0  0  0  0  0  0  0  0  0
    6.7755   -3.7552    3.1841 C   0  0  0  0  0  0  0  0  0  0  0  0
    6.7595   -2.7266    4.0579 C   0  0  0  0  0  0  0  0  0  0  0  0
    7.9226   -1.8915    4.4148 C   0  0  0  0  0  0  0  0  0  0  0  0
    8.9468   -1.5771    3.4999 C   0  0  0  0  0  0  0  0  0  0  0  0
    9.9136   -0.6155    3.8111 C   0  0  0  0  0  0  0  0  0  0  0  0
    9.8684    0.0559    5.0297 C   0  0  0  0  0  0  0  0  0  0  0  0
    8.8444   -0.2221    5.9312 C   0  0  0  0  0  0  0  0  0  0  0  0
    7.8798   -1.1844    5.6215 C   0  0  0  0  0  0  0  0  0  0  0  0
    6.2726   -3.9890    0.9389 N   0  0  0  0  0  0  0  0  0  0  0  0
    6.1938   -2.6688    0.6413 N   0  0  0  0  0  0  0  0  0  0  0  0
    5.0913   -2.0840    1.2214 C   0  0  0  0  0  0  0  0  0  0  0  0
    4.4243   -0.9303    0.8651 C   0  0  0  0  0  0  0  0  0  0  0  0
    0.4380    0.6068   -0.7494 H   0  0  0  0  0  0  0  0  0  0  0  0
    0.6166    0.1288    0.9503 H   0  0  0  0  0  0  0  0  0  0  0  0
    0.4737   -1.0799   -0.3621 H   0  0  0  0  0  0  0  0  0  0  0  0
    4.5716   -0.2550   -1.7685 H   0  0  0  0  0  0  0  0  0  0  0  0
    5.7363    1.6512   -2.7962 H   0  0  0  0  0  0  0  0  0  0  0  0
    4.8265    3.8669   -2.6662 H   0  0  0  0  0  0  0  0  0  0  0  0
    1.5555    4.6965   -1.0457 H   0  0  0  0  0  0  0  0  0  0  0  0
    3.8830    7.9118   -2.1277 H   0  0  0  0  0  0  0  0  0  0  0  0
    2.6545    8.5576   -1.0952 H   0  0  0  0  0  0  0  0  0  0  0  0
    0.8138    9.9175   -1.9818 H   0  0  0  0  0  0  0  0  0  0  0  0
    0.1166   11.4470   -3.7910 H   0  0  0  0  0  0  0  0  0  0  0  0
    1.2219   11.3448   -6.0092 H   0  0  0  0  0  0  0  0  0  0  0  0
    3.0162    9.6827   -6.4236 H   0  0  0  0  0  0  0  0  0  0  0  0
    3.7165    8.1336   -4.6292 H   0  0  0  0  0  0  0  0  0  0  0  0
    1.5418    2.4369   -0.2772 H   0  0  0  0  0  0  0  0  0  0  0  0
    1.3910   -2.4654    0.9620 H   0  0  0  0  0  0  0  0  0  0  0  0
    2.6463   -4.1499    2.2143 H   0  0  0  0  0  0  0  0  0  0  0  0
    7.7289   -4.1970    2.9012 H   0  0  0  0  0  0  0  0  0  0  0  0
    5.8043   -2.2788    4.3328 H   0  0  0  0  0  0  0  0  0  0  0  0
    8.9700   -2.0330    2.5142 H   0  0  0  0  0  0  0  0  0  0  0  0
   10.6887   -0.3648    3.0877 H   0  0  0  0  0  0  0  0  0  0  0  0
   10.6142    0.8096    5.2715 H   0  0  0  0  0  0  0  0  0  0  0  0
    8.7721    0.3312    6.8624 H   0  0  0  0  0  0  0  0  0  0  0  0
    7.0607   -1.3520    6.3203 H   0  0  0  0  0  0  0  0  0  0  0  0
    6.7490   -2.3148   -0.1215 H   0  0  0  0  0  0  0  0  0  0  0  0
    4.9790   -0.0837    0.4837 H   0  0  0  0  0  0  0  0  0  0  0  0
  1  2  1  0  0  0  0
  1 37  1  0  0  0  0
  1 38  1  0  0  0  0
  1 39  1  0  0  0  0
  2  3  1  0  0  0  0
  2 20  1  0  0  0  0
  3  4  1  0  0  0  0
  3 19  2  0  0  0  0
  4  5  2  0  0  0  0
  4 40  1  0  0  0  0
  5  6  1  0  0  0  0
  5 41  1  0  0  0  0
  6  7  2  0  0  0  0
  6 42  1  0  0  0  0
  7  8  1  0  0  0  0
  7 19  1  0  0  0  0
  8  9  1  0  0  0  0
  8 43  1  0  0  0  0
  9 10  2  0  0  0  0
  9 11  1  0  0  0  0
 11 12  1  0  0  0  0
 12 13  1  0  0  0  0
 12 44  1  0  0  0  0
 12 45  1  0  0  0  0
 13 14  1  0  0  0  0
 13 18  2  0  0  0  0
 14 15  2  0  0  0  0
 14 46  1  0  0  0  0
 15 16  1  0  0  0  0
 15 47  1  0  0  0  0
 16 17  2  0  0  0  0
 16 48  1  0  0  0  0
 17 18  1  0  0  0  0
 17 49  1  0  0  0  0
 18 50  1  0  0  0  0
 19 51  1  0  0  0  0
 20 21  1  0  0  0  0
 20 36  2  0  0  0  0
 21 22  2  0  0  0  0
 21 52  1  0  0  0  0
 22 23  1  0  0  0  0
 22 53  1  0  0  0  0
 23 24  1  0  0  0  0
 23 35  2  0  0  0  0
 24 25  1  0  0  0  0
 24 33  2  0  0  0  0
 25 26  2  0  0  0  0
 25 54  1  0  0  0  0
 26 27  1  0  0  0  0
 26 55  1  0  0  0  0
 27 28  1  0  0  0  0
 27 32  2  0  0  0  0
 28 29  2  0  0  0  0
 28 56  1  0  0  0  0
 29 30  1  0  0  0  0
 29 57  1  0  0  0  0
 30 31  2  0  0  0  0
 30 58  1  0  0  0  0
 31 32  1  0  0  0  0
 31 59  1  0  0  0  0
 32 60  1  0  0  0  0
 33 34  1  0  0  0  0
 34 35  1  0  0  0  0
 34 61  1  0  0  0  0
 35 36  1  0  0  0  0
 36 62  1  0  0  0  0
M  END
$$$$
