CHEMBL3690407
 OpenBabel04072215373D

 48 51  0  0  0  0  0  0  0  0999 V2000
    5.3437    4.7082   -2.2361 N   0  0  0  0  0  0  0  0  0  0  0  0
    4.2550    4.3093   -1.5005 C   0  0  0  0  0  0  0  0  0  0  0  0
    3.6756    5.1426   -0.8122 O   0  0  0  0  0  0  0  0  0  0  0  0
    3.8884    2.9017   -1.5971 C   0  0  0  0  0  0  0  0  0  0  0  0
    4.8358    1.8106   -2.5396 S   0  0  0  0  0  0  0  0  0  0  0  0
    3.8710    0.4714   -2.1161 C   0  0  0  0  0  0  0  0  0  0  0  0
    2.8317    0.8294   -1.2913 C   0  0  0  0  0  0  0  0  0  0  0  0
    2.8226    2.2335   -1.0081 C   0  0  0  0  0  0  0  0  0  0  0  0
    1.8111    2.8444   -0.1882 C   0  0  0  0  0  0  0  0  0  0  0  0
    1.9776    2.8474    1.2656 C   0  0  0  0  0  0  0  0  0  0  0  0
    0.9890    3.3022    2.0532 C   0  0  0  0  0  0  0  0  0  0  0  0
   -0.1797    3.8232    1.4842 N   0  0  0  0  0  0  0  0  0  0  0  0
   -1.3221    4.3903    2.0599 C   0  0  0  0  0  0  0  0  0  0  0  0
   -1.5502    4.7047    3.4821 C   0  0  0  0  0  0  0  0  0  0  0  0
   -0.4782    5.0762    4.3007 C   0  0  0  0  0  0  0  0  0  0  0  0
   -0.6706    5.3937    5.6372 C   0  0  0  0  0  0  0  0  0  0  0  0
   -1.9565    5.4281    6.1600 C   0  0  0  0  0  0  0  0  0  0  0  0
   -3.0711    5.1572    5.3685 C   0  0  0  0  0  0  0  0  0  0  0  0
   -4.4011    5.3101    5.8520 N   0  0  0  0  0  0  0  0  0  0  0  0
   -4.7457    5.8263    7.0844 C   0  0  0  0  0  0  0  0  0  0  0  0
   -3.9867    6.2259    7.9579 O   0  0  0  0  0  0  0  0  0  0  0  0
   -6.1025    5.8051    7.3279 N   0  0  0  0  0  0  0  0  0  0  0  0
   -6.5689    6.3271    8.6215 C   0  0  0  0  0  0  0  0  0  0  0  0
   -6.6883    7.8548    8.7507 C   0  0  0  0  0  0  0  0  0  0  0  0
   -6.4507    8.4933    7.5832 F   0  0  0  0  0  0  0  0  0  0  0  0
   -7.9519    8.1829    9.1252 F   0  0  0  0  0  0  0  0  0  0  0  0
   -5.8555    8.3599    9.6854 F   0  0  0  0  0  0  0  0  0  0  0  0
   -2.8547    4.7459    4.0330 C   0  0  0  0  0  0  0  0  0  0  0  0
   -2.1385    4.6555    0.9706 C   0  0  0  0  0  0  0  0  0  0  0  0
   -1.5565    4.3149   -0.2188 N   0  0  0  0  0  0  0  0  0  0  0  0
   -0.3728    3.8433    0.1020 C   0  0  0  0  0  0  0  0  0  0  0  0
    0.6715    3.3368   -0.7263 C   0  0  0  0  0  0  0  0  0  0  0  0
    5.6277    5.6745   -2.1741 H   0  0  0  0  0  0  0  0  0  0  0  0
    5.8624    4.0615   -2.8090 H   0  0  0  0  0  0  0  0  0  0  0  0
    4.1082   -0.5144   -2.4926 H   0  0  0  0  0  0  0  0  0  0  0  0
    2.1053    0.1192   -0.9120 H   0  0  0  0  0  0  0  0  0  0  0  0
    2.9062    2.4760    1.6885 H   0  0  0  0  0  0  0  0  0  0  0  0
    1.0789    3.2771    3.1287 H   0  0  0  0  0  0  0  0  0  0  0  0
    0.5312    5.1646    3.9133 H   0  0  0  0  0  0  0  0  0  0  0  0
    0.1741    5.6533    6.2676 H   0  0  0  0  0  0  0  0  0  0  0  0
   -2.0413    5.7049    7.2048 H   0  0  0  0  0  0  0  0  0  0  0  0
   -5.1470    5.0905    5.2091 H   0  0  0  0  0  0  0  0  0  0  0  0
   -6.7288    5.8600    6.5380 H   0  0  0  0  0  0  0  0  0  0  0  0
   -5.8892    5.9665    9.4036 H   0  0  0  0  0  0  0  0  0  0  0  0
   -7.5397    5.8610    8.8104 H   0  0  0  0  0  0  0  0  0  0  0  0
   -3.7045    4.4842    3.4072 H   0  0  0  0  0  0  0  0  0  0  0  0
   -3.1200    5.1137    0.9850 H   0  0  0  0  0  0  0  0  0  0  0  0
    0.5037    3.3371   -1.7976 H   0  0  0  0  0  0  0  0  0  0  0  0
  1  2  1  0  0  0  0
  1 33  1  0  0  0  0
  1 34  1  0  0  0  0
  2  3  2  0  0  0  0
  2  4  1  0  0  0  0
  4  5  1  0  0  0  0
  4  8  2  0  0  0  0
  5  6  1  0  0  0  0
  6  7  2  0  0  0  0
  6 35  1  0  0  0  0
  7  8  1  0  0  0  0
  7 36  1  0  0  0  0
  8  9  1  0  0  0  0
  9 10  1  0  0  0  0
  9 32  2  0  0  0  0
 10 11  2  0  0  0  0
 10 37  1  0  0  0  0
 11 12  1  0  0  0  0
 11 38  1  0  0  0  0
 12 13  1  0  0  0  0
 12 31  1  0  0  0  0
 13 14  1  0  0  0  0
 13 29  2  0  0  0  0
 14 15  1  0  0  0  0
 14 28  2  0  0  0  0
 15 16  2  0  0  0  0
 15 39  1  0  0  0  0
 16 17  1  0  0  0  0
 16 40  1  0  0  0  0
 17 18  2  0  0  0  0
 17 41  1  0  0  0  0
 18 19  1  0  0  0  0
 18 28  1  0  0  0  0
 19 20  1  0  0  0  0
 19 42  1  0  0  0  0
 20 21  2  0  0  0  0
 20 22  1  0  0  0  0
 22 23  1  0  0  0  0
 22 43  1  0  0  0  0
 23 24  1  0  0  0  0
 23 44  1  0  0  0  0
 23 45  1  0  0  0  0
 24 25  1  0  0  0  0
 24 26  1  0  0  0  0
 24 27  1  0  0  0  0
 28 46  1  0  0  0  0
 29 30  1  0  0  0  0
 29 47  1  0  0  0  0
 30 31  2  0  0  0  0
 31 32  1  0  0  0  0
 32 48  1  0  0  0  0
M  END
$$$$
