CHEMBL380316
 OpenBabel04072215373D

 43 47  0  0  0  0  0  0  0  0999 V2000
    2.7548   -2.6041   -5.1411 Cl  0  0  0  0  0  0  0  0  0  0  0  0
    3.0355   -1.8320   -3.6300 C   0  0  0  0  0  0  0  0  0  0  0  0
    3.0577   -2.5820   -2.4565 C   0  0  0  0  0  0  0  0  0  0  0  0
    3.3141   -1.9575   -1.2281 C   0  0  0  0  0  0  0  0  0  0  0  0
    3.5831   -0.5848   -1.1690 C   0  0  0  0  0  0  0  0  0  0  0  0
    3.8387    0.0449    0.0698 N   0  0  0  0  0  0  0  0  0  0  0  0
    4.6524    1.1979    0.2319 C   0  0  0  0  0  0  0  0  0  0  0  0
    5.6598    1.4021   -0.6370 N   0  0  0  0  0  0  0  0  0  0  0  0
    6.4188    2.5295   -0.5781 N   0  0  0  0  0  0  0  0  0  0  0  0
    6.1247    3.5316    0.2744 C   0  0  0  0  0  0  0  0  0  0  0  0
    7.0024    4.7350    0.1251 C   0  0  0  0  0  0  0  0  0  0  0  0
    7.4575    5.4004    1.2869 C   0  0  0  0  0  0  0  0  0  0  0  0
    8.1741    6.5912    1.2320 C   0  0  0  0  0  0  0  0  0  0  0  0
    8.5437    7.1100    0.0026 C   0  0  0  0  0  0  0  0  0  0  0  0
    8.2275    6.4279   -1.1781 C   0  0  0  0  0  0  0  0  0  0  0  0
    8.6912    6.9097   -2.4059 C   0  0  0  0  0  0  0  0  0  0  0  0
    8.4740    6.3232   -3.6011 N   0  0  0  0  0  0  0  0  0  0  0  0
    7.7374    5.2009   -3.5766 C   0  0  0  0  0  0  0  0  0  0  0  0
    7.2004    4.6528   -2.4181 C   0  0  0  0  0  0  0  0  0  0  0  0
    7.4498    5.2415   -1.1516 C   0  0  0  0  0  0  0  0  0  0  0  0
    5.0844    3.3653    1.2297 C   0  0  0  0  0  0  0  0  0  0  0  0
    4.6663    4.3497    2.1668 C   0  0  0  0  0  0  0  0  0  0  0  0
    3.7324    4.0898    3.1738 C   0  0  0  0  0  0  0  0  0  0  0  0
    3.1287    2.8486    3.2397 C   0  0  0  0  0  0  0  0  0  0  0  0
    3.4225    1.8930    2.2682 C   0  0  0  0  0  0  0  0  0  0  0  0
    4.3906    2.1259    1.2546 C   0  0  0  0  0  0  0  0  0  0  0  0
    3.4921    0.1589   -2.3586 C   0  0  0  0  0  0  0  0  0  0  0  0
    3.2353   -0.4583   -3.5846 C   0  0  0  0  0  0  0  0  0  0  0  0
    2.8806   -3.6536   -2.4898 H   0  0  0  0  0  0  0  0  0  0  0  0
    3.3212   -2.5627   -0.3261 H   0  0  0  0  0  0  0  0  0  0  0  0
    4.0054   -0.6015    0.8323 H   0  0  0  0  0  0  0  0  0  0  0  0
    7.2480    4.9923    2.2743 H   0  0  0  0  0  0  0  0  0  0  0  0
    8.4491    7.1055    2.1491 H   0  0  0  0  0  0  0  0  0  0  0  0
    9.1105    8.0384   -0.0276 H   0  0  0  0  0  0  0  0  0  0  0  0
    9.2930    7.8142   -2.4629 H   0  0  0  0  0  0  0  0  0  0  0  0
    7.5847    4.7233   -4.5406 H   0  0  0  0  0  0  0  0  0  0  0  0
    6.6174    3.7453   -2.5306 H   0  0  0  0  0  0  0  0  0  0  0  0
    5.0633    5.3616    2.1316 H   0  0  0  0  0  0  0  0  0  0  0  0
    3.4848    4.8624    3.8991 H   0  0  0  0  0  0  0  0  0  0  0  0
    2.4085    2.6321    4.0245 H   0  0  0  0  0  0  0  0  0  0  0  0
    2.8872    0.9465    2.3127 H   0  0  0  0  0  0  0  0  0  0  0  0
    3.6308    1.2381   -2.3438 H   0  0  0  0  0  0  0  0  0  0  0  0
    3.2003    0.1404   -4.4901 H   0  0  0  0  0  0  0  0  0  0  0  0
  1  2  1  0  0  0  0
  2  3  1  0  0  0  0
  2 28  2  0  0  0  0
  3  4  2  0  0  0  0
  3 29  1  0  0  0  0
  4  5  1  0  0  0  0
  4 30  1  0  0  0  0
  5  6  1  0  0  0  0
  5 27  2  0  0  0  0
  6  7  1  0  0  0  0
  6 31  1  0  0  0  0
  7  8  1  0  0  0  0
  7 26  2  0  0  0  0
  8  9  2  0  0  0  0
  9 10  1  0  0  0  0
 10 11  1  0  0  0  0
 10 21  2  0  0  0  0
 11 12  1  0  0  0  0
 11 20  2  0  0  0  0
 12 13  2  0  0  0  0
 12 32  1  0  0  0  0
 13 14  1  0  0  0  0
 13 33  1  0  0  0  0
 14 15  2  0  0  0  0
 14 34  1  0  0  0  0
 15 16  1  0  0  0  0
 15 20  1  0  0  0  0
 16 17  2  0  0  0  0
 16 35  1  0  0  0  0
 17 18  1  0  0  0  0
 18 19  2  0  0  0  0
 18 36  1  0  0  0  0
 19 20  1  0  0  0  0
 19 37  1  0  0  0  0
 21 22  1  0  0  0  0
 21 26  1  0  0  0  0
 22 23  2  0  0  0  0
 22 38  1  0  0  0  0
 23 24  1  0  0  0  0
 23 39  1  0  0  0  0
 24 25  2  0  0  0  0
 24 40  1  0  0  0  0
 25 26  1  0  0  0  0
 25 41  1  0  0  0  0
 27 28  1  0  0  0  0
 27 42  1  0  0  0  0
 28 43  1  0  0  0  0
M  END
$$$$
