CHEMBL1254277
 OpenBabel04072215363D

 46 49  0  0  0  0  0  0  0  0999 V2000
    3.6178   -0.7760   -1.1272 C   0  0  0  0  0  0  0  0  0  0  0  0
    3.3883   -0.4453    0.2620 N   0  0  0  0  0  0  0  0  0  0  0  0
    3.9919    0.5992    0.9199 C   0  0  0  0  0  0  0  0  0  0  0  0
    3.5211    0.6113    2.2152 C   0  0  0  0  0  0  0  0  0  0  0  0
    2.6019   -0.4548    2.3382 C   0  0  0  0  0  0  0  0  0  0  0  0
    1.8945   -0.8368    3.4214 N   0  0  0  0  0  0  0  0  0  0  0  0
    1.1027   -1.8908    3.1949 C   0  0  0  0  0  0  0  0  0  0  0  0
    0.9584   -2.5809    2.0518 N   0  0  0  0  0  0  0  0  0  0  0  0
    1.7110   -2.2172    0.9882 C   0  0  0  0  0  0  0  0  0  0  0  0
    1.6346   -2.9482   -0.1935 O   0  0  0  0  0  0  0  0  0  0  0  0
    1.4686   -4.3136   -0.0796 C   0  0  0  0  0  0  0  0  0  0  0  0
    2.0312   -5.0642    0.9513 C   0  0  0  0  0  0  0  0  0  0  0  0
    1.8205   -6.4414    1.0226 C   0  0  0  0  0  0  0  0  0  0  0  0
    1.0699   -7.1109    0.0529 C   0  0  0  0  0  0  0  0  0  0  0  0
    0.8433   -8.5149    0.1097 N   0  0  0  0  0  0  0  0  0  0  0  0
    1.1368   -9.3371    1.1872 C   0  0  0  0  0  0  0  0  0  0  0  0
    1.5345   -8.9618    2.2814 O   0  0  0  0  0  0  0  0  0  0  0  0
    0.9846  -10.6806    0.8677 N   0  0  0  0  0  0  0  0  0  0  0  0
    1.2727  -11.6733    1.8374 C   0  0  0  0  0  0  0  0  0  0  0  0
    2.0799  -12.7567    1.5150 C   0  0  0  0  0  0  0  0  0  0  0  0
    2.4379  -13.7229    2.3933 N   0  0  0  0  0  0  0  0  0  0  0  0
    1.9446  -13.6196    3.6498 C   0  0  0  0  0  0  0  0  0  0  0  0
    1.1012  -12.6017    4.0710 C   0  0  0  0  0  0  0  0  0  0  0  0
    0.5423  -12.5956    5.4597 C   0  0  0  0  0  0  0  0  0  0  0  0
    0.9082  -13.6827    6.1965 F   0  0  0  0  0  0  0  0  0  0  0  0
    0.9235  -11.5107    6.1860 F   0  0  0  0  0  0  0  0  0  0  0  0
   -0.8205  -12.5919    5.4679 F   0  0  0  0  0  0  0  0  0  0  0  0
    0.7774  -11.6034    3.1420 C   0  0  0  0  0  0  0  0  0  0  0  0
    0.5616   -6.3541   -1.0208 C   0  0  0  0  0  0  0  0  0  0  0  0
   -0.3300   -7.1157   -2.2971 Cl  0  0  0  0  0  0  0  0  0  0  0  0
    0.7604   -4.9669   -1.0902 C   0  0  0  0  0  0  0  0  0  0  0  0
    2.5342   -1.1072    1.1120 C   0  0  0  0  0  0  0  0  0  0  0  0
    4.3299   -0.0671   -1.5587 H   0  0  0  0  0  0  0  0  0  0  0  0
    2.6658   -0.7086   -1.6594 H   0  0  0  0  0  0  0  0  0  0  0  0
    4.0277   -1.7876   -1.1810 H   0  0  0  0  0  0  0  0  0  0  0  0
    4.7023    1.2478    0.4233 H   0  0  0  0  0  0  0  0  0  0  0  0
    3.8031    1.3070    2.9932 H   0  0  0  0  0  0  0  0  0  0  0  0
    0.5141   -2.2373    4.0388 H   0  0  0  0  0  0  0  0  0  0  0  0
    2.6244   -4.5965    1.7329 H   0  0  0  0  0  0  0  0  0  0  0  0
    2.2672   -6.9546    1.8667 H   0  0  0  0  0  0  0  0  0  0  0  0
    0.2718   -8.8999   -0.6264 H   0  0  0  0  0  0  0  0  0  0  0  0
    1.2145  -10.9053   -0.0906 H   0  0  0  0  0  0  0  0  0  0  0  0
    2.5206  -12.8623    0.5285 H   0  0  0  0  0  0  0  0  0  0  0  0
    2.2563  -14.4154    4.3239 H   0  0  0  0  0  0  0  0  0  0  0  0
    0.1285  -10.7815    3.4416 H   0  0  0  0  0  0  0  0  0  0  0  0
    0.3564   -4.3936   -1.9197 H   0  0  0  0  0  0  0  0  0  0  0  0
  1  2  1  0  0  0  0
  1 33  1  0  0  0  0
  1 34  1  0  0  0  0
  1 35  1  0  0  0  0
  2  3  1  0  0  0  0
  2 32  1  0  0  0  0
  3  4  2  0  0  0  0
  3 36  1  0  0  0  0
  4  5  1  0  0  0  0
  4 37  1  0  0  0  0
  5  6  1  0  0  0  0
  5 32  2  0  0  0  0
  6  7  2  0  0  0  0
  7  8  1  0  0  0  0
  7 38  1  0  0  0  0
  8  9  2  0  0  0  0
  9 10  1  0  0  0  0
  9 32  1  0  0  0  0
 10 11  1  0  0  0  0
 11 12  1  0  0  0  0
 11 31  2  0  0  0  0
 12 13  2  0  0  0  0
 12 39  1  0  0  0  0
 13 14  1  0  0  0  0
 13 40  1  0  0  0  0
 14 15  1  0  0  0  0
 14 29  2  0  0  0  0
 15 16  1  0  0  0  0
 15 41  1  0  0  0  0
 16 17  2  0  0  0  0
 16 18  1  0  0  0  0
 18 19  1  0  0  0  0
 18 42  1  0  0  0  0
 19 20  1  0  0  0  0
 19 28  2  0  0  0  0
 20 21  2  0  0  0  0
 20 43  1  0  0  0  0
 21 22  1  0  0  0  0
 22 23  2  0  0  0  0
 22 44  1  0  0  0  0
 23 24  1  0  0  0  0
 23 28  1  0  0  0  0
 24 25  1  0  0  0  0
 24 26  1  0  0  0  0
 24 27  1  0  0  0  0
 28 45  1  0  0  0  0
 29 30  1  0  0  0  0
 29 31  1  0  0  0  0
 31 46  1  0  0  0  0
M  END
$$$$
