CHEMBL606039
 OpenBabel04072215383D

 38 40  0  0  0  0  0  0  0  0999 V2000
    4.6281   -1.2678   -2.1502 C   0  0  0  0  0  0  0  0  0  0  0  0
    4.7717   -0.4973   -0.9600 O   0  0  0  0  0  0  0  0  0  0  0  0
    4.3132   -1.0669    0.2041 C   0  0  0  0  0  0  0  0  0  0  0  0
    3.9646   -2.4192    0.3309 C   0  0  0  0  0  0  0  0  0  0  0  0
    3.5611   -2.9393    1.5636 C   0  0  0  0  0  0  0  0  0  0  0  0
    3.5251   -2.1221    2.6879 C   0  0  0  0  0  0  0  0  0  0  0  0
    3.8590   -0.7736    2.5749 C   0  0  0  0  0  0  0  0  0  0  0  0
    4.2309   -0.2289    1.3352 C   0  0  0  0  0  0  0  0  0  0  0  0
    4.4788    1.2259    1.2754 C   0  0  0  0  0  0  0  0  0  0  0  0
    5.8396    1.7049    1.6967 C   0  0  0  0  0  0  0  0  0  0  0  0
    3.5264    2.1241    0.9595 C   0  0  0  0  0  0  0  0  0  0  0  0
    2.1521    1.9079    0.6554 C   0  0  0  0  0  0  0  0  0  0  0  0
    1.1493    1.9025    1.5981 C   0  0  0  0  0  0  0  0  0  0  0  0
   -0.0684    1.9311    0.9931 O   0  0  0  0  0  0  0  0  0  0  0  0
    0.1522    1.9659   -0.3536 C   0  0  0  0  0  0  0  0  0  0  0  0
   -0.8337    2.1159   -1.2467 N   0  0  0  0  0  0  0  0  0  0  0  0
   -0.3710    2.1777   -2.4937 C   0  0  0  0  0  0  0  0  0  0  0  0
   -1.2949    2.4844   -3.4856 N   0  0  0  0  0  0  0  0  0  0  0  0
    0.9045    2.0801   -2.8861 N   0  0  0  0  0  0  0  0  0  0  0  0
    1.8714    1.9120   -1.9603 C   0  0  0  0  0  0  0  0  0  0  0  0
    3.1677    1.8188   -2.4069 N   0  0  0  0  0  0  0  0  0  0  0  0
    1.5131    1.8924   -0.6117 C   0  0  0  0  0  0  0  0  0  0  0  0
    5.0308   -0.6806   -2.9811 H   0  0  0  0  0  0  0  0  0  0  0  0
    3.5713   -1.4650   -2.3577 H   0  0  0  0  0  0  0  0  0  0  0  0
    5.2042   -2.1984   -2.1061 H   0  0  0  0  0  0  0  0  0  0  0  0
    3.9978   -3.1029   -0.5109 H   0  0  0  0  0  0  0  0  0  0  0  0
    3.2805   -3.9871    1.6438 H   0  0  0  0  0  0  0  0  0  0  0  0
    3.2262   -2.5307    3.6499 H   0  0  0  0  0  0  0  0  0  0  0  0
    3.8164   -0.1425    3.4595 H   0  0  0  0  0  0  0  0  0  0  0  0
    6.4568    0.9073    2.1193 H   0  0  0  0  0  0  0  0  0  0  0  0
    5.7411    2.4783    2.4720 H   0  0  0  0  0  0  0  0  0  0  0  0
    6.3761    2.1415    0.8478 H   0  0  0  0  0  0  0  0  0  0  0  0
    3.8157    3.1740    0.9599 H   0  0  0  0  0  0  0  0  0  0  0  0
    1.1310    1.9477    2.6781 H   0  0  0  0  0  0  0  0  0  0  0  0
   -2.0532    3.0122   -3.0730 H   0  0  0  0  0  0  0  0  0  0  0  0
   -0.8022    2.9214   -4.2534 H   0  0  0  0  0  0  0  0  0  0  0  0
    3.3313    1.9470   -3.3930 H   0  0  0  0  0  0  0  0  0  0  0  0
    3.9262    1.6349   -1.7636 H   0  0  0  0  0  0  0  0  0  0  0  0
  1  2  1  0  0  0  0
  1 23  1  0  0  0  0
  1 24  1  0  0  0  0
  1 25  1  0  0  0  0
  2  3  1  0  0  0  0
  3  4  1  0  0  0  0
  3  8  2  0  0  0  0
  4  5  2  0  0  0  0
  4 26  1  0  0  0  0
  5  6  1  0  0  0  0
  5 27  1  0  0  0  0
  6  7  2  0  0  0  0
  6 28  1  0  0  0  0
  7  8  1  0  0  0  0
  7 29  1  0  0  0  0
  8  9  1  0  0  0  0
  9 10  1  0  0  0  0
  9 11  2  0  0  0  0
 10 30  1  0  0  0  0
 10 31  1  0  0  0  0
 10 32  1  0  0  0  0
 11 12  1  0  0  0  0
 11 33  1  0  0  0  0
 12 13  2  0  0  0  0
 12 22  1  0  0  0  0
 13 14  1  0  0  0  0
 13 34  1  0  0  0  0
 14 15  1  0  0  0  0
 15 16  1  0  0  0  0
 15 22  2  0  0  0  0
 16 17  2  0  0  0  0
 17 18  1  0  0  0  0
 17 19  1  0  0  0  0
 18 35  1  0  0  0  0
 18 36  1  0  0  0  0
 19 20  2  0  0  0  0
 20 21  1  0  0  0  0
 20 22  1  0  0  0  0
 21 37  1  0  0  0  0
 21 38  1  0  0  0  0
M  END
$$$$
