CHEMBL408070
 OpenBabel04072215383D

 73 77  0  0  0  0  0  0  0  0999 V2000
    2.3344    0.3081   -0.5194 C   0  0  0  0  0  0  0  0  0  0  0  0
    0.9007    0.0935   -0.1208 C   0  0  0  0  0  0  0  0  0  0  0  0
    0.1128    1.2454    0.1082 C   0  0  0  0  0  0  0  0  0  0  0  0
   -1.2395    1.1614    0.4556 C   0  0  0  0  0  0  0  0  0  0  0  0
   -1.8333   -0.0898    0.5942 C   0  0  0  0  0  0  0  0  0  0  0  0
   -3.2446   -0.2658    1.0364 C   0  0  0  0  0  0  0  0  0  0  0  0
   -3.4866   -1.2636    1.7075 O   0  0  0  0  0  0  0  0  0  0  0  0
   -4.1636    0.6808    0.6175 N   0  0  0  0  0  0  0  0  0  0  0  0
   -5.5534    0.6518    0.9179 C   0  0  0  0  0  0  0  0  0  0  0  0
   -6.0915   -0.1298    1.9450 C   0  0  0  0  0  0  0  0  0  0  0  0
   -7.4693   -0.1887    2.1615 C   0  0  0  0  0  0  0  0  0  0  0  0
   -8.3334    0.5360    1.3490 C   0  0  0  0  0  0  0  0  0  0  0  0
   -7.8239    1.3456    0.3250 C   0  0  0  0  0  0  0  0  0  0  0  0
   -8.7594    2.1008   -0.5860 C   0  0  0  0  0  0  0  0  0  0  0  0
  -10.0776    1.8745   -0.3269 F   0  0  0  0  0  0  0  0  0  0  0  0
   -8.5896    3.4496   -0.5066 F   0  0  0  0  0  0  0  0  0  0  0  0
   -8.5789    1.7791   -1.8973 F   0  0  0  0  0  0  0  0  0  0  0  0
   -6.4268    1.4179    0.1349 C   0  0  0  0  0  0  0  0  0  0  0  0
   -1.0623   -1.2436    0.3829 C   0  0  0  0  0  0  0  0  0  0  0  0
    0.2988   -1.1722    0.0275 C   0  0  0  0  0  0  0  0  0  0  0  0
    0.9541   -2.4978   -0.2320 C   0  0  0  0  0  0  0  0  0  0  0  0
    0.2729   -3.3810   -0.7411 O   0  0  0  0  0  0  0  0  0  0  0  0
    2.2600   -2.6587    0.1937 N   0  0  0  0  0  0  0  0  0  0  0  0
    3.0104   -3.8538    0.0800 C   0  0  0  0  0  0  0  0  0  0  0  0
    2.6760   -4.9535   -0.6778 C   0  0  0  0  0  0  0  0  0  0  0  0
    3.4238   -6.0779   -0.7364 N   0  0  0  0  0  0  0  0  0  0  0  0
    4.5488   -6.1353    0.0001 C   0  0  0  0  0  0  0  0  0  0  0  0
    5.3243   -7.2899   -0.0184 N   0  0  0  0  0  0  0  0  0  0  0  0
    5.4815   -8.1572   -1.1078 C   0  0  0  0  0  0  0  0  0  0  0  0
    5.3510   -7.7105   -2.4220 C   0  0  0  0  0  0  0  0  0  0  0  0
    5.3982   -8.6043   -3.4873 C   0  0  0  0  0  0  0  0  0  0  0  0
    5.5734   -9.9774   -3.2867 C   0  0  0  0  0  0  0  0  0  0  0  0
    5.5718  -10.8173   -4.3814 N   0  0  0  0  0  0  0  0  0  0  0  0
    6.2411  -12.1204   -4.3692 C   0  0  0  0  0  0  0  0  0  0  0  0
    6.7160  -12.4377   -5.8088 C   0  0  0  0  0  0  0  0  0  0  0  0
    5.6106  -12.4122   -6.7983 N   0  0  0  0  0  0  0  0  0  0  0  0
    6.1198  -12.6637   -8.1424 C   0  0  0  0  0  0  0  0  0  0  0  0
    4.9346  -11.0933   -6.7403 C   0  0  0  0  0  0  0  0  0  0  0  0
    4.4350  -10.7491   -5.3202 C   0  0  0  0  0  0  0  0  0  0  0  0
    5.7846  -10.4087   -1.9729 C   0  0  0  0  0  0  0  0  0  0  0  0
    5.7500   -9.5104   -0.8946 C   0  0  0  0  0  0  0  0  0  0  0  0
    4.9626   -5.1172    0.7667 N   0  0  0  0  0  0  0  0  0  0  0  0
    4.1976   -4.0044    0.7753 C   0  0  0  0  0  0  0  0  0  0  0  0
    2.5255    1.3606   -0.7590 H   0  0  0  0  0  0  0  0  0  0  0  0
    2.5864   -0.2722   -1.4117 H   0  0  0  0  0  0  0  0  0  0  0  0
    3.0069    0.0505    0.3040 H   0  0  0  0  0  0  0  0  0  0  0  0
    0.5574    2.2369    0.0083 H   0  0  0  0  0  0  0  0  0  0  0  0
   -1.7955    2.0752    0.6470 H   0  0  0  0  0  0  0  0  0  0  0  0
   -3.8722    1.3423   -0.0895 H   0  0  0  0  0  0  0  0  0  0  0  0
   -5.4584   -0.7131    2.6068 H   0  0  0  0  0  0  0  0  0  0  0  0
   -7.8609   -0.8182    2.9570 H   0  0  0  0  0  0  0  0  0  0  0  0
   -9.4072    0.4560    1.5132 H   0  0  0  0  0  0  0  0  0  0  0  0
   -6.0409    2.0469   -0.6658 H   0  0  0  0  0  0  0  0  0  0  0  0
   -1.5344   -2.2207    0.5042 H   0  0  0  0  0  0  0  0  0  0  0  0
    2.6625   -1.9260    0.7612 H   0  0  0  0  0  0  0  0  0  0  0  0
    1.7887   -4.9957   -1.3010 H   0  0  0  0  0  0  0  0  0  0  0  0
    6.1353   -7.1835    0.5742 H   0  0  0  0  0  0  0  0  0  0  0  0
    5.1944   -6.6581   -2.6405 H   0  0  0  0  0  0  0  0  0  0  0  0
    5.3062   -8.2077   -4.4944 H   0  0  0  0  0  0  0  0  0  0  0  0
    5.5599  -12.9014   -4.0087 H   0  0  0  0  0  0  0  0  0  0  0  0
    7.1231  -12.1083   -3.7183 H   0  0  0  0  0  0  0  0  0  0  0  0
    7.1915  -13.4252   -5.8089 H   0  0  0  0  0  0  0  0  0  0  0  0
    7.4835  -11.7020   -6.0884 H   0  0  0  0  0  0  0  0  0  0  0  0
    6.5911  -13.6510   -8.1913 H   0  0  0  0  0  0  0  0  0  0  0  0
    6.8537  -11.9135   -8.4583 H   0  0  0  0  0  0  0  0  0  0  0  0
    5.2979  -12.6686   -8.8666 H   0  0  0  0  0  0  0  0  0  0  0  0
    4.0766  -11.0862   -7.4228 H   0  0  0  0  0  0  0  0  0  0  0  0
    5.6220  -10.3005   -7.0673 H   0  0  0  0  0  0  0  0  0  0  0  0
    3.6559  -11.4590   -5.0116 H   0  0  0  0  0  0  0  0  0  0  0  0
    3.9640   -9.7602   -5.3513 H   0  0  0  0  0  0  0  0  0  0  0  0
    5.9292  -11.4632   -1.7558 H   0  0  0  0  0  0  0  0  0  0  0  0
    5.8689   -9.8915    0.1161 H   0  0  0  0  0  0  0  0  0  0  0  0
    4.5839   -3.2095    1.4055 H   0  0  0  0  0  0  0  0  0  0  0  0
  1  2  1  0  0  0  0
  1 44  1  0  0  0  0
  1 45  1  0  0  0  0
  1 46  1  0  0  0  0
  2  3  1  0  0  0  0
  2 20  2  0  0  0  0
  3  4  2  0  0  0  0
  3 47  1  0  0  0  0
  4  5  1  0  0  0  0
  4 48  1  0  0  0  0
  5  6  1  0  0  0  0
  5 19  2  0  0  0  0
  6  7  2  0  0  0  0
  6  8  1  0  0  0  0
  8  9  1  0  0  0  0
  8 49  1  0  0  0  0
  9 10  1  0  0  0  0
  9 18  2  0  0  0  0
 10 11  2  0  0  0  0
 10 50  1  0  0  0  0
 11 12  1  0  0  0  0
 11 51  1  0  0  0  0
 12 13  2  0  0  0  0
 12 52  1  0  0  0  0
 13 14  1  0  0  0  0
 13 18  1  0  0  0  0
 14 15  1  0  0  0  0
 14 16  1  0  0  0  0
 14 17  1  0  0  0  0
 18 53  1  0  0  0  0
 19 20  1  0  0  0  0
 19 54  1  0  0  0  0
 20 21  1  0  0  0  0
 21 22  2  0  0  0  0
 21 23  1  0  0  0  0
 23 24  1  0  0  0  0
 23 55  1  0  0  0  0
 24 25  1  0  0  0  0
 24 43  2  0  0  0  0
 25 26  2  0  0  0  0
 25 56  1  0  0  0  0
 26 27  1  0  0  0  0
 27 28  1  0  0  0  0
 27 42  2  0  0  0  0
 28 29  1  0  0  0  0
 28 57  1  0  0  0  0
 29 30  1  0  0  0  0
 29 41  2  0  0  0  0
 30 31  2  0  0  0  0
 30 58  1  0  0  0  0
 31 32  1  0  0  0  0
 31 59  1  0  0  0  0
 32 33  1  0  0  0  0
 32 40  2  0  0  0  0
 33 34  1  0  0  0  0
 33 39  1  0  0  0  0
 34 35  1  0  0  0  0
 34 60  1  0  0  0  0
 34 61  1  0  0  0  0
 35 36  1  0  0  0  0
 35 62  1  0  0  0  0
 35 63  1  0  0  0  0
 36 37  1  0  0  0  0
 36 38  1  0  0  0  0
 37 64  1  0  0  0  0
 37 65  1  0  0  0  0
 37 66  1  0  0  0  0
 38 39  1  0  0  0  0
 38 67  1  0  0  0  0
 38 68  1  0  0  0  0
 39 69  1  0  0  0  0
 39 70  1  0  0  0  0
 40 41  1  0  0  0  0
 40 71  1  0  0  0  0
 41 72  1  0  0  0  0
 42 43  1  0  0  0  0
 43 73  1  0  0  0  0
M  END
$$$$
