CHEMBL1681961
 OpenBabel04072215363D

 39 40  0  0  0  0  0  0  0  0999 V2000
    1.2517   -0.2750    0.1255 C   0  0  0  0  0  0  0  0  0  0  0  0
    2.6632    0.0166    0.0467 N   0  0  0  0  0  0  0  0  0  0  0  0
    3.1754    1.0023    0.8665 C   0  0  0  0  0  0  0  0  0  0  0  0
    2.4676    1.6486    1.6283 O   0  0  0  0  0  0  0  0  0  0  0  0
    4.5296    1.1707    0.6619 N   0  0  0  0  0  0  0  0  0  0  0  0
    5.3417    2.1103    1.3348 C   0  0  0  0  0  0  0  0  0  0  0  0
    4.9864    2.6809    2.5610 C   0  0  0  0  0  0  0  0  0  0  0  0
    5.7718    3.6842    3.1391 C   0  0  0  0  0  0  0  0  0  0  0  0
    6.9339    4.1238    2.5056 C   0  0  0  0  0  0  0  0  0  0  0  0
    7.5633    5.1929    3.1034 O   0  0  0  0  0  0  0  0  0  0  0  0
    8.9427    5.2851    3.0224 C   0  0  0  0  0  0  0  0  0  0  0  0
    9.6534    4.1362    2.9897 N   0  0  0  0  0  0  0  0  0  0  0  0
   10.9697    4.2827    2.8230 C   0  0  0  0  0  0  0  0  0  0  0  0
   11.6266    5.4467    2.7271 N   0  0  0  0  0  0  0  0  0  0  0  0
   10.8911    6.5692    2.8256 C   0  0  0  0  0  0  0  0  0  0  0  0
   11.6327    7.7483    2.8583 N   0  0  0  0  0  0  0  0  0  0  0  0
    9.5169    6.5467    2.9988 C   0  0  0  0  0  0  0  0  0  0  0  0
    8.7022    7.7589    3.1360 C   0  0  0  0  0  0  0  0  0  0  0  0
    9.0849    8.8985    2.6496 N   0  0  0  0  0  0  0  0  0  0  0  0
    8.1226    9.8724    2.9523 O   0  0  0  0  0  0  0  0  0  0  0  0
    8.5339   11.1051    2.3705 C   0  0  0  0  0  0  0  0  0  0  0  0
    7.2976    3.5352    1.2902 C   0  0  0  0  0  0  0  0  0  0  0  0
    8.3583    3.9748    0.5959 F   0  0  0  0  0  0  0  0  0  0  0  0
    6.5321    2.5112    0.7247 C   0  0  0  0  0  0  0  0  0  0  0  0
    1.0246   -1.1131   -0.5358 H   0  0  0  0  0  0  0  0  0  0  0  0
    0.6866    0.6093   -0.1846 H   0  0  0  0  0  0  0  0  0  0  0  0
    0.9856   -0.5276    1.1562 H   0  0  0  0  0  0  0  0  0  0  0  0
    3.2824   -0.7563   -0.1486 H   0  0  0  0  0  0  0  0  0  0  0  0
    4.8718    0.8142   -0.2191 H   0  0  0  0  0  0  0  0  0  0  0  0
    4.0893    2.3696    3.0896 H   0  0  0  0  0  0  0  0  0  0  0  0
    5.4548    4.1337    4.0763 H   0  0  0  0  0  0  0  0  0  0  0  0
   11.5609    3.3767    2.7565 H   0  0  0  0  0  0  0  0  0  0  0  0
   12.5831    7.5652    2.5584 H   0  0  0  0  0  0  0  0  0  0  0  0
   11.1651    8.5062    2.3610 H   0  0  0  0  0  0  0  0  0  0  0  0
    7.7380    7.6677    3.6692 H   0  0  0  0  0  0  0  0  0  0  0  0
    7.7942   11.8714    2.6167 H   0  0  0  0  0  0  0  0  0  0  0  0
    8.5898   11.0054    1.2822 H   0  0  0  0  0  0  0  0  0  0  0  0
    9.5058   11.4119    2.7702 H   0  0  0  0  0  0  0  0  0  0  0  0
    6.8584    2.0872   -0.2195 H   0  0  0  0  0  0  0  0  0  0  0  0
  1  2  1  0  0  0  0
  1 25  1  0  0  0  0
  1 26  1  0  0  0  0
  1 27  1  0  0  0  0
  2  3  1  0  0  0  0
  2 28  1  0  0  0  0
  3  4  2  0  0  0  0
  3  5  1  0  0  0  0
  5  6  1  0  0  0  0
  5 29  1  0  0  0  0
  6  7  1  0  0  0  0
  6 24  2  0  0  0  0
  7  8  2  0  0  0  0
  7 30  1  0  0  0  0
  8  9  1  0  0  0  0
  8 31  1  0  0  0  0
  9 10  1  0  0  0  0
  9 22  2  0  0  0  0
 10 11  1  0  0  0  0
 11 12  1  0  0  0  0
 11 17  2  0  0  0  0
 12 13  2  0  0  0  0
 13 14  1  0  0  0  0
 13 32  1  0  0  0  0
 14 15  2  0  0  0  0
 15 16  1  0  0  0  0
 15 17  1  0  0  0  0
 16 33  1  0  0  0  0
 16 34  1  0  0  0  0
 17 18  1  0  0  0  0
 18 19  2  0  0  0  0
 18 35  1  0  0  0  0
 19 20  1  0  0  0  0
 20 21  1  0  0  0  0
 21 36  1  0  0  0  0
 21 37  1  0  0  0  0
 21 38  1  0  0  0  0
 22 23  1  0  0  0  0
 22 24  1  0  0  0  0
 24 39  1  0  0  0  0
M  END
$$$$
