CHEMBL3128237
 OpenBabel04072215363D

 60 64  0  0  0  0  0  0  0  0999 V2000
    4.3702   -2.3289    0.9385 O   0  0  0  0  0  0  0  0  0  0  0  0
    4.9237   -1.7543    1.8657 C   0  0  0  0  0  0  0  0  0  0  0  0
    4.8898   -2.2029    3.1806 N   0  0  0  0  0  0  0  0  0  0  0  0
    4.1944   -3.3490    3.6410 C   0  0  0  0  0  0  0  0  0  0  0  0
    3.6858   -4.3397    2.7904 C   0  0  0  0  0  0  0  0  0  0  0  0
    2.9357   -5.4048    3.2951 C   0  0  0  0  0  0  0  0  0  0  0  0
    2.7064   -5.4919    4.6586 C   0  0  0  0  0  0  0  0  0  0  0  0
    1.9679   -6.4990    5.1419 F   0  0  0  0  0  0  0  0  0  0  0  0
    3.2342   -4.5455    5.5279 C   0  0  0  0  0  0  0  0  0  0  0  0
    3.9859   -3.4786    5.0212 C   0  0  0  0  0  0  0  0  0  0  0  0
    5.6238   -0.5637    1.7397 N   0  0  0  0  0  0  0  0  0  0  0  0
    5.7390    0.2191    0.5659 C   0  0  0  0  0  0  0  0  0  0  0  0
    5.1125   -0.1017   -0.6421 C   0  0  0  0  0  0  0  0  0  0  0  0
    5.2709    0.7006   -1.7733 C   0  0  0  0  0  0  0  0  0  0  0  0
    6.0356    1.8589   -1.7053 C   0  0  0  0  0  0  0  0  0  0  0  0
    6.6390    2.2317   -0.4975 C   0  0  0  0  0  0  0  0  0  0  0  0
    7.4381    3.5124   -0.4156 C   0  0  0  0  0  0  0  0  0  0  0  0
    8.8148    3.2326   -0.7771 N   0  0  0  0  0  0  0  0  0  0  0  0
    9.6807    4.3237   -0.7372 C   0  0  0  0  0  0  0  0  0  0  0  0
    9.4325    5.3633    0.0974 N   0  0  0  0  0  0  0  0  0  0  0  0
   10.3072    6.3868    0.1423 C   0  0  0  0  0  0  0  0  0  0  0  0
   11.4388    6.5378   -0.5617 N   0  0  0  0  0  0  0  0  0  0  0  0
   11.6639    5.4927   -1.3742 C   0  0  0  0  0  0  0  0  0  0  0  0
   10.8478    4.3827   -1.5146 C   0  0  0  0  0  0  0  0  0  0  0  0
   11.5002    3.5899   -2.4786 C   0  0  0  0  0  0  0  0  0  0  0  0
   12.6405    4.1336   -2.9168 N   0  0  0  0  0  0  0  0  0  0  0  0
   12.7358    5.2897   -2.2073 N   0  0  0  0  0  0  0  0  0  0  0  0
   13.8919    6.1470   -2.4341 C   0  0  0  0  0  0  0  0  0  0  0  0
   14.3704    6.9090   -1.1999 C   0  0  0  0  0  0  0  0  0  0  0  0
   15.5953    7.7655   -1.4178 C   0  0  0  0  0  0  0  0  0  0  0  0
   15.5033    9.1580   -1.2670 C   0  0  0  0  0  0  0  0  0  0  0  0
   16.6394    9.9620   -1.3603 C   0  0  0  0  0  0  0  0  0  0  0  0
   17.8804    9.3841   -1.6124 C   0  0  0  0  0  0  0  0  0  0  0  0
   17.9825    8.0042   -1.7838 C   0  0  0  0  0  0  0  0  0  0  0  0
   16.8461    7.1964   -1.6876 C   0  0  0  0  0  0  0  0  0  0  0  0
    6.5071    1.3907    0.6259 C   0  0  0  0  0  0  0  0  0  0  0  0
    5.2221   -1.5659    3.8880 H   0  0  0  0  0  0  0  0  0  0  0  0
    3.8526   -4.3163    1.7180 H   0  0  0  0  0  0  0  0  0  0  0  0
    2.5267   -6.1538    2.6246 H   0  0  0  0  0  0  0  0  0  0  0  0
    3.0449   -4.6374    6.5926 H   0  0  0  0  0  0  0  0  0  0  0  0
    4.3755   -2.7417    5.7179 H   0  0  0  0  0  0  0  0  0  0  0  0
    6.1496   -0.2489    2.5422 H   0  0  0  0  0  0  0  0  0  0  0  0
    4.4854   -0.9796   -0.7521 H   0  0  0  0  0  0  0  0  0  0  0  0
    4.7856    0.4143   -2.7030 H   0  0  0  0  0  0  0  0  0  0  0  0
    6.1469    2.4732   -2.5956 H   0  0  0  0  0  0  0  0  0  0  0  0
    7.3553    3.9193    0.5998 H   0  0  0  0  0  0  0  0  0  0  0  0
    7.0004    4.2525   -1.0990 H   0  0  0  0  0  0  0  0  0  0  0  0
    8.9154    2.6733   -1.6153 H   0  0  0  0  0  0  0  0  0  0  0  0
   10.0687    7.1864    0.8377 H   0  0  0  0  0  0  0  0  0  0  0  0
   11.1846    2.6359   -2.8828 H   0  0  0  0  0  0  0  0  0  0  0  0
   13.6188    6.8279   -3.2480 H   0  0  0  0  0  0  0  0  0  0  0  0
   14.6948    5.4953   -2.8037 H   0  0  0  0  0  0  0  0  0  0  0  0
   14.5747    6.2122   -0.3769 H   0  0  0  0  0  0  0  0  0  0  0  0
   13.5719    7.5679   -0.8464 H   0  0  0  0  0  0  0  0  0  0  0  0
   14.5454    9.6270   -1.0504 H   0  0  0  0  0  0  0  0  0  0  0  0
   16.5561   11.0366   -1.2201 H   0  0  0  0  0  0  0  0  0  0  0  0
   18.7684   10.0082   -1.6673 H   0  0  0  0  0  0  0  0  0  0  0  0
   18.9537    7.5550   -1.9757 H   0  0  0  0  0  0  0  0  0  0  0  0
   16.9542    6.1200   -1.7991 H   0  0  0  0  0  0  0  0  0  0  0  0
    7.0077    1.6733    1.5492 H   0  0  0  0  0  0  0  0  0  0  0  0
  1  2  2  0  0  0  0
  2  3  1  0  0  0  0
  2 11  1  0  0  0  0
  3  4  1  0  0  0  0
  3 37  1  0  0  0  0
  4  5  1  0  0  0  0
  4 10  2  0  0  0  0
  5  6  2  0  0  0  0
  5 38  1  0  0  0  0
  6  7  1  0  0  0  0
  6 39  1  0  0  0  0
  7  8  1  0  0  0  0
  7  9  2  0  0  0  0
  9 10  1  0  0  0  0
  9 40  1  0  0  0  0
 10 41  1  0  0  0  0
 11 12  1  0  0  0  0
 11 42  1  0  0  0  0
 12 13  1  0  0  0  0
 12 36  2  0  0  0  0
 13 14  2  0  0  0  0
 13 43  1  0  0  0  0
 14 15  1  0  0  0  0
 14 44  1  0  0  0  0
 15 16  2  0  0  0  0
 15 45  1  0  0  0  0
 16 17  1  0  0  0  0
 16 36  1  0  0  0  0
 17 18  1  0  0  0  0
 17 46  1  0  0  0  0
 17 47  1  0  0  0  0
 18 19  1  0  0  0  0
 18 48  1  0  0  0  0
 19 20  1  0  0  0  0
 19 24  2  0  0  0  0
 20 21  2  0  0  0  0
 21 22  1  0  0  0  0
 21 49  1  0  0  0  0
 22 23  2  0  0  0  0
 23 24  1  0  0  0  0
 23 27  1  0  0  0  0
 24 25  1  0  0  0  0
 25 26  2  0  0  0  0
 25 50  1  0  0  0  0
 26 27  1  0  0  0  0
 27 28  1  0  0  0  0
 28 29  1  0  0  0  0
 28 51  1  0  0  0  0
 28 52  1  0  0  0  0
 29 30  1  0  0  0  0
 29 53  1  0  0  0  0
 29 54  1  0  0  0  0
 30 31  1  0  0  0  0
 30 35  2  0  0  0  0
 31 32  2  0  0  0  0
 31 55  1  0  0  0  0
 32 33  1  0  0  0  0
 32 56  1  0  0  0  0
 33 34  2  0  0  0  0
 33 57  1  0  0  0  0
 34 35  1  0  0  0  0
 34 58  1  0  0  0  0
 35 59  1  0  0  0  0
 36 60  1  0  0  0  0
M  END
$$$$
