CHEMBL194236
 OpenBabel04072215363D

 44 47  0  0  0  0  0  0  0  0999 V2000
    5.3061    1.5180   -1.7340 C   0  0  0  0  0  0  0  0  0  0  0  0
    4.3239    0.7042   -0.9451 C   0  0  0  0  0  0  0  0  0  0  0  0
    4.6386   -0.9760   -0.8319 S   0  0  0  0  0  0  0  0  0  0  0  0
    3.3023   -1.2448    0.1678 C   0  0  0  0  0  0  0  0  0  0  0  0
    3.0761   -2.4835    0.6268 N   0  0  0  0  0  0  0  0  0  0  0  0
    1.9954   -2.5558    1.4004 C   0  0  0  0  0  0  0  0  0  0  0  0
    1.1582   -1.5609    1.7007 N   0  0  0  0  0  0  0  0  0  0  0  0
    1.4040   -0.3296    1.2100 C   0  0  0  0  0  0  0  0  0  0  0  0
    0.4502    0.6123    1.5648 N   0  0  0  0  0  0  0  0  0  0  0  0
    2.5512   -0.1019    0.4079 C   0  0  0  0  0  0  0  0  0  0  0  0
    3.1698    1.0721   -0.2512 C   0  0  0  0  0  0  0  0  0  0  0  0
    2.7281    2.4814   -0.1657 C   0  0  0  0  0  0  0  0  0  0  0  0
    2.2054    2.9701    1.0292 C   0  0  0  0  0  0  0  0  0  0  0  0
    1.6604    4.2537    1.1147 C   0  0  0  0  0  0  0  0  0  0  0  0
    1.7317    5.1449    0.0452 C   0  0  0  0  0  0  0  0  0  0  0  0
    1.2051    6.4571    0.0875 N   0  0  0  0  0  0  0  0  0  0  0  0
    0.5492    7.0178    1.1662 C   0  0  0  0  0  0  0  0  0  0  0  0
    0.3912    6.4723    2.2530 O   0  0  0  0  0  0  0  0  0  0  0  0
    0.0240    8.2726    0.8751 N   0  0  0  0  0  0  0  0  0  0  0  0
   -0.7196    8.9362    1.8805 C   0  0  0  0  0  0  0  0  0  0  0  0
   -0.2353    9.0240    3.1946 C   0  0  0  0  0  0  0  0  0  0  0  0
   -1.0501    9.5083    4.2216 C   0  0  0  0  0  0  0  0  0  0  0  0
   -2.3471    9.9059    3.9251 C   0  0  0  0  0  0  0  0  0  0  0  0
   -3.4969   10.4496    5.3238 Br  0  0  0  0  0  0  0  0  0  0  0  0
   -2.8181    9.8758    2.6100 C   0  0  0  0  0  0  0  0  0  0  0  0
   -1.9942    9.4138    1.5792 C   0  0  0  0  0  0  0  0  0  0  0  0
    2.3419    4.7060   -1.1288 C   0  0  0  0  0  0  0  0  0  0  0  0
    2.7957    3.3783   -1.2435 C   0  0  0  0  0  0  0  0  0  0  0  0
    6.2209    0.9600   -1.9628 H   0  0  0  0  0  0  0  0  0  0  0  0
    5.6054    2.4155   -1.1842 H   0  0  0  0  0  0  0  0  0  0  0  0
    4.8729    1.8113   -2.6956 H   0  0  0  0  0  0  0  0  0  0  0  0
    1.7681   -3.5272    1.8227 H   0  0  0  0  0  0  0  0  0  0  0  0
   -0.3553    0.1633    1.9884 H   0  0  0  0  0  0  0  0  0  0  0  0
    0.2468    1.3120    0.8637 H   0  0  0  0  0  0  0  0  0  0  0  0
    2.1745    2.3565    1.9270 H   0  0  0  0  0  0  0  0  0  0  0  0
    1.1897    4.5071    2.0582 H   0  0  0  0  0  0  0  0  0  0  0  0
    1.3825    7.0566   -0.7049 H   0  0  0  0  0  0  0  0  0  0  0  0
   -0.3231    8.3646   -0.0686 H   0  0  0  0  0  0  0  0  0  0  0  0
    0.7642    8.6711    3.4419 H   0  0  0  0  0  0  0  0  0  0  0  0
   -0.6714    9.5241    5.2398 H   0  0  0  0  0  0  0  0  0  0  0  0
   -3.8412   10.1686    2.3863 H   0  0  0  0  0  0  0  0  0  0  0  0
   -2.3943    9.3453    0.5722 H   0  0  0  0  0  0  0  0  0  0  0  0
    2.4512    5.3698   -1.9827 H   0  0  0  0  0  0  0  0  0  0  0  0
    3.1928    3.0716   -2.2053 H   0  0  0  0  0  0  0  0  0  0  0  0
  1  2  1  0  0  0  0
  1 29  1  0  0  0  0
  1 30  1  0  0  0  0
  1 31  1  0  0  0  0
  2  3  1  0  0  0  0
  2 11  2  0  0  0  0
  3  4  1  0  0  0  0
  4  5  1  0  0  0  0
  4 10  2  0  0  0  0
  5  6  2  0  0  0  0
  6  7  1  0  0  0  0
  6 32  1  0  0  0  0
  7  8  2  0  0  0  0
  8  9  1  0  0  0  0
  8 10  1  0  0  0  0
  9 33  1  0  0  0  0
  9 34  1  0  0  0  0
 10 11  1  0  0  0  0
 11 12  1  0  0  0  0
 12 13  1  0  0  0  0
 12 28  2  0  0  0  0
 13 14  2  0  0  0  0
 13 35  1  0  0  0  0
 14 15  1  0  0  0  0
 14 36  1  0  0  0  0
 15 16  1  0  0  0  0
 15 27  2  0  0  0  0
 16 17  1  0  0  0  0
 16 37  1  0  0  0  0
 17 18  2  0  0  0  0
 17 19  1  0  0  0  0
 19 20  1  0  0  0  0
 19 38  1  0  0  0  0
 20 21  1  0  0  0  0
 20 26  2  0  0  0  0
 21 22  2  0  0  0  0
 21 39  1  0  0  0  0
 22 23  1  0  0  0  0
 22 40  1  0  0  0  0
 23 24  1  0  0  0  0
 23 25  2  0  0  0  0
 25 26  1  0  0  0  0
 25 41  1  0  0  0  0
 26 42  1  0  0  0  0
 27 28  1  0  0  0  0
 27 43  1  0  0  0  0
 28 44  1  0  0  0  0
M  END
$$$$
