CHEMBL1980763
 OpenBabel04072215363D

 51 54  0  0  0  0  0  0  0  0999 V2000
    2.7326   -0.3408   -1.9137 C   0  0  0  0  0  0  0  0  0  0  0  0
    2.4050   -0.1751   -0.4273 C   0  0  0  0  0  0  0  0  0  0  0  0
    0.8896   -0.0951   -0.2349 C   0  0  0  0  0  0  0  0  0  0  0  0
    2.9920   -1.3211    0.4252 C   0  0  0  0  0  0  0  0  0  0  0  0
    4.4947   -1.3855    0.3633 C   0  0  0  0  0  0  0  0  0  0  0  0
    5.1590   -0.2509    0.6951 N   0  0  0  0  0  0  0  0  0  0  0  0
    6.5019   -0.1736    0.6283 C   0  0  0  0  0  0  0  0  0  0  0  0
    7.1123    1.0397    0.9500 N   0  0  0  0  0  0  0  0  0  0  0  0
    6.5857    2.1598    1.6057 C   0  0  0  0  0  0  0  0  0  0  0  0
    7.1303    3.4203    1.3771 C   0  0  0  0  0  0  0  0  0  0  0  0
    6.5633    4.5689    1.9580 C   0  0  0  0  0  0  0  0  0  0  0  0
    5.4192    4.5227    2.7793 C   0  0  0  0  0  0  0  0  0  0  0  0
    4.9217    5.6825    3.3493 N   0  0  0  0  0  0  0  0  0  0  0  0
    5.0215    7.0088    2.7203 C   0  0  0  0  0  0  0  0  0  0  0  0
    5.7922    7.9733    3.6347 C   0  0  0  0  0  0  0  0  0  0  0  0
    5.1975    8.0483    4.9412 O   0  0  0  0  0  0  0  0  0  0  0  0
    5.1974    6.7521    5.5580 C   0  0  0  0  0  0  0  0  0  0  0  0
    4.4147    5.7185    4.7328 C   0  0  0  0  0  0  0  0  0  0  0  0
    4.8551    3.2409    2.9580 C   0  0  0  0  0  0  0  0  0  0  0  0
    3.3309    2.9657    3.7517 Cl  0  0  0  0  0  0  0  0  0  0  0  0
    5.4432    2.0951    2.4024 C   0  0  0  0  0  0  0  0  0  0  0  0
    7.3053   -1.1716    0.2284 N   0  0  0  0  0  0  0  0  0  0  0  0
    6.6314   -2.2974   -0.0540 C   0  0  0  0  0  0  0  0  0  0  0  0
    7.2110   -3.4753   -0.4427 N   0  0  0  0  0  0  0  0  0  0  0  0
    6.2408   -4.4251   -0.6453 C   0  0  0  0  0  0  0  0  0  0  0  0
    5.0182   -3.8393   -0.3930 C   0  0  0  0  0  0  0  0  0  0  0  0
    5.2587   -2.4915   -0.0130 C   0  0  0  0  0  0  0  0  0  0  0  0
    2.2907    0.4722   -2.4997 H   0  0  0  0  0  0  0  0  0  0  0  0
    2.3468   -1.2891   -2.3010 H   0  0  0  0  0  0  0  0  0  0  0  0
    3.8129   -0.3136   -2.0887 H   0  0  0  0  0  0  0  0  0  0  0  0
    2.8296    0.7818   -0.0957 H   0  0  0  0  0  0  0  0  0  0  0  0
    0.4106   -1.0591   -0.4357 H   0  0  0  0  0  0  0  0  0  0  0  0
    0.4471    0.6481   -0.9079 H   0  0  0  0  0  0  0  0  0  0  0  0
    0.6444    0.1999    0.7909 H   0  0  0  0  0  0  0  0  0  0  0  0
    2.5618   -2.2791    0.1124 H   0  0  0  0  0  0  0  0  0  0  0  0
    2.7098   -1.1748    1.4756 H   0  0  0  0  0  0  0  0  0  0  0  0
    8.0833    1.0453    0.6810 H   0  0  0  0  0  0  0  0  0  0  0  0
    7.9953    3.5351    0.7284 H   0  0  0  0  0  0  0  0  0  0  0  0
    7.0596    5.5146    1.7586 H   0  0  0  0  0  0  0  0  0  0  0  0
    4.0009    7.3874    2.5851 H   0  0  0  0  0  0  0  0  0  0  0  0
    5.4775    6.9861    1.7257 H   0  0  0  0  0  0  0  0  0  0  0  0
    5.7751    8.9819    3.2108 H   0  0  0  0  0  0  0  0  0  0  0  0
    6.8405    7.6698    3.7390 H   0  0  0  0  0  0  0  0  0  0  0  0
    4.7418    6.8514    6.5485 H   0  0  0  0  0  0  0  0  0  0  0  0
    6.2346    6.4259    5.7004 H   0  0  0  0  0  0  0  0  0  0  0  0
    3.3544    5.9971    4.7028 H   0  0  0  0  0  0  0  0  0  0  0  0
    4.5126    4.7629    5.2542 H   0  0  0  0  0  0  0  0  0  0  0  0
    4.9749    1.1347    2.6016 H   0  0  0  0  0  0  0  0  0  0  0  0
    8.2074   -3.6048   -0.5464 H   0  0  0  0  0  0  0  0  0  0  0  0
    6.5038   -5.4297   -0.9501 H   0  0  0  0  0  0  0  0  0  0  0  0
    4.0570   -4.3306   -0.4683 H   0  0  0  0  0  0  0  0  0  0  0  0
  1  2  1  0  0  0  0
  1 28  1  0  0  0  0
  1 29  1  0  0  0  0
  1 30  1  0  0  0  0
  2  3  1  0  0  0  0
  2  4  1  0  0  0  0
  2 31  1  0  0  0  0
  3 32  1  0  0  0  0
  3 33  1  0  0  0  0
  3 34  1  0  0  0  0
  4  5  1  0  0  0  0
  4 35  1  0  0  0  0
  4 36  1  0  0  0  0
  5  6  1  0  0  0  0
  5 27  2  0  0  0  0
  6  7  2  0  0  0  0
  7  8  1  0  0  0  0
  7 22  1  0  0  0  0
  8  9  1  0  0  0  0
  8 37  1  0  0  0  0
  9 10  1  0  0  0  0
  9 21  2  0  0  0  0
 10 11  2  0  0  0  0
 10 38  1  0  0  0  0
 11 12  1  0  0  0  0
 11 39  1  0  0  0  0
 12 13  1  0  0  0  0
 12 19  2  0  0  0  0
 13 14  1  0  0  0  0
 13 18  1  0  0  0  0
 14 15  1  0  0  0  0
 14 40  1  0  0  0  0
 14 41  1  0  0  0  0
 15 16  1  0  0  0  0
 15 42  1  0  0  0  0
 15 43  1  0  0  0  0
 16 17  1  0  0  0  0
 17 18  1  0  0  0  0
 17 44  1  0  0  0  0
 17 45  1  0  0  0  0
 18 46  1  0  0  0  0
 18 47  1  0  0  0  0
 19 20  1  0  0  0  0
 19 21  1  0  0  0  0
 21 48  1  0  0  0  0
 22 23  2  0  0  0  0
 23 24  1  0  0  0  0
 23 27  1  0  0  0  0
 24 25  1  0  0  0  0
 24 49  1  0  0  0  0
 25 26  2  0  0  0  0
 25 50  1  0  0  0  0
 26 27  1  0  0  0  0
 26 51  1  0  0  0  0
M  END
$$$$
