CHEMBL3690418
 OpenBabel04072215373D

 75 78  0  0  1  0  0  0  0  0999 V2000
    4.3803   -1.4235    0.2574 C   0  0  0  0  0  0  0  0  0  0  0  0
    3.2194   -0.4308    0.1042 C   0  0  0  0  0  0  0  0  0  0  0  0
    2.6632   -0.3868   -1.3286 C   0  0  0  0  0  0  0  0  0  0  0  0
    2.0844   -0.8924    1.0313 C   0  0  0  0  0  0  0  0  0  0  0  0
    3.6144    0.8937    0.5669 O   0  0  0  0  0  0  0  0  0  0  0  0
    4.5965    1.5489   -0.1186 C   0  0  0  0  0  0  0  0  0  0  0  0
    5.1760    1.0856   -1.0980 O   0  0  0  0  0  0  0  0  0  0  0  0
    4.9111    2.7932    0.3930 N   0  0  0  0  0  0  0  0  0  0  0  0
    5.8532    3.6344   -0.3376 C   0  0  0  0  0  0  0  0  0  0  0  0
    6.9056    4.2088    0.6007 C   0  0  0  0  0  0  0  0  0  0  0  0
    6.2580    4.9454    1.7745 C   0  0  0  0  0  0  0  0  0  0  0  0
    5.5457    6.1368    1.2850 N   0  0  0  0  0  0  0  0  0  0  0  0
    6.2370    7.2155    1.1761 C   0  0  0  0  0  0  0  0  0  0  0  0
    5.5375    8.5006    0.7591 C   0  0  3  0  0  0  0  0  0  0  0  0
    4.9879    9.2113    1.9892 C   0  0  0  0  0  0  0  0  0  0  0  0
    4.8230   10.4903    2.1192 N   0  0  0  0  0  0  0  0  0  0  0  0
    6.4137    9.3820   -0.1117 C   0  0  0  0  0  0  0  0  0  0  0  0
    7.6155    9.9898    0.4656 C   0  0  0  0  0  0  0  0  0  0  0  0
    8.3158   10.8911   -0.2444 C   0  0  0  0  0  0  0  0  0  0  0  0
    7.9293   11.2136   -1.5502 N   0  0  0  0  0  0  0  0  0  0  0  0
    8.4734   12.0982   -2.4863 C   0  0  0  0  0  0  0  0  0  0  0  0
    9.6912   12.9080   -2.3344 C   0  0  0  0  0  0  0  0  0  0  0  0
   10.8154   12.4083   -1.6840 C   0  0  0  0  0  0  0  0  0  0  0  0
   11.9527   13.0988   -1.4727 N   0  0  0  0  0  0  0  0  0  0  0  0
   12.0081   14.3496   -1.9873 C   0  0  0  0  0  0  0  0  0  0  0  0
   10.9836   14.9497   -2.7174 C   0  0  0  0  0  0  0  0  0  0  0  0
   11.0766   16.2494   -3.2824 N   0  0  0  0  0  0  0  0  0  0  0  0
   12.1862   17.0662   -3.2243 C   0  0  0  0  0  0  0  0  0  0  0  0
   13.2622   16.7953   -2.7196 O   0  0  0  0  0  0  0  0  0  0  0  0
   11.9698   18.3146   -3.7622 N   0  0  0  0  0  0  0  0  0  0  0  0
   13.0909   19.2696   -3.7648 C   0  0  0  0  0  0  0  0  0  0  0  0
   14.1760   19.0508   -4.8322 C   0  0  0  0  0  0  0  0  0  0  0  0
   13.8390   18.0823   -5.7140 F   0  0  0  0  0  0  0  0  0  0  0  0
   14.3485   20.1898   -5.5507 F   0  0  0  0  0  0  0  0  0  0  0  0
   15.3722   18.7354   -4.2938 F   0  0  0  0  0  0  0  0  0  0  0  0
    9.8027   14.2044   -2.8773 C   0  0  0  0  0  0  0  0  0  0  0  0
    7.6082   12.0083   -3.5671 C   0  0  0  0  0  0  0  0  0  0  0  0
    6.5967   11.1122   -3.3500 N   0  0  0  0  0  0  0  0  0  0  0  0
    6.8068   10.6376   -2.1436 C   0  0  0  0  0  0  0  0  0  0  0  0
    6.0526    9.6992   -1.3775 C   0  0  0  0  0  0  0  0  0  0  0  0
    5.2397    4.0366    2.4834 C   0  0  0  0  0  0  0  0  0  0  0  0
    4.2259    3.4295    1.5119 C   0  0  0  0  0  0  0  0  0  0  0  0
    4.0804   -2.4350   -0.0322 H   0  0  0  0  0  0  0  0  0  0  0  0
    4.7259   -1.4483    1.2980 H   0  0  0  0  0  0  0  0  0  0  0  0
    5.2511   -1.1545   -0.3462 H   0  0  0  0  0  0  0  0  0  0  0  0
    2.2925   -1.3685   -1.6422 H   0  0  0  0  0  0  0  0  0  0  0  0
    3.4078   -0.0751   -2.0650 H   0  0  0  0  0  0  0  0  0  0  0  0
    1.8408    0.3346   -1.3989 H   0  0  0  0  0  0  0  0  0  0  0  0
    1.7468   -1.9028    0.7712 H   0  0  0  0  0  0  0  0  0  0  0  0
    1.2233   -0.2181    0.9720 H   0  0  0  0  0  0  0  0  0  0  0  0
    2.4074   -0.8985    2.0785 H   0  0  0  0  0  0  0  0  0  0  0  0
    5.2797    4.4316   -0.8250 H   0  0  0  0  0  0  0  0  0  0  0  0
    6.3526    3.0729   -1.1345 H   0  0  0  0  0  0  0  0  0  0  0  0
    7.5737    4.8732    0.0424 H   0  0  0  0  0  0  0  0  0  0  0  0
    7.5194    3.3868    0.9921 H   0  0  0  0  0  0  0  0  0  0  0  0
    7.0308    5.2289    2.5007 H   0  0  0  0  0  0  0  0  0  0  0  0
    7.3032    7.2718    1.4579 H   0  0  0  0  0  0  0  0  0  0  0  0
    4.6452    8.1899    0.1960 H   0  0  0  0  0  0  0  0  0  0  0  0
    4.6467    8.5658    2.8180 H   0  0  0  0  0  0  0  0  0  0  0  0
    5.1245   11.0000    1.2792 H   0  0  0  0  0  0  0  0  0  0  0  0
    7.9123    9.7432    1.4814 H   0  0  0  0  0  0  0  0  0  0  0  0
    9.1751   11.3923    0.1795 H   0  0  0  0  0  0  0  0  0  0  0  0
   10.8555   11.3920   -1.3048 H   0  0  0  0  0  0  0  0  0  0  0  0
   12.9471   14.8459   -1.7724 H   0  0  0  0  0  0  0  0  0  0  0  0
   10.2649   16.6010   -3.7708 H   0  0  0  0  0  0  0  0  0  0  0  0
   11.2809   18.4041   -4.4955 H   0  0  0  0  0  0  0  0  0  0  0  0
   13.5627   19.2457   -2.7747 H   0  0  0  0  0  0  0  0  0  0  0  0
   12.6497   20.2638   -3.8841 H   0  0  0  0  0  0  0  0  0  0  0  0
    8.9648   14.6290   -3.4251 H   0  0  0  0  0  0  0  0  0  0  0  0
    7.6761   12.5386   -4.5083 H   0  0  0  0  0  0  0  0  0  0  0  0
    5.1553    9.2959   -1.8374 H   0  0  0  0  0  0  0  0  0  0  0  0
    4.7115    4.5913    3.2665 H   0  0  0  0  0  0  0  0  0  0  0  0
    5.7837    3.2193    2.9749 H   0  0  0  0  0  0  0  0  0  0  0  0
    3.5699    4.2061    1.1003 H   0  0  0  0  0  0  0  0  0  0  0  0
    3.5882    2.7161    2.0414 H   0  0  0  0  0  0  0  0  0  0  0  0
  1  2  1  0  0  0  0
  1 43  1  0  0  0  0
  1 44  1  0  0  0  0
  1 45  1  0  0  0  0
  2  3  1  0  0  0  0
  2  4  1  0  0  0  0
  2  5  1  0  0  0  0
  3 46  1  0  0  0  0
  3 47  1  0  0  0  0
  3 48  1  0  0  0  0
  4 49  1  0  0  0  0
  4 50  1  0  0  0  0
  4 51  1  0  0  0  0
  5  6  1  0  0  0  0
  6  7  2  0  0  0  0
  6  8  1  0  0  0  0
  8  9  1  0  0  0  0
  8 42  1  0  0  0  0
  9 10  1  0  0  0  0
  9 52  1  0  0  0  0
  9 53  1  0  0  0  0
 10 11  1  0  0  0  0
 10 54  1  0  0  0  0
 10 55  1  0  0  0  0
 11 12  1  0  0  0  0
 11 41  1  0  0  0  0
 11 56  1  0  0  0  0
 12 13  2  0  0  0  0
 13 14  1  0  0  0  0
 13 57  1  0  0  0  0
 14 15  1  0  0  0  0
 14 17  1  0  0  0  0
 14 58  1  0  0  0  0
 15 16  2  0  0  0  0
 15 59  1  0  0  0  0
 16 60  1  0  0  0  0
 17 18  1  0  0  0  0
 17 40  2  0  0  0  0
 18 19  2  0  0  0  0
 18 61  1  0  0  0  0
 19 20  1  0  0  0  0
 19 62  1  0  0  0  0
 20 21  1  0  0  0  0
 20 39  1  0  0  0  0
 21 22  1  0  0  0  0
 21 37  2  0  0  0  0
 22 23  1  0  0  0  0
 22 36  2  0  0  0  0
 23 24  2  0  0  0  0
 23 63  1  0  0  0  0
 24 25  1  0  0  0  0
 25 26  2  0  0  0  0
 25 64  1  0  0  0  0
 26 27  1  0  0  0  0
 26 36  1  0  0  0  0
 27 28  1  0  0  0  0
 27 65  1  0  0  0  0
 28 29  2  0  0  0  0
 28 30  1  0  0  0  0
 30 31  1  0  0  0  0
 30 66  1  0  0  0  0
 31 32  1  0  0  0  0
 31 67  1  0  0  0  0
 31 68  1  0  0  0  0
 32 33  1  0  0  0  0
 32 34  1  0  0  0  0
 32 35  1  0  0  0  0
 36 69  1  0  0  0  0
 37 38  1  0  0  0  0
 37 70  1  0  0  0  0
 38 39  2  0  0  0  0
 39 40  1  0  0  0  0
 40 71  1  0  0  0  0
 41 42  1  0  0  0  0
 41 72  1  0  0  0  0
 41 73  1  0  0  0  0
 42 74  1  0  0  0  0
 42 75  1  0  0  0  0
M  END
$$$$
