CHEMBL3939278
 OpenBabel04072215373D

 60 63  0  0  0  0  0  0  0  0999 V2000
    1.0378   -4.7847   -0.5115 C   0  0  0  0  0  0  0  0  0  0  0  0
    2.5436   -4.7819   -0.5008 C   0  0  0  0  0  0  0  0  0  0  0  0
    2.9867   -3.5032   -1.0657 N   0  0  0  0  0  0  0  0  0  0  0  0
    4.4356   -3.4929   -1.0588 C   0  0  0  0  0  0  0  0  0  0  0  0
    5.1061   -2.2219   -1.6206 C   0  0  0  0  0  0  0  0  0  0  0  0
    6.6346   -2.2302   -1.6027 N   0  0  0  0  0  0  0  0  0  0  0  0
    7.3055   -1.2375   -0.8730 C   0  0  0  0  0  0  0  0  0  0  0  0
    6.5709   -0.2754   -0.1876 C   0  0  0  0  0  0  0  0  0  0  0  0
    7.0870    0.6567    0.6715 C   0  0  0  0  0  0  0  0  0  0  0  0
    6.3214    1.5685    1.3380 O   0  0  0  0  0  0  0  0  0  0  0  0
    5.1147    1.9914    0.6840 C   0  0  0  0  0  0  0  0  0  0  0  0
    8.4281    0.5639    0.9466 C   0  0  0  0  0  0  0  0  0  0  0  0
    9.2052   -0.4512    0.3765 C   0  0  0  0  0  0  0  0  0  0  0  0
   10.4662   -0.7560    0.8234 O   0  0  0  0  0  0  0  0  0  0  0  0
   10.9361    0.0391    1.9188 C   0  0  0  0  0  0  0  0  0  0  0  0
    8.6749   -1.2579   -0.6402 C   0  0  0  0  0  0  0  0  0  0  0  0
    7.3119   -3.2640   -2.3254 C   0  0  0  0  0  0  0  0  0  0  0  0
    6.6822   -3.7451   -3.4165 C   0  0  0  0  0  0  0  0  0  0  0  0
    7.3846   -4.6081   -4.1732 C   0  0  0  0  0  0  0  0  0  0  0  0
    8.5719   -5.2106   -3.8647 C   0  0  0  0  0  0  0  0  0  0  0  0
    8.1924   -6.3832   -4.1383 N   0  0  0  0  0  0  0  0  0  0  0  0
    8.6824   -6.6768   -5.3833 C   0  0  0  0  0  0  0  0  0  0  0  0
    9.9396   -6.9902   -5.5304 C   0  0  0  0  0  0  0  0  0  0  0  0
    9.3273   -8.2465   -6.7411 C   0  0  0  0  0  0  0  0  0  0  0  0
    8.1714   -9.2058   -7.1705 C   0  0  0  0  0  0  0  0  0  0  0  0
    8.2279   -9.8715   -8.3739 N   0  0  0  0  0  0  0  0  0  0  0  0
    9.3552   -9.4563   -8.9630 N   0  0  0  0  0  0  0  0  0  0  0  0
    9.6919   -9.8787  -10.3691 C   0  0  0  0  0  0  0  0  0  0  0  0
   10.0342   -8.5505   -8.0426 C   0  0  0  0  0  0  0  0  0  0  0  0
   10.4548   -6.1816   -4.1754 N   0  0  0  0  0  0  0  0  0  0  0  0
    9.5928   -4.9976   -3.1280 C   0  0  0  0  0  0  0  0  0  0  0  0
    8.7245   -3.8352   -2.1265 C   0  0  0  0  0  0  0  0  0  0  0  0
    0.6611   -5.7125   -0.0762 H   0  0  0  0  0  0  0  0  0  0  0  0
    0.6621   -4.7005   -1.5365 H   0  0  0  0  0  0  0  0  0  0  0  0
    0.6573   -3.9424    0.0733 H   0  0  0  0  0  0  0  0  0  0  0  0
    2.9101   -5.6381   -1.0877 H   0  0  0  0  0  0  0  0  0  0  0  0
    2.9159   -4.8956    0.5238 H   0  0  0  0  0  0  0  0  0  0  0  0
    2.6592   -2.7256   -0.5057 H   0  0  0  0  0  0  0  0  0  0  0  0
    4.6005   -4.3249   -1.7190 H   0  0  0  0  0  0  0  0  0  0  0  0
    4.8501   -3.7232   -0.0679 H   0  0  0  0  0  0  0  0  0  0  0  0
    4.7036   -1.3976   -1.0149 H   0  0  0  0  0  0  0  0  0  0  0  0
    4.7515   -2.0707   -2.6505 H   0  0  0  0  0  0  0  0  0  0  0  0
    5.5080   -0.2956   -0.2534 H   0  0  0  0  0  0  0  0  0  0  0  0
    4.6040    2.7019    1.3361 H   0  0  0  0  0  0  0  0  0  0  0  0
    4.4208    1.1567    0.5079 H   0  0  0  0  0  0  0  0  0  0  0  0
    5.3364    2.5042   -0.2603 H   0  0  0  0  0  0  0  0  0  0  0  0
    8.8522    1.2755    1.6359 H   0  0  0  0  0  0  0  0  0  0  0  0
   11.9214   -0.3283    2.2111 H   0  0  0  0  0  0  0  0  0  0  0  0
   10.2854   -0.0192    2.8046 H   0  0  0  0  0  0  0  0  0  0  0  0
   11.0521    1.0818    1.6036 H   0  0  0  0  0  0  0  0  0  0  0  0
    9.3126   -1.9200   -1.2208 H   0  0  0  0  0  0  0  0  0  0  0  0
    5.6885   -3.5237   -3.7685 H   0  0  0  0  0  0  0  0  0  0  0  0
    6.9015   -5.0574   -5.0337 H   0  0  0  0  0  0  0  0  0  0  0  0
    7.8712   -6.8096   -6.0048 H   0  0  0  0  0  0  0  0  0  0  0  0
    7.2585   -9.5038   -6.6630 H   0  0  0  0  0  0  0  0  0  0  0  0
    8.9942  -10.6273  -10.8102 H   0  0  0  0  0  0  0  0  0  0  0  0
   10.6962  -10.3241  -10.4362 H   0  0  0  0  0  0  0  0  0  0  0  0
    9.6563   -9.0073  -11.0386 H   0  0  0  0  0  0  0  0  0  0  0  0
   10.9706   -8.2315   -8.4612 H   0  0  0  0  0  0  0  0  0  0  0  0
    9.0041   -3.4920   -1.0648 H   0  0  0  0  0  0  0  0  0  0  0  0
  1  2  1  0  0  0  0
  1 33  1  0  0  0  0
  1 34  1  0  0  0  0
  1 35  1  0  0  0  0
  2  3  1  0  0  0  0
  2 36  1  0  0  0  0
  2 37  1  0  0  0  0
  3  4  1  0  0  0  0
  3 38  1  0  0  0  0
  4  5  1  0  0  0  0
  4 39  1  0  0  0  0
  4 40  1  0  0  0  0
  5  6  1  0  0  0  0
  5 41  1  0  0  0  0
  5 42  1  0  0  0  0
  6  7  1  0  0  0  0
  6 17  1  0  0  0  0
  7  8  1  0  0  0  0
  7 16  2  0  0  0  0
  8  9  2  0  0  0  0
  8 43  1  0  0  0  0
  9 10  1  0  0  0  0
  9 12  1  0  0  0  0
 10 11  1  0  0  0  0
 11 44  1  0  0  0  0
 11 45  1  0  0  0  0
 11 46  1  0  0  0  0
 12 13  2  0  0  0  0
 12 47  1  0  0  0  0
 13 14  1  0  0  0  0
 13 16  1  0  0  0  0
 14 15  1  0  0  0  0
 15 48  1  0  0  0  0
 15 49  1  0  0  0  0
 15 50  1  0  0  0  0
 16 51  1  0  0  0  0
 17 18  1  0  0  0  0
 17 32  2  0  0  0  0
 18 19  2  0  0  0  0
 18 52  1  0  0  0  0
 19 20  1  0  0  0  0
 19 53  1  0  0  0  0
 20 21  1  0  0  0  0
 20 31  2  0  0  0  0
 21 22  2  0  0  0  0
 22 23  1  0  0  0  0
 22 54  1  0  0  0  0
 23 24  1  0  0  0  0
 23 30  2  0  0  0  0
 24 25  1  0  0  0  0
 24 29  2  0  0  0  0
 25 26  2  0  0  0  0
 25 55  1  0  0  0  0
 26 27  1  0  0  0  0
 27 28  1  0  0  0  0
 27 29  1  0  0  0  0
 28 56  1  0  0  0  0
 28 57  1  0  0  0  0
 28 58  1  0  0  0  0
 29 59  1  0  0  0  0
 30 31  1  0  0  0  0
 31 32  1  0  0  0  0
 32 60  1  0  0  0  0
M  END
$$$$
