CHEMBL3961158
 OpenBabel04072215373D

 54 57  0  0  0  0  0  0  0  0999 V2000
    3.1989   -0.2565   -0.0938 C   0  0  0  0  0  0  0  0  0  0  0  0
    1.7056   -0.0896   -0.1557 C   0  0  0  0  0  0  0  0  0  0  0  0
    0.9432   -1.2787   -0.2304 C   0  0  0  0  0  0  0  0  0  0  0  0
   -0.4527   -1.2623   -0.1751 C   0  0  0  0  0  0  0  0  0  0  0  0
   -1.2277   -2.3998   -0.2617 O   0  0  0  0  0  0  0  0  0  0  0  0
   -0.7992   -3.5289    0.4302 C   0  0  0  0  0  0  0  0  0  0  0  0
   -1.2530   -4.7543   -0.0172 C   0  0  0  0  0  0  0  0  0  0  0  0
   -0.8041   -5.8542    0.6811 C   0  0  0  0  0  0  0  0  0  0  0  0
   -1.2512   -7.1374    0.3075 N   0  0  0  0  0  0  0  0  0  0  0  0
   -0.9195   -8.2949    0.9876 C   0  0  0  0  0  0  0  0  0  0  0  0
   -0.1700   -8.3955    1.9498 O   0  0  0  0  0  0  0  0  0  0  0  0
   -1.5439   -9.5624    0.5018 C   0  0  0  0  0  0  0  0  0  0  0  0
   -1.1955  -10.0851   -0.8719 C   0  0  0  0  0  0  0  0  0  0  0  0
   -2.6120   -9.7043   -0.5498 C   0  0  0  0  0  0  0  0  0  0  0  0
    0.0340   -5.7311    1.7176 N   0  0  0  0  0  0  0  0  0  0  0  0
    0.3919   -4.5005    2.0864 C   0  0  0  0  0  0  0  0  0  0  0  0
    0.0008   -3.3757    1.4999 N   0  0  0  0  0  0  0  0  0  0  0  0
   -1.0922   -0.0379   -0.0930 C   0  0  0  0  0  0  0  0  0  0  0  0
   -2.4318    0.0272   -0.0490 F   0  0  0  0  0  0  0  0  0  0  0  0
   -0.3630    1.1505   -0.0604 C   0  0  0  0  0  0  0  0  0  0  0  0
    1.0391    1.1579   -0.1146 C   0  0  0  0  0  0  0  0  0  0  0  0
    1.7748    2.3802   -0.1410 N   0  0  0  0  0  0  0  0  0  0  0  0
    1.2358    3.6470   -0.3586 C   0  0  0  0  0  0  0  0  0  0  0  0
    0.0453    3.8913   -0.5032 O   0  0  0  0  0  0  0  0  0  0  0  0
    2.2070    4.6371   -0.4729 N   0  0  0  0  0  0  0  0  0  0  0  0
    1.8344    5.9806   -0.7546 C   0  0  0  0  0  0  0  0  0  0  0  0
    2.5018    6.6578   -1.7701 C   0  0  0  0  0  0  0  0  0  0  0  0
    2.1039    7.9494   -2.1243 C   0  0  0  0  0  0  0  0  0  0  0  0
    1.0748    8.6043   -1.4344 C   0  0  0  0  0  0  0  0  0  0  0  0
    0.6879   10.1965   -1.9754 Cl  0  0  0  0  0  0  0  0  0  0  0  0
    0.4193    7.9672   -0.3771 C   0  0  0  0  0  0  0  0  0  0  0  0
   -0.6750    8.6004    0.4504 C   0  0  0  0  0  0  0  0  0  0  0  0
   -0.9671    9.9031    0.1918 F   0  0  0  0  0  0  0  0  0  0  0  0
   -1.8590    7.9334    0.3355 F   0  0  0  0  0  0  0  0  0  0  0  0
   -0.3714    8.5694    1.7829 F   0  0  0  0  0  0  0  0  0  0  0  0
    0.8049    6.6371   -0.0622 C   0  0  0  0  0  0  0  0  0  0  0  0
    3.4833   -1.3056   -0.2515 H   0  0  0  0  0  0  0  0  0  0  0  0
    3.5679    0.0276    0.8966 H   0  0  0  0  0  0  0  0  0  0  0  0
    3.6983    0.3289   -0.8700 H   0  0  0  0  0  0  0  0  0  0  0  0
    1.4563   -2.2341   -0.3101 H   0  0  0  0  0  0  0  0  0  0  0  0
   -1.9191   -4.8250   -0.8700 H   0  0  0  0  0  0  0  0  0  0  0  0
   -1.8691   -7.2044   -0.4838 H   0  0  0  0  0  0  0  0  0  0  0  0
   -1.5870  -10.3068    1.2955 H   0  0  0  0  0  0  0  0  0  0  0  0
   -0.9441  -11.1377   -0.9482 H   0  0  0  0  0  0  0  0  0  0  0  0
   -0.6300   -9.4491   -1.5430 H   0  0  0  0  0  0  0  0  0  0  0  0
   -3.3286  -10.5106   -0.4184 H   0  0  0  0  0  0  0  0  0  0  0  0
   -3.0376   -8.8373   -1.0348 H   0  0  0  0  0  0  0  0  0  0  0  0
    1.0682   -4.4182    2.9291 H   0  0  0  0  0  0  0  0  0  0  0  0
   -0.9474    2.0599    0.0256 H   0  0  0  0  0  0  0  0  0  0  0  0
    2.7794    2.3166   -0.0538 H   0  0  0  0  0  0  0  0  0  0  0  0
    3.0756    4.3272   -0.8821 H   0  0  0  0  0  0  0  0  0  0  0  0
    3.2854    6.1745   -2.3462 H   0  0  0  0  0  0  0  0  0  0  0  0
    2.5945    8.4428   -2.9614 H   0  0  0  0  0  0  0  0  0  0  0  0
    0.2863    6.1181    0.7459 H   0  0  0  0  0  0  0  0  0  0  0  0
  1  2  1  0  0  0  0
  1 37  1  0  0  0  0
  1 38  1  0  0  0  0
  1 39  1  0  0  0  0
  2  3  1  0  0  0  0
  2 21  2  0  0  0  0
  3  4  2  0  0  0  0
  3 40  1  0  0  0  0
  4  5  1  0  0  0  0
  4 18  1  0  0  0  0
  5  6  1  0  0  0  0
  6  7  1  0  0  0  0
  6 17  2  0  0  0  0
  7  8  2  0  0  0  0
  7 41  1  0  0  0  0
  8  9  1  0  0  0  0
  8 15  1  0  0  0  0
  9 10  1  0  0  0  0
  9 42  1  0  0  0  0
 10 11  2  0  0  0  0
 10 12  1  0  0  0  0
 12 13  1  0  0  0  0
 12 14  1  0  0  0  0
 12 43  1  0  0  0  0
 13 14  1  0  0  0  0
 13 44  1  0  0  0  0
 13 45  1  0  0  0  0
 14 46  1  0  0  0  0
 14 47  1  0  0  0  0
 15 16  2  0  0  0  0
 16 17  1  0  0  0  0
 16 48  1  0  0  0  0
 18 19  1  0  0  0  0
 18 20  2  0  0  0  0
 20 21  1  0  0  0  0
 20 49  1  0  0  0  0
 21 22  1  0  0  0  0
 22 23  1  0  0  0  0
 22 50  1  0  0  0  0
 23 24  2  0  0  0  0
 23 25  1  0  0  0  0
 25 26  1  0  0  0  0
 25 51  1  0  0  0  0
 26 27  1  0  0  0  0
 26 36  2  0  0  0  0
 27 28  2  0  0  0  0
 27 52  1  0  0  0  0
 28 29  1  0  0  0  0
 28 53  1  0  0  0  0
 29 30  1  0  0  0  0
 29 31  2  0  0  0  0
 31 32  1  0  0  0  0
 31 36  1  0  0  0  0
 32 33  1  0  0  0  0
 32 34  1  0  0  0  0
 32 35  1  0  0  0  0
 36 54  1  0  0  0  0
M  END
$$$$
