CHEMBL3125883
 OpenBabel04072215363D

 56 60  0  0  0  0  0  0  0  0999 V2000
    0.7151    0.8018   -0.4898 N   0  0  0  0  0  0  0  0  0  0  0  0
    1.8527    0.6733   -0.7101 C   0  0  0  0  0  0  0  0  0  0  0  0
    3.2415    0.4864   -0.9838 C   0  0  0  0  0  0  0  0  0  0  0  0
    4.2185    1.4041   -0.5690 C   0  0  0  0  0  0  0  0  0  0  0  0
    3.7724    2.5309    0.0846 O   0  0  0  0  0  0  0  0  0  0  0  0
    4.4743    3.7091   -0.0362 C   0  0  0  0  0  0  0  0  0  0  0  0
    4.5242    4.5094    1.1047 C   0  0  0  0  0  0  0  0  0  0  0  0
    5.2620    5.6873    1.0868 C   0  0  0  0  0  0  0  0  0  0  0  0
    5.9585    6.0540   -0.0658 C   0  0  0  0  0  0  0  0  0  0  0  0
    5.8983    5.2688   -1.2229 C   0  0  0  0  0  0  0  0  0  0  0  0
    6.6213    5.5866   -2.3971 N   0  0  0  0  0  0  0  0  0  0  0  0
    7.7777    6.3435   -2.4108 C   0  0  0  0  0  0  0  0  0  0  0  0
    8.3870    6.7028   -1.4075 O   0  0  0  0  0  0  0  0  0  0  0  0
    8.1613    6.6712   -3.7040 N   0  0  0  0  0  0  0  0  0  0  0  0
    9.3394    7.4142   -3.9438 C   0  0  0  0  0  0  0  0  0  0  0  0
   10.5313    7.1257   -3.2727 C   0  0  0  0  0  0  0  0  0  0  0  0
   11.6730    7.8959   -3.4928 C   0  0  0  0  0  0  0  0  0  0  0  0
   11.6210    8.9788   -4.3676 C   0  0  0  0  0  0  0  0  0  0  0  0
   10.4304    9.2901   -5.0417 C   0  0  0  0  0  0  0  0  0  0  0  0
   10.3345   10.5134   -5.9174 C   0  0  0  0  0  0  0  0  0  0  0  0
   11.5085   11.1956   -6.0372 F   0  0  0  0  0  0  0  0  0  0  0  0
    9.9441   10.2154   -7.1867 F   0  0  0  0  0  0  0  0  0  0  0  0
    9.4273   11.4140   -5.4507 F   0  0  0  0  0  0  0  0  0  0  0  0
    9.2987    8.4748   -4.8512 C   0  0  0  0  0  0  0  0  0  0  0  0
    5.0974    4.1248   -1.2215 C   0  0  0  0  0  0  0  0  0  0  0  0
    5.5730    1.1315   -0.7827 C   0  0  0  0  0  0  0  0  0  0  0  0
    5.9647   -0.0035   -1.5004 C   0  0  0  0  0  0  0  0  0  0  0  0
    4.9961   -0.9213   -1.9527 C   0  0  0  0  0  0  0  0  0  0  0  0
    5.2621   -2.0932   -2.6320 N   0  0  0  0  0  0  0  0  0  0  0  0
    4.1455   -2.7285   -2.8501 C   0  0  0  0  0  0  0  0  0  0  0  0
    3.9198   -3.9494   -3.4049 N   0  0  0  0  0  0  0  0  0  0  0  0
    4.9096   -4.8212   -3.7768 C   0  0  0  0  0  0  0  0  0  0  0  0
    6.1190   -4.6888   -3.7351 O   0  0  0  0  0  0  0  0  0  0  0  0
    4.2909   -6.1107   -4.2547 C   0  0  0  0  0  0  0  0  0  0  0  0
    3.8346   -5.6875   -5.7216 C   0  0  0  0  0  0  0  0  0  0  0  0
    4.1314   -7.0584   -5.4400 C   0  0  0  0  0  0  0  0  0  0  0  0
    2.7127   -1.9601   -2.3480 S   0  0  0  0  0  0  0  0  0  0  0  0
    3.6456   -0.6654   -1.6833 C   0  0  0  0  0  0  0  0  0  0  0  0
    4.0024    4.2111    2.0098 H   0  0  0  0  0  0  0  0  0  0  0  0
    5.3163    6.3156    1.9717 H   0  0  0  0  0  0  0  0  0  0  0  0
    6.5405    6.9722   -0.0374 H   0  0  0  0  0  0  0  0  0  0  0  0
    6.4922    4.9829   -3.1988 H   0  0  0  0  0  0  0  0  0  0  0  0
    7.3855    6.8277   -4.3338 H   0  0  0  0  0  0  0  0  0  0  0  0
   10.5853    6.3003   -2.5663 H   0  0  0  0  0  0  0  0  0  0  0  0
   12.5928    7.6625   -2.9624 H   0  0  0  0  0  0  0  0  0  0  0  0
   12.5113    9.5902   -4.5070 H   0  0  0  0  0  0  0  0  0  0  0  0
    8.3714    8.7264   -5.3611 H   0  0  0  0  0  0  0  0  0  0  0  0
    5.0063    3.5250   -2.1205 H   0  0  0  0  0  0  0  0  0  0  0  0
    6.3480    1.7973   -0.4096 H   0  0  0  0  0  0  0  0  0  0  0  0
    7.0161   -0.1941   -1.7047 H   0  0  0  0  0  0  0  0  0  0  0  0
    2.9568   -4.2325   -3.4939 H   0  0  0  0  0  0  0  0  0  0  0  0
    4.9346   -6.8141   -3.7199 H   0  0  0  0  0  0  0  0  0  0  0  0
    4.5408   -5.1461   -6.3459 H   0  0  0  0  0  0  0  0  0  0  0  0
    2.8060   -5.3654   -5.8379 H   0  0  0  0  0  0  0  0  0  0  0  0
    5.0181   -7.4968   -5.8857 H   0  0  0  0  0  0  0  0  0  0  0  0
    3.3031   -7.7610   -5.3817 H   0  0  0  0  0  0  0  0  0  0  0  0
  1  2  3  0  0  0  0
  2  3  1  0  0  0  0
  3  4  1  0  0  0  0
  3 38  2  0  0  0  0
  4  5  1  0  0  0  0
  4 26  2  0  0  0  0
  5  6  1  0  0  0  0
  6  7  1  0  0  0  0
  6 25  2  0  0  0  0
  7  8  2  0  0  0  0
  7 39  1  0  0  0  0
  8  9  1  0  0  0  0
  8 40  1  0  0  0  0
  9 10  2  0  0  0  0
  9 41  1  0  0  0  0
 10 11  1  0  0  0  0
 10 25  1  0  0  0  0
 11 12  1  0  0  0  0
 11 42  1  0  0  0  0
 12 13  2  0  0  0  0
 12 14  1  0  0  0  0
 14 15  1  0  0  0  0
 14 43  1  0  0  0  0
 15 16  1  0  0  0  0
 15 24  2  0  0  0  0
 16 17  2  0  0  0  0
 16 44  1  0  0  0  0
 17 18  1  0  0  0  0
 17 45  1  0  0  0  0
 18 19  2  0  0  0  0
 18 46  1  0  0  0  0
 19 20  1  0  0  0  0
 19 24  1  0  0  0  0
 20 21  1  0  0  0  0
 20 22  1  0  0  0  0
 20 23  1  0  0  0  0
 24 47  1  0  0  0  0
 25 48  1  0  0  0  0
 26 27  1  0  0  0  0
 26 49  1  0  0  0  0
 27 28  2  0  0  0  0
 27 50  1  0  0  0  0
 28 29  1  0  0  0  0
 28 38  1  0  0  0  0
 29 30  2  0  0  0  0
 30 31  1  0  0  0  0
 30 37  1  0  0  0  0
 31 32  1  0  0  0  0
 31 51  1  0  0  0  0
 32 33  2  0  0  0  0
 32 34  1  0  0  0  0
 34 35  1  0  0  0  0
 34 36  1  0  0  0  0
 34 52  1  0  0  0  0
 35 36  1  0  0  0  0
 35 53  1  0  0  0  0
 35 54  1  0  0  0  0
 36 55  1  0  0  0  0
 36 56  1  0  0  0  0
 37 38  1  0  0  0  0
M  END
$$$$
