CHEMBL3918564
 OpenBabel04072215373D

 77 80  0  0  0  0  0  0  0  0999 V2000
    6.7427   -3.3029   -3.9487 C   0  0  0  0  0  0  0  0  0  0  0  0
    6.2611   -4.5872   -3.5517 O   0  0  0  0  0  0  0  0  0  0  0  0
    5.0525   -4.5918   -2.9237 C   0  0  0  0  0  0  0  0  0  0  0  0
    4.3845   -3.5969   -2.6629 O   0  0  0  0  0  0  0  0  0  0  0  0
    4.6203   -6.0172   -2.5948 C   0  0  0  0  0  0  0  0  0  0  0  0
    5.0762   -6.4645   -1.2570 N   0  0  0  0  0  0  0  0  0  0  0  0
    4.5659   -5.6253   -0.1519 C   0  0  0  0  0  0  0  0  0  0  0  0
    3.0402   -5.5709    0.0027 C   0  0  0  0  0  0  0  0  0  0  0  0
    2.6218   -4.6805    1.1694 C   0  0  0  0  0  0  0  0  0  0  0  0
    1.1785   -4.6483    1.2927 N   0  0  0  0  0  0  0  0  0  0  0  0
    0.4708   -5.6380    1.9478 C   0  0  0  0  0  0  0  0  0  0  0  0
    1.0417   -6.5362    2.5575 O   0  0  0  0  0  0  0  0  0  0  0  0
   -0.9783   -5.5502    1.8516 C   0  0  0  0  0  0  0  0  0  0  0  0
   -1.8953   -6.3387    2.5185 C   0  0  0  0  0  0  0  0  0  0  0  0
   -3.2440   -6.0068    2.2105 C   0  0  0  0  0  0  0  0  0  0  0  0
   -4.3398   -6.6134    2.7411 N   0  0  0  0  0  0  0  0  0  0  0  0
   -5.5285   -6.1281    2.3423 C   0  0  0  0  0  0  0  0  0  0  0  0
   -5.7053   -5.1081    1.4306 C   0  0  0  0  0  0  0  0  0  0  0  0
   -4.5815   -4.5522    0.8206 C   0  0  0  0  0  0  0  0  0  0  0  0
   -4.6506   -3.5806   -0.1508 O   0  0  0  0  0  0  0  0  0  0  0  0
   -5.6254   -3.6784   -1.1147 C   0  0  0  0  0  0  0  0  0  0  0  0
   -6.0824   -2.4728   -1.6288 C   0  0  0  0  0  0  0  0  0  0  0  0
   -7.1052   -2.4652   -2.5765 C   0  0  0  0  0  0  0  0  0  0  0  0
   -7.6775   -3.6570   -3.0331 C   0  0  0  0  0  0  0  0  0  0  0  0
   -8.7442   -3.7075   -3.9556 N   0  0  0  0  0  0  0  0  0  0  0  0
   -9.2526   -2.6272   -4.6441 C   0  0  0  0  0  0  0  0  0  0  0  0
   -8.7905   -1.4917   -4.6138 O   0  0  0  0  0  0  0  0  0  0  0  0
  -10.3902   -2.9599   -5.3697 N   0  0  0  0  0  0  0  0  0  0  0  0
  -11.0332   -1.9279   -6.1007 C   0  0  0  0  0  0  0  0  0  0  0  0
  -10.3051   -1.0859   -6.9493 C   0  0  0  0  0  0  0  0  0  0  0  0
  -10.9060    0.0416   -7.5196 C   0  0  0  0  0  0  0  0  0  0  0  0
  -10.1034    0.9767   -8.3754 C   0  0  0  0  0  0  0  0  0  0  0  0
  -12.2477    0.3190   -7.2261 C   0  0  0  0  0  0  0  0  0  0  0  0
  -12.9917   -0.5496   -6.4224 C   0  0  0  0  0  0  0  0  0  0  0  0
  -12.3869   -1.6809   -5.8859 C   0  0  0  0  0  0  0  0  0  0  0  0
  -13.0915   -2.4865   -5.0761 F   0  0  0  0  0  0  0  0  0  0  0  0
   -7.1811   -4.8664   -2.5442 C   0  0  0  0  0  0  0  0  0  0  0  0
   -6.1402   -4.8794   -1.6095 C   0  0  0  0  0  0  0  0  0  0  0  0
   -3.3255   -4.9812    1.2715 C   0  0  0  0  0  0  0  0  0  0  0  0
   -1.7608   -4.4268    0.8274 S   0  0  0  0  0  0  0  0  0  0  0  0
    4.7309   -7.8927   -1.0312 C   0  0  0  0  0  0  0  0  0  0  0  0
    5.4084   -8.8448   -2.0205 C   0  0  0  0  0  0  0  0  0  0  0  0
    6.5017   -8.6854   -2.5456 O   0  0  0  0  0  0  0  0  0  0  0  0
    4.5918   -9.9255   -2.2239 O   0  0  0  0  0  0  0  0  0  0  0  0
    5.0841  -10.8583   -3.1840 C   0  0  0  0  0  0  0  0  0  0  0  0
    7.8323   -3.3594   -4.0242 H   0  0  0  0  0  0  0  0  0  0  0  0
    6.4916   -2.5195   -3.2271 H   0  0  0  0  0  0  0  0  0  0  0  0
    6.3385   -3.0574   -4.9351 H   0  0  0  0  0  0  0  0  0  0  0  0
    5.0314   -6.6556   -3.3857 H   0  0  0  0  0  0  0  0  0  0  0  0
    3.5316   -6.0793   -2.7059 H   0  0  0  0  0  0  0  0  0  0  0  0
    4.9592   -4.6071   -0.2596 H   0  0  0  0  0  0  0  0  0  0  0  0
    5.0059   -5.9895    0.7863 H   0  0  0  0  0  0  0  0  0  0  0  0
    2.6382   -6.5770    0.1665 H   0  0  0  0  0  0  0  0  0  0  0  0
    2.5717   -5.1895   -0.9114 H   0  0  0  0  0  0  0  0  0  0  0  0
    2.9568   -3.6504    1.0122 H   0  0  0  0  0  0  0  0  0  0  0  0
    3.0526   -5.0466    2.1077 H   0  0  0  0  0  0  0  0  0  0  0  0
    0.6576   -3.9787    0.7397 H   0  0  0  0  0  0  0  0  0  0  0  0
   -1.6125   -7.1232    3.2096 H   0  0  0  0  0  0  0  0  0  0  0  0
   -6.3927   -6.6143    2.7896 H   0  0  0  0  0  0  0  0  0  0  0  0
   -6.7072   -4.7770    1.1784 H   0  0  0  0  0  0  0  0  0  0  0  0
   -5.6571   -1.5308   -1.2922 H   0  0  0  0  0  0  0  0  0  0  0  0
   -7.4345   -1.4932   -2.9259 H   0  0  0  0  0  0  0  0  0  0  0  0
   -9.0809   -4.6168   -4.2347 H   0  0  0  0  0  0  0  0  0  0  0  0
  -11.0207   -3.5818   -4.8781 H   0  0  0  0  0  0  0  0  0  0  0  0
   -9.2501   -1.2845   -7.1300 H   0  0  0  0  0  0  0  0  0  0  0  0
   -9.1246    0.5521   -8.6247 H   0  0  0  0  0  0  0  0  0  0  0  0
   -9.9389    1.9227   -7.8504 H   0  0  0  0  0  0  0  0  0  0  0  0
  -10.6266    1.1705   -9.3169 H   0  0  0  0  0  0  0  0  0  0  0  0
  -12.7137    1.2229   -7.6123 H   0  0  0  0  0  0  0  0  0  0  0  0
  -14.0263   -0.3290   -6.1822 H   0  0  0  0  0  0  0  0  0  0  0  0
   -7.5956   -5.8158   -2.8702 H   0  0  0  0  0  0  0  0  0  0  0  0
   -5.7552   -5.8359   -1.2664 H   0  0  0  0  0  0  0  0  0  0  0  0
    3.6473   -8.0371   -1.1061 H   0  0  0  0  0  0  0  0  0  0  0  0
    5.0582   -8.2067   -0.0328 H   0  0  0  0  0  0  0  0  0  0  0  0
    4.3120  -11.6166   -3.3413 H   0  0  0  0  0  0  0  0  0  0  0  0
    5.9858  -11.3484   -2.8075 H   0  0  0  0  0  0  0  0  0  0  0  0
    5.2780  -10.3617   -4.1398 H   0  0  0  0  0  0  0  0  0  0  0  0
  1  2  1  0  0  0  0
  1 46  1  0  0  0  0
  1 47  1  0  0  0  0
  1 48  1  0  0  0  0
  2  3  1  0  0  0  0
  3  4  2  0  0  0  0
  3  5  1  0  0  0  0
  5  6  1  0  0  0  0
  5 49  1  0  0  0  0
  5 50  1  0  0  0  0
  6  7  1  0  0  0  0
  6 41  1  0  0  0  0
  7  8  1  0  0  0  0
  7 51  1  0  0  0  0
  7 52  1  0  0  0  0
  8  9  1  0  0  0  0
  8 53  1  0  0  0  0
  8 54  1  0  0  0  0
  9 10  1  0  0  0  0
  9 55  1  0  0  0  0
  9 56  1  0  0  0  0
 10 11  1  0  0  0  0
 10 57  1  0  0  0  0
 11 12  2  0  0  0  0
 11 13  1  0  0  0  0
 13 14  2  0  0  0  0
 13 40  1  0  0  0  0
 14 15  1  0  0  0  0
 14 58  1  0  0  0  0
 15 16  1  0  0  0  0
 15 39  2  0  0  0  0
 16 17  2  0  0  0  0
 17 18  1  0  0  0  0
 17 59  1  0  0  0  0
 18 19  2  0  0  0  0
 18 60  1  0  0  0  0
 19 20  1  0  0  0  0
 19 39  1  0  0  0  0
 20 21  1  0  0  0  0
 21 22  1  0  0  0  0
 21 38  2  0  0  0  0
 22 23  2  0  0  0  0
 22 61  1  0  0  0  0
 23 24  1  0  0  0  0
 23 62  1  0  0  0  0
 24 25  1  0  0  0  0
 24 37  2  0  0  0  0
 25 26  1  0  0  0  0
 25 63  1  0  0  0  0
 26 27  2  0  0  0  0
 26 28  1  0  0  0  0
 28 29  1  0  0  0  0
 28 64  1  0  0  0  0
 29 30  1  0  0  0  0
 29 35  2  0  0  0  0
 30 31  2  0  0  0  0
 30 65  1  0  0  0  0
 31 32  1  0  0  0  0
 31 33  1  0  0  0  0
 32 66  1  0  0  0  0
 32 67  1  0  0  0  0
 32 68  1  0  0  0  0
 33 34  2  0  0  0  0
 33 69  1  0  0  0  0
 34 35  1  0  0  0  0
 34 70  1  0  0  0  0
 35 36  1  0  0  0  0
 37 38  1  0  0  0  0
 37 71  1  0  0  0  0
 38 72  1  0  0  0  0
 39 40  1  0  0  0  0
 41 42  1  0  0  0  0
 41 73  1  0  0  0  0
 41 74  1  0  0  0  0
 42 43  2  0  0  0  0
 42 44  1  0  0  0  0
 44 45  1  0  0  0  0
 45 75  1  0  0  0  0
 45 76  1  0  0  0  0
 45 77  1  0  0  0  0
M  END
$$$$
