CHEMBL4294625
 OpenBabel04072215383D

 77 81  0  0  0  0  0  0  0  0999 V2000
    4.2528    6.8529   -1.1565 C   0  0  0  0  0  0  0  0  0  0  0  0
    4.7951    5.6807   -1.7988 N   0  0  0  0  0  0  0  0  0  0  0  0
    3.9719    4.5916   -1.9577 C   0  0  0  0  0  0  0  0  0  0  0  0
    2.8108    4.4764   -1.5965 O   0  0  0  0  0  0  0  0  0  0  0  0
    4.5380    3.6148   -2.7921 N   0  0  0  0  0  0  0  0  0  0  0  0
    3.8895    3.1273   -3.9140 C   0  0  0  0  0  0  0  0  0  0  0  0
    4.6617    2.1590   -4.4958 C   0  0  0  0  0  0  0  0  0  0  0  0
    5.7891    1.9807   -3.6629 C   0  0  0  0  0  0  0  0  0  0  0  0
    6.8445    1.0595   -3.6916 C   0  0  0  0  0  0  0  0  0  0  0  0
    7.9494    1.1325   -2.8133 C   0  0  0  0  0  0  0  0  0  0  0  0
    9.0176    0.2446   -3.0282 O   0  0  0  0  0  0  0  0  0  0  0  0
    9.1749   -0.2606   -4.3354 C   0  0  0  0  0  0  0  0  0  0  0  0
    9.1064    0.6016   -5.4341 C   0  0  0  0  0  0  0  0  0  0  0  0
    9.0018    0.0456   -6.6897 C   0  0  0  0  0  0  0  0  0  0  0  0
    9.0518   -1.2759   -6.9181 N   0  0  0  0  0  0  0  0  0  0  0  0
    9.2254   -2.1192   -5.8857 C   0  0  0  0  0  0  0  0  0  0  0  0
    9.2567   -3.5137   -6.1704 N   0  0  0  0  0  0  0  0  0  0  0  0
    9.2749   -4.0277   -7.4736 C   0  0  0  0  0  0  0  0  0  0  0  0
    9.4314   -3.3578   -8.4944 O   0  0  0  0  0  0  0  0  0  0  0  0
    9.1425   -5.5097   -7.6911 C   0  0  0  0  0  0  0  0  0  0  0  0
    9.0298   -6.4471   -6.6562 C   0  0  0  0  0  0  0  0  0  0  0  0
    9.0167   -7.8361   -6.9658 C   0  0  0  0  0  0  0  0  0  0  0  0
    9.0999   -8.3067   -8.2804 C   0  0  0  0  0  0  0  0  0  0  0  0
    9.3154   -9.7754   -8.6524 C   0  0  0  0  0  0  0  0  0  0  0  0
    8.1593  -10.4073   -9.4339 C   0  0  0  0  0  0  0  0  0  0  0  0
    7.0267  -10.8810   -8.5290 C   0  0  0  0  0  0  0  0  0  0  0  0
    7.4783  -11.8189   -7.4871 N   0  0  0  0  0  0  0  0  0  0  0  0
    6.3527  -12.1779   -6.5840 C   0  0  0  0  0  0  0  0  0  0  0  0
    5.2136  -12.9395   -7.2796 C   0  0  0  0  0  0  0  0  0  0  0  0
    5.6976  -14.1304   -7.8910 O   0  0  0  0  0  0  0  0  0  0  0  0
    8.5686  -11.2456   -6.6812 C   0  0  0  0  0  0  0  0  0  0  0  0
    9.7377  -10.7308   -7.5248 C   0  0  0  0  0  0  0  0  0  0  0  0
    9.1116   -7.3497   -9.3049 C   0  0  0  0  0  0  0  0  0  0  0  0
    9.1491   -5.9839   -9.0086 C   0  0  0  0  0  0  0  0  0  0  0  0
    9.2938   -1.6481   -4.5661 C   0  0  0  0  0  0  0  0  0  0  0  0
    7.8729    2.0560   -1.7497 C   0  0  0  0  0  0  0  0  0  0  0  0
    8.6861    2.1813   -0.6428 O   0  0  0  0  0  0  0  0  0  0  0  0
   10.1025    2.1353   -0.8235 C   0  0  0  0  0  0  0  0  0  0  0  0
   10.7996    2.6284    0.4646 C   0  0  0  0  0  0  0  0  0  0  0  0
   10.5998    4.0257    0.6848 O   0  0  0  0  0  0  0  0  0  0  0  0
    6.7524    2.9380   -1.6495 C   0  0  0  0  0  0  0  0  0  0  0  0
    5.7452    2.9219   -2.6392 C   0  0  0  0  0  0  0  0  0  0  0  0
    4.9077    7.7057   -1.3458 H   0  0  0  0  0  0  0  0  0  0  0  0
    4.1885    6.6583   -0.0828 H   0  0  0  0  0  0  0  0  0  0  0  0
    3.2492    7.0659   -1.5402 H   0  0  0  0  0  0  0  0  0  0  0  0
    5.5733    5.7961   -2.4386 H   0  0  0  0  0  0  0  0  0  0  0  0
    2.9342    3.5412   -4.2047 H   0  0  0  0  0  0  0  0  0  0  0  0
    4.4283    1.6104   -5.3996 H   0  0  0  0  0  0  0  0  0  0  0  0
    6.7774    0.2921   -4.4578 H   0  0  0  0  0  0  0  0  0  0  0  0
    9.0052    1.6744   -5.3195 H   0  0  0  0  0  0  0  0  0  0  0  0
    8.8218    0.6537   -7.5715 H   0  0  0  0  0  0  0  0  0  0  0  0
    9.2621   -4.1399   -5.3854 H   0  0  0  0  0  0  0  0  0  0  0  0
    8.9818   -6.1731   -5.6219 H   0  0  0  0  0  0  0  0  0  0  0  0
    8.9781   -8.5194   -6.1218 H   0  0  0  0  0  0  0  0  0  0  0  0
   10.1783   -9.7479   -9.3370 H   0  0  0  0  0  0  0  0  0  0  0  0
    8.5455  -11.2768   -9.9858 H   0  0  0  0  0  0  0  0  0  0  0  0
    7.7572   -9.7235  -10.1888 H   0  0  0  0  0  0  0  0  0  0  0  0
    6.3106  -11.3921   -9.1821 H   0  0  0  0  0  0  0  0  0  0  0  0
    6.5156  -10.0173   -8.0894 H   0  0  0  0  0  0  0  0  0  0  0  0
    5.9419  -11.2789   -6.1052 H   0  0  0  0  0  0  0  0  0  0  0  0
    6.7425  -12.8240   -5.7864 H   0  0  0  0  0  0  0  0  0  0  0  0
    4.7252  -12.3331   -8.0475 H   0  0  0  0  0  0  0  0  0  0  0  0
    4.4484  -13.2163   -6.5483 H   0  0  0  0  0  0  0  0  0  0  0  0
    6.4644  -13.8532   -8.4283 H   0  0  0  0  0  0  0  0  0  0  0  0
    8.9658  -12.0187   -6.0091 H   0  0  0  0  0  0  0  0  0  0  0  0
    8.1854  -10.4494   -6.0347 H   0  0  0  0  0  0  0  0  0  0  0  0
   10.2279  -11.6016   -7.9826 H   0  0  0  0  0  0  0  0  0  0  0  0
   10.4959  -10.2665   -6.8807 H   0  0  0  0  0  0  0  0  0  0  0  0
    9.1460   -7.6569  -10.3483 H   0  0  0  0  0  0  0  0  0  0  0  0
    9.2195   -5.2744   -9.8416 H   0  0  0  0  0  0  0  0  0  0  0  0
    9.4028   -2.3317   -3.7336 H   0  0  0  0  0  0  0  0  0  0  0  0
   10.3921    2.7853   -1.6546 H   0  0  0  0  0  0  0  0  0  0  0  0
   10.4066    1.1020   -1.0006 H   0  0  0  0  0  0  0  0  0  0  0  0
   11.8806    2.4747    0.3861 H   0  0  0  0  0  0  0  0  0  0  0  0
   10.4420    2.0977    1.3542 H   0  0  0  0  0  0  0  0  0  0  0  0
    9.6388    4.1772    0.7072 H   0  0  0  0  0  0  0  0  0  0  0  0
    6.6680    3.6048   -0.7941 H   0  0  0  0  0  0  0  0  0  0  0  0
  1  2  1  0  0  0  0
  1 43  1  0  0  0  0
  1 44  1  0  0  0  0
  1 45  1  0  0  0  0
  2  3  1  0  0  0  0
  2 46  1  0  0  0  0
  3  4  2  0  0  0  0
  3  5  1  0  0  0  0
  5  6  1  0  0  0  0
  5 42  1  0  0  0  0
  6  7  2  0  0  0  0
  6 47  1  0  0  0  0
  7  8  1  0  0  0  0
  7 48  1  0  0  0  0
  8  9  1  0  0  0  0
  8 42  2  0  0  0  0
  9 10  2  0  0  0  0
  9 49  1  0  0  0  0
 10 11  1  0  0  0  0
 10 36  1  0  0  0  0
 11 12  1  0  0  0  0
 12 13  1  0  0  0  0
 12 35  2  0  0  0  0
 13 14  2  0  0  0  0
 13 50  1  0  0  0  0
 14 15  1  0  0  0  0
 14 51  1  0  0  0  0
 15 16  2  0  0  0  0
 16 17  1  0  0  0  0
 16 35  1  0  0  0  0
 17 18  1  0  0  0  0
 17 52  1  0  0  0  0
 18 19  2  0  0  0  0
 18 20  1  0  0  0  0
 20 21  1  0  0  0  0
 20 34  2  0  0  0  0
 21 22  2  0  0  0  0
 21 53  1  0  0  0  0
 22 23  1  0  0  0  0
 22 54  1  0  0  0  0
 23 24  1  0  0  0  0
 23 33  2  0  0  0  0
 24 25  1  0  0  0  0
 24 32  1  0  0  0  0
 24 55  1  0  0  0  0
 25 26  1  0  0  0  0
 25 56  1  0  0  0  0
 25 57  1  0  0  0  0
 26 27  1  0  0  0  0
 26 58  1  0  0  0  0
 26 59  1  0  0  0  0
 27 28  1  0  0  0  0
 27 31  1  0  0  0  0
 28 29  1  0  0  0  0
 28 60  1  0  0  0  0
 28 61  1  0  0  0  0
 29 30  1  0  0  0  0
 29 62  1  0  0  0  0
 29 63  1  0  0  0  0
 30 64  1  0  0  0  0
 31 32  1  0  0  0  0
 31 65  1  0  0  0  0
 31 66  1  0  0  0  0
 32 67  1  0  0  0  0
 32 68  1  0  0  0  0
 33 34  1  0  0  0  0
 33 69  1  0  0  0  0
 34 70  1  0  0  0  0
 35 71  1  0  0  0  0
 36 37  1  0  0  0  0
 36 41  2  0  0  0  0
 37 38  1  0  0  0  0
 38 39  1  0  0  0  0
 38 72  1  0  0  0  0
 38 73  1  0  0  0  0
 39 40  1  0  0  0  0
 39 74  1  0  0  0  0
 39 75  1  0  0  0  0
 40 76  1  0  0  0  0
 41 42  1  0  0  0  0
 41 77  1  0  0  0  0
M  END
$$$$
