CHEMBL4163939
 OpenBabel04072215383D

 45 49  0  0  0  0  0  0  0  0999 V2000
    4.8669    2.8963    4.0247 C   0  0  0  0  0  0  0  0  0  0  0  0
    5.3272    2.1228    2.8989 N   0  0  0  0  0  0  0  0  0  0  0  0
    5.3856    2.6784    1.6648 N   0  0  0  0  0  0  0  0  0  0  0  0
    5.8751    1.6896    0.9065 C   0  0  0  0  0  0  0  0  0  0  0  0
    6.1152    0.5117    1.6374 C   0  0  0  0  0  0  0  0  0  0  0  0
    6.6084   -0.7679    1.4196 C   0  0  0  0  0  0  0  0  0  0  0  0
    7.0533   -1.1494    0.1606 O   0  0  0  0  0  0  0  0  0  0  0  0
    8.1353   -2.0017    0.0969 C   0  0  0  0  0  0  0  0  0  0  0  0
    8.2038   -2.8519   -1.0122 C   0  0  0  0  0  0  0  0  0  0  0  0
    9.2453   -3.7816   -1.1553 C   0  0  0  0  0  0  0  0  0  0  0  0
   10.2042   -3.8225   -0.1306 C   0  0  0  0  0  0  0  0  0  0  0  0
   10.1809   -2.9515    0.9444 C   0  0  0  0  0  0  0  0  0  0  0  0
    9.1585   -2.0022    1.0543 C   0  0  0  0  0  0  0  0  0  0  0  0
   11.2255   -3.1821    1.7877 N   0  0  0  0  0  0  0  0  0  0  0  0
   11.8955   -4.1990    1.2904 C   0  0  0  0  0  0  0  0  0  0  0  0
   13.0262   -4.7602    1.7974 N   0  0  0  0  0  0  0  0  0  0  0  0
   13.6596   -4.3416    2.9927 C   0  0  0  0  0  0  0  0  0  0  0  0
   12.9491   -3.8083    4.0814 C   0  0  0  0  0  0  0  0  0  0  0  0
   13.6067   -3.2839    5.1996 C   0  0  0  0  0  0  0  0  0  0  0  0
   14.9956   -3.2812    5.2421 C   0  0  0  0  0  0  0  0  0  0  0  0
   15.8121   -2.5827    6.5861 Cl  0  0  0  0  0  0  0  0  0  0  0  0
   15.7259   -3.8279    4.1908 C   0  0  0  0  0  0  0  0  0  0  0  0
   15.0618   -4.3572    3.0752 C   0  0  0  0  0  0  0  0  0  0  0  0
   11.2994   -4.6256    0.1187 N   0  0  0  0  0  0  0  0  0  0  0  0
   11.6549   -5.7508   -0.7125 C   0  0  0  0  0  0  0  0  0  0  0  0
    6.6410   -1.6493    2.4519 N   0  0  0  0  0  0  0  0  0  0  0  0
    6.2679   -1.2109    3.6693 C   0  0  0  0  0  0  0  0  0  0  0  0
    5.8119    0.0087    4.0049 N   0  0  0  0  0  0  0  0  0  0  0  0
    5.7489    0.8210    2.9351 C   0  0  0  0  0  0  0  0  0  0  0  0
    4.5969    3.9015    3.6908 H   0  0  0  0  0  0  0  0  0  0  0  0
    5.6754    2.9542    4.7580 H   0  0  0  0  0  0  0  0  0  0  0  0
    3.9930    2.3996    4.4526 H   0  0  0  0  0  0  0  0  0  0  0  0
    6.0377    1.8690   -0.1487 H   0  0  0  0  0  0  0  0  0  0  0  0
    7.4284   -2.8052   -1.7729 H   0  0  0  0  0  0  0  0  0  0  0  0
    9.2829   -4.4507   -2.0059 H   0  0  0  0  0  0  0  0  0  0  0  0
    9.1667   -1.3301    1.9016 H   0  0  0  0  0  0  0  0  0  0  0  0
   13.6025   -5.3628    1.2261 H   0  0  0  0  0  0  0  0  0  0  0  0
   11.8622   -3.7871    4.0672 H   0  0  0  0  0  0  0  0  0  0  0  0
   13.0253   -2.8621    6.0146 H   0  0  0  0  0  0  0  0  0  0  0  0
   16.8128   -3.8247    4.2206 H   0  0  0  0  0  0  0  0  0  0  0  0
   15.6567   -4.7436    2.2526 H   0  0  0  0  0  0  0  0  0  0  0  0
   12.3341   -6.4207   -0.1828 H   0  0  0  0  0  0  0  0  0  0  0  0
   12.1287   -5.3656   -1.6214 H   0  0  0  0  0  0  0  0  0  0  0  0
   10.7459   -6.2977   -0.9665 H   0  0  0  0  0  0  0  0  0  0  0  0
    6.3575   -1.9294    4.4794 H   0  0  0  0  0  0  0  0  0  0  0  0
  1  2  1  0  0  0  0
  1 30  1  0  0  0  0
  1 31  1  0  0  0  0
  1 32  1  0  0  0  0
  2  3  1  0  0  0  0
  2 29  1  0  0  0  0
  3  4  2  0  0  0  0
  4  5  1  0  0  0  0
  4 33  1  0  0  0  0
  5  6  1  0  0  0  0
  5 29  2  0  0  0  0
  6  7  1  0  0  0  0
  6 26  2  0  0  0  0
  7  8  1  0  0  0  0
  8  9  1  0  0  0  0
  8 13  2  0  0  0  0
  9 10  2  0  0  0  0
  9 34  1  0  0  0  0
 10 11  1  0  0  0  0
 10 35  1  0  0  0  0
 11 12  2  0  0  0  0
 11 24  1  0  0  0  0
 12 13  1  0  0  0  0
 12 14  1  0  0  0  0
 13 36  1  0  0  0  0
 14 15  2  0  0  0  0
 15 16  1  0  0  0  0
 15 24  1  0  0  0  0
 16 17  1  0  0  0  0
 16 37  1  0  0  0  0
 17 18  1  0  0  0  0
 17 23  2  0  0  0  0
 18 19  2  0  0  0  0
 18 38  1  0  0  0  0
 19 20  1  0  0  0  0
 19 39  1  0  0  0  0
 20 21  1  0  0  0  0
 20 22  2  0  0  0  0
 22 23  1  0  0  0  0
 22 40  1  0  0  0  0
 23 41  1  0  0  0  0
 24 25  1  0  0  0  0
 25 42  1  0  0  0  0
 25 43  1  0  0  0  0
 25 44  1  0  0  0  0
 26 27  1  0  0  0  0
 27 28  2  0  0  0  0
 27 45  1  0  0  0  0
 28 29  1  0  0  0  0
M  END
$$$$
