CHEMBL3966626
 OpenBabel04072215373D

 55 57  0  0  0  0  0  0  0  0999 V2000
    2.1014   -2.2643    0.8435 C   0  0  0  0  0  0  0  0  0  0  0  0
    3.1791   -1.4102    0.7499 O   0  0  0  0  0  0  0  0  0  0  0  0
    3.5771   -0.5499    1.7195 C   0  0  0  0  0  0  0  0  0  0  0  0
    2.8185   -0.3033    2.8694 C   0  0  0  0  0  0  0  0  0  0  0  0
    3.2826    0.5836    3.8364 C   0  0  0  0  0  0  0  0  0  0  0  0
    4.5373    1.2172    3.7016 C   0  0  0  0  0  0  0  0  0  0  0  0
    4.9543    2.1368    4.6152 O   0  0  0  0  0  0  0  0  0  0  0  0
    4.1869    2.5860    5.6781 C   0  0  0  0  0  0  0  0  0  0  0  0
    5.3269    0.9383    2.5571 C   0  0  0  0  0  0  0  0  0  0  0  0
    6.6015    1.5617    2.3381 N   0  0  0  0  0  0  0  0  0  0  0  0
    6.8758    2.1389    1.0003 C   0  0  0  0  0  0  0  0  0  0  0  0
    7.9979    1.3802    0.2518 C   0  0  0  0  0  0  0  0  0  0  0  0
    7.5735    0.1110   -0.1576 O   0  0  0  0  0  0  0  0  0  0  0  0
    7.7101    1.5221    3.2637 C   0  0  0  0  0  0  0  0  0  0  0  0
    8.5608    2.6388    3.2363 C   0  0  0  0  0  0  0  0  0  0  0  0
    9.8057    2.6087    3.7687 C   0  0  0  0  0  0  0  0  0  0  0  0
   10.2512    1.4823    4.3941 C   0  0  0  0  0  0  0  0  0  0  0  0
   11.5516    1.4844    4.7224 N   0  0  0  0  0  0  0  0  0  0  0  0
   12.0863    0.4998    5.4236 C   0  0  0  0  0  0  0  0  0  0  0  0
   11.2712   -0.4928    5.9719 C   0  0  0  0  0  0  0  0  0  0  0  0
   11.8688   -1.1356    7.2186 C   0  0  0  0  0  0  0  0  0  0  0  0
   13.0678   -0.6838    7.8044 C   0  0  0  0  0  0  0  0  0  0  0  0
   13.2354   -1.2419    9.0069 N   0  0  0  0  0  0  0  0  0  0  0  0
   12.2139   -2.0513    9.2152 N   0  0  0  0  0  0  0  0  0  0  0  0
   12.0348   -2.7013   10.4986 C   0  0  0  0  0  0  0  0  0  0  0  0
   11.3761   -2.0537    8.1393 C   0  0  0  0  0  0  0  0  0  0  0  0
    9.9457   -0.5881    5.5313 N   0  0  0  0  0  0  0  0  0  0  0  0
    9.4252    0.3900    4.6883 C   0  0  0  0  0  0  0  0  0  0  0  0
    8.1095    0.3867    4.0715 C   0  0  0  0  0  0  0  0  0  0  0  0
    4.8020    0.0894    1.5654 C   0  0  0  0  0  0  0  0  0  0  0  0
   -0.7958    1.5508   -1.0199 Cl  0  0  0  0  0  0  0  0  0  0  0  0
    2.0446   -2.8836   -0.0739 H   0  0  0  0  0  0  0  0  0  0  0  0
    1.1571   -1.6906    0.9518 H   0  0  0  0  0  0  0  0  0  0  0  0
    2.2396   -2.9396    1.7163 H   0  0  0  0  0  0  0  0  0  0  0  0
    1.8587   -0.7786    3.0188 H   0  0  0  0  0  0  0  0  0  0  0  0
    2.6394    0.7636    4.6873 H   0  0  0  0  0  0  0  0  0  0  0  0
    4.7227    3.3903    6.2184 H   0  0  0  0  0  0  0  0  0  0  0  0
    3.9828    1.7501    6.3799 H   0  0  0  0  0  0  0  0  0  0  0  0
    3.2199    3.0051    5.3127 H   0  0  0  0  0  0  0  0  0  0  0  0
    7.1792    3.2017    1.0829 H   0  0  0  0  0  0  0  0  0  0  0  0
    5.9725    2.1810    0.3614 H   0  0  0  0  0  0  0  0  0  0  0  0
    8.9354    1.2997    0.8503 H   0  0  0  0  0  0  0  0  0  0  0  0
    8.2738    1.9480   -0.6602 H   0  0  0  0  0  0  0  0  0  0  0  0
    7.6780   -0.4951    0.6199 H   0  0  0  0  0  0  0  0  0  0  0  0
    8.3095    3.5527    2.7367 H   0  0  0  0  0  0  0  0  0  0  0  0
   10.4601    3.4583    3.6508 H   0  0  0  0  0  0  0  0  0  0  0  0
   13.1257    0.6091    5.6414 H   0  0  0  0  0  0  0  0  0  0  0  0
   13.7470    0.0774    7.4789 H   0  0  0  0  0  0  0  0  0  0  0  0
   12.8143   -2.3369   11.2115 H   0  0  0  0  0  0  0  0  0  0  0  0
   12.1184   -3.7983   10.4006 H   0  0  0  0  0  0  0  0  0  0  0  0
   11.0501   -2.4094   10.9165 H   0  0  0  0  0  0  0  0  0  0  0  0
   10.4457   -2.6027    8.0934 H   0  0  0  0  0  0  0  0  0  0  0  0
    7.4672   -0.4904    4.1507 H   0  0  0  0  0  0  0  0  0  0  0  0
    5.3510   -0.1097    0.6638 H   0  0  0  0  0  0  0  0  0  0  0  0
    0.5708    1.6870   -1.0971 H   0  0  0  0  0  0  0  0  0  0  0  0
  1  2  1  0  0  0  0
  1 32  1  0  0  0  0
  1 33  1  0  0  0  0
  1 34  1  0  0  0  0
  2  3  1  0  0  0  0
  3  4  1  0  0  0  0
  3 30  2  0  0  0  0
  4  5  2  0  0  0  0
  4 35  1  0  0  0  0
  5  6  1  0  0  0  0
  5 36  1  0  0  0  0
  6  7  1  0  0  0  0
  6  9  2  0  0  0  0
  7  8  1  0  0  0  0
  8 37  1  0  0  0  0
  8 38  1  0  0  0  0
  8 39  1  0  0  0  0
  9 10  1  0  0  0  0
  9 30  1  0  0  0  0
 10 11  1  0  0  0  0
 10 14  1  0  0  0  0
 11 12  1  0  0  0  0
 11 40  1  0  0  0  0
 11 41  1  0  0  0  0
 12 13  1  0  0  0  0
 12 42  1  0  0  0  0
 12 43  1  0  0  0  0
 13 44  1  0  0  0  0
 14 15  1  0  0  0  0
 14 29  2  0  0  0  0
 15 16  2  0  0  0  0
 15 45  1  0  0  0  0
 16 17  1  0  0  0  0
 16 46  1  0  0  0  0
 17 18  1  0  0  0  0
 17 28  2  0  0  0  0
 18 19  2  0  0  0  0
 19 20  1  0  0  0  0
 19 47  1  0  0  0  0
 20 21  1  0  0  0  0
 20 27  2  0  0  0  0
 21 22  1  0  0  0  0
 21 26  2  0  0  0  0
 22 23  2  0  0  0  0
 22 48  1  0  0  0  0
 23 24  1  0  0  0  0
 24 25  1  0  0  0  0
 24 26  1  0  0  0  0
 25 49  1  0  0  0  0
 25 50  1  0  0  0  0
 25 51  1  0  0  0  0
 26 52  1  0  0  0  0
 27 28  1  0  0  0  0
 28 29  1  0  0  0  0
 29 53  1  0  0  0  0
 30 54  1  0  0  0  0
 31 55  1  0  0  0  0
M  END
$$$$
