CHEMBL597492
 OpenBabel04072215383D

 46 49  0  0  0  0  0  0  0  0999 V2000
    1.0260    0.5586    2.5859 C   0  0  0  0  0  0  0  0  0  0  0  0
    2.1492    0.6318    1.7213 O   0  0  0  0  0  0  0  0  0  0  0  0
    3.0412   -0.4108    1.7475 C   0  0  0  0  0  0  0  0  0  0  0  0
    2.6962   -1.7107    2.1586 C   0  0  0  0  0  0  0  0  0  0  0  0
    3.5980   -2.7784    2.0656 C   0  0  0  0  0  0  0  0  0  0  0  0
    3.2398   -4.1274    2.5512 C   0  0  0  0  0  0  0  0  0  0  0  0
    2.6312   -5.1564    1.9284 C   0  0  0  0  0  0  0  0  0  0  0  0
    2.0402   -5.2156    0.6389 C   0  0  0  0  0  0  0  0  0  0  0  0
    2.4794   -4.4977   -0.4572 C   0  0  0  0  0  0  0  0  0  0  0  0
    1.6217   -4.8170   -1.4855 N   0  0  0  0  0  0  0  0  0  0  0  0
    0.4019   -4.9331   -0.8526 C   0  0  0  0  0  0  0  0  0  0  0  0
   -0.8509   -4.4250   -1.1762 C   0  0  0  0  0  0  0  0  0  0  0  0
   -1.8918   -4.7772   -0.3207 C   0  0  0  0  0  0  0  0  0  0  0  0
   -1.6865   -5.7002    0.7101 C   0  0  0  0  0  0  0  0  0  0  0  0
   -3.3316   -6.3385    1.8179 I   0  0  0  0  0  0  0  0  0  0  0  0
   -0.4013   -6.1458    1.0582 C   0  0  0  0  0  0  0  0  0  0  0  0
    0.6813   -5.6039    0.3377 C   0  0  0  0  0  0  0  0  0  0  0  0
    2.5973   -6.2810    2.8961 C   0  0  0  0  0  0  0  0  0  0  0  0
    2.2327   -7.4244    2.6725 O   0  0  0  0  0  0  0  0  0  0  0  0
    3.0802   -5.8215    4.0616 N   0  0  0  0  0  0  0  0  0  0  0  0
    3.4525   -4.5279    3.9529 C   0  0  0  0  0  0  0  0  0  0  0  0
    3.8599   -3.8199    4.8431 O   0  0  0  0  0  0  0  0  0  0  0  0
    4.8641   -2.5292    1.5231 C   0  0  0  0  0  0  0  0  0  0  0  0
    5.2301   -1.2580    1.0933 C   0  0  0  0  0  0  0  0  0  0  0  0
    6.4655   -0.9697    0.5705 O   0  0  0  0  0  0  0  0  0  0  0  0
    7.0886   -2.0140   -0.1702 C   0  0  0  0  0  0  0  0  0  0  0  0
    4.3405   -0.1693    1.2423 C   0  0  0  0  0  0  0  0  0  0  0  0
    4.8140    1.0342    0.7796 O   0  0  0  0  0  0  0  0  0  0  0  0
    4.3804    2.2205    1.4454 C   0  0  0  0  0  0  0  0  0  0  0  0
    0.4358    1.4710    2.4395 H   0  0  0  0  0  0  0  0  0  0  0  0
    1.3471    0.5256    3.6297 H   0  0  0  0  0  0  0  0  0  0  0  0
    0.3710   -0.2837    2.3403 H   0  0  0  0  0  0  0  0  0  0  0  0
    1.7001   -1.9142    2.5522 H   0  0  0  0  0  0  0  0  0  0  0  0
    3.2355   -3.7386   -0.6045 H   0  0  0  0  0  0  0  0  0  0  0  0
    1.8918   -5.5440   -2.1395 H   0  0  0  0  0  0  0  0  0  0  0  0
   -0.9808   -3.7215   -1.9909 H   0  0  0  0  0  0  0  0  0  0  0  0
   -2.8657   -4.3237   -0.4804 H   0  0  0  0  0  0  0  0  0  0  0  0
   -0.2416   -6.7795    1.9251 H   0  0  0  0  0  0  0  0  0  0  0  0
    3.1220   -6.3525    4.9152 H   0  0  0  0  0  0  0  0  0  0  0  0
    5.5774   -3.3688    1.4577 H   0  0  0  0  0  0  0  0  0  0  0  0
    7.8898   -1.5699   -0.7678 H   0  0  0  0  0  0  0  0  0  0  0  0
    6.3873   -2.4971   -0.8596 H   0  0  0  0  0  0  0  0  0  0  0  0
    7.5430   -2.7466    0.5037 H   0  0  0  0  0  0  0  0  0  0  0  0
    5.0846    3.0215    1.1917 H   0  0  0  0  0  0  0  0  0  0  0  0
    4.3812    2.1175    2.5364 H   0  0  0  0  0  0  0  0  0  0  0  0
    3.4036    2.5386    1.0716 H   0  0  0  0  0  0  0  0  0  0  0  0
  1  2  1  0  0  0  0
  1 30  1  0  0  0  0
  1 31  1  0  0  0  0
  1 32  1  0  0  0  0
  2  3  1  0  0  0  0
  3  4  1  0  0  0  0
  3 27  2  0  0  0  0
  4  5  2  0  0  0  0
  4 33  1  0  0  0  0
  5  6  1  0  0  0  0
  5 23  1  0  0  0  0
  6  7  2  0  0  0  0
  6 21  1  0  0  0  0
  7  8  1  0  0  0  0
  7 18  1  0  0  0  0
  8  9  2  0  0  0  0
  8 17  1  0  0  0  0
  9 10  1  0  0  0  0
  9 34  1  0  0  0  0
 10 11  1  0  0  0  0
 10 35  1  0  0  0  0
 11 12  1  0  0  0  0
 11 17  2  0  0  0  0
 12 13  2  0  0  0  0
 12 36  1  0  0  0  0
 13 14  1  0  0  0  0
 13 37  1  0  0  0  0
 14 15  1  0  0  0  0
 14 16  2  0  0  0  0
 16 17  1  0  0  0  0
 16 38  1  0  0  0  0
 18 19  2  0  0  0  0
 18 20  1  0  0  0  0
 20 21  1  0  0  0  0
 20 39  1  0  0  0  0
 21 22  2  0  0  0  0
 23 24  2  0  0  0  0
 23 40  1  0  0  0  0
 24 25  1  0  0  0  0
 24 27  1  0  0  0  0
 25 26  1  0  0  0  0
 26 41  1  0  0  0  0
 26 42  1  0  0  0  0
 26 43  1  0  0  0  0
 27 28  1  0  0  0  0
 28 29  1  0  0  0  0
 29 44  1  0  0  0  0
 29 45  1  0  0  0  0
 29 46  1  0  0  0  0
M  END
$$$$
