CHEMBL419082
 OpenBabel04072215383D

 51 55  0  0  1  0  0  0  0  0999 V2000
    1.0047    0.2873   -0.0510 N   0  0  0  0  0  0  0  0  0  0  0  0
    2.3851    0.1143   -0.0972 C   0  0  0  0  0  0  0  0  0  0  0  0
    3.1050    1.2511   -0.1072 N   0  0  0  0  0  0  0  0  0  0  0  0
    4.4459    1.1605   -0.1065 C   0  0  0  0  0  0  0  0  0  0  0  0
    5.1958    0.0479   -0.0923 N   0  0  0  0  0  0  0  0  0  0  0  0
    4.4425   -1.0643   -0.0848 C   0  0  0  0  0  0  0  0  0  0  0  0
    3.0485   -1.1265   -0.0929 C   0  0  0  0  0  0  0  0  0  0  0  0
    2.7077   -2.5269   -0.1101 C   0  0  0  0  0  0  0  0  0  0  0  0
    1.4101   -3.1982   -0.1796 C   0  0  0  0  0  0  0  0  0  0  0  0
    0.3453   -2.5860   -0.8409 C   0  0  0  0  0  0  0  0  0  0  0  0
   -0.9159   -3.1694   -0.8612 C   0  0  0  0  0  0  0  0  0  0  0  0
   -1.0864   -4.4709   -0.3924 C   0  0  0  0  0  0  0  0  0  0  0  0
   -2.2507   -5.1896   -0.5518 O   0  0  0  0  0  0  0  0  0  0  0  0
   -3.0135   -4.9663   -1.6792 C   0  0  0  0  0  0  0  0  0  0  0  0
   -2.4886   -4.5934   -2.9252 C   0  0  0  0  0  0  0  0  0  0  0  0
   -3.3398   -4.2537   -3.9729 C   0  0  0  0  0  0  0  0  0  0  0  0
   -4.7129   -4.3804   -3.8072 C   0  0  0  0  0  0  0  0  0  0  0  0
   -5.2392   -4.8501   -2.6078 C   0  0  0  0  0  0  0  0  0  0  0  0
   -4.3906   -5.1391   -1.5385 C   0  0  0  0  0  0  0  0  0  0  0  0
   -0.0353   -5.1067    0.2636 C   0  0  0  0  0  0  0  0  0  0  0  0
    1.2016   -4.4636    0.3897 C   0  0  0  0  0  0  0  0  0  0  0  0
    3.8959   -3.2345   -0.0785 C   0  0  0  0  0  0  0  0  0  0  0  0
    4.9394   -2.3412   -0.0576 N   0  0  0  0  0  0  0  0  0  0  0  0
    6.3351   -2.7336   -0.0594 C   0  0  3  0  0  0  0  0  0  0  0  0
    7.1575   -2.2470   -1.2630 C   0  0  0  0  0  0  0  0  0  0  0  0
    8.5816   -2.0515   -0.7385 C   0  0  0  0  0  0  0  0  0  0  0  0
    8.5911   -2.6035    0.6865 C   0  0  0  0  0  0  0  0  0  0  0  0
    7.1683   -2.3622    1.1826 C   0  0  3  0  0  0  0  0  0  0  0  0
    7.0909   -1.0074    1.6113 O   0  0  0  0  0  0  0  0  0  0  0  0
    0.7719    1.2471    0.1743 H   0  0  0  0  0  0  0  0  0  0  0  0
    0.5197   -0.4194    0.4853 H   0  0  0  0  0  0  0  0  0  0  0  0
    4.9821    2.1012   -0.1151 H   0  0  0  0  0  0  0  0  0  0  0  0
    0.4749   -1.6503   -1.3771 H   0  0  0  0  0  0  0  0  0  0  0  0
   -1.7344   -2.6200   -1.3179 H   0  0  0  0  0  0  0  0  0  0  0  0
   -1.4169   -4.5086   -3.0781 H   0  0  0  0  0  0  0  0  0  0  0  0
   -2.9248   -3.8864   -4.9092 H   0  0  0  0  0  0  0  0  0  0  0  0
   -5.3815   -4.1164   -4.6322 H   0  0  0  0  0  0  0  0  0  0  0  0
   -6.3150   -4.9722   -2.4945 H   0  0  0  0  0  0  0  0  0  0  0  0
   -4.8015   -5.4815   -0.5948 H   0  0  0  0  0  0  0  0  0  0  0  0
   -0.1685   -6.1080    0.6632 H   0  0  0  0  0  0  0  0  0  0  0  0
    2.0007   -4.9767    0.9175 H   0  0  0  0  0  0  0  0  0  0  0  0
    4.0854   -4.3027   -0.0875 H   0  0  0  0  0  0  0  0  0  0  0  0
    6.3395   -3.8346   -0.1143 H   0  0  0  0  0  0  0  0  0  0  0  0
    6.7851   -1.3149   -1.6991 H   0  0  0  0  0  0  0  0  0  0  0  0
    7.1352   -2.9971   -2.0618 H   0  0  0  0  0  0  0  0  0  0  0  0
    8.8227   -0.9820   -0.7281 H   0  0  0  0  0  0  0  0  0  0  0  0
    9.3223   -2.5503   -1.3708 H   0  0  0  0  0  0  0  0  0  0  0  0
    9.3481   -2.1004    1.2964 H   0  0  0  0  0  0  0  0  0  0  0  0
    8.8120   -3.6770    0.6661 H   0  0  0  0  0  0  0  0  0  0  0  0
    6.9259   -2.9963    2.0408 H   0  0  0  0  0  0  0  0  0  0  0  0
    6.6212   -0.4818    0.9314 H   0  0  0  0  0  0  0  0  0  0  0  0
  1  2  1  0  0  0  0
  1 30  1  0  0  0  0
  1 31  1  0  0  0  0
  2  3  1  0  0  0  0
  2  7  2  0  0  0  0
  3  4  2  0  0  0  0
  4  5  1  0  0  0  0
  4 32  1  0  0  0  0
  5  6  2  0  0  0  0
  6  7  1  0  0  0  0
  6 23  1  0  0  0  0
  7  8  1  0  0  0  0
  8  9  1  0  0  0  0
  8 22  2  0  0  0  0
  9 10  1  0  0  0  0
  9 21  2  0  0  0  0
 10 11  2  0  0  0  0
 10 33  1  0  0  0  0
 11 12  1  0  0  0  0
 11 34  1  0  0  0  0
 12 13  1  0  0  0  0
 12 20  2  0  0  0  0
 13 14  1  0  0  0  0
 14 15  1  0  0  0  0
 14 19  2  0  0  0  0
 15 16  2  0  0  0  0
 15 35  1  0  0  0  0
 16 17  1  0  0  0  0
 16 36  1  0  0  0  0
 17 18  2  0  0  0  0
 17 37  1  0  0  0  0
 18 19  1  0  0  0  0
 18 38  1  0  0  0  0
 19 39  1  0  0  0  0
 20 21  1  0  0  0  0
 20 40  1  0  0  0  0
 21 41  1  0  0  0  0
 22 23  1  0  0  0  0
 22 42  1  0  0  0  0
 23 24  1  0  0  0  0
 24 25  1  0  0  0  0
 24 28  1  0  0  0  0
 24 43  1  0  0  0  0
 25 26  1  0  0  0  0
 25 44  1  0  0  0  0
 25 45  1  0  0  0  0
 26 27  1  0  0  0  0
 26 46  1  0  0  0  0
 26 47  1  0  0  0  0
 27 28  1  0  0  0  0
 27 48  1  0  0  0  0
 27 49  1  0  0  0  0
 28 29  1  0  0  0  0
 28 50  1  0  0  0  0
 29 51  1  0  0  0  0
M  END
$$$$
