CHEMBL240818
 OpenBabel04072215363D

 45 47  0  0  0  0  0  0  0  0999 V2000
    1.3190   -0.9069    1.2598 C   0  0  0  0  0  0  0  0  0  0  0  0
    1.7932    0.4302    0.7590 C   0  0  0  0  0  0  0  0  0  0  0  0
    0.8506    1.4707    0.7015 C   0  0  0  0  0  0  0  0  0  0  0  0
    1.1905    2.7531    0.2746 C   0  0  0  0  0  0  0  0  0  0  0  0
    0.2655    3.8129    0.2163 N   0  0  0  0  0  0  0  0  0  0  0  0
   -1.1045    3.7288    0.4013 C   0  0  0  0  0  0  0  0  0  0  0  0
   -1.7218    2.7259    0.7390 O   0  0  0  0  0  0  0  0  0  0  0  0
   -1.8082    4.9672    0.1607 C   0  0  0  0  0  0  0  0  0  0  0  0
   -2.9996    5.4143    0.8023 C   0  0  0  0  0  0  0  0  0  0  0  0
   -3.7985    4.7426    1.8616 C   0  0  0  0  0  0  0  0  0  0  0  0
   -3.3608    6.6243    0.3656 N   0  0  0  0  0  0  0  0  0  0  0  0
   -2.4186    6.9776   -0.5822 O   0  0  0  0  0  0  0  0  0  0  0  0
   -1.5116    5.9722   -0.7385 C   0  0  0  0  0  0  0  0  0  0  0  0
   -0.5657    6.1732   -1.6913 N   0  0  0  0  0  0  0  0  0  0  0  0
   -0.0726    5.0744   -2.5122 C   0  0  0  0  0  0  0  0  0  0  0  0
   -0.2054    5.2928   -3.9961 C   0  0  0  0  0  0  0  0  0  0  0  0
    0.7464    4.7117   -4.8446 C   0  0  0  0  0  0  0  0  0  0  0  0
    0.5809    4.8168   -6.2148 C   0  0  0  0  0  0  0  0  0  0  0  0
   -0.4590    5.4500   -6.7911 N   0  0  0  0  0  0  0  0  0  0  0  0
   -1.3789    5.9882   -5.9616 C   0  0  0  0  0  0  0  0  0  0  0  0
   -1.3036    5.9306   -4.5779 C   0  0  0  0  0  0  0  0  0  0  0  0
    2.5047    3.0024   -0.1205 C   0  0  0  0  0  0  0  0  0  0  0  0
    3.4556    1.9769   -0.0809 C   0  0  0  0  0  0  0  0  0  0  0  0
    3.1204    0.6816    0.3663 C   0  0  0  0  0  0  0  0  0  0  0  0
    4.2214   -0.3585    0.4046 C   0  0  0  0  0  0  0  0  0  0  0  0
    3.8499   -1.5830    0.8651 F   0  0  0  0  0  0  0  0  0  0  0  0
    4.7604   -0.5778   -0.8282 F   0  0  0  0  0  0  0  0  0  0  0  0
    5.2612    0.0299    1.1966 F   0  0  0  0  0  0  0  0  0  0  0  0
    0.2471   -0.8932    1.4893 H   0  0  0  0  0  0  0  0  0  0  0  0
    1.8425   -1.1723    2.1828 H   0  0  0  0  0  0  0  0  0  0  0  0
    1.4725   -1.6768    0.4983 H   0  0  0  0  0  0  0  0  0  0  0  0
   -0.1605    1.2428    1.0243 H   0  0  0  0  0  0  0  0  0  0  0  0
    0.6286    4.7264   -0.0343 H   0  0  0  0  0  0  0  0  0  0  0  0
   -3.4219    3.7467    2.1090 H   0  0  0  0  0  0  0  0  0  0  0  0
   -4.8414    4.6275    1.5476 H   0  0  0  0  0  0  0  0  0  0  0  0
   -3.7773    5.3321    2.7843 H   0  0  0  0  0  0  0  0  0  0  0  0
   -0.5838    7.0732   -2.1694 H   0  0  0  0  0  0  0  0  0  0  0  0
   -0.5727    4.1264   -2.2868 H   0  0  0  0  0  0  0  0  0  0  0  0
    0.9926    4.9601   -2.2776 H   0  0  0  0  0  0  0  0  0  0  0  0
    1.5948    4.1588   -4.4510 H   0  0  0  0  0  0  0  0  0  0  0  0
    1.2920    4.3668   -6.9015 H   0  0  0  0  0  0  0  0  0  0  0  0
   -2.2162    6.4721   -6.4564 H   0  0  0  0  0  0  0  0  0  0  0  0
   -2.1011    6.3567   -3.9776 H   0  0  0  0  0  0  0  0  0  0  0  0
    2.8103    3.9854   -0.4706 H   0  0  0  0  0  0  0  0  0  0  0  0
    4.4772    2.1915   -0.3966 H   0  0  0  0  0  0  0  0  0  0  0  0
  1  2  1  0  0  0  0
  1 29  1  0  0  0  0
  1 30  1  0  0  0  0
  1 31  1  0  0  0  0
  2  3  1  0  0  0  0
  2 24  2  0  0  0  0
  3  4  2  0  0  0  0
  3 32  1  0  0  0  0
  4  5  1  0  0  0  0
  4 22  1  0  0  0  0
  5  6  1  0  0  0  0
  5 33  1  0  0  0  0
  6  7  2  0  0  0  0
  6  8  1  0  0  0  0
  8  9  1  0  0  0  0
  8 13  2  0  0  0  0
  9 10  1  0  0  0  0
  9 11  2  0  0  0  0
 10 34  1  0  0  0  0
 10 35  1  0  0  0  0
 10 36  1  0  0  0  0
 11 12  1  0  0  0  0
 12 13  1  0  0  0  0
 13 14  1  0  0  0  0
 14 15  1  0  0  0  0
 14 37  1  0  0  0  0
 15 16  1  0  0  0  0
 15 38  1  0  0  0  0
 15 39  1  0  0  0  0
 16 17  1  0  0  0  0
 16 21  2  0  0  0  0
 17 18  2  0  0  0  0
 17 40  1  0  0  0  0
 18 19  1  0  0  0  0
 18 41  1  0  0  0  0
 19 20  2  0  0  0  0
 20 21  1  0  0  0  0
 20 42  1  0  0  0  0
 21 43  1  0  0  0  0
 22 23  2  0  0  0  0
 22 44  1  0  0  0  0
 23 24  1  0  0  0  0
 23 45  1  0  0  0  0
 24 25  1  0  0  0  0
 25 26  1  0  0  0  0
 25 27  1  0  0  0  0
 25 28  1  0  0  0  0
M  END
$$$$
