CHEMBL380898
 OpenBabel04072215373D

 44 48  0  0  0  0  0  0  0  0999 V2000
    3.1766   -0.5852   -1.1198 C   0  0  0  0  0  0  0  0  0  0  0  0
    2.3658   -0.3360    0.0312 O   0  0  0  0  0  0  0  0  0  0  0  0
    2.9500    0.4177    1.0202 C   0  0  0  0  0  0  0  0  0  0  0  0
    3.8339    1.4527    0.6741 C   0  0  0  0  0  0  0  0  0  0  0  0
    4.5262    2.1552    1.6537 C   0  0  0  0  0  0  0  0  0  0  0  0
    5.5422    3.0655    1.3326 C   0  0  0  0  0  0  0  0  0  0  0  0
    6.3072    3.7980    2.2783 C   0  0  0  0  0  0  0  0  0  0  0  0
    5.9634    3.5795    3.6329 C   0  0  0  0  0  0  0  0  0  0  0  0
    6.5600    4.1875    4.7408 C   0  0  0  0  0  0  0  0  0  0  0  0
    7.5726    5.1230    5.0301 C   0  0  0  0  0  0  0  0  0  0  0  0
    7.8445    5.4644    6.3632 C   0  0  0  0  0  0  0  0  0  0  0  0
    7.1257    4.8942    7.4087 C   0  0  0  0  0  0  0  0  0  0  0  0
    6.1217    3.9602    7.1568 C   0  0  0  0  0  0  0  0  0  0  0  0
    5.8641    3.6232    5.8226 C   0  0  0  0  0  0  0  0  0  0  0  0
    4.9447    2.7217    5.3206 N   0  0  0  0  0  0  0  0  0  0  0  0
    4.9804    2.6795    3.9440 C   0  0  0  0  0  0  0  0  0  0  0  0
    4.2423    1.9148    3.0097 C   0  0  0  0  0  0  0  0  0  0  0  0
    3.2696    0.9388    3.3763 C   0  0  0  0  0  0  0  0  0  0  0  0
    3.1130    0.7498    4.7363 O   0  0  0  0  0  0  0  0  0  0  0  0
    1.8009    0.4604    5.2080 C   0  0  0  0  0  0  0  0  0  0  0  0
    2.6446    0.1570    2.3749 C   0  0  0  0  0  0  0  0  0  0  0  0
    1.8152   -0.8306    2.8375 O   0  0  0  0  0  0  0  0  0  0  0  0
    1.3061   -1.8176    1.9566 C   0  0  0  0  0  0  0  0  0  0  0  0
    7.2881    4.5824    1.5983 C   0  0  0  0  0  0  0  0  0  0  0  0
    8.1775    5.3437    1.9515 O   0  0  0  0  0  0  0  0  0  0  0  0
    7.0536    4.2921    0.2819 N   0  0  0  0  0  0  0  0  0  0  0  0
    6.0547    3.3980    0.0223 C   0  0  0  0  0  0  0  0  0  0  0  0
    5.7696    3.0278   -1.1098 O   0  0  0  0  0  0  0  0  0  0  0  0
    2.9605   -1.5976   -1.4721 H   0  0  0  0  0  0  0  0  0  0  0  0
    4.2530   -0.5406   -0.9142 H   0  0  0  0  0  0  0  0  0  0  0  0
    2.9097    0.1212   -1.9118 H   0  0  0  0  0  0  0  0  0  0  0  0
    3.9897    1.6819   -0.3751 H   0  0  0  0  0  0  0  0  0  0  0  0
    8.1573    5.5930    4.2474 H   0  0  0  0  0  0  0  0  0  0  0  0
    8.6288    6.1859    6.5797 H   0  0  0  0  0  0  0  0  0  0  0  0
    7.3491    5.1756    8.4348 H   0  0  0  0  0  0  0  0  0  0  0  0
    5.5626    3.5103    7.9709 H   0  0  0  0  0  0  0  0  0  0  0  0
    4.3231    2.1511    5.8771 H   0  0  0  0  0  0  0  0  0  0  0  0
    1.7815    0.6968    6.2773 H   0  0  0  0  0  0  0  0  0  0  0  0
    1.5776   -0.6066    5.1275 H   0  0  0  0  0  0  0  0  0  0  0  0
    1.0396    1.0751    4.7171 H   0  0  0  0  0  0  0  0  0  0  0  0
    0.7838   -2.5614    2.5671 H   0  0  0  0  0  0  0  0  0  0  0  0
    2.1087   -2.3431    1.4300 H   0  0  0  0  0  0  0  0  0  0  0  0
    0.5676   -1.3898    1.2724 H   0  0  0  0  0  0  0  0  0  0  0  0
    7.6201    4.6792   -0.4541 H   0  0  0  0  0  0  0  0  0  0  0  0
  1  2  1  0  0  0  0
  1 29  1  0  0  0  0
  1 30  1  0  0  0  0
  1 31  1  0  0  0  0
  2  3  1  0  0  0  0
  3  4  1  0  0  0  0
  3 21  2  0  0  0  0
  4  5  2  0  0  0  0
  4 32  1  0  0  0  0
  5  6  1  0  0  0  0
  5 17  1  0  0  0  0
  6  7  2  0  0  0  0
  6 27  1  0  0  0  0
  7  8  1  0  0  0  0
  7 24  1  0  0  0  0
  8  9  1  0  0  0  0
  8 16  2  0  0  0  0
  9 10  1  0  0  0  0
  9 14  2  0  0  0  0
 10 11  2  0  0  0  0
 10 33  1  0  0  0  0
 11 12  1  0  0  0  0
 11 34  1  0  0  0  0
 12 13  2  0  0  0  0
 12 35  1  0  0  0  0
 13 14  1  0  0  0  0
 13 36  1  0  0  0  0
 14 15  1  0  0  0  0
 15 16  1  0  0  0  0
 15 37  1  0  0  0  0
 16 17  1  0  0  0  0
 17 18  2  0  0  0  0
 18 19  1  0  0  0  0
 18 21  1  0  0  0  0
 19 20  1  0  0  0  0
 20 38  1  0  0  0  0
 20 39  1  0  0  0  0
 20 40  1  0  0  0  0
 21 22  1  0  0  0  0
 22 23  1  0  0  0  0
 23 41  1  0  0  0  0
 23 42  1  0  0  0  0
 23 43  1  0  0  0  0
 24 25  2  0  0  0  0
 24 26  1  0  0  0  0
 26 27  1  0  0  0  0
 26 44  1  0  0  0  0
 27 28  2  0  0  0  0
M  END
$$$$
