CHEMBL3671482
 OpenBabel04072215373D

 60 63  0  0  0  0  0  0  0  0999 V2000
    2.5075   -2.3860    0.9319 C   0  0  0  0  0  0  0  0  0  0  0  0
    3.1906   -1.3526    0.4286 C   0  0  0  0  0  0  0  0  0  0  0  0
    4.0765   -1.5607   -0.7462 C   0  0  0  0  0  0  0  0  0  0  0  0
    4.2815   -2.6772   -1.2029 O   0  0  0  0  0  0  0  0  0  0  0  0
    4.5550   -0.3679   -1.2657 N   0  0  0  0  0  0  0  0  0  0  0  0
    5.2123   -0.3630   -2.5104 C   0  0  0  0  0  0  0  0  0  0  0  0
    6.3488   -1.1702   -2.5743 C   0  0  0  0  0  0  0  0  0  0  0  0
    7.0313   -1.3886   -3.7752 C   0  0  0  0  0  0  0  0  0  0  0  0
    8.1361   -2.2444   -3.8810 C   0  0  0  0  0  0  0  0  0  0  0  0
    8.5773   -2.9490   -2.7266 N   0  0  0  0  0  0  0  0  0  0  0  0
    9.8287   -3.5970   -2.6333 C   0  0  0  0  0  0  0  0  0  0  0  0
   11.0245   -2.9555   -2.9823 C   0  0  0  0  0  0  0  0  0  0  0  0
   11.0238   -1.6538   -3.3110 F   0  0  0  0  0  0  0  0  0  0  0  0
   12.2422   -3.6266   -2.9710 C   0  0  0  0  0  0  0  0  0  0  0  0
   12.2779   -4.9653   -2.5906 C   0  0  0  0  0  0  0  0  0  0  0  0
   13.9166   -5.9047   -2.6404 Br  0  0  0  0  0  0  0  0  0  0  0  0
   11.1179   -5.6176   -2.1837 C   0  0  0  0  0  0  0  0  0  0  0  0
    9.9093   -4.9256   -2.2006 C   0  0  0  0  0  0  0  0  0  0  0  0
    8.7917   -5.5628   -1.8171 F   0  0  0  0  0  0  0  0  0  0  0  0
    8.7684   -2.4365   -5.0498 N   0  0  0  0  0  0  0  0  0  0  0  0
    8.2850   -1.7717   -6.1035 C   0  0  0  0  0  0  0  0  0  0  0  0
    7.2348   -0.9326   -6.1068 N   0  0  0  0  0  0  0  0  0  0  0  0
    6.6128   -0.7439   -4.9392 C   0  0  0  0  0  0  0  0  0  0  0  0
    5.5070    0.1131   -4.8511 C   0  0  0  0  0  0  0  0  0  0  0  0
    4.7941    0.3312   -3.6549 C   0  0  0  0  0  0  0  0  0  0  0  0
    3.7116    1.1628   -3.8308 O   0  0  0  0  0  0  0  0  0  0  0  0
    2.8970    1.4595   -2.7086 C   0  0  0  0  0  0  0  0  0  0  0  0
    1.7849    2.4877   -2.9776 C   0  0  0  0  0  0  0  0  0  0  0  0
    0.7005    1.9839   -3.9460 C   0  0  0  0  0  0  0  0  0  0  0  0
    1.0877    2.1492   -5.4123 C   0  0  0  0  0  0  0  0  0  0  0  0
    1.4733    3.5354   -5.6587 N   0  0  0  0  0  0  0  0  0  0  0  0
    0.7123    4.5066   -6.2886 C   0  0  0  0  0  0  0  0  0  0  0  0
   -0.6271    4.1386   -6.8781 C   0  0  0  0  0  0  0  0  0  0  0  0
    1.0965    5.6751   -6.3909 O   0  0  0  0  0  0  0  0  0  0  0  0
    2.6464    3.9563   -4.8995 C   0  0  0  0  0  0  0  0  0  0  0  0
    2.3468    3.8602   -3.4040 C   0  0  0  0  0  0  0  0  0  0  0  0
    1.8476   -2.2553    1.7819 H   0  0  0  0  0  0  0  0  0  0  0  0
    2.5808   -3.3770    0.5052 H   0  0  0  0  0  0  0  0  0  0  0  0
    3.1048   -0.3594    0.8628 H   0  0  0  0  0  0  0  0  0  0  0  0
    4.1988    0.4963   -0.8946 H   0  0  0  0  0  0  0  0  0  0  0  0
    6.7030   -1.6431   -1.6603 H   0  0  0  0  0  0  0  0  0  0  0  0
    7.8190   -3.5407   -2.3865 H   0  0  0  0  0  0  0  0  0  0  0  0
   13.1382   -3.0931   -3.2700 H   0  0  0  0  0  0  0  0  0  0  0  0
   11.1303   -6.6567   -1.8693 H   0  0  0  0  0  0  0  0  0  0  0  0
    8.7922   -1.9299   -7.0497 H   0  0  0  0  0  0  0  0  0  0  0  0
    5.1755    0.6002   -5.7672 H   0  0  0  0  0  0  0  0  0  0  0  0
    3.5234    1.9027   -1.9296 H   0  0  0  0  0  0  0  0  0  0  0  0
    2.4232    0.5376   -2.3493 H   0  0  0  0  0  0  0  0  0  0  0  0
    1.2969    2.6328   -2.0029 H   0  0  0  0  0  0  0  0  0  0  0  0
   -0.2118    2.5675   -3.7603 H   0  0  0  0  0  0  0  0  0  0  0  0
    0.4494    0.9385   -3.7338 H   0  0  0  0  0  0  0  0  0  0  0  0
    0.2715    1.8273   -6.0591 H   0  0  0  0  0  0  0  0  0  0  0  0
    1.9428    1.5133   -5.6635 H   0  0  0  0  0  0  0  0  0  0  0  0
   -1.0428    3.2031   -6.5120 H   0  0  0  0  0  0  0  0  0  0  0  0
   -0.5402    4.0991   -7.9670 H   0  0  0  0  0  0  0  0  0  0  0  0
   -1.3434    4.9208   -6.6045 H   0  0  0  0  0  0  0  0  0  0  0  0
    2.9352    4.9835   -5.1435 H   0  0  0  0  0  0  0  0  0  0  0  0
    3.4856    3.3135   -5.1826 H   0  0  0  0  0  0  0  0  0  0  0  0
    1.5946    4.6205   -3.1531 H   0  0  0  0  0  0  0  0  0  0  0  0
    3.2434    4.1096   -2.8245 H   0  0  0  0  0  0  0  0  0  0  0  0
  1  2  2  0  0  0  0
  1 37  1  0  0  0  0
  1 38  1  0  0  0  0
  2  3  1  0  0  0  0
  2 39  1  0  0  0  0
  3  4  2  0  0  0  0
  3  5  1  0  0  0  0
  5  6  1  0  0  0  0
  5 40  1  0  0  0  0
  6  7  1  0  0  0  0
  6 25  2  0  0  0  0
  7  8  2  0  0  0  0
  7 41  1  0  0  0  0
  8  9  1  0  0  0  0
  8 23  1  0  0  0  0
  9 10  1  0  0  0  0
  9 20  2  0  0  0  0
 10 11  1  0  0  0  0
 10 42  1  0  0  0  0
 11 12  1  0  0  0  0
 11 18  2  0  0  0  0
 12 13  1  0  0  0  0
 12 14  2  0  0  0  0
 14 15  1  0  0  0  0
 14 43  1  0  0  0  0
 15 16  1  0  0  0  0
 15 17  2  0  0  0  0
 17 18  1  0  0  0  0
 17 44  1  0  0  0  0
 18 19  1  0  0  0  0
 20 21  1  0  0  0  0
 21 22  2  0  0  0  0
 21 45  1  0  0  0  0
 22 23  1  0  0  0  0
 23 24  2  0  0  0  0
 24 25  1  0  0  0  0
 24 46  1  0  0  0  0
 25 26  1  0  0  0  0
 26 27  1  0  0  0  0
 27 28  1  0  0  0  0
 27 47  1  0  0  0  0
 27 48  1  0  0  0  0
 28 29  1  0  0  0  0
 28 36  1  0  0  0  0
 28 49  1  0  0  0  0
 29 30  1  0  0  0  0
 29 50  1  0  0  0  0
 29 51  1  0  0  0  0
 30 31  1  0  0  0  0
 30 52  1  0  0  0  0
 30 53  1  0  0  0  0
 31 32  1  0  0  0  0
 31 35  1  0  0  0  0
 32 33  1  0  0  0  0
 32 34  2  0  0  0  0
 33 54  1  0  0  0  0
 33 55  1  0  0  0  0
 33 56  1  0  0  0  0
 35 36  1  0  0  0  0
 35 57  1  0  0  0  0
 35 58  1  0  0  0  0
 36 59  1  0  0  0  0
 36 60  1  0  0  0  0
M  END
$$$$
