CHEMBL3896485
 OpenBabel04072215373D

 55 58  0  0  0  0  0  0  0  0999 V2000
    2.5462    0.2254    0.0675 C   0  0  0  0  0  0  0  0  0  0  0  0
    1.0447    0.0901    0.0997 C   0  0  0  0  0  0  0  0  0  0  0  0
    0.3108    1.2935    0.1854 C   0  0  0  0  0  0  0  0  0  0  0  0
   -1.0799    1.2943    0.1755 C   0  0  0  0  0  0  0  0  0  0  0  0
   -1.7653    0.1000   -0.0041 C   0  0  0  0  0  0  0  0  0  0  0  0
   -3.1422    0.0129   -0.1141 O   0  0  0  0  0  0  0  0  0  0  0  0
   -3.8275    1.0198   -0.7669 C   0  0  0  0  0  0  0  0  0  0  0  0
   -3.2999    1.7316   -1.8401 C   0  0  0  0  0  0  0  0  0  0  0  0
   -4.0409    2.7775   -2.3391 C   0  0  0  0  0  0  0  0  0  0  0  0
   -5.2675    3.0949   -1.8898 N   0  0  0  0  0  0  0  0  0  0  0  0
   -5.8203    2.3560   -0.9149 C   0  0  0  0  0  0  0  0  0  0  0  0
   -7.1166    2.6547   -0.4685 N   0  0  0  0  0  0  0  0  0  0  0  0
   -7.8719    3.7062   -0.9546 C   0  0  0  0  0  0  0  0  0  0  0  0
   -7.5402    4.5273   -1.7918 O   0  0  0  0  0  0  0  0  0  0  0  0
   -9.2354    3.8814   -0.3692 C   0  0  0  0  0  0  0  0  0  0  0  0
   -9.3737    4.2038    1.1017 C   0  0  0  0  0  0  0  0  0  0  0  0
   -9.9680    2.9399    0.5484 C   0  0  0  0  0  0  0  0  0  0  0  0
   -5.1254    1.2981   -0.3255 C   0  0  0  0  0  0  0  0  0  0  0  0
   -1.0511   -1.1049   -0.0376 C   0  0  0  0  0  0  0  0  0  0  0  0
    0.3555   -1.1411    0.0177 C   0  0  0  0  0  0  0  0  0  0  0  0
    1.0759   -2.3773    0.0259 N   0  0  0  0  0  0  0  0  0  0  0  0
    0.5274   -3.6486   -0.1222 C   0  0  0  0  0  0  0  0  0  0  0  0
   -0.6317   -3.8879   -0.4418 O   0  0  0  0  0  0  0  0  0  0  0  0
    1.4318   -4.6605    0.1905 N   0  0  0  0  0  0  0  0  0  0  0  0
    1.0372   -6.0261    0.1583 C   0  0  0  0  0  0  0  0  0  0  0  0
    1.3777   -6.8498    1.2277 C   0  0  0  0  0  0  0  0  0  0  0  0
    0.9256   -8.1726    1.2643 C   0  0  0  0  0  0  0  0  0  0  0  0
    0.1805   -8.7109    0.2067 C   0  0  0  0  0  0  0  0  0  0  0  0
   -0.3291  -10.3500    0.3872 Cl  0  0  0  0  0  0  0  0  0  0  0  0
   -0.1186   -7.9272   -0.9115 C   0  0  0  0  0  0  0  0  0  0  0  0
   -0.8641   -8.4249   -2.1242 C   0  0  0  0  0  0  0  0  0  0  0  0
   -1.1807   -9.7478   -2.1395 F   0  0  0  0  0  0  0  0  0  0  0  0
   -2.0439   -7.7689   -2.3137 F   0  0  0  0  0  0  0  0  0  0  0  0
   -0.1485   -8.2238   -3.2706 F   0  0  0  0  0  0  0  0  0  0  0  0
    0.3048   -6.5732   -0.9087 C   0  0  0  0  0  0  0  0  0  0  0  0
    2.8539    1.2610    0.2620 H   0  0  0  0  0  0  0  0  0  0  0  0
    2.9289   -0.0423   -0.9220 H   0  0  0  0  0  0  0  0  0  0  0  0
    3.0167   -0.3927    0.8361 H   0  0  0  0  0  0  0  0  0  0  0  0
    0.8216    2.2528    0.2547 H   0  0  0  0  0  0  0  0  0  0  0  0
   -1.6102    2.2376    0.2720 H   0  0  0  0  0  0  0  0  0  0  0  0
   -2.3268    1.5135   -2.2616 H   0  0  0  0  0  0  0  0  0  0  0  0
   -3.6601    3.4173   -3.1296 H   0  0  0  0  0  0  0  0  0  0  0  0
   -7.5107    2.0667    0.2514 H   0  0  0  0  0  0  0  0  0  0  0  0
   -9.8767    4.4504   -1.0411 H   0  0  0  0  0  0  0  0  0  0  0  0
  -10.0346    5.0226    1.3644 H   0  0  0  0  0  0  0  0  0  0  0  0
   -8.4974    4.1264    1.7340 H   0  0  0  0  0  0  0  0  0  0  0  0
  -11.0493    2.8993    0.4491 H   0  0  0  0  0  0  0  0  0  0  0  0
   -9.5315    1.9937    0.8329 H   0  0  0  0  0  0  0  0  0  0  0  0
   -5.5617    0.7044    0.4694 H   0  0  0  0  0  0  0  0  0  0  0  0
   -1.6437   -2.0091   -0.1149 H   0  0  0  0  0  0  0  0  0  0  0  0
    2.0815   -2.3221    0.0476 H   0  0  0  0  0  0  0  0  0  0  0  0
    2.0965   -4.4087    0.9093 H   0  0  0  0  0  0  0  0  0  0  0  0
    1.9349   -6.4644    2.0774 H   0  0  0  0  0  0  0  0  0  0  0  0
    1.1437   -8.7825    2.1386 H   0  0  0  0  0  0  0  0  0  0  0  0
    0.0581   -5.9453   -1.7650 H   0  0  0  0  0  0  0  0  0  0  0  0
  1  2  1  0  0  0  0
  1 36  1  0  0  0  0
  1 37  1  0  0  0  0
  1 38  1  0  0  0  0
  2  3  1  0  0  0  0
  2 20  2  0  0  0  0
  3  4  2  0  0  0  0
  3 39  1  0  0  0  0
  4  5  1  0  0  0  0
  4 40  1  0  0  0  0
  5  6  1  0  0  0  0
  5 19  2  0  0  0  0
  6  7  1  0  0  0  0
  7  8  1  0  0  0  0
  7 18  2  0  0  0  0
  8  9  2  0  0  0  0
  8 41  1  0  0  0  0
  9 10  1  0  0  0  0
  9 42  1  0  0  0  0
 10 11  2  0  0  0  0
 11 12  1  0  0  0  0
 11 18  1  0  0  0  0
 12 13  1  0  0  0  0
 12 43  1  0  0  0  0
 13 14  2  0  0  0  0
 13 15  1  0  0  0  0
 15 16  1  0  0  0  0
 15 17  1  0  0  0  0
 15 44  1  0  0  0  0
 16 17  1  0  0  0  0
 16 45  1  0  0  0  0
 16 46  1  0  0  0  0
 17 47  1  0  0  0  0
 17 48  1  0  0  0  0
 18 49  1  0  0  0  0
 19 20  1  0  0  0  0
 19 50  1  0  0  0  0
 20 21  1  0  0  0  0
 21 22  1  0  0  0  0
 21 51  1  0  0  0  0
 22 23  2  0  0  0  0
 22 24  1  0  0  0  0
 24 25  1  0  0  0  0
 24 52  1  0  0  0  0
 25 26  1  0  0  0  0
 25 35  2  0  0  0  0
 26 27  2  0  0  0  0
 26 53  1  0  0  0  0
 27 28  1  0  0  0  0
 27 54  1  0  0  0  0
 28 29  1  0  0  0  0
 28 30  2  0  0  0  0
 30 31  1  0  0  0  0
 30 35  1  0  0  0  0
 31 32  1  0  0  0  0
 31 33  1  0  0  0  0
 31 34  1  0  0  0  0
 35 55  1  0  0  0  0
M  END
$$$$
