CHEMBL3753208
 OpenBabel04072215373D

 40 42  0  0  0  0  0  0  0  0999 V2000
    0.8531    1.4010    0.9319 O   0  0  0  0  0  0  0  0  0  0  0  0
    2.0547    1.6175    0.8097 C   0  0  0  0  0  0  0  0  0  0  0  0
    2.6080    2.8260    0.4913 N   0  0  0  0  0  0  0  0  0  0  0  0
    1.8252    3.9300    0.1559 C   0  0  0  0  0  0  0  0  0  0  0  0
    0.7608    4.3465    0.9494 C   0  0  0  0  0  0  0  0  0  0  0  0
    0.0109    5.4340    0.5257 C   0  0  0  0  0  0  0  0  0  0  0  0
    0.3264    6.0450   -0.6839 C   0  0  0  0  0  0  0  0  0  0  0  0
    1.4179    5.5717   -1.3900 C   0  0  0  0  0  0  0  0  0  0  0  0
    2.2043    4.5561   -0.9734 N   0  0  0  0  0  0  0  0  0  0  0  0
    2.9181    0.5814    1.0624 N   0  0  0  0  0  0  0  0  0  0  0  0
    4.3195    0.5996    1.1428 C   0  0  0  0  0  0  0  0  0  0  0  0
    5.0539    1.0515    0.0319 C   0  0  0  0  0  0  0  0  0  0  0  0
    6.4494    1.2155    0.0546 C   0  0  0  0  0  0  0  0  0  0  0  0
    7.1673    1.7395   -1.1271 C   0  0  0  0  0  0  0  0  0  0  0  0
    6.5844    2.6822   -1.9911 C   0  0  0  0  0  0  0  0  0  0  0  0
    7.2545    3.1176   -3.1332 C   0  0  0  0  0  0  0  0  0  0  0  0
    8.5174    2.6161   -3.3815 C   0  0  0  0  0  0  0  0  0  0  0  0
    9.1377    1.7308   -2.5758 N   0  0  0  0  0  0  0  0  0  0  0  0
    8.4505    1.3170   -1.4805 C   0  0  0  0  0  0  0  0  0  0  0  0
    7.1057    0.8637    1.2396 C   0  0  0  0  0  0  0  0  0  0  0  0
    6.3950    0.3356    2.3280 C   0  0  0  0  0  0  0  0  0  0  0  0
    5.0061    0.1606    2.2822 C   0  0  0  0  0  0  0  0  0  0  0  0
    4.4906   -0.2859    3.4583 O   0  0  0  0  0  0  0  0  0  0  0  0
    3.3610   -1.1440    3.4794 C   0  0  0  0  0  0  0  0  0  0  0  0
    3.0178   -1.6156    2.2620 F   0  0  0  0  0  0  0  0  0  0  0  0
    3.6344   -2.2023    4.2710 F   0  0  0  0  0  0  0  0  0  0  0  0
    2.3076   -0.4820    3.9998 F   0  0  0  0  0  0  0  0  0  0  0  0
    3.4418    2.8037   -0.0670 H   0  0  0  0  0  0  0  0  0  0  0  0
    0.5293    3.8461    1.8806 H   0  0  0  0  0  0  0  0  0  0  0  0
   -0.8217    5.7941    1.1264 H   0  0  0  0  0  0  0  0  0  0  0  0
   -0.2667    6.8696   -1.0657 H   0  0  0  0  0  0  0  0  0  0  0  0
    1.6905    5.9991   -2.3499 H   0  0  0  0  0  0  0  0  0  0  0  0
    2.4202   -0.2063    1.4544 H   0  0  0  0  0  0  0  0  0  0  0  0
    4.5179    1.2436   -0.8988 H   0  0  0  0  0  0  0  0  0  0  0  0
    5.5980    3.0944   -1.7897 H   0  0  0  0  0  0  0  0  0  0  0  0
    6.7953    3.8295   -3.8105 H   0  0  0  0  0  0  0  0  0  0  0  0
    9.0786    2.9207   -4.2598 H   0  0  0  0  0  0  0  0  0  0  0  0
    8.9901    0.5863   -0.8829 H   0  0  0  0  0  0  0  0  0  0  0  0
    8.1799    0.9995    1.3471 H   0  0  0  0  0  0  0  0  0  0  0  0
    6.9395    0.0758    3.2340 H   0  0  0  0  0  0  0  0  0  0  0  0
  1  2  2  0  0  0  0
  2  3  1  0  0  0  0
  2 10  1  0  0  0  0
  3  4  1  0  0  0  0
  3 28  1  0  0  0  0
  4  5  1  0  0  0  0
  4  9  2  0  0  0  0
  5  6  2  0  0  0  0
  5 29  1  0  0  0  0
  6  7  1  0  0  0  0
  6 30  1  0  0  0  0
  7  8  2  0  0  0  0
  7 31  1  0  0  0  0
  8  9  1  0  0  0  0
  8 32  1  0  0  0  0
 10 11  1  0  0  0  0
 10 33  1  0  0  0  0
 11 12  1  0  0  0  0
 11 22  2  0  0  0  0
 12 13  2  0  0  0  0
 12 34  1  0  0  0  0
 13 14  1  0  0  0  0
 13 20  1  0  0  0  0
 14 15  1  0  0  0  0
 14 19  2  0  0  0  0
 15 16  2  0  0  0  0
 15 35  1  0  0  0  0
 16 17  1  0  0  0  0
 16 36  1  0  0  0  0
 17 18  2  0  0  0  0
 17 37  1  0  0  0  0
 18 19  1  0  0  0  0
 19 38  1  0  0  0  0
 20 21  2  0  0  0  0
 20 39  1  0  0  0  0
 21 22  1  0  0  0  0
 21 40  1  0  0  0  0
 22 23  1  0  0  0  0
 23 24  1  0  0  0  0
 24 25  1  0  0  0  0
 24 26  1  0  0  0  0
 24 27  1  0  0  0  0
M  END
$$$$
