CHEMBL4086694
 OpenBabel04072215383D

 55 59  0  0  0  0  0  0  0  0999 V2000
   -0.1233    1.9034   -3.2545 N   0  0  0  0  0  0  0  0  0  0  0  0
   -0.5641    0.8348   -2.5811 C   0  0  0  0  0  0  0  0  0  0  0  0
   -0.7367   -0.3143   -3.2290 N   0  0  0  0  0  0  0  0  0  0  0  0
   -1.1746   -1.1500   -2.2885 N   0  0  0  0  0  0  0  0  0  0  0  0
   -1.2777   -0.5965   -1.0428 C   0  0  0  0  0  0  0  0  0  0  0  0
   -1.6963   -1.1790    0.1560 C   0  0  0  0  0  0  0  0  0  0  0  0
   -1.6878   -0.3776    1.2893 C   0  0  0  0  0  0  0  0  0  0  0  0
   -1.2779    0.9516    1.2128 C   0  0  0  0  0  0  0  0  0  0  0  0
   -0.8695    1.5617   -0.0031 C   0  0  0  0  0  0  0  0  0  0  0  0
   -0.5076    2.9966   -0.0216 C   0  0  0  0  0  0  0  0  0  0  0  0
    0.5803    3.4835   -0.7513 C   0  0  0  0  0  0  0  0  0  0  0  0
    0.8028    4.8579   -0.9074 C   0  0  0  0  0  0  0  0  0  0  0  0
    0.0158    5.7894   -0.2325 C   0  0  0  0  0  0  0  0  0  0  0  0
    0.1886    7.1825   -0.3669 N   0  0  0  0  0  0  0  0  0  0  0  0
    0.8647    7.8076   -1.3942 C   0  0  0  0  0  0  0  0  0  0  0  0
    1.3193    7.2907   -2.4068 O   0  0  0  0  0  0  0  0  0  0  0  0
    1.1025    9.2682   -1.1896 C   0  0  0  0  0  0  0  0  0  0  0  0
    2.2801    9.5834   -0.3252 C   0  0  0  0  0  0  0  0  0  0  0  0
    2.0749   10.0437    0.7903 O   0  0  0  0  0  0  0  0  0  0  0  0
    3.4945    9.2706   -0.9024 N   0  0  0  0  0  0  0  0  0  0  0  0
    4.7708    9.4694   -0.3370 C   0  0  0  0  0  0  0  0  0  0  0  0
    4.9679   10.0804    0.8973 C   0  0  0  0  0  0  0  0  0  0  0  0
    6.2543   10.2664    1.4003 C   0  0  0  0  0  0  0  0  0  0  0  0
    6.4933   11.1108    3.0756 Br  0  0  0  0  0  0  0  0  0  0  0  0
    7.3634    9.8376    0.6798 C   0  0  0  0  0  0  0  0  0  0  0  0
    7.1905    9.1998   -0.5562 C   0  0  0  0  0  0  0  0  0  0  0  0
    8.3829    8.6996   -1.3330 C   0  0  0  0  0  0  0  0  0  0  0  0
    9.5704    8.9140   -0.7015 F   0  0  0  0  0  0  0  0  0  0  0  0
    8.3226    7.3606   -1.5689 F   0  0  0  0  0  0  0  0  0  0  0  0
    8.4953    9.2920   -2.5531 F   0  0  0  0  0  0  0  0  0  0  0  0
    5.8859    9.0257   -1.0601 C   0  0  0  0  0  0  0  0  0  0  0  0
   -0.0611   10.2572   -1.1831 C   0  0  0  0  0  0  0  0  0  0  0  0
    0.8293   10.1885   -2.3821 C   0  0  0  0  0  0  0  0  0  0  0  0
   -0.9673    5.3214    0.6366 C   0  0  0  0  0  0  0  0  0  0  0  0
   -1.2455    3.9471    0.7118 C   0  0  0  0  0  0  0  0  0  0  0  0
   -0.8702    0.7373   -1.1762 C   0  0  0  0  0  0  0  0  0  0  0  0
    0.0364    1.8049   -4.2498 H   0  0  0  0  0  0  0  0  0  0  0  0
   -0.1980    2.8546   -2.9230 H   0  0  0  0  0  0  0  0  0  0  0  0
   -1.3869   -2.1033   -2.5578 H   0  0  0  0  0  0  0  0  0  0  0  0
   -2.0127   -2.2160    0.2065 H   0  0  0  0  0  0  0  0  0  0  0  0
   -2.0040   -0.7912    2.2441 H   0  0  0  0  0  0  0  0  0  0  0  0
   -1.2748    1.5314    2.1349 H   0  0  0  0  0  0  0  0  0  0  0  0
    1.2583    2.7926   -1.2504 H   0  0  0  0  0  0  0  0  0  0  0  0
    1.6198    5.1641   -1.5539 H   0  0  0  0  0  0  0  0  0  0  0  0
   -0.2449    7.7718    0.3348 H   0  0  0  0  0  0  0  0  0  0  0  0
    3.4562    8.8255   -1.8163 H   0  0  0  0  0  0  0  0  0  0  0  0
    4.1333   10.4276    1.5021 H   0  0  0  0  0  0  0  0  0  0  0  0
    8.3633    9.9941    1.0804 H   0  0  0  0  0  0  0  0  0  0  0  0
    5.7576    8.5335   -2.0246 H   0  0  0  0  0  0  0  0  0  0  0  0
    0.0204   11.1420   -0.5568 H   0  0  0  0  0  0  0  0  0  0  0  0
   -1.0734    9.8851   -1.2784 H   0  0  0  0  0  0  0  0  0  0  0  0
    1.5166   11.0070   -2.5651 H   0  0  0  0  0  0  0  0  0  0  0  0
    0.4161    9.7548   -3.2872 H   0  0  0  0  0  0  0  0  0  0  0  0
   -1.5699    6.0083    1.2247 H   0  0  0  0  0  0  0  0  0  0  0  0
   -2.0732    3.6300    1.3442 H   0  0  0  0  0  0  0  0  0  0  0  0
  1  2  1  0  0  0  0
  1 37  1  0  0  0  0
  1 38  1  0  0  0  0
  2  3  2  0  0  0  0
  2 36  1  0  0  0  0
  3  4  1  0  0  0  0
  4  5  1  0  0  0  0
  4 39  1  0  0  0  0
  5  6  1  0  0  0  0
  5 36  2  0  0  0  0
  6  7  2  0  0  0  0
  6 40  1  0  0  0  0
  7  8  1  0  0  0  0
  7 41  1  0  0  0  0
  8  9  2  0  0  0  0
  8 42  1  0  0  0  0
  9 10  1  0  0  0  0
  9 36  1  0  0  0  0
 10 11  1  0  0  0  0
 10 35  2  0  0  0  0
 11 12  2  0  0  0  0
 11 43  1  0  0  0  0
 12 13  1  0  0  0  0
 12 44  1  0  0  0  0
 13 14  1  0  0  0  0
 13 34  2  0  0  0  0
 14 15  1  0  0  0  0
 14 45  1  0  0  0  0
 15 16  2  0  0  0  0
 15 17  1  0  0  0  0
 17 18  1  0  0  0  0
 17 32  1  0  0  0  0
 17 33  1  0  0  0  0
 18 19  2  0  0  0  0
 18 20  1  0  0  0  0
 20 21  1  0  0  0  0
 20 46  1  0  0  0  0
 21 22  1  0  0  0  0
 21 31  2  0  0  0  0
 22 23  2  0  0  0  0
 22 47  1  0  0  0  0
 23 24  1  0  0  0  0
 23 25  1  0  0  0  0
 25 26  2  0  0  0  0
 25 48  1  0  0  0  0
 26 27  1  0  0  0  0
 26 31  1  0  0  0  0
 27 28  1  0  0  0  0
 27 29  1  0  0  0  0
 27 30  1  0  0  0  0
 31 49  1  0  0  0  0
 32 33  1  0  0  0  0
 32 50  1  0  0  0  0
 32 51  1  0  0  0  0
 33 52  1  0  0  0  0
 33 53  1  0  0  0  0
 34 35  1  0  0  0  0
 34 54  1  0  0  0  0
 35 55  1  0  0  0  0
M  END
$$$$
