CHEMBL2088098
 OpenBabel04072215363D

 36 38  0  0  0  0  0  0  0  0999 V2000
    1.9593    0.4753   -1.6539 C   0  0  0  0  0  0  0  0  0  0  0  0
    0.6311    0.0804   -1.1351 C   0  0  0  0  0  0  0  0  0  0  0  0
   -0.1744   -1.0040   -1.5399 C   0  0  0  0  0  0  0  0  0  0  0  0
   -1.2809   -0.9293   -0.7292 C   0  0  0  0  0  0  0  0  0  0  0  0
   -2.4921   -1.7830   -0.5766 C   0  0  0  0  0  0  0  0  0  0  0  0
   -2.1371   -3.1419   -0.2181 N   0  0  0  0  0  0  0  0  0  0  0  0
   -3.1791   -4.0453   -0.1250 C   0  0  0  0  0  0  0  0  0  0  0  0
   -3.0124   -5.0184    0.7727 N   0  0  0  0  0  0  0  0  0  0  0  0
   -3.9803   -5.9493    0.8430 C   0  0  0  0  0  0  0  0  0  0  0  0
   -5.1112   -5.9240    0.0660 C   0  0  0  0  0  0  0  0  0  0  0  0
   -5.2033   -4.8831   -0.8345 C   0  0  0  0  0  0  0  0  0  0  0  0
   -6.3114   -4.8470   -1.7063 N   0  0  0  0  0  0  0  0  0  0  0  0
   -6.3594   -4.2117   -2.8951 C   0  0  0  0  0  0  0  0  0  0  0  0
   -5.2596   -4.0854   -3.7756 C   0  0  0  0  0  0  0  0  0  0  0  0
   -5.7253   -3.3641   -4.8486 C   0  0  0  0  0  0  0  0  0  0  0  0
   -5.0448   -2.8769   -6.0647 C   0  0  0  0  0  0  0  0  0  0  0  0
   -7.0450   -3.1340   -4.5773 N   0  0  0  0  0  0  0  0  0  0  0  0
   -7.4629   -3.6723   -3.4174 N   0  0  0  0  0  0  0  0  0  0  0  0
   -4.2390   -3.9477   -0.9292 N   0  0  0  0  0  0  0  0  0  0  0  0
   -1.1551    0.1393    0.1025 O   0  0  0  0  0  0  0  0  0  0  0  0
    0.0480    0.7796   -0.1517 N   0  0  0  0  0  0  0  0  0  0  0  0
    2.2947   -0.2132   -2.4375 H   0  0  0  0  0  0  0  0  0  0  0  0
    2.7076    0.4638   -0.8550 H   0  0  0  0  0  0  0  0  0  0  0  0
    1.9219    1.4811   -2.0828 H   0  0  0  0  0  0  0  0  0  0  0  0
    0.0251   -1.7521   -2.2916 H   0  0  0  0  0  0  0  0  0  0  0  0
   -3.0320   -1.7561   -1.5319 H   0  0  0  0  0  0  0  0  0  0  0  0
   -3.1530   -1.3497    0.1853 H   0  0  0  0  0  0  0  0  0  0  0  0
   -1.6027   -3.2271    0.6401 H   0  0  0  0  0  0  0  0  0  0  0  0
   -3.8019   -6.7506    1.5534 H   0  0  0  0  0  0  0  0  0  0  0  0
   -5.8552   -6.7053    0.1257 H   0  0  0  0  0  0  0  0  0  0  0  0
   -7.1883   -4.8661   -1.1997 H   0  0  0  0  0  0  0  0  0  0  0  0
   -4.2557   -4.4573   -3.6286 H   0  0  0  0  0  0  0  0  0  0  0  0
   -3.9994   -3.2034   -6.0794 H   0  0  0  0  0  0  0  0  0  0  0  0
   -5.0549   -1.7832   -6.0996 H   0  0  0  0  0  0  0  0  0  0  0  0
   -5.5312   -3.2628   -6.9654 H   0  0  0  0  0  0  0  0  0  0  0  0
   -7.7183   -2.6217   -5.1371 H   0  0  0  0  0  0  0  0  0  0  0  0
  1  2  1  0  0  0  0
  1 22  1  0  0  0  0
  1 23  1  0  0  0  0
  1 24  1  0  0  0  0
  2  3  1  0  0  0  0
  2 21  2  0  0  0  0
  3  4  2  0  0  0  0
  3 25  1  0  0  0  0
  4  5  1  0  0  0  0
  4 20  1  0  0  0  0
  5  6  1  0  0  0  0
  5 26  1  0  0  0  0
  5 27  1  0  0  0  0
  6  7  1  0  0  0  0
  6 28  1  0  0  0  0
  7  8  1  0  0  0  0
  7 19  2  0  0  0  0
  8  9  2  0  0  0  0
  9 10  1  0  0  0  0
  9 29  1  0  0  0  0
 10 11  2  0  0  0  0
 10 30  1  0  0  0  0
 11 12  1  0  0  0  0
 11 19  1  0  0  0  0
 12 13  1  0  0  0  0
 12 31  1  0  0  0  0
 13 14  1  0  0  0  0
 13 18  2  0  0  0  0
 14 15  2  0  0  0  0
 14 32  1  0  0  0  0
 15 16  1  0  0  0  0
 15 17  1  0  0  0  0
 16 33  1  0  0  0  0
 16 34  1  0  0  0  0
 16 35  1  0  0  0  0
 17 18  1  0  0  0  0
 17 36  1  0  0  0  0
 20 21  1  0  0  0  0
M  END
$$$$
