CHEMBL410100
 OpenBabel04072215383D

 62 68  0  0  0  0  0  0  0  0999 V2000
    2.8862   -1.3041    0.2447 C   0  0  0  0  0  0  0  0  0  0  0  0
    2.7856   -0.1552   -0.7552 C   0  0  0  0  0  0  0  0  0  0  0  0
    1.3326    0.3443   -0.8011 C   0  0  0  0  0  0  0  0  0  0  0  0
    3.7171    1.0165   -0.4080 C   0  0  0  0  0  0  0  0  0  0  0  0
    5.1413    0.7171   -0.2695 N   0  0  0  0  0  0  0  0  0  0  0  0
    5.8439    0.9025    0.9527 C   0  0  0  0  0  0  0  0  0  0  0  0
    5.3996    1.1522    2.2671 C   0  0  0  0  0  0  0  0  0  0  0  0
    6.3569    1.4325    3.2664 C   0  0  0  0  0  0  0  0  0  0  0  0
    7.7239    1.4114    2.9868 C   0  0  0  0  0  0  0  0  0  0  0  0
    8.7844    1.8225    3.9533 C   0  0  0  0  0  0  0  0  0  0  0  0
    9.7914    2.3615    3.5027 O   0  0  0  0  0  0  0  0  0  0  0  0
    8.6067    1.6045    5.3727 C   0  0  0  0  0  0  0  0  0  0  0  0
    9.2700    2.1704    6.4457 C   0  0  0  0  0  0  0  0  0  0  0  0
    8.7371    1.5767    7.6129 C   0  0  0  0  0  0  0  0  0  0  0  0
    7.8056    0.6626    7.1830 C   0  0  0  0  0  0  0  0  0  0  0  0
    7.7149    0.6739    5.8288 O   0  0  0  0  0  0  0  0  0  0  0  0
    8.1523    1.1373    1.6895 C   0  0  0  0  0  0  0  0  0  0  0  0
    7.2161    0.9330    0.6631 C   0  0  0  0  0  0  0  0  0  0  0  0
    7.2378    0.8837   -0.7135 C   0  0  0  0  0  0  0  0  0  0  0  0
    8.3360    1.3519   -1.4575 C   0  0  0  0  0  0  0  0  0  0  0  0
    8.0446    1.7681   -2.7720 C   0  0  0  0  0  0  0  0  0  0  0  0
    6.7850    1.6151   -3.3799 C   0  0  0  0  0  0  0  0  0  0  0  0
    5.9745    0.6101   -2.7458 C   0  0  0  0  0  0  0  0  0  0  0  0
    6.0473    0.6290   -1.3343 C   0  0  0  0  0  0  0  0  0  0  0  0
    5.9653   -0.7423   -3.5755 C   0  0  0  0  0  0  0  0  0  0  0  0
    7.0120   -0.7858   -4.7656 C   0  0  0  0  0  0  0  0  0  0  0  0
    6.8185    0.4673   -5.5432 C   0  0  0  0  0  0  0  0  0  0  0  0
    6.4187    0.5842   -6.8082 N   0  0  0  0  0  0  0  0  0  0  0  0
    5.9651    1.8623   -6.8550 N   0  0  0  0  0  0  0  0  0  0  0  0
    5.2978    2.3370   -8.0430 C   0  0  0  0  0  0  0  0  0  0  0  0
    5.9926    2.5007   -5.6376 C   0  0  0  0  0  0  0  0  0  0  0  0
    6.7049    1.6640   -4.8179 C   0  0  0  0  0  0  0  0  0  0  0  0
    9.2810    2.2136   -3.3605 C   0  0  0  0  0  0  0  0  0  0  0  0
    9.6038    2.6504   -4.4542 O   0  0  0  0  0  0  0  0  0  0  0  0
   10.2355    2.0069   -2.3707 N   0  0  0  0  0  0  0  0  0  0  0  0
    9.7367    1.5479   -1.0981 C   0  0  0  0  0  0  0  0  0  0  0  0
    2.1980   -2.1120   -0.0272 H   0  0  0  0  0  0  0  0  0  0  0  0
    2.6301   -0.9756    1.2597 H   0  0  0  0  0  0  0  0  0  0  0  0
    3.8956   -1.7253    0.2657 H   0  0  0  0  0  0  0  0  0  0  0  0
    3.0484   -0.5376   -1.7482 H   0  0  0  0  0  0  0  0  0  0  0  0
    1.0221    0.7593    0.1654 H   0  0  0  0  0  0  0  0  0  0  0  0
    0.6431   -0.4706   -1.0479 H   0  0  0  0  0  0  0  0  0  0  0  0
    1.2082    1.1274   -1.5562 H   0  0  0  0  0  0  0  0  0  0  0  0
    3.3785    1.4794    0.5264 H   0  0  0  0  0  0  0  0  0  0  0  0
    3.6364    1.8030   -1.1694 H   0  0  0  0  0  0  0  0  0  0  0  0
    4.3423    1.2009    2.5147 H   0  0  0  0  0  0  0  0  0  0  0  0
    6.0000    1.7073    4.2563 H   0  0  0  0  0  0  0  0  0  0  0  0
   10.0429    2.9246    6.3756 H   0  0  0  0  0  0  0  0  0  0  0  0
    9.0088    1.7812    8.6384 H   0  0  0  0  0  0  0  0  0  0  0  0
    7.1571   -0.0399    7.6866 H   0  0  0  0  0  0  0  0  0  0  0  0
    9.2147    1.1515    1.4693 H   0  0  0  0  0  0  0  0  0  0  0  0
    4.9604   -0.8709   -3.9911 H   0  0  0  0  0  0  0  0  0  0  0  0
    6.1815   -1.5803   -2.9034 H   0  0  0  0  0  0  0  0  0  0  0  0
    6.9025   -1.6789   -5.3848 H   0  0  0  0  0  0  0  0  0  0  0  0
    8.0362   -0.7927   -4.3600 H   0  0  0  0  0  0  0  0  0  0  0  0
    5.5260    1.6704   -8.8784 H   0  0  0  0  0  0  0  0  0  0  0  0
    5.6528    3.3462   -8.2633 H   0  0  0  0  0  0  0  0  0  0  0  0
    4.2218    2.3413   -7.8497 H   0  0  0  0  0  0  0  0  0  0  0  0
    5.4658    3.4288   -5.4663 H   0  0  0  0  0  0  0  0  0  0  0  0
   11.2072    2.1900   -2.5701 H   0  0  0  0  0  0  0  0  0  0  0  0
    9.8788    2.3401   -0.3621 H   0  0  0  0  0  0  0  0  0  0  0  0
   10.2321    0.6164   -0.8176 H   0  0  0  0  0  0  0  0  0  0  0  0
  1  2  1  0  0  0  0
  1 37  1  0  0  0  0
  1 38  1  0  0  0  0
  1 39  1  0  0  0  0
  2  3  1  0  0  0  0
  2  4  1  0  0  0  0
  2 40  1  0  0  0  0
  3 41  1  0  0  0  0
  3 42  1  0  0  0  0
  3 43  1  0  0  0  0
  4  5  1  0  0  0  0
  4 44  1  0  0  0  0
  4 45  1  0  0  0  0
  5  6  1  0  0  0  0
  5 24  1  0  0  0  0
  6  7  1  0  0  0  0
  6 18  2  0  0  0  0
  7  8  2  0  0  0  0
  7 46  1  0  0  0  0
  8  9  1  0  0  0  0
  8 47  1  0  0  0  0
  9 10  1  0  0  0  0
  9 17  2  0  0  0  0
 10 11  2  0  0  0  0
 10 12  1  0  0  0  0
 12 13  2  0  0  0  0
 12 16  1  0  0  0  0
 13 14  1  0  0  0  0
 13 48  1  0  0  0  0
 14 15  2  0  0  0  0
 14 49  1  0  0  0  0
 15 16  1  0  0  0  0
 15 50  1  0  0  0  0
 17 18  1  0  0  0  0
 17 51  1  0  0  0  0
 18 19  1  0  0  0  0
 19 20  1  0  0  0  0
 19 24  2  0  0  0  0
 20 21  2  0  0  0  0
 20 36  1  0  0  0  0
 21 22  1  0  0  0  0
 21 33  1  0  0  0  0
 22 23  2  0  0  0  0
 22 32  1  0  0  0  0
 23 24  1  0  0  0  0
 23 25  1  0  0  0  0
 25 26  1  0  0  0  0
 25 52  1  0  0  0  0
 25 53  1  0  0  0  0
 26 27  1  0  0  0  0
 26 54  1  0  0  0  0
 26 55  1  0  0  0  0
 27 28  2  0  0  0  0
 27 32  1  0  0  0  0
 28 29  1  0  0  0  0
 29 30  1  0  0  0  0
 29 31  1  0  0  0  0
 30 56  1  0  0  0  0
 30 57  1  0  0  0  0
 30 58  1  0  0  0  0
 31 32  2  0  0  0  0
 31 59  1  0  0  0  0
 33 34  2  0  0  0  0
 33 35  1  0  0  0  0
 35 36  1  0  0  0  0
 35 60  1  0  0  0  0
 36 61  1  0  0  0  0
 36 62  1  0  0  0  0
M  END
$$$$
