CHEMBL4635625
 OpenBabel04072215383D

 49 53  0  0  1  0  0  0  0  0999 V2000
    0.8832    0.0227    0.0874 C   0  0  0  0  0  0  0  0  0  0  0  0
    2.3468   -0.2300    0.1823 C   0  0  2  0  0  0  0  0  0  0  0  0
    3.3299    0.1768   -0.8776 C   0  0  2  0  0  0  0  0  0  0  0  0
    2.9106    0.5511   -2.2687 C   0  0  0  0  0  0  0  0  0  0  0  0
    2.7361   -0.7260   -2.9875 N   0  0  0  0  0  0  0  0  0  0  0  0
    3.8281   -1.0575   -3.8241 C   0  0  0  0  0  0  0  0  0  0  0  0
    5.0382   -0.5135   -3.5861 N   0  0  0  0  0  0  0  0  0  0  0  0
    6.0714   -0.8158   -4.3901 C   0  0  0  0  0  0  0  0  0  0  0  0
    7.3117   -0.1988   -4.1979 N   0  0  0  0  0  0  0  0  0  0  0  0
    7.6187    0.8480   -3.4064 C   0  0  0  0  0  0  0  0  0  0  0  0
    6.8530    1.4859   -2.4117 C   0  0  0  0  0  0  0  0  0  0  0  0
    7.4811    2.5254   -1.8611 N   0  0  0  0  0  0  0  0  0  0  0  0
    8.6539    2.5590   -2.5190 N   0  0  0  0  0  0  0  0  0  0  0  0
    9.6082    3.5971   -2.2194 C   0  0  0  0  0  0  0  0  0  0  0  0
    8.7935    1.5605   -3.4418 C   0  0  0  0  0  0  0  0  0  0  0  0
    5.9789   -1.6638   -5.4257 N   0  0  0  0  0  0  0  0  0  0  0  0
    4.7594   -2.1946   -5.6572 C   0  0  0  0  0  0  0  0  0  0  0  0
    3.6534   -1.9266   -4.8880 C   0  0  0  0  0  0  0  0  0  0  0  0
    2.4668   -2.4771   -5.1803 F   0  0  0  0  0  0  0  0  0  0  0  0
    2.4990   -1.8049   -1.9932 C   0  0  0  0  0  0  0  0  0  0  0  0
    3.0602   -1.2833   -0.6677 C   0  0  2  0  0  0  0  0  0  0  0  0
    3.9606   -2.1632    0.0372 N   0  0  0  0  0  0  0  0  0  0  0  0
    3.4989   -3.3431    0.5903 C   0  0  0  0  0  0  0  0  0  0  0  0
    2.3309   -3.7094    0.5068 O   0  0  0  0  0  0  0  0  0  0  0  0
    4.4581   -4.1973    1.3136 C   0  0  2  0  0  0  0  0  0  0  0  0
    5.1188   -3.6768    2.5812 C   0  0  0  0  0  0  0  0  0  0  0  0
    5.9131   -3.9595    1.3634 C   0  0  0  0  0  0  0  0  0  0  0  0
    6.7955   -5.0153    1.3550 F   0  0  0  0  0  0  0  0  0  0  0  0
    6.5006   -2.9278    0.6689 F   0  0  0  0  0  0  0  0  0  0  0  0
    0.6668    1.0598    0.3620 H   0  0  0  0  0  0  0  0  0  0  0  0
    0.3520   -0.6302    0.7856 H   0  0  0  0  0  0  0  0  0  0  0  0
    0.4734   -0.1521   -0.9121 H   0  0  0  0  0  0  0  0  0  0  0  0
    2.6793   -0.0965    1.2073 H   0  0  0  0  0  0  0  0  0  0  0  0
    4.2799    0.5935   -0.5802 H   0  0  0  0  0  0  0  0  0  0  0  0
    3.6073    1.2467   -2.7491 H   0  0  0  0  0  0  0  0  0  0  0  0
    1.9460    1.0709   -2.2494 H   0  0  0  0  0  0  0  0  0  0  0  0
    7.9484   -0.5361   -4.9097 H   0  0  0  0  0  0  0  0  0  0  0  0
    5.8629    1.2446   -2.0616 H   0  0  0  0  0  0  0  0  0  0  0  0
    9.1738    4.2903   -1.4926 H   0  0  0  0  0  0  0  0  0  0  0  0
    9.8392    4.1295   -3.1446 H   0  0  0  0  0  0  0  0  0  0  0  0
   10.5013    3.1291   -1.8030 H   0  0  0  0  0  0  0  0  0  0  0  0
    9.6880    1.4616   -4.0399 H   0  0  0  0  0  0  0  0  0  0  0  0
    4.6868   -2.8547   -6.5142 H   0  0  0  0  0  0  0  0  0  0  0  0
    2.9746   -2.7532   -2.2755 H   0  0  0  0  0  0  0  0  0  0  0  0
    1.4242   -1.9933   -1.9079 H   0  0  0  0  0  0  0  0  0  0  0  0
    4.9502   -1.9368    0.0541 H   0  0  0  0  0  0  0  0  0  0  0  0
    4.1619   -5.2428    1.3247 H   0  0  0  0  0  0  0  0  0  0  0  0
    5.2184   -4.3592    3.4148 H   0  0  0  0  0  0  0  0  0  0  0  0
    4.9794   -2.6392    2.8542 H   0  0  0  0  0  0  0  0  0  0  0  0
  1  2  1  0  0  0  0
  1 30  1  0  0  0  0
  1 31  1  0  0  0  0
  1 32  1  0  0  0  0
  2  3  1  0  0  0  0
  2 21  1  0  0  0  0
  2 33  1  1  0  0  0
  3  4  1  0  0  0  0
  3 21  1  0  0  0  0
  3 34  1  1  0  0  0
  4  5  1  0  0  0  0
  4 35  1  0  0  0  0
  4 36  1  0  0  0  0
  5  6  1  0  0  0  0
  5 20  1  0  0  0  0
  6  7  1  0  0  0  0
  6 18  2  0  0  0  0
  7  8  2  0  0  0  0
  8  9  1  0  0  0  0
  8 16  1  0  0  0  0
  9 10  1  0  0  0  0
  9 37  1  0  0  0  0
 10 11  1  0  0  0  0
 10 15  2  0  0  0  0
 11 12  2  0  0  0  0
 11 38  1  0  0  0  0
 12 13  1  0  0  0  0
 13 14  1  0  0  0  0
 13 15  1  0  0  0  0
 14 39  1  0  0  0  0
 14 40  1  0  0  0  0
 14 41  1  0  0  0  0
 15 42  1  0  0  0  0
 16 17  2  0  0  0  0
 17 18  1  0  0  0  0
 17 43  1  0  0  0  0
 18 19  1  0  0  0  0
 20 21  1  0  0  0  0
 20 44  1  0  0  0  0
 20 45  1  0  0  0  0
 21 22  1  1  0  0  0
 22 23  1  0  0  0  0
 22 46  1  0  0  0  0
 23 24  2  0  0  0  0
 23 25  1  0  0  0  0
 25 26  1  0  0  0  0
 25 27  1  0  0  0  0
 25 47  1  1  0  0  0
 26 27  1  0  0  0  0
 26 48  1  0  0  0  0
 26 49  1  0  0  0  0
 27 28  1  0  0  0  0
 27 29  1  0  0  0  0
M  END
$$$$
