CHEMBL3753836
 OpenBabel04072215373D

 44 46  0  0  0  0  0  0  0  0999 V2000
    1.0708    0.1436   -0.3640 C   0  0  0  0  0  0  0  0  0  0  0  0
    2.4158    0.0037    0.0940 O   0  0  0  0  0  0  0  0  0  0  0  0
    3.1166   -1.0985   -0.3258 C   0  0  0  0  0  0  0  0  0  0  0  0
    2.7441   -1.8038   -1.4683 C   0  0  0  0  0  0  0  0  0  0  0  0
    3.4624   -2.8981   -1.9451 C   0  0  0  0  0  0  0  0  0  0  0  0
    3.0233   -3.6685   -3.0604 N   0  0  0  0  0  0  0  0  0  0  0  0
    1.7870   -3.5361   -3.6651 C   0  0  0  0  0  0  0  0  0  0  0  0
    0.9146   -2.7406   -3.3302 O   0  0  0  0  0  0  0  0  0  0  0  0
    1.5724   -4.4552   -4.6860 N   0  0  0  0  0  0  0  0  0  0  0  0
    0.3179   -4.4422   -5.3585 C   0  0  0  0  0  0  0  0  0  0  0  0
   -0.2419   -3.2496   -5.8210 C   0  0  0  0  0  0  0  0  0  0  0  0
   -1.5249   -3.2849   -6.3390 C   0  0  0  0  0  0  0  0  0  0  0  0
   -2.2618   -4.4103   -6.4312 N   0  0  0  0  0  0  0  0  0  0  0  0
   -1.6847   -5.5486   -5.9926 C   0  0  0  0  0  0  0  0  0  0  0  0
   -0.3985   -5.6251   -5.4808 C   0  0  0  0  0  0  0  0  0  0  0  0
    4.6606   -3.2217   -1.3063 C   0  0  0  0  0  0  0  0  0  0  0  0
    5.1191   -2.5118   -0.1623 C   0  0  0  0  0  0  0  0  0  0  0  0
    6.4573   -2.8416    0.4180 C   0  0  0  0  0  0  0  0  0  0  0  0
    6.9884   -4.1420    0.4216 C   0  0  0  0  0  0  0  0  0  0  0  0
    8.2789   -4.3915    0.8974 C   0  0  0  0  0  0  0  0  0  0  0  0
    9.0157   -3.3328    1.3912 C   0  0  0  0  0  0  0  0  0  0  0  0
    8.5602   -2.0695    1.4297 N   0  0  0  0  0  0  0  0  0  0  0  0
    7.3091   -1.8597    0.9411 C   0  0  0  0  0  0  0  0  0  0  0  0
    4.2861   -1.4754    0.3567 C   0  0  0  0  0  0  0  0  0  0  0  0
    4.7291   -0.8739    1.5122 O   0  0  0  0  0  0  0  0  0  0  0  0
    3.7746   -0.2698    2.3768 C   0  0  0  0  0  0  0  0  0  0  0  0
    0.6359    1.0097    0.1401 H   0  0  0  0  0  0  0  0  0  0  0  0
    0.4746   -0.7368   -0.1020 H   0  0  0  0  0  0  0  0  0  0  0  0
    1.0290    0.3464   -1.4392 H   0  0  0  0  0  0  0  0  0  0  0  0
    1.8802   -1.4579   -2.0187 H   0  0  0  0  0  0  0  0  0  0  0  0
    3.6469   -4.3769   -3.4131 H   0  0  0  0  0  0  0  0  0  0  0  0
    1.9826   -5.3630   -4.5258 H   0  0  0  0  0  0  0  0  0  0  0  0
    0.2853   -2.3029   -5.7464 H   0  0  0  0  0  0  0  0  0  0  0  0
   -2.0085   -2.3776   -6.6900 H   0  0  0  0  0  0  0  0  0  0  0  0
   -2.3195   -6.4287   -6.0403 H   0  0  0  0  0  0  0  0  0  0  0  0
   -0.0192   -6.5697   -5.1136 H   0  0  0  0  0  0  0  0  0  0  0  0
    5.2644   -4.0319   -1.7095 H   0  0  0  0  0  0  0  0  0  0  0  0
    6.4096   -4.9833    0.0493 H   0  0  0  0  0  0  0  0  0  0  0  0
    8.6997   -5.3904    0.8784 H   0  0  0  0  0  0  0  0  0  0  0  0
   10.0239   -3.4731    1.7726 H   0  0  0  0  0  0  0  0  0  0  0  0
    7.0146   -0.8135    0.9721 H   0  0  0  0  0  0  0  0  0  0  0  0
    4.2498   -0.1425    3.3546 H   0  0  0  0  0  0  0  0  0  0  0  0
    2.8904   -0.9002    2.5195 H   0  0  0  0  0  0  0  0  0  0  0  0
    3.5093    0.7324    2.0277 H   0  0  0  0  0  0  0  0  0  0  0  0
  1  2  1  0  0  0  0
  1 27  1  0  0  0  0
  1 28  1  0  0  0  0
  1 29  1  0  0  0  0
  2  3  1  0  0  0  0
  3  4  1  0  0  0  0
  3 24  2  0  0  0  0
  4  5  2  0  0  0  0
  4 30  1  0  0  0  0
  5  6  1  0  0  0  0
  5 16  1  0  0  0  0
  6  7  1  0  0  0  0
  6 31  1  0  0  0  0
  7  8  2  0  0  0  0
  7  9  1  0  0  0  0
  9 10  1  0  0  0  0
  9 32  1  0  0  0  0
 10 11  1  0  0  0  0
 10 15  2  0  0  0  0
 11 12  2  0  0  0  0
 11 33  1  0  0  0  0
 12 13  1  0  0  0  0
 12 34  1  0  0  0  0
 13 14  2  0  0  0  0
 14 15  1  0  0  0  0
 14 35  1  0  0  0  0
 15 36  1  0  0  0  0
 16 17  2  0  0  0  0
 16 37  1  0  0  0  0
 17 18  1  0  0  0  0
 17 24  1  0  0  0  0
 18 19  1  0  0  0  0
 18 23  2  0  0  0  0
 19 20  2  0  0  0  0
 19 38  1  0  0  0  0
 20 21  1  0  0  0  0
 20 39  1  0  0  0  0
 21 22  2  0  0  0  0
 21 40  1  0  0  0  0
 22 23  1  0  0  0  0
 23 41  1  0  0  0  0
 24 25  1  0  0  0  0
 25 26  1  0  0  0  0
 26 42  1  0  0  0  0
 26 43  1  0  0  0  0
 26 44  1  0  0  0  0
M  END
$$$$
