CHEMBL3913496
 OpenBabel04072215373D

 58 61  0  0  1  0  0  0  0  0999 V2000
    1.0746   -0.4907   -0.1122 C   0  0  0  0  0  0  0  0  0  0  0  0
    2.4832   -0.3438   -0.0042 O   0  0  0  0  0  0  0  0  0  0  0  0
    3.0169   -0.1219    1.2328 C   0  0  0  0  0  0  0  0  0  0  0  0
    4.0998    0.7777    1.2061 C   0  0  0  0  0  0  0  0  0  0  0  0
    4.8534    1.0756    2.3738 C   0  0  0  0  0  0  0  0  0  0  0  0
    5.9076    1.9914    2.5107 C   0  0  0  0  0  0  0  0  0  0  0  0
    6.2238    2.8726    1.4467 N   0  0  0  0  0  0  0  0  0  0  0  0
    7.0049    4.0366    1.6435 C   0  0  0  0  0  0  0  0  0  0  0  0
    6.7307    4.9055    2.7143 C   0  0  0  0  0  0  0  0  0  0  0  0
    7.5669    5.9831    2.9990 C   0  0  0  0  0  0  0  0  0  0  0  0
    8.6817    6.2199    2.1983 C   0  0  0  0  0  0  0  0  0  0  0  0
    8.9422    5.3903    1.1050 C   0  0  0  0  0  0  0  0  0  0  0  0
   10.3269    5.6982    0.1293 Cl  0  0  0  0  0  0  0  0  0  0  0  0
    8.1034    4.3113    0.8259 C   0  0  0  0  0  0  0  0  0  0  0  0
    8.3618    3.4933   -0.2089 F   0  0  0  0  0  0  0  0  0  0  0  0
    6.5947    2.1385    3.6674 N   0  0  0  0  0  0  0  0  0  0  0  0
    6.2054    1.4164    4.7121 C   0  0  0  0  0  0  0  0  0  0  0  0
    5.1744    0.5838    4.7185 N   0  0  0  0  0  0  0  0  0  0  0  0
    4.5288    0.4375    3.5614 C   0  0  0  0  0  0  0  0  0  0  0  0
    3.4517   -0.4062    3.5789 C   0  0  0  0  0  0  0  0  0  0  0  0
    2.6765   -0.7325    2.4443 C   0  0  0  0  0  0  0  0  0  0  0  0
    1.6453   -1.6601    2.5304 O   0  0  0  0  0  0  0  0  0  0  0  0
    1.5080   -2.1728    3.8643 C   0  0  0  0  0  0  0  0  0  0  0  0
    0.4718   -3.2458    4.1412 C   0  0  3  0  0  0  0  0  0  0  0  0
   -0.9402   -2.7568    3.7965 C   0  0  0  0  0  0  0  0  0  0  0  0
   -1.8543   -3.9177    3.7413 N   0  0  0  0  0  0  0  0  0  0  0  0
   -1.8035   -4.7110    2.6049 C   0  0  0  0  0  0  0  0  0  0  0  0
   -2.6520   -5.7760    2.6372 N   0  0  0  0  0  0  0  0  0  0  0  0
   -0.9900   -4.4215    1.6408 N   0  0  0  0  0  0  0  0  0  0  0  0
   -0.9338   -5.2024    0.5623 C   0  0  0  0  0  0  0  0  0  0  0  0
   -0.9286   -5.9028   -0.3640 N   0  0  0  0  0  0  0  0  0  0  0  0
   -2.4620   -4.3242    5.0164 C   0  0  0  0  0  0  0  0  0  0  0  0
   -1.6086   -4.0711    6.2598 C   0  0  0  0  0  0  0  0  0  0  0  0
   -0.1699   -4.5316    6.0987 C   0  0  0  0  0  0  0  0  0  0  0  0
    0.6315   -3.4926    5.5583 O   0  0  0  0  0  0  0  0  0  0  0  0
    0.7362    0.1854   -0.9068 H   0  0  0  0  0  0  0  0  0  0  0  0
    0.5190   -0.2340    0.7928 H   0  0  0  0  0  0  0  0  0  0  0  0
    0.8467   -1.5116   -0.4312 H   0  0  0  0  0  0  0  0  0  0  0  0
    4.3617    1.2475    0.2598 H   0  0  0  0  0  0  0  0  0  0  0  0
    6.4884    2.3550    0.6131 H   0  0  0  0  0  0  0  0  0  0  0  0
    5.8760    4.7136    3.3613 H   0  0  0  0  0  0  0  0  0  0  0  0
    7.3563    6.6156    3.8576 H   0  0  0  0  0  0  0  0  0  0  0  0
    9.3459    7.0458    2.4372 H   0  0  0  0  0  0  0  0  0  0  0  0
    6.7611    1.5265    5.6359 H   0  0  0  0  0  0  0  0  0  0  0  0
    3.2540   -0.8183    4.5628 H   0  0  0  0  0  0  0  0  0  0  0  0
    1.2674   -1.3382    4.5394 H   0  0  0  0  0  0  0  0  0  0  0  0
    2.4614   -2.6319    4.1637 H   0  0  0  0  0  0  0  0  0  0  0  0
    0.7445   -4.1551    3.5945 H   0  0  0  0  0  0  0  0  0  0  0  0
   -0.9533   -2.2345    2.8323 H   0  0  0  0  0  0  0  0  0  0  0  0
   -1.2973   -2.0269    4.5329 H   0  0  0  0  0  0  0  0  0  0  0  0
   -3.5667   -5.5547    3.0081 H   0  0  0  0  0  0  0  0  0  0  0  0
   -2.7393   -6.3009    1.7724 H   0  0  0  0  0  0  0  0  0  0  0  0
   -2.7003   -5.3933    5.0160 H   0  0  0  0  0  0  0  0  0  0  0  0
   -3.4134   -3.7919    5.1281 H   0  0  0  0  0  0  0  0  0  0  0  0
   -2.0666   -4.6148    7.0952 H   0  0  0  0  0  0  0  0  0  0  0  0
   -1.6369   -3.0078    6.5292 H   0  0  0  0  0  0  0  0  0  0  0  0
   -0.0650   -5.4525    5.5166 H   0  0  0  0  0  0  0  0  0  0  0  0
    0.2416   -4.7292    7.0954 H   0  0  0  0  0  0  0  0  0  0  0  0
  1  2  1  0  0  0  0
  1 36  1  0  0  0  0
  1 37  1  0  0  0  0
  1 38  1  0  0  0  0
  2  3  1  0  0  0  0
  3  4  1  0  0  0  0
  3 21  2  0  0  0  0
  4  5  2  0  0  0  0
  4 39  1  0  0  0  0
  5  6  1  0  0  0  0
  5 19  1  0  0  0  0
  6  7  1  0  0  0  0
  6 16  2  0  0  0  0
  7  8  1  0  0  0  0
  7 40  1  0  0  0  0
  8  9  1  0  0  0  0
  8 14  2  0  0  0  0
  9 10  2  0  0  0  0
  9 41  1  0  0  0  0
 10 11  1  0  0  0  0
 10 42  1  0  0  0  0
 11 12  2  0  0  0  0
 11 43  1  0  0  0  0
 12 13  1  0  0  0  0
 12 14  1  0  0  0  0
 14 15  1  0  0  0  0
 16 17  1  0  0  0  0
 17 18  2  0  0  0  0
 17 44  1  0  0  0  0
 18 19  1  0  0  0  0
 19 20  2  0  0  0  0
 20 21  1  0  0  0  0
 20 45  1  0  0  0  0
 21 22  1  0  0  0  0
 22 23  1  0  0  0  0
 23 24  1  0  0  0  0
 23 46  1  0  0  0  0
 23 47  1  0  0  0  0
 24 25  1  0  0  0  0
 24 35  1  0  0  0  0
 24 48  1  0  0  0  0
 25 26  1  0  0  0  0
 25 49  1  0  0  0  0
 25 50  1  0  0  0  0
 26 27  1  0  0  0  0
 26 32  1  0  0  0  0
 27 28  1  0  0  0  0
 27 29  2  0  0  0  0
 28 51  1  0  0  0  0
 28 52  1  0  0  0  0
 29 30  1  0  0  0  0
 30 31  3  0  0  0  0
 32 33  1  0  0  0  0
 32 53  1  0  0  0  0
 32 54  1  0  0  0  0
 33 34  1  0  0  0  0
 33 55  1  0  0  0  0
 33 56  1  0  0  0  0
 34 35  1  0  0  0  0
 34 57  1  0  0  0  0
 34 58  1  0  0  0  0
M  END
$$$$
