CHEMBL425363
 OpenBabel04072215383D

 67 69  0  0  0  0  0  0  0  0999 V2000
    1.4132    0.2862    5.0919 C   0  0  0  0  0  0  0  0  0  0  0  0
    2.7748    0.2667    4.6829 O   0  0  0  0  0  0  0  0  0  0  0  0
    3.0658    0.8820    3.4947 C   0  0  0  0  0  0  0  0  0  0  0  0
    2.1393    1.4089    2.5975 C   0  0  0  0  0  0  0  0  0  0  0  0
    2.5873    2.0449    1.4432 C   0  0  0  0  0  0  0  0  0  0  0  0
    1.7812    2.6706    0.5309 O   0  0  0  0  0  0  0  0  0  0  0  0
    0.5769    3.2240    1.0570 C   0  0  0  0  0  0  0  0  0  0  0  0
    3.9542    2.0791    1.1556 C   0  0  0  0  0  0  0  0  0  0  0  0
    4.9209    1.5805    2.0551 C   0  0  0  0  0  0  0  0  0  0  0  0
    6.3708    1.8157    1.8281 C   0  0  0  0  0  0  0  0  0  0  0  0
    6.7549    3.0352    1.2341 C   0  0  0  0  0  0  0  0  0  0  0  0
    8.0958    3.3747    1.0489 C   0  0  0  0  0  0  0  0  0  0  0  0
    8.4762    4.5648    0.4317 C   0  0  0  0  0  0  0  0  0  0  0  0
    9.7562    4.9197    0.2326 N   0  0  0  0  0  0  0  0  0  0  0  0
   10.7163    4.0731    0.6260 C   0  0  0  0  0  0  0  0  0  0  0  0
   12.0348    4.4159    0.4055 N   0  0  0  0  0  0  0  0  0  0  0  0
   12.3794    5.7972    0.1221 C   0  0  0  0  0  0  0  0  0  0  0  0
   13.8561    5.9265   -0.2578 C   0  0  0  0  0  0  0  0  0  0  0  0
   14.1729    5.2516   -1.5976 C   0  0  0  0  0  0  0  0  0  0  0  0
   15.6412    5.3893   -1.9814 C   0  0  0  0  0  0  0  0  0  0  0  0
   15.9967    6.7549   -2.1426 O   0  0  0  0  0  0  0  0  0  0  0  0
   10.4023    2.8729    1.2705 C   0  0  0  0  0  0  0  0  0  0  0  0
    9.0770    2.5042    1.5035 C   0  0  0  0  0  0  0  0  0  0  0  0
    8.7531    1.3527    2.1448 N   0  0  0  0  0  0  0  0  0  0  0  0
    7.4380    0.9980    2.2490 C   0  0  0  0  0  0  0  0  0  0  0  0
    7.2139   -0.2417    2.9067 N   0  0  0  0  0  0  0  0  0  0  0  0
    7.0118   -1.3689    2.1257 C   0  0  0  0  0  0  0  0  0  0  0  0
    7.0086   -1.3705    0.9014 O   0  0  0  0  0  0  0  0  0  0  0  0
    6.8725   -2.5097    2.9027 N   0  0  0  0  0  0  0  0  0  0  0  0
    6.8180   -3.8833    2.3438 C   0  0  0  0  0  0  0  0  0  0  0  0
    8.1653   -4.2366    1.6908 C   0  0  0  0  0  0  0  0  0  0  0  0
    6.5685   -4.9081    3.4734 C   0  0  0  0  0  0  0  0  0  0  0  0
    5.6827   -4.0469    1.3196 C   0  0  0  0  0  0  0  0  0  0  0  0
    4.4359    0.9822    3.2257 C   0  0  0  0  0  0  0  0  0  0  0  0
    1.3637   -0.1266    6.1032 H   0  0  0  0  0  0  0  0  0  0  0  0
    0.8047   -0.3457    4.4375 H   0  0  0  0  0  0  0  0  0  0  0  0
    1.0233    1.3090    5.1315 H   0  0  0  0  0  0  0  0  0  0  0  0
    1.0760    1.3322    2.7864 H   0  0  0  0  0  0  0  0  0  0  0  0
    0.2572    4.0319    0.3910 H   0  0  0  0  0  0  0  0  0  0  0  0
    0.7164    3.6603    2.0532 H   0  0  0  0  0  0  0  0  0  0  0  0
   -0.2092    2.4634    1.0733 H   0  0  0  0  0  0  0  0  0  0  0  0
    4.2574    2.5511    0.2241 H   0  0  0  0  0  0  0  0  0  0  0  0
    5.9982    3.7549    0.9283 H   0  0  0  0  0  0  0  0  0  0  0  0
    7.7464    5.2752    0.0724 H   0  0  0  0  0  0  0  0  0  0  0  0
   12.7594    3.7353    0.5708 H   0  0  0  0  0  0  0  0  0  0  0  0
   12.1962    6.4026    1.0185 H   0  0  0  0  0  0  0  0  0  0  0  0
   11.7655    6.2096   -0.6889 H   0  0  0  0  0  0  0  0  0  0  0  0
   14.4839    5.4966    0.5320 H   0  0  0  0  0  0  0  0  0  0  0  0
   14.1036    6.9936   -0.3192 H   0  0  0  0  0  0  0  0  0  0  0  0
   13.5509    5.7061   -2.3780 H   0  0  0  0  0  0  0  0  0  0  0  0
   13.9212    4.1865   -1.5511 H   0  0  0  0  0  0  0  0  0  0  0  0
   15.8397    4.8684   -2.9237 H   0  0  0  0  0  0  0  0  0  0  0  0
   16.2884    4.9555   -1.2128 H   0  0  0  0  0  0  0  0  0  0  0  0
   15.4436    7.1179   -2.8557 H   0  0  0  0  0  0  0  0  0  0  0  0
   11.1941    2.2114    1.6021 H   0  0  0  0  0  0  0  0  0  0  0  0
    7.9754   -0.4396    3.5398 H   0  0  0  0  0  0  0  0  0  0  0  0
    6.3723   -2.3509    3.7689 H   0  0  0  0  0  0  0  0  0  0  0  0
    8.9812   -4.1825    2.4218 H   0  0  0  0  0  0  0  0  0  0  0  0
    8.4151   -3.5535    0.8735 H   0  0  0  0  0  0  0  0  0  0  0  0
    8.1535   -5.2524    1.2792 H   0  0  0  0  0  0  0  0  0  0  0  0
    7.3656   -4.8901    4.2250 H   0  0  0  0  0  0  0  0  0  0  0  0
    6.5213   -5.9297    3.0719 H   0  0  0  0  0  0  0  0  0  0  0  0
    5.6212   -4.7172    3.9892 H   0  0  0  0  0  0  0  0  0  0  0  0
    5.8381   -3.4337    0.4280 H   0  0  0  0  0  0  0  0  0  0  0  0
    4.7161   -3.7683    1.7531 H   0  0  0  0  0  0  0  0  0  0  0  0
    5.6106   -5.0866    0.9774 H   0  0  0  0  0  0  0  0  0  0  0  0
    5.1226    0.6127    3.9828 H   0  0  0  0  0  0  0  0  0  0  0  0
  1  2  1  0  0  0  0
  1 35  1  0  0  0  0
  1 36  1  0  0  0  0
  1 37  1  0  0  0  0
  2  3  1  0  0  0  0
  3  4  1  0  0  0  0
  3 34  2  0  0  0  0
  4  5  2  0  0  0  0
  4 38  1  0  0  0  0
  5  6  1  0  0  0  0
  5  8  1  0  0  0  0
  6  7  1  0  0  0  0
  7 39  1  0  0  0  0
  7 40  1  0  0  0  0
  7 41  1  0  0  0  0
  8  9  2  0  0  0  0
  8 42  1  0  0  0  0
  9 10  1  0  0  0  0
  9 34  1  0  0  0  0
 10 11  1  0  0  0  0
 10 25  2  0  0  0  0
 11 12  2  0  0  0  0
 11 43  1  0  0  0  0
 12 13  1  0  0  0  0
 12 23  1  0  0  0  0
 13 14  2  0  0  0  0
 13 44  1  0  0  0  0
 14 15  1  0  0  0  0
 15 16  1  0  0  0  0
 15 22  2  0  0  0  0
 16 17  1  0  0  0  0
 16 45  1  0  0  0  0
 17 18  1  0  0  0  0
 17 46  1  0  0  0  0
 17 47  1  0  0  0  0
 18 19  1  0  0  0  0
 18 48  1  0  0  0  0
 18 49  1  0  0  0  0
 19 20  1  0  0  0  0
 19 50  1  0  0  0  0
 19 51  1  0  0  0  0
 20 21  1  0  0  0  0
 20 52  1  0  0  0  0
 20 53  1  0  0  0  0
 21 54  1  0  0  0  0
 22 23  1  0  0  0  0
 22 55  1  0  0  0  0
 23 24  2  0  0  0  0
 24 25  1  0  0  0  0
 25 26  1  0  0  0  0
 26 27  1  0  0  0  0
 26 56  1  0  0  0  0
 27 28  2  0  0  0  0
 27 29  1  0  0  0  0
 29 30  1  0  0  0  0
 29 57  1  0  0  0  0
 30 31  1  0  0  0  0
 30 32  1  0  0  0  0
 30 33  1  0  0  0  0
 31 58  1  0  0  0  0
 31 59  1  0  0  0  0
 31 60  1  0  0  0  0
 32 61  1  0  0  0  0
 32 62  1  0  0  0  0
 32 63  1  0  0  0  0
 33 64  1  0  0  0  0
 33 65  1  0  0  0  0
 33 66  1  0  0  0  0
 34 67  1  0  0  0  0
M  END
$$$$
