CHEMBL200976
 OpenBabel04072215363D

 61 66  0  0  0  0  0  0  0  0999 V2000
    1.2705   -2.2724   -0.1519 C   0  0  0  0  0  0  0  0  0  0  0  0
    2.6584   -2.2144   -0.4834 O   0  0  0  0  0  0  0  0  0  0  0  0
    3.0801   -0.9826   -0.8758 C   0  0  0  0  0  0  0  0  0  0  0  0
    2.4002    0.0153   -1.0338 O   0  0  0  0  0  0  0  0  0  0  0  0
    4.5518   -0.9984   -0.9525 C   0  0  0  0  0  0  0  0  0  0  0  0
    5.2717   -1.1107    0.2741 C   0  0  0  0  0  0  0  0  0  0  0  0
    4.4248   -1.2053    1.3771 O   0  0  0  0  0  0  0  0  0  0  0  0
    4.9447   -0.7510    2.6091 C   0  0  0  0  0  0  0  0  0  0  0  0
    3.9289   -0.2083    3.6198 C   0  0  0  0  0  0  0  0  0  0  0  0
    4.6428    0.1776    4.8627 N   0  0  0  0  0  0  0  0  0  0  0  0
    5.6373    1.2443    4.6414 C   0  0  0  0  0  0  0  0  0  0  0  0
    6.4516    1.5174    5.9004 C   0  0  0  0  0  0  0  0  0  0  0  0
    5.5446    1.8929    7.0571 C   0  0  0  0  0  0  0  0  0  0  0  0
    4.4536    0.8417    7.2348 C   0  0  0  0  0  0  0  0  0  0  0  0
    3.7052    0.5635    5.9245 C   0  0  0  0  0  0  0  0  0  0  0  0
    6.7174   -1.0837    0.2935 C   0  0  0  0  0  0  0  0  0  0  0  0
    7.6037   -1.1290    1.4174 C   0  0  0  0  0  0  0  0  0  0  0  0
    8.9945   -1.0021    1.3246 C   0  0  0  0  0  0  0  0  0  0  0  0
    9.5964   -0.9457    0.0841 C   0  0  0  0  0  0  0  0  0  0  0  0
    8.7998   -0.9555   -1.0555 C   0  0  0  0  0  0  0  0  0  0  0  0
    7.3869   -0.9726   -0.9493 C   0  0  0  0  0  0  0  0  0  0  0  0
    6.6259   -0.8131   -2.1275 C   0  0  0  0  0  0  0  0  0  0  0  0
    7.1504   -0.6191   -3.3769 O   0  0  0  0  0  0  0  0  0  0  0  0
    6.1159   -0.4211   -4.2224 C   0  0  0  0  0  0  0  0  0  0  0  0
    4.9128   -0.5037   -3.5457 C   0  0  0  0  0  0  0  0  0  0  0  0
    5.2287   -0.7825   -2.1759 C   0  0  0  0  0  0  0  0  0  0  0  0
    3.6774   -0.2934   -4.2748 C   0  0  0  0  0  0  0  0  0  0  0  0
    2.5726   -0.3242   -3.7521 O   0  0  0  0  0  0  0  0  0  0  0  0
    3.7906   -0.0508   -5.7401 C   0  0  0  0  0  0  0  0  0  0  0  0
    2.6075    0.0924   -6.4823 C   0  0  0  0  0  0  0  0  0  0  0  0
    2.6599    0.2822   -7.8622 C   0  0  0  0  0  0  0  0  0  0  0  0
    3.8932    0.3451   -8.5097 C   0  0  0  0  0  0  0  0  0  0  0  0
    5.0803    0.2188   -7.7811 C   0  0  0  0  0  0  0  0  0  0  0  0
    5.0391    0.0142   -6.3939 C   0  0  0  0  0  0  0  0  0  0  0  0
    6.3082   -0.1507   -5.6232 C   0  0  0  0  0  0  0  0  0  0  0  0
    7.3957   -0.0589   -6.1904 O   0  0  0  0  0  0  0  0  0  0  0  0
    1.0751   -3.2291    0.3429 H   0  0  0  0  0  0  0  0  0  0  0  0
    0.6726   -2.2217   -1.0650 H   0  0  0  0  0  0  0  0  0  0  0  0
    0.9890   -1.4728    0.5427 H   0  0  0  0  0  0  0  0  0  0  0  0
    5.6127    0.0777    2.3827 H   0  0  0  0  0  0  0  0  0  0  0  0
    5.4445   -1.6001    3.0867 H   0  0  0  0  0  0  0  0  0  0  0  0
    3.1973   -0.9982    3.8332 H   0  0  0  0  0  0  0  0  0  0  0  0
    3.3690    0.6309    3.1902 H   0  0  0  0  0  0  0  0  0  0  0  0
    5.1501    2.1609    4.2875 H   0  0  0  0  0  0  0  0  0  0  0  0
    6.3791    0.9596    3.8939 H   0  0  0  0  0  0  0  0  0  0  0  0
    7.1704    2.3204    5.7040 H   0  0  0  0  0  0  0  0  0  0  0  0
    7.0366    0.6244    6.1571 H   0  0  0  0  0  0  0  0  0  0  0  0
    5.0881    2.8694    6.8568 H   0  0  0  0  0  0  0  0  0  0  0  0
    6.1354    1.9907    7.9741 H   0  0  0  0  0  0  0  0  0  0  0  0
    3.7480    1.1753    8.0026 H   0  0  0  0  0  0  0  0  0  0  0  0
    4.9075   -0.0892    7.5992 H   0  0  0  0  0  0  0  0  0  0  0  0
    3.1268    1.4490    5.6307 H   0  0  0  0  0  0  0  0  0  0  0  0
    2.9930   -0.2491    6.1068 H   0  0  0  0  0  0  0  0  0  0  0  0
    7.2516   -1.2334    2.4345 H   0  0  0  0  0  0  0  0  0  0  0  0
    9.5907   -0.9538    2.2335 H   0  0  0  0  0  0  0  0  0  0  0  0
   10.6782   -0.8869    0.0062 H   0  0  0  0  0  0  0  0  0  0  0  0
    9.2850   -0.9237   -2.0290 H   0  0  0  0  0  0  0  0  0  0  0  0
    1.6388    0.0463   -5.9861 H   0  0  0  0  0  0  0  0  0  0  0  0
    1.7362    0.3759   -8.4295 H   0  0  0  0  0  0  0  0  0  0  0  0
    3.9271    0.4900   -9.5878 H   0  0  0  0  0  0  0  0  0  0  0  0
    6.0340    0.2699   -8.3040 H   0  0  0  0  0  0  0  0  0  0  0  0
  1  2  1  0  0  0  0
  1 37  1  0  0  0  0
  1 38  1  0  0  0  0
  1 39  1  0  0  0  0
  2  3  1  0  0  0  0
  3  4  2  0  0  0  0
  3  5  1  0  0  0  0
  5  6  1  0  0  0  0
  5 26  2  0  0  0  0
  6  7  1  0  0  0  0
  6 16  2  0  0  0  0
  7  8  1  0  0  0  0
  8  9  1  0  0  0  0
  8 40  1  0  0  0  0
  8 41  1  0  0  0  0
  9 10  1  0  0  0  0
  9 42  1  0  0  0  0
  9 43  1  0  0  0  0
 10 11  1  0  0  0  0
 10 15  1  0  0  0  0
 11 12  1  0  0  0  0
 11 44  1  0  0  0  0
 11 45  1  0  0  0  0
 12 13  1  0  0  0  0
 12 46  1  0  0  0  0
 12 47  1  0  0  0  0
 13 14  1  0  0  0  0
 13 48  1  0  0  0  0
 13 49  1  0  0  0  0
 14 15  1  0  0  0  0
 14 50  1  0  0  0  0
 14 51  1  0  0  0  0
 15 52  1  0  0  0  0
 15 53  1  0  0  0  0
 16 17  1  0  0  0  0
 16 21  1  0  0  0  0
 17 18  2  0  0  0  0
 17 54  1  0  0  0  0
 18 19  1  0  0  0  0
 18 55  1  0  0  0  0
 19 20  2  0  0  0  0
 19 56  1  0  0  0  0
 20 21  1  0  0  0  0
 20 57  1  0  0  0  0
 21 22  2  0  0  0  0
 22 23  1  0  0  0  0
 22 26  1  0  0  0  0
 23 24  1  0  0  0  0
 24 25  2  0  0  0  0
 24 35  1  0  0  0  0
 25 26  1  0  0  0  0
 25 27  1  0  0  0  0
 27 28  2  0  0  0  0
 27 29  1  0  0  0  0
 29 30  1  0  0  0  0
 29 34  2  0  0  0  0
 30 31  2  0  0  0  0
 30 58  1  0  0  0  0
 31 32  1  0  0  0  0
 31 59  1  0  0  0  0
 32 33  2  0  0  0  0
 32 60  1  0  0  0  0
 33 34  1  0  0  0  0
 33 61  1  0  0  0  0
 34 35  1  0  0  0  0
 35 36  2  0  0  0  0
M  END
$$$$
