CHEMBL518652
 OpenBabel04072215383D

 51 54  0  0  0  0  0  0  0  0999 V2000
    3.0333    0.6975   -1.1524 C   0  0  0  0  0  0  0  0  0  0  0  0
    4.0008   -0.4653   -1.3957 C   0  0  0  0  0  0  0  0  0  0  0  0
    5.4528    0.0173   -1.3984 C   0  0  0  0  0  0  0  0  0  0  0  0
    3.7431   -1.5636   -0.3800 C   0  0  0  0  0  0  0  0  0  0  0  0
    3.9954   -1.3722    0.9874 C   0  0  0  0  0  0  0  0  0  0  0  0
    3.6284   -2.3375    1.9235 C   0  0  0  0  0  0  0  0  0  0  0  0
    2.9732   -3.4948    1.5118 C   0  0  0  0  0  0  0  0  0  0  0  0
    2.7035   -3.6986    0.1521 C   0  0  0  0  0  0  0  0  0  0  0  0
    1.9437   -4.8159   -0.2673 N   0  0  0  0  0  0  0  0  0  0  0  0
    1.2494   -5.7037    0.5179 C   0  0  0  0  0  0  0  0  0  0  0  0
    0.6740   -6.5864   -0.3625 C   0  0  0  0  0  0  0  0  0  0  0  0
   -0.2009   -7.7020   -0.0403 C   0  0  0  0  0  0  0  0  0  0  0  0
   -1.2563   -7.9440   -0.9461 C   0  0  0  0  0  0  0  0  0  0  0  0
   -2.1530   -8.9898   -0.7497 C   0  0  0  0  0  0  0  0  0  0  0  0
   -2.0185   -9.8000    0.3637 C   0  0  0  0  0  0  0  0  0  0  0  0
   -0.9856   -9.5670    1.2789 C   0  0  0  0  0  0  0  0  0  0  0  0
   -0.0275   -8.5497    1.0883 C   0  0  0  0  0  0  0  0  0  0  0  0
    0.9786   -8.3209    2.0606 N   0  0  0  0  0  0  0  0  0  0  0  0
    1.4748   -9.4670    2.8149 C   0  0  0  0  0  0  0  0  0  0  0  0
    2.5701   -9.0507    3.7664 C   0  0  0  0  0  0  0  0  0  0  0  0
    2.2914   -8.8103    5.1162 C   0  0  0  0  0  0  0  0  0  0  0  0
    3.3394   -8.5148    5.9737 C   0  0  0  0  0  0  0  0  0  0  0  0
    4.6273   -8.4241    5.5806 N   0  0  0  0  0  0  0  0  0  0  0  0
    4.8757   -8.6302    4.2693 C   0  0  0  0  0  0  0  0  0  0  0  0
    3.8961   -8.9333    3.3348 C   0  0  0  0  0  0  0  0  0  0  0  0
    0.9895   -6.2060   -1.6400 N   0  0  0  0  0  0  0  0  0  0  0  0
    1.7580   -5.1262   -1.5733 N   0  0  0  0  0  0  0  0  0  0  0  0
    3.1298   -2.7562   -0.7944 C   0  0  0  0  0  0  0  0  0  0  0  0
    3.1708    1.4833   -1.9028 H   0  0  0  0  0  0  0  0  0  0  0  0
    3.1766    1.1486   -0.1643 H   0  0  0  0  0  0  0  0  0  0  0  0
    1.9936    0.3555   -1.2115 H   0  0  0  0  0  0  0  0  0  0  0  0
    3.7964   -0.8571   -2.4005 H   0  0  0  0  0  0  0  0  0  0  0  0
    5.7507    0.4435   -0.4351 H   0  0  0  0  0  0  0  0  0  0  0  0
    5.5962    0.7909   -2.1610 H   0  0  0  0  0  0  0  0  0  0  0  0
    6.1361   -0.8079   -1.6266 H   0  0  0  0  0  0  0  0  0  0  0  0
    4.4506   -0.4502    1.3416 H   0  0  0  0  0  0  0  0  0  0  0  0
    3.8219   -2.1711    2.9805 H   0  0  0  0  0  0  0  0  0  0  0  0
    2.6846   -4.2116    2.2749 H   0  0  0  0  0  0  0  0  0  0  0  0
    1.1804   -5.6139    1.5895 H   0  0  0  0  0  0  0  0  0  0  0  0
   -1.3896   -7.3001   -1.8148 H   0  0  0  0  0  0  0  0  0  0  0  0
   -2.9583   -9.1591   -1.4601 H   0  0  0  0  0  0  0  0  0  0  0  0
   -2.7186  -10.6128    0.5373 H   0  0  0  0  0  0  0  0  0  0  0  0
   -0.9566  -10.2116    2.1503 H   0  0  0  0  0  0  0  0  0  0  0  0
    1.7558   -7.8034    1.6574 H   0  0  0  0  0  0  0  0  0  0  0  0
    1.8697  -10.2273    2.1285 H   0  0  0  0  0  0  0  0  0  0  0  0
    0.6809   -9.9354    3.4064 H   0  0  0  0  0  0  0  0  0  0  0  0
    1.2790   -8.8744    5.5031 H   0  0  0  0  0  0  0  0  0  0  0  0
    3.1678   -8.3514    7.0343 H   0  0  0  0  0  0  0  0  0  0  0  0
    5.9202   -8.5551    3.9819 H   0  0  0  0  0  0  0  0  0  0  0  0
    4.1712   -9.1052    2.2990 H   0  0  0  0  0  0  0  0  0  0  0  0
    2.9310   -2.9119   -1.8543 H   0  0  0  0  0  0  0  0  0  0  0  0
  1  2  1  0  0  0  0
  1 29  1  0  0  0  0
  1 30  1  0  0  0  0
  1 31  1  0  0  0  0
  2  3  1  0  0  0  0
  2  4  1  0  0  0  0
  2 32  1  0  0  0  0
  3 33  1  0  0  0  0
  3 34  1  0  0  0  0
  3 35  1  0  0  0  0
  4  5  1  0  0  0  0
  4 28  2  0  0  0  0
  5  6  2  0  0  0  0
  5 36  1  0  0  0  0
  6  7  1  0  0  0  0
  6 37  1  0  0  0  0
  7  8  2  0  0  0  0
  7 38  1  0  0  0  0
  8  9  1  0  0  0  0
  8 28  1  0  0  0  0
  9 10  1  0  0  0  0
  9 27  1  0  0  0  0
 10 11  2  0  0  0  0
 10 39  1  0  0  0  0
 11 12  1  0  0  0  0
 11 26  1  0  0  0  0
 12 13  1  0  0  0  0
 12 17  2  0  0  0  0
 13 14  2  0  0  0  0
 13 40  1  0  0  0  0
 14 15  1  0  0  0  0
 14 41  1  0  0  0  0
 15 16  2  0  0  0  0
 15 42  1  0  0  0  0
 16 17  1  0  0  0  0
 16 43  1  0  0  0  0
 17 18  1  0  0  0  0
 18 19  1  0  0  0  0
 18 44  1  0  0  0  0
 19 20  1  0  0  0  0
 19 45  1  0  0  0  0
 19 46  1  0  0  0  0
 20 21  1  0  0  0  0
 20 25  2  0  0  0  0
 21 22  2  0  0  0  0
 21 47  1  0  0  0  0
 22 23  1  0  0  0  0
 22 48  1  0  0  0  0
 23 24  2  0  0  0  0
 24 25  1  0  0  0  0
 24 49  1  0  0  0  0
 25 50  1  0  0  0  0
 26 27  2  0  0  0  0
 28 51  1  0  0  0  0
M  END
$$$$
