CHEMBL1999590
 OpenBabel04072215363D

 42 45  0  0  0  0  0  0  0  0999 V2000
    1.0763   -0.1422   -0.1582 C   0  0  0  0  0  0  0  0  0  0  0  0
    2.5592   -0.0755   -0.1401 C   0  0  0  0  0  0  0  0  0  0  0  0
    3.3723    1.0613    0.0369 C   0  0  0  0  0  0  0  0  0  0  0  0
    4.6830    0.6087   -0.0020 C   0  0  0  0  0  0  0  0  0  0  0  0
    5.9287    1.4036    0.0115 C   0  0  0  0  0  0  0  0  0  0  0  0
    5.9877    2.6109    0.7237 C   0  0  0  0  0  0  0  0  0  0  0  0
    7.1734    3.3526    0.7879 C   0  0  0  0  0  0  0  0  0  0  0  0
    8.3230    2.8937    0.1506 C   0  0  0  0  0  0  0  0  0  0  0  0
    8.2716    1.7244   -0.5978 C   0  0  0  0  0  0  0  0  0  0  0  0
    7.0740    1.0117   -0.6983 C   0  0  0  0  0  0  0  0  0  0  0  0
    4.5759   -0.7853   -0.0974 N   0  0  0  0  0  0  0  0  0  0  0  0
    5.6089   -1.7708   -0.0040 C   0  0  0  0  0  0  0  0  0  0  0  0
    5.4714   -2.9292   -0.7412 C   0  0  0  0  0  0  0  0  0  0  0  0
    6.5965   -3.7267   -0.8452 C   0  0  0  0  0  0  0  0  0  0  0  0
    6.5572   -4.7986   -1.7672 N   0  0  0  0  0  0  0  0  0  0  0  0
    7.7488   -5.2089   -2.2854 N   0  0  0  0  0  0  0  0  0  0  0  0
    7.7018   -6.2479   -3.0532 C   0  0  0  0  0  0  0  0  0  0  0  0
    8.8714   -6.6756   -3.7645 C   0  0  0  0  0  0  0  0  0  0  0  0
   10.1590   -6.1769   -3.8087 C   0  0  0  0  0  0  0  0  0  0  0  0
   10.8586   -6.9469   -4.7666 C   0  0  0  0  0  0  0  0  0  0  0  0
    9.9627   -7.8797   -5.2338 C   0  0  0  0  0  0  0  0  0  0  0  0
    8.7566   -7.7294   -4.6268 O   0  0  0  0  0  0  0  0  0  0  0  0
    7.7319   -3.4429   -0.1772 N   0  0  0  0  0  0  0  0  0  0  0  0
    7.7287   -2.3541    0.5901 C   0  0  0  0  0  0  0  0  0  0  0  0
    6.7216   -1.4875    0.7089 N   0  0  0  0  0  0  0  0  0  0  0  0
    3.2850   -1.1782   -0.3237 N   0  0  0  0  0  0  0  0  0  0  0  0
    0.6350    0.8584   -0.1559 H   0  0  0  0  0  0  0  0  0  0  0  0
    0.7137   -0.6732    0.7277 H   0  0  0  0  0  0  0  0  0  0  0  0
    0.7194   -0.6692   -1.0478 H   0  0  0  0  0  0  0  0  0  0  0  0
    3.0492    2.0841    0.1393 H   0  0  0  0  0  0  0  0  0  0  0  0
    5.1153    2.9846    1.2529 H   0  0  0  0  0  0  0  0  0  0  0  0
    7.2004    4.2830    1.3485 H   0  0  0  0  0  0  0  0  0  0  0  0
    9.2537    3.4482    0.2315 H   0  0  0  0  0  0  0  0  0  0  0  0
    9.1629    1.3541   -1.0991 H   0  0  0  0  0  0  0  0  0  0  0  0
    7.0708    0.1220   -1.3218 H   0  0  0  0  0  0  0  0  0  0  0  0
    4.5871   -3.1322   -1.3349 H   0  0  0  0  0  0  0  0  0  0  0  0
    5.8333   -5.4756   -1.5397 H   0  0  0  0  0  0  0  0  0  0  0  0
    6.7675   -6.8132   -3.2232 H   0  0  0  0  0  0  0  0  0  0  0  0
   10.5248   -5.3352   -3.2355 H   0  0  0  0  0  0  0  0  0  0  0  0
   11.8845   -6.8291   -5.0862 H   0  0  0  0  0  0  0  0  0  0  0  0
   10.0212   -8.6721   -5.9679 H   0  0  0  0  0  0  0  0  0  0  0  0
    8.6347   -2.1373    1.1469 H   0  0  0  0  0  0  0  0  0  0  0  0
  1  2  1  0  0  0  0
  1 27  1  0  0  0  0
  1 28  1  0  0  0  0
  1 29  1  0  0  0  0
  2  3  1  0  0  0  0
  2 26  2  0  0  0  0
  3  4  2  0  0  0  0
  3 30  1  0  0  0  0
  4  5  1  0  0  0  0
  4 11  1  0  0  0  0
  5  6  1  0  0  0  0
  5 10  2  0  0  0  0
  6  7  2  0  0  0  0
  6 31  1  0  0  0  0
  7  8  1  0  0  0  0
  7 32  1  0  0  0  0
  8  9  2  0  0  0  0
  8 33  1  0  0  0  0
  9 10  1  0  0  0  0
  9 34  1  0  0  0  0
 10 35  1  0  0  0  0
 11 12  1  0  0  0  0
 11 26  1  0  0  0  0
 12 13  1  0  0  0  0
 12 25  2  0  0  0  0
 13 14  2  0  0  0  0
 13 36  1  0  0  0  0
 14 15  1  0  0  0  0
 14 23  1  0  0  0  0
 15 16  1  0  0  0  0
 15 37  1  0  0  0  0
 16 17  2  3  0  0  0
 17 18  1  0  0  0  0
 17 38  1  0  0  0  0
 18 19  2  0  0  0  0
 18 22  1  0  0  0  0
 19 20  1  0  0  0  0
 19 39  1  0  0  0  0
 20 21  2  0  0  0  0
 20 40  1  0  0  0  0
 21 22  1  0  0  0  0
 21 41  1  0  0  0  0
 23 24  2  0  0  0  0
 24 25  1  0  0  0  0
 24 42  1  0  0  0  0
M  END
$$$$
