CHEMBL598025
 OpenBabel04072215383D

 41 44  0  0  0  0  0  0  0  0999 V2000
   10.1032    6.3788    1.3842 C   0  0  0  0  0  0  0  0  0  0  0  0
    9.1821    5.4491    0.8237 O   0  0  0  0  0  0  0  0  0  0  0  0
    8.4005    4.7683    1.7003 C   0  0  0  0  0  0  0  0  0  0  0  0
    8.3866    4.9450    3.0801 C   0  0  0  0  0  0  0  0  0  0  0  0
    7.5431    4.1887    3.8939 C   0  0  0  0  0  0  0  0  0  0  0  0
    6.7382    3.1888    3.3557 C   0  0  0  0  0  0  0  0  0  0  0  0
    5.9267    2.3806    4.1567 N   0  0  0  0  0  0  0  0  0  0  0  0
    5.4362    2.5110    5.4538 C   0  0  0  0  0  0  0  0  0  0  0  0
    4.7743    1.4275    5.8868 N   0  0  0  0  0  0  0  0  0  0  0  0
    3.9274    1.5940    6.9093 C   0  0  0  0  0  0  0  0  0  0  0  0
    3.7055    2.8178    7.4832 C   0  0  0  0  0  0  0  0  0  0  0  0
    4.5845    3.8255    7.1361 C   0  0  0  0  0  0  0  0  0  0  0  0
    5.4619    3.6813    6.1197 N   0  0  0  0  0  0  0  0  0  0  0  0
    4.3689    5.1795    7.6755 C   0  0  0  0  0  0  0  0  0  0  0  0
    5.2416    5.7513    8.6141 C   0  0  0  0  0  0  0  0  0  0  0  0
    5.0009    7.0348    9.1182 C   0  0  0  0  0  0  0  0  0  0  0  0
    3.9466    7.7978    8.6169 C   0  0  0  0  0  0  0  0  0  0  0  0
    3.0609    7.2409    7.6969 C   0  0  0  0  0  0  0  0  0  0  0  0
    3.2063    5.9007    7.3315 C   0  0  0  0  0  0  0  0  0  0  0  0
    2.0886    5.2719    6.7451 N   0  0  0  0  0  0  0  0  0  0  0  0
    1.6135    4.0195    7.0882 C   0  0  0  0  0  0  0  0  0  0  0  0
    0.5564    3.6105    6.6056 O   0  0  0  0  0  0  0  0  0  0  0  0
    2.3986    3.1782    8.1077 C   0  0  0  0  0  0  0  0  0  0  0  0
    6.7226    3.0346    1.9609 C   0  0  0  0  0  0  0  0  0  0  0  0
    7.5556    3.8107    1.1440 C   0  0  0  0  0  0  0  0  0  0  0  0
   10.6258    6.8787    0.5638 H   0  0  0  0  0  0  0  0  0  0  0  0
   10.8533    5.8667    1.9979 H   0  0  0  0  0  0  0  0  0  0  0  0
    9.5853    7.1520    1.9623 H   0  0  0  0  0  0  0  0  0  0  0  0
    8.9954    5.6981    3.5720 H   0  0  0  0  0  0  0  0  0  0  0  0
    7.5580    4.3615    4.9645 H   0  0  0  0  0  0  0  0  0  0  0  0
    5.5877    1.5175    3.7546 H   0  0  0  0  0  0  0  0  0  0  0  0
    3.3393    0.7203    7.1705 H   0  0  0  0  0  0  0  0  0  0  0  0
    6.0851    5.1798    8.9973 H   0  0  0  0  0  0  0  0  0  0  0  0
    5.6373    7.4427    9.9007 H   0  0  0  0  0  0  0  0  0  0  0  0
    3.7811    8.8083    8.9836 H   0  0  0  0  0  0  0  0  0  0  0  0
    2.2067    7.8232    7.3620 H   0  0  0  0  0  0  0  0  0  0  0  0
    1.4213    5.8360    6.2336 H   0  0  0  0  0  0  0  0  0  0  0  0
    1.8182    2.2826    8.3503 H   0  0  0  0  0  0  0  0  0  0  0  0
    2.5222    3.7371    9.0440 H   0  0  0  0  0  0  0  0  0  0  0  0
    6.0660    2.3016    1.4921 H   0  0  0  0  0  0  0  0  0  0  0  0
    7.5390    3.6610    0.0699 H   0  0  0  0  0  0  0  0  0  0  0  0
  1  2  1  0  0  0  0
  1 26  1  0  0  0  0
  1 27  1  0  0  0  0
  1 28  1  0  0  0  0
  2  3  1  0  0  0  0
  3  4  1  0  0  0  0
  3 25  2  0  0  0  0
  4  5  2  0  0  0  0
  4 29  1  0  0  0  0
  5  6  1  0  0  0  0
  5 30  1  0  0  0  0
  6  7  1  0  0  0  0
  6 24  2  0  0  0  0
  7  8  1  0  0  0  0
  7 31  1  0  0  0  0
  8  9  1  0  0  0  0
  8 13  2  0  0  0  0
  9 10  2  0  0  0  0
 10 11  1  0  0  0  0
 10 32  1  0  0  0  0
 11 12  2  0  0  0  0
 11 23  1  0  0  0  0
 12 13  1  0  0  0  0
 12 14  1  0  0  0  0
 14 15  1  0  0  0  0
 14 19  2  0  0  0  0
 15 16  2  0  0  0  0
 15 33  1  0  0  0  0
 16 17  1  0  0  0  0
 16 34  1  0  0  0  0
 17 18  2  0  0  0  0
 17 35  1  0  0  0  0
 18 19  1  0  0  0  0
 18 36  1  0  0  0  0
 19 20  1  0  0  0  0
 20 21  1  0  0  0  0
 20 37  1  0  0  0  0
 21 22  2  0  0  0  0
 21 23  1  0  0  0  0
 23 38  1  0  0  0  0
 23 39  1  0  0  0  0
 24 25  1  0  0  0  0
 24 40  1  0  0  0  0
 25 41  1  0  0  0  0
M  END
$$$$
