CHEMBL445871
 OpenBabel04072215383D

 70 75  0  0  0  0  0  0  0  0999 V2000
    2.8389  -16.3456   -6.4548 C   0  0  0  0  0  0  0  0  0  0  0  0
    2.7315  -15.2313   -5.5115 N   0  0  0  0  0  0  0  0  0  0  0  0
    3.8251  -15.3066   -4.5382 C   0  0  0  0  0  0  0  0  0  0  0  0
    2.7654  -13.9627   -6.2514 C   0  0  0  0  0  0  0  0  0  0  0  0
    2.6563  -12.7642   -5.3118 C   0  0  0  0  0  0  0  0  0  0  0  0
    2.6899  -11.5407   -6.0579 N   0  0  0  0  0  0  0  0  0  0  0  0
    1.8286  -11.1314   -7.0268 C   0  0  0  0  0  0  0  0  0  0  0  0
    2.1253   -9.9284   -7.4510 N   0  0  0  0  0  0  0  0  0  0  0  0
    3.2316   -9.6017   -6.7428 C   0  0  0  0  0  0  0  0  0  0  0  0
    4.0215   -8.4067   -6.9302 C   0  0  0  0  0  0  0  0  0  0  0  0
    3.6646   -7.5052   -7.8866 C   0  0  0  0  0  0  0  0  0  0  0  0
    4.6318   -6.5334   -7.9304 C   0  0  0  0  0  0  0  0  0  0  0  0
    4.4058   -5.6755   -8.8820 N   0  0  0  0  0  0  0  0  0  0  0  0
    5.0929   -4.6765   -9.2958 C   0  0  0  0  0  0  0  0  0  0  0  0
    6.2497   -4.7136   -8.5292 C   0  0  0  0  0  0  0  0  0  0  0  0
    6.7199   -5.7367   -7.3974 C   0  0  0  0  0  0  0  0  0  0  0  0
    8.0514   -6.2128   -7.0936 O   0  0  0  0  0  0  0  0  0  0  0  0
    9.3371   -5.9126   -7.7146 C   0  0  0  0  0  0  0  0  0  0  0  0
    9.4757   -5.0025   -8.8351 C   0  0  0  0  0  0  0  0  0  0  0  0
   10.4922   -3.9453   -8.8873 C   0  0  0  0  0  0  0  0  0  0  0  0
   11.5333   -3.9184   -7.9488 C   0  0  0  0  0  0  0  0  0  0  0  0
   12.5670   -2.8959   -7.8893 N   0  0  0  0  0  0  0  0  0  0  0  0
   12.6741   -1.7901   -8.7614 C   0  0  0  0  0  0  0  0  0  0  0  0
   11.9101   -1.5398   -9.6920 O   0  0  0  0  0  0  0  0  0  0  0  0
   13.6690   -0.8703   -8.4445 N   0  0  0  0  0  0  0  0  0  0  0  0
   13.8233    0.3808   -9.1930 C   0  0  0  0  0  0  0  0  0  0  0  0
   14.9240    1.0903   -8.4133 C   0  0  0  0  0  0  0  0  0  0  0  0
   15.7507   -0.0274   -8.0469 N   0  0  0  0  0  0  0  0  0  0  0  0
   17.0840    0.0523   -7.6210 C   0  0  0  0  0  0  0  0  0  0  0  0
   17.8226   -1.1286   -7.4992 C   0  0  0  0  0  0  0  0  0  0  0  0
   19.1475   -1.0890   -7.0630 C   0  0  0  0  0  0  0  0  0  0  0  0
   19.6631    0.0939   -6.5440 C   0  0  0  0  0  0  0  0  0  0  0  0
   18.8868    1.2516   -6.5669 C   0  0  0  0  0  0  0  0  0  0  0  0
   17.6625    1.2640   -7.2444 C   0  0  0  0  0  0  0  0  0  0  0  0
   14.9668   -1.2115   -7.9782 C   0  0  0  0  0  0  0  0  0  0  0  0
   15.3060   -2.2952   -7.5301 O   0  0  0  0  0  0  0  0  0  0  0  0
   11.5258   -5.0052   -7.0661 C   0  0  0  0  0  0  0  0  0  0  0  0
   10.4683   -5.9483   -6.9340 C   0  0  0  0  0  0  0  0  0  0  0  0
   10.5909   -6.8846   -5.9905 F   0  0  0  0  0  0  0  0  0  0  0  0
    5.7209   -6.6295   -7.1059 C   0  0  0  0  0  0  0  0  0  0  0  0
    5.4781   -8.0559   -6.1229 S   0  0  0  0  0  0  0  0  0  0  0  0
    3.6302  -10.5880   -5.8727 C   0  0  0  0  0  0  0  0  0  0  0  0
    2.7720  -17.2986   -5.9211 H   0  0  0  0  0  0  0  0  0  0  0  0
    3.7846  -16.3205   -7.0086 H   0  0  0  0  0  0  0  0  0  0  0  0
    2.0153  -16.3247   -7.1771 H   0  0  0  0  0  0  0  0  0  0  0  0
    3.7845  -16.2500   -3.9878 H   0  0  0  0  0  0  0  0  0  0  0  0
    3.7424  -14.5251   -3.7763 H   0  0  0  0  0  0  0  0  0  0  0  0
    4.8043  -15.2118   -5.0208 H   0  0  0  0  0  0  0  0  0  0  0  0
    1.9281  -13.9186   -6.9627 H   0  0  0  0  0  0  0  0  0  0  0  0
    3.6810  -13.8955   -6.8586 H   0  0  0  0  0  0  0  0  0  0  0  0
    3.5099  -12.7004   -4.6275 H   0  0  0  0  0  0  0  0  0  0  0  0
    1.7390  -12.7808   -4.7196 H   0  0  0  0  0  0  0  0  0  0  0  0
    1.0053  -11.7281   -7.3846 H   0  0  0  0  0  0  0  0  0  0  0  0
    2.7799   -7.5829   -8.5482 H   0  0  0  0  0  0  0  0  0  0  0  0
    4.1404   -4.6731   -9.9081 H   0  0  0  0  0  0  0  0  0  0  0  0
    6.8231   -3.8426   -8.8625 H   0  0  0  0  0  0  0  0  0  0  0  0
    8.9345   -5.1645   -9.7796 H   0  0  0  0  0  0  0  0  0  0  0  0
   10.4164   -3.1724   -9.6634 H   0  0  0  0  0  0  0  0  0  0  0  0
   13.2774   -2.9571   -7.1640 H   0  0  0  0  0  0  0  0  0  0  0  0
   12.8832    0.9361   -9.2447 H   0  0  0  0  0  0  0  0  0  0  0  0
   14.1582    0.1765  -10.2240 H   0  0  0  0  0  0  0  0  0  0  0  0
   14.5022    1.5426   -7.5083 H   0  0  0  0  0  0  0  0  0  0  0  0
   15.4711    1.8437   -8.9893 H   0  0  0  0  0  0  0  0  0  0  0  0
   17.3804   -2.0817   -7.7755 H   0  0  0  0  0  0  0  0  0  0  0  0
   19.7583   -1.9872   -7.0896 H   0  0  0  0  0  0  0  0  0  0  0  0
   20.6632    0.1125   -6.1175 H   0  0  0  0  0  0  0  0  0  0  0  0
   19.2294    2.1388   -6.0396 H   0  0  0  0  0  0  0  0  0  0  0  0
   17.1475    2.2077   -7.3867 H   0  0  0  0  0  0  0  0  0  0  0  0
   12.3331   -5.1468   -6.3674 H   0  0  0  0  0  0  0  0  0  0  0  0
    4.4544  -10.6542   -5.1702 H   0  0  0  0  0  0  0  0  0  0  0  0
  1  2  1  0  0  0  0
  1 43  1  0  0  0  0
  1 44  1  0  0  0  0
  1 45  1  0  0  0  0
  2  3  1  0  0  0  0
  2  4  1  0  0  0  0
  3 46  1  0  0  0  0
  3 47  1  0  0  0  0
  3 48  1  0  0  0  0
  4  5  1  0  0  0  0
  4 49  1  0  0  0  0
  4 50  1  0  0  0  0
  5  6  1  0  0  0  0
  5 51  1  0  0  0  0
  5 52  1  0  0  0  0
  6  7  1  0  0  0  0
  6 42  1  0  0  0  0
  7  8  2  0  0  0  0
  7 53  1  0  0  0  0
  8  9  1  0  0  0  0
  9 10  1  0  0  0  0
  9 42  2  0  0  0  0
 10 11  2  0  0  0  0
 10 41  1  0  0  0  0
 11 12  1  0  0  0  0
 11 54  1  0  0  0  0
 12 13  1  0  0  0  0
 12 40  2  0  0  0  0
 13 14  2  0  0  0  0
 14 15  1  0  0  0  0
 14 55  1  0  0  0  0
 15 16  2  0  0  0  0
 15 56  1  0  0  0  0
 16 17  1  0  0  0  0
 16 40  1  0  0  0  0
 17 18  1  0  0  0  0
 18 19  1  0  0  0  0
 18 38  2  0  0  0  0
 19 20  2  0  0  0  0
 19 57  1  0  0  0  0
 20 21  1  0  0  0  0
 20 58  1  0  0  0  0
 21 22  1  0  0  0  0
 21 37  2  0  0  0  0
 22 23  1  0  0  0  0
 22 59  1  0  0  0  0
 23 24  2  0  0  0  0
 23 25  1  0  0  0  0
 25 26  1  0  0  0  0
 25 35  1  0  0  0  0
 26 27  1  0  0  0  0
 26 60  1  0  0  0  0
 26 61  1  0  0  0  0
 27 28  1  0  0  0  0
 27 62  1  0  0  0  0
 27 63  1  0  0  0  0
 28 29  1  0  0  0  0
 28 35  1  0  0  0  0
 29 30  1  0  0  0  0
 29 34  2  0  0  0  0
 30 31  2  0  0  0  0
 30 64  1  0  0  0  0
 31 32  1  0  0  0  0
 31 65  1  0  0  0  0
 32 33  2  0  0  0  0
 32 66  1  0  0  0  0
 33 34  1  0  0  0  0
 33 67  1  0  0  0  0
 34 68  1  0  0  0  0
 35 36  2  0  0  0  0
 37 38  1  0  0  0  0
 37 69  1  0  0  0  0
 38 39  1  0  0  0  0
 40 41  1  0  0  0  0
 42 70  1  0  0  0  0
M  END
$$$$
