CHEMBL3747084
 OpenBabel04072215373D

 57 61  0  0  0  0  0  0  0  0999 V2000
    5.9493    0.0073    0.8816 C   0  0  0  0  0  0  0  0  0  0  0  0
    4.8195   -0.6873    1.6613 C   0  0  0  0  0  0  0  0  0  0  0  0
    5.4115   -1.3561    2.9165 C   0  0  0  0  0  0  0  0  0  0  0  0
    3.8104    0.3813    2.1341 C   0  0  0  0  0  0  0  0  0  0  0  0
    4.1673   -1.7199    0.7627 C   0  0  0  0  0  0  0  0  0  0  0  0
    4.4658   -3.0436    0.4797 C   0  0  0  0  0  0  0  0  0  0  0  0
    3.4967   -3.4732   -0.4632 C   0  0  0  0  0  0  0  0  0  0  0  0
    3.4156   -4.7404   -0.9953 N   0  0  0  0  0  0  0  0  0  0  0  0
    2.2965   -5.1844   -1.6674 C   0  0  0  0  0  0  0  0  0  0  0  0
    1.2293   -4.6432   -1.8944 O   0  0  0  0  0  0  0  0  0  0  0  0
    2.4190   -6.5536   -2.0071 N   0  0  0  0  0  0  0  0  0  0  0  0
    1.3559   -7.4439   -1.9277 C   0  0  0  0  0  0  0  0  0  0  0  0
    1.7992   -8.7120   -2.2029 C   0  0  0  0  0  0  0  0  0  0  0  0
    3.1698   -8.6164   -2.5487 C   0  0  0  0  0  0  0  0  0  0  0  0
    4.1298   -9.5686   -2.9450 C   0  0  0  0  0  0  0  0  0  0  0  0
    5.4264   -9.1603   -3.2811 C   0  0  0  0  0  0  0  0  0  0  0  0
    6.3071  -10.1869   -3.5518 O   0  0  0  0  0  0  0  0  0  0  0  0
    7.5023   -9.8971   -4.1829 C   0  0  0  0  0  0  0  0  0  0  0  0
    7.4430   -9.2599   -5.3666 N   0  0  0  0  0  0  0  0  0  0  0  0
    8.6190   -9.0745   -5.9697 C   0  0  0  0  0  0  0  0  0  0  0  0
    9.8109   -9.4796   -5.5083 N   0  0  0  0  0  0  0  0  0  0  0  0
    9.8198  -10.1410   -4.3266 C   0  0  0  0  0  0  0  0  0  0  0  0
    8.6707  -10.3763   -3.6073 C   0  0  0  0  0  0  0  0  0  0  0  0
    8.6789  -11.1172   -2.3150 C   0  0  0  0  0  0  0  0  0  0  0  0
   10.0611  -11.4902   -1.7657 C   0  0  0  0  0  0  0  0  0  0  0  0
   11.2392  -11.3916   -2.6076 N   0  0  0  0  0  0  0  0  0  0  0  0
   11.1651  -10.6183   -3.8429 C   0  0  0  0  0  0  0  0  0  0  0  0
    5.7539   -7.8054   -3.2533 C   0  0  0  0  0  0  0  0  0  0  0  0
    4.8158   -6.8385   -2.8670 C   0  0  0  0  0  0  0  0  0  0  0  0
    3.5358   -7.2667   -2.4658 C   0  0  0  0  0  0  0  0  0  0  0  0
    2.6728   -2.4747   -0.7665 N   0  0  0  0  0  0  0  0  0  0  0  0
    3.0855   -1.4413   -0.0300 N   0  0  0  0  0  0  0  0  0  0  0  0
    6.4525    0.7614    1.4974 H   0  0  0  0  0  0  0  0  0  0  0  0
    5.5646    0.5105   -0.0135 H   0  0  0  0  0  0  0  0  0  0  0  0
    6.7066   -0.7134    0.5514 H   0  0  0  0  0  0  0  0  0  0  0  0
    5.8842   -0.6155    3.5725 H   0  0  0  0  0  0  0  0  0  0  0  0
    6.1763   -2.0977    2.6597 H   0  0  0  0  0  0  0  0  0  0  0  0
    4.6353   -1.8675    3.4981 H   0  0  0  0  0  0  0  0  0  0  0  0
    4.2865    1.1031    2.8085 H   0  0  0  0  0  0  0  0  0  0  0  0
    2.9707   -0.0730    2.6733 H   0  0  0  0  0  0  0  0  0  0  0  0
    3.3963    0.9538    1.2961 H   0  0  0  0  0  0  0  0  0  0  0  0
    5.2687   -3.6240    0.9124 H   0  0  0  0  0  0  0  0  0  0  0  0
    4.1220   -5.4046   -0.7021 H   0  0  0  0  0  0  0  0  0  0  0  0
    0.3842   -7.0799   -1.6184 H   0  0  0  0  0  0  0  0  0  0  0  0
    1.1931   -9.6083   -2.1771 H   0  0  0  0  0  0  0  0  0  0  0  0
    3.8611  -10.6203   -2.9958 H   0  0  0  0  0  0  0  0  0  0  0  0
    8.6090   -8.5501   -6.9172 H   0  0  0  0  0  0  0  0  0  0  0  0
    8.1725  -10.5034   -1.5590 H   0  0  0  0  0  0  0  0  0  0  0  0
    8.0899  -12.0349   -2.4390 H   0  0  0  0  0  0  0  0  0  0  0  0
   10.0013  -12.5224   -1.3941 H   0  0  0  0  0  0  0  0  0  0  0  0
   10.2479  -10.8921   -0.8651 H   0  0  0  0  0  0  0  0  0  0  0  0
   11.6613  -12.3017   -2.7770 H   0  0  0  0  0  0  0  0  0  0  0  0
   11.5925  -11.2356   -4.6433 H   0  0  0  0  0  0  0  0  0  0  0  0
   11.8199   -9.7456   -3.7410 H   0  0  0  0  0  0  0  0  0  0  0  0
    6.7456   -7.4661   -3.5407 H   0  0  0  0  0  0  0  0  0  0  0  0
    5.0829   -5.7864   -2.9027 H   0  0  0  0  0  0  0  0  0  0  0  0
    2.5770   -0.5685   -0.1213 H   0  0  0  0  0  0  0  0  0  0  0  0
  1  2  1  0  0  0  0
  1 33  1  0  0  0  0
  1 34  1  0  0  0  0
  1 35  1  0  0  0  0
  2  3  1  0  0  0  0
  2  4  1  0  0  0  0
  2  5  1  0  0  0  0
  3 36  1  0  0  0  0
  3 37  1  0  0  0  0
  3 38  1  0  0  0  0
  4 39  1  0  0  0  0
  4 40  1  0  0  0  0
  4 41  1  0  0  0  0
  5  6  2  0  0  0  0
  5 32  1  0  0  0  0
  6  7  1  0  0  0  0
  6 42  1  0  0  0  0
  7  8  1  0  0  0  0
  7 31  2  0  0  0  0
  8  9  1  0  0  0  0
  8 43  1  0  0  0  0
  9 10  2  0  0  0  0
  9 11  1  0  0  0  0
 11 12  1  0  0  0  0
 11 30  1  0  0  0  0
 12 13  2  0  0  0  0
 12 44  1  0  0  0  0
 13 14  1  0  0  0  0
 13 45  1  0  0  0  0
 14 15  1  0  0  0  0
 14 30  2  0  0  0  0
 15 16  2  0  0  0  0
 15 46  1  0  0  0  0
 16 17  1  0  0  0  0
 16 28  1  0  0  0  0
 17 18  1  0  0  0  0
 18 19  1  0  0  0  0
 18 23  2  0  0  0  0
 19 20  2  0  0  0  0
 20 21  1  0  0  0  0
 20 47  1  0  0  0  0
 21 22  2  0  0  0  0
 22 23  1  0  0  0  0
 22 27  1  0  0  0  0
 23 24  1  0  0  0  0
 24 25  1  0  0  0  0
 24 48  1  0  0  0  0
 24 49  1  0  0  0  0
 25 26  1  0  0  0  0
 25 50  1  0  0  0  0
 25 51  1  0  0  0  0
 26 27  1  0  0  0  0
 26 52  1  0  0  0  0
 27 53  1  0  0  0  0
 27 54  1  0  0  0  0
 28 29  2  0  0  0  0
 28 55  1  0  0  0  0
 29 30  1  0  0  0  0
 29 56  1  0  0  0  0
 31 32  1  0  0  0  0
 32 57  1  0  0  0  0
M  END
$$$$
