CHEMBL1996066
 OpenBabel04072215363D

 34 37  0  0  0  0  0  0  0  0999 V2000
    1.1396    0.2045   -0.0753 N   0  0  0  0  0  0  0  0  0  0  0  0
    2.2999    0.2007   -0.0744 C   0  0  0  0  0  0  0  0  0  0  0  0
    3.7349    0.1688   -0.0768 C   0  0  0  0  0  0  0  0  0  0  0  0
    4.4659    1.3575   -0.0857 C   0  0  0  0  0  0  0  0  0  0  0  0
    5.8674    1.3320   -0.0674 C   0  0  0  0  0  0  0  0  0  0  0  0
    6.5346    0.0945   -0.0553 C   0  0  0  0  0  0  0  0  0  0  0  0
    7.8749   -0.1561    0.0056 N   0  0  0  0  0  0  0  0  0  0  0  0
    7.9927   -1.4617    0.0171 C   0  0  0  0  0  0  0  0  0  0  0  0
    9.1676   -2.1203    0.0168 N   0  0  0  0  0  0  0  0  0  0  0  0
    6.7540   -2.1059   -0.0611 N   0  0  0  0  0  0  0  0  0  0  0  0
    6.5530   -3.4953   -0.0891 C   0  0  0  0  0  0  0  0  0  0  0  0
    7.3597   -4.3666    0.4819 N   0  0  0  0  0  0  0  0  0  0  0  0
    6.8290   -5.6423    0.3184 C   0  0  0  0  0  0  0  0  0  0  0  0
    7.4110   -6.8113    0.9634 C   0  0  0  0  0  0  0  0  0  0  0  0
    7.9877   -6.6925    2.2350 C   0  0  0  0  0  0  0  0  0  0  0  0
    8.5263   -7.8120    2.8754 C   0  0  0  0  0  0  0  0  0  0  0  0
    8.4978   -9.0567    2.2489 C   0  0  0  0  0  0  0  0  0  0  0  0
    7.9255   -9.1872    0.9854 C   0  0  0  0  0  0  0  0  0  0  0  0
    7.3838   -8.0706    0.3462 C   0  0  0  0  0  0  0  0  0  0  0  0
    5.6930   -5.7050   -0.4676 C   0  0  0  0  0  0  0  0  0  0  0  0
    5.2394   -4.1354   -0.9661 S   0  0  0  0  0  0  0  0  0  0  0  0
    5.7977   -1.0881   -0.0849 C   0  0  0  0  0  0  0  0  0  0  0  0
    4.3891   -1.0720   -0.0629 C   0  0  0  0  0  0  0  0  0  0  0  0
    3.9540    2.3180   -0.0930 H   0  0  0  0  0  0  0  0  0  0  0  0
    6.4408    2.2533   -0.0501 H   0  0  0  0  0  0  0  0  0  0  0  0
   10.0086   -1.5952    0.2223 H   0  0  0  0  0  0  0  0  0  0  0  0
    9.2002   -3.1093    0.2713 H   0  0  0  0  0  0  0  0  0  0  0  0
    8.0084   -5.7292    2.7408 H   0  0  0  0  0  0  0  0  0  0  0  0
    8.9674   -7.7122    3.8640 H   0  0  0  0  0  0  0  0  0  0  0  0
    8.9223   -9.9263    2.7444 H   0  0  0  0  0  0  0  0  0  0  0  0
    7.9023  -10.1568    0.4949 H   0  0  0  0  0  0  0  0  0  0  0  0
    6.9512   -8.1981   -0.6430 H   0  0  0  0  0  0  0  0  0  0  0  0
    5.1009   -6.5643   -0.7462 H   0  0  0  0  0  0  0  0  0  0  0  0
    3.8038   -1.9850   -0.0159 H   0  0  0  0  0  0  0  0  0  0  0  0
  1  2  3  0  0  0  0
  2  3  1  0  0  0  0
  3  4  1  0  0  0  0
  3 23  2  0  0  0  0
  4  5  2  0  0  0  0
  4 24  1  0  0  0  0
  5  6  1  0  0  0  0
  5 25  1  0  0  0  0
  6  7  1  0  0  0  0
  6 22  2  0  0  0  0
  7  8  2  0  0  0  0
  8  9  1  0  0  0  0
  8 10  1  0  0  0  0
  9 26  1  0  0  0  0
  9 27  1  0  0  0  0
 10 11  1  0  0  0  0
 10 22  1  0  0  0  0
 11 12  2  0  0  0  0
 11 21  1  0  0  0  0
 12 13  1  0  0  0  0
 13 14  1  0  0  0  0
 13 20  2  0  0  0  0
 14 15  1  0  0  0  0
 14 19  2  0  0  0  0
 15 16  2  0  0  0  0
 15 28  1  0  0  0  0
 16 17  1  0  0  0  0
 16 29  1  0  0  0  0
 17 18  2  0  0  0  0
 17 30  1  0  0  0  0
 18 19  1  0  0  0  0
 18 31  1  0  0  0  0
 19 32  1  0  0  0  0
 20 21  1  0  0  0  0
 20 33  1  0  0  0  0
 22 23  1  0  0  0  0
 23 34  1  0  0  0  0
M  END
$$$$
