CHEMBL199016
 OpenBabel04072215363D

 66 69  0  0  0  0  0  0  0  0999 V2000
    1.6827    0.2600    4.7120 C   0  0  0  0  0  0  0  0  0  0  0  0
    2.1844   -0.4889    3.6068 O   0  0  0  0  0  0  0  0  0  0  0  0
    3.5231   -0.7789    3.7465 C   0  0  0  0  0  0  0  0  0  0  0  0
    4.1733   -0.3205    4.8242 N   0  0  0  0  0  0  0  0  0  0  0  0
    5.4800   -0.6139    4.8851 C   0  0  0  0  0  0  0  0  0  0  0  0
    6.1582   -1.3387    3.9186 C   0  0  0  0  0  0  0  0  0  0  0  0
    7.8653   -1.4824    4.0681 Cl  0  0  0  0  0  0  0  0  0  0  0  0
    5.3876   -1.8105    2.8620 C   0  0  0  0  0  0  0  0  0  0  0  0
    5.9294   -2.5596    1.8031 N   0  0  0  0  0  0  0  0  0  0  0  0
    6.7827   -3.6866    1.9015 C   0  0  0  0  0  0  0  0  0  0  0  0
    6.8896   -4.2883    3.1038 N   0  0  0  0  0  0  0  0  0  0  0  0
    7.6720   -5.3655    3.1708 C   0  0  0  0  0  0  0  0  0  0  0  0
    8.3090   -5.9332    2.1468 N   0  0  0  0  0  0  0  0  0  0  0  0
    8.1984   -5.3351    0.9598 C   0  0  0  0  0  0  0  0  0  0  0  0
    8.8527   -5.9360   -0.1049 C   0  0  0  0  0  0  0  0  0  0  0  0
    8.9055   -5.3502   -1.3660 C   0  0  0  0  0  0  0  0  0  0  0  0
    9.6423   -6.0392   -2.3039 O   0  0  0  0  0  0  0  0  0  0  0  0
   10.1247   -5.2257   -3.3764 C   0  0  0  0  0  0  0  0  0  0  0  0
   11.3094   -5.8668   -4.1334 C   0  0  0  0  0  0  0  0  0  0  0  0
   11.8781   -4.9265   -5.1210 N   0  0  0  0  0  0  0  0  0  0  0  0
   10.9612   -4.5858   -6.2270 C   0  0  0  0  0  0  0  0  0  0  0  0
   10.7882   -5.6889   -7.2818 C   0  0  0  0  0  0  0  0  0  0  0  0
   12.0726   -6.1427   -7.8201 N   0  0  0  0  0  0  0  0  0  0  0  0
   12.0671   -6.6721   -9.1012 C   0  0  0  0  0  0  0  0  0  0  0  0
   13.3585   -7.1596   -9.7097 C   0  0  0  0  0  0  0  0  0  0  0  0
   11.0356   -6.6932   -9.7895 O   0  0  0  0  0  0  0  0  0  0  0  0
   13.1151   -6.4010   -6.8204 C   0  0  0  0  0  0  0  0  0  0  0  0
   13.1655   -5.3527   -5.6864 C   0  0  0  0  0  0  0  0  0  0  0  0
    8.2395   -4.1417   -1.5798 C   0  0  0  0  0  0  0  0  0  0  0  0
    7.4890   -3.5586   -0.5509 C   0  0  0  0  0  0  0  0  0  0  0  0
    6.7901   -2.3840   -0.7141 O   0  0  0  0  0  0  0  0  0  0  0  0
    6.2824   -2.0200   -2.0051 C   0  0  0  0  0  0  0  0  0  0  0  0
    5.2621   -3.0376   -2.5110 C   0  0  0  0  0  0  0  0  0  0  0  0
    5.5756   -0.6701   -1.8422 C   0  0  0  0  0  0  0  0  0  0  0  0
    7.4691   -4.1517    0.7521 C   0  0  0  0  0  0  0  0  0  0  0  0
    4.0668   -1.5117    2.7563 N   0  0  0  0  0  0  0  0  0  0  0  0
    0.6111    0.4314    4.5622 H   0  0  0  0  0  0  0  0  0  0  0  0
    2.1677    1.2416    4.7779 H   0  0  0  0  0  0  0  0  0  0  0  0
    1.7988   -0.2949    5.6514 H   0  0  0  0  0  0  0  0  0  0  0  0
    6.0003   -0.2031    5.7429 H   0  0  0  0  0  0  0  0  0  0  0  0
    5.1999   -2.7413    1.1191 H   0  0  0  0  0  0  0  0  0  0  0  0
    7.7958   -5.8265    4.1447 H   0  0  0  0  0  0  0  0  0  0  0  0
    9.3680   -6.8790    0.0643 H   0  0  0  0  0  0  0  0  0  0  0  0
   10.4823   -4.2709   -2.9686 H   0  0  0  0  0  0  0  0  0  0  0  0
    9.2903   -5.0534   -4.0630 H   0  0  0  0  0  0  0  0  0  0  0  0
   11.0153   -6.8226   -4.5833 H   0  0  0  0  0  0  0  0  0  0  0  0
   12.0741   -6.1122   -3.3836 H   0  0  0  0  0  0  0  0  0  0  0  0
   11.3705   -3.6975   -6.7281 H   0  0  0  0  0  0  0  0  0  0  0  0
    9.9814   -4.2669   -5.8607 H   0  0  0  0  0  0  0  0  0  0  0  0
   10.1610   -5.2988   -8.0911 H   0  0  0  0  0  0  0  0  0  0  0  0
   10.2711   -6.5605   -6.8617 H   0  0  0  0  0  0  0  0  0  0  0  0
   14.1296   -7.4153   -8.9879 H   0  0  0  0  0  0  0  0  0  0  0  0
   13.7400   -6.3842  -10.3815 H   0  0  0  0  0  0  0  0  0  0  0  0
   13.1548   -8.0648  -10.2895 H   0  0  0  0  0  0  0  0  0  0  0  0
   14.0961   -6.4070   -7.3001 H   0  0  0  0  0  0  0  0  0  0  0  0
   12.9342   -7.4019   -6.4122 H   0  0  0  0  0  0  0  0  0  0  0  0
   13.6359   -4.4516   -6.1053 H   0  0  0  0  0  0  0  0  0  0  0  0
   13.8506   -5.6899   -4.8996 H   0  0  0  0  0  0  0  0  0  0  0  0
    8.3024   -3.6498   -2.5418 H   0  0  0  0  0  0  0  0  0  0  0  0
    7.1035   -1.8812   -2.7184 H   0  0  0  0  0  0  0  0  0  0  0  0
    4.4407   -3.1469   -1.7940 H   0  0  0  0  0  0  0  0  0  0  0  0
    5.7016   -4.0309   -2.6355 H   0  0  0  0  0  0  0  0  0  0  0  0
    4.8469   -2.7297   -3.4755 H   0  0  0  0  0  0  0  0  0  0  0  0
    4.7072   -0.7636   -1.1793 H   0  0  0  0  0  0  0  0  0  0  0  0
    5.2300   -0.2870   -2.8071 H   0  0  0  0  0  0  0  0  0  0  0  0
    6.2391    0.0727   -1.3869 H   0  0  0  0  0  0  0  0  0  0  0  0
  1  2  1  0  0  0  0
  1 37  1  0  0  0  0
  1 38  1  0  0  0  0
  1 39  1  0  0  0  0
  2  3  1  0  0  0  0
  3  4  1  0  0  0  0
  3 36  2  0  0  0  0
  4  5  2  0  0  0  0
  5  6  1  0  0  0  0
  5 40  1  0  0  0  0
  6  7  1  0  0  0  0
  6  8  2  0  0  0  0
  8  9  1  0  0  0  0
  8 36  1  0  0  0  0
  9 10  1  0  0  0  0
  9 41  1  0  0  0  0
 10 11  1  0  0  0  0
 10 35  2  0  0  0  0
 11 12  2  0  0  0  0
 12 13  1  0  0  0  0
 12 42  1  0  0  0  0
 13 14  2  0  0  0  0
 14 15  1  0  0  0  0
 14 35  1  0  0  0  0
 15 16  2  0  0  0  0
 15 43  1  0  0  0  0
 16 17  1  0  0  0  0
 16 29  1  0  0  0  0
 17 18  1  0  0  0  0
 18 19  1  0  0  0  0
 18 44  1  0  0  0  0
 18 45  1  0  0  0  0
 19 20  1  0  0  0  0
 19 46  1  0  0  0  0
 19 47  1  0  0  0  0
 20 21  1  0  0  0  0
 20 28  1  0  0  0  0
 21 22  1  0  0  0  0
 21 48  1  0  0  0  0
 21 49  1  0  0  0  0
 22 23  1  0  0  0  0
 22 50  1  0  0  0  0
 22 51  1  0  0  0  0
 23 24  1  0  0  0  0
 23 27  1  0  0  0  0
 24 25  1  0  0  0  0
 24 26  2  0  0  0  0
 25 52  1  0  0  0  0
 25 53  1  0  0  0  0
 25 54  1  0  0  0  0
 27 28  1  0  0  0  0
 27 55  1  0  0  0  0
 27 56  1  0  0  0  0
 28 57  1  0  0  0  0
 28 58  1  0  0  0  0
 29 30  2  0  0  0  0
 29 59  1  0  0  0  0
 30 31  1  0  0  0  0
 30 35  1  0  0  0  0
 31 32  1  0  0  0  0
 32 33  1  0  0  0  0
 32 34  1  0  0  0  0
 32 60  1  0  0  0  0
 33 61  1  0  0  0  0
 33 62  1  0  0  0  0
 33 63  1  0  0  0  0
 34 64  1  0  0  0  0
 34 65  1  0  0  0  0
 34 66  1  0  0  0  0
M  END
$$$$
