CHEMBL3690563
 OpenBabel04072215373D

 56 59  0  0  0  0  0  0  0  0999 V2000
    7.4728    2.5490    1.8502 C   0  0  0  0  0  0  0  0  0  0  0  0
    6.4558    2.2117    0.8677 N   0  0  0  0  0  0  0  0  0  0  0  0
    6.8579    1.9301   -0.5014 C   0  0  0  0  0  0  0  0  0  0  0  0
    5.1232    2.0591    1.2065 C   0  0  0  0  0  0  0  0  0  0  0  0
    4.6837    2.2502    2.4997 C   0  0  0  0  0  0  0  0  0  0  0  0
    3.3365    2.1105    2.7444 C   0  0  0  0  0  0  0  0  0  0  0  0
    2.8048    2.3422    4.0935 C   0  0  0  0  0  0  0  0  0  0  0  0
    2.6879    1.2801    5.0895 C   0  0  0  0  0  0  0  0  0  0  0  0
    2.1815    1.5594    6.3021 C   0  0  0  0  0  0  0  0  0  0  0  0
    1.7515    2.8575    6.5933 N   0  0  0  0  0  0  0  0  0  0  0  0
    1.1516    3.3998    7.7261 C   0  0  0  0  0  0  0  0  0  0  0  0
    0.7763    2.7262    8.9795 C   0  0  0  0  0  0  0  0  0  0  0  0
    0.8474    3.4675   10.1701 C   0  0  0  0  0  0  0  0  0  0  0  0
    0.4590    2.9145   11.3838 C   0  0  0  0  0  0  0  0  0  0  0  0
   -0.0146    1.6078   11.4299 C   0  0  0  0  0  0  0  0  0  0  0  0
   -0.1301    0.8442   10.2668 C   0  0  0  0  0  0  0  0  0  0  0  0
   -0.6563   -0.4738   10.2649 N   0  0  0  0  0  0  0  0  0  0  0  0
   -1.2046   -1.1256   11.3504 C   0  0  0  0  0  0  0  0  0  0  0  0
   -1.3445   -0.6888   12.4801 O   0  0  0  0  0  0  0  0  0  0  0  0
   -1.5735   -2.4239   11.0587 N   0  0  0  0  0  0  0  0  0  0  0  0
   -2.1975   -3.2103   12.1352 C   0  0  0  0  0  0  0  0  0  0  0  0
   -3.6877   -2.9370   12.3956 C   0  0  0  0  0  0  0  0  0  0  0  0
   -4.2255   -2.1142   11.4652 F   0  0  0  0  0  0  0  0  0  0  0  0
   -4.3837   -4.1010   12.3339 F   0  0  0  0  0  0  0  0  0  0  0  0
   -3.9114   -2.4024   13.6125 F   0  0  0  0  0  0  0  0  0  0  0  0
    0.2782    1.4110    9.0450 C   0  0  0  0  0  0  0  0  0  0  0  0
    1.0119    4.7468    7.4097 C   0  0  0  0  0  0  0  0  0  0  0  0
    1.4775    5.0479    6.1645 N   0  0  0  0  0  0  0  0  0  0  0  0
    1.8949    3.9039    5.6790 C   0  0  0  0  0  0  0  0  0  0  0  0
    2.4444    3.6076    4.4019 C   0  0  0  0  0  0  0  0  0  0  0  0
    2.4415    1.7828    1.8024 N   0  0  0  0  0  0  0  0  0  0  0  0
    2.9262    1.6008    0.5564 C   0  0  0  0  0  0  0  0  0  0  0  0
    1.9404    1.2363   -0.5599 C   0  0  0  0  0  0  0  0  0  0  0  0
    0.6505    1.0785   -0.1276 F   0  0  0  0  0  0  0  0  0  0  0  0
    1.8727    2.1764   -1.5500 F   0  0  0  0  0  0  0  0  0  0  0  0
    2.2497    0.0615   -1.1874 F   0  0  0  0  0  0  0  0  0  0  0  0
    4.2416    1.7306    0.2414 N   0  0  0  0  0  0  0  0  0  0  0  0
    8.4690    2.6115    1.4043 H   0  0  0  0  0  0  0  0  0  0  0  0
    7.5174    1.7912    2.6386 H   0  0  0  0  0  0  0  0  0  0  0  0
    7.2615    3.5242    2.3017 H   0  0  0  0  0  0  0  0  0  0  0  0
    7.9251    2.1241   -0.6540 H   0  0  0  0  0  0  0  0  0  0  0  0
    6.3159    2.5656   -1.2102 H   0  0  0  0  0  0  0  0  0  0  0  0
    6.6807    0.8783   -0.7504 H   0  0  0  0  0  0  0  0  0  0  0  0
    5.3517    2.5136    3.3075 H   0  0  0  0  0  0  0  0  0  0  0  0
    3.0169    0.2796    4.8259 H   0  0  0  0  0  0  0  0  0  0  0  0
    2.0975    0.8047    7.0706 H   0  0  0  0  0  0  0  0  0  0  0  0
    1.2005    4.4964   10.1697 H   0  0  0  0  0  0  0  0  0  0  0  0
    0.5110    3.5011   12.2969 H   0  0  0  0  0  0  0  0  0  0  0  0
   -0.2946    1.2236   12.4051 H   0  0  0  0  0  0  0  0  0  0  0  0
   -0.6501   -0.9682    9.3876 H   0  0  0  0  0  0  0  0  0  0  0  0
   -1.8756   -2.6155   10.1171 H   0  0  0  0  0  0  0  0  0  0  0  0
   -1.6403   -3.0343   13.0635 H   0  0  0  0  0  0  0  0  0  0  0  0
   -2.0537   -4.2609   11.8711 H   0  0  0  0  0  0  0  0  0  0  0  0
    0.1569    0.8339    8.1321 H   0  0  0  0  0  0  0  0  0  0  0  0
    0.5840    5.5232    8.0326 H   0  0  0  0  0  0  0  0  0  0  0  0
    2.5382    4.4268    3.6965 H   0  0  0  0  0  0  0  0  0  0  0  0
  1  2  1  0  0  0  0
  1 38  1  0  0  0  0
  1 39  1  0  0  0  0
  1 40  1  0  0  0  0
  2  3  1  0  0  0  0
  2  4  1  0  0  0  0
  3 41  1  0  0  0  0
  3 42  1  0  0  0  0
  3 43  1  0  0  0  0
  4  5  1  0  0  0  0
  4 37  2  0  0  0  0
  5  6  2  0  0  0  0
  5 44  1  0  0  0  0
  6  7  1  0  0  0  0
  6 31  1  0  0  0  0
  7  8  1  0  0  0  0
  7 30  2  0  0  0  0
  8  9  2  0  0  0  0
  8 45  1  0  0  0  0
  9 10  1  0  0  0  0
  9 46  1  0  0  0  0
 10 11  1  0  0  0  0
 10 29  1  0  0  0  0
 11 12  1  0  0  0  0
 11 27  2  0  0  0  0
 12 13  1  0  0  0  0
 12 26  2  0  0  0  0
 13 14  2  0  0  0  0
 13 47  1  0  0  0  0
 14 15  1  0  0  0  0
 14 48  1  0  0  0  0
 15 16  2  0  0  0  0
 15 49  1  0  0  0  0
 16 17  1  0  0  0  0
 16 26  1  0  0  0  0
 17 18  1  0  0  0  0
 17 50  1  0  0  0  0
 18 19  2  0  0  0  0
 18 20  1  0  0  0  0
 20 21  1  0  0  0  0
 20 51  1  0  0  0  0
 21 22  1  0  0  0  0
 21 52  1  0  0  0  0
 21 53  1  0  0  0  0
 22 23  1  0  0  0  0
 22 24  1  0  0  0  0
 22 25  1  0  0  0  0
 26 54  1  0  0  0  0
 27 28  1  0  0  0  0
 27 55  1  0  0  0  0
 28 29  2  0  0  0  0
 29 30  1  0  0  0  0
 30 56  1  0  0  0  0
 31 32  2  0  0  0  0
 32 33  1  0  0  0  0
 32 37  1  0  0  0  0
 33 34  1  0  0  0  0
 33 35  1  0  0  0  0
 33 36  1  0  0  0  0
M  END
$$$$
