CHEMBL393001
 OpenBabel04072215373D

 36 38  0  0  0  0  0  0  0  0999 V2000
    2.7516   -0.0389    1.2689 O   0  0  0  0  0  0  0  0  0  0  0  0
    2.3396   -0.1751    0.1246 C   0  0  0  0  0  0  0  0  0  0  0  0
    1.0812    0.2268   -0.3259 N   0  0  0  0  0  0  0  0  0  0  0  0
    0.0604    0.8196    0.4511 C   0  0  0  0  0  0  0  0  0  0  0  0
    0.2960    1.4157    1.6925 C   0  0  0  0  0  0  0  0  0  0  0  0
   -0.7637    1.8867    2.4741 C   0  0  0  0  0  0  0  0  0  0  0  0
   -2.0702    1.7732    2.0121 C   0  0  0  0  0  0  0  0  0  0  0  0
   -3.3762    2.2804    3.0095 Cl  0  0  0  0  0  0  0  0  0  0  0  0
   -2.3192    1.2395    0.7502 C   0  0  0  0  0  0  0  0  0  0  0  0
   -1.2544    0.7804   -0.0376 C   0  0  0  0  0  0  0  0  0  0  0  0
    3.1271   -0.8361   -0.8909 C   0  0  0  0  0  0  0  0  0  0  0  0
    2.7653   -0.9173   -2.1598 N   0  0  0  0  0  0  0  0  0  0  0  0
    3.7382   -1.6426   -2.7935 N   0  0  0  0  0  0  0  0  0  0  0  0
    4.6761   -2.0227   -1.9421 N   0  0  0  0  0  0  0  0  0  0  0  0
    4.3204   -1.5081   -0.7502 N   0  0  0  0  0  0  0  0  0  0  0  0
    5.1011   -1.8073    0.4381 C   0  0  0  0  0  0  0  0  0  0  0  0
    6.5836   -2.1042    0.1496 C   0  0  0  0  0  0  0  0  0  0  0  0
    7.3860   -2.4204    1.3902 C   0  0  0  0  0  0  0  0  0  0  0  0
    7.5784   -3.7422    1.8053 C   0  0  0  0  0  0  0  0  0  0  0  0
    8.3264   -3.9815    2.9507 C   0  0  0  0  0  0  0  0  0  0  0  0
    8.8862   -3.0086    3.6977 N   0  0  0  0  0  0  0  0  0  0  0  0
    8.6960   -1.7401    3.2796 C   0  0  0  0  0  0  0  0  0  0  0  0
    7.9656   -1.3998    2.1489 C   0  0  0  0  0  0  0  0  0  0  0  0
    0.8433   -0.0649   -1.2683 H   0  0  0  0  0  0  0  0  0  0  0  0
    1.3023    1.5352    2.0822 H   0  0  0  0  0  0  0  0  0  0  0  0
   -0.5567    2.3252    3.4466 H   0  0  0  0  0  0  0  0  0  0  0  0
   -3.3402    1.1593    0.3843 H   0  0  0  0  0  0  0  0  0  0  0  0
   -1.4797    0.3514   -1.0110 H   0  0  0  0  0  0  0  0  0  0  0  0
    4.6238   -2.6727    0.9130 H   0  0  0  0  0  0  0  0  0  0  0  0
    5.0242   -0.9554    1.1200 H   0  0  0  0  0  0  0  0  0  0  0  0
    7.0437   -1.2498   -0.3646 H   0  0  0  0  0  0  0  0  0  0  0  0
    6.6776   -2.9490   -0.5458 H   0  0  0  0  0  0  0  0  0  0  0  0
    7.1709   -4.5795    1.2479 H   0  0  0  0  0  0  0  0  0  0  0  0
    8.5016   -4.9938    3.3049 H   0  0  0  0  0  0  0  0  0  0  0  0
    9.1632   -0.9763    3.8950 H   0  0  0  0  0  0  0  0  0  0  0  0
    7.8681   -0.3567    1.8672 H   0  0  0  0  0  0  0  0  0  0  0  0
  1  2  2  0  0  0  0
  2  3  1  0  0  0  0
  2 11  1  0  0  0  0
  3  4  1  0  0  0  0
  3 24  1  0  0  0  0
  4  5  1  0  0  0  0
  4 10  2  0  0  0  0
  5  6  2  0  0  0  0
  5 25  1  0  0  0  0
  6  7  1  0  0  0  0
  6 26  1  0  0  0  0
  7  8  1  0  0  0  0
  7  9  2  0  0  0  0
  9 10  1  0  0  0  0
  9 27  1  0  0  0  0
 10 28  1  0  0  0  0
 11 12  2  0  0  0  0
 11 15  1  0  0  0  0
 12 13  1  0  0  0  0
 13 14  2  0  0  0  0
 14 15  1  0  0  0  0
 15 16  1  0  0  0  0
 16 17  1  0  0  0  0
 16 29  1  0  0  0  0
 16 30  1  0  0  0  0
 17 18  1  0  0  0  0
 17 31  1  0  0  0  0
 17 32  1  0  0  0  0
 18 19  1  0  0  0  0
 18 23  2  0  0  0  0
 19 20  2  0  0  0  0
 19 33  1  0  0  0  0
 20 21  1  0  0  0  0
 20 34  1  0  0  0  0
 21 22  2  0  0  0  0
 22 23  1  0  0  0  0
 22 35  1  0  0  0  0
 23 36  1  0  0  0  0
M  END
$$$$
