CHEMBL243017
 OpenBabel04072215363D

 51 53  0  0  0  0  0  0  0  0999 V2000
    3.2572    1.2386    0.3995 C   0  0  0  0  0  0  0  0  0  0  0  0
    2.9089   -0.0867   -0.2887 C   0  0  0  0  0  0  0  0  0  0  0  0
    1.4434   -0.0651   -0.7722 C   0  0  0  0  0  0  0  0  0  0  0  0
    3.7504   -0.2142   -1.4926 N   0  0  0  0  0  0  0  0  0  0  0  0
    3.1668   -1.2440    0.6735 C   0  0  0  0  0  0  0  0  0  0  0  0
    2.1850   -1.6644    1.5754 C   0  0  0  0  0  0  0  0  0  0  0  0
    2.3812   -2.7874    2.3759 C   0  0  0  0  0  0  0  0  0  0  0  0
    3.5801   -3.5139    2.3538 C   0  0  0  0  0  0  0  0  0  0  0  0
    3.8005   -4.7178    3.1878 C   0  0  0  0  0  0  0  0  0  0  0  0
    4.6532   -5.6243    2.6303 N   0  0  0  0  0  0  0  0  0  0  0  0
    4.8941   -6.7588    3.2944 C   0  0  0  0  0  0  0  0  0  0  0  0
    5.8143   -7.6506    2.7559 N   0  0  0  0  0  0  0  0  0  0  0  0
    5.8027   -9.0436    2.9149 C   0  0  0  0  0  0  0  0  0  0  0  0
    4.6089   -9.7549    3.1026 C   0  0  0  0  0  0  0  0  0  0  0  0
    4.6109  -11.1317    3.3238 C   0  0  0  0  0  0  0  0  0  0  0  0
    5.8195  -11.8288    3.3695 C   0  0  0  0  0  0  0  0  0  0  0  0
    5.8483  -13.3062    3.6849 C   0  0  0  0  0  0  0  0  0  0  0  0
    5.7265  -14.2030    2.4550 C   0  0  0  0  0  0  0  0  0  0  0  0
    6.8016  -13.9983    1.5452 O   0  0  0  0  0  0  0  0  0  0  0  0
    7.0153  -11.1308    3.1459 C   0  0  0  0  0  0  0  0  0  0  0  0
    7.0051   -9.7513    2.9204 C   0  0  0  0  0  0  0  0  0  0  0  0
    4.3243   -7.0507    4.4732 N   0  0  0  0  0  0  0  0  0  0  0  0
    3.5114   -6.1370    5.0171 C   0  0  0  0  0  0  0  0  0  0  0  0
    3.2197   -4.9364    4.4248 C   0  0  0  0  0  0  0  0  0  0  0  0
    2.3855   -4.0160    5.1261 C   0  0  0  0  0  0  0  0  0  0  0  0
    1.6815   -3.2889    5.6820 N   0  0  0  0  0  0  0  0  0  0  0  0
    4.5801   -3.0605    1.4786 C   0  0  0  0  0  0  0  0  0  0  0  0
    4.3869   -1.9352    0.6735 C   0  0  0  0  0  0  0  0  0  0  0  0
    3.0988    2.0900   -0.2722 H   0  0  0  0  0  0  0  0  0  0  0  0
    4.3046    1.2604    0.7250 H   0  0  0  0  0  0  0  0  0  0  0  0
    2.6369    1.4008    1.2891 H   0  0  0  0  0  0  0  0  0  0  0  0
    1.2718    0.7313   -1.5043 H   0  0  0  0  0  0  0  0  0  0  0  0
    0.7392    0.1167    0.0481 H   0  0  0  0  0  0  0  0  0  0  0  0
    1.1639   -1.0188   -1.2376 H   0  0  0  0  0  0  0  0  0  0  0  0
    3.5444    0.5434   -2.1393 H   0  0  0  0  0  0  0  0  0  0  0  0
    3.5029   -1.0795   -1.9715 H   0  0  0  0  0  0  0  0  0  0  0  0
    1.2323   -1.1507    1.6666 H   0  0  0  0  0  0  0  0  0  0  0  0
    1.5369   -3.0796    2.9940 H   0  0  0  0  0  0  0  0  0  0  0  0
    6.2144   -7.3069    1.8954 H   0  0  0  0  0  0  0  0  0  0  0  0
    3.6544   -9.2313    3.0943 H   0  0  0  0  0  0  0  0  0  0  0  0
    3.6632  -11.6365    3.4880 H   0  0  0  0  0  0  0  0  0  0  0  0
    5.0350  -13.5378    4.3836 H   0  0  0  0  0  0  0  0  0  0  0  0
    6.7817  -13.5300    4.2154 H   0  0  0  0  0  0  0  0  0  0  0  0
    4.7822  -14.0429    1.9247 H   0  0  0  0  0  0  0  0  0  0  0  0
    5.7625  -15.2519    2.7682 H   0  0  0  0  0  0  0  0  0  0  0  0
    6.7086  -13.0902    1.2045 H   0  0  0  0  0  0  0  0  0  0  0  0
    7.9680  -11.6552    3.1742 H   0  0  0  0  0  0  0  0  0  0  0  0
    7.9501   -9.2230    2.8115 H   0  0  0  0  0  0  0  0  0  0  0  0
    3.1001   -6.4140    5.9845 H   0  0  0  0  0  0  0  0  0  0  0  0
    5.5252   -3.5948    1.3982 H   0  0  0  0  0  0  0  0  0  0  0  0
    5.1991   -1.6185    0.0212 H   0  0  0  0  0  0  0  0  0  0  0  0
  1  2  1  0  0  0  0
  1 29  1  0  0  0  0
  1 30  1  0  0  0  0
  1 31  1  0  0  0  0
  2  3  1  0  0  0  0
  2  4  1  0  0  0  0
  2  5  1  0  0  0  0
  3 32  1  0  0  0  0
  3 33  1  0  0  0  0
  3 34  1  0  0  0  0
  4 35  1  0  0  0  0
  4 36  1  0  0  0  0
  5  6  1  0  0  0  0
  5 28  2  0  0  0  0
  6  7  2  0  0  0  0
  6 37  1  0  0  0  0
  7  8  1  0  0  0  0
  7 38  1  0  0  0  0
  8  9  1  0  0  0  0
  8 27  2  0  0  0  0
  9 10  1  0  0  0  0
  9 24  2  0  0  0  0
 10 11  2  0  0  0  0
 11 12  1  0  0  0  0
 11 22  1  0  0  0  0
 12 13  1  0  0  0  0
 12 39  1  0  0  0  0
 13 14  1  0  0  0  0
 13 21  2  0  0  0  0
 14 15  2  0  0  0  0
 14 40  1  0  0  0  0
 15 16  1  0  0  0  0
 15 41  1  0  0  0  0
 16 17  1  0  0  0  0
 16 20  2  0  0  0  0
 17 18  1  0  0  0  0
 17 42  1  0  0  0  0
 17 43  1  0  0  0  0
 18 19  1  0  0  0  0
 18 44  1  0  0  0  0
 18 45  1  0  0  0  0
 19 46  1  0  0  0  0
 20 21  1  0  0  0  0
 20 47  1  0  0  0  0
 21 48  1  0  0  0  0
 22 23  2  0  0  0  0
 23 24  1  0  0  0  0
 23 49  1  0  0  0  0
 24 25  1  0  0  0  0
 25 26  3  0  0  0  0
 27 28  1  0  0  0  0
 27 50  1  0  0  0  0
 28 51  1  0  0  0  0
M  END
$$$$
