CHEMBL404881
 OpenBabel04072215373D

 57 60  0  0  0  0  0  0  0  0999 V2000
    4.8507   -7.9109   -8.0417 C   0  0  0  0  0  0  0  0  0  0  0  0
    5.8892   -6.9737   -7.7404 O   0  0  0  0  0  0  0  0  0  0  0  0
    5.4827   -5.7624   -7.2450 C   0  0  0  0  0  0  0  0  0  0  0  0
    4.2982   -5.6479   -6.5026 C   0  0  0  0  0  0  0  0  0  0  0  0
    3.7982   -4.4309   -6.0749 C   0  0  0  0  0  0  0  0  0  0  0  0
    2.6111   -4.4451   -5.4510 N   0  0  0  0  0  0  0  0  0  0  0  0
    2.0989   -3.2734   -5.0350 C   0  0  0  0  0  0  0  0  0  0  0  0
    2.7309   -2.0641   -5.2089 C   0  0  0  0  0  0  0  0  0  0  0  0
    3.9322   -2.0391   -5.9252 C   0  0  0  0  0  0  0  0  0  0  0  0
    4.5571   -0.8411   -6.2741 O   0  0  0  0  0  0  0  0  0  0  0  0
    3.7606    0.2841   -6.3800 C   0  0  0  0  0  0  0  0  0  0  0  0
    2.5636    0.2780   -7.0986 C   0  0  0  0  0  0  0  0  0  0  0  0
    1.6682    1.3443   -6.9653 C   0  0  0  0  0  0  0  0  0  0  0  0
    1.9778    2.4431   -6.1550 C   0  0  0  0  0  0  0  0  0  0  0  0
    0.9397    3.3900   -5.9600 N   0  0  0  0  0  0  0  0  0  0  0  0
    0.7088    4.3210   -4.9690 C   0  0  0  0  0  0  0  0  0  0  0  0
    1.5946    4.6432   -3.5899 S   0  0  0  0  0  0  0  0  0  0  0  0
   -0.4624    5.0606   -5.1217 N   0  0  0  0  0  0  0  0  0  0  0  0
   -1.4611    4.9215   -6.0782 C   0  0  0  0  0  0  0  0  0  0  0  0
   -1.4088    4.1052   -6.9986 O   0  0  0  0  0  0  0  0  0  0  0  0
   -2.6442    5.8536   -5.8840 C   0  0  0  0  0  0  0  0  0  0  0  0
   -2.4167    7.2340   -6.4462 C   0  0  0  0  0  0  0  0  0  0  0  0
   -2.1311    7.4079   -7.8083 C   0  0  0  0  0  0  0  0  0  0  0  0
   -1.9309    8.6853   -8.3341 C   0  0  0  0  0  0  0  0  0  0  0  0
   -2.0238    9.8029   -7.5077 C   0  0  0  0  0  0  0  0  0  0  0  0
   -2.3257    9.6442   -6.1570 C   0  0  0  0  0  0  0  0  0  0  0  0
   -2.5253    8.3673   -5.6277 C   0  0  0  0  0  0  0  0  0  0  0  0
    3.2528    2.5254   -5.5986 C   0  0  0  0  0  0  0  0  0  0  0  0
    4.1346    1.4461   -5.7099 C   0  0  0  0  0  0  0  0  0  0  0  0
    5.3347    1.5287   -5.1171 F   0  0  0  0  0  0  0  0  0  0  0  0
    4.5273   -3.2573   -6.3350 C   0  0  0  0  0  0  0  0  0  0  0  0
    5.7725   -3.3762   -6.9935 C   0  0  0  0  0  0  0  0  0  0  0  0
    6.2576   -4.6141   -7.4559 C   0  0  0  0  0  0  0  0  0  0  0  0
    7.4557   -4.4838   -8.1001 O   0  0  0  0  0  0  0  0  0  0  0  0
    8.0631   -5.6035   -8.7229 C   0  0  0  0  0  0  0  0  0  0  0  0
    5.1642   -8.4986   -8.9093 H   0  0  0  0  0  0  0  0  0  0  0  0
    3.8979   -7.4380   -8.3098 H   0  0  0  0  0  0  0  0  0  0  0  0
    4.7119   -8.5927   -7.1963 H   0  0  0  0  0  0  0  0  0  0  0  0
    3.7076   -6.5271   -6.2599 H   0  0  0  0  0  0  0  0  0  0  0  0
    1.1227   -3.3325   -4.5625 H   0  0  0  0  0  0  0  0  0  0  0  0
    2.2581   -1.1666   -4.8276 H   0  0  0  0  0  0  0  0  0  0  0  0
    2.2786   -0.5879   -7.6903 H   0  0  0  0  0  0  0  0  0  0  0  0
    0.6949    1.2651   -7.4468 H   0  0  0  0  0  0  0  0  0  0  0  0
    0.1379    3.2709   -6.5844 H   0  0  0  0  0  0  0  0  0  0  0  0
   -0.5944    5.7520   -4.3924 H   0  0  0  0  0  0  0  0  0  0  0  0
   -2.8841    5.8997   -4.8146 H   0  0  0  0  0  0  0  0  0  0  0  0
   -3.5183    5.4055   -6.3711 H   0  0  0  0  0  0  0  0  0  0  0  0
   -2.0662    6.5483   -8.4741 H   0  0  0  0  0  0  0  0  0  0  0  0
   -1.7061    8.8079   -9.3908 H   0  0  0  0  0  0  0  0  0  0  0  0
   -1.8679   10.7969   -7.9187 H   0  0  0  0  0  0  0  0  0  0  0  0
   -2.4122   10.5189   -5.5166 H   0  0  0  0  0  0  0  0  0  0  0  0
   -2.7761    8.2722   -4.5735 H   0  0  0  0  0  0  0  0  0  0  0  0
    3.6022    3.4040   -5.0704 H   0  0  0  0  0  0  0  0  0  0  0  0
    6.3787   -2.4868   -7.1594 H   0  0  0  0  0  0  0  0  0  0  0  0
    8.8296   -5.2137   -9.4019 H   0  0  0  0  0  0  0  0  0  0  0  0
    7.3701   -6.1748   -9.3447 H   0  0  0  0  0  0  0  0  0  0  0  0
    8.5674   -6.2339   -7.9841 H   0  0  0  0  0  0  0  0  0  0  0  0
  1  2  1  0  0  0  0
  1 36  1  0  0  0  0
  1 37  1  0  0  0  0
  1 38  1  0  0  0  0
  2  3  1  0  0  0  0
  3  4  1  0  0  0  0
  3 33  2  0  0  0  0
  4  5  2  0  0  0  0
  4 39  1  0  0  0  0
  5  6  1  0  0  0  0
  5 31  1  0  0  0  0
  6  7  2  0  0  0  0
  7  8  1  0  0  0  0
  7 40  1  0  0  0  0
  8  9  2  0  0  0  0
  8 41  1  0  0  0  0
  9 10  1  0  0  0  0
  9 31  1  0  0  0  0
 10 11  1  0  0  0  0
 11 12  1  0  0  0  0
 11 29  2  0  0  0  0
 12 13  2  0  0  0  0
 12 42  1  0  0  0  0
 13 14  1  0  0  0  0
 13 43  1  0  0  0  0
 14 15  1  0  0  0  0
 14 28  2  0  0  0  0
 15 16  1  0  0  0  0
 15 44  1  0  0  0  0
 16 17  2  0  0  0  0
 16 18  1  0  0  0  0
 18 19  1  0  0  0  0
 18 45  1  0  0  0  0
 19 20  2  0  0  0  0
 19 21  1  0  0  0  0
 21 22  1  0  0  0  0
 21 46  1  0  0  0  0
 21 47  1  0  0  0  0
 22 23  1  0  0  0  0
 22 27  2  0  0  0  0
 23 24  2  0  0  0  0
 23 48  1  0  0  0  0
 24 25  1  0  0  0  0
 24 49  1  0  0  0  0
 25 26  2  0  0  0  0
 25 50  1  0  0  0  0
 26 27  1  0  0  0  0
 26 51  1  0  0  0  0
 27 52  1  0  0  0  0
 28 29  1  0  0  0  0
 28 53  1  0  0  0  0
 29 30  1  0  0  0  0
 31 32  2  0  0  0  0
 32 33  1  0  0  0  0
 32 54  1  0  0  0  0
 33 34  1  0  0  0  0
 34 35  1  0  0  0  0
 35 55  1  0  0  0  0
 35 56  1  0  0  0  0
 35 57  1  0  0  0  0
M  END
$$$$
