CHEMBL3893200
 OpenBabel04072215373D

 67 71  0  0  0  0  0  0  0  0999 V2000
    4.2506   -4.7007  -11.0736 C   0  0  0  0  0  0  0  0  0  0  0  0
    5.4549   -4.0463  -10.5422 N   0  0  0  0  0  0  0  0  0  0  0  0
    5.4673   -2.6421  -10.9702 C   0  0  0  0  0  0  0  0  0  0  0  0
    6.5422   -1.7920  -10.2796 C   0  0  0  0  0  0  0  0  0  0  0  0
    6.4820   -1.8926   -8.7426 C   0  0  0  0  0  0  0  0  0  0  0  0
    5.2911   -1.2068   -8.0675 C   0  0  0  0  0  0  0  0  0  0  0  0
    4.3555   -0.4503   -8.7834 C   0  0  0  0  0  0  0  0  0  0  0  0
    3.2184    0.0729   -8.1680 C   0  0  0  0  0  0  0  0  0  0  0  0
    2.9839   -0.1194   -6.8078 C   0  0  0  0  0  0  0  0  0  0  0  0
    1.8319    0.3854   -6.1886 N   0  0  0  0  0  0  0  0  0  0  0  0
    0.5551    0.3741   -6.7752 C   0  0  0  0  0  0  0  0  0  0  0  0
   -0.2923    1.3481   -6.4273 N   0  0  0  0  0  0  0  0  0  0  0  0
   -1.5447    1.2621   -6.9330 C   0  0  0  0  0  0  0  0  0  0  0  0
   -1.9929    0.2475   -7.7601 C   0  0  0  0  0  0  0  0  0  0  0  0
   -3.6489    0.1817   -8.1886 Cl  0  0  0  0  0  0  0  0  0  0  0  0
   -1.0474   -0.6889   -8.1146 C   0  0  0  0  0  0  0  0  0  0  0  0
   -1.3289   -1.9250   -8.9317 C   0  0  0  0  0  0  0  0  0  0  0  0
   -1.8218   -1.7430  -10.3835 C   0  0  0  0  0  0  0  0  0  0  0  0
   -2.0225   -3.0323  -11.1835 C   0  0  0  0  0  0  0  0  0  0  0  0
   -1.5642   -4.2683  -10.6721 C   0  0  0  0  0  0  0  0  0  0  0  0
   -1.6729   -5.4544  -11.3959 C   0  0  0  0  0  0  0  0  0  0  0  0
   -2.1886   -5.4284  -12.6777 C   0  0  0  0  0  0  0  0  0  0  0  0
   -2.6684   -4.2280  -13.1952 C   0  0  0  0  0  0  0  0  0  0  0  0
   -2.6604   -3.0186  -12.4550 C   0  0  0  0  0  0  0  0  0  0  0  0
   -3.5064   -1.8555  -13.0042 C   0  0  0  0  0  0  0  0  0  0  0  0
   -4.9383   -1.8540  -12.5203 C   0  0  0  0  0  0  0  0  0  0  0  0
   -5.8290   -2.5265  -13.3039 N   0  0  0  0  0  0  0  0  0  0  0  0
   -5.2695   -1.2828  -11.4913 O   0  0  0  0  0  0  0  0  0  0  0  0
   -3.2424   -1.4409  -14.4602 C   0  0  0  0  0  0  0  0  0  0  0  0
   -2.9229   -0.4945  -13.3510 C   0  0  0  0  0  0  0  0  0  0  0  0
    0.2216   -0.6162   -7.6238 N   0  0  0  0  0  0  0  0  0  0  0  0
    3.9760   -0.7479   -6.0529 C   0  0  0  0  0  0  0  0  0  0  0  0
    5.1065   -1.2998   -6.6769 C   0  0  0  0  0  0  0  0  0  0  0  0
    6.5932   -3.3922   -8.4080 C   0  0  0  0  0  0  0  0  0  0  0  0
    5.4874   -4.2083   -9.0809 C   0  0  0  0  0  0  0  0  0  0  0  0
    4.2033   -4.6076  -12.1642 H   0  0  0  0  0  0  0  0  0  0  0  0
    3.3319   -4.2657  -10.6580 H   0  0  0  0  0  0  0  0  0  0  0  0
    4.2557   -5.7706  -10.8413 H   0  0  0  0  0  0  0  0  0  0  0  0
    4.4790   -2.1955  -10.8215 H   0  0  0  0  0  0  0  0  0  0  0  0
    5.6563   -2.6054  -12.0508 H   0  0  0  0  0  0  0  0  0  0  0  0
    6.4690   -0.7494  -10.6105 H   0  0  0  0  0  0  0  0  0  0  0  0
    7.5289   -2.1391  -10.6162 H   0  0  0  0  0  0  0  0  0  0  0  0
    7.3747   -1.3872   -8.3495 H   0  0  0  0  0  0  0  0  0  0  0  0
    4.4585   -0.2634   -9.8463 H   0  0  0  0  0  0  0  0  0  0  0  0
    2.4987    0.6123   -8.7785 H   0  0  0  0  0  0  0  0  0  0  0  0
    1.9561    1.2951   -5.7648 H   0  0  0  0  0  0  0  0  0  0  0  0
   -2.2156    2.0513   -6.6064 H   0  0  0  0  0  0  0  0  0  0  0  0
   -2.0288   -2.5528   -8.3662 H   0  0  0  0  0  0  0  0  0  0  0  0
   -0.3817   -2.4827   -8.9695 H   0  0  0  0  0  0  0  0  0  0  0  0
   -1.0892   -1.1280  -10.9232 H   0  0  0  0  0  0  0  0  0  0  0  0
   -2.7656   -1.1958  -10.3802 H   0  0  0  0  0  0  0  0  0  0  0  0
   -1.1300   -4.3489   -9.6791 H   0  0  0  0  0  0  0  0  0  0  0  0
   -1.3498   -6.3927  -10.9527 H   0  0  0  0  0  0  0  0  0  0  0  0
   -2.2558   -6.3425  -13.2603 H   0  0  0  0  0  0  0  0  0  0  0  0
   -3.1107   -4.2438  -14.1894 H   0  0  0  0  0  0  0  0  0  0  0  0
   -5.5427   -3.0527  -14.1154 H   0  0  0  0  0  0  0  0  0  0  0  0
   -6.7826   -2.5936  -12.9790 H   0  0  0  0  0  0  0  0  0  0  0  0
   -4.0951   -1.2263  -15.0954 H   0  0  0  0  0  0  0  0  0  0  0  0
   -2.3996   -1.8657  -14.9945 H   0  0  0  0  0  0  0  0  0  0  0  0
   -3.5715    0.3712  -13.2405 H   0  0  0  0  0  0  0  0  0  0  0  0
   -1.8822   -0.2868  -13.1447 H   0  0  0  0  0  0  0  0  0  0  0  0
    3.8502   -0.8626   -4.9791 H   0  0  0  0  0  0  0  0  0  0  0  0
    5.8336   -1.8207   -6.0572 H   0  0  0  0  0  0  0  0  0  0  0  0
    6.5728   -3.5721   -7.3278 H   0  0  0  0  0  0  0  0  0  0  0  0
    7.5685   -3.7628   -8.7543 H   0  0  0  0  0  0  0  0  0  0  0  0
    4.5216   -3.9481   -8.6304 H   0  0  0  0  0  0  0  0  0  0  0  0
    5.6694   -5.2673   -8.8562 H   0  0  0  0  0  0  0  0  0  0  0  0
  1  2  1  0  0  0  0
  1 36  1  0  0  0  0
  1 37  1  0  0  0  0
  1 38  1  0  0  0  0
  2  3  1  0  0  0  0
  2 35  1  0  0  0  0
  3  4  1  0  0  0  0
  3 39  1  0  0  0  0
  3 40  1  0  0  0  0
  4  5  1  0  0  0  0
  4 41  1  0  0  0  0
  4 42  1  0  0  0  0
  5  6  1  0  0  0  0
  5 34  1  0  0  0  0
  5 43  1  0  0  0  0
  6  7  1  0  0  0  0
  6 33  2  0  0  0  0
  7  8  2  0  0  0  0
  7 44  1  0  0  0  0
  8  9  1  0  0  0  0
  8 45  1  0  0  0  0
  9 10  1  0  0  0  0
  9 32  2  0  0  0  0
 10 11  1  0  0  0  0
 10 46  1  0  0  0  0
 11 12  1  0  0  0  0
 11 31  2  0  0  0  0
 12 13  2  0  0  0  0
 13 14  1  0  0  0  0
 13 47  1  0  0  0  0
 14 15  1  0  0  0  0
 14 16  2  0  0  0  0
 16 17  1  0  0  0  0
 16 31  1  0  0  0  0
 17 18  1  0  0  0  0
 17 48  1  0  0  0  0
 17 49  1  0  0  0  0
 18 19  1  0  0  0  0
 18 50  1  0  0  0  0
 18 51  1  0  0  0  0
 19 20  1  0  0  0  0
 19 24  2  0  0  0  0
 20 21  2  0  0  0  0
 20 52  1  0  0  0  0
 21 22  1  0  0  0  0
 21 53  1  0  0  0  0
 22 23  2  0  0  0  0
 22 54  1  0  0  0  0
 23 24  1  0  0  0  0
 23 55  1  0  0  0  0
 24 25  1  0  0  0  0
 25 26  1  0  0  0  0
 25 29  1  0  0  0  0
 25 30  1  0  0  0  0
 26 27  1  0  0  0  0
 26 28  2  0  0  0  0
 27 56  1  0  0  0  0
 27 57  1  0  0  0  0
 29 30  1  0  0  0  0
 29 58  1  0  0  0  0
 29 59  1  0  0  0  0
 30 60  1  0  0  0  0
 30 61  1  0  0  0  0
 32 33  1  0  0  0  0
 32 62  1  0  0  0  0
 33 63  1  0  0  0  0
 34 35  1  0  0  0  0
 34 64  1  0  0  0  0
 34 65  1  0  0  0  0
 35 66  1  0  0  0  0
 35 67  1  0  0  0  0
M  END
$$$$
