CHEMBL1254591
 OpenBabel04072215363D

 43 45  0  0  0  0  0  0  0  0999 V2000
    2.8120    1.0221   -1.5824 C   0  0  0  0  0  0  0  0  0  0  0  0
    2.5907    0.2929   -0.2675 C   0  0  0  0  0  0  0  0  0  0  0  0
    3.1026    1.0751    0.9328 C   0  0  0  0  0  0  0  0  0  0  0  0
    4.5308    1.3350    0.8957 N   0  0  0  0  0  0  0  0  0  0  0  0
    5.0480    2.1125    1.9121 C   0  0  0  0  0  0  0  0  0  0  0  0
    4.3231    2.6023    2.7716 O   0  0  0  0  0  0  0  0  0  0  0  0
    6.4126    2.2767    1.8042 N   0  0  0  0  0  0  0  0  0  0  0  0
    7.2131    2.9638    2.7464 C   0  0  0  0  0  0  0  0  0  0  0  0
    6.7828    3.2029    4.0520 C   0  0  0  0  0  0  0  0  0  0  0  0
    7.5598    3.9467    4.9397 C   0  0  0  0  0  0  0  0  0  0  0  0
    8.8201    4.4062    4.5625 C   0  0  0  0  0  0  0  0  0  0  0  0
    9.6371    5.1622    5.3781 O   0  0  0  0  0  0  0  0  0  0  0  0
    9.5564    4.9595    6.7514 C   0  0  0  0  0  0  0  0  0  0  0  0
    9.2904    3.7258    7.2374 N   0  0  0  0  0  0  0  0  0  0  0  0
    9.1653    3.5802    8.5653 C   0  0  0  0  0  0  0  0  0  0  0  0
    9.3122    4.5156    9.5096 N   0  0  0  0  0  0  0  0  0  0  0  0
    9.6409    5.7275    9.0164 C   0  0  0  0  0  0  0  0  0  0  0  0
    9.8960    6.9279    9.7186 C   0  0  0  0  0  0  0  0  0  0  0  0
   10.1942    7.8932    8.7836 C   0  0  0  0  0  0  0  0  0  0  0  0
   10.1214    7.3161    7.5398 N   0  0  0  0  0  0  0  0  0  0  0  0
   10.3858    8.0124    6.3008 C   0  0  0  0  0  0  0  0  0  0  0  0
    9.7796    5.9873    7.6571 C   0  0  0  0  0  0  0  0  0  0  0  0
    9.2703    4.1561    3.2632 C   0  0  0  0  0  0  0  0  0  0  0  0
    8.4750    3.4290    2.3609 C   0  0  0  0  0  0  0  0  0  0  0  0
    2.3806    0.4468   -2.4072 H   0  0  0  0  0  0  0  0  0  0  0  0
    3.8787    1.1553   -1.7865 H   0  0  0  0  0  0  0  0  0  0  0  0
    2.3370    2.0083   -1.5698 H   0  0  0  0  0  0  0  0  0  0  0  0
    3.0738   -0.6896   -0.3084 H   0  0  0  0  0  0  0  0  0  0  0  0
    1.5158    0.1195   -0.1358 H   0  0  0  0  0  0  0  0  0  0  0  0
    2.8908    0.5179    1.8532 H   0  0  0  0  0  0  0  0  0  0  0  0
    2.5807    2.0371    1.0067 H   0  0  0  0  0  0  0  0  0  0  0  0
    5.1298    0.5767    0.6013 H   0  0  0  0  0  0  0  0  0  0  0  0
    6.7971    2.1351    0.8823 H   0  0  0  0  0  0  0  0  0  0  0  0
    5.8354    2.8212    4.4200 H   0  0  0  0  0  0  0  0  0  0  0  0
    7.1552    4.1418    5.9283 H   0  0  0  0  0  0  0  0  0  0  0  0
    8.9044    2.5850    8.9114 H   0  0  0  0  0  0  0  0  0  0  0  0
    9.8649    7.0597   10.7923 H   0  0  0  0  0  0  0  0  0  0  0  0
   10.4520    8.9391    8.9080 H   0  0  0  0  0  0  0  0  0  0  0  0
   10.6618    9.0487    6.5175 H   0  0  0  0  0  0  0  0  0  0  0  0
    9.4804    7.9931    5.6894 H   0  0  0  0  0  0  0  0  0  0  0  0
   11.2147    7.5129    5.7933 H   0  0  0  0  0  0  0  0  0  0  0  0
   10.2402    4.5300    2.9459 H   0  0  0  0  0  0  0  0  0  0  0  0
    8.8490    3.2585    1.3549 H   0  0  0  0  0  0  0  0  0  0  0  0
  1  2  1  0  0  0  0
  1 25  1  0  0  0  0
  1 26  1  0  0  0  0
  1 27  1  0  0  0  0
  2  3  1  0  0  0  0
  2 28  1  0  0  0  0
  2 29  1  0  0  0  0
  3  4  1  0  0  0  0
  3 30  1  0  0  0  0
  3 31  1  0  0  0  0
  4  5  1  0  0  0  0
  4 32  1  0  0  0  0
  5  6  2  0  0  0  0
  5  7  1  0  0  0  0
  7  8  1  0  0  0  0
  7 33  1  0  0  0  0
  8  9  1  0  0  0  0
  8 24  2  0  0  0  0
  9 10  2  0  0  0  0
  9 34  1  0  0  0  0
 10 11  1  0  0  0  0
 10 35  1  0  0  0  0
 11 12  1  0  0  0  0
 11 23  2  0  0  0  0
 12 13  1  0  0  0  0
 13 14  1  0  0  0  0
 13 22  2  0  0  0  0
 14 15  2  0  0  0  0
 15 16  1  0  0  0  0
 15 36  1  0  0  0  0
 16 17  2  0  0  0  0
 17 18  1  0  0  0  0
 17 22  1  0  0  0  0
 18 19  2  0  0  0  0
 18 37  1  0  0  0  0
 19 20  1  0  0  0  0
 19 38  1  0  0  0  0
 20 21  1  0  0  0  0
 20 22  1  0  0  0  0
 21 39  1  0  0  0  0
 21 40  1  0  0  0  0
 21 41  1  0  0  0  0
 23 24  1  0  0  0  0
 23 42  1  0  0  0  0
 24 43  1  0  0  0  0
M  END
$$$$
