CHEMBL482967
 OpenBabel04072215383D

 46 49  0  0  0  0  0  0  0  0999 V2000
    0.8161   -1.6404    2.0570 C   0  0  0  0  0  0  0  0  0  0  0  0
    0.1783   -0.8456    0.9729 C   0  0  0  0  0  0  0  0  0  0  0  0
    0.4862    0.5088    0.8934 N   0  0  0  0  0  0  0  0  0  0  0  0
   -0.1306    1.0574   -0.1181 C   0  0  0  0  0  0  0  0  0  0  0  0
   -0.0291    2.3593   -0.4304 N   0  0  0  0  0  0  0  0  0  0  0  0
   -1.1211    0.0108   -1.0322 S   0  0  0  0  0  0  0  0  0  0  0  0
   -0.6932   -1.3086   -0.0055 C   0  0  0  0  0  0  0  0  0  0  0  0
   -1.2589   -2.6439   -0.2411 C   0  0  0  0  0  0  0  0  0  0  0  0
   -1.5930   -3.0811   -1.5069 C   0  0  0  0  0  0  0  0  0  0  0  0
   -2.1631   -4.3177   -1.5767 C   0  0  0  0  0  0  0  0  0  0  0  0
   -2.3761   -5.0768   -0.4954 N   0  0  0  0  0  0  0  0  0  0  0  0
   -2.0056   -4.6037    0.7052 C   0  0  0  0  0  0  0  0  0  0  0  0
   -2.2468   -5.3685    1.8523 N   0  0  0  0  0  0  0  0  0  0  0  0
   -2.8448   -6.6330    1.9471 C   0  0  0  0  0  0  0  0  0  0  0  0
   -2.7561   -7.5640    0.9126 C   0  0  0  0  0  0  0  0  0  0  0  0
   -3.4903   -8.7476    0.9331 C   0  0  0  0  0  0  0  0  0  0  0  0
   -4.3508   -9.0663    1.9858 C   0  0  0  0  0  0  0  0  0  0  0  0
   -5.0771  -10.2351    1.9308 N   0  0  0  0  0  0  0  0  0  0  0  0
   -5.5790  -10.9387    3.1143 C   0  0  0  0  0  0  0  0  0  0  0  0
   -5.5487  -12.4541    2.8213 C   0  0  0  0  0  0  0  0  0  0  0  0
   -6.2705  -12.7960    1.6220 O   0  0  0  0  0  0  0  0  0  0  0  0
   -5.7259  -12.0921    0.4908 C   0  0  0  0  0  0  0  0  0  0  0  0
   -5.8121  -10.5752    0.6980 C   0  0  0  0  0  0  0  0  0  0  0  0
   -4.3863   -8.1696    3.0588 C   0  0  0  0  0  0  0  0  0  0  0  0
   -3.6518   -6.9663    3.0393 C   0  0  0  0  0  0  0  0  0  0  0  0
   -1.4503   -3.3942    0.8702 N   0  0  0  0  0  0  0  0  0  0  0  0
    1.4833   -1.0119    2.6548 H   0  0  0  0  0  0  0  0  0  0  0  0
    1.4117   -2.4554    1.6340 H   0  0  0  0  0  0  0  0  0  0  0  0
    0.0623   -2.0606    2.7274 H   0  0  0  0  0  0  0  0  0  0  0  0
    0.3125    2.9560    0.3141 H   0  0  0  0  0  0  0  0  0  0  0  0
   -0.7647    2.7717   -0.9903 H   0  0  0  0  0  0  0  0  0  0  0  0
   -1.4321   -2.5008   -2.4041 H   0  0  0  0  0  0  0  0  0  0  0  0
   -2.4858   -4.7493   -2.5170 H   0  0  0  0  0  0  0  0  0  0  0  0
   -2.1184   -4.8298    2.6937 H   0  0  0  0  0  0  0  0  0  0  0  0
   -2.1127   -7.3851    0.0560 H   0  0  0  0  0  0  0  0  0  0  0  0
   -3.3642   -9.4316    0.0984 H   0  0  0  0  0  0  0  0  0  0  0  0
   -6.6063  -10.6170    3.3230 H   0  0  0  0  0  0  0  0  0  0  0  0
   -4.9632  -10.7437    3.9990 H   0  0  0  0  0  0  0  0  0  0  0  0
   -6.0053  -13.0046    3.6492 H   0  0  0  0  0  0  0  0  0  0  0  0
   -4.5144  -12.8043    2.7164 H   0  0  0  0  0  0  0  0  0  0  0  0
   -6.2971  -12.3838   -0.3957 H   0  0  0  0  0  0  0  0  0  0  0  0
   -4.6853  -12.4056    0.3389 H   0  0  0  0  0  0  0  0  0  0  0  0
   -6.8611  -10.2761    0.8207 H   0  0  0  0  0  0  0  0  0  0  0  0
   -5.4350  -10.0657   -0.1944 H   0  0  0  0  0  0  0  0  0  0  0  0
   -5.0289   -8.3624    3.9139 H   0  0  0  0  0  0  0  0  0  0  0  0
   -3.7569   -6.2777    3.8732 H   0  0  0  0  0  0  0  0  0  0  0  0
  1  2  1  0  0  0  0
  1 27  1  0  0  0  0
  1 28  1  0  0  0  0
  1 29  1  0  0  0  0
  2  3  1  0  0  0  0
  2  7  2  0  0  0  0
  3  4  2  0  0  0  0
  4  5  1  0  0  0  0
  4  6  1  0  0  0  0
  5 30  1  0  0  0  0
  5 31  1  0  0  0  0
  6  7  1  0  0  0  0
  7  8  1  0  0  0  0
  8  9  1  0  0  0  0
  8 26  2  0  0  0  0
  9 10  2  0  0  0  0
  9 32  1  0  0  0  0
 10 11  1  0  0  0  0
 10 33  1  0  0  0  0
 11 12  2  0  0  0  0
 12 13  1  0  0  0  0
 12 26  1  0  0  0  0
 13 14  1  0  0  0  0
 13 34  1  0  0  0  0
 14 15  1  0  0  0  0
 14 25  2  0  0  0  0
 15 16  2  0  0  0  0
 15 35  1  0  0  0  0
 16 17  1  0  0  0  0
 16 36  1  0  0  0  0
 17 18  1  0  0  0  0
 17 24  2  0  0  0  0
 18 19  1  0  0  0  0
 18 23  1  0  0  0  0
 19 20  1  0  0  0  0
 19 37  1  0  0  0  0
 19 38  1  0  0  0  0
 20 21  1  0  0  0  0
 20 39  1  0  0  0  0
 20 40  1  0  0  0  0
 21 22  1  0  0  0  0
 22 23  1  0  0  0  0
 22 41  1  0  0  0  0
 22 42  1  0  0  0  0
 23 43  1  0  0  0  0
 23 44  1  0  0  0  0
 24 25  1  0  0  0  0
 24 45  1  0  0  0  0
 25 46  1  0  0  0  0
M  END
$$$$
