CHEMBL3690383
 OpenBabel04072215373D

 46 48  0  0  1  0  0  0  0  0999 V2000
    0.9290    0.0491   -0.0840 C   0  0  0  0  0  0  0  0  0  0  0  0
    2.4492    0.0353   -0.0612 C   0  0  3  0  0  0  0  0  0  0  0  0
    2.9283    1.3133    0.3361 O   0  0  0  0  0  0  0  0  0  0  0  0
    2.9559   -1.0124    0.9166 C   0  0  0  0  0  0  0  0  0  0  0  0
    3.3905   -1.9110    1.7554 C   0  0  0  0  0  0  0  0  0  0  0  0
    3.8972   -2.9587    2.7332 C   0  0  0  0  0  0  0  0  0  0  0  0
    4.5008   -2.5640    3.9913 C   0  0  0  0  0  0  0  0  0  0  0  0
    4.7468   -3.5114    4.9154 C   0  0  0  0  0  0  0  0  0  0  0  0
    4.4617   -4.8588    4.6378 N   0  0  0  0  0  0  0  0  0  0  0  0
    4.6379   -6.0218    5.3899 C   0  0  0  0  0  0  0  0  0  0  0  0
    5.2654   -6.1490    6.7124 C   0  0  0  0  0  0  0  0  0  0  0  0
    6.3553   -5.3511    7.0747 C   0  0  0  0  0  0  0  0  0  0  0  0
    6.9531   -5.4852    8.3238 C   0  0  0  0  0  0  0  0  0  0  0  0
    6.5026   -6.4565    9.2112 C   0  0  0  0  0  0  0  0  0  0  0  0
    5.4455   -7.3008    8.8704 C   0  0  0  0  0  0  0  0  0  0  0  0
    5.0147   -8.3516    9.7147 N   0  0  0  0  0  0  0  0  0  0  0  0
    5.3575   -8.5039   11.0404 C   0  0  0  0  0  0  0  0  0  0  0  0
    5.9225   -7.6804   11.7487 O   0  0  0  0  0  0  0  0  0  0  0  0
    5.0431   -9.7496   11.5346 N   0  0  0  0  0  0  0  0  0  0  0  0
    5.3068  -10.0211   12.9527 C   0  0  0  0  0  0  0  0  0  0  0  0
    4.3240   -9.3886   13.9501 C   0  0  0  0  0  0  0  0  0  0  0  0
    3.2614   -8.8233   13.3318 F   0  0  0  0  0  0  0  0  0  0  0  0
    3.8294  -10.3448   14.7769 F   0  0  0  0  0  0  0  0  0  0  0  0
    4.9085   -8.4532   14.7265 F   0  0  0  0  0  0  0  0  0  0  0  0
    4.8280   -7.1326    7.6233 C   0  0  0  0  0  0  0  0  0  0  0  0
    4.1059   -7.0216    4.5874 C   0  0  0  0  0  0  0  0  0  0  0  0
    3.6484   -6.5460    3.3928 N   0  0  0  0  0  0  0  0  0  0  0  0
    3.8838   -5.2551    3.4299 C   0  0  0  0  0  0  0  0  0  0  0  0
    3.5980   -4.2467    2.4707 C   0  0  0  0  0  0  0  0  0  0  0  0
    0.5625    0.8160   -0.7744 H   0  0  0  0  0  0  0  0  0  0  0  0
    0.5210    0.2926    0.9042 H   0  0  0  0  0  0  0  0  0  0  0  0
    0.5249   -0.9215   -0.3896 H   0  0  0  0  0  0  0  0  0  0  0  0
    2.8409   -0.1802   -1.0603 H   0  0  0  0  0  0  0  0  0  0  0  0
    2.6366    1.4527    1.2528 H   0  0  0  0  0  0  0  0  0  0  0  0
    4.7150   -1.5161    4.1718 H   0  0  0  0  0  0  0  0  0  0  0  0
    5.1533   -3.2601    5.8842 H   0  0  0  0  0  0  0  0  0  0  0  0
    6.7843   -4.6304    6.3858 H   0  0  0  0  0  0  0  0  0  0  0  0
    7.7893   -4.8491    8.6011 H   0  0  0  0  0  0  0  0  0  0  0  0
    7.0341   -6.5569   10.1526 H   0  0  0  0  0  0  0  0  0  0  0  0
    4.3386   -8.9980    9.3356 H   0  0  0  0  0  0  0  0  0  0  0  0
    4.3183  -10.2806   11.0768 H   0  0  0  0  0  0  0  0  0  0  0  0
    6.3214   -9.6755   13.1854 H   0  0  0  0  0  0  0  0  0  0  0  0
    5.3049  -11.1096   13.0663 H   0  0  0  0  0  0  0  0  0  0  0  0
    3.9927   -7.7783    7.3494 H   0  0  0  0  0  0  0  0  0  0  0  0
    4.0505   -8.0797    4.8103 H   0  0  0  0  0  0  0  0  0  0  0  0
    3.0888   -4.5434    1.5604 H   0  0  0  0  0  0  0  0  0  0  0  0
  1  2  1  0  0  0  0
  1 30  1  0  0  0  0
  1 31  1  0  0  0  0
  1 32  1  0  0  0  0
  2  3  1  0  0  0  0
  2  4  1  0  0  0  0
  2 33  1  0  0  0  0
  3 34  1  0  0  0  0
  4  5  3  0  0  0  0
  5  6  1  0  0  0  0
  6  7  1  0  0  0  0
  6 29  2  0  0  0  0
  7  8  2  0  0  0  0
  7 35  1  0  0  0  0
  8  9  1  0  0  0  0
  8 36  1  0  0  0  0
  9 10  1  0  0  0  0
  9 28  1  0  0  0  0
 10 11  1  0  0  0  0
 10 26  2  0  0  0  0
 11 12  1  0  0  0  0
 11 25  2  0  0  0  0
 12 13  2  0  0  0  0
 12 37  1  0  0  0  0
 13 14  1  0  0  0  0
 13 38  1  0  0  0  0
 14 15  2  0  0  0  0
 14 39  1  0  0  0  0
 15 16  1  0  0  0  0
 15 25  1  0  0  0  0
 16 17  1  0  0  0  0
 16 40  1  0  0  0  0
 17 18  2  0  0  0  0
 17 19  1  0  0  0  0
 19 20  1  0  0  0  0
 19 41  1  0  0  0  0
 20 21  1  0  0  0  0
 20 42  1  0  0  0  0
 20 43  1  0  0  0  0
 21 22  1  0  0  0  0
 21 23  1  0  0  0  0
 21 24  1  0  0  0  0
 25 44  1  0  0  0  0
 26 27  1  0  0  0  0
 26 45  1  0  0  0  0
 27 28  2  0  0  0  0
 28 29  1  0  0  0  0
 29 46  1  0  0  0  0
M  END
$$$$
