CHEMBL1985888
 OpenBabel04072215363D

 48 51  0  0  0  0  0  0  0  0999 V2000
    2.3546   -4.7825   -1.4149 C   0  0  0  0  0  0  0  0  0  0  0  0
    3.6148   -4.1109   -1.2151 N   0  0  0  0  0  0  0  0  0  0  0  0
    4.7235   -4.5912   -1.7979 N   0  0  0  0  0  0  0  0  0  0  0  0
    5.6779   -3.7584   -1.3891 C   0  0  0  0  0  0  0  0  0  0  0  0
    6.9496   -3.9695   -1.7610 N   0  0  0  0  0  0  0  0  0  0  0  0
    5.1832   -2.6959   -0.5572 C   0  0  0  0  0  0  0  0  0  0  0  0
    5.6474   -1.5304    0.1206 C   0  0  0  0  0  0  0  0  0  0  0  0
    7.0465   -1.0572    0.0307 C   0  0  0  0  0  0  0  0  0  0  0  0
    7.7407   -1.1438   -1.1723 C   0  0  0  0  0  0  0  0  0  0  0  0
    9.0967   -0.8403   -1.2632 C   0  0  0  0  0  0  0  0  0  0  0  0
    9.7952   -0.3098   -0.1822 C   0  0  0  0  0  0  0  0  0  0  0  0
   11.1716    0.0193   -0.2465 N   0  0  0  0  0  0  0  0  0  0  0  0
   11.9676   -0.0968   -1.3743 C   0  0  0  0  0  0  0  0  0  0  0  0
   11.5773   -0.4536   -2.4824 O   0  0  0  0  0  0  0  0  0  0  0  0
   13.2990    0.2006   -1.1201 N   0  0  0  0  0  0  0  0  0  0  0  0
   14.2339    0.1939   -2.1858 C   0  0  0  0  0  0  0  0  0  0  0  0
   13.9287    0.7724   -3.4247 C   0  0  0  0  0  0  0  0  0  0  0  0
   14.8270    0.6963   -4.4872 C   0  0  0  0  0  0  0  0  0  0  0  0
   16.0348    0.0229   -4.3247 C   0  0  0  0  0  0  0  0  0  0  0  0
   16.3569   -0.5667   -3.0921 C   0  0  0  0  0  0  0  0  0  0  0  0
   17.6169   -1.3789   -2.9316 C   0  0  0  0  0  0  0  0  0  0  0  0
   18.4118   -1.3836   -4.0368 F   0  0  0  0  0  0  0  0  0  0  0  0
   18.3972   -0.9308   -1.9098 F   0  0  0  0  0  0  0  0  0  0  0  0
   17.3553   -2.6865   -2.6540 F   0  0  0  0  0  0  0  0  0  0  0  0
   15.4621   -0.4445   -2.0120 C   0  0  0  0  0  0  0  0  0  0  0  0
    9.0922   -0.1046    1.0075 C   0  0  0  0  0  0  0  0  0  0  0  0
    7.7394   -0.4918    1.1161 C   0  0  0  0  0  0  0  0  0  0  0  0
    4.6788   -0.8217    0.8611 C   0  0  0  0  0  0  0  0  0  0  0  0
    3.3610   -1.2582    0.8945 C   0  0  0  0  0  0  0  0  0  0  0  0
    2.8813   -2.3380    0.2497 N   0  0  0  0  0  0  0  0  0  0  0  0
    3.8276   -2.9981   -0.4532 C   0  0  0  0  0  0  0  0  0  0  0  0
    2.4995   -5.6373   -2.0815 H   0  0  0  0  0  0  0  0  0  0  0  0
    1.6526   -4.0774   -1.8653 H   0  0  0  0  0  0  0  0  0  0  0  0
    1.9923   -5.1277   -0.4441 H   0  0  0  0  0  0  0  0  0  0  0  0
    7.1350   -4.8357   -2.2548 H   0  0  0  0  0  0  0  0  0  0  0  0
    7.7192   -3.6600   -1.1801 H   0  0  0  0  0  0  0  0  0  0  0  0
    7.2488   -1.4892   -2.0803 H   0  0  0  0  0  0  0  0  0  0  0  0
    9.5610   -1.0423   -2.2202 H   0  0  0  0  0  0  0  0  0  0  0  0
   11.5761    0.4763    0.5566 H   0  0  0  0  0  0  0  0  0  0  0  0
   13.6348   -0.1083   -0.2195 H   0  0  0  0  0  0  0  0  0  0  0  0
   12.9751    1.2725   -3.5829 H   0  0  0  0  0  0  0  0  0  0  0  0
   14.5680    1.1383   -5.4462 H   0  0  0  0  0  0  0  0  0  0  0  0
   16.7142   -0.0568   -5.1716 H   0  0  0  0  0  0  0  0  0  0  0  0
   15.7031   -0.9239   -1.0657 H   0  0  0  0  0  0  0  0  0  0  0  0
    9.5775    0.3362    1.8749 H   0  0  0  0  0  0  0  0  0  0  0  0
    7.2408   -0.3494    2.0731 H   0  0  0  0  0  0  0  0  0  0  0  0
    4.9404    0.0872    1.3953 H   0  0  0  0  0  0  0  0  0  0  0  0
    2.6164   -0.7035    1.4642 H   0  0  0  0  0  0  0  0  0  0  0  0
  1  2  1  0  0  0  0
  1 32  1  0  0  0  0
  1 33  1  0  0  0  0
  1 34  1  0  0  0  0
  2  3  1  0  0  0  0
  2 31  1  0  0  0  0
  3  4  2  0  0  0  0
  4  5  1  0  0  0  0
  4  6  1  0  0  0  0
  5 35  1  0  0  0  0
  5 36  1  0  0  0  0
  6  7  1  0  0  0  0
  6 31  2  0  0  0  0
  7  8  1  0  0  0  0
  7 28  2  0  0  0  0
  8  9  1  0  0  0  0
  8 27  2  0  0  0  0
  9 10  2  0  0  0  0
  9 37  1  0  0  0  0
 10 11  1  0  0  0  0
 10 38  1  0  0  0  0
 11 12  1  0  0  0  0
 11 26  2  0  0  0  0
 12 13  1  0  0  0  0
 12 39  1  0  0  0  0
 13 14  2  0  0  0  0
 13 15  1  0  0  0  0
 15 16  1  0  0  0  0
 15 40  1  0  0  0  0
 16 17  1  0  0  0  0
 16 25  2  0  0  0  0
 17 18  2  0  0  0  0
 17 41  1  0  0  0  0
 18 19  1  0  0  0  0
 18 42  1  0  0  0  0
 19 20  2  0  0  0  0
 19 43  1  0  0  0  0
 20 21  1  0  0  0  0
 20 25  1  0  0  0  0
 21 22  1  0  0  0  0
 21 23  1  0  0  0  0
 21 24  1  0  0  0  0
 25 44  1  0  0  0  0
 26 27  1  0  0  0  0
 26 45  1  0  0  0  0
 27 46  1  0  0  0  0
 28 29  1  0  0  0  0
 28 47  1  0  0  0  0
 29 30  2  0  0  0  0
 29 48  1  0  0  0  0
 30 31  1  0  0  0  0
M  END
$$$$
