CHEMBL3979972
 OpenBabel04072215373D

 61 65  0  0  0  0  0  0  0  0999 V2000
    1.3896   -0.4588   -0.0776 C   0  0  0  0  0  0  0  0  0  0  0  0
    2.1439    0.7373    0.1621 O   0  0  0  0  0  0  0  0  0  0  0  0
    2.9271    0.7097    1.2877 C   0  0  0  0  0  0  0  0  0  0  0  0
    2.5662    0.0766    2.4686 C   0  0  0  0  0  0  0  0  0  0  0  0
    3.4264    0.1206    3.5629 C   0  0  0  0  0  0  0  0  0  0  0  0
    3.1748   -0.4478    4.7848 O   0  0  0  0  0  0  0  0  0  0  0  0
    1.9640   -1.1787    4.8847 C   0  0  0  0  0  0  0  0  0  0  0  0
    4.6796    0.7395    3.4795 C   0  0  0  0  0  0  0  0  0  0  0  0
    5.1249    1.2964    2.2882 C   0  0  0  0  0  0  0  0  0  0  0  0
    6.4889    1.6922    2.1525 N   0  0  0  0  0  0  0  0  0  0  0  0
    6.9304    1.8340    0.7224 C   0  0  0  0  0  0  0  0  0  0  0  0
    7.1784    0.5065    0.1391 C   0  0  0  0  0  0  0  0  0  0  0  0
    7.3502   -0.5923   -0.3029 C   0  0  0  0  0  0  0  0  0  0  0  0
    7.5439   -1.9189   -0.7976 C   0  0  0  0  0  0  0  0  0  0  0  0
    8.7852   -2.5279   -0.5991 C   0  0  0  0  0  0  0  0  0  0  0  0
    8.9725   -3.8038   -1.0883 C   0  0  0  0  0  0  0  0  0  0  0  0
    8.0324   -4.5133   -1.7498 N   0  0  0  0  0  0  0  0  0  0  0  0
    6.8138   -3.8921   -1.9078 C   0  0  0  0  0  0  0  0  0  0  0  0
    6.5397   -2.6150   -1.4584 C   0  0  0  0  0  0  0  0  0  0  0  0
    5.2250   -2.0743   -1.6853 C   0  0  0  0  0  0  0  0  0  0  0  0
    4.1596   -1.6698   -1.8719 N   0  0  0  0  0  0  0  0  0  0  0  0
    7.5178    2.0581    3.0949 C   0  0  0  0  0  0  0  0  0  0  0  0
    8.0151    3.3257    2.8653 C   0  0  0  0  0  0  0  0  0  0  0  0
    9.2849    3.6146    3.2275 C   0  0  0  0  0  0  0  0  0  0  0  0
   10.0439    2.7657    3.9550 C   0  0  0  0  0  0  0  0  0  0  0  0
   11.2910    3.1028    3.7380 N   0  0  0  0  0  0  0  0  0  0  0  0
   12.1817    2.8539    4.6863 C   0  0  0  0  0  0  0  0  0  0  0  0
   11.8770    2.2991    5.9107 C   0  0  0  0  0  0  0  0  0  0  0  0
   12.9076    2.8379    6.9288 C   0  0  0  0  0  0  0  0  0  0  0  0
   13.6533    4.0639    6.6604 C   0  0  0  0  0  0  0  0  0  0  0  0
   14.6708    4.3151    7.4640 N   0  0  0  0  0  0  0  0  0  0  0  0
   14.5984    3.3371    8.3645 N   0  0  0  0  0  0  0  0  0  0  0  0
   15.5629    3.4359    9.4451 C   0  0  0  0  0  0  0  0  0  0  0  0
   13.5778    2.4104    8.0812 C   0  0  0  0  0  0  0  0  0  0  0  0
   10.6255    1.6327    5.9732 N   0  0  0  0  0  0  0  0  0  0  0  0
    9.5897    1.7874    4.8259 C   0  0  0  0  0  0  0  0  0  0  0  0
    8.2246    1.3318    4.1574 C   0  0  0  0  0  0  0  0  0  0  0  0
    4.1629    1.3705    1.2339 C   0  0  0  0  0  0  0  0  0  0  0  0
    1.0438   -0.4531   -1.1172 H   0  0  0  0  0  0  0  0  0  0  0  0
    0.5000   -0.4959    0.5607 H   0  0  0  0  0  0  0  0  0  0  0  0
    1.9981   -1.3594    0.0646 H   0  0  0  0  0  0  0  0  0  0  0  0
    1.6091   -0.4243    2.5177 H   0  0  0  0  0  0  0  0  0  0  0  0
    1.9285   -1.6208    5.8821 H   0  0  0  0  0  0  0  0  0  0  0  0
    1.9330   -1.9945    4.1538 H   0  0  0  0  0  0  0  0  0  0  0  0
    1.1012   -0.5136    4.7736 H   0  0  0  0  0  0  0  0  0  0  0  0
    5.3268    0.7360    4.3446 H   0  0  0  0  0  0  0  0  0  0  0  0
    7.8451    2.4261    0.5995 H   0  0  0  0  0  0  0  0  0  0  0  0
    6.2140    2.3969    0.1094 H   0  0  0  0  0  0  0  0  0  0  0  0
    9.5956   -2.0195   -0.0781 H   0  0  0  0  0  0  0  0  0  0  0  0
    9.9194   -4.3387   -0.9746 H   0  0  0  0  0  0  0  0  0  0  0  0
    6.0753   -4.4894   -2.4257 H   0  0  0  0  0  0  0  0  0  0  0  0
    7.5091    4.0349    2.2150 H   0  0  0  0  0  0  0  0  0  0  0  0
    9.7546    4.5250    2.8822 H   0  0  0  0  0  0  0  0  0  0  0  0
   13.1060    3.3495    4.4553 H   0  0  0  0  0  0  0  0  0  0  0  0
   13.5356    4.7696    5.8477 H   0  0  0  0  0  0  0  0  0  0  0  0
   16.2660    4.2594    9.2281 H   0  0  0  0  0  0  0  0  0  0  0  0
   16.1418    2.5166    9.5287 H   0  0  0  0  0  0  0  0  0  0  0  0
   15.0382    3.6888   10.3676 H   0  0  0  0  0  0  0  0  0  0  0  0
   13.4882    1.5474    8.7238 H   0  0  0  0  0  0  0  0  0  0  0  0
    7.8022    0.3705    4.4801 H   0  0  0  0  0  0  0  0  0  0  0  0
    4.3348    1.9271    0.3147 H   0  0  0  0  0  0  0  0  0  0  0  0
  1  2  1  0  0  0  0
  1 39  1  0  0  0  0
  1 40  1  0  0  0  0
  1 41  1  0  0  0  0
  2  3  1  0  0  0  0
  3  4  1  0  0  0  0
  3 38  2  0  0  0  0
  4  5  2  0  0  0  0
  4 42  1  0  0  0  0
  5  6  1  0  0  0  0
  5  8  1  0  0  0  0
  6  7  1  0  0  0  0
  7 43  1  0  0  0  0
  7 44  1  0  0  0  0
  7 45  1  0  0  0  0
  8  9  2  0  0  0  0
  8 46  1  0  0  0  0
  9 10  1  0  0  0  0
  9 38  1  0  0  0  0
 10 11  1  0  0  0  0
 10 22  1  0  0  0  0
 11 12  1  0  0  0  0
 11 47  1  0  0  0  0
 11 48  1  0  0  0  0
 12 13  3  0  0  0  0
 13 14  1  0  0  0  0
 14 15  1  0  0  0  0
 14 19  2  0  0  0  0
 15 16  2  0  0  0  0
 15 49  1  0  0  0  0
 16 17  1  0  0  0  0
 16 50  1  0  0  0  0
 17 18  2  0  0  0  0
 18 19  1  0  0  0  0
 18 51  1  0  0  0  0
 19 20  1  0  0  0  0
 20 21  3  0  0  0  0
 22 23  1  0  0  0  0
 22 37  2  0  0  0  0
 23 24  2  0  0  0  0
 23 52  1  0  0  0  0
 24 25  1  0  0  0  0
 24 53  1  0  0  0  0
 25 26  1  0  0  0  0
 25 36  2  0  0  0  0
 26 27  2  0  0  0  0
 27 28  1  0  0  0  0
 27 54  1  0  0  0  0
 28 29  1  0  0  0  0
 28 35  2  0  0  0  0
 29 30  1  0  0  0  0
 29 34  2  0  0  0  0
 30 31  2  0  0  0  0
 30 55  1  0  0  0  0
 31 32  1  0  0  0  0
 32 33  1  0  0  0  0
 32 34  1  0  0  0  0
 33 56  1  0  0  0  0
 33 57  1  0  0  0  0
 33 58  1  0  0  0  0
 34 59  1  0  0  0  0
 35 36  1  0  0  0  0
 36 37  1  0  0  0  0
 37 60  1  0  0  0  0
 38 61  1  0  0  0  0
M  END
$$$$
