CHEMBL200586
 OpenBabel04072215363D

 21 22  0  0  0  0  0  0  0  0999 V2000
    1.1572    0.1829   -0.8435 C   0  0  0  0  0  0  0  0  0  0  0  0
    2.5862    0.2300   -0.8028 O   0  0  0  0  0  0  0  0  0  0  0  0
    3.0729    1.3010   -0.1080 C   0  0  0  0  0  0  0  0  0  0  0  0
    2.3614    2.1478    0.4209 O   0  0  0  0  0  0  0  0  0  0  0  0
    4.5247    1.2780   -0.0979 C   0  0  0  0  0  0  0  0  0  0  0  0
    5.4290    0.4004   -0.7146 C   0  0  0  0  0  0  0  0  0  0  0  0
    6.7271    0.8097   -0.4183 C   0  0  0  0  0  0  0  0  0  0  0  0
    8.0263    0.4124   -0.7191 C   0  0  0  0  0  0  0  0  0  0  0  0
    8.5279   -0.6955   -1.5608 C   0  0  0  0  0  0  0  0  0  0  0  0
    8.9033    1.2444   -0.1079 N   0  0  0  0  0  0  0  0  0  0  0  0
    8.1181    2.1428    0.5514 N   0  0  0  0  0  0  0  0  0  0  0  0
    6.8083    1.8871    0.3633 C   0  0  0  0  0  0  0  0  0  0  0  0
    5.3559    2.5311    0.8151 S   0  0  0  0  0  0  0  0  0  0  0  0
    0.8573   -0.7677   -1.2921 H   0  0  0  0  0  0  0  0  0  0  0  0
    0.7711    0.9985   -1.4636 H   0  0  0  0  0  0  0  0  0  0  0  0
    0.7328    0.2327    0.1654 H   0  0  0  0  0  0  0  0  0  0  0  0
    5.1354   -0.4456   -1.3228 H   0  0  0  0  0  0  0  0  0  0  0  0
    7.7091   -1.2763   -1.9950 H   0  0  0  0  0  0  0  0  0  0  0  0
    9.1515   -1.3746   -0.9698 H   0  0  0  0  0  0  0  0  0  0  0  0
    9.1363   -0.3022   -2.3824 H   0  0  0  0  0  0  0  0  0  0  0  0
    8.5577    2.8820    1.0881 H   0  0  0  0  0  0  0  0  0  0  0  0
  1  2  1  0  0  0  0
  1 14  1  0  0  0  0
  1 15  1  0  0  0  0
  1 16  1  0  0  0  0
  2  3  1  0  0  0  0
  3  4  2  0  0  0  0
  3  5  1  0  0  0  0
  5  6  2  0  0  0  0
  5 13  1  0  0  0  0
  6  7  1  0  0  0  0
  6 17  1  0  0  0  0
  7  8  1  0  0  0  0
  7 12  2  0  0  0  0
  8  9  1  0  0  0  0
  8 10  2  0  0  0  0
  9 18  1  0  0  0  0
  9 19  1  0  0  0  0
  9 20  1  0  0  0  0
 10 11  1  0  0  0  0
 11 12  1  0  0  0  0
 11 21  1  0  0  0  0
 12 13  1  0  0  0  0
M  END
$$$$
