CHEMBL606410
 OpenBabel04072215383D

 44 47  0  0  0  0  0  0  0  0999 V2000
    9.4155   -9.4417    1.2064 C   0  0  0  0  0  0  0  0  0  0  0  0
    8.7765   -8.1087    1.5521 C   0  0  0  0  0  0  0  0  0  0  0  0
    9.5958   -7.0857    0.9954 O   0  0  0  0  0  0  0  0  0  0  0  0
    9.2842   -5.7950    1.3020 C   0  0  0  0  0  0  0  0  0  0  0  0
    8.1528   -5.3529    1.9795 C   0  0  0  0  0  0  0  0  0  0  0  0
    8.0119   -3.9919    2.2838 C   0  0  0  0  0  0  0  0  0  0  0  0
    8.9950   -3.0566    1.9247 C   0  0  0  0  0  0  0  0  0  0  0  0
    8.8960   -1.7522    2.4102 N   0  0  0  0  0  0  0  0  0  0  0  0
    9.7102   -0.6240    2.3124 C   0  0  0  0  0  0  0  0  0  0  0  0
    9.2034    0.4620    2.9163 N   0  0  0  0  0  0  0  0  0  0  0  0
    9.7320    1.6474    2.5861 C   0  0  0  0  0  0  0  0  0  0  0  0
   10.7246    1.7724    1.6489 C   0  0  0  0  0  0  0  0  0  0  0  0
   11.3226    0.6095    1.2326 C   0  0  0  0  0  0  0  0  0  0  0  0
   10.8329   -0.5999    1.5747 N   0  0  0  0  0  0  0  0  0  0  0  0
   12.3648    0.6518    0.2028 C   0  0  0  0  0  0  0  0  0  0  0  0
   13.7047    0.3238    0.4751 C   0  0  0  0  0  0  0  0  0  0  0  0
   14.6814    0.4095   -0.5266 C   0  0  0  0  0  0  0  0  0  0  0  0
   14.3172    0.7201   -1.8363 C   0  0  0  0  0  0  0  0  0  0  0  0
   12.9957    1.0423   -2.1323 C   0  0  0  0  0  0  0  0  0  0  0  0
   12.0603    1.1197   -1.0953 C   0  0  0  0  0  0  0  0  0  0  0  0
   10.8622    1.8066   -1.3738 N   0  0  0  0  0  0  0  0  0  0  0  0
   10.2768    2.7409   -0.5429 C   0  0  0  0  0  0  0  0  0  0  0  0
    9.2871    3.3649   -0.9271 O   0  0  0  0  0  0  0  0  0  0  0  0
   10.9084    3.0055    0.8298 C   0  0  0  0  0  0  0  0  0  0  0  0
   10.0788   -3.5125    1.1741 C   0  0  0  0  0  0  0  0  0  0  0  0
   10.2257   -4.8657    0.8719 C   0  0  0  0  0  0  0  0  0  0  0  0
    8.7924  -10.2740    1.5435 H   0  0  0  0  0  0  0  0  0  0  0  0
   10.4006   -9.5262    1.6776 H   0  0  0  0  0  0  0  0  0  0  0  0
    9.5729   -9.5261    0.1270 H   0  0  0  0  0  0  0  0  0  0  0  0
    8.7136   -8.0119    2.6439 H   0  0  0  0  0  0  0  0  0  0  0  0
    7.7748   -8.0615    1.1130 H   0  0  0  0  0  0  0  0  0  0  0  0
    7.3730   -6.0360    2.2981 H   0  0  0  0  0  0  0  0  0  0  0  0
    7.1297   -3.6750    2.8346 H   0  0  0  0  0  0  0  0  0  0  0  0
    8.0321   -1.4911    2.8639 H   0  0  0  0  0  0  0  0  0  0  0  0
    9.2448    2.5108    3.0262 H   0  0  0  0  0  0  0  0  0  0  0  0
   14.0062    0.0508    1.4849 H   0  0  0  0  0  0  0  0  0  0  0  0
   15.7282    0.2337   -0.2864 H   0  0  0  0  0  0  0  0  0  0  0  0
   15.0709    0.7616   -2.6188 H   0  0  0  0  0  0  0  0  0  0  0  0
   12.7324    1.3356   -3.1448 H   0  0  0  0  0  0  0  0  0  0  0  0
   10.5233    1.8379   -2.3275 H   0  0  0  0  0  0  0  0  0  0  0  0
   10.4124    3.8632    1.2916 H   0  0  0  0  0  0  0  0  0  0  0  0
   11.9650    3.2758    0.7140 H   0  0  0  0  0  0  0  0  0  0  0  0
   10.8491   -2.8325    0.8288 H   0  0  0  0  0  0  0  0  0  0  0  0
   11.0994   -5.1951    0.3164 H   0  0  0  0  0  0  0  0  0  0  0  0
  1  2  1  0  0  0  0
  1 27  1  0  0  0  0
  1 28  1  0  0  0  0
  1 29  1  0  0  0  0
  2  3  1  0  0  0  0
  2 30  1  0  0  0  0
  2 31  1  0  0  0  0
  3  4  1  0  0  0  0
  4  5  1  0  0  0  0
  4 26  2  0  0  0  0
  5  6  2  0  0  0  0
  5 32  1  0  0  0  0
  6  7  1  0  0  0  0
  6 33  1  0  0  0  0
  7  8  1  0  0  0  0
  7 25  2  0  0  0  0
  8  9  1  0  0  0  0
  8 34  1  0  0  0  0
  9 10  1  0  0  0  0
  9 14  2  0  0  0  0
 10 11  2  0  0  0  0
 11 12  1  0  0  0  0
 11 35  1  0  0  0  0
 12 13  2  0  0  0  0
 12 24  1  0  0  0  0
 13 14  1  0  0  0  0
 13 15  1  0  0  0  0
 15 16  1  0  0  0  0
 15 20  2  0  0  0  0
 16 17  2  0  0  0  0
 16 36  1  0  0  0  0
 17 18  1  0  0  0  0
 17 37  1  0  0  0  0
 18 19  2  0  0  0  0
 18 38  1  0  0  0  0
 19 20  1  0  0  0  0
 19 39  1  0  0  0  0
 20 21  1  0  0  0  0
 21 22  1  0  0  0  0
 21 40  1  0  0  0  0
 22 23  2  0  0  0  0
 22 24  1  0  0  0  0
 24 41  1  0  0  0  0
 24 42  1  0  0  0  0
 25 26  1  0  0  0  0
 25 43  1  0  0  0  0
 26 44  1  0  0  0  0
M  END
$$$$
