CHEMBL195845
 OpenBabel04072215363D

 58 60  0  0  0  0  0  0  0  0999 V2000
    6.1778   -0.8437   -0.2870 C   0  0  0  0  0  0  0  0  0  0  0  0
    5.2243    0.1854   -0.8689 C   0  0  0  0  0  0  0  0  0  0  0  0
    5.1963    1.3057    0.0237 O   0  0  0  0  0  0  0  0  0  0  0  0
    4.3347    1.1869    1.0787 C   0  0  0  0  0  0  0  0  0  0  0  0
    3.3741    0.4231    1.0927 O   0  0  0  0  0  0  0  0  0  0  0  0
    4.7607    1.9868    2.2296 C   0  0  0  0  0  0  0  0  0  0  0  0
    5.8790    2.7922    2.2012 C   0  0  0  0  0  0  0  0  0  0  0  0
    6.0521    3.3564    3.4171 N   0  0  0  0  0  0  0  0  0  0  0  0
    7.0500    4.2030    3.6860 N   0  0  0  0  0  0  0  0  0  0  0  0
    7.0979    4.5837    4.9170 C   0  0  0  0  0  0  0  0  0  0  0  0
    6.2495    4.1958    5.9116 N   0  0  0  0  0  0  0  0  0  0  0  0
    5.2660    3.3731    5.6629 C   0  0  0  0  0  0  0  0  0  0  0  0
    4.4382    3.0087    6.7106 N   0  0  0  0  0  0  0  0  0  0  0  0
    4.8400    3.0334    8.0729 C   0  0  0  0  0  0  0  0  0  0  0  0
    6.1033    2.5952    8.4995 C   0  0  0  0  0  0  0  0  0  0  0  0
    6.4573    2.6221    9.8578 C   0  0  0  0  0  0  0  0  0  0  0  0
    7.8441    2.2286   10.2486 C   0  0  0  0  0  0  0  0  0  0  0  0
    8.6419    1.8884    9.3819 O   0  0  0  0  0  0  0  0  0  0  0  0
    8.1423    2.3262   11.5830 N   0  0  0  0  0  0  0  0  0  0  0  0
    9.4264    1.9296   12.0134 O   0  0  0  0  0  0  0  0  0  0  0  0
   10.3024    3.0696   11.9924 C   0  0  0  0  0  0  0  0  0  0  0  0
    9.8114    4.1658   12.9385 C   0  0  0  0  0  0  0  0  0  0  0  0
   11.6829    2.5880   12.4221 C   0  0  0  0  0  0  0  0  0  0  0  0
    5.5178    3.0761   10.7923 C   0  0  0  0  0  0  0  0  0  0  0  0
    5.8107    3.1366   12.1010 F   0  0  0  0  0  0  0  0  0  0  0  0
    4.2534    3.4928   10.3952 C   0  0  0  0  0  0  0  0  0  0  0  0
    3.9253    3.4608    9.0476 C   0  0  0  0  0  0  0  0  0  0  0  0
    2.7124    3.8852    8.6640 F   0  0  0  0  0  0  0  0  0  0  0  0
    5.0930    2.9095    4.2954 C   0  0  0  0  0  0  0  0  0  0  0  0
    4.2223    2.0607    3.5873 C   0  0  0  0  0  0  0  0  0  0  0  0
    3.0022    1.2276    3.9966 C   0  0  0  0  0  0  0  0  0  0  0  0
    3.3855   -0.1888    4.4381 C   0  0  0  0  0  0  0  0  0  0  0  0
    2.0352    1.8202    5.0095 C   0  0  0  0  0  0  0  0  0  0  0  0
    6.2625   -1.7160   -0.9330 H   0  0  0  0  0  0  0  0  0  0  0  0
    5.8406   -1.1654    0.7050 H   0  0  0  0  0  0  0  0  0  0  0  0
    7.1737   -0.4028   -0.1461 H   0  0  0  0  0  0  0  0  0  0  0  0
    4.2295   -0.2356   -1.0348 H   0  0  0  0  0  0  0  0  0  0  0  0
    5.5998    0.5384   -1.8353 H   0  0  0  0  0  0  0  0  0  0  0  0
    6.5917    2.9875    1.4118 H   0  0  0  0  0  0  0  0  0  0  0  0
    7.8869    5.2992    5.2021 H   0  0  0  0  0  0  0  0  0  0  0  0
    3.5152    3.4230    6.6134 H   0  0  0  0  0  0  0  0  0  0  0  0
    6.8304    2.2448    7.7649 H   0  0  0  0  0  0  0  0  0  0  0  0
    7.4336    2.3763   12.3057 H   0  0  0  0  0  0  0  0  0  0  0  0
   10.3682    3.4566   10.9682 H   0  0  0  0  0  0  0  0  0  0  0  0
    9.6867    3.7764   13.9545 H   0  0  0  0  0  0  0  0  0  0  0  0
    8.8345    4.5511   12.6269 H   0  0  0  0  0  0  0  0  0  0  0  0
   10.5086    5.0085   12.9626 H   0  0  0  0  0  0  0  0  0  0  0  0
   11.6506    2.1589   13.4300 H   0  0  0  0  0  0  0  0  0  0  0  0
   12.4088    3.4070   12.4143 H   0  0  0  0  0  0  0  0  0  0  0  0
   12.0404    1.7976   11.7540 H   0  0  0  0  0  0  0  0  0  0  0  0
    3.5387    3.8553   11.1278 H   0  0  0  0  0  0  0  0  0  0  0  0
    2.3838    1.1220    3.0948 H   0  0  0  0  0  0  0  0  0  0  0  0
    4.0739   -0.1644    5.2873 H   0  0  0  0  0  0  0  0  0  0  0  0
    3.8614   -0.7504    3.6276 H   0  0  0  0  0  0  0  0  0  0  0  0
    2.4945   -0.7535    4.7421 H   0  0  0  0  0  0  0  0  0  0  0  0
    2.4507    1.8173    6.0142 H   0  0  0  0  0  0  0  0  0  0  0  0
    1.1328    1.1965    5.0683 H   0  0  0  0  0  0  0  0  0  0  0  0
    1.7205    2.8294    4.7344 H   0  0  0  0  0  0  0  0  0  0  0  0
  1  2  1  0  0  0  0
  1 34  1  0  0  0  0
  1 35  1  0  0  0  0
  1 36  1  0  0  0  0
  2  3  1  0  0  0  0
  2 37  1  0  0  0  0
  2 38  1  0  0  0  0
  3  4  1  0  0  0  0
  4  5  2  0  0  0  0
  4  6  1  0  0  0  0
  6  7  2  0  0  0  0
  6 30  1  0  0  0  0
  7  8  1  0  0  0  0
  7 39  1  0  0  0  0
  8  9  1  0  0  0  0
  8 29  1  0  0  0  0
  9 10  2  0  0  0  0
 10 11  1  0  0  0  0
 10 40  1  0  0  0  0
 11 12  2  0  0  0  0
 12 13  1  0  0  0  0
 12 29  1  0  0  0  0
 13 14  1  0  0  0  0
 13 41  1  0  0  0  0
 14 15  1  0  0  0  0
 14 27  2  0  0  0  0
 15 16  2  0  0  0  0
 15 42  1  0  0  0  0
 16 17  1  0  0  0  0
 16 24  1  0  0  0  0
 17 18  2  0  0  0  0
 17 19  1  0  0  0  0
 19 20  1  0  0  0  0
 19 43  1  0  0  0  0
 20 21  1  0  0  0  0
 21 22  1  0  0  0  0
 21 23  1  0  0  0  0
 21 44  1  0  0  0  0
 22 45  1  0  0  0  0
 22 46  1  0  0  0  0
 22 47  1  0  0  0  0
 23 48  1  0  0  0  0
 23 49  1  0  0  0  0
 23 50  1  0  0  0  0
 24 25  1  0  0  0  0
 24 26  2  0  0  0  0
 26 27  1  0  0  0  0
 26 51  1  0  0  0  0
 27 28  1  0  0  0  0
 29 30  2  0  0  0  0
 30 31  1  0  0  0  0
 31 32  1  0  0  0  0
 31 33  1  0  0  0  0
 31 52  1  0  0  0  0
 32 53  1  0  0  0  0
 32 54  1  0  0  0  0
 32 55  1  0  0  0  0
 33 56  1  0  0  0  0
 33 57  1  0  0  0  0
 33 58  1  0  0  0  0
M  END
$$$$
