CHEMBL392934
 OpenBabel04072215373D

 41 43  0  0  0  0  0  0  0  0999 V2000
    2.3142    0.7414   -0.9831 O   0  0  0  0  0  0  0  0  0  0  0  0
    2.2187    0.0043   -0.0081 C   0  0  0  0  0  0  0  0  0  0  0  0
    1.3998   -1.1153    0.0559 N   0  0  0  0  0  0  0  0  0  0  0  0
    0.4204   -1.5225   -0.8785 C   0  0  0  0  0  0  0  0  0  0  0  0
    0.1189   -0.8121   -2.0405 C   0  0  0  0  0  0  0  0  0  0  0  0
   -0.9299   -1.2137   -2.8752 C   0  0  0  0  0  0  0  0  0  0  0  0
   -1.7041   -2.3375   -2.5659 C   0  0  0  0  0  0  0  0  0  0  0  0
   -2.8883   -2.7191   -3.4212 C   0  0  0  0  0  0  0  0  0  0  0  0
   -3.1228   -1.8513   -4.4454 F   0  0  0  0  0  0  0  0  0  0  0  0
   -2.7507   -3.9455   -3.9943 F   0  0  0  0  0  0  0  0  0  0  0  0
   -4.0474   -2.7679   -2.7061 F   0  0  0  0  0  0  0  0  0  0  0  0
   -1.3703   -3.0834   -1.4271 C   0  0  0  0  0  0  0  0  0  0  0  0
   -0.3184   -2.6789   -0.5922 C   0  0  0  0  0  0  0  0  0  0  0  0
    2.9852    0.2523    1.1998 C   0  0  0  0  0  0  0  0  0  0  0  0
    2.7782   -0.1985    2.4975 C   0  0  0  0  0  0  0  0  0  0  0  0
    3.7847    0.3924    3.2721 C   0  0  0  0  0  0  0  0  0  0  0  0
    4.5823    1.1679    2.5467 N   0  0  0  0  0  0  0  0  0  0  0  0
    4.0862    1.0900    1.2916 N   0  0  0  0  0  0  0  0  0  0  0  0
    4.7202    1.8806    0.2345 C   0  0  0  0  0  0  0  0  0  0  0  0
    6.2019    2.1822    0.5153 C   0  0  0  0  0  0  0  0  0  0  0  0
    6.9585    3.0264   -0.4861 C   0  0  0  0  0  0  0  0  0  0  0  0
    8.0250    3.8119   -0.0243 C   0  0  0  0  0  0  0  0  0  0  0  0
    8.7864    4.5300   -0.9338 C   0  0  0  0  0  0  0  0  0  0  0  0
    8.5676    4.5176   -2.2626 N   0  0  0  0  0  0  0  0  0  0  0  0
    7.5436    3.7492   -2.6940 C   0  0  0  0  0  0  0  0  0  0  0  0
    6.7247    2.9952   -1.8626 C   0  0  0  0  0  0  0  0  0  0  0  0
    1.4949   -1.7000    0.8744 H   0  0  0  0  0  0  0  0  0  0  0  0
    0.6647    0.0808   -2.3258 H   0  0  0  0  0  0  0  0  0  0  0  0
   -1.1485   -0.6202   -3.7623 H   0  0  0  0  0  0  0  0  0  0  0  0
   -1.9444   -3.9746   -1.1731 H   0  0  0  0  0  0  0  0  0  0  0  0
   -0.1052   -3.2738    0.2931 H   0  0  0  0  0  0  0  0  0  0  0  0
    1.9848   -0.8359    2.8568 H   0  0  0  0  0  0  0  0  0  0  0  0
    3.9655    0.3022    4.3359 H   0  0  0  0  0  0  0  0  0  0  0  0
    4.1391    2.8064    0.1528 H   0  0  0  0  0  0  0  0  0  0  0  0
    4.6305    1.3166   -0.6973 H   0  0  0  0  0  0  0  0  0  0  0  0
    6.7460    1.2346    0.6191 H   0  0  0  0  0  0  0  0  0  0  0  0
    6.2707    2.6934    1.4845 H   0  0  0  0  0  0  0  0  0  0  0  0
    8.2722    3.8586    1.0325 H   0  0  0  0  0  0  0  0  0  0  0  0
    9.6215    5.1415   -0.6038 H   0  0  0  0  0  0  0  0  0  0  0  0
    7.4008    3.7462   -3.7723 H   0  0  0  0  0  0  0  0  0  0  0  0
    5.9394    2.3917   -2.3034 H   0  0  0  0  0  0  0  0  0  0  0  0
  1  2  2  0  0  0  0
  2  3  1  0  0  0  0
  2 14  1  0  0  0  0
  3  4  1  0  0  0  0
  3 27  1  0  0  0  0
  4  5  1  0  0  0  0
  4 13  2  0  0  0  0
  5  6  2  0  0  0  0
  5 28  1  0  0  0  0
  6  7  1  0  0  0  0
  6 29  1  0  0  0  0
  7  8  1  0  0  0  0
  7 12  2  0  0  0  0
  8  9  1  0  0  0  0
  8 10  1  0  0  0  0
  8 11  1  0  0  0  0
 12 13  1  0  0  0  0
 12 30  1  0  0  0  0
 13 31  1  0  0  0  0
 14 15  2  0  0  0  0
 14 18  1  0  0  0  0
 15 16  1  0  0  0  0
 15 32  1  0  0  0  0
 16 17  2  0  0  0  0
 16 33  1  0  0  0  0
 17 18  1  0  0  0  0
 18 19  1  0  0  0  0
 19 20  1  0  0  0  0
 19 34  1  0  0  0  0
 19 35  1  0  0  0  0
 20 21  1  0  0  0  0
 20 36  1  0  0  0  0
 20 37  1  0  0  0  0
 21 22  1  0  0  0  0
 21 26  2  0  0  0  0
 22 23  2  0  0  0  0
 22 38  1  0  0  0  0
 23 24  1  0  0  0  0
 23 39  1  0  0  0  0
 24 25  2  0  0  0  0
 25 26  1  0  0  0  0
 25 40  1  0  0  0  0
 26 41  1  0  0  0  0
M  END
$$$$
