CHEMBL200499
 OpenBabel04072215363D

 39 42  0  0  0  0  0  0  0  0999 V2000
    2.6362   -1.1406   -0.4308 O   0  0  0  0  0  0  0  0  0  0  0  0
    2.2871   -0.0337   -0.0264 C   0  0  0  0  0  0  0  0  0  0  0  0
    1.2065    0.1234    0.8294 N   0  0  0  0  0  0  0  0  0  0  0  0
    0.4043   -1.0151    1.2213 C   0  0  0  0  0  0  0  0  0  0  0  0
   -0.2318   -0.8690    2.5813 C   0  0  0  0  0  0  0  0  0  0  0  0
   -1.6264   -0.9231    2.7343 C   0  0  0  0  0  0  0  0  0  0  0  0
   -2.2090   -0.8924    4.0047 C   0  0  0  0  0  0  0  0  0  0  0  0
   -1.4061   -0.8146    5.1402 C   0  0  0  0  0  0  0  0  0  0  0  0
   -0.0193   -0.7626    5.0032 C   0  0  0  0  0  0  0  0  0  0  0  0
    0.5632   -0.7904    3.7355 C   0  0  0  0  0  0  0  0  0  0  0  0
    2.9698    1.1971   -0.4290 C   0  0  0  0  0  0  0  0  0  0  0  0
    4.0913    1.3116   -1.2951 C   0  0  0  0  0  0  0  0  0  0  0  0
    4.4711    2.6674   -1.5084 C   0  0  0  0  0  0  0  0  0  0  0  0
    5.3113    3.5423   -2.1344 C   0  0  0  0  0  0  0  0  0  0  0  0
    6.4117    3.4157   -3.0798 C   0  0  0  0  0  0  0  0  0  0  0  0
    6.4486    2.3580   -3.9941 C   0  0  0  0  0  0  0  0  0  0  0  0
    7.4784    2.2672   -4.9348 C   0  0  0  0  0  0  0  0  0  0  0  0
    8.4845    3.2305   -4.9665 C   0  0  0  0  0  0  0  0  0  0  0  0
    8.4728    4.2767   -4.0489 C   0  0  0  0  0  0  0  0  0  0  0  0
    7.4431    4.3697   -3.1111 C   0  0  0  0  0  0  0  0  0  0  0  0
    4.8372    4.7903   -1.6895 N   0  0  0  0  0  0  0  0  0  0  0  0
    3.7928    4.7192   -0.8144 N   0  0  0  0  0  0  0  0  0  0  0  0
    3.6067    3.4380   -0.7482 C   0  0  0  0  0  0  0  0  0  0  0  0
    2.3616    2.7438    0.2209 S   0  0  0  0  0  0  0  0  0  0  0  0
    0.8502    1.0561    0.9880 H   0  0  0  0  0  0  0  0  0  0  0  0
    1.0305   -1.9112    1.2262 H   0  0  0  0  0  0  0  0  0  0  0  0
   -0.3584   -1.1482    0.4478 H   0  0  0  0  0  0  0  0  0  0  0  0
   -2.2729   -1.0198    1.8652 H   0  0  0  0  0  0  0  0  0  0  0  0
   -3.2900   -0.9487    4.1094 H   0  0  0  0  0  0  0  0  0  0  0  0
   -1.8579   -0.8015    6.1274 H   0  0  0  0  0  0  0  0  0  0  0  0
    0.6081   -0.7210    5.8894 H   0  0  0  0  0  0  0  0  0  0  0  0
    1.6468   -0.7741    3.6494 H   0  0  0  0  0  0  0  0  0  0  0  0
    4.5830    0.4511   -1.7445 H   0  0  0  0  0  0  0  0  0  0  0  0
    5.6666    1.6030   -3.9999 H   0  0  0  0  0  0  0  0  0  0  0  0
    7.4903    1.4456   -5.6463 H   0  0  0  0  0  0  0  0  0  0  0  0
    9.2801    3.1626   -5.7042 H   0  0  0  0  0  0  0  0  0  0  0  0
    9.2649    5.0214   -4.0612 H   0  0  0  0  0  0  0  0  0  0  0  0
    7.4706    5.1897   -2.3980 H   0  0  0  0  0  0  0  0  0  0  0  0
    5.1734    5.7083   -1.9606 H   0  0  0  0  0  0  0  0  0  0  0  0
  1  2  2  0  0  0  0
  2  3  1  0  0  0  0
  2 11  1  0  0  0  0
  3  4  1  0  0  0  0
  3 25  1  0  0  0  0
  4  5  1  0  0  0  0
  4 26  1  0  0  0  0
  4 27  1  0  0  0  0
  5  6  1  0  0  0  0
  5 10  2  0  0  0  0
  6  7  2  0  0  0  0
  6 28  1  0  0  0  0
  7  8  1  0  0  0  0
  7 29  1  0  0  0  0
  8  9  2  0  0  0  0
  8 30  1  0  0  0  0
  9 10  1  0  0  0  0
  9 31  1  0  0  0  0
 10 32  1  0  0  0  0
 11 12  2  0  0  0  0
 11 24  1  0  0  0  0
 12 13  1  0  0  0  0
 12 33  1  0  0  0  0
 13 14  2  0  0  0  0
 13 23  1  0  0  0  0
 14 15  1  0  0  0  0
 14 21  1  0  0  0  0
 15 16  1  0  0  0  0
 15 20  2  0  0  0  0
 16 17  2  0  0  0  0
 16 34  1  0  0  0  0
 17 18  1  0  0  0  0
 17 35  1  0  0  0  0
 18 19  2  0  0  0  0
 18 36  1  0  0  0  0
 19 20  1  0  0  0  0
 19 37  1  0  0  0  0
 20 38  1  0  0  0  0
 21 22  1  0  0  0  0
 21 39  1  0  0  0  0
 22 23  2  0  0  0  0
 23 24  1  0  0  0  0
M  END
$$$$
