CHEMBL3758380
 OpenBabel04072215373D

 56 58  0  0  0  0  0  0  0  0999 V2000
    3.6281   -1.2516   -0.2197 C   0  0  0  0  0  0  0  0  0  0  0  0
    2.7084   -0.2004    0.0825 O   0  0  0  0  0  0  0  0  0  0  0  0
    3.2317    1.0640    0.1170 C   0  0  0  0  0  0  0  0  0  0  0  0
    4.2781    1.4336   -0.7358 C   0  0  0  0  0  0  0  0  0  0  0  0
    4.8942    2.6679   -0.6530 C   0  0  0  0  0  0  0  0  0  0  0  0
    5.9523    2.8883   -1.4393 N   0  0  0  0  0  0  0  0  0  0  0  0
    6.5562    4.0670   -1.2999 C   0  0  0  0  0  0  0  0  0  0  0  0
    6.1987    5.0350   -0.4573 N   0  0  0  0  0  0  0  0  0  0  0  0
    5.1257    4.8044    0.3265 C   0  0  0  0  0  0  0  0  0  0  0  0
    4.7470    5.7980    1.2719 N   0  0  0  0  0  0  0  0  0  0  0  0
    5.2594    7.1135    1.2666 C   0  0  0  0  0  0  0  0  0  0  0  0
    5.2882    7.8579    0.0761 C   0  0  0  0  0  0  0  0  0  0  0  0
    5.8652    9.1272    0.0398 C   0  0  0  0  0  0  0  0  0  0  0  0
    6.4006    9.6600    1.2041 C   0  0  0  0  0  0  0  0  0  0  0  0
    6.9833   10.8647    1.1684 F   0  0  0  0  0  0  0  0  0  0  0  0
    6.3512    8.9580    2.4042 C   0  0  0  0  0  0  0  0  0  0  0  0
    5.7701    7.6866    2.4393 C   0  0  0  0  0  0  0  0  0  0  0  0
    4.4043    3.6041    0.2611 C   0  0  0  0  0  0  0  0  0  0  0  0
    3.2576    3.2944    1.0316 C   0  0  0  0  0  0  0  0  0  0  0  0
    2.6889    2.0217    0.9878 C   0  0  0  0  0  0  0  0  0  0  0  0
    1.6190    1.8611    1.8365 O   0  0  0  0  0  0  0  0  0  0  0  0
    1.5941    0.6030    2.5019 C   0  0  0  0  0  0  0  0  0  0  0  0
    0.6126    0.6193    3.6739 C   0  0  0  0  0  0  0  0  0  0  0  0
    0.6198   -0.7696    4.3108 C   0  0  0  0  0  0  0  0  0  0  0  0
   -0.3744   -0.9374    5.4532 C   0  0  0  0  0  0  0  0  0  0  0  0
   -0.2938   -2.3673    5.9976 C   0  0  0  0  0  0  0  0  0  0  0  0
   -1.2759   -2.5874    7.1410 C   0  0  0  0  0  0  0  0  0  0  0  0
   -1.2301   -4.0092    7.6675 C   0  0  0  0  0  0  0  0  0  0  0  0
   -0.5027   -4.8947    7.2339 O   0  0  0  0  0  0  0  0  0  0  0  0
   -2.1141   -4.2260    8.6989 N   0  0  0  0  0  0  0  0  0  0  0  0
   -2.0477   -5.4994    9.3042 O   0  0  0  0  0  0  0  0  0  0  0  0
    3.4099   -2.0940    0.4427 H   0  0  0  0  0  0  0  0  0  0  0  0
    4.6798   -0.9871   -0.0569 H   0  0  0  0  0  0  0  0  0  0  0  0
    3.4768   -1.5734   -1.2541 H   0  0  0  0  0  0  0  0  0  0  0  0
    4.6521    0.7393   -1.4855 H   0  0  0  0  0  0  0  0  0  0  0  0
    7.4276    4.2524   -1.9207 H   0  0  0  0  0  0  0  0  0  0  0  0
    4.7406    5.3893    2.1997 H   0  0  0  0  0  0  0  0  0  0  0  0
    4.8805    7.4336   -0.8360 H   0  0  0  0  0  0  0  0  0  0  0  0
    5.9087    9.6839   -0.8869 H   0  0  0  0  0  0  0  0  0  0  0  0
    6.7756    9.3971    3.2993 H   0  0  0  0  0  0  0  0  0  0  0  0
    5.7550    7.1404    3.3756 H   0  0  0  0  0  0  0  0  0  0  0  0
    2.8197    4.0398    1.6910 H   0  0  0  0  0  0  0  0  0  0  0  0
    2.5953    0.3584    2.8803 H   0  0  0  0  0  0  0  0  0  0  0  0
    1.2495   -0.1716    1.8108 H   0  0  0  0  0  0  0  0  0  0  0  0
   -0.3910    0.8831    3.3169 H   0  0  0  0  0  0  0  0  0  0  0  0
    0.8942    1.3908    4.4009 H   0  0  0  0  0  0  0  0  0  0  0  0
    1.6310   -0.9872    4.6778 H   0  0  0  0  0  0  0  0  0  0  0  0
    0.3965   -1.5161    3.5375 H   0  0  0  0  0  0  0  0  0  0  0  0
   -1.3903   -0.7334    5.0955 H   0  0  0  0  0  0  0  0  0  0  0  0
   -0.1543   -0.2190    6.2506 H   0  0  0  0  0  0  0  0  0  0  0  0
    0.7271   -2.5750    6.3428 H   0  0  0  0  0  0  0  0  0  0  0  0
   -0.5006   -3.0814    5.1905 H   0  0  0  0  0  0  0  0  0  0  0  0
   -2.2971   -2.3842    6.7997 H   0  0  0  0  0  0  0  0  0  0  0  0
   -1.0442   -1.9064    7.9663 H   0  0  0  0  0  0  0  0  0  0  0  0
   -2.4859   -3.4728    9.2712 H   0  0  0  0  0  0  0  0  0  0  0  0
   -1.3752   -5.9598    8.7551 H   0  0  0  0  0  0  0  0  0  0  0  0
  1  2  1  0  0  0  0
  1 32  1  0  0  0  0
  1 33  1  0  0  0  0
  1 34  1  0  0  0  0
  2  3  1  0  0  0  0
  3  4  1  0  0  0  0
  3 20  2  0  0  0  0
  4  5  2  0  0  0  0
  4 35  1  0  0  0  0
  5  6  1  0  0  0  0
  5 18  1  0  0  0  0
  6  7  2  0  0  0  0
  7  8  1  0  0  0  0
  7 36  1  0  0  0  0
  8  9  2  0  0  0  0
  9 10  1  0  0  0  0
  9 18  1  0  0  0  0
 10 11  1  0  0  0  0
 10 37  1  0  0  0  0
 11 12  1  0  0  0  0
 11 17  2  0  0  0  0
 12 13  2  0  0  0  0
 12 38  1  0  0  0  0
 13 14  1  0  0  0  0
 13 39  1  0  0  0  0
 14 15  1  0  0  0  0
 14 16  2  0  0  0  0
 16 17  1  0  0  0  0
 16 40  1  0  0  0  0
 17 41  1  0  0  0  0
 18 19  2  0  0  0  0
 19 20  1  0  0  0  0
 19 42  1  0  0  0  0
 20 21  1  0  0  0  0
 21 22  1  0  0  0  0
 22 23  1  0  0  0  0
 22 43  1  0  0  0  0
 22 44  1  0  0  0  0
 23 24  1  0  0  0  0
 23 45  1  0  0  0  0
 23 46  1  0  0  0  0
 24 25  1  0  0  0  0
 24 47  1  0  0  0  0
 24 48  1  0  0  0  0
 25 26  1  0  0  0  0
 25 49  1  0  0  0  0
 25 50  1  0  0  0  0
 26 27  1  0  0  0  0
 26 51  1  0  0  0  0
 26 52  1  0  0  0  0
 27 28  1  0  0  0  0
 27 53  1  0  0  0  0
 27 54  1  0  0  0  0
 28 29  2  0  0  0  0
 28 30  1  0  0  0  0
 30 31  1  0  0  0  0
 30 55  1  0  0  0  0
 31 56  1  0  0  0  0
M  END
$$$$
