CHEMBL3656068
 OpenBabel04072215373D

 82 85  0  0  1  0  0  0  0  0999 V2000
   -0.1858  -11.5204    0.9751 C   0  0  0  0  0  0  0  0  0  0  0  0
   -0.7821  -10.1505    1.1350 C   0  0  0  0  0  0  0  0  0  0  0  0
   -0.1754   -9.2271    1.9946 C   0  0  0  0  0  0  0  0  0  0  0  0
   -0.7082   -7.9585    2.1531 C   0  0  0  0  0  0  0  0  0  0  0  0
   -1.8642   -7.5989    1.4580 C   0  0  0  0  0  0  0  0  0  0  0  0
   -2.4909   -8.4922    0.5843 C   0  0  0  0  0  0  0  0  0  0  0  0
   -3.6707   -8.1638   -0.1326 N   0  0  0  0  0  0  0  0  0  0  0  0
   -4.2414   -6.9031   -0.2069 C   0  0  0  0  0  0  0  0  0  0  0  0
   -3.7456   -5.8728    0.2363 O   0  0  0  0  0  0  0  0  0  0  0  0
   -5.4896   -6.9305   -0.8109 N   0  0  0  0  0  0  0  0  0  0  0  0
   -6.2533   -5.7398   -0.9270 C   0  0  0  0  0  0  0  0  0  0  0  0
   -5.6927   -4.5281   -1.3447 C   0  0  0  0  0  0  0  0  0  0  0  0
   -6.4816   -3.3742   -1.4162 C   0  0  0  0  0  0  0  0  0  0  0  0
   -7.8313   -3.4220   -1.0595 C   0  0  0  0  0  0  0  0  0  0  0  0
   -8.5301   -2.2393   -1.1555 O   0  0  0  0  0  0  0  0  0  0  0  0
   -9.8624   -2.2588   -1.5098 C   0  0  0  0  0  0  0  0  0  0  0  0
  -10.4341   -3.2053   -2.3559 C   0  0  0  0  0  0  0  0  0  0  0  0
  -11.7920   -3.1254   -2.5967 C   0  0  0  0  0  0  0  0  0  0  0  0
  -12.5824   -2.1451   -2.1132 N   0  0  0  0  0  0  0  0  0  0  0  0
  -11.9899   -1.1889   -1.3547 C   0  0  0  0  0  0  0  0  0  0  0  0
  -12.8926   -0.1109   -0.9598 C   0  0  0  0  0  0  0  0  0  0  0  0
  -12.7034    1.0713   -0.2605 C   0  0  0  0  0  0  0  0  0  0  0  0
  -13.9391    1.7944   -0.2324 C   0  0  0  0  0  0  0  0  0  0  0  0
  -14.2538    3.1061    0.3290 C   0  0  0  0  0  0  0  0  0  0  0  0
  -15.4013    3.4712    0.5633 O   0  0  0  0  0  0  0  0  0  0  0  0
  -13.1641    3.9160    0.5386 N   0  0  0  0  0  0  0  0  0  0  0  0
  -13.2765    5.2849    1.0506 C   0  0  1  0  0  0  0  0  0  0  0  0
  -13.6949    5.2844    2.5232 C   0  0  0  0  0  0  0  0  0  0  0  0
  -13.8769    6.6738    3.1325 C   0  0  0  0  0  0  0  0  0  0  0  0
  -14.3266    6.5009    4.5587 C   0  0  0  0  0  0  0  0  0  0  0  0
  -13.5619    6.2928    5.4900 O   0  0  0  0  0  0  0  0  0  0  0  0
  -15.6828    6.4772    4.6324 O   0  0  0  0  0  0  0  0  0  0  0  0
  -16.2235    5.8439    5.8077 C   0  0  0  0  0  0  0  0  0  0  0  0
  -16.1634    6.7389    7.0414 C   0  0  0  0  0  0  0  0  0  0  0  0
  -16.9290    7.9234    6.8364 O   0  0  0  0  0  0  0  0  0  0  0  0
  -11.9018    5.9371    0.8710 C   0  0  0  0  0  0  0  0  0  0  0  0
  -10.8439    5.3185    0.8472 O   0  0  0  0  0  0  0  0  0  0  0  0
  -12.0171    7.2886    0.7512 O   0  0  0  0  0  0  0  0  0  0  0  0
  -10.7731    8.0171    0.6982 C   0  0  0  0  0  0  0  0  0  0  0  0
  -10.1748    7.9740   -0.7045 C   0  0  0  0  0  0  0  0  0  0  0  0
  -11.0632    8.5827   -1.6393 O   0  0  0  0  0  0  0  0  0  0  0  0
  -14.8604    0.9861   -0.8737 C   0  0  0  0  0  0  0  0  0  0  0  0
  -14.2233   -0.1380   -1.3163 N   0  0  0  0  0  0  0  0  0  0  0  0
  -10.6433   -1.2127   -1.0230 C   0  0  0  0  0  0  0  0  0  0  0  0
   -8.3790   -4.6179   -0.5880 C   0  0  0  0  0  0  0  0  0  0  0  0
   -7.6023   -5.7722   -0.5746 C   0  0  0  0  0  0  0  0  0  0  0  0
   -8.1529   -6.9228   -0.1582 F   0  0  0  0  0  0  0  0  0  0  0  0
   -1.9441   -9.7771    0.4350 C   0  0  0  0  0  0  0  0  0  0  0  0
    0.6994  -11.6452    1.6102 H   0  0  0  0  0  0  0  0  0  0  0  0
    0.1250  -11.6808   -0.0614 H   0  0  0  0  0  0  0  0  0  0  0  0
   -0.9100  -12.2873    1.2656 H   0  0  0  0  0  0  0  0  0  0  0  0
    0.7275   -9.4901    2.5406 H   0  0  0  0  0  0  0  0  0  0  0  0
   -0.2393   -7.2410    2.8138 H   0  0  0  0  0  0  0  0  0  0  0  0
   -2.2471   -6.6008    1.6340 H   0  0  0  0  0  0  0  0  0  0  0  0
   -4.0485   -8.8667   -0.7461 H   0  0  0  0  0  0  0  0  0  0  0  0
   -6.0292   -7.7655   -0.6197 H   0  0  0  0  0  0  0  0  0  0  0  0
   -4.6407   -4.4661   -1.6171 H   0  0  0  0  0  0  0  0  0  0  0  0
   -6.0325   -2.4364   -1.7386 H   0  0  0  0  0  0  0  0  0  0  0  0
   -9.8550   -3.9993   -2.8120 H   0  0  0  0  0  0  0  0  0  0  0  0
  -12.2936   -3.8703   -3.2080 H   0  0  0  0  0  0  0  0  0  0  0  0
  -11.7662    1.3890    0.1773 H   0  0  0  0  0  0  0  0  0  0  0  0
  -12.2516    3.6065    0.2228 H   0  0  0  0  0  0  0  0  0  0  0  0
  -14.0103    5.8067    0.4252 H   0  0  0  0  0  0  0  0  0  0  0  0
  -12.9599    4.7223    3.1151 H   0  0  0  0  0  0  0  0  0  0  0  0
  -14.6390    4.7357    2.6354 H   0  0  0  0  0  0  0  0  0  0  0  0
  -14.6084    7.2702    2.5762 H   0  0  0  0  0  0  0  0  0  0  0  0
  -12.9413    7.2418    3.1506 H   0  0  0  0  0  0  0  0  0  0  0  0
  -15.7093    4.8914    5.9820 H   0  0  0  0  0  0  0  0  0  0  0  0
  -17.2678    5.6157    5.5695 H   0  0  0  0  0  0  0  0  0  0  0  0
  -15.1425    7.0392    7.2901 H   0  0  0  0  0  0  0  0  0  0  0  0
  -16.5850    6.2107    7.9020 H   0  0  0  0  0  0  0  0  0  0  0  0
  -16.5491    8.3679    6.0582 H   0  0  0  0  0  0  0  0  0  0  0  0
  -10.0716    7.6323    1.4475 H   0  0  0  0  0  0  0  0  0  0  0  0
  -11.0140    9.0506    0.9692 H   0  0  0  0  0  0  0  0  0  0  0  0
   -9.9906    6.9495   -1.0393 H   0  0  0  0  0  0  0  0  0  0  0  0
   -9.2302    8.5248   -0.7301 H   0  0  0  0  0  0  0  0  0  0  0  0
  -11.9003    8.0872   -1.6010 H   0  0  0  0  0  0  0  0  0  0  0  0
  -15.9144    1.1385   -1.0687 H   0  0  0  0  0  0  0  0  0  0  0  0
  -14.6352   -0.8961   -1.8478 H   0  0  0  0  0  0  0  0  0  0  0  0
  -10.1977   -0.4387   -0.4098 H   0  0  0  0  0  0  0  0  0  0  0  0
   -9.4021   -4.6731   -0.2338 H   0  0  0  0  0  0  0  0  0  0  0  0
   -2.4115  -10.5005   -0.2299 H   0  0  0  0  0  0  0  0  0  0  0  0
  1  2  1  0  0  0  0
  1 49  1  0  0  0  0
  1 50  1  0  0  0  0
  1 51  1  0  0  0  0
  2  3  1  0  0  0  0
  2 48  2  0  0  0  0
  3  4  2  0  0  0  0
  3 52  1  0  0  0  0
  4  5  1  0  0  0  0
  4 53  1  0  0  0  0
  5  6  2  0  0  0  0
  5 54  1  0  0  0  0
  6  7  1  0  0  0  0
  6 48  1  0  0  0  0
  7  8  1  0  0  0  0
  7 55  1  0  0  0  0
  8  9  2  0  0  0  0
  8 10  1  0  0  0  0
 10 11  1  0  0  0  0
 10 56  1  0  0  0  0
 11 12  1  0  0  0  0
 11 46  2  0  0  0  0
 12 13  2  0  0  0  0
 12 57  1  0  0  0  0
 13 14  1  0  0  0  0
 13 58  1  0  0  0  0
 14 15  1  0  0  0  0
 14 45  2  0  0  0  0
 15 16  1  0  0  0  0
 16 17  1  0  0  0  0
 16 44  2  0  0  0  0
 17 18  2  0  0  0  0
 17 59  1  0  0  0  0
 18 19  1  0  0  0  0
 18 60  1  0  0  0  0
 19 20  2  0  0  0  0
 20 21  1  0  0  0  0
 20 44  1  0  0  0  0
 21 22  2  0  0  0  0
 21 43  1  0  0  0  0
 22 23  1  0  0  0  0
 22 61  1  0  0  0  0
 23 24  1  0  0  0  0
 23 42  2  0  0  0  0
 24 25  2  0  0  0  0
 24 26  1  0  0  0  0
 26 27  1  0  0  0  0
 26 62  1  0  0  0  0
 27 28  1  0  0  0  0
 27 36  1  0  0  0  0
 27 63  1  6  0  0  0
 28 29  1  0  0  0  0
 28 64  1  0  0  0  0
 28 65  1  0  0  0  0
 29 30  1  0  0  0  0
 29 66  1  0  0  0  0
 29 67  1  0  0  0  0
 30 31  2  0  0  0  0
 30 32  1  0  0  0  0
 32 33  1  0  0  0  0
 33 34  1  0  0  0  0
 33 68  1  0  0  0  0
 33 69  1  0  0  0  0
 34 35  1  0  0  0  0
 34 70  1  0  0  0  0
 34 71  1  0  0  0  0
 35 72  1  0  0  0  0
 36 37  2  0  0  0  0
 36 38  1  0  0  0  0
 38 39  1  0  0  0  0
 39 40  1  0  0  0  0
 39 73  1  0  0  0  0
 39 74  1  0  0  0  0
 40 41  1  0  0  0  0
 40 75  1  0  0  0  0
 40 76  1  0  0  0  0
 41 77  1  0  0  0  0
 42 43  1  0  0  0  0
 42 78  1  0  0  0  0
 43 79  1  0  0  0  0
 44 80  1  0  0  0  0
 45 46  1  0  0  0  0
 45 81  1  0  0  0  0
 46 47  1  0  0  0  0
 48 82  1  0  0  0  0
M  END
$$$$
