CHEMBL3951823
 OpenBabel04072215373D

 53 56  0  0  0  0  0  0  0  0999 V2000
   -2.9450   -0.0217    2.5061 N   0  0  0  0  0  0  0  0  0  0  0  0
   -1.8227   -0.0782    2.2226 C   0  0  0  0  0  0  0  0  0  0  0  0
   -0.4341   -0.1453    1.8739 C   0  0  0  0  0  0  0  0  0  0  0  0
    0.1170   -1.3573    1.4519 C   0  0  0  0  0  0  0  0  0  0  0  0
    1.4664   -1.4706    1.0930 C   0  0  0  0  0  0  0  0  0  0  0  0
    2.0482   -2.6992    0.6662 N   0  0  0  0  0  0  0  0  0  0  0  0
    1.3438   -3.8716    0.4410 C   0  0  0  0  0  0  0  0  0  0  0  0
    0.1196   -3.9712    0.5127 O   0  0  0  0  0  0  0  0  0  0  0  0
    2.1573   -4.9625    0.1528 N   0  0  0  0  0  0  0  0  0  0  0  0
    1.5389   -6.2207   -0.0979 C   0  0  0  0  0  0  0  0  0  0  0  0
    0.4369   -6.3127   -0.9566 C   0  0  0  0  0  0  0  0  0  0  0  0
   -0.2770   -7.5066   -1.0827 C   0  0  0  0  0  0  0  0  0  0  0  0
    0.1454   -8.6524   -0.4074 C   0  0  0  0  0  0  0  0  0  0  0  0
   -0.5113   -9.8700   -0.4798 O   0  0  0  0  0  0  0  0  0  0  0  0
   -1.0678  -10.2783   -1.6775 C   0  0  0  0  0  0  0  0  0  0  0  0
   -0.5502   -9.9128   -2.9170 C   0  0  0  0  0  0  0  0  0  0  0  0
   -1.2182  -10.3355   -4.0412 C   0  0  0  0  0  0  0  0  0  0  0  0
   -2.2967  -11.1361   -4.0044 N   0  0  0  0  0  0  0  0  0  0  0  0
   -2.7587  -11.5623   -2.8176 C   0  0  0  0  0  0  0  0  0  0  0  0
   -3.8611  -12.4435   -2.7923 N   0  0  0  0  0  0  0  0  0  0  0  0
   -4.5049  -12.8988   -3.9355 C   0  0  0  0  0  0  0  0  0  0  0  0
   -4.2283  -12.6226   -5.0939 O   0  0  0  0  0  0  0  0  0  0  0  0
   -5.6603  -13.8286   -3.7508 C   0  0  0  0  0  0  0  0  0  0  0  0
   -6.6333  -13.7514   -2.6051 C   0  0  0  0  0  0  0  0  0  0  0  0
   -5.6984  -14.9213   -2.7124 C   0  0  0  0  0  0  0  0  0  0  0  0
   -2.1687  -11.1481   -1.6230 C   0  0  0  0  0  0  0  0  0  0  0  0
    1.2539   -8.5677    0.4439 C   0  0  0  0  0  0  0  0  0  0  0  0
    1.9648   -7.3617    0.5836 C   0  0  0  0  0  0  0  0  0  0  0  0
    2.2700   -0.3243    1.1743 C   0  0  0  0  0  0  0  0  0  0  0  0
    1.7304    0.9101    1.6044 C   0  0  0  0  0  0  0  0  0  0  0  0
    2.5630    2.1661    1.7089 C   0  0  0  0  0  0  0  0  0  0  0  0
    3.8685    1.9896    1.3670 F   0  0  0  0  0  0  0  0  0  0  0  0
    2.0932    3.1625    0.9099 F   0  0  0  0  0  0  0  0  0  0  0  0
    2.5687    2.6727    2.9724 F   0  0  0  0  0  0  0  0  0  0  0  0
    0.3696    0.9869    1.9476 C   0  0  0  0  0  0  0  0  0  0  0  0
   -0.5586   -2.2061    1.4203 H   0  0  0  0  0  0  0  0  0  0  0  0
    3.0159   -2.6895    0.3811 H   0  0  0  0  0  0  0  0  0  0  0  0
    3.0340   -4.9848    0.6543 H   0  0  0  0  0  0  0  0  0  0  0  0
    0.0938   -5.4404   -1.5093 H   0  0  0  0  0  0  0  0  0  0  0  0
   -1.1654   -7.5138   -1.7077 H   0  0  0  0  0  0  0  0  0  0  0  0
    0.3294   -9.2903   -3.0219 H   0  0  0  0  0  0  0  0  0  0  0  0
   -0.9015  -10.0366   -5.0353 H   0  0  0  0  0  0  0  0  0  0  0  0
   -4.1883  -12.7637   -1.8947 H   0  0  0  0  0  0  0  0  0  0  0  0
   -6.1043  -14.0899   -4.7123 H   0  0  0  0  0  0  0  0  0  0  0  0
   -7.6809  -13.9088   -2.8429 H   0  0  0  0  0  0  0  0  0  0  0  0
   -6.4725  -13.0257   -1.8155 H   0  0  0  0  0  0  0  0  0  0  0  0
   -6.1093  -15.8750   -3.0266 H   0  0  0  0  0  0  0  0  0  0  0  0
   -4.8822  -15.0072   -2.0042 H   0  0  0  0  0  0  0  0  0  0  0  0
   -2.5439  -11.4811   -0.6618 H   0  0  0  0  0  0  0  0  0  0  0  0
    1.5541   -9.4359    1.0255 H   0  0  0  0  0  0  0  0  0  0  0  0
    2.7926   -7.3154    1.2854 H   0  0  0  0  0  0  0  0  0  0  0  0
    3.3252   -0.3740    0.9077 H   0  0  0  0  0  0  0  0  0  0  0  0
   -0.0539    1.9327    2.2805 H   0  0  0  0  0  0  0  0  0  0  0  0
  1  2  3  0  0  0  0
  2  3  1  0  0  0  0
  3  4  1  0  0  0  0
  3 35  2  0  0  0  0
  4  5  2  0  0  0  0
  4 36  1  0  0  0  0
  5  6  1  0  0  0  0
  5 29  1  0  0  0  0
  6  7  1  0  0  0  0
  6 37  1  0  0  0  0
  7  8  2  0  0  0  0
  7  9  1  0  0  0  0
  9 10  1  0  0  0  0
  9 38  1  0  0  0  0
 10 11  1  0  0  0  0
 10 28  2  0  0  0  0
 11 12  2  0  0  0  0
 11 39  1  0  0  0  0
 12 13  1  0  0  0  0
 12 40  1  0  0  0  0
 13 14  1  0  0  0  0
 13 27  2  0  0  0  0
 14 15  1  0  0  0  0
 15 16  1  0  0  0  0
 15 26  2  0  0  0  0
 16 17  2  0  0  0  0
 16 41  1  0  0  0  0
 17 18  1  0  0  0  0
 17 42  1  0  0  0  0
 18 19  2  0  0  0  0
 19 20  1  0  0  0  0
 19 26  1  0  0  0  0
 20 21  1  0  0  0  0
 20 43  1  0  0  0  0
 21 22  2  0  0  0  0
 21 23  1  0  0  0  0
 23 24  1  0  0  0  0
 23 25  1  0  0  0  0
 23 44  1  0  0  0  0
 24 25  1  0  0  0  0
 24 45  1  0  0  0  0
 24 46  1  0  0  0  0
 25 47  1  0  0  0  0
 25 48  1  0  0  0  0
 26 49  1  0  0  0  0
 27 28  1  0  0  0  0
 27 50  1  0  0  0  0
 28 51  1  0  0  0  0
 29 30  2  0  0  0  0
 29 52  1  0  0  0  0
 30 31  1  0  0  0  0
 30 35  1  0  0  0  0
 31 32  1  0  0  0  0
 31 33  1  0  0  0  0
 31 34  1  0  0  0  0
 35 53  1  0  0  0  0
M  END
$$$$
