CHEMBL3681278
 OpenBabel04072215373D

 59 64  0  0  0  0  0  0  0  0999 V2000
   13.0891   -3.3870   -9.9869 C   0  0  0  0  0  0  0  0  0  0  0  0
   12.2143   -2.8780   -8.9077 C   0  0  0  0  0  0  0  0  0  0  0  0
   11.2859   -3.5497   -8.2580 N   0  0  0  0  0  0  0  0  0  0  0  0
   10.7293   -2.6534   -7.3828 C   0  0  0  0  0  0  0  0  0  0  0  0
    9.7042   -2.8438   -6.4497 C   0  0  0  0  0  0  0  0  0  0  0  0
    9.3366   -1.7495   -5.6469 C   0  0  0  0  0  0  0  0  0  0  0  0
    8.3657   -1.8818   -4.6301 N   0  0  0  0  0  0  0  0  0  0  0  0
    7.5296   -0.8393   -4.3651 N   0  0  0  0  0  0  0  0  0  0  0  0
    6.7974   -1.2548   -3.3388 C   0  0  0  0  0  0  0  0  0  0  0  0
    7.2272   -2.4917   -2.8291 C   0  0  0  0  0  0  0  0  0  0  0  0
    6.6880   -3.0986   -1.6366 C   0  0  0  0  0  0  0  0  0  0  0  0
    5.5493   -2.8249   -1.2630 O   0  0  0  0  0  0  0  0  0  0  0  0
    7.5091   -4.0486   -0.9296 C   0  0  0  0  0  0  0  0  0  0  0  0
    7.0142   -5.1974   -0.3505 C   0  0  0  0  0  0  0  0  0  0  0  0
    8.1024   -5.9112    0.1550 C   0  0  0  0  0  0  0  0  0  0  0  0
    8.1932   -7.1633    0.7981 C   0  0  0  0  0  0  0  0  0  0  0  0
    8.4464   -6.8145    2.1114 C   0  0  0  0  0  0  0  0  0  0  0  0
    9.5656   -6.0322    2.4307 C   0  0  0  0  0  0  0  0  0  0  0  0
   10.1980   -6.3829    3.7595 C   0  0  0  0  0  0  0  0  0  0  0  0
   10.0867   -5.5439    4.9593 N   0  0  0  0  0  0  0  0  0  0  0  0
   10.0455   -6.4159    6.1699 C   0  0  0  0  0  0  0  0  0  0  0  0
    8.6462   -6.9966    6.4687 C   0  0  0  0  0  0  0  0  0  0  0  0
    7.6909   -5.9481    6.6490 O   0  0  0  0  0  0  0  0  0  0  0  0
    7.6153   -5.1300    5.4741 C   0  0  0  0  0  0  0  0  0  0  0  0
    8.9903   -4.5703    5.0682 C   0  0  0  0  0  0  0  0  0  0  0  0
   10.0251   -5.1279    1.4409 C   0  0  0  0  0  0  0  0  0  0  0  0
    9.1152   -4.9703    0.3587 C   0  0  0  0  0  0  0  0  0  0  0  0
    8.8751   -4.0118   -0.6169 N   0  0  0  0  0  0  0  0  0  0  0  0
    8.1777   -2.9392   -3.7287 C   0  0  0  0  0  0  0  0  0  0  0  0
    8.8874   -4.1004   -3.7380 N   0  0  0  0  0  0  0  0  0  0  0  0
    9.9189   -0.4823   -5.8367 C   0  0  0  0  0  0  0  0  0  0  0  0
   10.9479   -0.2908   -6.7529 C   0  0  0  0  0  0  0  0  0  0  0  0
   11.3300   -1.4058   -7.4981 C   0  0  0  0  0  0  0  0  0  0  0  0
   12.2855   -1.5817   -8.4630 N   0  0  0  0  0  0  0  0  0  0  0  0
   12.8006   -4.4035  -10.2693 H   0  0  0  0  0  0  0  0  0  0  0  0
   14.1325   -3.4045   -9.6579 H   0  0  0  0  0  0  0  0  0  0  0  0
   13.0142   -2.7517  -10.8746 H   0  0  0  0  0  0  0  0  0  0  0  0
    9.2000   -3.8019   -6.4096 H   0  0  0  0  0  0  0  0  0  0  0  0
    6.0009   -0.6225   -2.9632 H   0  0  0  0  0  0  0  0  0  0  0  0
    5.9759   -5.5003   -0.3335 H   0  0  0  0  0  0  0  0  0  0  0  0
    9.0550   -7.7054    0.3639 H   0  0  0  0  0  0  0  0  0  0  0  0
    7.7404   -7.1121    2.8706 H   0  0  0  0  0  0  0  0  0  0  0  0
   11.2593   -6.5802    3.5787 H   0  0  0  0  0  0  0  0  0  0  0  0
    9.7957   -7.3798    4.0016 H   0  0  0  0  0  0  0  0  0  0  0  0
   10.3590   -5.8118    7.0298 H   0  0  0  0  0  0  0  0  0  0  0  0
   10.7746   -7.2320    6.0861 H   0  0  0  0  0  0  0  0  0  0  0  0
    8.6750   -7.5800    7.3953 H   0  0  0  0  0  0  0  0  0  0  0  0
    8.2935   -7.6682    5.6768 H   0  0  0  0  0  0  0  0  0  0  0  0
    6.9436   -4.2983    5.7147 H   0  0  0  0  0  0  0  0  0  0  0  0
    7.1533   -5.7036    4.6668 H   0  0  0  0  0  0  0  0  0  0  0  0
    9.2910   -3.8810    5.8717 H   0  0  0  0  0  0  0  0  0  0  0  0
    8.9092   -3.9468    4.1732 H   0  0  0  0  0  0  0  0  0  0  0  0
   10.8666   -4.4641    1.6035 H   0  0  0  0  0  0  0  0  0  0  0  0
    9.5108   -3.2758   -0.9007 H   0  0  0  0  0  0  0  0  0  0  0  0
    8.5511   -4.9324   -3.2506 H   0  0  0  0  0  0  0  0  0  0  0  0
    9.5906   -4.3235   -4.4358 H   0  0  0  0  0  0  0  0  0  0  0  0
    9.5966    0.3595   -5.2221 H   0  0  0  0  0  0  0  0  0  0  0  0
   11.4242    0.6753   -6.8661 H   0  0  0  0  0  0  0  0  0  0  0  0
   12.9200   -0.8738   -8.8026 H   0  0  0  0  0  0  0  0  0  0  0  0
  1  2  1  0  0  0  0
  1 35  1  0  0  0  0
  1 36  1  0  0  0  0
  1 37  1  0  0  0  0
  2  3  2  0  0  0  0
  2 34  1  0  0  0  0
  3  4  1  0  0  0  0
  4  5  1  0  0  0  0
  4 33  2  0  0  0  0
  5  6  2  0  0  0  0
  5 38  1  0  0  0  0
  6  7  1  0  0  0  0
  6 31  1  0  0  0  0
  7  8  1  0  0  0  0
  7 29  1  0  0  0  0
  8  9  2  0  0  0  0
  9 10  1  0  0  0  0
  9 39  1  0  0  0  0
 10 11  1  0  0  0  0
 10 29  2  0  0  0  0
 11 12  2  0  0  0  0
 11 13  1  0  0  0  0
 13 14  2  0  0  0  0
 13 28  1  0  0  0  0
 14 15  1  0  0  0  0
 14 40  1  0  0  0  0
 15 16  1  0  0  0  0
 15 27  2  0  0  0  0
 16 17  2  0  0  0  0
 16 41  1  0  0  0  0
 17 18  1  0  0  0  0
 17 42  1  0  0  0  0
 18 19  1  0  0  0  0
 18 26  2  0  0  0  0
 19 20  1  0  0  0  0
 19 43  1  0  0  0  0
 19 44  1  0  0  0  0
 20 21  1  0  0  0  0
 20 25  1  0  0  0  0
 21 22  1  0  0  0  0
 21 45  1  0  0  0  0
 21 46  1  0  0  0  0
 22 23  1  0  0  0  0
 22 47  1  0  0  0  0
 22 48  1  0  0  0  0
 23 24  1  0  0  0  0
 24 25  1  0  0  0  0
 24 49  1  0  0  0  0
 24 50  1  0  0  0  0
 25 51  1  0  0  0  0
 25 52  1  0  0  0  0
 26 27  1  0  0  0  0
 26 53  1  0  0  0  0
 27 28  1  0  0  0  0
 28 54  1  0  0  0  0
 29 30  1  0  0  0  0
 30 55  1  0  0  0  0
 30 56  1  0  0  0  0
 31 32  2  0  0  0  0
 31 57  1  0  0  0  0
 32 33  1  0  0  0  0
 32 58  1  0  0  0  0
 33 34  1  0  0  0  0
 34 59  1  0  0  0  0
M  END
$$$$
