CHEMBL401897
 OpenBabel04072215373D

 66 71  0  0  0  0  0  0  0  0999 V2000
    3.7683   -0.4881    0.2328 C   0  0  0  0  0  0  0  0  0  0  0  0
    2.4802   -0.3001    1.0276 C   0  0  0  0  0  0  0  0  0  0  0  0
    2.6374    0.6168    2.1540 N   0  0  0  0  0  0  0  0  0  0  0  0
    2.4779    2.0240    2.0423 C   0  0  0  0  0  0  0  0  0  0  0  0
    2.0403    2.8498    0.9853 C   0  0  0  0  0  0  0  0  0  0  0  0
    2.0512    4.2525    1.1660 C   0  0  0  0  0  0  0  0  0  0  0  0
    2.4606    4.8361    2.3706 C   0  0  0  0  0  0  0  0  0  0  0  0
    2.4460    6.3185    2.6207 C   0  0  0  0  0  0  0  0  0  0  0  0
    1.3729    7.1447    1.9398 C   0  0  0  0  0  0  0  0  0  0  0  0
    3.3135    6.8608    3.4379 N   0  0  0  0  0  0  0  0  0  0  0  0
    3.0970    8.2519    3.5271 O   0  0  0  0  0  0  0  0  0  0  0  0
    4.0282    8.8600    4.4274 C   0  0  0  0  0  0  0  0  0  0  0  0
    3.7409   10.3732    4.4773 C   0  0  0  0  0  0  0  0  0  0  0  0
    2.3237   10.6644    4.9801 C   0  0  0  0  0  0  0  0  0  0  0  0
    4.7580   11.1166    5.3424 C   0  0  0  0  0  0  0  0  0  0  0  0
    2.9203    4.0067    3.3953 C   0  0  0  0  0  0  0  0  0  0  0  0
    2.9584    2.6092    3.2215 C   0  0  0  0  0  0  0  0  0  0  0  0
    3.4893    1.5231    3.8898 C   0  0  0  0  0  0  0  0  0  0  0  0
    4.4323    1.6752    4.9131 C   0  0  0  0  0  0  0  0  0  0  0  0
    5.2395    0.5435    5.1613 C   0  0  0  0  0  0  0  0  0  0  0  0
    5.0708   -0.6819    4.5221 C   0  0  0  0  0  0  0  0  0  0  0  0
    3.7521   -0.8807    3.9919 C   0  0  0  0  0  0  0  0  0  0  0  0
    3.2175    0.2774    3.3845 C   0  0  0  0  0  0  0  0  0  0  0  0
    2.9226   -1.9364    4.8222 C   0  0  0  0  0  0  0  0  0  0  0  0
    3.5854   -2.3194    6.2181 C   0  0  0  0  0  0  0  0  0  0  0  0
    4.9965   -2.6922    5.9254 C   0  0  0  0  0  0  0  0  0  0  0  0
    5.5823   -3.8768    6.0999 N   0  0  0  0  0  0  0  0  0  0  0  0
    6.6516   -3.8007    5.2658 N   0  0  0  0  0  0  0  0  0  0  0  0
    7.4553   -4.9749    5.0244 C   0  0  0  0  0  0  0  0  0  0  0  0
    6.6966   -2.6395    4.5325 C   0  0  0  0  0  0  0  0  0  0  0  0
    5.7162   -1.8448    5.0701 C   0  0  0  0  0  0  0  0  0  0  0  0
    6.1267    0.8937    6.2391 C   0  0  0  0  0  0  0  0  0  0  0  0
    6.9729    0.2668    6.8750 O   0  0  0  0  0  0  0  0  0  0  0  0
    5.7950    2.2036    6.5652 N   0  0  0  0  0  0  0  0  0  0  0  0
    4.7784    2.8224    5.7475 C   0  0  0  0  0  0  0  0  0  0  0  0
    3.5832   -1.1058   -0.6545 H   0  0  0  0  0  0  0  0  0  0  0  0
    4.5362   -0.9870    0.8322 H   0  0  0  0  0  0  0  0  0  0  0  0
    4.1786    0.4682   -0.1061 H   0  0  0  0  0  0  0  0  0  0  0  0
    2.1181   -1.2561    1.4163 H   0  0  0  0  0  0  0  0  0  0  0  0
    1.6996    0.1025    0.3728 H   0  0  0  0  0  0  0  0  0  0  0  0
    1.7335    2.4337    0.0301 H   0  0  0  0  0  0  0  0  0  0  0  0
    1.7552    4.8780    0.3274 H   0  0  0  0  0  0  0  0  0  0  0  0
    0.6624    6.5364    1.3798 H   0  0  0  0  0  0  0  0  0  0  0  0
    1.8437    7.8643    1.2645 H   0  0  0  0  0  0  0  0  0  0  0  0
    0.8053    7.6877    2.7039 H   0  0  0  0  0  0  0  0  0  0  0  0
    5.0465    8.6843    4.0610 H   0  0  0  0  0  0  0  0  0  0  0  0
    3.9270    8.4123    5.4234 H   0  0  0  0  0  0  0  0  0  0  0  0
    3.8065   10.7662    3.4543 H   0  0  0  0  0  0  0  0  0  0  0  0
    2.1814   10.2957    6.0014 H   0  0  0  0  0  0  0  0  0  0  0  0
    1.5699   10.1964    4.3396 H   0  0  0  0  0  0  0  0  0  0  0  0
    2.1283   11.7430    4.9817 H   0  0  0  0  0  0  0  0  0  0  0  0
    4.7271   10.7735    6.3820 H   0  0  0  0  0  0  0  0  0  0  0  0
    4.5530   12.1937    5.3401 H   0  0  0  0  0  0  0  0  0  0  0  0
    5.7752   10.9738    4.9640 H   0  0  0  0  0  0  0  0  0  0  0  0
    3.2491    4.4584    4.3247 H   0  0  0  0  0  0  0  0  0  0  0  0
    2.8374   -2.8501    4.2244 H   0  0  0  0  0  0  0  0  0  0  0  0
    1.9192   -1.5454    5.0204 H   0  0  0  0  0  0  0  0  0  0  0  0
    3.0478   -3.1169    6.7378 H   0  0  0  0  0  0  0  0  0  0  0  0
    3.5865   -1.4395    6.8816 H   0  0  0  0  0  0  0  0  0  0  0  0
    7.2649   -5.7142    5.8060 H   0  0  0  0  0  0  0  0  0  0  0  0
    8.5087   -4.6854    5.0295 H   0  0  0  0  0  0  0  0  0  0  0  0
    7.1746   -5.3797    4.0482 H   0  0  0  0  0  0  0  0  0  0  0  0
    7.3552   -2.5226    3.6835 H   0  0  0  0  0  0  0  0  0  0  0  0
    6.2286    2.6454    7.3607 H   0  0  0  0  0  0  0  0  0  0  0  0
    5.2295    3.6326    5.1753 H   0  0  0  0  0  0  0  0  0  0  0  0
    3.9447    3.1537    6.3707 H   0  0  0  0  0  0  0  0  0  0  0  0
  1  2  1  0  0  0  0
  1 36  1  0  0  0  0
  1 37  1  0  0  0  0
  1 38  1  0  0  0  0
  2  3  1  0  0  0  0
  2 39  1  0  0  0  0
  2 40  1  0  0  0  0
  3  4  1  0  0  0  0
  3 23  1  0  0  0  0
  4  5  1  0  0  0  0
  4 17  2  0  0  0  0
  5  6  2  0  0  0  0
  5 41  1  0  0  0  0
  6  7  1  0  0  0  0
  6 42  1  0  0  0  0
  7  8  1  0  0  0  0
  7 16  2  0  0  0  0
  8  9  1  0  0  0  0
  8 10  2  0  0  0  0
  9 43  1  0  0  0  0
  9 44  1  0  0  0  0
  9 45  1  0  0  0  0
 10 11  1  0  0  0  0
 11 12  1  0  0  0  0
 12 13  1  0  0  0  0
 12 46  1  0  0  0  0
 12 47  1  0  0  0  0
 13 14  1  0  0  0  0
 13 15  1  0  0  0  0
 13 48  1  0  0  0  0
 14 49  1  0  0  0  0
 14 50  1  0  0  0  0
 14 51  1  0  0  0  0
 15 52  1  0  0  0  0
 15 53  1  0  0  0  0
 15 54  1  0  0  0  0
 16 17  1  0  0  0  0
 16 55  1  0  0  0  0
 17 18  1  0  0  0  0
 18 19  1  0  0  0  0
 18 23  2  0  0  0  0
 19 20  2  0  0  0  0
 19 35  1  0  0  0  0
 20 21  1  0  0  0  0
 20 32  1  0  0  0  0
 21 22  2  0  0  0  0
 21 31  1  0  0  0  0
 22 23  1  0  0  0  0
 22 24  1  0  0  0  0
 24 25  1  0  0  0  0
 24 56  1  0  0  0  0
 24 57  1  0  0  0  0
 25 26  1  0  0  0  0
 25 58  1  0  0  0  0
 25 59  1  0  0  0  0
 26 27  2  0  0  0  0
 26 31  1  0  0  0  0
 27 28  1  0  0  0  0
 28 29  1  0  0  0  0
 28 30  1  0  0  0  0
 29 60  1  0  0  0  0
 29 61  1  0  0  0  0
 29 62  1  0  0  0  0
 30 31  2  0  0  0  0
 30 63  1  0  0  0  0
 32 33  2  0  0  0  0
 32 34  1  0  0  0  0
 34 35  1  0  0  0  0
 34 64  1  0  0  0  0
 35 65  1  0  0  0  0
 35 66  1  0  0  0  0
M  END
$$$$
