CHEMBL394693
 OpenBabel04072215373D

 61 64  0  0  0  0  0  0  0  0999 V2000
    0.2914   -9.6581   -5.5250 C   0  0  0  0  0  0  0  0  0  0  0  0
    1.2498   -9.0566   -6.4181 N   0  0  0  0  0  0  0  0  0  0  0  0
    1.9020   -7.9185   -5.9721 C   0  0  0  0  0  0  0  0  0  0  0  0
    3.0949   -7.7088   -6.5293 N   0  0  0  0  0  0  0  0  0  0  0  0
    3.7380   -6.5842   -6.1719 C   0  0  0  0  0  0  0  0  0  0  0  0
    3.2506   -5.6789   -5.2630 C   0  0  0  0  0  0  0  0  0  0  0  0
    2.0329   -5.9821   -4.6863 C   0  0  0  0  0  0  0  0  0  0  0  0
    1.3590   -5.1334   -3.6811 C   0  0  0  0  0  0  0  0  0  0  0  0
   -0.0547   -5.1136   -3.6469 C   0  0  0  0  0  0  0  0  0  0  0  0
   -0.7597   -4.3147   -2.7491 C   0  0  0  0  0  0  0  0  0  0  0  0
   -0.0371   -3.5793   -1.8392 C   0  0  0  0  0  0  0  0  0  0  0  0
    1.3052   -3.5947   -1.7845 N   0  0  0  0  0  0  0  0  0  0  0  0
    1.9838   -4.2996   -2.7384 C   0  0  0  0  0  0  0  0  0  0  0  0
    3.3711   -4.1036   -2.7669 O   0  0  0  0  0  0  0  0  0  0  0  0
    3.8151   -2.8320   -2.4067 C   0  0  0  0  0  0  0  0  0  0  0  0
    3.0956   -1.6884   -2.7996 C   0  0  0  0  0  0  0  0  0  0  0  0
    3.3966   -0.4241   -2.3041 C   0  0  0  0  0  0  0  0  0  0  0  0
    2.6096    0.7196   -2.5853 N   0  0  0  0  0  0  0  0  0  0  0  0
    1.5975    0.8003   -3.5297 C   0  0  0  0  0  0  0  0  0  0  0  0
    1.2627   -0.0723   -4.3246 O   0  0  0  0  0  0  0  0  0  0  0  0
    0.9086    2.1141   -3.6326 C   0  0  0  0  0  0  0  0  0  0  0  0
    0.4949    2.5308   -4.9037 C   0  0  0  0  0  0  0  0  0  0  0  0
   -0.1205    3.7674   -5.0695 C   0  0  0  0  0  0  0  0  0  0  0  0
   -0.3608    4.5777   -3.9597 C   0  0  0  0  0  0  0  0  0  0  0  0
   -0.0150    4.1511   -2.6668 C   0  0  0  0  0  0  0  0  0  0  0  0
   -0.3923    5.0126   -1.4727 C   0  0  0  0  0  0  0  0  0  0  0  0
   -1.3633    4.2798   -0.5422 C   0  0  0  0  0  0  0  0  0  0  0  0
    0.8362    5.4993   -0.7033 C   0  0  0  0  0  0  0  0  0  0  0  0
    0.6371    2.9136   -2.5139 C   0  0  0  0  0  0  0  0  0  0  0  0
    4.5008   -0.2896   -1.4635 C   0  0  0  0  0  0  0  0  0  0  0  0
    5.3102   -1.4004   -1.1726 C   0  0  0  0  0  0  0  0  0  0  0  0
    4.9779   -2.6844   -1.6405 C   0  0  0  0  0  0  0  0  0  0  0  0
    5.9036   -3.8355   -1.3499 C   0  0  0  0  0  0  0  0  0  0  0  0
    1.3531   -7.1056   -5.0548 N   0  0  0  0  0  0  0  0  0  0  0  0
    0.1173  -10.6959   -5.8353 H   0  0  0  0  0  0  0  0  0  0  0  0
   -0.6682   -9.1370   -5.5788 H   0  0  0  0  0  0  0  0  0  0  0  0
    0.6381   -9.6827   -4.4864 H   0  0  0  0  0  0  0  0  0  0  0  0
    1.9645   -9.6671   -6.7966 H   0  0  0  0  0  0  0  0  0  0  0  0
    4.6927   -6.4231   -6.6669 H   0  0  0  0  0  0  0  0  0  0  0  0
    3.8061   -4.7805   -5.0452 H   0  0  0  0  0  0  0  0  0  0  0  0
   -0.6230   -5.7140   -4.3581 H   0  0  0  0  0  0  0  0  0  0  0  0
   -1.8416   -4.2671   -2.7678 H   0  0  0  0  0  0  0  0  0  0  0  0
   -0.5225   -2.9218   -1.1249 H   0  0  0  0  0  0  0  0  0  0  0  0
    2.2349   -1.8277   -3.4454 H   0  0  0  0  0  0  0  0  0  0  0  0
    2.8701    1.5682   -2.1018 H   0  0  0  0  0  0  0  0  0  0  0  0
    0.6562    1.8891   -5.7686 H   0  0  0  0  0  0  0  0  0  0  0  0
   -0.4219    4.0943   -6.0615 H   0  0  0  0  0  0  0  0  0  0  0  0
   -0.8422    5.5416   -4.1127 H   0  0  0  0  0  0  0  0  0  0  0  0
   -0.9150    5.9066   -1.8386 H   0  0  0  0  0  0  0  0  0  0  0  0
   -0.9304    3.3585   -0.1376 H   0  0  0  0  0  0  0  0  0  0  0  0
   -2.2823    4.0094   -1.0745 H   0  0  0  0  0  0  0  0  0  0  0  0
   -1.6420    4.9154    0.3051 H   0  0  0  0  0  0  0  0  0  0  0  0
    1.3963    4.6706   -0.2581 H   0  0  0  0  0  0  0  0  0  0  0  0
    0.5360    6.1728    0.1075 H   0  0  0  0  0  0  0  0  0  0  0  0
    1.5166    6.0517   -1.3607 H   0  0  0  0  0  0  0  0  0  0  0  0
    0.8912    2.5582   -1.5189 H   0  0  0  0  0  0  0  0  0  0  0  0
    4.7694    0.6739   -1.0401 H   0  0  0  0  0  0  0  0  0  0  0  0
    6.1938   -1.2562   -0.5612 H   0  0  0  0  0  0  0  0  0  0  0  0
    6.5761   -3.5958   -0.5200 H   0  0  0  0  0  0  0  0  0  0  0  0
    6.5154   -4.0459   -2.2307 H   0  0  0  0  0  0  0  0  0  0  0  0
    5.3449   -4.7315   -1.0691 H   0  0  0  0  0  0  0  0  0  0  0  0
  1  2  1  0  0  0  0
  1 35  1  0  0  0  0
  1 36  1  0  0  0  0
  1 37  1  0  0  0  0
  2  3  1  0  0  0  0
  2 38  1  0  0  0  0
  3  4  1  0  0  0  0
  3 34  2  0  0  0  0
  4  5  2  0  0  0  0
  5  6  1  0  0  0  0
  5 39  1  0  0  0  0
  6  7  2  0  0  0  0
  6 40  1  0  0  0  0
  7  8  1  0  0  0  0
  7 34  1  0  0  0  0
  8  9  1  0  0  0  0
  8 13  2  0  0  0  0
  9 10  2  0  0  0  0
  9 41  1  0  0  0  0
 10 11  1  0  0  0  0
 10 42  1  0  0  0  0
 11 12  2  0  0  0  0
 11 43  1  0  0  0  0
 12 13  1  0  0  0  0
 13 14  1  0  0  0  0
 14 15  1  0  0  0  0
 15 16  1  0  0  0  0
 15 32  2  0  0  0  0
 16 17  2  0  0  0  0
 16 44  1  0  0  0  0
 17 18  1  0  0  0  0
 17 30  1  0  0  0  0
 18 19  1  0  0  0  0
 18 45  1  0  0  0  0
 19 20  2  0  0  0  0
 19 21  1  0  0  0  0
 21 22  1  0  0  0  0
 21 29  2  0  0  0  0
 22 23  2  0  0  0  0
 22 46  1  0  0  0  0
 23 24  1  0  0  0  0
 23 47  1  0  0  0  0
 24 25  2  0  0  0  0
 24 48  1  0  0  0  0
 25 26  1  0  0  0  0
 25 29  1  0  0  0  0
 26 27  1  0  0  0  0
 26 28  1  0  0  0  0
 26 49  1  0  0  0  0
 27 50  1  0  0  0  0
 27 51  1  0  0  0  0
 27 52  1  0  0  0  0
 28 53  1  0  0  0  0
 28 54  1  0  0  0  0
 28 55  1  0  0  0  0
 29 56  1  0  0  0  0
 30 31  2  0  0  0  0
 30 57  1  0  0  0  0
 31 32  1  0  0  0  0
 31 58  1  0  0  0  0
 32 33  1  0  0  0  0
 33 59  1  0  0  0  0
 33 60  1  0  0  0  0
 33 61  1  0  0  0  0
M  END
$$$$
