CHEMBL118386
 OpenBabel04072215363D

 51 55  0  0  0  0  0  0  0  0999 V2000
    1.3627   -0.1752   -0.0561 C   0  0  0  0  0  0  0  0  0  0  0  0
    0.4966   -1.2684    0.0092 C   0  0  0  0  0  0  0  0  0  0  0  0
   -0.8774   -1.0693    0.1768 C   0  0  0  0  0  0  0  0  0  0  0  0
   -1.8037   -2.0679    0.3478 O   0  0  0  0  0  0  0  0  0  0  0  0
   -1.2736   -3.2350    0.9859 C   0  0  0  0  0  0  0  0  0  0  0  0
   -2.3559   -3.9461    1.8161 C   0  0  0  0  0  0  0  0  0  0  0  0
   -1.9286   -5.2514    2.3381 N   0  0  0  0  0  0  0  0  0  0  0  0
   -2.9891   -5.9444    3.0945 C   0  0  0  0  0  0  0  0  0  0  0  0
   -2.9916   -5.6594    4.6045 C   0  0  0  0  0  0  0  0  0  0  0  0
   -1.7197   -5.9703    5.1805 O   0  0  0  0  0  0  0  0  0  0  0  0
   -0.7127   -5.1406    4.5987 C   0  0  0  0  0  0  0  0  0  0  0  0
   -0.6491   -5.2988    3.0709 C   0  0  0  0  0  0  0  0  0  0  0  0
   -1.3869    0.2259    0.2113 C   0  0  0  0  0  0  0  0  0  0  0  0
   -0.5209    1.3236    0.1622 C   0  0  0  0  0  0  0  0  0  0  0  0
   -1.0636    2.6655    0.3177 C   0  0  0  0  0  0  0  0  0  0  0  0
   -1.6743    3.4220   -0.8113 C   0  0  0  0  0  0  0  0  0  0  0  0
   -2.2300    4.5962   -0.7358 N   0  0  0  0  0  0  0  0  0  0  0  0
   -2.2524    5.1733    0.5098 C   0  0  0  0  0  0  0  0  0  0  0  0
   -2.7775    6.3606    0.9812 C   0  0  0  0  0  0  0  0  0  0  0  0
   -3.5088    7.3972    0.2433 C   0  0  0  0  0  0  0  0  0  0  0  0
   -3.9880    8.5989    0.8423 C   0  0  0  0  0  0  0  0  0  0  0  0
   -4.6465    9.4046   -0.0663 C   0  0  0  0  0  0  0  0  0  0  0  0
   -4.6911    8.7138   -1.6285 S   0  0  0  0  0  0  0  0  0  0  0  0
   -3.8289    7.3352   -1.0975 C   0  0  0  0  0  0  0  0  0  0  0  0
   -2.4767    6.3681    2.3567 C   0  0  0  0  0  0  0  0  0  0  0  0
   -1.8143    5.2785    2.7532 N   0  0  0  0  0  0  0  0  0  0  0  0
   -1.6880    4.5387    1.6244 N   0  0  0  0  0  0  0  0  0  0  0  0
   -1.1020    3.2854    1.5065 C   0  0  0  0  0  0  0  0  0  0  0  0
    0.8563    1.1205    0.0312 C   0  0  0  0  0  0  0  0  0  0  0  0
    2.4336   -0.3361   -0.1566 H   0  0  0  0  0  0  0  0  0  0  0  0
    0.9200   -2.2666   -0.0568 H   0  0  0  0  0  0  0  0  0  0  0  0
   -0.4694   -2.9463    1.6684 H   0  0  0  0  0  0  0  0  0  0  0  0
   -0.8847   -3.9080    0.2124 H   0  0  0  0  0  0  0  0  0  0  0  0
   -3.2226   -4.0993    1.1569 H   0  0  0  0  0  0  0  0  0  0  0  0
   -2.7031   -3.2779    2.6145 H   0  0  0  0  0  0  0  0  0  0  0  0
   -2.8206   -7.0193    2.9552 H   0  0  0  0  0  0  0  0  0  0  0  0
   -3.9800   -5.7325    2.6764 H   0  0  0  0  0  0  0  0  0  0  0  0
   -3.7363   -6.2908    5.0996 H   0  0  0  0  0  0  0  0  0  0  0  0
   -3.2423   -4.6147    4.8228 H   0  0  0  0  0  0  0  0  0  0  0  0
    0.2481   -5.4438    5.0302 H   0  0  0  0  0  0  0  0  0  0  0  0
   -0.8920   -4.0999    4.8908 H   0  0  0  0  0  0  0  0  0  0  0  0
   -0.2223   -6.2866    2.8584 H   0  0  0  0  0  0  0  0  0  0  0  0
    0.0909   -4.5939    2.6824 H   0  0  0  0  0  0  0  0  0  0  0  0
   -2.4593    0.3697    0.3247 H   0  0  0  0  0  0  0  0  0  0  0  0
   -1.6360    2.9223   -1.7951 H   0  0  0  0  0  0  0  0  0  0  0  0
   -3.8651    8.8822    1.8770 H   0  0  0  0  0  0  0  0  0  0  0  0
   -5.1066   10.3661    0.1147 H   0  0  0  0  0  0  0  0  0  0  0  0
   -3.6017    6.5463   -1.8031 H   0  0  0  0  0  0  0  0  0  0  0  0
   -2.7095    7.1189    3.0985 H   0  0  0  0  0  0  0  0  0  0  0  0
   -0.7159    2.8592    2.4230 H   0  0  0  0  0  0  0  0  0  0  0  0
    1.5430    1.9641    0.0023 H   0  0  0  0  0  0  0  0  0  0  0  0
  1  2  1  0  0  0  0
  1 29  2  0  0  0  0
  1 30  1  0  0  0  0
  2  3  2  0  0  0  0
  2 31  1  0  0  0  0
  3  4  1  0  0  0  0
  3 13  1  0  0  0  0
  4  5  1  0  0  0  0
  5  6  1  0  0  0  0
  5 32  1  0  0  0  0
  5 33  1  0  0  0  0
  6  7  1  0  0  0  0
  6 34  1  0  0  0  0
  6 35  1  0  0  0  0
  7  8  1  0  0  0  0
  7 12  1  0  0  0  0
  8  9  1  0  0  0  0
  8 36  1  0  0  0  0
  8 37  1  0  0  0  0
  9 10  1  0  0  0  0
  9 38  1  0  0  0  0
  9 39  1  0  0  0  0
 10 11  1  0  0  0  0
 11 12  1  0  0  0  0
 11 40  1  0  0  0  0
 11 41  1  0  0  0  0
 12 42  1  0  0  0  0
 12 43  1  0  0  0  0
 13 14  2  0  0  0  0
 13 44  1  0  0  0  0
 14 15  1  0  0  0  0
 14 29  1  0  0  0  0
 15 16  1  0  0  0  0
 15 28  2  0  0  0  0
 16 17  2  0  0  0  0
 16 45  1  0  0  0  0
 17 18  1  0  0  0  0
 18 19  2  0  0  0  0
 18 27  1  0  0  0  0
 19 20  1  0  0  0  0
 19 25  1  0  0  0  0
 20 21  1  0  0  0  0
 20 24  2  0  0  0  0
 21 22  2  0  0  0  0
 21 46  1  0  0  0  0
 22 23  1  0  0  0  0
 22 47  1  0  0  0  0
 23 24  1  0  0  0  0
 24 48  1  0  0  0  0
 25 26  2  0  0  0  0
 25 49  1  0  0  0  0
 26 27  1  0  0  0  0
 27 28  1  0  0  0  0
 28 50  1  0  0  0  0
 29 51  1  0  0  0  0
M  END
$$$$
