CHEMBL3976140
 OpenBabel04072215373D

 55 58  0  0  0  0  0  0  0  0999 V2000
    2.5151   -0.0031   -0.1858 C   0  0  0  0  0  0  0  0  0  0  0  0
    1.0145   -0.0020   -0.0973 C   0  0  0  0  0  0  0  0  0  0  0  0
    0.3706    1.2453   -0.0243 C   0  0  0  0  0  0  0  0  0  0  0  0
   -1.0242    1.3655    0.0272 C   0  0  0  0  0  0  0  0  0  0  0  0
   -1.6700    2.6302    0.0207 N   0  0  0  0  0  0  0  0  0  0  0  0
   -1.0993    3.7660   -0.5301 C   0  0  0  0  0  0  0  0  0  0  0  0
   -0.0693    3.7598   -1.2029 O   0  0  0  0  0  0  0  0  0  0  0  0
   -1.7963    4.9252   -0.2202 N   0  0  0  0  0  0  0  0  0  0  0  0
   -1.3433    6.1767   -0.7047 C   0  0  0  0  0  0  0  0  0  0  0  0
   -0.8743    6.3183   -2.0191 C   0  0  0  0  0  0  0  0  0  0  0  0
   -0.2864    7.5127   -2.4364 C   0  0  0  0  0  0  0  0  0  0  0  0
   -0.1849    8.5828   -1.5520 C   0  0  0  0  0  0  0  0  0  0  0  0
   -0.7414    8.4924   -0.2763 C   0  0  0  0  0  0  0  0  0  0  0  0
   -0.7241    9.4755    0.6679 O   0  0  0  0  0  0  0  0  0  0  0  0
   -0.7114   10.8345    0.2513 C   0  0  0  0  0  0  0  0  0  0  0  0
   -1.0318   11.0186   -1.0462 F   0  0  0  0  0  0  0  0  0  0  0  0
   -1.6187   11.5090    0.9943 F   0  0  0  0  0  0  0  0  0  0  0  0
    0.5049   11.3707    0.4850 F   0  0  0  0  0  0  0  0  0  0  0  0
   -1.3150    7.2833    0.1467 C   0  0  0  0  0  0  0  0  0  0  0  0
   -1.7830    0.2007    0.1106 C   0  0  0  0  0  0  0  0  0  0  0  0
   -1.1544   -1.0550    0.0805 C   0  0  0  0  0  0  0  0  0  0  0  0
    0.2391   -1.1716   -0.0591 C   0  0  0  0  0  0  0  0  0  0  0  0
    0.8778   -2.3997   -0.0617 O   0  0  0  0  0  0  0  0  0  0  0  0
    0.3019   -3.4507   -0.7812 C   0  0  0  0  0  0  0  0  0  0  0  0
    0.6164   -4.7415   -0.3913 C   0  0  0  0  0  0  0  0  0  0  0  0
    0.0518   -5.7604   -1.1367 C   0  0  0  0  0  0  0  0  0  0  0  0
    0.3776   -7.1009   -0.8426 N   0  0  0  0  0  0  0  0  0  0  0  0
   -0.1794   -8.1880   -1.4927 C   0  0  0  0  0  0  0  0  0  0  0  0
   -1.1529   -8.1803   -2.2337 O   0  0  0  0  0  0  0  0  0  0  0  0
    0.4639   -9.5217   -1.2576 C   0  0  0  0  0  0  0  0  0  0  0  0
    0.4841  -10.1391    0.1179 C   0  0  0  0  0  0  0  0  0  0  0  0
    1.7739   -9.7690   -0.5578 C   0  0  0  0  0  0  0  0  0  0  0  0
   -0.7580   -5.5013   -2.1721 N   0  0  0  0  0  0  0  0  0  0  0  0
   -0.9857   -4.2228   -2.4757 C   0  0  0  0  0  0  0  0  0  0  0  0
   -0.4795   -3.1678   -1.8371 N   0  0  0  0  0  0  0  0  0  0  0  0
    2.8855    0.9813   -0.5021 H   0  0  0  0  0  0  0  0  0  0  0  0
    2.8695   -0.7212   -0.9306 H   0  0  0  0  0  0  0  0  0  0  0  0
    2.9538   -0.2248    0.7897 H   0  0  0  0  0  0  0  0  0  0  0  0
    0.9897    2.1398   -0.0202 H   0  0  0  0  0  0  0  0  0  0  0  0
   -2.6740    2.6389    0.0979 H   0  0  0  0  0  0  0  0  0  0  0  0
   -2.2304    4.9173    0.6929 H   0  0  0  0  0  0  0  0  0  0  0  0
   -0.9303    5.4868   -2.7172 H   0  0  0  0  0  0  0  0  0  0  0  0
    0.1142    7.5849   -3.4418 H   0  0  0  0  0  0  0  0  0  0  0  0
    0.3418    9.4698   -1.8926 H   0  0  0  0  0  0  0  0  0  0  0  0
   -1.6755    7.1998    1.1665 H   0  0  0  0  0  0  0  0  0  0  0  0
   -2.8672    0.2387    0.1710 H   0  0  0  0  0  0  0  0  0  0  0  0
   -1.7731   -1.9460    0.1414 H   0  0  0  0  0  0  0  0  0  0  0  0
    1.2648   -4.9248    0.4527 H   0  0  0  0  0  0  0  0  0  0  0  0
    1.0774   -7.2706   -0.1397 H   0  0  0  0  0  0  0  0  0  0  0  0
    0.2512  -10.2057   -2.0798 H   0  0  0  0  0  0  0  0  0  0  0  0
    0.2278  -11.1909    0.1932 H   0  0  0  0  0  0  0  0  0  0  0  0
    0.1529   -9.5468    0.9619 H   0  0  0  0  0  0  0  0  0  0  0  0
    2.3919  -10.5781   -0.9376 H   0  0  0  0  0  0  0  0  0  0  0  0
    2.3525   -8.9489   -0.1571 H   0  0  0  0  0  0  0  0  0  0  0  0
   -1.6409   -4.0297   -3.3177 H   0  0  0  0  0  0  0  0  0  0  0  0
  1  2  1  0  0  0  0
  1 36  1  0  0  0  0
  1 37  1  0  0  0  0
  1 38  1  0  0  0  0
  2  3  1  0  0  0  0
  2 22  2  0  0  0  0
  3  4  2  0  0  0  0
  3 39  1  0  0  0  0
  4  5  1  0  0  0  0
  4 20  1  0  0  0  0
  5  6  1  0  0  0  0
  5 40  1  0  0  0  0
  6  7  2  0  0  0  0
  6  8  1  0  0  0  0
  8  9  1  0  0  0  0
  8 41  1  0  0  0  0
  9 10  1  0  0  0  0
  9 19  2  0  0  0  0
 10 11  2  0  0  0  0
 10 42  1  0  0  0  0
 11 12  1  0  0  0  0
 11 43  1  0  0  0  0
 12 13  2  0  0  0  0
 12 44  1  0  0  0  0
 13 14  1  0  0  0  0
 13 19  1  0  0  0  0
 14 15  1  0  0  0  0
 15 16  1  0  0  0  0
 15 17  1  0  0  0  0
 15 18  1  0  0  0  0
 19 45  1  0  0  0  0
 20 21  2  0  0  0  0
 20 46  1  0  0  0  0
 21 22  1  0  0  0  0
 21 47  1  0  0  0  0
 22 23  1  0  0  0  0
 23 24  1  0  0  0  0
 24 25  1  0  0  0  0
 24 35  2  0  0  0  0
 25 26  2  0  0  0  0
 25 48  1  0  0  0  0
 26 27  1  0  0  0  0
 26 33  1  0  0  0  0
 27 28  1  0  0  0  0
 27 49  1  0  0  0  0
 28 29  2  0  0  0  0
 28 30  1  0  0  0  0
 30 31  1  0  0  0  0
 30 32  1  0  0  0  0
 30 50  1  0  0  0  0
 31 32  1  0  0  0  0
 31 51  1  0  0  0  0
 31 52  1  0  0  0  0
 32 53  1  0  0  0  0
 32 54  1  0  0  0  0
 33 34  2  0  0  0  0
 34 35  1  0  0  0  0
 34 55  1  0  0  0  0
M  END
$$$$
