CHEMBL3937667
 OpenBabel04072215373D

 57 60  0  0  0  0  0  0  0  0999 V2000
    2.4783   -0.2071   -0.0356 C   0  0  0  0  0  0  0  0  0  0  0  0
    0.9858   -0.0683    0.0347 C   0  0  0  0  0  0  0  0  0  0  0  0
    0.3997    1.2027    0.0043 C   0  0  0  0  0  0  0  0  0  0  0  0
   -0.9881    1.3701    0.0722 C   0  0  0  0  0  0  0  0  0  0  0  0
   -1.5978    2.6479    0.0184 N   0  0  0  0  0  0  0  0  0  0  0  0
   -0.9992    3.7705   -0.5279 C   0  0  0  0  0  0  0  0  0  0  0  0
    0.0578    3.7675   -1.1499 O   0  0  0  0  0  0  0  0  0  0  0  0
   -1.7179    4.9304   -0.2529 N   0  0  0  0  0  0  0  0  0  0  0  0
   -1.2079    6.1730   -0.7003 C   0  0  0  0  0  0  0  0  0  0  0  0
   -0.7837    6.3441   -2.0194 C   0  0  0  0  0  0  0  0  0  0  0  0
   -0.1662    7.5308   -2.4107 C   0  0  0  0  0  0  0  0  0  0  0  0
    0.0494    8.5512   -1.4811 C   0  0  0  0  0  0  0  0  0  0  0  0
    0.8440    9.9733   -2.0535 Cl  0  0  0  0  0  0  0  0  0  0  0  0
   -0.3732    8.4011   -0.1507 C   0  0  0  0  0  0  0  0  0  0  0  0
   -0.0992    9.4334    0.9203 C   0  0  0  0  0  0  0  0  0  0  0  0
   -1.1752   10.5052    0.9591 C   0  0  0  0  0  0  0  0  0  0  0  0
   -0.0649    8.8658    2.1682 F   0  0  0  0  0  0  0  0  0  0  0  0
    1.1132   10.0442    0.7975 F   0  0  0  0  0  0  0  0  0  0  0  0
   -1.0499    7.2150    0.2143 C   0  0  0  0  0  0  0  0  0  0  0  0
   -1.7966    0.2405    0.2290 C   0  0  0  0  0  0  0  0  0  0  0  0
   -1.2286   -1.0426    0.2253 C   0  0  0  0  0  0  0  0  0  0  0  0
   -1.9509   -2.2041    0.4189 O   0  0  0  0  0  0  0  0  0  0  0  0
   -3.1922   -2.3407   -0.1940 C   0  0  0  0  0  0  0  0  0  0  0  0
   -4.0289   -3.3146    0.3187 C   0  0  0  0  0  0  0  0  0  0  0  0
   -5.2453   -3.4584   -0.3157 C   0  0  0  0  0  0  0  0  0  0  0  0
   -6.1416   -4.4375    0.1383 N   0  0  0  0  0  0  0  0  0  0  0  0
   -7.3735   -4.6725   -0.4509 C   0  0  0  0  0  0  0  0  0  0  0  0
   -7.8725   -4.0640   -1.3868 O   0  0  0  0  0  0  0  0  0  0  0  0
   -8.1547   -5.7881    0.1726 C   0  0  0  0  0  0  0  0  0  0  0  0
   -9.3304   -6.3790   -0.5818 C   0  0  0  0  0  0  0  0  0  0  0  0
   -9.5734   -5.5247    0.6274 C   0  0  0  0  0  0  0  0  0  0  0  0
   -5.5822   -2.6868   -1.3567 N   0  0  0  0  0  0  0  0  0  0  0  0
   -4.6972   -1.7898   -1.7908 C   0  0  0  0  0  0  0  0  0  0  0  0
   -3.4942   -1.5777   -1.2595 N   0  0  0  0  0  0  0  0  0  0  0  0
    0.1597   -1.1922    0.1315 C   0  0  0  0  0  0  0  0  0  0  0  0
    2.9715    0.7720   -0.0341 H   0  0  0  0  0  0  0  0  0  0  0  0
    2.7719   -0.7269   -0.9523 H   0  0  0  0  0  0  0  0  0  0  0  0
    2.8474   -0.7598    0.8337 H   0  0  0  0  0  0  0  0  0  0  0  0
    1.0578    2.0658   -0.0577 H   0  0  0  0  0  0  0  0  0  0  0  0
   -2.6033    2.6836    0.1046 H   0  0  0  0  0  0  0  0  0  0  0  0
   -2.1507    4.9217    0.6603 H   0  0  0  0  0  0  0  0  0  0  0  0
   -0.9040    5.5449   -2.7481 H   0  0  0  0  0  0  0  0  0  0  0  0
    0.1748    7.6357   -3.4383 H   0  0  0  0  0  0  0  0  0  0  0  0
   -2.1444   10.0766    1.2351 H   0  0  0  0  0  0  0  0  0  0  0  0
   -1.2781   11.0187   -0.0012 H   0  0  0  0  0  0  0  0  0  0  0  0
   -0.9208   11.2577    1.7125 H   0  0  0  0  0  0  0  0  0  0  0  0
   -1.3640    7.0802    1.2479 H   0  0  0  0  0  0  0  0  0  0  0  0
   -2.8715    0.3524    0.3247 H   0  0  0  0  0  0  0  0  0  0  0  0
   -3.7268   -3.9180    1.1616 H   0  0  0  0  0  0  0  0  0  0  0  0
   -5.8722   -5.0074    0.9265 H   0  0  0  0  0  0  0  0  0  0  0  0
   -7.5784   -6.4934    0.7622 H   0  0  0  0  0  0  0  0  0  0  0  0
   -9.5142   -7.4429   -0.5032 H   0  0  0  0  0  0  0  0  0  0  0  0
   -9.5829   -5.9623   -1.5533 H   0  0  0  0  0  0  0  0  0  0  0  0
   -9.9306   -6.0137    1.5248 H   0  0  0  0  0  0  0  0  0  0  0  0
   -9.9868   -4.5338    0.4652 H   0  0  0  0  0  0  0  0  0  0  0  0
   -4.9920   -1.1823   -2.6360 H   0  0  0  0  0  0  0  0  0  0  0  0
    0.5981   -2.1872    0.1428 H   0  0  0  0  0  0  0  0  0  0  0  0
  1  2  1  0  0  0  0
  1 36  1  0  0  0  0
  1 37  1  0  0  0  0
  1 38  1  0  0  0  0
  2  3  1  0  0  0  0
  2 35  2  0  0  0  0
  3  4  2  0  0  0  0
  3 39  1  0  0  0  0
  4  5  1  0  0  0  0
  4 20  1  0  0  0  0
  5  6  1  0  0  0  0
  5 40  1  0  0  0  0
  6  7  2  0  0  0  0
  6  8  1  0  0  0  0
  8  9  1  0  0  0  0
  8 41  1  0  0  0  0
  9 10  1  0  0  0  0
  9 19  2  0  0  0  0
 10 11  2  0  0  0  0
 10 42  1  0  0  0  0
 11 12  1  0  0  0  0
 11 43  1  0  0  0  0
 12 13  1  0  0  0  0
 12 14  2  0  0  0  0
 14 15  1  0  0  0  0
 14 19  1  0  0  0  0
 15 16  1  0  0  0  0
 15 17  1  0  0  0  0
 15 18  1  0  0  0  0
 16 44  1  0  0  0  0
 16 45  1  0  0  0  0
 16 46  1  0  0  0  0
 19 47  1  0  0  0  0
 20 21  2  0  0  0  0
 20 48  1  0  0  0  0
 21 22  1  0  0  0  0
 21 35  1  0  0  0  0
 22 23  1  0  0  0  0
 23 24  1  0  0  0  0
 23 34  2  0  0  0  0
 24 25  2  0  0  0  0
 24 49  1  0  0  0  0
 25 26  1  0  0  0  0
 25 32  1  0  0  0  0
 26 27  1  0  0  0  0
 26 50  1  0  0  0  0
 27 28  2  0  0  0  0
 27 29  1  0  0  0  0
 29 30  1  0  0  0  0
 29 31  1  0  0  0  0
 29 51  1  0  0  0  0
 30 31  1  0  0  0  0
 30 52  1  0  0  0  0
 30 53  1  0  0  0  0
 31 54  1  0  0  0  0
 31 55  1  0  0  0  0
 32 33  2  0  0  0  0
 33 34  1  0  0  0  0
 33 56  1  0  0  0  0
 35 57  1  0  0  0  0
M  END
$$$$
