CHEMBL3982399
 OpenBabel04072215373D

 64 68  0  0  0  0  0  0  0  0999 V2000
    1.1998   -0.2721   -0.0746 C   0  0  0  0  0  0  0  0  0  0  0  0
    2.0090    0.9059   -0.1785 O   0  0  0  0  0  0  0  0  0  0  0  0
    2.7929    1.1728    0.9080 C   0  0  0  0  0  0  0  0  0  0  0  0
    2.4944    0.8587    2.1945 C   0  0  0  0  0  0  0  0  0  0  0  0
    3.4241    1.1177    3.2001 C   0  0  0  0  0  0  0  0  0  0  0  0
    3.2237    0.7505    4.4999 O   0  0  0  0  0  0  0  0  0  0  0  0
    1.9901    0.0718    4.7088 C   0  0  0  0  0  0  0  0  0  0  0  0
    4.6565    1.7110    2.9201 C   0  0  0  0  0  0  0  0  0  0  0  0
    5.0370    2.0038    1.6284 C   0  0  0  0  0  0  0  0  0  0  0  0
    6.3632    2.4430    1.3496 N   0  0  0  0  0  0  0  0  0  0  0  0
    6.9309    2.1364   -0.0730 C   0  0  0  0  0  0  0  0  0  0  0  0
    7.0263    0.6271   -0.2257 C   0  0  0  0  0  0  0  0  0  0  0  0
    7.1082   -0.6675   -0.3568 C   0  0  0  0  0  0  0  0  0  0  0  0
    7.2039   -2.1418   -0.5267 C   0  0  0  0  0  0  0  0  0  0  0  0
    6.0931   -2.9155   -0.8331 C   0  0  0  0  0  0  0  0  0  0  0  0
    6.2597   -4.2875   -0.9917 C   0  0  0  0  0  0  0  0  0  0  0  0
    5.1768   -5.0948   -1.3060 N   0  0  0  0  0  0  0  0  0  0  0  0
    7.4611   -4.8676   -0.8496 N   0  0  0  0  0  0  0  0  0  0  0  0
    8.5069   -4.0589   -0.5454 C   0  0  0  0  0  0  0  0  0  0  0  0
    9.8631   -4.7146   -0.3938 C   0  0  0  0  0  0  0  0  0  0  0  0
    8.4266   -2.7072   -0.3805 N   0  0  0  0  0  0  0  0  0  0  0  0
    7.4093    2.6974    2.3249 C   0  0  0  0  0  0  0  0  0  0  0  0
    8.2434    3.7139    2.0118 C   0  0  0  0  0  0  0  0  0  0  0  0
    9.2205    3.9339    2.9072 C   0  0  0  0  0  0  0  0  0  0  0  0
    9.5287    3.1833    4.0200 C   0  0  0  0  0  0  0  0  0  0  0  0
   10.7836    3.1949    3.9151 N   0  0  0  0  0  0  0  0  0  0  0  0
   11.3303    4.1815    4.5400 C   0  0  0  0  0  0  0  0  0  0  0  0
   11.5503    3.8290    5.7602 C   0  0  0  0  0  0  0  0  0  0  0  0
   13.0998    4.7259    6.0958 C   0  0  0  0  0  0  0  0  0  0  0  0
   13.8557    5.9933    5.4125 C   0  0  0  0  0  0  0  0  0  0  0  0
   14.9772    6.4677    6.0321 N   0  0  0  0  0  0  0  0  0  0  0  0
   15.1143    5.6941    7.1237 N   0  0  0  0  0  0  0  0  0  0  0  0
   16.2209    5.9644    8.1047 C   0  0  0  0  0  0  0  0  0  0  0  0
   14.0342    4.7164    7.1581 C   0  0  0  0  0  0  0  0  0  0  0  0
   10.3787    2.6811    6.0144 N   0  0  0  0  0  0  0  0  0  0  0  0
    9.0729    2.2994    4.8571 C   0  0  0  0  0  0  0  0  0  0  0  0
    7.7741    1.9832    3.6804 C   0  0  0  0  0  0  0  0  0  0  0  0
    3.9787    1.8782    0.7035 C   0  0  0  0  0  0  0  0  0  0  0  0
    0.7813   -0.5024   -1.0615 H   0  0  0  0  0  0  0  0  0  0  0  0
    0.3706   -0.0846    0.6110 H   0  0  0  0  0  0  0  0  0  0  0  0
    1.7691   -1.1562    0.2431 H   0  0  0  0  0  0  0  0  0  0  0  0
    1.5205    0.4531    2.4041 H   0  0  0  0  0  0  0  0  0  0  0  0
    1.9384   -0.1990    5.7583 H   0  0  0  0  0  0  0  0  0  0  0  0
    1.9240   -0.8509    4.1129 H   0  0  0  0  0  0  0  0  0  0  0  0
    1.1453    0.7346    4.4814 H   0  0  0  0  0  0  0  0  0  0  0  0
    5.3193    1.9615    3.7325 H   0  0  0  0  0  0  0  0  0  0  0  0
    7.9029    2.5967   -0.2701 H   0  0  0  0  0  0  0  0  0  0  0  0
    6.2141    2.5201   -0.8073 H   0  0  0  0  0  0  0  0  0  0  0  0
    5.1177   -2.4687   -0.9485 H   0  0  0  0  0  0  0  0  0  0  0  0
    4.2474   -4.7255   -1.4301 H   0  0  0  0  0  0  0  0  0  0  0  0
    5.3176   -6.0899   -1.4266 H   0  0  0  0  0  0  0  0  0  0  0  0
    9.8161   -5.7985   -0.5633 H   0  0  0  0  0  0  0  0  0  0  0  0
   10.2648   -4.5566    0.6132 H   0  0  0  0  0  0  0  0  0  0  0  0
   10.5775   -4.3012   -1.1144 H   0  0  0  0  0  0  0  0  0  0  0  0
    8.2943    4.2974    1.1072 H   0  0  0  0  0  0  0  0  0  0  0  0
    9.9699    4.6765    2.6564 H   0  0  0  0  0  0  0  0  0  0  0  0
   11.8063    4.8925    3.9274 H   0  0  0  0  0  0  0  0  0  0  0  0
   13.6372    6.6430    4.5518 H   0  0  0  0  0  0  0  0  0  0  0  0
   16.9637    6.7214    7.7652 H   0  0  0  0  0  0  0  0  0  0  0  0
   16.7993    5.0527    8.3130 H   0  0  0  0  0  0  0  0  0  0  0  0
   15.8232    6.3466    9.0573 H   0  0  0  0  0  0  0  0  0  0  0  0
   14.0509    4.1368    8.0384 H   0  0  0  0  0  0  0  0  0  0  0  0
    7.1278    1.0614    3.6740 H   0  0  0  0  0  0  0  0  0  0  0  0
    3.8909    2.5561   -0.1252 H   0  0  0  0  0  0  0  0  0  0  0  0
  1  2  1  0  0  0  0
  1 39  1  0  0  0  0
  1 40  1  0  0  0  0
  1 41  1  0  0  0  0
  2  3  1  0  0  0  0
  3  4  1  0  0  0  0
  3 38  2  0  0  0  0
  4  5  2  0  0  0  0
  4 42  1  0  0  0  0
  5  6  1  0  0  0  0
  5  8  1  0  0  0  0
  6  7  1  0  0  0  0
  7 43  1  0  0  0  0
  7 44  1  0  0  0  0
  7 45  1  0  0  0  0
  8  9  2  0  0  0  0
  8 46  1  0  0  0  0
  9 10  1  0  0  0  0
  9 38  1  0  0  0  0
 10 11  1  0  0  0  0
 10 22  1  0  0  0  0
 11 12  1  0  0  0  0
 11 47  1  0  0  0  0
 11 48  1  0  0  0  0
 12 13  3  0  0  0  0
 13 14  1  0  0  0  0
 14 15  1  0  0  0  0
 14 21  2  0  0  0  0
 15 16  2  0  0  0  0
 15 49  1  0  0  0  0
 16 17  1  0  0  0  0
 16 18  1  0  0  0  0
 17 50  1  0  0  0  0
 17 51  1  0  0  0  0
 18 19  2  0  0  0  0
 19 20  1  0  0  0  0
 19 21  1  0  0  0  0
 20 52  1  0  0  0  0
 20 53  1  0  0  0  0
 20 54  1  0  0  0  0
 22 23  1  0  0  0  0
 22 37  2  0  0  0  0
 23 24  2  0  0  0  0
 23 55  1  0  0  0  0
 24 25  1  0  0  0  0
 24 56  1  0  0  0  0
 25 26  1  0  0  0  0
 25 36  2  0  0  0  0
 26 27  2  0  0  0  0
 27 28  1  0  0  0  0
 27 57  1  0  0  0  0
 28 29  1  0  0  0  0
 28 35  2  0  0  0  0
 29 30  1  0  0  0  0
 29 34  2  0  0  0  0
 30 31  2  0  0  0  0
 30 58  1  0  0  0  0
 31 32  1  0  0  0  0
 32 33  1  0  0  0  0
 32 34  1  0  0  0  0
 33 59  1  0  0  0  0
 33 60  1  0  0  0  0
 33 61  1  0  0  0  0
 34 62  1  0  0  0  0
 35 36  1  0  0  0  0
 36 37  1  0  0  0  0
 37 63  1  0  0  0  0
 38 64  1  0  0  0  0
M  END
$$$$
