CHEMBL220550
 OpenBabel04072215363D

 72 76  0  0  0  0  0  0  0  0999 V2000
    1.7969    5.7844    9.8281 C   0  0  0  0  0  0  0  0  0  0  0  0
    2.8558    4.8569   10.1505 N   0  0  0  0  0  0  0  0  0  0  0  0
    3.2058    3.9503    9.1708 C   0  0  0  0  0  0  0  0  0  0  0  0
    3.6293    2.7635    9.6099 N   0  0  0  0  0  0  0  0  0  0  0  0
    4.0995    1.9096    8.6841 C   0  0  0  0  0  0  0  0  0  0  0  0
    4.1638    2.1938    7.3394 C   0  0  0  0  0  0  0  0  0  0  0  0
    3.6894    3.4288    6.9531 C   0  0  0  0  0  0  0  0  0  0  0  0
    3.7821    3.9683    5.5725 C   0  0  0  0  0  0  0  0  0  0  0  0
    3.8511    5.3725    5.4056 C   0  0  0  0  0  0  0  0  0  0  0  0
    3.9927    5.9570    4.1524 C   0  0  0  0  0  0  0  0  0  0  0  0
    4.0206    5.1273    3.0549 C   0  0  0  0  0  0  0  0  0  0  0  0
    3.9053    3.7899    3.1400 N   0  0  0  0  0  0  0  0  0  0  0  0
    3.8330    3.2243    4.3781 C   0  0  0  0  0  0  0  0  0  0  0  0
    3.7719    1.8295    4.4227 O   0  0  0  0  0  0  0  0  0  0  0  0
    4.2798    1.1144    3.3398 C   0  0  0  0  0  0  0  0  0  0  0  0
    5.4736    1.4760    2.6967 C   0  0  0  0  0  0  0  0  0  0  0  0
    5.9243    0.7611    1.5801 C   0  0  0  0  0  0  0  0  0  0  0  0
    7.0887    1.2889    0.8156 C   0  0  0  0  0  0  0  0  0  0  0  0
    7.9614    1.9081    1.4124 O   0  0  0  0  0  0  0  0  0  0  0  0
    7.0072    1.1120   -0.5595 N   0  0  0  0  0  0  0  0  0  0  0  0
    7.9413    1.6411   -1.4781 C   0  0  0  0  0  0  0  0  0  0  0  0
    9.3091    1.5528   -1.1490 C   0  0  0  0  0  0  0  0  0  0  0  0
   10.3408    2.0161   -1.9923 C   0  0  0  0  0  0  0  0  0  0  0  0
   11.7780    1.7841   -1.5340 C   0  0  0  0  0  0  0  0  0  0  0  0
   12.8758    2.7318   -2.0723 C   0  0  0  0  0  0  0  0  0  0  0  0
   14.2845    2.3636   -1.5648 C   0  0  0  0  0  0  0  0  0  0  0  0
   14.6125    0.8762   -1.6924 C   0  0  0  0  0  0  0  0  0  0  0  0
   13.5098    0.0221   -1.0845 C   0  0  0  0  0  0  0  0  0  0  0  0
   12.1872    0.3186   -1.7840 C   0  0  0  0  0  0  0  0  0  0  0  0
    9.9654    2.5822   -3.2098 C   0  0  0  0  0  0  0  0  0  0  0  0
    8.6060    2.6624   -3.5566 C   0  0  0  0  0  0  0  0  0  0  0  0
    7.5800    2.1894   -2.7156 C   0  0  0  0  0  0  0  0  0  0  0  0
    6.3406    2.3834   -3.2692 O   0  0  0  0  0  0  0  0  0  0  0  0
    5.1498    2.2229   -2.5169 C   0  0  0  0  0  0  0  0  0  0  0  0
    5.2564   -0.3981    1.1801 C   0  0  0  0  0  0  0  0  0  0  0  0
    4.1030   -0.7982    1.8546 C   0  0  0  0  0  0  0  0  0  0  0  0
    3.5875   -0.0356    2.9178 C   0  0  0  0  0  0  0  0  0  0  0  0
    2.3054   -0.4669    3.5707 C   0  0  0  0  0  0  0  0  0  0  0  0
    3.1911    4.2962    7.8759 N   0  0  0  0  0  0  0  0  0  0  0  0
    1.6397    6.4561   10.6790 H   0  0  0  0  0  0  0  0  0  0  0  0
    0.8531    5.2636    9.6384 H   0  0  0  0  0  0  0  0  0  0  0  0
    2.0489    6.4115    8.9662 H   0  0  0  0  0  0  0  0  0  0  0  0
    2.7251    4.3231   11.0057 H   0  0  0  0  0  0  0  0  0  0  0  0
    4.4650    0.9647    9.0756 H   0  0  0  0  0  0  0  0  0  0  0  0
    4.6124    1.4833    6.6597 H   0  0  0  0  0  0  0  0  0  0  0  0
    3.8248    6.0227    6.2797 H   0  0  0  0  0  0  0  0  0  0  0  0
    4.0873    7.0316    4.0465 H   0  0  0  0  0  0  0  0  0  0  0  0
    4.1515    5.5260    2.0530 H   0  0  0  0  0  0  0  0  0  0  0  0
    6.0306    2.3533    3.0186 H   0  0  0  0  0  0  0  0  0  0  0  0
    6.1140    0.8301   -0.9226 H   0  0  0  0  0  0  0  0  0  0  0  0
    9.5938    1.0582   -0.2214 H   0  0  0  0  0  0  0  0  0  0  0  0
   11.7675    1.9458   -0.4482 H   0  0  0  0  0  0  0  0  0  0  0  0
   12.6550    3.7616   -1.7638 H   0  0  0  0  0  0  0  0  0  0  0  0
   12.8921    2.7276   -3.1679 H   0  0  0  0  0  0  0  0  0  0  0  0
   15.0374    2.9449   -2.1109 H   0  0  0  0  0  0  0  0  0  0  0  0
   14.3750    2.6515   -0.5098 H   0  0  0  0  0  0  0  0  0  0  0  0
   15.5659    0.6576   -1.1971 H   0  0  0  0  0  0  0  0  0  0  0  0
   14.7371    0.6133   -2.7501 H   0  0  0  0  0  0  0  0  0  0  0  0
   13.4194    0.2402   -0.0121 H   0  0  0  0  0  0  0  0  0  0  0  0
   13.7573   -1.0405   -1.1747 H   0  0  0  0  0  0  0  0  0  0  0  0
   11.4248   -0.3751   -1.4140 H   0  0  0  0  0  0  0  0  0  0  0  0
   12.2871    0.1305   -2.8621 H   0  0  0  0  0  0  0  0  0  0  0  0
   10.7055    2.9591   -3.9081 H   0  0  0  0  0  0  0  0  0  0  0  0
    8.3353    3.1221   -4.5066 H   0  0  0  0  0  0  0  0  0  0  0  0
    4.3278    2.6773   -3.0802 H   0  0  0  0  0  0  0  0  0  0  0  0
    5.1917    2.7278   -1.5469 H   0  0  0  0  0  0  0  0  0  0  0  0
    4.9039    1.1608   -2.4191 H   0  0  0  0  0  0  0  0  0  0  0  0
    5.6265   -1.0025    0.3560 H   0  0  0  0  0  0  0  0  0  0  0  0
    3.5950   -1.7052    1.5315 H   0  0  0  0  0  0  0  0  0  0  0  0
    1.8421   -1.2953    3.0221 H   0  0  0  0  0  0  0  0  0  0  0  0
    1.5845    0.3566    3.5769 H   0  0  0  0  0  0  0  0  0  0  0  0
    2.4921   -0.8037    4.5943 H   0  0  0  0  0  0  0  0  0  0  0  0
  1  2  1  0  0  0  0
  1 40  1  0  0  0  0
  1 41  1  0  0  0  0
  1 42  1  0  0  0  0
  2  3  1  0  0  0  0
  2 43  1  0  0  0  0
  3  4  1  0  0  0  0
  3 39  2  0  0  0  0
  4  5  2  0  0  0  0
  5  6  1  0  0  0  0
  5 44  1  0  0  0  0
  6  7  2  0  0  0  0
  6 45  1  0  0  0  0
  7  8  1  0  0  0  0
  7 39  1  0  0  0  0
  8  9  1  0  0  0  0
  8 13  2  0  0  0  0
  9 10  2  0  0  0  0
  9 46  1  0  0  0  0
 10 11  1  0  0  0  0
 10 47  1  0  0  0  0
 11 12  2  0  0  0  0
 11 48  1  0  0  0  0
 12 13  1  0  0  0  0
 13 14  1  0  0  0  0
 14 15  1  0  0  0  0
 15 16  1  0  0  0  0
 15 37  2  0  0  0  0
 16 17  2  0  0  0  0
 16 49  1  0  0  0  0
 17 18  1  0  0  0  0
 17 35  1  0  0  0  0
 18 19  2  0  0  0  0
 18 20  1  0  0  0  0
 20 21  1  0  0  0  0
 20 50  1  0  0  0  0
 21 22  1  0  0  0  0
 21 32  2  0  0  0  0
 22 23  2  0  0  0  0
 22 51  1  0  0  0  0
 23 24  1  0  0  0  0
 23 30  1  0  0  0  0
 24 25  1  0  0  0  0
 24 29  1  0  0  0  0
 24 52  1  0  0  0  0
 25 26  1  0  0  0  0
 25 53  1  0  0  0  0
 25 54  1  0  0  0  0
 26 27  1  0  0  0  0
 26 55  1  0  0  0  0
 26 56  1  0  0  0  0
 27 28  1  0  0  0  0
 27 57  1  0  0  0  0
 27 58  1  0  0  0  0
 28 29  1  0  0  0  0
 28 59  1  0  0  0  0
 28 60  1  0  0  0  0
 29 61  1  0  0  0  0
 29 62  1  0  0  0  0
 30 31  2  0  0  0  0
 30 63  1  0  0  0  0
 31 32  1  0  0  0  0
 31 64  1  0  0  0  0
 32 33  1  0  0  0  0
 33 34  1  0  0  0  0
 34 65  1  0  0  0  0
 34 66  1  0  0  0  0
 34 67  1  0  0  0  0
 35 36  2  0  0  0  0
 35 68  1  0  0  0  0
 36 37  1  0  0  0  0
 36 69  1  0  0  0  0
 37 38  1  0  0  0  0
 38 70  1  0  0  0  0
 38 71  1  0  0  0  0
 38 72  1  0  0  0  0
M  END
$$$$
