CHEMBL3931691
 OpenBabel04072215373D

 57 60  0  0  0  0  0  0  0  0999 V2000
   10.4361   -1.6219    8.9157 C   0  0  0  0  0  0  0  0  0  0  0  0
   10.3028   -0.1448    8.5846 C   0  0  0  0  0  0  0  0  0  0  0  0
    8.8950    0.2264    8.1986 C   0  0  0  0  0  0  0  0  0  0  0  0
    7.9611    0.5694    9.1794 C   0  0  0  0  0  0  0  0  0  0  0  0
    6.6680    0.9600    8.8199 C   0  0  0  0  0  0  0  0  0  0  0  0
    6.2665    1.0234    7.4718 C   0  0  0  0  0  0  0  0  0  0  0  0
    4.9321    1.5205    7.0798 C   0  0  0  0  0  0  0  0  0  0  0  0
    4.2697    2.4851    7.8062 C   0  0  0  0  0  0  0  0  0  0  0  0
    3.0364    2.8792    7.3299 C   0  0  0  0  0  0  0  0  0  0  0  0
    2.2918    3.9245    8.0888 C   0  0  0  0  0  0  0  0  0  0  0  0
    2.8195    4.4011    9.0905 O   0  0  0  0  0  0  0  0  0  0  0  0
    1.0318    4.2359    7.5931 N   0  0  0  0  0  0  0  0  0  0  0  0
    0.1465    5.1865    8.1446 C   0  0  0  0  0  0  0  0  0  0  0  0
    0.5583    6.1242    9.0913 C   0  0  0  0  0  0  0  0  0  0  0  0
   -0.3468    7.0196    9.6584 C   0  0  0  0  0  0  0  0  0  0  0  0
   -1.6712    7.0565    9.2241 C   0  0  0  0  0  0  0  0  0  0  0  0
   -2.6008    7.9650    9.6932 O   0  0  0  0  0  0  0  0  0  0  0  0
   -2.1743    9.2305   10.0552 C   0  0  0  0  0  0  0  0  0  0  0  0
   -1.1388    9.9023    9.4051 C   0  0  0  0  0  0  0  0  0  0  0  0
   -0.7241   11.1230    9.9055 C   0  0  0  0  0  0  0  0  0  0  0  0
   -1.3138   11.7457   10.9442 N   0  0  0  0  0  0  0  0  0  0  0  0
   -2.3808   11.1069   11.5070 C   0  0  0  0  0  0  0  0  0  0  0  0
   -3.0586   11.8408   12.6319 C   0  0  0  0  0  0  0  0  0  0  0  0
   -4.0402   11.3634   13.1992 O   0  0  0  0  0  0  0  0  0  0  0  0
   -2.4927   13.0527   12.9505 N   0  0  0  0  0  0  0  0  0  0  0  0
   -2.9805   13.9101   14.0039 C   0  0  0  0  0  0  0  0  0  0  0  0
   -2.8416    9.8598   11.1009 C   0  0  0  0  0  0  0  0  0  0  0  0
   -2.1003    6.1151    8.2854 C   0  0  0  0  0  0  0  0  0  0  0  0
   -1.1927    5.1883    7.7400 C   0  0  0  0  0  0  0  0  0  0  0  0
    2.4537    2.3846    6.2151 N   0  0  0  0  0  0  0  0  0  0  0  0
    3.1883    1.4662    5.5755 C   0  0  0  0  0  0  0  0  0  0  0  0
    4.3969    1.0117    5.9474 N   0  0  0  0  0  0  0  0  0  0  0  0
    7.2013    0.6221    6.5034 C   0  0  0  0  0  0  0  0  0  0  0  0
    8.4963    0.2279    6.8591 C   0  0  0  0  0  0  0  0  0  0  0  0
   11.4677   -1.8521    9.1977 H   0  0  0  0  0  0  0  0  0  0  0  0
   10.1701   -2.2468    8.0571 H   0  0  0  0  0  0  0  0  0  0  0  0
    9.7857   -1.9021    9.7506 H   0  0  0  0  0  0  0  0  0  0  0  0
   10.9890    0.1181    7.7707 H   0  0  0  0  0  0  0  0  0  0  0  0
   10.6129    0.4584    9.4461 H   0  0  0  0  0  0  0  0  0  0  0  0
    8.2363    0.5458   10.2322 H   0  0  0  0  0  0  0  0  0  0  0  0
    5.9770    1.2169    9.6204 H   0  0  0  0  0  0  0  0  0  0  0  0
    4.6946    2.9330    8.6959 H   0  0  0  0  0  0  0  0  0  0  0  0
    0.7120    3.6602    6.8198 H   0  0  0  0  0  0  0  0  0  0  0  0
    1.5929    6.2039    9.4079 H   0  0  0  0  0  0  0  0  0  0  0  0
    0.0208    7.6996   10.4213 H   0  0  0  0  0  0  0  0  0  0  0  0
   -0.6278    9.4724    8.5500 H   0  0  0  0  0  0  0  0  0  0  0  0
    0.1301   11.6352    9.4701 H   0  0  0  0  0  0  0  0  0  0  0  0
   -1.6795   13.3271   12.4065 H   0  0  0  0  0  0  0  0  0  0  0  0
   -3.8716   13.4946   14.4805 H   0  0  0  0  0  0  0  0  0  0  0  0
   -3.2127   14.8869   13.5752 H   0  0  0  0  0  0  0  0  0  0  0  0
   -2.1871   14.0264   14.7470 H   0  0  0  0  0  0  0  0  0  0  0  0
   -3.6874    9.3921   11.5971 H   0  0  0  0  0  0  0  0  0  0  0  0
   -3.1423    6.0967    7.9739 H   0  0  0  0  0  0  0  0  0  0  0  0
   -1.5570    4.4620    7.0184 H   0  0  0  0  0  0  0  0  0  0  0  0
    2.7735    1.0470    4.6649 H   0  0  0  0  0  0  0  0  0  0  0  0
    6.9303    0.6352    5.4488 H   0  0  0  0  0  0  0  0  0  0  0  0
    9.1940   -0.0635    6.0768 H   0  0  0  0  0  0  0  0  0  0  0  0
  1  2  1  0  0  0  0
  1 35  1  0  0  0  0
  1 36  1  0  0  0  0
  1 37  1  0  0  0  0
  2  3  1  0  0  0  0
  2 38  1  0  0  0  0
  2 39  1  0  0  0  0
  3  4  1  0  0  0  0
  3 34  2  0  0  0  0
  4  5  2  0  0  0  0
  4 40  1  0  0  0  0
  5  6  1  0  0  0  0
  5 41  1  0  0  0  0
  6  7  1  0  0  0  0
  6 33  2  0  0  0  0
  7  8  1  0  0  0  0
  7 32  2  0  0  0  0
  8  9  2  0  0  0  0
  8 42  1  0  0  0  0
  9 10  1  0  0  0  0
  9 30  1  0  0  0  0
 10 11  2  0  0  0  0
 10 12  1  0  0  0  0
 12 13  1  0  0  0  0
 12 43  1  0  0  0  0
 13 14  1  0  0  0  0
 13 29  2  0  0  0  0
 14 15  2  0  0  0  0
 14 44  1  0  0  0  0
 15 16  1  0  0  0  0
 15 45  1  0  0  0  0
 16 17  1  0  0  0  0
 16 28  2  0  0  0  0
 17 18  1  0  0  0  0
 18 19  1  0  0  0  0
 18 27  2  0  0  0  0
 19 20  2  0  0  0  0
 19 46  1  0  0  0  0
 20 21  1  0  0  0  0
 20 47  1  0  0  0  0
 21 22  2  0  0  0  0
 22 23  1  0  0  0  0
 22 27  1  0  0  0  0
 23 24  2  0  0  0  0
 23 25  1  0  0  0  0
 25 26  1  0  0  0  0
 25 48  1  0  0  0  0
 26 49  1  0  0  0  0
 26 50  1  0  0  0  0
 26 51  1  0  0  0  0
 27 52  1  0  0  0  0
 28 29  1  0  0  0  0
 28 53  1  0  0  0  0
 29 54  1  0  0  0  0
 30 31  2  0  0  0  0
 31 32  1  0  0  0  0
 31 55  1  0  0  0  0
 33 34  1  0  0  0  0
 33 56  1  0  0  0  0
 34 57  1  0  0  0  0
M  END
$$$$
