CHEMBL86531
 OpenBabel04072215383D

 50 53  0  0  0  0  0  0  0  0999 V2000
    1.4049    0.3342   -0.2997 N   0  0  0  0  0  0  0  0  0  0  0  0
    3.0450    0.1785    0.0241 S   0  0  0  0  0  0  0  0  0  0  0  0
    3.4667   -1.0724   -0.5643 O   0  0  0  0  0  0  0  0  0  0  0  0
    3.6313    1.4485   -0.3343 O   0  0  0  0  0  0  0  0  0  0  0  0
    3.0741    0.0094    1.7872 C   0  0  0  0  0  0  0  0  0  0  0  0
    2.3733   -1.0660    2.3692 C   0  0  0  0  0  0  0  0  0  0  0  0
    2.3797   -1.2312    3.7534 C   0  0  0  0  0  0  0  0  0  0  0  0
    3.0911   -0.3111    4.5021 C   0  0  0  0  0  0  0  0  0  0  0  0
    3.7806    0.7729    3.9411 C   0  0  0  0  0  0  0  0  0  0  0  0
    3.7811    0.9468    2.5664 C   0  0  0  0  0  0  0  0  0  0  0  0
    4.3953    1.4947    5.0740 C   0  0  0  0  0  0  0  0  0  0  0  0
    5.1015    2.6379    5.0135 C   0  0  0  0  0  0  0  0  0  0  0  0
    5.6297    3.2900    6.1608 C   0  0  0  0  0  0  0  0  0  0  0  0
    6.8942    2.9378    6.5761 N   0  0  0  0  0  0  0  0  0  0  0  0
    7.2185    3.6404    7.7022 C   0  0  0  0  0  0  0  0  0  0  0  0
    6.1572    4.4584    8.0318 C   0  0  0  0  0  0  0  0  0  0  0  0
    5.1416    4.2556    7.0390 C   0  0  0  0  0  0  0  0  0  0  0  0
    3.7789    4.8872    6.9963 C   0  0  0  0  0  0  0  0  0  0  0  0
    3.8233    6.4035    6.8320 C   0  0  0  0  0  0  0  0  0  0  0  0
    2.4386    6.9912    6.7378 C   0  0  0  0  0  0  0  0  0  0  0  0
    1.3943    6.3604    6.7460 O   0  0  0  0  0  0  0  0  0  0  0  0
    2.4634    8.3427    6.6407 O   0  0  0  0  0  0  0  0  0  0  0  0
    6.1638    5.2865    9.2806 C   0  0  0  0  0  0  0  0  0  0  0  0
    7.5726    5.3859    9.9001 C   0  0  0  0  0  0  0  0  0  0  0  0
    8.3135    4.0390    9.8882 C   0  0  0  0  0  0  0  0  0  0  0  0
    8.4951    3.5020    8.4574 C   0  0  0  0  0  0  0  0  0  0  0  0
    4.0492    0.7102    6.3216 C   0  0  0  0  0  0  0  0  0  0  0  0
    4.4011    0.8944    7.4701 O   0  0  0  0  0  0  0  0  0  0  0  0
    3.2474   -0.3299    5.8807 N   0  0  0  0  0  0  0  0  0  0  0  0
    1.1439   -0.3011   -1.0562 H   0  0  0  0  0  0  0  0  0  0  0  0
    1.1707    1.3086   -0.4928 H   0  0  0  0  0  0  0  0  0  0  0  0
    1.8299   -1.7706    1.7424 H   0  0  0  0  0  0  0  0  0  0  0  0
    1.8502   -2.0556    4.2175 H   0  0  0  0  0  0  0  0  0  0  0  0
    4.3139    1.7707    2.1013 H   0  0  0  0  0  0  0  0  0  0  0  0
    5.2687    3.1268    4.0580 H   0  0  0  0  0  0  0  0  0  0  0  0
    7.4723    2.2286    6.1466 H   0  0  0  0  0  0  0  0  0  0  0  0
    3.2370    4.6216    7.9127 H   0  0  0  0  0  0  0  0  0  0  0  0
    3.2016    4.4563    6.1683 H   0  0  0  0  0  0  0  0  0  0  0  0
    4.3778    6.6721    5.9261 H   0  0  0  0  0  0  0  0  0  0  0  0
    4.3120    6.8687    7.6920 H   0  0  0  0  0  0  0  0  0  0  0  0
    3.3643    8.7188    6.6504 H   0  0  0  0  0  0  0  0  0  0  0  0
    5.4820    4.8287   10.0076 H   0  0  0  0  0  0  0  0  0  0  0  0
    5.8044    6.2999    9.0864 H   0  0  0  0  0  0  0  0  0  0  0  0
    7.4934    5.7607   10.9274 H   0  0  0  0  0  0  0  0  0  0  0  0
    8.1657    6.1211    9.3404 H   0  0  0  0  0  0  0  0  0  0  0  0
    7.7445    3.3148   10.4854 H   0  0  0  0  0  0  0  0  0  0  0  0
    9.2936    4.1476   10.3669 H   0  0  0  0  0  0  0  0  0  0  0  0
    8.8249    2.4584    8.4926 H   0  0  0  0  0  0  0  0  0  0  0  0
    9.2743    4.0822    7.9486 H   0  0  0  0  0  0  0  0  0  0  0  0
    2.8719   -1.0204    6.5123 H   0  0  0  0  0  0  0  0  0  0  0  0
  1  2  1  0  0  0  0
  1 30  1  0  0  0  0
  1 31  1  0  0  0  0
  2  3  2  0  0  0  0
  2  4  2  0  0  0  0
  2  5  1  0  0  0  0
  5  6  1  0  0  0  0
  5 10  2  0  0  0  0
  6  7  2  0  0  0  0
  6 32  1  0  0  0  0
  7  8  1  0  0  0  0
  7 33  1  0  0  0  0
  8  9  2  0  0  0  0
  8 29  1  0  0  0  0
  9 10  1  0  0  0  0
  9 11  1  0  0  0  0
 10 34  1  0  0  0  0
 11 12  2  0  0  0  0
 11 27  1  0  0  0  0
 12 13  1  0  0  0  0
 12 35  1  0  0  0  0
 13 14  1  0  0  0  0
 13 17  2  0  0  0  0
 14 15  1  0  0  0  0
 14 36  1  0  0  0  0
 15 16  2  0  0  0  0
 15 26  1  0  0  0  0
 16 17  1  0  0  0  0
 16 23  1  0  0  0  0
 17 18  1  0  0  0  0
 18 19  1  0  0  0  0
 18 37  1  0  0  0  0
 18 38  1  0  0  0  0
 19 20  1  0  0  0  0
 19 39  1  0  0  0  0
 19 40  1  0  0  0  0
 20 21  2  0  0  0  0
 20 22  1  0  0  0  0
 22 41  1  0  0  0  0
 23 24  1  0  0  0  0
 23 42  1  0  0  0  0
 23 43  1  0  0  0  0
 24 25  1  0  0  0  0
 24 44  1  0  0  0  0
 24 45  1  0  0  0  0
 25 26  1  0  0  0  0
 25 46  1  0  0  0  0
 25 47  1  0  0  0  0
 26 48  1  0  0  0  0
 26 49  1  0  0  0  0
 27 28  2  0  0  0  0
 27 29  1  0  0  0  0
 29 50  1  0  0  0  0
M  END
$$$$
