CHEMBL371329
 OpenBabel04072215373D

 47 50  0  0  0  0  0  0  0  0999 V2000
    2.3792   -0.4490    1.5425 C   0  0  0  0  0  0  0  0  0  0  0  0
    0.8836   -0.3272    1.5259 C   0  0  0  0  0  0  0  0  0  0  0  0
    0.2780    0.8572    1.9605 C   0  0  0  0  0  0  0  0  0  0  0  0
   -1.1048    0.9731    1.9629 C   0  0  0  0  0  0  0  0  0  0  0  0
   -1.8919   -0.0917    1.5242 C   0  0  0  0  0  0  0  0  0  0  0  0
   -1.3173   -1.2812    1.0631 C   0  0  0  0  0  0  0  0  0  0  0  0
   -2.0815   -2.3857    0.6027 N   0  0  0  0  0  0  0  0  0  0  0  0
   -3.4507   -2.3790    0.4022 C   0  0  0  0  0  0  0  0  0  0  0  0
   -4.1602   -1.3837    0.4988 O   0  0  0  0  0  0  0  0  0  0  0  0
   -3.9575   -3.6425    0.1094 N   0  0  0  0  0  0  0  0  0  0  0  0
   -5.3476   -3.8107   -0.1216 C   0  0  0  0  0  0  0  0  0  0  0  0
   -6.0825   -2.8435   -0.8085 C   0  0  0  0  0  0  0  0  0  0  0  0
   -7.4767   -2.8870   -0.8289 C   0  0  0  0  0  0  0  0  0  0  0  0
   -8.1743   -3.9549   -0.2541 C   0  0  0  0  0  0  0  0  0  0  0  0
   -9.6505   -3.9572   -0.2181 C   0  0  0  0  0  0  0  0  0  0  0  0
  -10.4119   -3.5706   -1.3247 C   0  0  0  0  0  0  0  0  0  0  0  0
  -10.0333   -3.1308   -2.7078 C   0  0  0  0  0  0  0  0  0  0  0  0
  -12.0937   -3.6155   -0.9987 S   0  0  0  0  0  0  0  0  0  0  0  0
  -11.8522   -4.1764    0.5764 C   0  0  0  0  0  0  0  0  0  0  0  0
  -12.9252   -4.4232    1.3419 N   0  0  0  0  0  0  0  0  0  0  0  0
  -12.5913   -4.8518    2.5615 C   0  0  0  0  0  0  0  0  0  0  0  0
  -11.3582   -5.0138    3.0440 N   0  0  0  0  0  0  0  0  0  0  0  0
  -10.3009   -4.7407    2.2529 C   0  0  0  0  0  0  0  0  0  0  0  0
   -9.0700   -4.9136    2.8665 N   0  0  0  0  0  0  0  0  0  0  0  0
  -10.5132   -4.3133    0.9174 C   0  0  0  0  0  0  0  0  0  0  0  0
   -7.4188   -4.9916    0.3156 C   0  0  0  0  0  0  0  0  0  0  0  0
   -6.0164   -4.9141    0.4032 C   0  0  0  0  0  0  0  0  0  0  0  0
    0.0792   -1.3928    1.0761 C   0  0  0  0  0  0  0  0  0  0  0  0
    2.8459    0.4574    1.9469 H   0  0  0  0  0  0  0  0  0  0  0  0
    2.7584   -0.5981    0.5285 H   0  0  0  0  0  0  0  0  0  0  0  0
    2.6809   -1.2870    2.1773 H   0  0  0  0  0  0  0  0  0  0  0  0
    0.8758    1.6941    2.3100 H   0  0  0  0  0  0  0  0  0  0  0  0
   -1.5831    1.8882    2.3033 H   0  0  0  0  0  0  0  0  0  0  0  0
   -2.9647    0.0580    1.5629 H   0  0  0  0  0  0  0  0  0  0  0  0
   -1.5731   -3.1874    0.2605 H   0  0  0  0  0  0  0  0  0  0  0  0
   -3.4713   -4.4126    0.5462 H   0  0  0  0  0  0  0  0  0  0  0  0
   -5.5840   -2.0056   -1.2918 H   0  0  0  0  0  0  0  0  0  0  0  0
   -7.9956   -2.0477   -1.2837 H   0  0  0  0  0  0  0  0  0  0  0  0
   -8.9820   -3.3033   -2.9436 H   0  0  0  0  0  0  0  0  0  0  0  0
  -10.2404   -2.0608   -2.8315 H   0  0  0  0  0  0  0  0  0  0  0  0
  -10.6121   -3.6774   -3.4605 H   0  0  0  0  0  0  0  0  0  0  0  0
  -13.4135   -5.0772    3.2339 H   0  0  0  0  0  0  0  0  0  0  0  0
   -9.2109   -5.0339    3.8640 H   0  0  0  0  0  0  0  0  0  0  0  0
   -8.3910   -4.2081    2.6123 H   0  0  0  0  0  0  0  0  0  0  0  0
   -7.9145   -5.8549    0.7565 H   0  0  0  0  0  0  0  0  0  0  0  0
   -5.4824   -5.6866    0.9493 H   0  0  0  0  0  0  0  0  0  0  0  0
    0.5615   -2.3045    0.7334 H   0  0  0  0  0  0  0  0  0  0  0  0
  1  2  1  0  0  0  0
  1 29  1  0  0  0  0
  1 30  1  0  0  0  0
  1 31  1  0  0  0  0
  2  3  1  0  0  0  0
  2 28  2  0  0  0  0
  3  4  2  0  0  0  0
  3 32  1  0  0  0  0
  4  5  1  0  0  0  0
  4 33  1  0  0  0  0
  5  6  2  0  0  0  0
  5 34  1  0  0  0  0
  6  7  1  0  0  0  0
  6 28  1  0  0  0  0
  7  8  1  0  0  0  0
  7 35  1  0  0  0  0
  8  9  2  0  0  0  0
  8 10  1  0  0  0  0
 10 11  1  0  0  0  0
 10 36  1  0  0  0  0
 11 12  1  0  0  0  0
 11 27  2  0  0  0  0
 12 13  2  0  0  0  0
 12 37  1  0  0  0  0
 13 14  1  0  0  0  0
 13 38  1  0  0  0  0
 14 15  1  0  0  0  0
 14 26  2  0  0  0  0
 15 16  2  0  0  0  0
 15 25  1  0  0  0  0
 16 17  1  0  0  0  0
 16 18  1  0  0  0  0
 17 39  1  0  0  0  0
 17 40  1  0  0  0  0
 17 41  1  0  0  0  0
 18 19  1  0  0  0  0
 19 20  1  0  0  0  0
 19 25  2  0  0  0  0
 20 21  2  0  0  0  0
 21 22  1  0  0  0  0
 21 42  1  0  0  0  0
 22 23  2  0  0  0  0
 23 24  1  0  0  0  0
 23 25  1  0  0  0  0
 24 43  1  0  0  0  0
 24 44  1  0  0  0  0
 26 27  1  0  0  0  0
 26 45  1  0  0  0  0
 27 46  1  0  0  0  0
 28 47  1  0  0  0  0
M  END
$$$$
