CHEMBL206136
 OpenBabel04072215363D

 48 52  0  0  0  0  0  0  0  0999 V2000
    0.7161    1.3247    0.0465 C   0  0  0  0  0  0  0  0  0  0  0  0
   -0.6465    1.1484    0.1296 C   0  0  0  0  0  0  0  0  0  0  0  0
   -1.2389   -0.0638    0.1571 N   0  0  0  0  0  0  0  0  0  0  0  0
   -0.4543   -1.1806    0.0807 C   0  0  0  0  0  0  0  0  0  0  0  0
   -1.2509   -2.4667    0.0601 C   0  0  0  0  0  0  0  0  0  0  0  0
   -1.0645   -3.4698    1.2098 C   0  0  0  0  0  0  0  0  0  0  0  0
   -1.2502   -3.0139    2.6361 C   0  0  0  0  0  0  0  0  0  0  0  0
   -2.1716   -2.0415    3.0212 C   0  0  0  0  0  0  0  0  0  0  0  0
   -2.3164   -1.7596    4.3736 C   0  0  0  0  0  0  0  0  0  0  0  0
   -1.6244   -2.3736    5.3554 N   0  0  0  0  0  0  0  0  0  0  0  0
   -0.7456   -3.3226    4.9691 C   0  0  0  0  0  0  0  0  0  0  0  0
   -0.5324   -3.6713    3.6463 C   0  0  0  0  0  0  0  0  0  0  0  0
    0.9422   -1.0971   -0.0338 C   0  0  0  0  0  0  0  0  0  0  0  0
    1.8153   -2.2532   -0.1617 C   0  0  0  0  0  0  0  0  0  0  0  0
    1.5618   -3.5034   -0.4775 N   0  0  0  0  0  0  0  0  0  0  0  0
    2.7358   -4.1974   -0.2930 N   0  0  0  0  0  0  0  0  0  0  0  0
    3.6429   -3.3211    0.0800 C   0  0  0  0  0  0  0  0  0  0  0  0
    4.9232   -3.4366    0.4699 N   0  0  0  0  0  0  0  0  0  0  0  0
    5.5028   -4.5672    1.0698 C   0  0  0  0  0  0  0  0  0  0  0  0
    6.7593   -4.4768    1.6688 C   0  0  0  0  0  0  0  0  0  0  0  0
    7.4358   -5.5046    2.2348 N   0  0  0  0  0  0  0  0  0  0  0  0
    6.8576   -6.7157    2.2126 C   0  0  0  0  0  0  0  0  0  0  0  0
    7.5403   -7.8118    2.7174 C   0  0  0  0  0  0  0  0  0  0  0  0
    6.9879   -9.0955    2.6918 C   0  0  0  0  0  0  0  0  0  0  0  0
    5.7054   -9.2901    2.1867 C   0  0  0  0  0  0  0  0  0  0  0  0
    4.9969   -8.2056    1.6802 C   0  0  0  0  0  0  0  0  0  0  0  0
    5.5770   -6.9257    1.6649 C   0  0  0  0  0  0  0  0  0  0  0  0
    4.9169   -5.8326    1.0859 C   0  0  0  0  0  0  0  0  0  0  0  0
    3.1400   -2.0529    0.1375 O   0  0  0  0  0  0  0  0  0  0  0  0
    1.5139    0.1905   -0.0303 C   0  0  0  0  0  0  0  0  0  0  0  0
    1.1512    2.3176    0.0313 H   0  0  0  0  0  0  0  0  0  0  0  0
   -1.3213    1.9980    0.1697 H   0  0  0  0  0  0  0  0  0  0  0  0
   -1.0500   -2.9754   -0.8915 H   0  0  0  0  0  0  0  0  0  0  0  0
   -2.3173   -2.2047    0.0127 H   0  0  0  0  0  0  0  0  0  0  0  0
   -0.0773   -3.9283    1.1375 H   0  0  0  0  0  0  0  0  0  0  0  0
   -1.7773   -4.2897    1.0462 H   0  0  0  0  0  0  0  0  0  0  0  0
   -2.7822   -1.5096    2.2971 H   0  0  0  0  0  0  0  0  0  0  0  0
   -3.0291   -1.0132    4.7138 H   0  0  0  0  0  0  0  0  0  0  0  0
   -0.2110   -3.8136    5.7717 H   0  0  0  0  0  0  0  0  0  0  0  0
    0.1784   -4.4579    3.4092 H   0  0  0  0  0  0  0  0  0  0  0  0
    5.4080   -2.5681    0.6577 H   0  0  0  0  0  0  0  0  0  0  0  0
    7.2872   -3.5276    1.7208 H   0  0  0  0  0  0  0  0  0  0  0  0
    8.5383   -7.6646    3.1230 H   0  0  0  0  0  0  0  0  0  0  0  0
    7.5626   -9.9394    3.0638 H   0  0  0  0  0  0  0  0  0  0  0  0
    5.2668  -10.2834    2.1765 H   0  0  0  0  0  0  0  0  0  0  0  0
    3.9961   -8.3634    1.2831 H   0  0  0  0  0  0  0  0  0  0  0  0
    3.9463   -6.0026    0.6303 H   0  0  0  0  0  0  0  0  0  0  0  0
    2.5910    0.3215   -0.1054 H   0  0  0  0  0  0  0  0  0  0  0  0
  1  2  1  0  0  0  0
  1 30  2  0  0  0  0
  1 31  1  0  0  0  0
  2  3  2  0  0  0  0
  2 32  1  0  0  0  0
  3  4  1  0  0  0  0
  4  5  1  0  0  0  0
  4 13  2  0  0  0  0
  5  6  1  0  0  0  0
  5 33  1  0  0  0  0
  5 34  1  0  0  0  0
  6  7  1  0  0  0  0
  6 35  1  0  0  0  0
  6 36  1  0  0  0  0
  7  8  1  0  0  0  0
  7 12  2  0  0  0  0
  8  9  2  0  0  0  0
  8 37  1  0  0  0  0
  9 10  1  0  0  0  0
  9 38  1  0  0  0  0
 10 11  2  0  0  0  0
 11 12  1  0  0  0  0
 11 39  1  0  0  0  0
 12 40  1  0  0  0  0
 13 14  1  0  0  0  0
 13 30  1  0  0  0  0
 14 15  2  0  0  0  0
 14 29  1  0  0  0  0
 15 16  1  0  0  0  0
 16 17  2  0  0  0  0
 17 18  1  0  0  0  0
 17 29  1  0  0  0  0
 18 19  1  0  0  0  0
 18 41  1  0  0  0  0
 19 20  1  0  0  0  0
 19 28  2  0  0  0  0
 20 21  2  0  0  0  0
 20 42  1  0  0  0  0
 21 22  1  0  0  0  0
 22 23  1  0  0  0  0
 22 27  2  0  0  0  0
 23 24  2  0  0  0  0
 23 43  1  0  0  0  0
 24 25  1  0  0  0  0
 24 44  1  0  0  0  0
 25 26  2  0  0  0  0
 25 45  1  0  0  0  0
 26 27  1  0  0  0  0
 26 46  1  0  0  0  0
 27 28  1  0  0  0  0
 28 47  1  0  0  0  0
 30 48  1  0  0  0  0
M  END
$$$$
