CHEMBL436968
 OpenBabel04072215383D

 61 65  0  0  0  0  0  0  0  0999 V2000
    1.3353    0.0444   -0.3629 C   0  0  0  0  0  0  0  0  0  0  0  0
    2.2334    0.6737    0.7051 C   0  0  0  0  0  0  0  0  0  0  0  0
    2.7391   -0.4335    1.6297 C   0  0  0  0  0  0  0  0  0  0  0  0
    3.2086    1.4716    0.0236 O   0  0  0  0  0  0  0  0  0  0  0  0
    4.4737    1.6682    0.5085 C   0  0  0  0  0  0  0  0  0  0  0  0
    5.4411    1.4015   -0.4770 C   0  0  0  0  0  0  0  0  0  0  0  0
    6.7915    1.5165   -0.1945 C   0  0  0  0  0  0  0  0  0  0  0  0
    7.6572    1.1125   -1.1709 O   0  0  0  0  0  0  0  0  0  0  0  0
    8.9242    0.6118   -0.7150 C   0  0  0  0  0  0  0  0  0  0  0  0
    9.1838   -0.7618   -1.3515 C   0  0  0  0  0  0  0  0  0  0  0  0
   10.4022   -1.4274   -0.8461 N   0  0  0  0  0  0  0  0  0  0  0  0
   11.6464   -0.6797   -1.1300 C   0  0  0  0  0  0  0  0  0  0  0  0
   12.0180   -0.6595   -2.6202 C   0  0  0  0  0  0  0  0  0  0  0  0
   12.1467   -1.9890   -3.1408 O   0  0  0  0  0  0  0  0  0  0  0  0
   10.9521   -2.7527   -2.9246 C   0  0  0  0  0  0  0  0  0  0  0  0
   10.5542   -2.7771   -1.4376 C   0  0  0  0  0  0  0  0  0  0  0  0
    7.1715    2.0331    1.0365 C   0  0  0  0  0  0  0  0  0  0  0  0
    6.2474    2.3419    2.0166 C   0  0  0  0  0  0  0  0  0  0  0  0
    6.7876    2.7887    3.1530 N   0  0  0  0  0  0  0  0  0  0  0  0
    5.9527    3.0916    4.1408 C   0  0  0  0  0  0  0  0  0  0  0  0
    4.6306    3.0128    4.0902 N   0  0  0  0  0  0  0  0  0  0  0  0
    4.0913    2.5582    2.9468 C   0  0  0  0  0  0  0  0  0  0  0  0
    2.6923    2.4929    2.9061 N   0  0  0  0  0  0  0  0  0  0  0  0
    1.7399    2.2681    3.9258 C   0  0  0  0  0  0  0  0  0  0  0  0
    1.8818    1.4634    5.0761 C   0  0  0  0  0  0  0  0  0  0  0  0
    3.3156    0.5668    5.4503 Cl  0  0  0  0  0  0  0  0  0  0  0  0
    0.7900    1.2459    5.9554 C   0  0  0  0  0  0  0  0  0  0  0  0
   -0.4703    1.7881    5.6962 C   0  0  0  0  0  0  0  0  0  0  0  0
   -0.6087    2.5332    4.5513 C   0  0  0  0  0  0  0  0  0  0  0  0
    0.4532    2.7597    3.7046 C   0  0  0  0  0  0  0  0  0  0  0  0
    0.0832    3.4891    2.6064 O   0  0  0  0  0  0  0  0  0  0  0  0
   -1.3151    3.7084    2.8804 C   0  0  0  0  0  0  0  0  0  0  0  0
   -1.7632    3.0925    4.1039 O   0  0  0  0  0  0  0  0  0  0  0  0
    4.8658    2.1746    1.8019 C   0  0  0  0  0  0  0  0  0  0  0  0
    0.4032   -0.3142    0.0879 H   0  0  0  0  0  0  0  0  0  0  0  0
    1.8307   -0.8035   -0.8467 H   0  0  0  0  0  0  0  0  0  0  0  0
    1.0876    0.7674   -1.1467 H   0  0  0  0  0  0  0  0  0  0  0  0
    1.5734    1.3595    1.2332 H   0  0  0  0  0  0  0  0  0  0  0  0
    3.3057   -1.1860    1.0805 H   0  0  0  0  0  0  0  0  0  0  0  0
    1.8914   -0.9219    2.1252 H   0  0  0  0  0  0  0  0  0  0  0  0
    3.3975   -0.0656    2.4186 H   0  0  0  0  0  0  0  0  0  0  0  0
    5.1302    1.0725   -1.4679 H   0  0  0  0  0  0  0  0  0  0  0  0
    8.9808    0.4804    0.3704 H   0  0  0  0  0  0  0  0  0  0  0  0
    9.6830    1.3384   -1.0220 H   0  0  0  0  0  0  0  0  0  0  0  0
    9.1772   -0.6551   -2.4419 H   0  0  0  0  0  0  0  0  0  0  0  0
    8.3181   -1.3958   -1.1156 H   0  0  0  0  0  0  0  0  0  0  0  0
   12.4578   -1.1730   -0.5769 H   0  0  0  0  0  0  0  0  0  0  0  0
   11.6021    0.3376   -0.7289 H   0  0  0  0  0  0  0  0  0  0  0  0
   12.9839   -0.1610   -2.7495 H   0  0  0  0  0  0  0  0  0  0  0  0
   11.2825   -0.1050   -3.2139 H   0  0  0  0  0  0  0  0  0  0  0  0
   11.1496   -3.7729   -3.2674 H   0  0  0  0  0  0  0  0  0  0  0  0
   10.1492   -2.3494   -3.5516 H   0  0  0  0  0  0  0  0  0  0  0  0
   11.3430   -3.2953   -0.8758 H   0  0  0  0  0  0  0  0  0  0  0  0
    9.6419   -3.3672   -1.2929 H   0  0  0  0  0  0  0  0  0  0  0  0
    8.2188    2.2109    1.2619 H   0  0  0  0  0  0  0  0  0  0  0  0
    6.3935    3.4335    5.0719 H   0  0  0  0  0  0  0  0  0  0  0  0
    2.3470    3.1465    2.2055 H   0  0  0  0  0  0  0  0  0  0  0  0
    0.9192    0.6159    6.8342 H   0  0  0  0  0  0  0  0  0  0  0  0
   -1.3124    1.6035    6.3542 H   0  0  0  0  0  0  0  0  0  0  0  0
   -1.9010    3.3039    2.0469 H   0  0  0  0  0  0  0  0  0  0  0  0
   -1.4908    4.7874    2.9453 H   0  0  0  0  0  0  0  0  0  0  0  0
  1  2  1  0  0  0  0
  1 35  1  0  0  0  0
  1 36  1  0  0  0  0
  1 37  1  0  0  0  0
  2  3  1  0  0  0  0
  2  4  1  0  0  0  0
  2 38  1  0  0  0  0
  3 39  1  0  0  0  0
  3 40  1  0  0  0  0
  3 41  1  0  0  0  0
  4  5  1  0  0  0  0
  5  6  1  0  0  0  0
  5 34  2  0  0  0  0
  6  7  2  0  0  0  0
  6 42  1  0  0  0  0
  7  8  1  0  0  0  0
  7 17  1  0  0  0  0
  8  9  1  0  0  0  0
  9 10  1  0  0  0  0
  9 43  1  0  0  0  0
  9 44  1  0  0  0  0
 10 11  1  0  0  0  0
 10 45  1  0  0  0  0
 10 46  1  0  0  0  0
 11 12  1  0  0  0  0
 11 16  1  0  0  0  0
 12 13  1  0  0  0  0
 12 47  1  0  0  0  0
 12 48  1  0  0  0  0
 13 14  1  0  0  0  0
 13 49  1  0  0  0  0
 13 50  1  0  0  0  0
 14 15  1  0  0  0  0
 15 16  1  0  0  0  0
 15 51  1  0  0  0  0
 15 52  1  0  0  0  0
 16 53  1  0  0  0  0
 16 54  1  0  0  0  0
 17 18  2  0  0  0  0
 17 55  1  0  0  0  0
 18 19  1  0  0  0  0
 18 34  1  0  0  0  0
 19 20  2  0  0  0  0
 20 21  1  0  0  0  0
 20 56  1  0  0  0  0
 21 22  2  0  0  0  0
 22 23  1  0  0  0  0
 22 34  1  0  0  0  0
 23 24  1  0  0  0  0
 23 57  1  0  0  0  0
 24 25  1  0  0  0  0
 24 30  2  0  0  0  0
 25 26  1  0  0  0  0
 25 27  2  0  0  0  0
 27 28  1  0  0  0  0
 27 58  1  0  0  0  0
 28 29  2  0  0  0  0
 28 59  1  0  0  0  0
 29 30  1  0  0  0  0
 29 33  1  0  0  0  0
 30 31  1  0  0  0  0
 31 32  1  0  0  0  0
 32 33  1  0  0  0  0
 32 60  1  0  0  0  0
 32 61  1  0  0  0  0
M  END
$$$$
