CHEMBL1970340
 OpenBabel04072215363D

 27 29  0  0  0  0  0  0  0  0999 V2000
   -2.4223    1.4271   -0.1471 N   0  0  0  0  0  0  0  0  0  0  0  0
   -1.5369    0.4166   -0.0704 C   0  0  0  0  0  0  0  0  0  0  0  0
   -1.9341   -0.8575   -0.0551 N   0  0  0  0  0  0  0  0  0  0  0  0
   -0.7831   -1.6112   -0.0307 O   0  0  0  0  0  0  0  0  0  0  0  0
    0.2972   -0.7908   -0.0104 C   0  0  0  0  0  0  0  0  0  0  0  0
    1.6139   -1.2378   -0.0025 C   0  0  0  0  0  0  0  0  0  0  0  0
    2.5972   -0.2558    0.0210 C   0  0  0  0  0  0  0  0  0  0  0  0
    2.2497    1.0968    0.0550 C   0  0  0  0  0  0  0  0  0  0  0  0
    0.9010    1.5461    0.0499 C   0  0  0  0  0  0  0  0  0  0  0  0
    0.5955    2.9959    0.0952 C   0  0  0  0  0  0  0  0  0  0  0  0
    1.3725    3.9304   -0.6212 C   0  0  0  0  0  0  0  0  0  0  0  0
    1.0810    5.3006   -0.6038 C   0  0  0  0  0  0  0  0  0  0  0  0
   -0.0250    5.7688    0.0976 C   0  0  0  0  0  0  0  0  0  0  0  0
   -0.7915    4.8664    0.8201 C   0  0  0  0  0  0  0  0  0  0  0  0
   -1.9111    5.2623    1.4901 O   0  0  0  0  0  0  0  0  0  0  0  0
   -0.4567    3.5141    0.8666 C   0  0  0  0  0  0  0  0  0  0  0  0
   -0.1098    0.5358   -0.0046 C   0  0  0  0  0  0  0  0  0  0  0  0
   -3.3991    1.1914   -0.2835 H   0  0  0  0  0  0  0  0  0  0  0  0
   -2.1631    2.3384   -0.5058 H   0  0  0  0  0  0  0  0  0  0  0  0
    1.8540   -2.2950   -0.0170 H   0  0  0  0  0  0  0  0  0  0  0  0
    3.6461   -0.5441    0.0223 H   0  0  0  0  0  0  0  0  0  0  0  0
    3.0616    1.8225    0.1015 H   0  0  0  0  0  0  0  0  0  0  0  0
    2.2246    3.6010   -1.2135 H   0  0  0  0  0  0  0  0  0  0  0  0
    1.7125    5.9959   -1.1515 H   0  0  0  0  0  0  0  0  0  0  0  0
   -0.2647    6.8268    0.0774 H   0  0  0  0  0  0  0  0  0  0  0  0
   -2.0865    6.1945    1.2816 H   0  0  0  0  0  0  0  0  0  0  0  0
   -1.0529    2.8597    1.4989 H   0  0  0  0  0  0  0  0  0  0  0  0
  1  2  1  0  0  0  0
  1 18  1  0  0  0  0
  1 19  1  0  0  0  0
  2  3  2  0  0  0  0
  2 17  1  0  0  0  0
  3  4  1  0  0  0  0
  4  5  1  0  0  0  0
  5  6  1  0  0  0  0
  5 17  2  0  0  0  0
  6  7  2  0  0  0  0
  6 20  1  0  0  0  0
  7  8  1  0  0  0  0
  7 21  1  0  0  0  0
  8  9  2  0  0  0  0
  8 22  1  0  0  0  0
  9 10  1  0  0  0  0
  9 17  1  0  0  0  0
 10 11  1  0  0  0  0
 10 16  2  0  0  0  0
 11 12  2  0  0  0  0
 11 23  1  0  0  0  0
 12 13  1  0  0  0  0
 12 24  1  0  0  0  0
 13 14  2  0  0  0  0
 13 25  1  0  0  0  0
 14 15  1  0  0  0  0
 14 16  1  0  0  0  0
 15 26  1  0  0  0  0
 16 27  1  0  0  0  0
M  END
$$$$
