CHEMBL2018773
 OpenBabel04072215363D

 53 55  0  0  0  0  0  0  0  0999 V2000
    0.8860    0.6120    0.3492 C   0  0  0  0  0  0  0  0  0  0  0  0
    2.4042    0.5252    0.5040 C   0  0  0  0  0  0  0  0  0  0  0  0
    2.8778   -0.6189    1.3099 N   0  0  0  0  0  0  0  0  0  0  0  0
    2.3814   -1.9193    0.8393 C   0  0  0  0  0  0  0  0  0  0  0  0
    2.8728   -2.3775   -0.5300 C   0  0  0  0  0  0  0  0  0  0  0  0
    4.3506   -0.5564    1.4593 C   0  0  0  0  0  0  0  0  0  0  0  0
    4.9931   -1.6109    2.3901 C   0  0  0  0  0  0  0  0  0  0  0  0
    6.4009   -1.3383    2.4713 O   0  0  0  0  0  0  0  0  0  0  0  0
    7.0798   -1.7903    3.5737 C   0  0  0  0  0  0  0  0  0  0  0  0
    8.1995   -1.0048    3.8969 C   0  0  0  0  0  0  0  0  0  0  0  0
    9.0254   -1.3070    5.0145 C   0  0  0  0  0  0  0  0  0  0  0  0
   10.1140   -0.5514    5.4858 C   0  0  0  0  0  0  0  0  0  0  0  0
   10.4425    0.6945    4.8903 N   0  0  0  0  0  0  0  0  0  0  0  0
   11.2617    1.6581    5.5332 C   0  0  0  0  0  0  0  0  0  0  0  0
   11.0596    1.9868    6.8836 C   0  0  0  0  0  0  0  0  0  0  0  0
   11.9243    2.8570    7.5496 C   0  0  0  0  0  0  0  0  0  0  0  0
   12.9901    3.4279    6.8587 C   0  0  0  0  0  0  0  0  0  0  0  0
   14.1966    4.5537    7.7798 Br  0  0  0  0  0  0  0  0  0  0  0  0
   13.1812    3.1596    5.5047 C   0  0  0  0  0  0  0  0  0  0  0  0
   12.3118    2.2858    4.8545 C   0  0  0  0  0  0  0  0  0  0  0  0
   12.5175    2.0102    3.5573 F   0  0  0  0  0  0  0  0  0  0  0  0
   10.8438   -0.9436    6.5475 N   0  0  0  0  0  0  0  0  0  0  0  0
   10.4887   -2.0630    7.1640 C   0  0  0  0  0  0  0  0  0  0  0  0
    9.4529   -2.8325    6.8303 N   0  0  0  0  0  0  0  0  0  0  0  0
    8.7348   -2.4434    5.7728 C   0  0  0  0  0  0  0  0  0  0  0  0
    7.6377   -3.2158    5.4343 C   0  0  0  0  0  0  0  0  0  0  0  0
    6.7926   -2.9167    4.3548 C   0  0  0  0  0  0  0  0  0  0  0  0
    5.7448   -3.7259    4.0061 O   0  0  0  0  0  0  0  0  0  0  0  0
    5.2051   -4.5575    5.0332 C   0  0  0  0  0  0  0  0  0  0  0  0
    0.6052    1.5907   -0.0550 H   0  0  0  0  0  0  0  0  0  0  0  0
    0.3770    0.4905    1.3110 H   0  0  0  0  0  0  0  0  0  0  0  0
    0.5070   -0.1448   -0.3456 H   0  0  0  0  0  0  0  0  0  0  0  0
    2.7244    1.4520    0.9965 H   0  0  0  0  0  0  0  0  0  0  0  0
    2.8622    0.5270   -0.4927 H   0  0  0  0  0  0  0  0  0  0  0  0
    1.2852   -1.9108    0.8346 H   0  0  0  0  0  0  0  0  0  0  0  0
    2.6275   -2.6901    1.5790 H   0  0  0  0  0  0  0  0  0  0  0  0
    2.7423   -1.6090   -1.2972 H   0  0  0  0  0  0  0  0  0  0  0  0
    2.3021   -3.2558   -0.8500 H   0  0  0  0  0  0  0  0  0  0  0  0
    3.9290   -2.6615   -0.4990 H   0  0  0  0  0  0  0  0  0  0  0  0
    4.6147    0.4272    1.8736 H   0  0  0  0  0  0  0  0  0  0  0  0
    4.8442   -0.5944    0.4787 H   0  0  0  0  0  0  0  0  0  0  0  0
    4.8600   -2.6106    1.9649 H   0  0  0  0  0  0  0  0  0  0  0  0
    4.5222   -1.5448    3.3779 H   0  0  0  0  0  0  0  0  0  0  0  0
    8.4201   -0.1372    3.2786 H   0  0  0  0  0  0  0  0  0  0  0  0
   10.6985    0.5688    3.9138 H   0  0  0  0  0  0  0  0  0  0  0  0
   10.2394    1.5322    7.4351 H   0  0  0  0  0  0  0  0  0  0  0  0
   11.7652    3.0582    8.6058 H   0  0  0  0  0  0  0  0  0  0  0  0
   14.0019    3.6033    4.9529 H   0  0  0  0  0  0  0  0  0  0  0  0
   11.0833   -2.3755    8.0140 H   0  0  0  0  0  0  0  0  0  0  0  0
    7.4684   -4.0857    6.0590 H   0  0  0  0  0  0  0  0  0  0  0  0
    4.3674   -5.1196    4.6099 H   0  0  0  0  0  0  0  0  0  0  0  0
    4.8244   -3.9508    5.8620 H   0  0  0  0  0  0  0  0  0  0  0  0
    5.9307   -5.2967    5.3875 H   0  0  0  0  0  0  0  0  0  0  0  0
  1  2  1  0  0  0  0
  1 30  1  0  0  0  0
  1 31  1  0  0  0  0
  1 32  1  0  0  0  0
  2  3  1  0  0  0  0
  2 33  1  0  0  0  0
  2 34  1  0  0  0  0
  3  4  1  0  0  0  0
  3  6  1  0  0  0  0
  4  5  1  0  0  0  0
  4 35  1  0  0  0  0
  4 36  1  0  0  0  0
  5 37  1  0  0  0  0
  5 38  1  0  0  0  0
  5 39  1  0  0  0  0
  6  7  1  0  0  0  0
  6 40  1  0  0  0  0
  6 41  1  0  0  0  0
  7  8  1  0  0  0  0
  7 42  1  0  0  0  0
  7 43  1  0  0  0  0
  8  9  1  0  0  0  0
  9 10  1  0  0  0  0
  9 27  2  0  0  0  0
 10 11  2  0  0  0  0
 10 44  1  0  0  0  0
 11 12  1  0  0  0  0
 11 25  1  0  0  0  0
 12 13  1  0  0  0  0
 12 22  2  0  0  0  0
 13 14  1  0  0  0  0
 13 45  1  0  0  0  0
 14 15  1  0  0  0  0
 14 20  2  0  0  0  0
 15 16  2  0  0  0  0
 15 46  1  0  0  0  0
 16 17  1  0  0  0  0
 16 47  1  0  0  0  0
 17 18  1  0  0  0  0
 17 19  2  0  0  0  0
 19 20  1  0  0  0  0
 19 48  1  0  0  0  0
 20 21  1  0  0  0  0
 22 23  1  0  0  0  0
 23 24  2  0  0  0  0
 23 49  1  0  0  0  0
 24 25  1  0  0  0  0
 25 26  2  0  0  0  0
 26 27  1  0  0  0  0
 26 50  1  0  0  0  0
 27 28  1  0  0  0  0
 28 29  1  0  0  0  0
 29 51  1  0  0  0  0
 29 52  1  0  0  0  0
 29 53  1  0  0  0  0
M  END
$$$$
