CHEMBL230520
 OpenBabel04072215363D

 42 44  0  0  0  0  0  0  0  0999 V2000
    3.6514    1.1618   -0.2133 C   0  0  0  0  0  0  0  0  0  0  0  0
    2.7100    0.0875   -0.1356 O   0  0  0  0  0  0  0  0  0  0  0  0
    3.1881   -1.0829    0.3935 C   0  0  0  0  0  0  0  0  0  0  0  0
    4.2574   -1.0892    1.3130 C   0  0  0  0  0  0  0  0  0  0  0  0
    4.8311   -2.2568    1.7884 C   0  0  0  0  0  0  0  0  0  0  0  0
    5.8822   -2.1655    2.6117 N   0  0  0  0  0  0  0  0  0  0  0  0
    6.4226   -3.3231    3.0150 C   0  0  0  0  0  0  0  0  0  0  0  0
    6.0158   -4.5409    2.6664 N   0  0  0  0  0  0  0  0  0  0  0  0
    4.9595   -4.6187    1.8307 C   0  0  0  0  0  0  0  0  0  0  0  0
    4.5209   -5.8957    1.3886 N   0  0  0  0  0  0  0  0  0  0  0  0
    4.9305   -7.1234    1.9644 C   0  0  0  0  0  0  0  0  0  0  0  0
    4.8906   -7.2634    3.3605 C   0  0  0  0  0  0  0  0  0  0  0  0
    5.3642   -8.4123    3.9882 C   0  0  0  0  0  0  0  0  0  0  0  0
    5.8843   -9.4553    3.2264 C   0  0  0  0  0  0  0  0  0  0  0  0
    6.4727  -10.6630    3.8903 C   0  0  0  0  0  0  0  0  0  0  0  0
    5.8701   -9.3550    1.8284 C   0  0  0  0  0  0  0  0  0  0  0  0
    5.3883   -8.2016    1.1830 C   0  0  0  0  0  0  0  0  0  0  0  0
    5.4284   -8.1408   -0.3194 C   0  0  0  0  0  0  0  0  0  0  0  0
    4.3013   -3.4731    1.3663 C   0  0  0  0  0  0  0  0  0  0  0  0
    3.1682   -3.4813    0.5239 C   0  0  0  0  0  0  0  0  0  0  0  0
    2.6109   -2.3016    0.0214 C   0  0  0  0  0  0  0  0  0  0  0  0
    1.5745   -2.5760   -0.8201 O   0  0  0  0  0  0  0  0  0  0  0  0
    0.8159   -1.5429   -1.4181 C   0  0  0  0  0  0  0  0  0  0  0  0
    3.3219    1.8497   -0.9970 H   0  0  0  0  0  0  0  0  0  0  0  0
    4.6576    0.8195   -0.4857 H   0  0  0  0  0  0  0  0  0  0  0  0
    3.6738    1.7110    0.7337 H   0  0  0  0  0  0  0  0  0  0  0  0
    4.6840   -0.1565    1.6726 H   0  0  0  0  0  0  0  0  0  0  0  0
    7.2776   -3.2636    3.6797 H   0  0  0  0  0  0  0  0  0  0  0  0
    4.5384   -5.9168    0.3742 H   0  0  0  0  0  0  0  0  0  0  0  0
    4.5092   -6.4498    3.9735 H   0  0  0  0  0  0  0  0  0  0  0  0
    5.3442   -8.4656    5.0726 H   0  0  0  0  0  0  0  0  0  0  0  0
    6.4694  -10.5594    4.9807 H   0  0  0  0  0  0  0  0  0  0  0  0
    7.5134  -10.7904    3.5745 H   0  0  0  0  0  0  0  0  0  0  0  0
    5.8994  -11.5558    3.6294 H   0  0  0  0  0  0  0  0  0  0  0  0
    6.2624  -10.1800    1.2368 H   0  0  0  0  0  0  0  0  0  0  0  0
    5.7887   -9.0799   -0.7528 H   0  0  0  0  0  0  0  0  0  0  0  0
    6.1029   -7.3444   -0.6498 H   0  0  0  0  0  0  0  0  0  0  0  0
    4.4257   -7.9613   -0.7213 H   0  0  0  0  0  0  0  0  0  0  0  0
    2.7082   -4.4281    0.2438 H   0  0  0  0  0  0  0  0  0  0  0  0
    0.2606   -2.0018   -2.2439 H   0  0  0  0  0  0  0  0  0  0  0  0
    1.4293   -0.7582   -1.8632 H   0  0  0  0  0  0  0  0  0  0  0  0
    0.0838   -1.1441   -0.7103 H   0  0  0  0  0  0  0  0  0  0  0  0
  1  2  1  0  0  0  0
  1 24  1  0  0  0  0
  1 25  1  0  0  0  0
  1 26  1  0  0  0  0
  2  3  1  0  0  0  0
  3  4  1  0  0  0  0
  3 21  2  0  0  0  0
  4  5  2  0  0  0  0
  4 27  1  0  0  0  0
  5  6  1  0  0  0  0
  5 19  1  0  0  0  0
  6  7  2  0  0  0  0
  7  8  1  0  0  0  0
  7 28  1  0  0  0  0
  8  9  2  0  0  0  0
  9 10  1  0  0  0  0
  9 19  1  0  0  0  0
 10 11  1  0  0  0  0
 10 29  1  0  0  0  0
 11 12  1  0  0  0  0
 11 17  2  0  0  0  0
 12 13  2  0  0  0  0
 12 30  1  0  0  0  0
 13 14  1  0  0  0  0
 13 31  1  0  0  0  0
 14 15  1  0  0  0  0
 14 16  2  0  0  0  0
 15 32  1  0  0  0  0
 15 33  1  0  0  0  0
 15 34  1  0  0  0  0
 16 17  1  0  0  0  0
 16 35  1  0  0  0  0
 17 18  1  0  0  0  0
 18 36  1  0  0  0  0
 18 37  1  0  0  0  0
 18 38  1  0  0  0  0
 19 20  2  0  0  0  0
 20 21  1  0  0  0  0
 20 39  1  0  0  0  0
 21 22  1  0  0  0  0
 22 23  1  0  0  0  0
 23 40  1  0  0  0  0
 23 41  1  0  0  0  0
 23 42  1  0  0  0  0
M  END
$$$$
