CHEMBL231370
 OpenBabel04072215363D

 65 70  0  0  1  0  0  0  0  0999 V2000
    2.2359    2.3404    0.0071 C   0  0  0  0  0  0  0  0  0  0  0  0
    1.0301    2.2339   -0.7950 N   0  0  0  0  0  0  0  0  0  0  0  0
    0.6344    3.5056   -1.3946 C   0  0  0  0  0  0  0  0  0  0  0  0
   -0.7456    3.2002   -1.9499 C   0  0  0  0  0  0  0  0  0  0  0  0
   -1.2711    2.0335   -1.1140 C   0  0  0  0  0  0  0  0  0  0  0  0
   -0.1640    1.7110   -0.1010 C   0  0  2  0  0  0  0  0  0  0  0  0
   -0.4522    2.3098    1.3007 C   0  0  0  0  0  0  0  0  0  0  0  0
   -1.6491    1.7572    1.8624 O   0  0  0  0  0  0  0  0  0  0  0  0
   -2.0833    2.2593    3.0647 C   0  0  0  0  0  0  0  0  0  0  0  0
   -1.3573    3.1807    3.8464 C   0  0  0  0  0  0  0  0  0  0  0  0
   -1.8537    3.6955    5.0645 C   0  0  0  0  0  0  0  0  0  0  0  0
   -1.0697    4.6237    5.7893 N   0  0  0  0  0  0  0  0  0  0  0  0
   -1.3923    5.2569    6.9467 C   0  0  0  0  0  0  0  0  0  0  0  0
   -2.0795    4.8845    8.0159 N   0  0  0  0  0  0  0  0  0  0  0  0
   -2.1109    5.9829    8.8704 C   0  0  0  0  0  0  0  0  0  0  0  0
   -2.6751    6.1589   10.1680 C   0  0  0  0  0  0  0  0  0  0  0  0
   -2.6224    7.4302   10.7605 C   0  0  0  0  0  0  0  0  0  0  0  0
   -3.0266    7.8752   11.9958 O   0  0  0  0  0  0  0  0  0  0  0  0
   -3.7535    7.2495   12.9755 C   0  0  0  0  0  0  0  0  0  0  0  0
   -4.6521    6.2154   12.7823 C   0  0  0  0  0  0  0  0  0  0  0  0
   -5.3621    5.7644   13.8822 C   0  0  0  0  0  0  0  0  0  0  0  0
   -5.2580    6.2780   15.1272 N   0  0  0  0  0  0  0  0  0  0  0  0
   -4.4310    7.3160   15.3127 C   0  0  0  0  0  0  0  0  0  0  0  0
   -4.3691    7.8957   16.5786 C   0  0  0  0  0  0  0  0  0  0  0  0
   -3.5670    9.0058   16.8477 C   0  0  0  0  0  0  0  0  0  0  0  0
   -2.7991    9.5537   15.8320 C   0  0  0  0  0  0  0  0  0  0  0  0
   -2.8357    8.9807   14.5578 C   0  0  0  0  0  0  0  0  0  0  0  0
   -3.6505    7.8540   14.2683 C   0  0  0  0  0  0  0  0  0  0  0  0
   -1.9998    8.4832   10.0640 C   0  0  0  0  0  0  0  0  0  0  0  0
   -1.3897    8.3245    8.8205 C   0  0  0  0  0  0  0  0  0  0  0  0
   -1.4584    7.0520    8.2700 C   0  0  0  0  0  0  0  0  0  0  0  0
   -0.9418    6.5398    7.1124 N   0  0  0  0  0  0  0  0  0  0  0  0
   -3.0884    3.2294    5.5090 C   0  0  0  0  0  0  0  0  0  0  0  0
   -3.8145    2.3066    4.7528 C   0  0  0  0  0  0  0  0  0  0  0  0
   -3.3240    1.8038    3.5303 C   0  0  0  0  0  0  0  0  0  0  0  0
   -4.1820    0.7914    2.8069 C   0  0  0  0  0  0  0  0  0  0  0  0
   -3.6909    0.3015    1.6368 F   0  0  0  0  0  0  0  0  0  0  0  0
   -4.4332   -0.3053    3.5827 F   0  0  0  0  0  0  0  0  0  0  0  0
   -5.4138    1.2978    2.4995 F   0  0  0  0  0  0  0  0  0  0  0  0
    3.0914    2.5865   -0.6318 H   0  0  0  0  0  0  0  0  0  0  0  0
    2.4658    1.3849    0.4901 H   0  0  0  0  0  0  0  0  0  0  0  0
    2.1644    3.1131    0.7804 H   0  0  0  0  0  0  0  0  0  0  0  0
    1.3232    3.8288   -2.1816 H   0  0  0  0  0  0  0  0  0  0  0  0
    0.5685    4.3061   -0.6470 H   0  0  0  0  0  0  0  0  0  0  0  0
   -0.6806    2.9036   -3.0038 H   0  0  0  0  0  0  0  0  0  0  0  0
   -1.4048    4.0718   -1.8881 H   0  0  0  0  0  0  0  0  0  0  0  0
   -1.4410    1.1741   -1.7756 H   0  0  0  0  0  0  0  0  0  0  0  0
   -2.2291    2.2798   -0.6462 H   0  0  0  0  0  0  0  0  0  0  0  0
   -0.0904    0.6209   -0.0001 H   0  0  0  0  0  0  0  0  0  0  0  0
   -0.5573    3.3972    1.2199 H   0  0  0  0  0  0  0  0  0  0  0  0
    0.3836    2.0624    1.9644 H   0  0  0  0  0  0  0  0  0  0  0  0
   -0.3800    3.5170    3.5163 H   0  0  0  0  0  0  0  0  0  0  0  0
   -0.3632    5.0409    5.1935 H   0  0  0  0  0  0  0  0  0  0  0  0
   -3.1059    5.2944   10.6525 H   0  0  0  0  0  0  0  0  0  0  0  0
   -4.8553    5.7830   11.8143 H   0  0  0  0  0  0  0  0  0  0  0  0
   -6.0840    4.9567   13.7896 H   0  0  0  0  0  0  0  0  0  0  0  0
   -4.9779    7.4775   17.3776 H   0  0  0  0  0  0  0  0  0  0  0  0
   -3.5536    9.4407   17.8451 H   0  0  0  0  0  0  0  0  0  0  0  0
   -2.1789   10.4257   16.0251 H   0  0  0  0  0  0  0  0  0  0  0  0
   -2.2305    9.4322   13.7746 H   0  0  0  0  0  0  0  0  0  0  0  0
   -1.9692    9.4697   10.5262 H   0  0  0  0  0  0  0  0  0  0  0  0
   -0.8924    9.1473    8.3239 H   0  0  0  0  0  0  0  0  0  0  0  0
   -0.3812    7.0472    6.4481 H   0  0  0  0  0  0  0  0  0  0  0  0
   -3.5116    3.5860    6.4446 H   0  0  0  0  0  0  0  0  0  0  0  0
   -4.7820    1.9725    5.1286 H   0  0  0  0  0  0  0  0  0  0  0  0
  1  2  1  0  0  0  0
  1 40  1  0  0  0  0
  1 41  1  0  0  0  0
  1 42  1  0  0  0  0
  2  3  1  0  0  0  0
  2  6  1  0  0  0  0
  3  4  1  0  0  0  0
  3 43  1  0  0  0  0
  3 44  1  0  0  0  0
  4  5  1  0  0  0  0
  4 45  1  0  0  0  0
  4 46  1  0  0  0  0
  5  6  1  0  0  0  0
  5 47  1  0  0  0  0
  5 48  1  0  0  0  0
  6  7  1  0  0  0  0
  6 49  1  1  0  0  0
  7  8  1  0  0  0  0
  7 50  1  0  0  0  0
  7 51  1  0  0  0  0
  8  9  1  0  0  0  0
  9 10  1  0  0  0  0
  9 35  2  0  0  0  0
 10 11  2  0  0  0  0
 10 52  1  0  0  0  0
 11 12  1  0  0  0  0
 11 33  1  0  0  0  0
 12 13  1  0  0  0  0
 12 53  1  0  0  0  0
 13 14  2  0  0  0  0
 13 32  1  0  0  0  0
 14 15  1  0  0  0  0
 15 16  1  0  0  0  0
 15 31  2  0  0  0  0
 16 17  2  0  0  0  0
 16 54  1  0  0  0  0
 17 18  1  0  0  0  0
 17 29  1  0  0  0  0
 18 19  1  0  0  0  0
 19 20  1  0  0  0  0
 19 28  2  0  0  0  0
 20 21  2  0  0  0  0
 20 55  1  0  0  0  0
 21 22  1  0  0  0  0
 21 56  1  0  0  0  0
 22 23  2  0  0  0  0
 23 24  1  0  0  0  0
 23 28  1  0  0  0  0
 24 25  2  0  0  0  0
 24 57  1  0  0  0  0
 25 26  1  0  0  0  0
 25 58  1  0  0  0  0
 26 27  2  0  0  0  0
 26 59  1  0  0  0  0
 27 28  1  0  0  0  0
 27 60  1  0  0  0  0
 29 30  2  0  0  0  0
 29 61  1  0  0  0  0
 30 31  1  0  0  0  0
 30 62  1  0  0  0  0
 31 32  1  0  0  0  0
 32 63  1  0  0  0  0
 33 34  2  0  0  0  0
 33 64  1  0  0  0  0
 34 35  1  0  0  0  0
 34 65  1  0  0  0  0
 35 36  1  0  0  0  0
 36 37  1  0  0  0  0
 36 38  1  0  0  0  0
 36 39  1  0  0  0  0
M  END
$$$$
