CHEMBL3979728
 OpenBabel04072215373D

 64 68  0  0  1  0  0  0  0  0999 V2000
    4.2145   -4.5219    0.3352 C   0  0  0  0  0  0  0  0  0  0  0  0
    4.6020   -3.6732    1.4018 O   0  0  0  0  0  0  0  0  0  0  0  0
    4.0190   -2.4438    1.5198 C   0  0  0  0  0  0  0  0  0  0  0  0
    4.8860   -1.4999    2.0849 C   0  0  0  0  0  0  0  0  0  0  0  0
    4.4676   -0.1728    2.3488 C   0  0  0  0  0  0  0  0  0  0  0  0
    5.2636    0.8600    2.8560 C   0  0  0  0  0  0  0  0  0  0  0  0
    6.6530    0.6388    3.0704 N   0  0  0  0  0  0  0  0  0  0  0  0
    7.4359    1.4797    3.8891 C   0  0  0  0  0  0  0  0  0  0  0  0
    6.9841    1.8174    5.1734 C   0  0  0  0  0  0  0  0  0  0  0  0
    7.6873    2.7196    5.9682 C   0  0  0  0  0  0  0  0  0  0  0  0
    8.8650    3.2904    5.4892 C   0  0  0  0  0  0  0  0  0  0  0  0
    9.6633    4.4391    6.5021 Cl  0  0  0  0  0  0  0  0  0  0  0  0
    9.3475    2.9323    4.2247 C   0  0  0  0  0  0  0  0  0  0  0  0
   10.8052    3.5976    3.5746 Cl  0  0  0  0  0  0  0  0  0  0  0  0
    8.6376    2.0217    3.4302 C   0  0  0  0  0  0  0  0  0  0  0  0
    4.7660    2.0828    3.1358 N   0  0  0  0  0  0  0  0  0  0  0  0
    3.4716    2.2839    2.8993 C   0  0  0  0  0  0  0  0  0  0  0  0
    2.6330    1.3847    2.3998 N   0  0  0  0  0  0  0  0  0  0  0  0
    3.1401    0.1764    2.1279 C   0  0  0  0  0  0  0  0  0  0  0  0
    2.2922   -0.7651    1.5902 C   0  0  0  0  0  0  0  0  0  0  0  0
    2.7089   -2.0574    1.2184 C   0  0  0  0  0  0  0  0  0  0  0  0
    1.8428   -2.9239    0.5913 O   0  0  0  0  0  0  0  0  0  0  0  0
    0.7745   -2.2481   -0.1005 C   0  0  0  0  0  0  0  0  0  0  0  0
    0.0878   -3.1292   -1.1328 C   0  0  3  0  0  0  0  0  0  0  0  0
    1.1073   -3.6701   -2.1581 C   0  0  0  0  0  0  0  0  0  0  0  0
    0.4770   -4.4421   -3.2570 N   0  0  0  0  0  0  0  0  0  0  0  0
   -0.0574   -5.7093   -2.7218 C   0  0  0  0  0  0  0  0  0  0  0  0
   -0.6634   -6.6285   -3.7798 C   0  0  0  0  0  0  0  0  0  0  0  0
   -1.1830   -7.9099   -3.1383 C   0  0  0  0  0  0  0  0  0  0  0  0
   -1.7828   -8.7440   -4.1388 O   0  0  0  0  0  0  0  0  0  0  0  0
   -3.1688   -8.7875   -3.7975 C   0  0  0  0  0  0  0  0  0  0  0  0
   -3.1739   -8.5749   -2.3089 C   0  0  0  0  0  0  0  0  0  0  0  0
   -2.1546   -7.5961   -2.1279 O   0  0  0  0  0  0  0  0  0  0  0  0
   -0.5594   -3.5696   -3.8556 C   0  0  0  0  0  0  0  0  0  0  0  0
   -1.5703   -3.0204   -2.8364 C   0  0  0  0  0  0  0  0  0  0  0  0
   -0.9129   -2.3140   -1.7789 O   0  0  0  0  0  0  0  0  0  0  0  0
    5.1283   -4.9790   -0.0609 H   0  0  0  0  0  0  0  0  0  0  0  0
    3.7413   -3.9967   -0.4948 H   0  0  0  0  0  0  0  0  0  0  0  0
    3.5792   -5.3273    0.7151 H   0  0  0  0  0  0  0  0  0  0  0  0
    5.9010   -1.8054    2.3247 H   0  0  0  0  0  0  0  0  0  0  0  0
    7.0925    0.4136    2.1825 H   0  0  0  0  0  0  0  0  0  0  0  0
    6.0544    1.3925    5.5478 H   0  0  0  0  0  0  0  0  0  0  0  0
    7.2938    2.9821    6.9466 H   0  0  0  0  0  0  0  0  0  0  0  0
    9.0097    1.7721    2.4402 H   0  0  0  0  0  0  0  0  0  0  0  0
    3.0687    3.2617    3.1290 H   0  0  0  0  0  0  0  0  0  0  0  0
    1.2605   -0.4417    1.4572 H   0  0  0  0  0  0  0  0  0  0  0  0
    1.1486   -1.3582   -0.6267 H   0  0  0  0  0  0  0  0  0  0  0  0
    0.0128   -1.9302    0.6236 H   0  0  0  0  0  0  0  0  0  0  0  0
   -0.4094   -3.9482   -0.6014 H   0  0  0  0  0  0  0  0  0  0  0  0
    1.8623   -4.2896   -1.6651 H   0  0  0  0  0  0  0  0  0  0  0  0
    1.6498   -2.8280   -2.6095 H   0  0  0  0  0  0  0  0  0  0  0  0
   -0.8011   -5.5297   -1.9400 H   0  0  0  0  0  0  0  0  0  0  0  0
    0.7671   -6.2528   -2.2411 H   0  0  0  0  0  0  0  0  0  0  0  0
    0.0754   -6.8676   -4.5535 H   0  0  0  0  0  0  0  0  0  0  0  0
   -1.5002   -6.1326   -4.2834 H   0  0  0  0  0  0  0  0  0  0  0  0
   -0.3652   -8.4698   -2.6710 H   0  0  0  0  0  0  0  0  0  0  0  0
   -3.6114   -9.7383   -4.1020 H   0  0  0  0  0  0  0  0  0  0  0  0
   -3.6719   -7.9668   -4.3205 H   0  0  0  0  0  0  0  0  0  0  0  0
   -2.8761   -9.4789   -1.7670 H   0  0  0  0  0  0  0  0  0  0  0  0
   -4.1307   -8.2159   -1.9220 H   0  0  0  0  0  0  0  0  0  0  0  0
   -1.0780   -4.0716   -4.6773 H   0  0  0  0  0  0  0  0  0  0  0  0
   -0.0406   -2.7184   -4.3179 H   0  0  0  0  0  0  0  0  0  0  0  0
   -2.1937   -3.8120   -2.4075 H   0  0  0  0  0  0  0  0  0  0  0  0
   -2.2416   -2.3121   -3.3331 H   0  0  0  0  0  0  0  0  0  0  0  0
  1  2  1  0  0  0  0
  1 37  1  0  0  0  0
  1 38  1  0  0  0  0
  1 39  1  0  0  0  0
  2  3  1  0  0  0  0
  3  4  1  0  0  0  0
  3 21  2  0  0  0  0
  4  5  2  0  0  0  0
  4 40  1  0  0  0  0
  5  6  1  0  0  0  0
  5 19  1  0  0  0  0
  6  7  1  0  0  0  0
  6 16  2  0  0  0  0
  7  8  1  0  0  0  0
  7 41  1  0  0  0  0
  8  9  1  0  0  0  0
  8 15  2  0  0  0  0
  9 10  2  0  0  0  0
  9 42  1  0  0  0  0
 10 11  1  0  0  0  0
 10 43  1  0  0  0  0
 11 12  1  0  0  0  0
 11 13  2  0  0  0  0
 13 14  1  0  0  0  0
 13 15  1  0  0  0  0
 15 44  1  0  0  0  0
 16 17  1  0  0  0  0
 17 18  2  0  0  0  0
 17 45  1  0  0  0  0
 18 19  1  0  0  0  0
 19 20  2  0  0  0  0
 20 21  1  0  0  0  0
 20 46  1  0  0  0  0
 21 22  1  0  0  0  0
 22 23  1  0  0  0  0
 23 24  1  0  0  0  0
 23 47  1  0  0  0  0
 23 48  1  0  0  0  0
 24 25  1  0  0  0  0
 24 36  1  0  0  0  0
 24 49  1  0  0  0  0
 25 26  1  0  0  0  0
 25 50  1  0  0  0  0
 25 51  1  0  0  0  0
 26 27  1  0  0  0  0
 26 34  1  0  0  0  0
 27 28  1  0  0  0  0
 27 52  1  0  0  0  0
 27 53  1  0  0  0  0
 28 29  1  0  0  0  0
 28 54  1  0  0  0  0
 28 55  1  0  0  0  0
 29 30  1  0  0  0  0
 29 33  1  0  0  0  0
 29 56  1  0  0  0  0
 30 31  1  0  0  0  0
 31 32  1  0  0  0  0
 31 57  1  0  0  0  0
 31 58  1  0  0  0  0
 32 33  1  0  0  0  0
 32 59  1  0  0  0  0
 32 60  1  0  0  0  0
 34 35  1  0  0  0  0
 34 61  1  0  0  0  0
 34 62  1  0  0  0  0
 35 36  1  0  0  0  0
 35 63  1  0  0  0  0
 35 64  1  0  0  0  0
M  END
$$$$
