CHEMBL4516917
 OpenBabel04072215383D

 41 43  0  0  0  0  0  0  0  0999 V2000
    2.5647   -0.3471    1.3426 O   0  0  0  0  0  0  0  0  0  0  0  0
    2.2418   -0.4467    0.1657 C   0  0  0  0  0  0  0  0  0  0  0  0
    0.9253   -0.4363   -0.2727 N   0  0  0  0  0  0  0  0  0  0  0  0
   -0.2270   -0.3511    0.5493 C   0  0  0  0  0  0  0  0  0  0  0  0
   -0.2032    0.0138    1.8988 C   0  0  0  0  0  0  0  0  0  0  0  0
   -1.3783    0.0316    2.6586 C   0  0  0  0  0  0  0  0  0  0  0  0
   -2.5932   -0.3132    2.0740 C   0  0  0  0  0  0  0  0  0  0  0  0
   -2.6345   -0.6609    0.7272 C   0  0  0  0  0  0  0  0  0  0  0  0
   -1.4601   -0.6695   -0.0337 C   0  0  0  0  0  0  0  0  0  0  0  0
    3.1338   -0.6233   -0.8914 N   0  0  0  0  0  0  0  0  0  0  0  0
    4.5414   -0.7888   -0.7838 C   0  0  0  0  0  0  0  0  0  0  0  0
    5.1976   -0.8172    0.4483 C   0  0  0  0  0  0  0  0  0  0  0  0
    6.5773   -0.9583    0.5190 C   0  0  0  0  0  0  0  0  0  0  0  0
    7.3253   -1.0994   -0.6443 C   0  0  0  0  0  0  0  0  0  0  0  0
    6.7065   -1.1189   -1.8964 C   0  0  0  0  0  0  0  0  0  0  0  0
    7.4394   -1.3333   -3.0899 N   0  0  0  0  0  0  0  0  0  0  0  0
    8.8134   -1.5295   -3.1873 C   0  0  0  0  0  0  0  0  0  0  0  0
    9.6311   -1.4719   -2.2733 O   0  0  0  0  0  0  0  0  0  0  0  0
    9.3214   -1.8542   -4.5572 C   0  0  0  0  0  0  0  0  0  0  0  0
   10.6881   -2.0675   -4.7322 C   0  0  0  0  0  0  0  0  0  0  0  0
   11.1532   -2.4096   -5.9948 C   0  0  0  0  0  0  0  0  0  0  0  0
   10.2402   -2.5269   -7.0380 C   0  0  0  0  0  0  0  0  0  0  0  0
    8.8978   -2.2897   -6.7743 C   0  0  0  0  0  0  0  0  0  0  0  0
    8.4040   -1.9531   -5.5586 N   0  0  0  0  0  0  0  0  0  0  0  0
    5.3079   -0.9474   -1.9587 C   0  0  0  0  0  0  0  0  0  0  0  0
    0.7635   -0.6728   -1.2377 H   0  0  0  0  0  0  0  0  0  0  0  0
    0.7170    0.2990    2.4003 H   0  0  0  0  0  0  0  0  0  0  0  0
   -1.3359    0.3104    3.7083 H   0  0  0  0  0  0  0  0  0  0  0  0
   -3.5022   -0.3113    2.6697 H   0  0  0  0  0  0  0  0  0  0  0  0
   -3.5810   -0.9354    0.2691 H   0  0  0  0  0  0  0  0  0  0  0  0
   -1.5237   -0.9569   -1.0789 H   0  0  0  0  0  0  0  0  0  0  0  0
    2.7572   -0.5845   -1.8245 H   0  0  0  0  0  0  0  0  0  0  0  0
    4.6747   -0.7330    1.3935 H   0  0  0  0  0  0  0  0  0  0  0  0
    7.0737   -0.9672    1.4858 H   0  0  0  0  0  0  0  0  0  0  0  0
    8.3948   -1.2061   -0.5208 H   0  0  0  0  0  0  0  0  0  0  0  0
    6.9350   -1.4006   -3.9701 H   0  0  0  0  0  0  0  0  0  0  0  0
   11.3783   -1.9779   -3.8967 H   0  0  0  0  0  0  0  0  0  0  0  0
   12.2125   -2.5879   -6.1584 H   0  0  0  0  0  0  0  0  0  0  0  0
   10.5745   -2.8019   -8.0330 H   0  0  0  0  0  0  0  0  0  0  0  0
    8.1603   -2.3726   -7.5688 H   0  0  0  0  0  0  0  0  0  0  0  0
    4.8158   -0.9437   -2.9272 H   0  0  0  0  0  0  0  0  0  0  0  0
  1  2  2  0  0  0  0
  2  3  1  0  0  0  0
  2 10  1  0  0  0  0
  3  4  1  0  0  0  0
  3 26  1  0  0  0  0
  4  5  1  0  0  0  0
  4  9  2  0  0  0  0
  5  6  2  0  0  0  0
  5 27  1  0  0  0  0
  6  7  1  0  0  0  0
  6 28  1  0  0  0  0
  7  8  2  0  0  0  0
  7 29  1  0  0  0  0
  8  9  1  0  0  0  0
  8 30  1  0  0  0  0
  9 31  1  0  0  0  0
 10 11  1  0  0  0  0
 10 32  1  0  0  0  0
 11 12  1  0  0  0  0
 11 25  2  0  0  0  0
 12 13  2  0  0  0  0
 12 33  1  0  0  0  0
 13 14  1  0  0  0  0
 13 34  1  0  0  0  0
 14 15  2  0  0  0  0
 14 35  1  0  0  0  0
 15 16  1  0  0  0  0
 15 25  1  0  0  0  0
 16 17  1  0  0  0  0
 16 36  1  0  0  0  0
 17 18  2  0  0  0  0
 17 19  1  0  0  0  0
 19 20  1  0  0  0  0
 19 24  2  0  0  0  0
 20 21  2  0  0  0  0
 20 37  1  0  0  0  0
 21 22  1  0  0  0  0
 21 38  1  0  0  0  0
 22 23  2  0  0  0  0
 22 39  1  0  0  0  0
 23 24  1  0  0  0  0
 23 40  1  0  0  0  0
 25 41  1  0  0  0  0
M  END
$$$$
