CHEMBL1992634
 OpenBabel04072215363D

 25 27  0  0  0  0  0  0  0  0999 V2000
    1.0107   -0.2346   -0.0789 Br  0  0  0  0  0  0  0  0  0  0  0  0
    2.8933   -0.1017   -0.0824 C   0  0  0  0  0  0  0  0  0  0  0  0
    3.6828   -1.2437   -0.0638 C   0  0  0  0  0  0  0  0  0  0  0  0
    5.0378   -1.2638   -0.0629 N   0  0  0  0  0  0  0  0  0  0  0  0
    5.5771   -0.0298   -0.0682 C   0  0  0  0  0  0  0  0  0  0  0  0
    6.9195    0.2177   -0.0677 N   0  0  0  0  0  0  0  0  0  0  0  0
    7.1440    1.5702   -0.0599 C   0  0  0  0  0  0  0  0  0  0  0  0
    5.9187    2.2183   -0.0602 C   0  0  0  0  0  0  0  0  0  0  0  0
    5.7862    3.6724   -0.0253 C   0  0  0  0  0  0  0  0  0  0  0  0
    6.7131    4.5005   -0.6756 C   0  0  0  0  0  0  0  0  0  0  0  0
    6.5795    5.8917   -0.6355 C   0  0  0  0  0  0  0  0  0  0  0  0
    5.5126    6.4719    0.0464 C   0  0  0  0  0  0  0  0  0  0  0  0
    4.5852    5.6630    0.6972 C   0  0  0  0  0  0  0  0  0  0  0  0
    4.7272    4.2730    0.6691 C   0  0  0  0  0  0  0  0  0  0  0  0
    4.9124    1.1942   -0.0752 C   0  0  0  0  0  0  0  0  0  0  0  0
    3.5045    1.1510   -0.0987 C   0  0  0  0  0  0  0  0  0  0  0  0
    3.2262   -2.2307   -0.0500 H   0  0  0  0  0  0  0  0  0  0  0  0
    7.6210   -0.5082   -0.0640 H   0  0  0  0  0  0  0  0  0  0  0  0
    8.1573    1.9497   -0.0420 H   0  0  0  0  0  0  0  0  0  0  0  0
    7.5466    4.0738   -1.2280 H   0  0  0  0  0  0  0  0  0  0  0  0
    7.3083    6.5209   -1.1398 H   0  0  0  0  0  0  0  0  0  0  0  0
    5.4059    7.5531    0.0739 H   0  0  0  0  0  0  0  0  0  0  0  0
    3.7528    6.1112    1.2335 H   0  0  0  0  0  0  0  0  0  0  0  0
    4.0056    3.6701    1.2129 H   0  0  0  0  0  0  0  0  0  0  0  0
    2.9162    2.0610   -0.1290 H   0  0  0  0  0  0  0  0  0  0  0  0
  1  2  1  0  0  0  0
  2  3  1  0  0  0  0
  2 16  2  0  0  0  0
  3  4  2  0  0  0  0
  3 17  1  0  0  0  0
  4  5  1  0  0  0  0
  5  6  1  0  0  0  0
  5 15  2  0  0  0  0
  6  7  1  0  0  0  0
  6 18  1  0  0  0  0
  7  8  2  0  0  0  0
  7 19  1  0  0  0  0
  8  9  1  0  0  0  0
  8 15  1  0  0  0  0
  9 10  1  0  0  0  0
  9 14  2  0  0  0  0
 10 11  2  0  0  0  0
 10 20  1  0  0  0  0
 11 12  1  0  0  0  0
 11 21  1  0  0  0  0
 12 13  2  0  0  0  0
 12 22  1  0  0  0  0
 13 14  1  0  0  0  0
 13 23  1  0  0  0  0
 14 24  1  0  0  0  0
 15 16  1  0  0  0  0
 16 25  1  0  0  0  0
M  END
$$$$
