CHEMBL3908700
 OpenBabel04072215373D

 55 59  0  0  0  0  0  0  0  0999 V2000
    1.4449    3.5105    0.3443 C   0  0  0  0  0  0  0  0  0  0  0  0
    1.7316    2.2023   -0.1907 N   0  0  0  0  0  0  0  0  0  0  0  0
    2.8887    1.4945   -0.0590 C   0  0  0  0  0  0  0  0  0  0  0  0
    2.6689    0.2710   -0.6598 C   0  0  0  0  0  0  0  0  0  0  0  0
    3.6361   -0.8107   -0.7331 C   0  0  0  0  0  0  0  0  0  0  0  0
    3.3209   -1.9923   -1.3882 C   0  0  0  0  0  0  0  0  0  0  0  0
    4.3129   -2.9580   -1.5419 C   0  0  0  0  0  0  0  0  0  0  0  0
    4.1485   -4.1296   -2.2462 O   0  0  0  0  0  0  0  0  0  0  0  0
    3.2815   -4.1588   -3.3086 C   0  0  0  0  0  0  0  0  0  0  0  0
    3.0799   -3.1186   -4.2130 C   0  0  0  0  0  0  0  0  0  0  0  0
    2.1227   -3.2579   -5.2197 C   0  0  0  0  0  0  0  0  0  0  0  0
    1.4296   -4.4573   -5.3311 C   0  0  0  0  0  0  0  0  0  0  0  0
    0.4678   -4.5674   -6.3342 N   0  0  0  0  0  0  0  0  0  0  0  0
   -0.3288   -5.6664   -6.5525 C   0  0  0  0  0  0  0  0  0  0  0  0
   -0.3032   -6.7236   -5.9245 O   0  0  0  0  0  0  0  0  0  0  0  0
   -1.2334   -5.5095   -7.5932 N   0  0  0  0  0  0  0  0  0  0  0  0
   -2.1980   -6.5421   -7.8711 C   0  0  0  0  0  0  0  0  0  0  0  0
   -3.0661   -5.9361   -8.9488 C   0  0  0  0  0  0  0  0  0  0  0  0
   -2.1725   -5.0116   -9.6077 N   0  0  0  0  0  0  0  0  0  0  0  0
   -2.4025   -4.4796  -10.8948 C   0  0  0  0  0  0  0  0  0  0  0  0
   -1.3780   -3.8385  -11.6039 C   0  0  0  0  0  0  0  0  0  0  0  0
   -1.5994   -3.3369  -12.8895 C   0  0  0  0  0  0  0  0  0  0  0  0
   -2.8527   -3.4677  -13.4686 C   0  0  0  0  0  0  0  0  0  0  0  0
   -3.0688   -2.9809  -14.6972 F   0  0  0  0  0  0  0  0  0  0  0  0
   -3.8849   -4.1002  -12.7919 C   0  0  0  0  0  0  0  0  0  0  0  0
   -3.6577   -4.6147  -11.5109 C   0  0  0  0  0  0  0  0  0  0  0  0
   -1.1258   -4.6597   -8.7209 C   0  0  0  0  0  0  0  0  0  0  0  0
   -0.3053   -3.7597   -8.8321 O   0  0  0  0  0  0  0  0  0  0  0  0
    1.6623   -5.4911   -4.4998 N   0  0  0  0  0  0  0  0  0  0  0  0
    2.5781   -5.3306   -3.5205 C   0  0  0  0  0  0  0  0  0  0  0  0
    5.5442   -2.7769   -0.9276 C   0  0  0  0  0  0  0  0  0  0  0  0
    5.7604   -1.5902   -0.2523 C   0  0  0  0  0  0  0  0  0  0  0  0
    4.8473   -0.5975   -0.1637 N   0  0  0  0  0  0  0  0  0  0  0  0
    1.3495    0.3761   -1.1609 C   0  0  0  0  0  0  0  0  0  0  0  0
    0.7777    1.5493   -0.8787 N   0  0  0  0  0  0  0  0  0  0  0  0
    2.3523    3.9333    0.7801 H   0  0  0  0  0  0  0  0  0  0  0  0
    0.6752    3.3997    1.1128 H   0  0  0  0  0  0  0  0  0  0  0  0
    1.0868    4.1476   -0.4680 H   0  0  0  0  0  0  0  0  0  0  0  0
    3.7543    1.8943    0.4512 H   0  0  0  0  0  0  0  0  0  0  0  0
    2.3303   -2.1482   -1.7965 H   0  0  0  0  0  0  0  0  0  0  0  0
    3.6376   -2.1895   -4.1369 H   0  0  0  0  0  0  0  0  0  0  0  0
    1.9257   -2.4283   -5.8910 H   0  0  0  0  0  0  0  0  0  0  0  0
    0.3447   -3.7838   -6.9721 H   0  0  0  0  0  0  0  0  0  0  0  0
   -2.7506   -6.8338   -6.9727 H   0  0  0  0  0  0  0  0  0  0  0  0
   -1.6507   -7.4159   -8.2480 H   0  0  0  0  0  0  0  0  0  0  0  0
   -3.8863   -5.3581   -8.5074 H   0  0  0  0  0  0  0  0  0  0  0  0
   -3.4612   -6.6992   -9.6257 H   0  0  0  0  0  0  0  0  0  0  0  0
   -0.3771   -3.7439  -11.1899 H   0  0  0  0  0  0  0  0  0  0  0  0
   -0.7979   -2.8540  -13.4388 H   0  0  0  0  0  0  0  0  0  0  0  0
   -4.8595   -4.1891  -13.2599 H   0  0  0  0  0  0  0  0  0  0  0  0
   -4.4896   -5.0956  -11.0050 H   0  0  0  0  0  0  0  0  0  0  0  0
    2.7228   -6.2000   -2.8866 H   0  0  0  0  0  0  0  0  0  0  0  0
    6.3159   -3.5364   -0.9798 H   0  0  0  0  0  0  0  0  0  0  0  0
    6.7067   -1.3950    0.2442 H   0  0  0  0  0  0  0  0  0  0  0  0
    0.7745   -0.3513   -1.7185 H   0  0  0  0  0  0  0  0  0  0  0  0
  1  2  1  0  0  0  0
  1 36  1  0  0  0  0
  1 37  1  0  0  0  0
  1 38  1  0  0  0  0
  2  3  1  0  0  0  0
  2 35  1  0  0  0  0
  3  4  2  0  0  0  0
  3 39  1  0  0  0  0
  4  5  1  0  0  0  0
  4 34  1  0  0  0  0
  5  6  1  0  0  0  0
  5 33  2  0  0  0  0
  6  7  2  0  0  0  0
  6 40  1  0  0  0  0
  7  8  1  0  0  0  0
  7 31  1  0  0  0  0
  8  9  1  0  0  0  0
  9 10  1  0  0  0  0
  9 30  2  0  0  0  0
 10 11  2  0  0  0  0
 10 41  1  0  0  0  0
 11 12  1  0  0  0  0
 11 42  1  0  0  0  0
 12 13  1  0  0  0  0
 12 29  2  0  0  0  0
 13 14  1  0  0  0  0
 13 43  1  0  0  0  0
 14 15  2  0  0  0  0
 14 16  1  0  0  0  0
 16 17  1  0  0  0  0
 16 27  1  0  0  0  0
 17 18  1  0  0  0  0
 17 44  1  0  0  0  0
 17 45  1  0  0  0  0
 18 19  1  0  0  0  0
 18 46  1  0  0  0  0
 18 47  1  0  0  0  0
 19 20  1  0  0  0  0
 19 27  1  0  0  0  0
 20 21  1  0  0  0  0
 20 26  2  0  0  0  0
 21 22  2  0  0  0  0
 21 48  1  0  0  0  0
 22 23  1  0  0  0  0
 22 49  1  0  0  0  0
 23 24  1  0  0  0  0
 23 25  2  0  0  0  0
 25 26  1  0  0  0  0
 25 50  1  0  0  0  0
 26 51  1  0  0  0  0
 27 28  2  0  0  0  0
 29 30  1  0  0  0  0
 30 52  1  0  0  0  0
 31 32  2  0  0  0  0
 31 53  1  0  0  0  0
 32 33  1  0  0  0  0
 32 54  1  0  0  0  0
 34 35  2  0  0  0  0
 34 55  1  0  0  0  0
M  END
$$$$
