CHEMBL244096
 OpenBabel04072215363D

 54 57  0  0  0  0  0  0  0  0999 V2000
    7.1146    6.3083   -8.7475 C   0  0  0  0  0  0  0  0  0  0  0  0
    6.3615    5.1050   -8.5743 O   0  0  0  0  0  0  0  0  0  0  0  0
    7.1286    4.0370   -8.2094 C   0  0  0  0  0  0  0  0  0  0  0  0
    8.3384    4.1133   -8.0488 O   0  0  0  0  0  0  0  0  0  0  0  0
    6.3150    2.9464   -8.0896 N   0  0  0  0  0  0  0  0  0  0  0  0
    6.8074    1.7221   -7.7267 C   0  0  0  0  0  0  0  0  0  0  0  0
    8.0379    1.4274   -7.3830 N   0  0  0  0  0  0  0  0  0  0  0  0
    8.0553    0.0858   -7.1392 C   0  0  0  0  0  0  0  0  0  0  0  0
    9.1214   -0.7278   -6.7439 C   0  0  0  0  0  0  0  0  0  0  0  0
    8.8929   -2.0976   -6.5924 C   0  0  0  0  0  0  0  0  0  0  0  0
    7.6402   -2.6502   -6.8908 C   0  0  0  0  0  0  0  0  0  0  0  0
    7.3907   -4.0067   -6.8622 O   0  0  0  0  0  0  0  0  0  0  0  0
    8.3757   -4.8719   -7.2829 C   0  0  0  0  0  0  0  0  0  0  0  0
    8.4105   -6.1037   -6.6460 C   0  0  0  0  0  0  0  0  0  0  0  0
    9.4125   -7.0244   -6.9609 C   0  0  0  0  0  0  0  0  0  0  0  0
   10.4106   -6.7315   -7.9014 C   0  0  0  0  0  0  0  0  0  0  0  0
   11.5069   -7.5927   -8.1791 N   0  0  0  0  0  0  0  0  0  0  0  0
   11.7871   -8.7585   -7.4891 C   0  0  0  0  0  0  0  0  0  0  0  0
   11.1275   -9.1571   -6.5352 O   0  0  0  0  0  0  0  0  0  0  0  0
   12.8910   -9.4441   -7.9792 N   0  0  0  0  0  0  0  0  0  0  0  0
   13.2474  -10.7470   -7.5194 C   0  0  0  0  0  0  0  0  0  0  0  0
   12.3086  -11.6014   -6.9285 C   0  0  0  0  0  0  0  0  0  0  0  0
   12.6816  -12.8281   -6.3903 C   0  0  0  0  0  0  0  0  0  0  0  0
   14.0007  -13.2487   -6.4833 C   0  0  0  0  0  0  0  0  0  0  0  0
   14.9468  -12.4624   -7.1484 C   0  0  0  0  0  0  0  0  0  0  0  0
   16.6491  -12.9876   -7.3375 S   0  0  0  0  0  0  0  0  0  0  0  0
   16.4803  -14.7992   -7.3734 C   0  0  0  0  0  0  0  0  0  0  0  0
   14.5653  -11.2023   -7.6547 C   0  0  0  0  0  0  0  0  0  0  0  0
   10.3166   -5.5241   -8.5957 C   0  0  0  0  0  0  0  0  0  0  0  0
    9.2914   -4.6075   -8.3055 C   0  0  0  0  0  0  0  0  0  0  0  0
    6.5430   -1.8383   -7.2141 C   0  0  0  0  0  0  0  0  0  0  0  0
    6.7985   -0.4715   -7.3404 C   0  0  0  0  0  0  0  0  0  0  0  0
    6.0092    0.6056   -7.6690 N   0  0  0  0  0  0  0  0  0  0  0  0
    6.4107    7.1358   -8.8685 H   0  0  0  0  0  0  0  0  0  0  0  0
    7.7286    6.2370   -9.6508 H   0  0  0  0  0  0  0  0  0  0  0  0
    7.7384    6.5167   -7.8716 H   0  0  0  0  0  0  0  0  0  0  0  0
    5.3425    3.0828   -8.3080 H   0  0  0  0  0  0  0  0  0  0  0  0
   10.1010   -0.2950   -6.5772 H   0  0  0  0  0  0  0  0  0  0  0  0
    9.7188   -2.7277   -6.2725 H   0  0  0  0  0  0  0  0  0  0  0  0
    7.6761   -6.3557   -5.8853 H   0  0  0  0  0  0  0  0  0  0  0  0
    9.3760   -7.9663   -6.4284 H   0  0  0  0  0  0  0  0  0  0  0  0
   12.1525   -7.2998   -8.8978 H   0  0  0  0  0  0  0  0  0  0  0  0
   13.6113   -8.9041   -8.4320 H   0  0  0  0  0  0  0  0  0  0  0  0
   11.2583  -11.3327   -6.8544 H   0  0  0  0  0  0  0  0  0  0  0  0
   11.9390  -13.4415   -5.8871 H   0  0  0  0  0  0  0  0  0  0  0  0
   14.2625  -14.1946   -6.0217 H   0  0  0  0  0  0  0  0  0  0  0  0
   17.4386  -15.2438   -7.6545 H   0  0  0  0  0  0  0  0  0  0  0  0
   15.7302  -15.1046   -8.1089 H   0  0  0  0  0  0  0  0  0  0  0  0
   16.2092  -15.1892   -6.3880 H   0  0  0  0  0  0  0  0  0  0  0  0
   15.3149  -10.5752   -8.1306 H   0  0  0  0  0  0  0  0  0  0  0  0
   11.0436   -5.2527   -9.3598 H   0  0  0  0  0  0  0  0  0  0  0  0
    9.2397   -3.6764   -8.8638 H   0  0  0  0  0  0  0  0  0  0  0  0
    5.5610   -2.2652   -7.3869 H   0  0  0  0  0  0  0  0  0  0  0  0
    5.0212    0.5710   -7.8733 H   0  0  0  0  0  0  0  0  0  0  0  0
  1  2  1  0  0  0  0
  1 34  1  0  0  0  0
  1 35  1  0  0  0  0
  1 36  1  0  0  0  0
  2  3  1  0  0  0  0
  3  4  2  0  0  0  0
  3  5  1  0  0  0  0
  5  6  1  0  0  0  0
  5 37  1  0  0  0  0
  6  7  2  0  0  0  0
  6 33  1  0  0  0  0
  7  8  1  0  0  0  0
  8  9  1  0  0  0  0
  8 32  2  0  0  0  0
  9 10  2  0  0  0  0
  9 38  1  0  0  0  0
 10 11  1  0  0  0  0
 10 39  1  0  0  0  0
 11 12  1  0  0  0  0
 11 31  2  0  0  0  0
 12 13  1  0  0  0  0
 13 14  1  0  0  0  0
 13 30  2  0  0  0  0
 14 15  2  0  0  0  0
 14 40  1  0  0  0  0
 15 16  1  0  0  0  0
 15 41  1  0  0  0  0
 16 17  1  0  0  0  0
 16 29  2  0  0  0  0
 17 18  1  0  0  0  0
 17 42  1  0  0  0  0
 18 19  2  0  0  0  0
 18 20  1  0  0  0  0
 20 21  1  0  0  0  0
 20 43  1  0  0  0  0
 21 22  1  0  0  0  0
 21 28  2  0  0  0  0
 22 23  2  0  0  0  0
 22 44  1  0  0  0  0
 23 24  1  0  0  0  0
 23 45  1  0  0  0  0
 24 25  2  0  0  0  0
 24 46  1  0  0  0  0
 25 26  1  0  0  0  0
 25 28  1  0  0  0  0
 26 27  1  0  0  0  0
 27 47  1  0  0  0  0
 27 48  1  0  0  0  0
 27 49  1  0  0  0  0
 28 50  1  0  0  0  0
 29 30  1  0  0  0  0
 29 51  1  0  0  0  0
 30 52  1  0  0  0  0
 31 32  1  0  0  0  0
 31 53  1  0  0  0  0
 32 33  1  0  0  0  0
 33 54  1  0  0  0  0
M  END
$$$$
