CHEMBL191626
 OpenBabel04072215363D

 41 44  0  0  0  0  0  0  0  0999 V2000
   -1.0491    1.3370   -4.1116 C   0  0  0  0  0  0  0  0  0  0  0  0
   -1.2442    2.3346   -3.1547 C   0  0  0  0  0  0  0  0  0  0  0  0
   -1.8038    2.0158   -1.9170 C   0  0  0  0  0  0  0  0  0  0  0  0
   -2.1670    0.6988   -1.6391 C   0  0  0  0  0  0  0  0  0  0  0  0
   -2.7595    0.4688   -0.4152 O   0  0  0  0  0  0  0  0  0  0  0  0
   -3.7145   -0.5222   -0.3486 C   0  0  0  0  0  0  0  0  0  0  0  0
   -3.6751   -1.3592    0.7621 C   0  0  0  0  0  0  0  0  0  0  0  0
   -4.5574   -2.4282    0.8381 C   0  0  0  0  0  0  0  0  0  0  0  0
   -5.4845   -2.6396   -0.1859 C   0  0  0  0  0  0  0  0  0  0  0  0
   -5.5976   -1.7615   -1.2748 C   0  0  0  0  0  0  0  0  0  0  0  0
   -6.5479   -1.9096   -2.3048 N   0  0  0  0  0  0  0  0  0  0  0  0
   -7.6454   -2.6834   -2.2550 C   0  0  0  0  0  0  0  0  0  0  0  0
   -7.9750   -3.6322   -1.4064 N   0  0  0  0  0  0  0  0  0  0  0  0
   -9.2239   -4.0082   -1.7864 C   0  0  0  0  0  0  0  0  0  0  0  0
   -9.6258   -3.2872   -2.8861 C   0  0  0  0  0  0  0  0  0  0  0  0
  -10.8331   -3.2664   -3.6910 C   0  0  0  0  0  0  0  0  0  0  0  0
  -11.9149   -4.0921   -3.3313 C   0  0  0  0  0  0  0  0  0  0  0  0
  -13.0825   -4.1219   -4.0902 C   0  0  0  0  0  0  0  0  0  0  0  0
  -13.1931   -3.3199   -5.2206 C   0  0  0  0  0  0  0  0  0  0  0  0
  -12.1383   -2.4814   -5.5849 C   0  0  0  0  0  0  0  0  0  0  0  0
  -10.9664   -2.4524   -4.8228 C   0  0  0  0  0  0  0  0  0  0  0  0
   -8.5990   -2.4353   -3.2093 O   0  0  0  0  0  0  0  0  0  0  0  0
   -4.7000   -0.6905   -1.3328 C   0  0  0  0  0  0  0  0  0  0  0  0
   -1.9078   -0.3115   -2.5746 C   0  0  0  0  0  0  0  0  0  0  0  0
   -1.3760    0.0136   -3.8215 C   0  0  0  0  0  0  0  0  0  0  0  0
   -0.6341    1.5902   -5.0841 H   0  0  0  0  0  0  0  0  0  0  0  0
   -0.9691    3.3619   -3.3774 H   0  0  0  0  0  0  0  0  0  0  0  0
   -1.9683    2.7938   -1.1765 H   0  0  0  0  0  0  0  0  0  0  0  0
   -2.9457   -1.1969    1.5496 H   0  0  0  0  0  0  0  0  0  0  0  0
   -4.5257   -3.1117    1.6823 H   0  0  0  0  0  0  0  0  0  0  0  0
   -6.1201   -3.5158   -0.1015 H   0  0  0  0  0  0  0  0  0  0  0  0
   -6.5388   -1.1852   -3.0098 H   0  0  0  0  0  0  0  0  0  0  0  0
   -9.7681   -4.7692   -1.2480 H   0  0  0  0  0  0  0  0  0  0  0  0
  -11.8590   -4.7278   -2.4500 H   0  0  0  0  0  0  0  0  0  0  0  0
  -13.9008   -4.7739   -3.7984 H   0  0  0  0  0  0  0  0  0  0  0  0
  -14.0990   -3.3476   -5.8197 H   0  0  0  0  0  0  0  0  0  0  0  0
  -12.2261   -1.8526   -6.4672 H   0  0  0  0  0  0  0  0  0  0  0  0
  -10.1563   -1.7934   -5.1269 H   0  0  0  0  0  0  0  0  0  0  0  0
   -4.7483    0.0111   -2.1614 H   0  0  0  0  0  0  0  0  0  0  0  0
   -2.1448   -1.3483   -2.3568 H   0  0  0  0  0  0  0  0  0  0  0  0
   -1.2244   -0.7654   -4.5632 H   0  0  0  0  0  0  0  0  0  0  0  0
  1  2  1  0  0  0  0
  1 25  2  0  0  0  0
  1 26  1  0  0  0  0
  2  3  2  0  0  0  0
  2 27  1  0  0  0  0
  3  4  1  0  0  0  0
  3 28  1  0  0  0  0
  4  5  1  0  0  0  0
  4 24  2  0  0  0  0
  5  6  1  0  0  0  0
  6  7  1  0  0  0  0
  6 23  2  0  0  0  0
  7  8  2  0  0  0  0
  7 29  1  0  0  0  0
  8  9  1  0  0  0  0
  8 30  1  0  0  0  0
  9 10  2  0  0  0  0
  9 31  1  0  0  0  0
 10 11  1  0  0  0  0
 10 23  1  0  0  0  0
 11 12  1  0  0  0  0
 11 32  1  0  0  0  0
 12 13  2  0  0  0  0
 12 22  1  0  0  0  0
 13 14  1  0  0  0  0
 14 15  2  0  0  0  0
 14 33  1  0  0  0  0
 15 16  1  0  0  0  0
 15 22  1  0  0  0  0
 16 17  1  0  0  0  0
 16 21  2  0  0  0  0
 17 18  2  0  0  0  0
 17 34  1  0  0  0  0
 18 19  1  0  0  0  0
 18 35  1  0  0  0  0
 19 20  2  0  0  0  0
 19 36  1  0  0  0  0
 20 21  1  0  0  0  0
 20 37  1  0  0  0  0
 21 38  1  0  0  0  0
 23 39  1  0  0  0  0
 24 25  1  0  0  0  0
 24 40  1  0  0  0  0
 25 41  1  0  0  0  0
M  END
$$$$
