CHEMBL2386792
 OpenBabel04072215363D

 76 80  0  0  0  0  0  0  0  0999 V2000
    7.6751   -1.1446   -5.2730 C   0  0  0  0  0  0  0  0  0  0  0  0
    7.6462   -2.5888   -5.8080 C   0  0  0  0  0  0  0  0  0  0  0  0
    7.5346   -2.5596   -7.3436 C   0  0  0  0  0  0  0  0  0  0  0  0
    8.9586   -3.2861   -5.4171 C   0  0  0  0  0  0  0  0  0  0  0  0
    6.4437   -3.2936   -5.2486 C   0  0  0  0  0  0  0  0  0  0  0  0
    5.1026   -3.0006   -5.2763 C   0  0  0  0  0  0  0  0  0  0  0  0
    4.4859   -4.0666   -4.5965 C   0  0  0  0  0  0  0  0  0  0  0  0
    3.1289   -4.1456   -4.4255 N   0  0  0  0  0  0  0  0  0  0  0  0
    2.3803   -5.1013   -3.8211 C   0  0  0  0  0  0  0  0  0  0  0  0
    1.1623   -4.9142   -3.8292 O   0  0  0  0  0  0  0  0  0  0  0  0
    3.0320   -6.1684   -3.2599 N   0  0  0  0  0  0  0  0  0  0  0  0
    2.4218   -7.3063   -2.6975 C   0  0  0  0  0  0  0  0  0  0  0  0
    1.0807   -7.5970   -2.9175 C   0  0  0  0  0  0  0  0  0  0  0  0
    0.4974   -8.7325   -2.3682 C   0  0  0  0  0  0  0  0  0  0  0  0
    1.2356   -9.6272   -1.5816 C   0  0  0  0  0  0  0  0  0  0  0  0
    0.5672  -10.8186   -1.0479 C   0  0  0  0  0  0  0  0  0  0  0  0
   -0.7914  -11.1630   -1.2665 C   0  0  0  0  0  0  0  0  0  0  0  0
   -1.0097  -12.3676   -0.6542 C   0  0  0  0  0  0  0  0  0  0  0  0
   -2.1870  -13.1155   -0.6407 N   0  0  0  0  0  0  0  0  0  0  0  0
   -3.3663  -12.6970   -1.3634 C   0  0  0  0  0  0  0  0  0  0  0  0
   -3.3639  -11.7019   -2.0716 O   0  0  0  0  0  0  0  0  0  0  0  0
   -4.5982  -13.5047   -1.2498 C   0  0  0  0  0  0  0  0  0  0  0  0
   -4.8681  -14.3197   -0.1486 C   0  0  0  0  0  0  0  0  0  0  0  0
   -6.1067  -14.9663   -0.0575 C   0  0  0  0  0  0  0  0  0  0  0  0
   -7.0805  -14.7782   -1.0444 C   0  0  0  0  0  0  0  0  0  0  0  0
   -8.3479  -15.2880   -1.0230 O   0  0  0  0  0  0  0  0  0  0  0  0
   -8.8259  -15.6950    0.2607 C   0  0  0  0  0  0  0  0  0  0  0  0
  -10.3604  -15.7488    0.2329 C   0  0  0  0  0  0  0  0  0  0  0  0
  -10.9528  -16.0568    1.5496 N   0  0  0  0  0  0  0  0  0  0  0  0
  -10.5938  -17.3883    2.0565 C   0  0  0  0  0  0  0  0  0  0  0  0
  -11.5949  -18.3228    1.4134 C   0  0  0  0  0  0  0  0  0  0  0  0
  -12.8783  -17.5240    1.5186 C   0  0  0  0  0  0  0  0  0  0  0  0
  -12.4325  -16.0639    1.4675 C   0  0  0  0  0  0  0  0  0  0  0  0
   -6.7916  -13.9963   -2.1592 C   0  0  0  0  0  0  0  0  0  0  0  0
   -5.5590  -13.3581   -2.2627 C   0  0  0  0  0  0  0  0  0  0  0  0
    0.1889  -12.6652   -0.0598 N   0  0  0  0  0  0  0  0  0  0  0  0
    1.1596  -11.7564   -0.2902 N   0  0  0  0  0  0  0  0  0  0  0  0
    2.5879   -9.3449   -1.3609 C   0  0  0  0  0  0  0  0  0  0  0  0
    3.1795   -8.1926   -1.9199 C   0  0  0  0  0  0  0  0  0  0  0  0
    5.3895   -4.9506   -4.1621 N   0  0  0  0  0  0  0  0  0  0  0  0
    6.6196   -4.4675   -4.5801 O   0  0  0  0  0  0  0  0  0  0  0  0
    8.5257   -0.5866   -5.6797 H   0  0  0  0  0  0  0  0  0  0  0  0
    7.7535   -1.1292   -4.1792 H   0  0  0  0  0  0  0  0  0  0  0  0
    6.7641   -0.5957   -5.5408 H   0  0  0  0  0  0  0  0  0  0  0  0
    8.3781   -2.0258   -7.7938 H   0  0  0  0  0  0  0  0  0  0  0  0
    6.6145   -2.0600   -7.6714 H   0  0  0  0  0  0  0  0  0  0  0  0
    7.5173   -3.5747   -7.7587 H   0  0  0  0  0  0  0  0  0  0  0  0
    9.8238   -2.7562   -5.8318 H   0  0  0  0  0  0  0  0  0  0  0  0
    8.9926   -4.3165   -5.7901 H   0  0  0  0  0  0  0  0  0  0  0  0
    9.0830   -3.3239   -4.3285 H   0  0  0  0  0  0  0  0  0  0  0  0
    4.6398   -2.1401   -5.7349 H   0  0  0  0  0  0  0  0  0  0  0  0
    2.5661   -3.4041   -4.8189 H   0  0  0  0  0  0  0  0  0  0  0  0
    4.0438   -6.0928   -3.2047 H   0  0  0  0  0  0  0  0  0  0  0  0
    0.4479   -6.9733   -3.5405 H   0  0  0  0  0  0  0  0  0  0  0  0
   -0.5525   -8.8851   -2.5922 H   0  0  0  0  0  0  0  0  0  0  0  0
   -1.5011  -10.5865   -1.8350 H   0  0  0  0  0  0  0  0  0  0  0  0
   -2.1891  -13.9940   -0.1441 H   0  0  0  0  0  0  0  0  0  0  0  0
   -4.1700  -14.4295    0.6750 H   0  0  0  0  0  0  0  0  0  0  0  0
   -6.2996  -15.5911    0.8105 H   0  0  0  0  0  0  0  0  0  0  0  0
   -8.5216  -14.9825    1.0381 H   0  0  0  0  0  0  0  0  0  0  0  0
   -8.4030  -16.6817    0.4730 H   0  0  0  0  0  0  0  0  0  0  0  0
  -10.6923  -16.4458   -0.5482 H   0  0  0  0  0  0  0  0  0  0  0  0
  -10.7116  -14.7573   -0.0883 H   0  0  0  0  0  0  0  0  0  0  0  0
  -10.7249  -17.3912    3.1466 H   0  0  0  0  0  0  0  0  0  0  0  0
   -9.5605  -17.6917    1.8733 H   0  0  0  0  0  0  0  0  0  0  0  0
  -11.6577  -19.2887    1.9229 H   0  0  0  0  0  0  0  0  0  0  0  0
  -11.3419  -18.5059    0.3636 H   0  0  0  0  0  0  0  0  0  0  0  0
  -13.3625  -17.7307    2.4791 H   0  0  0  0  0  0  0  0  0  0  0  0
  -13.5823  -17.7768    0.7155 H   0  0  0  0  0  0  0  0  0  0  0  0
  -12.8419  -15.5228    2.3279 H   0  0  0  0  0  0  0  0  0  0  0  0
  -12.8142  -15.5646    0.5695 H   0  0  0  0  0  0  0  0  0  0  0  0
   -7.5450  -13.8515   -2.9309 H   0  0  0  0  0  0  0  0  0  0  0  0
   -5.3696  -12.7208   -3.1260 H   0  0  0  0  0  0  0  0  0  0  0  0
    0.4274  -13.4688    0.5085 H   0  0  0  0  0  0  0  0  0  0  0  0
    3.1962  -10.0134   -0.7538 H   0  0  0  0  0  0  0  0  0  0  0  0
    4.2287   -7.9936   -1.7213 H   0  0  0  0  0  0  0  0  0  0  0  0
  1  2  1  0  0  0  0
  1 42  1  0  0  0  0
  1 43  1  0  0  0  0
  1 44  1  0  0  0  0
  2  3  1  0  0  0  0
  2  4  1  0  0  0  0
  2  5  1  0  0  0  0
  3 45  1  0  0  0  0
  3 46  1  0  0  0  0
  3 47  1  0  0  0  0
  4 48  1  0  0  0  0
  4 49  1  0  0  0  0
  4 50  1  0  0  0  0
  5  6  2  0  0  0  0
  5 41  1  0  0  0  0
  6  7  1  0  0  0  0
  6 51  1  0  0  0  0
  7  8  1  0  0  0  0
  7 40  2  0  0  0  0
  8  9  1  0  0  0  0
  8 52  1  0  0  0  0
  9 10  2  0  0  0  0
  9 11  1  0  0  0  0
 11 12  1  0  0  0  0
 11 53  1  0  0  0  0
 12 13  1  0  0  0  0
 12 39  2  0  0  0  0
 13 14  2  0  0  0  0
 13 54  1  0  0  0  0
 14 15  1  0  0  0  0
 14 55  1  0  0  0  0
 15 16  1  0  0  0  0
 15 38  2  0  0  0  0
 16 17  1  0  0  0  0
 16 37  2  0  0  0  0
 17 18  2  0  0  0  0
 17 56  1  0  0  0  0
 18 19  1  0  0  0  0
 18 36  1  0  0  0  0
 19 20  1  0  0  0  0
 19 57  1  0  0  0  0
 20 21  2  0  0  0  0
 20 22  1  0  0  0  0
 22 23  1  0  0  0  0
 22 35  2  0  0  0  0
 23 24  2  0  0  0  0
 23 58  1  0  0  0  0
 24 25  1  0  0  0  0
 24 59  1  0  0  0  0
 25 26  1  0  0  0  0
 25 34  2  0  0  0  0
 26 27  1  0  0  0  0
 27 28  1  0  0  0  0
 27 60  1  0  0  0  0
 27 61  1  0  0  0  0
 28 29  1  0  0  0  0
 28 62  1  0  0  0  0
 28 63  1  0  0  0  0
 29 30  1  0  0  0  0
 29 33  1  0  0  0  0
 30 31  1  0  0  0  0
 30 64  1  0  0  0  0
 30 65  1  0  0  0  0
 31 32  1  0  0  0  0
 31 66  1  0  0  0  0
 31 67  1  0  0  0  0
 32 33  1  0  0  0  0
 32 68  1  0  0  0  0
 32 69  1  0  0  0  0
 33 70  1  0  0  0  0
 33 71  1  0  0  0  0
 34 35  1  0  0  0  0
 34 72  1  0  0  0  0
 35 73  1  0  0  0  0
 36 37  1  0  0  0  0
 36 74  1  0  0  0  0
 38 39  1  0  0  0  0
 38 75  1  0  0  0  0
 39 76  1  0  0  0  0
 40 41  1  0  0  0  0
M  END
$$$$
