CHEMBL371225
 OpenBabel04072215373D

 53 56  0  0  0  0  0  0  0  0999 V2000
    8.9625   -3.4301   -0.8834 C   0  0  0  0  0  0  0  0  0  0  0  0
    8.0694   -3.9699    0.2217 C   0  0  0  0  0  0  0  0  0  0  0  0
    7.3915   -2.8660    1.0348 C   0  0  0  0  0  0  0  0  0  0  0  0
    6.3825   -2.0450    0.2619 C   0  0  0  0  0  0  0  0  0  0  0  0
    6.7273   -0.3673    0.1351 S   0  0  0  0  0  0  0  0  0  0  0  0
    5.3779   -0.0762   -0.8310 C   0  0  0  0  0  0  0  0  0  0  0  0
    5.1762    1.1672   -1.3014 N   0  0  0  0  0  0  0  0  0  0  0  0
    4.0887    1.2609   -2.0615 C   0  0  0  0  0  0  0  0  0  0  0  0
    3.2248    0.2841   -2.3516 N   0  0  0  0  0  0  0  0  0  0  0  0
    3.4440   -0.9495   -1.8485 C   0  0  0  0  0  0  0  0  0  0  0  0
    2.4712   -1.8737   -2.1988 N   0  0  0  0  0  0  0  0  0  0  0  0
    4.5908   -1.1959   -1.0492 C   0  0  0  0  0  0  0  0  0  0  0  0
    5.1898   -2.3790   -0.3895 C   0  0  0  0  0  0  0  0  0  0  0  0
    4.7012   -3.7723   -0.4564 C   0  0  0  0  0  0  0  0  0  0  0  0
    4.1834   -4.2641   -1.6520 C   0  0  0  0  0  0  0  0  0  0  0  0
    3.6415   -5.5501   -1.7339 C   0  0  0  0  0  0  0  0  0  0  0  0
    3.7025   -6.4403   -0.6582 C   0  0  0  0  0  0  0  0  0  0  0  0
    3.1821   -7.7532   -0.7119 N   0  0  0  0  0  0  0  0  0  0  0  0
    2.3180   -8.2094   -1.6901 C   0  0  0  0  0  0  0  0  0  0  0  0
    1.8433   -7.4974   -2.5688 O   0  0  0  0  0  0  0  0  0  0  0  0
    2.0147   -9.5574   -1.5650 N   0  0  0  0  0  0  0  0  0  0  0  0
    1.2404  -10.2466   -2.5327 C   0  0  0  0  0  0  0  0  0  0  0  0
    1.1977   -9.8416   -3.8727 C   0  0  0  0  0  0  0  0  0  0  0  0
    0.3354  -10.4511   -4.7796 C   0  0  0  0  0  0  0  0  0  0  0  0
   -0.4682  -11.5051   -4.3641 C   0  0  0  0  0  0  0  0  0  0  0  0
   -0.3919  -11.9736   -3.0467 C   0  0  0  0  0  0  0  0  0  0  0  0
   -1.2601  -13.1143   -2.6048 C   0  0  0  0  0  0  0  0  0  0  0  0
    0.4764  -11.3467   -2.1351 C   0  0  0  0  0  0  0  0  0  0  0  0
    4.3154   -5.9967    0.5124 C   0  0  0  0  0  0  0  0  0  0  0  0
    4.7523   -4.6627    0.6284 C   0  0  0  0  0  0  0  0  0  0  0  0
    9.4507   -4.2588   -1.4057 H   0  0  0  0  0  0  0  0  0  0  0  0
    9.7410   -2.7798   -0.4734 H   0  0  0  0  0  0  0  0  0  0  0  0
    8.3867   -2.8628   -1.6207 H   0  0  0  0  0  0  0  0  0  0  0  0
    8.6824   -4.5715    0.9039 H   0  0  0  0  0  0  0  0  0  0  0  0
    7.3415   -4.6551   -0.2200 H   0  0  0  0  0  0  0  0  0  0  0  0
    8.1777   -2.2189    1.4476 H   0  0  0  0  0  0  0  0  0  0  0  0
    6.9072   -3.2946    1.9183 H   0  0  0  0  0  0  0  0  0  0  0  0
    3.8759    2.2351   -2.4905 H   0  0  0  0  0  0  0  0  0  0  0  0
    1.6711   -1.4154   -2.6221 H   0  0  0  0  0  0  0  0  0  0  0  0
    2.2607   -2.5753   -1.5023 H   0  0  0  0  0  0  0  0  0  0  0  0
    4.1630   -3.6548   -2.5534 H   0  0  0  0  0  0  0  0  0  0  0  0
    3.1944   -5.8173   -2.6868 H   0  0  0  0  0  0  0  0  0  0  0  0
    3.3813   -8.3615    0.0654 H   0  0  0  0  0  0  0  0  0  0  0  0
    2.0352   -9.9455   -0.6339 H   0  0  0  0  0  0  0  0  0  0  0  0
    1.8215   -9.0300   -4.2390 H   0  0  0  0  0  0  0  0  0  0  0  0
    0.2831  -10.0845   -5.8011 H   0  0  0  0  0  0  0  0  0  0  0  0
   -1.1560  -11.9550   -5.0759 H   0  0  0  0  0  0  0  0  0  0  0  0
   -1.8697  -13.4928   -3.4310 H   0  0  0  0  0  0  0  0  0  0  0  0
   -1.9369  -12.7853   -1.8107 H   0  0  0  0  0  0  0  0  0  0  0  0
   -0.6403  -13.9391   -2.2396 H   0  0  0  0  0  0  0  0  0  0  0  0
    0.5090  -11.6975   -1.1079 H   0  0  0  0  0  0  0  0  0  0  0  0
    4.4366   -6.6605    1.3634 H   0  0  0  0  0  0  0  0  0  0  0  0
    5.1471   -4.3508    1.5894 H   0  0  0  0  0  0  0  0  0  0  0  0
  1  2  1  0  0  0  0
  1 31  1  0  0  0  0
  1 32  1  0  0  0  0
  1 33  1  0  0  0  0
  2  3  1  0  0  0  0
  2 34  1  0  0  0  0
  2 35  1  0  0  0  0
  3  4  1  0  0  0  0
  3 36  1  0  0  0  0
  3 37  1  0  0  0  0
  4  5  1  0  0  0  0
  4 13  2  0  0  0  0
  5  6  1  0  0  0  0
  6  7  1  0  0  0  0
  6 12  2  0  0  0  0
  7  8  2  0  0  0  0
  8  9  1  0  0  0  0
  8 38  1  0  0  0  0
  9 10  2  0  0  0  0
 10 11  1  0  0  0  0
 10 12  1  0  0  0  0
 11 39  1  0  0  0  0
 11 40  1  0  0  0  0
 12 13  1  0  0  0  0
 13 14  1  0  0  0  0
 14 15  1  0  0  0  0
 14 30  2  0  0  0  0
 15 16  2  0  0  0  0
 15 41  1  0  0  0  0
 16 17  1  0  0  0  0
 16 42  1  0  0  0  0
 17 18  1  0  0  0  0
 17 29  2  0  0  0  0
 18 19  1  0  0  0  0
 18 43  1  0  0  0  0
 19 20  2  0  0  0  0
 19 21  1  0  0  0  0
 21 22  1  0  0  0  0
 21 44  1  0  0  0  0
 22 23  1  0  0  0  0
 22 28  2  0  0  0  0
 23 24  2  0  0  0  0
 23 45  1  0  0  0  0
 24 25  1  0  0  0  0
 24 46  1  0  0  0  0
 25 26  2  0  0  0  0
 25 47  1  0  0  0  0
 26 27  1  0  0  0  0
 26 28  1  0  0  0  0
 27 48  1  0  0  0  0
 27 49  1  0  0  0  0
 27 50  1  0  0  0  0
 28 51  1  0  0  0  0
 29 30  1  0  0  0  0
 29 52  1  0  0  0  0
 30 53  1  0  0  0  0
M  END
$$$$
