CHEMBL3954818
 OpenBabel04072215373D

 57 61  0  0  0  0  0  0  0  0999 V2000
    1.4199    1.0076   -0.8985 C   0  0  0  0  0  0  0  0  0  0  0  0
    2.2644    0.7112    0.3501 C   0  0  0  0  0  0  0  0  0  0  0  0
    3.6891    0.6689    0.0519 N   0  0  0  0  0  0  0  0  0  0  0  0
    4.0325   -0.0431   -1.0494 N   0  0  0  0  0  0  0  0  0  0  0  0
    5.2609    0.3625   -1.3366 C   0  0  0  0  0  0  0  0  0  0  0  0
    5.9151   -0.0493   -2.5997 C   0  0  0  0  0  0  0  0  0  0  0  0
    5.7716    1.1883   -0.3219 C   0  0  0  0  0  0  0  0  0  0  0  0
    4.7684    1.3150    0.6412 C   0  0  0  0  0  0  0  0  0  0  0  0
    4.8283    1.9917    1.9457 C   0  0  0  0  0  0  0  0  0  0  0  0
    3.8541    2.0785    2.6900 O   0  0  0  0  0  0  0  0  0  0  0  0
    6.0964    2.4985    2.2431 N   0  0  0  0  0  0  0  0  0  0  0  0
    6.5986    3.1575    3.3937 C   0  0  0  0  0  0  0  0  0  0  0  0
    5.8697    3.3981    4.5551 C   0  0  0  0  0  0  0  0  0  0  0  0
    6.4709    4.0369    5.6439 C   0  0  0  0  0  0  0  0  0  0  0  0
    7.8081    4.4426    5.5933 C   0  0  0  0  0  0  0  0  0  0  0  0
    8.5595    4.2046    4.4453 C   0  0  0  0  0  0  0  0  0  0  0  0
    9.8518    4.6920    4.4656 O   0  0  0  0  0  0  0  0  0  0  0  0
   10.8372    4.1078    3.6981 C   0  0  0  0  0  0  0  0  0  0  0  0
   10.9522    2.7312    3.5256 C   0  0  0  0  0  0  0  0  0  0  0  0
   11.9739    2.1887    2.7345 C   0  0  0  0  0  0  0  0  0  0  0  0
   12.9631    3.0300    2.1824 C   0  0  0  0  0  0  0  0  0  0  0  0
   14.1762    2.8842    1.4284 C   0  0  0  0  0  0  0  0  0  0  0  0
   14.8469    1.6826    1.0078 C   0  0  0  0  0  0  0  0  0  0  0  0
   14.5094    0.4087    1.2630 C   0  0  0  0  0  0  0  0  0  0  0  0
   15.2193   -0.7556    0.8684 C   0  0  0  0  0  0  0  0  0  0  0  0
   16.4344   -0.8705    0.2387 C   0  0  0  0  0  0  0  0  0  0  0  0
   16.6406   -2.2196    0.1243 N   0  0  0  0  0  0  0  0  0  0  0  0
   15.5638   -2.8508    0.6811 C   0  0  0  0  0  0  0  0  0  0  0  0
   14.6871   -1.9885    1.1425 N   0  0  0  0  0  0  0  0  0  0  0  0
   14.7177    4.0831    1.1570 N   0  0  0  0  0  0  0  0  0  0  0  0
   13.9052    4.9638    1.7576 N   0  0  0  0  0  0  0  0  0  0  0  0
   12.8377    4.3996    2.4026 C   0  0  0  0  0  0  0  0  0  0  0  0
   11.7972    4.9714    3.1518 C   0  0  0  0  0  0  0  0  0  0  0  0
    7.9471    3.5841    3.3464 C   0  0  0  0  0  0  0  0  0  0  0  0
    0.3798    1.2150   -0.6306 H   0  0  0  0  0  0  0  0  0  0  0  0
    1.4108    0.1521   -1.5871 H   0  0  0  0  0  0  0  0  0  0  0  0
    1.8115    1.8665   -1.4558 H   0  0  0  0  0  0  0  0  0  0  0  0
    1.9916   -0.2724    0.7495 H   0  0  0  0  0  0  0  0  0  0  0  0
    2.0760    1.4718    1.1080 H   0  0  0  0  0  0  0  0  0  0  0  0
    5.1966   -0.5054   -3.2889 H   0  0  0  0  0  0  0  0  0  0  0  0
    6.7136   -0.7702   -2.4039 H   0  0  0  0  0  0  0  0  0  0  0  0
    6.3470    0.8240   -3.0988 H   0  0  0  0  0  0  0  0  0  0  0  0
    6.7603    1.6152   -0.3097 H   0  0  0  0  0  0  0  0  0  0  0  0
    6.8037    2.3583    1.5281 H   0  0  0  0  0  0  0  0  0  0  0  0
    4.8287    3.0917    4.6388 H   0  0  0  0  0  0  0  0  0  0  0  0
    5.8886    4.2345    6.5479 H   0  0  0  0  0  0  0  0  0  0  0  0
    8.2599    4.9461    6.4497 H   0  0  0  0  0  0  0  0  0  0  0  0
   10.2520    2.0513    4.0044 H   0  0  0  0  0  0  0  0  0  0  0  0
   11.9843    1.1165    2.5801 H   0  0  0  0  0  0  0  0  0  0  0  0
   15.7518    1.8637    0.4314 H   0  0  0  0  0  0  0  0  0  0  0  0
   13.6230    0.1863    1.8381 H   0  0  0  0  0  0  0  0  0  0  0  0
   17.1524   -0.1470   -0.1193 H   0  0  0  0  0  0  0  0  0  0  0  0
   17.4429   -2.6720   -0.2905 H   0  0  0  0  0  0  0  0  0  0  0  0
   15.4765   -3.9285    0.7223 H   0  0  0  0  0  0  0  0  0  0  0  0
   14.1413    5.9472    1.6973 H   0  0  0  0  0  0  0  0  0  0  0  0
   11.7415    6.0428    3.3180 H   0  0  0  0  0  0  0  0  0  0  0  0
    8.5215    3.4397    2.4386 H   0  0  0  0  0  0  0  0  0  0  0  0
  1  2  1  0  0  0  0
  1 35  1  0  0  0  0
  1 36  1  0  0  0  0
  1 37  1  0  0  0  0
  2  3  1  0  0  0  0
  2 38  1  0  0  0  0
  2 39  1  0  0  0  0
  3  4  1  0  0  0  0
  3  8  1  0  0  0  0
  4  5  2  0  0  0  0
  5  6  1  0  0  0  0
  5  7  1  0  0  0  0
  6 40  1  0  0  0  0
  6 41  1  0  0  0  0
  6 42  1  0  0  0  0
  7  8  2  0  0  0  0
  7 43  1  0  0  0  0
  8  9  1  0  0  0  0
  9 10  2  0  0  0  0
  9 11  1  0  0  0  0
 11 12  1  0  0  0  0
 11 44  1  0  0  0  0
 12 13  1  0  0  0  0
 12 34  2  0  0  0  0
 13 14  2  0  0  0  0
 13 45  1  0  0  0  0
 14 15  1  0  0  0  0
 14 46  1  0  0  0  0
 15 16  2  0  0  0  0
 15 47  1  0  0  0  0
 16 17  1  0  0  0  0
 16 34  1  0  0  0  0
 17 18  1  0  0  0  0
 18 19  1  0  0  0  0
 18 33  2  0  0  0  0
 19 20  2  0  0  0  0
 19 48  1  0  0  0  0
 20 21  1  0  0  0  0
 20 49  1  0  0  0  0
 21 22  1  0  0  0  0
 21 32  2  0  0  0  0
 22 23  1  0  0  0  0
 22 30  2  0  0  0  0
 23 24  2  0  0  0  0
 23 50  1  0  0  0  0
 24 25  1  0  0  0  0
 24 51  1  0  0  0  0
 25 26  2  0  0  0  0
 25 29  1  0  0  0  0
 26 27  1  0  0  0  0
 26 52  1  0  0  0  0
 27 28  1  0  0  0  0
 27 53  1  0  0  0  0
 28 29  2  0  0  0  0
 28 54  1  0  0  0  0
 30 31  1  0  0  0  0
 31 32  1  0  0  0  0
 31 55  1  0  0  0  0
 32 33  1  0  0  0  0
 33 56  1  0  0  0  0
 34 57  1  0  0  0  0
M  END
$$$$
