CHEMBL4592597
 OpenBabel04072215383D

 54 58  0  0  0  0  0  0  0  0999 V2000
    0.8859   -0.1296    0.0822 C   0  0  0  0  0  0  0  0  0  0  0  0
    2.3928   -0.0851    0.1443 C   0  0  0  0  0  0  0  0  0  0  0  0
    3.0761   -1.2415    0.1311 C   0  0  0  0  0  0  0  0  0  0  0  0
    4.5326   -1.2480    0.0849 C   0  0  0  0  0  0  0  0  0  0  0  0
    5.2214   -2.4539   -0.0308 C   0  0  0  0  0  0  0  0  0  0  0  0
    6.5972   -2.4049   -0.0824 C   0  0  0  0  0  0  0  0  0  0  0  0
    7.3035   -1.2615    0.0195 N   0  0  0  0  0  0  0  0  0  0  0  0
    6.6458   -0.0794    0.1498 C   0  0  0  0  0  0  0  0  0  0  0  0
    7.4173    1.0744    0.4213 N   0  0  0  0  0  0  0  0  0  0  0  0
    8.7696    1.2265    0.0572 C   0  0  0  0  0  0  0  0  0  0  0  0
    9.2540    0.7666   -1.1746 C   0  0  0  0  0  0  0  0  0  0  0  0
   10.6092    0.8556   -1.4903 C   0  0  0  0  0  0  0  0  0  0  0  0
   11.5068    1.3636   -0.5487 C   0  0  0  0  0  0  0  0  0  0  0  0
   12.8749    1.3227   -0.7099 O   0  0  0  0  0  0  0  0  0  0  0  0
   13.4330    0.2266   -1.3438 C   0  0  0  0  0  0  0  0  0  0  0  0
   12.9267   -1.0671   -1.1942 C   0  0  0  0  0  0  0  0  0  0  0  0
   13.4898   -2.0821   -1.9434 C   0  0  0  0  0  0  0  0  0  0  0  0
   14.5433   -1.9090   -2.7679 N   0  0  0  0  0  0  0  0  0  0  0  0
   15.0804   -0.6730   -2.8420 C   0  0  0  0  0  0  0  0  0  0  0  0
   16.1566   -0.5591   -3.7236 N   0  0  0  0  0  0  0  0  0  0  0  0
   14.5602    0.4249   -2.1446 C   0  0  0  0  0  0  0  0  0  0  0  0
   15.3091    1.9810   -2.2583 Cl  0  0  0  0  0  0  0  0  0  0  0  0
   11.0061    1.9444    0.6161 C   0  0  0  0  0  0  0  0  0  0  0  0
   11.8418    2.5137    1.4981 F   0  0  0  0  0  0  0  0  0  0  0  0
    9.6438    1.9016    0.9112 C   0  0  0  0  0  0  0  0  0  0  0  0
    5.2437   -0.0474    0.1528 C   0  0  0  0  0  0  0  0  0  0  0  0
    4.4816    1.2235    0.1432 C   0  0  0  0  0  0  0  0  0  0  0  0
    5.1200    2.2789    0.1417 O   0  0  0  0  0  0  0  0  0  0  0  0
    3.0648    1.1460    0.1260 N   0  0  0  0  0  0  0  0  0  0  0  0
    2.3762    2.3996    0.0841 C   0  0  0  0  0  0  0  0  0  0  0  0
    2.5733    3.2678   -1.0000 C   0  0  0  0  0  0  0  0  0  0  0  0
    1.9604    4.5228   -1.0201 C   0  0  0  0  0  0  0  0  0  0  0  0
    1.1629    4.9181    0.0505 C   0  0  0  0  0  0  0  0  0  0  0  0
    0.4481    6.4830    0.0523 Cl  0  0  0  0  0  0  0  0  0  0  0  0
    0.9563    4.0618    1.1312 C   0  0  0  0  0  0  0  0  0  0  0  0
    1.5588    2.8003    1.1473 C   0  0  0  0  0  0  0  0  0  0  0  0
    0.5159   -1.1557   -0.0330 H   0  0  0  0  0  0  0  0  0  0  0  0
    0.5130    0.4360   -0.7780 H   0  0  0  0  0  0  0  0  0  0  0  0
    0.4371    0.2617    0.9990 H   0  0  0  0  0  0  0  0  0  0  0  0
    2.5639   -2.1995    0.1274 H   0  0  0  0  0  0  0  0  0  0  0  0
    4.7104   -3.4080   -0.0955 H   0  0  0  0  0  0  0  0  0  0  0  0
    7.1919   -3.3069   -0.1989 H   0  0  0  0  0  0  0  0  0  0  0  0
    6.8743    1.9284    0.2542 H   0  0  0  0  0  0  0  0  0  0  0  0
    8.5815    0.2891   -1.8835 H   0  0  0  0  0  0  0  0  0  0  0  0
   10.9511    0.4671   -2.4452 H   0  0  0  0  0  0  0  0  0  0  0  0
   12.0887   -1.2860   -0.5408 H   0  0  0  0  0  0  0  0  0  0  0  0
   13.0863   -3.0904   -1.9096 H   0  0  0  0  0  0  0  0  0  0  0  0
   16.3952   -1.4928   -4.0440 H   0  0  0  0  0  0  0  0  0  0  0  0
   16.9370   -0.0665   -3.3036 H   0  0  0  0  0  0  0  0  0  0  0  0
    9.2892    2.3289    1.8438 H   0  0  0  0  0  0  0  0  0  0  0  0
    3.2062    2.9714   -1.8326 H   0  0  0  0  0  0  0  0  0  0  0  0
    2.1248    5.1883   -1.8633 H   0  0  0  0  0  0  0  0  0  0  0  0
    0.3515    4.3789    1.9760 H   0  0  0  0  0  0  0  0  0  0  0  0
    1.4304    2.1605    2.0154 H   0  0  0  0  0  0  0  0  0  0  0  0
  1  2  1  0  0  0  0
  1 37  1  0  0  0  0
  1 38  1  0  0  0  0
  1 39  1  0  0  0  0
  2  3  2  0  0  0  0
  2 29  1  0  0  0  0
  3  4  1  0  0  0  0
  3 40  1  0  0  0  0
  4  5  1  0  0  0  0
  4 26  2  0  0  0  0
  5  6  2  0  0  0  0
  5 41  1  0  0  0  0
  6  7  1  0  0  0  0
  6 42  1  0  0  0  0
  7  8  2  0  0  0  0
  8  9  1  0  0  0  0
  8 26  1  0  0  0  0
  9 10  1  0  0  0  0
  9 43  1  0  0  0  0
 10 11  1  0  0  0  0
 10 25  2  0  0  0  0
 11 12  2  0  0  0  0
 11 44  1  0  0  0  0
 12 13  1  0  0  0  0
 12 45  1  0  0  0  0
 13 14  1  0  0  0  0
 13 23  2  0  0  0  0
 14 15  1  0  0  0  0
 15 16  1  0  0  0  0
 15 21  2  0  0  0  0
 16 17  2  0  0  0  0
 16 46  1  0  0  0  0
 17 18  1  0  0  0  0
 17 47  1  0  0  0  0
 18 19  2  0  0  0  0
 19 20  1  0  0  0  0
 19 21  1  0  0  0  0
 20 48  1  0  0  0  0
 20 49  1  0  0  0  0
 21 22  1  0  0  0  0
 23 24  1  0  0  0  0
 23 25  1  0  0  0  0
 25 50  1  0  0  0  0
 26 27  1  0  0  0  0
 27 28  2  0  0  0  0
 27 29  1  0  0  0  0
 29 30  1  0  0  0  0
 30 31  1  0  0  0  0
 30 36  2  0  0  0  0
 31 32  2  0  0  0  0
 31 51  1  0  0  0  0
 32 33  1  0  0  0  0
 32 52  1  0  0  0  0
 33 34  1  0  0  0  0
 33 35  2  0  0  0  0
 35 36  1  0  0  0  0
 35 53  1  0  0  0  0
 36 54  1  0  0  0  0
M  END
$$$$
