CHEMBL3780276
 OpenBabel04072215373D

 65 69  0  0  0  0  0  0  0  0999 V2000
   10.8535   -3.1287   -1.0612 C   0  0  0  0  0  0  0  0  0  0  0  0
   10.2837   -2.2055   -0.1410 O   0  0  0  0  0  0  0  0  0  0  0  0
    9.1460   -2.6067    0.5039 C   0  0  0  0  0  0  0  0  0  0  0  0
    8.4807   -3.8181    0.3181 C   0  0  0  0  0  0  0  0  0  0  0  0
    7.3290   -4.1188    1.0590 C   0  0  0  0  0  0  0  0  0  0  0  0
    6.8324   -3.2189    2.0095 C   0  0  0  0  0  0  0  0  0  0  0  0
    5.5545   -3.4655    2.7802 C   0  0  0  0  0  0  0  0  0  0  0  0
    5.2157   -4.8870    3.1672 C   0  0  0  0  0  0  0  0  0  0  0  0
    4.3580   -5.4991    2.3275 N   0  0  0  0  0  0  0  0  0  0  0  0
    3.8262   -6.7070    2.6564 N   0  0  0  0  0  0  0  0  0  0  0  0
    4.1022   -7.3138    3.8299 C   0  0  0  0  0  0  0  0  0  0  0  0
    3.4000   -8.5080    4.1686 N   0  0  0  0  0  0  0  0  0  0  0  0
    2.3673   -9.1094    3.4015 C   0  0  0  0  0  0  0  0  0  0  0  0
    2.1784  -10.4881    3.4628 C   0  0  0  0  0  0  0  0  0  0  0  0
    1.2114  -11.1193    2.6671 C   0  0  0  0  0  0  0  0  0  0  0  0
    0.3827  -10.3939    1.8007 C   0  0  0  0  0  0  0  0  0  0  0  0
   -0.5439  -10.9977    0.9079 N   0  0  0  0  0  0  0  0  0  0  0  0
   -0.7857  -12.3541    0.8029 C   0  0  0  0  0  0  0  0  0  0  0  0
   -0.2904  -13.2093    1.5331 O   0  0  0  0  0  0  0  0  0  0  0  0
   -1.6304  -12.6830   -0.2546 N   0  0  0  0  0  0  0  0  0  0  0  0
   -1.9286  -14.0564   -0.4645 C   0  0  0  0  0  0  0  0  0  0  0  0
   -2.3917  -14.8507    0.5912 C   0  0  0  0  0  0  0  0  0  0  0  0
   -2.5536  -16.2295    0.4339 C   0  0  0  0  0  0  0  0  0  0  0  0
   -2.2462  -16.8314   -0.7834 C   0  0  0  0  0  0  0  0  0  0  0  0
   -2.3072  -18.1727   -1.0483 O   0  0  0  0  0  0  0  0  0  0  0  0
   -2.7249  -19.0171    0.0203 C   0  0  0  0  0  0  0  0  0  0  0  0
   -1.8190  -16.0310   -1.8496 C   0  0  0  0  0  0  0  0  0  0  0  0
   -1.6823  -14.6434   -1.7037 C   0  0  0  0  0  0  0  0  0  0  0  0
    0.4958   -9.0073    1.8136 C   0  0  0  0  0  0  0  0  0  0  0  0
    1.4571   -8.3778    2.6253 C   0  0  0  0  0  0  0  0  0  0  0  0
    5.0464   -6.7425    4.7181 C   0  0  0  0  0  0  0  0  0  0  0  0
    5.4234   -7.3225    5.9609 C   0  0  0  0  0  0  0  0  0  0  0  0
    6.3716   -6.7258    6.7953 C   0  0  0  0  0  0  0  0  0  0  0  0
    6.9647   -5.5326    6.4204 C   0  0  0  0  0  0  0  0  0  0  0  0
    6.6010   -4.9227    5.2203 C   0  0  0  0  0  0  0  0  0  0  0  0
    5.6392   -5.5032    4.3576 C   0  0  0  0  0  0  0  0  0  0  0  0
    7.4868   -1.9864    2.1606 C   0  0  0  0  0  0  0  0  0  0  0  0
    8.6332   -1.6877    1.4186 C   0  0  0  0  0  0  0  0  0  0  0  0
   11.8126   -2.7224   -1.3967 H   0  0  0  0  0  0  0  0  0  0  0  0
   10.2098   -3.2432   -1.9394 H   0  0  0  0  0  0  0  0  0  0  0  0
   11.0557   -4.0963   -0.5897 H   0  0  0  0  0  0  0  0  0  0  0  0
    8.8213   -4.5501   -0.4065 H   0  0  0  0  0  0  0  0  0  0  0  0
    6.8193   -5.0613    0.8663 H   0  0  0  0  0  0  0  0  0  0  0  0
    4.7296   -3.0733    2.1695 H   0  0  0  0  0  0  0  0  0  0  0  0
    5.5458   -2.8523    3.6904 H   0  0  0  0  0  0  0  0  0  0  0  0
    4.0628   -9.2040    4.4948 H   0  0  0  0  0  0  0  0  0  0  0  0
    2.7922  -11.1139    4.1054 H   0  0  0  0  0  0  0  0  0  0  0  0
    1.1515  -12.1985    2.7488 H   0  0  0  0  0  0  0  0  0  0  0  0
   -1.1072  -10.3820    0.3406 H   0  0  0  0  0  0  0  0  0  0  0  0
   -1.4963  -12.1244   -1.0852 H   0  0  0  0  0  0  0  0  0  0  0  0
   -2.5976  -14.4048    1.5620 H   0  0  0  0  0  0  0  0  0  0  0  0
   -2.8899  -16.7998    1.2928 H   0  0  0  0  0  0  0  0  0  0  0  0
   -2.6722  -20.0531   -0.3285 H   0  0  0  0  0  0  0  0  0  0  0  0
   -3.7643  -18.8101    0.2959 H   0  0  0  0  0  0  0  0  0  0  0  0
   -2.0612  -18.9282    0.8871 H   0  0  0  0  0  0  0  0  0  0  0  0
   -1.5580  -16.5002   -2.7954 H   0  0  0  0  0  0  0  0  0  0  0  0
   -1.3002  -14.0613   -2.5363 H   0  0  0  0  0  0  0  0  0  0  0  0
   -0.1414   -8.3795    1.1967 H   0  0  0  0  0  0  0  0  0  0  0  0
    1.4942   -7.2916    2.6189 H   0  0  0  0  0  0  0  0  0  0  0  0
    4.9714   -8.2517    6.3011 H   0  0  0  0  0  0  0  0  0  0  0  0
    6.6499   -7.1949    7.7374 H   0  0  0  0  0  0  0  0  0  0  0  0
    7.7121   -5.0613    7.0597 H   0  0  0  0  0  0  0  0  0  0  0  0
    7.0910   -3.9872    4.9613 H   0  0  0  0  0  0  0  0  0  0  0  0
    7.1006   -1.2369    2.8484 H   0  0  0  0  0  0  0  0  0  0  0  0
    9.1248   -0.7268    1.5506 H   0  0  0  0  0  0  0  0  0  0  0  0
  1  2  1  0  0  0  0
  1 39  1  0  0  0  0
  1 40  1  0  0  0  0
  1 41  1  0  0  0  0
  2  3  1  0  0  0  0
  3  4  1  0  0  0  0
  3 38  2  0  0  0  0
  4  5  2  0  0  0  0
  4 42  1  0  0  0  0
  5  6  1  0  0  0  0
  5 43  1  0  0  0  0
  6  7  1  0  0  0  0
  6 37  2  0  0  0  0
  7  8  1  0  0  0  0
  7 44  1  0  0  0  0
  7 45  1  0  0  0  0
  8  9  1  0  0  0  0
  8 36  2  0  0  0  0
  9 10  2  0  0  0  0
 10 11  1  0  0  0  0
 11 12  1  0  0  0  0
 11 31  2  0  0  0  0
 12 13  1  0  0  0  0
 12 46  1  0  0  0  0
 13 14  1  0  0  0  0
 13 30  2  0  0  0  0
 14 15  2  0  0  0  0
 14 47  1  0  0  0  0
 15 16  1  0  0  0  0
 15 48  1  0  0  0  0
 16 17  1  0  0  0  0
 16 29  2  0  0  0  0
 17 18  1  0  0  0  0
 17 49  1  0  0  0  0
 18 19  2  0  0  0  0
 18 20  1  0  0  0  0
 20 21  1  0  0  0  0
 20 50  1  0  0  0  0
 21 22  1  0  0  0  0
 21 28  2  0  0  0  0
 22 23  2  0  0  0  0
 22 51  1  0  0  0  0
 23 24  1  0  0  0  0
 23 52  1  0  0  0  0
 24 25  1  0  0  0  0
 24 27  2  0  0  0  0
 25 26  1  0  0  0  0
 26 53  1  0  0  0  0
 26 54  1  0  0  0  0
 26 55  1  0  0  0  0
 27 28  1  0  0  0  0
 27 56  1  0  0  0  0
 28 57  1  0  0  0  0
 29 30  1  0  0  0  0
 29 58  1  0  0  0  0
 30 59  1  0  0  0  0
 31 32  1  0  0  0  0
 31 36  1  0  0  0  0
 32 33  2  0  0  0  0
 32 60  1  0  0  0  0
 33 34  1  0  0  0  0
 33 61  1  0  0  0  0
 34 35  2  0  0  0  0
 34 62  1  0  0  0  0
 35 36  1  0  0  0  0
 35 63  1  0  0  0  0
 37 38  1  0  0  0  0
 37 64  1  0  0  0  0
 38 65  1  0  0  0  0
M  END
$$$$
