CHEMBL4171115
 OpenBabel04072215383D

 79 84  0  0  1  0  0  0  0  0999 V2000
    2.7780    0.0814    1.1795 C   0  0  0  0  0  0  0  0  0  0  0  0
    2.4701    0.1939   -0.2151 O   0  0  0  0  0  0  0  0  0  0  0  0
    3.1322   -0.6210   -1.0955 C   0  0  0  0  0  0  0  0  0  0  0  0
    4.3325   -1.2279   -0.7416 C   0  0  0  0  0  0  0  0  0  0  0  0
    4.9567   -2.1960   -1.5388 C   0  0  0  0  0  0  0  0  0  0  0  0
    6.0562   -2.9656   -1.0955 C   0  0  0  0  0  0  0  0  0  0  0  0
    6.5833   -2.9322    0.1872 O   0  0  0  0  0  0  0  0  0  0  0  0
    5.7668   -3.0764    1.2992 C   0  0  0  0  0  0  0  0  0  0  0  0
    6.2788   -2.6555    2.5302 C   0  0  0  0  0  0  0  0  0  0  0  0
    5.4921   -2.7240    3.6911 C   0  0  0  0  0  0  0  0  0  0  0  0
    4.1830   -3.2160    3.6650 C   0  0  0  0  0  0  0  0  0  0  0  0
    3.3680   -3.3481    4.8274 N   0  0  0  0  0  0  0  0  0  0  0  0
    3.8991   -3.5727    6.0736 C   0  0  0  0  0  0  0  0  0  0  0  0
    5.1057   -3.8059    6.2515 O   0  0  0  0  0  0  0  0  0  0  0  0
    3.0052   -3.5790    7.1254 N   0  0  0  0  0  0  0  0  0  0  0  0
    3.5503   -3.6266    8.4799 N   0  0  0  0  0  0  0  0  0  0  0  0
    4.7007   -2.8975    8.8221 C   0  0  0  0  0  0  0  0  0  0  0  0
    5.2191   -1.9923    8.1734 O   0  0  0  0  0  0  0  0  0  0  0  0
    5.2598   -3.3230   10.1576 C   0  0  0  0  0  0  0  0  0  0  0  0
    4.1542   -4.5626   10.8625 S   0  0  0  0  0  0  0  0  0  0  0  0
    3.1961   -4.7463    9.3323 C   0  0  3  0  0  0  0  0  0  0  0  0
    1.7209   -4.8818    9.5960 C   0  0  0  0  0  0  0  0  0  0  0  0
    0.9617   -3.8953   10.2336 C   0  0  0  0  0  0  0  0  0  0  0  0
    1.5511   -2.7877   10.7044 F   0  0  0  0  0  0  0  0  0  0  0  0
   -0.4201   -4.0189   10.3865 C   0  0  0  0  0  0  0  0  0  0  0  0
   -1.0753   -5.1495    9.9036 C   0  0  0  0  0  0  0  0  0  0  0  0
   -0.3347   -6.1662    9.3067 C   0  0  0  0  0  0  0  0  0  0  0  0
    1.0453   -6.0272    9.1661 C   0  0  0  0  0  0  0  0  0  0  0  0
    1.7275   -7.0148    8.5702 F   0  0  0  0  0  0  0  0  0  0  0  0
    3.6825   -3.6190    2.4279 C   0  0  0  0  0  0  0  0  0  0  0  0
    2.4223   -4.0755    2.3359 F   0  0  0  0  0  0  0  0  0  0  0  0
    4.4622   -3.5945    1.2631 C   0  0  0  0  0  0  0  0  0  0  0  0
    6.7226   -3.7776   -2.0007 C   0  0  0  0  0  0  0  0  0  0  0  0
    6.2272   -3.8463   -3.2886 C   0  0  0  0  0  0  0  0  0  0  0  0
    5.1076   -3.2150   -3.7059 N   0  0  0  0  0  0  0  0  0  0  0  0
    4.4718   -2.4102   -2.8397 C   0  0  0  0  0  0  0  0  0  0  0  0
    3.3183   -1.7399   -3.2383 C   0  0  0  0  0  0  0  0  0  0  0  0
    2.6435   -0.8428   -2.3931 C   0  0  0  0  0  0  0  0  0  0  0  0
    1.5615   -0.2347   -2.9920 O   0  0  0  0  0  0  0  0  0  0  0  0
    1.2754    1.0702   -2.4890 C   0  0  0  0  0  0  0  0  0  0  0  0
    0.6394    1.9674   -3.5398 C   0  0  0  0  0  0  0  0  0  0  0  0
   -0.6941    1.4009   -4.0233 C   0  0  0  0  0  0  0  0  0  0  0  0
   -1.3728    2.3109   -4.9604 N   0  0  0  0  0  0  0  0  0  0  0  0
   -2.6761    1.7574   -5.3684 C   0  0  0  0  0  0  0  0  0  0  0  0
   -2.3648    0.8875   -6.5695 C   0  0  0  0  0  0  0  0  0  0  0  0
   -1.3079    1.6888   -7.2975 C   0  0  0  0  0  0  0  0  0  0  0  0
   -0.6125    2.4941   -6.2112 C   0  0  0  0  0  0  0  0  0  0  0  0
    3.3067    0.9803    1.5162 H   0  0  0  0  0  0  0  0  0  0  0  0
    3.3607   -0.7958    1.4651 H   0  0  0  0  0  0  0  0  0  0  0  0
    1.8384   -0.0047    1.7292 H   0  0  0  0  0  0  0  0  0  0  0  0
    4.8224   -0.9490    0.1811 H   0  0  0  0  0  0  0  0  0  0  0  0
    7.2952   -2.2686    2.5986 H   0  0  0  0  0  0  0  0  0  0  0  0
    5.9436   -2.3595    4.6277 H   0  0  0  0  0  0  0  0  0  0  0  0
    2.3914   -3.5802    4.6727 H   0  0  0  0  0  0  0  0  0  0  0  0
    2.2029   -4.1887    6.9795 H   0  0  0  0  0  0  0  0  0  0  0  0
    5.3150   -2.4450   10.8062 H   0  0  0  0  0  0  0  0  0  0  0  0
    6.2548   -3.7551   10.0284 H   0  0  0  0  0  0  0  0  0  0  0  0
    3.5868   -5.6458    8.8442 H   0  0  0  0  0  0  0  0  0  0  0  0
   -0.9781   -3.2210   10.8693 H   0  0  0  0  0  0  0  0  0  0  0  0
   -2.1563   -5.2355    9.9886 H   0  0  0  0  0  0  0  0  0  0  0  0
   -0.8239   -7.0627    8.9354 H   0  0  0  0  0  0  0  0  0  0  0  0
    4.0177   -3.9405    0.3436 H   0  0  0  0  0  0  0  0  0  0  0  0
    7.6060   -4.3364   -1.7161 H   0  0  0  0  0  0  0  0  0  0  0  0
    6.7297   -4.4347   -4.0507 H   0  0  0  0  0  0  0  0  0  0  0  0
    2.9484   -1.8978   -4.2501 H   0  0  0  0  0  0  0  0  0  0  0  0
    2.1982    1.5763   -2.1906 H   0  0  0  0  0  0  0  0  0  0  0  0
    0.5853    0.9682   -1.6470 H   0  0  0  0  0  0  0  0  0  0  0  0
    1.3483    2.0883   -4.3652 H   0  0  0  0  0  0  0  0  0  0  0  0
    0.4853    2.9608   -3.1008 H   0  0  0  0  0  0  0  0  0  0  0  0
   -1.3365    1.2697   -3.1419 H   0  0  0  0  0  0  0  0  0  0  0  0
   -0.5444    0.4091   -4.4642 H   0  0  0  0  0  0  0  0  0  0  0  0
   -3.3313    2.5854   -5.6680 H   0  0  0  0  0  0  0  0  0  0  0  0
   -3.1948    1.2096   -4.5724 H   0  0  0  0  0  0  0  0  0  0  0  0
   -3.2432    0.7031   -7.1929 H   0  0  0  0  0  0  0  0  0  0  0  0
   -1.9599   -0.0825   -6.2553 H   0  0  0  0  0  0  0  0  0  0  0  0
   -1.7752    2.3693   -8.0172 H   0  0  0  0  0  0  0  0  0  0  0  0
   -0.6118    1.0410   -7.8379 H   0  0  0  0  0  0  0  0  0  0  0  0
   -0.6035    3.5590   -6.4695 H   0  0  0  0  0  0  0  0  0  0  0  0
    0.4340    2.1839   -6.1517 H   0  0  0  0  0  0  0  0  0  0  0  0
  1  2  1  0  0  0  0
  1 48  1  0  0  0  0
  1 49  1  0  0  0  0
  1 50  1  0  0  0  0
  2  3  1  0  0  0  0
  3  4  1  0  0  0  0
  3 38  2  0  0  0  0
  4  5  2  0  0  0  0
  4 51  1  0  0  0  0
  5  6  1  0  0  0  0
  5 36  1  0  0  0  0
  6  7  1  0  0  0  0
  6 33  2  0  0  0  0
  7  8  1  0  0  0  0
  8  9  1  0  0  0  0
  8 32  2  0  0  0  0
  9 10  2  0  0  0  0
  9 52  1  0  0  0  0
 10 11  1  0  0  0  0
 10 53  1  0  0  0  0
 11 12  1  0  0  0  0
 11 30  2  0  0  0  0
 12 13  1  0  0  0  0
 12 54  1  0  0  0  0
 13 14  2  0  0  0  0
 13 15  1  0  0  0  0
 15 16  1  0  0  0  0
 15 55  1  0  0  0  0
 16 17  1  0  0  0  0
 16 21  1  0  0  0  0
 17 18  2  0  0  0  0
 17 19  1  0  0  0  0
 19 20  1  0  0  0  0
 19 56  1  0  0  0  0
 19 57  1  0  0  0  0
 20 21  1  0  0  0  0
 21 22  1  0  0  0  0
 21 58  1  0  0  0  0
 22 23  1  0  0  0  0
 22 28  2  0  0  0  0
 23 24  1  0  0  0  0
 23 25  2  0  0  0  0
 25 26  1  0  0  0  0
 25 59  1  0  0  0  0
 26 27  2  0  0  0  0
 26 60  1  0  0  0  0
 27 28  1  0  0  0  0
 27 61  1  0  0  0  0
 28 29  1  0  0  0  0
 30 31  1  0  0  0  0
 30 32  1  0  0  0  0
 32 62  1  0  0  0  0
 33 34  1  0  0  0  0
 33 63  1  0  0  0  0
 34 35  2  0  0  0  0
 34 64  1  0  0  0  0
 35 36  1  0  0  0  0
 36 37  2  0  0  0  0
 37 38  1  0  0  0  0
 37 65  1  0  0  0  0
 38 39  1  0  0  0  0
 39 40  1  0  0  0  0
 40 41  1  0  0  0  0
 40 66  1  0  0  0  0
 40 67  1  0  0  0  0
 41 42  1  0  0  0  0
 41 68  1  0  0  0  0
 41 69  1  0  0  0  0
 42 43  1  0  0  0  0
 42 70  1  0  0  0  0
 42 71  1  0  0  0  0
 43 44  1  0  0  0  0
 43 47  1  0  0  0  0
 44 45  1  0  0  0  0
 44 72  1  0  0  0  0
 44 73  1  0  0  0  0
 45 46  1  0  0  0  0
 45 74  1  0  0  0  0
 45 75  1  0  0  0  0
 46 47  1  0  0  0  0
 46 76  1  0  0  0  0
 46 77  1  0  0  0  0
 47 78  1  0  0  0  0
 47 79  1  0  0  0  0
M  END
$$$$
