CHEMBL3921190
 OpenBabel04072215373D

 64 68  0  0  0  0  0  0  0  0999 V2000
    1.9631    0.2153    1.0971 C   0  0  0  0  0  0  0  0  0  0  0  0
    2.3242    0.0722   -0.2793 O   0  0  0  0  0  0  0  0  0  0  0  0
    2.9884    1.1633   -0.7803 C   0  0  0  0  0  0  0  0  0  0  0  0
    2.5956    2.4683   -0.5461 C   0  0  0  0  0  0  0  0  0  0  0  0
    3.3224    3.5186   -1.1070 C   0  0  0  0  0  0  0  0  0  0  0  0
    2.9943    4.8428   -0.9641 O   0  0  0  0  0  0  0  0  0  0  0  0
    1.9351    5.1270   -0.0539 C   0  0  0  0  0  0  0  0  0  0  0  0
    4.4828    3.2591   -1.8611 C   0  0  0  0  0  0  0  0  0  0  0  0
    4.9549    1.9590   -2.0510 C   0  0  0  0  0  0  0  0  0  0  0  0
    6.1962    1.7020   -2.6938 N   0  0  0  0  0  0  0  0  0  0  0  0
    6.6704    0.2825   -2.6609 C   0  0  0  0  0  0  0  0  0  0  0  0
    7.1512   -0.0760   -1.3101 C   0  0  0  0  0  0  0  0  0  0  0  0
    7.5208   -0.2838   -0.1802 C   0  0  0  0  0  0  0  0  0  0  0  0
    7.9142   -0.4000    1.1753 C   0  0  0  0  0  0  0  0  0  0  0  0
    8.0717   -1.6266    1.8010 C   0  0  0  0  0  0  0  0  0  0  0  0
    8.3912   -1.6318    3.1594 C   0  0  0  0  0  0  0  0  0  0  0  0
    8.5325   -2.9604    3.8379 C   0  0  0  0  0  0  0  0  0  0  0  0
    8.7431   -2.9897    5.1899 N   0  0  0  0  0  0  0  0  0  0  0  0
    8.4425   -4.0017    3.2084 O   0  0  0  0  0  0  0  0  0  0  0  0
    8.5718   -0.4263    3.8331 C   0  0  0  0  0  0  0  0  0  0  0  0
    8.4096    0.7402    3.1167 C   0  0  0  0  0  0  0  0  0  0  0  0
    8.0811    0.7820    1.8048 N   0  0  0  0  0  0  0  0  0  0  0  0
    7.2469    2.5474   -3.1952 C   0  0  0  0  0  0  0  0  0  0  0  0
    7.6878    2.2228   -4.4746 C   0  0  0  0  0  0  0  0  0  0  0  0
    8.9871    2.4840   -4.8375 C   0  0  0  0  0  0  0  0  0  0  0  0
    9.8291    3.2176   -4.0330 C   0  0  0  0  0  0  0  0  0  0  0  0
   11.0954    3.1945   -4.4486 N   0  0  0  0  0  0  0  0  0  0  0  0
   11.9344    4.0377   -3.8399 C   0  0  0  0  0  0  0  0  0  0  0  0
   11.5030    4.9509   -2.8952 C   0  0  0  0  0  0  0  0  0  0  0  0
   12.4481    6.0420   -2.6373 C   0  0  0  0  0  0  0  0  0  0  0  0
   12.5231    7.3333   -3.2333 C   0  0  0  0  0  0  0  0  0  0  0  0
   13.6975    7.9455   -3.0230 N   0  0  0  0  0  0  0  0  0  0  0  0
   14.3974    7.0455   -2.3130 N   0  0  0  0  0  0  0  0  0  0  0  0
   15.6688    7.3987   -1.7231 C   0  0  0  0  0  0  0  0  0  0  0  0
   13.7472    5.8480   -2.1865 C   0  0  0  0  0  0  0  0  0  0  0  0
   10.2286    4.8828   -2.3748 N   0  0  0  0  0  0  0  0  0  0  0  0
    9.3489    3.9173   -2.9070 C   0  0  0  0  0  0  0  0  0  0  0  0
    8.0295    3.4899   -2.4626 C   0  0  0  0  0  0  0  0  0  0  0  0
    4.1088    0.9181   -1.5798 C   0  0  0  0  0  0  0  0  0  0  0  0
    1.6242   -0.7573    1.4670 H   0  0  0  0  0  0  0  0  0  0  0  0
    1.1315    0.9164    1.2221 H   0  0  0  0  0  0  0  0  0  0  0  0
    2.8232    0.5244    1.7024 H   0  0  0  0  0  0  0  0  0  0  0  0
    1.7122    2.6484    0.0504 H   0  0  0  0  0  0  0  0  0  0  0  0
    1.8162    6.2115    0.0008 H   0  0  0  0  0  0  0  0  0  0  0  0
    2.1739    4.7648    0.9531 H   0  0  0  0  0  0  0  0  0  0  0  0
    0.9867    4.7059   -0.4067 H   0  0  0  0  0  0  0  0  0  0  0  0
    5.0214    4.1006   -2.2871 H   0  0  0  0  0  0  0  0  0  0  0  0
    7.5015    0.0817   -3.3506 H   0  0  0  0  0  0  0  0  0  0  0  0
    5.8912   -0.4041   -3.0093 H   0  0  0  0  0  0  0  0  0  0  0  0
    7.9328   -2.5546    1.2496 H   0  0  0  0  0  0  0  0  0  0  0  0
    8.7736   -2.1893    5.8008 H   0  0  0  0  0  0  0  0  0  0  0  0
    8.7821   -3.9056    5.6185 H   0  0  0  0  0  0  0  0  0  0  0  0
    8.8309   -0.3623    4.8795 H   0  0  0  0  0  0  0  0  0  0  0  0
    8.5325    1.7146    3.5826 H   0  0  0  0  0  0  0  0  0  0  0  0
    7.0763    1.6069   -5.1294 H   0  0  0  0  0  0  0  0  0  0  0  0
    9.3822    2.0668   -5.7617 H   0  0  0  0  0  0  0  0  0  0  0  0
   12.9564    4.0036   -4.1906 H   0  0  0  0  0  0  0  0  0  0  0  0
   11.7963    7.8356   -3.8598 H   0  0  0  0  0  0  0  0  0  0  0  0
   15.9421    8.4213   -1.9978 H   0  0  0  0  0  0  0  0  0  0  0  0
   16.4374    6.7004   -2.0646 H   0  0  0  0  0  0  0  0  0  0  0  0
   15.5513    7.3305   -0.6381 H   0  0  0  0  0  0  0  0  0  0  0  0
   14.2599    4.9778   -1.7999 H   0  0  0  0  0  0  0  0  0  0  0  0
    7.6671    3.8480   -1.5027 H   0  0  0  0  0  0  0  0  0  0  0  0
    4.3071   -0.1296   -1.7816 H   0  0  0  0  0  0  0  0  0  0  0  0
  1  2  1  0  0  0  0
  1 40  1  0  0  0  0
  1 41  1  0  0  0  0
  1 42  1  0  0  0  0
  2  3  1  0  0  0  0
  3  4  1  0  0  0  0
  3 39  2  0  0  0  0
  4  5  2  0  0  0  0
  4 43  1  0  0  0  0
  5  6  1  0  0  0  0
  5  8  1  0  0  0  0
  6  7  1  0  0  0  0
  7 44  1  0  0  0  0
  7 45  1  0  0  0  0
  7 46  1  0  0  0  0
  8  9  2  0  0  0  0
  8 47  1  0  0  0  0
  9 10  1  0  0  0  0
  9 39  1  0  0  0  0
 10 11  1  0  0  0  0
 10 23  1  0  0  0  0
 11 12  1  0  0  0  0
 11 48  1  0  0  0  0
 11 49  1  0  0  0  0
 12 13  3  0  0  0  0
 13 14  1  0  0  0  0
 14 15  1  0  0  0  0
 14 22  2  0  0  0  0
 15 16  2  0  0  0  0
 15 50  1  0  0  0  0
 16 17  1  0  0  0  0
 16 20  1  0  0  0  0
 17 18  1  0  0  0  0
 17 19  2  0  0  0  0
 18 51  1  0  0  0  0
 18 52  1  0  0  0  0
 20 21  2  0  0  0  0
 20 53  1  0  0  0  0
 21 22  1  0  0  0  0
 21 54  1  0  0  0  0
 23 24  1  0  0  0  0
 23 38  2  0  0  0  0
 24 25  2  0  0  0  0
 24 55  1  0  0  0  0
 25 26  1  0  0  0  0
 25 56  1  0  0  0  0
 26 27  1  0  0  0  0
 26 37  2  0  0  0  0
 27 28  2  0  0  0  0
 28 29  1  0  0  0  0
 28 57  1  0  0  0  0
 29 30  1  0  0  0  0
 29 36  2  0  0  0  0
 30 31  1  0  0  0  0
 30 35  2  0  0  0  0
 31 32  2  0  0  0  0
 31 58  1  0  0  0  0
 32 33  1  0  0  0  0
 33 34  1  0  0  0  0
 33 35  1  0  0  0  0
 34 59  1  0  0  0  0
 34 60  1  0  0  0  0
 34 61  1  0  0  0  0
 35 62  1  0  0  0  0
 36 37  1  0  0  0  0
 37 38  1  0  0  0  0
 38 63  1  0  0  0  0
 39 64  1  0  0  0  0
M  END
$$$$
