CHEMBL3403518
 OpenBabel04072215363D

 44 46  0  0  0  0  0  0  0  0999 V2000
    5.7225    1.8642   -1.8236 C   0  0  0  0  0  0  0  0  0  0  0  0
    4.9480    0.9604   -0.9130 C   0  0  0  0  0  0  0  0  0  0  0  0
    5.4523   -0.2773   -0.7044 N   0  0  0  0  0  0  0  0  0  0  0  0
    4.7823   -1.1749    0.0716 C   0  0  0  0  0  0  0  0  0  0  0  0
    5.2865   -2.4751    0.2738 N   0  0  0  0  0  0  0  0  0  0  0  0
    6.7194   -2.6477    0.0192 C   0  0  0  0  0  0  0  0  0  0  0  0
    4.5404   -3.6783    0.2172 C   0  0  0  0  0  0  0  0  0  0  0  0
    3.3381   -3.7676   -0.5072 C   0  0  0  0  0  0  0  0  0  0  0  0
    2.6172   -4.9663   -0.5872 C   0  0  0  0  0  0  0  0  0  0  0  0
    3.1114   -6.1109    0.0261 C   0  0  0  0  0  0  0  0  0  0  0  0
    2.5591   -7.3559   -0.0456 O   0  0  0  0  0  0  0  0  0  0  0  0
    1.8143   -7.6940   -1.2223 C   0  0  0  0  0  0  0  0  0  0  0  0
    2.6760   -7.6416   -2.4856 C   0  0  0  0  0  0  0  0  0  0  0  0
    1.3296   -9.1267   -1.0045 C   0  0  0  0  0  0  0  0  0  0  0  0
    4.2742   -6.0334    0.7859 C   0  0  0  0  0  0  0  0  0  0  0  0
    4.9812   -4.8330    0.8782 C   0  0  0  0  0  0  0  0  0  0  0  0
    3.5872   -0.7286    0.6649 C   0  0  0  0  0  0  0  0  0  0  0  0
    2.6036   -1.2552    1.5486 C   0  0  0  0  0  0  0  0  0  0  0  0
    1.6564   -0.2711    1.7150 C   0  0  0  0  0  0  0  0  0  0  0  0
    0.3944   -0.2038    2.4765 C   0  0  0  0  0  0  0  0  0  0  0  0
    2.0068    0.8393    1.0095 O   0  0  0  0  0  0  0  0  0  0  0  0
    3.1842    0.5660    0.3759 C   0  0  0  0  0  0  0  0  0  0  0  0
    3.8103    1.4526   -0.4038 N   0  0  0  0  0  0  0  0  0  0  0  0
    6.6278    1.3716   -2.1915 H   0  0  0  0  0  0  0  0  0  0  0  0
    6.0152    2.7736   -1.2905 H   0  0  0  0  0  0  0  0  0  0  0  0
    5.1066    2.1404   -2.6848 H   0  0  0  0  0  0  0  0  0  0  0  0
    7.2694   -1.7084   -0.0927 H   0  0  0  0  0  0  0  0  0  0  0  0
    6.8925   -3.2444   -0.8855 H   0  0  0  0  0  0  0  0  0  0  0  0
    7.1969   -3.1587    0.8651 H   0  0  0  0  0  0  0  0  0  0  0  0
    2.9531   -2.9079   -1.0503 H   0  0  0  0  0  0  0  0  0  0  0  0
    1.6910   -4.9752   -1.1524 H   0  0  0  0  0  0  0  0  0  0  0  0
    0.9340   -7.0478   -1.3158 H   0  0  0  0  0  0  0  0  0  0  0  0
    3.5673   -8.2701   -2.3767 H   0  0  0  0  0  0  0  0  0  0  0  0
    3.0311   -6.6313   -2.7004 H   0  0  0  0  0  0  0  0  0  0  0  0
    2.1104   -7.9845   -3.3596 H   0  0  0  0  0  0  0  0  0  0  0  0
    2.1794   -9.8076   -0.8738 H   0  0  0  0  0  0  0  0  0  0  0  0
    0.7262   -9.4781   -1.8462 H   0  0  0  0  0  0  0  0  0  0  0  0
    0.7323   -9.1952   -0.0889 H   0  0  0  0  0  0  0  0  0  0  0  0
    4.6495   -6.9204    1.2905 H   0  0  0  0  0  0  0  0  0  0  0  0
    5.8822   -4.8187    1.4838 H   0  0  0  0  0  0  0  0  0  0  0  0
    2.5863   -2.2402    1.9927 H   0  0  0  0  0  0  0  0  0  0  0  0
    0.2111   -1.1436    3.0081 H   0  0  0  0  0  0  0  0  0  0  0  0
   -0.4503   -0.0253    1.8046 H   0  0  0  0  0  0  0  0  0  0  0  0
    0.4315    0.6028    3.2141 H   0  0  0  0  0  0  0  0  0  0  0  0
  1  2  1  0  0  0  0
  1 24  1  0  0  0  0
  1 25  1  0  0  0  0
  1 26  1  0  0  0  0
  2  3  1  0  0  0  0
  2 23  2  0  0  0  0
  3  4  2  0  0  0  0
  4  5  1  0  0  0  0
  4 17  1  0  0  0  0
  5  6  1  0  0  0  0
  5  7  1  0  0  0  0
  6 27  1  0  0  0  0
  6 28  1  0  0  0  0
  6 29  1  0  0  0  0
  7  8  1  0  0  0  0
  7 16  2  0  0  0  0
  8  9  2  0  0  0  0
  8 30  1  0  0  0  0
  9 10  1  0  0  0  0
  9 31  1  0  0  0  0
 10 11  1  0  0  0  0
 10 15  2  0  0  0  0
 11 12  1  0  0  0  0
 12 13  1  0  0  0  0
 12 14  1  0  0  0  0
 12 32  1  0  0  0  0
 13 33  1  0  0  0  0
 13 34  1  0  0  0  0
 13 35  1  0  0  0  0
 14 36  1  0  0  0  0
 14 37  1  0  0  0  0
 14 38  1  0  0  0  0
 15 16  1  0  0  0  0
 15 39  1  0  0  0  0
 16 40  1  0  0  0  0
 17 18  1  0  0  0  0
 17 22  2  0  0  0  0
 18 19  2  0  0  0  0
 18 41  1  0  0  0  0
 19 20  1  0  0  0  0
 19 21  1  0  0  0  0
 20 42  1  0  0  0  0
 20 43  1  0  0  0  0
 20 44  1  0  0  0  0
 21 22  1  0  0  0  0
 22 23  1  0  0  0  0
M  END
$$$$
