CHEMBL4086939
 OpenBabel04072215383D

 68 72  0  0  0  0  0  0  0  0999 V2000
    1.1084   -2.3932   -0.8368 C   0  0  0  0  0  0  0  0  0  0  0  0
    2.4768   -1.9957   -0.7320 O   0  0  0  0  0  0  0  0  0  0  0  0
    3.0660   -1.7619   -1.9291 C   0  0  0  0  0  0  0  0  0  0  0  0
    2.5180   -1.8313   -3.0204 O   0  0  0  0  0  0  0  0  0  0  0  0
    4.5115   -1.4494   -1.7641 C   0  0  0  0  0  0  0  0  0  0  0  0
    5.1523   -1.3649   -0.5067 C   0  0  0  0  0  0  0  0  0  0  0  0
    6.5417   -1.1437   -0.4067 C   0  0  0  0  0  0  0  0  0  0  0  0
    7.2818   -1.0235   -1.5708 C   0  0  0  0  0  0  0  0  0  0  0  0
    6.6117   -1.0913   -2.8008 C   0  0  0  0  0  0  0  0  0  0  0  0
    5.2570   -1.2860   -2.9336 C   0  0  0  0  0  0  0  0  0  0  0  0
    7.5083   -0.9915   -3.8588 N   0  0  0  0  0  0  0  0  0  0  0  0
    8.8105   -0.9387   -3.4110 C   0  0  0  0  0  0  0  0  0  0  0  0
    9.7863   -1.0946   -4.1225 O   0  0  0  0  0  0  0  0  0  0  0  0
    8.7135   -0.8285   -1.8974 C   0  0  0  0  0  0  0  0  0  0  0  0
    9.8176   -0.6483   -1.1382 C   0  0  0  0  0  0  0  0  0  0  0  0
   11.0806   -0.3246   -1.6140 N   0  0  0  0  0  0  0  0  0  0  0  0
   11.4089    0.7882   -2.4156 C   0  0  0  0  0  0  0  0  0  0  0  0
   10.7022    1.9957   -2.3525 C   0  0  0  0  0  0  0  0  0  0  0  0
   10.9558    3.0333   -3.2609 C   0  0  0  0  0  0  0  0  0  0  0  0
   11.8973    2.8703   -4.2866 C   0  0  0  0  0  0  0  0  0  0  0  0
   12.0583    3.9046   -5.3761 C   0  0  0  0  0  0  0  0  0  0  0  0
   12.9889    4.9796   -5.0412 N   0  0  0  0  0  0  0  0  0  0  0  0
   12.5885    6.1445   -4.4181 C   0  0  0  0  0  0  0  0  0  0  0  0
   13.6551    7.0096   -4.3758 C   0  0  0  0  0  0  0  0  0  0  0  0
   14.7391    6.3577   -4.9970 C   0  0  0  0  0  0  0  0  0  0  0  0
   14.3173    5.1023   -5.4103 C   0  0  0  0  0  0  0  0  0  0  0  0
   15.1487    4.0473   -6.0794 C   0  0  0  0  0  0  0  0  0  0  0  0
   14.7152    3.6850   -7.4382 N   0  0  0  0  0  0  0  0  0  0  0  0
   14.7216    4.8269   -8.3579 C   0  0  0  0  0  0  0  0  0  0  0  0
   15.6192    2.6532   -7.9672 C   0  0  0  0  0  0  0  0  0  0  0  0
   12.6248    1.6750   -4.3332 C   0  0  0  0  0  0  0  0  0  0  0  0
   12.3919    0.6543   -3.4017 C   0  0  0  0  0  0  0  0  0  0  0  0
    9.7810   -0.8681    0.3235 C   0  0  0  0  0  0  0  0  0  0  0  0
   10.0405   -2.1484    0.8383 C   0  0  0  0  0  0  0  0  0  0  0  0
   10.0542   -2.3643    2.2182 C   0  0  0  0  0  0  0  0  0  0  0  0
    9.8076   -1.3077    3.0922 C   0  0  0  0  0  0  0  0  0  0  0  0
    9.5515   -0.0318    2.5912 C   0  0  0  0  0  0  0  0  0  0  0  0
    9.5439    0.1884    1.2105 C   0  0  0  0  0  0  0  0  0  0  0  0
    0.6781   -2.4066    0.1678 H   0  0  0  0  0  0  0  0  0  0  0  0
    1.0435   -3.4025   -1.2570 H   0  0  0  0  0  0  0  0  0  0  0  0
    0.5347   -1.6862   -1.4468 H   0  0  0  0  0  0  0  0  0  0  0  0
    4.5771   -1.4872    0.4099 H   0  0  0  0  0  0  0  0  0  0  0  0
    7.0025   -1.0959    0.5744 H   0  0  0  0  0  0  0  0  0  0  0  0
    4.7930   -1.3411   -3.9125 H   0  0  0  0  0  0  0  0  0  0  0  0
    7.2868   -1.1217   -4.8322 H   0  0  0  0  0  0  0  0  0  0  0  0
   11.8663   -0.8201   -1.2093 H   0  0  0  0  0  0  0  0  0  0  0  0
    9.9420    2.1414   -1.5904 H   0  0  0  0  0  0  0  0  0  0  0  0
   10.3779    3.9519   -3.1819 H   0  0  0  0  0  0  0  0  0  0  0  0
   11.0865    4.3735   -5.5831 H   0  0  0  0  0  0  0  0  0  0  0  0
   12.3680    3.4435   -6.3172 H   0  0  0  0  0  0  0  0  0  0  0  0
   11.5736    6.2638   -4.0645 H   0  0  0  0  0  0  0  0  0  0  0  0
   13.6508    8.0036   -3.9485 H   0  0  0  0  0  0  0  0  0  0  0  0
   15.7369    6.7549   -5.1329 H   0  0  0  0  0  0  0  0  0  0  0  0
   15.1271    3.1563   -5.4398 H   0  0  0  0  0  0  0  0  0  0  0  0
   16.1944    4.3851   -6.0988 H   0  0  0  0  0  0  0  0  0  0  0  0
   14.0996    5.6515   -7.9971 H   0  0  0  0  0  0  0  0  0  0  0  0
   14.2919    4.5267   -9.3213 H   0  0  0  0  0  0  0  0  0  0  0  0
   15.7320    5.2110   -8.5409 H   0  0  0  0  0  0  0  0  0  0  0  0
   15.6655    1.7879   -7.2969 H   0  0  0  0  0  0  0  0  0  0  0  0
   16.6412    3.0314   -8.1015 H   0  0  0  0  0  0  0  0  0  0  0  0
   15.2625    2.2859   -8.9357 H   0  0  0  0  0  0  0  0  0  0  0  0
   13.3398    1.5013   -5.1341 H   0  0  0  0  0  0  0  0  0  0  0  0
   12.9207   -0.2888   -3.5129 H   0  0  0  0  0  0  0  0  0  0  0  0
   10.2461   -2.9769    0.1655 H   0  0  0  0  0  0  0  0  0  0  0  0
   10.2686   -3.3564    2.6090 H   0  0  0  0  0  0  0  0  0  0  0  0
    9.8230   -1.4747    4.1676 H   0  0  0  0  0  0  0  0  0  0  0  0
    9.3681    0.7936    3.2743 H   0  0  0  0  0  0  0  0  0  0  0  0
    9.3598    1.1909    0.8312 H   0  0  0  0  0  0  0  0  0  0  0  0
  1  2  1  0  0  0  0
  1 39  1  0  0  0  0
  1 40  1  0  0  0  0
  1 41  1  0  0  0  0
  2  3  1  0  0  0  0
  3  4  2  0  0  0  0
  3  5  1  0  0  0  0
  5  6  1  0  0  0  0
  5 10  2  0  0  0  0
  6  7  2  0  0  0  0
  6 42  1  0  0  0  0
  7  8  1  0  0  0  0
  7 43  1  0  0  0  0
  8  9  2  0  0  0  0
  8 14  1  0  0  0  0
  9 10  1  0  0  0  0
  9 11  1  0  0  0  0
 10 44  1  0  0  0  0
 11 12  1  0  0  0  0
 11 45  1  0  0  0  0
 12 13  2  0  0  0  0
 12 14  1  0  0  0  0
 14 15  2  0  0  0  0
 15 16  1  0  0  0  0
 15 33  1  0  0  0  0
 16 17  1  0  0  0  0
 16 46  1  0  0  0  0
 17 18  1  0  0  0  0
 17 32  2  0  0  0  0
 18 19  2  0  0  0  0
 18 47  1  0  0  0  0
 19 20  1  0  0  0  0
 19 48  1  0  0  0  0
 20 21  1  0  0  0  0
 20 31  2  0  0  0  0
 21 22  1  0  0  0  0
 21 49  1  0  0  0  0
 21 50  1  0  0  0  0
 22 23  1  0  0  0  0
 22 26  1  0  0  0  0
 23 24  2  0  0  0  0
 23 51  1  0  0  0  0
 24 25  1  0  0  0  0
 24 52  1  0  0  0  0
 25 26  2  0  0  0  0
 25 53  1  0  0  0  0
 26 27  1  0  0  0  0
 27 28  1  0  0  0  0
 27 54  1  0  0  0  0
 27 55  1  0  0  0  0
 28 29  1  0  0  0  0
 28 30  1  0  0  0  0
 29 56  1  0  0  0  0
 29 57  1  0  0  0  0
 29 58  1  0  0  0  0
 30 59  1  0  0  0  0
 30 60  1  0  0  0  0
 30 61  1  0  0  0  0
 31 32  1  0  0  0  0
 31 62  1  0  0  0  0
 32 63  1  0  0  0  0
 33 34  1  0  0  0  0
 33 38  2  0  0  0  0
 34 35  2  0  0  0  0
 34 64  1  0  0  0  0
 35 36  1  0  0  0  0
 35 65  1  0  0  0  0
 36 37  2  0  0  0  0
 36 66  1  0  0  0  0
 37 38  1  0  0  0  0
 37 67  1  0  0  0  0
 38 68  1  0  0  0  0
M  END
$$$$
