CHEMBL3409418
 OpenBabel04072215363D

 47 50  0  0  0  0  0  0  0  0999 V2000
    1.2106    0.6042    0.5060 O   0  0  0  0  0  0  0  0  0  0  0  0
    2.2119    0.2049   -0.0744 C   0  0  0  0  0  0  0  0  0  0  0  0
    2.5913    0.6425   -1.3410 N   0  0  0  0  0  0  0  0  0  0  0  0
    1.8941    1.5981   -2.1340 C   0  0  0  0  0  0  0  0  0  0  0  0
    0.8428    2.3971   -1.6596 C   0  0  0  0  0  0  0  0  0  0  0  0
    0.1461    3.2777   -2.5058 C   0  0  0  0  0  0  0  0  0  0  0  0
    0.5234    3.4074   -3.8372 C   0  0  0  0  0  0  0  0  0  0  0  0
   -0.1775    4.1305   -4.7735 O   0  0  0  0  0  0  0  0  0  0  0  0
   -0.5636    5.4459   -4.5842 C   0  0  0  0  0  0  0  0  0  0  0  0
   -0.0608    6.2862   -3.5983 C   0  0  0  0  0  0  0  0  0  0  0  0
   -0.4932    7.6003   -3.5865 C   0  0  0  0  0  0  0  0  0  0  0  0
   -1.3558    8.1261   -4.4815 N   0  0  0  0  0  0  0  0  0  0  0  0
   -1.8337    7.3242   -5.4452 C   0  0  0  0  0  0  0  0  0  0  0  0
   -2.7078    7.8607   -6.3849 C   0  0  0  0  0  0  0  0  0  0  0  0
   -3.2503    7.0896   -7.4157 C   0  0  0  0  0  0  0  0  0  0  0  0
   -2.9123    5.7480   -7.5174 C   0  0  0  0  0  0  0  0  0  0  0  0
   -2.0312    5.1892   -6.5913 C   0  0  0  0  0  0  0  0  0  0  0  0
   -1.4759    5.9634   -5.5443 C   0  0  0  0  0  0  0  0  0  0  0  0
    1.5730    2.6224   -4.3224 C   0  0  0  0  0  0  0  0  0  0  0  0
    2.2598    1.7336   -3.4787 C   0  0  0  0  0  0  0  0  0  0  0  0
    3.0812   -0.7528    0.4453 N   0  0  0  0  0  0  0  0  0  0  0  0
    2.9093   -1.4561    1.6709 C   0  0  0  0  0  0  0  0  0  0  0  0
    1.7916   -1.3156    2.4926 C   0  0  0  0  0  0  0  0  0  0  0  0
    1.6770   -2.0275    3.6907 C   0  0  0  0  0  0  0  0  0  0  0  0
    2.6724   -2.9175    4.0919 C   0  0  0  0  0  0  0  0  0  0  0  0
    2.4192   -3.7186    5.5978 Cl  0  0  0  0  0  0  0  0  0  0  0  0
    3.7944   -3.1134    3.2826 C   0  0  0  0  0  0  0  0  0  0  0  0
    4.8909   -4.1010    3.5942 C   0  0  0  0  0  0  0  0  0  0  0  0
    4.7631   -4.8204    4.7386 F   0  0  0  0  0  0  0  0  0  0  0  0
    5.0212   -5.0276    2.5999 F   0  0  0  0  0  0  0  0  0  0  0  0
    6.1097   -3.4940    3.6804 F   0  0  0  0  0  0  0  0  0  0  0  0
    3.9034   -2.3596    2.0783 C   0  0  0  0  0  0  0  0  0  0  0  0
    3.3340    0.1374   -1.7994 H   0  0  0  0  0  0  0  0  0  0  0  0
    0.5147    2.3501   -0.6267 H   0  0  0  0  0  0  0  0  0  0  0  0
   -0.7022    3.8278   -2.1085 H   0  0  0  0  0  0  0  0  0  0  0  0
    0.6568    5.9601   -2.8577 H   0  0  0  0  0  0  0  0  0  0  0  0
   -0.1374    8.3004   -2.8353 H   0  0  0  0  0  0  0  0  0  0  0  0
   -2.9733    8.9136   -6.3135 H   0  0  0  0  0  0  0  0  0  0  0  0
   -3.9326    7.5407   -8.1316 H   0  0  0  0  0  0  0  0  0  0  0  0
   -3.3290    5.1364   -8.3132 H   0  0  0  0  0  0  0  0  0  0  0  0
   -1.7751    4.1364   -6.6885 H   0  0  0  0  0  0  0  0  0  0  0  0
    1.8377    2.6772   -5.3759 H   0  0  0  0  0  0  0  0  0  0  0  0
    3.0541    1.1278   -3.9064 H   0  0  0  0  0  0  0  0  0  0  0  0
    3.9418   -0.9145   -0.0541 H   0  0  0  0  0  0  0  0  0  0  0  0
    0.9658   -0.6573    2.2430 H   0  0  0  0  0  0  0  0  0  0  0  0
    0.7902   -1.8770    4.3044 H   0  0  0  0  0  0  0  0  0  0  0  0
    4.7883   -2.5076    1.4587 H   0  0  0  0  0  0  0  0  0  0  0  0
  1  2  2  0  0  0  0
  2  3  1  0  0  0  0
  2 21  1  0  0  0  0
  3  4  1  0  0  0  0
  3 33  1  0  0  0  0
  4  5  1  0  0  0  0
  4 20  2  0  0  0  0
  5  6  2  0  0  0  0
  5 34  1  0  0  0  0
  6  7  1  0  0  0  0
  6 35  1  0  0  0  0
  7  8  1  0  0  0  0
  7 19  2  0  0  0  0
  8  9  1  0  0  0  0
  9 10  1  0  0  0  0
  9 18  2  0  0  0  0
 10 11  2  0  0  0  0
 10 36  1  0  0  0  0
 11 12  1  0  0  0  0
 11 37  1  0  0  0  0
 12 13  2  0  0  0  0
 13 14  1  0  0  0  0
 13 18  1  0  0  0  0
 14 15  2  0  0  0  0
 14 38  1  0  0  0  0
 15 16  1  0  0  0  0
 15 39  1  0  0  0  0
 16 17  2  0  0  0  0
 16 40  1  0  0  0  0
 17 18  1  0  0  0  0
 17 41  1  0  0  0  0
 19 20  1  0  0  0  0
 19 42  1  0  0  0  0
 20 43  1  0  0  0  0
 21 22  1  0  0  0  0
 21 44  1  0  0  0  0
 22 23  1  0  0  0  0
 22 32  2  0  0  0  0
 23 24  2  0  0  0  0
 23 45  1  0  0  0  0
 24 25  1  0  0  0  0
 24 46  1  0  0  0  0
 25 26  1  0  0  0  0
 25 27  2  0  0  0  0
 27 28  1  0  0  0  0
 27 32  1  0  0  0  0
 28 29  1  0  0  0  0
 28 30  1  0  0  0  0
 28 31  1  0  0  0  0
 32 47  1  0  0  0  0
M  END
$$$$
