CHEMBL603463
 OpenBabel04072215383D

 42 45  0  0  0  0  0  0  0  0999 V2000
    7.4708   -0.1142    3.1939 C   0  0  0  0  0  0  0  0  0  0  0  0
    7.5085    1.2924    3.3865 O   0  0  0  0  0  0  0  0  0  0  0  0
    6.9197    2.0761    2.4299 C   0  0  0  0  0  0  0  0  0  0  0  0
    6.2577    1.6003    1.2974 C   0  0  0  0  0  0  0  0  0  0  0  0
    5.7116    2.4954    0.3666 C   0  0  0  0  0  0  0  0  0  0  0  0
    5.7729    3.8806    0.5709 C   0  0  0  0  0  0  0  0  0  0  0  0
    5.2509    4.7380   -0.4194 N   0  0  0  0  0  0  0  0  0  0  0  0
    4.6122    5.9626   -0.1963 C   0  0  0  0  0  0  0  0  0  0  0  0
    3.9635    6.1541    0.9608 N   0  0  0  0  0  0  0  0  0  0  0  0
    3.3138    7.3125    1.1221 C   0  0  0  0  0  0  0  0  0  0  0  0
    3.2883    8.3018    0.1714 C   0  0  0  0  0  0  0  0  0  0  0  0
    4.0065    8.0542   -0.9826 C   0  0  0  0  0  0  0  0  0  0  0  0
    4.6568    6.8777   -1.1820 N   0  0  0  0  0  0  0  0  0  0  0  0
    4.0849    9.0550   -2.0726 C   0  0  0  0  0  0  0  0  0  0  0  0
    3.9840    8.6248   -3.4113 C   0  0  0  0  0  0  0  0  0  0  0  0
    4.0512    9.5257   -4.4790 C   0  0  0  0  0  0  0  0  0  0  0  0
    4.2815   10.8745   -4.2394 C   0  0  0  0  0  0  0  0  0  0  0  0
    4.4224   11.3262   -2.9312 C   0  0  0  0  0  0  0  0  0  0  0  0
    4.2701   10.4430   -1.8504 C   0  0  0  0  0  0  0  0  0  0  0  0
    4.2894   11.0552   -0.5811 N   0  0  0  0  0  0  0  0  0  0  0  0
    3.5180   10.7355    0.5024 C   0  0  0  0  0  0  0  0  0  0  0  0
    3.5572   11.4386    1.5119 O   0  0  0  0  0  0  0  0  0  0  0  0
    2.5568    9.5793    0.3810 C   0  0  0  0  0  0  0  0  0  0  0  0
    6.4437    4.3573    1.7020 C   0  0  0  0  0  0  0  0  0  0  0  0
    7.0034    3.4608    2.6204 C   0  0  0  0  0  0  0  0  0  0  0  0
    7.6548    3.9460    3.7255 O   0  0  0  0  0  0  0  0  0  0  0  0
    8.0500   -0.5788    3.9980 H   0  0  0  0  0  0  0  0  0  0  0  0
    7.9363   -0.4015    2.2454 H   0  0  0  0  0  0  0  0  0  0  0  0
    6.4446   -0.4896    3.2612 H   0  0  0  0  0  0  0  0  0  0  0  0
    6.1454    0.5389    1.1054 H   0  0  0  0  0  0  0  0  0  0  0  0
    5.1968    2.1014   -0.5064 H   0  0  0  0  0  0  0  0  0  0  0  0
    5.8528    4.8406   -1.2263 H   0  0  0  0  0  0  0  0  0  0  0  0
    2.7974    7.4168    2.0723 H   0  0  0  0  0  0  0  0  0  0  0  0
    3.8308    7.5678   -3.6277 H   0  0  0  0  0  0  0  0  0  0  0  0
    3.9251    9.1700   -5.4985 H   0  0  0  0  0  0  0  0  0  0  0  0
    4.3304   11.5795   -5.0659 H   0  0  0  0  0  0  0  0  0  0  0  0
    4.5808   12.3893   -2.7612 H   0  0  0  0  0  0  0  0  0  0  0  0
    4.7250   11.9660   -0.4902 H   0  0  0  0  0  0  0  0  0  0  0  0
    1.8560    9.7651   -0.4424 H   0  0  0  0  0  0  0  0  0  0  0  0
    1.9474    9.5352    1.2908 H   0  0  0  0  0  0  0  0  0  0  0  0
    6.5256    5.4239    1.8644 H   0  0  0  0  0  0  0  0  0  0  0  0
    7.5607    4.9109    3.7465 H   0  0  0  0  0  0  0  0  0  0  0  0
  1  2  1  0  0  0  0
  1 27  1  0  0  0  0
  1 28  1  0  0  0  0
  1 29  1  0  0  0  0
  2  3  1  0  0  0  0
  3  4  1  0  0  0  0
  3 25  2  0  0  0  0
  4  5  2  0  0  0  0
  4 30  1  0  0  0  0
  5  6  1  0  0  0  0
  5 31  1  0  0  0  0
  6  7  1  0  0  0  0
  6 24  2  0  0  0  0
  7  8  1  0  0  0  0
  7 32  1  0  0  0  0
  8  9  1  0  0  0  0
  8 13  2  0  0  0  0
  9 10  2  0  0  0  0
 10 11  1  0  0  0  0
 10 33  1  0  0  0  0
 11 12  2  0  0  0  0
 11 23  1  0  0  0  0
 12 13  1  0  0  0  0
 12 14  1  0  0  0  0
 14 15  1  0  0  0  0
 14 19  2  0  0  0  0
 15 16  2  0  0  0  0
 15 34  1  0  0  0  0
 16 17  1  0  0  0  0
 16 35  1  0  0  0  0
 17 18  2  0  0  0  0
 17 36  1  0  0  0  0
 18 19  1  0  0  0  0
 18 37  1  0  0  0  0
 19 20  1  0  0  0  0
 20 21  1  0  0  0  0
 20 38  1  0  0  0  0
 21 22  2  0  0  0  0
 21 23  1  0  0  0  0
 23 39  1  0  0  0  0
 23 40  1  0  0  0  0
 24 25  1  0  0  0  0
 24 41  1  0  0  0  0
 25 26  1  0  0  0  0
 26 42  1  0  0  0  0
M  END
$$$$
