CHEMBL2335376
 OpenBabel04072215363D

 43 46  0  0  0  0  0  0  0  0999 V2000
    1.2373    0.1158    0.3019 N   0  0  0  0  0  0  0  0  0  0  0  0
    2.6156    0.0680    0.1916 C   0  0  0  0  0  0  0  0  0  0  0  0
    3.1665   -1.1521    0.1764 N   0  0  0  0  0  0  0  0  0  0  0  0
    4.5107   -1.2930    0.0268 C   0  0  0  0  0  0  0  0  0  0  0  0
    5.0909   -2.5668   -0.0427 N   0  0  0  0  0  0  0  0  0  0  0  0
    4.6673   -3.7584    0.5697 C   0  0  0  0  0  0  0  0  0  0  0  0
    3.7915   -3.7686    1.6623 C   0  0  0  0  0  0  0  0  0  0  0  0
    3.3781   -4.9677    2.2458 C   0  0  0  0  0  0  0  0  0  0  0  0
    3.8113   -6.1814    1.7206 C   0  0  0  0  0  0  0  0  0  0  0  0
    4.6570   -6.1846    0.6142 C   0  0  0  0  0  0  0  0  0  0  0  0
    5.2225   -7.8323   -0.1229 Br  0  0  0  0  0  0  0  0  0  0  0  0
    5.0863   -4.9861    0.0406 C   0  0  0  0  0  0  0  0  0  0  0  0
    5.2725   -0.1242   -0.1135 C   0  0  0  0  0  0  0  0  0  0  0  0
    6.6457    0.2085   -0.2844 C   0  0  0  0  0  0  0  0  0  0  0  0
    6.7410    1.5839   -0.4218 C   0  0  0  0  0  0  0  0  0  0  0  0
    7.9355    2.4309   -0.7571 C   0  0  0  0  0  0  0  0  0  0  0  0
    7.8852    3.8438   -0.1706 C   0  0  0  0  0  0  0  0  0  0  0  0
    9.0430    4.7306   -0.5669 C   0  0  0  0  0  0  0  0  0  0  0  0
    9.0746    6.0438   -0.0969 C   0  0  0  0  0  0  0  0  0  0  0  0
   10.1197    6.8767   -0.4841 C   0  0  0  0  0  0  0  0  0  0  0  0
   11.1060    6.3832   -1.3271 C   0  0  0  0  0  0  0  0  0  0  0  0
   11.0022    5.0664   -1.7491 C   0  0  0  0  0  0  0  0  0  0  0  0
    9.9975    4.2360   -1.3894 N   0  0  0  0  0  0  0  0  0  0  0  0
    5.4689    2.0880   -0.2649 N   0  0  0  0  0  0  0  0  0  0  0  0
    4.5761    1.0687   -0.0921 C   0  0  0  0  0  0  0  0  0  0  0  0
    3.2553    1.2317    0.0492 N   0  0  0  0  0  0  0  0  0  0  0  0
    0.8598   -0.7602   -0.0359 H   0  0  0  0  0  0  0  0  0  0  0  0
    0.8970    0.9595   -0.1364 H   0  0  0  0  0  0  0  0  0  0  0  0
    6.0629   -2.5661   -0.3204 H   0  0  0  0  0  0  0  0  0  0  0  0
    3.4397   -2.8330    2.0918 H   0  0  0  0  0  0  0  0  0  0  0  0
    2.7167   -4.9449    3.1079 H   0  0  0  0  0  0  0  0  0  0  0  0
    3.4807   -7.1106    2.1745 H   0  0  0  0  0  0  0  0  0  0  0  0
    5.7301   -5.0058   -0.8347 H   0  0  0  0  0  0  0  0  0  0  0  0
    7.4764   -0.4830   -0.3444 H   0  0  0  0  0  0  0  0  0  0  0  0
    8.0083    2.4790   -1.8514 H   0  0  0  0  0  0  0  0  0  0  0  0
    8.8407    1.9200   -0.4032 H   0  0  0  0  0  0  0  0  0  0  0  0
    7.8485    3.7829    0.9246 H   0  0  0  0  0  0  0  0  0  0  0  0
    6.9688    4.3476   -0.5027 H   0  0  0  0  0  0  0  0  0  0  0  0
    8.2929    6.4184    0.5560 H   0  0  0  0  0  0  0  0  0  0  0  0
   10.1607    7.9037   -0.1326 H   0  0  0  0  0  0  0  0  0  0  0  0
   11.9317    7.0047   -1.6493 H   0  0  0  0  0  0  0  0  0  0  0  0
   11.7467    4.6342   -2.4116 H   0  0  0  0  0  0  0  0  0  0  0  0
    5.1909    3.0572   -0.3033 H   0  0  0  0  0  0  0  0  0  0  0  0
  1  2  1  0  0  0  0
  1 27  1  0  0  0  0
  1 28  1  0  0  0  0
  2  3  1  0  0  0  0
  2 26  2  0  0  0  0
  3  4  2  0  0  0  0
  4  5  1  0  0  0  0
  4 13  1  0  0  0  0
  5  6  1  0  0  0  0
  5 29  1  0  0  0  0
  6  7  1  0  0  0  0
  6 12  2  0  0  0  0
  7  8  2  0  0  0  0
  7 30  1  0  0  0  0
  8  9  1  0  0  0  0
  8 31  1  0  0  0  0
  9 10  2  0  0  0  0
  9 32  1  0  0  0  0
 10 11  1  0  0  0  0
 10 12  1  0  0  0  0
 12 33  1  0  0  0  0
 13 14  1  0  0  0  0
 13 25  2  0  0  0  0
 14 15  2  0  0  0  0
 14 34  1  0  0  0  0
 15 16  1  0  0  0  0
 15 24  1  0  0  0  0
 16 17  1  0  0  0  0
 16 35  1  0  0  0  0
 16 36  1  0  0  0  0
 17 18  1  0  0  0  0
 17 37  1  0  0  0  0
 17 38  1  0  0  0  0
 18 19  1  0  0  0  0
 18 23  2  0  0  0  0
 19 20  2  0  0  0  0
 19 39  1  0  0  0  0
 20 21  1  0  0  0  0
 20 40  1  0  0  0  0
 21 22  2  0  0  0  0
 21 41  1  0  0  0  0
 22 23  1  0  0  0  0
 22 42  1  0  0  0  0
 24 25  1  0  0  0  0
 24 43  1  0  0  0  0
 25 26  1  0  0  0  0
M  END
$$$$
