CHEMBL3690492
 OpenBabel04072215373D

 61 65  0  0  1  0  0  0  0  0999 V2000
    5.4138    2.7111    1.8490 O   0  0  0  0  0  0  0  0  0  0  0  0
    6.4100    2.2237    2.3645 C   0  0  0  0  0  0  0  0  0  0  0  0
    7.2051    2.9476    3.2270 N   0  0  0  0  0  0  0  0  0  0  0  0
    6.9215    4.3708    3.4311 C   0  0  0  0  0  0  0  0  0  0  0  0
    7.8534    5.0816    4.4114 C   0  0  0  0  0  0  0  0  0  0  0  0
    8.7740    4.2263    4.9203 F   0  0  0  0  0  0  0  0  0  0  0  0
    8.5330    6.0775    3.7989 F   0  0  0  0  0  0  0  0  0  0  0  0
    7.1757    5.6188    5.4476 F   0  0  0  0  0  0  0  0  0  0  0  0
    6.8943    0.9479    2.1999 N   0  0  0  0  0  0  0  0  0  0  0  0
    6.3784   -0.0655    1.3683 C   0  0  0  0  0  0  0  0  0  0  0  0
    5.2574    0.0837    0.5575 C   0  0  0  0  0  0  0  0  0  0  0  0
    4.7882   -0.9895   -0.2026 C   0  0  0  0  0  0  0  0  0  0  0  0
    5.4338   -2.2245   -0.1495 C   0  0  0  0  0  0  0  0  0  0  0  0
    6.5757   -2.3967    0.6421 C   0  0  0  0  0  0  0  0  0  0  0  0
    7.2734   -3.6865    0.6507 C   0  0  0  0  0  0  0  0  0  0  0  0
    7.4290   -4.6047   -0.3784 C   0  0  0  0  0  0  0  0  0  0  0  0
    8.1885   -5.6787   -0.0068 N   0  0  0  0  0  0  0  0  0  0  0  0
    8.5002   -5.4536    1.2486 C   0  0  0  0  0  0  0  0  0  0  0  0
    9.2587   -6.2421    2.1578 C   0  0  0  0  0  0  0  0  0  0  0  0
    9.3969   -5.8755    3.4555 C   0  0  0  0  0  0  0  0  0  0  0  0
   10.0770   -6.7794    4.4116 C   0  0  0  0  0  0  0  0  0  0  0  0
   10.0078   -8.1563    4.3028 C   0  0  0  0  0  0  0  0  0  0  0  0
   10.5487   -8.9449    5.3148 C   0  0  0  0  0  0  0  0  0  0  0  0
   11.1403   -8.3707    6.4295 C   0  0  0  0  0  0  0  0  0  0  0  0
   11.6043   -9.1431    7.4720 N   0  0  0  0  0  0  0  0  0  0  0  0
   12.1013  -10.5020    7.3020 C   0  0  0  0  0  0  0  0  0  0  0  0
   11.4031  -11.4066    8.3151 C   0  0  0  0  0  0  0  0  0  0  0  0
   11.5874  -10.8775    9.7365 C   0  0  0  0  0  0  0  0  0  0  0  0
   11.1398   -9.4150    9.8553 C   0  0  3  0  0  0  0  0  0  0  0  0
   11.4156   -8.9429   11.1722 O   0  0  0  0  0  0  0  0  0  0  0  0
   11.8205   -8.5354    8.7840 C   0  0  0  0  0  0  0  0  0  0  0  0
   11.1874   -7.0232    6.4940 N   0  0  0  0  0  0  0  0  0  0  0  0
   10.6605   -6.2215    5.4874 N   0  0  0  0  0  0  0  0  0  0  0  0
    8.8036   -4.6096    3.9021 C   0  0  0  0  0  0  0  0  0  0  0  0
    8.0748   -3.8704    3.0529 C   0  0  0  0  0  0  0  0  0  0  0  0
    7.9349   -4.2737    1.7237 N   0  0  0  0  0  0  0  0  0  0  0  0
    7.0488   -1.2959    1.3726 C   0  0  0  0  0  0  0  0  0  0  0  0
    8.1731    2.6650    3.3031 H   0  0  0  0  0  0  0  0  0  0  0  0
    5.8827    4.4583    3.7699 H   0  0  0  0  0  0  0  0  0  0  0  0
    6.9813    4.8545    2.4493 H   0  0  0  0  0  0  0  0  0  0  0  0
    7.6477    0.6835    2.8165 H   0  0  0  0  0  0  0  0  0  0  0  0
    4.7201    1.0248    0.4909 H   0  0  0  0  0  0  0  0  0  0  0  0
    3.9127   -0.8600   -0.8343 H   0  0  0  0  0  0  0  0  0  0  0  0
    5.0339   -3.0467   -0.7383 H   0  0  0  0  0  0  0  0  0  0  0  0
    7.0422   -4.5301   -1.3873 H   0  0  0  0  0  0  0  0  0  0  0  0
    9.6774   -7.1575    1.7551 H   0  0  0  0  0  0  0  0  0  0  0  0
    9.4953   -8.6405    3.4800 H   0  0  0  0  0  0  0  0  0  0  0  0
   10.4236  -10.0179    5.2309 H   0  0  0  0  0  0  0  0  0  0  0  0
   13.1857  -10.5142    7.4690 H   0  0  0  0  0  0  0  0  0  0  0  0
   11.9515  -10.9077    6.2968 H   0  0  0  0  0  0  0  0  0  0  0  0
   11.8003  -12.4244    8.2397 H   0  0  0  0  0  0  0  0  0  0  0  0
   10.3314  -11.4578    8.0834 H   0  0  0  0  0  0  0  0  0  0  0  0
   12.6417  -10.9658   10.0286 H   0  0  0  0  0  0  0  0  0  0  0  0
   11.0263  -11.4973   10.4454 H   0  0  0  0  0  0  0  0  0  0  0  0
   10.0530   -9.3651    9.7142 H   0  0  0  0  0  0  0  0  0  0  0  0
   12.3734   -9.0086   11.3244 H   0  0  0  0  0  0  0  0  0  0  0  0
   12.8964   -8.4562    8.9878 H   0  0  0  0  0  0  0  0  0  0  0  0
   11.4215   -7.5177    8.8719 H   0  0  0  0  0  0  0  0  0  0  0  0
    8.9419   -4.3037    4.9359 H   0  0  0  0  0  0  0  0  0  0  0  0
    7.5818   -2.9668    3.3783 H   0  0  0  0  0  0  0  0  0  0  0  0
    7.9709   -1.3823    1.9396 H   0  0  0  0  0  0  0  0  0  0  0  0
  1  2  2  0  0  0  0
  2  3  1  0  0  0  0
  2  9  1  0  0  0  0
  3  4  1  0  0  0  0
  3 38  1  0  0  0  0
  4  5  1  0  0  0  0
  4 39  1  0  0  0  0
  4 40  1  0  0  0  0
  5  6  1  0  0  0  0
  5  7  1  0  0  0  0
  5  8  1  0  0  0  0
  9 10  1  0  0  0  0
  9 41  1  0  0  0  0
 10 11  1  0  0  0  0
 10 37  2  0  0  0  0
 11 12  2  0  0  0  0
 11 42  1  0  0  0  0
 12 13  1  0  0  0  0
 12 43  1  0  0  0  0
 13 14  2  0  0  0  0
 13 44  1  0  0  0  0
 14 15  1  0  0  0  0
 14 37  1  0  0  0  0
 15 16  2  0  0  0  0
 15 36  1  0  0  0  0
 16 17  1  0  0  0  0
 16 45  1  0  0  0  0
 17 18  2  0  0  0  0
 18 19  1  0  0  0  0
 18 36  1  0  0  0  0
 19 20  2  0  0  0  0
 19 46  1  0  0  0  0
 20 21  1  0  0  0  0
 20 34  1  0  0  0  0
 21 22  1  0  0  0  0
 21 33  2  0  0  0  0
 22 23  2  0  0  0  0
 22 47  1  0  0  0  0
 23 24  1  0  0  0  0
 23 48  1  0  0  0  0
 24 25  1  0  0  0  0
 24 32  2  0  0  0  0
 25 26  1  0  0  0  0
 25 31  1  0  0  0  0
 26 27  1  0  0  0  0
 26 49  1  0  0  0  0
 26 50  1  0  0  0  0
 27 28  1  0  0  0  0
 27 51  1  0  0  0  0
 27 52  1  0  0  0  0
 28 29  1  0  0  0  0
 28 53  1  0  0  0  0
 28 54  1  0  0  0  0
 29 30  1  0  0  0  0
 29 31  1  0  0  0  0
 29 55  1  0  0  0  0
 30 56  1  0  0  0  0
 31 57  1  0  0  0  0
 31 58  1  0  0  0  0
 32 33  1  0  0  0  0
 34 35  2  0  0  0  0
 34 59  1  0  0  0  0
 35 36  1  0  0  0  0
 35 60  1  0  0  0  0
 37 61  1  0  0  0  0
M  END
$$$$
