CHEMBL4800500
 OpenBabel04072215383D

 63 65  0  0  0  0  0  0  0  0999 V2000
    4.7491   -0.8303    2.3129 C   0  0  0  0  0  0  0  0  0  0  0  0
    4.4234    0.4476    1.5456 C   0  0  0  0  0  0  0  0  0  0  0  0
    4.8732    0.4563    0.1415 N   0  0  0  0  0  0  0  0  0  0  0  0
    4.3687   -0.6870   -0.6468 C   0  0  0  0  0  0  0  0  0  0  0  0
    2.8566   -0.7708   -0.8589 C   0  0  0  0  0  0  0  0  0  0  0  0
    4.5531    1.7432   -0.5217 C   0  0  0  0  0  0  0  0  0  0  0  0
    5.1522    3.0065    0.1324 C   0  0  0  0  0  0  0  0  0  0  0  0
    6.6008    3.0128    0.2038 N   0  0  0  0  0  0  0  0  0  0  0  0
    7.2602    4.0923    0.7597 C   0  0  0  0  0  0  0  0  0  0  0  0
    6.6412    5.0442    1.2315 O   0  0  0  0  0  0  0  0  0  0  0  0
    8.7319    4.0285    0.7851 C   0  0  0  0  0  0  0  0  0  0  0  0
    9.5848    3.4010   -0.1213 C   0  0  0  0  0  0  0  0  0  0  0  0
    9.3455    2.6289   -1.3717 C   0  0  0  0  0  0  0  0  0  0  0  0
   10.8824    3.6859    0.2535 N   0  0  0  0  0  0  0  0  0  0  0  0
   10.9026    4.5109    1.3473 C   0  0  0  0  0  0  0  0  0  0  0  0
   12.1541    4.9708    1.8389 C   0  0  0  0  0  0  0  0  0  0  0  0
   12.7393    6.1004    1.4005 C   0  0  0  0  0  0  0  0  0  0  0  0
   12.2239    7.0050    0.3018 C   0  0  0  0  0  0  0  0  0  0  0  0
   11.2942    6.8400   -0.4623 O   0  0  0  0  0  0  0  0  0  0  0  0
   13.0878    8.0885    0.2940 N   0  0  0  0  0  0  0  0  0  0  0  0
   14.1111    7.9327    1.2161 C   0  0  0  0  0  0  0  0  0  0  0  0
   15.1520    8.8154    1.4247 C   0  0  0  0  0  0  0  0  0  0  0  0
   16.1141    8.4656    2.3703 C   0  0  0  0  0  0  0  0  0  0  0  0
   16.0241    7.2464    3.0793 C   0  0  0  0  0  0  0  0  0  0  0  0
   17.1146    6.8922    4.0722 C   0  0  0  0  0  0  0  0  0  0  0  0
   16.8816    7.4763    5.4647 C   0  0  0  0  0  0  0  0  0  0  0  0
   15.7350    6.8995    6.0787 O   0  0  0  0  0  0  0  0  0  0  0  0
   14.9330    6.3744    2.8564 C   0  0  0  0  0  0  0  0  0  0  0  0
   13.9750    6.7281    1.9157 C   0  0  0  0  0  0  0  0  0  0  0  0
    9.5875    4.7326    1.7211 C   0  0  0  0  0  0  0  0  0  0  0  0
    9.1212    5.5904    2.8476 C   0  0  0  0  0  0  0  0  0  0  0  0
    4.5937   -0.6649    3.3847 H   0  0  0  0  0  0  0  0  0  0  0  0
    5.7940   -1.1244    2.1705 H   0  0  0  0  0  0  0  0  0  0  0  0
    4.1034   -1.6609    2.0129 H   0  0  0  0  0  0  0  0  0  0  0  0
    4.9360    1.2494    2.0865 H   0  0  0  0  0  0  0  0  0  0  0  0
    3.3486    0.6514    1.6208 H   0  0  0  0  0  0  0  0  0  0  0  0
    4.7111   -1.6234   -0.1913 H   0  0  0  0  0  0  0  0  0  0  0  0
    4.8519   -0.6755   -1.6325 H   0  0  0  0  0  0  0  0  0  0  0  0
    2.2960   -0.6463    0.0716 H   0  0  0  0  0  0  0  0  0  0  0  0
    2.5930   -1.7530   -1.2671 H   0  0  0  0  0  0  0  0  0  0  0  0
    2.5127   -0.0175   -1.5748 H   0  0  0  0  0  0  0  0  0  0  0  0
    3.4658    1.8822   -0.5735 H   0  0  0  0  0  0  0  0  0  0  0  0
    4.9220    1.7017   -1.5549 H   0  0  0  0  0  0  0  0  0  0  0  0
    4.7540    3.1604    1.1411 H   0  0  0  0  0  0  0  0  0  0  0  0
    4.8500    3.8843   -0.4519 H   0  0  0  0  0  0  0  0  0  0  0  0
    7.0949    2.1349    0.1141 H   0  0  0  0  0  0  0  0  0  0  0  0
    8.2923    2.5916   -1.6549 H   0  0  0  0  0  0  0  0  0  0  0  0
    9.7046    1.6013   -1.2577 H   0  0  0  0  0  0  0  0  0  0  0  0
    9.8817    3.0888   -2.2090 H   0  0  0  0  0  0  0  0  0  0  0  0
   11.7019    3.3986   -0.2628 H   0  0  0  0  0  0  0  0  0  0  0  0
   12.5957    4.4088    2.6562 H   0  0  0  0  0  0  0  0  0  0  0  0
   12.9811    8.8535   -0.3556 H   0  0  0  0  0  0  0  0  0  0  0  0
   15.2292    9.7450    0.8694 H   0  0  0  0  0  0  0  0  0  0  0  0
   16.9502    9.1416    2.5451 H   0  0  0  0  0  0  0  0  0  0  0  0
   18.0751    7.2606    3.6876 H   0  0  0  0  0  0  0  0  0  0  0  0
   17.2035    5.8012    4.1312 H   0  0  0  0  0  0  0  0  0  0  0  0
   16.7609    8.5647    5.4430 H   0  0  0  0  0  0  0  0  0  0  0  0
   17.7412    7.2482    6.1038 H   0  0  0  0  0  0  0  0  0  0  0  0
   14.9583    7.2332    5.5951 H   0  0  0  0  0  0  0  0  0  0  0  0
   14.8583    5.4403    3.4055 H   0  0  0  0  0  0  0  0  0  0  0  0
    9.9604    5.9907    3.4250 H   0  0  0  0  0  0  0  0  0  0  0  0
    8.4928    5.0110    3.5314 H   0  0  0  0  0  0  0  0  0  0  0  0
    8.5433    6.4404    2.4717 H   0  0  0  0  0  0  0  0  0  0  0  0
  1  2  1  0  0  0  0
  1 32  1  0  0  0  0
  1 33  1  0  0  0  0
  1 34  1  0  0  0  0
  2  3  1  0  0  0  0
  2 35  1  0  0  0  0
  2 36  1  0  0  0  0
  3  4  1  0  0  0  0
  3  6  1  0  0  0  0
  4  5  1  0  0  0  0
  4 37  1  0  0  0  0
  4 38  1  0  0  0  0
  5 39  1  0  0  0  0
  5 40  1  0  0  0  0
  5 41  1  0  0  0  0
  6  7  1  0  0  0  0
  6 42  1  0  0  0  0
  6 43  1  0  0  0  0
  7  8  1  0  0  0  0
  7 44  1  0  0  0  0
  7 45  1  0  0  0  0
  8  9  1  0  0  0  0
  8 46  1  0  0  0  0
  9 10  2  0  0  0  0
  9 11  1  0  0  0  0
 11 12  2  0  0  0  0
 11 30  1  0  0  0  0
 12 13  1  0  0  0  0
 12 14  1  0  0  0  0
 13 47  1  0  0  0  0
 13 48  1  0  0  0  0
 13 49  1  0  0  0  0
 14 15  1  0  0  0  0
 14 50  1  0  0  0  0
 15 16  1  0  0  0  0
 15 30  2  0  0  0  0
 16 17  2  0  0  0  0
 16 51  1  0  0  0  0
 17 18  1  0  0  0  0
 17 29  1  0  0  0  0
 18 19  2  0  0  0  0
 18 20  1  0  0  0  0
 20 21  1  0  0  0  0
 20 52  1  0  0  0  0
 21 22  1  0  0  0  0
 21 29  2  0  0  0  0
 22 23  2  0  0  0  0
 22 53  1  0  0  0  0
 23 24  1  0  0  0  0
 23 54  1  0  0  0  0
 24 25  1  0  0  0  0
 24 28  2  0  0  0  0
 25 26  1  0  0  0  0
 25 55  1  0  0  0  0
 25 56  1  0  0  0  0
 26 27  1  0  0  0  0
 26 57  1  0  0  0  0
 26 58  1  0  0  0  0
 27 59  1  0  0  0  0
 28 29  1  0  0  0  0
 28 60  1  0  0  0  0
 30 31  1  0  0  0  0
 31 61  1  0  0  0  0
 31 62  1  0  0  0  0
 31 63  1  0  0  0  0
M  END
$$$$
