CHEMBL4175530
 OpenBabel04072215383D

 45 47  0  0  0  0  0  0  0  0999 V2000
    5.5309   -2.2590   -4.6999 C   0  0  0  0  0  0  0  0  0  0  0  0
    6.0574   -3.0649   -3.7652 C   0  0  0  0  0  0  0  0  0  0  0  0
    5.5617   -3.0044   -2.3619 C   0  0  0  0  0  0  0  0  0  0  0  0
    4.5554   -2.3692   -2.0673 O   0  0  0  0  0  0  0  0  0  0  0  0
    6.3813   -3.6712   -1.4840 N   0  0  0  0  0  0  0  0  0  0  0  0
    6.1499   -3.6995   -0.1072 C   0  0  0  0  0  0  0  0  0  0  0  0
    4.8780   -3.8634    0.4211 C   0  0  0  0  0  0  0  0  0  0  0  0
    4.7280   -3.8520    1.8011 C   0  0  0  0  0  0  0  0  0  0  0  0
    5.8410   -3.6359    2.6061 C   0  0  0  0  0  0  0  0  0  0  0  0
    7.0908   -3.4851    2.0082 C   0  0  0  0  0  0  0  0  0  0  0  0
    8.3292   -3.2482    2.7767 C   0  0  0  0  0  0  0  0  0  0  0  0
    9.5617   -3.6413    2.2387 C   0  0  0  0  0  0  0  0  0  0  0  0
   10.7579   -3.4807    2.9385 C   0  0  0  0  0  0  0  0  0  0  0  0
   10.7811   -2.8981    4.2063 C   0  0  0  0  0  0  0  0  0  0  0  0
   11.9670   -2.7565    4.9710 N   0  0  0  0  0  0  0  0  0  0  0  0
   13.2366   -3.0568    4.5168 C   0  0  0  0  0  0  0  0  0  0  0  0
   13.5347   -3.3615    3.3691 O   0  0  0  0  0  0  0  0  0  0  0  0
   14.1816   -3.0313    5.5455 N   0  0  0  0  0  0  0  0  0  0  0  0
   15.5279   -3.3540    5.2611 C   0  0  0  0  0  0  0  0  0  0  0  0
   16.1786   -2.8257    4.1374 C   0  0  0  0  0  0  0  0  0  0  0  0
   17.4602   -3.2530    3.7916 C   0  0  0  0  0  0  0  0  0  0  0  0
   18.0961   -4.2177    4.5685 C   0  0  0  0  0  0  0  0  0  0  0  0
   17.4585   -4.7224    5.7042 C   0  0  0  0  0  0  0  0  0  0  0  0
   18.2291   -5.9554    6.6283 Cl  0  0  0  0  0  0  0  0  0  0  0  0
   16.1905   -4.2749    6.0727 C   0  0  0  0  0  0  0  0  0  0  0  0
    9.5731   -2.4672    4.7508 C   0  0  0  0  0  0  0  0  0  0  0  0
    8.3643   -2.6340    4.0447 C   0  0  0  0  0  0  0  0  0  0  0  0
    7.2498   -3.5728    0.6582 N   0  0  0  0  0  0  0  0  0  0  0  0
    5.8602   -2.3100   -5.7329 H   0  0  0  0  0  0  0  0  0  0  0  0
    4.7692   -1.5274   -4.4500 H   0  0  0  0  0  0  0  0  0  0  0  0
    6.8162   -3.7932   -4.0156 H   0  0  0  0  0  0  0  0  0  0  0  0
    7.3498   -3.8127   -1.7349 H   0  0  0  0  0  0  0  0  0  0  0  0
    4.0191   -4.0235   -0.2216 H   0  0  0  0  0  0  0  0  0  0  0  0
    3.7466   -4.0001    2.2437 H   0  0  0  0  0  0  0  0  0  0  0  0
    5.7221   -3.6070    3.6840 H   0  0  0  0  0  0  0  0  0  0  0  0
    9.6065   -4.1004    1.2511 H   0  0  0  0  0  0  0  0  0  0  0  0
   11.6514   -3.8417    2.4435 H   0  0  0  0  0  0  0  0  0  0  0  0
   11.8952   -2.3024    5.8648 H   0  0  0  0  0  0  0  0  0  0  0  0
   13.8216   -3.3327    6.4420 H   0  0  0  0  0  0  0  0  0  0  0  0
   15.6797   -2.0940    3.5021 H   0  0  0  0  0  0  0  0  0  0  0  0
   17.9438   -2.8555    2.9023 H   0  0  0  0  0  0  0  0  0  0  0  0
   19.0769   -4.5831    4.2759 H   0  0  0  0  0  0  0  0  0  0  0  0
   15.6982   -4.7107    6.9374 H   0  0  0  0  0  0  0  0  0  0  0  0
    9.5381   -1.9910    5.7293 H   0  0  0  0  0  0  0  0  0  0  0  0
    7.4485   -2.2617    4.4993 H   0  0  0  0  0  0  0  0  0  0  0  0
  1  2  2  0  0  0  0
  1 29  1  0  0  0  0
  1 30  1  0  0  0  0
  2  3  1  0  0  0  0
  2 31  1  0  0  0  0
  3  4  2  0  0  0  0
  3  5  1  0  0  0  0
  5  6  1  0  0  0  0
  5 32  1  0  0  0  0
  6  7  1  0  0  0  0
  6 28  2  0  0  0  0
  7  8  2  0  0  0  0
  7 33  1  0  0  0  0
  8  9  1  0  0  0  0
  8 34  1  0  0  0  0
  9 10  2  0  0  0  0
  9 35  1  0  0  0  0
 10 11  1  0  0  0  0
 10 28  1  0  0  0  0
 11 12  1  0  0  0  0
 11 27  2  0  0  0  0
 12 13  2  0  0  0  0
 12 36  1  0  0  0  0
 13 14  1  0  0  0  0
 13 37  1  0  0  0  0
 14 15  1  0  0  0  0
 14 26  2  0  0  0  0
 15 16  1  0  0  0  0
 15 38  1  0  0  0  0
 16 17  2  0  0  0  0
 16 18  1  0  0  0  0
 18 19  1  0  0  0  0
 18 39  1  0  0  0  0
 19 20  1  0  0  0  0
 19 25  2  0  0  0  0
 20 21  2  0  0  0  0
 20 40  1  0  0  0  0
 21 22  1  0  0  0  0
 21 41  1  0  0  0  0
 22 23  2  0  0  0  0
 22 42  1  0  0  0  0
 23 24  1  0  0  0  0
 23 25  1  0  0  0  0
 25 43  1  0  0  0  0
 26 27  1  0  0  0  0
 26 44  1  0  0  0  0
 27 45  1  0  0  0  0
M  END
$$$$
