CHEMBL219555
 OpenBabel04072215363D

 63 69  0  0  0  0  0  0  0  0999 V2000
    3.4062    0.3541   -1.6341 C   0  0  0  0  0  0  0  0  0  0  0  0
    3.0905   -0.3088   -0.3009 C   0  0  0  0  0  0  0  0  0  0  0  0
    3.6137   -1.7498   -0.1749 C   0  0  0  0  0  0  0  0  0  0  0  0
    5.0616   -1.8714   -0.0263 N   0  0  0  0  0  0  0  0  0  0  0  0
    5.7435   -1.7243    1.2005 C   0  0  0  0  0  0  0  0  0  0  0  0
    5.2803   -1.4930    2.5203 C   0  0  0  0  0  0  0  0  0  0  0  0
    6.2269   -1.3081    3.5530 C   0  0  0  0  0  0  0  0  0  0  0  0
    7.6016   -1.3753    3.3016 C   0  0  0  0  0  0  0  0  0  0  0  0
    8.6097   -1.2148    4.2727 N   0  0  0  0  0  0  0  0  0  0  0  0
    8.4677   -1.1259    5.6416 C   0  0  0  0  0  0  0  0  0  0  0  0
    7.4181   -1.2902    6.2499 O   0  0  0  0  0  0  0  0  0  0  0  0
    9.6787   -0.7839    6.2355 N   0  0  0  0  0  0  0  0  0  0  0  0
    9.7371   -0.6291    7.6021 C   0  0  0  0  0  0  0  0  0  0  0  0
    9.1427   -1.3213    8.6276 C   0  0  0  0  0  0  0  0  0  0  0  0
    9.3877   -0.6965    9.8850 C   0  0  0  0  0  0  0  0  0  0  0  0
   10.1628    0.4371    9.7545 C   0  0  0  0  0  0  0  0  0  0  0  0
   10.6891    0.6686    8.1381 S   0  0  0  0  0  0  0  0  0  0  0  0
    8.0407   -1.5566    1.9936 C   0  0  0  0  0  0  0  0  0  0  0  0
    7.1154   -1.7010    0.9453 C   0  0  0  0  0  0  0  0  0  0  0  0
    7.1559   -1.7324   -0.4322 C   0  0  0  0  0  0  0  0  0  0  0  0
    8.2729   -1.3258   -1.1755 C   0  0  0  0  0  0  0  0  0  0  0  0
    8.0002   -0.9426   -2.5049 C   0  0  0  0  0  0  0  0  0  0  0  0
    6.7470   -1.0963   -3.1229 C   0  0  0  0  0  0  0  0  0  0  0  0
    5.9292   -2.0841   -2.4814 C   0  0  0  0  0  0  0  0  0  0  0  0
    5.9797   -2.0074   -1.0708 C   0  0  0  0  0  0  0  0  0  0  0  0
    5.9391   -3.4563   -3.2837 C   0  0  0  0  0  0  0  0  0  0  0  0
    6.9857   -3.5139   -4.4775 C   0  0  0  0  0  0  0  0  0  0  0  0
    6.7922   -2.2707   -5.2717 C   0  0  0  0  0  0  0  0  0  0  0  0
    6.3999   -2.1668   -6.5408 N   0  0  0  0  0  0  0  0  0  0  0  0
    5.9431   -0.8897   -6.6013 N   0  0  0  0  0  0  0  0  0  0  0  0
    5.2961   -0.4174   -7.8011 C   0  0  0  0  0  0  0  0  0  0  0  0
    5.9548   -0.2442   -5.3881 C   0  0  0  0  0  0  0  0  0  0  0  0
    6.6754   -1.0657   -4.5608 C   0  0  0  0  0  0  0  0  0  0  0  0
    9.2546   -0.5412   -3.0972 C   0  0  0  0  0  0  0  0  0  0  0  0
    9.5828   -0.1816   -4.2186 O   0  0  0  0  0  0  0  0  0  0  0  0
   10.1879   -0.7196   -2.0828 N   0  0  0  0  0  0  0  0  0  0  0  0
    9.6710   -1.1556   -0.8080 C   0  0  0  0  0  0  0  0  0  0  0  0
    2.9809    1.3634   -1.6646 H   0  0  0  0  0  0  0  0  0  0  0  0
    2.9785   -0.2137   -2.4664 H   0  0  0  0  0  0  0  0  0  0  0  0
    4.4827    0.4515   -1.7885 H   0  0  0  0  0  0  0  0  0  0  0  0
    1.9982   -0.3247   -0.1886 H   0  0  0  0  0  0  0  0  0  0  0  0
    3.4783    0.3184    0.5108 H   0  0  0  0  0  0  0  0  0  0  0  0
    3.3032   -2.3599   -1.0288 H   0  0  0  0  0  0  0  0  0  0  0  0
    3.1665   -2.2034    0.7183 H   0  0  0  0  0  0  0  0  0  0  0  0
    4.2189   -1.4271    2.7484 H   0  0  0  0  0  0  0  0  0  0  0  0
    5.8492   -1.1261    4.5538 H   0  0  0  0  0  0  0  0  0  0  0  0
    9.5599   -1.3151    3.9548 H   0  0  0  0  0  0  0  0  0  0  0  0
   10.2855   -0.1753    5.7067 H   0  0  0  0  0  0  0  0  0  0  0  0
    8.5389   -2.2097    8.4853 H   0  0  0  0  0  0  0  0  0  0  0  0
    8.9887   -1.0449   10.8293 H   0  0  0  0  0  0  0  0  0  0  0  0
   10.4603    1.1293   10.5300 H   0  0  0  0  0  0  0  0  0  0  0  0
    9.1030   -1.5929    1.7824 H   0  0  0  0  0  0  0  0  0  0  0  0
    4.9368   -3.6074   -3.6987 H   0  0  0  0  0  0  0  0  0  0  0  0
    6.1656   -4.2782   -2.5953 H   0  0  0  0  0  0  0  0  0  0  0  0
    6.8776   -4.4154   -5.0854 H   0  0  0  0  0  0  0  0  0  0  0  0
    8.0101   -3.5156   -4.0723 H   0  0  0  0  0  0  0  0  0  0  0  0
    5.5384   -1.0844   -8.6322 H   0  0  0  0  0  0  0  0  0  0  0  0
    5.6550    0.5919   -8.0158 H   0  0  0  0  0  0  0  0  0  0  0  0
    4.2171   -0.4114   -7.6256 H   0  0  0  0  0  0  0  0  0  0  0  0
    5.4157    0.6785   -5.2249 H   0  0  0  0  0  0  0  0  0  0  0  0
   11.1668   -0.5840   -2.2860 H   0  0  0  0  0  0  0  0  0  0  0  0
    9.8282   -0.3625   -0.0765 H   0  0  0  0  0  0  0  0  0  0  0  0
   10.1424   -2.0971   -0.5141 H   0  0  0  0  0  0  0  0  0  0  0  0
  1  2  1  0  0  0  0
  1 38  1  0  0  0  0
  1 39  1  0  0  0  0
  1 40  1  0  0  0  0
  2  3  1  0  0  0  0
  2 41  1  0  0  0  0
  2 42  1  0  0  0  0
  3  4  1  0  0  0  0
  3 43  1  0  0  0  0
  3 44  1  0  0  0  0
  4  5  1  0  0  0  0
  4 25  1  0  0  0  0
  5  6  1  0  0  0  0
  5 19  2  0  0  0  0
  6  7  2  0  0  0  0
  6 45  1  0  0  0  0
  7  8  1  0  0  0  0
  7 46  1  0  0  0  0
  8  9  1  0  0  0  0
  8 18  2  0  0  0  0
  9 10  1  0  0  0  0
  9 47  1  0  0  0  0
 10 11  2  0  0  0  0
 10 12  1  0  0  0  0
 12 13  1  0  0  0  0
 12 48  1  0  0  0  0
 13 14  2  0  0  0  0
 13 17  1  0  0  0  0
 14 15  1  0  0  0  0
 14 49  1  0  0  0  0
 15 16  2  0  0  0  0
 15 50  1  0  0  0  0
 16 17  1  0  0  0  0
 16 51  1  0  0  0  0
 18 19  1  0  0  0  0
 18 52  1  0  0  0  0
 19 20  1  0  0  0  0
 20 21  1  0  0  0  0
 20 25  2  0  0  0  0
 21 22  2  0  0  0  0
 21 37  1  0  0  0  0
 22 23  1  0  0  0  0
 22 34  1  0  0  0  0
 23 24  2  0  0  0  0
 23 33  1  0  0  0  0
 24 25  1  0  0  0  0
 24 26  1  0  0  0  0
 26 27  1  0  0  0  0
 26 53  1  0  0  0  0
 26 54  1  0  0  0  0
 27 28  1  0  0  0  0
 27 55  1  0  0  0  0
 27 56  1  0  0  0  0
 28 29  2  0  0  0  0
 28 33  1  0  0  0  0
 29 30  1  0  0  0  0
 30 31  1  0  0  0  0
 30 32  1  0  0  0  0
 31 57  1  0  0  0  0
 31 58  1  0  0  0  0
 31 59  1  0  0  0  0
 32 33  2  0  0  0  0
 32 60  1  0  0  0  0
 34 35  2  0  0  0  0
 34 36  1  0  0  0  0
 36 37  1  0  0  0  0
 36 61  1  0  0  0  0
 37 62  1  0  0  0  0
 37 63  1  0  0  0  0
M  END
$$$$
