CHEMBL3899485
 OpenBabel04072215373D

 68 72  0  0  1  0  0  0  0  0999 V2000
    4.0535   -4.8375   -0.7948 C   0  0  0  0  0  0  0  0  0  0  0  0
    4.2560   -4.2659    0.4905 O   0  0  0  0  0  0  0  0  0  0  0  0
    3.8895   -2.9654    0.6939 C   0  0  0  0  0  0  0  0  0  0  0  0
    4.7471   -2.2812    1.5680 C   0  0  0  0  0  0  0  0  0  0  0  0
    4.4902   -0.9372    1.9659 C   0  0  0  0  0  0  0  0  0  0  0  0
    5.2482   -0.1525    2.8407 C   0  0  0  0  0  0  0  0  0  0  0  0
    6.4718   -0.6607    3.3500 N   0  0  0  0  0  0  0  0  0  0  0  0
    7.1081   -0.1029    4.4768 C   0  0  0  0  0  0  0  0  0  0  0  0
    6.3714    0.1418    5.6429 C   0  0  0  0  0  0  0  0  0  0  0  0
    6.9526    0.7855    6.7321 C   0  0  0  0  0  0  0  0  0  0  0  0
    8.2874    1.1849    6.6743 C   0  0  0  0  0  0  0  0  0  0  0  0
    8.9237    2.0377    8.0319 Cl  0  0  0  0  0  0  0  0  0  0  0  0
    9.0424    0.9081    5.5307 C   0  0  0  0  0  0  0  0  0  0  0  0
   10.7023    1.3702    5.3892 Cl  0  0  0  0  0  0  0  0  0  0  0  0
    8.4573    0.2568    4.4382 C   0  0  0  0  0  0  0  0  0  0  0  0
    4.8640    1.0892    3.2272 N   0  0  0  0  0  0  0  0  0  0  0  0
    3.7317    1.5646    2.7139 C   0  0  0  0  0  0  0  0  0  0  0  0
    2.9650    0.9298    1.8384 N   0  0  0  0  0  0  0  0  0  0  0  0
    3.3557   -0.2976    1.4949 C   0  0  0  0  0  0  0  0  0  0  0  0
    2.5375   -0.9737    0.6337 C   0  0  0  0  0  0  0  0  0  0  0  0
    2.7489   -2.3058    0.2265 C   0  0  0  0  0  0  0  0  0  0  0  0
    1.8180   -2.9575   -0.5581 O   0  0  0  0  0  0  0  0  0  0  0  0
    0.6995   -2.1184   -0.8804 C   0  0  0  0  0  0  0  0  0  0  0  0
   -0.3740   -2.7840   -1.7029 C   0  0  3  0  0  0  0  0  0  0  0  0
    0.1976   -3.2400   -3.0535 C   0  0  0  0  0  0  0  0  0  0  0  0
   -0.8507   -3.7973   -3.9312 N   0  0  0  0  0  0  0  0  0  0  0  0
   -1.3340   -5.0793   -3.3905 C   0  0  0  0  0  0  0  0  0  0  0  0
   -2.3449   -5.7729   -4.2958 C   0  0  0  0  0  0  0  0  0  0  0  0
   -1.7613   -6.0346   -5.6802 C   0  0  0  0  0  0  0  0  0  0  0  0
   -2.7851   -6.6569   -6.5862 C   0  0  0  0  0  0  0  0  0  0  0  0
   -3.6317   -5.8420   -7.3482 C   0  0  0  0  0  0  0  0  0  0  0  0
   -4.5752   -6.4134   -8.1998 C   0  0  0  0  0  0  0  0  0  0  0  0
   -4.6730   -7.8040   -8.2894 C   0  0  0  0  0  0  0  0  0  0  0  0
   -3.8521   -8.6201   -7.5129 C   0  0  0  0  0  0  0  0  0  0  0  0
   -2.9129   -8.0492   -6.6576 C   0  0  0  0  0  0  0  0  0  0  0  0
   -1.9137   -2.7729   -4.0627 C   0  0  0  0  0  0  0  0  0  0  0  0
   -2.4630   -2.2825   -2.7160 C   0  0  0  0  0  0  0  0  0  0  0  0
   -1.4092   -1.7925   -1.8847 O   0  0  0  0  0  0  0  0  0  0  0  0
    4.9990   -5.2724   -1.1149 H   0  0  0  0  0  0  0  0  0  0  0  0
    3.7426   -4.1292   -1.5681 H   0  0  0  0  0  0  0  0  0  0  0  0
    3.3323   -5.6554   -0.7086 H   0  0  0  0  0  0  0  0  0  0  0  0
    5.6046   -2.8103    1.9802 H   0  0  0  0  0  0  0  0  0  0  0  0
    7.0987   -0.8433    2.5730 H   0  0  0  0  0  0  0  0  0  0  0  0
    5.3215   -0.1426    5.6929 H   0  0  0  0  0  0  0  0  0  0  0  0
    6.3443    0.9905    7.6105 H   0  0  0  0  0  0  0  0  0  0  0  0
    9.0466    0.0720    3.5444 H   0  0  0  0  0  0  0  0  0  0  0  0
    3.4035    2.5457    3.0350 H   0  0  0  0  0  0  0  0  0  0  0  0
    1.6812   -0.3894    0.3110 H   0  0  0  0  0  0  0  0  0  0  0  0
    1.0461   -1.2449   -1.4516 H   0  0  0  0  0  0  0  0  0  0  0  0
    0.2046   -1.7858    0.0431 H   0  0  0  0  0  0  0  0  0  0  0  0
   -0.7791   -3.6230   -1.1275 H   0  0  0  0  0  0  0  0  0  0  0  0
    1.0098   -3.9635   -2.9156 H   0  0  0  0  0  0  0  0  0  0  0  0
    0.6444   -2.3793   -3.5717 H   0  0  0  0  0  0  0  0  0  0  0  0
   -1.7892   -4.9729   -2.3999 H   0  0  0  0  0  0  0  0  0  0  0  0
   -0.4762   -5.7528   -3.2604 H   0  0  0  0  0  0  0  0  0  0  0  0
   -3.2647   -5.1795   -4.3631 H   0  0  0  0  0  0  0  0  0  0  0  0
   -2.6403   -6.7194   -3.8259 H   0  0  0  0  0  0  0  0  0  0  0  0
   -0.8848   -6.6897   -5.6020 H   0  0  0  0  0  0  0  0  0  0  0  0
   -1.4020   -5.1075   -6.1436 H   0  0  0  0  0  0  0  0  0  0  0  0
   -3.5581   -4.7597   -7.2859 H   0  0  0  0  0  0  0  0  0  0  0  0
   -5.2165   -5.7830   -8.8045 H   0  0  0  0  0  0  0  0  0  0  0  0
   -5.3961   -8.2542   -8.9652 H   0  0  0  0  0  0  0  0  0  0  0  0
   -3.9389   -9.7036   -7.5755 H   0  0  0  0  0  0  0  0  0  0  0  0
   -2.2765   -8.6894   -6.0515 H   0  0  0  0  0  0  0  0  0  0  0  0
   -2.7300   -3.1206   -4.7031 H   0  0  0  0  0  0  0  0  0  0  0  0
   -1.4766   -1.9151   -4.5914 H   0  0  0  0  0  0  0  0  0  0  0  0
   -3.0029   -3.0686   -2.1784 H   0  0  0  0  0  0  0  0  0  0  0  0
   -3.1646   -1.4581   -2.8799 H   0  0  0  0  0  0  0  0  0  0  0  0
  1  2  1  0  0  0  0
  1 39  1  0  0  0  0
  1 40  1  0  0  0  0
  1 41  1  0  0  0  0
  2  3  1  0  0  0  0
  3  4  1  0  0  0  0
  3 21  2  0  0  0  0
  4  5  2  0  0  0  0
  4 42  1  0  0  0  0
  5  6  1  0  0  0  0
  5 19  1  0  0  0  0
  6  7  1  0  0  0  0
  6 16  2  0  0  0  0
  7  8  1  0  0  0  0
  7 43  1  0  0  0  0
  8  9  1  0  0  0  0
  8 15  2  0  0  0  0
  9 10  2  0  0  0  0
  9 44  1  0  0  0  0
 10 11  1  0  0  0  0
 10 45  1  0  0  0  0
 11 12  1  0  0  0  0
 11 13  2  0  0  0  0
 13 14  1  0  0  0  0
 13 15  1  0  0  0  0
 15 46  1  0  0  0  0
 16 17  1  0  0  0  0
 17 18  2  0  0  0  0
 17 47  1  0  0  0  0
 18 19  1  0  0  0  0
 19 20  2  0  0  0  0
 20 21  1  0  0  0  0
 20 48  1  0  0  0  0
 21 22  1  0  0  0  0
 22 23  1  0  0  0  0
 23 24  1  0  0  0  0
 23 49  1  0  0  0  0
 23 50  1  0  0  0  0
 24 25  1  0  0  0  0
 24 38  1  0  0  0  0
 24 51  1  0  0  0  0
 25 26  1  0  0  0  0
 25 52  1  0  0  0  0
 25 53  1  0  0  0  0
 26 27  1  0  0  0  0
 26 36  1  0  0  0  0
 27 28  1  0  0  0  0
 27 54  1  0  0  0  0
 27 55  1  0  0  0  0
 28 29  1  0  0  0  0
 28 56  1  0  0  0  0
 28 57  1  0  0  0  0
 29 30  1  0  0  0  0
 29 58  1  0  0  0  0
 29 59  1  0  0  0  0
 30 31  1  0  0  0  0
 30 35  2  0  0  0  0
 31 32  2  0  0  0  0
 31 60  1  0  0  0  0
 32 33  1  0  0  0  0
 32 61  1  0  0  0  0
 33 34  2  0  0  0  0
 33 62  1  0  0  0  0
 34 35  1  0  0  0  0
 34 63  1  0  0  0  0
 35 64  1  0  0  0  0
 36 37  1  0  0  0  0
 36 65  1  0  0  0  0
 36 66  1  0  0  0  0
 37 38  1  0  0  0  0
 37 67  1  0  0  0  0
 37 68  1  0  0  0  0
M  END
$$$$
