CHEMBL576985
 OpenBabel04072215383D

 62 67  0  0  0  0  0  0  0  0999 V2000
    0.9798   -0.4327   -0.7357 C   0  0  0  0  0  0  0  0  0  0  0  0
    2.0298    0.0423    0.1366 N   0  0  0  0  0  0  0  0  0  0  0  0
    2.6439   -0.9544    0.8850 C   0  0  0  0  0  0  0  0  0  0  0  0
    3.1831   -0.5778    2.0494 N   0  0  0  0  0  0  0  0  0  0  0  0
    3.8143   -1.5361    2.7582 C   0  0  0  0  0  0  0  0  0  0  0  0
    3.8965   -2.8650    2.3590 C   0  0  0  0  0  0  0  0  0  0  0  0
    4.5474   -3.8898    3.0862 C   0  0  0  0  0  0  0  0  0  0  0  0
    4.4040   -5.2519    2.7355 C   0  0  0  0  0  0  0  0  0  0  0  0
    5.0005   -6.3447    3.5711 C   0  0  0  0  0  0  0  0  0  0  0  0
    5.7081   -7.4377    2.9894 C   0  0  0  0  0  0  0  0  0  0  0  0
    5.8528   -7.7128    1.5111 C   0  0  0  0  0  0  0  0  0  0  0  0
    6.3072   -8.4013    3.8150 C   0  0  0  0  0  0  0  0  0  0  0  0
    6.2956   -8.2697    5.1953 C   0  0  0  0  0  0  0  0  0  0  0  0
    5.6207   -7.2083    5.8186 C   0  0  0  0  0  0  0  0  0  0  0  0
    5.5852   -7.0681    7.2292 C   0  0  0  0  0  0  0  0  0  0  0  0
    6.3720   -7.9255    8.0329 N   0  0  0  0  0  0  0  0  0  0  0  0
    6.0312   -8.3585    9.3317 C   0  0  0  0  0  0  0  0  0  0  0  0
    7.0545   -8.6841   10.2481 C   0  0  0  0  0  0  0  0  0  0  0  0
    6.7635   -9.2585   11.4904 C   0  0  0  0  0  0  0  0  0  0  0  0
    5.4380   -9.5065   11.7989 C   0  0  0  0  0  0  0  0  0  0  0  0
    4.4273   -9.1161   10.9259 C   0  0  0  0  0  0  0  0  0  0  0  0
    4.6907   -8.5840    9.6857 C   0  0  0  0  0  0  0  0  0  0  0  0
    3.1885   -9.2857   11.5288 N   0  0  0  0  0  0  0  0  0  0  0  0
    3.3344   -9.7053   12.8509 C   0  0  0  0  0  0  0  0  0  0  0  0
    2.4390   -9.7881   13.6751 O   0  0  0  0  0  0  0  0  0  0  0  0
    4.8107  -10.1448   13.0164 C   0  0  0  0  0  0  0  0  0  0  0  0
    4.8049  -11.6766   12.8756 C   0  0  0  0  0  0  0  0  0  0  0  0
    5.4698   -9.7167   14.3182 C   0  0  0  0  0  0  0  0  0  0  0  0
    4.8688   -6.1117    7.8603 N   0  0  0  0  0  0  0  0  0  0  0  0
    4.1298   -5.2948    7.1090 C   0  0  0  0  0  0  0  0  0  0  0  0
    4.1021   -5.3575    5.7292 C   0  0  0  0  0  0  0  0  0  0  0  0
    4.9040   -6.2854    5.0177 C   0  0  0  0  0  0  0  0  0  0  0  0
    3.6591   -5.5115    1.5800 C   0  0  0  0  0  0  0  0  0  0  0  0
    3.1414   -4.4763    0.7879 C   0  0  0  0  0  0  0  0  0  0  0  0
    3.2264   -3.1533    1.1817 C   0  0  0  0  0  0  0  0  0  0  0  0
    2.6427   -2.2145    0.4341 N   0  0  0  0  0  0  0  0  0  0  0  0
    0.5337    0.4188   -1.2596 H   0  0  0  0  0  0  0  0  0  0  0  0
    0.1848   -0.9359   -0.1737 H   0  0  0  0  0  0  0  0  0  0  0  0
    1.3683   -1.1118   -1.5014 H   0  0  0  0  0  0  0  0  0  0  0  0
    1.7822    0.7820    0.7844 H   0  0  0  0  0  0  0  0  0  0  0  0
    4.2301   -1.2003    3.7037 H   0  0  0  0  0  0  0  0  0  0  0  0
    5.1299   -3.6106    3.9627 H   0  0  0  0  0  0  0  0  0  0  0  0
    5.6938   -6.8414    0.8766 H   0  0  0  0  0  0  0  0  0  0  0  0
    5.1554   -8.5066    1.2167 H   0  0  0  0  0  0  0  0  0  0  0  0
    6.8708   -8.0526    1.2887 H   0  0  0  0  0  0  0  0  0  0  0  0
    6.8053   -9.2656    3.3773 H   0  0  0  0  0  0  0  0  0  0  0  0
    6.7879   -9.0382    5.7880 H   0  0  0  0  0  0  0  0  0  0  0  0
    7.3474   -7.6690    7.9307 H   0  0  0  0  0  0  0  0  0  0  0  0
    8.0937   -8.4844    9.9974 H   0  0  0  0  0  0  0  0  0  0  0  0
    7.5614   -9.4898   12.1883 H   0  0  0  0  0  0  0  0  0  0  0  0
    3.8838   -8.3415    9.0040 H   0  0  0  0  0  0  0  0  0  0  0  0
    2.3078   -8.9869   11.1377 H   0  0  0  0  0  0  0  0  0  0  0  0
    4.0742  -12.0140   12.1281 H   0  0  0  0  0  0  0  0  0  0  0  0
    4.5186  -12.1497   13.8217 H   0  0  0  0  0  0  0  0  0  0  0  0
    5.7830  -12.0662   12.5767 H   0  0  0  0  0  0  0  0  0  0  0  0
    5.5613   -8.6275   14.3911 H   0  0  0  0  0  0  0  0  0  0  0  0
    6.4823  -10.1348   14.3909 H   0  0  0  0  0  0  0  0  0  0  0  0
    4.9056  -10.0642   15.1891 H   0  0  0  0  0  0  0  0  0  0  0  0
    3.5460   -4.5582    7.6526 H   0  0  0  0  0  0  0  0  0  0  0  0
    3.4285   -4.6781    5.2215 H   0  0  0  0  0  0  0  0  0  0  0  0
    3.4767   -6.5330    1.2542 H   0  0  0  0  0  0  0  0  0  0  0  0
    2.6428   -4.7165   -0.1459 H   0  0  0  0  0  0  0  0  0  0  0  0
  1  2  1  0  0  0  0
  1 37  1  0  0  0  0
  1 38  1  0  0  0  0
  1 39  1  0  0  0  0
  2  3  1  0  0  0  0
  2 40  1  0  0  0  0
  3  4  1  0  0  0  0
  3 36  2  0  0  0  0
  4  5  2  0  0  0  0
  5  6  1  0  0  0  0
  5 41  1  0  0  0  0
  6  7  1  0  0  0  0
  6 35  2  0  0  0  0
  7  8  2  0  0  0  0
  7 42  1  0  0  0  0
  8  9  1  0  0  0  0
  8 33  1  0  0  0  0
  9 10  1  0  0  0  0
  9 32  2  0  0  0  0
 10 11  1  0  0  0  0
 10 12  2  0  0  0  0
 11 43  1  0  0  0  0
 11 44  1  0  0  0  0
 11 45  1  0  0  0  0
 12 13  1  0  0  0  0
 12 46  1  0  0  0  0
 13 14  2  0  0  0  0
 13 47  1  0  0  0  0
 14 15  1  0  0  0  0
 14 32  1  0  0  0  0
 15 16  1  0  0  0  0
 15 29  2  0  0  0  0
 16 17  1  0  0  0  0
 16 48  1  0  0  0  0
 17 18  1  0  0  0  0
 17 22  2  0  0  0  0
 18 19  2  0  0  0  0
 18 49  1  0  0  0  0
 19 20  1  0  0  0  0
 19 50  1  0  0  0  0
 20 21  2  0  0  0  0
 20 26  1  0  0  0  0
 21 22  1  0  0  0  0
 21 23  1  0  0  0  0
 22 51  1  0  0  0  0
 23 24  1  0  0  0  0
 23 52  1  0  0  0  0
 24 25  2  0  0  0  0
 24 26  1  0  0  0  0
 26 27  1  0  0  0  0
 26 28  1  0  0  0  0
 27 53  1  0  0  0  0
 27 54  1  0  0  0  0
 27 55  1  0  0  0  0
 28 56  1  0  0  0  0
 28 57  1  0  0  0  0
 28 58  1  0  0  0  0
 29 30  1  0  0  0  0
 30 31  2  0  0  0  0
 30 59  1  0  0  0  0
 31 32  1  0  0  0  0
 31 60  1  0  0  0  0
 33 34  2  0  0  0  0
 33 61  1  0  0  0  0
 34 35  1  0  0  0  0
 34 62  1  0  0  0  0
 35 36  1  0  0  0  0
M  END
$$$$
