CHEMBL3961406
 OpenBabel04072215373D

 53 56  0  0  0  0  0  0  0  0999 V2000
   -3.1279   -0.2438   -0.5111 N   0  0  0  0  0  0  0  0  0  0  0  0
   -1.9953   -0.0847   -0.3492 C   0  0  0  0  0  0  0  0  0  0  0  0
   -0.5591   -0.0399   -0.1878 C   0  0  0  0  0  0  0  0  0  0  0  0
    0.0946   -1.2791   -0.1981 C   0  0  0  0  0  0  0  0  0  0  0  0
    1.4840   -1.4072   -0.0561 C   0  0  0  0  0  0  0  0  0  0  0  0
    2.1180   -2.6763    0.0279 N   0  0  0  0  0  0  0  0  0  0  0  0
    1.4491   -3.8629    0.3117 C   0  0  0  0  0  0  0  0  0  0  0  0
    0.2465   -3.9436    0.5481 O   0  0  0  0  0  0  0  0  0  0  0  0
    2.2698   -4.9739    0.3609 N   0  0  0  0  0  0  0  0  0  0  0  0
    1.6813   -6.2424    0.6400 C   0  0  0  0  0  0  0  0  0  0  0  0
    2.1287   -6.9755    1.7333 C   0  0  0  0  0  0  0  0  0  0  0  0
    1.5458   -8.2116    2.0254 C   0  0  0  0  0  0  0  0  0  0  0  0
    0.5400   -8.7486    1.2100 C   0  0  0  0  0  0  0  0  0  0  0  0
   -0.0453  -10.3101    1.6554 Cl  0  0  0  0  0  0  0  0  0  0  0  0
    0.0738   -8.0334    0.1024 C   0  0  0  0  0  0  0  0  0  0  0  0
   -0.9942   -8.5352   -0.8391 C   0  0  0  0  0  0  0  0  0  0  0  0
   -1.4663   -9.7887   -0.6053 F   0  0  0  0  0  0  0  0  0  0  0  0
   -2.0950   -7.7319   -0.8505 F   0  0  0  0  0  0  0  0  0  0  0  0
   -0.5514   -8.5628   -2.1315 F   0  0  0  0  0  0  0  0  0  0  0  0
    0.6483   -6.7628   -0.1573 C   0  0  0  0  0  0  0  0  0  0  0  0
    2.2400   -0.2397   -0.0093 C   0  0  0  0  0  0  0  0  0  0  0  0
    1.6041    1.0107   -0.0296 C   0  0  0  0  0  0  0  0  0  0  0  0
    0.1938    1.1279   -0.0424 C   0  0  0  0  0  0  0  0  0  0  0  0
   -0.4207    2.3647    0.0551 O   0  0  0  0  0  0  0  0  0  0  0  0
    0.1611    3.3503    0.8501 C   0  0  0  0  0  0  0  0  0  0  0  0
    0.8506    3.0561    2.0268 C   0  0  0  0  0  0  0  0  0  0  0  0
    1.4210    4.0952    2.7240 C   0  0  0  0  0  0  0  0  0  0  0  0
    1.3136    5.3771    2.3480 N   0  0  0  0  0  0  0  0  0  0  0  0
    0.6078    5.6851    1.2475 C   0  0  0  0  0  0  0  0  0  0  0  0
    0.4746    7.0457    0.8992 N   0  0  0  0  0  0  0  0  0  0  0  0
    1.0189    8.0753    1.6528 C   0  0  0  0  0  0  0  0  0  0  0  0
    1.6866    7.9784    2.6732 O   0  0  0  0  0  0  0  0  0  0  0  0
    0.7371    9.4549    1.1309 C   0  0  0  0  0  0  0  0  0  0  0  0
    1.7845   10.5372    1.3151 C   0  0  0  0  0  0  0  0  0  0  0  0
    0.5198   10.5855    2.1197 C   0  0  0  0  0  0  0  0  0  0  0  0
    0.0147    4.6943    0.4626 C   0  0  0  0  0  0  0  0  0  0  0  0
   -0.5280   -2.1613   -0.3271 H   0  0  0  0  0  0  0  0  0  0  0  0
    3.1273   -2.7028   -0.0499 H   0  0  0  0  0  0  0  0  0  0  0  0
    3.1704   -4.8071    0.7849 H   0  0  0  0  0  0  0  0  0  0  0  0
    2.8814   -6.5774    2.4076 H   0  0  0  0  0  0  0  0  0  0  0  0
    1.8800   -8.7611    2.9035 H   0  0  0  0  0  0  0  0  0  0  0  0
    0.2871   -6.1838   -1.0087 H   0  0  0  0  0  0  0  0  0  0  0  0
    3.3206   -0.2574    0.0852 H   0  0  0  0  0  0  0  0  0  0  0  0
    2.2200    1.9074    0.0096 H   0  0  0  0  0  0  0  0  0  0  0  0
    0.9824    2.0463    2.3925 H   0  0  0  0  0  0  0  0  0  0  0  0
    1.9984    3.9306    3.6288 H   0  0  0  0  0  0  0  0  0  0  0  0
   -0.0609    7.2715    0.0767 H   0  0  0  0  0  0  0  0  0  0  0  0
    0.1567    9.5076    0.2162 H   0  0  0  0  0  0  0  0  0  0  0  0
    1.9155   11.2751    0.5334 H   0  0  0  0  0  0  0  0  0  0  0  0
    2.7015   10.2834    1.8394 H   0  0  0  0  0  0  0  0  0  0  0  0
   -0.1993   11.3598    1.8818 H   0  0  0  0  0  0  0  0  0  0  0  0
    0.5911   10.3625    3.1805 H   0  0  0  0  0  0  0  0  0  0  0  0
   -0.5449    4.9416   -0.4317 H   0  0  0  0  0  0  0  0  0  0  0  0
  1  2  3  0  0  0  0
  2  3  1  0  0  0  0
  3  4  1  0  0  0  0
  3 23  2  0  0  0  0
  4  5  2  0  0  0  0
  4 37  1  0  0  0  0
  5  6  1  0  0  0  0
  5 21  1  0  0  0  0
  6  7  1  0  0  0  0
  6 38  1  0  0  0  0
  7  8  2  0  0  0  0
  7  9  1  0  0  0  0
  9 10  1  0  0  0  0
  9 39  1  0  0  0  0
 10 11  1  0  0  0  0
 10 20  2  0  0  0  0
 11 12  2  0  0  0  0
 11 40  1  0  0  0  0
 12 13  1  0  0  0  0
 12 41  1  0  0  0  0
 13 14  1  0  0  0  0
 13 15  2  0  0  0  0
 15 16  1  0  0  0  0
 15 20  1  0  0  0  0
 16 17  1  0  0  0  0
 16 18  1  0  0  0  0
 16 19  1  0  0  0  0
 20 42  1  0  0  0  0
 21 22  2  0  0  0  0
 21 43  1  0  0  0  0
 22 23  1  0  0  0  0
 22 44  1  0  0  0  0
 23 24  1  0  0  0  0
 24 25  1  0  0  0  0
 25 26  1  0  0  0  0
 25 36  2  0  0  0  0
 26 27  2  0  0  0  0
 26 45  1  0  0  0  0
 27 28  1  0  0  0  0
 27 46  1  0  0  0  0
 28 29  2  0  0  0  0
 29 30  1  0  0  0  0
 29 36  1  0  0  0  0
 30 31  1  0  0  0  0
 30 47  1  0  0  0  0
 31 32  2  0  0  0  0
 31 33  1  0  0  0  0
 33 34  1  0  0  0  0
 33 35  1  0  0  0  0
 33 48  1  0  0  0  0
 34 35  1  0  0  0  0
 34 49  1  0  0  0  0
 34 50  1  0  0  0  0
 35 51  1  0  0  0  0
 35 52  1  0  0  0  0
 36 53  1  0  0  0  0
M  END
$$$$
