CHEMBL2322138
 OpenBabel04072215363D

 34 37  0  0  0  0  0  0  0  0999 V2000
   -2.9380   -0.8042   -0.0251 C   0  0  0  0  0  0  0  0  0  0  0  0
   -1.7357   -1.4927   -0.0591 C   0  0  0  0  0  0  0  0  0  0  0  0
   -0.7364   -0.4899   -0.0452 C   0  0  0  0  0  0  0  0  0  0  0  0
   -1.3235    0.7532   -0.0174 C   0  0  0  0  0  0  0  0  0  0  0  0
   -0.6727    1.9299   -0.0047 N   0  0  0  0  0  0  0  0  0  0  0  0
    0.6947    1.8335   -0.0353 C   0  0  0  0  0  0  0  0  0  0  0  0
    1.3712    0.6007   -0.0714 C   0  0  0  0  0  0  0  0  0  0  0  0
    2.7056    0.2845   -0.1073 N   0  0  0  0  0  0  0  0  0  0  0  0
    2.7440   -1.0331   -0.1098 C   0  0  0  0  0  0  0  0  0  0  0  0
    1.4865   -1.5967   -0.0600 N   0  0  0  0  0  0  0  0  0  0  0  0
    1.2037   -3.0164    0.0874 C   0  0  0  0  0  0  0  0  0  0  0  0
    2.2847   -3.8002    0.8538 C   0  0  0  0  0  0  0  0  0  0  0  0
    1.8261   -5.2344    1.1022 C   0  0  0  0  0  0  0  0  0  0  0  0
    1.4696   -5.9390   -0.2046 C   0  0  0  0  0  0  0  0  0  0  0  0
    0.4541   -5.1473   -1.0264 C   0  0  0  0  0  0  0  0  0  0  0  0
    0.9045   -3.7029   -1.2548 C   0  0  0  0  0  0  0  0  0  0  0  0
    0.6234   -0.5622   -0.0637 C   0  0  0  0  0  0  0  0  0  0  0  0
   -2.6743    0.5490    0.0002 N   0  0  0  0  0  0  0  0  0  0  0  0
   -3.9606   -1.1605   -0.0199 H   0  0  0  0  0  0  0  0  0  0  0  0
   -1.6437   -2.5662   -0.0960 H   0  0  0  0  0  0  0  0  0  0  0  0
    1.2388    2.7707   -0.0242 H   0  0  0  0  0  0  0  0  0  0  0  0
    3.6536   -1.6186   -0.1229 H   0  0  0  0  0  0  0  0  0  0  0  0
    0.3097   -3.0678    0.7175 H   0  0  0  0  0  0  0  0  0  0  0  0
    2.4975   -3.3130    1.8130 H   0  0  0  0  0  0  0  0  0  0  0  0
    3.2250   -3.8209    0.2883 H   0  0  0  0  0  0  0  0  0  0  0  0
    0.9511   -5.2251    1.7641 H   0  0  0  0  0  0  0  0  0  0  0  0
    2.6146   -5.7897    1.6217 H   0  0  0  0  0  0  0  0  0  0  0  0
    1.0693   -6.9350    0.0151 H   0  0  0  0  0  0  0  0  0  0  0  0
    2.3808   -6.0835   -0.7980 H   0  0  0  0  0  0  0  0  0  0  0  0
   -0.5104   -5.1442   -0.5029 H   0  0  0  0  0  0  0  0  0  0  0  0
    0.2901   -5.6437   -1.9894 H   0  0  0  0  0  0  0  0  0  0  0  0
    0.1223   -3.1654   -1.8036 H   0  0  0  0  0  0  0  0  0  0  0  0
    1.7948   -3.6902   -1.8969 H   0  0  0  0  0  0  0  0  0  0  0  0
   -3.3552    1.2943    0.0250 H   0  0  0  0  0  0  0  0  0  0  0  0
  1  2  2  0  0  0  0
  1 18  1  0  0  0  0
  1 19  1  0  0  0  0
  2  3  1  0  0  0  0
  2 20  1  0  0  0  0
  3  4  1  0  0  0  0
  3 17  2  0  0  0  0
  4  5  2  0  0  0  0
  4 18  1  0  0  0  0
  5  6  1  0  0  0  0
  6  7  2  0  0  0  0
  6 21  1  0  0  0  0
  7  8  1  0  0  0  0
  7 17  1  0  0  0  0
  8  9  2  0  0  0  0
  9 10  1  0  0  0  0
  9 22  1  0  0  0  0
 10 11  1  0  0  0  0
 10 17  1  0  0  0  0
 11 12  1  0  0  0  0
 11 16  1  0  0  0  0
 11 23  1  0  0  0  0
 12 13  1  0  0  0  0
 12 24  1  0  0  0  0
 12 25  1  0  0  0  0
 13 14  1  0  0  0  0
 13 26  1  0  0  0  0
 13 27  1  0  0  0  0
 14 15  1  0  0  0  0
 14 28  1  0  0  0  0
 14 29  1  0  0  0  0
 15 16  1  0  0  0  0
 15 30  1  0  0  0  0
 15 31  1  0  0  0  0
 16 32  1  0  0  0  0
 16 33  1  0  0  0  0
 18 34  1  0  0  0  0
M  END
$$$$
