CHEMBL3954419
 OpenBabel04072215373D

 64 68  0  0  1  0  0  0  0  0999 V2000
    2.8615   -1.2690   -0.1489 O   0  0  0  0  0  0  0  0  0  0  0  0
    2.3500   -0.2384    0.2840 C   0  0  0  0  0  0  0  0  0  0  0  0
    0.9901   -0.1121    0.5194 N   0  0  0  0  0  0  0  0  0  0  0  0
    0.0556   -1.1739    0.3679 C   0  0  0  0  0  0  0  0  0  0  0  0
    0.4467   -2.5233    0.3380 C   0  0  0  0  0  0  0  0  0  0  0  0
   -0.4752   -3.5611    0.2155 C   0  0  0  0  0  0  0  0  0  0  0  0
   -0.1754   -4.9010    0.2851 O   0  0  0  0  0  0  0  0  0  0  0  0
    1.0965   -5.2642    0.8587 C   0  0  3  0  0  0  0  0  0  0  0  0
    1.2911   -6.7653    0.7590 C   0  0  0  0  0  0  0  0  0  0  0  0
    0.7049   -7.2899    2.0498 C   0  0  0  0  0  0  0  0  0  0  0  0
    0.9089   -6.2802    3.0387 O   0  0  0  0  0  0  0  0  0  0  0  0
    1.1476   -5.0300    2.3700 C   0  0  0  0  0  0  0  0  0  0  0  0
   -1.8169   -3.2392    0.0336 C   0  0  0  0  0  0  0  0  0  0  0  0
   -2.2477   -1.8995    0.0681 C   0  0  0  0  0  0  0  0  0  0  0  0
   -3.7105   -1.5626   -0.0891 C   0  0  0  0  0  0  0  0  0  0  0  0
   -4.5075   -2.6488   -0.2878 F   0  0  0  0  0  0  0  0  0  0  0  0
   -4.2137   -0.9252    1.0044 F   0  0  0  0  0  0  0  0  0  0  0  0
   -3.9439   -0.7310   -1.1426 F   0  0  0  0  0  0  0  0  0  0  0  0
   -1.3033   -0.8712    0.2652 C   0  0  0  0  0  0  0  0  0  0  0  0
    3.0698    0.9091    0.5598 N   0  0  0  0  0  0  0  0  0  0  0  0
    4.4697    1.0635    0.3693 C   0  0  0  0  0  0  0  0  0  0  0  0
    5.2889    0.0652   -0.1702 C   0  0  0  0  0  0  0  0  0  0  0  0
    6.6642    0.2513   -0.3262 C   0  0  0  0  0  0  0  0  0  0  0  0
    7.2631    1.4308    0.1072 C   0  0  0  0  0  0  0  0  0  0  0  0
    8.6231    1.6538    0.0388 O   0  0  0  0  0  0  0  0  0  0  0  0
    9.4833    0.5999    0.2884 C   0  0  0  0  0  0  0  0  0  0  0  0
    9.1950   -0.4220    1.1891 C   0  0  0  0  0  0  0  0  0  0  0  0
   10.1014   -1.4492    1.3060 C   0  0  0  0  0  0  0  0  0  0  0  0
   11.2645   -1.4841    0.6349 N   0  0  0  0  0  0  0  0  0  0  0  0
   11.5770   -0.4708   -0.1906 C   0  0  0  0  0  0  0  0  0  0  0  0
   12.7987   -0.5036   -0.8852 N   0  0  0  0  0  0  0  0  0  0  0  0
   13.7027   -1.5539   -0.7944 C   0  0  0  0  0  0  0  0  0  0  0  0
   13.5916   -2.5651   -0.1189 O   0  0  0  0  0  0  0  0  0  0  0  0
   14.9421   -1.4494   -1.6218 C   0  0  0  0  0  0  0  0  0  0  0  0
   15.6546   -0.1568   -1.9238 C   0  0  0  0  0  0  0  0  0  0  0  0
   14.9497   -0.8992   -3.0255 C   0  0  0  0  0  0  0  0  0  0  0  0
   10.7097    0.5995   -0.3870 C   0  0  0  0  0  0  0  0  0  0  0  0
    6.4474    2.4490    0.5981 C   0  0  0  0  0  0  0  0  0  0  0  0
    6.9806    3.6209    0.9680 F   0  0  0  0  0  0  0  0  0  0  0  0
    5.0612    2.2739    0.7342 C   0  0  0  0  0  0  0  0  0  0  0  0
    0.6197    0.8190    0.6312 H   0  0  0  0  0  0  0  0  0  0  0  0
    1.4923   -2.7744    0.4325 H   0  0  0  0  0  0  0  0  0  0  0  0
    1.9082   -4.7682    0.3165 H   0  0  0  0  0  0  0  0  0  0  0  0
    2.3657   -6.9888    0.7484 H   0  0  0  0  0  0  0  0  0  0  0  0
    0.8314   -7.2273   -0.1181 H   0  0  0  0  0  0  0  0  0  0  0  0
    1.1877   -8.2166    2.3759 H   0  0  0  0  0  0  0  0  0  0  0  0
   -0.3706   -7.4724    1.9624 H   0  0  0  0  0  0  0  0  0  0  0  0
    2.1427   -4.6921    2.6760 H   0  0  0  0  0  0  0  0  0  0  0  0
    0.4076   -4.3102    2.7303 H   0  0  0  0  0  0  0  0  0  0  0  0
   -2.5373   -4.0439   -0.1086 H   0  0  0  0  0  0  0  0  0  0  0  0
   -1.6453    0.1609    0.3057 H   0  0  0  0  0  0  0  0  0  0  0  0
    2.5770    1.6766    0.9951 H   0  0  0  0  0  0  0  0  0  0  0  0
    4.9091   -0.9003   -0.4875 H   0  0  0  0  0  0  0  0  0  0  0  0
    7.2473   -0.5568   -0.7603 H   0  0  0  0  0  0  0  0  0  0  0  0
    8.2798   -0.4534    1.7670 H   0  0  0  0  0  0  0  0  0  0  0  0
    9.9153   -2.3035    1.9495 H   0  0  0  0  0  0  0  0  0  0  0  0
   13.0157    0.2657   -1.4946 H   0  0  0  0  0  0  0  0  0  0  0  0
   15.5927   -2.3064   -1.4556 H   0  0  0  0  0  0  0  0  0  0  0  0
   16.7401   -0.1825   -1.9056 H   0  0  0  0  0  0  0  0  0  0  0  0
   15.2391    0.7794   -1.5772 H   0  0  0  0  0  0  0  0  0  0  0  0
   15.5544   -1.4290   -3.7549 H   0  0  0  0  0  0  0  0  0  0  0  0
   14.0407   -0.4809   -3.4379 H   0  0  0  0  0  0  0  0  0  0  0  0
   10.9552    1.4155   -1.0578 H   0  0  0  0  0  0  0  0  0  0  0  0
    4.4772    3.0974    1.1303 H   0  0  0  0  0  0  0  0  0  0  0  0
  1  2  2  0  0  0  0
  2  3  1  0  0  0  0
  2 20  1  0  0  0  0
  3  4  1  0  0  0  0
  3 41  1  0  0  0  0
  4  5  1  0  0  0  0
  4 19  2  0  0  0  0
  5  6  2  0  0  0  0
  5 42  1  0  0  0  0
  6  7  1  0  0  0  0
  6 13  1  0  0  0  0
  7  8  1  0  0  0  0
  8  9  1  0  0  0  0
  8 12  1  0  0  0  0
  8 43  1  0  0  0  0
  9 10  1  0  0  0  0
  9 44  1  0  0  0  0
  9 45  1  0  0  0  0
 10 11  1  0  0  0  0
 10 46  1  0  0  0  0
 10 47  1  0  0  0  0
 11 12  1  0  0  0  0
 12 48  1  0  0  0  0
 12 49  1  0  0  0  0
 13 14  2  0  0  0  0
 13 50  1  0  0  0  0
 14 15  1  0  0  0  0
 14 19  1  0  0  0  0
 15 16  1  0  0  0  0
 15 17  1  0  0  0  0
 15 18  1  0  0  0  0
 19 51  1  0  0  0  0
 20 21  1  0  0  0  0
 20 52  1  0  0  0  0
 21 22  1  0  0  0  0
 21 40  2  0  0  0  0
 22 23  2  0  0  0  0
 22 53  1  0  0  0  0
 23 24  1  0  0  0  0
 23 54  1  0  0  0  0
 24 25  1  0  0  0  0
 24 38  2  0  0  0  0
 25 26  1  0  0  0  0
 26 27  1  0  0  0  0
 26 37  2  0  0  0  0
 27 28  2  0  0  0  0
 27 55  1  0  0  0  0
 28 29  1  0  0  0  0
 28 56  1  0  0  0  0
 29 30  2  0  0  0  0
 30 31  1  0  0  0  0
 30 37  1  0  0  0  0
 31 32  1  0  0  0  0
 31 57  1  0  0  0  0
 32 33  2  0  0  0  0
 32 34  1  0  0  0  0
 34 35  1  0  0  0  0
 34 36  1  0  0  0  0
 34 58  1  0  0  0  0
 35 36  1  0  0  0  0
 35 59  1  0  0  0  0
 35 60  1  0  0  0  0
 36 61  1  0  0  0  0
 36 62  1  0  0  0  0
 37 63  1  0  0  0  0
 38 39  1  0  0  0  0
 38 40  1  0  0  0  0
 40 64  1  0  0  0  0
M  END
$$$$
