CHEMBL3909565
 OpenBabel04072215373D

 60 63  0  0  0  0  0  0  0  0999 V2000
    1.9946   -3.3681    0.9862 C   0  0  0  0  0  0  0  0  0  0  0  0
    3.3297   -2.9406    1.2938 N   0  0  0  0  0  0  0  0  0  0  0  0
    4.3986   -3.8050    1.3319 C   0  0  0  0  0  0  0  0  0  0  0  0
    4.3069   -4.9837    0.9927 O   0  0  0  0  0  0  0  0  0  0  0  0
    5.7284   -3.2018    1.7346 C   0  0  0  0  0  0  0  0  0  0  0  0
    5.6106   -2.1804    2.7637 N   0  0  0  0  0  0  0  0  0  0  0  0
    6.1412   -2.2140    4.0191 C   0  0  0  0  0  0  0  0  0  0  0  0
    5.8289   -1.0044    4.6085 C   0  0  0  0  0  0  0  0  0  0  0  0
    6.2830   -0.5918    5.9164 C   0  0  0  0  0  0  0  0  0  0  0  0
    5.5985    0.3274    6.6949 C   0  0  0  0  0  0  0  0  0  0  0  0
    6.0626    0.7596    7.8952 N   0  0  0  0  0  0  0  0  0  0  0  0
    7.2515    0.2554    8.2913 C   0  0  0  0  0  0  0  0  0  0  0  0
    7.8165    0.6469    9.4936 C   0  0  0  0  0  0  0  0  0  0  0  0
    9.0472    0.1274    9.9186 C   0  0  0  0  0  0  0  0  0  0  0  0
    9.7549   -0.8028    9.1435 C   0  0  0  0  0  0  0  0  0  0  0  0
   10.9858   -1.3376    9.6016 N   0  0  0  0  0  0  0  0  0  0  0  0
   12.0230   -1.6519    8.5829 C   0  0  0  0  0  0  0  0  0  0  0  0
   12.2124   -3.1635    8.3584 C   0  0  0  0  0  0  0  0  0  0  0  0
   11.1285   -3.7639    7.6540 O   0  0  0  0  0  0  0  0  0  0  0  0
   11.2828   -1.6921   10.9451 C   0  0  0  0  0  0  0  0  0  0  0  0
   10.2722   -2.2149   11.7732 C   0  0  0  0  0  0  0  0  0  0  0  0
   10.5362   -2.6201   13.0838 C   0  0  0  0  0  0  0  0  0  0  0  0
    9.6257   -3.1566   13.9539 O   0  0  0  0  0  0  0  0  0  0  0  0
    8.2946   -3.3094   13.4751 C   0  0  0  0  0  0  0  0  0  0  0  0
   11.8307   -2.5068   13.5926 C   0  0  0  0  0  0  0  0  0  0  0  0
   12.8546   -1.9953   12.8010 C   0  0  0  0  0  0  0  0  0  0  0  0
   14.1656   -1.8622   13.1701 O   0  0  0  0  0  0  0  0  0  0  0  0
   14.5240   -2.3440   14.4607 C   0  0  0  0  0  0  0  0  0  0  0  0
   12.5692   -1.5762   11.4947 C   0  0  0  0  0  0  0  0  0  0  0  0
    9.1768   -1.1701    7.9265 C   0  0  0  0  0  0  0  0  0  0  0  0
    7.9477   -0.6807    7.4995 C   0  0  0  0  0  0  0  0  0  0  0  0
    7.4620   -1.1125    6.3211 N   0  0  0  0  0  0  0  0  0  0  0  0
    5.0854   -0.3212    3.6260 C   0  0  0  0  0  0  0  0  0  0  0  0
    4.9447   -1.0305    2.5010 N   0  0  0  0  0  0  0  0  0  0  0  0
    1.3103   -2.5393    1.1840 H   0  0  0  0  0  0  0  0  0  0  0  0
    1.7332   -4.2255    1.6128 H   0  0  0  0  0  0  0  0  0  0  0  0
    1.9450   -3.6540   -0.0665 H   0  0  0  0  0  0  0  0  0  0  0  0
    3.4894   -1.9732    1.5908 H   0  0  0  0  0  0  0  0  0  0  0  0
    6.2122   -2.7448    0.8658 H   0  0  0  0  0  0  0  0  0  0  0  0
    6.3741   -3.9949    2.1283 H   0  0  0  0  0  0  0  0  0  0  0  0
    6.7086   -3.0615    4.3840 H   0  0  0  0  0  0  0  0  0  0  0  0
    4.6491    0.7522    6.3871 H   0  0  0  0  0  0  0  0  0  0  0  0
    7.2982    1.3753   10.1119 H   0  0  0  0  0  0  0  0  0  0  0  0
    9.4609    0.4818   10.8619 H   0  0  0  0  0  0  0  0  0  0  0  0
   12.9847   -1.2233    8.8851 H   0  0  0  0  0  0  0  0  0  0  0  0
   11.7983   -1.1609    7.6283 H   0  0  0  0  0  0  0  0  0  0  0  0
   12.3574   -3.7120    9.2938 H   0  0  0  0  0  0  0  0  0  0  0  0
   13.1050   -3.3174    7.7442 H   0  0  0  0  0  0  0  0  0  0  0  0
   10.4358   -3.9459    8.3143 H   0  0  0  0  0  0  0  0  0  0  0  0
    9.2773   -2.3285   11.3566 H   0  0  0  0  0  0  0  0  0  0  0  0
    7.7050   -3.7727   14.2718 H   0  0  0  0  0  0  0  0  0  0  0  0
    8.2596   -3.9760   12.6071 H   0  0  0  0  0  0  0  0  0  0  0  0
    7.8465   -2.3371   13.2478 H   0  0  0  0  0  0  0  0  0  0  0  0
   12.0055   -2.8336   14.6118 H   0  0  0  0  0  0  0  0  0  0  0  0
   15.6159   -2.3240   14.5343 H   0  0  0  0  0  0  0  0  0  0  0  0
   14.2081   -3.3818   14.6127 H   0  0  0  0  0  0  0  0  0  0  0  0
   14.1201   -1.6895   15.2395 H   0  0  0  0  0  0  0  0  0  0  0  0
   13.3837   -1.1374   10.9267 H   0  0  0  0  0  0  0  0  0  0  0  0
    9.6656   -1.8835    7.2687 H   0  0  0  0  0  0  0  0  0  0  0  0
    4.6602    0.6744    3.6674 H   0  0  0  0  0  0  0  0  0  0  0  0
  1  2  1  0  0  0  0
  1 35  1  0  0  0  0
  1 36  1  0  0  0  0
  1 37  1  0  0  0  0
  2  3  1  0  0  0  0
  2 38  1  0  0  0  0
  3  4  2  0  0  0  0
  3  5  1  0  0  0  0
  5  6  1  0  0  0  0
  5 39  1  0  0  0  0
  5 40  1  0  0  0  0
  6  7  1  0  0  0  0
  6 34  1  0  0  0  0
  7  8  2  0  0  0  0
  7 41  1  0  0  0  0
  8  9  1  0  0  0  0
  8 33  1  0  0  0  0
  9 10  1  0  0  0  0
  9 32  2  0  0  0  0
 10 11  2  0  0  0  0
 10 42  1  0  0  0  0
 11 12  1  0  0  0  0
 12 13  1  0  0  0  0
 12 31  2  0  0  0  0
 13 14  2  0  0  0  0
 13 43  1  0  0  0  0
 14 15  1  0  0  0  0
 14 44  1  0  0  0  0
 15 16  1  0  0  0  0
 15 30  2  0  0  0  0
 16 17  1  0  0  0  0
 16 20  1  0  0  0  0
 17 18  1  0  0  0  0
 17 45  1  0  0  0  0
 17 46  1  0  0  0  0
 18 19  1  0  0  0  0
 18 47  1  0  0  0  0
 18 48  1  0  0  0  0
 19 49  1  0  0  0  0
 20 21  1  0  0  0  0
 20 29  2  0  0  0  0
 21 22  2  0  0  0  0
 21 50  1  0  0  0  0
 22 23  1  0  0  0  0
 22 25  1  0  0  0  0
 23 24  1  0  0  0  0
 24 51  1  0  0  0  0
 24 52  1  0  0  0  0
 24 53  1  0  0  0  0
 25 26  2  0  0  0  0
 25 54  1  0  0  0  0
 26 27  1  0  0  0  0
 26 29  1  0  0  0  0
 27 28  1  0  0  0  0
 28 55  1  0  0  0  0
 28 56  1  0  0  0  0
 28 57  1  0  0  0  0
 29 58  1  0  0  0  0
 30 31  1  0  0  0  0
 30 59  1  0  0  0  0
 31 32  1  0  0  0  0
 33 34  2  0  0  0  0
 33 60  1  0  0  0  0
M  END
$$$$
