CHEMBL231357
 OpenBabel04072215363D

 46 49  0  0  0  0  0  0  0  0999 V2000
   -4.8317   -5.0557    7.2471 C   0  0  0  0  0  0  0  0  0  0  0  0
   -3.8896   -4.6696    6.1445 C   0  0  0  0  0  0  0  0  0  0  0  0
   -2.5225   -4.5445    6.4063 C   0  0  0  0  0  0  0  0  0  0  0  0
   -1.6505   -4.1878    5.3813 C   0  0  0  0  0  0  0  0  0  0  0  0
   -2.1304   -3.9731    4.0908 C   0  0  0  0  0  0  0  0  0  0  0  0
   -3.4880   -4.1188    3.7955 C   0  0  0  0  0  0  0  0  0  0  0  0
   -4.0172   -3.9522    2.4898 N   0  0  0  0  0  0  0  0  0  0  0  0
   -3.2818   -3.8672    1.3187 C   0  0  0  0  0  0  0  0  0  0  0  0
   -2.0571   -3.9960    1.2496 O   0  0  0  0  0  0  0  0  0  0  0  0
   -4.0362   -3.6267    0.0243 C   0  0  0  0  0  0  0  0  0  0  0  0
   -5.5271   -3.4230    0.0718 C   0  0  0  0  0  0  0  0  0  0  0  0
   -6.0602   -2.1477    0.2781 C   0  0  0  0  0  0  0  0  0  0  0  0
   -7.4442   -1.9579    0.2994 C   0  0  0  0  0  0  0  0  0  0  0  0
   -8.3263   -3.0304    0.0879 C   0  0  0  0  0  0  0  0  0  0  0  0
   -9.7804   -2.8192    0.1360 C   0  0  0  0  0  0  0  0  0  0  0  0
  -10.3103   -1.6791   -0.4425 C   0  0  0  0  0  0  0  0  0  0  0  0
  -11.9903   -1.5489   -0.2602 S   0  0  0  0  0  0  0  0  0  0  0  0
  -12.0847   -3.0481    0.5726 C   0  0  0  0  0  0  0  0  0  0  0  0
  -13.2630   -3.6266    1.0574 C   0  0  0  0  0  0  0  0  0  0  0  0
  -13.1252   -4.8395    1.6882 C   0  0  0  0  0  0  0  0  0  0  0  0
  -11.9515   -5.4614    1.8711 N   0  0  0  0  0  0  0  0  0  0  0  0
  -10.8065   -4.8996    1.4259 C   0  0  0  0  0  0  0  0  0  0  0  0
   -9.6672   -5.6316    1.7379 N   0  0  0  0  0  0  0  0  0  0  0  0
  -10.8292   -3.6549    0.7329 C   0  0  0  0  0  0  0  0  0  0  0  0
   -7.7805   -4.2905   -0.1741 C   0  0  0  0  0  0  0  0  0  0  0  0
   -6.3980   -4.4965   -0.1413 C   0  0  0  0  0  0  0  0  0  0  0  0
   -4.3678   -4.4433    4.8390 C   0  0  0  0  0  0  0  0  0  0  0  0
   -4.3043   -5.1783    8.2001 H   0  0  0  0  0  0  0  0  0  0  0  0
   -5.3177   -6.0071    7.0113 H   0  0  0  0  0  0  0  0  0  0  0  0
   -5.5923   -4.2815    7.3860 H   0  0  0  0  0  0  0  0  0  0  0  0
   -2.1255   -4.7176    7.4028 H   0  0  0  0  0  0  0  0  0  0  0  0
   -0.5863   -4.0773    5.5855 H   0  0  0  0  0  0  0  0  0  0  0  0
   -1.4074   -3.6831    3.3365 H   0  0  0  0  0  0  0  0  0  0  0  0
   -5.0266   -3.9906    2.4068 H   0  0  0  0  0  0  0  0  0  0  0  0
   -3.8152   -4.4749   -0.6402 H   0  0  0  0  0  0  0  0  0  0  0  0
   -3.5814   -2.7474   -0.4492 H   0  0  0  0  0  0  0  0  0  0  0  0
   -5.4047   -1.2879    0.4092 H   0  0  0  0  0  0  0  0  0  0  0  0
   -7.8206   -0.9520    0.4743 H   0  0  0  0  0  0  0  0  0  0  0  0
   -9.7859   -0.8925   -0.9685 H   0  0  0  0  0  0  0  0  0  0  0  0
  -14.2290   -3.1509    0.9409 H   0  0  0  0  0  0  0  0  0  0  0  0
  -13.9907   -5.3622    2.0856 H   0  0  0  0  0  0  0  0  0  0  0  0
   -9.9222   -6.3590    2.3980 H   0  0  0  0  0  0  0  0  0  0  0  0
   -8.8845   -5.0544    2.0128 H   0  0  0  0  0  0  0  0  0  0  0  0
   -8.4238   -5.1385   -0.4037 H   0  0  0  0  0  0  0  0  0  0  0  0
   -6.0107   -5.4997   -0.3121 H   0  0  0  0  0  0  0  0  0  0  0  0
   -5.4319   -4.5505    4.6455 H   0  0  0  0  0  0  0  0  0  0  0  0
  1  2  1  0  0  0  0
  1 28  1  0  0  0  0
  1 29  1  0  0  0  0
  1 30  1  0  0  0  0
  2  3  1  0  0  0  0
  2 27  2  0  0  0  0
  3  4  2  0  0  0  0
  3 31  1  0  0  0  0
  4  5  1  0  0  0  0
  4 32  1  0  0  0  0
  5  6  2  0  0  0  0
  5 33  1  0  0  0  0
  6  7  1  0  0  0  0
  6 27  1  0  0  0  0
  7  8  1  0  0  0  0
  7 34  1  0  0  0  0
  8  9  2  0  0  0  0
  8 10  1  0  0  0  0
 10 11  1  0  0  0  0
 10 35  1  0  0  0  0
 10 36  1  0  0  0  0
 11 12  1  0  0  0  0
 11 26  2  0  0  0  0
 12 13  2  0  0  0  0
 12 37  1  0  0  0  0
 13 14  1  0  0  0  0
 13 38  1  0  0  0  0
 14 15  1  0  0  0  0
 14 25  2  0  0  0  0
 15 16  2  0  0  0  0
 15 24  1  0  0  0  0
 16 17  1  0  0  0  0
 16 39  1  0  0  0  0
 17 18  1  0  0  0  0
 18 19  1  0  0  0  0
 18 24  2  0  0  0  0
 19 20  2  0  0  0  0
 19 40  1  0  0  0  0
 20 21  1  0  0  0  0
 20 41  1  0  0  0  0
 21 22  2  0  0  0  0
 22 23  1  0  0  0  0
 22 24  1  0  0  0  0
 23 42  1  0  0  0  0
 23 43  1  0  0  0  0
 25 26  1  0  0  0  0
 25 44  1  0  0  0  0
 26 45  1  0  0  0  0
 27 46  1  0  0  0  0
M  END
$$$$
