CHEMBL3969096
 OpenBabel04072215373D

 71 75  0  0  0  0  0  0  0  0999 V2000
    0.8315   -2.7103    3.4639 C   0  0  0  0  0  0  0  0  0  0  0  0
    2.2449   -2.7773    3.6619 O   0  0  0  0  0  0  0  0  0  0  0  0
    3.0506   -2.2837    2.6635 C   0  0  0  0  0  0  0  0  0  0  0  0
    2.5949   -1.8446    1.4204 C   0  0  0  0  0  0  0  0  0  0  0  0
    3.4955   -1.2944    0.5115 C   0  0  0  0  0  0  0  0  0  0  0  0
    3.1840   -0.8133   -0.7318 O   0  0  0  0  0  0  0  0  0  0  0  0
    1.8273   -0.9006   -1.1468 C   0  0  0  0  0  0  0  0  0  0  0  0
    4.8500   -1.1707    0.8556 C   0  0  0  0  0  0  0  0  0  0  0  0
    5.3501   -1.6011    2.0931 C   0  0  0  0  0  0  0  0  0  0  0  0
    6.6547   -1.2797    2.5518 N   0  0  0  0  0  0  0  0  0  0  0  0
    7.1824    0.0623    2.0920 C   0  0  0  0  0  0  0  0  0  0  0  0
    6.3379    1.3311    2.3330 C   0  0  0  0  0  0  0  0  0  0  0  0
    6.2119    2.1495    1.4159 O   0  0  0  0  0  0  0  0  0  0  0  0
    5.8962    1.6300    3.6177 N   0  0  0  0  0  0  0  0  0  0  0  0
    5.1587    2.8907    3.8263 C   0  0  0  0  0  0  0  0  0  0  0  0
    4.9802    3.3369    5.3043 C   0  0  0  0  0  0  0  0  0  0  0  0
    4.3393    4.6656    5.4747 N   0  0  0  0  0  0  0  0  0  0  0  0
    4.2676    5.0789    6.8893 C   0  0  0  0  0  0  0  0  0  0  0  0
    2.9640    4.4969    7.4046 C   0  0  0  0  0  0  0  0  0  0  0  0
    2.0305    4.6398    6.2198 C   0  0  0  0  0  0  0  0  0  0  0  0
    2.9456    4.7340    5.0050 C   0  0  0  0  0  0  0  0  0  0  0  0
    7.8156   -2.1410    2.7304 C   0  0  0  0  0  0  0  0  0  0  0  0
    8.6399   -1.7372    3.7887 C   0  0  0  0  0  0  0  0  0  0  0  0
    9.9845   -2.0744    3.7710 C   0  0  0  0  0  0  0  0  0  0  0  0
   10.5243   -2.9175    2.8400 C   0  0  0  0  0  0  0  0  0  0  0  0
   11.8567   -2.9741    2.9056 N   0  0  0  0  0  0  0  0  0  0  0  0
   12.4551   -3.8813    2.1316 C   0  0  0  0  0  0  0  0  0  0  0  0
   11.7441   -4.7811    1.3671 C   0  0  0  0  0  0  0  0  0  0  0  0
   12.5105   -5.9180    0.8495 C   0  0  0  0  0  0  0  0  0  0  0  0
   12.6961   -7.2107    1.4232 C   0  0  0  0  0  0  0  0  0  0  0  0
   13.6679   -7.9127    0.8254 N   0  0  0  0  0  0  0  0  0  0  0  0
   14.1247   -7.0686   -0.1150 N   0  0  0  0  0  0  0  0  0  0  0  0
   14.9633   -7.5502   -1.1884 C   0  0  0  0  0  0  0  0  0  0  0  0
   13.5960   -5.8110   -0.0044 C   0  0  0  0  0  0  0  0  0  0  0  0
   10.3713   -4.6568    1.2184 N   0  0  0  0  0  0  0  0  0  0  0  0
    9.7138   -3.6372    1.9352 C   0  0  0  0  0  0  0  0  0  0  0  0
    8.3222   -3.1660    1.8684 C   0  0  0  0  0  0  0  0  0  0  0  0
    4.4249   -2.1944    2.9760 C   0  0  0  0  0  0  0  0  0  0  0  0
    0.3424   -2.9073    4.4237 H   0  0  0  0  0  0  0  0  0  0  0  0
    0.5034   -3.4804    2.7572 H   0  0  0  0  0  0  0  0  0  0  0  0
    0.5009   -1.7170    3.1382 H   0  0  0  0  0  0  0  0  0  0  0  0
    1.5452   -1.9170    1.1677 H   0  0  0  0  0  0  0  0  0  0  0  0
    1.7735   -0.5574   -2.1844 H   0  0  0  0  0  0  0  0  0  0  0  0
    1.1896   -0.2459   -0.5432 H   0  0  0  0  0  0  0  0  0  0  0  0
    1.4668   -1.9345   -1.1232 H   0  0  0  0  0  0  0  0  0  0  0  0
    5.5043   -0.6960    0.1300 H   0  0  0  0  0  0  0  0  0  0  0  0
    7.4082    0.0039    1.0197 H   0  0  0  0  0  0  0  0  0  0  0  0
    8.1375    0.3070    2.5748 H   0  0  0  0  0  0  0  0  0  0  0  0
    5.6880    0.8395    4.2170 H   0  0  0  0  0  0  0  0  0  0  0  0
    4.1865    2.7550    3.3432 H   0  0  0  0  0  0  0  0  0  0  0  0
    5.6842    3.6863    3.2814 H   0  0  0  0  0  0  0  0  0  0  0  0
    5.9839    3.3974    5.7450 H   0  0  0  0  0  0  0  0  0  0  0  0
    4.4370    2.5623    5.8565 H   0  0  0  0  0  0  0  0  0  0  0  0
    4.2161    6.1758    6.9363 H   0  0  0  0  0  0  0  0  0  0  0  0
    5.1324    4.7747    7.4874 H   0  0  0  0  0  0  0  0  0  0  0  0
    2.5875    5.0180    8.2905 H   0  0  0  0  0  0  0  0  0  0  0  0
    3.0889    3.4391    7.6632 H   0  0  0  0  0  0  0  0  0  0  0  0
    1.4284    5.5534    6.3141 H   0  0  0  0  0  0  0  0  0  0  0  0
    1.3450    3.7878    6.1539 H   0  0  0  0  0  0  0  0  0  0  0  0
    2.7913    5.7035    4.5130 H   0  0  0  0  0  0  0  0  0  0  0  0
    2.6922    3.9819    4.2578 H   0  0  0  0  0  0  0  0  0  0  0  0
    8.2808   -1.0335    4.5200 H   0  0  0  0  0  0  0  0  0  0  0  0
   10.6360   -1.6107    4.5094 H   0  0  0  0  0  0  0  0  0  0  0  0
   13.5370   -3.8963    2.1916 H   0  0  0  0  0  0  0  0  0  0  0  0
   12.1943   -7.6601    2.2727 H   0  0  0  0  0  0  0  0  0  0  0  0
   15.1168   -8.6284   -1.0883 H   0  0  0  0  0  0  0  0  0  0  0  0
   15.9220   -7.0270   -1.1724 H   0  0  0  0  0  0  0  0  0  0  0  0
   14.4345   -7.3469   -2.1240 H   0  0  0  0  0  0  0  0  0  0  0  0
   14.0079   -4.9824   -0.5590 H   0  0  0  0  0  0  0  0  0  0  0  0
    7.6848   -3.5788    1.0856 H   0  0  0  0  0  0  0  0  0  0  0  0
    4.7536   -2.5204    3.9606 H   0  0  0  0  0  0  0  0  0  0  0  0
  1  2  1  0  0  0  0
  1 39  1  0  0  0  0
  1 40  1  0  0  0  0
  1 41  1  0  0  0  0
  2  3  1  0  0  0  0
  3  4  1  0  0  0  0
  3 38  2  0  0  0  0
  4  5  2  0  0  0  0
  4 42  1  0  0  0  0
  5  6  1  0  0  0  0
  5  8  1  0  0  0  0
  6  7  1  0  0  0  0
  7 43  1  0  0  0  0
  7 44  1  0  0  0  0
  7 45  1  0  0  0  0
  8  9  2  0  0  0  0
  8 46  1  0  0  0  0
  9 10  1  0  0  0  0
  9 38  1  0  0  0  0
 10 11  1  0  0  0  0
 10 22  1  0  0  0  0
 11 12  1  0  0  0  0
 11 47  1  0  0  0  0
 11 48  1  0  0  0  0
 12 13  2  0  0  0  0
 12 14  1  0  0  0  0
 14 15  1  0  0  0  0
 14 49  1  0  0  0  0
 15 16  1  0  0  0  0
 15 50  1  0  0  0  0
 15 51  1  0  0  0  0
 16 17  1  0  0  0  0
 16 52  1  0  0  0  0
 16 53  1  0  0  0  0
 17 18  1  0  0  0  0
 17 21  1  0  0  0  0
 18 19  1  0  0  0  0
 18 54  1  0  0  0  0
 18 55  1  0  0  0  0
 19 20  1  0  0  0  0
 19 56  1  0  0  0  0
 19 57  1  0  0  0  0
 20 21  1  0  0  0  0
 20 58  1  0  0  0  0
 20 59  1  0  0  0  0
 21 60  1  0  0  0  0
 21 61  1  0  0  0  0
 22 23  1  0  0  0  0
 22 37  2  0  0  0  0
 23 24  2  0  0  0  0
 23 62  1  0  0  0  0
 24 25  1  0  0  0  0
 24 63  1  0  0  0  0
 25 26  1  0  0  0  0
 25 36  2  0  0  0  0
 26 27  2  0  0  0  0
 27 28  1  0  0  0  0
 27 64  1  0  0  0  0
 28 29  1  0  0  0  0
 28 35  2  0  0  0  0
 29 30  1  0  0  0  0
 29 34  2  0  0  0  0
 30 31  2  0  0  0  0
 30 65  1  0  0  0  0
 31 32  1  0  0  0  0
 32 33  1  0  0  0  0
 32 34  1  0  0  0  0
 33 66  1  0  0  0  0
 33 67  1  0  0  0  0
 33 68  1  0  0  0  0
 34 69  1  0  0  0  0
 35 36  1  0  0  0  0
 36 37  1  0  0  0  0
 37 70  1  0  0  0  0
 38 71  1  0  0  0  0
M  END
$$$$
