CHEMBL3918892
 OpenBabel04072215373D

 59 63  0  0  0  0  0  0  0  0999 V2000
    2.7091    2.8148   -1.7734 C   0  0  0  0  0  0  0  0  0  0  0  0
    3.8636    2.4297   -1.0385 O   0  0  0  0  0  0  0  0  0  0  0  0
    3.5756    1.4741   -0.0148 C   0  0  0  0  0  0  0  0  0  0  0  0
    4.8321    1.2435    0.8024 C   0  0  0  0  0  0  0  0  0  0  0  0
    5.3594    2.3007    1.5411 C   0  0  0  0  0  0  0  0  0  0  0  0
    6.5435    2.1330    2.2479 C   0  0  0  0  0  0  0  0  0  0  0  0
    7.1099    3.1145    3.0234 O   0  0  0  0  0  0  0  0  0  0  0  0
    6.1533    3.8972    3.7321 C   0  0  0  0  0  0  0  0  0  0  0  0
    7.2633    0.9296    2.1657 C   0  0  0  0  0  0  0  0  0  0  0  0
    6.7621   -0.1857    1.4901 C   0  0  0  0  0  0  0  0  0  0  0  0
    7.5075   -1.4013    1.4015 N   0  0  0  0  0  0  0  0  0  0  0  0
    6.7133   -2.6572    1.1339 C   0  0  0  0  0  0  0  0  0  0  0  0
    6.2919   -3.0486   -0.2785 C   0  0  0  0  0  0  0  0  0  0  0  0
    7.2186   -3.4322   -1.4212 C   0  0  0  0  0  0  0  0  0  0  0  0
    6.3646   -2.2043   -1.5314 C   0  0  0  0  0  0  0  0  0  0  0  0
    8.8050   -1.7674    1.9281 C   0  0  0  0  0  0  0  0  0  0  0  0
    9.5652   -2.5482    1.0702 C   0  0  0  0  0  0  0  0  0  0  0  0
   10.5336   -3.3900    1.5402 C   0  0  0  0  0  0  0  0  0  0  0  0
   10.9402   -3.3568    2.8419 C   0  0  0  0  0  0  0  0  0  0  0  0
   11.7678   -4.3518    3.1718 N   0  0  0  0  0  0  0  0  0  0  0  0
   12.3831   -4.2450    4.3505 C   0  0  0  0  0  0  0  0  0  0  0  0
   12.2453   -3.1290    5.1498 C   0  0  0  0  0  0  0  0  0  0  0  0
   13.3060   -2.9558    6.1423 C   0  0  0  0  0  0  0  0  0  0  0  0
   14.5041   -2.1967    6.0502 C   0  0  0  0  0  0  0  0  0  0  0  0
   15.3971   -2.5057    7.0013 N   0  0  0  0  0  0  0  0  0  0  0  0
   14.7855   -3.4760    7.7002 N   0  0  0  0  0  0  0  0  0  0  0  0
   15.3293   -3.9289    8.9596 C   0  0  0  0  0  0  0  0  0  0  0  0
   13.6084   -3.8811    7.1302 C   0  0  0  0  0  0  0  0  0  0  0  0
   11.2792   -2.1759    4.8777 N   0  0  0  0  0  0  0  0  0  0  0  0
   10.5305   -2.3143    3.7069 C   0  0  0  0  0  0  0  0  0  0  0  0
    9.3646   -1.5763    3.2280 C   0  0  0  0  0  0  0  0  0  0  0  0
    5.5150    0.0048    0.8260 C   0  0  0  0  0  0  0  0  0  0  0  0
    3.0232    3.4718   -2.5908 H   0  0  0  0  0  0  0  0  0  0  0  0
    2.0135    3.3707   -1.1367 H   0  0  0  0  0  0  0  0  0  0  0  0
    2.2104    1.9419   -2.2052 H   0  0  0  0  0  0  0  0  0  0  0  0
    3.2211    0.5458   -0.4754 H   0  0  0  0  0  0  0  0  0  0  0  0
    2.7837    1.8603    0.6404 H   0  0  0  0  0  0  0  0  0  0  0  0
    4.8519    3.2642    1.5154 H   0  0  0  0  0  0  0  0  0  0  0  0
    6.6669    4.3626    4.5790 H   0  0  0  0  0  0  0  0  0  0  0  0
    5.3374    3.2859    4.1350 H   0  0  0  0  0  0  0  0  0  0  0  0
    5.7597    4.6944    3.0934 H   0  0  0  0  0  0  0  0  0  0  0  0
    8.2305    0.8949    2.6492 H   0  0  0  0  0  0  0  0  0  0  0  0
    5.7979   -2.6108    1.7406 H   0  0  0  0  0  0  0  0  0  0  0  0
    7.2268   -3.5417    1.5416 H   0  0  0  0  0  0  0  0  0  0  0  0
    5.4327   -3.7146   -0.1919 H   0  0  0  0  0  0  0  0  0  0  0  0
    6.9496   -4.2912   -2.0307 H   0  0  0  0  0  0  0  0  0  0  0  0
    8.2821   -3.2636   -1.4249 H   0  0  0  0  0  0  0  0  0  0  0  0
    5.5283   -2.2496   -2.2228 H   0  0  0  0  0  0  0  0  0  0  0  0
    6.8659   -1.2446   -1.5084 H   0  0  0  0  0  0  0  0  0  0  0  0
    9.3204   -2.5854    0.0221 H   0  0  0  0  0  0  0  0  0  0  0  0
   10.9806   -4.1045    0.8730 H   0  0  0  0  0  0  0  0  0  0  0  0
   13.0590   -5.0572    4.5915 H   0  0  0  0  0  0  0  0  0  0  0  0
   14.7913   -1.4691    5.3010 H   0  0  0  0  0  0  0  0  0  0  0  0
   16.2706   -3.4136    9.1697 H   0  0  0  0  0  0  0  0  0  0  0  0
   15.4909   -5.0089    8.9219 H   0  0  0  0  0  0  0  0  0  0  0  0
   14.5970   -3.6814    9.7333 H   0  0  0  0  0  0  0  0  0  0  0  0
   13.1015   -4.7711    7.4771 H   0  0  0  0  0  0  0  0  0  0  0  0
    8.8929   -0.8904    3.9308 H   0  0  0  0  0  0  0  0  0  0  0  0
    5.0614   -0.8064    0.2646 H   0  0  0  0  0  0  0  0  0  0  0  0
  1  2  1  0  0  0  0
  1 33  1  0  0  0  0
  1 34  1  0  0  0  0
  1 35  1  0  0  0  0
  2  3  1  0  0  0  0
  3  4  1  0  0  0  0
  3 36  1  0  0  0  0
  3 37  1  0  0  0  0
  4  5  1  0  0  0  0
  4 32  2  0  0  0  0
  5  6  2  0  0  0  0
  5 38  1  0  0  0  0
  6  7  1  0  0  0  0
  6  9  1  0  0  0  0
  7  8  1  0  0  0  0
  8 39  1  0  0  0  0
  8 40  1  0  0  0  0
  8 41  1  0  0  0  0
  9 10  2  0  0  0  0
  9 42  1  0  0  0  0
 10 11  1  0  0  0  0
 10 32  1  0  0  0  0
 11 12  1  0  0  0  0
 11 16  1  0  0  0  0
 12 13  1  0  0  0  0
 12 43  1  0  0  0  0
 12 44  1  0  0  0  0
 13 14  1  0  0  0  0
 13 15  1  0  0  0  0
 13 45  1  0  0  0  0
 14 15  1  0  0  0  0
 14 46  1  0  0  0  0
 14 47  1  0  0  0  0
 15 48  1  0  0  0  0
 15 49  1  0  0  0  0
 16 17  1  0  0  0  0
 16 31  2  0  0  0  0
 17 18  2  0  0  0  0
 17 50  1  0  0  0  0
 18 19  1  0  0  0  0
 18 51  1  0  0  0  0
 19 20  1  0  0  0  0
 19 30  2  0  0  0  0
 20 21  2  0  0  0  0
 21 22  1  0  0  0  0
 21 52  1  0  0  0  0
 22 23  1  0  0  0  0
 22 29  2  0  0  0  0
 23 24  1  0  0  0  0
 23 28  2  0  0  0  0
 24 25  2  0  0  0  0
 24 53  1  0  0  0  0
 25 26  1  0  0  0  0
 26 27  1  0  0  0  0
 26 28  1  0  0  0  0
 27 54  1  0  0  0  0
 27 55  1  0  0  0  0
 27 56  1  0  0  0  0
 28 57  1  0  0  0  0
 29 30  1  0  0  0  0
 30 31  1  0  0  0  0
 31 58  1  0  0  0  0
 32 59  1  0  0  0  0
M  END
$$$$
