CHEMBL3288518
 OpenBabel04072215363D

 47 51  0  0  0  0  0  0  0  0999 V2000
   -3.5031    3.0215    1.5082 N   0  0  0  0  0  0  0  0  0  0  0  0
   -3.2615    1.7091    1.3559 C   0  0  0  0  0  0  0  0  0  0  0  0
   -4.1555    0.8267    1.7876 N   0  0  0  0  0  0  0  0  0  0  0  0
   -3.6326   -0.3511    1.4481 N   0  0  0  0  0  0  0  0  0  0  0  0
   -2.4266   -0.2663    0.8080 C   0  0  0  0  0  0  0  0  0  0  0  0
   -1.6223   -1.2861    0.2913 C   0  0  0  0  0  0  0  0  0  0  0  0
   -0.4269   -0.9116   -0.3030 C   0  0  0  0  0  0  0  0  0  0  0  0
   -0.0523    0.4281   -0.3537 C   0  0  0  0  0  0  0  0  0  0  0  0
   -0.8596    1.4773    0.1641 C   0  0  0  0  0  0  0  0  0  0  0  0
   -0.3858    2.8798    0.0916 C   0  0  0  0  0  0  0  0  0  0  0  0
    0.4010    3.3400   -0.9740 C   0  0  0  0  0  0  0  0  0  0  0  0
    0.8624    4.6631   -1.0354 C   0  0  0  0  0  0  0  0  0  0  0  0
    0.4615    5.6339   -0.0893 C   0  0  0  0  0  0  0  0  0  0  0  0
    0.7863    7.0202   -0.1175 C   0  0  0  0  0  0  0  0  0  0  0  0
    1.6590    7.6678   -1.1370 C   0  0  0  0  0  0  0  0  0  0  0  0
    2.4484    8.5206   -0.7374 O   0  0  0  0  0  0  0  0  0  0  0  0
    1.4419    7.3268   -2.4606 N   0  0  0  0  0  0  0  0  0  0  0  0
    2.1210    7.8665   -3.5791 C   0  0  0  0  0  0  0  0  0  0  0  0
    3.2454    8.6914   -3.4750 C   0  0  0  0  0  0  0  0  0  0  0  0
    3.7978    9.2816   -4.6126 C   0  0  0  0  0  0  0  0  0  0  0  0
    5.1503   10.3355   -4.4543 Cl  0  0  0  0  0  0  0  0  0  0  0  0
    3.2561    9.0430   -5.8694 C   0  0  0  0  0  0  0  0  0  0  0  0
    2.1740    8.1782   -5.9822 C   0  0  0  0  0  0  0  0  0  0  0  0
    1.4970    7.8627   -7.5337 Cl  0  0  0  0  0  0  0  0  0  0  0  0
    1.6121    7.5782   -4.8502 C   0  0  0  0  0  0  0  0  0  0  0  0
    0.3185    7.8855    0.8905 C   0  0  0  0  0  0  0  0  0  0  0  0
   -0.4660    7.4077    1.9308 C   0  0  0  0  0  0  0  0  0  0  0  0
   -0.7705    6.0542    1.9861 C   0  0  0  0  0  0  0  0  0  0  0  0
   -0.3161    5.1687    0.9975 C   0  0  0  0  0  0  0  0  0  0  0  0
   -0.6477    3.8081    1.1044 C   0  0  0  0  0  0  0  0  0  0  0  0
   -2.1107    1.0960    0.7498 C   0  0  0  0  0  0  0  0  0  0  0  0
   -4.4310    3.2558    1.8455 H   0  0  0  0  0  0  0  0  0  0  0  0
   -3.1580    3.6752    0.8163 H   0  0  0  0  0  0  0  0  0  0  0  0
   -4.1494   -1.1932    1.6761 H   0  0  0  0  0  0  0  0  0  0  0  0
   -1.9167   -2.3285    0.3483 H   0  0  0  0  0  0  0  0  0  0  0  0
    0.2290   -1.6723   -0.7207 H   0  0  0  0  0  0  0  0  0  0  0  0
    0.9146    0.6546   -0.7996 H   0  0  0  0  0  0  0  0  0  0  0  0
    0.6864    2.6698   -1.7826 H   0  0  0  0  0  0  0  0  0  0  0  0
    1.5415    4.9089   -1.8474 H   0  0  0  0  0  0  0  0  0  0  0  0
    0.6422    6.7366   -2.6574 H   0  0  0  0  0  0  0  0  0  0  0  0
    3.7093    8.9013   -2.5162 H   0  0  0  0  0  0  0  0  0  0  0  0
    3.6739    9.5257   -6.7470 H   0  0  0  0  0  0  0  0  0  0  0  0
    0.7598    6.9143   -4.9705 H   0  0  0  0  0  0  0  0  0  0  0  0
    0.5755    8.9440    0.8661 H   0  0  0  0  0  0  0  0  0  0  0  0
   -0.8272    8.0832    2.7018 H   0  0  0  0  0  0  0  0  0  0  0  0
   -1.3836    5.6914    2.8108 H   0  0  0  0  0  0  0  0  0  0  0  0
   -1.1449    3.4692    2.0130 H   0  0  0  0  0  0  0  0  0  0  0  0
  1  2  1  0  0  0  0
  1 32  1  0  0  0  0
  1 33  1  0  0  0  0
  2  3  2  0  0  0  0
  2 31  1  0  0  0  0
  3  4  1  0  0  0  0
  4  5  1  0  0  0  0
  4 34  1  0  0  0  0
  5  6  1  0  0  0  0
  5 31  2  0  0  0  0
  6  7  2  0  0  0  0
  6 35  1  0  0  0  0
  7  8  1  0  0  0  0
  7 36  1  0  0  0  0
  8  9  2  0  0  0  0
  8 37  1  0  0  0  0
  9 10  1  0  0  0  0
  9 31  1  0  0  0  0
 10 11  1  0  0  0  0
 10 30  2  0  0  0  0
 11 12  2  0  0  0  0
 11 38  1  0  0  0  0
 12 13  1  0  0  0  0
 12 39  1  0  0  0  0
 13 14  1  0  0  0  0
 13 29  2  0  0  0  0
 14 15  1  0  0  0  0
 14 26  2  0  0  0  0
 15 16  2  0  0  0  0
 15 17  1  0  0  0  0
 17 18  1  0  0  0  0
 17 40  1  0  0  0  0
 18 19  1  0  0  0  0
 18 25  2  0  0  0  0
 19 20  2  0  0  0  0
 19 41  1  0  0  0  0
 20 21  1  0  0  0  0
 20 22  1  0  0  0  0
 22 23  2  0  0  0  0
 22 42  1  0  0  0  0
 23 24  1  0  0  0  0
 23 25  1  0  0  0  0
 25 43  1  0  0  0  0
 26 27  1  0  0  0  0
 26 44  1  0  0  0  0
 27 28  2  0  0  0  0
 27 45  1  0  0  0  0
 28 29  1  0  0  0  0
 28 46  1  0  0  0  0
 29 30  1  0  0  0  0
 30 47  1  0  0  0  0
M  END
$$$$
