CHEMBL3660288
 OpenBabel04072215373D

 60 63  0  0  0  0  0  0  0  0999 V2000
    2.7907    0.7606   -2.4424 C   0  0  0  0  0  0  0  0  0  0  0  0
    1.3882    0.4981   -1.9731 C   0  0  0  0  0  0  0  0  0  0  0  0
    0.8681   -0.7974   -2.0413 C   0  0  0  0  0  0  0  0  0  0  0  0
   -0.4175   -1.0533   -1.5803 C   0  0  0  0  0  0  0  0  0  0  0  0
   -1.1964   -0.0190   -1.0678 C   0  0  0  0  0  0  0  0  0  0  0  0
   -2.3604   -0.3815   -0.5161 F   0  0  0  0  0  0  0  0  0  0  0  0
   -0.7332    1.3076   -1.0417 C   0  0  0  0  0  0  0  0  0  0  0  0
   -1.5007    2.4287   -0.6148 N   0  0  0  0  0  0  0  0  0  0  0  0
   -2.8776    2.4627   -0.5602 C   0  0  0  0  0  0  0  0  0  0  0  0
   -3.6216    1.5471   -0.9056 O   0  0  0  0  0  0  0  0  0  0  0  0
   -3.3865    3.6878   -0.1330 N   0  0  0  0  0  0  0  0  0  0  0  0
   -4.7896    3.8003    0.0575 C   0  0  0  0  0  0  0  0  0  0  0  0
   -5.4704    2.8690    0.8500 C   0  0  0  0  0  0  0  0  0  0  0  0
   -6.8623    2.8991    0.9456 C   0  0  0  0  0  0  0  0  0  0  0  0
   -7.5857    3.8988    0.2945 C   0  0  0  0  0  0  0  0  0  0  0  0
   -8.9598    4.0051    0.3291 O   0  0  0  0  0  0  0  0  0  0  0  0
   -9.6425    3.6165    1.4616 C   0  0  0  0  0  0  0  0  0  0  0  0
   -9.1725    3.7993    2.7569 C   0  0  0  0  0  0  0  0  0  0  0  0
   -9.9470    3.3312    3.8032 C   0  0  0  0  0  0  0  0  0  0  0  0
  -11.1564    2.7499    3.6456 N   0  0  0  0  0  0  0  0  0  0  0  0
  -11.6202    2.6378    2.3787 C   0  0  0  0  0  0  0  0  0  0  0  0
  -12.9443    2.0334    2.2688 C   0  0  0  0  0  0  0  0  0  0  0  0
  -13.7538    1.7881    1.1729 C   0  0  0  0  0  0  0  0  0  0  0  0
  -14.9700    1.1804    1.6125 C   0  0  0  0  0  0  0  0  0  0  0  0
  -16.1337    0.7513    0.8401 C   0  0  0  0  0  0  0  0  0  0  0  0
  -17.1372    0.2694    1.3610 O   0  0  0  0  0  0  0  0  0  0  0  0
  -16.0222    0.9396   -0.5206 N   0  0  0  0  0  0  0  0  0  0  0  0
  -17.0830    0.5717   -1.4426 C   0  0  0  0  0  0  0  0  0  0  0  0
  -18.0914    1.7028   -1.6299 C   0  0  0  0  0  0  0  0  0  0  0  0
  -17.4445    2.8478   -2.1865 O   0  0  0  0  0  0  0  0  0  0  0  0
  -14.8475    1.0660    2.9871 C   0  0  0  0  0  0  0  0  0  0  0  0
  -13.6363    1.5758    3.3681 N   0  0  0  0  0  0  0  0  0  0  0  0
  -10.9030    3.0602    1.2652 C   0  0  0  0  0  0  0  0  0  0  0  0
   -6.9086    4.8268   -0.5036 C   0  0  0  0  0  0  0  0  0  0  0  0
   -5.5102    4.7962   -0.6039 C   0  0  0  0  0  0  0  0  0  0  0  0
    0.5864    1.5453   -1.4720 C   0  0  0  0  0  0  0  0  0  0  0  0
    3.2743   -0.1623   -2.7831 H   0  0  0  0  0  0  0  0  0  0  0  0
    3.3945    1.1668   -1.6254 H   0  0  0  0  0  0  0  0  0  0  0  0
    2.7867    1.4625   -3.2815 H   0  0  0  0  0  0  0  0  0  0  0  0
    1.4619   -1.6194   -2.4340 H   0  0  0  0  0  0  0  0  0  0  0  0
   -0.8242   -2.0596   -1.5962 H   0  0  0  0  0  0  0  0  0  0  0  0
   -1.0180    3.3022   -0.4862 H   0  0  0  0  0  0  0  0  0  0  0  0
   -2.9340    4.4824   -0.5600 H   0  0  0  0  0  0  0  0  0  0  0  0
   -4.9235    2.0887    1.3751 H   0  0  0  0  0  0  0  0  0  0  0  0
   -7.3594    2.1239    1.5219 H   0  0  0  0  0  0  0  0  0  0  0  0
   -8.2188    4.2731    2.9583 H   0  0  0  0  0  0  0  0  0  0  0  0
   -9.5986    3.4105    4.8286 H   0  0  0  0  0  0  0  0  0  0  0  0
  -13.4891    2.0330    0.1535 H   0  0  0  0  0  0  0  0  0  0  0  0
  -15.1857    1.3461   -0.9060 H   0  0  0  0  0  0  0  0  0  0  0  0
  -17.5875   -0.3284   -1.0772 H   0  0  0  0  0  0  0  0  0  0  0  0
  -16.5934    0.3416   -2.3945 H   0  0  0  0  0  0  0  0  0  0  0  0
  -18.5578    1.9957   -0.6839 H   0  0  0  0  0  0  0  0  0  0  0  0
  -18.8780    1.3933   -2.3242 H   0  0  0  0  0  0  0  0  0  0  0  0
  -16.8482    3.1826   -1.4940 H   0  0  0  0  0  0  0  0  0  0  0  0
  -15.5322    0.6591    3.7218 H   0  0  0  0  0  0  0  0  0  0  0  0
  -13.2705    1.6220    4.3126 H   0  0  0  0  0  0  0  0  0  0  0  0
  -11.2997    2.9562    0.2633 H   0  0  0  0  0  0  0  0  0  0  0  0
   -7.4736    5.5617   -1.0718 H   0  0  0  0  0  0  0  0  0  0  0  0
   -5.0129    5.5036   -1.2602 H   0  0  0  0  0  0  0  0  0  0  0  0
    0.9972    2.5505   -1.4443 H   0  0  0  0  0  0  0  0  0  0  0  0
  1  2  1  0  0  0  0
  1 37  1  0  0  0  0
  1 38  1  0  0  0  0
  1 39  1  0  0  0  0
  2  3  1  0  0  0  0
  2 36  2  0  0  0  0
  3  4  2  0  0  0  0
  3 40  1  0  0  0  0
  4  5  1  0  0  0  0
  4 41  1  0  0  0  0
  5  6  1  0  0  0  0
  5  7  2  0  0  0  0
  7  8  1  0  0  0  0
  7 36  1  0  0  0  0
  8  9  1  0  0  0  0
  8 42  1  0  0  0  0
  9 10  2  0  0  0  0
  9 11  1  0  0  0  0
 11 12  1  0  0  0  0
 11 43  1  0  0  0  0
 12 13  1  0  0  0  0
 12 35  2  0  0  0  0
 13 14  2  0  0  0  0
 13 44  1  0  0  0  0
 14 15  1  0  0  0  0
 14 45  1  0  0  0  0
 15 16  1  0  0  0  0
 15 34  2  0  0  0  0
 16 17  1  0  0  0  0
 17 18  1  0  0  0  0
 17 33  2  0  0  0  0
 18 19  2  0  0  0  0
 18 46  1  0  0  0  0
 19 20  1  0  0  0  0
 19 47  1  0  0  0  0
 20 21  2  0  0  0  0
 21 22  1  0  0  0  0
 21 33  1  0  0  0  0
 22 23  2  0  0  0  0
 22 32  1  0  0  0  0
 23 24  1  0  0  0  0
 23 48  1  0  0  0  0
 24 25  1  0  0  0  0
 24 31  2  0  0  0  0
 25 26  2  0  0  0  0
 25 27  1  0  0  0  0
 27 28  1  0  0  0  0
 27 49  1  0  0  0  0
 28 29  1  0  0  0  0
 28 50  1  0  0  0  0
 28 51  1  0  0  0  0
 29 30  1  0  0  0  0
 29 52  1  0  0  0  0
 29 53  1  0  0  0  0
 30 54  1  0  0  0  0
 31 32  1  0  0  0  0
 31 55  1  0  0  0  0
 32 56  1  0  0  0  0
 33 57  1  0  0  0  0
 34 35  1  0  0  0  0
 34 58  1  0  0  0  0
 35 59  1  0  0  0  0
 36 60  1  0  0  0  0
M  END
$$$$
