CHEMBL178607
 OpenBabel04072215363D

 68 71  0  0  0  0  0  0  0  0999 V2000
    0.7506    2.1409   -5.4549 C   0  0  0  0  0  0  0  0  0  0  0  0
    1.3838    1.9138   -4.1122 C   0  0  0  0  0  0  0  0  0  0  0  0
    2.7505    2.1327   -3.9318 C   0  0  0  0  0  0  0  0  0  0  0  0
    3.3397    1.9474   -2.6759 C   0  0  0  0  0  0  0  0  0  0  0  0
    2.5833    1.5658   -1.5568 C   0  0  0  0  0  0  0  0  0  0  0  0
    3.1860    1.3715   -0.2912 N   0  0  0  0  0  0  0  0  0  0  0  0
    4.4648    0.8858   -0.0816 C   0  0  0  0  0  0  0  0  0  0  0  0
    4.9677    0.0970   -0.9946 N   0  0  0  0  0  0  0  0  0  0  0  0
    6.2072   -0.4480   -0.8501 C   0  0  0  0  0  0  0  0  0  0  0  0
    7.0040   -0.2750    0.1461 N   0  0  0  0  0  0  0  0  0  0  0  0
    6.5094    0.5300    1.1020 N   0  0  0  0  0  0  0  0  0  0  0  0
    7.1945    0.8498    2.2272 C   0  0  0  0  0  0  0  0  0  0  0  0
    6.4414    1.7066    2.9825 C   0  0  0  0  0  0  0  0  0  0  0  0
    6.8432    2.2249    4.1980 N   0  0  0  0  0  0  0  0  0  0  0  0
    7.8111    1.6724    5.0208 C   0  0  0  0  0  0  0  0  0  0  0  0
    8.5067    0.6891    4.8134 O   0  0  0  0  0  0  0  0  0  0  0  0
    7.7866    2.3280    6.2199 O   0  0  0  0  0  0  0  0  0  0  0  0
    7.7584    1.4482    7.3566 C   0  0  0  0  0  0  0  0  0  0  0  0
    9.0456    1.4551    8.1758 C   0  0  0  0  0  0  0  0  0  0  0  0
    8.9178    0.5733    9.4384 C   0  0  0  0  0  0  0  0  0  0  0  0
    8.5981   -0.8452    9.1808 N   0  0  0  0  0  0  0  0  0  0  0  0
    9.6655   -1.5193    8.4210 C   0  0  0  0  0  0  0  0  0  0  0  0
    9.3175   -2.9792    8.1238 C   0  0  0  0  0  0  0  0  0  0  0  0
    9.0175   -3.7486    9.4019 C   0  0  0  0  0  0  0  0  0  0  0  0
    7.9496   -3.0208   10.2079 C   0  0  0  0  0  0  0  0  0  0  0  0
    8.3316   -1.5562   10.4461 C   0  0  0  0  0  0  0  0  0  0  0  0
    5.2057    1.9436    2.2538 C   0  0  0  0  0  0  0  0  0  0  0  0
    4.0536    2.8296    2.7057 C   0  0  0  0  0  0  0  0  0  0  0  0
    3.4714    2.4072    4.0618 C   0  0  0  0  0  0  0  0  0  0  0  0
    4.4102    4.3181    2.7522 C   0  0  0  0  0  0  0  0  0  0  0  0
    5.2889    1.1564    1.0860 C   0  0  0  0  0  0  0  0  0  0  0  0
    1.2185    1.3098   -1.7491 C   0  0  0  0  0  0  0  0  0  0  0  0
    0.6349    1.4789   -3.0150 C   0  0  0  0  0  0  0  0  0  0  0  0
   -0.6939    1.2164   -3.2082 O   0  0  0  0  0  0  0  0  0  0  0  0
    1.4812    2.5046   -6.1866 H   0  0  0  0  0  0  0  0  0  0  0  0
   -0.0379    2.8970   -5.3782 H   0  0  0  0  0  0  0  0  0  0  0  0
    0.3253    1.2108   -5.8446 H   0  0  0  0  0  0  0  0  0  0  0  0
    3.3740    2.4504   -4.7644 H   0  0  0  0  0  0  0  0  0  0  0  0
    4.4077    2.1276   -2.5791 H   0  0  0  0  0  0  0  0  0  0  0  0
    2.5950    1.5369    0.5069 H   0  0  0  0  0  0  0  0  0  0  0  0
    6.5441   -1.1015   -1.6702 H   0  0  0  0  0  0  0  0  0  0  0  0
    8.1823    0.4336    2.3827 H   0  0  0  0  0  0  0  0  0  0  0  0
    6.2834    2.9298    4.6473 H   0  0  0  0  0  0  0  0  0  0  0  0
    7.4857    0.4319    7.0550 H   0  0  0  0  0  0  0  0  0  0  0  0
    6.9405    1.8232    7.9801 H   0  0  0  0  0  0  0  0  0  0  0  0
    9.2759    2.4830    8.4849 H   0  0  0  0  0  0  0  0  0  0  0  0
    9.8977    1.1464    7.5605 H   0  0  0  0  0  0  0  0  0  0  0  0
    8.1129    1.0038   10.0503 H   0  0  0  0  0  0  0  0  0  0  0  0
    9.8368    0.6577   10.0331 H   0  0  0  0  0  0  0  0  0  0  0  0
   10.6171   -1.4720    8.9664 H   0  0  0  0  0  0  0  0  0  0  0  0
    9.8154   -1.0268    7.4551 H   0  0  0  0  0  0  0  0  0  0  0  0
   10.1486   -3.4555    7.5918 H   0  0  0  0  0  0  0  0  0  0  0  0
    8.4461   -3.0208    7.4577 H   0  0  0  0  0  0  0  0  0  0  0  0
    9.9327   -3.8411    9.9994 H   0  0  0  0  0  0  0  0  0  0  0  0
    8.6853   -4.7646    9.1616 H   0  0  0  0  0  0  0  0  0  0  0  0
    7.8035   -3.5298   11.1677 H   0  0  0  0  0  0  0  0  0  0  0  0
    6.9927   -3.0689    9.6728 H   0  0  0  0  0  0  0  0  0  0  0  0
    9.2046   -1.5119   11.1109 H   0  0  0  0  0  0  0  0  0  0  0  0
    7.4981   -1.0758   10.9731 H   0  0  0  0  0  0  0  0  0  0  0  0
    3.2388    2.7381    1.9819 H   0  0  0  0  0  0  0  0  0  0  0  0
    4.1941    2.5213    4.8757 H   0  0  0  0  0  0  0  0  0  0  0  0
    3.1459    1.3626    4.0482 H   0  0  0  0  0  0  0  0  0  0  0  0
    2.6043    3.0273    4.3194 H   0  0  0  0  0  0  0  0  0  0  0  0
    5.1262    4.5446    3.5489 H   0  0  0  0  0  0  0  0  0  0  0  0
    3.5103    4.9157    2.9480 H   0  0  0  0  0  0  0  0  0  0  0  0
    4.8353    4.6597    1.8039 H   0  0  0  0  0  0  0  0  0  0  0  0
    0.6145    0.9579   -0.9196 H   0  0  0  0  0  0  0  0  0  0  0  0
   -1.0592    0.8174   -2.4026 H   0  0  0  0  0  0  0  0  0  0  0  0
  1  2  1  0  0  0  0
  1 35  1  0  0  0  0
  1 36  1  0  0  0  0
  1 37  1  0  0  0  0
  2  3  1  0  0  0  0
  2 33  2  0  0  0  0
  3  4  2  0  0  0  0
  3 38  1  0  0  0  0
  4  5  1  0  0  0  0
  4 39  1  0  0  0  0
  5  6  1  0  0  0  0
  5 32  2  0  0  0  0
  6  7  1  0  0  0  0
  6 40  1  0  0  0  0
  7  8  2  0  0  0  0
  7 31  1  0  0  0  0
  8  9  1  0  0  0  0
  9 10  2  0  0  0  0
  9 41  1  0  0  0  0
 10 11  1  0  0  0  0
 11 12  1  0  0  0  0
 11 31  1  0  0  0  0
 12 13  2  0  0  0  0
 12 42  1  0  0  0  0
 13 14  1  0  0  0  0
 13 27  1  0  0  0  0
 14 15  1  0  0  0  0
 14 43  1  0  0  0  0
 15 16  2  0  0  0  0
 15 17  1  0  0  0  0
 17 18  1  0  0  0  0
 18 19  1  0  0  0  0
 18 44  1  0  0  0  0
 18 45  1  0  0  0  0
 19 20  1  0  0  0  0
 19 46  1  0  0  0  0
 19 47  1  0  0  0  0
 20 21  1  0  0  0  0
 20 48  1  0  0  0  0
 20 49  1  0  0  0  0
 21 22  1  0  0  0  0
 21 26  1  0  0  0  0
 22 23  1  0  0  0  0
 22 50  1  0  0  0  0
 22 51  1  0  0  0  0
 23 24  1  0  0  0  0
 23 52  1  0  0  0  0
 23 53  1  0  0  0  0
 24 25  1  0  0  0  0
 24 54  1  0  0  0  0
 24 55  1  0  0  0  0
 25 26  1  0  0  0  0
 25 56  1  0  0  0  0
 25 57  1  0  0  0  0
 26 58  1  0  0  0  0
 26 59  1  0  0  0  0
 27 28  1  0  0  0  0
 27 31  2  0  0  0  0
 28 29  1  0  0  0  0
 28 30  1  0  0  0  0
 28 60  1  0  0  0  0
 29 61  1  0  0  0  0
 29 62  1  0  0  0  0
 29 63  1  0  0  0  0
 30 64  1  0  0  0  0
 30 65  1  0  0  0  0
 30 66  1  0  0  0  0
 32 33  1  0  0  0  0
 32 67  1  0  0  0  0
 33 34  1  0  0  0  0
 34 68  1  0  0  0  0
M  END
$$$$
