CHEMBL3656028
 OpenBabel04072215373D

 57 60  0  0  0  0  0  0  0  0999 V2000
    1.3851    2.0099    1.0699 C   0  0  0  0  0  0  0  0  0  0  0  0
    2.0880    1.3649    0.0070 O   0  0  0  0  0  0  0  0  0  0  0  0
    3.0844    2.1139   -0.5402 C   0  0  0  0  0  0  0  0  0  0  0  0
    3.3994    3.2444   -0.1886 O   0  0  0  0  0  0  0  0  0  0  0  0
    3.7532    1.3444   -1.6604 C   0  0  0  0  0  0  0  0  0  0  0  0
    4.8150    2.1144   -2.2838 N   0  0  0  0  0  0  0  0  0  0  0  0
    5.5590    1.5543   -3.2928 C   0  0  0  0  0  0  0  0  0  0  0  0
    5.3356    0.4211   -3.7045 O   0  0  0  0  0  0  0  0  0  0  0  0
    6.6314    2.3751   -3.8430 C   0  0  0  0  0  0  0  0  0  0  0  0
    7.0564    3.6479   -3.5102 C   0  0  0  0  0  0  0  0  0  0  0  0
    8.1387    3.9696   -4.3006 N   0  0  0  0  0  0  0  0  0  0  0  0
    8.4260    2.9318   -5.1587 C   0  0  0  0  0  0  0  0  0  0  0  0
    9.5161    2.9507   -6.1268 C   0  0  0  0  0  0  0  0  0  0  0  0
    9.7322    1.8694   -6.9729 C   0  0  0  0  0  0  0  0  0  0  0  0
   10.7151    1.9510   -7.9512 C   0  0  0  0  0  0  0  0  0  0  0  0
   10.9604    0.9531   -8.8782 O   0  0  0  0  0  0  0  0  0  0  0  0
    9.9135    0.1618   -9.3258 C   0  0  0  0  0  0  0  0  0  0  0  0
    8.6033    0.6326   -9.4609 C   0  0  0  0  0  0  0  0  0  0  0  0
    7.5828   -0.2392   -9.8191 C   0  0  0  0  0  0  0  0  0  0  0  0
    7.8824   -1.5526  -10.1693 C   0  0  0  0  0  0  0  0  0  0  0  0
    9.2040   -2.0062  -10.1923 C   0  0  0  0  0  0  0  0  0  0  0  0
    9.5531   -3.2812  -10.6995 N   0  0  0  0  0  0  0  0  0  0  0  0
    8.7568   -4.0867  -11.5132 C   0  0  0  0  0  0  0  0  0  0  0  0
    7.6198   -3.8076  -11.8812 O   0  0  0  0  0  0  0  0  0  0  0  0
    9.4118   -5.3087  -11.9568 C   0  0  0  0  0  0  0  0  0  0  0  0
   10.6652   -5.6060  -11.4834 O   0  0  0  0  0  0  0  0  0  0  0  0
   11.0408   -6.7791  -12.0507 C   0  0  0  0  0  0  0  0  0  0  0  0
   10.0613   -7.2486  -12.8870 C   0  0  0  0  0  0  0  0  0  0  0  0
    8.9980   -6.3021  -12.8399 C   0  0  0  0  0  0  0  0  0  0  0  0
    7.7207   -6.3672  -13.5976 C   0  0  0  0  0  0  0  0  0  0  0  0
   10.2164   -1.1532   -9.7184 C   0  0  0  0  0  0  0  0  0  0  0  0
   11.5327    3.0733   -7.9778 C   0  0  0  0  0  0  0  0  0  0  0  0
   11.2749    4.0944   -7.0707 C   0  0  0  0  0  0  0  0  0  0  0  0
   10.2716    4.0731   -6.1587 N   0  0  0  0  0  0  0  0  0  0  0  0
    7.4950    1.9465   -4.8934 C   0  0  0  0  0  0  0  0  0  0  0  0
    0.6096    1.3267    1.4268 H   0  0  0  0  0  0  0  0  0  0  0  0
    0.9028    2.9236    0.7090 H   0  0  0  0  0  0  0  0  0  0  0  0
    2.0635    2.2293    1.9001 H   0  0  0  0  0  0  0  0  0  0  0  0
    3.0123    1.1011   -2.4305 H   0  0  0  0  0  0  0  0  0  0  0  0
    4.1880    0.4226   -1.2578 H   0  0  0  0  0  0  0  0  0  0  0  0
    4.9930    3.0561   -1.9634 H   0  0  0  0  0  0  0  0  0  0  0  0
    6.7006    4.3595   -2.7751 H   0  0  0  0  0  0  0  0  0  0  0  0
    8.6681    4.8305   -4.2751 H   0  0  0  0  0  0  0  0  0  0  0  0
    9.1146    0.9832   -6.8842 H   0  0  0  0  0  0  0  0  0  0  0  0
    8.3484    1.6677   -9.2529 H   0  0  0  0  0  0  0  0  0  0  0  0
    6.5515    0.1023   -9.8380 H   0  0  0  0  0  0  0  0  0  0  0  0
    7.0517   -2.2032  -10.4283 H   0  0  0  0  0  0  0  0  0  0  0  0
   10.5121   -3.5896  -10.5942 H   0  0  0  0  0  0  0  0  0  0  0  0
   12.0184   -7.1455  -11.7694 H   0  0  0  0  0  0  0  0  0  0  0  0
   10.0990   -8.1596  -13.4699 H   0  0  0  0  0  0  0  0  0  0  0  0
    7.6891   -7.2543  -14.2380 H   0  0  0  0  0  0  0  0  0  0  0  0
    7.6099   -5.4879  -14.2435 H   0  0  0  0  0  0  0  0  0  0  0  0
    6.8646   -6.4128  -12.9181 H   0  0  0  0  0  0  0  0  0  0  0  0
   11.2493   -1.4889   -9.6769 H   0  0  0  0  0  0  0  0  0  0  0  0
   12.3482    3.1576   -8.6890 H   0  0  0  0  0  0  0  0  0  0  0  0
   11.8895    4.9909   -7.0570 H   0  0  0  0  0  0  0  0  0  0  0  0
    7.4212    0.9855   -5.3876 H   0  0  0  0  0  0  0  0  0  0  0  0
  1  2  1  0  0  0  0
  1 36  1  0  0  0  0
  1 37  1  0  0  0  0
  1 38  1  0  0  0  0
  2  3  1  0  0  0  0
  3  4  2  0  0  0  0
  3  5  1  0  0  0  0
  5  6  1  0  0  0  0
  5 39  1  0  0  0  0
  5 40  1  0  0  0  0
  6  7  1  0  0  0  0
  6 41  1  0  0  0  0
  7  8  2  0  0  0  0
  7  9  1  0  0  0  0
  9 10  2  0  0  0  0
  9 35  1  0  0  0  0
 10 11  1  0  0  0  0
 10 42  1  0  0  0  0
 11 12  1  0  0  0  0
 11 43  1  0  0  0  0
 12 13  1  0  0  0  0
 12 35  2  0  0  0  0
 13 14  1  0  0  0  0
 13 34  2  0  0  0  0
 14 15  2  0  0  0  0
 14 44  1  0  0  0  0
 15 16  1  0  0  0  0
 15 32  1  0  0  0  0
 16 17  1  0  0  0  0
 17 18  1  0  0  0  0
 17 31  2  0  0  0  0
 18 19  2  0  0  0  0
 18 45  1  0  0  0  0
 19 20  1  0  0  0  0
 19 46  1  0  0  0  0
 20 21  2  0  0  0  0
 20 47  1  0  0  0  0
 21 22  1  0  0  0  0
 21 31  1  0  0  0  0
 22 23  1  0  0  0  0
 22 48  1  0  0  0  0
 23 24  2  0  0  0  0
 23 25  1  0  0  0  0
 25 26  1  0  0  0  0
 25 29  2  0  0  0  0
 26 27  1  0  0  0  0
 27 28  2  0  0  0  0
 27 49  1  0  0  0  0
 28 29  1  0  0  0  0
 28 50  1  0  0  0  0
 29 30  1  0  0  0  0
 30 51  1  0  0  0  0
 30 52  1  0  0  0  0
 30 53  1  0  0  0  0
 31 54  1  0  0  0  0
 32 33  2  0  0  0  0
 32 55  1  0  0  0  0
 33 34  1  0  0  0  0
 33 56  1  0  0  0  0
 35 57  1  0  0  0  0
M  END
$$$$
