CHEMBL1082755
 OpenBabel04072215363D

 62 68  0  0  1  0  0  0  0  0999 V2000
    3.8327   -2.4790   -1.6050 C   0  0  0  0  0  0  0  0  0  0  0  0
    3.2188   -2.3079   -0.4292 C   0  0  0  0  0  0  0  0  0  0  0  0
    3.8115   -1.8799    0.8893 C   0  0  0  0  0  0  0  0  0  0  0  0
    5.2351   -1.5205    0.8867 N   0  0  0  0  0  0  0  0  0  0  0  0
    5.7171   -0.2153    0.6626 C   0  0  0  0  0  0  0  0  0  0  0  0
    5.0812    0.9946    0.3246 C   0  0  0  0  0  0  0  0  0  0  0  0
    5.8819    2.1482    0.1411 C   0  0  0  0  0  0  0  0  0  0  0  0
    7.2755    2.1403    0.3254 C   0  0  0  0  0  0  0  0  0  0  0  0
    8.1079    3.4219    0.3130 C   0  0  3  0  0  0  0  0  0  0  0  0
    7.9855    4.3182   -0.9220 C   0  0  0  0  0  0  0  0  0  0  0  0
    8.8107    3.8003   -2.0909 C   0  0  0  0  0  0  0  0  0  0  0  0
   10.2575    3.5927   -1.6744 C   0  0  0  0  0  0  0  0  0  0  0  0
   10.3715    2.8067   -0.3809 C   0  0  0  0  0  0  0  0  0  0  0  0
    9.4968    3.2467    0.6559 O   0  0  0  0  0  0  0  0  0  0  0  0
    7.8684    0.9183    0.6400 C   0  0  0  0  0  0  0  0  0  0  0  0
    7.1113   -0.2579    0.7532 C   0  0  0  0  0  0  0  0  0  0  0  0
    7.3730   -1.6082    0.8307 C   0  0  0  0  0  0  0  0  0  0  0  0
    8.5177   -2.1300    0.2129 C   0  0  0  0  0  0  0  0  0  0  0  0
    8.3650   -3.4323   -0.3294 C   0  0  0  0  0  0  0  0  0  0  0  0
    7.2334   -4.2403   -0.1034 C   0  0  0  0  0  0  0  0  0  0  0  0
    6.4636   -3.8201    1.0291 C   0  0  0  0  0  0  0  0  0  0  0  0
    6.2968   -2.4202    1.0597 C   0  0  0  0  0  0  0  0  0  0  0  0
    6.8668   -4.6504    2.3362 C   0  0  0  0  0  0  0  0  0  0  0  0
    8.0998   -5.6288    2.1590 C   0  0  0  0  0  0  0  0  0  0  0  0
    7.8589   -6.3896    0.9032 C   0  0  0  0  0  0  0  0  0  0  0  0
    7.7141   -7.7057    0.7570 N   0  0  0  0  0  0  0  0  0  0  0  0
    7.0984   -7.7986   -0.4502 N   0  0  0  0  0  0  0  0  0  0  0  0
    6.6459   -9.0806   -0.9300 C   0  0  0  0  0  0  0  0  0  0  0  0
    6.7818   -6.5841   -1.0058 C   0  0  0  0  0  0  0  0  0  0  0  0
    7.4229   -5.6666   -0.2208 C   0  0  0  0  0  0  0  0  0  0  0  0
    9.6044   -3.7685   -0.9842 C   0  0  0  0  0  0  0  0  0  0  0  0
    9.9973   -4.7470   -1.6006 O   0  0  0  0  0  0  0  0  0  0  0  0
   10.4269   -2.6697   -0.7506 N   0  0  0  0  0  0  0  0  0  0  0  0
    9.8241   -1.5504   -0.0871 C   0  0  0  0  0  0  0  0  0  0  0  0
    3.2737   -2.7966   -2.4841 H   0  0  0  0  0  0  0  0  0  0  0  0
    4.8997   -2.3193   -1.7372 H   0  0  0  0  0  0  0  0  0  0  0  0
    2.1453   -2.4944   -0.3969 H   0  0  0  0  0  0  0  0  0  0  0  0
    3.6691   -2.6672    1.6364 H   0  0  0  0  0  0  0  0  0  0  0  0
    3.2623   -1.0006    1.2473 H   0  0  0  0  0  0  0  0  0  0  0  0
    4.0057    1.0516    0.1821 H   0  0  0  0  0  0  0  0  0  0  0  0
    5.3772    3.0777   -0.1195 H   0  0  0  0  0  0  0  0  0  0  0  0
    7.7031    3.9944    1.1579 H   0  0  0  0  0  0  0  0  0  0  0  0
    8.3798    5.3092   -0.6561 H   0  0  0  0  0  0  0  0  0  0  0  0
    6.9447    4.4629   -1.2259 H   0  0  0  0  0  0  0  0  0  0  0  0
    8.7724    4.5189   -2.9176 H   0  0  0  0  0  0  0  0  0  0  0  0
    8.3869    2.8598   -2.4602 H   0  0  0  0  0  0  0  0  0  0  0  0
   10.7337    4.5709   -1.5396 H   0  0  0  0  0  0  0  0  0  0  0  0
   10.8095    3.0770   -2.4692 H   0  0  0  0  0  0  0  0  0  0  0  0
   11.3928    2.9037    0.0064 H   0  0  0  0  0  0  0  0  0  0  0  0
   10.2254    1.7417   -0.5773 H   0  0  0  0  0  0  0  0  0  0  0  0
    8.9301    0.8590    0.8381 H   0  0  0  0  0  0  0  0  0  0  0  0
    5.9940   -5.2503    2.6193 H   0  0  0  0  0  0  0  0  0  0  0  0
    7.0919   -3.9577    3.1572 H   0  0  0  0  0  0  0  0  0  0  0  0
    8.2396   -6.2835    3.0232 H   0  0  0  0  0  0  0  0  0  0  0  0
    9.0247   -5.0415    2.0463 H   0  0  0  0  0  0  0  0  0  0  0  0
    7.0570   -9.8716   -0.2991 H   0  0  0  0  0  0  0  0  0  0  0  0
    6.9890   -9.2034   -1.9597 H   0  0  0  0  0  0  0  0  0  0  0  0
    5.5537   -9.0928   -0.8851 H   0  0  0  0  0  0  0  0  0  0  0  0
    6.1119   -6.4891   -1.8479 H   0  0  0  0  0  0  0  0  0  0  0  0
   11.3819   -2.6899   -1.0718 H   0  0  0  0  0  0  0  0  0  0  0  0
    9.7596   -0.7115   -0.7781 H   0  0  0  0  0  0  0  0  0  0  0  0
   10.3811   -1.2974    0.8251 H   0  0  0  0  0  0  0  0  0  0  0  0
  1  2  2  0  0  0  0
  1 35  1  0  0  0  0
  1 36  1  0  0  0  0
  2  3  1  0  0  0  0
  2 37  1  0  0  0  0
  3  4  1  0  0  0  0
  3 38  1  0  0  0  0
  3 39  1  0  0  0  0
  4  5  1  0  0  0  0
  4 22  1  0  0  0  0
  5  6  1  0  0  0  0
  5 16  2  0  0  0  0
  6  7  2  0  0  0  0
  6 40  1  0  0  0  0
  7  8  1  0  0  0  0
  7 41  1  0  0  0  0
  8  9  1  0  0  0  0
  8 15  2  0  0  0  0
  9 10  1  0  0  0  0
  9 14  1  0  0  0  0
  9 42  1  0  0  0  0
 10 11  1  0  0  0  0
 10 43  1  0  0  0  0
 10 44  1  0  0  0  0
 11 12  1  0  0  0  0
 11 45  1  0  0  0  0
 11 46  1  0  0  0  0
 12 13  1  0  0  0  0
 12 47  1  0  0  0  0
 12 48  1  0  0  0  0
 13 14  1  0  0  0  0
 13 49  1  0  0  0  0
 13 50  1  0  0  0  0
 15 16  1  0  0  0  0
 15 51  1  0  0  0  0
 16 17  1  0  0  0  0
 17 18  1  0  0  0  0
 17 22  2  0  0  0  0
 18 19  2  0  0  0  0
 18 34  1  0  0  0  0
 19 20  1  0  0  0  0
 19 31  1  0  0  0  0
 20 21  2  0  0  0  0
 20 30  1  0  0  0  0
 21 22  1  0  0  0  0
 21 23  1  0  0  0  0
 23 24  1  0  0  0  0
 23 52  1  0  0  0  0
 23 53  1  0  0  0  0
 24 25  1  0  0  0  0
 24 54  1  0  0  0  0
 24 55  1  0  0  0  0
 25 26  2  0  0  0  0
 25 30  1  0  0  0  0
 26 27  1  0  0  0  0
 27 28  1  0  0  0  0
 27 29  1  0  0  0  0
 28 56  1  0  0  0  0
 28 57  1  0  0  0  0
 28 58  1  0  0  0  0
 29 30  2  0  0  0  0
 29 59  1  0  0  0  0
 31 32  2  0  0  0  0
 31 33  1  0  0  0  0
 33 34  1  0  0  0  0
 33 60  1  0  0  0  0
 34 61  1  0  0  0  0
 34 62  1  0  0  0  0
M  END
$$$$
