CHEMBL3905633
 OpenBabel04072215373D

 61 66  0  0  0  0  0  0  0  0999 V2000
    1.2155   -2.9349   -3.7784 C   0  0  0  0  0  0  0  0  0  0  0  0
    2.1338   -3.5032   -2.8437 O   0  0  0  0  0  0  0  0  0  0  0  0
    3.0456   -2.6399   -2.2877 C   0  0  0  0  0  0  0  0  0  0  0  0
    2.8468   -1.2628   -2.1768 C   0  0  0  0  0  0  0  0  0  0  0  0
    3.8003   -0.4737   -1.5392 C   0  0  0  0  0  0  0  0  0  0  0  0
    3.7142    0.8773   -1.3328 O   0  0  0  0  0  0  0  0  0  0  0  0
    2.5731    1.5411   -1.8605 C   0  0  0  0  0  0  0  0  0  0  0  0
    4.9581   -1.0672   -1.0194 C   0  0  0  0  0  0  0  0  0  0  0  0
    5.1955   -2.4470   -1.1076 C   0  0  0  0  0  0  0  0  0  0  0  0
    6.2790   -3.0786   -0.4521 N   0  0  0  0  0  0  0  0  0  0  0  0
    6.7191   -2.4731    0.8631 C   0  0  0  0  0  0  0  0  0  0  0  0
    5.7460   -2.0871    1.9475 C   0  0  0  0  0  0  0  0  0  0  0  0
    4.4481   -2.4148    2.3038 C   0  0  0  0  0  0  0  0  0  0  0  0
    4.0982   -1.5612    3.3904 C   0  0  0  0  0  0  0  0  0  0  0  0
    2.9289   -1.3813    4.0554 N   0  0  0  0  0  0  0  0  0  0  0  0
    2.9724   -0.4307    5.0055 C   0  0  0  0  0  0  0  0  0  0  0  0
    4.0830    0.3172    5.3750 C   0  0  0  0  0  0  0  0  0  0  0  0
    5.2940    0.0970    4.7198 C   0  0  0  0  0  0  0  0  0  0  0  0
    5.2458   -0.8479    3.6999 C   0  0  0  0  0  0  0  0  0  0  0  0
    6.2527   -1.1826    2.8531 O   0  0  0  0  0  0  0  0  0  0  0  0
    7.4309   -3.7241   -1.0447 C   0  0  0  0  0  0  0  0  0  0  0  0
    7.8944   -4.8353   -0.3412 C   0  0  0  0  0  0  0  0  0  0  0  0
    9.2186   -5.2147   -0.4373 C   0  0  0  0  0  0  0  0  0  0  0  0
   10.0776   -4.6212   -1.3271 C   0  0  0  0  0  0  0  0  0  0  0  0
   11.3580   -4.9741   -1.1758 N   0  0  0  0  0  0  0  0  0  0  0  0
   12.1957   -4.6046   -2.1504 C   0  0  0  0  0  0  0  0  0  0  0  0
   11.7541   -3.9921   -3.3075 C   0  0  0  0  0  0  0  0  0  0  0  0
   12.5776   -4.2544   -4.4879 C   0  0  0  0  0  0  0  0  0  0  0  0
   13.4086   -3.4653   -5.3137 C   0  0  0  0  0  0  0  0  0  0  0  0
   14.1017   -4.1914   -6.2068 N   0  0  0  0  0  0  0  0  0  0  0  0
   13.7078   -5.4538   -5.9636 N   0  0  0  0  0  0  0  0  0  0  0  0
   14.0493   -6.5310   -6.8649 C   0  0  0  0  0  0  0  0  0  0  0  0
   12.9090   -5.5511   -4.8636 C   0  0  0  0  0  0  0  0  0  0  0  0
   10.4740   -3.4855   -3.3929 N   0  0  0  0  0  0  0  0  0  0  0  0
    9.5975   -3.7544   -2.3378 C   0  0  0  0  0  0  0  0  0  0  0  0
    8.2512   -3.2558   -2.1143 C   0  0  0  0  0  0  0  0  0  0  0  0
    4.2093   -3.2220   -1.7497 C   0  0  0  0  0  0  0  0  0  0  0  0
    0.6141   -3.7468   -4.1986 H   0  0  0  0  0  0  0  0  0  0  0  0
    1.7494   -2.4494   -4.6028 H   0  0  0  0  0  0  0  0  0  0  0  0
    0.5181   -2.2380   -3.3003 H   0  0  0  0  0  0  0  0  0  0  0  0
    1.9326   -0.8163   -2.5434 H   0  0  0  0  0  0  0  0  0  0  0  0
    2.6667    2.6069   -1.6256 H   0  0  0  0  0  0  0  0  0  0  0  0
    1.6514    1.1787   -1.3945 H   0  0  0  0  0  0  0  0  0  0  0  0
    2.5318    1.4427   -2.9503 H   0  0  0  0  0  0  0  0  0  0  0  0
    5.6644   -0.4198   -0.5068 H   0  0  0  0  0  0  0  0  0  0  0  0
    7.3290   -1.5879    0.6338 H   0  0  0  0  0  0  0  0  0  0  0  0
    7.4003   -3.1627    1.3819 H   0  0  0  0  0  0  0  0  0  0  0  0
    3.7991   -3.1217    1.8114 H   0  0  0  0  0  0  0  0  0  0  0  0
    2.0094   -0.2413    5.4978 H   0  0  0  0  0  0  0  0  0  0  0  0
    4.0071    1.0761    6.1487 H   0  0  0  0  0  0  0  0  0  0  0  0
    6.1980    0.6432    4.9555 H   0  0  0  0  0  0  0  0  0  0  0  0
    7.2584   -5.3190    0.3971 H   0  0  0  0  0  0  0  0  0  0  0  0
    9.6006   -5.9855    0.2231 H   0  0  0  0  0  0  0  0  0  0  0  0
   13.2228   -4.9268   -2.0227 H   0  0  0  0  0  0  0  0  0  0  0  0
   13.5729   -2.3968   -5.2969 H   0  0  0  0  0  0  0  0  0  0  0  0
   14.2819   -6.1192   -7.8503 H   0  0  0  0  0  0  0  0  0  0  0  0
   13.1804   -7.1915   -6.9479 H   0  0  0  0  0  0  0  0  0  0  0  0
   14.9036   -7.0838   -6.4665 H   0  0  0  0  0  0  0  0  0  0  0  0
   12.6225   -6.5143   -4.4627 H   0  0  0  0  0  0  0  0  0  0  0  0
    7.8827   -2.4568   -2.7574 H   0  0  0  0  0  0  0  0  0  0  0  0
    4.3097   -4.3049   -1.7815 H   0  0  0  0  0  0  0  0  0  0  0  0
  1  2  1  0  0  0  0
  1 38  1  0  0  0  0
  1 39  1  0  0  0  0
  1 40  1  0  0  0  0
  2  3  1  0  0  0  0
  3  4  1  0  0  0  0
  3 37  2  0  0  0  0
  4  5  2  0  0  0  0
  4 41  1  0  0  0  0
  5  6  1  0  0  0  0
  5  8  1  0  0  0  0
  6  7  1  0  0  0  0
  7 42  1  0  0  0  0
  7 43  1  0  0  0  0
  7 44  1  0  0  0  0
  8  9  2  0  0  0  0
  8 45  1  0  0  0  0
  9 10  1  0  0  0  0
  9 37  1  0  0  0  0
 10 11  1  0  0  0  0
 10 21  1  0  0  0  0
 11 12  1  0  0  0  0
 11 46  1  0  0  0  0
 11 47  1  0  0  0  0
 12 13  2  0  0  0  0
 12 20  1  0  0  0  0
 13 14  1  0  0  0  0
 13 48  1  0  0  0  0
 14 15  1  0  0  0  0
 14 19  2  0  0  0  0
 15 16  2  0  0  0  0
 16 17  1  0  0  0  0
 16 49  1  0  0  0  0
 17 18  2  0  0  0  0
 17 50  1  0  0  0  0
 18 19  1  0  0  0  0
 18 51  1  0  0  0  0
 19 20  1  0  0  0  0
 21 22  1  0  0  0  0
 21 36  2  0  0  0  0
 22 23  2  0  0  0  0
 22 52  1  0  0  0  0
 23 24  1  0  0  0  0
 23 53  1  0  0  0  0
 24 25  1  0  0  0  0
 24 35  2  0  0  0  0
 25 26  2  0  0  0  0
 26 27  1  0  0  0  0
 26 54  1  0  0  0  0
 27 28  1  0  0  0  0
 27 34  2  0  0  0  0
 28 29  1  0  0  0  0
 28 33  2  0  0  0  0
 29 30  2  0  0  0  0
 29 55  1  0  0  0  0
 30 31  1  0  0  0  0
 31 32  1  0  0  0  0
 31 33  1  0  0  0  0
 32 56  1  0  0  0  0
 32 57  1  0  0  0  0
 32 58  1  0  0  0  0
 33 59  1  0  0  0  0
 34 35  1  0  0  0  0
 35 36  1  0  0  0  0
 36 60  1  0  0  0  0
 37 61  1  0  0  0  0
M  END
$$$$
