CHEMBL3985123
 OpenBabel04072215373D

 56 59  0  0  0  0  0  0  0  0999 V2000
    2.6220    0.2050    0.1323 C   0  0  0  0  0  0  0  0  0  0  0  0
    1.1230    0.0728    0.1413 C   0  0  0  0  0  0  0  0  0  0  0  0
    0.3823    1.2757    0.1651 C   0  0  0  0  0  0  0  0  0  0  0  0
   -1.0056    1.2875    0.0077 C   0  0  0  0  0  0  0  0  0  0  0  0
   -1.7659    2.4368   -0.0735 O   0  0  0  0  0  0  0  0  0  0  0  0
   -1.2373    3.5383   -0.7150 C   0  0  0  0  0  0  0  0  0  0  0  0
   -0.3606    3.4456   -1.7931 C   0  0  0  0  0  0  0  0  0  0  0  0
    0.1926    4.6103   -2.2713 C   0  0  0  0  0  0  0  0  0  0  0  0
   -0.1311    5.8263   -1.8011 N   0  0  0  0  0  0  0  0  0  0  0  0
   -1.0511    5.9259   -0.8257 C   0  0  0  0  0  0  0  0  0  0  0  0
   -1.4249    7.1972   -0.3566 N   0  0  0  0  0  0  0  0  0  0  0  0
   -0.8685    8.3795   -0.8061 C   0  0  0  0  0  0  0  0  0  0  0  0
    0.0224    8.5022   -1.6339 O   0  0  0  0  0  0  0  0  0  0  0  0
   -1.3882    9.6398   -0.2115 C   0  0  0  0  0  0  0  0  0  0  0  0
   -1.1831    9.8939    1.2650 C   0  0  0  0  0  0  0  0  0  0  0  0
   -2.5726    9.7995    0.7021 C   0  0  0  0  0  0  0  0  0  0  0  0
   -1.6271    4.7982   -0.2502 C   0  0  0  0  0  0  0  0  0  0  0  0
   -1.6809    0.0808   -0.0547 C   0  0  0  0  0  0  0  0  0  0  0  0
   -0.9665   -1.1212   -0.0157 C   0  0  0  0  0  0  0  0  0  0  0  0
    0.4357   -1.1577    0.0769 C   0  0  0  0  0  0  0  0  0  0  0  0
    1.1499   -2.3924    0.1238 N   0  0  0  0  0  0  0  0  0  0  0  0
    0.5793   -3.6475    0.3094 C   0  0  0  0  0  0  0  0  0  0  0  0
   -0.6235   -3.8693    0.3909 O   0  0  0  0  0  0  0  0  0  0  0  0
    1.5291   -4.6494    0.4823 N   0  0  0  0  0  0  0  0  0  0  0  0
    1.1326   -5.9807    0.7919 C   0  0  0  0  0  0  0  0  0  0  0  0
    1.8225   -6.6667    1.7906 C   0  0  0  0  0  0  0  0  0  0  0  0
    1.4043   -7.9428    2.1790 C   0  0  0  0  0  0  0  0  0  0  0  0
    0.3147   -8.5577    1.5535 C   0  0  0  0  0  0  0  0  0  0  0  0
   -0.3889   -7.8816    0.5607 C   0  0  0  0  0  0  0  0  0  0  0  0
   -1.4797   -8.3465   -0.1111 O   0  0  0  0  0  0  0  0  0  0  0  0
   -2.3376   -9.3004    0.4999 C   0  0  0  0  0  0  0  0  0  0  0  0
   -2.1739   -9.4194    1.8345 F   0  0  0  0  0  0  0  0  0  0  0  0
   -3.6202   -8.9315    0.2772 F   0  0  0  0  0  0  0  0  0  0  0  0
   -2.1476  -10.5103   -0.0712 F   0  0  0  0  0  0  0  0  0  0  0  0
    0.0460   -6.6081    0.1649 C   0  0  0  0  0  0  0  0  0  0  0  0
    2.9291    1.2363    0.3492 H   0  0  0  0  0  0  0  0  0  0  0  0
    3.0110   -0.0427   -0.8609 H   0  0  0  0  0  0  0  0  0  0  0  0
    3.0870   -0.4310    0.8886 H   0  0  0  0  0  0  0  0  0  0  0  0
    0.9111    2.2207    0.2729 H   0  0  0  0  0  0  0  0  0  0  0  0
   -0.0719    2.4968   -2.2289 H   0  0  0  0  0  0  0  0  0  0  0  0
    0.9415    4.6033   -3.0571 H   0  0  0  0  0  0  0  0  0  0  0  0
   -2.1195    7.2393    0.3678 H   0  0  0  0  0  0  0  0  0  0  0  0
   -1.2021   10.4907   -0.8685 H   0  0  0  0  0  0  0  0  0  0  0  0
   -0.7953   10.8672    1.5456 H   0  0  0  0  0  0  0  0  0  0  0  0
   -0.8227    9.0818    1.8857 H   0  0  0  0  0  0  0  0  0  0  0  0
   -3.1387   10.7224    0.6136 H   0  0  0  0  0  0  0  0  0  0  0  0
   -3.1840    8.9496    0.9663 H   0  0  0  0  0  0  0  0  0  0  0  0
   -2.3558    4.8739    0.5484 H   0  0  0  0  0  0  0  0  0  0  0  0
   -2.7628    0.0525   -0.1478 H   0  0  0  0  0  0  0  0  0  0  0  0
   -1.5612   -2.0253   -0.0942 H   0  0  0  0  0  0  0  0  0  0  0  0
    2.1548   -2.3466    0.0606 H   0  0  0  0  0  0  0  0  0  0  0  0
    2.4055   -4.3475    0.8798 H   0  0  0  0  0  0  0  0  0  0  0  0
    2.6474   -6.2004    2.3207 H   0  0  0  0  0  0  0  0  0  0  0  0
    1.9165   -8.4553    2.9901 H   0  0  0  0  0  0  0  0  0  0  0  0
    0.0429   -9.5600    1.8719 H   0  0  0  0  0  0  0  0  0  0  0  0
   -0.4922   -6.0991   -0.6329 H   0  0  0  0  0  0  0  0  0  0  0  0
  1  2  1  0  0  0  0
  1 36  1  0  0  0  0
  1 37  1  0  0  0  0
  1 38  1  0  0  0  0
  2  3  1  0  0  0  0
  2 20  2  0  0  0  0
  3  4  2  0  0  0  0
  3 39  1  0  0  0  0
  4  5  1  0  0  0  0
  4 18  1  0  0  0  0
  5  6  1  0  0  0  0
  6  7  1  0  0  0  0
  6 17  2  0  0  0  0
  7  8  2  0  0  0  0
  7 40  1  0  0  0  0
  8  9  1  0  0  0  0
  8 41  1  0  0  0  0
  9 10  2  0  0  0  0
 10 11  1  0  0  0  0
 10 17  1  0  0  0  0
 11 12  1  0  0  0  0
 11 42  1  0  0  0  0
 12 13  2  0  0  0  0
 12 14  1  0  0  0  0
 14 15  1  0  0  0  0
 14 16  1  0  0  0  0
 14 43  1  0  0  0  0
 15 16  1  0  0  0  0
 15 44  1  0  0  0  0
 15 45  1  0  0  0  0
 16 46  1  0  0  0  0
 16 47  1  0  0  0  0
 17 48  1  0  0  0  0
 18 19  2  0  0  0  0
 18 49  1  0  0  0  0
 19 20  1  0  0  0  0
 19 50  1  0  0  0  0
 20 21  1  0  0  0  0
 21 22  1  0  0  0  0
 21 51  1  0  0  0  0
 22 23  2  0  0  0  0
 22 24  1  0  0  0  0
 24 25  1  0  0  0  0
 24 52  1  0  0  0  0
 25 26  1  0  0  0  0
 25 35  2  0  0  0  0
 26 27  2  0  0  0  0
 26 53  1  0  0  0  0
 27 28  1  0  0  0  0
 27 54  1  0  0  0  0
 28 29  2  0  0  0  0
 28 55  1  0  0  0  0
 29 30  1  0  0  0  0
 29 35  1  0  0  0  0
 30 31  1  0  0  0  0
 31 32  1  0  0  0  0
 31 33  1  0  0  0  0
 31 34  1  0  0  0  0
 35 56  1  0  0  0  0
M  END
$$$$
