CHEMBL189862
 OpenBabel04072215363D

 67 70  0  0  0  0  0  0  0  0999 V2000
    3.1107    0.8841    2.2668 C   0  0  0  0  0  0  0  0  0  0  0  0
    4.0282    0.4859    1.1344 C   0  0  0  0  0  0  0  0  0  0  0  0
    4.4668   -0.6563    1.0300 O   0  0  0  0  0  0  0  0  0  0  0  0
    4.3867    1.5135    0.1149 C   0  0  0  0  0  0  0  0  0  0  0  0
    3.9028    2.8110    0.2213 C   0  0  0  0  0  0  0  0  0  0  0  0
    4.2152    3.7590   -0.7527 C   0  0  0  0  0  0  0  0  0  0  0  0
    5.0173    3.4525   -1.8578 C   0  0  0  0  0  0  0  0  0  0  0  0
    5.2998    4.3926   -2.8797 N   0  0  0  0  0  0  0  0  0  0  0  0
    4.9182    5.7239   -2.8561 C   0  0  0  0  0  0  0  0  0  0  0  0
    4.3768    6.2806   -1.9060 O   0  0  0  0  0  0  0  0  0  0  0  0
    5.1612    6.3854   -4.0571 N   0  0  0  0  0  0  0  0  0  0  0  0
    4.7938    7.7548   -4.1599 C   0  0  0  0  0  0  0  0  0  0  0  0
    5.1337    8.6636   -3.1572 C   0  0  0  0  0  0  0  0  0  0  0  0
    4.6415    9.9716   -3.1844 C   0  0  0  0  0  0  0  0  0  0  0  0
    3.7786   10.4165   -4.1991 C   0  0  0  0  0  0  0  0  0  0  0  0
    3.2174   11.7089   -4.1370 N   0  0  0  0  0  0  0  0  0  0  0  0
    2.9472   12.4388   -5.3743 C   0  0  0  0  0  0  0  0  0  0  0  0
    2.7938   12.4214   -2.9772 C   0  0  0  0  0  0  0  0  0  0  0  0
    2.3767   11.7131   -1.8621 C   0  0  0  0  0  0  0  0  0  0  0  0
    1.9719   12.4375   -0.7775 C   0  0  0  0  0  0  0  0  0  0  0  0
    1.9705   13.7765   -0.7582 N   0  0  0  0  0  0  0  0  0  0  0  0
    2.3813   14.4117   -1.8618 C   0  0  0  0  0  0  0  0  0  0  0  0
    2.4052   15.8109   -1.8547 N   0  0  0  0  0  0  0  0  0  0  0  0
    2.5335   16.6391   -0.7231 C   0  0  0  0  0  0  0  0  0  0  0  0
    1.9626   17.9135   -0.7175 C   0  0  0  0  0  0  0  0  0  0  0  0
    2.0364   18.7165    0.4256 C   0  0  0  0  0  0  0  0  0  0  0  0
    2.7022   18.2649    1.5693 C   0  0  0  0  0  0  0  0  0  0  0  0
    3.3020   17.0021    1.5861 C   0  0  0  0  0  0  0  0  0  0  0  0
    4.0893   16.4885    2.7627 C   0  0  0  0  0  0  0  0  0  0  0  0
    3.0887   16.2369    4.2234 S   0  0  0  0  0  0  0  0  0  0  0  0
    1.8076   15.1072    3.7296 C   0  0  0  0  0  0  0  0  0  0  0  0
    3.9192   15.5282    5.1837 O   0  0  0  0  0  0  0  0  0  0  0  0
    2.4641   17.4895    4.6074 O   0  0  0  0  0  0  0  0  0  0  0  0
    3.2222   16.2164    0.4257 C   0  0  0  0  0  0  0  0  0  0  0  0
    2.7714   13.7779   -2.9816 N   0  0  0  0  0  0  0  0  0  0  0  0
    3.4958    9.5021   -5.2298 C   0  0  0  0  0  0  0  0  0  0  0  0
    4.0140    8.1920   -5.2270 C   0  0  0  0  0  0  0  0  0  0  0  0
    5.5186    2.1483   -1.9522 C   0  0  0  0  0  0  0  0  0  0  0  0
    5.2083    1.1851   -0.9755 C   0  0  0  0  0  0  0  0  0  0  0  0
    2.9691    0.0374    2.9443 H   0  0  0  0  0  0  0  0  0  0  0  0
    2.1306    1.1740    1.8752 H   0  0  0  0  0  0  0  0  0  0  0  0
    3.5503    1.7031    2.8438 H   0  0  0  0  0  0  0  0  0  0  0  0
    3.2747    3.1328    1.0457 H   0  0  0  0  0  0  0  0  0  0  0  0
    3.7892    4.7433   -0.5960 H   0  0  0  0  0  0  0  0  0  0  0  0
    5.9069    4.0981   -3.6306 H   0  0  0  0  0  0  0  0  0  0  0  0
    5.0237    5.8190   -4.8818 H   0  0  0  0  0  0  0  0  0  0  0  0
    5.7585    8.3573   -2.3209 H   0  0  0  0  0  0  0  0  0  0  0  0
    4.9339   10.6406   -2.3782 H   0  0  0  0  0  0  0  0  0  0  0  0
    3.2767   11.9090   -6.2738 H   0  0  0  0  0  0  0  0  0  0  0  0
    3.4705   13.4020   -5.3898 H   0  0  0  0  0  0  0  0  0  0  0  0
    1.8705   12.6224   -5.4799 H   0  0  0  0  0  0  0  0  0  0  0  0
    2.3359   10.6326   -1.8404 H   0  0  0  0  0  0  0  0  0  0  0  0
    1.6234   11.9555    0.1297 H   0  0  0  0  0  0  0  0  0  0  0  0
    2.8341   16.1623   -2.6996 H   0  0  0  0  0  0  0  0  0  0  0  0
    1.4205   18.2758   -1.5877 H   0  0  0  0  0  0  0  0  0  0  0  0
    1.5649   19.6971    0.4294 H   0  0  0  0  0  0  0  0  0  0  0  0
    2.7471   18.9157    2.4420 H   0  0  0  0  0  0  0  0  0  0  0  0
    4.8932   17.1845    3.0195 H   0  0  0  0  0  0  0  0  0  0  0  0
    4.5472   15.5177    2.5385 H   0  0  0  0  0  0  0  0  0  0  0  0
    2.2675   14.2117    3.3076 H   0  0  0  0  0  0  0  0  0  0  0  0
    1.1486   15.5910    3.0087 H   0  0  0  0  0  0  0  0  0  0  0  0
    1.2404   14.8395    4.6254 H   0  0  0  0  0  0  0  0  0  0  0  0
    3.7195   15.2483    0.4094 H   0  0  0  0  0  0  0  0  0  0  0  0
    2.8087    9.7694   -6.0283 H   0  0  0  0  0  0  0  0  0  0  0  0
    3.7180    7.5084   -6.0175 H   0  0  0  0  0  0  0  0  0  0  0  0
    6.1526    1.8515   -2.7867 H   0  0  0  0  0  0  0  0  0  0  0  0
    5.6012    0.1731   -1.0689 H   0  0  0  0  0  0  0  0  0  0  0  0
  1  2  1  0  0  0  0
  1 40  1  0  0  0  0
  1 41  1  0  0  0  0
  1 42  1  0  0  0  0
  2  3  2  0  0  0  0
  2  4  1  0  0  0  0
  4  5  1  0  0  0  0
  4 39  2  0  0  0  0
  5  6  2  0  0  0  0
  5 43  1  0  0  0  0
  6  7  1  0  0  0  0
  6 44  1  0  0  0  0
  7  8  1  0  0  0  0
  7 38  2  0  0  0  0
  8  9  1  0  0  0  0
  8 45  1  0  0  0  0
  9 10  2  0  0  0  0
  9 11  1  0  0  0  0
 11 12  1  0  0  0  0
 11 46  1  0  0  0  0
 12 13  1  0  0  0  0
 12 37  2  0  0  0  0
 13 14  2  0  0  0  0
 13 47  1  0  0  0  0
 14 15  1  0  0  0  0
 14 48  1  0  0  0  0
 15 16  1  0  0  0  0
 15 36  2  0  0  0  0
 16 17  1  0  0  0  0
 16 18  1  0  0  0  0
 17 49  1  0  0  0  0
 17 50  1  0  0  0  0
 17 51  1  0  0  0  0
 18 19  1  0  0  0  0
 18 35  2  0  0  0  0
 19 20  2  0  0  0  0
 19 52  1  0  0  0  0
 20 21  1  0  0  0  0
 20 53  1  0  0  0  0
 21 22  2  0  0  0  0
 22 23  1  0  0  0  0
 22 35  1  0  0  0  0
 23 24  1  0  0  0  0
 23 54  1  0  0  0  0
 24 25  1  0  0  0  0
 24 34  2  0  0  0  0
 25 26  2  0  0  0  0
 25 55  1  0  0  0  0
 26 27  1  0  0  0  0
 26 56  1  0  0  0  0
 27 28  2  0  0  0  0
 27 57  1  0  0  0  0
 28 29  1  0  0  0  0
 28 34  1  0  0  0  0
 29 30  1  0  0  0  0
 29 58  1  0  0  0  0
 29 59  1  0  0  0  0
 30 31  1  0  0  0  0
 30 32  2  0  0  0  0
 30 33  2  0  0  0  0
 31 60  1  0  0  0  0
 31 61  1  0  0  0  0
 31 62  1  0  0  0  0
 34 63  1  0  0  0  0
 36 37  1  0  0  0  0
 36 64  1  0  0  0  0
 37 65  1  0  0  0  0
 38 39  1  0  0  0  0
 38 66  1  0  0  0  0
 39 67  1  0  0  0  0
M  END
$$$$
