CHEMBL3908737
 OpenBabel04072215373D

 58 61  0  0  0  0  0  0  0  0999 V2000
    2.6316    0.2154    0.1465 C   0  0  0  0  0  0  0  0  0  0  0  0
    1.1328    0.0805    0.1517 C   0  0  0  0  0  0  0  0  0  0  0  0
    0.3921    1.2823    0.1575 C   0  0  0  0  0  0  0  0  0  0  0  0
   -0.9999    1.2874   -0.0055 C   0  0  0  0  0  0  0  0  0  0  0  0
   -1.7639    2.4322   -0.0996 O   0  0  0  0  0  0  0  0  0  0  0  0
   -1.2357    3.5304   -0.7495 C   0  0  0  0  0  0  0  0  0  0  0  0
   -0.3583    3.4311   -1.8251 C   0  0  0  0  0  0  0  0  0  0  0  0
    0.1918    4.5935   -2.3093 C   0  0  0  0  0  0  0  0  0  0  0  0
   -0.1377    5.8123   -1.8498 N   0  0  0  0  0  0  0  0  0  0  0  0
   -1.0549    5.9185   -0.8734 C   0  0  0  0  0  0  0  0  0  0  0  0
   -1.4409    7.1943   -0.4248 N   0  0  0  0  0  0  0  0  0  0  0  0
   -0.8897    8.3719   -0.8927 C   0  0  0  0  0  0  0  0  0  0  0  0
   -0.0051    8.4976   -1.7272 O   0  0  0  0  0  0  0  0  0  0  0  0
   -1.4156    9.6373   -0.2973 C   0  0  0  0  0  0  0  0  0  0  0  0
   -1.2139    9.8983    1.1777 C   0  0  0  0  0  0  0  0  0  0  0  0
   -2.6026    9.7955    0.6150 C   0  0  0  0  0  0  0  0  0  0  0  0
   -1.6318    4.7922   -0.2943 C   0  0  0  0  0  0  0  0  0  0  0  0
   -1.6724    0.0781   -0.0631 C   0  0  0  0  0  0  0  0  0  0  0  0
   -0.9531   -1.1220   -0.0048 C   0  0  0  0  0  0  0  0  0  0  0  0
    0.4483   -1.1572    0.1027 C   0  0  0  0  0  0  0  0  0  0  0  0
    1.1625   -2.3853    0.1705 N   0  0  0  0  0  0  0  0  0  0  0  0
    0.5990   -3.6415    0.3665 C   0  0  0  0  0  0  0  0  0  0  0  0
   -0.6010   -3.8698    0.4724 O   0  0  0  0  0  0  0  0  0  0  0  0
    1.5577   -4.6385    0.5279 N   0  0  0  0  0  0  0  0  0  0  0  0
    1.1539   -5.9694    0.8175 C   0  0  0  0  0  0  0  0  0  0  0  0
    1.7747   -6.6450    1.8647 C   0  0  0  0  0  0  0  0  0  0  0  0
    1.3107   -7.9061    2.2490 C   0  0  0  0  0  0  0  0  0  0  0  0
    0.2649   -8.5289    1.5552 C   0  0  0  0  0  0  0  0  0  0  0  0
   -0.2589  -10.0646    2.1475 Cl  0  0  0  0  0  0  0  0  0  0  0  0
   -0.3247   -7.9025    0.4497 C   0  0  0  0  0  0  0  0  0  0  0  0
   -1.4148   -8.5475   -0.3815 C   0  0  0  0  0  0  0  0  0  0  0  0
   -2.8067   -8.3121    0.1874 C   0  0  0  0  0  0  0  0  0  0  0  0
   -1.4252   -8.0651   -1.6644 F   0  0  0  0  0  0  0  0  0  0  0  0
   -1.2471   -9.8941   -0.5372 F   0  0  0  0  0  0  0  0  0  0  0  0
    0.1239   -6.6066    0.1071 C   0  0  0  0  0  0  0  0  0  0  0  0
    2.9370    1.2494    0.3532 H   0  0  0  0  0  0  0  0  0  0  0  0
    3.0238   -0.0430   -0.8427 H   0  0  0  0  0  0  0  0  0  0  0  0
    3.0949   -0.4122    0.9107 H   0  0  0  0  0  0  0  0  0  0  0  0
    0.9143    2.2293    0.2584 H   0  0  0  0  0  0  0  0  0  0  0  0
   -0.0645    2.4795   -2.2515 H   0  0  0  0  0  0  0  0  0  0  0  0
    0.9427    4.5834   -3.0932 H   0  0  0  0  0  0  0  0  0  0  0  0
   -2.1383    7.2408    0.2989 H   0  0  0  0  0  0  0  0  0  0  0  0
   -1.2348   10.4840   -0.9591 H   0  0  0  0  0  0  0  0  0  0  0  0
   -0.8317   10.8747    1.4550 H   0  0  0  0  0  0  0  0  0  0  0  0
   -0.8506    9.0907    1.8025 H   0  0  0  0  0  0  0  0  0  0  0  0
   -3.1732   10.7164    0.5253 H   0  0  0  0  0  0  0  0  0  0  0  0
   -3.2118    8.9465    0.8887 H   0  0  0  0  0  0  0  0  0  0  0  0
   -2.3625    4.8723    0.5025 H   0  0  0  0  0  0  0  0  0  0  0  0
   -2.7520    0.0448   -0.1643 H   0  0  0  0  0  0  0  0  0  0  0  0
   -1.5402   -2.0308   -0.0799 H   0  0  0  0  0  0  0  0  0  0  0  0
    2.1718   -2.3357    0.1133 H   0  0  0  0  0  0  0  0  0  0  0  0
    2.4157   -4.3328    0.9637 H   0  0  0  0  0  0  0  0  0  0  0  0
    2.5676   -6.1788    2.4419 H   0  0  0  0  0  0  0  0  0  0  0  0
    1.7587   -8.3961    3.1111 H   0  0  0  0  0  0  0  0  0  0  0  0
   -3.0683   -7.2492    0.1662 H   0  0  0  0  0  0  0  0  0  0  0  0
   -2.9005   -8.6777    1.2142 H   0  0  0  0  0  0  0  0  0  0  0  0
   -3.5491   -8.8445   -0.4181 H   0  0  0  0  0  0  0  0  0  0  0  0
   -0.3430   -6.0927   -0.7341 H   0  0  0  0  0  0  0  0  0  0  0  0
  1  2  1  0  0  0  0
  1 36  1  0  0  0  0
  1 37  1  0  0  0  0
  1 38  1  0  0  0  0
  2  3  1  0  0  0  0
  2 20  2  0  0  0  0
  3  4  2  0  0  0  0
  3 39  1  0  0  0  0
  4  5  1  0  0  0  0
  4 18  1  0  0  0  0
  5  6  1  0  0  0  0
  6  7  1  0  0  0  0
  6 17  2  0  0  0  0
  7  8  2  0  0  0  0
  7 40  1  0  0  0  0
  8  9  1  0  0  0  0
  8 41  1  0  0  0  0
  9 10  2  0  0  0  0
 10 11  1  0  0  0  0
 10 17  1  0  0  0  0
 11 12  1  0  0  0  0
 11 42  1  0  0  0  0
 12 13  2  0  0  0  0
 12 14  1  0  0  0  0
 14 15  1  0  0  0  0
 14 16  1  0  0  0  0
 14 43  1  0  0  0  0
 15 16  1  0  0  0  0
 15 44  1  0  0  0  0
 15 45  1  0  0  0  0
 16 46  1  0  0  0  0
 16 47  1  0  0  0  0
 17 48  1  0  0  0  0
 18 19  2  0  0  0  0
 18 49  1  0  0  0  0
 19 20  1  0  0  0  0
 19 50  1  0  0  0  0
 20 21  1  0  0  0  0
 21 22  1  0  0  0  0
 21 51  1  0  0  0  0
 22 23  2  0  0  0  0
 22 24  1  0  0  0  0
 24 25  1  0  0  0  0
 24 52  1  0  0  0  0
 25 26  1  0  0  0  0
 25 35  2  0  0  0  0
 26 27  2  0  0  0  0
 26 53  1  0  0  0  0
 27 28  1  0  0  0  0
 27 54  1  0  0  0  0
 28 29  1  0  0  0  0
 28 30  2  0  0  0  0
 30 31  1  0  0  0  0
 30 35  1  0  0  0  0
 31 32  1  0  0  0  0
 31 33  1  0  0  0  0
 31 34  1  0  0  0  0
 32 55  1  0  0  0  0
 32 56  1  0  0  0  0
 32 57  1  0  0  0  0
 35 58  1  0  0  0  0
M  END
$$$$
