CHEMBL300853
 OpenBabel04072215363D

 74 78  0  0  0  0  0  0  0  0999 V2000
    1.4883   -2.6953   -0.6476 C   0  0  0  0  0  0  0  0  0  0  0  0
    2.9308   -2.5886   -0.1860 C   0  0  0  0  0  0  0  0  0  0  0  0
    3.1639   -1.2283    0.9519 S   0  0  0  0  0  0  0  0  0  0  0  0
    2.8682    0.0054    0.2458 O   0  0  0  0  0  0  0  0  0  0  0  0
    2.5121   -1.5528    2.2007 O   0  0  0  0  0  0  0  0  0  0  0  0
    4.9203   -1.2264    1.2902 C   0  0  0  0  0  0  0  0  0  0  0  0
    5.4636   -2.3840    1.8866 C   0  0  0  0  0  0  0  0  0  0  0  0
    6.8310   -2.4276    2.1857 C   0  0  0  0  0  0  0  0  0  0  0  0
    7.5865   -1.3046    1.8914 C   0  0  0  0  0  0  0  0  0  0  0  0
    7.0601   -0.1404    1.3119 C   0  0  0  0  0  0  0  0  0  0  0  0
    5.7078   -0.0887    1.0025 C   0  0  0  0  0  0  0  0  0  0  0  0
    8.2056    0.7939    1.1897 C   0  0  0  0  0  0  0  0  0  0  0  0
    8.1854    2.0635    0.7408 C   0  0  0  0  0  0  0  0  0  0  0  0
    9.3355    2.9059    0.7243 C   0  0  0  0  0  0  0  0  0  0  0  0
   10.1464    2.8748   -0.3868 N   0  0  0  0  0  0  0  0  0  0  0  0
   11.2103    3.7097   -0.2016 C   0  0  0  0  0  0  0  0  0  0  0  0
   11.0772    4.3288    1.0228 C   0  0  0  0  0  0  0  0  0  0  0  0
    9.8843    3.8037    1.6455 C   0  0  0  0  0  0  0  0  0  0  0  0
    9.3091    4.0061    3.0289 C   0  0  0  0  0  0  0  0  0  0  0  0
    9.4211    5.3851    3.6681 C   0  0  0  0  0  0  0  0  0  0  0  0
   10.7773    5.6422    4.3194 C   0  0  0  0  0  0  0  0  0  0  0  0
   10.9491    7.0667    4.6423 N   0  0  0  0  0  0  0  0  0  0  0  0
   12.3760    7.4377    4.7566 C   0  0  0  0  0  0  0  0  0  0  0  0
   13.0796    6.8452    5.9978 C   0  0  0  0  0  0  0  0  0  0  0  0
   12.3792    7.0572    7.3011 N   0  0  0  0  0  0  0  0  0  0  0  0
   12.4301    8.4841    7.7314 C   0  0  0  0  0  0  0  0  0  0  0  0
   13.8383    8.8968    8.1246 C   0  0  0  0  0  0  0  0  0  0  0  0
   14.2406   10.0499    8.1181 O   0  0  0  0  0  0  0  0  0  0  0  0
   14.5888    7.8447    8.5362 O   0  0  0  0  0  0  0  0  0  0  0  0
   10.9436    6.6983    7.1263 C   0  0  0  0  0  0  0  0  0  0  0  0
   10.2640    7.3739    5.9061 C   0  0  0  0  0  0  0  0  0  0  0  0
   12.1496    5.2570    1.5026 C   0  0  0  0  0  0  0  0  0  0  0  0
   13.2169    5.6185    0.4693 C   0  0  0  0  0  0  0  0  0  0  0  0
   13.5850    4.4113   -0.3921 C   0  0  0  0  0  0  0  0  0  0  0  0
   12.3504    3.8858   -1.1487 C   0  0  0  0  0  0  0  0  0  0  0  0
    9.4162    0.0601    1.7220 C   0  0  0  0  0  0  0  0  0  0  0  0
   10.5810    0.4152    1.7810 O   0  0  0  0  0  0  0  0  0  0  0  0
    8.9454   -1.1738    2.1232 N   0  0  0  0  0  0  0  0  0  0  0  0
    1.3716   -3.5288   -1.3482 H   0  0  0  0  0  0  0  0  0  0  0  0
    1.1656   -1.7799   -1.1531 H   0  0  0  0  0  0  0  0  0  0  0  0
    0.8136   -2.8665    0.1975 H   0  0  0  0  0  0  0  0  0  0  0  0
    3.5906   -2.4252   -1.0425 H   0  0  0  0  0  0  0  0  0  0  0  0
    3.2222   -3.5129    0.3219 H   0  0  0  0  0  0  0  0  0  0  0  0
    4.8398   -3.2311    2.1408 H   0  0  0  0  0  0  0  0  0  0  0  0
    7.2688   -3.3053    2.6523 H   0  0  0  0  0  0  0  0  0  0  0  0
    5.2631    0.8030    0.5676 H   0  0  0  0  0  0  0  0  0  0  0  0
    7.2510    2.5118    0.4186 H   0  0  0  0  0  0  0  0  0  0  0  0
   10.0102    2.2756   -1.1878 H   0  0  0  0  0  0  0  0  0  0  0  0
    9.7182    3.2417    3.7020 H   0  0  0  0  0  0  0  0  0  0  0  0
    8.2310    3.7983    2.9664 H   0  0  0  0  0  0  0  0  0  0  0  0
    8.6663    5.4335    4.4651 H   0  0  0  0  0  0  0  0  0  0  0  0
    9.1652    6.1647    2.9420 H   0  0  0  0  0  0  0  0  0  0  0  0
   11.5718    5.3459    3.6682 H   0  0  0  0  0  0  0  0  0  0  0  0
   10.9260    4.9647    5.1632 H   0  0  0  0  0  0  0  0  0  0  0  0
   12.4525    8.5327    4.7879 H   0  0  0  0  0  0  0  0  0  0  0  0
   12.9268    7.1496    3.8509 H   0  0  0  0  0  0  0  0  0  0  0  0
   14.1065    7.2274    6.0409 H   0  0  0  0  0  0  0  0  0  0  0  0
   13.1922    5.7623    5.8510 H   0  0  0  0  0  0  0  0  0  0  0  0
   11.8198    8.6001    8.6353 H   0  0  0  0  0  0  0  0  0  0  0  0
   12.0649    9.1722    6.9653 H   0  0  0  0  0  0  0  0  0  0  0  0
   14.0411    7.0332    8.4146 H   0  0  0  0  0  0  0  0  0  0  0  0
   10.3740    6.9336    8.0313 H   0  0  0  0  0  0  0  0  0  0  0  0
   10.8766    5.6071    7.0449 H   0  0  0  0  0  0  0  0  0  0  0  0
   10.2410    8.4630    6.0317 H   0  0  0  0  0  0  0  0  0  0  0  0
    9.2105    7.0818    5.8506 H   0  0  0  0  0  0  0  0  0  0  0  0
   12.6911    4.7443    2.3065 H   0  0  0  0  0  0  0  0  0  0  0  0
   11.7071    6.1953    1.8487 H   0  0  0  0  0  0  0  0  0  0  0  0
   14.1037    5.9949    0.9970 H   0  0  0  0  0  0  0  0  0  0  0  0
   12.8570    6.4370   -0.1645 H   0  0  0  0  0  0  0  0  0  0  0  0
   13.9948    3.6234    0.2550 H   0  0  0  0  0  0  0  0  0  0  0  0
   14.3743    4.6912   -1.0973 H   0  0  0  0  0  0  0  0  0  0  0  0
   12.6002    2.9452   -1.6469 H   0  0  0  0  0  0  0  0  0  0  0  0
   12.0644    4.6173   -1.9131 H   0  0  0  0  0  0  0  0  0  0  0  0
    9.5550   -1.8745    2.5205 H   0  0  0  0  0  0  0  0  0  0  0  0
  1  2  1  0  0  0  0
  1 39  1  0  0  0  0
  1 40  1  0  0  0  0
  1 41  1  0  0  0  0
  2  3  1  0  0  0  0
  2 42  1  0  0  0  0
  2 43  1  0  0  0  0
  3  4  2  0  0  0  0
  3  5  2  0  0  0  0
  3  6  1  0  0  0  0
  6  7  1  0  0  0  0
  6 11  2  0  0  0  0
  7  8  2  0  0  0  0
  7 44  1  0  0  0  0
  8  9  1  0  0  0  0
  8 45  1  0  0  0  0
  9 10  2  0  0  0  0
  9 38  1  0  0  0  0
 10 11  1  0  0  0  0
 10 12  1  0  0  0  0
 11 46  1  0  0  0  0
 12 13  2  0  0  0  0
 12 36  1  0  0  0  0
 13 14  1  0  0  0  0
 13 47  1  0  0  0  0
 14 15  1  0  0  0  0
 14 18  2  0  0  0  0
 15 16  1  0  0  0  0
 15 48  1  0  0  0  0
 16 17  2  0  0  0  0
 16 35  1  0  0  0  0
 17 18  1  0  0  0  0
 17 32  1  0  0  0  0
 18 19  1  0  0  0  0
 19 20  1  0  0  0  0
 19 49  1  0  0  0  0
 19 50  1  0  0  0  0
 20 21  1  0  0  0  0
 20 51  1  0  0  0  0
 20 52  1  0  0  0  0
 21 22  1  0  0  0  0
 21 53  1  0  0  0  0
 21 54  1  0  0  0  0
 22 23  1  0  0  0  0
 22 31  1  0  0  0  0
 23 24  1  0  0  0  0
 23 55  1  0  0  0  0
 23 56  1  0  0  0  0
 24 25  1  0  0  0  0
 24 57  1  0  0  0  0
 24 58  1  0  0  0  0
 25 26  1  0  0  0  0
 25 30  1  0  0  0  0
 26 27  1  0  0  0  0
 26 59  1  0  0  0  0
 26 60  1  0  0  0  0
 27 28  2  0  0  0  0
 27 29  1  0  0  0  0
 29 61  1  0  0  0  0
 30 31  1  0  0  0  0
 30 62  1  0  0  0  0
 30 63  1  0  0  0  0
 31 64  1  0  0  0  0
 31 65  1  0  0  0  0
 32 33  1  0  0  0  0
 32 66  1  0  0  0  0
 32 67  1  0  0  0  0
 33 34  1  0  0  0  0
 33 68  1  0  0  0  0
 33 69  1  0  0  0  0
 34 35  1  0  0  0  0
 34 70  1  0  0  0  0
 34 71  1  0  0  0  0
 35 72  1  0  0  0  0
 35 73  1  0  0  0  0
 36 37  2  0  0  0  0
 36 38  1  0  0  0  0
 38 74  1  0  0  0  0
M  END
$$$$
