CHEMBL3660267
 OpenBabel04072215373D

 53 56  0  0  0  0  0  0  0  0999 V2000
    2.7788    0.7718   -2.4516 C   0  0  0  0  0  0  0  0  0  0  0  0
    1.3778    0.5004   -1.9838 C   0  0  0  0  0  0  0  0  0  0  0  0
    0.8647   -0.7984   -2.0535 C   0  0  0  0  0  0  0  0  0  0  0  0
   -0.4197   -1.0615   -1.5961 C   0  0  0  0  0  0  0  0  0  0  0  0
   -1.2045   -0.0316   -1.0844 C   0  0  0  0  0  0  0  0  0  0  0  0
   -2.3698   -0.4022   -0.5401 F   0  0  0  0  0  0  0  0  0  0  0  0
   -0.7486    1.2959   -1.0566 C   0  0  0  0  0  0  0  0  0  0  0  0
   -1.5251    2.4110   -0.6305 N   0  0  0  0  0  0  0  0  0  0  0  0
   -2.9039    2.4372   -0.5586 C   0  0  0  0  0  0  0  0  0  0  0  0
   -3.6467    1.5167   -0.8802 O   0  0  0  0  0  0  0  0  0  0  0  0
   -3.4022    3.6704   -0.1416 N   0  0  0  0  0  0  0  0  0  0  0  0
   -4.8024    3.7948    0.0584 C   0  0  0  0  0  0  0  0  0  0  0  0
   -5.4830    2.8654    0.8532 C   0  0  0  0  0  0  0  0  0  0  0  0
   -6.8746    2.8943    0.9453 C   0  0  0  0  0  0  0  0  0  0  0  0
   -7.5971    3.8917    0.2892 C   0  0  0  0  0  0  0  0  0  0  0  0
   -8.9731    3.9904    0.3123 O   0  0  0  0  0  0  0  0  0  0  0  0
   -9.6627    3.6043    1.4456 C   0  0  0  0  0  0  0  0  0  0  0  0
   -9.1977    3.7947    2.7387 C   0  0  0  0  0  0  0  0  0  0  0  0
   -9.9750    3.3327    3.7853 C   0  0  0  0  0  0  0  0  0  0  0  0
  -11.1882    2.7534    3.6275 N   0  0  0  0  0  0  0  0  0  0  0  0
  -11.6443    2.6360    2.3603 C   0  0  0  0  0  0  0  0  0  0  0  0
  -12.9741    2.0410    2.2510 C   0  0  0  0  0  0  0  0  0  0  0  0
  -13.7825    1.7812    1.1611 C   0  0  0  0  0  0  0  0  0  0  0  0
  -15.0072    1.1978    1.6090 C   0  0  0  0  0  0  0  0  0  0  0  0
  -16.1081    0.7989    0.7418 C   0  0  0  0  0  0  0  0  0  0  0  0
  -17.2049    0.2690    1.3597 N   0  0  0  0  0  0  0  0  0  0  0  0
  -16.0829    0.9254   -0.4763 O   0  0  0  0  0  0  0  0  0  0  0  0
  -14.8979    1.1090    2.9882 C   0  0  0  0  0  0  0  0  0  0  0  0
  -13.6738    1.6189    3.3568 N   0  0  0  0  0  0  0  0  0  0  0  0
  -10.9242    3.0486    1.2451 C   0  0  0  0  0  0  0  0  0  0  0  0
   -6.9182    4.8225   -0.5043 C   0  0  0  0  0  0  0  0  0  0  0  0
   -5.5198    4.7931   -0.6012 C   0  0  0  0  0  0  0  0  0  0  0  0
    0.5687    1.5415   -1.4825 C   0  0  0  0  0  0  0  0  0  0  0  0
    3.2682   -0.1479   -2.7931 H   0  0  0  0  0  0  0  0  0  0  0  0
    3.3794    1.1807   -1.6336 H   0  0  0  0  0  0  0  0  0  0  0  0
    2.7710    1.4747   -3.2897 H   0  0  0  0  0  0  0  0  0  0  0  0
    1.4639   -1.6170   -2.4452 H   0  0  0  0  0  0  0  0  0  0  0  0
   -0.8227   -2.0694   -1.6142 H   0  0  0  0  0  0  0  0  0  0  0  0
   -1.0442    3.2880   -0.5020 H   0  0  0  0  0  0  0  0  0  0  0  0
   -2.9470    4.4615   -0.5727 H   0  0  0  0  0  0  0  0  0  0  0  0
   -4.9361    2.0857    1.3790 H   0  0  0  0  0  0  0  0  0  0  0  0
   -7.3724    2.1171    1.5177 H   0  0  0  0  0  0  0  0  0  0  0  0
   -8.2439    4.2678    2.9420 H   0  0  0  0  0  0  0  0  0  0  0  0
   -9.6277    3.4158    4.8111 H   0  0  0  0  0  0  0  0  0  0  0  0
  -13.5404    1.9903    0.1265 H   0  0  0  0  0  0  0  0  0  0  0  0
  -17.2708    0.1538    2.3555 H   0  0  0  0  0  0  0  0  0  0  0  0
  -17.9754   -0.0029    0.7675 H   0  0  0  0  0  0  0  0  0  0  0  0
  -15.5739    0.7358    3.7443 H   0  0  0  0  0  0  0  0  0  0  0  0
  -13.3100    1.6877    4.3000 H   0  0  0  0  0  0  0  0  0  0  0  0
  -11.3192    2.9386    0.2436 H   0  0  0  0  0  0  0  0  0  0  0  0
   -7.4831    5.5568   -1.0737 H   0  0  0  0  0  0  0  0  0  0  0  0
   -5.0217    5.5012   -1.2562 H   0  0  0  0  0  0  0  0  0  0  0  0
    0.9748    2.5501   -1.4549 H   0  0  0  0  0  0  0  0  0  0  0  0
  1  2  1  0  0  0  0
  1 34  1  0  0  0  0
  1 35  1  0  0  0  0
  1 36  1  0  0  0  0
  2  3  1  0  0  0  0
  2 33  2  0  0  0  0
  3  4  2  0  0  0  0
  3 37  1  0  0  0  0
  4  5  1  0  0  0  0
  4 38  1  0  0  0  0
  5  6  1  0  0  0  0
  5  7  2  0  0  0  0
  7  8  1  0  0  0  0
  7 33  1  0  0  0  0
  8  9  1  0  0  0  0
  8 39  1  0  0  0  0
  9 10  2  0  0  0  0
  9 11  1  0  0  0  0
 11 12  1  0  0  0  0
 11 40  1  0  0  0  0
 12 13  1  0  0  0  0
 12 32  2  0  0  0  0
 13 14  2  0  0  0  0
 13 41  1  0  0  0  0
 14 15  1  0  0  0  0
 14 42  1  0  0  0  0
 15 16  1  0  0  0  0
 15 31  2  0  0  0  0
 16 17  1  0  0  0  0
 17 18  1  0  0  0  0
 17 30  2  0  0  0  0
 18 19  2  0  0  0  0
 18 43  1  0  0  0  0
 19 20  1  0  0  0  0
 19 44  1  0  0  0  0
 20 21  2  0  0  0  0
 21 22  1  0  0  0  0
 21 30  1  0  0  0  0
 22 23  2  0  0  0  0
 22 29  1  0  0  0  0
 23 24  1  0  0  0  0
 23 45  1  0  0  0  0
 24 25  1  0  0  0  0
 24 28  2  0  0  0  0
 25 26  1  0  0  0  0
 25 27  2  0  0  0  0
 26 46  1  0  0  0  0
 26 47  1  0  0  0  0
 28 29  1  0  0  0  0
 28 48  1  0  0  0  0
 29 49  1  0  0  0  0
 30 50  1  0  0  0  0
 31 32  1  0  0  0  0
 31 51  1  0  0  0  0
 32 52  1  0  0  0  0
 33 53  1  0  0  0  0
M  END
$$$$
