CHEMBL215971
 OpenBabel04072215363D

 30 33  0  0  0  0  0  0  0  0999 V2000
    0.8936   -1.6350    0.9652 C   0  0  0  0  0  0  0  0  0  0  0  0
    0.4205   -0.6404    1.8124 C   0  0  0  0  0  0  0  0  0  0  0  0
   -0.8151   -0.0398    1.5543 C   0  0  0  0  0  0  0  0  0  0  0  0
   -1.6129   -0.4073    0.4500 C   0  0  0  0  0  0  0  0  0  0  0  0
   -2.7770    0.4633    0.0856 C   0  0  0  0  0  0  0  0  0  0  0  0
   -3.1238    1.4698    0.9236 N   0  0  0  0  0  0  0  0  0  0  0  0
   -2.9879    2.5553    0.1334 N   0  0  0  0  0  0  0  0  0  0  0  0
   -2.7547    2.2062   -1.1722 C   0  0  0  0  0  0  0  0  0  0  0  0
   -3.1980    0.8856   -1.2371 C   0  0  0  0  0  0  0  0  0  0  0  0
   -2.9393    0.3388   -2.6188 C   0  0  0  0  0  0  0  0  0  0  0  0
   -1.6071    1.0493   -2.7968 C   0  0  0  0  0  0  0  0  0  0  0  0
   -0.4915    0.4649   -3.3758 C   0  0  0  0  0  0  0  0  0  0  0  0
    0.7548    0.9762   -3.0332 C   0  0  0  0  0  0  0  0  0  0  0  0
    0.8612    2.0886   -2.1733 C   0  0  0  0  0  0  0  0  0  0  0  0
   -0.2737    2.7234   -1.6429 C   0  0  0  0  0  0  0  0  0  0  0  0
   -1.5160    2.2070   -1.9628 C   0  0  0  0  0  0  0  0  0  0  0  0
   -1.1200   -1.4260   -0.3772 C   0  0  0  0  0  0  0  0  0  0  0  0
    0.1243   -2.0274   -0.1277 C   0  0  0  0  0  0  0  0  0  0  0  0
    1.8640   -2.0911    1.1510 H   0  0  0  0  0  0  0  0  0  0  0  0
    1.0198   -0.3040    2.6564 H   0  0  0  0  0  0  0  0  0  0  0  0
   -1.1270    0.7823    2.1986 H   0  0  0  0  0  0  0  0  0  0  0  0
   -3.1635    3.4732    0.5265 H   0  0  0  0  0  0  0  0  0  0  0  0
   -3.6738    0.7267   -3.3369 H   0  0  0  0  0  0  0  0  0  0  0  0
   -2.8933   -0.7463   -2.6733 H   0  0  0  0  0  0  0  0  0  0  0  0
   -0.5774   -0.4582   -3.9412 H   0  0  0  0  0  0  0  0  0  0  0  0
    1.6527    0.4543   -3.3562 H   0  0  0  0  0  0  0  0  0  0  0  0
    1.8518    2.3983   -1.8435 H   0  0  0  0  0  0  0  0  0  0  0  0
   -0.1564    3.4855   -0.8795 H   0  0  0  0  0  0  0  0  0  0  0  0
   -1.6569   -1.7432   -1.2624 H   0  0  0  0  0  0  0  0  0  0  0  0
    0.5126   -2.7850   -0.8049 H   0  0  0  0  0  0  0  0  0  0  0  0
  1  2  1  0  0  0  0
  1 18  2  0  0  0  0
  1 19  1  0  0  0  0
  2  3  2  0  0  0  0
  2 20  1  0  0  0  0
  3  4  1  0  0  0  0
  3 21  1  0  0  0  0
  4  5  1  0  0  0  0
  4 17  2  0  0  0  0
  5  6  2  0  0  0  0
  5  9  1  0  0  0  0
  6  7  1  0  0  0  0
  7  8  1  0  0  0  0
  7 22  1  0  0  0  0
  8  9  2  0  0  0  0
  8 16  1  0  0  0  0
  9 10  1  0  0  0  0
 10 11  1  0  0  0  0
 10 23  1  0  0  0  0
 10 24  1  0  0  0  0
 11 12  1  0  0  0  0
 11 16  2  0  0  0  0
 12 13  2  0  0  0  0
 12 25  1  0  0  0  0
 13 14  1  0  0  0  0
 13 26  1  0  0  0  0
 14 15  2  0  0  0  0
 14 27  1  0  0  0  0
 15 16  1  0  0  0  0
 15 28  1  0  0  0  0
 17 18  1  0  0  0  0
 17 29  1  0  0  0  0
 18 30  1  0  0  0  0
M  END
$$$$
