CHEMBL1242656
 OpenBabel04072215363D

 42 45  0  0  1  0  0  0  0  0999 V2000
    0.9737   -0.7796   -1.8058 C   0  0  0  0  0  0  0  0  0  0  0  0
   -0.1913    0.0675   -2.3152 C   0  0  3  0  0  0  0  0  0  0  0  0
    0.0642    1.5646   -2.1509 C   0  0  0  0  0  0  0  0  0  0  0  0
   -0.3064    1.8762   -0.7026 C   0  0  0  0  0  0  0  0  0  0  0  0
   -1.3184    0.7933   -0.2843 C   0  0  3  0  0  0  0  0  0  0  0  0
   -2.5821    1.3233    0.1933 N   0  0  0  0  0  0  0  0  0  0  0  0
   -3.3204    2.1388   -0.5896 N   0  0  0  0  0  0  0  0  0  0  0  0
   -4.3857    2.4666    0.1674 C   0  0  0  0  0  0  0  0  0  0  0  0
   -5.3810    3.4117   -0.3567 C   0  0  0  0  0  0  0  0  0  0  0  0
   -6.0532    4.3044    0.4955 C   0  0  0  0  0  0  0  0  0  0  0  0
   -7.0230    5.1812    0.0024 C   0  0  0  0  0  0  0  0  0  0  0  0
   -7.2760    5.2138   -1.3598 C   0  0  0  0  0  0  0  0  0  0  0  0
   -8.1859    6.0680   -1.8491 F   0  0  0  0  0  0  0  0  0  0  0  0
   -6.5799    4.3794   -2.2275 C   0  0  0  0  0  0  0  0  0  0  0  0
   -6.7914    4.4448   -3.5756 O   0  0  0  0  0  0  0  0  0  0  0  0
   -5.6463    3.4714   -1.7361 C   0  0  0  0  0  0  0  0  0  0  0  0
   -4.3426    1.7938    1.4353 C   0  0  0  0  0  0  0  0  0  0  0  0
   -5.1118    1.6746    2.6047 C   0  0  0  0  0  0  0  0  0  0  0  0
   -6.3514    2.2570    2.8272 N   0  0  0  0  0  0  0  0  0  0  0  0
   -4.6329    0.9256    3.6216 N   0  0  0  0  0  0  0  0  0  0  0  0
   -3.4455    0.3114    3.4723 C   0  0  0  0  0  0  0  0  0  0  0  0
   -2.6421    0.3255    2.4006 N   0  0  0  0  0  0  0  0  0  0  0  0
   -3.1489    1.0897    1.4149 C   0  0  0  0  0  0  0  0  0  0  0  0
   -1.4666   -0.1391   -1.4981 C   0  0  0  0  0  0  0  0  0  0  0  0
    1.8680   -0.6030   -2.4130 H   0  0  0  0  0  0  0  0  0  0  0  0
    0.7309   -1.8455   -1.8705 H   0  0  0  0  0  0  0  0  0  0  0  0
    1.2280   -0.5563   -0.7648 H   0  0  0  0  0  0  0  0  0  0  0  0
   -0.3633   -0.1824   -3.3683 H   0  0  0  0  0  0  0  0  0  0  0  0
   -0.5977    2.1250   -2.8229 H   0  0  0  0  0  0  0  0  0  0  0  0
    1.0941    1.8530   -2.3829 H   0  0  0  0  0  0  0  0  0  0  0  0
   -0.6811    2.9000   -0.6011 H   0  0  0  0  0  0  0  0  0  0  0  0
    0.5870    1.8001   -0.0695 H   0  0  0  0  0  0  0  0  0  0  0  0
   -0.8769    0.2219    0.5416 H   0  0  0  0  0  0  0  0  0  0  0  0
   -5.8174    4.3460    1.5563 H   0  0  0  0  0  0  0  0  0  0  0  0
   -7.5608    5.8443    0.6719 H   0  0  0  0  0  0  0  0  0  0  0  0
   -7.4110    5.1828   -3.7293 H   0  0  0  0  0  0  0  0  0  0  0  0
   -5.1134    2.8259   -2.4312 H   0  0  0  0  0  0  0  0  0  0  0  0
   -6.9487    2.3146    2.0124 H   0  0  0  0  0  0  0  0  0  0  0  0
   -6.7839    1.8568    3.6538 H   0  0  0  0  0  0  0  0  0  0  0  0
   -3.0985   -0.2642    4.3247 H   0  0  0  0  0  0  0  0  0  0  0  0
   -2.3345    0.1384   -2.1096 H   0  0  0  0  0  0  0  0  0  0  0  0
   -1.6104   -1.1814   -1.1935 H   0  0  0  0  0  0  0  0  0  0  0  0
  1  2  1  0  0  0  0
  1 25  1  0  0  0  0
  1 26  1  0  0  0  0
  1 27  1  0  0  0  0
  2  3  1  0  0  0  0
  2 24  1  0  0  0  0
  2 28  1  0  0  0  0
  3  4  1  0  0  0  0
  3 29  1  0  0  0  0
  3 30  1  0  0  0  0
  4  5  1  0  0  0  0
  4 31  1  0  0  0  0
  4 32  1  0  0  0  0
  5  6  1  0  0  0  0
  5 24  1  0  0  0  0
  5 33  1  0  0  0  0
  6  7  1  0  0  0  0
  6 23  1  0  0  0  0
  7  8  2  0  0  0  0
  8  9  1  0  0  0  0
  8 17  1  0  0  0  0
  9 10  1  0  0  0  0
  9 16  2  0  0  0  0
 10 11  2  0  0  0  0
 10 34  1  0  0  0  0
 11 12  1  0  0  0  0
 11 35  1  0  0  0  0
 12 13  1  0  0  0  0
 12 14  2  0  0  0  0
 14 15  1  0  0  0  0
 14 16  1  0  0  0  0
 15 36  1  0  0  0  0
 16 37  1  0  0  0  0
 17 18  1  0  0  0  0
 17 23  2  0  0  0  0
 18 19  1  0  0  0  0
 18 20  2  0  0  0  0
 19 38  1  0  0  0  0
 19 39  1  0  0  0  0
 20 21  1  0  0  0  0
 21 22  2  0  0  0  0
 21 40  1  0  0  0  0
 22 23  1  0  0  0  0
 24 41  1  0  0  0  0
 24 42  1  0  0  0  0
M  END
$$$$
