CHEMBL3323613
 OpenBabel04072215363D

 42 46  0  0  0  0  0  0  0  0999 V2000
   -2.4599    0.8549   -1.1602 Cl  0  0  0  0  0  0  0  0  0  0  0  0
   -1.1093   -0.0005   -0.5233 C   0  0  0  0  0  0  0  0  0  0  0  0
   -0.0294    0.7050   -0.0000 C   0  0  0  0  0  0  0  0  0  0  0  0
    1.0510    0.0018    0.5228 C   0  0  0  0  0  0  0  0  0  0  0  0
    2.3951    0.8614    1.1694 Cl  0  0  0  0  0  0  0  0  0  0  0  0
    1.0585   -1.3923    0.5252 C   0  0  0  0  0  0  0  0  0  0  0  0
   -0.0218   -2.1037   -0.0115 C   0  0  0  0  0  0  0  0  0  0  0  0
    0.0136   -3.5649    0.0016 C   0  0  0  0  0  0  0  0  0  0  0  0
    0.6352   -4.3153    0.8913 N   0  0  0  0  0  0  0  0  0  0  0  0
    0.3971   -5.6150    0.5258 C   0  0  0  0  0  0  0  0  0  0  0  0
    0.7939   -6.8106    1.1352 C   0  0  0  0  0  0  0  0  0  0  0  0
    0.3981   -8.0230    0.5487 C   0  0  0  0  0  0  0  0  0  0  0  0
   -0.3733   -8.0565   -0.6245 C   0  0  0  0  0  0  0  0  0  0  0  0
   -0.7291   -9.3009   -1.1749 N   0  0  0  0  0  0  0  0  0  0  0  0
   -0.8122   -9.7290   -2.5199 C   0  0  0  0  0  0  0  0  0  0  0  0
   -0.0745   -9.0862   -3.5177 C   0  0  0  0  0  0  0  0  0  0  0  0
   -0.1747   -9.5358   -4.8180 C   0  0  0  0  0  0  0  0  0  0  0  0
   -0.9494  -10.5699   -5.1945 N   0  0  0  0  0  0  0  0  0  0  0  0
   -1.6773  -11.1877   -4.2517 C   0  0  0  0  0  0  0  0  0  0  0  0
   -2.4672  -12.2611   -4.6400 C   0  0  0  0  0  0  0  0  0  0  0  0
   -3.2720  -12.9547   -3.7347 C   0  0  0  0  0  0  0  0  0  0  0  0
   -3.3079  -12.5577   -2.4066 C   0  0  0  0  0  0  0  0  0  0  0  0
   -2.5210  -11.4862   -1.9889 C   0  0  0  0  0  0  0  0  0  0  0  0
   -1.6721  -10.7971   -2.8923 C   0  0  0  0  0  0  0  0  0  0  0  0
   -0.7400   -6.8570   -1.2531 C   0  0  0  0  0  0  0  0  0  0  0  0
   -0.3579   -5.6671   -0.6380 C   0  0  0  0  0  0  0  0  0  0  0  0
   -0.5836   -4.3536   -0.9524 N   0  0  0  0  0  0  0  0  0  0  0  0
   -1.1120   -1.3956   -0.5337 C   0  0  0  0  0  0  0  0  0  0  0  0
   -0.0299    1.7922    0.0010 H   0  0  0  0  0  0  0  0  0  0  0  0
    1.9052   -1.9329    0.9461 H   0  0  0  0  0  0  0  0  0  0  0  0
    1.3906   -6.7908    2.0405 H   0  0  0  0  0  0  0  0  0  0  0  0
    0.7185   -8.9512    1.0174 H   0  0  0  0  0  0  0  0  0  0  0  0
   -0.8990  -10.0218   -0.4846 H   0  0  0  0  0  0  0  0  0  0  0  0
    0.6046   -8.2732   -3.2877 H   0  0  0  0  0  0  0  0  0  0  0  0
    0.3943   -9.0686   -5.6170 H   0  0  0  0  0  0  0  0  0  0  0  0
   -2.4531  -12.5693   -5.6832 H   0  0  0  0  0  0  0  0  0  0  0  0
   -3.8709  -13.7947   -4.0729 H   0  0  0  0  0  0  0  0  0  0  0  0
   -3.9470  -13.0763   -1.6959 H   0  0  0  0  0  0  0  0  0  0  0  0
   -2.5879  -11.1855   -0.9462 H   0  0  0  0  0  0  0  0  0  0  0  0
   -1.3433   -6.8567   -2.1547 H   0  0  0  0  0  0  0  0  0  0  0  0
   -1.0980   -4.0229   -1.7561 H   0  0  0  0  0  0  0  0  0  0  0  0
   -1.9807   -1.9186   -0.9275 H   0  0  0  0  0  0  0  0  0  0  0  0
  1  2  1  0  0  0  0
  2  3  1  0  0  0  0
  2 28  2  0  0  0  0
  3  4  2  0  0  0  0
  3 29  1  0  0  0  0
  4  5  1  0  0  0  0
  4  6  1  0  0  0  0
  6  7  2  0  0  0  0
  6 30  1  0  0  0  0
  7  8  1  0  0  0  0
  7 28  1  0  0  0  0
  8  9  2  0  0  0  0
  8 27  1  0  0  0  0
  9 10  1  0  0  0  0
 10 11  1  0  0  0  0
 10 26  2  0  0  0  0
 11 12  2  0  0  0  0
 11 31  1  0  0  0  0
 12 13  1  0  0  0  0
 12 32  1  0  0  0  0
 13 14  1  0  0  0  0
 13 25  2  0  0  0  0
 14 15  1  0  0  0  0
 14 33  1  0  0  0  0
 15 16  1  0  0  0  0
 15 24  2  0  0  0  0
 16 17  2  0  0  0  0
 16 34  1  0  0  0  0
 17 18  1  0  0  0  0
 17 35  1  0  0  0  0
 18 19  2  0  0  0  0
 19 20  1  0  0  0  0
 19 24  1  0  0  0  0
 20 21  2  0  0  0  0
 20 36  1  0  0  0  0
 21 22  1  0  0  0  0
 21 37  1  0  0  0  0
 22 23  2  0  0  0  0
 22 38  1  0  0  0  0
 23 24  1  0  0  0  0
 23 39  1  0  0  0  0
 25 26  1  0  0  0  0
 25 40  1  0  0  0  0
 26 27  1  0  0  0  0
 27 41  1  0  0  0  0
 28 42  1  0  0  0  0
M  END
$$$$
