CHEMBL3593292
 OpenBabel04072215363D

 70 75  0  0  0  0  0  0  0  0999 V2000
    0.9031   -4.9255   11.5801 C   0  0  0  0  0  0  0  0  0  0  0  0
    0.8918   -4.2115   10.2356 C   0  0  0  0  0  0  0  0  0  0  0  0
    1.3347   -5.0173    9.0887 N   0  0  0  0  0  0  0  0  0  0  0  0
    2.7814   -5.3502    9.0951 C   0  0  0  0  0  0  0  0  0  0  0  0
    3.7916   -4.2253    8.7192 C   0  0  0  0  0  0  0  0  0  0  0  0
    3.3193   -3.4258    7.5764 N   0  0  0  0  0  0  0  0  0  0  0  0
    4.0647   -3.0607    6.4751 C   0  0  0  0  0  0  0  0  0  0  0  0
    5.4125   -3.3005    6.3837 C   0  0  0  0  0  0  0  0  0  0  0  0
    6.1284   -2.8683    5.2769 C   0  0  0  0  0  0  0  0  0  0  0  0
    7.5171   -3.0054    5.1691 N   0  0  0  0  0  0  0  0  0  0  0  0
    8.3631   -3.1350    6.2163 C   0  0  0  0  0  0  0  0  0  0  0  0
    7.9908   -3.4342    7.4397 N   0  0  0  0  0  0  0  0  0  0  0  0
    9.0433   -3.4249    8.2986 C   0  0  0  0  0  0  0  0  0  0  0  0
   10.2721   -3.1662    7.7335 C   0  0  0  0  0  0  0  0  0  0  0  0
   11.5575   -3.1838    8.4197 C   0  0  0  0  0  0  0  0  0  0  0  0
   11.7261   -4.1067    9.4647 C   0  0  0  0  0  0  0  0  0  0  0  0
   12.8887   -4.1385   10.2252 C   0  0  0  0  0  0  0  0  0  0  0  0
   13.9137   -3.2431    9.9553 C   0  0  0  0  0  0  0  0  0  0  0  0
   15.1012   -3.2097   10.6865 N   0  0  0  0  0  0  0  0  0  0  0  0
   15.5319   -4.0162   11.7133 C   0  0  0  0  0  0  0  0  0  0  0  0
   14.9176   -4.9636   12.1992 O   0  0  0  0  0  0  0  0  0  0  0  0
   16.8067   -3.7575   12.1752 N   0  0  0  0  0  0  0  0  0  0  0  0
   17.6125   -2.7014   11.7958 C   0  0  0  0  0  0  0  0  0  0  0  0
   19.0048   -2.5556   12.0317 C   0  0  0  0  0  0  0  0  0  0  0  0
   19.3467   -1.4244   11.3182 C   0  0  0  0  0  0  0  0  0  0  0  0
   20.6882   -0.8144   10.9973 C   0  0  0  0  0  0  0  0  0  0  0  0
   21.9003   -1.7124   10.9068 C   0  0  0  0  0  0  0  0  0  0  0  0
   21.8050   -0.7000   11.9982 C   0  0  0  0  0  0  0  0  0  0  0  0
   18.2200   -0.8740   10.8018 O   0  0  0  0  0  0  0  0  0  0  0  0
   17.1481   -1.6600   11.0954 N   0  0  0  0  0  0  0  0  0  0  0  0
   13.7597   -2.3174    8.9082 C   0  0  0  0  0  0  0  0  0  0  0  0
   12.5886   -2.2859    8.1420 C   0  0  0  0  0  0  0  0  0  0  0  0
   10.0657   -2.8763    6.0546 S   0  0  0  0  0  0  0  0  0  0  0  0
    5.5109   -2.2614    4.2504 N   0  0  0  0  0  0  0  0  0  0  0  0
    4.1886   -2.0697    4.3917 C   0  0  0  0  0  0  0  0  0  0  0  0
    3.4504   -1.3739    3.2906 C   0  0  0  0  0  0  0  0  0  0  0  0
    3.4535   -2.4347    5.4590 N   0  0  0  0  0  0  0  0  0  0  0  0
    1.9163   -3.0197    7.6369 C   0  0  0  0  0  0  0  0  0  0  0  0
    1.0505   -4.2814    7.8260 C   0  0  0  0  0  0  0  0  0  0  0  0
    0.6147   -4.2120   12.3611 H   0  0  0  0  0  0  0  0  0  0  0  0
    1.8903   -5.3120   11.8430 H   0  0  0  0  0  0  0  0  0  0  0  0
    0.1815   -5.7479   11.6012 H   0  0  0  0  0  0  0  0  0  0  0  0
    1.4692   -3.2877   10.3340 H   0  0  0  0  0  0  0  0  0  0  0  0
   -0.1520   -3.9182   10.0590 H   0  0  0  0  0  0  0  0  0  0  0  0
    2.9180   -6.1573    8.3611 H   0  0  0  0  0  0  0  0  0  0  0  0
    3.0791   -5.7970   10.0503 H   0  0  0  0  0  0  0  0  0  0  0  0
    4.7436   -4.7279    8.5215 H   0  0  0  0  0  0  0  0  0  0  0  0
    3.9514   -3.5657    9.5802 H   0  0  0  0  0  0  0  0  0  0  0  0
    5.9077   -3.8170    7.1843 H   0  0  0  0  0  0  0  0  0  0  0  0
    7.8509   -2.6199    4.2962 H   0  0  0  0  0  0  0  0  0  0  0  0
    8.8641   -3.6334    9.3461 H   0  0  0  0  0  0  0  0  0  0  0  0
   10.9422   -4.8189    9.7121 H   0  0  0  0  0  0  0  0  0  0  0  0
   12.9552   -4.8637   11.0295 H   0  0  0  0  0  0  0  0  0  0  0  0
   15.7448   -2.4689   10.4309 H   0  0  0  0  0  0  0  0  0  0  0  0
   17.1709   -4.4533   12.8097 H   0  0  0  0  0  0  0  0  0  0  0  0
   19.6677   -3.2355   12.5451 H   0  0  0  0  0  0  0  0  0  0  0  0
   20.6125    0.0107   10.2942 H   0  0  0  0  0  0  0  0  0  0  0  0
   22.5673   -1.5318   10.0707 H   0  0  0  0  0  0  0  0  0  0  0  0
   21.8299   -2.7553   11.1903 H   0  0  0  0  0  0  0  0  0  0  0  0
   22.4308    0.1852   11.9227 H   0  0  0  0  0  0  0  0  0  0  0  0
   21.6453   -1.0359   13.0139 H   0  0  0  0  0  0  0  0  0  0  0  0
   14.5496   -1.6057    8.6808 H   0  0  0  0  0  0  0  0  0  0  0  0
   12.4906   -1.5401    7.3579 H   0  0  0  0  0  0  0  0  0  0  0  0
    4.1173   -1.1330    2.4585 H   0  0  0  0  0  0  0  0  0  0  0  0
    3.0129   -0.4453    3.6701 H   0  0  0  0  0  0  0  0  0  0  0  0
    2.6446   -2.0148    2.9196 H   0  0  0  0  0  0  0  0  0  0  0  0
    1.5616   -2.4819    6.7525 H   0  0  0  0  0  0  0  0  0  0  0  0
    1.7876   -2.3166    8.4691 H   0  0  0  0  0  0  0  0  0  0  0  0
    1.2307   -4.9612    6.9813 H   0  0  0  0  0  0  0  0  0  0  0  0
   -0.0106   -4.0151    7.7762 H   0  0  0  0  0  0  0  0  0  0  0  0
  1  2  1  0  0  0  0
  1 40  1  0  0  0  0
  1 41  1  0  0  0  0
  1 42  1  0  0  0  0
  2  3  1  0  0  0  0
  2 43  1  0  0  0  0
  2 44  1  0  0  0  0
  3  4  1  0  0  0  0
  3 39  1  0  0  0  0
  4  5  1  0  0  0  0
  4 45  1  0  0  0  0
  4 46  1  0  0  0  0
  5  6  1  0  0  0  0
  5 47  1  0  0  0  0
  5 48  1  0  0  0  0
  6  7  1  0  0  0  0
  6 38  1  0  0  0  0
  7  8  1  0  0  0  0
  7 37  2  0  0  0  0
  8  9  2  0  0  0  0
  8 49  1  0  0  0  0
  9 10  1  0  0  0  0
  9 34  1  0  0  0  0
 10 11  1  0  0  0  0
 10 50  1  0  0  0  0
 11 12  2  0  0  0  0
 11 33  1  0  0  0  0
 12 13  1  0  0  0  0
 13 14  2  0  0  0  0
 13 51  1  0  0  0  0
 14 15  1  0  0  0  0
 14 33  1  0  0  0  0
 15 16  1  0  0  0  0
 15 32  2  0  0  0  0
 16 17  2  0  0  0  0
 16 52  1  0  0  0  0
 17 18  1  0  0  0  0
 17 53  1  0  0  0  0
 18 19  1  0  0  0  0
 18 31  2  0  0  0  0
 19 20  1  0  0  0  0
 19 54  1  0  0  0  0
 20 21  2  0  0  0  0
 20 22  1  0  0  0  0
 22 23  1  0  0  0  0
 22 55  1  0  0  0  0
 23 24  1  0  0  0  0
 23 30  2  0  0  0  0
 24 25  2  0  0  0  0
 24 56  1  0  0  0  0
 25 26  1  0  0  0  0
 25 29  1  0  0  0  0
 26 27  1  0  0  0  0
 26 28  1  0  0  0  0
 26 57  1  0  0  0  0
 27 28  1  0  0  0  0
 27 58  1  0  0  0  0
 27 59  1  0  0  0  0
 28 60  1  0  0  0  0
 28 61  1  0  0  0  0
 29 30  1  0  0  0  0
 31 32  1  0  0  0  0
 31 62  1  0  0  0  0
 32 63  1  0  0  0  0
 34 35  2  0  0  0  0
 35 36  1  0  0  0  0
 35 37  1  0  0  0  0
 36 64  1  0  0  0  0
 36 65  1  0  0  0  0
 36 66  1  0  0  0  0
 38 39  1  0  0  0  0
 38 67  1  0  0  0  0
 38 68  1  0  0  0  0
 39 69  1  0  0  0  0
 39 70  1  0  0  0  0
M  END
$$$$
