CHEMBL3920210
 OpenBabel04072215373D

 53 56  0  0  0  0  0  0  0  0999 V2000
    1.9418   -5.8712   -2.8910 C   0  0  0  0  0  0  0  0  0  0  0  0
    1.5811   -5.3025   -4.5714 S   0  0  0  0  0  0  0  0  0  0  0  0
    2.6141   -3.8587   -4.6354 C   0  0  0  0  0  0  0  0  0  0  0  0
    3.2801   -3.4946   -3.5280 N   0  0  0  0  0  0  0  0  0  0  0  0
    4.0961   -2.4351   -3.6459 C   0  0  0  0  0  0  0  0  0  0  0  0
    4.2730   -1.7290   -4.8175 C   0  0  0  0  0  0  0  0  0  0  0  0
    3.5212   -2.1589   -5.8932 C   0  0  0  0  0  0  0  0  0  0  0  0
    2.6910   -3.2231   -5.8181 N   0  0  0  0  0  0  0  0  0  0  0  0
    3.6718   -1.5015   -7.2386 C   0  0  0  0  0  0  0  0  0  0  0  0
    4.2938   -0.1101   -7.1193 C   0  0  0  0  0  0  0  0  0  0  0  0
    5.4900   -0.1552   -6.2657 N   0  0  0  0  0  0  0  0  0  0  0  0
    6.7773   -0.0457   -6.7874 C   0  0  0  0  0  0  0  0  0  0  0  0
    7.0340   -0.4743   -8.1197 C   0  0  0  0  0  0  0  0  0  0  0  0
    8.2959   -0.3576   -8.7191 C   0  0  0  0  0  0  0  0  0  0  0  0
    8.6303   -0.8852  -10.0710 C   0  0  0  0  0  0  0  0  0  0  0  0
    9.7792   -1.3034  -10.2237 O   0  0  0  0  0  0  0  0  0  0  0  0
    7.6624   -0.8043  -11.0620 N   0  0  0  0  0  0  0  0  0  0  0  0
    7.8589   -1.2010  -12.4145 C   0  0  0  0  0  0  0  0  0  0  0  0
    8.9171   -2.0160  -12.8242 C   0  0  0  0  0  0  0  0  0  0  0  0
    9.1132   -2.3329  -14.1713 C   0  0  0  0  0  0  0  0  0  0  0  0
    8.2411   -1.8392  -15.1347 C   0  0  0  0  0  0  0  0  0  0  0  0
    7.1568   -1.0359  -14.7548 C   0  0  0  0  0  0  0  0  0  0  0  0
    6.2262   -0.4729  -15.8007 C   0  0  0  0  0  0  0  0  0  0  0  0
    6.5692   -0.8075  -17.0773 F   0  0  0  0  0  0  0  0  0  0  0  0
    4.9416   -0.8927  -15.6385 F   0  0  0  0  0  0  0  0  0  0  0  0
    6.1803    0.8884  -15.7749 F   0  0  0  0  0  0  0  0  0  0  0  0
    6.9625   -0.7379  -13.3872 C   0  0  0  0  0  0  0  0  0  0  0  0
    9.3417    0.2019   -7.9918 C   0  0  0  0  0  0  0  0  0  0  0  0
    9.1353    0.6195   -6.6852 C   0  0  0  0  0  0  0  0  0  0  0  0
    7.8749    0.4971   -6.0640 C   0  0  0  0  0  0  0  0  0  0  0  0
    7.8099    1.0244   -4.6500 C   0  0  0  0  0  0  0  0  0  0  0  0
    5.2363   -0.5836   -4.8884 C   0  0  0  0  0  0  0  0  0  0  0  0
    1.4108   -6.8091   -2.7089 H   0  0  0  0  0  0  0  0  0  0  0  0
    1.6014   -5.1369   -2.1553 H   0  0  0  0  0  0  0  0  0  0  0  0
    3.0123   -6.0557   -2.7576 H   0  0  0  0  0  0  0  0  0  0  0  0
    4.6399   -2.1774   -2.7405 H   0  0  0  0  0  0  0  0  0  0  0  0
    2.6935   -1.4245   -7.7260 H   0  0  0  0  0  0  0  0  0  0  0  0
    4.3054   -2.1465   -7.8579 H   0  0  0  0  0  0  0  0  0  0  0  0
    3.5711    0.5768   -6.6576 H   0  0  0  0  0  0  0  0  0  0  0  0
    4.4965    0.3088   -8.1118 H   0  0  0  0  0  0  0  0  0  0  0  0
    6.2517   -0.9702   -8.6824 H   0  0  0  0  0  0  0  0  0  0  0  0
    6.8229   -0.2799  -10.8576 H   0  0  0  0  0  0  0  0  0  0  0  0
    9.6252   -2.4364  -12.1157 H   0  0  0  0  0  0  0  0  0  0  0  0
    9.9558   -2.9562  -14.4626 H   0  0  0  0  0  0  0  0  0  0  0  0
    8.4153   -2.0799  -16.1820 H   0  0  0  0  0  0  0  0  0  0  0  0
    6.1231   -0.1060  -13.1043 H   0  0  0  0  0  0  0  0  0  0  0  0
   10.3306    0.2997   -8.4349 H   0  0  0  0  0  0  0  0  0  0  0  0
    9.9786    1.0501   -6.1476 H   0  0  0  0  0  0  0  0  0  0  0  0
    8.7744    1.4377   -4.3328 H   0  0  0  0  0  0  0  0  0  0  0  0
    7.6061    0.2344   -3.9262 H   0  0  0  0  0  0  0  0  0  0  0  0
    7.0710    1.8252   -4.5674 H   0  0  0  0  0  0  0  0  0  0  0  0
    4.8313    0.2623   -4.3187 H   0  0  0  0  0  0  0  0  0  0  0  0
    6.1427   -0.9479   -4.4048 H   0  0  0  0  0  0  0  0  0  0  0  0
  1  2  1  0  0  0  0
  1 33  1  0  0  0  0
  1 34  1  0  0  0  0
  1 35  1  0  0  0  0
  2  3  1  0  0  0  0
  3  4  1  0  0  0  0
  3  8  2  0  0  0  0
  4  5  2  0  0  0  0
  5  6  1  0  0  0  0
  5 36  1  0  0  0  0
  6  7  2  0  0  0  0
  6 32  1  0  0  0  0
  7  8  1  0  0  0  0
  7  9  1  0  0  0  0
  9 10  1  0  0  0  0
  9 37  1  0  0  0  0
  9 38  1  0  0  0  0
 10 11  1  0  0  0  0
 10 39  1  0  0  0  0
 10 40  1  0  0  0  0
 11 12  1  0  0  0  0
 11 32  1  0  0  0  0
 12 13  1  0  0  0  0
 12 30  2  0  0  0  0
 13 14  2  0  0  0  0
 13 41  1  0  0  0  0
 14 15  1  0  0  0  0
 14 28  1  0  0  0  0
 15 16  2  0  0  0  0
 15 17  1  0  0  0  0
 17 18  1  0  0  0  0
 17 42  1  0  0  0  0
 18 19  1  0  0  0  0
 18 27  2  0  0  0  0
 19 20  2  0  0  0  0
 19 43  1  0  0  0  0
 20 21  1  0  0  0  0
 20 44  1  0  0  0  0
 21 22  2  0  0  0  0
 21 45  1  0  0  0  0
 22 23  1  0  0  0  0
 22 27  1  0  0  0  0
 23 24  1  0  0  0  0
 23 25  1  0  0  0  0
 23 26  1  0  0  0  0
 27 46  1  0  0  0  0
 28 29  2  0  0  0  0
 28 47  1  0  0  0  0
 29 30  1  0  0  0  0
 29 48  1  0  0  0  0
 30 31  1  0  0  0  0
 31 49  1  0  0  0  0
 31 50  1  0  0  0  0
 31 51  1  0  0  0  0
 32 52  1  0  0  0  0
 32 53  1  0  0  0  0
M  END
$$$$
