CHEMBL3403509
 OpenBabel04072215363D

 42 44  0  0  0  0  0  0  0  0999 V2000
    3.8026   -1.2702   -1.3032 C   0  0  0  0  0  0  0  0  0  0  0  0
    3.7854   -0.5077   -0.0990 O   0  0  0  0  0  0  0  0  0  0  0  0
    4.1709    0.8006   -0.1950 C   0  0  0  0  0  0  0  0  0  0  0  0
    4.4831    1.4640   -1.3716 C   0  0  0  0  0  0  0  0  0  0  0  0
    4.8767    2.8059   -1.3352 C   0  0  0  0  0  0  0  0  0  0  0  0
    4.9885    3.5418   -0.1359 C   0  0  0  0  0  0  0  0  0  0  0  0
    5.3914    4.8899   -0.2002 N   0  0  0  0  0  0  0  0  0  0  0  0
    6.5215    5.2377   -1.0710 C   0  0  0  0  0  0  0  0  0  0  0  0
    4.8501    6.0111    0.4582 C   0  0  0  0  0  0  0  0  0  0  0  0
    5.6628    7.0358    0.8472 N   0  0  0  0  0  0  0  0  0  0  0  0
    5.1300    8.1615    1.3825 C   0  0  0  0  0  0  0  0  0  0  0  0
    6.1011    9.2145    1.8229 C   0  0  0  0  0  0  0  0  0  0  0  0
    3.8284    8.4315    1.5277 N   0  0  0  0  0  0  0  0  0  0  0  0
    3.0575    7.4149    1.1241 C   0  0  0  0  0  0  0  0  0  0  0  0
    1.6914    7.4800    1.0897 O   0  0  0  0  0  0  0  0  0  0  0  0
    1.2444    6.2941    0.5871 C   0  0  0  0  0  0  0  0  0  0  0  0
   -0.2013    6.1582    0.3321 C   0  0  0  0  0  0  0  0  0  0  0  0
    2.3001    5.4447    0.3599 C   0  0  0  0  0  0  0  0  0  0  0  0
    3.4732    6.1876    0.6319 C   0  0  0  0  0  0  0  0  0  0  0  0
    4.6214    2.8643    1.0491 C   0  0  0  0  0  0  0  0  0  0  0  0
    4.4954    3.4140    2.2984 O   0  0  0  0  0  0  0  0  0  0  0  0
    5.6036    4.1422    2.8122 C   0  0  0  0  0  0  0  0  0  0  0  0
    4.2196    1.5125    1.0037 C   0  0  0  0  0  0  0  0  0  0  0  0
    3.5054   -2.2952   -1.0608 H   0  0  0  0  0  0  0  0  0  0  0  0
    4.8091   -1.3092   -1.7342 H   0  0  0  0  0  0  0  0  0  0  0  0
    3.0799   -0.8796   -2.0277 H   0  0  0  0  0  0  0  0  0  0  0  0
    4.4122    0.9836   -2.3416 H   0  0  0  0  0  0  0  0  0  0  0  0
    5.0407    3.2911   -2.2935 H   0  0  0  0  0  0  0  0  0  0  0  0
    6.5063    4.7021   -2.0236 H   0  0  0  0  0  0  0  0  0  0  0  0
    7.4697    5.0129   -0.5727 H   0  0  0  0  0  0  0  0  0  0  0  0
    6.5205    6.2966   -1.3569 H   0  0  0  0  0  0  0  0  0  0  0  0
    7.1332    8.8595    1.7389 H   0  0  0  0  0  0  0  0  0  0  0  0
    5.9130    9.4801    2.8677 H   0  0  0  0  0  0  0  0  0  0  0  0
    5.9913   10.1094    1.2022 H   0  0  0  0  0  0  0  0  0  0  0  0
   -0.7565    7.0435    0.6525 H   0  0  0  0  0  0  0  0  0  0  0  0
   -0.6016    5.2836    0.8521 H   0  0  0  0  0  0  0  0  0  0  0  0
   -0.3702    6.0204   -0.7421 H   0  0  0  0  0  0  0  0  0  0  0  0
    2.2321    4.4370   -0.0255 H   0  0  0  0  0  0  0  0  0  0  0  0
    5.2336    5.1086    3.1722 H   0  0  0  0  0  0  0  0  0  0  0  0
    6.4227    4.2951    2.1053 H   0  0  0  0  0  0  0  0  0  0  0  0
    6.0018    3.6053    3.6782 H   0  0  0  0  0  0  0  0  0  0  0  0
    3.9442    1.0096    1.9272 H   0  0  0  0  0  0  0  0  0  0  0  0
  1  2  1  0  0  0  0
  1 24  1  0  0  0  0
  1 25  1  0  0  0  0
  1 26  1  0  0  0  0
  2  3  1  0  0  0  0
  3  4  1  0  0  0  0
  3 23  2  0  0  0  0
  4  5  2  0  0  0  0
  4 27  1  0  0  0  0
  5  6  1  0  0  0  0
  5 28  1  0  0  0  0
  6  7  1  0  0  0  0
  6 20  2  0  0  0  0
  7  8  1  0  0  0  0
  7  9  1  0  0  0  0
  8 29  1  0  0  0  0
  8 30  1  0  0  0  0
  8 31  1  0  0  0  0
  9 10  1  0  0  0  0
  9 19  2  0  0  0  0
 10 11  2  0  0  0  0
 11 12  1  0  0  0  0
 11 13  1  0  0  0  0
 12 32  1  0  0  0  0
 12 33  1  0  0  0  0
 12 34  1  0  0  0  0
 13 14  2  0  0  0  0
 14 15  1  0  0  0  0
 14 19  1  0  0  0  0
 15 16  1  0  0  0  0
 16 17  1  0  0  0  0
 16 18  2  0  0  0  0
 17 35  1  0  0  0  0
 17 36  1  0  0  0  0
 17 37  1  0  0  0  0
 18 19  1  0  0  0  0
 18 38  1  0  0  0  0
 20 21  1  0  0  0  0
 20 23  1  0  0  0  0
 21 22  1  0  0  0  0
 22 39  1  0  0  0  0
 22 40  1  0  0  0  0
 22 41  1  0  0  0  0
 23 42  1  0  0  0  0
M  END
$$$$
