CHEMBL2332840
 OpenBabel04072215363D

 43 46  0  0  0  0  0  0  0  0999 V2000
    1.1164   -0.3249   -0.6160 O   0  0  0  0  0  0  0  0  0  0  0  0
    2.2052   -0.0533   -0.1237 C   0  0  0  0  0  0  0  0  0  0  0  0
    2.7606   -0.7217    0.9581 N   0  0  0  0  0  0  0  0  0  0  0  0
    2.1551   -1.7934    1.6594 C   0  0  0  0  0  0  0  0  0  0  0  0
    1.0356   -2.4818    1.1875 C   0  0  0  0  0  0  0  0  0  0  0  0
    0.4296   -3.4820    1.9502 C   0  0  0  0  0  0  0  0  0  0  0  0
    0.9694   -3.8562    3.1780 C   0  0  0  0  0  0  0  0  0  0  0  0
    0.4166   -4.8097    4.0041 O   0  0  0  0  0  0  0  0  0  0  0  0
   -0.2463   -5.8832    3.4235 C   0  0  0  0  0  0  0  0  0  0  0  0
    0.1423   -6.3586    2.2120 N   0  0  0  0  0  0  0  0  0  0  0  0
   -0.5464   -7.3868    1.6819 C   0  0  0  0  0  0  0  0  0  0  0  0
   -1.5821   -8.0538    2.2226 N   0  0  0  0  0  0  0  0  0  0  0  0
   -1.8894   -7.5728    3.4374 C   0  0  0  0  0  0  0  0  0  0  0  0
   -2.8701   -8.0240    4.2727 N   0  0  0  0  0  0  0  0  0  0  0  0
   -2.9461   -7.3423    5.4353 N   0  0  0  0  0  0  0  0  0  0  0  0
   -1.9774   -6.4254    5.3184 C   0  0  0  0  0  0  0  0  0  0  0  0
   -1.2832   -6.5196    4.0950 C   0  0  0  0  0  0  0  0  0  0  0  0
    2.0939   -3.1818    3.6579 C   0  0  0  0  0  0  0  0  0  0  0  0
    2.6904   -2.1633    2.8985 C   0  0  0  0  0  0  0  0  0  0  0  0
    3.0131    0.9832   -0.5663 N   0  0  0  0  0  0  0  0  0  0  0  0
    2.6919    1.9159   -1.5818 C   0  0  0  0  0  0  0  0  0  0  0  0
    1.4794    1.9320   -2.2706 C   0  0  0  0  0  0  0  0  0  0  0  0
    1.2341    2.8746   -3.2701 C   0  0  0  0  0  0  0  0  0  0  0  0
    2.1897    3.8402   -3.5905 C   0  0  0  0  0  0  0  0  0  0  0  0
    1.7768    4.9345   -4.8565 Cl  0  0  0  0  0  0  0  0  0  0  0  0
    3.4016    3.8761   -2.8971 C   0  0  0  0  0  0  0  0  0  0  0  0
    4.4732    4.9117   -3.1153 C   0  0  0  0  0  0  0  0  0  0  0  0
    4.2382    5.8464   -4.0705 F   0  0  0  0  0  0  0  0  0  0  0  0
    4.7215    5.6163   -1.9723 F   0  0  0  0  0  0  0  0  0  0  0  0
    5.6665    4.3401   -3.4487 F   0  0  0  0  0  0  0  0  0  0  0  0
    3.6412    2.8934   -1.9015 C   0  0  0  0  0  0  0  0  0  0  0  0
    3.5750   -0.3112    1.3879 H   0  0  0  0  0  0  0  0  0  0  0  0
    0.5939   -2.2727    0.2189 H   0  0  0  0  0  0  0  0  0  0  0  0
   -0.4627   -3.9574    1.5532 H   0  0  0  0  0  0  0  0  0  0  0  0
   -0.2295   -7.7109    0.6947 H   0  0  0  0  0  0  0  0  0  0  0  0
   -3.5121   -8.7894    4.1012 H   0  0  0  0  0  0  0  0  0  0  0  0
   -1.8178   -5.7259    6.1286 H   0  0  0  0  0  0  0  0  0  0  0  0
    2.5066   -3.4424    4.6291 H   0  0  0  0  0  0  0  0  0  0  0  0
    3.5596   -1.6545    3.3065 H   0  0  0  0  0  0  0  0  0  0  0  0
    3.9346    1.0475   -0.1625 H   0  0  0  0  0  0  0  0  0  0  0  0
    0.6850    1.2212   -2.0651 H   0  0  0  0  0  0  0  0  0  0  0  0
    0.2804    2.8436   -3.7935 H   0  0  0  0  0  0  0  0  0  0  0  0
    4.5927    2.9181   -1.3689 H   0  0  0  0  0  0  0  0  0  0  0  0
  1  2  2  0  0  0  0
  2  3  1  0  0  0  0
  2 20  1  0  0  0  0
  3  4  1  0  0  0  0
  3 32  1  0  0  0  0
  4  5  1  0  0  0  0
  4 19  2  0  0  0  0
  5  6  2  0  0  0  0
  5 33  1  0  0  0  0
  6  7  1  0  0  0  0
  6 34  1  0  0  0  0
  7  8  1  0  0  0  0
  7 18  2  0  0  0  0
  8  9  1  0  0  0  0
  9 10  1  0  0  0  0
  9 17  2  0  0  0  0
 10 11  2  0  0  0  0
 11 12  1  0  0  0  0
 11 35  1  0  0  0  0
 12 13  2  0  0  0  0
 13 14  1  0  0  0  0
 13 17  1  0  0  0  0
 14 15  1  0  0  0  0
 14 36  1  0  0  0  0
 15 16  2  0  0  0  0
 16 17  1  0  0  0  0
 16 37  1  0  0  0  0
 18 19  1  0  0  0  0
 18 38  1  0  0  0  0
 19 39  1  0  0  0  0
 20 21  1  0  0  0  0
 20 40  1  0  0  0  0
 21 22  1  0  0  0  0
 21 31  2  0  0  0  0
 22 23  2  0  0  0  0
 22 41  1  0  0  0  0
 23 24  1  0  0  0  0
 23 42  1  0  0  0  0
 24 25  1  0  0  0  0
 24 26  2  0  0  0  0
 26 27  1  0  0  0  0
 26 31  1  0  0  0  0
 27 28  1  0  0  0  0
 27 29  1  0  0  0  0
 27 30  1  0  0  0  0
 31 43  1  0  0  0  0
M  END
$$$$
