CHEMBL1940850
 OpenBabel04072215363D

 33 35  0  0  0  0  0  0  0  0999 V2000
    0.9867    0.0154   -0.0980 C   0  0  0  0  0  0  0  0  0  0  0  0
    2.4839    0.0229   -0.0248 C   0  0  0  0  0  0  0  0  0  0  0  0
    3.2069    1.2155   -0.0181 C   0  0  0  0  0  0  0  0  0  0  0  0
    4.6012    1.1873    0.0560 C   0  0  0  0  0  0  0  0  0  0  0  0
    5.2884   -0.0389    0.1156 C   0  0  0  0  0  0  0  0  0  0  0  0
    6.6929   -0.1117    0.1746 C   0  0  0  0  0  0  0  0  0  0  0  0
    7.3498   -1.3494    0.2080 C   0  0  0  0  0  0  0  0  0  0  0  0
    8.8276   -1.3275    0.2238 C   0  0  0  0  0  0  0  0  0  0  0  0
    9.6082   -2.2310    0.8327 C   0  0  0  0  0  0  0  0  0  0  0  0
   11.0918   -2.1077    0.8045 C   0  0  0  0  0  0  0  0  0  0  0  0
   11.6618   -1.0413    0.5989 O   0  0  0  0  0  0  0  0  0  0  0  0
   11.7835   -3.3592    1.1122 C   0  0  0  0  0  0  0  0  0  0  0  0
   11.3518   -4.7003    0.8112 C   0  0  0  0  0  0  0  0  0  0  0  0
   12.2346   -5.6595    1.2572 C   0  0  0  0  0  0  0  0  0  0  0  0
   13.5967   -4.9672    2.0194 S   0  0  0  0  0  0  0  0  0  0  0  0
   13.0180   -3.3833    1.7377 C   0  0  0  0  0  0  0  0  0  0  0  0
    6.5197   -2.4731    0.1556 C   0  0  0  0  0  0  0  0  0  0  0  0
    7.0927   -4.0963    0.0346 Cl  0  0  0  0  0  0  0  0  0  0  0  0
    5.1673   -2.4401    0.1287 N   0  0  0  0  0  0  0  0  0  0  0  0
    4.5656   -1.2458    0.1066 C   0  0  0  0  0  0  0  0  0  0  0  0
    3.1801   -1.1922    0.0502 C   0  0  0  0  0  0  0  0  0  0  0  0
    0.5884    1.0161   -0.3000 H   0  0  0  0  0  0  0  0  0  0  0  0
    0.5650   -0.3359    0.8491 H   0  0  0  0  0  0  0  0  0  0  0  0
    0.6502   -0.6424   -0.9061 H   0  0  0  0  0  0  0  0  0  0  0  0
    2.6951    2.1737   -0.0738 H   0  0  0  0  0  0  0  0  0  0  0  0
    5.1488    2.1284    0.0557 H   0  0  0  0  0  0  0  0  0  0  0  0
    7.2699    0.8105    0.1900 H   0  0  0  0  0  0  0  0  0  0  0  0
    9.2912   -0.4822   -0.2855 H   0  0  0  0  0  0  0  0  0  0  0  0
    9.2072   -3.0690    1.3907 H   0  0  0  0  0  0  0  0  0  0  0  0
   10.4399   -4.9542    0.2837 H   0  0  0  0  0  0  0  0  0  0  0  0
   12.1459   -6.7335    1.1662 H   0  0  0  0  0  0  0  0  0  0  0  0
   13.6017   -2.5328    2.0688 H   0  0  0  0  0  0  0  0  0  0  0  0
    2.6270   -2.1307    0.0515 H   0  0  0  0  0  0  0  0  0  0  0  0
  1  2  1  0  0  0  0
  1 22  1  0  0  0  0
  1 23  1  0  0  0  0
  1 24  1  0  0  0  0
  2  3  1  0  0  0  0
  2 21  2  0  0  0  0
  3  4  2  0  0  0  0
  3 25  1  0  0  0  0
  4  5  1  0  0  0  0
  4 26  1  0  0  0  0
  5  6  1  0  0  0  0
  5 20  2  0  0  0  0
  6  7  2  0  0  0  0
  6 27  1  0  0  0  0
  7  8  1  0  0  0  0
  7 17  1  0  0  0  0
  8  9  2  0  0  0  0
  8 28  1  0  0  0  0
  9 10  1  0  0  0  0
  9 29  1  0  0  0  0
 10 11  2  0  0  0  0
 10 12  1  0  0  0  0
 12 13  1  0  0  0  0
 12 16  2  0  0  0  0
 13 14  2  0  0  0  0
 13 30  1  0  0  0  0
 14 15  1  0  0  0  0
 14 31  1  0  0  0  0
 15 16  1  0  0  0  0
 16 32  1  0  0  0  0
 17 18  1  0  0  0  0
 17 19  2  0  0  0  0
 19 20  1  0  0  0  0
 20 21  1  0  0  0  0
 21 33  1  0  0  0  0
M  END
$$$$
