CHEMBL21156
 OpenBabel04072215363D

 39 42  0  0  0  0  0  0  0  0999 V2000
    2.9290    1.3459   -0.4463 C   0  0  0  0  0  0  0  0  0  0  0  0
    2.5986   -0.0946   -0.0116 C   0  0  0  0  0  0  0  0  0  0  0  0
    3.3246   -0.3865    1.3131 C   0  0  0  0  0  0  0  0  0  0  0  0
    1.0779   -0.1999    0.2091 C   0  0  0  0  0  0  0  0  0  0  0  0
    3.0363   -1.0750   -1.0807 C   0  0  0  0  0  0  0  0  0  0  0  0
    3.6415   -0.7974   -2.2180 N   0  0  0  0  0  0  0  0  0  0  0  0
    3.7754   -1.9948   -2.8926 C   0  0  0  0  0  0  0  0  0  0  0  0
    4.3239   -2.2701   -4.1713 C   0  0  0  0  0  0  0  0  0  0  0  0
    4.8485   -1.1867   -4.9095 C   0  0  0  0  0  0  0  0  0  0  0  0
    5.3883   -1.3961   -6.1740 C   0  0  0  0  0  0  0  0  0  0  0  0
    5.4023   -2.6783   -6.6953 C   0  0  0  0  0  0  0  0  0  0  0  0
    5.9164   -2.8856   -7.9150 F   0  0  0  0  0  0  0  0  0  0  0  0
    4.8899   -3.7592   -5.9771 C   0  0  0  0  0  0  0  0  0  0  0  0
    4.3296   -3.5992   -4.6835 C   0  0  0  0  0  0  0  0  0  0  0  0
    3.7766   -4.6345   -3.8689 C   0  0  0  0  0  0  0  0  0  0  0  0
    3.7166   -6.0744   -4.3069 C   0  0  0  0  0  0  0  0  0  0  0  0
    4.1340   -6.4837   -5.3825 O   0  0  0  0  0  0  0  0  0  0  0  0
    3.1483   -6.9716   -3.4253 N   0  0  0  0  0  0  0  0  0  0  0  0
    2.6454   -6.6576   -2.1967 C   0  0  0  0  0  0  0  0  0  0  0  0
    2.6661   -5.4033   -1.7405 C   0  0  0  0  0  0  0  0  0  0  0  0
    3.2387   -4.3601   -2.5867 C   0  0  0  0  0  0  0  0  0  0  0  0
    3.2541   -3.0361   -2.1365 C   0  0  0  0  0  0  0  0  0  0  0  0
    2.8169   -2.4291   -0.9843 N   0  0  0  0  0  0  0  0  0  0  0  0
    2.6197    2.0715    0.3148 H   0  0  0  0  0  0  0  0  0  0  0  0
    2.4183    1.6078   -1.3807 H   0  0  0  0  0  0  0  0  0  0  0  0
    4.0050    1.4769   -0.6116 H   0  0  0  0  0  0  0  0  0  0  0  0
    3.0264    0.3263    2.0908 H   0  0  0  0  0  0  0  0  0  0  0  0
    4.4122   -0.3165    1.1957 H   0  0  0  0  0  0  0  0  0  0  0  0
    3.0980   -1.3919    1.6867 H   0  0  0  0  0  0  0  0  0  0  0  0
    0.7375    0.5145    0.9675 H   0  0  0  0  0  0  0  0  0  0  0  0
    0.7857   -1.2003    0.5488 H   0  0  0  0  0  0  0  0  0  0  0  0
    0.5266    0.0057   -0.7160 H   0  0  0  0  0  0  0  0  0  0  0  0
    4.8333   -0.1804   -4.4936 H   0  0  0  0  0  0  0  0  0  0  0  0
    5.7938   -0.5725   -6.7520 H   0  0  0  0  0  0  0  0  0  0  0  0
    4.9419   -4.7271   -6.4654 H   0  0  0  0  0  0  0  0  0  0  0  0
    3.1223   -7.9300   -3.7554 H   0  0  0  0  0  0  0  0  0  0  0  0
    2.2318   -7.4787   -1.6192 H   0  0  0  0  0  0  0  0  0  0  0  0
    2.2642   -5.1673   -0.7638 H   0  0  0  0  0  0  0  0  0  0  0  0
    2.3735   -2.8910   -0.2047 H   0  0  0  0  0  0  0  0  0  0  0  0
  1  2  1  0  0  0  0
  1 24  1  0  0  0  0
  1 25  1  0  0  0  0
  1 26  1  0  0  0  0
  2  3  1  0  0  0  0
  2  4  1  0  0  0  0
  2  5  1  0  0  0  0
  3 27  1  0  0  0  0
  3 28  1  0  0  0  0
  3 29  1  0  0  0  0
  4 30  1  0  0  0  0
  4 31  1  0  0  0  0
  4 32  1  0  0  0  0
  5  6  2  0  0  0  0
  5 23  1  0  0  0  0
  6  7  1  0  0  0  0
  7  8  1  0  0  0  0
  7 22  2  0  0  0  0
  8  9  1  0  0  0  0
  8 14  2  0  0  0  0
  9 10  2  0  0  0  0
  9 33  1  0  0  0  0
 10 11  1  0  0  0  0
 10 34  1  0  0  0  0
 11 12  1  0  0  0  0
 11 13  2  0  0  0  0
 13 14  1  0  0  0  0
 13 35  1  0  0  0  0
 14 15  1  0  0  0  0
 15 16  1  0  0  0  0
 15 21  2  0  0  0  0
 16 17  2  0  0  0  0
 16 18  1  0  0  0  0
 18 19  1  0  0  0  0
 18 36  1  0  0  0  0
 19 20  2  0  0  0  0
 19 37  1  0  0  0  0
 20 21  1  0  0  0  0
 20 38  1  0  0  0  0
 21 22  1  0  0  0  0
 22 23  1  0  0  0  0
 23 39  1  0  0  0  0
M  END
$$$$
