CHEMBL515258
 OpenBabel04072215383D

 63 67  0  0  0  0  0  0  0  0999 V2000
    2.5294    0.1777   -0.0601 C   0  0  0  0  0  0  0  0  0  0  0  0
    1.0275    0.1001   -0.0038 C   0  0  0  0  0  0  0  0  0  0  0  0
    0.3424    1.3237   -0.0233 C   0  0  0  0  0  0  0  0  0  0  0  0
   -1.0463    1.3805   -0.0067 C   0  0  0  0  0  0  0  0  0  0  0  0
   -1.8047    0.2191   -0.0194 C   0  0  0  0  0  0  0  0  0  0  0  0
   -3.2292    0.2101   -0.0525 N   0  0  0  0  0  0  0  0  0  0  0  0
   -4.0272    1.3414   -0.0937 C   0  0  0  0  0  0  0  0  0  0  0  0
   -3.6344    2.5080   -0.1116 O   0  0  0  0  0  0  0  0  0  0  0  0
   -5.4984    1.1708   -0.1281 C   0  0  0  0  0  0  0  0  0  0  0  0
   -6.1866    0.0822    0.4020 C   0  0  0  0  0  0  0  0  0  0  0  0
   -7.5861    0.0950    0.3802 C   0  0  0  0  0  0  0  0  0  0  0  0
   -8.2565    1.2027   -0.1504 C   0  0  0  0  0  0  0  0  0  0  0  0
   -9.7586    1.2488   -0.1175 C   0  0  0  0  0  0  0  0  0  0  0  0
  -10.3561    0.2493    0.2736 O   0  0  0  0  0  0  0  0  0  0  0  0
  -10.3207    2.4574   -0.4879 N   0  0  0  0  0  0  0  0  0  0  0  0
  -11.7006    2.7851   -0.5152 C   0  0  0  0  0  0  0  0  0  0  0  0
  -12.6998    1.8033   -0.4746 C   0  0  0  0  0  0  0  0  0  0  0  0
  -14.0520    2.1457   -0.5651 C   0  0  0  0  0  0  0  0  0  0  0  0
  -14.4259    3.4777   -0.6857 C   0  0  0  0  0  0  0  0  0  0  0  0
  -13.4447    4.4686   -0.7122 C   0  0  0  0  0  0  0  0  0  0  0  0
  -12.0816    4.1450   -0.5918 C   0  0  0  0  0  0  0  0  0  0  0  0
  -11.1338    5.1820   -0.7426 N   0  0  0  0  0  0  0  0  0  0  0  0
   -7.6160    2.2822   -0.6660 N   0  0  0  0  0  0  0  0  0  0  0  0
   -6.2571    2.2295   -0.6435 C   0  0  0  0  0  0  0  0  0  0  0  0
   -1.1241   -1.0018    0.0149 C   0  0  0  0  0  0  0  0  0  0  0  0
    0.2874   -1.0977    0.0998 C   0  0  0  0  0  0  0  0  0  0  0  0
    0.9327   -2.3426    0.2759 N   0  0  0  0  0  0  0  0  0  0  0  0
    0.4201   -3.5653    0.7243 C   0  0  0  0  0  0  0  0  0  0  0  0
   -0.9030   -3.7674    0.7857 N   0  0  0  0  0  0  0  0  0  0  0  0
   -1.3600   -4.9595    1.2065 C   0  0  0  0  0  0  0  0  0  0  0  0
   -0.5591   -6.0088    1.5937 C   0  0  0  0  0  0  0  0  0  0  0  0
   -1.0952   -7.3141    2.0023 C   0  0  0  0  0  0  0  0  0  0  0  0
   -0.4067   -8.5107    1.7599 C   0  0  0  0  0  0  0  0  0  0  0  0
   -0.9512   -9.7360    2.1442 C   0  0  0  0  0  0  0  0  0  0  0  0
   -2.1889   -9.7426    2.7598 C   0  0  0  0  0  0  0  0  0  0  0  0
   -2.8997   -8.6261    3.0073 N   0  0  0  0  0  0  0  0  0  0  0  0
   -2.3395   -7.4516    2.6288 C   0  0  0  0  0  0  0  0  0  0  0  0
    0.7879   -5.6912    1.5269 C   0  0  0  0  0  0  0  0  0  0  0  0
    1.2981   -4.5054    1.0983 N   0  0  0  0  0  0  0  0  0  0  0  0
    2.8523    1.1898   -0.3413 H   0  0  0  0  0  0  0  0  0  0  0  0
    2.9330   -0.4931   -0.8235 H   0  0  0  0  0  0  0  0  0  0  0  0
    2.9670   -0.0448    0.9160 H   0  0  0  0  0  0  0  0  0  0  0  0
    0.8872    2.2654   -0.0491 H   0  0  0  0  0  0  0  0  0  0  0  0
   -1.4940    2.3653    0.0003 H   0  0  0  0  0  0  0  0  0  0  0  0
   -3.6618   -0.7026   -0.0866 H   0  0  0  0  0  0  0  0  0  0  0  0
   -5.6716   -0.7486    0.8747 H   0  0  0  0  0  0  0  0  0  0  0  0
   -8.1507   -0.7322    0.8034 H   0  0  0  0  0  0  0  0  0  0  0  0
   -9.6651    3.1882   -0.7431 H   0  0  0  0  0  0  0  0  0  0  0  0
  -12.4554    0.7480   -0.4161 H   0  0  0  0  0  0  0  0  0  0  0  0
  -14.8070    1.3635   -0.5637 H   0  0  0  0  0  0  0  0  0  0  0  0
  -15.4762    3.7436   -0.7731 H   0  0  0  0  0  0  0  0  0  0  0  0
  -13.7561    5.5047   -0.8188 H   0  0  0  0  0  0  0  0  0  0  0  0
  -11.5092    6.0890   -0.4782 H   0  0  0  0  0  0  0  0  0  0  0  0
  -10.2597    4.9997   -0.2641 H   0  0  0  0  0  0  0  0  0  0  0  0
   -5.7652    3.1061   -1.0628 H   0  0  0  0  0  0  0  0  0  0  0  0
   -1.7237   -1.9038   -0.0181 H   0  0  0  0  0  0  0  0  0  0  0  0
    1.9314   -2.3251    0.4204 H   0  0  0  0  0  0  0  0  0  0  0  0
   -2.4440   -5.0295    1.1965 H   0  0  0  0  0  0  0  0  0  0  0  0
    0.5537   -8.5111    1.2498 H   0  0  0  0  0  0  0  0  0  0  0  0
   -0.4213  -10.6636    1.9597 H   0  0  0  0  0  0  0  0  0  0  0  0
   -2.6544  -10.6710    3.0775 H   0  0  0  0  0  0  0  0  0  0  0  0
   -2.9593   -6.5896    2.8659 H   0  0  0  0  0  0  0  0  0  0  0  0
    1.5475   -6.4063    1.8344 H   0  0  0  0  0  0  0  0  0  0  0  0
  1  2  1  0  0  0  0
  1 40  1  0  0  0  0
  1 41  1  0  0  0  0
  1 42  1  0  0  0  0
  2  3  1  0  0  0  0
  2 26  2  0  0  0  0
  3  4  2  0  0  0  0
  3 43  1  0  0  0  0
  4  5  1  0  0  0  0
  4 44  1  0  0  0  0
  5  6  1  0  0  0  0
  5 25  2  0  0  0  0
  6  7  1  0  0  0  0
  6 45  1  0  0  0  0
  7  8  2  0  0  0  0
  7  9  1  0  0  0  0
  9 10  1  0  0  0  0
  9 24  2  0  0  0  0
 10 11  2  0  0  0  0
 10 46  1  0  0  0  0
 11 12  1  0  0  0  0
 11 47  1  0  0  0  0
 12 13  1  0  0  0  0
 12 23  2  0  0  0  0
 13 14  2  0  0  0  0
 13 15  1  0  0  0  0
 15 16  1  0  0  0  0
 15 48  1  0  0  0  0
 16 17  1  0  0  0  0
 16 21  2  0  0  0  0
 17 18  2  0  0  0  0
 17 49  1  0  0  0  0
 18 19  1  0  0  0  0
 18 50  1  0  0  0  0
 19 20  2  0  0  0  0
 19 51  1  0  0  0  0
 20 21  1  0  0  0  0
 20 52  1  0  0  0  0
 21 22  1  0  0  0  0
 22 53  1  0  0  0  0
 22 54  1  0  0  0  0
 23 24  1  0  0  0  0
 24 55  1  0  0  0  0
 25 26  1  0  0  0  0
 25 56  1  0  0  0  0
 26 27  1  0  0  0  0
 27 28  1  0  0  0  0
 27 57  1  0  0  0  0
 28 29  1  0  0  0  0
 28 39  2  0  0  0  0
 29 30  2  0  0  0  0
 30 31  1  0  0  0  0
 30 58  1  0  0  0  0
 31 32  1  0  0  0  0
 31 38  2  0  0  0  0
 32 33  1  0  0  0  0
 32 37  2  0  0  0  0
 33 34  2  0  0  0  0
 33 59  1  0  0  0  0
 34 35  1  0  0  0  0
 34 60  1  0  0  0  0
 35 36  2  0  0  0  0
 35 61  1  0  0  0  0
 36 37  1  0  0  0  0
 37 62  1  0  0  0  0
 38 39  1  0  0  0  0
 38 63  1  0  0  0  0
M  END
$$$$
