CHEMBL4435233
 OpenBabel04072215383D

 68 71  0  0  0  0  0  0  0  0999 V2000
    3.5529   -1.7972    3.3822 C   0  0  0  0  0  0  0  0  0  0  0  0
    3.1462   -0.5692    2.7757 O   0  0  0  0  0  0  0  0  0  0  0  0
    3.5244    0.5841    3.4062 C   0  0  0  0  0  0  0  0  0  0  0  0
    4.6523    0.6166    4.2315 C   0  0  0  0  0  0  0  0  0  0  0  0
    5.0112    1.7743    4.9566 C   0  0  0  0  0  0  0  0  0  0  0  0
    6.0613    1.8267    5.8870 C   0  0  0  0  0  0  0  0  0  0  0  0
    6.8756    0.6850    6.0557 N   0  0  0  0  0  0  0  0  0  0  0  0
    7.5145    0.2281    7.2243 C   0  0  0  0  0  0  0  0  0  0  0  0
    6.9885    0.4661    8.5000 C   0  0  0  0  0  0  0  0  0  0  0  0
    7.5452   -0.1479    9.6261 C   0  0  0  0  0  0  0  0  0  0  0  0
    8.6412   -0.9980    9.4831 C   0  0  0  0  0  0  0  0  0  0  0  0
    9.3393   -1.8875   10.9972 Br  0  0  0  0  0  0  0  0  0  0  0  0
    9.2043   -1.2221    8.2313 C   0  0  0  0  0  0  0  0  0  0  0  0
    8.6303   -0.6167    7.1183 C   0  0  0  0  0  0  0  0  0  0  0  0
    9.1476   -0.8669    5.9041 F   0  0  0  0  0  0  0  0  0  0  0  0
    6.3092    2.9220    6.6230 N   0  0  0  0  0  0  0  0  0  0  0  0
    5.5270    3.9820    6.3920 C   0  0  0  0  0  0  0  0  0  0  0  0
    4.5233    4.0496    5.5096 N   0  0  0  0  0  0  0  0  0  0  0  0
    4.2620    2.9416    4.8111 C   0  0  0  0  0  0  0  0  0  0  0  0
    3.2022    2.9268    3.9157 C   0  0  0  0  0  0  0  0  0  0  0  0
    2.8077    1.7718    3.2138 C   0  0  0  0  0  0  0  0  0  0  0  0
    1.7430    2.0235    2.3909 O   0  0  0  0  0  0  0  0  0  0  0  0
    0.8864    0.9733    1.9606 C   0  0  0  0  0  0  0  0  0  0  0  0
   -0.1963    0.6743    2.9972 C   0  0  0  0  0  0  0  0  0  0  0  0
   -0.9481   -0.5008    2.6970 O   0  0  0  0  0  0  0  0  0  0  0  0
   -0.2269   -1.7344    2.7880 C   0  0  0  0  0  0  0  0  0  0  0  0
    0.3351   -2.0342    4.1788 C   0  0  0  0  0  0  0  0  0  0  0  0
   -0.7440   -2.1924    5.0928 O   0  0  0  0  0  0  0  0  0  0  0  0
   -0.2864   -2.3725    6.4258 C   0  0  0  0  0  0  0  0  0  0  0  0
   -1.5216   -2.6366    7.2746 C   0  0  0  0  0  0  0  0  0  0  0  0
   -1.2206   -2.8652    8.6706 N   0  0  0  0  0  0  0  0  0  0  0  0
   -1.0134   -1.8071    9.5368 C   0  0  0  0  0  0  0  0  0  0  0  0
   -1.1002   -0.6309    9.1942 O   0  0  0  0  0  0  0  0  0  0  0  0
   -0.7039   -2.2159   10.9515 C   0  0  0  0  0  0  0  0  0  0  0  0
    0.4966   -1.5618   11.4197 N   0  0  0  0  0  0  0  0  0  0  0  0
    0.5955   -0.3592   12.0525 C   0  0  0  0  0  0  0  0  0  0  0  0
    1.8382   -0.1583   12.4331 N   0  0  0  0  0  0  0  0  0  0  0  0
    2.4748   -1.2923   11.9845 C   0  0  0  0  0  0  0  0  0  0  0  0
    3.8925   -1.5458   12.2019 N   0  3  0  0  0  0  0  0  0  0  0  0
    4.5184   -0.7202   12.8844 O   0  0  0  0  0  0  0  0  0  0  0  0
    4.3845   -2.5666   11.6934 O   0  5  0  0  0  0  0  0  0  0  0  0
    1.6897   -2.1905   11.3614 N   0  0  0  0  0  0  0  0  0  0  0  0
    2.8384   -2.5675    3.0839 H   0  0  0  0  0  0  0  0  0  0  0  0
    3.5371   -1.7510    4.4782 H   0  0  0  0  0  0  0  0  0  0  0  0
    4.5360   -2.1032    3.0145 H   0  0  0  0  0  0  0  0  0  0  0  0
    5.2642   -0.2727    4.3536 H   0  0  0  0  0  0  0  0  0  0  0  0
    7.3947    0.4692    5.2090 H   0  0  0  0  0  0  0  0  0  0  0  0
    6.1162    1.1036    8.6249 H   0  0  0  0  0  0  0  0  0  0  0  0
    7.1001    0.0274   10.6030 H   0  0  0  0  0  0  0  0  0  0  0  0
   10.0620   -1.8730    8.1022 H   0  0  0  0  0  0  0  0  0  0  0  0
    5.7224    4.8726    6.9795 H   0  0  0  0  0  0  0  0  0  0  0  0
    2.6323    3.8450    3.7755 H   0  0  0  0  0  0  0  0  0  0  0  0
    1.4296    0.0990    1.6113 H   0  0  0  0  0  0  0  0  0  0  0  0
    0.3813    1.3295    1.0544 H   0  0  0  0  0  0  0  0  0  0  0  0
   -0.9085    1.5095    3.0010 H   0  0  0  0  0  0  0  0  0  0  0  0
    0.1938    0.6416    4.0191 H   0  0  0  0  0  0  0  0  0  0  0  0
    0.5671   -1.7584    2.0361 H   0  0  0  0  0  0  0  0  0  0  0  0
   -0.9393   -2.5201    2.5175 H   0  0  0  0  0  0  0  0  0  0  0  0
    0.9940   -1.2408    4.5245 H   0  0  0  0  0  0  0  0  0  0  0  0
    0.8974   -2.9747    4.1454 H   0  0  0  0  0  0  0  0  0  0  0  0
    0.2506   -1.4789    6.7693 H   0  0  0  0  0  0  0  0  0  0  0  0
    0.4015   -3.2271    6.4760 H   0  0  0  0  0  0  0  0  0  0  0  0
   -2.0420   -3.5251    6.9022 H   0  0  0  0  0  0  0  0  0  0  0  0
   -2.2186   -1.7959    7.1824 H   0  0  0  0  0  0  0  0  0  0  0  0
   -1.0187   -3.8115    8.9604 H   0  0  0  0  0  0  0  0  0  0  0  0
   -0.5563   -3.2967   11.0403 H   0  0  0  0  0  0  0  0  0  0  0  0
   -1.5357   -1.9262   11.5987 H   0  0  0  0  0  0  0  0  0  0  0  0
   -0.2446    0.3047   12.2102 H   0  0  0  0  0  0  0  0  0  0  0  0
  1  2  1  0  0  0  0
  1 43  1  0  0  0  0
  1 44  1  0  0  0  0
  1 45  1  0  0  0  0
  2  3  1  0  0  0  0
  3  4  1  0  0  0  0
  3 21  2  0  0  0  0
  4  5  2  0  0  0  0
  4 46  1  0  0  0  0
  5  6  1  0  0  0  0
  5 19  1  0  0  0  0
  6  7  1  0  0  0  0
  6 16  2  0  0  0  0
  7  8  1  0  0  0  0
  7 47  1  0  0  0  0
  8  9  1  0  0  0  0
  8 14  2  0  0  0  0
  9 10  2  0  0  0  0
  9 48  1  0  0  0  0
 10 11  1  0  0  0  0
 10 49  1  0  0  0  0
 11 12  1  0  0  0  0
 11 13  2  0  0  0  0
 13 14  1  0  0  0  0
 13 50  1  0  0  0  0
 14 15  1  0  0  0  0
 16 17  1  0  0  0  0
 17 18  2  0  0  0  0
 17 51  1  0  0  0  0
 18 19  1  0  0  0  0
 19 20  2  0  0  0  0
 20 21  1  0  0  0  0
 20 52  1  0  0  0  0
 21 22  1  0  0  0  0
 22 23  1  0  0  0  0
 23 24  1  0  0  0  0
 23 53  1  0  0  0  0
 23 54  1  0  0  0  0
 24 25  1  0  0  0  0
 24 55  1  0  0  0  0
 24 56  1  0  0  0  0
 25 26  1  0  0  0  0
 26 27  1  0  0  0  0
 26 57  1  0  0  0  0
 26 58  1  0  0  0  0
 27 28  1  0  0  0  0
 27 59  1  0  0  0  0
 27 60  1  0  0  0  0
 28 29  1  0  0  0  0
 29 30  1  0  0  0  0
 29 61  1  0  0  0  0
 29 62  1  0  0  0  0
 30 31  1  0  0  0  0
 30 63  1  0  0  0  0
 30 64  1  0  0  0  0
 31 32  1  0  0  0  0
 31 65  1  0  0  0  0
 32 33  2  0  0  0  0
 32 34  1  0  0  0  0
 34 35  1  0  0  0  0
 34 66  1  0  0  0  0
 34 67  1  0  0  0  0
 35 36  1  0  0  0  0
 35 42  1  0  0  0  0
 36 37  2  0  0  0  0
 36 68  1  0  0  0  0
 37 38  1  0  0  0  0
 38 39  1  0  0  0  0
 38 42  2  0  0  0  0
 39 40  2  0  0  0  0
 39 41  1  0  0  0  0
M  CHG  2  39   1  41  -1
M  END
$$$$
