CHEMBL3397925
 OpenBabel04072215363D

 55 57  0  0  0  0  0  0  0  0999 V2000
    1.8663    0.1793    1.9191 C   0  0  0  0  0  0  0  0  0  0  0  0
    2.3197   -1.1978    1.7080 N   0  0  0  0  0  0  0  0  0  0  0  0
    1.1869   -2.0328    1.2979 C   0  0  0  0  0  0  0  0  0  0  0  0
    3.4000   -1.2801    0.7076 C   0  0  0  0  0  0  0  0  0  0  0  0
    4.6913   -0.5535    1.1067 C   0  0  0  0  0  0  0  0  0  0  0  0
    5.2521   -1.0681    2.4254 C   0  0  0  0  0  0  0  0  0  0  0  0
    6.4467   -0.3439    2.7418 O   0  0  0  0  0  0  0  0  0  0  0  0
    7.0604   -0.7142    3.9094 C   0  0  0  0  0  0  0  0  0  0  0  0
    6.6238   -1.7287    4.7572 C   0  0  0  0  0  0  0  0  0  0  0  0
    7.3323   -2.0359    5.9190 C   0  0  0  0  0  0  0  0  0  0  0  0
    8.4828   -1.3309    6.2643 C   0  0  0  0  0  0  0  0  0  0  0  0
    9.2153   -1.5827    7.4436 N   0  0  0  0  0  0  0  0  0  0  0  0
    8.9108   -2.5333    8.4021 C   0  0  0  0  0  0  0  0  0  0  0  0
    8.0137   -3.3673    8.3675 O   0  0  0  0  0  0  0  0  0  0  0  0
    9.7389   -2.4842    9.6290 C   0  0  0  0  0  0  0  0  0  0  0  0
   11.1167   -2.2749    9.5945 C   0  0  0  0  0  0  0  0  0  0  0  0
   11.8248   -2.2450   10.7929 C   0  0  0  0  0  0  0  0  0  0  0  0
   11.1549   -2.4206   12.0113 C   0  0  0  0  0  0  0  0  0  0  0  0
    9.7638   -2.6276   12.0711 C   0  0  0  0  0  0  0  0  0  0  0  0
    9.0475   -2.7705   13.3598 C   0  0  0  0  0  0  0  0  0  0  0  0
    7.9120   -3.5947   13.4926 C   0  0  0  0  0  0  0  0  0  0  0  0
    7.2241   -3.7051   14.7079 C   0  0  0  0  0  0  0  0  0  0  0  0
    7.6700   -3.0107   15.8274 C   0  0  0  0  0  0  0  0  0  0  0  0
    8.7941   -2.2030   15.7158 C   0  0  0  0  0  0  0  0  0  0  0  0
    9.2868   -1.5173   16.7849 O   0  0  0  0  0  0  0  0  0  0  0  0
    9.4633   -2.0670   14.5009 C   0  0  0  0  0  0  0  0  0  0  0  0
    9.0753   -2.6692   10.8511 C   0  0  0  0  0  0  0  0  0  0  0  0
    8.9209   -0.3055    5.4184 C   0  0  0  0  0  0  0  0  0  0  0  0
    8.2126   -0.0026    4.2467 C   0  0  0  0  0  0  0  0  0  0  0  0
    1.0527    0.2065    2.6523 H   0  0  0  0  0  0  0  0  0  0  0  0
    1.5130    0.6441    0.9925 H   0  0  0  0  0  0  0  0  0  0  0  0
    2.6646    0.7993    2.3393 H   0  0  0  0  0  0  0  0  0  0  0  0
    0.3802   -1.9814    2.0378 H   0  0  0  0  0  0  0  0  0  0  0  0
    1.4865   -3.0849    1.2374 H   0  0  0  0  0  0  0  0  0  0  0  0
    0.7813   -1.7302    0.3256 H   0  0  0  0  0  0  0  0  0  0  0  0
    3.0599   -0.8941   -0.2589 H   0  0  0  0  0  0  0  0  0  0  0  0
    3.6544   -2.3373    0.5523 H   0  0  0  0  0  0  0  0  0  0  0  0
    4.5389    0.5304    1.1603 H   0  0  0  0  0  0  0  0  0  0  0  0
    5.4421   -0.6975    0.3193 H   0  0  0  0  0  0  0  0  0  0  0  0
    5.4823   -2.1354    2.3167 H   0  0  0  0  0  0  0  0  0  0  0  0
    4.5160   -0.9196    3.2241 H   0  0  0  0  0  0  0  0  0  0  0  0
    5.7302   -2.3105    4.5576 H   0  0  0  0  0  0  0  0  0  0  0  0
    6.9362   -2.8348    6.5362 H   0  0  0  0  0  0  0  0  0  0  0  0
    9.9788   -0.9485    7.6354 H   0  0  0  0  0  0  0  0  0  0  0  0
   11.6496   -2.1671    8.6546 H   0  0  0  0  0  0  0  0  0  0  0  0
   12.9009   -2.0938   10.7881 H   0  0  0  0  0  0  0  0  0  0  0  0
   11.7458   -2.4051   12.9250 H   0  0  0  0  0  0  0  0  0  0  0  0
    7.5431   -4.1720   12.6464 H   0  0  0  0  0  0  0  0  0  0  0  0
    6.3419   -4.3375   14.7737 H   0  0  0  0  0  0  0  0  0  0  0  0
    7.1334   -3.1058   16.7655 H   0  0  0  0  0  0  0  0  0  0  0  0
    8.8198   -1.8177   17.5837 H   0  0  0  0  0  0  0  0  0  0  0  0
   10.3145   -1.3917   14.4605 H   0  0  0  0  0  0  0  0  0  0  0  0
    7.9976   -2.8247   10.8332 H   0  0  0  0  0  0  0  0  0  0  0  0
    9.8106    0.2716    5.6516 H   0  0  0  0  0  0  0  0  0  0  0  0
    8.5611    0.7954    3.5960 H   0  0  0  0  0  0  0  0  0  0  0  0
  1  2  1  0  0  0  0
  1 30  1  0  0  0  0
  1 31  1  0  0  0  0
  1 32  1  0  0  0  0
  2  3  1  0  0  0  0
  2  4  1  0  0  0  0
  3 33  1  0  0  0  0
  3 34  1  0  0  0  0
  3 35  1  0  0  0  0
  4  5  1  0  0  0  0
  4 36  1  0  0  0  0
  4 37  1  0  0  0  0
  5  6  1  0  0  0  0
  5 38  1  0  0  0  0
  5 39  1  0  0  0  0
  6  7  1  0  0  0  0
  6 40  1  0  0  0  0
  6 41  1  0  0  0  0
  7  8  1  0  0  0  0
  8  9  1  0  0  0  0
  8 29  2  0  0  0  0
  9 10  2  0  0  0  0
  9 42  1  0  0  0  0
 10 11  1  0  0  0  0
 10 43  1  0  0  0  0
 11 12  1  0  0  0  0
 11 28  2  0  0  0  0
 12 13  1  0  0  0  0
 12 44  1  0  0  0  0
 13 14  2  0  0  0  0
 13 15  1  0  0  0  0
 15 16  1  0  0  0  0
 15 27  2  0  0  0  0
 16 17  2  0  0  0  0
 16 45  1  0  0  0  0
 17 18  1  0  0  0  0
 17 46  1  0  0  0  0
 18 19  2  0  0  0  0
 18 47  1  0  0  0  0
 19 20  1  0  0  0  0
 19 27  1  0  0  0  0
 20 21  1  0  0  0  0
 20 26  2  0  0  0  0
 21 22  2  0  0  0  0
 21 48  1  0  0  0  0
 22 23  1  0  0  0  0
 22 49  1  0  0  0  0
 23 24  2  0  0  0  0
 23 50  1  0  0  0  0
 24 25  1  0  0  0  0
 24 26  1  0  0  0  0
 25 51  1  0  0  0  0
 26 52  1  0  0  0  0
 27 53  1  0  0  0  0
 28 29  1  0  0  0  0
 28 54  1  0  0  0  0
 29 55  1  0  0  0  0
M  END
$$$$
