CHEMBL1794070
 OpenBabel04072215363D

 62 66  0  0  1  0  0  0  0  0999 V2000
    3.0666   -2.4177    0.2721 C   0  0  0  0  0  0  0  0  0  0  0  0
    4.2528   -2.7160   -0.6576 C   0  0  1  0  0  0  0  0  0  0  0  0
    4.4831   -1.6645   -1.6098 O   0  0  0  0  0  0  0  0  0  0  0  0
    3.4885   -1.4183   -2.4960 C   0  0  0  0  0  0  0  0  0  0  0  0
    2.5469   -2.3505   -3.0042 C   0  0  0  0  0  0  0  0  0  0  0  0
    1.5957   -1.7357   -3.7827 C   0  0  0  0  0  0  0  0  0  0  0  0
    0.4181   -2.3274   -4.2598 N   0  0  0  0  0  0  0  0  0  0  0  0
   -0.7669   -1.7059   -4.6055 C   0  0  0  0  0  0  0  0  0  0  0  0
   -1.7933   -2.5322   -4.5659 N   0  0  0  0  0  0  0  0  0  0  0  0
   -1.2486   -3.7663   -4.3228 C   0  0  0  0  0  0  0  0  0  0  0  0
   -1.8640   -5.0141   -4.1239 C   0  0  0  0  0  0  0  0  0  0  0  0
   -1.0668   -6.1671   -3.9628 C   0  0  0  0  0  0  0  0  0  0  0  0
    0.3136   -6.0859   -4.0735 C   0  0  0  0  0  0  0  0  0  0  0  0
    1.2113   -7.0997   -4.0507 O   0  0  0  0  0  0  0  0  0  0  0  0
    0.8934   -8.4719   -3.8009 C   0  0  0  0  0  0  0  0  0  0  0  0
    0.9927   -8.8006   -2.3130 C   0  0  0  0  0  0  0  0  0  0  0  0
    2.3192   -8.2916   -1.7551 C   0  0  0  0  0  0  0  0  0  0  0  0
    3.5136   -8.7112   -2.5108 N   0  0  0  0  0  0  0  0  0  0  0  0
    4.5903   -7.7580   -2.2216 C   0  0  0  0  0  0  0  0  0  0  0  0
    3.3712   -8.7995   -3.9718 C   0  0  0  0  0  0  0  0  0  0  0  0
    2.0085   -9.2821   -4.4687 C   0  0  0  0  0  0  0  0  0  0  0  0
    0.9325   -4.8410   -4.2421 C   0  0  0  0  0  0  0  0  0  0  0  0
    0.1358   -3.6891   -4.2866 C   0  0  0  0  0  0  0  0  0  0  0  0
    1.9043   -0.0856   -4.0044 S   0  0  0  0  0  0  0  0  0  0  0  0
    3.3107   -0.1457   -3.0100 C   0  0  0  0  0  0  0  0  0  0  0  0
    4.0814    1.0650   -2.7825 C   0  0  0  0  0  0  0  0  0  0  0  0
    5.2159    0.9232   -2.0287 N   0  0  0  0  0  0  0  0  0  0  0  0
    3.7952    2.1805   -3.2088 O   0  0  0  0  0  0  0  0  0  0  0  0
    5.5422   -2.7896    0.1416 C   0  0  0  0  0  0  0  0  0  0  0  0
    5.9584   -1.6678    0.8734 C   0  0  0  0  0  0  0  0  0  0  0  0
    7.1386   -1.6732    1.6160 C   0  0  0  0  0  0  0  0  0  0  0  0
    7.9272   -2.8125    1.6483 C   0  0  0  0  0  0  0  0  0  0  0  0
    7.5439   -3.9413    0.9218 C   0  0  0  0  0  0  0  0  0  0  0  0
    6.3717   -3.9186    0.1681 C   0  0  0  0  0  0  0  0  0  0  0  0
    6.0378   -5.3289   -0.7430 Cl  0  0  0  0  0  0  0  0  0  0  0  0
    2.1118   -2.6011   -0.2349 H   0  0  0  0  0  0  0  0  0  0  0  0
    3.0466   -1.3661    0.5816 H   0  0  0  0  0  0  0  0  0  0  0  0
    3.0805   -3.0481    1.1683 H   0  0  0  0  0  0  0  0  0  0  0  0
    4.0673   -3.6591   -1.1781 H   0  0  0  0  0  0  0  0  0  0  0  0
    2.5125   -3.3909   -2.7149 H   0  0  0  0  0  0  0  0  0  0  0  0
   -0.8392   -0.6394   -4.7743 H   0  0  0  0  0  0  0  0  0  0  0  0
   -2.9463   -5.0765   -4.0910 H   0  0  0  0  0  0  0  0  0  0  0  0
   -1.5623   -7.1145   -3.7742 H   0  0  0  0  0  0  0  0  0  0  0  0
   -0.0748   -8.7581   -4.2239 H   0  0  0  0  0  0  0  0  0  0  0  0
    0.9157   -9.8852   -2.1568 H   0  0  0  0  0  0  0  0  0  0  0  0
    0.1697   -8.3371   -1.7592 H   0  0  0  0  0  0  0  0  0  0  0  0
    2.4262   -8.6497   -0.7227 H   0  0  0  0  0  0  0  0  0  0  0  0
    2.2505   -7.1974   -1.6869 H   0  0  0  0  0  0  0  0  0  0  0  0
    4.8687   -7.8205   -1.1666 H   0  0  0  0  0  0  0  0  0  0  0  0
    4.2692   -6.7313   -2.4512 H   0  0  0  0  0  0  0  0  0  0  0  0
    5.4898   -7.9546   -2.8151 H   0  0  0  0  0  0  0  0  0  0  0  0
    4.1408   -9.4894   -4.3419 H   0  0  0  0  0  0  0  0  0  0  0  0
    3.5834   -7.8317   -4.4470 H   0  0  0  0  0  0  0  0  0  0  0  0
    1.8882  -10.3533   -4.2667 H   0  0  0  0  0  0  0  0  0  0  0  0
    1.9727   -9.1460   -5.5555 H   0  0  0  0  0  0  0  0  0  0  0  0
    2.0139   -4.7904   -4.3327 H   0  0  0  0  0  0  0  0  0  0  0  0
    5.5291    0.0111   -1.7134 H   0  0  0  0  0  0  0  0  0  0  0  0
    5.7996    1.7314   -1.8812 H   0  0  0  0  0  0  0  0  0  0  0  0
    5.3607   -0.7519    0.8617 H   0  0  0  0  0  0  0  0  0  0  0  0
    7.4456   -0.7865    2.1625 H   0  0  0  0  0  0  0  0  0  0  0  0
    8.8486   -2.8321    2.2251 H   0  0  0  0  0  0  0  0  0  0  0  0
    8.1696   -4.8307    0.9406 H   0  0  0  0  0  0  0  0  0  0  0  0
  1  2  1  0  0  0  0
  1 36  1  0  0  0  0
  1 37  1  0  0  0  0
  1 38  1  0  0  0  0
  2  3  1  0  0  0  0
  2 29  1  0  0  0  0
  2 39  1  6  0  0  0
  3  4  1  0  0  0  0
  4  5  1  0  0  0  0
  4 25  2  0  0  0  0
  5  6  2  0  0  0  0
  5 40  1  0  0  0  0
  6  7  1  0  0  0  0
  6 24  1  0  0  0  0
  7  8  1  0  0  0  0
  7 23  1  0  0  0  0
  8  9  2  0  0  0  0
  8 41  1  0  0  0  0
  9 10  1  0  0  0  0
 10 11  1  0  0  0  0
 10 23  2  0  0  0  0
 11 12  2  0  0  0  0
 11 42  1  0  0  0  0
 12 13  1  0  0  0  0
 12 43  1  0  0  0  0
 13 14  1  0  0  0  0
 13 22  2  0  0  0  0
 14 15  1  0  0  0  0
 15 16  1  0  0  0  0
 15 21  1  0  0  0  0
 15 44  1  0  0  0  0
 16 17  1  0  0  0  0
 16 45  1  0  0  0  0
 16 46  1  0  0  0  0
 17 18  1  0  0  0  0
 17 47  1  0  0  0  0
 17 48  1  0  0  0  0
 18 19  1  0  0  0  0
 18 20  1  0  0  0  0
 19 49  1  0  0  0  0
 19 50  1  0  0  0  0
 19 51  1  0  0  0  0
 20 21  1  0  0  0  0
 20 52  1  0  0  0  0
 20 53  1  0  0  0  0
 21 54  1  0  0  0  0
 21 55  1  0  0  0  0
 22 23  1  0  0  0  0
 22 56  1  0  0  0  0
 24 25  1  0  0  0  0
 25 26  1  0  0  0  0
 26 27  1  0  0  0  0
 26 28  2  0  0  0  0
 27 57  1  0  0  0  0
 27 58  1  0  0  0  0
 29 30  1  0  0  0  0
 29 34  2  0  0  0  0
 30 31  2  0  0  0  0
 30 59  1  0  0  0  0
 31 32  1  0  0  0  0
 31 60  1  0  0  0  0
 32 33  2  0  0  0  0
 32 61  1  0  0  0  0
 33 34  1  0  0  0  0
 33 62  1  0  0  0  0
 34 35  1  0  0  0  0
M  END
$$$$
