CHEMBL1993510
 OpenBabel04072215363D

 44 47  0  0  0  0  0  0  0  0999 V2000
    1.1711    0.2158   -0.2870 O   0  0  0  0  0  0  0  0  0  0  0  0
    2.2718   -0.0661    0.1707 C   0  0  0  0  0  0  0  0  0  0  0  0
    2.7949   -1.3546    0.2182 N   0  0  0  0  0  0  0  0  0  0  0  0
    2.1577   -2.5055   -0.3092 C   0  0  0  0  0  0  0  0  0  0  0  0
    1.0546   -2.4072   -1.1546 C   0  0  0  0  0  0  0  0  0  0  0  0
    0.4702   -3.5376   -1.6947 C   0  0  0  0  0  0  0  0  0  0  0  0
    0.9913   -4.8018   -1.4139 C   0  0  0  0  0  0  0  0  0  0  0  0
    0.4141   -5.8704   -2.1375 N   0  0  0  0  0  0  0  0  0  0  0  0
    0.1639   -5.7670   -3.4938 C   0  0  0  0  0  0  0  0  0  0  0  0
   -0.9438   -6.3686   -3.8507 N   0  0  0  0  0  0  0  0  0  0  0  0
   -1.4062   -6.9380   -2.6959 C   0  0  0  0  0  0  0  0  0  0  0  0
   -2.6313   -7.5792   -2.4732 C   0  0  0  0  0  0  0  0  0  0  0  0
   -2.8881   -8.1133   -1.2090 C   0  0  0  0  0  0  0  0  0  0  0  0
   -1.9271   -8.0435   -0.1976 C   0  0  0  0  0  0  0  0  0  0  0  0
   -0.7142   -7.3649   -0.3841 C   0  0  0  0  0  0  0  0  0  0  0  0
   -0.5014   -6.7837   -1.6414 C   0  0  0  0  0  0  0  0  0  0  0  0
    2.0578   -4.9484   -0.5316 C   0  0  0  0  0  0  0  0  0  0  0  0
    2.6515   -3.7862    0.0053 C   0  0  0  0  0  0  0  0  0  0  0  0
    3.1265    0.8677    0.7268 N   0  0  0  0  0  0  0  0  0  0  0  0
    2.8390    2.2389    0.9314 C   0  0  0  0  0  0  0  0  0  0  0  0
    1.6185    2.8427    0.6087 C   0  0  0  0  0  0  0  0  0  0  0  0
    1.3948    4.1974    0.8641 C   0  0  0  0  0  0  0  0  0  0  0  0
    2.3852    4.9677    1.4505 C   0  0  0  0  0  0  0  0  0  0  0  0
    3.6165    4.3909    1.7904 C   0  0  0  0  0  0  0  0  0  0  0  0
    4.6949    5.2048    2.4548 C   0  0  0  0  0  0  0  0  0  0  0  0
    4.3531    6.5095    2.6577 F   0  0  0  0  0  0  0  0  0  0  0  0
    5.0312    4.7116    3.6794 F   0  0  0  0  0  0  0  0  0  0  0  0
    5.8495    5.2211    1.7294 F   0  0  0  0  0  0  0  0  0  0  0  0
    3.8347    3.0290    1.5159 C   0  0  0  0  0  0  0  0  0  0  0  0
    3.6235   -1.5048    0.7715 H   0  0  0  0  0  0  0  0  0  0  0  0
    0.6184   -1.4616   -1.4532 H   0  0  0  0  0  0  0  0  0  0  0  0
   -0.4024   -3.4103   -2.3341 H   0  0  0  0  0  0  0  0  0  0  0  0
    0.7761   -5.1419   -4.1314 H   0  0  0  0  0  0  0  0  0  0  0  0
   -3.3683   -7.6204   -3.2676 H   0  0  0  0  0  0  0  0  0  0  0  0
   -3.8490   -8.5843   -1.0171 H   0  0  0  0  0  0  0  0  0  0  0  0
   -2.1425   -8.4969    0.7677 H   0  0  0  0  0  0  0  0  0  0  0  0
    0.0060   -7.2747    0.4213 H   0  0  0  0  0  0  0  0  0  0  0  0
    2.4690   -5.9257   -0.2923 H   0  0  0  0  0  0  0  0  0  0  0  0
    3.5078   -3.8968    0.6674 H   0  0  0  0  0  0  0  0  0  0  0  0
    4.0534    0.5563    0.9685 H   0  0  0  0  0  0  0  0  0  0  0  0
    0.8006    2.2935    0.1571 H   0  0  0  0  0  0  0  0  0  0  0  0
    0.4299    4.6372    0.6047 H   0  0  0  0  0  0  0  0  0  0  0  0
    2.1881    6.0187    1.6526 H   0  0  0  0  0  0  0  0  0  0  0  0
    4.7948    2.5902    1.7818 H   0  0  0  0  0  0  0  0  0  0  0  0
  1  2  2  0  0  0  0
  2  3  1  0  0  0  0
  2 19  1  0  0  0  0
  3  4  1  0  0  0  0
  3 30  1  0  0  0  0
  4  5  1  0  0  0  0
  4 18  2  0  0  0  0
  5  6  2  0  0  0  0
  5 31  1  0  0  0  0
  6  7  1  0  0  0  0
  6 32  1  0  0  0  0
  7  8  1  0  0  0  0
  7 17  2  0  0  0  0
  8  9  1  0  0  0  0
  8 16  1  0  0  0  0
  9 10  2  0  0  0  0
  9 33  1  0  0  0  0
 10 11  1  0  0  0  0
 11 12  1  0  0  0  0
 11 16  2  0  0  0  0
 12 13  2  0  0  0  0
 12 34  1  0  0  0  0
 13 14  1  0  0  0  0
 13 35  1  0  0  0  0
 14 15  2  0  0  0  0
 14 36  1  0  0  0  0
 15 16  1  0  0  0  0
 15 37  1  0  0  0  0
 17 18  1  0  0  0  0
 17 38  1  0  0  0  0
 18 39  1  0  0  0  0
 19 20  1  0  0  0  0
 19 40  1  0  0  0  0
 20 21  1  0  0  0  0
 20 29  2  0  0  0  0
 21 22  2  0  0  0  0
 21 41  1  0  0  0  0
 22 23  1  0  0  0  0
 22 42  1  0  0  0  0
 23 24  2  0  0  0  0
 23 43  1  0  0  0  0
 24 25  1  0  0  0  0
 24 29  1  0  0  0  0
 25 26  1  0  0  0  0
 25 27  1  0  0  0  0
 25 28  1  0  0  0  0
 29 44  1  0  0  0  0
M  END
$$$$
