CHEMBL3694723
 OpenBabel04072215373D

 49 52  0  0  0  0  0  0  0  0999 V2000
    1.6224    1.0286    3.0461 C   0  0  0  0  0  0  0  0  0  0  0  0
    1.4932   -0.1430    2.2409 O   0  0  0  0  0  0  0  0  0  0  0  0
    2.6993   -0.7846    2.0409 C   0  0  0  0  0  0  0  0  0  0  0  0
    2.6751   -1.9340    1.2924 C   0  0  0  0  0  0  0  0  0  0  0  0
    3.8952   -2.5350    1.1068 C   0  0  0  0  0  0  0  0  0  0  0  0
    5.0481   -2.0543    1.6122 N   0  0  0  0  0  0  0  0  0  0  0  0
    4.9591   -0.9202    2.3375 C   0  0  0  0  0  0  0  0  0  0  0  0
    6.2094   -0.3682    2.9268 C   0  0  0  0  0  0  0  0  0  0  0  0
    7.5155   -1.0134    2.7440 C   0  0  0  0  0  0  0  0  0  0  0  0
    8.6144   -0.4943    3.3155 C   0  0  0  0  0  0  0  0  0  0  0  0
    8.5270    0.6891    4.0554 N   0  0  0  0  0  0  0  0  0  0  0  0
    9.5058    1.4670    4.6803 C   0  0  0  0  0  0  0  0  0  0  0  0
   10.9656    1.2821    4.6114 C   0  0  0  0  0  0  0  0  0  0  0  0
   11.5617    0.7836    3.4481 C   0  0  0  0  0  0  0  0  0  0  0  0
   12.9335    0.5830    3.3734 C   0  0  0  0  0  0  0  0  0  0  0  0
   13.7475    0.9586    4.4356 C   0  0  0  0  0  0  0  0  0  0  0  0
   13.2101    1.5468    5.5820 C   0  0  0  0  0  0  0  0  0  0  0  0
   14.0226    2.0328    6.6390 N   0  0  0  0  0  0  0  0  0  0  0  0
   15.3972    2.0952    6.6330 C   0  0  0  0  0  0  0  0  0  0  0  0
   16.1574    1.7459    5.7342 O   0  0  0  0  0  0  0  0  0  0  0  0
   15.9185    2.5767    7.8165 N   0  0  0  0  0  0  0  0  0  0  0  0
   17.3812    2.6913    7.9285 C   0  0  0  0  0  0  0  0  0  0  0  0
   18.0269    3.8941    7.2226 C   0  0  0  0  0  0  0  0  0  0  0  0
   17.1055    4.7731    6.7667 F   0  0  0  0  0  0  0  0  0  0  0  0
   18.8111    4.5721    8.0996 F   0  0  0  0  0  0  0  0  0  0  0  0
   18.8118    3.5279    6.1886 F   0  0  0  0  0  0  0  0  0  0  0  0
   11.8102    1.6725    5.6768 C   0  0  0  0  0  0  0  0  0  0  0  0
    8.7766    2.4647    5.3108 C   0  0  0  0  0  0  0  0  0  0  0  0
    7.4350    2.3701    5.0600 N   0  0  0  0  0  0  0  0  0  0  0  0
    7.3057    1.3193    4.2824 C   0  0  0  0  0  0  0  0  0  0  0  0
    6.1420    0.7570    3.6814 C   0  0  0  0  0  0  0  0  0  0  0  0
    3.8147   -0.2626    2.5709 N   0  0  0  0  0  0  0  0  0  0  0  0
    0.6432    1.5129    3.0957 H   0  0  0  0  0  0  0  0  0  0  0  0
    2.3232    1.7461    2.6040 H   0  0  0  0  0  0  0  0  0  0  0  0
    1.9221    0.7682    4.0676 H   0  0  0  0  0  0  0  0  0  0  0  0
    1.7607   -2.3340    0.8804 H   0  0  0  0  0  0  0  0  0  0  0  0
    3.9869   -3.4499    0.5273 H   0  0  0  0  0  0  0  0  0  0  0  0
    7.5680   -1.9194    2.1467 H   0  0  0  0  0  0  0  0  0  0  0  0
    9.5768   -0.9750    3.2178 H   0  0  0  0  0  0  0  0  0  0  0  0
   10.9757    0.5579    2.5624 H   0  0  0  0  0  0  0  0  0  0  0  0
   13.3777    0.1565    2.4792 H   0  0  0  0  0  0  0  0  0  0  0  0
   14.8135    0.7856    4.3180 H   0  0  0  0  0  0  0  0  0  0  0  0
   13.5494    2.3981    7.4493 H   0  0  0  0  0  0  0  0  0  0  0  0
   15.3669    3.2688    8.3022 H   0  0  0  0  0  0  0  0  0  0  0  0
   17.8310    1.7695    7.5401 H   0  0  0  0  0  0  0  0  0  0  0  0
   17.6028    2.7286    8.9995 H   0  0  0  0  0  0  0  0  0  0  0  0
   11.3704    2.0961    6.5748 H   0  0  0  0  0  0  0  0  0  0  0  0
    9.1619    3.2801    5.9096 H   0  0  0  0  0  0  0  0  0  0  0  0
    5.2064    1.2759    3.8644 H   0  0  0  0  0  0  0  0  0  0  0  0
  1  2  1  0  0  0  0
  1 33  1  0  0  0  0
  1 34  1  0  0  0  0
  1 35  1  0  0  0  0
  2  3  1  0  0  0  0
  3  4  1  0  0  0  0
  3 32  2  0  0  0  0
  4  5  2  0  0  0  0
  4 36  1  0  0  0  0
  5  6  1  0  0  0  0
  5 37  1  0  0  0  0
  6  7  2  0  0  0  0
  7  8  1  0  0  0  0
  7 32  1  0  0  0  0
  8  9  1  0  0  0  0
  8 31  2  0  0  0  0
  9 10  2  0  0  0  0
  9 38  1  0  0  0  0
 10 11  1  0  0  0  0
 10 39  1  0  0  0  0
 11 12  1  0  0  0  0
 11 30  1  0  0  0  0
 12 13  1  0  0  0  0
 12 28  2  0  0  0  0
 13 14  1  0  0  0  0
 13 27  2  0  0  0  0
 14 15  2  0  0  0  0
 14 40  1  0  0  0  0
 15 16  1  0  0  0  0
 15 41  1  0  0  0  0
 16 17  2  0  0  0  0
 16 42  1  0  0  0  0
 17 18  1  0  0  0  0
 17 27  1  0  0  0  0
 18 19  1  0  0  0  0
 18 43  1  0  0  0  0
 19 20  2  0  0  0  0
 19 21  1  0  0  0  0
 21 22  1  0  0  0  0
 21 44  1  0  0  0  0
 22 23  1  0  0  0  0
 22 45  1  0  0  0  0
 22 46  1  0  0  0  0
 23 24  1  0  0  0  0
 23 25  1  0  0  0  0
 23 26  1  0  0  0  0
 27 47  1  0  0  0  0
 28 29  1  0  0  0  0
 28 48  1  0  0  0  0
 29 30  2  0  0  0  0
 30 31  1  0  0  0  0
 31 49  1  0  0  0  0
M  END
$$$$
