CHEMBL2087167
 OpenBabel04072215363D

 61 65  0  0  0  0  0  0  0  0999 V2000
    2.5300   -2.1424    5.9144 C   0  0  0  0  0  0  0  0  0  0  0  0
    2.9928   -1.5213    4.5983 C   0  0  0  0  0  0  0  0  0  0  0  0
    4.2925   -2.0371    4.1307 N   0  0  0  0  0  0  0  0  0  0  0  0
    4.2372   -3.4872    3.8842 C   0  0  0  0  0  0  0  0  0  0  0  0
    5.6003   -4.0087    3.4433 C   0  0  0  0  0  0  0  0  0  0  0  0
    6.0468   -3.3420    2.1398 C   0  0  0  0  0  0  0  0  0  0  0  0
    5.1600   -3.6956    1.0080 N   0  0  0  0  0  0  0  0  0  0  0  0
    4.9842   -5.0500    0.6771 C   0  0  0  0  0  0  0  0  0  0  0  0
    6.0057   -6.0081    0.8272 C   0  0  0  0  0  0  0  0  0  0  0  0
    5.7904   -7.3493    0.5190 C   0  0  0  0  0  0  0  0  0  0  0  0
    4.5507   -7.7004    0.0262 C   0  0  0  0  0  0  0  0  0  0  0  0
    3.5253   -6.7734   -0.1977 C   0  0  0  0  0  0  0  0  0  0  0  0
    3.7530   -5.4383    0.1070 C   0  0  0  0  0  0  0  0  0  0  0  0
    2.3749   -7.5575   -0.7133 C   0  0  0  0  0  0  0  0  0  0  0  0
    1.1600   -7.1629   -1.1620 C   0  0  0  0  0  0  0  0  0  0  0  0
    0.7742   -5.7353   -1.1910 C   0  0  0  0  0  0  0  0  0  0  0  0
    1.0424   -4.9592   -2.3293 C   0  0  0  0  0  0  0  0  0  0  0  0
    0.6157   -3.6309   -2.3958 C   0  0  0  0  0  0  0  0  0  0  0  0
   -0.0918   -3.0761   -1.3308 C   0  0  0  0  0  0  0  0  0  0  0  0
   -0.3602   -3.8503   -0.2072 C   0  0  0  0  0  0  0  0  0  0  0  0
   -1.0530   -3.3190    0.8088 F   0  0  0  0  0  0  0  0  0  0  0  0
    0.0659   -5.1711   -0.1236 C   0  0  0  0  0  0  0  0  0  0  0  0
    0.2570   -8.1131   -1.7275 C   0  0  0  0  0  0  0  0  0  0  0  0
    0.1096   -8.5109   -2.9763 N   0  0  0  0  0  0  0  0  0  0  0  0
   -0.9643   -9.3732   -2.9776 C   0  0  0  0  0  0  0  0  0  0  0  0
   -1.3925  -10.0507   -4.2200 C   0  0  0  0  0  0  0  0  0  0  0  0
   -1.5068   -9.4595   -1.7154 C   0  0  0  0  0  0  0  0  0  0  0  0
   -0.7152   -8.6690   -0.9288 N   0  0  0  0  0  0  0  0  0  0  0  0
    2.8181   -9.0140   -0.6767 C   0  0  0  0  0  0  0  0  0  0  0  0
    2.1683  -10.0246   -0.8645 O   0  0  0  0  0  0  0  0  0  0  0  0
    4.1373   -8.9870   -0.2739 N   0  0  0  0  0  0  0  0  0  0  0  0
    6.0385   -1.8244    2.3558 C   0  0  0  0  0  0  0  0  0  0  0  0
    4.6970   -1.3252    2.9026 C   0  0  0  0  0  0  0  0  0  0  0  0
    1.6068   -1.6611    6.2523 H   0  0  0  0  0  0  0  0  0  0  0  0
    3.2860   -2.0163    6.6962 H   0  0  0  0  0  0  0  0  0  0  0  0
    2.3110   -3.2090    5.8121 H   0  0  0  0  0  0  0  0  0  0  0  0
    3.0811   -0.4403    4.7641 H   0  0  0  0  0  0  0  0  0  0  0  0
    2.2155   -1.6688    3.8375 H   0  0  0  0  0  0  0  0  0  0  0  0
    3.4672   -3.7305    3.1399 H   0  0  0  0  0  0  0  0  0  0  0  0
    3.9826   -4.0267    4.8000 H   0  0  0  0  0  0  0  0  0  0  0  0
    5.5576   -5.0990    3.3580 H   0  0  0  0  0  0  0  0  0  0  0  0
    6.3382   -3.7981    4.2293 H   0  0  0  0  0  0  0  0  0  0  0  0
    7.0755   -3.6365    1.9004 H   0  0  0  0  0  0  0  0  0  0  0  0
    5.4018   -3.1753    0.1646 H   0  0  0  0  0  0  0  0  0  0  0  0
    6.9806   -5.7254    1.2150 H   0  0  0  0  0  0  0  0  0  0  0  0
    6.5714   -8.0857    0.6804 H   0  0  0  0  0  0  0  0  0  0  0  0
    2.9858   -4.6849   -0.0299 H   0  0  0  0  0  0  0  0  0  0  0  0
    1.5659   -5.3984   -3.1777 H   0  0  0  0  0  0  0  0  0  0  0  0
    0.8202   -3.0393   -3.2845 H   0  0  0  0  0  0  0  0  0  0  0  0
   -0.4455   -2.0509   -1.3741 H   0  0  0  0  0  0  0  0  0  0  0  0
   -0.1728   -5.7462    0.7649 H   0  0  0  0  0  0  0  0  0  0  0  0
   -0.7540   -9.7663   -5.0622 H   0  0  0  0  0  0  0  0  0  0  0  0
   -2.4241   -9.7839   -4.4688 H   0  0  0  0  0  0  0  0  0  0  0  0
   -1.3340  -11.1371   -4.1015 H   0  0  0  0  0  0  0  0  0  0  0  0
   -2.3482  -10.0099   -1.3187 H   0  0  0  0  0  0  0  0  0  0  0  0
   -0.8228   -8.5122    0.0617 H   0  0  0  0  0  0  0  0  0  0  0  0
    4.6804   -9.8260   -0.1427 H   0  0  0  0  0  0  0  0  0  0  0  0
    6.2771   -1.3006    1.4226 H   0  0  0  0  0  0  0  0  0  0  0  0
    6.8303   -1.5651    3.0726 H   0  0  0  0  0  0  0  0  0  0  0  0
    3.9290   -1.4180    2.1241 H   0  0  0  0  0  0  0  0  0  0  0  0
    4.8038   -0.2553    3.1218 H   0  0  0  0  0  0  0  0  0  0  0  0
  1  2  1  0  0  0  0
  1 34  1  0  0  0  0
  1 35  1  0  0  0  0
  1 36  1  0  0  0  0
  2  3  1  0  0  0  0
  2 37  1  0  0  0  0
  2 38  1  0  0  0  0
  3  4  1  0  0  0  0
  3 33  1  0  0  0  0
  4  5  1  0  0  0  0
  4 39  1  0  0  0  0
  4 40  1  0  0  0  0
  5  6  1  0  0  0  0
  5 41  1  0  0  0  0
  5 42  1  0  0  0  0
  6  7  1  0  0  0  0
  6 32  1  0  0  0  0
  6 43  1  0  0  0  0
  7  8  1  0  0  0  0
  7 44  1  0  0  0  0
  8  9  1  0  0  0  0
  8 13  2  0  0  0  0
  9 10  2  0  0  0  0
  9 45  1  0  0  0  0
 10 11  1  0  0  0  0
 10 46  1  0  0  0  0
 11 12  2  0  0  0  0
 11 31  1  0  0  0  0
 12 13  1  0  0  0  0
 12 14  1  0  0  0  0
 13 47  1  0  0  0  0
 14 15  2  3  0  0  0
 14 29  1  0  0  0  0
 15 16  1  0  0  0  0
 15 23  1  0  0  0  0
 16 17  1  0  0  0  0
 16 22  2  0  0  0  0
 17 18  2  0  0  0  0
 17 48  1  0  0  0  0
 18 19  1  0  0  0  0
 18 49  1  0  0  0  0
 19 20  2  0  0  0  0
 19 50  1  0  0  0  0
 20 21  1  0  0  0  0
 20 22  1  0  0  0  0
 22 51  1  0  0  0  0
 23 24  2  0  0  0  0
 23 28  1  0  0  0  0
 24 25  1  0  0  0  0
 25 26  1  0  0  0  0
 25 27  2  0  0  0  0
 26 52  1  0  0  0  0
 26 53  1  0  0  0  0
 26 54  1  0  0  0  0
 27 28  1  0  0  0  0
 27 55  1  0  0  0  0
 28 56  1  0  0  0  0
 29 30  2  0  0  0  0
 29 31  1  0  0  0  0
 31 57  1  0  0  0  0
 32 33  1  0  0  0  0
 32 58  1  0  0  0  0
 32 59  1  0  0  0  0
 33 60  1  0  0  0  0
 33 61  1  0  0  0  0
M  END
$$$$
