CHEMBL3604466
 OpenBabel04072215363D

 38 39  0  0  1  0  0  0  0  0999 V2000
    0.8629   -0.2378    2.2749 C   0  0  0  0  0  0  0  0  0  0  0  0
    2.3268   -0.4007    2.7031 C   0  0  2  0  0  0  0  0  0  0  0  0
    2.5489    0.2315    4.0971 C   0  0  0  0  0  0  0  0  0  0  0  0
    2.3443    1.6482    4.0632 O   0  0  0  0  0  0  0  0  0  0  0  0
    3.1594    0.2804    1.7002 N   0  0  0  0  0  0  0  0  0  0  0  0
    4.5572    0.1162    1.8679 C   0  0  0  0  0  0  0  0  0  0  0  0
    5.0265   -0.9881    2.4973 N   0  0  0  0  0  0  0  0  0  0  0  0
    6.3572   -1.1461    2.5810 C   0  0  0  0  0  0  0  0  0  0  0  0
    6.8351   -2.2601    3.2696 N   0  0  0  0  0  0  0  0  0  0  0  0
    8.1003   -2.8557    3.1864 C   0  0  0  0  0  0  0  0  0  0  0  0
    8.6728   -3.4549    4.3141 C   0  0  0  0  0  0  0  0  0  0  0  0
    9.9814   -3.9574    4.2737 C   0  0  0  0  0  0  0  0  0  0  0  0
   10.7341   -3.8801    3.0949 C   0  0  0  0  0  0  0  0  0  0  0  0
   12.4256   -4.5138    3.0517 S   0  3  3  0  0  0  0  0  0  0  0  0
   11.9226   -6.0091    2.5449 N   0  0  0  0  0  0  0  0  0  0  0  0
   13.1808   -3.7638    1.9024 O   0  5  0  0  0  0  0  0  0  0  0  0
   10.1677   -3.2917    1.9635 C   0  0  0  0  0  0  0  0  0  0  0  0
    8.8695   -2.7824    2.0153 C   0  0  0  0  0  0  0  0  0  0  0  0
    7.2403   -0.2618    2.0917 N   0  0  0  0  0  0  0  0  0  0  0  0
    6.7540    0.8330    1.4882 C   0  0  0  0  0  0  0  0  0  0  0  0
    5.4151    1.0662    1.3295 C   0  0  0  0  0  0  0  0  0  0  0  0
    4.8259    2.6657    0.5152 Br  0  0  0  0  0  0  0  0  0  0  0  0
    0.6554   -0.8256    1.3742 H   0  0  0  0  0  0  0  0  0  0  0  0
    0.6190    0.8057    2.0423 H   0  0  0  0  0  0  0  0  0  0  0  0
    0.1838   -0.5779    3.0637 H   0  0  0  0  0  0  0  0  0  0  0  0
    2.5453   -1.4752    2.7381 H   0  0  0  0  0  0  0  0  0  0  0  0
    1.8738   -0.2031    4.8403 H   0  0  0  0  0  0  0  0  0  0  0  0
    3.5716    0.0634    4.4479 H   0  0  0  0  0  0  0  0  0  0  0  0
    1.3916    1.8050    3.9556 H   0  0  0  0  0  0  0  0  0  0  0  0
    2.9714    1.2845    1.7322 H   0  0  0  0  0  0  0  0  0  0  0  0
    6.1069   -2.7524    3.7616 H   0  0  0  0  0  0  0  0  0  0  0  0
    8.1218   -3.4924    5.2512 H   0  0  0  0  0  0  0  0  0  0  0  0
   10.4142   -4.3852    5.1727 H   0  0  0  0  0  0  0  0  0  0  0  0
   11.6053   -6.6626    3.2518 H   0  0  0  0  0  0  0  0  0  0  0  0
   12.5740   -6.4968    1.9366 H   0  0  0  0  0  0  0  0  0  0  0  0
   10.7338   -3.2178    1.0373 H   0  0  0  0  0  0  0  0  0  0  0  0
    8.4586   -2.3269    1.1176 H   0  0  0  0  0  0  0  0  0  0  0  0
    7.5071    1.5305    1.1384 H   0  0  0  0  0  0  0  0  0  0  0  0
  1 23  1  0  0  0  0
  1 24  1  0  0  0  0
  1 25  1  0  0  0  0
  2  5  1  0  0  0  0
  2  3  1  0  0  0  0
  2  1  1  0  0  0  0
  2 26  1  1  0  0  0
  3  4  1  0  0  0  0
  3 27  1  0  0  0  0
  3 28  1  0  0  0  0
  4 29  1  0  0  0  0
  5  6  1  0  0  0  0
  5 30  1  0  0  0  0
  6  7  1  0  0  0  0
  6 21  2  0  0  0  0
  7  8  2  0  0  0  0
  8  9  1  0  0  0  0
  8 19  1  0  0  0  0
  9 10  1  0  0  0  0
  9 31  1  0  0  0  0
 10 11  1  0  0  0  0
 10 18  2  0  0  0  0
 11 12  2  0  0  0  0
 11 32  1  0  0  0  0
 12 13  1  0  0  0  0
 12 33  1  0  0  0  0
 13 14  1  0  0  0  0
 13 17  2  0  0  0  0
 14 15  1  0  0  0  0
 14 16  1  0  0  0  0
 15 34  1  0  0  0  0
 15 35  1  0  0  0  0
 17 18  1  0  0  0  0
 17 36  1  0  0  0  0
 18 37  1  0  0  0  0
 19 20  2  0  0  0  0
 20 21  1  0  0  0  0
 20 38  1  0  0  0  0
 21 22  1  0  0  0  0
M  CHG  2  14   1  16  -1
M  END
$$$$
