CHEMBL1914686
 OpenBabel04072215363D

 54 55  0  0  0  0  0  0  0  0999 V2000
    4.9516   -3.1360    1.2877 C   0  0  0  0  0  0  0  0  0  0  0  0
    4.4231   -1.7627    1.7142 C   0  0  0  0  0  0  0  0  0  0  0  0
    4.7183   -0.6783    0.7403 N   0  0  0  0  0  0  0  0  0  0  0  0
    4.2763   -0.9663   -0.6514 C   0  0  0  0  0  0  0  0  0  0  0  0
    2.7529   -1.0690   -0.8291 C   0  0  0  0  0  0  0  0  0  0  0  0
    4.2238    0.6498    1.1920 C   0  0  0  0  0  0  0  0  0  0  0  0
    4.8071    1.1138    2.5404 C   0  0  0  0  0  0  0  0  0  0  0  0
    6.2577    1.1903    2.5188 N   0  0  0  0  0  0  0  0  0  0  0  0
    6.9560    1.4490    3.6621 C   0  0  0  0  0  0  0  0  0  0  0  0
    6.3432    1.6025    4.7124 O   0  0  0  0  0  0  0  0  0  0  0  0
    8.4542    1.4757    3.7094 C   0  0  0  0  0  0  0  0  0  0  0  0
    9.0782    1.2323    4.9444 C   0  0  0  0  0  0  0  0  0  0  0  0
   10.4634    1.1929    5.0560 C   0  0  0  0  0  0  0  0  0  0  0  0
   11.2589    1.4188    3.9295 C   0  0  0  0  0  0  0  0  0  0  0  0
   12.7437    1.4190    3.9705 C   0  0  0  0  0  0  0  0  0  0  0  0
   13.5891    0.7583    4.7970 C   0  0  0  0  0  0  0  0  0  0  0  0
   13.3885   -0.2504    5.8716 C   0  0  0  0  0  0  0  0  0  0  0  0
   12.3314   -0.7455    6.2289 O   0  0  0  0  0  0  0  0  0  0  0  0
   14.5784   -0.6370    6.3835 N   0  0  0  0  0  0  0  0  0  0  0  0
   15.5872    0.0640    5.6973 C   0  0  0  0  0  0  0  0  0  0  0  0
   16.9645   -0.0258    5.8926 C   0  0  0  0  0  0  0  0  0  0  0  0
   17.7995    0.7720    5.0898 C   0  0  0  0  0  0  0  0  0  0  0  0
   17.2506    1.6301    4.1163 C   0  0  0  0  0  0  0  0  0  0  0  0
   18.0617    2.3972    3.3486 F   0  0  0  0  0  0  0  0  0  0  0  0
   15.8604    1.6972    3.9336 C   0  0  0  0  0  0  0  0  0  0  0  0
   15.0488    0.8981    4.7424 C   0  0  0  0  0  0  0  0  0  0  0  0
   10.6533    1.7086    2.7408 N   0  0  0  0  0  0  0  0  0  0  0  0
    9.2881    1.7265    2.5960 C   0  0  0  0  0  0  0  0  0  0  0  0
    8.8154    1.9950    1.5038 O   0  0  0  0  0  0  0  0  0  0  0  0
    1.5072    2.7265   -1.2796 Cl  0  0  0  0  0  0  0  0  0  0  0  0
    4.8198   -3.8539    2.1250 H   0  0  0  0  0  0  0  0  0  0  0  0
    6.0334   -3.0721    1.0437 H   0  0  0  0  0  0  0  0  0  0  0  0
    4.3905   -3.5390    0.4203 H   0  0  0  0  0  0  0  0  0  0  0  0
    4.9585   -1.5489    2.6599 H   0  0  0  0  0  0  0  0  0  0  0  0
    3.3356   -1.8271    1.9329 H   0  0  0  0  0  0  0  0  0  0  0  0
    4.7427   -1.9046   -1.0117 H   0  0  0  0  0  0  0  0  0  0  0  0
    4.6579   -0.1756   -1.3332 H   0  0  0  0  0  0  0  0  0  0  0  0
    2.3176   -1.8437   -0.1672 H   0  0  0  0  0  0  0  0  0  0  0  0
    2.5253   -1.3444   -1.8805 H   0  0  0  0  0  0  0  0  0  0  0  0
    2.2602   -0.0973   -0.6309 H   0  0  0  0  0  0  0  0  0  0  0  0
    3.1193    0.6309    1.3072 H   0  0  0  0  0  0  0  0  0  0  0  0
    4.4906    1.4187    0.4347 H   0  0  0  0  0  0  0  0  0  0  0  0
    4.4788    0.4215    3.3428 H   0  0  0  0  0  0  0  0  0  0  0  0
    4.3923    2.1133    2.7925 H   0  0  0  0  0  0  0  0  0  0  0  0
    6.7459    0.9784    1.6407 H   0  0  0  0  0  0  0  0  0  0  0  0
    8.4894    1.0509    5.8349 H   0  0  0  0  0  0  0  0  0  0  0  0
   10.8867    1.0215    6.0287 H   0  0  0  0  0  0  0  0  0  0  0  0
   13.2010    2.0283    3.2006 H   0  0  0  0  0  0  0  0  0  0  0  0
   14.7201   -1.3429    7.1235 H   0  0  0  0  0  0  0  0  0  0  0  0
   17.3812   -0.6863    6.6411 H   0  0  0  0  0  0  0  0  0  0  0  0
   18.8734    0.7280    5.2182 H   0  0  0  0  0  0  0  0  0  0  0  0
   15.4392    2.3588    3.1903 H   0  0  0  0  0  0  0  0  0  0  0  0
   11.2439    1.9067    1.8996 H   0  0  0  0  0  0  0  0  0  0  0  0
    2.3050    2.3811   -0.2164 H   0  0  0  0  0  0  0  0  0  0  0  0
  1  2  1  0  0  0  0
  1 31  1  0  0  0  0
  1 32  1  0  0  0  0
  1 33  1  0  0  0  0
  2  3  1  0  0  0  0
  2 34  1  0  0  0  0
  2 35  1  0  0  0  0
  3  4  1  0  0  0  0
  3  6  1  0  0  0  0
  4  5  1  0  0  0  0
  4 36  1  0  0  0  0
  4 37  1  0  0  0  0
  5 38  1  0  0  0  0
  5 39  1  0  0  0  0
  5 40  1  0  0  0  0
  6  7  1  0  0  0  0
  6 41  1  0  0  0  0
  6 42  1  0  0  0  0
  7  8  1  0  0  0  0
  7 43  1  0  0  0  0
  7 44  1  0  0  0  0
  8  9  1  0  0  0  0
  8 45  1  0  0  0  0
  9 10  2  0  0  0  0
  9 11  1  0  0  0  0
 11 12  2  0  0  0  0
 11 28  1  0  0  0  0
 12 13  1  0  0  0  0
 12 46  1  0  0  0  0
 13 14  2  0  0  0  0
 13 47  1  0  0  0  0
 14 15  1  0  0  0  0
 14 27  1  0  0  0  0
 15 16  2  0  0  0  0
 15 48  1  0  0  0  0
 16 17  1  0  0  0  0
 16 26  1  0  0  0  0
 17 18  2  0  0  0  0
 17 19  1  0  0  0  0
 19 20  1  0  0  0  0
 19 49  1  0  0  0  0
 20 21  1  0  0  0  0
 20 26  2  0  0  0  0
 21 22  2  0  0  0  0
 21 50  1  0  0  0  0
 22 23  1  0  0  0  0
 22 51  1  0  0  0  0
 23 24  1  0  0  0  0
 23 25  2  0  0  0  0
 25 26  1  0  0  0  0
 25 52  1  0  0  0  0
 27 28  1  0  0  0  0
 27 53  1  0  0  0  0
 28 29  2  0  0  0  0
 30 54  1  0  0  0  0
M  END
$$$$
