CHEMBL3892025
 OpenBabel04072215373D

 60 63  0  0  0  0  0  0  0  0999 V2000
    1.3317   -0.2082   -0.4268 C   0  0  0  0  0  0  0  0  0  0  0  0
    2.3360    0.1969    0.4959 O   0  0  0  0  0  0  0  0  0  0  0  0
    3.0508   -0.7974    1.1111 C   0  0  0  0  0  0  0  0  0  0  0  0
    2.6658   -2.1220    1.2258 C   0  0  0  0  0  0  0  0  0  0  0  0
    3.5083   -3.0247    1.8848 C   0  0  0  0  0  0  0  0  0  0  0  0
    3.2209   -4.3469    2.0998 O   0  0  0  0  0  0  0  0  0  0  0  0
    2.0765   -4.8701    1.4495 C   0  0  0  0  0  0  0  0  0  0  0  0
    4.7603   -2.6116    2.3731 C   0  0  0  0  0  0  0  0  0  0  0  0
    5.2170   -1.3090    2.1807 C   0  0  0  0  0  0  0  0  0  0  0  0
    6.5618   -0.9371    2.4472 N   0  0  0  0  0  0  0  0  0  0  0  0
    6.9708    0.4502    2.0121 C   0  0  0  0  0  0  0  0  0  0  0  0
    7.1683    0.5754    0.4933 C   0  0  0  0  0  0  0  0  0  0  0  0
    7.5101    1.6379   -0.0229 O   0  0  0  0  0  0  0  0  0  0  0  0
    6.9628   -0.5692   -0.2397 N   0  0  0  0  0  0  0  0  0  0  0  0
    6.9927   -0.6043   -1.6857 C   0  0  0  0  0  0  0  0  0  0  0  0
    8.4075   -0.4449   -2.2357 C   0  0  0  0  0  0  0  0  0  0  0  0
    9.2575   -1.4681   -1.7163 O   0  0  0  0  0  0  0  0  0  0  0  0
    7.7179   -1.6748    2.8608 C   0  0  0  0  0  0  0  0  0  0  0  0
    8.4658   -1.0870    3.8893 C   0  0  0  0  0  0  0  0  0  0  0  0
    9.8076   -1.3668    4.0285 C   0  0  0  0  0  0  0  0  0  0  0  0
   10.4231   -2.3328    3.2754 C   0  0  0  0  0  0  0  0  0  0  0  0
   11.7467   -2.3532    3.4130 N   0  0  0  0  0  0  0  0  0  0  0  0
   12.3929   -3.3522    2.8001 C   0  0  0  0  0  0  0  0  0  0  0  0
   11.7340   -4.3558    2.1202 C   0  0  0  0  0  0  0  0  0  0  0  0
   12.5533   -5.5094    1.7550 C   0  0  0  0  0  0  0  0  0  0  0  0
   12.7604   -6.7365    2.4414 C   0  0  0  0  0  0  0  0  0  0  0  0
   13.7870   -7.4457    1.9519 N   0  0  0  0  0  0  0  0  0  0  0  0
   14.2516   -6.6737    0.9553 N   0  0  0  0  0  0  0  0  0  0  0  0
   15.1997   -7.1963   -0.0015 C   0  0  0  0  0  0  0  0  0  0  0  0
   13.6536   -5.4435    0.9132 C   0  0  0  0  0  0  0  0  0  0  0  0
   10.3767   -4.2906    1.8943 N   0  0  0  0  0  0  0  0  0  0  0  0
    9.6849   -3.2022    2.4328 C   0  0  0  0  0  0  0  0  0  0  0  0
    8.3053   -2.8104    2.2182 C   0  0  0  0  0  0  0  0  0  0  0  0
    4.2781   -0.3950    1.6407 C   0  0  0  0  0  0  0  0  0  0  0  0
    1.1108    0.6386   -1.0854 H   0  0  0  0  0  0  0  0  0  0  0  0
    0.4129   -0.4740    0.1040 H   0  0  0  0  0  0  0  0  0  0  0  0
    1.6651   -1.0344   -1.0688 H   0  0  0  0  0  0  0  0  0  0  0  0
    1.7144   -2.4395    0.8223 H   0  0  0  0  0  0  0  0  0  0  0  0
    1.9956   -5.9264    1.6852 H   0  0  0  0  0  0  0  0  0  0  0  0
    2.1742   -4.7781    0.3500 H   0  0  0  0  0  0  0  0  0  0  0  0
    1.1587   -4.3751    1.7898 H   0  0  0  0  0  0  0  0  0  0  0  0
    5.3870   -3.3395    2.8799 H   0  0  0  0  0  0  0  0  0  0  0  0
    7.9247    0.7702    2.4486 H   0  0  0  0  0  0  0  0  0  0  0  0
    6.2549    1.2036    2.3588 H   0  0  0  0  0  0  0  0  0  0  0  0
    6.5243   -1.3473    0.2403 H   0  0  0  0  0  0  0  0  0  0  0  0
    6.3326    0.1799   -2.0696 H   0  0  0  0  0  0  0  0  0  0  0  0
    6.5873   -1.5810   -1.9714 H   0  0  0  0  0  0  0  0  0  0  0  0
    8.8415    0.5244   -1.9744 H   0  0  0  0  0  0  0  0  0  0  0  0
    8.3965   -0.5353   -3.3251 H   0  0  0  0  0  0  0  0  0  0  0  0
    9.2455   -1.3546   -0.7479 H   0  0  0  0  0  0  0  0  0  0  0  0
    8.0352   -0.2923    4.4849 H   0  0  0  0  0  0  0  0  0  0  0  0
   10.4027   -0.7785    4.7199 H   0  0  0  0  0  0  0  0  0  0  0  0
   13.4715   -3.3376    2.9064 H   0  0  0  0  0  0  0  0  0  0  0  0
   12.2395   -7.1274    3.3065 H   0  0  0  0  0  0  0  0  0  0  0  0
   15.4308   -8.2396    0.2310 H   0  0  0  0  0  0  0  0  0  0  0  0
   16.1105   -6.5928    0.0174 H   0  0  0  0  0  0  0  0  0  0  0  0
   14.7273   -7.1397   -0.9863 H   0  0  0  0  0  0  0  0  0  0  0  0
   14.0455   -4.6558    0.2848 H   0  0  0  0  0  0  0  0  0  0  0  0
    7.7344   -3.3563    1.4704 H   0  0  0  0  0  0  0  0  0  0  0  0
    4.4886    0.6681    1.5541 H   0  0  0  0  0  0  0  0  0  0  0  0
  1  2  1  0  0  0  0
  1 35  1  0  0  0  0
  1 36  1  0  0  0  0
  1 37  1  0  0  0  0
  2  3  1  0  0  0  0
  3  4  1  0  0  0  0
  3 34  2  0  0  0  0
  4  5  2  0  0  0  0
  4 38  1  0  0  0  0
  5  6  1  0  0  0  0
  5  8  1  0  0  0  0
  6  7  1  0  0  0  0
  7 39  1  0  0  0  0
  7 40  1  0  0  0  0
  7 41  1  0  0  0  0
  8  9  2  0  0  0  0
  8 42  1  0  0  0  0
  9 10  1  0  0  0  0
  9 34  1  0  0  0  0
 10 11  1  0  0  0  0
 10 18  1  0  0  0  0
 11 12  1  0  0  0  0
 11 43  1  0  0  0  0
 11 44  1  0  0  0  0
 12 13  2  0  0  0  0
 12 14  1  0  0  0  0
 14 15  1  0  0  0  0
 14 45  1  0  0  0  0
 15 16  1  0  0  0  0
 15 46  1  0  0  0  0
 15 47  1  0  0  0  0
 16 17  1  0  0  0  0
 16 48  1  0  0  0  0
 16 49  1  0  0  0  0
 17 50  1  0  0  0  0
 18 19  1  0  0  0  0
 18 33  2  0  0  0  0
 19 20  2  0  0  0  0
 19 51  1  0  0  0  0
 20 21  1  0  0  0  0
 20 52  1  0  0  0  0
 21 22  1  0  0  0  0
 21 32  2  0  0  0  0
 22 23  2  0  0  0  0
 23 24  1  0  0  0  0
 23 53  1  0  0  0  0
 24 25  1  0  0  0  0
 24 31  2  0  0  0  0
 25 26  1  0  0  0  0
 25 30  2  0  0  0  0
 26 27  2  0  0  0  0
 26 54  1  0  0  0  0
 27 28  1  0  0  0  0
 28 29  1  0  0  0  0
 28 30  1  0  0  0  0
 29 55  1  0  0  0  0
 29 56  1  0  0  0  0
 29 57  1  0  0  0  0
 30 58  1  0  0  0  0
 31 32  1  0  0  0  0
 32 33  1  0  0  0  0
 33 59  1  0  0  0  0
 34 60  1  0  0  0  0
M  END
$$$$
