CHEMBL3979908
 OpenBabel04072215373D

 49 52  0  0  0  0  0  0  0  0999 V2000
    4.5233    2.4004   -1.6578 C   0  0  0  0  0  0  0  0  0  0  0  0
    5.2942    1.3116   -1.5242 C   0  0  0  0  0  0  0  0  0  0  0  0
    5.2497    0.2528   -0.4447 C   0  0  0  0  0  0  0  0  0  0  0  0
    4.6596    0.7204    0.8322 N   0  0  0  0  0  0  0  0  0  0  0  0
    3.2484    0.6449    0.9884 C   0  0  0  0  0  0  0  0  0  0  0  0
    2.4544   -0.3133    0.3430 C   0  0  0  0  0  0  0  0  0  0  0  0
    1.0686   -0.3154    0.4967 C   0  0  0  0  0  0  0  0  0  0  0  0
    0.3419   -1.2366   -0.1507 F   0  0  0  0  0  0  0  0  0  0  0  0
    0.4283    0.6119    1.3030 C   0  0  0  0  0  0  0  0  0  0  0  0
    1.1822    1.5653    1.9752 C   0  0  0  0  0  0  0  0  0  0  0  0
    0.4626    2.4302    2.7536 O   0  0  0  0  0  0  0  0  0  0  0  0
    1.2042    3.3745    3.5183 C   0  0  0  0  0  0  0  0  0  0  0  0
    2.5716    1.5819    1.8034 C   0  0  0  0  0  0  0  0  0  0  0  0
    5.5730    1.3172    1.7475 C   0  0  0  0  0  0  0  0  0  0  0  0
    5.3985    1.1861    3.1322 C   0  0  0  0  0  0  0  0  0  0  0  0
    6.2688    1.8142    4.0367 C   0  0  0  0  0  0  0  0  0  0  0  0
    7.3488    2.5680    3.5933 C   0  0  0  0  0  0  0  0  0  0  0  0
    8.1724    3.1650    4.4741 N   0  0  0  0  0  0  0  0  0  0  0  0
    9.2073    3.8652    3.9447 C   0  0  0  0  0  0  0  0  0  0  0  0
    9.4227    3.9786    2.5786 C   0  0  0  0  0  0  0  0  0  0  0  0
   10.5493    4.7034    2.0227 C   0  0  0  0  0  0  0  0  0  0  0  0
   11.6182    5.3906    2.6376 C   0  0  0  0  0  0  0  0  0  0  0  0
   12.4749    5.9150    1.7575 N   0  0  0  0  0  0  0  0  0  0  0  0
   11.9579    5.5622    0.5678 N   0  0  0  0  0  0  0  0  0  0  0  0
   12.6327    5.9303   -0.6544 C   0  0  0  0  0  0  0  0  0  0  0  0
   10.8047    4.8453    0.6698 C   0  0  0  0  0  0  0  0  0  0  0  0
    8.5842    3.3878    1.6955 N   0  0  0  0  0  0  0  0  0  0  0  0
    7.5551    2.6875    2.2042 C   0  0  0  0  0  0  0  0  0  0  0  0
    6.6771    2.0709    1.3225 C   0  0  0  0  0  0  0  0  0  0  0  0
    4.6929    3.1043   -2.4667 H   0  0  0  0  0  0  0  0  0  0  0  0
    3.7146    2.6248   -0.9706 H   0  0  0  0  0  0  0  0  0  0  0  0
    6.0904    1.1689   -2.2533 H   0  0  0  0  0  0  0  0  0  0  0  0
    6.2766   -0.0944   -0.2618 H   0  0  0  0  0  0  0  0  0  0  0  0
    4.7540   -0.6334   -0.8511 H   0  0  0  0  0  0  0  0  0  0  0  0
    2.8729   -1.0937   -0.2798 H   0  0  0  0  0  0  0  0  0  0  0  0
   -0.6517    0.5862    1.4017 H   0  0  0  0  0  0  0  0  0  0  0  0
    0.4928    3.9652    4.1032 H   0  0  0  0  0  0  0  0  0  0  0  0
    1.7519    4.0642    2.8673 H   0  0  0  0  0  0  0  0  0  0  0  0
    1.8786    2.8732    4.2208 H   0  0  0  0  0  0  0  0  0  0  0  0
    3.1562    2.3596    2.2825 H   0  0  0  0  0  0  0  0  0  0  0  0
    4.5841    0.5864    3.5299 H   0  0  0  0  0  0  0  0  0  0  0  0
    6.1013    1.7065    5.1050 H   0  0  0  0  0  0  0  0  0  0  0  0
    9.8617    4.3296    4.6739 H   0  0  0  0  0  0  0  0  0  0  0  0
   11.8187    5.5298    3.6918 H   0  0  0  0  0  0  0  0  0  0  0  0
   13.5047    6.5462   -0.4199 H   0  0  0  0  0  0  0  0  0  0  0  0
   11.9356    6.4940   -1.2794 H   0  0  0  0  0  0  0  0  0  0  0  0
   12.9479    5.0142   -1.1604 H   0  0  0  0  0  0  0  0  0  0  0  0
   10.2709    4.4899   -0.2023 H   0  0  0  0  0  0  0  0  0  0  0  0
    6.8745    2.2322    0.2701 H   0  0  0  0  0  0  0  0  0  0  0  0
  1  2  2  0  0  0  0
  1 30  1  0  0  0  0
  1 31  1  0  0  0  0
  2  3  1  0  0  0  0
  2 32  1  0  0  0  0
  3  4  1  0  0  0  0
  3 33  1  0  0  0  0
  3 34  1  0  0  0  0
  4  5  1  0  0  0  0
  4 14  1  0  0  0  0
  5  6  1  0  0  0  0
  5 13  2  0  0  0  0
  6  7  2  0  0  0  0
  6 35  1  0  0  0  0
  7  8  1  0  0  0  0
  7  9  1  0  0  0  0
  9 10  2  0  0  0  0
  9 36  1  0  0  0  0
 10 11  1  0  0  0  0
 10 13  1  0  0  0  0
 11 12  1  0  0  0  0
 12 37  1  0  0  0  0
 12 38  1  0  0  0  0
 12 39  1  0  0  0  0
 13 40  1  0  0  0  0
 14 15  1  0  0  0  0
 14 29  2  0  0  0  0
 15 16  2  0  0  0  0
 15 41  1  0  0  0  0
 16 17  1  0  0  0  0
 16 42  1  0  0  0  0
 17 18  1  0  0  0  0
 17 28  2  0  0  0  0
 18 19  2  0  0  0  0
 19 20  1  0  0  0  0
 19 43  1  0  0  0  0
 20 21  1  0  0  0  0
 20 27  2  0  0  0  0
 21 22  1  0  0  0  0
 21 26  2  0  0  0  0
 22 23  2  0  0  0  0
 22 44  1  0  0  0  0
 23 24  1  0  0  0  0
 24 25  1  0  0  0  0
 24 26  1  0  0  0  0
 25 45  1  0  0  0  0
 25 46  1  0  0  0  0
 25 47  1  0  0  0  0
 26 48  1  0  0  0  0
 27 28  1  0  0  0  0
 28 29  1  0  0  0  0
 29 49  1  0  0  0  0
M  END
$$$$
