CHEMBL3911746
 OpenBabel04072215373D

 70 73  0  0  0  0  0  0  0  0999 V2000
    0.7487    2.8320    3.2145 C   0  0  0  0  0  0  0  0  0  0  0  0
    2.1154    2.7531    3.4424 O   0  0  0  0  0  0  0  0  0  0  0  0
    3.0095    1.9917    2.7450 C   0  0  0  0  0  0  0  0  0  0  0  0
    2.6170    0.8713    1.9829 C   0  0  0  0  0  0  0  0  0  0  0  0
    3.5522    0.1815    1.1949 C   0  0  0  0  0  0  0  0  0  0  0  0
    3.2277   -0.9043    0.4284 O   0  0  0  0  0  0  0  0  0  0  0  0
    1.9865   -1.4988    0.3069 C   0  0  0  0  0  0  0  0  0  0  0  0
    4.8780    0.6225    1.1662 C   0  0  0  0  0  0  0  0  0  0  0  0
    5.3284    1.7120    1.9438 C   0  0  0  0  0  0  0  0  0  0  0  0
    6.6984    2.1876    1.8105 N   0  0  0  0  0  0  0  0  0  0  0  0
    7.2764    2.3129    0.4302 C   0  0  0  0  0  0  0  0  0  0  0  0
    6.7406    3.4143   -0.5815 C   0  0  0  0  0  0  0  0  0  0  0  0
    7.1156    4.9257   -0.4168 C   0  0  0  0  0  0  0  0  0  0  0  0
    6.7337    5.7227   -1.6106 N   0  0  0  0  0  0  0  0  0  0  0  0
    7.4892    6.0884   -2.6815 C   0  0  0  0  0  0  0  0  0  0  0  0
    8.9223    5.7488   -2.9616 C   0  0  0  0  0  0  0  0  0  0  0  0
    6.7109    6.8400   -3.5376 C   0  0  0  0  0  0  0  0  0  0  0  0
    5.4768    6.9575   -3.0192 N   0  0  0  0  0  0  0  0  0  0  0  0
    5.5192    6.2739   -1.8556 C   0  0  0  0  0  0  0  0  0  0  0  0
    4.3364    6.1668   -0.9538 C   0  0  0  0  0  0  0  0  0  0  0  0
    7.6203    2.5659    2.8939 C   0  0  0  0  0  0  0  0  0  0  0  0
    8.2493    3.7711    2.6434 C   0  0  0  0  0  0  0  0  0  0  0  0
    9.3262    4.2071    3.3142 C   0  0  0  0  0  0  0  0  0  0  0  0
    9.8617    3.4836    4.3317 C   0  0  0  0  0  0  0  0  0  0  0  0
   10.9957    3.9708    4.8043 N   0  0  0  0  0  0  0  0  0  0  0  0
   11.6427    3.4176    5.8056 C   0  0  0  0  0  0  0  0  0  0  0  0
   11.1231    2.3149    6.4785 C   0  0  0  0  0  0  0  0  0  0  0  0
   11.9267    2.0278    7.7756 C   0  0  0  0  0  0  0  0  0  0  0  0
   11.9108    1.0084    8.7299 C   0  0  0  0  0  0  0  0  0  0  0  0
   12.7830    1.3075    9.7390 N   0  0  0  0  0  0  0  0  0  0  0  0
   13.3583    2.4722    9.4771 N   0  0  0  0  0  0  0  0  0  0  0  0
   14.3037    3.2011   10.3330 C   0  0  0  0  0  0  0  0  0  0  0  0
   12.8915    2.9259    8.3060 C   0  0  0  0  0  0  0  0  0  0  0  0
    9.9453    1.7260    5.9406 N   0  0  0  0  0  0  0  0  0  0  0  0
    9.2947    2.2979    4.8250 C   0  0  0  0  0  0  0  0  0  0  0  0
    8.1018    1.7997    4.0682 C   0  0  0  0  0  0  0  0  0  0  0  0
    4.3723    2.3786    2.7508 C   0  0  0  0  0  0  0  0  0  0  0  0
   -1.2935    0.5277    1.2262 Cl  0  0  0  0  0  0  0  0  0  0  0  0
    0.3054    3.5697    3.9173 H   0  0  0  0  0  0  0  0  0  0  0  0
    0.2398    1.8595    3.3731 H   0  0  0  0  0  0  0  0  0  0  0  0
    0.5545    3.2061    2.1834 H   0  0  0  0  0  0  0  0  0  0  0  0
    1.5843    0.5402    1.9869 H   0  0  0  0  0  0  0  0  0  0  0  0
    2.0666   -2.3686   -0.3820 H   0  0  0  0  0  0  0  0  0  0  0  0
    1.2537   -0.7843   -0.1218 H   0  0  0  0  0  0  0  0  0  0  0  0
    1.6328   -1.8660    1.2934 H   0  0  0  0  0  0  0  0  0  0  0  0
    5.5605    0.0859    0.5273 H   0  0  0  0  0  0  0  0  0  0  0  0
    7.1707    1.3413   -0.0725 H   0  0  0  0  0  0  0  0  0  0  0  0
    8.3755    2.4591    0.4861 H   0  0  0  0  0  0  0  0  0  0  0  0
    5.6507    3.3137   -0.7391 H   0  0  0  0  0  0  0  0  0  0  0  0
    7.2421    3.1542   -1.5403 H   0  0  0  0  0  0  0  0  0  0  0  0
    8.2115    5.0318   -0.2648 H   0  0  0  0  0  0  0  0  0  0  0  0
    6.6302    5.3763    0.4750 H   0  0  0  0  0  0  0  0  0  0  0  0
    9.3711    5.1247   -2.1688 H   0  0  0  0  0  0  0  0  0  0  0  0
    9.5153    6.6831   -3.0707 H   0  0  0  0  0  0  0  0  0  0  0  0
    8.9759    5.1922   -3.9223 H   0  0  0  0  0  0  0  0  0  0  0  0
    7.0180    7.2725   -4.4834 H   0  0  0  0  0  0  0  0  0  0  0  0
    3.4733    6.7077   -1.3964 H   0  0  0  0  0  0  0  0  0  0  0  0
    4.5728    6.6168    0.0323 H   0  0  0  0  0  0  0  0  0  0  0  0
    4.0668    5.1004   -0.8295 H   0  0  0  0  0  0  0  0  0  0  0  0
    7.9373    4.3867    1.8491 H   0  0  0  0  0  0  0  0  0  0  0  0
    9.7956    5.1264    3.0030 H   0  0  0  0  0  0  0  0  0  0  0  0
   12.5516    3.9112    6.0527 H   0  0  0  0  0  0  0  0  0  0  0  0
   11.3085    0.1153    8.7273 H   0  0  0  0  0  0  0  0  0  0  0  0
   14.4689    2.6731   11.2924 H   0  0  0  0  0  0  0  0  0  0  0  0
   13.9008    4.2155   10.5641 H   0  0  0  0  0  0  0  0  0  0  0  0
   15.2838    3.3444    9.8238 H   0  0  0  0  0  0  0  0  0  0  0  0
   13.2275    3.8810    7.9311 H   0  0  0  0  0  0  0  0  0  0  0  0
    7.6453    0.8417    4.3257 H   0  0  0  0  0  0  0  0  0  0  0  0
    4.6568    3.2506    3.3221 H   0  0  0  0  0  0  0  0  0  0  0  0
   -0.2273    1.3412    0.9266 H   0  0  0  0  0  0  0  0  0  0  0  0
  1  2  1  0  0  0  0
  1 39  1  0  0  0  0
  1 40  1  0  0  0  0
  1 41  1  0  0  0  0
  2  3  1  0  0  0  0
  3  4  1  0  0  0  0
  3 37  2  0  0  0  0
  4  5  2  0  0  0  0
  4 42  1  0  0  0  0
  5  6  1  0  0  0  0
  5  8  1  0  0  0  0
  6  7  1  0  0  0  0
  7 43  1  0  0  0  0
  7 44  1  0  0  0  0
  7 45  1  0  0  0  0
  8  9  2  0  0  0  0
  8 46  1  0  0  0  0
  9 10  1  0  0  0  0
  9 37  1  0  0  0  0
 10 11  1  0  0  0  0
 10 21  1  0  0  0  0
 11 12  1  0  0  0  0
 11 47  1  0  0  0  0
 11 48  1  0  0  0  0
 12 13  1  0  0  0  0
 12 49  1  0  0  0  0
 12 50  1  0  0  0  0
 13 14  1  0  0  0  0
 13 51  1  0  0  0  0
 13 52  1  0  0  0  0
 14 15  1  0  0  0  0
 14 19  1  0  0  0  0
 15 16  1  0  0  0  0
 15 17  2  0  0  0  0
 16 53  1  0  0  0  0
 16 54  1  0  0  0  0
 16 55  1  0  0  0  0
 17 18  1  0  0  0  0
 17 56  1  0  0  0  0
 18 19  2  0  0  0  0
 19 20  1  0  0  0  0
 20 57  1  0  0  0  0
 20 58  1  0  0  0  0
 20 59  1  0  0  0  0
 21 22  1  0  0  0  0
 21 36  2  0  0  0  0
 22 23  2  0  0  0  0
 22 60  1  0  0  0  0
 23 24  1  0  0  0  0
 23 61  1  0  0  0  0
 24 25  1  0  0  0  0
 24 35  2  0  0  0  0
 25 26  2  0  0  0  0
 26 27  1  0  0  0  0
 26 62  1  0  0  0  0
 27 28  1  0  0  0  0
 27 34  2  0  0  0  0
 28 29  1  0  0  0  0
 28 33  2  0  0  0  0
 29 30  2  0  0  0  0
 29 63  1  0  0  0  0
 30 31  1  0  0  0  0
 31 32  1  0  0  0  0
 31 33  1  0  0  0  0
 32 64  1  0  0  0  0
 32 65  1  0  0  0  0
 32 66  1  0  0  0  0
 33 67  1  0  0  0  0
 34 35  1  0  0  0  0
 35 36  1  0  0  0  0
 36 68  1  0  0  0  0
 37 69  1  0  0  0  0
 38 70  1  0  0  0  0
M  END
$$$$
