CHEMBL45214
 OpenBabel04072215383D

 38 41  0  0  0  0  0  0  0  0999 V2000
   -6.8854    4.8002   -2.5434 C   0  0  0  0  0  0  0  0  0  0  0  0
   -6.8875    4.6337   -1.1598 C   0  0  0  0  0  0  0  0  0  0  0  0
   -6.1366    3.6094   -0.5743 C   0  0  0  0  0  0  0  0  0  0  0  0
   -5.3749    2.7383   -1.3643 C   0  0  0  0  0  0  0  0  0  0  0  0
   -4.5249    1.7229   -0.7149 C   0  0  0  0  0  0  0  0  0  0  0  0
   -4.8444    1.1115    0.4193 N   0  0  0  0  0  0  0  0  0  0  0  0
   -3.8966    0.1526    0.6281 C   0  0  0  0  0  0  0  0  0  0  0  0
   -2.9731    0.1591   -0.3850 C   0  0  0  0  0  0  0  0  0  0  0  0
   -3.3109    1.2249   -1.1961 N   0  0  0  0  0  0  0  0  0  0  0  0
   -2.5221    1.7175   -2.2755 C   0  0  0  0  0  0  0  0  0  0  0  0
   -1.7458    0.8328   -2.9932 C   0  0  0  0  0  0  0  0  0  0  0  0
   -1.0681    1.3737   -4.0538 C   0  0  0  0  0  0  0  0  0  0  0  0
   -1.1015    2.6789   -4.3568 N   0  0  0  0  0  0  0  0  0  0  0  0
   -1.8494    3.4831   -3.5894 C   0  0  0  0  0  0  0  0  0  0  0  0
   -1.8811    4.8547   -3.8532 N   0  0  0  0  0  0  0  0  0  0  0  0
   -0.7880    5.6349   -4.2785 C   0  0  0  0  0  0  0  0  0  0  0  0
   -1.0144    6.8597   -4.9074 C   0  0  0  0  0  0  0  0  0  0  0  0
    0.0783    7.5838   -5.3615 C   0  0  0  0  0  0  0  0  0  0  0  0
    1.3613    7.1924   -5.2109 N   0  0  0  0  0  0  0  0  0  0  0  0
    1.5601    6.0183   -4.5823 C   0  0  0  0  0  0  0  0  0  0  0  0
    0.5360    5.2192   -4.1068 C   0  0  0  0  0  0  0  0  0  0  0  0
   -2.5842    3.0355   -2.5684 N   0  0  0  0  0  0  0  0  0  0  0  0
   -5.4688    2.8615   -2.7596 C   0  0  0  0  0  0  0  0  0  0  0  0
   -6.1846    3.9072   -3.3457 C   0  0  0  0  0  0  0  0  0  0  0  0
   -7.4389    5.6177   -2.9971 H   0  0  0  0  0  0  0  0  0  0  0  0
   -7.4644    5.3074   -0.5324 H   0  0  0  0  0  0  0  0  0  0  0  0
   -6.1389    3.4971    0.5085 H   0  0  0  0  0  0  0  0  0  0  0  0
   -3.9222   -0.4908    1.4985 H   0  0  0  0  0  0  0  0  0  0  0  0
   -2.0773   -0.4270   -0.5286 H   0  0  0  0  0  0  0  0  0  0  0  0
   -1.7071   -0.2303   -2.8070 H   0  0  0  0  0  0  0  0  0  0  0  0
   -0.4676    0.7619   -4.7193 H   0  0  0  0  0  0  0  0  0  0  0  0
   -2.4888    5.3080   -3.1820 H   0  0  0  0  0  0  0  0  0  0  0  0
   -2.0191    7.2282   -5.0795 H   0  0  0  0  0  0  0  0  0  0  0  0
   -0.0544    8.5243   -5.8886 H   0  0  0  0  0  0  0  0  0  0  0  0
    2.5951    5.7137   -4.4670 H   0  0  0  0  0  0  0  0  0  0  0  0
    0.7774    4.2926   -3.6033 H   0  0  0  0  0  0  0  0  0  0  0  0
   -4.9559    2.1667   -3.4184 H   0  0  0  0  0  0  0  0  0  0  0  0
   -6.1830    4.0216   -4.4265 H   0  0  0  0  0  0  0  0  0  0  0  0
  1  2  1  0  0  0  0
  1 24  2  0  0  0  0
  1 25  1  0  0  0  0
  2  3  2  0  0  0  0
  2 26  1  0  0  0  0
  3  4  1  0  0  0  0
  3 27  1  0  0  0  0
  4  5  1  0  0  0  0
  4 23  2  0  0  0  0
  5  6  2  0  0  0  0
  5  9  1  0  0  0  0
  6  7  1  0  0  0  0
  7  8  2  0  0  0  0
  7 28  1  0  0  0  0
  8  9  1  0  0  0  0
  8 29  1  0  0  0  0
  9 10  1  0  0  0  0
 10 11  1  0  0  0  0
 10 22  2  0  0  0  0
 11 12  2  0  0  0  0
 11 30  1  0  0  0  0
 12 13  1  0  0  0  0
 12 31  1  0  0  0  0
 13 14  2  0  0  0  0
 14 15  1  0  0  0  0
 14 22  1  0  0  0  0
 15 16  1  0  0  0  0
 15 32  1  0  0  0  0
 16 17  1  0  0  0  0
 16 21  2  0  0  0  0
 17 18  2  0  0  0  0
 17 33  1  0  0  0  0
 18 19  1  0  0  0  0
 18 34  1  0  0  0  0
 19 20  2  0  0  0  0
 20 21  1  0  0  0  0
 20 35  1  0  0  0  0
 21 36  1  0  0  0  0
 23 24  1  0  0  0  0
 23 37  1  0  0  0  0
 24 38  1  0  0  0  0
M  END
$$$$
