CHEMBL1096415
 OpenBabel04072215363D

 45 48  0  0  0  0  0  0  0  0999 V2000
    1.8359   -0.2905   -2.0383 F   0  0  0  0  0  0  0  0  0  0  0  0
    0.5903   -0.1607   -1.5648 C   0  0  0  0  0  0  0  0  0  0  0  0
   -0.2657   -1.2574   -1.6416 C   0  0  0  0  0  0  0  0  0  0  0  0
   -1.5741   -1.1589   -1.1606 C   0  0  0  0  0  0  0  0  0  0  0  0
   -2.0405    0.0447   -0.6234 C   0  0  0  0  0  0  0  0  0  0  0  0
   -3.3646    0.1311   -0.1414 N   0  0  0  0  0  0  0  0  0  0  0  0
   -4.1162    1.3206   -0.0831 C   0  0  0  0  0  0  0  0  0  0  0  0
   -3.9535    2.2563   -1.0581 N   0  0  0  0  0  0  0  0  0  0  0  0
   -4.6283    3.4154   -0.9799 C   0  0  0  0  0  0  0  0  0  0  0  0
   -5.4711    3.8094   -0.0156 N   0  0  0  0  0  0  0  0  0  0  0  0
   -5.6232    2.8599    0.9178 C   0  0  0  0  0  0  0  0  0  0  0  0
   -6.4022    2.9975    2.0301 N   0  0  0  0  0  0  0  0  0  0  0  0
   -6.3670    1.8449    2.7825 C   0  0  0  0  0  0  0  0  0  0  0  0
   -7.1102    1.6804    4.0783 C   0  0  0  0  0  0  0  0  0  0  0  0
   -8.4177    2.4767    4.1563 C   0  0  0  0  0  0  0  0  0  0  0  0
   -9.1699    2.2375    5.4430 C   0  0  0  0  0  0  0  0  0  0  0  0
   -8.9469    3.0500    6.5638 C   0  0  0  0  0  0  0  0  0  0  0  0
   -9.6648    2.8423    7.7434 C   0  0  0  0  0  0  0  0  0  0  0  0
  -10.6069    1.8180    7.8172 C   0  0  0  0  0  0  0  0  0  0  0  0
  -10.8231    0.9937    6.7149 C   0  0  0  0  0  0  0  0  0  0  0  0
  -10.1064    1.1991    5.5345 C   0  0  0  0  0  0  0  0  0  0  0  0
   -5.5111    0.9696    2.1289 C   0  0  0  0  0  0  0  0  0  0  0  0
   -5.0222    1.6121    0.9535 C   0  0  0  0  0  0  0  0  0  0  0  0
   -1.1517    1.1273   -0.5364 C   0  0  0  0  0  0  0  0  0  0  0  0
    0.1679    1.0399   -1.0091 C   0  0  0  0  0  0  0  0  0  0  0  0
    1.0705    2.2297   -0.9070 C   0  0  0  0  0  0  0  0  0  0  0  0
    2.3342    2.0410   -1.3726 F   0  0  0  0  0  0  0  0  0  0  0  0
    0.5841    3.3077   -1.5863 F   0  0  0  0  0  0  0  0  0  0  0  0
    1.2153    2.6503    0.3835 F   0  0  0  0  0  0  0  0  0  0  0  0
    0.0903   -2.1810   -2.0885 H   0  0  0  0  0  0  0  0  0  0  0  0
   -2.2396   -2.0147   -1.2457 H   0  0  0  0  0  0  0  0  0  0  0  0
   -3.5132   -0.4584    0.6691 H   0  0  0  0  0  0  0  0  0  0  0  0
   -4.4595    4.1166   -1.7914 H   0  0  0  0  0  0  0  0  0  0  0  0
   -6.9126    3.8432    2.2384 H   0  0  0  0  0  0  0  0  0  0  0  0
   -6.4442    1.9749    4.8993 H   0  0  0  0  0  0  0  0  0  0  0  0
   -7.3262    0.6133    4.2199 H   0  0  0  0  0  0  0  0  0  0  0  0
   -9.0672    2.2264    3.3071 H   0  0  0  0  0  0  0  0  0  0  0  0
   -8.2173    3.5523    4.0661 H   0  0  0  0  0  0  0  0  0  0  0  0
   -8.2190    3.8575    6.5237 H   0  0  0  0  0  0  0  0  0  0  0  0
   -9.4944    3.4852    8.6036 H   0  0  0  0  0  0  0  0  0  0  0  0
  -11.1733    1.6641    8.7317 H   0  0  0  0  0  0  0  0  0  0  0  0
  -11.5566    0.1934    6.7721 H   0  0  0  0  0  0  0  0  0  0  0  0
  -10.2916    0.5491    4.6823 H   0  0  0  0  0  0  0  0  0  0  0  0
   -5.2546   -0.0230    2.4762 H   0  0  0  0  0  0  0  0  0  0  0  0
   -1.4862    2.0661   -0.0948 H   0  0  0  0  0  0  0  0  0  0  0  0
  1  2  1  0  0  0  0
  2  3  1  0  0  0  0
  2 25  2  0  0  0  0
  3  4  2  0  0  0  0
  3 30  1  0  0  0  0
  4  5  1  0  0  0  0
  4 31  1  0  0  0  0
  5  6  1  0  0  0  0
  5 24  2  0  0  0  0
  6  7  1  0  0  0  0
  6 32  1  0  0  0  0
  7  8  1  0  0  0  0
  7 23  2  0  0  0  0
  8  9  2  0  0  0  0
  9 10  1  0  0  0  0
  9 33  1  0  0  0  0
 10 11  2  0  0  0  0
 11 12  1  0  0  0  0
 11 23  1  0  0  0  0
 12 13  1  0  0  0  0
 12 34  1  0  0  0  0
 13 14  1  0  0  0  0
 13 22  2  0  0  0  0
 14 15  1  0  0  0  0
 14 35  1  0  0  0  0
 14 36  1  0  0  0  0
 15 16  1  0  0  0  0
 15 37  1  0  0  0  0
 15 38  1  0  0  0  0
 16 17  1  0  0  0  0
 16 21  2  0  0  0  0
 17 18  2  0  0  0  0
 17 39  1  0  0  0  0
 18 19  1  0  0  0  0
 18 40  1  0  0  0  0
 19 20  2  0  0  0  0
 19 41  1  0  0  0  0
 20 21  1  0  0  0  0
 20 42  1  0  0  0  0
 21 43  1  0  0  0  0
 22 23  1  0  0  0  0
 22 44  1  0  0  0  0
 24 25  1  0  0  0  0
 24 45  1  0  0  0  0
 25 26  1  0  0  0  0
 26 27  1  0  0  0  0
 26 28  1  0  0  0  0
 26 29  1  0  0  0  0
M  END
$$$$
