CHEMBL3671484
 OpenBabel04072215373D

 68 71  0  0  0  0  0  0  0  0999 V2000
    4.8846   -2.3414    1.0556 C   0  0  0  0  0  0  0  0  0  0  0  0
    4.4209   -1.3780    0.2538 C   0  0  0  0  0  0  0  0  0  0  0  0
    5.4019   -0.5060   -0.4679 C   0  0  0  0  0  0  0  0  0  0  0  0
    6.5752   -0.8314   -0.5449 O   0  0  0  0  0  0  0  0  0  0  0  0
    4.8185    0.6380   -0.9629 N   0  0  0  0  0  0  0  0  0  0  0  0
    5.3923    1.5179   -1.9186 C   0  0  0  0  0  0  0  0  0  0  0  0
    6.4083    1.0000   -2.7244 C   0  0  0  0  0  0  0  0  0  0  0  0
    6.9559    1.7024   -3.8092 C   0  0  0  0  0  0  0  0  0  0  0  0
    7.8967    1.1566   -4.6880 C   0  0  0  0  0  0  0  0  0  0  0  0
    8.1912   -0.2369   -4.6495 N   0  0  0  0  0  0  0  0  0  0  0  0
    8.9166   -0.9786   -5.6051 C   0  0  0  0  0  0  0  0  0  0  0  0
    8.9753   -0.6015   -6.9501 C   0  0  0  0  0  0  0  0  0  0  0  0
    9.7987   -1.2675   -7.8568 C   0  0  0  0  0  0  0  0  0  0  0  0
   10.5258   -2.3733   -7.4355 C   0  0  0  0  0  0  0  0  0  0  0  0
   11.7140   -3.2134   -8.6424 Br  0  0  0  0  0  0  0  0  0  0  0  0
   10.3928   -2.8515   -6.1352 C   0  0  0  0  0  0  0  0  0  0  0  0
    9.5867   -2.1545   -5.2352 C   0  0  0  0  0  0  0  0  0  0  0  0
    9.4779   -2.6118   -3.9792 F   0  0  0  0  0  0  0  0  0  0  0  0
    8.4308    1.9076   -5.6714 N   0  0  0  0  0  0  0  0  0  0  0  0
    7.9691    3.1531   -5.8129 C   0  0  0  0  0  0  0  0  0  0  0  0
    7.0221    3.7333   -5.0754 N   0  0  0  0  0  0  0  0  0  0  0  0
    6.5247    3.0029   -4.0735 C   0  0  0  0  0  0  0  0  0  0  0  0
    5.5205    3.5319   -3.2713 C   0  0  0  0  0  0  0  0  0  0  0  0
    4.9377    2.8265   -2.1980 C   0  0  0  0  0  0  0  0  0  0  0  0
    3.9953    3.6009   -1.5560 O   0  0  0  0  0  0  0  0  0  0  0  0
    3.4541    3.0933   -0.3534 C   0  0  0  0  0  0  0  0  0  0  0  0
    2.5621    4.0829    0.4048 C   0  0  0  0  0  0  0  0  0  0  0  0
    2.0851    3.4070    1.7005 C   0  0  0  0  0  0  0  0  0  0  0  0
    1.1351    2.2442    1.4199 C   0  0  0  0  0  0  0  0  0  0  0  0
    0.0126    2.6665    0.5890 N   0  0  0  0  0  0  0  0  0  0  0  0
   -1.2919    2.2085    0.7754 C   0  0  0  0  0  0  0  0  0  0  0  0
   -2.2298    2.5901    0.0709 O   0  0  0  0  0  0  0  0  0  0  0  0
   -1.5365    1.1588    1.8749 C   0  0  0  0  0  0  0  0  0  0  0  0
   -1.6026    1.7651    3.2244 N   0  0  0  0  0  0  0  0  0  0  0  0
   -2.8057    2.5926    3.3575 C   0  0  0  0  0  0  0  0  0  0  0  0
   -1.6155    0.7070    4.2378 C   0  0  0  0  0  0  0  0  0  0  0  0
    0.3343    3.3991   -0.6398 C   0  0  0  0  0  0  0  0  0  0  0  0
    1.3362    4.5318   -0.4052 C   0  0  0  0  0  0  0  0  0  0  0  0
    4.2148   -3.0265    1.5604 H   0  0  0  0  0  0  0  0  0  0  0  0
    5.9523   -2.4811    1.2167 H   0  0  0  0  0  0  0  0  0  0  0  0
    3.3675   -1.2550    0.0652 H   0  0  0  0  0  0  0  0  0  0  0  0
    3.8874    0.8227   -0.6431 H   0  0  0  0  0  0  0  0  0  0  0  0
    6.7633   -0.0074   -2.5553 H   0  0  0  0  0  0  0  0  0  0  0  0
    8.3409   -0.5846   -3.7083 H   0  0  0  0  0  0  0  0  0  0  0  0
    8.3964    0.2462   -7.3130 H   0  0  0  0  0  0  0  0  0  0  0  0
    9.8687   -0.8961   -8.8752 H   0  0  0  0  0  0  0  0  0  0  0  0
   10.9240   -3.7360   -5.8030 H   0  0  0  0  0  0  0  0  0  0  0  0
    8.3914    3.7303   -6.6281 H   0  0  0  0  0  0  0  0  0  0  0  0
    5.1677    4.5377   -3.4954 H   0  0  0  0  0  0  0  0  0  0  0  0
    4.2647    2.7914    0.3198 H   0  0  0  0  0  0  0  0  0  0  0  0
    2.8276    2.2482   -0.6328 H   0  0  0  0  0  0  0  0  0  0  0  0
    3.1543    4.9724    0.6516 H   0  0  0  0  0  0  0  0  0  0  0  0
    1.5662    4.1443    2.3255 H   0  0  0  0  0  0  0  0  0  0  0  0
    2.9404    3.0414    2.2815 H   0  0  0  0  0  0  0  0  0  0  0  0
    0.8100    1.8367    2.3764 H   0  0  0  0  0  0  0  0  0  0  0  0
    1.6343    1.4209    0.8953 H   0  0  0  0  0  0  0  0  0  0  0  0
   -0.7265    0.4196    1.8173 H   0  0  0  0  0  0  0  0  0  0  0  0
   -2.4551    0.6100    1.6327 H   0  0  0  0  0  0  0  0  0  0  0  0
   -2.7748    3.4476    2.6742 H   0  0  0  0  0  0  0  0  0  0  0  0
   -2.8737    3.0117    4.3684 H   0  0  0  0  0  0  0  0  0  0  0  0
   -3.7215    2.0226    3.1627 H   0  0  0  0  0  0  0  0  0  0  0  0
   -0.6921    0.1184    4.1869 H   0  0  0  0  0  0  0  0  0  0  0  0
   -2.4658    0.0262    4.1152 H   0  0  0  0  0  0  0  0  0  0  0  0
   -1.6563    1.1345    5.2454 H   0  0  0  0  0  0  0  0  0  0  0  0
   -0.5716    3.8042   -1.1041 H   0  0  0  0  0  0  0  0  0  0  0  0
    0.7435    2.6701   -1.3497 H   0  0  0  0  0  0  0  0  0  0  0  0
    0.8284    5.3310    0.1503 H   0  0  0  0  0  0  0  0  0  0  0  0
    1.6446    4.9628   -1.3642 H   0  0  0  0  0  0  0  0  0  0  0  0
  1  2  2  0  0  0  0
  1 39  1  0  0  0  0
  1 40  1  0  0  0  0
  2  3  1  0  0  0  0
  2 41  1  0  0  0  0
  3  4  2  0  0  0  0
  3  5  1  0  0  0  0
  5  6  1  0  0  0  0
  5 42  1  0  0  0  0
  6  7  1  0  0  0  0
  6 24  2  0  0  0  0
  7  8  2  0  0  0  0
  7 43  1  0  0  0  0
  8  9  1  0  0  0  0
  8 22  1  0  0  0  0
  9 10  1  0  0  0  0
  9 19  2  0  0  0  0
 10 11  1  0  0  0  0
 10 44  1  0  0  0  0
 11 12  1  0  0  0  0
 11 17  2  0  0  0  0
 12 13  2  0  0  0  0
 12 45  1  0  0  0  0
 13 14  1  0  0  0  0
 13 46  1  0  0  0  0
 14 15  1  0  0  0  0
 14 16  2  0  0  0  0
 16 17  1  0  0  0  0
 16 47  1  0  0  0  0
 17 18  1  0  0  0  0
 19 20  1  0  0  0  0
 20 21  2  0  0  0  0
 20 48  1  0  0  0  0
 21 22  1  0  0  0  0
 22 23  2  0  0  0  0
 23 24  1  0  0  0  0
 23 49  1  0  0  0  0
 24 25  1  0  0  0  0
 25 26  1  0  0  0  0
 26 27  1  0  0  0  0
 26 50  1  0  0  0  0
 26 51  1  0  0  0  0
 27 28  1  0  0  0  0
 27 38  1  0  0  0  0
 27 52  1  0  0  0  0
 28 29  1  0  0  0  0
 28 53  1  0  0  0  0
 28 54  1  0  0  0  0
 29 30  1  0  0  0  0
 29 55  1  0  0  0  0
 29 56  1  0  0  0  0
 30 31  1  0  0  0  0
 30 37  1  0  0  0  0
 31 32  2  0  0  0  0
 31 33  1  0  0  0  0
 33 34  1  0  0  0  0
 33 57  1  0  0  0  0
 33 58  1  0  0  0  0
 34 35  1  0  0  0  0
 34 36  1  0  0  0  0
 35 59  1  0  0  0  0
 35 60  1  0  0  0  0
 35 61  1  0  0  0  0
 36 62  1  0  0  0  0
 36 63  1  0  0  0  0
 36 64  1  0  0  0  0
 37 38  1  0  0  0  0
 37 65  1  0  0  0  0
 37 66  1  0  0  0  0
 38 67  1  0  0  0  0
 38 68  1  0  0  0  0
M  END
$$$$
