CHEMBL2204529
 OpenBabel04072215363D

 56 60  0  0  0  0  0  0  0  0999 V2000
    3.5561    4.5839    3.4668 C   0  0  0  0  0  0  0  0  0  0  0  0
    4.2526    3.2493    3.4537 C   0  0  0  0  0  0  0  0  0  0  0  0
    3.9327    2.3692    4.2433 O   0  0  0  0  0  0  0  0  0  0  0  0
    5.2357    3.1851    2.4934 N   0  0  0  0  0  0  0  0  0  0  0  0
    5.9889    2.0600    2.3097 C   0  0  0  0  0  0  0  0  0  0  0  0
    5.8040    0.8525    2.7816 N   0  0  0  0  0  0  0  0  0  0  0  0
    6.8603    0.0542    2.3845 C   0  0  0  0  0  0  0  0  0  0  0  0
    7.1149   -1.2894    2.6386 C   0  0  0  0  0  0  0  0  0  0  0  0
    8.2541   -1.8668    2.1714 N   0  0  0  0  0  0  0  0  0  0  0  0
    9.1335   -1.1129    1.4824 C   0  0  0  0  0  0  0  0  0  0  0  0
   10.3328   -1.7227    1.1024 N   0  0  0  0  0  0  0  0  0  0  0  0
   11.5950   -1.0903    1.0552 C   0  0  0  0  0  0  0  0  0  0  0  0
   11.8595    0.0395    1.8515 C   0  0  0  0  0  0  0  0  0  0  0  0
   13.0429    0.7667    1.7474 C   0  0  0  0  0  0  0  0  0  0  0  0
   13.3153    1.9214    2.5148 N   0  0  0  0  0  0  0  0  0  0  0  0
   12.5221    2.4657    3.5087 C   0  0  0  0  0  0  0  0  0  0  0  0
   11.4040    2.0854    3.8435 O   0  0  0  0  0  0  0  0  0  0  0  0
   13.0557    3.6547    4.2336 C   0  0  0  0  0  0  0  0  0  0  0  0
   12.0968    4.5952    4.6465 C   0  0  0  0  0  0  0  0  0  0  0  0
   12.4696    5.7225    5.3667 C   0  0  0  0  0  0  0  0  0  0  0  0
   13.8090    5.9171    5.6943 C   0  0  0  0  0  0  0  0  0  0  0  0
   14.8053    4.9800    5.3452 C   0  0  0  0  0  0  0  0  0  0  0  0
   16.2652    5.1889    5.8019 C   0  0  0  0  0  0  0  0  0  0  0  0
   17.2911    5.4958    4.8105 C   0  0  0  0  0  0  0  0  0  0  0  0
   18.1050    5.7394    4.0238 N   0  0  0  0  0  0  0  0  0  0  0  0
   16.5268    5.7816    7.1928 C   0  0  0  0  0  0  0  0  0  0  0  0
   16.7011    4.3129    6.9835 C   0  0  0  0  0  0  0  0  0  0  0  0
   14.4030    3.8444    4.5909 C   0  0  0  0  0  0  0  0  0  0  0  0
   15.6170    2.6673    4.1786 Cl  0  0  0  0  0  0  0  0  0  0  0  0
   14.0075    0.3296    0.8385 C   0  0  0  0  0  0  0  0  0  0  0  0
   13.7929   -0.8243    0.0760 C   0  0  0  0  0  0  0  0  0  0  0  0
   12.5931   -1.5472    0.1812 C   0  0  0  0  0  0  0  0  0  0  0  0
   12.3724   -2.7625   -0.6744 C   0  0  0  0  0  0  0  0  0  0  0  0
    8.9415    0.1677    1.1338 N   0  0  0  0  0  0  0  0  0  0  0  0
    7.8134    0.6944    1.6144 C   0  0  0  0  0  0  0  0  0  0  0  0
    7.3603    2.3092    1.3235 S   0  0  0  0  0  0  0  0  0  0  0  0
    2.9599    4.6726    4.3798 H   0  0  0  0  0  0  0  0  0  0  0  0
    2.8948    4.6599    2.5991 H   0  0  0  0  0  0  0  0  0  0  0  0
    4.2857    5.3993    3.4521 H   0  0  0  0  0  0  0  0  0  0  0  0
    5.5125    4.0104    1.9791 H   0  0  0  0  0  0  0  0  0  0  0  0
    6.4424   -1.9117    3.2152 H   0  0  0  0  0  0  0  0  0  0  0  0
   10.3451   -2.6950    1.3741 H   0  0  0  0  0  0  0  0  0  0  0  0
   11.0991    0.3471    2.5601 H   0  0  0  0  0  0  0  0  0  0  0  0
   14.2158    2.3559    2.3479 H   0  0  0  0  0  0  0  0  0  0  0  0
   11.0424    4.4405    4.4137 H   0  0  0  0  0  0  0  0  0  0  0  0
   11.7162    6.4383    5.6878 H   0  0  0  0  0  0  0  0  0  0  0  0
   14.0741    6.8086    6.2610 H   0  0  0  0  0  0  0  0  0  0  0  0
   15.6966    6.0996    7.8107 H   0  0  0  0  0  0  0  0  0  0  0  0
   17.4210    6.3775    7.3426 H   0  0  0  0  0  0  0  0  0  0  0  0
   15.9688    3.6536    7.4414 H   0  0  0  0  0  0  0  0  0  0  0  0
   17.7057    3.9065    6.9909 H   0  0  0  0  0  0  0  0  0  0  0  0
   14.9417    0.8732    0.7118 H   0  0  0  0  0  0  0  0  0  0  0  0
   14.5638   -1.1440   -0.6220 H   0  0  0  0  0  0  0  0  0  0  0  0
   13.2130   -2.9354   -1.3536 H   0  0  0  0  0  0  0  0  0  0  0  0
   11.4733   -2.6379   -1.2868 H   0  0  0  0  0  0  0  0  0  0  0  0
   12.2621   -3.6517   -0.0446 H   0  0  0  0  0  0  0  0  0  0  0  0
  1  2  1  0  0  0  0
  1 37  1  0  0  0  0
  1 38  1  0  0  0  0
  1 39  1  0  0  0  0
  2  3  2  0  0  0  0
  2  4  1  0  0  0  0
  4  5  1  0  0  0  0
  4 40  1  0  0  0  0
  5  6  2  0  0  0  0
  5 36  1  0  0  0  0
  6  7  1  0  0  0  0
  7  8  1  0  0  0  0
  7 35  2  0  0  0  0
  8  9  2  0  0  0  0
  8 41  1  0  0  0  0
  9 10  1  0  0  0  0
 10 11  1  0  0  0  0
 10 34  2  0  0  0  0
 11 12  1  0  0  0  0
 11 42  1  0  0  0  0
 12 13  1  0  0  0  0
 12 32  2  0  0  0  0
 13 14  2  0  0  0  0
 13 43  1  0  0  0  0
 14 15  1  0  0  0  0
 14 30  1  0  0  0  0
 15 16  1  0  0  0  0
 15 44  1  0  0  0  0
 16 17  2  0  0  0  0
 16 18  1  0  0  0  0
 18 19  1  0  0  0  0
 18 28  2  0  0  0  0
 19 20  2  0  0  0  0
 19 45  1  0  0  0  0
 20 21  1  0  0  0  0
 20 46  1  0  0  0  0
 21 22  2  0  0  0  0
 21 47  1  0  0  0  0
 22 23  1  0  0  0  0
 22 28  1  0  0  0  0
 23 24  1  0  0  0  0
 23 26  1  0  0  0  0
 23 27  1  0  0  0  0
 24 25  3  0  0  0  0
 26 27  1  0  0  0  0
 26 48  1  0  0  0  0
 26 49  1  0  0  0  0
 27 50  1  0  0  0  0
 27 51  1  0  0  0  0
 28 29  1  0  0  0  0
 30 31  2  0  0  0  0
 30 52  1  0  0  0  0
 31 32  1  0  0  0  0
 31 53  1  0  0  0  0
 32 33  1  0  0  0  0
 33 54  1  0  0  0  0
 33 55  1  0  0  0  0
 33 56  1  0  0  0  0
 34 35  1  0  0  0  0
 35 36  1  0  0  0  0
M  END
$$$$
