CHEMBL438970
 OpenBabel04072215383D

 40 43  0  0  0  0  0  0  0  0999 V2000
    1.4487   -0.3153   -0.7568 C   0  0  0  0  0  0  0  0  0  0  0  0
    2.6000   -0.0099    0.0248 O   0  0  0  0  0  0  0  0  0  0  0  0
    3.2594   -1.0736    0.5876 C   0  0  0  0  0  0  0  0  0  0  0  0
    2.8583   -2.4040    0.4926 C   0  0  0  0  0  0  0  0  0  0  0  0
    3.5892   -3.4233    1.1073 C   0  0  0  0  0  0  0  0  0  0  0  0
    4.7378   -3.0740    1.8297 C   0  0  0  0  0  0  0  0  0  0  0  0
    5.1847   -1.7508    1.9398 C   0  0  0  0  0  0  0  0  0  0  0  0
    4.4210   -0.7412    1.3061 C   0  0  0  0  0  0  0  0  0  0  0  0
    6.3894   -1.7794    2.7205 C   0  0  0  0  0  0  0  0  0  0  0  0
    7.2116   -0.6748    3.1098 C   0  0  0  0  0  0  0  0  0  0  0  0
    8.5258   -0.6688    3.4032 C   0  0  0  0  0  0  0  0  0  0  0  0
    9.4928   -1.7970    3.3533 C   0  0  0  0  0  0  0  0  0  0  0  0
    9.4375   -2.8627    2.7729 O   0  0  0  0  0  0  0  0  0  0  0  0
   10.5617   -1.3247    4.0969 N   0  0  0  0  0  0  0  0  0  0  0  0
   10.5073    0.0097    4.4071 N   0  0  0  0  0  0  0  0  0  0  0  0
    9.3451    0.4417    3.9699 C   0  0  0  0  0  0  0  0  0  0  0  0
    8.9713    1.8610    3.9956 C   0  0  0  0  0  0  0  0  0  0  0  0
    9.8211    2.7855    4.5958 C   0  0  0  0  0  0  0  0  0  0  0  0
    9.5837    4.1216    4.5749 N   0  0  0  0  0  0  0  0  0  0  0  0
    8.4642    4.4976    3.9183 C   0  0  0  0  0  0  0  0  0  0  0  0
    7.6161    3.5808    3.3207 C   0  0  0  0  0  0  0  0  0  0  0  0
    7.8462    2.2476    3.3442 N   0  0  0  0  0  0  0  0  0  0  0  0
    6.5715   -3.0818    3.1325 C   0  0  0  0  0  0  0  0  0  0  0  0
    5.6189   -3.8580    2.5380 N   0  0  0  0  0  0  0  0  0  0  0  0
    5.5482   -5.2967    2.6578 C   0  0  0  0  0  0  0  0  0  0  0  0
    1.0519    0.6222   -1.1576 H   0  0  0  0  0  0  0  0  0  0  0  0
    0.6636   -0.7715   -0.1435 H   0  0  0  0  0  0  0  0  0  0  0  0
    1.7062   -0.9560   -1.6075 H   0  0  0  0  0  0  0  0  0  0  0  0
    1.9686   -2.6952   -0.0560 H   0  0  0  0  0  0  0  0  0  0  0  0
    3.2643   -4.4558    1.0272 H   0  0  0  0  0  0  0  0  0  0  0  0
    4.7282    0.2983    1.3751 H   0  0  0  0  0  0  0  0  0  0  0  0
    6.6578    0.2528    3.2173 H   0  0  0  0  0  0  0  0  0  0  0  0
   11.4195   -1.8508    4.2169 H   0  0  0  0  0  0  0  0  0  0  0  0
   10.7359    2.4839    5.0979 H   0  0  0  0  0  0  0  0  0  0  0  0
    8.2679    5.5635    3.8797 H   0  0  0  0  0  0  0  0  0  0  0  0
    6.7201    3.8976    2.7974 H   0  0  0  0  0  0  0  0  0  0  0  0
    7.3180   -3.5314    3.7717 H   0  0  0  0  0  0  0  0  0  0  0  0
    6.3985   -5.6578    3.2427 H   0  0  0  0  0  0  0  0  0  0  0  0
    5.5838   -5.7291    1.6544 H   0  0  0  0  0  0  0  0  0  0  0  0
    4.6144   -5.5546    3.1611 H   0  0  0  0  0  0  0  0  0  0  0  0
  1  2  1  0  0  0  0
  1 26  1  0  0  0  0
  1 27  1  0  0  0  0
  1 28  1  0  0  0  0
  2  3  1  0  0  0  0
  3  4  1  0  0  0  0
  3  8  2  0  0  0  0
  4  5  2  0  0  0  0
  4 29  1  0  0  0  0
  5  6  1  0  0  0  0
  5 30  1  0  0  0  0
  6  7  2  0  0  0  0
  6 24  1  0  0  0  0
  7  8  1  0  0  0  0
  7  9  1  0  0  0  0
  8 31  1  0  0  0  0
  9 10  1  0  0  0  0
  9 23  2  0  0  0  0
 10 11  2  0  0  0  0
 10 32  1  0  0  0  0
 11 12  1  0  0  0  0
 11 16  1  0  0  0  0
 12 13  2  0  0  0  0
 12 14  1  0  0  0  0
 14 15  1  0  0  0  0
 14 33  1  0  0  0  0
 15 16  2  0  0  0  0
 16 17  1  0  0  0  0
 17 18  1  0  0  0  0
 17 22  2  0  0  0  0
 18 19  2  0  0  0  0
 18 34  1  0  0  0  0
 19 20  1  0  0  0  0
 20 21  2  0  0  0  0
 20 35  1  0  0  0  0
 21 22  1  0  0  0  0
 21 36  1  0  0  0  0
 23 24  1  0  0  0  0
 23 37  1  0  0  0  0
 24 25  1  0  0  0  0
 25 38  1  0  0  0  0
 25 39  1  0  0  0  0
 25 40  1  0  0  0  0
M  END
$$$$
