CHEMBL187130
 OpenBabel04072215363D

 53 57  0  0  0  0  0  0  0  0999 V2000
    2.5642   -1.6393   -0.0105 O   0  0  0  0  0  0  0  0  0  0  0  0
    1.7479   -0.8656   -0.5189 C   0  0  0  0  0  0  0  0  0  0  0  0
    0.5661   -1.3848   -0.9544 N   0  0  0  0  0  0  0  0  0  0  0  0
   -0.4937   -0.7109   -1.5642 C   0  0  0  0  0  0  0  0  0  0  0  0
   -1.6277   -1.4556   -1.9127 C   0  0  0  0  0  0  0  0  0  0  0  0
   -2.7097   -0.8392   -2.5437 C   0  0  0  0  0  0  0  0  0  0  0  0
   -2.6634    0.5200   -2.8276 C   0  0  0  0  0  0  0  0  0  0  0  0
   -1.5364    1.2629   -2.4735 C   0  0  0  0  0  0  0  0  0  0  0  0
   -0.4432    0.6537   -1.8394 C   0  0  0  0  0  0  0  0  0  0  0  0
    0.9420    1.6734   -1.4492 S   0  0  0  0  0  0  0  0  0  0  0  0
    2.0167    0.6045   -0.6202 C   0  0  0  0  0  0  0  0  0  0  0  0
    3.1277    1.0516   -0.0005 C   0  0  0  0  0  0  0  0  0  0  0  0
    3.4943    2.4216    0.1612 C   0  0  0  0  0  0  0  0  0  0  0  0
    4.2471    3.1688   -0.7150 C   0  0  0  0  0  0  0  0  0  0  0  0
    4.2865    4.4521   -0.2286 N   0  0  0  0  0  0  0  0  0  0  0  0
    3.5823    4.5407    0.9532 C   0  0  0  0  0  0  0  0  0  0  0  0
    3.3346    5.6374    1.7899 C   0  0  0  0  0  0  0  0  0  0  0  0
    2.5677    5.4249    2.9433 C   0  0  0  0  0  0  0  0  0  0  0  0
    2.3701    6.5374    3.7205 O   0  0  0  0  0  0  0  0  0  0  0  0
    2.1718    6.3122    5.1226 C   0  0  0  0  0  0  0  0  0  0  0  0
    3.2754    7.0374    5.9065 C   0  0  0  0  0  0  0  0  0  0  0  0
    3.2341    6.8146    7.3669 N   0  0  0  0  0  0  0  0  0  0  0  0
    4.3030    7.5894    8.0435 C   0  0  0  0  0  0  0  0  0  0  0  0
    5.7189    7.0224    7.8229 C   0  0  0  0  0  0  0  0  0  0  0  0
    5.8049    5.6439    8.2057 O   0  0  0  0  0  0  0  0  0  0  0  0
    4.8287    4.8559    7.5128 C   0  0  0  0  0  0  0  0  0  0  0  0
    3.4119    5.3964    7.7617 C   0  0  0  0  0  0  0  0  0  0  0  0
    2.0303    4.1657    3.2120 C   0  0  0  0  0  0  0  0  0  0  0  0
    2.3005    3.0769    2.3783 C   0  0  0  0  0  0  0  0  0  0  0  0
    3.0856    3.2678    1.2273 C   0  0  0  0  0  0  0  0  0  0  0  0
    0.4836   -2.3816   -0.7960 H   0  0  0  0  0  0  0  0  0  0  0  0
   -1.6810   -2.5205   -1.7016 H   0  0  0  0  0  0  0  0  0  0  0  0
   -3.5867   -1.4229   -2.8146 H   0  0  0  0  0  0  0  0  0  0  0  0
   -3.5013    1.0074   -3.3198 H   0  0  0  0  0  0  0  0  0  0  0  0
   -1.5169    2.3285   -2.7002 H   0  0  0  0  0  0  0  0  0  0  0  0
    3.7795    0.3450    0.5094 H   0  0  0  0  0  0  0  0  0  0  0  0
    4.7247    2.9164   -1.6517 H   0  0  0  0  0  0  0  0  0  0  0  0
    4.7428    5.2317   -0.6822 H   0  0  0  0  0  0  0  0  0  0  0  0
    3.7208    6.6245    1.5574 H   0  0  0  0  0  0  0  0  0  0  0  0
    2.1993    5.2556    5.3820 H   0  0  0  0  0  0  0  0  0  0  0  0
    1.1853    6.7021    5.3946 H   0  0  0  0  0  0  0  0  0  0  0  0
    3.1622    8.1122    5.7067 H   0  0  0  0  0  0  0  0  0  0  0  0
    4.2456    6.7643    5.4750 H   0  0  0  0  0  0  0  0  0  0  0  0
    4.0870    7.5705    9.1202 H   0  0  0  0  0  0  0  0  0  0  0  0
    4.2635    8.6432    7.7440 H   0  0  0  0  0  0  0  0  0  0  0  0
    6.4344    7.5769    8.4396 H   0  0  0  0  0  0  0  0  0  0  0  0
    6.0403    7.1253    6.7809 H   0  0  0  0  0  0  0  0  0  0  0  0
    4.9020    3.8321    7.8937 H   0  0  0  0  0  0  0  0  0  0  0  0
    5.0741    4.8251    6.4451 H   0  0  0  0  0  0  0  0  0  0  0  0
    3.2026    5.3318    8.8375 H   0  0  0  0  0  0  0  0  0  0  0  0
    2.6680    4.7463    7.2924 H   0  0  0  0  0  0  0  0  0  0  0  0
    1.3715    3.9901    4.0559 H   0  0  0  0  0  0  0  0  0  0  0  0
    1.8874    2.0990    2.6080 H   0  0  0  0  0  0  0  0  0  0  0  0
  1  2  2  0  0  0  0
  2  3  1  0  0  0  0
  2 11  1  0  0  0  0
  3  4  1  0  0  0  0
  3 31  1  0  0  0  0
  4  5  1  0  0  0  0
  4  9  2  0  0  0  0
  5  6  2  0  0  0  0
  5 32  1  0  0  0  0
  6  7  1  0  0  0  0
  6 33  1  0  0  0  0
  7  8  2  0  0  0  0
  7 34  1  0  0  0  0
  8  9  1  0  0  0  0
  8 35  1  0  0  0  0
  9 10  1  0  0  0  0
 10 11  1  0  0  0  0
 11 12  2  0  0  0  0
 12 13  1  0  0  0  0
 12 36  1  0  0  0  0
 13 14  2  0  0  0  0
 13 30  1  0  0  0  0
 14 15  1  0  0  0  0
 14 37  1  0  0  0  0
 15 16  1  0  0  0  0
 15 38  1  0  0  0  0
 16 17  1  0  0  0  0
 16 30  2  0  0  0  0
 17 18  2  0  0  0  0
 17 39  1  0  0  0  0
 18 19  1  0  0  0  0
 18 28  1  0  0  0  0
 19 20  1  0  0  0  0
 20 21  1  0  0  0  0
 20 40  1  0  0  0  0
 20 41  1  0  0  0  0
 21 22  1  0  0  0  0
 21 42  1  0  0  0  0
 21 43  1  0  0  0  0
 22 23  1  0  0  0  0
 22 27  1  0  0  0  0
 23 24  1  0  0  0  0
 23 44  1  0  0  0  0
 23 45  1  0  0  0  0
 24 25  1  0  0  0  0
 24 46  1  0  0  0  0
 24 47  1  0  0  0  0
 25 26  1  0  0  0  0
 26 27  1  0  0  0  0
 26 48  1  0  0  0  0
 26 49  1  0  0  0  0
 27 50  1  0  0  0  0
 27 51  1  0  0  0  0
 28 29  2  0  0  0  0
 28 52  1  0  0  0  0
 29 30  1  0  0  0  0
 29 53  1  0  0  0  0
M  END
$$$$
