CHEMBL2430249
 OpenBabel04072215363D

 61 65  0  0  0  0  0  0  0  0999 V2000
    0.9340    0.3530   -0.0481 C   0  0  0  0  0  0  0  0  0  0  0  0
    2.3959    0.0695   -0.0204 C   0  0  0  0  0  0  0  0  0  0  0  0
    3.3180    1.1086    0.0053 N   0  0  0  0  0  0  0  0  0  0  0  0
    4.5958    0.6137   -0.0014 C   0  0  0  0  0  0  0  0  0  0  0  0
    4.4852   -0.7616   -0.0309 C   0  0  0  0  0  0  0  0  0  0  0  0
    3.1059   -1.1243   -0.0714 C   0  0  0  0  0  0  0  0  0  0  0  0
    2.6269   -2.5064   -0.1678 C   0  0  0  0  0  0  0  0  0  0  0  0
    3.2965   -3.4022   -0.6768 O   0  0  0  0  0  0  0  0  0  0  0  0
    1.4170   -2.7591    0.4267 N   0  0  0  0  0  0  0  0  0  0  0  0
    0.9520   -4.1215    0.5546 C   0  0  0  0  0  0  0  0  0  0  0  0
   -0.3703   -4.1580    1.2971 C   0  0  0  0  0  0  0  0  0  0  0  0
   -0.9075   -5.5841    1.4124 C   0  0  0  0  0  0  0  0  0  0  0  0
   -2.2149   -5.6447    2.0913 N   0  0  0  0  0  0  0  0  0  0  0  0
   -2.1887   -5.1598    3.4811 C   0  0  0  0  0  0  0  0  0  0  0  0
   -1.6738   -6.3367    4.2808 C   0  0  0  0  0  0  0  0  0  0  0  0
   -2.3947   -7.5020    3.6314 C   0  0  0  0  0  0  0  0  0  0  0  0
   -2.6691   -7.0478    2.1975 C   0  0  0  0  0  0  0  0  0  0  0  0
    5.6267   -1.7109   -0.0168 C   0  0  0  0  0  0  0  0  0  0  0  0
    6.9970   -1.0636    0.0333 C   0  0  0  0  0  0  0  0  0  0  0  0
    7.0892    0.4652    0.0193 C   0  0  0  0  0  0  0  0  0  0  0  0
    5.8327    1.3367    0.0142 C   0  0  0  0  0  0  0  0  0  0  0  0
    5.9935    2.6891    0.0075 C   0  0  0  0  0  0  0  0  0  0  0  0
    4.9342    3.7814   -0.0058 C   0  0  0  0  0  0  0  0  0  0  0  0
    3.7220    3.6721   -0.0047 O   0  0  0  0  0  0  0  0  0  0  0  0
    5.6245    4.9835   -0.0122 N   0  0  0  0  0  0  0  0  0  0  0  0
    6.9982    4.7944   -0.0055 C   0  0  0  0  0  0  0  0  0  0  0  0
    7.9650    5.7870   -0.0066 C   0  0  0  0  0  0  0  0  0  0  0  0
    9.3046    5.3938    0.0032 C   0  0  0  0  0  0  0  0  0  0  0  0
    9.6289    4.0411    0.0134 C   0  0  0  0  0  0  0  0  0  0  0  0
   10.9149    3.6643    0.0225 F   0  0  0  0  0  0  0  0  0  0  0  0
    8.6429    3.0565    0.0162 C   0  0  0  0  0  0  0  0  0  0  0  0
    7.3026    3.4262    0.0076 C   0  0  0  0  0  0  0  0  0  0  0  0
    0.7251    1.4264   -0.0985 H   0  0  0  0  0  0  0  0  0  0  0  0
    0.4479   -0.0295    0.8550 H   0  0  0  0  0  0  0  0  0  0  0  0
    0.4688   -0.1221   -0.9179 H   0  0  0  0  0  0  0  0  0  0  0  0
    3.0739    2.0952    0.0083 H   0  0  0  0  0  0  0  0  0  0  0  0
    1.0552   -2.0511    1.0481 H   0  0  0  0  0  0  0  0  0  0  0  0
    1.7156   -4.6957    1.0948 H   0  0  0  0  0  0  0  0  0  0  0  0
    0.8628   -4.5506   -0.4499 H   0  0  0  0  0  0  0  0  0  0  0  0
   -1.1014   -3.5185    0.7882 H   0  0  0  0  0  0  0  0  0  0  0  0
   -0.1973   -3.7215    2.2862 H   0  0  0  0  0  0  0  0  0  0  0  0
   -0.1642   -6.2243    1.9040 H   0  0  0  0  0  0  0  0  0  0  0  0
   -1.0334   -5.9755    0.3937 H   0  0  0  0  0  0  0  0  0  0  0  0
   -3.2170   -4.9237    3.7844 H   0  0  0  0  0  0  0  0  0  0  0  0
   -1.6094   -4.2502    3.6500 H   0  0  0  0  0  0  0  0  0  0  0  0
   -1.8918   -6.2491    5.3483 H   0  0  0  0  0  0  0  0  0  0  0  0
   -0.5884   -6.4445    4.1645 H   0  0  0  0  0  0  0  0  0  0  0  0
   -3.3435   -7.6835    4.1499 H   0  0  0  0  0  0  0  0  0  0  0  0
   -1.7994   -8.4185    3.6741 H   0  0  0  0  0  0  0  0  0  0  0  0
   -3.7460   -7.0896    1.9969 H   0  0  0  0  0  0  0  0  0  0  0  0
   -2.1893   -7.7128    1.4695 H   0  0  0  0  0  0  0  0  0  0  0  0
    5.5802   -2.3501   -0.9058 H   0  0  0  0  0  0  0  0  0  0  0  0
    5.5217   -2.3726    0.8528 H   0  0  0  0  0  0  0  0  0  0  0  0
    7.5918   -1.4489   -0.8061 H   0  0  0  0  0  0  0  0  0  0  0  0
    7.5272   -1.4325    0.9216 H   0  0  0  0  0  0  0  0  0  0  0  0
    7.6626    0.7131   -0.8827 H   0  0  0  0  0  0  0  0  0  0  0  0
    7.6652    0.7262    0.9156 H   0  0  0  0  0  0  0  0  0  0  0  0
    5.1575    5.8780   -0.0228 H   0  0  0  0  0  0  0  0  0  0  0  0
    7.7049    6.8387   -0.0151 H   0  0  0  0  0  0  0  0  0  0  0  0
   10.1080    6.1236    0.0030 H   0  0  0  0  0  0  0  0  0  0  0  0
    8.9981    2.0370    0.0201 H   0  0  0  0  0  0  0  0  0  0  0  0
  1  2  1  0  0  0  0
  1 33  1  0  0  0  0
  1 34  1  0  0  0  0
  1 35  1  0  0  0  0
  2  3  1  0  0  0  0
  2  6  2  0  0  0  0
  3  4  1  0  0  0  0
  3 36  1  0  0  0  0
  4  5  2  0  0  0  0
  4 21  1  0  0  0  0
  5  6  1  0  0  0  0
  5 18  1  0  0  0  0
  6  7  1  0  0  0  0
  7  8  2  0  0  0  0
  7  9  1  0  0  0  0
  9 10  1  0  0  0  0
  9 37  1  0  0  0  0
 10 11  1  0  0  0  0
 10 38  1  0  0  0  0
 10 39  1  0  0  0  0
 11 12  1  0  0  0  0
 11 40  1  0  0  0  0
 11 41  1  0  0  0  0
 12 13  1  0  0  0  0
 12 42  1  0  0  0  0
 12 43  1  0  0  0  0
 13 14  1  0  0  0  0
 13 17  1  0  0  0  0
 14 15  1  0  0  0  0
 14 44  1  0  0  0  0
 14 45  1  0  0  0  0
 15 16  1  0  0  0  0
 15 46  1  0  0  0  0
 15 47  1  0  0  0  0
 16 17  1  0  0  0  0
 16 48  1  0  0  0  0
 16 49  1  0  0  0  0
 17 50  1  0  0  0  0
 17 51  1  0  0  0  0
 18 19  1  0  0  0  0
 18 52  1  0  0  0  0
 18 53  1  0  0  0  0
 19 20  1  0  0  0  0
 19 54  1  0  0  0  0
 19 55  1  0  0  0  0
 20 21  1  0  0  0  0
 20 56  1  0  0  0  0
 20 57  1  0  0  0  0
 21 22  2  0  0  0  0
 22 23  1  0  0  0  0
 22 32  1  0  0  0  0
 23 24  2  0  0  0  0
 23 25  1  0  0  0  0
 25 26  1  0  0  0  0
 25 58  1  0  0  0  0
 26 27  1  0  0  0  0
 26 32  2  0  0  0  0
 27 28  2  0  0  0  0
 27 59  1  0  0  0  0
 28 29  1  0  0  0  0
 28 60  1  0  0  0  0
 29 30  1  0  0  0  0
 29 31  2  0  0  0  0
 31 32  1  0  0  0  0
 31 61  1  0  0  0  0
M  END
$$$$
