CHEMBL518676
 OpenBabel04072215383D

 59 64  0  0  0  0  0  0  0  0999 V2000
    0.7454    2.6652   -2.8092 C   0  0  0  0  0  0  0  0  0  0  0  0
    0.3859    1.3312   -3.2040 N   0  0  0  0  0  0  0  0  0  0  0  0
    1.1917    0.4255   -3.8285 C   0  0  0  0  0  0  0  0  0  0  0  0
    0.5861   -0.7353   -3.9594 N   0  0  0  0  0  0  0  0  0  0  0  0
   -0.6715   -0.5554   -3.4380 C   0  0  0  0  0  0  0  0  0  0  0  0
   -1.7034   -1.6251   -3.3612 C   0  0  0  0  0  0  0  0  0  0  0  0
   -1.4656   -2.9439   -3.6772 C   0  0  0  0  0  0  0  0  0  0  0  0
   -2.6079   -3.7666   -3.4539 C   0  0  0  0  0  0  0  0  0  0  0  0
   -2.6537   -5.1159   -3.6316 N   0  0  0  0  0  0  0  0  0  0  0  0
   -3.8250   -5.7062   -3.3327 C   0  0  0  0  0  0  0  0  0  0  0  0
   -4.9638   -5.0503   -2.9125 C   0  0  0  0  0  0  0  0  0  0  0  0
   -4.9400   -3.6588   -2.8209 C   0  0  0  0  0  0  0  0  0  0  0  0
   -6.0423   -2.9051   -2.4879 O   0  0  0  0  0  0  0  0  0  0  0  0
   -7.2505   -3.2046   -3.0752 C   0  0  0  0  0  0  0  0  0  0  0  0
   -7.3921   -3.8422   -4.3115 C   0  0  0  0  0  0  0  0  0  0  0  0
   -8.6577   -4.2176   -4.7606 C   0  0  0  0  0  0  0  0  0  0  0  0
   -9.7991   -3.8603   -4.0384 C   0  0  0  0  0  0  0  0  0  0  0  0
  -11.0331   -4.3229   -4.5250 N   0  0  0  0  0  0  0  0  0  0  0  0
  -12.3153   -3.8539   -4.2939 C   0  0  0  0  0  0  0  0  0  0  0  0
  -12.6936   -2.2448   -3.9643 S   0  0  0  0  0  0  0  0  0  0  0  0
  -13.2923   -4.8556   -4.3974 N   0  0  0  0  0  0  0  0  0  0  0  0
  -14.6351   -4.7191   -3.8660 C   0  0  0  0  0  0  0  0  0  0  0  0
  -15.3460   -5.9869   -4.2867 C   0  0  0  0  0  0  0  0  0  0  0  0
  -14.2739   -6.9254   -4.4954 N   0  0  0  0  0  0  0  0  0  0  0  0
  -14.4597   -8.3254   -4.5986 C   0  0  0  0  0  0  0  0  0  0  0  0
  -13.3674   -9.2001   -4.6120 C   0  0  0  0  0  0  0  0  0  0  0  0
  -13.5498  -10.5849   -4.6926 C   0  0  0  0  0  0  0  0  0  0  0  0
  -14.8331  -11.1154   -4.7540 C   0  0  0  0  0  0  0  0  0  0  0  0
  -15.9326  -10.2624   -4.7299 C   0  0  0  0  0  0  0  0  0  0  0  0
  -15.7478   -8.8793   -4.6468 C   0  0  0  0  0  0  0  0  0  0  0  0
  -13.0701   -6.2261   -4.7160 C   0  0  0  0  0  0  0  0  0  0  0  0
  -12.0152   -6.6637   -5.1591 O   0  0  0  0  0  0  0  0  0  0  0  0
   -9.6625   -3.1569   -2.8415 C   0  0  0  0  0  0  0  0  0  0  0  0
   -8.3935   -2.8354   -2.3702 C   0  0  0  0  0  0  0  0  0  0  0  0
   -8.2855   -2.1922   -1.1976 F   0  0  0  0  0  0  0  0  0  0  0  0
   -3.7101   -3.0219   -3.0368 C   0  0  0  0  0  0  0  0  0  0  0  0
   -3.3089   -1.3646   -2.8605 S   0  0  0  0  0  0  0  0  0  0  0  0
   -0.8188    0.7350   -2.9730 C   0  0  0  0  0  0  0  0  0  0  0  0
    1.7206    2.9257   -3.2280 H   0  0  0  0  0  0  0  0  0  0  0  0
    0.7876    2.6957   -1.7164 H   0  0  0  0  0  0  0  0  0  0  0  0
   -0.0151    3.3573   -3.1793 H   0  0  0  0  0  0  0  0  0  0  0  0
    2.1973    0.6482   -4.1573 H   0  0  0  0  0  0  0  0  0  0  0  0
   -0.5086   -3.3163   -4.0209 H   0  0  0  0  0  0  0  0  0  0  0  0
   -3.8357   -6.7863   -3.4597 H   0  0  0  0  0  0  0  0  0  0  0  0
   -5.8653   -5.6136   -2.6958 H   0  0  0  0  0  0  0  0  0  0  0  0
   -6.5302   -4.0814   -4.9277 H   0  0  0  0  0  0  0  0  0  0  0  0
   -8.7416   -4.7735   -5.6920 H   0  0  0  0  0  0  0  0  0  0  0  0
  -10.9834   -5.1545   -5.1177 H   0  0  0  0  0  0  0  0  0  0  0  0
  -15.1403   -3.8170   -4.2212 H   0  0  0  0  0  0  0  0  0  0  0  0
  -14.5467   -4.6683   -2.7734 H   0  0  0  0  0  0  0  0  0  0  0  0
  -15.8629   -5.8389   -5.2420 H   0  0  0  0  0  0  0  0  0  0  0  0
  -16.0539   -6.3183   -3.5217 H   0  0  0  0  0  0  0  0  0  0  0  0
  -12.3452   -8.8388   -4.5376 H   0  0  0  0  0  0  0  0  0  0  0  0
  -12.6847  -11.2424   -4.7011 H   0  0  0  0  0  0  0  0  0  0  0  0
  -14.9736  -12.1898   -4.8180 H   0  0  0  0  0  0  0  0  0  0  0  0
  -16.9376  -10.6741   -4.7786 H   0  0  0  0  0  0  0  0  0  0  0  0
  -16.6365   -8.2518   -4.6435 H   0  0  0  0  0  0  0  0  0  0  0  0
  -10.5105   -2.9047   -2.2164 H   0  0  0  0  0  0  0  0  0  0  0  0
   -1.6356    1.2450   -2.4857 H   0  0  0  0  0  0  0  0  0  0  0  0
  1  2  1  0  0  0  0
  1 39  1  0  0  0  0
  1 40  1  0  0  0  0
  1 41  1  0  0  0  0
  2  3  1  0  0  0  0
  2 38  1  0  0  0  0
  3  4  2  0  0  0  0
  3 42  1  0  0  0  0
  4  5  1  0  0  0  0
  5  6  1  0  0  0  0
  5 38  2  0  0  0  0
  6  7  2  0  0  0  0
  6 37  1  0  0  0  0
  7  8  1  0  0  0  0
  7 43  1  0  0  0  0
  8  9  1  0  0  0  0
  8 36  2  0  0  0  0
  9 10  2  0  0  0  0
 10 11  1  0  0  0  0
 10 44  1  0  0  0  0
 11 12  2  0  0  0  0
 11 45  1  0  0  0  0
 12 13  1  0  0  0  0
 12 36  1  0  0  0  0
 13 14  1  0  0  0  0
 14 15  1  0  0  0  0
 14 34  2  0  0  0  0
 15 16  2  0  0  0  0
 15 46  1  0  0  0  0
 16 17  1  0  0  0  0
 16 47  1  0  0  0  0
 17 18  1  0  0  0  0
 17 33  2  0  0  0  0
 18 19  1  0  0  0  0
 18 48  1  0  0  0  0
 19 20  2  0  0  0  0
 19 21  1  0  0  0  0
 21 22  1  0  0  0  0
 21 31  1  0  0  0  0
 22 23  1  0  0  0  0
 22 49  1  0  0  0  0
 22 50  1  0  0  0  0
 23 24  1  0  0  0  0
 23 51  1  0  0  0  0
 23 52  1  0  0  0  0
 24 25  1  0  0  0  0
 24 31  1  0  0  0  0
 25 26  1  0  0  0  0
 25 30  2  0  0  0  0
 26 27  2  0  0  0  0
 26 53  1  0  0  0  0
 27 28  1  0  0  0  0
 27 54  1  0  0  0  0
 28 29  2  0  0  0  0
 28 55  1  0  0  0  0
 29 30  1  0  0  0  0
 29 56  1  0  0  0  0
 30 57  1  0  0  0  0
 31 32  2  0  0  0  0
 33 34  1  0  0  0  0
 33 58  1  0  0  0  0
 34 35  1  0  0  0  0
 36 37  1  0  0  0  0
 38 59  1  0  0  0  0
M  END
$$$$
