CHEMBL3945525
 OpenBabel04072215373D

 64 68  0  0  0  0  0  0  0  0999 V2000
    0.8709    0.6060   -2.0080 C   0  0  0  0  0  0  0  0  0  0  0  0
    1.9144   -0.0380   -1.1306 C   0  0  0  0  0  0  0  0  0  0  0  0
    1.9486    0.2129    0.0738 O   0  0  0  0  0  0  0  0  0  0  0  0
    2.7808   -0.9354   -1.7318 N   0  0  0  0  0  0  0  0  0  0  0  0
    3.6852   -1.7326   -0.9053 C   0  0  0  0  0  0  0  0  0  0  0  0
    5.1414   -1.4867   -1.2963 C   0  0  0  0  0  0  0  0  0  0  0  0
    5.3693   -1.7038   -2.7953 C   0  0  0  0  0  0  0  0  0  0  0  0
    5.2200   -3.1545   -3.2422 C   0  0  0  0  0  0  0  0  0  0  0  0
    4.3621   -3.4344   -4.0769 O   0  0  0  0  0  0  0  0  0  0  0  0
    6.0880   -4.0802   -2.6828 N   0  0  0  0  0  0  0  0  0  0  0  0
    6.0923   -5.4592   -3.0626 C   0  0  0  0  0  0  0  0  0  0  0  0
    5.5061   -5.8758   -4.2782 C   0  0  0  0  0  0  0  0  0  0  0  0
    5.3323   -7.2168   -4.5602 C   0  0  0  0  0  0  0  0  0  0  0  0
    5.7973   -8.1653   -3.6744 C   0  0  0  0  0  0  0  0  0  0  0  0
    6.5453   -7.7755   -2.5576 C   0  0  0  0  0  0  0  0  0  0  0  0
    7.1633   -8.6820   -1.7285 O   0  0  0  0  0  0  0  0  0  0  0  0
    7.6165   -9.8865   -2.2410 C   0  0  0  0  0  0  0  0  0  0  0  0
    8.0300  -10.0855   -3.5717 C   0  0  0  0  0  0  0  0  0  0  0  0
    8.3915  -11.3622   -4.0559 C   0  0  0  0  0  0  0  0  0  0  0  0
    8.5144  -12.4066   -3.1204 C   0  0  0  0  0  0  0  0  0  0  0  0
    9.1073  -13.7204   -3.0399 C   0  0  0  0  0  0  0  0  0  0  0  0
    8.4107  -14.9742   -2.6971 C   0  0  0  0  0  0  0  0  0  0  0  0
    7.0956  -15.0284   -2.4192 C   0  0  0  0  0  0  0  0  0  0  0  0
    6.5253  -15.7142   -1.2377 C   0  0  0  0  0  0  0  0  0  0  0  0
    7.1914  -15.7582    0.0022 C   0  0  0  0  0  0  0  0  0  0  0  0
    6.5328  -16.1886    1.1642 C   0  0  0  0  0  0  0  0  0  0  0  0
    5.1964  -16.5715    1.0939 C   0  0  0  0  0  0  0  0  0  0  0  0
    4.3763  -17.1018    2.5112 Cl  0  0  0  0  0  0  0  0  0  0  0  0
    4.5116  -16.5032   -0.1160 C   0  0  0  0  0  0  0  0  0  0  0  0
    5.1748  -16.0758   -1.2737 C   0  0  0  0  0  0  0  0  0  0  0  0
   10.1429  -13.5156   -2.1960 N   0  0  0  0  0  0  0  0  0  0  0  0
    9.5202  -12.7524   -1.2541 N   0  0  0  0  0  0  0  0  0  0  0  0
    8.4925  -12.0061   -1.7869 C   0  0  0  0  0  0  0  0  0  0  0  0
    7.8256  -10.8931   -1.2956 C   0  0  0  0  0  0  0  0  0  0  0  0
    6.6584   -6.4067   -2.2315 C   0  0  0  0  0  0  0  0  0  0  0  0
    4.3602   -0.8434   -3.5975 C   0  0  0  0  0  0  0  0  0  0  0  0
    2.9127   -1.1240   -3.1725 C   0  0  0  0  0  0  0  0  0  0  0  0
    0.3222    1.3519   -1.4263 H   0  0  0  0  0  0  0  0  0  0  0  0
    0.1665   -0.1584   -2.3500 H   0  0  0  0  0  0  0  0  0  0  0  0
    1.3207    1.1250   -2.8569 H   0  0  0  0  0  0  0  0  0  0  0  0
    3.4226   -2.7886   -1.0437 H   0  0  0  0  0  0  0  0  0  0  0  0
    3.5497   -1.5072    0.1570 H   0  0  0  0  0  0  0  0  0  0  0  0
    5.8004   -2.1199   -0.6937 H   0  0  0  0  0  0  0  0  0  0  0  0
    5.3947   -0.4456   -1.0564 H   0  0  0  0  0  0  0  0  0  0  0  0
    6.3867   -1.3876   -3.0602 H   0  0  0  0  0  0  0  0  0  0  0  0
    6.6254   -3.8252   -1.8611 H   0  0  0  0  0  0  0  0  0  0  0  0
    5.1511   -5.1763   -5.0098 H   0  0  0  0  0  0  0  0  0  0  0  0
    4.8354   -7.5098   -5.4778 H   0  0  0  0  0  0  0  0  0  0  0  0
    5.6163   -9.2158   -3.9008 H   0  0  0  0  0  0  0  0  0  0  0  0
    8.1003   -9.2362   -4.2524 H   0  0  0  0  0  0  0  0  0  0  0  0
    8.7035  -11.4779   -5.0904 H   0  0  0  0  0  0  0  0  0  0  0  0
    9.0809  -15.7185   -2.2601 H   0  0  0  0  0  0  0  0  0  0  0  0
    6.4238  -14.2959   -2.8606 H   0  0  0  0  0  0  0  0  0  0  0  0
    8.2178  -15.4018    0.1015 H   0  0  0  0  0  0  0  0  0  0  0  0
    7.0532  -16.1940    2.1182 H   0  0  0  0  0  0  0  0  0  0  0  0
    3.4556  -16.7539   -0.1652 H   0  0  0  0  0  0  0  0  0  0  0  0
    4.6105  -15.9869   -2.1986 H   0  0  0  0  0  0  0  0  0  0  0  0
    9.9704  -12.6309   -0.3589 H   0  0  0  0  0  0  0  0  0  0  0  0
    7.6811  -10.7115   -0.2385 H   0  0  0  0  0  0  0  0  0  0  0  0
    7.1715   -6.1365   -1.3151 H   0  0  0  0  0  0  0  0  0  0  0  0
    4.4673   -1.0205   -4.6744 H   0  0  0  0  0  0  0  0  0  0  0  0
    4.5824    0.2177   -3.4277 H   0  0  0  0  0  0  0  0  0  0  0  0
    2.5834   -2.1451   -3.3948 H   0  0  0  0  0  0  0  0  0  0  0  0
    2.2491   -0.4730   -3.7425 H   0  0  0  0  0  0  0  0  0  0  0  0
  1  2  1  0  0  0  0
  1 38  1  0  0  0  0
  1 39  1  0  0  0  0
  1 40  1  0  0  0  0
  2  3  2  0  0  0  0
  2  4  1  0  0  0  0
  4  5  1  0  0  0  0
  4 37  1  0  0  0  0
  5  6  1  0  0  0  0
  5 41  1  0  0  0  0
  5 42  1  0  0  0  0
  6  7  1  0  0  0  0
  6 43  1  0  0  0  0
  6 44  1  0  0  0  0
  7  8  1  0  0  0  0
  7 36  1  0  0  0  0
  7 45  1  0  0  0  0
  8  9  2  0  0  0  0
  8 10  1  0  0  0  0
 10 11  1  0  0  0  0
 10 46  1  0  0  0  0
 11 12  1  0  0  0  0
 11 35  2  0  0  0  0
 12 13  2  0  0  0  0
 12 47  1  0  0  0  0
 13 14  1  0  0  0  0
 13 48  1  0  0  0  0
 14 15  2  0  0  0  0
 14 49  1  0  0  0  0
 15 16  1  0  0  0  0
 15 35  1  0  0  0  0
 16 17  1  0  0  0  0
 17 18  1  0  0  0  0
 17 34  2  0  0  0  0
 18 19  2  0  0  0  0
 18 50  1  0  0  0  0
 19 20  1  0  0  0  0
 19 51  1  0  0  0  0
 20 21  1  0  0  0  0
 20 33  2  0  0  0  0
 21 22  1  0  0  0  0
 21 31  2  0  0  0  0
 22 23  2  0  0  0  0
 22 52  1  0  0  0  0
 23 24  1  0  0  0  0
 23 53  1  0  0  0  0
 24 25  1  0  0  0  0
 24 30  2  0  0  0  0
 25 26  2  0  0  0  0
 25 54  1  0  0  0  0
 26 27  1  0  0  0  0
 26 55  1  0  0  0  0
 27 28  1  0  0  0  0
 27 29  2  0  0  0  0
 29 30  1  0  0  0  0
 29 56  1  0  0  0  0
 30 57  1  0  0  0  0
 31 32  1  0  0  0  0
 32 33  1  0  0  0  0
 32 58  1  0  0  0  0
 33 34  1  0  0  0  0
 34 59  1  0  0  0  0
 35 60  1  0  0  0  0
 36 37  1  0  0  0  0
 36 61  1  0  0  0  0
 36 62  1  0  0  0  0
 37 63  1  0  0  0  0
 37 64  1  0  0  0  0
M  END
$$$$
