CHEMBL445062
 OpenBabel04072215383D

 49 52  0  0  0  0  0  0  0  0999 V2000
    2.6267    3.2337   -0.1279 C   0  0  0  0  0  0  0  0  0  0  0  0
    2.3394    2.3610    1.0135 N   0  0  0  0  0  0  0  0  0  0  0  0
    0.8932    2.1458    1.1157 C   0  0  0  0  0  0  0  0  0  0  0  0
    3.0357    1.0674    0.9084 C   0  0  0  0  0  0  0  0  0  0  0  0
    4.5627    1.1709    0.9415 C   0  0  0  0  0  0  0  0  0  0  0  0
    5.0837    1.8265    2.2171 C   0  0  0  0  0  0  0  0  0  0  0  0
    6.5094    1.9006    2.1090 O   0  0  0  0  0  0  0  0  0  0  0  0
    7.1555    2.5101    3.1484 C   0  0  0  0  0  0  0  0  0  0  0  0
    6.7229    2.5070    4.4744 C   0  0  0  0  0  0  0  0  0  0  0  0
    7.4932    3.1234    5.4654 C   0  0  0  0  0  0  0  0  0  0  0  0
    8.6981    3.7513    5.1345 C   0  0  0  0  0  0  0  0  0  0  0  0
    9.5022    4.3941    6.1670 C   0  0  0  0  0  0  0  0  0  0  0  0
    9.3594    5.8449    6.4960 C   0  0  0  0  0  0  0  0  0  0  0  0
   10.0430    6.5036    7.3843 N   0  0  0  0  0  0  0  0  0  0  0  0
   10.9840    5.7826    8.0774 C   0  0  0  0  0  0  0  0  0  0  0  0
   11.8889    6.1250    9.0653 C   0  0  0  0  0  0  0  0  0  0  0  0
   12.1212    7.4286    9.6974 C   0  0  0  0  0  0  0  0  0  0  0  0
   13.1114    7.6508   10.7057 C   0  0  0  0  0  0  0  0  0  0  0  0
   13.1341    8.9589   11.1410 C   0  0  0  0  0  0  0  0  0  0  0  0
   11.9695    9.9213   10.3433 S   0  0  0  0  0  0  0  0  0  0  0  0
   11.4319    8.5897    9.4120 C   0  0  0  0  0  0  0  0  0  0  0  0
   12.5738    4.9297    9.3545 C   0  0  0  0  0  0  0  0  0  0  0  0
   12.1549    3.8954    8.6261 N   0  0  0  0  0  0  0  0  0  0  0  0
   11.1822    4.4149    7.8378 N   0  0  0  0  0  0  0  0  0  0  0  0
   10.4326    3.7426    6.8811 C   0  0  0  0  0  0  0  0  0  0  0  0
    9.1350    3.7455    3.8060 C   0  0  0  0  0  0  0  0  0  0  0  0
    8.3675    3.1204    2.8212 C   0  0  0  0  0  0  0  0  0  0  0  0
    2.0829    4.1804   -0.0333 H   0  0  0  0  0  0  0  0  0  0  0  0
    2.3507    2.7707   -1.0819 H   0  0  0  0  0  0  0  0  0  0  0  0
    3.6867    3.5039   -0.1648 H   0  0  0  0  0  0  0  0  0  0  0  0
    0.3645    3.1022    1.1999 H   0  0  0  0  0  0  0  0  0  0  0  0
    0.6522    1.5762    2.0202 H   0  0  0  0  0  0  0  0  0  0  0  0
    0.4931    1.6068    0.2491 H   0  0  0  0  0  0  0  0  0  0  0  0
    2.7347    0.5404   -0.0063 H   0  0  0  0  0  0  0  0  0  0  0  0
    2.7316    0.4315    1.7507 H   0  0  0  0  0  0  0  0  0  0  0  0
    4.9460    1.7006    0.0615 H   0  0  0  0  0  0  0  0  0  0  0  0
    4.9888    0.1614    0.8673 H   0  0  0  0  0  0  0  0  0  0  0  0
    4.7923    1.2050    3.0704 H   0  0  0  0  0  0  0  0  0  0  0  0
    4.6763    2.8378    2.3332 H   0  0  0  0  0  0  0  0  0  0  0  0
    5.8049    2.0128    4.7737 H   0  0  0  0  0  0  0  0  0  0  0  0
    7.1459    3.1003    6.4963 H   0  0  0  0  0  0  0  0  0  0  0  0
    8.5944    6.3876    5.9148 H   0  0  0  0  0  0  0  0  0  0  0  0
   13.7837    6.9018   11.1043 H   0  0  0  0  0  0  0  0  0  0  0  0
   13.7801    9.3962   11.8900 H   0  0  0  0  0  0  0  0  0  0  0  0
   10.6313    8.7298    8.6984 H   0  0  0  0  0  0  0  0  0  0  0  0
   13.3681    4.7598   10.0702 H   0  0  0  0  0  0  0  0  0  0  0  0
   10.6601    2.6906    6.7605 H   0  0  0  0  0  0  0  0  0  0  0  0
   10.0736    4.2188    3.5261 H   0  0  0  0  0  0  0  0  0  0  0  0
    8.7129    3.1135    1.7902 H   0  0  0  0  0  0  0  0  0  0  0  0
  1  2  1  0  0  0  0
  1 28  1  0  0  0  0
  1 29  1  0  0  0  0
  1 30  1  0  0  0  0
  2  3  1  0  0  0  0
  2  4  1  0  0  0  0
  3 31  1  0  0  0  0
  3 32  1  0  0  0  0
  3 33  1  0  0  0  0
  4  5  1  0  0  0  0
  4 34  1  0  0  0  0
  4 35  1  0  0  0  0
  5  6  1  0  0  0  0
  5 36  1  0  0  0  0
  5 37  1  0  0  0  0
  6  7  1  0  0  0  0
  6 38  1  0  0  0  0
  6 39  1  0  0  0  0
  7  8  1  0  0  0  0
  8  9  1  0  0  0  0
  8 27  2  0  0  0  0
  9 10  2  0  0  0  0
  9 40  1  0  0  0  0
 10 11  1  0  0  0  0
 10 41  1  0  0  0  0
 11 12  1  0  0  0  0
 11 26  2  0  0  0  0
 12 13  1  0  0  0  0
 12 25  2  0  0  0  0
 13 14  2  0  0  0  0
 13 42  1  0  0  0  0
 14 15  1  0  0  0  0
 15 16  2  0  0  0  0
 15 24  1  0  0  0  0
 16 17  1  0  0  0  0
 16 22  1  0  0  0  0
 17 18  1  0  0  0  0
 17 21  2  0  0  0  0
 18 19  2  0  0  0  0
 18 43  1  0  0  0  0
 19 20  1  0  0  0  0
 19 44  1  0  0  0  0
 20 21  1  0  0  0  0
 21 45  1  0  0  0  0
 22 23  2  0  0  0  0
 22 46  1  0  0  0  0
 23 24  1  0  0  0  0
 24 25  1  0  0  0  0
 25 47  1  0  0  0  0
 26 27  1  0  0  0  0
 26 48  1  0  0  0  0
 27 49  1  0  0  0  0
M  END
$$$$
