CHEMBL3739732
 OpenBabel04072215373D

 61 65  0  0  0  0  0  0  0  0999 V2000
    2.9984    2.2801   -1.7826 C   0  0  0  0  0  0  0  0  0  0  0  0
    2.3292    2.8728   -3.3202 S   0  0  0  0  0  0  0  0  0  0  0  0
    2.1385    1.7360   -4.2011 O   0  0  0  0  0  0  0  0  0  0  0  0
    1.1980    3.7210   -2.9830 O   0  0  0  0  0  0  0  0  0  0  0  0
    3.5905    3.9481   -3.9890 C   0  0  0  0  0  0  0  0  0  0  0  0
    4.8678    3.2119   -4.2862 C   0  0  0  0  0  0  0  0  0  0  0  0
    5.0153    2.5261   -5.4965 C   0  0  0  0  0  0  0  0  0  0  0  0
    6.2229    1.9134   -5.8094 C   0  0  0  0  0  0  0  0  0  0  0  0
    7.2876    1.9613   -4.9084 C   0  0  0  0  0  0  0  0  0  0  0  0
    7.1670    2.5981   -3.6695 C   0  0  0  0  0  0  0  0  0  0  0  0
    8.2053    2.6659   -2.7292 N   0  0  0  0  0  0  0  0  0  0  0  0
    9.3966    1.9469   -2.6175 C   0  0  0  0  0  0  0  0  0  0  0  0
    9.9294    1.9179   -1.3858 N   0  0  0  0  0  0  0  0  0  0  0  0
   11.0175    1.1466   -1.2078 C   0  0  0  0  0  0  0  0  0  0  0  0
   11.6060    0.4223   -2.2120 C   0  0  0  0  0  0  0  0  0  0  0  0
   11.0406    0.5760   -3.4570 C   0  0  0  0  0  0  0  0  0  0  0  0
   11.5074   -0.0440   -4.5997 O   0  0  0  0  0  0  0  0  0  0  0  0
   12.8338   -0.3911   -4.6415 C   0  0  0  0  0  0  0  0  0  0  0  0
   13.1472   -1.7055   -4.9769 C   0  0  0  0  0  0  0  0  0  0  0  0
   14.4644   -2.1483   -4.8361 C   0  0  0  0  0  0  0  0  0  0  0  0
   15.4795   -1.2457   -4.4635 C   0  0  0  0  0  0  0  0  0  0  0  0
   16.8319   -1.5950   -4.3247 C   0  0  0  0  0  0  0  0  0  0  0  0
   17.4615   -1.0751   -2.9740 C   0  0  0  0  0  0  0  0  0  0  0  0
   16.7474   -0.8371   -2.0057 O   0  0  0  0  0  0  0  0  0  0  0  0
   18.8445   -0.8688   -3.0093 N   0  0  0  0  0  0  0  0  0  0  0  0
   19.6721   -0.2173   -2.0508 C   0  0  0  0  0  0  0  0  0  0  0  0
   19.2965    0.1375   -0.7659 C   0  0  0  0  0  0  0  0  0  0  0  0
   20.2067    0.7848    0.0836 C   0  0  0  0  0  0  0  0  0  0  0  0
   21.4767    1.0466   -0.3844 C   0  0  0  0  0  0  0  0  0  0  0  0
   21.8968    0.7078   -1.6226 N   0  0  0  0  0  0  0  0  0  0  0  0
   20.9844    0.0893   -2.4169 C   0  0  0  0  0  0  0  0  0  0  0  0
   17.5395   -1.0785   -5.3984 C   0  0  0  0  0  0  0  0  0  0  0  0
   17.3136    0.2626   -5.7113 C   0  0  0  0  0  0  0  0  0  0  0  0
   16.1961    0.9139   -5.1543 C   0  0  0  0  0  0  0  0  0  0  0  0
   15.1811    0.1140   -4.6137 C   0  0  0  0  0  0  0  0  0  0  0  0
   13.8550    0.5496   -4.5032 C   0  0  0  0  0  0  0  0  0  0  0  0
    9.9348    1.3096   -3.6629 N   0  0  0  0  0  0  0  0  0  0  0  0
    5.9498    3.2429   -3.3863 C   0  0  0  0  0  0  0  0  0  0  0  0
    2.2300    1.6790   -1.2906 H   0  0  0  0  0  0  0  0  0  0  0  0
    3.2518    3.1373   -1.1553 H   0  0  0  0  0  0  0  0  0  0  0  0
    3.8752    1.6626   -1.9773 H   0  0  0  0  0  0  0  0  0  0  0  0
    3.7519    4.7603   -3.2737 H   0  0  0  0  0  0  0  0  0  0  0  0
    3.1828    4.3890   -4.9050 H   0  0  0  0  0  0  0  0  0  0  0  0
    4.1968    2.4750   -6.2127 H   0  0  0  0  0  0  0  0  0  0  0  0
    6.3470    1.3996   -6.7596 H   0  0  0  0  0  0  0  0  0  0  0  0
    8.2156    1.4852   -5.2090 H   0  0  0  0  0  0  0  0  0  0  0  0
    7.9662    3.0113   -1.8113 H   0  0  0  0  0  0  0  0  0  0  0  0
   11.4112    1.1232   -0.1957 H   0  0  0  0  0  0  0  0  0  0  0  0
   12.4612   -0.2092   -2.0171 H   0  0  0  0  0  0  0  0  0  0  0  0
   12.3736   -2.3774   -5.3399 H   0  0  0  0  0  0  0  0  0  0  0  0
   14.7098   -3.1773   -5.0895 H   0  0  0  0  0  0  0  0  0  0  0  0
   19.3144   -1.0902   -3.8754 H   0  0  0  0  0  0  0  0  0  0  0  0
   18.2969   -0.0579   -0.3926 H   0  0  0  0  0  0  0  0  0  0  0  0
   19.9214    1.0650    1.0907 H   0  0  0  0  0  0  0  0  0  0  0  0
   22.2124    1.5344    0.2336 H   0  0  0  0  0  0  0  0  0  0  0  0
   21.3727   -0.1321   -3.4097 H   0  0  0  0  0  0  0  0  0  0  0  0
   18.2672   -1.6923   -5.9185 H   0  0  0  0  0  0  0  0  0  0  0  0
   17.9529    0.7781   -6.4186 H   0  0  0  0  0  0  0  0  0  0  0  0
   16.0229    1.9604   -5.3800 H   0  0  0  0  0  0  0  0  0  0  0  0
   13.6168    1.6074   -4.4451 H   0  0  0  0  0  0  0  0  0  0  0  0
    5.8452    3.7798   -2.4453 H   0  0  0  0  0  0  0  0  0  0  0  0
  1  2  1  0  0  0  0
  1 39  1  0  0  0  0
  1 40  1  0  0  0  0
  1 41  1  0  0  0  0
  2  3  2  0  0  0  0
  2  4  2  0  0  0  0
  2  5  1  0  0  0  0
  5  6  1  0  0  0  0
  5 42  1  0  0  0  0
  5 43  1  0  0  0  0
  6  7  1  0  0  0  0
  6 38  2  0  0  0  0
  7  8  2  0  0  0  0
  7 44  1  0  0  0  0
  8  9  1  0  0  0  0
  8 45  1  0  0  0  0
  9 10  2  0  0  0  0
  9 46  1  0  0  0  0
 10 11  1  0  0  0  0
 10 38  1  0  0  0  0
 11 12  1  0  0  0  0
 11 47  1  0  0  0  0
 12 13  1  0  0  0  0
 12 37  2  0  0  0  0
 13 14  2  0  0  0  0
 14 15  1  0  0  0  0
 14 48  1  0  0  0  0
 15 16  2  0  0  0  0
 15 49  1  0  0  0  0
 16 17  1  0  0  0  0
 16 37  1  0  0  0  0
 17 18  1  0  0  0  0
 18 19  1  0  0  0  0
 18 36  2  0  0  0  0
 19 20  2  0  0  0  0
 19 50  1  0  0  0  0
 20 21  1  0  0  0  0
 20 51  1  0  0  0  0
 21 22  1  0  0  0  0
 21 35  2  0  0  0  0
 22 23  1  0  0  0  0
 22 32  2  0  0  0  0
 23 24  2  0  0  0  0
 23 25  1  0  0  0  0
 25 26  1  0  0  0  0
 25 52  1  0  0  0  0
 26 27  1  0  0  0  0
 26 31  2  0  0  0  0
 27 28  2  0  0  0  0
 27 53  1  0  0  0  0
 28 29  1  0  0  0  0
 28 54  1  0  0  0  0
 29 30  2  0  0  0  0
 29 55  1  0  0  0  0
 30 31  1  0  0  0  0
 31 56  1  0  0  0  0
 32 33  1  0  0  0  0
 32 57  1  0  0  0  0
 33 34  2  0  0  0  0
 33 58  1  0  0  0  0
 34 35  1  0  0  0  0
 34 59  1  0  0  0  0
 35 36  1  0  0  0  0
 36 60  1  0  0  0  0
 38 61  1  0  0  0  0
M  END
$$$$
