CHEMBL272453
 OpenBabel04072215363D

 46 49  0  0  0  0  0  0  0  0999 V2000
    0.1100   -1.5268    1.7631 C   0  0  0  0  0  0  0  0  0  0  0  0
    1.4737   -1.1949    1.5074 O   0  0  0  0  0  0  0  0  0  0  0  0
    2.2595   -2.2420    1.0966 C   0  0  0  0  0  0  0  0  0  0  0  0
    1.7540   -3.3231    0.3812 C   0  0  0  0  0  0  0  0  0  0  0  0
    2.5954   -4.3643   -0.0061 C   0  0  0  0  0  0  0  0  0  0  0  0
    3.9702   -4.3337    0.2677 C   0  0  0  0  0  0  0  0  0  0  0  0
    4.8272   -5.3736   -0.1603 N   0  0  0  0  0  0  0  0  0  0  0  0
    4.5390   -6.1823   -1.2456 C   0  0  0  0  0  0  0  0  0  0  0  0
    3.6133   -5.9656   -2.0245 O   0  0  0  0  0  0  0  0  0  0  0  0
    5.3791   -7.2829   -1.3484 N   0  0  0  0  0  0  0  0  0  0  0  0
    5.1718   -8.2121   -2.3980 C   0  0  0  0  0  0  0  0  0  0  0  0
    4.8616   -7.7820   -3.6883 C   0  0  0  0  0  0  0  0  0  0  0  0
    4.4412   -8.6863   -4.6628 C   0  0  0  0  0  0  0  0  0  0  0  0
    4.3493  -10.0632   -4.3985 C   0  0  0  0  0  0  0  0  0  0  0  0
    3.8170  -10.9897   -5.4215 C   0  0  0  0  0  0  0  0  0  0  0  0
    4.1332  -10.8098   -6.7969 C   0  0  0  0  0  0  0  0  0  0  0  0
    3.6536  -11.6519   -7.8035 C   0  0  0  0  0  0  0  0  0  0  0  0
    2.8571  -12.7465   -7.4895 C   0  0  0  0  0  0  0  0  0  0  0  0
    2.5388  -12.9097   -6.1449 C   0  0  0  0  0  0  0  0  0  0  0  0
    1.7625  -13.9098   -5.6572 O   0  0  0  0  0  0  0  0  0  0  0  0
    1.5858  -13.7363   -4.3018 N   0  0  0  0  0  0  0  0  0  0  0  0
    2.2482  -12.6210   -3.9875 C   0  0  0  0  0  0  0  0  0  0  0  0
    2.1985  -12.0808   -2.7540 N   0  0  0  0  0  0  0  0  0  0  0  0
    2.9469  -12.0733   -5.1117 C   0  0  0  0  0  0  0  0  0  0  0  0
    4.7949  -10.4877   -3.1313 C   0  0  0  0  0  0  0  0  0  0  0  0
    5.1921   -9.5796   -2.1335 C   0  0  0  0  0  0  0  0  0  0  0  0
    4.4801   -3.2539    0.9861 C   0  0  0  0  0  0  0  0  0  0  0  0
    3.6329   -2.2082    1.3841 C   0  0  0  0  0  0  0  0  0  0  0  0
    4.3311   -0.8818    2.2479 Cl  0  0  0  0  0  0  0  0  0  0  0  0
   -0.3646   -0.6681    2.2465 H   0  0  0  0  0  0  0  0  0  0  0  0
    0.0345   -2.3819    2.4449 H   0  0  0  0  0  0  0  0  0  0  0  0
   -0.4364   -1.7195    0.8337 H   0  0  0  0  0  0  0  0  0  0  0  0
    0.7128   -3.3877    0.0853 H   0  0  0  0  0  0  0  0  0  0  0  0
    2.1360   -5.1988   -0.5302 H   0  0  0  0  0  0  0  0  0  0  0  0
    5.8038   -5.3254    0.1048 H   0  0  0  0  0  0  0  0  0  0  0  0
    5.6952   -7.6541   -0.4616 H   0  0  0  0  0  0  0  0  0  0  0  0
    4.8952   -6.7231   -3.9418 H   0  0  0  0  0  0  0  0  0  0  0  0
    4.1439   -8.2819   -5.6279 H   0  0  0  0  0  0  0  0  0  0  0  0
    4.7770   -9.9838   -7.0995 H   0  0  0  0  0  0  0  0  0  0  0  0
    3.9112  -11.4532   -8.8416 H   0  0  0  0  0  0  0  0  0  0  0  0
    2.4828  -13.4256   -8.2464 H   0  0  0  0  0  0  0  0  0  0  0  0
    1.4754  -12.4528   -2.1440 H   0  0  0  0  0  0  0  0  0  0  0  0
    2.2952  -11.0705   -2.6645 H   0  0  0  0  0  0  0  0  0  0  0  0
    4.7939  -11.5499   -2.8814 H   0  0  0  0  0  0  0  0  0  0  0  0
    5.4348   -9.9571   -1.1446 H   0  0  0  0  0  0  0  0  0  0  0  0
    5.5412   -3.1997    1.2210 H   0  0  0  0  0  0  0  0  0  0  0  0
  1  2  1  0  0  0  0
  1 30  1  0  0  0  0
  1 31  1  0  0  0  0
  1 32  1  0  0  0  0
  2  3  1  0  0  0  0
  3  4  1  0  0  0  0
  3 28  2  0  0  0  0
  4  5  2  0  0  0  0
  4 33  1  0  0  0  0
  5  6  1  0  0  0  0
  5 34  1  0  0  0  0
  6  7  1  0  0  0  0
  6 27  2  0  0  0  0
  7  8  1  0  0  0  0
  7 35  1  0  0  0  0
  8  9  2  0  0  0  0
  8 10  1  0  0  0  0
 10 11  1  0  0  0  0
 10 36  1  0  0  0  0
 11 12  1  0  0  0  0
 11 26  2  0  0  0  0
 12 13  2  0  0  0  0
 12 37  1  0  0  0  0
 13 14  1  0  0  0  0
 13 38  1  0  0  0  0
 14 15  1  0  0  0  0
 14 25  2  0  0  0  0
 15 16  1  0  0  0  0
 15 24  2  0  0  0  0
 16 17  2  0  0  0  0
 16 39  1  0  0  0  0
 17 18  1  0  0  0  0
 17 40  1  0  0  0  0
 18 19  2  0  0  0  0
 18 41  1  0  0  0  0
 19 20  1  0  0  0  0
 19 24  1  0  0  0  0
 20 21  1  0  0  0  0
 21 22  2  0  0  0  0
 22 23  1  0  0  0  0
 22 24  1  0  0  0  0
 23 42  1  0  0  0  0
 23 43  1  0  0  0  0
 25 26  1  0  0  0  0
 25 44  1  0  0  0  0
 26 45  1  0  0  0  0
 27 28  1  0  0  0  0
 27 46  1  0  0  0  0
 28 29  1  0  0  0  0
M  END
$$$$
