CHEMBL3221550
 OpenBabel04072215363D

 52 53  0  0  0  0  0  0  0  0999 V2000
    5.5973   -2.4813    1.6447 C   0  0  0  0  0  0  0  0  0  0  0  0
    4.6798   -2.0197    0.5040 C   0  0  0  0  0  0  0  0  0  0  0  0
    4.0422   -0.6529    0.7804 C   0  0  0  0  0  0  0  0  0  0  0  0
    5.0392    0.2861    1.0013 O   0  0  0  0  0  0  0  0  0  0  0  0
    5.4124    0.6862    2.2452 C   0  0  0  0  0  0  0  0  0  0  0  0
    4.7235    0.3761    3.2016 O   0  0  0  0  0  0  0  0  0  0  0  0
    6.5970    1.3450    2.4062 N   0  0  0  0  0  0  0  0  0  0  0  0
    7.2353    1.6648    3.6576 C   0  0  0  0  0  0  0  0  0  0  0  0
    6.7083    1.3298    4.9282 C   0  0  0  0  0  0  0  0  0  0  0  0
    7.3983    1.6269    6.1037 C   0  0  0  0  0  0  0  0  0  0  0  0
    8.6461    2.2727    6.0627 C   0  0  0  0  0  0  0  0  0  0  0  0
    9.4272    2.6114    7.2206 N   0  0  0  0  0  0  0  0  0  0  0  0
    9.1196    2.4256    8.6171 C   0  0  0  0  0  0  0  0  0  0  0  0
    7.9474    1.8495    9.0003 N   0  0  0  0  0  0  0  0  0  0  0  0
    7.6075    1.6700   10.3031 C   0  0  0  0  0  0  0  0  0  0  0  0
    8.4447    2.0827   11.2794 N   0  0  0  0  0  0  0  0  0  0  0  0
    9.6320    2.6657   10.9853 C   0  0  0  0  0  0  0  0  0  0  0  0
   10.4635    3.0712   12.0288 C   0  0  0  0  0  0  0  0  0  0  0  0
   11.7155    3.6622   11.7731 C   0  0  0  0  0  0  0  0  0  0  0  0
   12.5341    4.0361   12.7915 O   0  0  0  0  0  0  0  0  0  0  0  0
   12.2573    3.9183   14.1381 C   0  0  0  0  0  0  0  0  0  0  0  0
   12.1222    3.8516   10.4286 C   0  0  0  0  0  0  0  0  0  0  0  0
   13.3098    4.4072   10.0590 O   0  0  0  0  0  0  0  0  0  0  0  0
   14.3139    4.8824   10.8730 C   0  0  0  0  0  0  0  0  0  0  0  0
   11.2758    3.4509    9.3892 C   0  0  0  0  0  0  0  0  0  0  0  0
   10.0212    2.8522    9.6395 C   0  0  0  0  0  0  0  0  0  0  0  0
    9.1703    2.6060    4.7985 C   0  0  0  0  0  0  0  0  0  0  0  0
    8.4813    2.3085    3.6206 C   0  0  0  0  0  0  0  0  0  0  0  0
    0.6054   -0.7387    2.7080 Cl  0  0  0  0  0  0  0  0  0  0  0  0
    6.0176   -3.4796    1.4052 H   0  0  0  0  0  0  0  0  0  0  0  0
    5.0384   -2.5492    2.6027 H   0  0  0  0  0  0  0  0  0  0  0  0
    6.4513   -1.7820    1.7749 H   0  0  0  0  0  0  0  0  0  0  0  0
    3.8716   -2.7697    0.3695 H   0  0  0  0  0  0  0  0  0  0  0  0
    5.2771   -1.9624   -0.4297 H   0  0  0  0  0  0  0  0  0  0  0  0
    3.3645   -0.7528    1.6561 H   0  0  0  0  0  0  0  0  0  0  0  0
    3.4094   -0.3383   -0.0765 H   0  0  0  0  0  0  0  0  0  0  0  0
    7.1118    1.5757    1.5408 H   0  0  0  0  0  0  0  0  0  0  0  0
    5.7752    0.8256    5.0754 H   0  0  0  0  0  0  0  0  0  0  0  0
    6.9206    1.3246    7.0143 H   0  0  0  0  0  0  0  0  0  0  0  0
   10.3120    3.0672    6.9875 H   0  0  0  0  0  0  0  0  0  0  0  0
    6.6712    1.1991   10.5627 H   0  0  0  0  0  0  0  0  0  0  0  0
   10.1236    2.9125   13.0440 H   0  0  0  0  0  0  0  0  0  0  0  0
   13.1332    4.2638   14.7234 H   0  0  0  0  0  0  0  0  0  0  0  0
   12.0604    2.8558   14.3976 H   0  0  0  0  0  0  0  0  0  0  0  0
   11.3791    4.5451   14.4025 H   0  0  0  0  0  0  0  0  0  0  0  0
   15.1369    5.2686   10.2375 H   0  0  0  0  0  0  0  0  0  0  0  0
   14.7177    4.0633   11.5045 H   0  0  0  0  0  0  0  0  0  0  0  0
   13.9358    5.7179   11.4988 H   0  0  0  0  0  0  0  0  0  0  0  0
   11.6510    3.6225    8.3961 H   0  0  0  0  0  0  0  0  0  0  0  0
   10.1308    3.1003    4.7206 H   0  0  0  0  0  0  0  0  0  0  0  0
    8.9331    2.5779    2.6729 H   0  0  0  0  0  0  0  0  0  0  0  0
    0.7826    0.4340    2.0104 H   0  0  0  0  0  0  0  0  0  0  0  0
  1  2  1  0  0  0  0
  1 30  1  0  0  0  0
  1 31  1  0  0  0  0
  1 32  1  0  0  0  0
  2  3  1  0  0  0  0
  2 33  1  0  0  0  0
  2 34  1  0  0  0  0
  3  4  1  0  0  0  0
  3 35  1  0  0  0  0
  3 36  1  0  0  0  0
  4  5  1  0  0  0  0
  5  6  2  0  0  0  0
  5  7  1  0  0  0  0
  7  8  1  0  0  0  0
  7 37  1  0  0  0  0
  8  9  1  0  0  0  0
  8 28  2  0  0  0  0
  9 10  2  0  0  0  0
  9 38  1  0  0  0  0
 10 11  1  0  0  0  0
 10 39  1  0  0  0  0
 11 12  1  0  0  0  0
 11 27  2  0  0  0  0
 12 13  1  0  0  0  0
 12 40  1  0  0  0  0
 13 14  1  0  0  0  0
 13 26  2  0  0  0  0
 14 15  2  0  0  0  0
 15 16  1  0  0  0  0
 15 41  1  0  0  0  0
 16 17  2  0  0  0  0
 17 18  1  0  0  0  0
 17 26  1  0  0  0  0
 18 19  2  0  0  0  0
 18 42  1  0  0  0  0
 19 20  1  0  0  0  0
 19 22  1  0  0  0  0
 20 21  1  0  0  0  0
 21 43  1  0  0  0  0
 21 44  1  0  0  0  0
 21 45  1  0  0  0  0
 22 23  1  0  0  0  0
 22 25  2  0  0  0  0
 23 24  1  0  0  0  0
 24 46  1  0  0  0  0
 24 47  1  0  0  0  0
 24 48  1  0  0  0  0
 25 26  1  0  0  0  0
 25 49  1  0  0  0  0
 27 28  1  0  0  0  0
 27 50  1  0  0  0  0
 28 51  1  0  0  0  0
 29 52  1  0  0  0  0
M  END
$$$$
