CHEMBL3114019
 OpenBabel04072215363D

 46 49  0  0  0  0  0  0  0  0999 V2000
    1.1542    0.3390    0.4629 C   0  0  0  0  0  0  0  0  0  0  0  0
    2.5028    0.0329   -0.0739 C   0  0  0  0  0  0  0  0  0  0  0  0
    3.3316   -1.0548    0.0425 C   0  0  0  0  0  0  0  0  0  0  0  0
    3.0556   -2.2177    0.7499 C   0  0  0  0  0  0  0  0  0  0  0  0
    4.1506   -3.1097    0.7027 C   0  0  0  0  0  0  0  0  0  0  0  0
    5.4072   -2.8787    0.0197 C   0  0  0  0  0  0  0  0  0  0  0  0
    6.4285   -3.8665    0.1626 N   0  0  0  0  0  0  0  0  0  0  0  0
    7.8211   -3.4603   -0.0314 C   0  0  0  0  0  0  0  0  0  0  0  0
    6.1989   -5.2645    0.1151 C   0  0  0  0  0  0  0  0  0  0  0  0
    7.0263   -6.1624    0.7580 C   0  0  0  0  0  0  0  0  0  0  0  0
    6.6830   -7.4918    0.6764 C   0  0  0  0  0  0  0  0  0  0  0  0
    5.6124   -7.9464    0.0057 N   0  0  0  0  0  0  0  0  0  0  0  0
    4.8503   -7.0228   -0.5922 C   0  0  0  0  0  0  0  0  0  0  0  0
    3.7048   -7.4952   -1.2319 N   0  0  0  0  0  0  0  0  0  0  0  0
    2.6279   -6.8176   -1.8181 C   0  0  0  0  0  0  0  0  0  0  0  0
    1.4001   -7.4846   -1.9539 C   0  0  0  0  0  0  0  0  0  0  0  0
    0.2723   -6.8321   -2.4635 C   0  0  0  0  0  0  0  0  0  0  0  0
    0.3543   -5.4975   -2.8519 C   0  0  0  0  0  0  0  0  0  0  0  0
    1.5664   -4.8263   -2.7321 C   0  0  0  0  0  0  0  0  0  0  0  0
    1.6917   -3.0105   -3.2477 Br  0  0  0  0  0  0  0  0  0  0  0  0
    2.6907   -5.4783   -2.2248 C   0  0  0  0  0  0  0  0  0  0  0  0
    5.1169   -5.7131   -0.5440 N   0  0  0  0  0  0  0  0  0  0  0  0
    5.6063   -1.6817   -0.7189 C   0  0  0  0  0  0  0  0  0  0  0  0
    4.5391   -0.7598   -0.6796 C   0  0  0  0  0  0  0  0  0  0  0  0
    4.4334    0.4609   -1.2328 N   0  0  0  0  0  0  0  0  0  0  0  0
    3.2147    0.9088   -0.8593 N   0  0  0  0  0  0  0  0  0  0  0  0
    2.7910    2.2248   -1.2827 C   0  0  0  0  0  0  0  0  0  0  0  0
    0.7614   -0.4819    1.0700 H   0  0  0  0  0  0  0  0  0  0  0  0
    0.4452    0.5191   -0.3513 H   0  0  0  0  0  0  0  0  0  0  0  0
    1.1869    1.2311    1.0974 H   0  0  0  0  0  0  0  0  0  0  0  0
    2.1449   -2.4390    1.2858 H   0  0  0  0  0  0  0  0  0  0  0  0
    4.0327   -4.0465    1.2496 H   0  0  0  0  0  0  0  0  0  0  0  0
    7.9690   -2.3761    0.0045 H   0  0  0  0  0  0  0  0  0  0  0  0
    8.2096   -3.8256   -0.9893 H   0  0  0  0  0  0  0  0  0  0  0  0
    8.4564   -3.8454    0.7740 H   0  0  0  0  0  0  0  0  0  0  0  0
    7.8799   -5.8586    1.3452 H   0  0  0  0  0  0  0  0  0  0  0  0
    7.2712   -8.2523    1.1815 H   0  0  0  0  0  0  0  0  0  0  0  0
    3.6130   -8.4873   -1.0775 H   0  0  0  0  0  0  0  0  0  0  0  0
    1.3040   -8.5213   -1.6399 H   0  0  0  0  0  0  0  0  0  0  0  0
   -0.6717   -7.3644   -2.5454 H   0  0  0  0  0  0  0  0  0  0  0  0
   -0.5237   -4.9905   -3.2403 H   0  0  0  0  0  0  0  0  0  0  0  0
    3.6214   -4.9227   -2.1550 H   0  0  0  0  0  0  0  0  0  0  0  0
    6.4935   -1.4548   -1.2893 H   0  0  0  0  0  0  0  0  0  0  0  0
    3.5683    2.6784   -1.9020 H   0  0  0  0  0  0  0  0  0  0  0  0
    2.6239    2.8343   -0.3915 H   0  0  0  0  0  0  0  0  0  0  0  0
    1.8694    2.1205   -1.8598 H   0  0  0  0  0  0  0  0  0  0  0  0
  1  2  1  0  0  0  0
  1 28  1  0  0  0  0
  1 29  1  0  0  0  0
  1 30  1  0  0  0  0
  2  3  2  0  0  0  0
  2 26  1  0  0  0  0
  3  4  1  0  0  0  0
  3 24  1  0  0  0  0
  4  5  2  0  0  0  0
  4 31  1  0  0  0  0
  5  6  1  0  0  0  0
  5 32  1  0  0  0  0
  6  7  1  0  0  0  0
  6 23  2  0  0  0  0
  7  8  1  0  0  0  0
  7  9  1  0  0  0  0
  8 33  1  0  0  0  0
  8 34  1  0  0  0  0
  8 35  1  0  0  0  0
  9 10  1  0  0  0  0
  9 22  2  0  0  0  0
 10 11  2  0  0  0  0
 10 36  1  0  0  0  0
 11 12  1  0  0  0  0
 11 37  1  0  0  0  0
 12 13  2  0  0  0  0
 13 14  1  0  0  0  0
 13 22  1  0  0  0  0
 14 15  1  0  0  0  0
 14 38  1  0  0  0  0
 15 16  1  0  0  0  0
 15 21  2  0  0  0  0
 16 17  2  0  0  0  0
 16 39  1  0  0  0  0
 17 18  1  0  0  0  0
 17 40  1  0  0  0  0
 18 19  2  0  0  0  0
 18 41  1  0  0  0  0
 19 20  1  0  0  0  0
 19 21  1  0  0  0  0
 21 42  1  0  0  0  0
 23 24  1  0  0  0  0
 23 43  1  0  0  0  0
 24 25  2  0  0  0  0
 25 26  1  0  0  0  0
 26 27  1  0  0  0  0
 27 44  1  0  0  0  0
 27 45  1  0  0  0  0
 27 46  1  0  0  0  0
M  END
$$$$
