CHEMBL167890
 OpenBabel04072215363D

 58 62  0  0  0  0  0  0  0  0999 V2000
    2.5376    0.5988   -1.0586 C   0  0  0  0  0  0  0  0  0  0  0  0
    2.3474   -0.2243    0.0871 O   0  0  0  0  0  0  0  0  0  0  0  0
    3.0670    0.0460    1.2135 C   0  0  0  0  0  0  0  0  0  0  0  0
    4.2071    0.8545    1.2108 C   0  0  0  0  0  0  0  0  0  0  0  0
    4.8661    1.2022    2.4090 C   0  0  0  0  0  0  0  0  0  0  0  0
    5.9729    2.0599    2.4771 C   0  0  0  0  0  0  0  0  0  0  0  0
    6.4077    2.7324    1.2990 N   0  0  0  0  0  0  0  0  0  0  0  0
    7.6952    3.2971    1.1758 C   0  0  0  0  0  0  0  0  0  0  0  0
    8.8584    2.5866    1.5207 C   0  0  0  0  0  0  0  0  0  0  0  0
    8.7753    1.3000    1.8976 F   0  0  0  0  0  0  0  0  0  0  0  0
   10.1301    3.1718    1.4634 C   0  0  0  0  0  0  0  0  0  0  0  0
   10.2760    4.4886    1.0327 C   0  0  0  0  0  0  0  0  0  0  0  0
    9.1363    5.1639    0.6467 C   0  0  0  0  0  0  0  0  0  0  0  0
    7.8857    4.5869    0.7035 C   0  0  0  0  0  0  0  0  0  0  0  0
    6.9089    5.4404    0.2752 O   0  0  0  0  0  0  0  0  0  0  0  0
    7.6892    6.6174   -0.0335 C   0  0  0  0  0  0  0  0  0  0  0  0
    9.1022    6.4433    0.1881 O   0  0  0  0  0  0  0  0  0  0  0  0
    6.6073    2.3135    3.6358 N   0  0  0  0  0  0  0  0  0  0  0  0
    6.1320    1.7079    4.7242 C   0  0  0  0  0  0  0  0  0  0  0  0
    5.0588    0.9104    4.7806 N   0  0  0  0  0  0  0  0  0  0  0  0
    4.4368    0.6666    3.6245 C   0  0  0  0  0  0  0  0  0  0  0  0
    3.3277   -0.1748    3.6096 C   0  0  0  0  0  0  0  0  0  0  0  0
    2.6534   -0.5115    2.4259 C   0  0  0  0  0  0  0  0  0  0  0  0
    1.6081   -1.3802    2.6231 O   0  0  0  0  0  0  0  0  0  0  0  0
    1.3224   -2.3575    1.6133 C   0  0  0  0  0  0  0  0  0  0  0  0
    2.4993   -3.2860    1.2901 C   0  0  0  0  0  0  0  0  0  0  0  0
    2.9386   -4.0667    2.5340 C   0  0  0  0  0  0  0  0  0  0  0  0
    4.0941   -4.9560    2.3108 N   0  0  0  0  0  0  0  0  0  0  0  0
    4.3827   -5.7357    3.5422 C   0  0  0  0  0  0  0  0  0  0  0  0
    4.9886   -4.8952    4.6836 C   0  0  0  0  0  0  0  0  0  0  0  0
    6.1764   -4.2132    4.2615 O   0  0  0  0  0  0  0  0  0  0  0  0
    5.9187   -3.3956    3.1119 C   0  0  0  0  0  0  0  0  0  0  0  0
    5.3383   -4.2303    1.9583 C   0  0  0  0  0  0  0  0  0  0  0  0
    3.2047    0.0920   -1.7620 H   0  0  0  0  0  0  0  0  0  0  0  0
    2.9097    1.6031   -0.8351 H   0  0  0  0  0  0  0  0  0  0  0  0
    1.5631    0.7299   -1.5371 H   0  0  0  0  0  0  0  0  0  0  0  0
    4.6293    1.2095    0.2767 H   0  0  0  0  0  0  0  0  0  0  0  0
    5.6905    3.3948    1.0102 H   0  0  0  0  0  0  0  0  0  0  0  0
   10.9916    2.5829    1.7639 H   0  0  0  0  0  0  0  0  0  0  0  0
   11.2494    4.9637    0.9979 H   0  0  0  0  0  0  0  0  0  0  0  0
    7.3366    7.4456    0.5921 H   0  0  0  0  0  0  0  0  0  0  0  0
    7.5321    6.8828   -1.0857 H   0  0  0  0  0  0  0  0  0  0  0  0
    6.6668    1.8820    5.6521 H   0  0  0  0  0  0  0  0  0  0  0  0
    2.9872   -0.6039    4.5531 H   0  0  0  0  0  0  0  0  0  0  0  0
    0.9065   -1.8880    0.7181 H   0  0  0  0  0  0  0  0  0  0  0  0
    0.5055   -2.9697    2.0153 H   0  0  0  0  0  0  0  0  0  0  0  0
    3.3293   -2.6925    0.9011 H   0  0  0  0  0  0  0  0  0  0  0  0
    2.2050   -3.9834    0.4972 H   0  0  0  0  0  0  0  0  0  0  0  0
    2.0871   -4.6882    2.8416 H   0  0  0  0  0  0  0  0  0  0  0  0
    3.1236   -3.3708    3.3573 H   0  0  0  0  0  0  0  0  0  0  0  0
    5.0989   -6.5230    3.2729 H   0  0  0  0  0  0  0  0  0  0  0  0
    3.4803   -6.2525    3.8893 H   0  0  0  0  0  0  0  0  0  0  0  0
    5.2657   -5.5513    5.5146 H   0  0  0  0  0  0  0  0  0  0  0  0
    4.2737   -4.1633    5.0764 H   0  0  0  0  0  0  0  0  0  0  0  0
    6.8714   -2.9540    2.8025 H   0  0  0  0  0  0  0  0  0  0  0  0
    5.2552   -2.5715    3.3931 H   0  0  0  0  0  0  0  0  0  0  0  0
    6.0833   -4.9851    1.6725 H   0  0  0  0  0  0  0  0  0  0  0  0
    5.2040   -3.6100    1.0674 H   0  0  0  0  0  0  0  0  0  0  0  0
  1  2  1  0  0  0  0
  1 34  1  0  0  0  0
  1 35  1  0  0  0  0
  1 36  1  0  0  0  0
  2  3  1  0  0  0  0
  3  4  1  0  0  0  0
  3 23  2  0  0  0  0
  4  5  2  0  0  0  0
  4 37  1  0  0  0  0
  5  6  1  0  0  0  0
  5 21  1  0  0  0  0
  6  7  1  0  0  0  0
  6 18  2  0  0  0  0
  7  8  1  0  0  0  0
  7 38  1  0  0  0  0
  8  9  1  0  0  0  0
  8 14  2  0  0  0  0
  9 10  1  0  0  0  0
  9 11  2  0  0  0  0
 11 12  1  0  0  0  0
 11 39  1  0  0  0  0
 12 13  2  0  0  0  0
 12 40  1  0  0  0  0
 13 14  1  0  0  0  0
 13 17  1  0  0  0  0
 14 15  1  0  0  0  0
 15 16  1  0  0  0  0
 16 17  1  0  0  0  0
 16 41  1  0  0  0  0
 16 42  1  0  0  0  0
 18 19  1  0  0  0  0
 19 20  2  0  0  0  0
 19 43  1  0  0  0  0
 20 21  1  0  0  0  0
 21 22  2  0  0  0  0
 22 23  1  0  0  0  0
 22 44  1  0  0  0  0
 23 24  1  0  0  0  0
 24 25  1  0  0  0  0
 25 26  1  0  0  0  0
 25 45  1  0  0  0  0
 25 46  1  0  0  0  0
 26 27  1  0  0  0  0
 26 47  1  0  0  0  0
 26 48  1  0  0  0  0
 27 28  1  0  0  0  0
 27 49  1  0  0  0  0
 27 50  1  0  0  0  0
 28 29  1  0  0  0  0
 28 33  1  0  0  0  0
 29 30  1  0  0  0  0
 29 51  1  0  0  0  0
 29 52  1  0  0  0  0
 30 31  1  0  0  0  0
 30 53  1  0  0  0  0
 30 54  1  0  0  0  0
 31 32  1  0  0  0  0
 32 33  1  0  0  0  0
 32 55  1  0  0  0  0
 32 56  1  0  0  0  0
 33 57  1  0  0  0  0
 33 58  1  0  0  0  0
M  END
$$$$
