CHEMBL3928460
 OpenBabel04072215373D

 58 61  0  0  0  0  0  0  0  0999 V2000
   -0.2783    0.5375   -0.5972 C   0  0  0  0  0  0  0  0  0  0  0  0
    1.1994   -0.3406   -1.0372 S   0  0  0  0  0  0  0  0  0  0  0  0
    2.1917   -0.1321   -0.0006 O   0  0  0  0  0  0  0  0  0  0  0  0
    0.8113   -1.6769   -1.4431 O   0  0  0  0  0  0  0  0  0  0  0  0
    1.8077    0.4900   -2.4889 C   0  0  0  0  0  0  0  0  0  0  0  0
    2.0788    1.8530   -2.3996 C   0  0  0  0  0  0  0  0  0  0  0  0
    2.5760    2.5612   -3.4949 C   0  0  0  0  0  0  0  0  0  0  0  0
    2.8044    3.9586   -3.4510 N   0  0  0  0  0  0  0  0  0  0  0  0
    2.3287    4.8004   -2.4617 C   0  0  0  0  0  0  0  0  0  0  0  0
    1.6355    4.4449   -1.5116 O   0  0  0  0  0  0  0  0  0  0  0  0
    2.6666    6.1326   -2.6767 N   0  0  0  0  0  0  0  0  0  0  0  0
    2.2865    7.1119   -1.7268 C   0  0  0  0  0  0  0  0  0  0  0  0
    2.4742    6.8962   -0.3566 C   0  0  0  0  0  0  0  0  0  0  0  0
    2.0197    7.8296    0.5768 C   0  0  0  0  0  0  0  0  0  0  0  0
    1.4240    9.0155    0.1444 C   0  0  0  0  0  0  0  0  0  0  0  0
    0.9662    9.9956    1.0078 O   0  0  0  0  0  0  0  0  0  0  0  0
    1.7277   10.3160    2.1170 C   0  0  0  0  0  0  0  0  0  0  0  0
    3.1082   10.1848    2.1683 C   0  0  0  0  0  0  0  0  0  0  0  0
    3.7387   10.4809    3.3530 C   0  0  0  0  0  0  0  0  0  0  0  0
    3.0953   10.9433    4.4346 N   0  0  0  0  0  0  0  0  0  0  0  0
    1.7687   11.1471    4.3668 C   0  0  0  0  0  0  0  0  0  0  0  0
    1.1010   11.6821    5.4855 N   0  0  0  0  0  0  0  0  0  0  0  0
    1.7385   12.0034    6.6702 C   0  0  0  0  0  0  0  0  0  0  0  0
    2.9187   11.8608    6.9421 O   0  0  0  0  0  0  0  0  0  0  0  0
    0.8400   12.5811    7.7213 C   0  0  0  0  0  0  0  0  0  0  0  0
    1.3970   13.6178    8.6791 C   0  0  0  0  0  0  0  0  0  0  0  0
    1.0920   12.2344    9.1760 C   0  0  0  0  0  0  0  0  0  0  0  0
    1.0423   10.8416    3.2223 C   0  0  0  0  0  0  0  0  0  0  0  0
    1.2197    9.2250   -1.2205 C   0  0  0  0  0  0  0  0  0  0  0  0
    1.6724    8.2874   -2.1595 C   0  0  0  0  0  0  0  0  0  0  0  0
    2.8679    1.8558   -4.6683 C   0  0  0  0  0  0  0  0  0  0  0  0
    2.6189    0.4682   -4.7632 C   0  0  0  0  0  0  0  0  0  0  0  0
    2.9594   -0.3108   -6.0124 C   0  0  0  0  0  0  0  0  0  0  0  0
    3.5312    0.4510   -6.9858 F   0  0  0  0  0  0  0  0  0  0  0  0
    3.8353   -1.3229   -5.7671 F   0  0  0  0  0  0  0  0  0  0  0  0
    1.8658   -0.8867   -6.5814 F   0  0  0  0  0  0  0  0  0  0  0  0
    2.0632   -0.2090   -3.6646 C   0  0  0  0  0  0  0  0  0  0  0  0
   -0.6696    0.0936    0.3241 H   0  0  0  0  0  0  0  0  0  0  0  0
   -1.0133    0.4295   -1.3985 H   0  0  0  0  0  0  0  0  0  0  0  0
   -0.0525    1.5898   -0.4172 H   0  0  0  0  0  0  0  0  0  0  0  0
    1.9315    2.3327   -1.4383 H   0  0  0  0  0  0  0  0  0  0  0  0
    3.3100    4.3759   -4.2172 H   0  0  0  0  0  0  0  0  0  0  0  0
    2.6656    6.4200   -3.6438 H   0  0  0  0  0  0  0  0  0  0  0  0
    2.9651    5.9942    0.0027 H   0  0  0  0  0  0  0  0  0  0  0  0
    2.1472    7.6156    1.6344 H   0  0  0  0  0  0  0  0  0  0  0  0
    3.6963    9.8385    1.3245 H   0  0  0  0  0  0  0  0  0  0  0  0
    4.8118   10.3431    3.4789 H   0  0  0  0  0  0  0  0  0  0  0  0
    0.1109   11.8505    5.4053 H   0  0  0  0  0  0  0  0  0  0  0  0
   -0.1968   12.7106    7.4385 H   0  0  0  0  0  0  0  0  0  0  0  0
    0.7535   14.4254    8.9988 H   0  0  0  0  0  0  0  0  0  0  0  0
    2.4436   13.8966    8.5818 H   0  0  0  0  0  0  0  0  0  0  0  0
    0.2426   12.1080    9.8323 H   0  0  0  0  0  0  0  0  0  0  0  0
    1.9337   11.5892    9.4115 H   0  0  0  0  0  0  0  0  0  0  0  0
   -0.0296   10.9950    3.1699 H   0  0  0  0  0  0  0  0  0  0  0  0
    0.6967   10.1163   -1.5616 H   0  0  0  0  0  0  0  0  0  0  0  0
    1.4774    8.4574   -3.2147 H   0  0  0  0  0  0  0  0  0  0  0  0
    3.2822    2.3776   -5.5317 H   0  0  0  0  0  0  0  0  0  0  0  0
    1.8674   -1.2795   -3.7223 H   0  0  0  0  0  0  0  0  0  0  0  0
  1  2  1  0  0  0  0
  1 38  1  0  0  0  0
  1 39  1  0  0  0  0
  1 40  1  0  0  0  0
  2  3  2  0  0  0  0
  2  4  2  0  0  0  0
  2  5  1  0  0  0  0
  5  6  1  0  0  0  0
  5 37  2  0  0  0  0
  6  7  2  0  0  0  0
  6 41  1  0  0  0  0
  7  8  1  0  0  0  0
  7 31  1  0  0  0  0
  8  9  1  0  0  0  0
  8 42  1  0  0  0  0
  9 10  2  0  0  0  0
  9 11  1  0  0  0  0
 11 12  1  0  0  0  0
 11 43  1  0  0  0  0
 12 13  1  0  0  0  0
 12 30  2  0  0  0  0
 13 14  2  0  0  0  0
 13 44  1  0  0  0  0
 14 15  1  0  0  0  0
 14 45  1  0  0  0  0
 15 16  1  0  0  0  0
 15 29  2  0  0  0  0
 16 17  1  0  0  0  0
 17 18  1  0  0  0  0
 17 28  2  0  0  0  0
 18 19  2  0  0  0  0
 18 46  1  0  0  0  0
 19 20  1  0  0  0  0
 19 47  1  0  0  0  0
 20 21  2  0  0  0  0
 21 22  1  0  0  0  0
 21 28  1  0  0  0  0
 22 23  1  0  0  0  0
 22 48  1  0  0  0  0
 23 24  2  0  0  0  0
 23 25  1  0  0  0  0
 25 26  1  0  0  0  0
 25 27  1  0  0  0  0
 25 49  1  0  0  0  0
 26 27  1  0  0  0  0
 26 50  1  0  0  0  0
 26 51  1  0  0  0  0
 27 52  1  0  0  0  0
 27 53  1  0  0  0  0
 28 54  1  0  0  0  0
 29 30  1  0  0  0  0
 29 55  1  0  0  0  0
 30 56  1  0  0  0  0
 31 32  2  0  0  0  0
 31 57  1  0  0  0  0
 32 33  1  0  0  0  0
 32 37  1  0  0  0  0
 33 34  1  0  0  0  0
 33 35  1  0  0  0  0
 33 36  1  0  0  0  0
 37 58  1  0  0  0  0
M  END
$$$$
