CHEMBL1986851
 OpenBabel04072215363D

 59 63  0  0  0  0  0  0  0  0999 V2000
    2.9510   -5.9373   -0.5810 C   0  0  0  0  0  0  0  0  0  0  0  0
    1.5013   -6.2978   -0.7024 C   0  0  0  0  0  0  0  0  0  0  0  0
    1.1386   -7.5931   -1.0865 C   0  0  0  0  0  0  0  0  0  0  0  0
   -0.2000   -7.9367   -1.2053 C   0  0  0  0  0  0  0  0  0  0  0  0
   -1.1885   -6.9869   -0.9429 C   0  0  0  0  0  0  0  0  0  0  0  0
   -0.8572   -5.6862   -0.5463 C   0  0  0  0  0  0  0  0  0  0  0  0
   -1.8316   -4.6916   -0.2841 N   0  0  0  0  0  0  0  0  0  0  0  0
   -3.1969   -4.8992   -0.2448 C   0  0  0  0  0  0  0  0  0  0  0  0
   -3.7443   -6.0004   -0.3162 O   0  0  0  0  0  0  0  0  0  0  0  0
   -3.9090   -3.7170   -0.1467 N   0  0  0  0  0  0  0  0  0  0  0  0
   -5.3243   -3.7390   -0.0951 C   0  0  0  0  0  0  0  0  0  0  0  0
   -6.0259   -4.6942    0.6440 C   0  0  0  0  0  0  0  0  0  0  0  0
   -7.4225   -4.7346    0.6072 C   0  0  0  0  0  0  0  0  0  0  0  0
   -8.1505   -3.7647   -0.0872 C   0  0  0  0  0  0  0  0  0  0  0  0
   -9.6207   -3.7274   -0.0403 C   0  0  0  0  0  0  0  0  0  0  0  0
  -10.3043   -3.4182   -1.1983 C   0  0  0  0  0  0  0  0  0  0  0  0
  -11.9699   -3.2927   -0.9772 S   0  0  0  0  0  0  0  0  0  0  0  0
  -11.8863   -3.7761    0.6808 C   0  0  0  0  0  0  0  0  0  0  0  0
  -12.9658   -3.9541    1.5764 C   0  0  0  0  0  0  0  0  0  0  0  0
  -14.3557   -3.7946    1.1882 C   0  0  0  0  0  0  0  0  0  0  0  0
  -15.0401   -4.0721   -0.0187 C   0  0  0  0  0  0  0  0  0  0  0  0
  -16.3479   -3.8102    0.0505 N   0  0  0  0  0  0  0  0  0  0  0  0
  -16.5166   -3.3793    1.3118 N   0  0  0  0  0  0  0  0  0  0  0  0
  -17.8501   -3.0753    1.7974 C   0  0  0  0  0  0  0  0  0  0  0  0
  -18.7937   -4.2662    1.6760 C   0  0  0  0  0  0  0  0  0  0  0  0
  -18.3591   -5.3589    2.4852 O   0  0  0  0  0  0  0  0  0  0  0  0
  -15.3549   -3.3445    2.0302 C   0  0  0  0  0  0  0  0  0  0  0  0
  -12.6124   -4.3067    2.8666 C   0  0  0  0  0  0  0  0  0  0  0  0
  -11.3534   -4.4704    3.3006 N   0  0  0  0  0  0  0  0  0  0  0  0
  -10.3205   -4.2976    2.4544 C   0  0  0  0  0  0  0  0  0  0  0  0
   -9.0851   -4.4673    3.0625 N   0  0  0  0  0  0  0  0  0  0  0  0
  -10.5431   -3.9549    1.0869 C   0  0  0  0  0  0  0  0  0  0  0  0
   -7.4375   -2.8131   -0.8375 C   0  0  0  0  0  0  0  0  0  0  0  0
   -6.0438   -2.8070   -0.8354 C   0  0  0  0  0  0  0  0  0  0  0  0
   -5.3928   -1.9191   -1.6020 F   0  0  0  0  0  0  0  0  0  0  0  0
    0.4965   -5.3484   -0.4321 C   0  0  0  0  0  0  0  0  0  0  0  0
    3.5944   -6.7833   -0.8460 H   0  0  0  0  0  0  0  0  0  0  0  0
    3.1853   -5.6490    0.4475 H   0  0  0  0  0  0  0  0  0  0  0  0
    3.1958   -5.1117   -1.2585 H   0  0  0  0  0  0  0  0  0  0  0  0
    1.8948   -8.3427   -1.3011 H   0  0  0  0  0  0  0  0  0  0  0  0
   -0.4898   -8.9387   -1.5044 H   0  0  0  0  0  0  0  0  0  0  0  0
   -2.2148   -7.3132   -1.0658 H   0  0  0  0  0  0  0  0  0  0  0  0
   -1.5013   -3.7848    0.0134 H   0  0  0  0  0  0  0  0  0  0  0  0
   -3.5056   -2.9291   -0.6385 H   0  0  0  0  0  0  0  0  0  0  0  0
   -5.4991   -5.4313    1.2470 H   0  0  0  0  0  0  0  0  0  0  0  0
   -7.9248   -5.5373    1.1449 H   0  0  0  0  0  0  0  0  0  0  0  0
   -9.9002   -3.2251   -2.1833 H   0  0  0  0  0  0  0  0  0  0  0  0
  -14.6495   -4.4683   -0.9469 H   0  0  0  0  0  0  0  0  0  0  0  0
  -18.2158   -2.2234    1.2143 H   0  0  0  0  0  0  0  0  0  0  0  0
  -17.7547   -2.7707    2.8454 H   0  0  0  0  0  0  0  0  0  0  0  0
  -18.8955   -4.6148    0.6424 H   0  0  0  0  0  0  0  0  0  0  0  0
  -19.7890   -3.9781    2.0280 H   0  0  0  0  0  0  0  0  0  0  0  0
  -17.6191   -5.7755    2.0072 H   0  0  0  0  0  0  0  0  0  0  0  0
  -15.3461   -3.0184    3.0613 H   0  0  0  0  0  0  0  0  0  0  0  0
  -13.3649   -4.4819    3.6316 H   0  0  0  0  0  0  0  0  0  0  0  0
   -9.2170   -4.5284    4.0671 H   0  0  0  0  0  0  0  0  0  0  0  0
   -8.3808   -3.8078    2.7626 H   0  0  0  0  0  0  0  0  0  0  0  0
   -7.9443   -2.0687   -1.4446 H   0  0  0  0  0  0  0  0  0  0  0  0
    0.7887   -4.3441   -0.1333 H   0  0  0  0  0  0  0  0  0  0  0  0
  1  2  1  0  0  0  0
  1 37  1  0  0  0  0
  1 38  1  0  0  0  0
  1 39  1  0  0  0  0
  2  3  1  0  0  0  0
  2 36  2  0  0  0  0
  3  4  2  0  0  0  0
  3 40  1  0  0  0  0
  4  5  1  0  0  0  0
  4 41  1  0  0  0  0
  5  6  2  0  0  0  0
  5 42  1  0  0  0  0
  6  7  1  0  0  0  0
  6 36  1  0  0  0  0
  7  8  1  0  0  0  0
  7 43  1  0  0  0  0
  8  9  2  0  0  0  0
  8 10  1  0  0  0  0
 10 11  1  0  0  0  0
 10 44  1  0  0  0  0
 11 12  1  0  0  0  0
 11 34  2  0  0  0  0
 12 13  2  0  0  0  0
 12 45  1  0  0  0  0
 13 14  1  0  0  0  0
 13 46  1  0  0  0  0
 14 15  1  0  0  0  0
 14 33  2  0  0  0  0
 15 16  2  0  0  0  0
 15 32  1  0  0  0  0
 16 17  1  0  0  0  0
 16 47  1  0  0  0  0
 17 18  1  0  0  0  0
 18 19  1  0  0  0  0
 18 32  2  0  0  0  0
 19 20  1  0  0  0  0
 19 28  2  0  0  0  0
 20 21  1  0  0  0  0
 20 27  2  0  0  0  0
 21 22  2  0  0  0  0
 21 48  1  0  0  0  0
 22 23  1  0  0  0  0
 23 24  1  0  0  0  0
 23 27  1  0  0  0  0
 24 25  1  0  0  0  0
 24 49  1  0  0  0  0
 24 50  1  0  0  0  0
 25 26  1  0  0  0  0
 25 51  1  0  0  0  0
 25 52  1  0  0  0  0
 26 53  1  0  0  0  0
 27 54  1  0  0  0  0
 28 29  1  0  0  0  0
 28 55  1  0  0  0  0
 29 30  2  0  0  0  0
 30 31  1  0  0  0  0
 30 32  1  0  0  0  0
 31 56  1  0  0  0  0
 31 57  1  0  0  0  0
 33 34  1  0  0  0  0
 33 58  1  0  0  0  0
 34 35  1  0  0  0  0
 36 59  1  0  0  0  0
M  END
$$$$
