CHEMBL4780987
 OpenBabel04072215383D

 56 60  0  0  0  0  0  0  0  0999 V2000
    1.1488    0.0023   -0.4347 O   0  0  0  0  0  0  0  0  0  0  0  0
    2.3533   -0.1514   -0.2425 C   0  0  0  0  0  0  0  0  0  0  0  0
    2.9148   -0.8484    0.7998 N   0  0  0  0  0  0  0  0  0  0  0  0
    2.2451   -1.4825    1.8657 C   0  0  0  0  0  0  0  0  0  0  0  0
    0.8842   -1.7908    1.8306 C   0  0  0  0  0  0  0  0  0  0  0  0
    0.2589   -2.3764    2.9346 C   0  0  0  0  0  0  0  0  0  0  0  0
    0.9948   -2.6543    4.0819 C   0  0  0  0  0  0  0  0  0  0  0  0
    0.2140   -3.3369    5.4540 Cl  0  0  0  0  0  0  0  0  0  0  0  0
    2.3581   -2.3733    4.1247 C   0  0  0  0  0  0  0  0  0  0  0  0
    2.9840   -1.7985    3.0133 C   0  0  0  0  0  0  0  0  0  0  0  0
    3.2138    0.5107   -1.0636 N   0  0  0  0  0  0  0  0  0  0  0  0
    4.5915    0.4346   -1.1327 C   0  0  0  0  0  0  0  0  0  0  0  0
    5.1951    1.4239   -1.7904 N   0  0  0  0  0  0  0  0  0  0  0  0
    6.5354    1.3970   -1.7839 C   0  0  0  0  0  0  0  0  0  0  0  0
    7.3825    2.8435   -2.3901 S   0  0  0  0  0  0  0  0  0  0  0  0
    7.6610    2.4700   -4.0730 C   0  0  0  0  0  0  0  0  0  0  0  0
    6.8857    1.6760   -4.8884 C   0  0  0  0  0  0  0  0  0  0  0  0
    7.4473    1.6929   -6.1374 N   0  0  0  0  0  0  0  0  0  0  0  0
    8.5698    2.4876   -6.1501 C   0  0  0  0  0  0  0  0  0  0  0  0
    9.4400    2.7973   -7.2013 C   0  0  0  0  0  0  0  0  0  0  0  0
   10.5132    3.6509   -6.9259 C   0  0  0  0  0  0  0  0  0  0  0  0
   10.7034    4.1746   -5.6500 C   0  0  0  0  0  0  0  0  0  0  0  0
    9.8241    3.8549   -4.6097 C   0  0  0  0  0  0  0  0  0  0  0  0
    8.7317    2.9943   -4.8583 C   0  0  0  0  0  0  0  0  0  0  0  0
    7.2624    0.3662   -1.2329 C   0  0  0  0  0  0  0  0  0  0  0  0
    6.5551   -0.6533   -0.6316 C   0  0  0  0  0  0  0  0  0  0  0  0
    7.2165   -1.7091   -0.0351 N   0  0  0  0  0  0  0  0  0  0  0  0
    6.5185   -2.5404    0.9419 C   0  0  0  0  0  0  0  0  0  0  0  0
    7.5367   -2.9128    2.0214 C   0  0  0  0  0  0  0  0  0  0  0  0
    8.7835   -3.5706    1.4222 C   0  0  0  0  0  0  0  0  0  0  0  0
    9.3581   -2.7644    0.2521 C   0  0  0  0  0  0  0  0  0  0  0  0
    8.2738   -2.4099   -0.7630 C   0  0  0  0  0  0  0  0  0  0  0  0
    5.2209   -0.5819   -0.5291 N   0  0  0  0  0  0  0  0  0  0  0  0
    3.9267   -0.7916    0.8544 H   0  0  0  0  0  0  0  0  0  0  0  0
    0.2827   -1.5967    0.9469 H   0  0  0  0  0  0  0  0  0  0  0  0
   -0.8022   -2.6028    2.8872 H   0  0  0  0  0  0  0  0  0  0  0  0
    2.9331   -2.5837    5.0224 H   0  0  0  0  0  0  0  0  0  0  0  0
    4.0422   -1.5629    3.0778 H   0  0  0  0  0  0  0  0  0  0  0  0
    2.7920    1.1930   -1.6722 H   0  0  0  0  0  0  0  0  0  0  0  0
    5.9787    1.1204   -4.6989 H   0  0  0  0  0  0  0  0  0  0  0  0
    7.0795    1.2083   -6.9456 H   0  0  0  0  0  0  0  0  0  0  0  0
    9.2906    2.3972   -8.1997 H   0  0  0  0  0  0  0  0  0  0  0  0
   11.2027    3.9153   -7.7252 H   0  0  0  0  0  0  0  0  0  0  0  0
   11.5431    4.8405   -5.4594 H   0  0  0  0  0  0  0  0  0  0  0  0
    9.9813    4.2753   -3.6199 H   0  0  0  0  0  0  0  0  0  0  0  0
    8.3435    0.3900   -1.2103 H   0  0  0  0  0  0  0  0  0  0  0  0
    6.1023   -3.4384    0.4675 H   0  0  0  0  0  0  0  0  0  0  0  0
    5.6959   -2.0108    1.4296 H   0  0  0  0  0  0  0  0  0  0  0  0
    7.0767   -3.5770    2.7609 H   0  0  0  0  0  0  0  0  0  0  0  0
    7.8373   -1.9995    2.5517 H   0  0  0  0  0  0  0  0  0  0  0  0
    8.5247   -4.5770    1.0736 H   0  0  0  0  0  0  0  0  0  0  0  0
    9.5474   -3.6826    2.1994 H   0  0  0  0  0  0  0  0  0  0  0  0
   10.1601   -3.3290   -0.2345 H   0  0  0  0  0  0  0  0  0  0  0  0
    9.7997   -1.8365    0.6377 H   0  0  0  0  0  0  0  0  0  0  0  0
    7.8709   -3.3220   -1.2248 H   0  0  0  0  0  0  0  0  0  0  0  0
    8.7117   -1.8182   -1.5736 H   0  0  0  0  0  0  0  0  0  0  0  0
  1  2  2  0  0  0  0
  2  3  1  0  0  0  0
  2 11  1  0  0  0  0
  3  4  1  0  0  0  0
  3 34  1  0  0  0  0
  4  5  1  0  0  0  0
  4 10  2  0  0  0  0
  5  6  2  0  0  0  0
  5 35  1  0  0  0  0
  6  7  1  0  0  0  0
  6 36  1  0  0  0  0
  7  8  1  0  0  0  0
  7  9  2  0  0  0  0
  9 10  1  0  0  0  0
  9 37  1  0  0  0  0
 10 38  1  0  0  0  0
 11 12  1  0  0  0  0
 11 39  1  0  0  0  0
 12 13  1  0  0  0  0
 12 33  2  0  0  0  0
 13 14  2  0  0  0  0
 14 15  1  0  0  0  0
 14 25  1  0  0  0  0
 15 16  1  0  0  0  0
 16 17  2  0  0  0  0
 16 24  1  0  0  0  0
 17 18  1  0  0  0  0
 17 40  1  0  0  0  0
 18 19  1  0  0  0  0
 18 41  1  0  0  0  0
 19 20  1  0  0  0  0
 19 24  2  0  0  0  0
 20 21  2  0  0  0  0
 20 42  1  0  0  0  0
 21 22  1  0  0  0  0
 21 43  1  0  0  0  0
 22 23  2  0  0  0  0
 22 44  1  0  0  0  0
 23 24  1  0  0  0  0
 23 45  1  0  0  0  0
 25 26  2  0  0  0  0
 25 46  1  0  0  0  0
 26 27  1  0  0  0  0
 26 33  1  0  0  0  0
 27 28  1  0  0  0  0
 27 32  1  0  0  0  0
 28 29  1  0  0  0  0
 28 47  1  0  0  0  0
 28 48  1  0  0  0  0
 29 30  1  0  0  0  0
 29 49  1  0  0  0  0
 29 50  1  0  0  0  0
 30 31  1  0  0  0  0
 30 51  1  0  0  0  0
 30 52  1  0  0  0  0
 31 32  1  0  0  0  0
 31 53  1  0  0  0  0
 31 54  1  0  0  0  0
 32 55  1  0  0  0  0
 32 56  1  0  0  0  0
M  END
$$$$
