CHEMBL449757
 OpenBabel04072215383D

 77 83  0  0  0  0  0  0  0  0999 V2000
   -3.5924    1.0079    0.7474 O   0  0  0  0  0  0  0  0  0  0  0  0
   -4.1511    2.1022    0.7696 C   0  0  0  0  0  0  0  0  0  0  0  0
   -3.7242    3.2091    1.4745 N   0  0  0  0  0  0  0  0  0  0  0  0
   -2.6012    3.3318    2.2986 C   0  0  0  0  0  0  0  0  0  0  0  0
   -1.5599    2.4064    2.3124 C   0  0  0  0  0  0  0  0  0  0  0  0
   -0.4865    2.5755    3.1828 C   0  0  0  0  0  0  0  0  0  0  0  0
   -0.4438    3.6673    4.0502 C   0  0  0  0  0  0  0  0  0  0  0  0
    0.6427    3.6822    4.8866 O   0  0  0  0  0  0  0  0  0  0  0  0
    1.1102    4.8723    5.3870 C   0  0  0  0  0  0  0  0  0  0  0  0
    1.2478    6.0272    4.6277 C   0  0  0  0  0  0  0  0  0  0  0  0
    1.7436    7.1602    5.2413 C   0  0  0  0  0  0  0  0  0  0  0  0
    2.1517    7.2454    6.5228 N   0  0  0  0  0  0  0  0  0  0  0  0
    2.0679    6.0947    7.2444 C   0  0  0  0  0  0  0  0  0  0  0  0
    2.4660    5.9408    8.6048 C   0  0  0  0  0  0  0  0  0  0  0  0
    2.2962    4.6511    9.0539 C   0  0  0  0  0  0  0  0  0  0  0  0
    2.6597    4.1916   10.4194 C   0  0  0  0  0  0  0  0  0  0  0  0
    2.5867    2.8915   10.8664 C   0  0  0  0  0  0  0  0  0  0  0  0
    3.0569    2.9296   12.1477 N   0  0  0  0  0  0  0  0  0  0  0  0
    3.2278    1.7675   12.9976 C   0  0  0  0  0  0  0  0  0  0  0  0
    2.9894    2.0490   14.4745 C   0  0  0  0  0  0  0  0  0  0  0  0
    3.0715    0.7670   15.3064 C   0  0  0  0  0  0  0  0  0  0  0  0
    2.8972    1.0533   16.7371 N   0  0  0  0  0  0  0  0  0  0  0  0
    3.1184   -0.1480   17.5588 C   0  0  0  0  0  0  0  0  0  0  0  0
    1.7730   -0.8452   17.5935 C   0  0  0  0  0  0  0  0  0  0  0  0
    0.7884    0.3056   17.6574 C   0  0  0  0  0  0  0  0  0  0  0  0
    1.5341    1.5008   17.0771 C   0  0  0  0  0  0  0  0  0  0  0  0
    3.3563    4.2301   12.4368 C   0  0  0  0  0  0  0  0  0  0  0  0
    3.1364    5.0169   11.4065 N   0  0  0  0  0  0  0  0  0  0  0  0
    1.6318    3.6361    7.8609 S   0  0  0  0  0  0  0  0  0  0  0  0
    1.5710    4.9070    6.7110 C   0  0  0  0  0  0  0  0  0  0  0  0
   -1.4994    4.5800    4.0466 C   0  0  0  0  0  0  0  0  0  0  0  0
   -1.5438    5.6067    4.9079 F   0  0  0  0  0  0  0  0  0  0  0  0
   -2.5567    4.4388    3.1536 C   0  0  0  0  0  0  0  0  0  0  0  0
   -5.3454    2.3077    0.0974 N   0  0  0  0  0  0  0  0  0  0  0  0
   -6.0224    1.2688   -0.6385 C   0  0  0  0  0  0  0  0  0  0  0  0
   -7.4502    1.7853   -0.7396 C   0  0  0  0  0  0  0  0  0  0  0  0
   -7.2916    3.2175   -0.6412 N   0  0  0  0  0  0  0  0  0  0  0  0
   -8.3046    4.1672   -0.8942 C   0  0  0  0  0  0  0  0  0  0  0  0
   -7.9807    5.5255   -1.0264 C   0  0  0  0  0  0  0  0  0  0  0  0
   -8.9671    6.4878   -1.2421 C   0  0  0  0  0  0  0  0  0  0  0  0
  -10.2979    6.1036   -1.3303 C   0  0  0  0  0  0  0  0  0  0  0  0
  -10.6352    4.7539   -1.2230 C   0  0  0  0  0  0  0  0  0  0  0  0
   -9.6432    3.7885   -1.0229 C   0  0  0  0  0  0  0  0  0  0  0  0
   -6.0741    3.5068    0.0003 C   0  0  0  0  0  0  0  0  0  0  0  0
   -5.6957    4.5770    0.4603 O   0  0  0  0  0  0  0  0  0  0  0  0
   -4.3629    4.0034    1.4592 H   0  0  0  0  0  0  0  0  0  0  0  0
   -1.5516    1.5525    1.6424 H   0  0  0  0  0  0  0  0  0  0  0  0
    0.3175    1.8442    3.1872 H   0  0  0  0  0  0  0  0  0  0  0  0
    0.9574    6.0573    3.5853 H   0  0  0  0  0  0  0  0  0  0  0  0
    1.8253    8.0879    4.6786 H   0  0  0  0  0  0  0  0  0  0  0  0
    2.8758    6.7396    9.2099 H   0  0  0  0  0  0  0  0  0  0  0  0
    2.2754    1.9742   10.3869 H   0  0  0  0  0  0  0  0  0  0  0  0
    4.2412    1.3919   12.8202 H   0  0  0  0  0  0  0  0  0  0  0  0
    2.5168    1.0079   12.6475 H   0  0  0  0  0  0  0  0  0  0  0  0
    2.0086    2.5252   14.5750 H   0  0  0  0  0  0  0  0  0  0  0  0
    3.7312    2.7660   14.8462 H   0  0  0  0  0  0  0  0  0  0  0  0
    4.0701    0.3361   15.1521 H   0  0  0  0  0  0  0  0  0  0  0  0
    2.3446    0.0300   14.9442 H   0  0  0  0  0  0  0  0  0  0  0  0
    3.4003    0.1677   18.5712 H   0  0  0  0  0  0  0  0  0  0  0  0
    3.9212   -0.7946   17.1887 H   0  0  0  0  0  0  0  0  0  0  0  0
    1.6704   -1.5236   18.4449 H   0  0  0  0  0  0  0  0  0  0  0  0
    1.6140   -1.4251   16.6765 H   0  0  0  0  0  0  0  0  0  0  0  0
    0.5063    0.5118   18.6958 H   0  0  0  0  0  0  0  0  0  0  0  0
   -0.1226    0.0797   17.0941 H   0  0  0  0  0  0  0  0  0  0  0  0
    1.6063    2.2947   17.8297 H   0  0  0  0  0  0  0  0  0  0  0  0
    0.9726    1.9246   16.2400 H   0  0  0  0  0  0  0  0  0  0  0  0
    3.7290    4.5580   13.3986 H   0  0  0  0  0  0  0  0  0  0  0  0
   -3.3490    5.1807    3.1659 H   0  0  0  0  0  0  0  0  0  0  0  0
   -5.9394    0.2911   -0.1552 H   0  0  0  0  0  0  0  0  0  0  0  0
   -5.5531    1.2145   -1.6282 H   0  0  0  0  0  0  0  0  0  0  0  0
   -8.0375    1.4416    0.1208 H   0  0  0  0  0  0  0  0  0  0  0  0
   -7.9342    1.4832   -1.6723 H   0  0  0  0  0  0  0  0  0  0  0  0
   -6.9489    5.8666   -0.9842 H   0  0  0  0  0  0  0  0  0  0  0  0
   -8.6847    7.5333   -1.3359 H   0  0  0  0  0  0  0  0  0  0  0  0
  -11.0691    6.8524   -1.4795 H   0  0  0  0  0  0  0  0  0  0  0  0
  -11.6785    4.4549   -1.2815 H   0  0  0  0  0  0  0  0  0  0  0  0
   -9.9503    2.7506   -0.9215 H   0  0  0  0  0  0  0  0  0  0  0  0
  1  2  2  0  0  0  0
  2  3  1  0  0  0  0
  2 34  1  0  0  0  0
  3  4  1  0  0  0  0
  3 46  1  0  0  0  0
  4  5  1  0  0  0  0
  4 33  2  0  0  0  0
  5  6  2  0  0  0  0
  5 47  1  0  0  0  0
  6  7  1  0  0  0  0
  6 48  1  0  0  0  0
  7  8  1  0  0  0  0
  7 31  2  0  0  0  0
  8  9  1  0  0  0  0
  9 10  1  0  0  0  0
  9 30  2  0  0  0  0
 10 11  2  0  0  0  0
 10 49  1  0  0  0  0
 11 12  1  0  0  0  0
 11 50  1  0  0  0  0
 12 13  2  0  0  0  0
 13 14  1  0  0  0  0
 13 30  1  0  0  0  0
 14 15  2  0  0  0  0
 14 51  1  0  0  0  0
 15 16  1  0  0  0  0
 15 29  1  0  0  0  0
 16 17  2  0  0  0  0
 16 28  1  0  0  0  0
 17 18  1  0  0  0  0
 17 52  1  0  0  0  0
 18 19  1  0  0  0  0
 18 27  1  0  0  0  0
 19 20  1  0  0  0  0
 19 53  1  0  0  0  0
 19 54  1  0  0  0  0
 20 21  1  0  0  0  0
 20 55  1  0  0  0  0
 20 56  1  0  0  0  0
 21 22  1  0  0  0  0
 21 57  1  0  0  0  0
 21 58  1  0  0  0  0
 22 23  1  0  0  0  0
 22 26  1  0  0  0  0
 23 24  1  0  0  0  0
 23 59  1  0  0  0  0
 23 60  1  0  0  0  0
 24 25  1  0  0  0  0
 24 61  1  0  0  0  0
 24 62  1  0  0  0  0
 25 26  1  0  0  0  0
 25 63  1  0  0  0  0
 25 64  1  0  0  0  0
 26 65  1  0  0  0  0
 26 66  1  0  0  0  0
 27 28  2  0  0  0  0
 27 67  1  0  0  0  0
 29 30  1  0  0  0  0
 31 32  1  0  0  0  0
 31 33  1  0  0  0  0
 33 68  1  0  0  0  0
 34 35  1  0  0  0  0
 34 44  1  0  0  0  0
 35 36  1  0  0  0  0
 35 69  1  0  0  0  0
 35 70  1  0  0  0  0
 36 37  1  0  0  0  0
 36 71  1  0  0  0  0
 36 72  1  0  0  0  0
 37 38  1  0  0  0  0
 37 44  1  0  0  0  0
 38 39  1  0  0  0  0
 38 43  2  0  0  0  0
 39 40  2  0  0  0  0
 39 73  1  0  0  0  0
 40 41  1  0  0  0  0
 40 74  1  0  0  0  0
 41 42  2  0  0  0  0
 41 75  1  0  0  0  0
 42 43  1  0  0  0  0
 42 76  1  0  0  0  0
 43 77  1  0  0  0  0
 44 45  2  0  0  0  0
M  END
$$$$
