CHEMBL371373
 OpenBabel04072215373D

 54 57  0  0  0  0  0  0  0  0999 V2000
    3.5926    1.4432    3.7216 C   0  0  0  0  0  0  0  0  0  0  0  0
    2.5000    0.8474    2.8484 C   0  0  0  0  0  0  0  0  0  0  0  0
    2.8845   -0.5056    2.3968 C   0  0  0  0  0  0  0  0  0  0  0  0
    3.5379   -0.8588    1.3137 N   0  0  0  0  0  0  0  0  0  0  0  0
    3.7553   -2.2104    1.4291 N   0  0  0  0  0  0  0  0  0  0  0  0
    3.2126   -2.6048    2.5664 C   0  0  0  0  0  0  0  0  0  0  0  0
    3.2595   -4.0042    3.0937 C   0  0  0  0  0  0  0  0  0  0  0  0
    2.6140   -4.3698    4.2465 C   0  0  0  0  0  0  0  0  0  0  0  0
    2.8561   -5.6902    4.4604 N   0  0  0  0  0  0  0  0  0  0  0  0
    2.3372   -6.3726    5.4907 N   0  0  0  0  0  0  0  0  0  0  0  0
    2.7345   -7.5977    5.5603 C   0  0  0  0  0  0  0  0  0  0  0  0
    3.6158   -8.2084    4.7156 N   0  0  0  0  0  0  0  0  0  0  0  0
    4.1185   -7.5620    3.6993 C   0  0  0  0  0  0  0  0  0  0  0  0
    4.9944   -8.2267    2.8670 N   0  0  0  0  0  0  0  0  0  0  0  0
    5.7469   -9.3642    3.2543 C   0  0  0  0  0  0  0  0  0  0  0  0
    6.3438   -9.4712    4.5203 C   0  0  0  0  0  0  0  0  0  0  0  0
    7.1007  -10.6031    4.8730 C   0  0  0  0  0  0  0  0  0  0  0  0
    7.6458  -10.6909    6.2579 C   0  0  0  0  0  0  0  0  0  0  0  0
    7.4804   -9.7518    7.0309 O   0  0  0  0  0  0  0  0  0  0  0  0
    8.2745  -11.8681    6.5917 N   0  0  0  0  0  0  0  0  0  0  0  0
    8.8943  -11.9157    7.8588 O   0  0  0  0  0  0  0  0  0  0  0  0
    7.9931  -12.5628    8.7547 C   0  0  0  0  0  0  0  0  0  0  0  0
    7.2757  -11.6169    3.9274 C   0  0  0  0  0  0  0  0  0  0  0  0
    7.9983  -12.7117    4.2111 F   0  0  0  0  0  0  0  0  0  0  0  0
    6.7111  -11.5240    2.6607 C   0  0  0  0  0  0  0  0  0  0  0  0
    5.9607  -10.4010    2.3358 C   0  0  0  0  0  0  0  0  0  0  0  0
    5.4103  -10.3184    1.1151 F   0  0  0  0  0  0  0  0  0  0  0  0
    3.7077   -6.1865    3.5003 C   0  0  0  0  0  0  0  0  0  0  0  0
    3.9697   -5.1556    2.5821 C   0  0  0  0  0  0  0  0  0  0  0  0
    4.8670   -5.0720    1.3544 C   0  0  0  0  0  0  0  0  0  0  0  0
    6.2714   -4.5829    1.7203 C   0  0  0  0  0  0  0  0  0  0  0  0
    4.9389   -6.2811    0.4334 C   0  0  0  0  0  0  0  0  0  0  0  0
    2.6181   -1.5543    3.2318 O   0  0  0  0  0  0  0  0  0  0  0  0
    3.3380    2.4666    4.0116 H   0  0  0  0  0  0  0  0  0  0  0  0
    4.5522    1.4665    3.1922 H   0  0  0  0  0  0  0  0  0  0  0  0
    3.7317    0.8522    4.6336 H   0  0  0  0  0  0  0  0  0  0  0  0
    2.3398    1.4895    1.9751 H   0  0  0  0  0  0  0  0  0  0  0  0
    1.5559    0.8102    3.4017 H   0  0  0  0  0  0  0  0  0  0  0  0
    2.0037   -3.8086    4.9400 H   0  0  0  0  0  0  0  0  0  0  0  0
    2.3355   -8.2300    6.3709 H   0  0  0  0  0  0  0  0  0  0  0  0
    4.6173   -8.3448    1.9316 H   0  0  0  0  0  0  0  0  0  0  0  0
    6.2120   -8.6714    5.2487 H   0  0  0  0  0  0  0  0  0  0  0  0
    8.6570  -12.4942    5.8899 H   0  0  0  0  0  0  0  0  0  0  0  0
    8.4766  -12.6556    9.7300 H   0  0  0  0  0  0  0  0  0  0  0  0
    7.7476  -13.5648    8.3870 H   0  0  0  0  0  0  0  0  0  0  0  0
    7.0784  -11.9723    8.8698 H   0  0  0  0  0  0  0  0  0  0  0  0
    6.8499  -12.3204    1.9386 H   0  0  0  0  0  0  0  0  0  0  0  0
    4.4279   -4.3082    0.7040 H   0  0  0  0  0  0  0  0  0  0  0  0
    6.7634   -5.2649    2.4211 H   0  0  0  0  0  0  0  0  0  0  0  0
    6.2340   -3.5933    2.1892 H   0  0  0  0  0  0  0  0  0  0  0  0
    6.9001   -4.4964    0.8266 H   0  0  0  0  0  0  0  0  0  0  0  0
    5.6283   -7.0406    0.8013 H   0  0  0  0  0  0  0  0  0  0  0  0
    5.3404   -5.9756   -0.5415 H   0  0  0  0  0  0  0  0  0  0  0  0
    3.9522   -6.7199    0.2592 H   0  0  0  0  0  0  0  0  0  0  0  0
  1  2  1  0  0  0  0
  1 34  1  0  0  0  0
  1 35  1  0  0  0  0
  1 36  1  0  0  0  0
  2  3  1  0  0  0  0
  2 37  1  0  0  0  0
  2 38  1  0  0  0  0
  3  4  2  0  0  0  0
  3 33  1  0  0  0  0
  4  5  1  0  0  0  0
  5  6  2  0  0  0  0
  6  7  1  0  0  0  0
  6 33  1  0  0  0  0
  7  8  2  0  0  0  0
  7 29  1  0  0  0  0
  8  9  1  0  0  0  0
  8 39  1  0  0  0  0
  9 10  1  0  0  0  0
  9 28  1  0  0  0  0
 10 11  2  0  0  0  0
 11 12  1  0  0  0  0
 11 40  1  0  0  0  0
 12 13  2  0  0  0  0
 13 14  1  0  0  0  0
 13 28  1  0  0  0  0
 14 15  1  0  0  0  0
 14 41  1  0  0  0  0
 15 16  1  0  0  0  0
 15 26  2  0  0  0  0
 16 17  2  0  0  0  0
 16 42  1  0  0  0  0
 17 18  1  0  0  0  0
 17 23  1  0  0  0  0
 18 19  2  0  0  0  0
 18 20  1  0  0  0  0
 20 21  1  0  0  0  0
 20 43  1  0  0  0  0
 21 22  1  0  0  0  0
 22 44  1  0  0  0  0
 22 45  1  0  0  0  0
 22 46  1  0  0  0  0
 23 24  1  0  0  0  0
 23 25  2  0  0  0  0
 25 26  1  0  0  0  0
 25 47  1  0  0  0  0
 26 27  1  0  0  0  0
 28 29  2  0  0  0  0
 29 30  1  0  0  0  0
 30 31  1  0  0  0  0
 30 32  1  0  0  0  0
 30 48  1  0  0  0  0
 31 49  1  0  0  0  0
 31 50  1  0  0  0  0
 31 51  1  0  0  0  0
 32 52  1  0  0  0  0
 32 53  1  0  0  0  0
 32 54  1  0  0  0  0
M  END
$$$$
