CHEMBL3942763
 OpenBabel04072215373D

 71 75  0  0  1  0  0  0  0  0999 V2000
    1.1853   -4.3180    1.7290 C   0  0  0  0  0  0  0  0  0  0  0  0
    2.4648   -3.9655    2.2606 O   0  0  0  0  0  0  0  0  0  0  0  0
    3.2501   -3.1322    1.5000 C   0  0  0  0  0  0  0  0  0  0  0  0
    2.8267   -2.5164    0.3234 C   0  0  0  0  0  0  0  0  0  0  0  0
    3.6860   -1.6549   -0.3519 C   0  0  0  0  0  0  0  0  0  0  0  0
    3.3405   -0.9324   -1.4662 O   0  0  0  0  0  0  0  0  0  0  0  0
    1.9579   -0.5925   -1.5704 C   0  0  0  0  0  0  0  0  0  0  0  0
    5.0006   -1.4738    0.1025 C   0  0  0  0  0  0  0  0  0  0  0  0
    5.4591   -2.0370    1.3037 C   0  0  0  0  0  0  0  0  0  0  0  0
    6.6948   -1.6716    1.8939 N   0  0  0  0  0  0  0  0  0  0  0  0
    7.1859   -0.2314    1.7317 C   0  0  0  0  0  0  0  0  0  0  0  0
    6.1511    0.9070    1.8403 C   0  0  0  0  0  0  0  0  0  0  0  0
    6.7208    2.3030    1.4160 C   0  0  0  0  0  0  0  0  0  0  0  0
    5.6310    3.2701    1.2099 N   0  0  0  0  0  0  0  0  0  0  0  0
    4.7740    2.9253    0.0612 C   0  0  0  0  0  0  0  0  0  0  0  0
    5.1237    3.9253   -1.0141 C   0  0  0  0  0  0  0  0  0  0  0  0
    5.2787    5.1950   -0.2164 C   0  0  0  0  0  0  0  0  0  0  0  0
    5.9371    4.7225    1.0951 C   0  0  2  0  0  0  0  0  0  0  0  0
    7.3862    5.2449    1.1816 C   0  0  0  0  0  0  0  0  0  0  0  0
    7.4176    6.6762    1.1047 O   0  0  0  0  0  0  0  0  0  0  0  0
    7.8518   -2.5131    2.1360 C   0  0  0  0  0  0  0  0  0  0  0  0
    8.6005   -2.1768    3.2734 C   0  0  0  0  0  0  0  0  0  0  0  0
    9.9371   -2.4909    3.3446 C   0  0  0  0  0  0  0  0  0  0  0  0
   10.5334   -3.2702    2.3941 C   0  0  0  0  0  0  0  0  0  0  0  0
   11.8649   -3.3202    2.5232 N   0  0  0  0  0  0  0  0  0  0  0  0
   12.4985   -4.2067    1.7538 C   0  0  0  0  0  0  0  0  0  0  0  0
   11.8178   -5.0715    0.9127 C   0  0  0  0  0  0  0  0  0  0  0  0
   12.5973   -6.1913    0.4040 C   0  0  0  0  0  0  0  0  0  0  0  0
   12.6990   -7.5206    0.8937 C   0  0  0  0  0  0  0  0  0  0  0  0
   13.6870   -8.2159    0.3144 N   0  0  0  0  0  0  0  0  0  0  0  0
   14.2225   -7.3328   -0.5445 N   0  0  0  0  0  0  0  0  0  0  0  0
   15.0694   -7.7790   -1.6262 C   0  0  0  0  0  0  0  0  0  0  0  0
   13.7352   -6.0651   -0.3766 C   0  0  0  0  0  0  0  0  0  0  0  0
   10.4624   -4.9324    0.6890 N   0  0  0  0  0  0  0  0  0  0  0  0
    9.7828   -3.9458    1.4072 C   0  0  0  0  0  0  0  0  0  0  0  0
    8.4124   -3.4913    1.2676 C   0  0  0  0  0  0  0  0  0  0  0  0
    4.5508   -2.8736    1.9907 C   0  0  0  0  0  0  0  0  0  0  0  0
    0.7050   -5.0214    2.4172 H   0  0  0  0  0  0  0  0  0  0  0  0
    1.2810   -4.8219    0.7600 H   0  0  0  0  0  0  0  0  0  0  0  0
    0.5299   -3.4426    1.6492 H   0  0  0  0  0  0  0  0  0  0  0  0
    1.8347   -2.6971   -0.0701 H   0  0  0  0  0  0  0  0  0  0  0  0
    1.8561    0.1695   -2.3495 H   0  0  0  0  0  0  0  0  0  0  0  0
    1.5712   -0.1661   -0.6370 H   0  0  0  0  0  0  0  0  0  0  0  0
    1.3652   -1.4600   -1.8780 H   0  0  0  0  0  0  0  0  0  0  0  0
    5.6476   -0.8149   -0.4682 H   0  0  0  0  0  0  0  0  0  0  0  0
    7.7453   -0.1622    0.7922 H   0  0  0  0  0  0  0  0  0  0  0  0
    7.9002    0.0035    2.5316 H   0  0  0  0  0  0  0  0  0  0  0  0
    5.7775    0.9743    2.8697 H   0  0  0  0  0  0  0  0  0  0  0  0
    5.2794    0.6776    1.2370 H   0  0  0  0  0  0  0  0  0  0  0  0
    7.3339    2.2171    0.5098 H   0  0  0  0  0  0  0  0  0  0  0  0
    7.3811    2.6469    2.2221 H   0  0  0  0  0  0  0  0  0  0  0  0
    3.7294    3.0478    0.3713 H   0  0  0  0  0  0  0  0  0  0  0  0
    4.8855    1.9093   -0.3244 H   0  0  0  0  0  0  0  0  0  0  0  0
    4.3506    4.0006   -1.7833 H   0  0  0  0  0  0  0  0  0  0  0  0
    6.0724    3.6583   -1.4958 H   0  0  0  0  0  0  0  0  0  0  0  0
    4.2872    5.6158   -0.0038 H   0  0  0  0  0  0  0  0  0  0  0  0
    5.8476    5.9452   -0.7737 H   0  0  0  0  0  0  0  0  0  0  0  0
    5.3905    5.2198    1.9084 H   0  0  0  0  0  0  0  0  0  0  0  0
    7.8586    4.9657    2.1267 H   0  0  0  0  0  0  0  0  0  0  0  0
    7.9959    4.8654    0.3562 H   0  0  0  0  0  0  0  0  0  0  0  0
    6.8342    7.0263    1.8010 H   0  0  0  0  0  0  0  0  0  0  0  0
    8.1571   -1.5574    4.0448 H   0  0  0  0  0  0  0  0  0  0  0  0
   10.5353   -2.0894    4.1615 H   0  0  0  0  0  0  0  0  0  0  0  0
   13.5758   -4.2354    1.8631 H   0  0  0  0  0  0  0  0  0  0  0  0
   12.1226   -8.0034    1.6727 H   0  0  0  0  0  0  0  0  0  0  0  0
   15.1583   -8.8685   -1.6051 H   0  0  0  0  0  0  0  0  0  0  0  0
   16.0526   -7.3115   -1.5406 H   0  0  0  0  0  0  0  0  0  0  0  0
   14.5826   -7.4742   -2.5572 H   0  0  0  0  0  0  0  0  0  0  0  0
   14.2069   -5.2191   -0.8570 H   0  0  0  0  0  0  0  0  0  0  0  0
    7.8397   -3.8666    0.4223 H   0  0  0  0  0  0  0  0  0  0  0  0
    4.8279   -3.2895    2.9577 H   0  0  0  0  0  0  0  0  0  0  0  0
  1  2  1  0  0  0  0
  1 38  1  0  0  0  0
  1 39  1  0  0  0  0
  1 40  1  0  0  0  0
  2  3  1  0  0  0  0
  3  4  1  0  0  0  0
  3 37  2  0  0  0  0
  4  5  2  0  0  0  0
  4 41  1  0  0  0  0
  5  6  1  0  0  0  0
  5  8  1  0  0  0  0
  6  7  1  0  0  0  0
  7 42  1  0  0  0  0
  7 43  1  0  0  0  0
  7 44  1  0  0  0  0
  8  9  2  0  0  0  0
  8 45  1  0  0  0  0
  9 10  1  0  0  0  0
  9 37  1  0  0  0  0
 10 11  1  0  0  0  0
 10 21  1  0  0  0  0
 11 12  1  0  0  0  0
 11 46  1  0  0  0  0
 11 47  1  0  0  0  0
 12 13  1  0  0  0  0
 12 48  1  0  0  0  0
 12 49  1  0  0  0  0
 13 14  1  0  0  0  0
 13 50  1  0  0  0  0
 13 51  1  0  0  0  0
 14 15  1  0  0  0  0
 14 18  1  0  0  0  0
 15 16  1  0  0  0  0
 15 52  1  0  0  0  0
 15 53  1  0  0  0  0
 16 17  1  0  0  0  0
 16 54  1  0  0  0  0
 16 55  1  0  0  0  0
 17 18  1  0  0  0  0
 17 56  1  0  0  0  0
 17 57  1  0  0  0  0
 18 19  1  0  0  0  0
 18 58  1  1  0  0  0
 19 20  1  0  0  0  0
 19 59  1  0  0  0  0
 19 60  1  0  0  0  0
 20 61  1  0  0  0  0
 21 22  1  0  0  0  0
 21 36  2  0  0  0  0
 22 23  2  0  0  0  0
 22 62  1  0  0  0  0
 23 24  1  0  0  0  0
 23 63  1  0  0  0  0
 24 25  1  0  0  0  0
 24 35  2  0  0  0  0
 25 26  2  0  0  0  0
 26 27  1  0  0  0  0
 26 64  1  0  0  0  0
 27 28  1  0  0  0  0
 27 34  2  0  0  0  0
 28 29  1  0  0  0  0
 28 33  2  0  0  0  0
 29 30  2  0  0  0  0
 29 65  1  0  0  0  0
 30 31  1  0  0  0  0
 31 32  1  0  0  0  0
 31 33  1  0  0  0  0
 32 66  1  0  0  0  0
 32 67  1  0  0  0  0
 32 68  1  0  0  0  0
 33 69  1  0  0  0  0
 34 35  1  0  0  0  0
 35 36  1  0  0  0  0
 36 70  1  0  0  0  0
 37 71  1  0  0  0  0
M  END
$$$$
