CHEMBL4522594
 OpenBabel04072215383D

 41 43  0  0  0  0  0  0  0  0999 V2000
   -2.0294    0.0611   -0.3646 C   0  0  0  0  0  0  0  0  0  0  0  0
   -0.6150   -0.0646   -0.1082 N   0  0  0  0  0  0  0  0  0  0  0  0
    0.1264   -1.2037   -0.1995 C   0  0  0  0  0  0  0  0  0  0  0  0
    1.4244   -0.8549    0.0871 C   0  0  0  0  0  0  0  0  0  0  0  0
    2.5512   -1.6659    0.1029 N   0  0  0  0  0  0  0  0  0  0  0  0
    2.5281   -3.0178   -0.1988 C   0  0  0  0  0  0  0  0  0  0  0  0
    1.5368   -3.6624   -0.5260 O   0  0  0  0  0  0  0  0  0  0  0  0
    3.8303   -3.7448   -0.1465 C   0  0  0  0  0  0  0  0  0  0  0  0
    4.8998   -3.3744    0.6801 C   0  0  0  0  0  0  0  0  0  0  0  0
    6.0611   -4.1630    0.7177 C   0  0  0  0  0  0  0  0  0  0  0  0
    6.1523   -5.3122   -0.0708 C   0  0  0  0  0  0  0  0  0  0  0  0
    7.2850   -6.1656   -0.0159 N   0  0  0  0  0  0  0  0  0  0  0  0
    7.3195   -7.3882    1.1515 S   0  0  0  0  0  0  0  0  0  0  0  0
    8.6296   -7.9966    1.0398 O   0  0  0  0  0  0  0  0  0  0  0  0
    6.8662   -6.8416    2.4131 O   0  0  0  0  0  0  0  0  0  0  0  0
    6.1267   -8.5787    0.5822 C   0  0  0  0  0  0  0  0  0  0  0  0
    6.5109   -9.5829   -0.3114 C   0  0  0  0  0  0  0  0  0  0  0  0
    5.5907  -10.5685   -0.6777 C   0  0  0  0  0  0  0  0  0  0  0  0
    4.2981  -10.5527   -0.1501 C   0  0  0  0  0  0  0  0  0  0  0  0
    3.9173   -9.5489    0.7413 C   0  0  0  0  0  0  0  0  0  0  0  0
    4.8319   -8.5630    1.1148 C   0  0  0  0  0  0  0  0  0  0  0  0
    5.0947   -5.6810   -0.8943 C   0  0  0  0  0  0  0  0  0  0  0  0
    3.9393   -4.9036   -0.9304 C   0  0  0  0  0  0  0  0  0  0  0  0
    1.3497    0.5308    0.3586 C   0  0  0  0  0  0  0  0  0  0  0  0
    0.1082    1.0164    0.2414 N   0  0  0  0  0  0  0  0  0  0  0  0
   -2.4475   -0.9262   -0.5797 H   0  0  0  0  0  0  0  0  0  0  0  0
   -2.1646    0.7170   -1.2277 H   0  0  0  0  0  0  0  0  0  0  0  0
   -2.5088    0.4814    0.5223 H   0  0  0  0  0  0  0  0  0  0  0  0
   -0.3270   -2.1471   -0.4695 H   0  0  0  0  0  0  0  0  0  0  0  0
    3.4289   -1.2036    0.2927 H   0  0  0  0  0  0  0  0  0  0  0  0
    4.8360   -2.5119    1.3373 H   0  0  0  0  0  0  0  0  0  0  0  0
    6.8718   -3.8892    1.3898 H   0  0  0  0  0  0  0  0  0  0  0  0
    8.2071   -5.7471   -0.1321 H   0  0  0  0  0  0  0  0  0  0  0  0
    7.5218   -9.6146   -0.7127 H   0  0  0  0  0  0  0  0  0  0  0  0
    5.8855  -11.3613   -1.3619 H   0  0  0  0  0  0  0  0  0  0  0  0
    3.5907  -11.3330   -0.4224 H   0  0  0  0  0  0  0  0  0  0  0  0
    2.9125   -9.5449    1.1577 H   0  0  0  0  0  0  0  0  0  0  0  0
    4.5319   -7.7949    1.8245 H   0  0  0  0  0  0  0  0  0  0  0  0
    5.1544   -6.5778   -1.5052 H   0  0  0  0  0  0  0  0  0  0  0  0
    3.1125   -5.2167   -1.5652 H   0  0  0  0  0  0  0  0  0  0  0  0
    2.1433    1.2113    0.6355 H   0  0  0  0  0  0  0  0  0  0  0  0
  1  2  1  0  0  0  0
  1 26  1  0  0  0  0
  1 27  1  0  0  0  0
  1 28  1  0  0  0  0
  2  3  1  0  0  0  0
  2 25  1  0  0  0  0
  3  4  2  0  0  0  0
  3 29  1  0  0  0  0
  4  5  1  0  0  0  0
  4 24  1  0  0  0  0
  5  6  1  0  0  0  0
  5 30  1  0  0  0  0
  6  7  2  0  0  0  0
  6  8  1  0  0  0  0
  8  9  1  0  0  0  0
  8 23  2  0  0  0  0
  9 10  2  0  0  0  0
  9 31  1  0  0  0  0
 10 11  1  0  0  0  0
 10 32  1  0  0  0  0
 11 12  1  0  0  0  0
 11 22  2  0  0  0  0
 12 13  1  0  0  0  0
 12 33  1  0  0  0  0
 13 14  2  0  0  0  0
 13 15  2  0  0  0  0
 13 16  1  0  0  0  0
 16 17  1  0  0  0  0
 16 21  2  0  0  0  0
 17 18  2  0  0  0  0
 17 34  1  0  0  0  0
 18 19  1  0  0  0  0
 18 35  1  0  0  0  0
 19 20  2  0  0  0  0
 19 36  1  0  0  0  0
 20 21  1  0  0  0  0
 20 37  1  0  0  0  0
 21 38  1  0  0  0  0
 22 23  1  0  0  0  0
 22 39  1  0  0  0  0
 23 40  1  0  0  0  0
 24 25  2  0  0  0  0
 24 41  1  0  0  0  0
M  END
$$$$
