CHEMBL1242657
 OpenBabel04072215363D

 38 41  0  0  1  0  0  0  0  0999 V2000
    7.1501   -8.7647   -2.0213 N   0  0  0  0  0  0  0  0  0  0  0  0
    7.3644   -7.3964   -2.0501 C   0  0  0  0  0  0  0  0  0  0  0  0
    8.1552   -6.9563   -3.0511 N   0  0  0  0  0  0  0  0  0  0  0  0
    8.4156   -5.6400   -3.1393 C   0  0  0  0  0  0  0  0  0  0  0  0
    7.9871   -4.6620   -2.3297 N   0  0  0  0  0  0  0  0  0  0  0  0
    7.2008   -5.1406   -1.3497 C   0  0  0  0  0  0  0  0  0  0  0  0
    6.8401   -6.4644   -1.1412 C   0  0  0  0  0  0  0  0  0  0  0  0
    5.9855   -6.4269    0.0088 C   0  0  0  0  0  0  0  0  0  0  0  0
    5.2663   -7.5257    0.6662 C   0  0  0  0  0  0  0  0  0  0  0  0
    5.1261   -7.5500    2.0675 C   0  0  0  0  0  0  0  0  0  0  0  0
    4.4609   -8.6051    2.7032 C   0  0  0  0  0  0  0  0  0  0  0  0
    3.9466   -9.6432    1.9393 C   0  0  0  0  0  0  0  0  0  0  0  0
    3.3300  -10.6745    2.5334 F   0  0  0  0  0  0  0  0  0  0  0  0
    4.0640   -9.6223    0.5541 C   0  0  0  0  0  0  0  0  0  0  0  0
    3.5797  -10.6440   -0.2122 O   0  0  0  0  0  0  0  0  0  0  0  0
    4.6902   -8.5589   -0.0860 C   0  0  0  0  0  0  0  0  0  0  0  0
    5.8836   -5.1753    0.4976 N   0  0  0  0  0  0  0  0  0  0  0  0
    6.5896   -4.4136   -0.3656 N   0  0  0  0  0  0  0  0  0  0  0  0
    6.6201   -2.9794   -0.1835 C   0  0  1  0  0  0  0  0  0  0  0  0
    7.9937   -2.3897    0.1078 C   0  0  0  0  0  0  0  0  0  0  0  0
    7.8098   -0.9375   -0.2870 C   0  0  0  0  0  0  0  0  0  0  0  0
    6.9782   -0.9687   -1.4955 N   0  0  0  0  0  0  0  0  0  0  0  0
    6.1186   -2.1668   -1.3811 C   0  0  0  0  0  0  0  0  0  0  0  0
    7.7853   -9.2496   -2.6452 H   0  0  0  0  0  0  0  0  0  0  0  0
    7.0167   -9.1839   -1.1114 H   0  0  0  0  0  0  0  0  0  0  0  0
    9.0522   -5.3371   -3.9652 H   0  0  0  0  0  0  0  0  0  0  0  0
    5.5344   -6.7410    2.6716 H   0  0  0  0  0  0  0  0  0  0  0  0
    4.3478   -8.6217    3.7823 H   0  0  0  0  0  0  0  0  0  0  0  0
    3.1841  -11.2963    0.3958 H   0  0  0  0  0  0  0  0  0  0  0  0
    4.7207   -8.5497   -1.1713 H   0  0  0  0  0  0  0  0  0  0  0  0
    5.9689   -2.7531    0.6739 H   0  0  0  0  0  0  0  0  0  0  0  0
    8.7812   -2.8502   -0.4990 H   0  0  0  0  0  0  0  0  0  0  0  0
    8.2744   -2.4983    1.1602 H   0  0  0  0  0  0  0  0  0  0  0  0
    8.7645   -0.4351   -0.4712 H   0  0  0  0  0  0  0  0  0  0  0  0
    7.2841   -0.3841    0.4997 H   0  0  0  0  0  0  0  0  0  0  0  0
    7.5889   -1.0971   -2.3057 H   0  0  0  0  0  0  0  0  0  0  0  0
    6.1387   -2.7189   -2.3265 H   0  0  0  0  0  0  0  0  0  0  0  0
    5.0804   -1.8557   -1.2197 H   0  0  0  0  0  0  0  0  0  0  0  0
  1  2  1  0  0  0  0
  1 24  1  0  0  0  0
  1 25  1  0  0  0  0
  2  3  1  0  0  0  0
  2  7  2  0  0  0  0
  3  4  2  0  0  0  0
  4  5  1  0  0  0  0
  4 26  1  0  0  0  0
  5  6  2  0  0  0  0
  6  7  1  0  0  0  0
  6 18  1  0  0  0  0
  7  8  1  0  0  0  0
  8  9  1  0  0  0  0
  8 17  2  0  0  0  0
  9 10  1  0  0  0  0
  9 16  2  0  0  0  0
 10 11  2  0  0  0  0
 10 27  1  0  0  0  0
 11 12  1  0  0  0  0
 11 28  1  0  0  0  0
 12 13  1  0  0  0  0
 12 14  2  0  0  0  0
 14 15  1  0  0  0  0
 14 16  1  0  0  0  0
 15 29  1  0  0  0  0
 16 30  1  0  0  0  0
 17 18  1  0  0  0  0
 19 20  1  0  0  0  0
 19 23  1  0  0  0  0
 19 18  1  0  0  0  0
 19 31  1  1  0  0  0
 20 21  1  0  0  0  0
 20 32  1  0  0  0  0
 20 33  1  0  0  0  0
 21 22  1  0  0  0  0
 21 34  1  0  0  0  0
 21 35  1  0  0  0  0
 22 23  1  0  0  0  0
 22 36  1  0  0  0  0
 23 37  1  0  0  0  0
 23 38  1  0  0  0  0
M  END
$$$$
