CHEMBL4782392
 OpenBabel04072215383D

 57 61  0  0  0  0  0  0  0  0999 V2000
   -2.4973   -3.9799   -1.7336 C   0  0  0  0  0  0  0  0  0  0  0  0
   -3.8518   -4.4736   -2.1753 C   0  0  0  0  0  0  0  0  0  0  0  0
   -3.8586   -5.6415   -2.9818 C   0  0  0  0  0  0  0  0  0  0  0  0
   -5.0520   -6.1783   -3.4556 C   0  0  0  0  0  0  0  0  0  0  0  0
   -5.0368   -7.5740   -4.4603 Cl  0  0  0  0  0  0  0  0  0  0  0  0
   -6.2531   -5.5857   -3.1174 C   0  0  0  0  0  0  0  0  0  0  0  0
   -6.2591   -4.4422   -2.3181 C   0  0  0  0  0  0  0  0  0  0  0  0
   -5.0747   -3.8513   -1.8431 C   0  0  0  0  0  0  0  0  0  0  0  0
   -5.1148   -2.6535   -1.0648 N   0  0  0  0  0  0  0  0  0  0  0  0
   -6.2334   -1.8314   -0.8702 C   0  0  0  0  0  0  0  0  0  0  0  0
   -7.3513   -2.0353   -1.3316 O   0  0  0  0  0  0  0  0  0  0  0  0
   -5.9191   -0.6831   -0.1624 N   0  0  0  0  0  0  0  0  0  0  0  0
   -6.9416    0.2763   -0.0263 C   0  0  0  0  0  0  0  0  0  0  0  0
   -7.9301    0.0740    0.8454 N   0  0  0  0  0  0  0  0  0  0  0  0
   -8.8354    1.0626    0.9428 C   0  0  0  0  0  0  0  0  0  0  0  0
  -10.1261    0.9362    2.1796 S   0  0  0  0  0  0  0  0  0  0  0  0
  -11.1248   -0.4047    1.6565 C   0  0  0  0  0  0  0  0  0  0  0  0
  -10.9302   -1.2115    0.5611 C   0  0  0  0  0  0  0  0  0  0  0  0
  -11.9129   -2.1608    0.5530 N   0  0  0  0  0  0  0  0  0  0  0  0
  -12.7684   -1.9754    1.6149 C   0  0  0  0  0  0  0  0  0  0  0  0
  -13.8969   -2.7130    1.9952 C   0  0  0  0  0  0  0  0  0  0  0  0
  -14.5910   -2.3004    3.1333 C   0  0  0  0  0  0  0  0  0  0  0  0
  -14.1727   -1.1892    3.8613 C   0  0  0  0  0  0  0  0  0  0  0  0
  -13.0362   -0.4651    3.4716 C   0  0  0  0  0  0  0  0  0  0  0  0
  -12.3075   -0.8633    2.3263 C   0  0  0  0  0  0  0  0  0  0  0  0
   -8.7699    2.2115    0.1799 C   0  0  0  0  0  0  0  0  0  0  0  0
   -7.7250    2.3422   -0.7133 C   0  0  0  0  0  0  0  0  0  0  0  0
   -7.5997    3.4409   -1.5442 N   0  0  0  0  0  0  0  0  0  0  0  0
   -8.7100    4.3210   -1.9314 C   0  0  0  0  0  0  0  0  0  0  0  0
   -8.9101    4.3143   -3.4586 C   0  0  0  0  0  0  0  0  0  0  0  0
   -7.6928    4.6072   -4.1594 O   0  0  0  0  0  0  0  0  0  0  0  0
   -6.6943    3.6248   -3.8386 C   0  0  0  0  0  0  0  0  0  0  0  0
   -6.3733    3.6289   -2.3370 C   0  0  0  0  0  0  0  0  0  0  0  0
   -6.7766    1.3891   -0.7603 N   0  0  0  0  0  0  0  0  0  0  0  0
   -1.6920   -4.4932   -2.2764 H   0  0  0  0  0  0  0  0  0  0  0  0
   -2.3472   -4.1763   -0.6684 H   0  0  0  0  0  0  0  0  0  0  0  0
   -2.3801   -2.9134   -1.9424 H   0  0  0  0  0  0  0  0  0  0  0  0
   -2.9250   -6.1302   -3.2505 H   0  0  0  0  0  0  0  0  0  0  0  0
   -7.1970   -5.9943   -3.4667 H   0  0  0  0  0  0  0  0  0  0  0  0
   -7.2364   -4.0481   -2.0590 H   0  0  0  0  0  0  0  0  0  0  0  0
   -4.2555   -2.3688   -0.6167 H   0  0  0  0  0  0  0  0  0  0  0  0
   -5.1031   -0.2379   -0.5492 H   0  0  0  0  0  0  0  0  0  0  0  0
  -10.1604   -1.2202   -0.2006 H   0  0  0  0  0  0  0  0  0  0  0  0
  -11.9947   -2.9038   -0.1279 H   0  0  0  0  0  0  0  0  0  0  0  0
  -14.2224   -3.5817    1.4314 H   0  0  0  0  0  0  0  0  0  0  0  0
  -15.4694   -2.8563    3.4560 H   0  0  0  0  0  0  0  0  0  0  0  0
  -14.7296   -0.8837    4.7441 H   0  0  0  0  0  0  0  0  0  0  0  0
  -12.7211    0.3954    4.0548 H   0  0  0  0  0  0  0  0  0  0  0  0
   -9.5020    2.9922    0.3208 H   0  0  0  0  0  0  0  0  0  0  0  0
   -8.4546    5.3369   -1.6087 H   0  0  0  0  0  0  0  0  0  0  0  0
   -9.6645    4.0594   -1.4667 H   0  0  0  0  0  0  0  0  0  0  0  0
   -9.6425    5.0793   -3.7376 H   0  0  0  0  0  0  0  0  0  0  0  0
   -9.2946    3.3469   -3.8029 H   0  0  0  0  0  0  0  0  0  0  0  0
   -5.7948    3.8741   -4.4103 H   0  0  0  0  0  0  0  0  0  0  0  0
   -7.0415    2.6396   -4.1717 H   0  0  0  0  0  0  0  0  0  0  0  0
   -5.9614    4.6086   -2.0662 H   0  0  0  0  0  0  0  0  0  0  0  0
   -5.5910    2.8909   -2.1316 H   0  0  0  0  0  0  0  0  0  0  0  0
  1  2  1  0  0  0  0
  1 35  1  0  0  0  0
  1 36  1  0  0  0  0
  1 37  1  0  0  0  0
  2  3  1  0  0  0  0
  2  8  2  0  0  0  0
  3  4  2  0  0  0  0
  3 38  1  0  0  0  0
  4  5  1  0  0  0  0
  4  6  1  0  0  0  0
  6  7  2  0  0  0  0
  6 39  1  0  0  0  0
  7  8  1  0  0  0  0
  7 40  1  0  0  0  0
  8  9  1  0  0  0  0
  9 10  1  0  0  0  0
  9 41  1  0  0  0  0
 10 11  2  0  0  0  0
 10 12  1  0  0  0  0
 12 13  1  0  0  0  0
 12 42  1  0  0  0  0
 13 14  1  0  0  0  0
 13 34  2  0  0  0  0
 14 15  2  0  0  0  0
 15 16  1  0  0  0  0
 15 26  1  0  0  0  0
 16 17  1  0  0  0  0
 17 18  2  0  0  0  0
 17 25  1  0  0  0  0
 18 19  1  0  0  0  0
 18 43  1  0  0  0  0
 19 20  1  0  0  0  0
 19 44  1  0  0  0  0
 20 21  1  0  0  0  0
 20 25  2  0  0  0  0
 21 22  2  0  0  0  0
 21 45  1  0  0  0  0
 22 23  1  0  0  0  0
 22 46  1  0  0  0  0
 23 24  2  0  0  0  0
 23 47  1  0  0  0  0
 24 25  1  0  0  0  0
 24 48  1  0  0  0  0
 26 27  2  0  0  0  0
 26 49  1  0  0  0  0
 27 28  1  0  0  0  0
 27 34  1  0  0  0  0
 28 29  1  0  0  0  0
 28 33  1  0  0  0  0
 29 30  1  0  0  0  0
 29 50  1  0  0  0  0
 29 51  1  0  0  0  0
 30 31  1  0  0  0  0
 30 52  1  0  0  0  0
 30 53  1  0  0  0  0
 31 32  1  0  0  0  0
 32 33  1  0  0  0  0
 32 54  1  0  0  0  0
 32 55  1  0  0  0  0
 33 56  1  0  0  0  0
 33 57  1  0  0  0  0
M  END
$$$$
