CHEMBL3981613
 OpenBabel04072215373D

 71 74  0  0  1  0  0  0  0  0999 V2000
    8.2099    0.9014    9.6988 C   0  0  0  0  0  0  0  0  0  0  0  0
    7.4149    1.3066    8.7019 C   0  0  0  0  0  0  0  0  0  0  0  0
    7.5463    0.8242    7.2880 C   0  0  0  0  0  0  0  0  0  0  0  0
    7.8359    1.9758    6.3293 C   0  0  0  0  0  0  0  0  0  0  0  0
    8.0107    1.4616    4.9001 C   0  0  0  0  0  0  0  0  0  0  0  0
    8.2954    2.6250    3.9568 C   0  0  0  0  0  0  0  0  0  0  0  0
    8.4158    2.1638    2.5078 C   0  0  0  0  0  0  0  0  0  0  0  0
    8.5623    3.3610    1.5613 C   0  0  0  0  0  0  0  0  0  0  0  0
    9.8242    4.0968    1.6937 N   0  0  0  0  0  0  0  0  0  0  0  0
    9.8423    5.3024    0.8376 C   0  0  0  0  0  0  0  0  0  0  0  0
   10.0705    4.9936   -0.6510 C   0  0  0  0  0  0  0  0  0  0  0  0
   11.2730    4.2471   -0.8706 O   0  0  0  0  0  0  0  0  0  0  0  0
   11.3323    3.0302   -0.0968 C   0  0  3  0  0  0  0  0  0  0  0  0
   10.4600    1.9167   -0.7248 C   0  0  0  0  0  0  0  0  0  0  0  0
   10.9726    1.4464   -1.9888 O   0  0  0  0  0  0  0  0  0  0  0  0
   12.1098    0.6914   -1.9861 C   0  0  0  0  0  0  0  0  0  0  0  0
   12.5610    0.0282   -0.8232 C   0  0  0  0  0  0  0  0  0  0  0  0
   13.7676   -0.6507   -0.7644 C   0  0  0  0  0  0  0  0  0  0  0  0
   14.1445   -1.2198    0.3870 N   0  0  0  0  0  0  0  0  0  0  0  0
   15.3313   -1.8389    0.3910 C   0  0  0  0  0  0  0  0  0  0  0  0
   16.1704   -1.9225   -0.6401 N   0  0  0  0  0  0  0  0  0  0  0  0
   15.7814   -1.3346   -1.7894 C   0  0  0  0  0  0  0  0  0  0  0  0
   16.6670   -1.3399   -2.9033 N   0  0  0  0  0  0  0  0  0  0  0  0
   17.8023   -2.1604   -2.9939 C   0  0  0  0  0  0  0  0  0  0  0  0
   17.6971   -3.5286   -2.7216 C   0  0  0  0  0  0  0  0  0  0  0  0
   18.8279   -4.3419   -2.7049 C   0  0  0  0  0  0  0  0  0  0  0  0
   20.0807   -3.7909   -2.9745 C   0  0  0  0  0  0  0  0  0  0  0  0
   21.4501   -4.8370   -2.8739 Cl  0  0  0  0  0  0  0  0  0  0  0  0
   20.1896   -2.4332   -3.2965 C   0  0  0  0  0  0  0  0  0  0  0  0
   21.7081   -1.6881   -3.6518 Cl  0  0  0  0  0  0  0  0  0  0  0  0
   19.0511   -1.6214   -3.3161 C   0  0  0  0  0  0  0  0  0  0  0  0
   14.5487   -0.6978   -1.9133 C   0  0  0  0  0  0  0  0  0  0  0  0
   14.0688   -0.1233   -3.1077 C   0  0  0  0  0  0  0  0  0  0  0  0
   12.8642    0.5751   -3.1558 C   0  0  0  0  0  0  0  0  0  0  0  0
   12.6795    1.0771   -4.4076 O   0  0  0  0  0  0  0  0  0  0  0  0
   11.5125    1.7755   -4.7864 C   0  0  0  0  0  0  0  0  0  0  0  0
   11.0455    3.3223    1.3988 C   0  0  0  0  0  0  0  0  0  0  0  0
    8.0722    1.2781   10.7076 H   0  0  0  0  0  0  0  0  0  0  0  0
    9.0146    0.1911    9.5313 H   0  0  0  0  0  0  0  0  0  0  0  0
    6.6203    2.0198    8.9110 H   0  0  0  0  0  0  0  0  0  0  0  0
    6.6121    0.3293    6.9986 H   0  0  0  0  0  0  0  0  0  0  0  0
    8.3435    0.0756    7.2084 H   0  0  0  0  0  0  0  0  0  0  0  0
    8.7441    2.5080    6.6406 H   0  0  0  0  0  0  0  0  0  0  0  0
    7.0140    2.7034    6.3590 H   0  0  0  0  0  0  0  0  0  0  0  0
    7.1012    0.9383    4.5819 H   0  0  0  0  0  0  0  0  0  0  0  0
    8.8348    0.7398    4.8591 H   0  0  0  0  0  0  0  0  0  0  0  0
    9.2162    3.1325    4.2673 H   0  0  0  0  0  0  0  0  0  0  0  0
    7.4807    3.3555    4.0333 H   0  0  0  0  0  0  0  0  0  0  0  0
    7.5112    1.6113    2.2247 H   0  0  0  0  0  0  0  0  0  0  0  0
    9.2436    1.4545    2.3979 H   0  0  0  0  0  0  0  0  0  0  0  0
    7.7353    4.0495    1.7800 H   0  0  0  0  0  0  0  0  0  0  0  0
    8.3852    3.0221    0.5414 H   0  0  0  0  0  0  0  0  0  0  0  0
   10.6600    5.9454    1.1893 H   0  0  0  0  0  0  0  0  0  0  0  0
    8.9228    5.8847    0.9688 H   0  0  0  0  0  0  0  0  0  0  0  0
   10.1719    5.9325   -1.2037 H   0  0  0  0  0  0  0  0  0  0  0  0
    9.2193    4.4612   -1.0863 H   0  0  0  0  0  0  0  0  0  0  0  0
   12.3816    2.7204   -0.1525 H   0  0  0  0  0  0  0  0  0  0  0  0
    9.4732    2.2996   -0.9833 H   0  0  0  0  0  0  0  0  0  0  0  0
   10.2777    1.0844   -0.0356 H   0  0  0  0  0  0  0  0  0  0  0  0
   11.9895    0.0368    0.1008 H   0  0  0  0  0  0  0  0  0  0  0  0
   15.6415   -2.3088    1.3175 H   0  0  0  0  0  0  0  0  0  0  0  0
   16.8378   -0.3807   -3.1942 H   0  0  0  0  0  0  0  0  0  0  0  0
   16.7253   -3.9640   -2.4986 H   0  0  0  0  0  0  0  0  0  0  0  0
   18.7198   -5.3957   -2.4646 H   0  0  0  0  0  0  0  0  0  0  0  0
   19.1480   -0.5635   -3.5431 H   0  0  0  0  0  0  0  0  0  0  0  0
   14.6456   -0.2203   -4.0229 H   0  0  0  0  0  0  0  0  0  0  0  0
   11.7685    2.3178   -5.7053 H   0  0  0  0  0  0  0  0  0  0  0  0
   11.1941    2.5239   -4.0620 H   0  0  0  0  0  0  0  0  0  0  0  0
   10.7118    1.0744   -5.0390 H   0  0  0  0  0  0  0  0  0  0  0  0
   11.8809    3.9380    1.7665 H   0  0  0  0  0  0  0  0  0  0  0  0
   11.1056    2.4082    1.9982 H   0  0  0  0  0  0  0  0  0  0  0  0
  1  2  2  0  0  0  0
  1 38  1  0  0  0  0
  1 39  1  0  0  0  0
  2  3  1  0  0  0  0
  2 40  1  0  0  0  0
  3  4  1  0  0  0  0
  3 41  1  0  0  0  0
  3 42  1  0  0  0  0
  4  5  1  0  0  0  0
  4 43  1  0  0  0  0
  4 44  1  0  0  0  0
  5  6  1  0  0  0  0
  5 45  1  0  0  0  0
  5 46  1  0  0  0  0
  6  7  1  0  0  0  0
  6 47  1  0  0  0  0
  6 48  1  0  0  0  0
  7  8  1  0  0  0  0
  7 49  1  0  0  0  0
  7 50  1  0  0  0  0
  8  9  1  0  0  0  0
  8 51  1  0  0  0  0
  8 52  1  0  0  0  0
  9 10  1  0  0  0  0
  9 37  1  0  0  0  0
 10 11  1  0  0  0  0
 10 53  1  0  0  0  0
 10 54  1  0  0  0  0
 11 12  1  0  0  0  0
 11 55  1  0  0  0  0
 11 56  1  0  0  0  0
 12 13  1  0  0  0  0
 13 14  1  0  0  0  0
 13 37  1  0  0  0  0
 13 57  1  0  0  0  0
 14 15  1  0  0  0  0
 14 58  1  0  0  0  0
 14 59  1  0  0  0  0
 15 16  1  0  0  0  0
 16 17  1  0  0  0  0
 16 34  2  0  0  0  0
 17 18  2  0  0  0  0
 17 60  1  0  0  0  0
 18 19  1  0  0  0  0
 18 32  1  0  0  0  0
 19 20  2  0  0  0  0
 20 21  1  0  0  0  0
 20 61  1  0  0  0  0
 21 22  2  0  0  0  0
 22 23  1  0  0  0  0
 22 32  1  0  0  0  0
 23 24  1  0  0  0  0
 23 62  1  0  0  0  0
 24 25  1  0  0  0  0
 24 31  2  0  0  0  0
 25 26  2  0  0  0  0
 25 63  1  0  0  0  0
 26 27  1  0  0  0  0
 26 64  1  0  0  0  0
 27 28  1  0  0  0  0
 27 29  2  0  0  0  0
 29 30  1  0  0  0  0
 29 31  1  0  0  0  0
 31 65  1  0  0  0  0
 32 33  2  0  0  0  0
 33 34  1  0  0  0  0
 33 66  1  0  0  0  0
 34 35  1  0  0  0  0
 35 36  1  0  0  0  0
 36 67  1  0  0  0  0
 36 68  1  0  0  0  0
 36 69  1  0  0  0  0
 37 70  1  0  0  0  0
 37 71  1  0  0  0  0
M  END
$$$$
