CHEMBL3921197
 OpenBabel04072215373D

 75 80  0  0  0  0  0  0  0  0999 V2000
    6.3318   -4.7848   -4.9950 C   0  0  0  0  0  0  0  0  0  0  0  0
    6.7597   -3.5132   -4.5056 O   0  0  0  0  0  0  0  0  0  0  0  0
    6.2203   -2.3914   -5.0861 C   0  0  0  0  0  0  0  0  0  0  0  0
    5.4205   -2.4119   -6.2233 C   0  0  0  0  0  0  0  0  0  0  0  0
    4.8547   -1.2248   -6.6923 C   0  0  0  0  0  0  0  0  0  0  0  0
    4.0169   -1.1266   -7.7693 O   0  0  0  0  0  0  0  0  0  0  0  0
    4.2284   -2.0834   -8.7994 C   0  0  0  0  0  0  0  0  0  0  0  0
    5.0621   -0.0257   -6.0010 C   0  0  0  0  0  0  0  0  0  0  0  0
    5.8570    0.0376   -4.8549 C   0  0  0  0  0  0  0  0  0  0  0  0
    5.8748    1.1740   -4.0050 N   0  0  0  0  0  0  0  0  0  0  0  0
    4.5351    1.8752   -3.8656 C   0  0  0  0  0  0  0  0  0  0  0  0
    3.2309    1.1928   -3.4708 C   0  0  0  0  0  0  0  0  0  0  0  0
    2.9924   -0.0749   -2.9788 C   0  0  0  0  0  0  0  0  0  0  0  0
    1.3175   -0.2800   -2.6335 S   0  0  0  0  0  0  0  0  0  0  0  0
    1.0177    1.3339   -3.1330 C   0  0  0  0  0  0  0  0  0  0  0  0
   -0.3621    1.9031   -3.1031 C   0  0  0  0  0  0  0  0  0  0  0  0
    2.0803    1.9913   -3.5429 N   0  0  0  0  0  0  0  0  0  0  0  0
    6.8895    2.1985   -3.8563 C   0  0  0  0  0  0  0  0  0  0  0  0
    7.0160    2.6861   -2.5547 C   0  0  0  0  0  0  0  0  0  0  0  0
    7.4218    3.9896   -2.3410 C   0  0  0  0  0  0  0  0  0  0  0  0
    7.8652    4.7866   -3.3745 C   0  0  0  0  0  0  0  0  0  0  0  0
    8.0157    6.0807   -3.0626 N   0  0  0  0  0  0  0  0  0  0  0  0
    8.6491    6.8462   -3.9620 C   0  0  0  0  0  0  0  0  0  0  0  0
    9.2317    6.3157   -5.0953 C   0  0  0  0  0  0  0  0  0  0  0  0
   10.4208    7.0312   -5.5820 C   0  0  0  0  0  0  0  0  0  0  0  0
   10.7632    7.7056   -6.7742 C   0  0  0  0  0  0  0  0  0  0  0  0
   11.9858    8.2688   -6.7359 N   0  0  0  0  0  0  0  0  0  0  0  0
   12.4511    7.9609   -5.5076 N   0  0  0  0  0  0  0  0  0  0  0  0
   13.8838    7.9387   -5.2139 C   0  0  0  0  0  0  0  0  0  0  0  0
   14.7511    9.1656   -5.5917 C   0  0  0  0  0  0  0  0  0  0  0  0
   16.1835    9.0447   -5.1774 N   0  0  0  0  0  0  0  0  0  0  0  0
   16.9658   10.2665   -5.4954 C   0  0  0  0  0  0  0  0  0  0  0  0
   17.3935   10.4173   -6.9775 C   0  0  0  0  0  0  0  0  0  0  0  0
   18.0951    9.2395   -7.5151 N   0  0  0  0  0  0  0  0  0  0  0  0
   17.2989    8.0317   -7.2437 C   0  0  0  0  0  0  0  0  0  0  0  0
   16.9009    7.8862   -5.7563 C   0  0  0  0  0  0  0  0  0  0  0  0
   11.4921    7.3321   -4.7464 C   0  0  0  0  0  0  0  0  0  0  0  0
    8.9201    5.0299   -5.4983 N   0  0  0  0  0  0  0  0  0  0  0  0
    8.1415    4.2450   -4.6407 C   0  0  0  0  0  0  0  0  0  0  0  0
    7.5518    2.9368   -4.8783 C   0  0  0  0  0  0  0  0  0  0  0  0
    6.4709   -1.1636   -4.4360 C   0  0  0  0  0  0  0  0  0  0  0  0
    6.6803   -5.5598   -4.3040 H   0  0  0  0  0  0  0  0  0  0  0  0
    6.7716   -4.9899   -5.9782 H   0  0  0  0  0  0  0  0  0  0  0  0
    5.2377   -4.8611   -5.0379 H   0  0  0  0  0  0  0  0  0  0  0  0
    5.2028   -3.3412   -6.7379 H   0  0  0  0  0  0  0  0  0  0  0  0
    3.6817   -1.7439   -9.6838 H   0  0  0  0  0  0  0  0  0  0  0  0
    3.8291   -3.0617   -8.5144 H   0  0  0  0  0  0  0  0  0  0  0  0
    5.2886   -2.1524   -9.0651 H   0  0  0  0  0  0  0  0  0  0  0  0
    4.5573    0.8615   -6.3705 H   0  0  0  0  0  0  0  0  0  0  0  0
    4.3444    2.4381   -4.7883 H   0  0  0  0  0  0  0  0  0  0  0  0
    4.6184    2.6392   -3.0799 H   0  0  0  0  0  0  0  0  0  0  0  0
    3.6874   -0.8816   -2.8002 H   0  0  0  0  0  0  0  0  0  0  0  0
   -0.9697    1.4789   -2.2970 H   0  0  0  0  0  0  0  0  0  0  0  0
   -0.8698    1.7149   -4.0548 H   0  0  0  0  0  0  0  0  0  0  0  0
   -0.3256    2.9879   -2.9515 H   0  0  0  0  0  0  0  0  0  0  0  0
    6.6314    2.1087   -1.7169 H   0  0  0  0  0  0  0  0  0  0  0  0
    7.3443    4.4134   -1.3440 H   0  0  0  0  0  0  0  0  0  0  0  0
    8.7742    7.8862   -3.6800 H   0  0  0  0  0  0  0  0  0  0  0  0
   10.1751    7.8231   -7.6750 H   0  0  0  0  0  0  0  0  0  0  0  0
   14.2419    7.0509   -5.7447 H   0  0  0  0  0  0  0  0  0  0  0  0
   13.9806    7.7480   -4.1369 H   0  0  0  0  0  0  0  0  0  0  0  0
   14.3348   10.0359   -5.0636 H   0  0  0  0  0  0  0  0  0  0  0  0
   14.6704    9.3735   -6.6636 H   0  0  0  0  0  0  0  0  0  0  0  0
   17.8825   10.2396   -4.8879 H   0  0  0  0  0  0  0  0  0  0  0  0
   16.4301   11.1655   -5.1711 H   0  0  0  0  0  0  0  0  0  0  0  0
   18.0604   11.2827   -7.0741 H   0  0  0  0  0  0  0  0  0  0  0  0
   16.5191   10.6282   -7.6022 H   0  0  0  0  0  0  0  0  0  0  0  0
   18.9891    9.1497   -7.0313 H   0  0  0  0  0  0  0  0  0  0  0  0
   17.8920    7.1586   -7.5421 H   0  0  0  0  0  0  0  0  0  0  0  0
   16.4049    8.0342   -7.8779 H   0  0  0  0  0  0  0  0  0  0  0  0
   17.8254    7.7500   -5.1763 H   0  0  0  0  0  0  0  0  0  0  0  0
   16.3487    6.9551   -5.6099 H   0  0  0  0  0  0  0  0  0  0  0  0
   11.6829    7.0835   -3.7104 H   0  0  0  0  0  0  0  0  0  0  0  0
    7.5633    2.5476   -5.8995 H   0  0  0  0  0  0  0  0  0  0  0  0
    7.0632   -1.1727   -3.5213 H   0  0  0  0  0  0  0  0  0  0  0  0
  1  2  1  0  0  0  0
  1 42  1  0  0  0  0
  1 43  1  0  0  0  0
  1 44  1  0  0  0  0
  2  3  1  0  0  0  0
  3  4  1  0  0  0  0
  3 41  2  0  0  0  0
  4  5  2  0  0  0  0
  4 45  1  0  0  0  0
  5  6  1  0  0  0  0
  5  8  1  0  0  0  0
  6  7  1  0  0  0  0
  7 46  1  0  0  0  0
  7 47  1  0  0  0  0
  7 48  1  0  0  0  0
  8  9  2  0  0  0  0
  8 49  1  0  0  0  0
  9 10  1  0  0  0  0
  9 41  1  0  0  0  0
 10 11  1  0  0  0  0
 10 18  1  0  0  0  0
 11 12  1  0  0  0  0
 11 50  1  0  0  0  0
 11 51  1  0  0  0  0
 12 13  2  0  0  0  0
 12 17  1  0  0  0  0
 13 14  1  0  0  0  0
 13 52  1  0  0  0  0
 14 15  1  0  0  0  0
 15 16  1  0  0  0  0
 15 17  2  0  0  0  0
 16 53  1  0  0  0  0
 16 54  1  0  0  0  0
 16 55  1  0  0  0  0
 18 19  1  0  0  0  0
 18 40  2  0  0  0  0
 19 20  2  0  0  0  0
 19 56  1  0  0  0  0
 20 21  1  0  0  0  0
 20 57  1  0  0  0  0
 21 22  1  0  0  0  0
 21 39  2  0  0  0  0
 22 23  2  0  0  0  0
 23 24  1  0  0  0  0
 23 58  1  0  0  0  0
 24 25  1  0  0  0  0
 24 38  2  0  0  0  0
 25 26  1  0  0  0  0
 25 37  2  0  0  0  0
 26 27  2  0  0  0  0
 26 59  1  0  0  0  0
 27 28  1  0  0  0  0
 28 29  1  0  0  0  0
 28 37  1  0  0  0  0
 29 30  1  0  0  0  0
 29 60  1  0  0  0  0
 29 61  1  0  0  0  0
 30 31  1  0  0  0  0
 30 62  1  0  0  0  0
 30 63  1  0  0  0  0
 31 32  1  0  0  0  0
 31 36  1  0  0  0  0
 32 33  1  0  0  0  0
 32 64  1  0  0  0  0
 32 65  1  0  0  0  0
 33 34  1  0  0  0  0
 33 66  1  0  0  0  0
 33 67  1  0  0  0  0
 34 35  1  0  0  0  0
 34 68  1  0  0  0  0
 35 36  1  0  0  0  0
 35 69  1  0  0  0  0
 35 70  1  0  0  0  0
 36 71  1  0  0  0  0
 36 72  1  0  0  0  0
 37 73  1  0  0  0  0
 38 39  1  0  0  0  0
 39 40  1  0  0  0  0
 40 74  1  0  0  0  0
 41 75  1  0  0  0  0
M  END
$$$$
