CHEMBL3706819
 OpenBabel04072215373D

 61 64  0  0  0  0  0  0  0  0999 V2000
   12.0777    2.6915   13.0830 C   0  0  0  0  0  0  0  0  0  0  0  0
   12.3278    2.5604   11.6974 O   0  0  0  0  0  0  0  0  0  0  0  0
   11.4319    1.6577   11.0393 C   0  0  0  0  0  0  0  0  0  0  0  0
   11.9010    1.6235    9.5923 C   0  0  0  0  0  0  0  0  0  0  0  0
   11.1281    0.8006    8.7432 O   0  0  0  0  0  0  0  0  0  0  0  0
   11.1347    1.1001    7.4012 C   0  0  0  0  0  0  0  0  0  0  0  0
    9.9440    0.6344    6.7850 C   0  0  0  0  0  0  0  0  0  0  0  0
    9.6314    0.8392    5.4413 C   0  0  0  0  0  0  0  0  0  0  0  0
    8.4703    0.3988    4.9342 N   0  0  0  0  0  0  0  0  0  0  0  0
    8.2381    0.6514    3.6382 C   0  0  0  0  0  0  0  0  0  0  0  0
    9.0605    1.2881    2.7995 N   0  0  0  0  0  0  0  0  0  0  0  0
   10.2274    1.7128    3.3148 C   0  0  0  0  0  0  0  0  0  0  0  0
   11.1592    2.3669    2.4675 N   0  0  0  0  0  0  0  0  0  0  0  0
   10.8543    2.7779    1.1817 C   0  0  0  0  0  0  0  0  0  0  0  0
    9.7789    3.4959    0.8238 C   0  0  0  0  0  0  0  0  0  0  0  0
    9.4978    3.8719   -0.5750 C   0  0  0  0  0  0  0  0  0  0  0  0
    8.5022    4.5433   -0.8314 O   0  0  0  0  0  0  0  0  0  0  0  0
   10.4415    3.4008   -1.6355 C   0  0  0  0  0  0  0  0  0  0  0  0
   10.0883    3.7157   -2.9342 O   0  0  0  0  0  0  0  0  0  0  0  0
   10.9036    3.2569   -4.0121 C   0  0  0  0  0  0  0  0  0  0  0  0
   10.5642    1.8175   -4.3985 C   0  0  0  0  0  0  0  0  0  0  0  0
   11.5087    1.3714   -5.3700 O   0  0  0  0  0  0  0  0  0  0  0  0
   11.3212    0.1154   -5.8795 C   0  0  0  0  0  0  0  0  0  0  0  0
   10.3278   -0.7905   -5.4907 C   0  0  0  0  0  0  0  0  0  0  0  0
   10.2347   -2.0359   -6.1092 C   0  0  0  0  0  0  0  0  0  0  0  0
   11.1301   -2.3941   -7.1132 C   0  0  0  0  0  0  0  0  0  0  0  0
   12.1301   -1.4993   -7.4982 C   0  0  0  0  0  0  0  0  0  0  0  0
   12.2239   -0.2524   -6.8810 C   0  0  0  0  0  0  0  0  0  0  0  0
   11.5375    2.7189   -1.2680 C   0  0  0  0  0  0  0  0  0  0  0  0
   11.8413    2.4018    0.1353 C   0  0  0  0  0  0  0  0  0  0  0  0
   12.8795    1.8134    0.4324 O   0  0  0  0  0  0  0  0  0  0  0  0
   10.5593    1.5249    4.6656 C   0  0  0  0  0  0  0  0  0  0  0  0
   11.7431    2.0039    5.2629 C   0  0  0  0  0  0  0  0  0  0  0  0
   12.0622    1.7904    6.6134 C   0  0  0  0  0  0  0  0  0  0  0  0
   13.2344    2.4275    6.8860 O   0  0  0  0  0  0  0  0  0  0  0  0
   14.1926    1.9422    7.8026 C   0  0  0  0  0  0  0  0  0  0  0  0
   12.8088    3.3982   13.4875 H   0  0  0  0  0  0  0  0  0  0  0  0
   12.2063    1.7306   13.5875 H   0  0  0  0  0  0  0  0  0  0  0  0
   11.0747    3.0893   13.2537 H   0  0  0  0  0  0  0  0  0  0  0  0
   10.3975    2.0044   11.1166 H   0  0  0  0  0  0  0  0  0  0  0  0
   11.5039    0.6581   11.4869 H   0  0  0  0  0  0  0  0  0  0  0  0
   12.8975    1.1892    9.6547 H   0  0  0  0  0  0  0  0  0  0  0  0
   11.9422    2.6541    9.2231 H   0  0  0  0  0  0  0  0  0  0  0  0
    9.2062    0.1155    7.3973 H   0  0  0  0  0  0  0  0  0  0  0  0
    7.2952    0.3045    3.2274 H   0  0  0  0  0  0  0  0  0  0  0  0
   12.0457    1.8439    2.4707 H   0  0  0  0  0  0  0  0  0  0  0  0
    9.0475    3.8164    1.5518 H   0  0  0  0  0  0  0  0  0  0  0  0
   11.9713    3.3989   -3.8078 H   0  0  0  0  0  0  0  0  0  0  0  0
   10.6974    3.9062   -4.8712 H   0  0  0  0  0  0  0  0  0  0  0  0
    9.5448    1.7926   -4.8030 H   0  0  0  0  0  0  0  0  0  0  0  0
   10.6028    1.1715   -3.5136 H   0  0  0  0  0  0  0  0  0  0  0  0
    9.6128   -0.5529   -4.7103 H   0  0  0  0  0  0  0  0  0  0  0  0
    9.4577   -2.7384   -5.8028 H   0  0  0  0  0  0  0  0  0  0  0  0
   11.0560   -3.3624   -7.5947 H   0  0  0  0  0  0  0  0  0  0  0  0
   12.8329   -1.7727   -8.2839 H   0  0  0  0  0  0  0  0  0  0  0  0
   13.0032    0.4399   -7.1873 H   0  0  0  0  0  0  0  0  0  0  0  0
   12.2741    2.3453   -1.9658 H   0  0  0  0  0  0  0  0  0  0  0  0
   12.4404    2.5903    4.6646 H   0  0  0  0  0  0  0  0  0  0  0  0
   15.1913    2.0883    7.3794 H   0  0  0  0  0  0  0  0  0  0  0  0
   14.0862    0.8800    8.0358 H   0  0  0  0  0  0  0  0  0  0  0  0
   14.1576    2.5784    8.6925 H   0  0  0  0  0  0  0  0  0  0  0  0
  1  2  1  0  0  0  0
  1 37  1  0  0  0  0
  1 38  1  0  0  0  0
  1 39  1  0  0  0  0
  2  3  1  0  0  0  0
  3  4  1  0  0  0  0
  3 40  1  0  0  0  0
  3 41  1  0  0  0  0
  4  5  1  0  0  0  0
  4 42  1  0  0  0  0
  4 43  1  0  0  0  0
  5  6  1  0  0  0  0
  6  7  1  0  0  0  0
  6 34  2  0  0  0  0
  7  8  2  0  0  0  0
  7 44  1  0  0  0  0
  8  9  1  0  0  0  0
  8 32  1  0  0  0  0
  9 10  2  0  0  0  0
 10 11  1  0  0  0  0
 10 45  1  0  0  0  0
 11 12  2  0  0  0  0
 12 13  1  0  0  0  0
 12 32  1  0  0  0  0
 13 14  1  0  0  0  0
 13 46  1  0  0  0  0
 14 15  2  0  0  0  0
 14 30  1  0  0  0  0
 15 16  1  0  0  0  0
 15 47  1  0  0  0  0
 16 17  2  0  0  0  0
 16 18  1  0  0  0  0
 18 19  1  0  0  0  0
 18 29  2  0  0  0  0
 19 20  1  0  0  0  0
 20 21  1  0  0  0  0
 20 48  1  0  0  0  0
 20 49  1  0  0  0  0
 21 22  1  0  0  0  0
 21 50  1  0  0  0  0
 21 51  1  0  0  0  0
 22 23  1  0  0  0  0
 23 24  1  0  0  0  0
 23 28  2  0  0  0  0
 24 25  2  0  0  0  0
 24 52  1  0  0  0  0
 25 26  1  0  0  0  0
 25 53  1  0  0  0  0
 26 27  2  0  0  0  0
 26 54  1  0  0  0  0
 27 28  1  0  0  0  0
 27 55  1  0  0  0  0
 28 56  1  0  0  0  0
 29 30  1  0  0  0  0
 29 57  1  0  0  0  0
 30 31  2  0  0  0  0
 32 33  2  0  0  0  0
 33 34  1  0  0  0  0
 33 58  1  0  0  0  0
 34 35  1  0  0  0  0
 35 36  1  0  0  0  0
 36 59  1  0  0  0  0
 36 60  1  0  0  0  0
 36 61  1  0  0  0  0
M  END
$$$$
