CHEMBL368786
 OpenBabel04072215373D

 40 42  0  0  0  0  0  0  0  0999 V2000
    2.4436    4.1822    1.9603 O   0  0  0  0  0  0  0  0  0  0  0  0
    3.4401    3.5963    2.7867 C   0  0  0  0  0  0  0  0  0  0  0  0
    3.8448    2.2375    2.2321 C   0  0  0  0  0  0  0  0  0  0  0  0
    4.4330    2.3051    0.8187 C   0  0  0  0  0  0  0  0  0  0  0  0
    5.6165    3.1521    0.7525 N   0  0  0  0  0  0  0  0  0  0  0  0
    6.7234    2.7863    1.4347 C   0  0  0  0  0  0  0  0  0  0  0  0
    7.0218    1.5570    1.7821 N   0  0  0  0  0  0  0  0  0  0  0  0
    8.1905    1.5452    2.5149 C   0  0  0  0  0  0  0  0  0  0  0  0
    8.7924    2.7726    2.7223 C   0  0  0  0  0  0  0  0  0  0  0  0
   10.0268    3.0767    3.4387 C   0  0  0  0  0  0  0  0  0  0  0  0
   10.7984    4.2126    3.2156 C   0  0  0  0  0  0  0  0  0  0  0  0
   11.9884    4.4218    3.8231 N   0  0  0  0  0  0  0  0  0  0  0  0
   12.3738    3.4390    4.6739 C   0  0  0  0  0  0  0  0  0  0  0  0
   11.5961    2.3122    4.9662 C   0  0  0  0  0  0  0  0  0  0  0  0
   12.0886    1.3299    5.8613 N   0  0  0  0  0  0  0  0  0  0  0  0
   11.2789    0.5102    6.6914 C   0  0  0  0  0  0  0  0  0  0  0  0
   10.0441    0.9437    7.1938 C   0  0  0  0  0  0  0  0  0  0  0  0
    9.3228    0.1639    8.1005 C   0  0  0  0  0  0  0  0  0  0  0  0
    9.8356   -1.0590    8.5254 C   0  0  0  0  0  0  0  0  0  0  0  0
   11.0715   -1.4891    8.0479 C   0  0  0  0  0  0  0  0  0  0  0  0
   11.7140   -2.9930    8.5861 Cl  0  0  0  0  0  0  0  0  0  0  0  0
   11.7989   -0.7080    7.1481 C   0  0  0  0  0  0  0  0  0  0  0  0
   10.4182    2.1242    4.3244 N   0  0  0  0  0  0  0  0  0  0  0  0
    7.8366    3.9813    1.9666 S   0  0  0  0  0  0  0  0  0  0  0  0
    2.1702    5.0114    2.3894 H   0  0  0  0  0  0  0  0  0  0  0  0
    3.0299    3.4781    3.7942 H   0  0  0  0  0  0  0  0  0  0  0  0
    4.2923    4.2805    2.8456 H   0  0  0  0  0  0  0  0  0  0  0  0
    2.9628    1.5869    2.1982 H   0  0  0  0  0  0  0  0  0  0  0  0
    4.5586    1.7718    2.9212 H   0  0  0  0  0  0  0  0  0  0  0  0
    3.6841    2.6984    0.1213 H   0  0  0  0  0  0  0  0  0  0  0  0
    4.6725    1.2930    0.4686 H   0  0  0  0  0  0  0  0  0  0  0  0
    5.4118    4.1438    0.6998 H   0  0  0  0  0  0  0  0  0  0  0  0
    8.5776    0.5980    2.8719 H   0  0  0  0  0  0  0  0  0  0  0  0
   10.5012    4.9882    2.5197 H   0  0  0  0  0  0  0  0  0  0  0  0
   13.3399    3.5912    5.1384 H   0  0  0  0  0  0  0  0  0  0  0  0
   12.8288    1.7187    6.4399 H   0  0  0  0  0  0  0  0  0  0  0  0
    9.6311    1.9034    6.8904 H   0  0  0  0  0  0  0  0  0  0  0  0
    8.3653    0.5160    8.4755 H   0  0  0  0  0  0  0  0  0  0  0  0
    9.2726   -1.6658    9.2290 H   0  0  0  0  0  0  0  0  0  0  0  0
   12.7647   -1.0526    6.7901 H   0  0  0  0  0  0  0  0  0  0  0  0
  1  2  1  0  0  0  0
  1 25  1  0  0  0  0
  2  3  1  0  0  0  0
  2 26  1  0  0  0  0
  2 27  1  0  0  0  0
  3  4  1  0  0  0  0
  3 28  1  0  0  0  0
  3 29  1  0  0  0  0
  4  5  1  0  0  0  0
  4 30  1  0  0  0  0
  4 31  1  0  0  0  0
  5  6  1  0  0  0  0
  5 32  1  0  0  0  0
  6  7  2  0  0  0  0
  6 24  1  0  0  0  0
  7  8  1  0  0  0  0
  8  9  2  0  0  0  0
  8 33  1  0  0  0  0
  9 10  1  0  0  0  0
  9 24  1  0  0  0  0
 10 11  1  0  0  0  0
 10 23  2  0  0  0  0
 11 12  2  0  0  0  0
 11 34  1  0  0  0  0
 12 13  1  0  0  0  0
 13 14  2  0  0  0  0
 13 35  1  0  0  0  0
 14 15  1  0  0  0  0
 14 23  1  0  0  0  0
 15 16  1  0  0  0  0
 15 36  1  0  0  0  0
 16 17  1  0  0  0  0
 16 22  2  0  0  0  0
 17 18  2  0  0  0  0
 17 37  1  0  0  0  0
 18 19  1  0  0  0  0
 18 38  1  0  0  0  0
 19 20  2  0  0  0  0
 19 39  1  0  0  0  0
 20 21  1  0  0  0  0
 20 22  1  0  0  0  0
 22 40  1  0  0  0  0
M  END
$$$$
