CHEMBL425262
 OpenBabel04072215383D

 72 77  0  0  0  0  0  0  0  0999 V2000
  -12.2303   -2.0560    9.8816 C   0  0  0  0  0  0  0  0  0  0  0  0
  -10.8901   -2.6256    9.4845 C   0  0  0  0  0  0  0  0  0  0  0  0
   -9.8424   -2.6337   10.4315 C   0  0  0  0  0  0  0  0  0  0  0  0
   -8.6215   -3.1904   10.0430 C   0  0  0  0  0  0  0  0  0  0  0  0
   -8.4248   -3.7217    8.7462 C   0  0  0  0  0  0  0  0  0  0  0  0
   -9.4323   -3.7246    7.7890 C   0  0  0  0  0  0  0  0  0  0  0  0
   -9.2323   -4.2801    6.4455 N   0  0  0  0  0  0  0  0  0  0  0  0
  -10.4086   -4.7230    5.6987 C   0  0  0  0  0  0  0  0  0  0  0  0
   -7.9386   -4.4572    5.8851 C   0  0  0  0  0  0  0  0  0  0  0  0
   -6.8687   -4.1917    6.4321 O   0  0  0  0  0  0  0  0  0  0  0  0
   -7.9167   -5.0122    4.6013 N   0  0  0  0  0  0  0  0  0  0  0  0
   -6.6331   -5.2117    3.9423 C   0  0  0  0  0  0  0  0  0  0  0  0
   -6.8674   -5.7891    2.5812 C   0  0  0  0  0  0  0  0  0  0  0  0
   -6.9870   -5.0886    1.3997 C   0  0  0  0  0  0  0  0  0  0  0  0
   -7.2559   -5.9701    0.3362 C   0  0  0  0  0  0  0  0  0  0  0  0
   -7.6283   -7.2504    0.7437 C   0  0  0  0  0  0  0  0  0  0  0  0
   -8.3455   -8.2196   -0.0711 C   0  0  0  0  0  0  0  0  0  0  0  0
   -8.2694   -9.5989   -0.0876 N   0  0  0  0  0  0  0  0  0  0  0  0
   -8.4120  -10.1331   -1.3568 N   0  0  0  0  0  0  0  0  0  0  0  0
   -8.8491   -9.0905   -2.0971 C   0  0  0  0  0  0  0  0  0  0  0  0
   -9.0249   -7.9499   -1.2458 C   0  0  0  0  0  0  0  0  0  0  0  0
   -9.0221   -6.7351   -2.0836 C   0  0  0  0  0  0  0  0  0  0  0  0
   -7.9243   -7.3306   -2.9855 C   0  0  0  0  0  0  0  0  0  0  0  0
   -6.5360   -7.4816   -2.6626 C   0  0  0  0  0  0  0  0  0  0  0  0
   -5.7480   -8.3815   -3.3965 C   0  0  0  0  0  0  0  0  0  0  0  0
   -4.5160   -9.0989   -2.8507 C   0  0  0  0  0  0  0  0  0  0  0  0
   -3.2464   -8.7656   -3.5063 N   0  0  0  0  0  0  0  0  0  0  0  0
   -2.9044   -7.3498   -3.3032 C   0  0  0  0  0  0  0  0  0  0  0  0
   -1.5605   -6.9749   -3.9606 C   0  0  0  0  0  0  0  0  0  0  0  0
   -0.4088   -7.7854   -3.5253 N   0  0  0  0  0  0  0  0  0  0  0  0
    0.0115   -7.4313   -2.1723 C   0  0  0  0  0  0  0  0  0  0  0  0
   -0.7650   -9.2147   -3.6461 C   0  0  0  0  0  0  0  0  0  0  0  0
   -2.1313   -9.6159   -3.0192 C   0  0  0  0  0  0  0  0  0  0  0  0
   -6.3342   -8.8487   -4.5499 C   0  0  0  0  0  0  0  0  0  0  0  0
   -7.7194   -9.0451   -4.5125 C   0  0  0  0  0  0  0  0  0  0  0  0
   -8.4520   -8.5370   -3.4581 C   0  0  0  0  0  0  0  0  0  0  0  0
   -7.0193   -7.4866    2.3254 S   0  0  0  0  0  0  0  0  0  0  0  0
  -10.6805   -3.1646    8.1862 C   0  0  0  0  0  0  0  0  0  0  0  0
  -12.2058   -1.6470   10.9027 H   0  0  0  0  0  0  0  0  0  0  0  0
  -12.9945   -2.8376    9.8612 H   0  0  0  0  0  0  0  0  0  0  0  0
  -12.5119   -1.2450    9.2101 H   0  0  0  0  0  0  0  0  0  0  0  0
   -9.9710   -2.2181   11.4148 H   0  0  0  0  0  0  0  0  0  0  0  0
   -7.8088   -3.2188   10.7603 H   0  0  0  0  0  0  0  0  0  0  0  0
   -7.4574   -4.1684    8.5614 H   0  0  0  0  0  0  0  0  0  0  0  0
  -11.3482   -4.6613    6.2460 H   0  0  0  0  0  0  0  0  0  0  0  0
  -10.2718   -5.7758    5.4253 H   0  0  0  0  0  0  0  0  0  0  0  0
  -10.4948   -4.1296    4.7825 H   0  0  0  0  0  0  0  0  0  0  0  0
   -8.6776   -4.7739    3.9849 H   0  0  0  0  0  0  0  0  0  0  0  0
   -5.9991   -5.8776    4.5556 H   0  0  0  0  0  0  0  0  0  0  0  0
   -6.1294   -4.2337    3.8667 H   0  0  0  0  0  0  0  0  0  0  0  0
   -6.9052   -4.0168    1.2709 H   0  0  0  0  0  0  0  0  0  0  0  0
   -7.2960   -5.5899   -0.6726 H   0  0  0  0  0  0  0  0  0  0  0  0
   -7.9278  -10.2026    0.6531 H   0  0  0  0  0  0  0  0  0  0  0  0
   -8.8415   -5.7626   -1.6522 H   0  0  0  0  0  0  0  0  0  0  0  0
   -9.9702   -6.6541   -2.6361 H   0  0  0  0  0  0  0  0  0  0  0  0
   -6.1724   -7.2228   -1.6708 H   0  0  0  0  0  0  0  0  0  0  0  0
   -4.7130  -10.1745   -2.9977 H   0  0  0  0  0  0  0  0  0  0  0  0
   -4.4605   -8.9785   -1.7599 H   0  0  0  0  0  0  0  0  0  0  0  0
   -2.8763   -7.1134   -2.2316 H   0  0  0  0  0  0  0  0  0  0  0  0
   -3.6714   -6.7192   -3.7609 H   0  0  0  0  0  0  0  0  0  0  0  0
   -1.3612   -5.9100   -3.7898 H   0  0  0  0  0  0  0  0  0  0  0  0
   -1.6607   -7.0856   -5.0487 H   0  0  0  0  0  0  0  0  0  0  0  0
    0.2557   -6.3632   -2.1178 H   0  0  0  0  0  0  0  0  0  0  0  0
    0.9261   -7.9700   -1.9027 H   0  0  0  0  0  0  0  0  0  0  0  0
   -0.7465   -7.6415   -1.4117 H   0  0  0  0  0  0  0  0  0  0  0  0
    0.0393   -9.8376   -3.2336 H   0  0  0  0  0  0  0  0  0  0  0  0
   -0.7983   -9.4563   -4.7174 H   0  0  0  0  0  0  0  0  0  0  0  0
   -2.0481   -9.5693   -1.9246 H   0  0  0  0  0  0  0  0  0  0  0  0
   -2.3214  -10.6662   -3.2774 H   0  0  0  0  0  0  0  0  0  0  0  0
   -5.7324   -9.0584   -5.4276 H   0  0  0  0  0  0  0  0  0  0  0  0
   -8.2139   -9.1198   -5.4835 H   0  0  0  0  0  0  0  0  0  0  0  0
  -11.5198   -3.0986    7.5089 H   0  0  0  0  0  0  0  0  0  0  0  0
  1  2  1  0  0  0  0
  1 39  1  0  0  0  0
  1 40  1  0  0  0  0
  1 41  1  0  0  0  0
  2  3  1  0  0  0  0
  2 38  2  0  0  0  0
  3  4  2  0  0  0  0
  3 42  1  0  0  0  0
  4  5  1  0  0  0  0
  4 43  1  0  0  0  0
  5  6  2  0  0  0  0
  5 44  1  0  0  0  0
  6  7  1  0  0  0  0
  6 38  1  0  0  0  0
  7  8  1  0  0  0  0
  7  9  1  0  0  0  0
  8 45  1  0  0  0  0
  8 46  1  0  0  0  0
  8 47  1  0  0  0  0
  9 10  2  0  0  0  0
  9 11  1  0  0  0  0
 11 12  1  0  0  0  0
 11 48  1  0  0  0  0
 12 13  1  0  0  0  0
 12 49  1  0  0  0  0
 12 50  1  0  0  0  0
 13 14  2  0  0  0  0
 13 37  1  0  0  0  0
 14 15  1  0  0  0  0
 14 51  1  0  0  0  0
 15 16  2  0  0  0  0
 15 52  1  0  0  0  0
 16 17  1  0  0  0  0
 16 37  1  0  0  0  0
 17 18  1  0  0  0  0
 17 21  2  0  0  0  0
 18 19  1  0  0  0  0
 18 53  1  0  0  0  0
 19 20  2  0  0  0  0
 20 21  1  0  0  0  0
 20 36  1  0  0  0  0
 21 22  1  0  0  0  0
 22 23  1  0  0  0  0
 22 54  1  0  0  0  0
 22 55  1  0  0  0  0
 23 24  1  0  0  0  0
 23 36  2  0  0  0  0
 24 25  2  0  0  0  0
 24 56  1  0  0  0  0
 25 26  1  0  0  0  0
 25 34  1  0  0  0  0
 26 27  1  0  0  0  0
 26 57  1  0  0  0  0
 26 58  1  0  0  0  0
 27 28  1  0  0  0  0
 27 33  1  0  0  0  0
 28 29  1  0  0  0  0
 28 59  1  0  0  0  0
 28 60  1  0  0  0  0
 29 30  1  0  0  0  0
 29 61  1  0  0  0  0
 29 62  1  0  0  0  0
 30 31  1  0  0  0  0
 30 32  1  0  0  0  0
 31 63  1  0  0  0  0
 31 64  1  0  0  0  0
 31 65  1  0  0  0  0
 32 33  1  0  0  0  0
 32 66  1  0  0  0  0
 32 67  1  0  0  0  0
 33 68  1  0  0  0  0
 33 69  1  0  0  0  0
 34 35  2  0  0  0  0
 34 70  1  0  0  0  0
 35 36  1  0  0  0  0
 35 71  1  0  0  0  0
 38 72  1  0  0  0  0
M  END
$$$$
