CHEMBL1952210
 OpenBabel04072215363D

 57 61  0  0  1  0  0  0  0  0999 V2000
    1.4876    1.0232   -0.3446 C   0  0  0  0  0  0  0  0  0  0  0  0
    2.4389    0.0318    0.0233 O   0  0  0  0  0  0  0  0  0  0  0  0
    3.0350   -0.6509   -0.9997 C   0  0  0  0  0  0  0  0  0  0  0  0
    2.7945   -0.4522   -2.3616 C   0  0  0  0  0  0  0  0  0  0  0  0
    3.4923   -1.2053   -3.3124 C   0  0  0  0  0  0  0  0  0  0  0  0
    4.4057   -2.1837   -2.9156 C   0  0  0  0  0  0  0  0  0  0  0  0
    5.1847   -2.8834   -3.8745 N   0  0  0  0  0  0  0  0  0  0  0  0
    5.3325   -4.3193   -3.7692 C   0  0  0  0  0  0  0  0  0  0  0  0
    6.7291   -4.7637   -3.9371 C   0  0  0  0  0  0  0  0  0  0  0  0
    7.1337   -6.0592   -3.7004 C   0  0  0  0  0  0  0  0  0  0  0  0
    8.3847   -6.4992   -3.9147 N   0  0  0  0  0  0  0  0  0  0  0  0
    9.2730   -5.5921   -4.3376 C   0  0  0  0  0  0  0  0  0  0  0  0
   10.5593   -6.0384   -4.6082 N   0  0  0  0  0  0  0  0  0  0  0  0
   11.7610   -5.3256   -4.5150 C   0  0  0  0  0  0  0  0  0  0  0  0
   11.9254   -4.2489   -3.6321 C   0  0  0  0  0  0  0  0  0  0  0  0
   13.1177   -3.5215   -3.5865 C   0  0  0  0  0  0  0  0  0  0  0  0
   14.1568   -3.8552   -4.4505 C   0  0  0  0  0  0  0  0  0  0  0  0
   14.0107   -4.9218   -5.3372 C   0  0  0  0  0  0  0  0  0  0  0  0
   12.8241   -5.6580   -5.3608 C   0  0  0  0  0  0  0  0  0  0  0  0
    8.9621   -4.3090   -4.5735 N   0  0  0  0  0  0  0  0  0  0  0  0
    7.6910   -3.9113   -4.4143 C   0  0  0  0  0  0  0  0  0  0  0  0
    7.3261   -2.5957   -4.7927 N   0  0  0  0  0  0  0  0  0  0  0  0
    8.4006   -1.6239   -5.0595 C   0  0  2  0  0  0  0  0  0  0  0  0
    8.3109   -0.3723   -4.1468 C   0  0  0  0  0  0  0  0  0  0  0  0
    8.1895    0.8231   -5.0874 C   0  0  0  0  0  0  0  0  0  0  0  0
    8.8839    0.3626   -6.3582 C   0  0  1  0  0  0  0  0  0  0  0  0
   10.2983    0.4788   -6.2249 O   0  0  0  0  0  0  0  0  0  0  0  0
    8.4650   -1.0977   -6.5017 C   0  0  0  0  0  0  0  0  0  0  0  0
    6.0073   -2.1352   -4.7171 C   0  0  0  0  0  0  0  0  0  0  0  0
    5.6652   -1.0576   -5.2008 O   0  0  0  0  0  0  0  0  0  0  0  0
    4.6400   -2.3821   -1.5505 C   0  0  0  0  0  0  0  0  0  0  0  0
    3.9655   -1.6109   -0.6026 C   0  0  0  0  0  0  0  0  0  0  0  0
    1.0779    1.4509    0.5744 H   0  0  0  0  0  0  0  0  0  0  0  0
    0.6563    0.5843   -0.9066 H   0  0  0  0  0  0  0  0  0  0  0  0
    1.9634    1.8327   -0.9085 H   0  0  0  0  0  0  0  0  0  0  0  0
    2.0982    0.3009   -2.7216 H   0  0  0  0  0  0  0  0  0  0  0  0
    3.3133   -1.0148   -4.3690 H   0  0  0  0  0  0  0  0  0  0  0  0
    4.7238   -4.7508   -4.5723 H   0  0  0  0  0  0  0  0  0  0  0  0
    4.9266   -4.6881   -2.8196 H   0  0  0  0  0  0  0  0  0  0  0  0
    6.4422   -6.8116   -3.3305 H   0  0  0  0  0  0  0  0  0  0  0  0
   10.6264   -7.0447   -4.5578 H   0  0  0  0  0  0  0  0  0  0  0  0
   11.1231   -3.9751   -2.9490 H   0  0  0  0  0  0  0  0  0  0  0  0
   13.2259   -2.6991   -2.8880 H   0  0  0  0  0  0  0  0  0  0  0  0
   15.0782   -3.2812   -4.4365 H   0  0  0  0  0  0  0  0  0  0  0  0
   14.8157   -5.1692   -6.0236 H   0  0  0  0  0  0  0  0  0  0  0  0
   12.7184   -6.4694   -6.0763 H   0  0  0  0  0  0  0  0  0  0  0  0
    9.3731   -2.0774   -4.8356 H   0  0  0  0  0  0  0  0  0  0  0  0
    9.2327   -0.2872   -3.5586 H   0  0  0  0  0  0  0  0  0  0  0  0
    7.4897   -0.3977   -3.4232 H   0  0  0  0  0  0  0  0  0  0  0  0
    8.6416    1.7176   -4.6475 H   0  0  0  0  0  0  0  0  0  0  0  0
    7.1338    1.0360   -5.2914 H   0  0  0  0  0  0  0  0  0  0  0  0
    8.5879    0.9591   -7.2253 H   0  0  0  0  0  0  0  0  0  0  0  0
   10.5861    0.0168   -5.4196 H   0  0  0  0  0  0  0  0  0  0  0  0
    9.1850   -1.6762   -7.0910 H   0  0  0  0  0  0  0  0  0  0  0  0
    7.4919   -1.1643   -6.9992 H   0  0  0  0  0  0  0  0  0  0  0  0
    5.4038   -3.0750   -1.2067 H   0  0  0  0  0  0  0  0  0  0  0  0
    4.1843   -1.7419    0.4540 H   0  0  0  0  0  0  0  0  0  0  0  0
  1  2  1  0  0  0  0
  1 33  1  0  0  0  0
  1 34  1  0  0  0  0
  1 35  1  0  0  0  0
  2  3  1  0  0  0  0
  3  4  1  0  0  0  0
  3 32  2  0  0  0  0
  4  5  2  0  0  0  0
  4 36  1  0  0  0  0
  5  6  1  0  0  0  0
  5 37  1  0  0  0  0
  6  7  1  0  0  0  0
  6 31  2  0  0  0  0
  7  8  1  0  0  0  0
  7 29  1  0  0  0  0
  8  9  1  0  0  0  0
  8 38  1  0  0  0  0
  8 39  1  0  0  0  0
  9 10  1  0  0  0  0
  9 21  2  0  0  0  0
 10 11  2  0  0  0  0
 10 40  1  0  0  0  0
 11 12  1  0  0  0  0
 12 13  1  0  0  0  0
 12 20  2  0  0  0  0
 13 14  1  0  0  0  0
 13 41  1  0  0  0  0
 14 15  1  0  0  0  0
 14 19  2  0  0  0  0
 15 16  2  0  0  0  0
 15 42  1  0  0  0  0
 16 17  1  0  0  0  0
 16 43  1  0  0  0  0
 17 18  2  0  0  0  0
 17 44  1  0  0  0  0
 18 19  1  0  0  0  0
 18 45  1  0  0  0  0
 19 46  1  0  0  0  0
 20 21  1  0  0  0  0
 21 22  1  0  0  0  0
 22 23  1  0  0  0  0
 22 29  1  0  0  0  0
 23 24  1  0  0  0  0
 23 28  1  0  0  0  0
 23 47  1  1  0  0  0
 24 25  1  0  0  0  0
 24 48  1  0  0  0  0
 24 49  1  0  0  0  0
 25 26  1  0  0  0  0
 25 50  1  0  0  0  0
 25 51  1  0  0  0  0
 26 27  1  0  0  0  0
 26 28  1  0  0  0  0
 26 52  1  6  0  0  0
 27 53  1  0  0  0  0
 28 54  1  0  0  0  0
 28 55  1  0  0  0  0
 29 30  2  0  0  0  0
 31 32  1  0  0  0  0
 31 56  1  0  0  0  0
 32 57  1  0  0  0  0
M  END
$$$$
