CHEMBL3961936
 OpenBabel04072215373D

 55 58  0  0  0  0  0  0  0  0999 V2000
    2.5332    0.0492   -0.2540 C   0  0  0  0  0  0  0  0  0  0  0  0
    1.0350    0.0509   -0.1541 C   0  0  0  0  0  0  0  0  0  0  0  0
    0.3861    1.3012   -0.1021 C   0  0  0  0  0  0  0  0  0  0  0  0
   -1.0058    1.4142   -0.0206 C   0  0  0  0  0  0  0  0  0  0  0  0
   -1.6597    2.6692   -0.0178 N   0  0  0  0  0  0  0  0  0  0  0  0
   -1.1230    3.8028   -0.6244 C   0  0  0  0  0  0  0  0  0  0  0  0
   -0.1641    3.7982   -1.3838 O   0  0  0  0  0  0  0  0  0  0  0  0
   -1.7723    4.9592   -0.2159 N   0  0  0  0  0  0  0  0  0  0  0  0
   -1.3502    6.2336   -0.6604 C   0  0  0  0  0  0  0  0  0  0  0  0
   -1.3050    7.2822    0.2515 C   0  0  0  0  0  0  0  0  0  0  0  0
   -0.8812    8.5464   -0.1674 C   0  0  0  0  0  0  0  0  0  0  0  0
   -0.5495    8.7930   -1.5105 C   0  0  0  0  0  0  0  0  0  0  0  0
   -0.2810   10.4460   -1.9297 Cl  0  0  0  0  0  0  0  0  0  0  0  0
   -0.5666    7.7426   -2.4335 C   0  0  0  0  0  0  0  0  0  0  0  0
   -0.3372    7.7723   -3.7770 O   0  0  0  0  0  0  0  0  0  0  0  0
    0.6625    8.6042   -4.3436 C   0  0  0  0  0  0  0  0  0  0  0  0
    1.5635    9.0619   -3.4530 F   0  0  0  0  0  0  0  0  0  0  0  0
    1.3409    7.8802   -5.2654 F   0  0  0  0  0  0  0  0  0  0  0  0
    0.0774    9.6371   -4.9851 F   0  0  0  0  0  0  0  0  0  0  0  0
   -0.9757    6.4689   -1.9926 C   0  0  0  0  0  0  0  0  0  0  0  0
   -1.7599    0.2495    0.1048 C   0  0  0  0  0  0  0  0  0  0  0  0
   -1.1300   -1.0031    0.0851 C   0  0  0  0  0  0  0  0  0  0  0  0
    0.2604   -1.1161   -0.0823 C   0  0  0  0  0  0  0  0  0  0  0  0
    0.8936   -2.3502   -0.0879 O   0  0  0  0  0  0  0  0  0  0  0  0
    0.2943   -3.3904   -0.8044 C   0  0  0  0  0  0  0  0  0  0  0  0
    0.5710   -4.6890   -0.4092 C   0  0  0  0  0  0  0  0  0  0  0  0
   -0.0303   -5.6922   -1.1496 C   0  0  0  0  0  0  0  0  0  0  0  0
    0.2565   -7.0411   -0.8529 N   0  0  0  0  0  0  0  0  0  0  0  0
   -0.3210   -8.1138   -1.5114 C   0  0  0  0  0  0  0  0  0  0  0  0
   -1.2728   -8.0775   -2.2791 O   0  0  0  0  0  0  0  0  0  0  0  0
    0.2684   -9.4641   -1.2501 C   0  0  0  0  0  0  0  0  0  0  0  0
    0.2829  -10.0497    0.1410 C   0  0  0  0  0  0  0  0  0  0  0  0
    1.5781   -9.7470   -0.5585 C   0  0  0  0  0  0  0  0  0  0  0  0
   -0.8412   -5.4126   -2.1764 N   0  0  0  0  0  0  0  0  0  0  0  0
   -1.0287   -4.1291   -2.4878 C   0  0  0  0  0  0  0  0  0  0  0  0
   -0.4822   -3.0893   -1.8591 N   0  0  0  0  0  0  0  0  0  0  0  0
    2.8995    1.0217   -0.6111 H   0  0  0  0  0  0  0  0  0  0  0  0
    2.8852   -0.6987   -0.9683 H   0  0  0  0  0  0  0  0  0  0  0  0
    2.9788   -0.1307    0.7287 H   0  0  0  0  0  0  0  0  0  0  0  0
    0.9993    2.2018   -0.1291 H   0  0  0  0  0  0  0  0  0  0  0  0
   -2.6587    2.6688    0.0900 H   0  0  0  0  0  0  0  0  0  0  0  0
   -2.1702    4.9028    0.7118 H   0  0  0  0  0  0  0  0  0  0  0  0
   -1.5622    7.1278    1.2962 H   0  0  0  0  0  0  0  0  0  0  0  0
   -0.8345    9.3524    0.5627 H   0  0  0  0  0  0  0  0  0  0  0  0
   -1.0369    5.6639   -2.7192 H   0  0  0  0  0  0  0  0  0  0  0  0
   -2.8415    0.2863    0.1859 H   0  0  0  0  0  0  0  0  0  0  0  0
   -1.7443   -1.8939    0.1729 H   0  0  0  0  0  0  0  0  0  0  0  0
    1.2164   -4.8887    0.4337 H   0  0  0  0  0  0  0  0  0  0  0  0
    0.9450   -7.2309   -0.1436 H   0  0  0  0  0  0  0  0  0  0  0  0
    0.0206  -10.1608   -2.0524 H   0  0  0  0  0  0  0  0  0  0  0  0
   -0.0142  -11.0887    0.2443 H   0  0  0  0  0  0  0  0  0  0  0  0
   -0.0141   -9.4247    0.9738 H   0  0  0  0  0  0  0  0  0  0  0  0
    2.1591  -10.5907   -0.9232 H   0  0  0  0  0  0  0  0  0  0  0  0
    2.1927   -8.9400   -0.1884 H   0  0  0  0  0  0  0  0  0  0  0  0
   -1.6841   -3.9195   -3.3252 H   0  0  0  0  0  0  0  0  0  0  0  0
  1  2  1  0  0  0  0
  1 37  1  0  0  0  0
  1 38  1  0  0  0  0
  1 39  1  0  0  0  0
  2  3  1  0  0  0  0
  2 23  2  0  0  0  0
  3  4  2  0  0  0  0
  3 40  1  0  0  0  0
  4  5  1  0  0  0  0
  4 21  1  0  0  0  0
  5  6  1  0  0  0  0
  5 41  1  0  0  0  0
  6  7  2  0  0  0  0
  6  8  1  0  0  0  0
  8  9  1  0  0  0  0
  8 42  1  0  0  0  0
  9 10  1  0  0  0  0
  9 20  2  0  0  0  0
 10 11  2  0  0  0  0
 10 43  1  0  0  0  0
 11 12  1  0  0  0  0
 11 44  1  0  0  0  0
 12 13  1  0  0  0  0
 12 14  2  0  0  0  0
 14 15  1  0  0  0  0
 14 20  1  0  0  0  0
 15 16  1  0  0  0  0
 16 17  1  0  0  0  0
 16 18  1  0  0  0  0
 16 19  1  0  0  0  0
 20 45  1  0  0  0  0
 21 22  2  0  0  0  0
 21 46  1  0  0  0  0
 22 23  1  0  0  0  0
 22 47  1  0  0  0  0
 23 24  1  0  0  0  0
 24 25  1  0  0  0  0
 25 26  1  0  0  0  0
 25 36  2  0  0  0  0
 26 27  2  0  0  0  0
 26 48  1  0  0  0  0
 27 28  1  0  0  0  0
 27 34  1  0  0  0  0
 28 29  1  0  0  0  0
 28 49  1  0  0  0  0
 29 30  2  0  0  0  0
 29 31  1  0  0  0  0
 31 32  1  0  0  0  0
 31 33  1  0  0  0  0
 31 50  1  0  0  0  0
 32 33  1  0  0  0  0
 32 51  1  0  0  0  0
 32 52  1  0  0  0  0
 33 53  1  0  0  0  0
 33 54  1  0  0  0  0
 34 35  2  0  0  0  0
 35 36  1  0  0  0  0
 35 55  1  0  0  0  0
M  END
$$$$
