CHEMBL2018745
 OpenBabel04072215363D

 46 48  0  0  0  0  0  0  0  0999 V2000
    1.1722    0.3614    0.3583 C   0  0  0  0  0  0  0  0  0  0  0  0
    2.6046    0.0106   -0.0243 C   0  0  0  0  0  0  0  0  0  0  0  0
    2.8662    0.3825   -1.4724 C   0  0  0  0  0  0  0  0  0  0  0  0
    1.9803    0.8825   -2.1558 O   0  0  0  0  0  0  0  0  0  0  0  0
    4.1517    0.0902   -1.9053 N   0  0  0  0  0  0  0  0  0  0  0  0
    4.6575    0.4245   -3.1841 C   0  0  0  0  0  0  0  0  0  0  0  0
    4.0661    1.3919   -3.9924 C   0  0  0  0  0  0  0  0  0  0  0  0
    4.5593    1.6698   -5.2716 C   0  0  0  0  0  0  0  0  0  0  0  0
    5.6416    0.9698   -5.7984 C   0  0  0  0  0  0  0  0  0  0  0  0
    6.2051    1.2485   -7.0637 N   0  0  0  0  0  0  0  0  0  0  0  0
    5.6796    1.9815   -8.1654 C   0  0  0  0  0  0  0  0  0  0  0  0
    4.3822    2.3362   -8.1771 N   0  0  0  0  0  0  0  0  0  0  0  0
    3.9498    3.0452   -9.2229 C   0  0  0  0  0  0  0  0  0  0  0  0
    4.6885    3.4504  -10.2587 N   0  0  0  0  0  0  0  0  0  0  0  0
    5.9729    3.0927  -10.2504 C   0  0  0  0  0  0  0  0  0  0  0  0
    6.7587    3.4780  -11.3288 C   0  0  0  0  0  0  0  0  0  0  0  0
    8.1047    3.1062  -11.4573 C   0  0  0  0  0  0  0  0  0  0  0  0
    8.8460    3.4125  -12.5661 O   0  0  0  0  0  0  0  0  0  0  0  0
    8.4499    4.5388  -13.3396 C   0  0  0  0  0  0  0  0  0  0  0  0
    8.6894    2.3401  -10.4419 C   0  0  0  0  0  0  0  0  0  0  0  0
    9.9670    1.8527  -10.3619 O   0  0  0  0  0  0  0  0  0  0  0  0
   10.8392    2.0370  -11.4676 C   0  0  0  0  0  0  0  0  0  0  0  0
    7.9171    1.9921   -9.3244 C   0  0  0  0  0  0  0  0  0  0  0  0
    6.5475    2.3383   -9.2227 C   0  0  0  0  0  0  0  0  0  0  0  0
    6.2840    0.0538   -4.9480 C   0  0  0  0  0  0  0  0  0  0  0  0
    5.8037   -0.2175   -3.6542 C   0  0  0  0  0  0  0  0  0  0  0  0
    0.9636    0.1032    1.3991 H   0  0  0  0  0  0  0  0  0  0  0  0
    0.4574   -0.1733   -0.2782 H   0  0  0  0  0  0  0  0  0  0  0  0
    0.9859    1.4341    0.2270 H   0  0  0  0  0  0  0  0  0  0  0  0
    2.7724   -1.0647    0.1081 H   0  0  0  0  0  0  0  0  0  0  0  0
    3.3029    0.5594    0.6175 H   0  0  0  0  0  0  0  0  0  0  0  0
    4.7137   -0.5243   -1.3314 H   0  0  0  0  0  0  0  0  0  0  0  0
    3.2173    1.9784   -3.6546 H   0  0  0  0  0  0  0  0  0  0  0  0
    4.0518    2.4393   -5.8415 H   0  0  0  0  0  0  0  0  0  0  0  0
    6.7451    0.4618   -7.4049 H   0  0  0  0  0  0  0  0  0  0  0  0
    2.8985    3.3117   -9.2361 H   0  0  0  0  0  0  0  0  0  0  0  0
    6.2633    4.0610  -12.0990 H   0  0  0  0  0  0  0  0  0  0  0  0
    9.1865    4.6646  -14.1392 H   0  0  0  0  0  0  0  0  0  0  0  0
    8.4529    5.4483  -12.7305 H   0  0  0  0  0  0  0  0  0  0  0  0
    7.4796    4.3827  -13.8202 H   0  0  0  0  0  0  0  0  0  0  0  0
   11.7807    1.5296  -11.2353 H   0  0  0  0  0  0  0  0  0  0  0  0
   11.0715    3.0965  -11.6135 H   0  0  0  0  0  0  0  0  0  0  0  0
   10.4399    1.5721  -12.3748 H   0  0  0  0  0  0  0  0  0  0  0  0
    8.3983    1.4258   -8.5298 H   0  0  0  0  0  0  0  0  0  0  0  0
    7.1746   -0.4689   -5.2900 H   0  0  0  0  0  0  0  0  0  0  0  0
    6.3277   -0.9493   -3.0469 H   0  0  0  0  0  0  0  0  0  0  0  0
  1  2  1  0  0  0  0
  1 27  1  0  0  0  0
  1 28  1  0  0  0  0
  1 29  1  0  0  0  0
  2  3  1  0  0  0  0
  2 30  1  0  0  0  0
  2 31  1  0  0  0  0
  3  4  2  0  0  0  0
  3  5  1  0  0  0  0
  5  6  1  0  0  0  0
  5 32  1  0  0  0  0
  6  7  1  0  0  0  0
  6 26  2  0  0  0  0
  7  8  2  0  0  0  0
  7 33  1  0  0  0  0
  8  9  1  0  0  0  0
  8 34  1  0  0  0  0
  9 10  1  0  0  0  0
  9 25  2  0  0  0  0
 10 11  1  0  0  0  0
 10 35  1  0  0  0  0
 11 12  1  0  0  0  0
 11 24  2  0  0  0  0
 12 13  2  0  0  0  0
 13 14  1  0  0  0  0
 13 36  1  0  0  0  0
 14 15  2  0  0  0  0
 15 16  1  0  0  0  0
 15 24  1  0  0  0  0
 16 17  2  0  0  0  0
 16 37  1  0  0  0  0
 17 18  1  0  0  0  0
 17 20  1  0  0  0  0
 18 19  1  0  0  0  0
 19 38  1  0  0  0  0
 19 39  1  0  0  0  0
 19 40  1  0  0  0  0
 20 21  1  0  0  0  0
 20 23  2  0  0  0  0
 21 22  1  0  0  0  0
 22 41  1  0  0  0  0
 22 42  1  0  0  0  0
 22 43  1  0  0  0  0
 23 24  1  0  0  0  0
 23 44  1  0  0  0  0
 25 26  1  0  0  0  0
 25 45  1  0  0  0  0
 26 46  1  0  0  0  0
M  END
$$$$
