CHEMBL224036
 OpenBabel04072215363D

 42 44  0  0  0  0  0  0  0  0999 V2000
    1.1284   -0.3694   -0.6771 C   0  0  0  0  0  0  0  0  0  0  0  0
    2.4446   -0.0086   -0.0357 C   0  0  0  0  0  0  0  0  0  0  0  0
    2.8986    1.1289   -0.1478 O   0  0  0  0  0  0  0  0  0  0  0  0
    3.0759   -0.9997    0.6913 N   0  0  0  0  0  0  0  0  0  0  0  0
    2.6312   -2.3921    0.7773 C   0  0  0  0  0  0  0  0  0  0  0  0
    2.5827   -2.8518    2.2440 C   0  0  0  0  0  0  0  0  0  0  0  0
    3.8672   -2.6892    2.9587 N   0  0  0  0  0  0  0  0  0  0  0  0
    4.9435   -3.5507    2.4361 C   0  0  0  0  0  0  0  0  0  0  0  0
    4.6591   -5.0311    2.5271 C   0  0  0  0  0  0  0  0  0  0  0  0
    4.0572   -5.7409    1.4890 C   0  0  0  0  0  0  0  0  0  0  0  0
    3.8216   -7.0933    1.6648 C   0  0  0  0  0  0  0  0  0  0  0  0
    4.1825   -7.7865    2.7673 N   0  0  0  0  0  0  0  0  0  0  0  0
    4.8141   -7.1113    3.7513 C   0  0  0  0  0  0  0  0  0  0  0  0
    5.2546   -7.8794    4.8319 N   0  0  0  0  0  0  0  0  0  0  0  0
    6.3625   -7.6347    5.5664 C   0  0  0  0  0  0  0  0  0  0  0  0
    7.1453   -6.5783    5.4732 N   0  0  0  0  0  0  0  0  0  0  0  0
    8.2064   -6.6713    6.3469 C   0  0  0  0  0  0  0  0  0  0  0  0
    8.2202   -7.8006    7.1269 C   0  0  0  0  0  0  0  0  0  0  0  0
    9.1989   -8.1052    8.1048 C   0  0  0  0  0  0  0  0  0  0  0  0
   10.0102   -8.3370    8.8979 N   0  0  0  0  0  0  0  0  0  0  0  0
    6.8804   -8.7907    6.7410 S   0  0  0  0  0  0  0  0  0  0  0  0
    5.0165   -5.7356    3.6775 C   0  0  0  0  0  0  0  0  0  0  0  0
    4.2619   -1.2576    2.8647 C   0  0  0  0  0  0  0  0  0  0  0  0
    4.3097   -0.6935    1.4247 C   0  0  0  0  0  0  0  0  0  0  0  0
    0.7433    0.4926   -1.2251 H   0  0  0  0  0  0  0  0  0  0  0  0
    0.4031   -0.6367    0.0968 H   0  0  0  0  0  0  0  0  0  0  0  0
    1.2582   -1.1933   -1.3848 H   0  0  0  0  0  0  0  0  0  0  0  0
    3.3416   -2.9879    0.1937 H   0  0  0  0  0  0  0  0  0  0  0  0
    1.6519   -2.5436    0.3219 H   0  0  0  0  0  0  0  0  0  0  0  0
    2.2165   -3.8807    2.3117 H   0  0  0  0  0  0  0  0  0  0  0  0
    1.8252   -2.2519    2.7677 H   0  0  0  0  0  0  0  0  0  0  0  0
    5.8521   -3.3559    3.0239 H   0  0  0  0  0  0  0  0  0  0  0  0
    5.2183   -3.3119    1.4029 H   0  0  0  0  0  0  0  0  0  0  0  0
    3.7622   -5.2588    0.5651 H   0  0  0  0  0  0  0  0  0  0  0  0
    3.3276   -7.6761    0.8923 H   0  0  0  0  0  0  0  0  0  0  0  0
    4.9596   -8.8392    4.7082 H   0  0  0  0  0  0  0  0  0  0  0  0
    8.9403   -5.8736    6.3649 H   0  0  0  0  0  0  0  0  0  0  0  0
    5.4668   -5.1981    4.5059 H   0  0  0  0  0  0  0  0  0  0  0  0
    5.2247   -1.0945    3.3645 H   0  0  0  0  0  0  0  0  0  0  0  0
    3.5297   -0.6726    3.4376 H   0  0  0  0  0  0  0  0  0  0  0  0
    5.1427   -1.1329    0.8643 H   0  0  0  0  0  0  0  0  0  0  0  0
    4.4829    0.3866    1.4638 H   0  0  0  0  0  0  0  0  0  0  0  0
  1  2  1  0  0  0  0
  1 25  1  0  0  0  0
  1 26  1  0  0  0  0
  1 27  1  0  0  0  0
  2  3  2  0  0  0  0
  2  4  1  0  0  0  0
  4  5  1  0  0  0  0
  4 24  1  0  0  0  0
  5  6  1  0  0  0  0
  5 28  1  0  0  0  0
  5 29  1  0  0  0  0
  6  7  1  0  0  0  0
  6 30  1  0  0  0  0
  6 31  1  0  0  0  0
  7  8  1  0  0  0  0
  7 23  1  0  0  0  0
  8  9  1  0  0  0  0
  8 32  1  0  0  0  0
  8 33  1  0  0  0  0
  9 10  1  0  0  0  0
  9 22  2  0  0  0  0
 10 11  2  0  0  0  0
 10 34  1  0  0  0  0
 11 12  1  0  0  0  0
 11 35  1  0  0  0  0
 12 13  2  0  0  0  0
 13 14  1  0  0  0  0
 13 22  1  0  0  0  0
 14 15  1  0  0  0  0
 14 36  1  0  0  0  0
 15 16  2  0  0  0  0
 15 21  1  0  0  0  0
 16 17  1  0  0  0  0
 17 18  2  0  0  0  0
 17 37  1  0  0  0  0
 18 19  1  0  0  0  0
 18 21  1  0  0  0  0
 19 20  3  0  0  0  0
 22 38  1  0  0  0  0
 23 24  1  0  0  0  0
 23 39  1  0  0  0  0
 23 40  1  0  0  0  0
 24 41  1  0  0  0  0
 24 42  1  0  0  0  0
M  END
$$$$
