CHEMBL409933
 OpenBabel04072215383D

 63 67  0  0  1  0  0  0  0  0999 V2000
    6.4934   10.1515    8.1835 C   0  0  0  0  0  0  0  0  0  0  0  0
    5.6951   10.2505    6.9983 O   0  0  0  0  0  0  0  0  0  0  0  0
    4.4294    9.7306    7.0936 C   0  0  0  0  0  0  0  0  0  0  0  0
    3.7439    9.7177    8.3191 C   0  0  0  0  0  0  0  0  0  0  0  0
    2.5238    9.0831    8.4917 C   0  0  0  0  0  0  0  0  0  0  0  0
    2.0092    9.0568    9.7310 N   0  0  0  0  0  0  0  0  0  0  0  0
    0.8421    8.4132    9.9231 C   0  0  0  0  0  0  0  0  0  0  0  0
    0.1462    7.7839    8.9182 C   0  0  0  0  0  0  0  0  0  0  0  0
    0.7009    7.7691    7.6405 C   0  0  0  0  0  0  0  0  0  0  0  0
    0.0840    7.0946    6.5972 O   0  0  0  0  0  0  0  0  0  0  0  0
   -0.5065    5.8696    6.8494 C   0  0  0  0  0  0  0  0  0  0  0  0
   -1.6661    5.5613    6.1408 C   0  0  0  0  0  0  0  0  0  0  0  0
   -2.3186    4.3258    6.3267 C   0  0  0  0  0  0  0  0  0  0  0  0
   -1.8228    3.3612    7.2165 C   0  0  0  0  0  0  0  0  0  0  0  0
   -0.6412    3.6932    7.9169 C   0  0  0  0  0  0  0  0  0  0  0  0
    0.0162    4.9186    7.7230 C   0  0  0  0  0  0  0  0  0  0  0  0
   -0.0294    2.8705    8.8355 O   0  0  0  0  0  0  0  0  0  0  0  0
   -0.4386    1.5098    8.7100 C   0  0  0  0  0  0  0  0  0  0  0  0
   -1.9519    1.4009    8.6545 C   0  0  0  0  0  0  0  0  0  0  0  0
   -2.4590    2.0748    7.4498 N   0  0  0  0  0  0  0  0  0  0  0  0
   -3.3700    1.5036    6.5541 C   0  0  0  0  0  0  0  0  0  0  0  0
   -3.6975    2.0157    5.4858 O   0  0  0  0  0  0  0  0  0  0  0  0
   -3.8612    0.2492    6.8844 N   0  0  0  0  0  0  0  0  0  0  0  0
   -4.7995   -0.4193    5.9702 C   0  0  2  0  0  0  0  0  0  0  0  0
   -6.2201    0.1044    6.2274 C   0  0  0  0  0  0  0  0  0  0  0  0
   -4.6805   -1.9469    5.9781 C   0  0  0  0  0  0  0  0  0  0  0  0
   -5.7612   -2.7729    5.6064 C   0  0  0  0  0  0  0  0  0  0  0  0
   -5.6023   -4.1525    5.4219 C   0  0  0  0  0  0  0  0  0  0  0  0
   -4.3532   -4.7371    5.6014 C   0  0  0  0  0  0  0  0  0  0  0  0
   -3.2756   -3.9484    5.9895 C   0  0  0  0  0  0  0  0  0  0  0  0
   -3.4346   -2.5684    6.1717 C   0  0  0  0  0  0  0  0  0  0  0  0
    1.9046    8.4755    7.3862 C   0  0  0  0  0  0  0  0  0  0  0  0
    2.5284    8.6001    6.1217 C   0  0  0  0  0  0  0  0  0  0  0  0
    3.7881    9.2105    5.9642 C   0  0  0  0  0  0  0  0  0  0  0  0
    4.2145    9.1781    4.6654 O   0  0  0  0  0  0  0  0  0  0  0  0
    5.5464    9.5473    4.3443 C   0  0  0  0  0  0  0  0  0  0  0  0
    7.5393   10.0316    7.8857 H   0  0  0  0  0  0  0  0  0  0  0  0
    6.2413    9.2837    8.8062 H   0  0  0  0  0  0  0  0  0  0  0  0
    6.4061   11.0745    8.7662 H   0  0  0  0  0  0  0  0  0  0  0  0
    4.1713   10.1948    9.1975 H   0  0  0  0  0  0  0  0  0  0  0  0
    0.4827    8.4028   10.9465 H   0  0  0  0  0  0  0  0  0  0  0  0
   -0.7877    7.2771    9.1426 H   0  0  0  0  0  0  0  0  0  0  0  0
   -2.0815    6.2829    5.4407 H   0  0  0  0  0  0  0  0  0  0  0  0
   -3.2376    4.1676    5.7698 H   0  0  0  0  0  0  0  0  0  0  0  0
    0.9406    5.1076    8.2616 H   0  0  0  0  0  0  0  0  0  0  0  0
   -0.0581    0.9755    9.5865 H   0  0  0  0  0  0  0  0  0  0  0  0
    0.0322    1.0723    7.8211 H   0  0  0  0  0  0  0  0  0  0  0  0
   -2.4084    1.9086    9.5147 H   0  0  0  0  0  0  0  0  0  0  0  0
   -2.2337    0.3477    8.6928 H   0  0  0  0  0  0  0  0  0  0  0  0
   -3.9864    0.0341    7.8600 H   0  0  0  0  0  0  0  0  0  0  0  0
   -4.5269   -0.1277    4.9474 H   0  0  0  0  0  0  0  0  0  0  0  0
   -6.6189   -0.2700    7.1770 H   0  0  0  0  0  0  0  0  0  0  0  0
   -6.9067   -0.1948    5.4280 H   0  0  0  0  0  0  0  0  0  0  0  0
   -6.2414    1.1983    6.2664 H   0  0  0  0  0  0  0  0  0  0  0  0
   -6.7465   -2.3589    5.4085 H   0  0  0  0  0  0  0  0  0  0  0  0
   -6.4467   -4.7580    5.1034 H   0  0  0  0  0  0  0  0  0  0  0  0
   -4.2223   -5.8007    5.4221 H   0  0  0  0  0  0  0  0  0  0  0  0
   -2.2975   -4.4042    6.1208 H   0  0  0  0  0  0  0  0  0  0  0  0
   -2.5588   -1.9746    6.4252 H   0  0  0  0  0  0  0  0  0  0  0  0
    2.0388    8.1934    5.2377 H   0  0  0  0  0  0  0  0  0  0  0  0
    5.7397    9.1928    3.3253 H   0  0  0  0  0  0  0  0  0  0  0  0
    6.2831    9.0589    4.9878 H   0  0  0  0  0  0  0  0  0  0  0  0
    5.6619   10.6355    4.3393 H   0  0  0  0  0  0  0  0  0  0  0  0
  1  2  1  0  0  0  0
  1 37  1  0  0  0  0
  1 38  1  0  0  0  0
  1 39  1  0  0  0  0
  2  3  1  0  0  0  0
  3  4  1  0  0  0  0
  3 34  2  0  0  0  0
  4  5  2  0  0  0  0
  4 40  1  0  0  0  0
  5  6  1  0  0  0  0
  5 32  1  0  0  0  0
  6  7  2  0  0  0  0
  7  8  1  0  0  0  0
  7 41  1  0  0  0  0
  8  9  2  0  0  0  0
  8 42  1  0  0  0  0
  9 10  1  0  0  0  0
  9 32  1  0  0  0  0
 10 11  1  0  0  0  0
 11 12  1  0  0  0  0
 11 16  2  0  0  0  0
 12 13  2  0  0  0  0
 12 43  1  0  0  0  0
 13 14  1  0  0  0  0
 13 44  1  0  0  0  0
 14 15  2  0  0  0  0
 14 20  1  0  0  0  0
 15 16  1  0  0  0  0
 15 17  1  0  0  0  0
 16 45  1  0  0  0  0
 17 18  1  0  0  0  0
 18 19  1  0  0  0  0
 18 46  1  0  0  0  0
 18 47  1  0  0  0  0
 19 20  1  0  0  0  0
 19 48  1  0  0  0  0
 19 49  1  0  0  0  0
 20 21  1  0  0  0  0
 21 22  2  0  0  0  0
 21 23  1  0  0  0  0
 23 50  1  0  0  0  0
 24 26  1  0  0  0  0
 24 25  1  0  0  0  0
 24 23  1  0  0  0  0
 24 51  1  6  0  0  0
 25 52  1  0  0  0  0
 25 53  1  0  0  0  0
 25 54  1  0  0  0  0
 26 27  1  0  0  0  0
 26 31  2  0  0  0  0
 27 28  2  0  0  0  0
 27 55  1  0  0  0  0
 28 29  1  0  0  0  0
 28 56  1  0  0  0  0
 29 30  2  0  0  0  0
 29 57  1  0  0  0  0
 30 31  1  0  0  0  0
 30 58  1  0  0  0  0
 31 59  1  0  0  0  0
 32 33  2  0  0  0  0
 33 34  1  0  0  0  0
 33 60  1  0  0  0  0
 34 35  1  0  0  0  0
 35 36  1  0  0  0  0
 36 61  1  0  0  0  0
 36 62  1  0  0  0  0
 36 63  1  0  0  0  0
M  END
$$$$
