CHEMBL2408614
 OpenBabel04072215363D

 57 63  0  0  1  0  0  0  0  0999 V2000
   17.8711   -2.3485    2.4423 N   0  0  0  0  0  0  0  0  0  0  0  0
   16.7248   -1.8110    1.8863 C   0  0  0  0  0  0  0  0  0  0  0  0
   15.9306   -1.0598    2.6767 N   0  0  0  0  0  0  0  0  0  0  0  0
   14.8037   -0.5190    2.1585 C   0  0  0  0  0  0  0  0  0  0  0  0
   14.3743   -0.6561    0.8367 C   0  0  0  0  0  0  0  0  0  0  0  0
   13.1520   -0.0318    0.3954 C   0  0  0  0  0  0  0  0  0  0  0  0
   11.8796    0.0391    1.0075 C   0  0  0  0  0  0  0  0  0  0  0  0
   10.9734    0.6426    0.2342 N   0  0  0  0  0  0  0  0  0  0  0  0
   11.6641    0.9577   -0.8782 N   0  0  0  0  0  0  0  0  0  0  0  0
   10.9977    1.5613   -2.0298 C   0  0  1  0  0  0  0  0  0  0  0  0
    9.7454    0.7833   -2.4799 C   0  0  0  0  0  0  0  0  0  0  0  0
    9.0039    1.4960   -3.6100 C   0  0  0  0  0  0  0  0  0  0  0  0
    8.6756    2.9374   -3.2306 C   0  0  2  0  0  0  0  0  0  0  0  0
    8.0113    3.5825   -4.3095 O   0  0  0  0  0  0  0  0  0  0  0  0
    9.9406    3.7086   -2.8719 C   0  0  0  0  0  0  0  0  0  0  0  0
   10.6968    3.0352   -1.7349 C   0  0  0  0  0  0  0  0  0  0  0  0
   13.0037    0.7059   -0.7584 C   0  0  0  0  0  0  0  0  0  0  0  0
   15.1836   -1.4532   -0.0123 C   0  0  0  0  0  0  0  0  0  0  0  0
   15.2026   -1.9088   -1.3815 C   0  0  0  0  0  0  0  0  0  0  0  0
   14.1857   -1.6929   -2.4518 C   0  0  0  0  0  0  0  0  0  0  0  0
   12.8324   -1.9370   -2.3322 C   0  0  0  0  0  0  0  0  0  0  0  0
   12.0884   -1.7477   -3.4842 N   0  0  0  0  0  0  0  0  0  0  0  0
   12.8825   -1.3594   -4.4560 C   0  0  0  0  0  0  0  0  0  0  0  0
   14.5278   -1.1290   -4.0377 S   0  0  0  0  0  0  0  0  0  0  0  0
   16.3561   -2.6712   -1.5500 C   0  0  0  0  0  0  0  0  0  0  0  0
   16.9092   -3.4968   -2.6288 C   0  0  0  0  0  0  0  0  0  0  0  0
   16.0778   -4.0712   -3.6133 C   0  0  0  0  0  0  0  0  0  0  0  0
   16.5798   -4.7624   -4.7096 C   0  0  0  0  0  0  0  0  0  0  0  0
   17.9464   -4.9840   -4.8229 C   0  0  0  0  0  0  0  0  0  0  0  0
   18.8147   -4.5122   -3.8173 C   0  0  0  0  0  0  0  0  0  0  0  0
   20.1884   -4.7240   -3.7891 N   0  0  0  0  0  0  0  0  0  0  0  0
   20.7498   -4.1709   -2.7327 N   0  0  0  0  0  0  0  0  0  0  0  0
   19.6615   -3.3559   -1.7714 S   0  0  0  0  0  0  0  0  0  0  0  0
   18.2902   -3.7704   -2.7441 C   0  0  0  0  0  0  0  0  0  0  0  0
   17.0422   -2.7059   -0.3717 O   0  0  0  0  0  0  0  0  0  0  0  0
   16.3434   -1.9898    0.5511 C   0  0  0  0  0  0  0  0  0  0  0  0
   18.1281   -1.8731    3.3009 H   0  0  0  0  0  0  0  0  0  0  0  0
   18.6156   -2.5576    1.7927 H   0  0  0  0  0  0  0  0  0  0  0  0
   14.2326    0.0713    2.8743 H   0  0  0  0  0  0  0  0  0  0  0  0
   11.5664   -0.3434    1.9710 H   0  0  0  0  0  0  0  0  0  0  0  0
   11.7231    1.5157   -2.8546 H   0  0  0  0  0  0  0  0  0  0  0  0
    9.0551    0.6447   -1.6387 H   0  0  0  0  0  0  0  0  0  0  0  0
   10.0243   -0.2229   -2.8128 H   0  0  0  0  0  0  0  0  0  0  0  0
    8.0812    0.9567   -3.8560 H   0  0  0  0  0  0  0  0  0  0  0  0
    9.6085    1.4793   -4.5262 H   0  0  0  0  0  0  0  0  0  0  0  0
    7.9883    2.9433   -2.3766 H   0  0  0  0  0  0  0  0  0  0  0  0
    8.6337    3.6633   -5.0514 H   0  0  0  0  0  0  0  0  0  0  0  0
    9.6902    4.7382   -2.5970 H   0  0  0  0  0  0  0  0  0  0  0  0
   10.5937    3.7871   -3.7552 H   0  0  0  0  0  0  0  0  0  0  0  0
   10.1036    3.1193   -0.8154 H   0  0  0  0  0  0  0  0  0  0  0  0
   11.6345    3.5736   -1.5492 H   0  0  0  0  0  0  0  0  0  0  0  0
   13.6987    0.9903   -1.5359 H   0  0  0  0  0  0  0  0  0  0  0  0
   12.3276   -2.2759   -1.4347 H   0  0  0  0  0  0  0  0  0  0  0  0
   12.5217   -1.1886   -5.4621 H   0  0  0  0  0  0  0  0  0  0  0  0
   14.9965   -3.9774   -3.5429 H   0  0  0  0  0  0  0  0  0  0  0  0
   15.9008   -5.1338   -5.4738 H   0  0  0  0  0  0  0  0  0  0  0  0
   18.3490   -5.5349   -5.6670 H   0  0  0  0  0  0  0  0  0  0  0  0
  1  2  1  0  0  0  0
  1 37  1  0  0  0  0
  1 38  1  0  0  0  0
  2  3  1  0  0  0  0
  2 36  2  0  0  0  0
  3  4  2  0  0  0  0
  4  5  1  0  0  0  0
  4 39  1  0  0  0  0
  5  6  1  0  0  0  0
  5 18  2  0  0  0  0
  6  7  1  0  0  0  0
  6 17  2  0  0  0  0
  7  8  2  0  0  0  0
  7 40  1  0  0  0  0
  8  9  1  0  0  0  0
  9 17  1  0  0  0  0
 10 11  1  0  0  0  0
 10 16  1  0  0  0  0
 10  9  1  0  0  0  0
 10 41  1  6  0  0  0
 11 12  1  0  0  0  0
 11 42  1  0  0  0  0
 11 43  1  0  0  0  0
 12 13  1  0  0  0  0
 12 44  1  0  0  0  0
 12 45  1  0  0  0  0
 13 14  1  0  0  0  0
 13 15  1  0  0  0  0
 13 46  1  1  0  0  0
 14 47  1  0  0  0  0
 15 16  1  0  0  0  0
 15 48  1  0  0  0  0
 15 49  1  0  0  0  0
 16 50  1  0  0  0  0
 16 51  1  0  0  0  0
 17 52  1  0  0  0  0
 18 19  1  0  0  0  0
 18 36  1  0  0  0  0
 19 20  1  0  0  0  0
 19 25  2  0  0  0  0
 20 21  2  0  0  0  0
 20 24  1  0  0  0  0
 21 22  1  0  0  0  0
 21 53  1  0  0  0  0
 22 23  2  0  0  0  0
 23 24  1  0  0  0  0
 23 54  1  0  0  0  0
 25 26  1  0  0  0  0
 25 35  1  0  0  0  0
 26 27  1  0  0  0  0
 26 34  2  0  0  0  0
 27 28  2  0  0  0  0
 27 55  1  0  0  0  0
 28 29  1  0  0  0  0
 28 56  1  0  0  0  0
 29 30  2  0  0  0  0
 29 57  1  0  0  0  0
 30 31  1  0  0  0  0
 30 34  1  0  0  0  0
 31 32  2  0  0  0  0
 32 33  1  0  0  0  0
 33 34  1  0  0  0  0
 35 36  1  0  0  0  0
M  END
$$$$
