CHEMBL3979028
 OpenBabel04072215373D

 58 62  0  0  0  0  0  0  0  0999 V2000
    0.8474   -0.2368   -0.4894 C   0  0  0  0  0  0  0  0  0  0  0  0
    2.1466   -0.6155   -0.0327 O   0  0  0  0  0  0  0  0  0  0  0  0
    2.9558   -1.2864   -0.9122 C   0  0  0  0  0  0  0  0  0  0  0  0
    2.7400   -1.3605   -2.2881 C   0  0  0  0  0  0  0  0  0  0  0  0
    3.6238   -2.0898   -3.0836 C   0  0  0  0  0  0  0  0  0  0  0  0
    3.5055   -2.2454   -4.4417 O   0  0  0  0  0  0  0  0  0  0  0  0
    2.4802   -1.4975   -5.0897 C   0  0  0  0  0  0  0  0  0  0  0  0
    4.7398   -2.7305   -2.5069 C   0  0  0  0  0  0  0  0  0  0  0  0
    5.0448   -2.6118   -1.1448 C   0  0  0  0  0  0  0  0  0  0  0  0
    6.2016   -3.2216   -0.5722 N   0  0  0  0  0  0  0  0  0  0  0  0
    6.6776   -2.6089    0.7286 C   0  0  0  0  0  0  0  0  0  0  0  0
    6.1799   -3.1464    2.0857 C   0  0  0  0  0  0  0  0  0  0  0  0
    5.6346   -4.4059    2.3390 C   0  0  0  0  0  0  0  0  0  0  0  0
    5.4192   -4.7987    3.6621 C   0  0  0  0  0  0  0  0  0  0  0  0
    5.6885   -4.0222    4.7408 N   0  0  0  0  0  0  0  0  0  0  0  0
    6.1946   -2.8057    4.4924 C   0  0  0  0  0  0  0  0  0  0  0  0
    6.4577   -2.3375    3.2102 C   0  0  0  0  0  0  0  0  0  0  0  0
    7.3297   -3.8937   -1.1920 C   0  0  0  0  0  0  0  0  0  0  0  0
    7.8025   -4.9799   -0.4593 C   0  0  0  0  0  0  0  0  0  0  0  0
    9.1301   -5.3514   -0.5363 C   0  0  0  0  0  0  0  0  0  0  0  0
    9.9755   -4.7916   -1.4569 C   0  0  0  0  0  0  0  0  0  0  0  0
   11.2534   -5.1100   -1.2386 N   0  0  0  0  0  0  0  0  0  0  0  0
   12.1184   -4.8146   -2.2097 C   0  0  0  0  0  0  0  0  0  0  0  0
   11.7092   -4.2898   -3.4147 C   0  0  0  0  0  0  0  0  0  0  0  0
   12.6787   -4.4431   -4.5030 C   0  0  0  0  0  0  0  0  0  0  0  0
   12.7790   -5.4614   -5.4942 C   0  0  0  0  0  0  0  0  0  0  0  0
   13.9579   -5.4599   -6.1327 N   0  0  0  0  0  0  0  0  0  0  0  0
   14.6297   -4.4575   -5.5434 N   0  0  0  0  0  0  0  0  0  0  0  0
   15.8496   -3.9437   -6.1224 C   0  0  0  0  0  0  0  0  0  0  0  0
   13.9743   -3.9475   -4.4564 C   0  0  0  0  0  0  0  0  0  0  0  0
   10.4205   -3.8107   -3.5788 N   0  0  0  0  0  0  0  0  0  0  0  0
    9.4991   -4.0035   -2.5165 C   0  0  0  0  0  0  0  0  0  0  0  0
    8.1433   -3.4821   -2.2966 C   0  0  0  0  0  0  0  0  0  0  0  0
    4.0906   -1.9059   -0.3657 C   0  0  0  0  0  0  0  0  0  0  0  0
    0.3362    0.2822    0.3284 H   0  0  0  0  0  0  0  0  0  0  0  0
    0.2517   -1.1188   -0.7487 H   0  0  0  0  0  0  0  0  0  0  0  0
    0.8957    0.4644   -1.3295 H   0  0  0  0  0  0  0  0  0  0  0  0
    1.8924   -0.8568   -2.7323 H   0  0  0  0  0  0  0  0  0  0  0  0
    2.5757   -1.6588   -6.1673 H   0  0  0  0  0  0  0  0  0  0  0  0
    2.5904   -0.4224   -4.9065 H   0  0  0  0  0  0  0  0  0  0  0  0
    1.4874   -1.8475   -4.7867 H   0  0  0  0  0  0  0  0  0  0  0  0
    5.3744   -3.3223   -3.1583 H   0  0  0  0  0  0  0  0  0  0  0  0
    6.5045   -1.5244    0.6937 H   0  0  0  0  0  0  0  0  0  0  0  0
    7.7747   -2.6901    0.7979 H   0  0  0  0  0  0  0  0  0  0  0  0
    5.3927   -5.0997    1.5426 H   0  0  0  0  0  0  0  0  0  0  0  0
    5.0307   -5.7791    3.9100 H   0  0  0  0  0  0  0  0  0  0  0  0
    6.4171   -2.1988    5.3646 H   0  0  0  0  0  0  0  0  0  0  0  0
    6.8926   -1.3514    3.0974 H   0  0  0  0  0  0  0  0  0  0  0  0
    7.1879   -5.4548    0.2946 H   0  0  0  0  0  0  0  0  0  0  0  0
    9.5209   -6.0664    0.1661 H   0  0  0  0  0  0  0  0  0  0  0  0
   13.1451   -5.0965   -2.0102 H   0  0  0  0  0  0  0  0  0  0  0  0
   12.0668   -6.2366   -5.7497 H   0  0  0  0  0  0  0  0  0  0  0  0
   16.0630   -4.4576   -7.0637 H   0  0  0  0  0  0  0  0  0  0  0  0
   16.6761   -4.0773   -5.4203 H   0  0  0  0  0  0  0  0  0  0  0  0
   15.6881   -2.8800   -6.3193 H   0  0  0  0  0  0  0  0  0  0  0  0
   14.4746   -3.2787   -3.7702 H   0  0  0  0  0  0  0  0  0  0  0  0
    7.7776   -2.7152   -2.9809 H   0  0  0  0  0  0  0  0  0  0  0  0
    4.1921   -1.8327    0.7144 H   0  0  0  0  0  0  0  0  0  0  0  0
  1  2  1  0  0  0  0
  1 35  1  0  0  0  0
  1 36  1  0  0  0  0
  1 37  1  0  0  0  0
  2  3  1  0  0  0  0
  3  4  1  0  0  0  0
  3 34  2  0  0  0  0
  4  5  2  0  0  0  0
  4 38  1  0  0  0  0
  5  6  1  0  0  0  0
  5  8  1  0  0  0  0
  6  7  1  0  0  0  0
  7 39  1  0  0  0  0
  7 40  1  0  0  0  0
  7 41  1  0  0  0  0
  8  9  2  0  0  0  0
  8 42  1  0  0  0  0
  9 10  1  0  0  0  0
  9 34  1  0  0  0  0
 10 11  1  0  0  0  0
 10 18  1  0  0  0  0
 11 12  1  0  0  0  0
 11 43  1  0  0  0  0
 11 44  1  0  0  0  0
 12 13  1  0  0  0  0
 12 17  2  0  0  0  0
 13 14  2  0  0  0  0
 13 45  1  0  0  0  0
 14 15  1  0  0  0  0
 14 46  1  0  0  0  0
 15 16  2  0  0  0  0
 16 17  1  0  0  0  0
 16 47  1  0  0  0  0
 17 48  1  0  0  0  0
 18 19  1  0  0  0  0
 18 33  2  0  0  0  0
 19 20  2  0  0  0  0
 19 49  1  0  0  0  0
 20 21  1  0  0  0  0
 20 50  1  0  0  0  0
 21 22  1  0  0  0  0
 21 32  2  0  0  0  0
 22 23  2  0  0  0  0
 23 24  1  0  0  0  0
 23 51  1  0  0  0  0
 24 25  1  0  0  0  0
 24 31  2  0  0  0  0
 25 26  1  0  0  0  0
 25 30  2  0  0  0  0
 26 27  2  0  0  0  0
 26 52  1  0  0  0  0
 27 28  1  0  0  0  0
 28 29  1  0  0  0  0
 28 30  1  0  0  0  0
 29 53  1  0  0  0  0
 29 54  1  0  0  0  0
 29 55  1  0  0  0  0
 30 56  1  0  0  0  0
 31 32  1  0  0  0  0
 32 33  1  0  0  0  0
 33 57  1  0  0  0  0
 34 58  1  0  0  0  0
M  END
$$$$
