CHEMBL233454
 OpenBabel04072215363D

 48 51  0  0  0  0  0  0  0  0999 V2000
    3.3014   -3.7271   -6.1022 N   0  0  0  0  0  0  0  0  0  0  0  0
    3.2677   -3.1365   -5.0995 C   0  0  0  0  0  0  0  0  0  0  0  0
    3.2304   -2.3723   -3.9107 C   0  0  0  0  0  0  0  0  0  0  0  0
    3.9635   -1.2222   -3.8673 C   0  0  0  0  0  0  0  0  0  0  0  0
    4.0517   -0.4588   -2.7779 N   0  0  0  0  0  0  0  0  0  0  0  0
    3.4090   -0.8405   -1.6699 C   0  0  0  0  0  0  0  0  0  0  0  0
    3.5549   -0.0841   -0.5115 N   0  0  0  0  0  0  0  0  0  0  0  0
    4.3255    1.0742   -0.3285 C   0  0  0  0  0  0  0  0  0  0  0  0
    3.8906    2.0477    0.5677 C   0  0  0  0  0  0  0  0  0  0  0  0
    4.5293    3.2904    0.6369 C   0  0  0  0  0  0  0  0  0  0  0  0
    5.6929    3.5552   -0.1006 C   0  0  0  0  0  0  0  0  0  0  0  0
    6.3962    4.8883    0.0324 C   0  0  0  0  0  0  0  0  0  0  0  0
    7.3848    5.0566    1.1024 N   0  0  0  0  0  0  0  0  0  0  0  0
    8.5609    4.1948    1.0449 C   0  0  0  0  0  0  0  0  0  0  0  0
    8.3048    3.0981    2.0600 C   0  0  0  0  0  0  0  0  0  0  0  0
    7.5098    3.7952    3.1486 C   0  0  0  0  0  0  0  0  0  0  0  0
    6.8848    5.0145    2.4758 C   0  0  0  0  0  0  0  0  0  0  0  0
    6.1481    2.5756   -0.9838 C   0  0  0  0  0  0  0  0  0  0  0  0
    5.4658    1.3593   -1.0971 C   0  0  0  0  0  0  0  0  0  0  0  0
    2.6233   -1.9243   -1.6316 N   0  0  0  0  0  0  0  0  0  0  0  0
    2.5390   -2.6981   -2.7475 C   0  0  0  0  0  0  0  0  0  0  0  0
    1.7106   -3.9152   -2.5947 C   0  0  0  0  0  0  0  0  0  0  0  0
    0.9743   -4.4700   -3.6570 C   0  0  0  0  0  0  0  0  0  0  0  0
    0.2797   -5.6718   -3.5201 C   0  0  0  0  0  0  0  0  0  0  0  0
    0.2597   -6.3236   -2.2949 C   0  0  0  0  0  0  0  0  0  0  0  0
    0.9356   -5.7770   -1.2085 C   0  0  0  0  0  0  0  0  0  0  0  0
    1.6535   -4.5867   -1.3573 C   0  0  0  0  0  0  0  0  0  0  0  0
    4.5413   -0.8683   -4.7157 H   0  0  0  0  0  0  0  0  0  0  0  0
    2.8406   -0.2990    0.1673 H   0  0  0  0  0  0  0  0  0  0  0  0
    3.0217    1.8702    1.1955 H   0  0  0  0  0  0  0  0  0  0  0  0
    4.0883    4.0698    1.2500 H   0  0  0  0  0  0  0  0  0  0  0  0
    5.6281    5.6657    0.1402 H   0  0  0  0  0  0  0  0  0  0  0  0
    6.8791    5.1268   -0.9257 H   0  0  0  0  0  0  0  0  0  0  0  0
    9.4259    4.7868    1.3722 H   0  0  0  0  0  0  0  0  0  0  0  0
    8.7984    3.8133    0.0476 H   0  0  0  0  0  0  0  0  0  0  0  0
    9.2329    2.6651    2.4467 H   0  0  0  0  0  0  0  0  0  0  0  0
    7.7137    2.2874    1.6221 H   0  0  0  0  0  0  0  0  0  0  0  0
    8.1806    4.1137    3.9562 H   0  0  0  0  0  0  0  0  0  0  0  0
    6.7582    3.1280    3.5825 H   0  0  0  0  0  0  0  0  0  0  0  0
    7.2320    5.9165    2.9951 H   0  0  0  0  0  0  0  0  0  0  0  0
    5.7945    5.0167    2.5634 H   0  0  0  0  0  0  0  0  0  0  0  0
    7.0131    2.7481   -1.6217 H   0  0  0  0  0  0  0  0  0  0  0  0
    5.8457    0.6398   -1.8171 H   0  0  0  0  0  0  0  0  0  0  0  0
    0.9259   -3.9872   -4.6298 H   0  0  0  0  0  0  0  0  0  0  0  0
   -0.2389   -6.0906   -4.3791 H   0  0  0  0  0  0  0  0  0  0  0  0
   -0.2874   -7.2564   -2.1877 H   0  0  0  0  0  0  0  0  0  0  0  0
    0.9161   -6.2809   -0.2455 H   0  0  0  0  0  0  0  0  0  0  0  0
    2.1875   -4.1902   -0.4943 H   0  0  0  0  0  0  0  0  0  0  0  0
  1  2  3  0  0  0  0
  2  3  1  0  0  0  0
  3  4  1  0  0  0  0
  3 21  2  0  0  0  0
  4  5  2  0  0  0  0
  4 28  1  0  0  0  0
  5  6  1  0  0  0  0
  6  7  1  0  0  0  0
  6 20  2  0  0  0  0
  7  8  1  0  0  0  0
  7 29  1  0  0  0  0
  8  9  1  0  0  0  0
  8 19  2  0  0  0  0
  9 10  2  0  0  0  0
  9 30  1  0  0  0  0
 10 11  1  0  0  0  0
 10 31  1  0  0  0  0
 11 12  1  0  0  0  0
 11 18  2  0  0  0  0
 12 13  1  0  0  0  0
 12 32  1  0  0  0  0
 12 33  1  0  0  0  0
 13 14  1  0  0  0  0
 13 17  1  0  0  0  0
 14 15  1  0  0  0  0
 14 34  1  0  0  0  0
 14 35  1  0  0  0  0
 15 16  1  0  0  0  0
 15 36  1  0  0  0  0
 15 37  1  0  0  0  0
 16 17  1  0  0  0  0
 16 38  1  0  0  0  0
 16 39  1  0  0  0  0
 17 40  1  0  0  0  0
 17 41  1  0  0  0  0
 18 19  1  0  0  0  0
 18 42  1  0  0  0  0
 19 43  1  0  0  0  0
 20 21  1  0  0  0  0
 21 22  1  0  0  0  0
 22 23  1  0  0  0  0
 22 27  2  0  0  0  0
 23 24  2  0  0  0  0
 23 44  1  0  0  0  0
 24 25  1  0  0  0  0
 24 45  1  0  0  0  0
 25 26  2  0  0  0  0
 25 46  1  0  0  0  0
 26 27  1  0  0  0  0
 26 47  1  0  0  0  0
 27 48  1  0  0  0  0
M  END
$$$$
