CHEMBL3633684
 OpenBabel04072215373D

 46 50  0  0  0  0  0  0  0  0999 V2000
   -1.0767    2.1299   -3.1953 N   0  0  0  0  0  0  0  0  0  0  0  0
   -1.3340    1.0129   -2.5063 C   0  0  0  0  0  0  0  0  0  0  0  0
   -1.7032   -0.0910   -3.1533 N   0  0  0  0  0  0  0  0  0  0  0  0
   -1.8793   -0.9893   -2.1763 N   0  0  0  0  0  0  0  0  0  0  0  0
   -1.6370   -0.5116   -0.9176 C   0  0  0  0  0  0  0  0  0  0  0  0
   -1.7252   -1.1636    0.3151 C   0  0  0  0  0  0  0  0  0  0  0  0
   -1.3923   -0.4285    1.4460 C   0  0  0  0  0  0  0  0  0  0  0  0
   -0.9923    0.9071    1.3360 C   0  0  0  0  0  0  0  0  0  0  0  0
   -0.9047    1.5736    0.0884 C   0  0  0  0  0  0  0  0  0  0  0  0
   -0.4476    2.9776    0.0284 C   0  0  0  0  0  0  0  0  0  0  0  0
    0.4755    3.3890   -0.9343 C   0  0  0  0  0  0  0  0  0  0  0  0
    0.8470    4.7265   -1.0745 C   0  0  0  0  0  0  0  0  0  0  0  0
    0.3720    5.7046   -0.2017 C   0  0  0  0  0  0  0  0  0  0  0  0
    0.7428    7.0660   -0.3108 N   0  0  0  0  0  0  0  0  0  0  0  0
    1.3826    7.6271   -1.4062 C   0  0  0  0  0  0  0  0  0  0  0  0
    1.5589    7.0607   -2.4795 O   0  0  0  0  0  0  0  0  0  0  0  0
    1.8582    8.9051   -1.1359 N   0  0  0  0  0  0  0  0  0  0  0  0
    2.6072    9.6046   -2.1162 C   0  0  0  0  0  0  0  0  0  0  0  0
    2.2037    9.6219   -3.4701 C   0  0  0  0  0  0  0  0  0  0  0  0
    2.9926   10.2276   -4.4515 C   0  0  0  0  0  0  0  0  0  0  0  0
    4.1716   10.8077   -4.0465 C   0  0  0  0  0  0  0  0  0  0  0  0
    4.5589   10.8143   -2.7259 C   0  0  0  0  0  0  0  0  0  0  0  0
    3.7911   10.2406   -1.7311 C   0  0  0  0  0  0  0  0  0  0  0  0
    5.7667   11.4158   -2.5467 O   0  0  0  0  0  0  0  0  0  0  0  0
    6.0577   11.8454   -3.8940 C   0  0  0  0  0  0  0  0  0  0  0  0
    5.0765   11.4154   -4.8584 O   0  0  0  0  0  0  0  0  0  0  0  0
   -0.4660    5.3010    0.8397 C   0  0  0  0  0  0  0  0  0  0  0  0
   -0.8803    3.9579    0.9424 C   0  0  0  0  0  0  0  0  0  0  0  0
   -1.2532    0.8229   -1.0804 C   0  0  0  0  0  0  0  0  0  0  0  0
   -1.2886    2.1197   -4.1855 H   0  0  0  0  0  0  0  0  0  0  0  0
   -1.1394    3.0473   -2.7688 H   0  0  0  0  0  0  0  0  0  0  0  0
   -2.1697   -1.9223   -2.4399 H   0  0  0  0  0  0  0  0  0  0  0  0
   -2.0259   -2.2039    0.3889 H   0  0  0  0  0  0  0  0  0  0  0  0
   -1.4339   -0.9016    2.4241 H   0  0  0  0  0  0  0  0  0  0  0  0
   -0.7108    1.4246    2.2502 H   0  0  0  0  0  0  0  0  0  0  0  0
    0.9115    2.6687   -1.6258 H   0  0  0  0  0  0  0  0  0  0  0  0
    1.5198    4.9570   -1.8925 H   0  0  0  0  0  0  0  0  0  0  0  0
    0.3676    7.7092    0.3721 H   0  0  0  0  0  0  0  0  0  0  0  0
    2.1311    9.0527   -0.1749 H   0  0  0  0  0  0  0  0  0  0  0  0
    1.2743    9.1425   -3.7729 H   0  0  0  0  0  0  0  0  0  0  0  0
    2.6951   10.2207   -5.4937 H   0  0  0  0  0  0  0  0  0  0  0  0
    4.1465   10.2316   -0.7085 H   0  0  0  0  0  0  0  0  0  0  0  0
    7.0382   11.4546   -4.1892 H   0  0  0  0  0  0  0  0  0  0  0  0
    6.0975   12.9405   -3.9047 H   0  0  0  0  0  0  0  0  0  0  0  0
   -0.8283    6.0158    1.5749 H   0  0  0  0  0  0  0  0  0  0  0  0
   -1.5591    3.6890    1.7499 H   0  0  0  0  0  0  0  0  0  0  0  0
  1  2  1  0  0  0  0
  1 30  1  0  0  0  0
  1 31  1  0  0  0  0
  2  3  2  0  0  0  0
  2 29  1  0  0  0  0
  3  4  1  0  0  0  0
  4  5  1  0  0  0  0
  4 32  1  0  0  0  0
  5  6  1  0  0  0  0
  5 29  2  0  0  0  0
  6  7  2  0  0  0  0
  6 33  1  0  0  0  0
  7  8  1  0  0  0  0
  7 34  1  0  0  0  0
  8  9  2  0  0  0  0
  8 35  1  0  0  0  0
  9 10  1  0  0  0  0
  9 29  1  0  0  0  0
 10 11  1  0  0  0  0
 10 28  2  0  0  0  0
 11 12  2  0  0  0  0
 11 36  1  0  0  0  0
 12 13  1  0  0  0  0
 12 37  1  0  0  0  0
 13 14  1  0  0  0  0
 13 27  2  0  0  0  0
 14 15  1  0  0  0  0
 14 38  1  0  0  0  0
 15 16  2  0  0  0  0
 15 17  1  0  0  0  0
 17 18  1  0  0  0  0
 17 39  1  0  0  0  0
 18 19  1  0  0  0  0
 18 23  2  0  0  0  0
 19 20  2  0  0  0  0
 19 40  1  0  0  0  0
 20 21  1  0  0  0  0
 20 41  1  0  0  0  0
 21 22  2  0  0  0  0
 21 26  1  0  0  0  0
 22 23  1  0  0  0  0
 22 24  1  0  0  0  0
 23 42  1  0  0  0  0
 24 25  1  0  0  0  0
 25 26  1  0  0  0  0
 25 43  1  0  0  0  0
 25 44  1  0  0  0  0
 27 28  1  0  0  0  0
 27 45  1  0  0  0  0
 28 46  1  0  0  0  0
M  END
$$$$
