CHEMBL173856
 OpenBabel04072215363D

 56 60  0  0  0  0  0  0  0  0999 V2000
    0.4664   -0.0728   -1.2421 N   0  0  0  0  0  0  0  0  0  0  0  0
    1.7633   -0.4637   -1.2439 C   0  0  0  0  0  0  0  0  0  0  0  0
    2.0820   -1.4753   -0.6273 O   0  0  0  0  0  0  0  0  0  0  0  0
    2.6308    0.3183   -1.9548 N   0  0  0  0  0  0  0  0  0  0  0  0
    2.3065    1.5995   -2.5854 C   0  0  0  0  0  0  0  0  0  0  0  0
    2.8298    1.6186   -4.0323 C   0  0  0  0  0  0  0  0  0  0  0  0
    4.2852    1.3708   -4.1438 N   0  0  0  0  0  0  0  0  0  0  0  0
    5.1205    2.4223   -3.5275 C   0  0  0  0  0  0  0  0  0  0  0  0
    4.9431    3.8134   -4.0987 C   0  0  0  0  0  0  0  0  0  0  0  0
    3.9807    4.6900   -3.5713 C   0  0  0  0  0  0  0  0  0  0  0  0
    3.8082    5.9659   -4.1027 C   0  0  0  0  0  0  0  0  0  0  0  0
    4.6322    6.4028   -5.1414 C   0  0  0  0  0  0  0  0  0  0  0  0
    4.4432    7.7421   -5.7078 C   0  0  0  0  0  0  0  0  0  0  0  0
    3.5789    7.9683   -6.8611 C   0  0  0  0  0  0  0  0  0  0  0  0
    3.4385    9.2102   -7.3436 C   0  0  0  0  0  0  0  0  0  0  0  0
    4.0778   10.2824   -6.7097 N   0  0  0  0  0  0  0  0  0  0  0  0
    4.0263   11.6503   -6.9492 C   0  0  0  0  0  0  0  0  0  0  0  0
    3.1911   12.3538   -7.9309 C   0  0  0  0  0  0  0  0  0  0  0  0
    1.9141   11.8951   -8.2849 C   0  0  0  0  0  0  0  0  0  0  0  0
    1.1215   12.5904   -9.2000 C   0  0  0  0  0  0  0  0  0  0  0  0
    1.5734   13.7891   -9.7378 C   0  0  0  0  0  0  0  0  0  0  0  0
    2.8271   14.2781   -9.3817 C   0  0  0  0  0  0  0  0  0  0  0  0
    3.6352   13.5598   -8.4935 C   0  0  0  0  0  0  0  0  0  0  0  0
    4.9210   12.1809   -6.0299 C   0  0  0  0  0  0  0  0  0  0  0  0
    5.4740   11.2238   -5.2210 N   0  0  0  0  0  0  0  0  0  0  0  0
    4.9327   10.0935   -5.6262 C   0  0  0  0  0  0  0  0  0  0  0  0
    5.1033    8.7710   -5.1329 C   0  0  0  0  0  0  0  0  0  0  0  0
    5.6168    5.5522   -5.6528 C   0  0  0  0  0  0  0  0  0  0  0  0
    5.7615    4.2605   -5.1444 C   0  0  0  0  0  0  0  0  0  0  0  0
    4.5675    0.0604   -3.4927 C   0  0  0  0  0  0  0  0  0  0  0  0
    4.0428   -0.0657   -2.0421 C   0  0  0  0  0  0  0  0  0  0  0  0
   -0.1318   -0.7462   -0.7838 H   0  0  0  0  0  0  0  0  0  0  0  0
    0.0914    0.2614   -2.1178 H   0  0  0  0  0  0  0  0  0  0  0  0
    2.7731    2.3796   -1.9758 H   0  0  0  0  0  0  0  0  0  0  0  0
    1.2354    1.8102   -2.5813 H   0  0  0  0  0  0  0  0  0  0  0  0
    2.5419    2.5443   -4.5394 H   0  0  0  0  0  0  0  0  0  0  0  0
    2.3107    0.8243   -4.5897 H   0  0  0  0  0  0  0  0  0  0  0  0
    6.1734    2.1445   -3.6716 H   0  0  0  0  0  0  0  0  0  0  0  0
    4.9877    2.4841   -2.4419 H   0  0  0  0  0  0  0  0  0  0  0  0
    3.3509    4.3896   -2.7393 H   0  0  0  0  0  0  0  0  0  0  0  0
    3.0356    6.6165   -3.6995 H   0  0  0  0  0  0  0  0  0  0  0  0
    3.0701    7.1237   -7.3126 H   0  0  0  0  0  0  0  0  0  0  0  0
    2.8356    9.4077   -8.2183 H   0  0  0  0  0  0  0  0  0  0  0  0
    1.4899   11.0036   -7.8357 H   0  0  0  0  0  0  0  0  0  0  0  0
    0.1435   12.2011   -9.4701 H   0  0  0  0  0  0  0  0  0  0  0  0
    0.9422   14.3486  -10.4225 H   0  0  0  0  0  0  0  0  0  0  0  0
    3.1767   15.2236   -9.7871 H   0  0  0  0  0  0  0  0  0  0  0  0
    4.6130   13.9641   -8.2417 H   0  0  0  0  0  0  0  0  0  0  0  0
    5.1766   13.2211   -5.8887 H   0  0  0  0  0  0  0  0  0  0  0  0
    5.7626    8.6314   -4.2830 H   0  0  0  0  0  0  0  0  0  0  0  0
    6.2752    5.8917   -6.4496 H   0  0  0  0  0  0  0  0  0  0  0  0
    6.5275    3.6089   -5.5581 H   0  0  0  0  0  0  0  0  0  0  0  0
    5.6416   -0.1567   -3.5256 H   0  0  0  0  0  0  0  0  0  0  0  0
    4.0887   -0.7225   -4.0973 H   0  0  0  0  0  0  0  0  0  0  0  0
    4.6049    0.5915   -1.3678 H   0  0  0  0  0  0  0  0  0  0  0  0
    4.1940   -1.0899   -1.6865 H   0  0  0  0  0  0  0  0  0  0  0  0
  1  2  1  0  0  0  0
  1 32  1  0  0  0  0
  1 33  1  0  0  0  0
  2  3  2  0  0  0  0
  2  4  1  0  0  0  0
  4  5  1  0  0  0  0
  4 31  1  0  0  0  0
  5  6  1  0  0  0  0
  5 34  1  0  0  0  0
  5 35  1  0  0  0  0
  6  7  1  0  0  0  0
  6 36  1  0  0  0  0
  6 37  1  0  0  0  0
  7  8  1  0  0  0  0
  7 30  1  0  0  0  0
  8  9  1  0  0  0  0
  8 38  1  0  0  0  0
  8 39  1  0  0  0  0
  9 10  1  0  0  0  0
  9 29  2  0  0  0  0
 10 11  2  0  0  0  0
 10 40  1  0  0  0  0
 11 12  1  0  0  0  0
 11 41  1  0  0  0  0
 12 13  1  0  0  0  0
 12 28  2  0  0  0  0
 13 14  1  0  0  0  0
 13 27  2  0  0  0  0
 14 15  2  0  0  0  0
 14 42  1  0  0  0  0
 15 16  1  0  0  0  0
 15 43  1  0  0  0  0
 16 17  1  0  0  0  0
 16 26  1  0  0  0  0
 17 18  1  0  0  0  0
 17 24  2  0  0  0  0
 18 19  1  0  0  0  0
 18 23  2  0  0  0  0
 19 20  2  0  0  0  0
 19 44  1  0  0  0  0
 20 21  1  0  0  0  0
 20 45  1  0  0  0  0
 21 22  2  0  0  0  0
 21 46  1  0  0  0  0
 22 23  1  0  0  0  0
 22 47  1  0  0  0  0
 23 48  1  0  0  0  0
 24 25  1  0  0  0  0
 24 49  1  0  0  0  0
 25 26  2  0  0  0  0
 26 27  1  0  0  0  0
 27 50  1  0  0  0  0
 28 29  1  0  0  0  0
 28 51  1  0  0  0  0
 29 52  1  0  0  0  0
 30 31  1  0  0  0  0
 30 53  1  0  0  0  0
 30 54  1  0  0  0  0
 31 55  1  0  0  0  0
 31 56  1  0  0  0  0
M  END
$$$$
