CHEMBL259084
 OpenBabel04072215363D

 49 53  0  0  0  0  0  0  0  0999 V2000
    9.5043    1.5820   -7.1093 O   0  0  0  0  0  0  0  0  0  0  0  0
    8.5444    1.0815   -6.5313 C   0  0  0  0  0  0  0  0  0  0  0  0
    8.2271   -0.2278   -6.6364 O   0  0  0  0  0  0  0  0  0  0  0  0
    7.6092    1.8547   -5.6877 C   0  0  0  0  0  0  0  0  0  0  0  0
    7.3186    3.1666   -6.0700 C   0  0  0  0  0  0  0  0  0  0  0  0
    6.5039    3.9704   -5.2717 C   0  0  0  0  0  0  0  0  0  0  0  0
    5.9997    3.4977   -4.0550 C   0  0  0  0  0  0  0  0  0  0  0  0
    5.2450    4.3004   -3.2010 N   0  0  0  0  0  0  0  0  0  0  0  0
    4.6126    5.5338   -3.3537 C   0  0  0  0  0  0  0  0  0  0  0  0
    4.1744    6.0629   -2.1979 N   0  0  0  0  0  0  0  0  0  0  0  0
    3.2486    7.0334   -2.2789 C   0  0  0  0  0  0  0  0  0  0  0  0
    2.7531    7.4730   -3.4743 C   0  0  0  0  0  0  0  0  0  0  0  0
    3.3998    7.0222   -4.6059 C   0  0  0  0  0  0  0  0  0  0  0  0
    4.3397    6.0538   -4.5663 N   0  0  0  0  0  0  0  0  0  0  0  0
    2.9434    7.5100   -5.9156 C   0  0  0  0  0  0  0  0  0  0  0  0
    3.7253    8.4172   -6.6561 C   0  0  0  0  0  0  0  0  0  0  0  0
    3.2093    9.0406   -7.7999 C   0  0  0  0  0  0  0  0  0  0  0  0
    1.9351    8.7164   -8.2590 C   0  0  0  0  0  0  0  0  0  0  0  0
    1.2991    9.4855   -9.6601 Cl  0  0  0  0  0  0  0  0  0  0  0  0
    1.1353    7.8360   -7.5433 C   0  0  0  0  0  0  0  0  0  0  0  0
    1.6177    7.2889   -6.3444 C   0  0  0  0  0  0  0  0  0  0  0  0
    0.5943    6.7292   -5.3967 C   0  0  0  0  0  0  0  0  0  0  0  0
   -0.3885    5.7282   -5.9161 C   0  0  0  0  0  0  0  0  0  0  0  0
   -0.0610    4.8172   -6.9239 C   0  0  0  0  0  0  0  0  0  0  0  0
    1.1898    4.7213   -7.3928 F   0  0  0  0  0  0  0  0  0  0  0  0
   -1.0330    3.9896   -7.4921 C   0  0  0  0  0  0  0  0  0  0  0  0
   -2.3477    4.0459   -7.0387 C   0  0  0  0  0  0  0  0  0  0  0  0
   -2.6778    4.9139   -5.9995 C   0  0  0  0  0  0  0  0  0  0  0  0
   -1.7039    5.7446   -5.4436 C   0  0  0  0  0  0  0  0  0  0  0  0
   -2.0956    6.5942   -4.4850 F   0  0  0  0  0  0  0  0  0  0  0  0
    0.4727    7.1461   -4.1733 N   0  0  0  0  0  0  0  0  0  0  0  0
    1.4191    8.1347   -3.6234 C   0  0  0  0  0  0  0  0  0  0  0  0
    6.2486    2.1615   -3.7116 C   0  0  0  0  0  0  0  0  0  0  0  0
    7.0602    1.3402   -4.5141 C   0  0  0  0  0  0  0  0  0  0  0  0
    7.3440   -0.4549   -6.2891 H   0  0  0  0  0  0  0  0  0  0  0  0
    7.7438    3.5854   -6.9852 H   0  0  0  0  0  0  0  0  0  0  0  0
    6.3108    4.9885   -5.5889 H   0  0  0  0  0  0  0  0  0  0  0  0
    5.2020    4.0322   -2.2286 H   0  0  0  0  0  0  0  0  0  0  0  0
    2.8565    7.3816   -1.3293 H   0  0  0  0  0  0  0  0  0  0  0  0
    4.7075    8.7102   -6.2909 H   0  0  0  0  0  0  0  0  0  0  0  0
    3.7930    9.8050   -8.3081 H   0  0  0  0  0  0  0  0  0  0  0  0
    0.1177    7.6505   -7.8746 H   0  0  0  0  0  0  0  0  0  0  0  0
   -0.7562    3.3116   -8.2984 H   0  0  0  0  0  0  0  0  0  0  0  0
   -3.1146    3.4195   -7.4899 H   0  0  0  0  0  0  0  0  0  0  0  0
   -3.6955    4.9701   -5.6251 H   0  0  0  0  0  0  0  0  0  0  0  0
    1.0497    8.4698   -2.6477 H   0  0  0  0  0  0  0  0  0  0  0  0
    1.4748    9.0376   -4.2434 H   0  0  0  0  0  0  0  0  0  0  0  0
    5.8257    1.7433   -2.7972 H   0  0  0  0  0  0  0  0  0  0  0  0
    7.2810    0.3319   -4.1796 H   0  0  0  0  0  0  0  0  0  0  0  0
  1  2  2  0  0  0  0
  2  3  1  0  0  0  0
  2  4  1  0  0  0  0
  3 35  1  0  0  0  0
  4  5  1  0  0  0  0
  4 34  2  0  0  0  0
  5  6  2  0  0  0  0
  5 36  1  0  0  0  0
  6  7  1  0  0  0  0
  6 37  1  0  0  0  0
  7  8  1  0  0  0  0
  7 33  2  0  0  0  0
  8  9  1  0  0  0  0
  8 38  1  0  0  0  0
  9 10  1  0  0  0  0
  9 14  2  0  0  0  0
 10 11  2  0  0  0  0
 11 12  1  0  0  0  0
 11 39  1  0  0  0  0
 12 13  2  0  0  0  0
 12 32  1  0  0  0  0
 13 14  1  0  0  0  0
 13 15  1  0  0  0  0
 15 16  1  0  0  0  0
 15 21  2  0  0  0  0
 16 17  2  0  0  0  0
 16 40  1  0  0  0  0
 17 18  1  0  0  0  0
 17 41  1  0  0  0  0
 18 19  1  0  0  0  0
 18 20  2  0  0  0  0
 20 21  1  0  0  0  0
 20 42  1  0  0  0  0
 21 22  1  0  0  0  0
 22 23  1  0  0  0  0
 22 31  2  0  0  0  0
 23 24  1  0  0  0  0
 23 29  2  0  0  0  0
 24 25  1  0  0  0  0
 24 26  2  0  0  0  0
 26 27  1  0  0  0  0
 26 43  1  0  0  0  0
 27 28  2  0  0  0  0
 27 44  1  0  0  0  0
 28 29  1  0  0  0  0
 28 45  1  0  0  0  0
 29 30  1  0  0  0  0
 31 32  1  0  0  0  0
 32 46  1  0  0  0  0
 32 47  1  0  0  0  0
 33 34  1  0  0  0  0
 33 48  1  0  0  0  0
 34 49  1  0  0  0  0
M  END
$$$$
