CHEMBL1969523
 OpenBabel04072215363D

 53 55  0  0  1  0  0  0  0  0999 V2000
    1.1824    0.2180    1.4297 C   0  0  0  0  0  0  0  0  0  0  0  0
   -0.2449   -0.2388    1.4430 C   0  0  0  0  0  0  0  0  0  0  0  0
   -1.2321    0.5103    2.0935 C   0  0  0  0  0  0  0  0  0  0  0  0
   -2.5578    0.0836    2.0873 C   0  0  0  0  0  0  0  0  0  0  0  0
   -2.9105   -1.0814    1.4075 C   0  0  0  0  0  0  0  0  0  0  0  0
   -1.9482   -1.8281    0.7147 C   0  0  0  0  0  0  0  0  0  0  0  0
   -2.2724   -3.0112    0.0207 N   0  0  0  0  0  0  0  0  0  0  0  0
   -3.5006   -3.2719   -0.5971 C   0  0  0  0  0  0  0  0  0  0  0  0
   -3.9373   -4.5366   -0.5612 N   0  0  0  0  0  0  0  0  0  0  0  0
   -5.1384   -4.7712   -1.1183 C   0  0  0  0  0  0  0  0  0  0  0  0
   -5.9109   -3.7965   -1.7007 C   0  0  0  0  0  0  0  0  0  0  0  0
   -5.3787   -2.5264   -1.6985 C   0  0  0  0  0  0  0  0  0  0  0  0
   -6.0526   -1.3997   -2.2332 N   0  0  0  0  0  0  0  0  0  0  0  0
   -7.3569   -1.2489   -2.1761 C   0  0  0  0  0  0  0  0  0  0  0  0
   -8.3050   -0.7379   -1.3264 C   0  0  0  0  0  0  0  0  0  0  0  0
   -8.4198   -0.1366   -0.1526 N   0  0  0  0  0  0  0  0  0  0  0  0
   -7.7466    1.1351    0.1979 C   0  0  3  0  0  0  0  0  0  0  0  0
   -8.2238    2.2335   -0.7672 C   0  0  0  0  0  0  0  0  0  0  0  0
   -8.0163    1.4894    1.7125 C   0  0  0  0  0  0  0  0  0  0  0  0
   -7.4505    0.3734    2.6146 C   0  0  0  0  0  0  0  0  0  0  0  0
   -7.3047    2.8033    2.1044 C   0  0  0  0  0  0  0  0  0  0  0  0
   -9.5182    1.6664    2.0347 C   0  0  0  0  0  0  0  0  0  0  0  0
   -9.4120   -1.2004   -2.1999 C   0  0  0  0  0  0  0  0  0  0  0  0
  -10.6163   -1.1600   -2.2250 O   0  0  0  0  0  0  0  0  0  0  0  0
   -8.3903   -1.7469   -3.1191 C   0  0  0  0  0  0  0  0  0  0  0  0
   -8.4698   -2.3635   -4.1535 O   0  0  0  0  0  0  0  0  0  0  0  0
   -4.1846   -2.2596   -1.1655 N   0  0  0  0  0  0  0  0  0  0  0  0
   -0.6099   -1.4207    0.7803 C   0  0  0  0  0  0  0  0  0  0  0  0
    1.3015    1.1714    1.9551 H   0  0  0  0  0  0  0  0  0  0  0  0
    1.5211    0.3623    0.3987 H   0  0  0  0  0  0  0  0  0  0  0  0
    1.8223   -0.5212    1.9212 H   0  0  0  0  0  0  0  0  0  0  0  0
   -0.9741    1.4326    2.6082 H   0  0  0  0  0  0  0  0  0  0  0  0
   -3.3199    0.6600    2.6038 H   0  0  0  0  0  0  0  0  0  0  0  0
   -3.9506   -1.3973    1.4180 H   0  0  0  0  0  0  0  0  0  0  0  0
   -2.0119   -3.8493    0.5268 H   0  0  0  0  0  0  0  0  0  0  0  0
   -5.4764   -5.8027   -1.0753 H   0  0  0  0  0  0  0  0  0  0  0  0
   -6.8762   -4.0347   -2.1242 H   0  0  0  0  0  0  0  0  0  0  0  0
   -5.4468   -0.6418   -1.9102 H   0  0  0  0  0  0  0  0  0  0  0  0
   -9.3447   -0.1740    0.2750 H   0  0  0  0  0  0  0  0  0  0  0  0
   -6.6640    1.0108    0.0612 H   0  0  0  0  0  0  0  0  0  0  0  0
   -9.3061    2.3866   -0.7054 H   0  0  0  0  0  0  0  0  0  0  0  0
   -7.9995    1.9716   -1.8067 H   0  0  0  0  0  0  0  0  0  0  0  0
   -7.7277    3.1885   -0.5732 H   0  0  0  0  0  0  0  0  0  0  0  0
   -6.3767    0.2362    2.4454 H   0  0  0  0  0  0  0  0  0  0  0  0
   -7.9465   -0.5863    2.4359 H   0  0  0  0  0  0  0  0  0  0  0  0
   -7.5889    0.6158    3.6760 H   0  0  0  0  0  0  0  0  0  0  0  0
   -6.2289    2.7474    1.9078 H   0  0  0  0  0  0  0  0  0  0  0  0
   -7.4362    3.0167    3.1724 H   0  0  0  0  0  0  0  0  0  0  0  0
   -7.7076    3.6653    1.5633 H   0  0  0  0  0  0  0  0  0  0  0  0
  -10.0935    0.7520    1.8624 H   0  0  0  0  0  0  0  0  0  0  0  0
   -9.9700    2.4667    1.4404 H   0  0  0  0  0  0  0  0  0  0  0  0
   -9.6633    1.9297    3.0891 H   0  0  0  0  0  0  0  0  0  0  0  0
    0.1502   -2.0083    0.2688 H   0  0  0  0  0  0  0  0  0  0  0  0
  1  2  1  0  0  0  0
  1 29  1  0  0  0  0
  1 30  1  0  0  0  0
  1 31  1  0  0  0  0
  2  3  1  0  0  0  0
  2 28  2  0  0  0  0
  3  4  2  0  0  0  0
  3 32  1  0  0  0  0
  4  5  1  0  0  0  0
  4 33  1  0  0  0  0
  5  6  2  0  0  0  0
  5 34  1  0  0  0  0
  6  7  1  0  0  0  0
  6 28  1  0  0  0  0
  7  8  1  0  0  0  0
  7 35  1  0  0  0  0
  8  9  1  0  0  0  0
  8 27  2  0  0  0  0
  9 10  2  0  0  0  0
 10 11  1  0  0  0  0
 10 36  1  0  0  0  0
 11 12  2  0  0  0  0
 11 37  1  0  0  0  0
 12 13  1  0  0  0  0
 12 27  1  0  0  0  0
 13 14  1  0  0  0  0
 13 38  1  0  0  0  0
 14 15  2  0  0  0  0
 14 25  1  0  0  0  0
 15 16  1  0  0  0  0
 15 23  1  0  0  0  0
 16 17  1  0  0  0  0
 16 39  1  0  0  0  0
 17 18  1  0  0  0  0
 17 19  1  0  0  0  0
 17 40  1  0  0  0  0
 18 41  1  0  0  0  0
 18 42  1  0  0  0  0
 18 43  1  0  0  0  0
 19 20  1  0  0  0  0
 19 21  1  0  0  0  0
 19 22  1  0  0  0  0
 20 44  1  0  0  0  0
 20 45  1  0  0  0  0
 20 46  1  0  0  0  0
 21 47  1  0  0  0  0
 21 48  1  0  0  0  0
 21 49  1  0  0  0  0
 22 50  1  0  0  0  0
 22 51  1  0  0  0  0
 22 52  1  0  0  0  0
 23 24  2  0  0  0  0
 23 25  1  0  0  0  0
 25 26  2  0  0  0  0
 28 53  1  0  0  0  0
M  END
$$$$
