CHEMBL193094
 OpenBabel04072215363D

 33 35  0  0  0  0  0  0  0  0999 V2000
    2.1019   -0.1195   -1.1916 C   0  0  0  0  0  0  0  0  0  0  0  0
    0.7551   -0.0567   -0.5689 C   0  0  0  0  0  0  0  0  0  0  0  0
   -0.0323    1.1133   -0.3802 C   0  0  0  0  0  0  0  0  0  0  0  0
   -1.1785    0.7551    0.3004 C   0  0  0  0  0  0  0  0  0  0  0  0
   -2.2765    1.5934    0.8369 C   0  0  0  0  0  0  0  0  0  0  0  0
   -3.4829    0.8564    0.7054 O   0  0  0  0  0  0  0  0  0  0  0  0
   -1.1183   -0.6047    0.5118 N   0  0  0  0  0  0  0  0  0  0  0  0
    0.0567   -1.1050    0.0066 C   0  0  0  0  0  0  0  0  0  0  0  0
    0.3712   -2.4755    0.1805 C   0  0  0  0  0  0  0  0  0  0  0  0
    1.0051   -2.9259    1.2755 C   0  0  0  0  0  0  0  0  0  0  0  0
    1.3510   -2.1316    2.5157 C   0  0  0  0  0  0  0  0  0  0  0  0
    1.0588   -0.9896    2.8085 O   0  0  0  0  0  0  0  0  0  0  0  0
    2.0665   -3.0079    3.3136 N   0  0  0  0  0  0  0  0  0  0  0  0
    2.1897   -4.2561    2.7200 C   0  0  0  0  0  0  0  0  0  0  0  0
    2.8508   -5.3458    3.2475 C   0  0  0  0  0  0  0  0  0  0  0  0
    2.8737   -6.5094    2.4823 C   0  0  0  0  0  0  0  0  0  0  0  0
    2.2432   -6.5536    1.2240 C   0  0  0  0  0  0  0  0  0  0  0  0
    1.5756   -5.4314    0.7090 C   0  0  0  0  0  0  0  0  0  0  0  0
    1.5515   -4.2784    1.4744 C   0  0  0  0  0  0  0  0  0  0  0  0
    2.4545    0.8778   -1.4739 H   0  0  0  0  0  0  0  0  0  0  0  0
    2.0787   -0.7413   -2.0919 H   0  0  0  0  0  0  0  0  0  0  0  0
    2.8296   -0.5462   -0.4928 H   0  0  0  0  0  0  0  0  0  0  0  0
    0.2416    2.1217   -0.6626 H   0  0  0  0  0  0  0  0  0  0  0  0
   -2.3745    2.5348    0.2864 H   0  0  0  0  0  0  0  0  0  0  0  0
   -2.1124    1.8218    1.8938 H   0  0  0  0  0  0  0  0  0  0  0  0
   -3.6899    0.8562   -0.2446 H   0  0  0  0  0  0  0  0  0  0  0  0
   -1.8196   -1.1275    1.0208 H   0  0  0  0  0  0  0  0  0  0  0  0
    0.1904   -3.1327   -0.6633 H   0  0  0  0  0  0  0  0  0  0  0  0
    2.4278   -2.7363    4.2150 H   0  0  0  0  0  0  0  0  0  0  0  0
    3.3402   -5.3021    4.2150 H   0  0  0  0  0  0  0  0  0  0  0  0
    3.3878   -7.3929    2.8583 H   0  0  0  0  0  0  0  0  0  0  0  0
    2.2825   -7.4726    0.6426 H   0  0  0  0  0  0  0  0  0  0  0  0
    1.1057   -5.4792   -0.2671 H   0  0  0  0  0  0  0  0  0  0  0  0
  1  2  1  0  0  0  0
  1 20  1  0  0  0  0
  1 21  1  0  0  0  0
  1 22  1  0  0  0  0
  2  3  1  0  0  0  0
  2  8  2  0  0  0  0
  3  4  2  0  0  0  0
  3 23  1  0  0  0  0
  4  5  1  0  0  0  0
  4  7  1  0  0  0  0
  5  6  1  0  0  0  0
  5 24  1  0  0  0  0
  5 25  1  0  0  0  0
  6 26  1  0  0  0  0
  7  8  1  0  0  0  0
  7 27  1  0  0  0  0
  8  9  1  0  0  0  0
  9 10  2  0  0  0  0
  9 28  1  0  0  0  0
 10 11  1  0  0  0  0
 10 19  1  0  0  0  0
 11 12  2  0  0  0  0
 11 13  1  0  0  0  0
 13 14  1  0  0  0  0
 13 29  1  0  0  0  0
 14 15  1  0  0  0  0
 14 19  2  0  0  0  0
 15 16  2  0  0  0  0
 15 30  1  0  0  0  0
 16 17  1  0  0  0  0
 16 31  1  0  0  0  0
 17 18  2  0  0  0  0
 17 32  1  0  0  0  0
 18 19  1  0  0  0  0
 18 33  1  0  0  0  0
M  END
$$$$
