CHEMBL2063878
 OpenBabel04072215363D

 56 58  0  0  0  0  0  0  0  0999 V2000
    4.8853   -2.5057    0.4269 C   0  0  0  0  0  0  0  0  0  0  0  0
    4.4986   -1.1957    1.1062 C   0  0  0  0  0  0  0  0  0  0  0  0
    4.8814    0.0231    0.3693 N   0  0  0  0  0  0  0  0  0  0  0  0
    4.3782    0.0595   -1.0180 C   0  0  0  0  0  0  0  0  0  0  0  0
    2.8616    0.1324   -1.1987 C   0  0  0  0  0  0  0  0  0  0  0  0
    4.4888    1.2482    1.1073 C   0  0  0  0  0  0  0  0  0  0  0  0
    5.0823    1.3905    2.5210 C   0  0  0  0  0  0  0  0  0  0  0  0
    6.5290    1.4066    2.5433 N   0  0  0  0  0  0  0  0  0  0  0  0
    7.1937    1.5309    3.7434 C   0  0  0  0  0  0  0  0  0  0  0  0
    6.5913    1.6339    4.8097 O   0  0  0  0  0  0  0  0  0  0  0  0
    8.6593    1.4855    3.6767 C   0  0  0  0  0  0  0  0  0  0  0  0
    9.4917    1.9312    2.6557 C   0  0  0  0  0  0  0  0  0  0  0  0
    9.2407    2.5990    1.3505 C   0  0  0  0  0  0  0  0  0  0  0  0
   10.7929    1.7178    3.0526 N   0  0  0  0  0  0  0  0  0  0  0  0
   10.8436    1.1842    4.3146 C   0  0  0  0  0  0  0  0  0  0  0  0
   12.0671    0.9008    4.9771 C   0  0  0  0  0  0  0  0  0  0  0  0
   13.3337    1.0788    4.5715 C   0  0  0  0  0  0  0  0  0  0  0  0
   13.9106    1.6272    3.2898 C   0  0  0  0  0  0  0  0  0  0  0  0
   13.3154    2.0482    2.3159 O   0  0  0  0  0  0  0  0  0  0  0  0
   15.2874    1.5521    3.4451 N   0  0  0  0  0  0  0  0  0  0  0  0
   15.6326    1.0201    4.6817 C   0  0  0  0  0  0  0  0  0  0  0  0
   16.9060    0.8023    5.1684 C   0  0  0  0  0  0  0  0  0  0  0  0
   17.0217    0.2499    6.4497 C   0  0  0  0  0  0  0  0  0  0  0  0
   15.8751   -0.0617    7.1977 C   0  0  0  0  0  0  0  0  0  0  0  0
   16.0770   -0.8816    9.1006 I   0  0  0  0  0  0  0  0  0  0  0  0
   14.5955    0.1717    6.6887 C   0  0  0  0  0  0  0  0  0  0  0  0
   14.4868    0.7142    5.4177 C   0  0  0  0  0  0  0  0  0  0  0  0
    9.5282    1.0250    4.7347 C   0  0  0  0  0  0  0  0  0  0  0  0
    9.0635    0.4803    6.0472 C   0  0  0  0  0  0  0  0  0  0  0  0
    4.7848   -3.3317    1.1397 H   0  0  0  0  0  0  0  0  0  0  0  0
    5.9256   -2.4865    0.0864 H   0  0  0  0  0  0  0  0  0  0  0  0
    4.2369   -2.7280   -0.4257 H   0  0  0  0  0  0  0  0  0  0  0  0
    5.0193   -1.2044    2.0687 H   0  0  0  0  0  0  0  0  0  0  0  0
    3.4245   -1.2056    1.3262 H   0  0  0  0  0  0  0  0  0  0  0  0
    4.7578   -0.8085   -1.5692 H   0  0  0  0  0  0  0  0  0  0  0  0
    4.8253    0.9208   -1.5319 H   0  0  0  0  0  0  0  0  0  0  0  0
    2.3321   -0.6006   -0.5840 H   0  0  0  0  0  0  0  0  0  0  0  0
    2.6014   -0.0699   -2.2434 H   0  0  0  0  0  0  0  0  0  0  0  0
    2.4804    1.1292   -0.9545 H   0  0  0  0  0  0  0  0  0  0  0  0
    3.3974    1.3061    1.1987 H   0  0  0  0  0  0  0  0  0  0  0  0
    4.8131    2.1205    0.5261 H   0  0  0  0  0  0  0  0  0  0  0  0
    4.7342    0.5924    3.1855 H   0  0  0  0  0  0  0  0  0  0  0  0
    4.7359    2.3315    2.9643 H   0  0  0  0  0  0  0  0  0  0  0  0
    7.0285    1.0117    1.7562 H   0  0  0  0  0  0  0  0  0  0  0  0
    8.1844    2.8134    1.1790 H   0  0  0  0  0  0  0  0  0  0  0  0
    9.6001    1.9712    0.5288 H   0  0  0  0  0  0  0  0  0  0  0  0
    9.7725    3.5560    1.3078 H   0  0  0  0  0  0  0  0  0  0  0  0
   11.6033    1.9661    2.4920 H   0  0  0  0  0  0  0  0  0  0  0  0
   11.9326    0.4815    5.9706 H   0  0  0  0  0  0  0  0  0  0  0  0
   15.9322    1.8544    2.7303 H   0  0  0  0  0  0  0  0  0  0  0  0
   17.7891    1.0425    4.5862 H   0  0  0  0  0  0  0  0  0  0  0  0
   18.0136    0.0653    6.8579 H   0  0  0  0  0  0  0  0  0  0  0  0
   13.7123   -0.0711    7.2705 H   0  0  0  0  0  0  0  0  0  0  0  0
    9.8936    0.1785    6.6917 H   0  0  0  0  0  0  0  0  0  0  0  0
    8.4346   -0.4019    5.8901 H   0  0  0  0  0  0  0  0  0  0  0  0
    8.4876    1.2331    6.5944 H   0  0  0  0  0  0  0  0  0  0  0  0
  1  2  1  0  0  0  0
  1 30  1  0  0  0  0
  1 31  1  0  0  0  0
  1 32  1  0  0  0  0
  2  3  1  0  0  0  0
  2 33  1  0  0  0  0
  2 34  1  0  0  0  0
  3  4  1  0  0  0  0
  3  6  1  0  0  0  0
  4  5  1  0  0  0  0
  4 35  1  0  0  0  0
  4 36  1  0  0  0  0
  5 37  1  0  0  0  0
  5 38  1  0  0  0  0
  5 39  1  0  0  0  0
  6  7  1  0  0  0  0
  6 40  1  0  0  0  0
  6 41  1  0  0  0  0
  7  8  1  0  0  0  0
  7 42  1  0  0  0  0
  7 43  1  0  0  0  0
  8  9  1  0  0  0  0
  8 44  1  0  0  0  0
  9 10  2  0  0  0  0
  9 11  1  0  0  0  0
 11 12  2  0  0  0  0
 11 28  1  0  0  0  0
 12 13  1  0  0  0  0
 12 14  1  0  0  0  0
 13 45  1  0  0  0  0
 13 46  1  0  0  0  0
 13 47  1  0  0  0  0
 14 15  1  0  0  0  0
 14 48  1  0  0  0  0
 15 16  1  0  0  0  0
 15 28  2  0  0  0  0
 16 17  2  0  0  0  0
 16 49  1  0  0  0  0
 17 18  1  0  0  0  0
 17 27  1  0  0  0  0
 18 19  2  0  0  0  0
 18 20  1  0  0  0  0
 20 21  1  0  0  0  0
 20 50  1  0  0  0  0
 21 22  1  0  0  0  0
 21 27  2  0  0  0  0
 22 23  2  0  0  0  0
 22 51  1  0  0  0  0
 23 24  1  0  0  0  0
 23 52  1  0  0  0  0
 24 25  1  0  0  0  0
 24 26  2  0  0  0  0
 26 27  1  0  0  0  0
 26 53  1  0  0  0  0
 28 29  1  0  0  0  0
 29 54  1  0  0  0  0
 29 55  1  0  0  0  0
 29 56  1  0  0  0  0
M  END
$$$$
