CHEMBL4543044
 OpenBabel04072215383D

 64 66  0  0  0  0  0  0  0  0999 V2000
    4.3779    0.3292    1.5544 C   0  0  0  0  0  0  0  0  0  0  0  0
    3.2195    0.6391    0.5930 C   0  0  0  0  0  0  0  0  0  0  0  0
    2.5108   -0.6326    0.1013 C   0  0  0  0  0  0  0  0  0  0  0  0
    2.1923    1.4764    1.3774 C   0  0  0  0  0  0  0  0  0  0  0  0
    3.6634    1.4511   -0.5340 O   0  0  0  0  0  0  0  0  0  0  0  0
    4.6080    0.9280   -1.3721 C   0  0  0  0  0  0  0  0  0  0  0  0
    5.1148   -0.1756   -1.2280 O   0  0  0  0  0  0  0  0  0  0  0  0
    4.9489    1.7523   -2.4257 N   0  0  0  0  0  0  0  0  0  0  0  0
    4.4366    3.0996   -2.6513 C   0  0  0  0  0  0  0  0  0  0  0  0
    4.1248    3.3452   -4.1432 C   0  0  0  0  0  0  0  0  0  0  0  0
    5.2287    2.9208   -5.0431 N   0  0  0  0  0  0  0  0  0  0  0  0
    5.7359    3.6663   -6.1153 C   0  0  0  0  0  0  0  0  0  0  0  0
    6.9350    3.1633   -7.1840 S   0  0  0  0  0  0  0  0  0  0  0  0
    5.1346    5.3143   -6.2877 S   0  0  0  0  0  0  0  0  0  0  0  0
    3.7943    5.0327   -7.4835 C   0  0  0  0  0  0  0  0  0  0  0  0
    3.0172    6.3002   -7.8322 C   0  0  0  0  0  0  0  0  0  0  0  0
    2.0442    6.1970   -8.5807 O   0  0  0  0  0  0  0  0  0  0  0  0
    3.4928    7.4880   -7.2874 N   0  0  0  0  0  0  0  0  0  0  0  0
    2.9121    8.7726   -7.4191 C   0  0  0  0  0  0  0  0  0  0  0  0
    1.6141    8.9337   -7.9018 C   0  0  0  0  0  0  0  0  0  0  0  0
    1.0884   10.2011   -8.1045 C   0  0  0  0  0  0  0  0  0  0  0  0
    1.8430   11.3259   -7.7958 C   0  0  0  0  0  0  0  0  0  0  0  0
    3.1205   11.2135   -7.2410 C   0  0  0  0  0  0  0  0  0  0  0  0
    3.8729   12.3578   -6.8608 N   0  0  0  0  0  0  0  0  0  0  0  0
    3.4753   13.6858   -7.0038 C   0  0  0  0  0  0  0  0  0  0  0  0
    2.4476   14.0906   -7.5404 O   0  0  0  0  0  0  0  0  0  0  0  0
    4.4037   14.7113   -6.4300 C   0  0  0  0  0  0  0  0  0  0  0  0
    4.0667   16.0611   -6.5469 C   0  0  0  0  0  0  0  0  0  0  0  0
    4.9077   17.0065   -5.9689 C   0  0  0  0  0  0  0  0  0  0  0  0
    6.0452   16.5790   -5.3048 C   0  0  0  0  0  0  0  0  0  0  0  0
    6.3083   15.2153   -5.2445 C   0  0  0  0  0  0  0  0  0  0  0  0
    5.5169   14.2600   -5.7914 N   0  0  0  0  0  0  0  0  0  0  0  0
    3.6527    9.9205   -7.0520 C   0  0  0  0  0  0  0  0  0  0  0  0
    5.6708    1.5327   -4.7752 C   0  0  0  0  0  0  0  0  0  0  0  0
    6.0448    1.3453   -3.3029 C   0  0  0  0  0  0  0  0  0  0  0  0
    4.0325   -0.2448    2.4207 H   0  0  0  0  0  0  0  0  0  0  0  0
    4.8357    1.2582    1.9136 H   0  0  0  0  0  0  0  0  0  0  0  0
    5.1795   -0.2464    1.0863 H   0  0  0  0  0  0  0  0  0  0  0  0
    2.1108   -1.2173    0.9363 H   0  0  0  0  0  0  0  0  0  0  0  0
    3.1739   -1.2900   -0.4670 H   0  0  0  0  0  0  0  0  0  0  0  0
    1.6836   -0.3756   -0.5708 H   0  0  0  0  0  0  0  0  0  0  0  0
    1.8253    0.9303    2.2556 H   0  0  0  0  0  0  0  0  0  0  0  0
    1.3300    1.7395    0.7556 H   0  0  0  0  0  0  0  0  0  0  0  0
    2.6316    2.4185    1.7237 H   0  0  0  0  0  0  0  0  0  0  0  0
    5.2195    3.7930   -2.3205 H   0  0  0  0  0  0  0  0  0  0  0  0
    3.5446    3.2904   -2.0480 H   0  0  0  0  0  0  0  0  0  0  0  0
    3.8550    4.3934   -4.2707 H   0  0  0  0  0  0  0  0  0  0  0  0
    3.2513    2.7500   -4.4368 H   0  0  0  0  0  0  0  0  0  0  0  0
    3.0776    4.3173   -7.0633 H   0  0  0  0  0  0  0  0  0  0  0  0
    4.1922    4.6199   -8.4172 H   0  0  0  0  0  0  0  0  0  0  0  0
    4.3946    7.4289   -6.8252 H   0  0  0  0  0  0  0  0  0  0  0  0
    0.9736    8.0890   -8.1286 H   0  0  0  0  0  0  0  0  0  0  0  0
    0.0867   10.3160   -8.5092 H   0  0  0  0  0  0  0  0  0  0  0  0
    1.3798   12.2837   -7.9989 H   0  0  0  0  0  0  0  0  0  0  0  0
    4.7762   12.2255   -6.4138 H   0  0  0  0  0  0  0  0  0  0  0  0
    3.1637   16.3695   -7.0653 H   0  0  0  0  0  0  0  0  0  0  0  0
    4.6667   18.0665   -6.0386 H   0  0  0  0  0  0  0  0  0  0  0  0
    6.7158   17.2939   -4.8354 H   0  0  0  0  0  0  0  0  0  0  0  0
    7.1911   14.8474   -4.7303 H   0  0  0  0  0  0  0  0  0  0  0  0
    4.6543    9.8074   -6.6452 H   0  0  0  0  0  0  0  0  0  0  0  0
    6.5201    1.2296   -5.3893 H   0  0  0  0  0  0  0  0  0  0  0  0
    4.8309    0.8767   -5.0359 H   0  0  0  0  0  0  0  0  0  0  0  0
    6.9085    1.9710   -3.0465 H   0  0  0  0  0  0  0  0  0  0  0  0
    6.3325    0.3036   -3.1306 H   0  0  0  0  0  0  0  0  0  0  0  0
  1  2  1  0  0  0  0
  1 36  1  0  0  0  0
  1 37  1  0  0  0  0
  1 38  1  0  0  0  0
  2  3  1  0  0  0  0
  2  4  1  0  0  0  0
  2  5  1  0  0  0  0
  3 39  1  0  0  0  0
  3 40  1  0  0  0  0
  3 41  1  0  0  0  0
  4 42  1  0  0  0  0
  4 43  1  0  0  0  0
  4 44  1  0  0  0  0
  5  6  1  0  0  0  0
  6  7  2  0  0  0  0
  6  8  1  0  0  0  0
  8  9  1  0  0  0  0
  8 35  1  0  0  0  0
  9 10  1  0  0  0  0
  9 45  1  0  0  0  0
  9 46  1  0  0  0  0
 10 11  1  0  0  0  0
 10 47  1  0  0  0  0
 10 48  1  0  0  0  0
 11 12  1  0  0  0  0
 11 34  1  0  0  0  0
 12 13  2  0  0  0  0
 12 14  1  0  0  0  0
 14 15  1  0  0  0  0
 15 16  1  0  0  0  0
 15 49  1  0  0  0  0
 15 50  1  0  0  0  0
 16 17  2  0  0  0  0
 16 18  1  0  0  0  0
 18 19  1  0  0  0  0
 18 51  1  0  0  0  0
 19 20  1  0  0  0  0
 19 33  2  0  0  0  0
 20 21  2  0  0  0  0
 20 52  1  0  0  0  0
 21 22  1  0  0  0  0
 21 53  1  0  0  0  0
 22 23  2  0  0  0  0
 22 54  1  0  0  0  0
 23 24  1  0  0  0  0
 23 33  1  0  0  0  0
 24 25  1  0  0  0  0
 24 55  1  0  0  0  0
 25 26  2  0  0  0  0
 25 27  1  0  0  0  0
 27 28  1  0  0  0  0
 27 32  2  0  0  0  0
 28 29  2  0  0  0  0
 28 56  1  0  0  0  0
 29 30  1  0  0  0  0
 29 57  1  0  0  0  0
 30 31  2  0  0  0  0
 30 58  1  0  0  0  0
 31 32  1  0  0  0  0
 31 59  1  0  0  0  0
 33 60  1  0  0  0  0
 34 35  1  0  0  0  0
 34 61  1  0  0  0  0
 34 62  1  0  0  0  0
 35 63  1  0  0  0  0
 35 64  1  0  0  0  0
M  END
$$$$
