CHEMBL4591664
 OpenBabel04072215383D

 62 65  0  0  0  0  0  0  0  0999 V2000
    1.3822    0.8627    0.8645 C   0  0  0  0  0  0  0  0  0  0  0  0
    2.6991    0.3187    0.9071 O   0  0  0  0  0  0  0  0  0  0  0  0
    2.8376   -0.9265    1.4609 C   0  0  0  0  0  0  0  0  0  0  0  0
    1.7952   -1.7949    1.7580 C   0  0  0  0  0  0  0  0  0  0  0  0
    2.0613   -3.1006    2.1932 C   0  0  0  0  0  0  0  0  0  0  0  0
    3.3766   -3.6200    2.2431 C   0  0  0  0  0  0  0  0  0  0  0  0
    3.5641   -5.1640    2.0496 C   0  0  0  0  0  0  0  0  0  0  0  0
    2.6655   -5.6210    1.0822 C   0  0  0  0  0  0  0  0  0  0  0  0
    2.9659   -5.0759   -0.1669 C   0  0  0  0  0  0  0  0  0  0  0  0
    1.9883   -4.4087   -0.9257 C   0  0  0  0  0  0  0  0  0  0  0  0
    2.4004   -3.4077   -1.8016 C   0  0  0  0  0  0  0  0  0  0  0  0
    1.6029   -2.4873   -2.4190 O   0  0  0  0  0  0  0  0  0  0  0  0
    0.2523   -2.3846   -1.9921 C   0  0  0  0  0  0  0  0  0  0  0  0
    3.7664   -3.2244   -2.0417 C   0  0  0  0  0  0  0  0  0  0  0  0
    4.7258   -4.0028   -1.3948 C   0  0  0  0  0  0  0  0  0  0  0  0
    4.3417   -4.8775   -0.4050 C   0  0  0  0  0  0  0  0  0  0  0  0
    5.2589   -5.3597    0.4501 N   0  0  0  0  0  0  0  0  0  0  0  0
    4.8250   -5.6498    1.6949 C   0  0  0  0  0  0  0  0  0  0  0  0
    5.4345   -6.6673    2.4623 N   0  0  0  0  0  0  0  0  0  0  0  0
    6.6827   -7.3037    2.2579 C   0  0  0  0  0  0  0  0  0  0  0  0
    7.2819   -7.9744    3.3303 C   0  0  0  0  0  0  0  0  0  0  0  0
    8.5866   -8.4807    3.2351 C   0  0  0  0  0  0  0  0  0  0  0  0
    9.3229   -8.3448    2.0597 C   0  0  0  0  0  0  0  0  0  0  0  0
   10.7026   -8.6407    1.9574 N   0  0  0  0  0  0  0  0  0  0  0  0
   11.5219   -9.0896    2.9708 C   0  0  0  0  0  0  0  0  0  0  0  0
   11.1822   -9.4547    4.0898 O   0  0  0  0  0  0  0  0  0  0  0  0
   13.0128   -9.1332    2.5956 C   0  0  0  0  0  0  0  0  0  0  0  0
   13.5368   -7.8125    2.1685 N   0  0  0  0  0  0  0  0  0  0  0  0
   13.4132   -6.8216    3.2489 C   0  0  0  0  0  0  0  0  0  0  0  0
   14.9602   -7.9608    1.8320 C   0  0  0  0  0  0  0  0  0  0  0  0
    8.6718   -7.8331    0.9376 C   0  0  0  0  0  0  0  0  0  0  0  0
    7.3542   -7.3515    1.0322 C   0  0  0  0  0  0  0  0  0  0  0  0
    4.4204   -2.6871    2.0749 C   0  0  0  0  0  0  0  0  0  0  0  0
    4.1497   -1.3605    1.6740 C   0  0  0  0  0  0  0  0  0  0  0  0
    1.4197    1.8141    0.3237 H   0  0  0  0  0  0  0  0  0  0  0  0
    1.0279    1.0648    1.8801 H   0  0  0  0  0  0  0  0  0  0  0  0
    0.6782    0.2207    0.3232 H   0  0  0  0  0  0  0  0  0  0  0  0
    0.7601   -1.5333    1.5709 H   0  0  0  0  0  0  0  0  0  0  0  0
    1.2118   -3.7723    2.3048 H   0  0  0  0  0  0  0  0  0  0  0  0
    2.3808   -6.6776    1.0926 H   0  0  0  0  0  0  0  0  0  0  0  0
    0.9400   -4.5456   -0.6781 H   0  0  0  0  0  0  0  0  0  0  0  0
   -0.1479   -1.4478   -2.3946 H   0  0  0  0  0  0  0  0  0  0  0  0
    0.1512   -2.3354   -0.9024 H   0  0  0  0  0  0  0  0  0  0  0  0
   -0.3346   -3.2091   -2.4052 H   0  0  0  0  0  0  0  0  0  0  0  0
    4.0936   -2.4011   -2.6735 H   0  0  0  0  0  0  0  0  0  0  0  0
    5.7818   -3.7966   -1.5364 H   0  0  0  0  0  0  0  0  0  0  0  0
    5.2408   -6.5306    3.4477 H   0  0  0  0  0  0  0  0  0  0  0  0
    6.7657   -8.0711    4.2818 H   0  0  0  0  0  0  0  0  0  0  0  0
    9.0081   -8.9398    4.1223 H   0  0  0  0  0  0  0  0  0  0  0  0
   11.1711   -8.3552    1.1038 H   0  0  0  0  0  0  0  0  0  0  0  0
   13.1149   -9.8610    1.7823 H   0  0  0  0  0  0  0  0  0  0  0  0
   13.5702   -9.5165    3.4610 H   0  0  0  0  0  0  0  0  0  0  0  0
   12.3652   -6.6323    3.5010 H   0  0  0  0  0  0  0  0  0  0  0  0
   13.8278   -5.8579    2.9288 H   0  0  0  0  0  0  0  0  0  0  0  0
   13.9389   -7.1314    4.1602 H   0  0  0  0  0  0  0  0  0  0  0  0
   15.0941   -8.6910    1.0267 H   0  0  0  0  0  0  0  0  0  0  0  0
   15.5567   -8.2885    2.6931 H   0  0  0  0  0  0  0  0  0  0  0  0
   15.3739   -7.0123    1.4724 H   0  0  0  0  0  0  0  0  0  0  0  0
    9.1695   -7.7777   -0.0275 H   0  0  0  0  0  0  0  0  0  0  0  0
    6.8889   -6.9734    0.1268 H   0  0  0  0  0  0  0  0  0  0  0  0
    5.4609   -3.0025    2.0942 H   0  0  0  0  0  0  0  0  0  0  0  0
    4.9784   -0.6871    1.4545 H   0  0  0  0  0  0  0  0  0  0  0  0
  1  2  1  0  0  0  0
  1 35  1  0  0  0  0
  1 36  1  0  0  0  0
  1 37  1  0  0  0  0
  2  3  1  0  0  0  0
  3  4  1  0  0  0  0
  3 34  2  0  0  0  0
  4  5  2  0  0  0  0
  4 38  1  0  0  0  0
  5  6  1  0  0  0  0
  5 39  1  0  0  0  0
  6  7  1  0  0  0  0
  6 33  2  0  0  0  0
  7  8  1  0  0  0  0
  7 18  2  0  0  0  0
  8  9  2  0  0  0  0
  8 40  1  0  0  0  0
  9 10  1  0  0  0  0
  9 16  1  0  0  0  0
 10 11  2  0  0  0  0
 10 41  1  0  0  0  0
 11 12  1  0  0  0  0
 11 14  1  0  0  0  0
 12 13  1  0  0  0  0
 13 42  1  0  0  0  0
 13 43  1  0  0  0  0
 13 44  1  0  0  0  0
 14 15  2  0  0  0  0
 14 45  1  0  0  0  0
 15 16  1  0  0  0  0
 15 46  1  0  0  0  0
 16 17  2  0  0  0  0
 17 18  1  0  0  0  0
 18 19  1  0  0  0  0
 19 20  1  0  0  0  0
 19 47  1  0  0  0  0
 20 21  1  0  0  0  0
 20 32  2  0  0  0  0
 21 22  2  0  0  0  0
 21 48  1  0  0  0  0
 22 23  1  0  0  0  0
 22 49  1  0  0  0  0
 23 24  1  0  0  0  0
 23 31  2  0  0  0  0
 24 25  1  0  0  0  0
 24 50  1  0  0  0  0
 25 26  2  0  0  0  0
 25 27  1  0  0  0  0
 27 28  1  0  0  0  0
 27 51  1  0  0  0  0
 27 52  1  0  0  0  0
 28 29  1  0  0  0  0
 28 30  1  0  0  0  0
 29 53  1  0  0  0  0
 29 54  1  0  0  0  0
 29 55  1  0  0  0  0
 30 56  1  0  0  0  0
 30 57  1  0  0  0  0
 30 58  1  0  0  0  0
 31 32  1  0  0  0  0
 31 59  1  0  0  0  0
 32 60  1  0  0  0  0
 33 34  1  0  0  0  0
 33 61  1  0  0  0  0
 34 62  1  0  0  0  0
M  END
$$$$
