CHEMBL3941474
 OpenBabel04072215373D

 41 45  0  0  0  0  0  0  0  0999 V2000
    0.8960   -0.0112    0.2308 N   0  0  0  0  0  0  0  0  0  0  0  0
    2.2614   -0.1347    0.2700 C   0  0  0  0  0  0  0  0  0  0  0  0
    3.1950    0.8771    0.3377 C   0  0  0  0  0  0  0  0  0  0  0  0
    2.8635    2.2905    0.4464 C   0  0  0  0  0  0  0  0  0  0  0  0
    1.9496    2.6672    1.1727 O   0  0  0  0  0  0  0  0  0  0  0  0
    3.6506    3.2205   -0.3106 C   0  0  0  0  0  0  0  0  0  0  0  0
    4.3670    3.0765   -1.4830 C   0  0  0  0  0  0  0  0  0  0  0  0
    5.0781    4.2827   -1.6936 C   0  0  0  0  0  0  0  0  0  0  0  0
    6.0422    4.6781   -2.6255 C   0  0  0  0  0  0  0  0  0  0  0  0
    7.0876    5.4308   -2.0990 C   0  0  0  0  0  0  0  0  0  0  0  0
    6.8628    6.2386   -0.9889 C   0  0  0  0  0  0  0  0  0  0  0  0
    5.6428    6.2060   -0.3061 C   0  0  0  0  0  0  0  0  0  0  0  0
    4.8474    5.0977   -0.5918 C   0  0  0  0  0  0  0  0  0  0  0  0
    3.7899    4.5411    0.0805 N   0  0  0  0  0  0  0  0  0  0  0  0
    4.4360    0.2024    0.4229 C   0  0  0  0  0  0  0  0  0  0  0  0
    4.3025   -1.1207    0.5161 N   0  0  0  0  0  0  0  0  0  0  0  0
    2.9602   -1.3380    0.3748 N   0  0  0  0  0  0  0  0  0  0  0  0
    2.4117   -2.6487    0.4414 C   0  0  0  0  0  0  0  0  0  0  0  0
    3.0054   -3.6078    1.2716 C   0  0  0  0  0  0  0  0  0  0  0  0
    2.3792   -4.8416    1.4891 C   0  0  0  0  0  0  0  0  0  0  0  0
    1.1908   -5.1044    0.7966 C   0  0  0  0  0  0  0  0  0  0  0  0
    0.3792   -6.2168    0.8070 N   0  0  0  0  0  0  0  0  0  0  0  0
   -0.6572   -6.0562   -0.0762 C   0  0  0  0  0  0  0  0  0  0  0  0
   -0.5420   -4.8052   -0.6365 C   0  0  0  0  0  0  0  0  0  0  0  0
    0.6193   -4.1965   -0.0905 C   0  0  0  0  0  0  0  0  0  0  0  0
    1.2343   -2.9467   -0.2730 C   0  0  0  0  0  0  0  0  0  0  0  0
    0.5126    0.9131    0.4351 H   0  0  0  0  0  0  0  0  0  0  0  0
    0.2980   -0.7411    0.6580 H   0  0  0  0  0  0  0  0  0  0  0  0
    4.4699    2.1667   -2.0655 H   0  0  0  0  0  0  0  0  0  0  0  0
    5.6450    5.0623   -3.5773 H   0  0  0  0  0  0  0  0  0  0  0  0
    8.0615    5.3886   -2.5772 H   0  0  0  0  0  0  0  0  0  0  0  0
    7.6570    6.8920   -0.6417 H   0  0  0  0  0  0  0  0  0  0  0  0
    5.4456    6.8619    0.5327 H   0  0  0  0  0  0  0  0  0  0  0  0
    3.3483    4.9304    0.9027 H   0  0  0  0  0  0  0  0  0  0  0  0
    5.4319    0.6248    0.4977 H   0  0  0  0  0  0  0  0  0  0  0  0
    3.9163   -3.3723    1.8107 H   0  0  0  0  0  0  0  0  0  0  0  0
    2.8006   -5.5574    2.1866 H   0  0  0  0  0  0  0  0  0  0  0  0
    0.5411   -7.0411    1.3682 H   0  0  0  0  0  0  0  0  0  0  0  0
   -1.3914   -6.8359   -0.2225 H   0  0  0  0  0  0  0  0  0  0  0  0
   -1.2146   -4.3724   -1.3649 H   0  0  0  0  0  0  0  0  0  0  0  0
    0.8049   -2.2435   -0.9812 H   0  0  0  0  0  0  0  0  0  0  0  0
  1  2  1  0  0  0  0
  1 27  1  0  0  0  0
  1 28  1  0  0  0  0
  2  3  2  0  0  0  0
  2 17  1  0  0  0  0
  3  4  1  0  0  0  0
  3 15  1  0  0  0  0
  4  5  2  0  0  0  0
  4  6  1  0  0  0  0
  6  7  2  0  0  0  0
  6 14  1  0  0  0  0
  7  8  1  0  0  0  0
  7 29  1  0  0  0  0
  8  9  1  0  0  0  0
  8 13  2  0  0  0  0
  9 10  2  0  0  0  0
  9 30  1  0  0  0  0
 10 11  1  0  0  0  0
 10 31  1  0  0  0  0
 11 12  2  0  0  0  0
 11 32  1  0  0  0  0
 12 13  1  0  0  0  0
 12 33  1  0  0  0  0
 13 14  1  0  0  0  0
 14 34  1  0  0  0  0
 15 16  2  0  0  0  0
 15 35  1  0  0  0  0
 16 17  1  0  0  0  0
 17 18  1  0  0  0  0
 18 19  1  0  0  0  0
 18 26  2  0  0  0  0
 19 20  2  0  0  0  0
 19 36  1  0  0  0  0
 20 21  1  0  0  0  0
 20 37  1  0  0  0  0
 21 22  1  0  0  0  0
 21 25  2  0  0  0  0
 22 23  1  0  0  0  0
 22 38  1  0  0  0  0
 23 24  2  0  0  0  0
 23 39  1  0  0  0  0
 24 25  1  0  0  0  0
 24 40  1  0  0  0  0
 25 26  1  0  0  0  0
 26 41  1  0  0  0  0
M  END
$$$$
