CHEMBL398459
 OpenBabel04072215373D

 39 42  0  0  0  0  0  0  0  0999 V2000
    1.2113    1.8651   -2.0625 C   0  0  0  0  0  0  0  0  0  0  0  0
    2.6249    1.7672   -1.8875 O   0  0  0  0  0  0  0  0  0  0  0  0
    3.0296    0.7441   -1.0905 C   0  0  0  0  0  0  0  0  0  0  0  0
    2.2945   -0.0434   -0.5178 O   0  0  0  0  0  0  0  0  0  0  0  0
    4.5118    0.7338   -1.0509 C   0  0  0  0  0  0  0  0  0  0  0  0
    5.2039    1.9644   -1.1135 C   0  0  0  0  0  0  0  0  0  0  0  0
    6.5914    2.0107   -1.1092 C   0  0  0  0  0  0  0  0  0  0  0  0
    7.3325    0.8348   -1.0449 C   0  0  0  0  0  0  0  0  0  0  0  0
    6.6470   -0.3910   -0.9734 C   0  0  0  0  0  0  0  0  0  0  0  0
    5.2429   -0.4810   -0.9576 C   0  0  0  0  0  0  0  0  0  0  0  0
    4.9410   -1.8808   -0.8387 C   0  0  0  0  0  0  0  0  0  0  0  0
    3.6903   -2.5275   -0.6238 C   0  0  0  0  0  0  0  0  0  0  0  0
    2.8405   -3.0101   -1.5390 C   0  0  0  0  0  0  0  0  0  0  0  0
    2.9263   -2.9266   -3.0110 C   0  0  0  0  0  0  0  0  0  0  0  0
    3.8584   -2.5888   -3.7103 O   0  0  0  0  0  0  0  0  0  0  0  0
    1.6686   -3.3514   -3.4151 N   0  0  0  0  0  0  0  0  0  0  0  0
    0.8495   -3.8031   -2.4039 N   0  0  0  0  0  0  0  0  0  0  0  0
    1.5216   -3.6482   -1.2877 C   0  0  0  0  0  0  0  0  0  0  0  0
    1.0446   -4.1367   -0.0308 C   0  0  0  0  0  0  0  0  0  0  0  0
    1.7033   -4.6755    1.0598 C   0  0  0  0  0  0  0  0  0  0  0  0
    0.8931   -5.0990    2.1010 N   0  0  0  0  0  0  0  0  0  0  0  0
   -0.3856   -4.9037    1.8285 N   0  0  0  0  0  0  0  0  0  0  0  0
   -0.6322   -4.2212    0.3197 S   0  0  0  0  0  0  0  0  0  0  0  0
    6.1267   -2.5808   -0.8260 C   0  0  0  0  0  0  0  0  0  0  0  0
    7.1466   -1.6755   -0.9037 N   0  0  0  0  0  0  0  0  0  0  0  0
    8.5529   -2.0131   -0.8801 C   0  0  0  0  0  0  0  0  0  0  0  0
    1.0066    2.7757   -2.6319 H   0  0  0  0  0  0  0  0  0  0  0  0
    0.7022    1.9391   -1.0957 H   0  0  0  0  0  0  0  0  0  0  0  0
    0.8451    1.0067   -2.6334 H   0  0  0  0  0  0  0  0  0  0  0  0
    4.6537    2.9019   -1.1684 H   0  0  0  0  0  0  0  0  0  0  0  0
    7.1026    2.9691   -1.1648 H   0  0  0  0  0  0  0  0  0  0  0  0
    8.4180    0.8757   -1.0493 H   0  0  0  0  0  0  0  0  0  0  0  0
    3.4069   -2.5764    0.4238 H   0  0  0  0  0  0  0  0  0  0  0  0
    1.3847   -3.4340   -4.3838 H   0  0  0  0  0  0  0  0  0  0  0  0
    2.7716   -4.8201    1.1537 H   0  0  0  0  0  0  0  0  0  0  0  0
    6.3252   -3.6417   -0.7464 H   0  0  0  0  0  0  0  0  0  0  0  0
    8.6697   -3.0920   -0.7518 H   0  0  0  0  0  0  0  0  0  0  0  0
    9.0204   -1.4913   -0.0406 H   0  0  0  0  0  0  0  0  0  0  0  0
    8.9981   -1.6990   -1.8274 H   0  0  0  0  0  0  0  0  0  0  0  0
  1  2  1  0  0  0  0
  1 27  1  0  0  0  0
  1 28  1  0  0  0  0
  1 29  1  0  0  0  0
  2  3  1  0  0  0  0
  3  4  2  0  0  0  0
  3  5  1  0  0  0  0
  5  6  1  0  0  0  0
  5 10  2  0  0  0  0
  6  7  2  0  0  0  0
  6 30  1  0  0  0  0
  7  8  1  0  0  0  0
  7 31  1  0  0  0  0
  8  9  2  0  0  0  0
  8 32  1  0  0  0  0
  9 10  1  0  0  0  0
  9 25  1  0  0  0  0
 10 11  1  0  0  0  0
 11 12  1  0  0  0  0
 11 24  2  0  0  0  0
 12 13  2  0  0  0  0
 12 33  1  0  0  0  0
 13 14  1  0  0  0  0
 13 18  1  0  0  0  0
 14 15  2  0  0  0  0
 14 16  1  0  0  0  0
 16 17  1  0  0  0  0
 16 34  1  0  0  0  0
 17 18  2  0  0  0  0
 18 19  1  0  0  0  0
 19 20  2  0  0  0  0
 19 23  1  0  0  0  0
 20 21  1  0  0  0  0
 20 35  1  0  0  0  0
 21 22  2  0  0  0  0
 22 23  1  0  0  0  0
 24 25  1  0  0  0  0
 24 36  1  0  0  0  0
 25 26  1  0  0  0  0
 26 37  1  0  0  0  0
 26 38  1  0  0  0  0
 26 39  1  0  0  0  0
M  END
$$$$
