CHEMBL483158
 OpenBabel04072215383D

 57 61  0  0  0  0  0  0  0  0999 V2000
    3.5630    5.9370    8.0324 C   0  0  0  0  0  0  0  0  0  0  0  0
    4.6454    6.2150    7.1400 O   0  0  0  0  0  0  0  0  0  0  0  0
    4.7628    5.4074    6.0346 C   0  0  0  0  0  0  0  0  0  0  0  0
    3.9174    4.3099    5.8138 C   0  0  0  0  0  0  0  0  0  0  0  0
    4.0851    3.4700    4.7086 C   0  0  0  0  0  0  0  0  0  0  0  0
    3.2677    2.3492    4.5302 N   0  0  0  0  0  0  0  0  0  0  0  0
    2.0204    1.9898    5.0242 C   0  0  0  0  0  0  0  0  0  0  0  0
    1.6630    0.7446    4.6721 N   0  0  0  0  0  0  0  0  0  0  0  0
    0.3604    0.4565    4.7118 C   0  0  0  0  0  0  0  0  0  0  0  0
   -0.5763    1.3788    5.0874 C   0  0  0  0  0  0  0  0  0  0  0  0
   -0.1125    2.5535    5.6493 C   0  0  0  0  0  0  0  0  0  0  0  0
    1.1965    2.8746    5.6314 N   0  0  0  0  0  0  0  0  0  0  0  0
   -1.1125    3.5495    6.0971 C   0  0  0  0  0  0  0  0  0  0  0  0
   -1.4087    3.6860    7.4670 C   0  0  0  0  0  0  0  0  0  0  0  0
   -2.4842    4.4759    7.8969 C   0  0  0  0  0  0  0  0  0  0  0  0
   -3.2313    5.1999    6.9738 C   0  0  0  0  0  0  0  0  0  0  0  0
   -4.5376    6.1884    7.5020 Cl  0  0  0  0  0  0  0  0  0  0  0  0
   -2.9949    5.0552    5.6129 C   0  0  0  0  0  0  0  0  0  0  0  0
   -1.9972    4.1700    5.1758 C   0  0  0  0  0  0  0  0  0  0  0  0
   -2.1184    3.6407    3.7632 C   0  0  0  0  0  0  0  0  0  0  0  0
   -2.4159    4.5861    2.6215 C   0  0  0  0  0  0  0  0  0  0  0  0
   -1.8713    5.8860    2.7079 C   0  0  0  0  0  0  0  0  0  0  0  0
   -1.0065    6.2130    3.6851 F   0  0  0  0  0  0  0  0  0  0  0  0
   -2.2132    6.9110    1.8154 C   0  0  0  0  0  0  0  0  0  0  0  0
   -3.0787    6.6475    0.7723 C   0  0  0  0  0  0  0  0  0  0  0  0
   -3.5717    5.3561    0.6212 C   0  0  0  0  0  0  0  0  0  0  0  0
   -3.2668    4.3108    1.5248 C   0  0  0  0  0  0  0  0  0  0  0  0
   -3.9718    3.2114    1.1254 O   0  0  0  0  0  0  0  0  0  0  0  0
   -3.8867    1.9481    1.7388 C   0  0  0  0  0  0  0  0  0  0  0  0
   -2.0713    2.3718    3.5265 N   0  0  0  0  0  0  0  0  0  0  0  0
   -1.9712    1.3608    4.5872 C   0  0  0  0  0  0  0  0  0  0  0  0
    5.0505    3.7915    3.7624 C   0  0  0  0  0  0  0  0  0  0  0  0
    5.8999    4.8883    3.9546 C   0  0  0  0  0  0  0  0  0  0  0  0
    5.7730    5.6934    5.1027 C   0  0  0  0  0  0  0  0  0  0  0  0
    6.7673    6.7992    5.2471 C   0  0  0  0  0  0  0  0  0  0  0  0
    7.6168    7.0300    4.3996 O   0  0  0  0  0  0  0  0  0  0  0  0
    6.6918    7.5152    6.3882 O   0  0  0  0  0  0  0  0  0  0  0  0
    3.5690    6.7066    8.8108 H   0  0  0  0  0  0  0  0  0  0  0  0
    3.7008    4.9670    8.5210 H   0  0  0  0  0  0  0  0  0  0  0  0
    2.5984    5.9923    7.5175 H   0  0  0  0  0  0  0  0  0  0  0  0
    3.1532    4.0472    6.5264 H   0  0  0  0  0  0  0  0  0  0  0  0
    3.5911    1.6387    3.8869 H   0  0  0  0  0  0  0  0  0  0  0  0
    0.0831   -0.5141    4.3124 H   0  0  0  0  0  0  0  0  0  0  0  0
   -0.8645    3.0964    8.2035 H   0  0  0  0  0  0  0  0  0  0  0  0
   -2.7568    4.4957    8.9508 H   0  0  0  0  0  0  0  0  0  0  0  0
   -3.6447    5.5620    4.9065 H   0  0  0  0  0  0  0  0  0  0  0  0
   -1.8095    7.9113    1.9583 H   0  0  0  0  0  0  0  0  0  0  0  0
   -3.3752    7.4291    0.0783 H   0  0  0  0  0  0  0  0  0  0  0  0
   -4.2434    5.1503   -0.2141 H   0  0  0  0  0  0  0  0  0  0  0  0
   -4.5881    1.2780    1.2254 H   0  0  0  0  0  0  0  0  0  0  0  0
   -4.2257    1.9910    2.7780 H   0  0  0  0  0  0  0  0  0  0  0  0
   -2.8975    1.5019    1.5943 H   0  0  0  0  0  0  0  0  0  0  0  0
   -2.2139    0.3838    4.1598 H   0  0  0  0  0  0  0  0  0  0  0  0
   -2.7091    1.5246    5.3843 H   0  0  0  0  0  0  0  0  0  0  0  0
    5.1794    3.1925    2.8584 H   0  0  0  0  0  0  0  0  0  0  0  0
    6.6636    5.1090    3.2096 H   0  0  0  0  0  0  0  0  0  0  0  0
    5.9570    7.2214    6.9672 H   0  0  0  0  0  0  0  0  0  0  0  0
  1  2  1  0  0  0  0
  1 38  1  0  0  0  0
  1 39  1  0  0  0  0
  1 40  1  0  0  0  0
  2  3  1  0  0  0  0
  3  4  1  0  0  0  0
  3 34  2  0  0  0  0
  4  5  2  0  0  0  0
  4 41  1  0  0  0  0
  5  6  1  0  0  0  0
  5 32  1  0  0  0  0
  6  7  1  0  0  0  0
  6 42  1  0  0  0  0
  7  8  1  0  0  0  0
  7 12  2  0  0  0  0
  8  9  2  0  0  0  0
  9 10  1  0  0  0  0
  9 43  1  0  0  0  0
 10 11  2  0  0  0  0
 10 31  1  0  0  0  0
 11 12  1  0  0  0  0
 11 13  1  0  0  0  0
 13 14  1  0  0  0  0
 13 19  2  0  0  0  0
 14 15  2  0  0  0  0
 14 44  1  0  0  0  0
 15 16  1  0  0  0  0
 15 45  1  0  0  0  0
 16 17  1  0  0  0  0
 16 18  2  0  0  0  0
 18 19  1  0  0  0  0
 18 46  1  0  0  0  0
 19 20  1  0  0  0  0
 20 21  1  0  0  0  0
 20 30  2  0  0  0  0
 21 22  1  0  0  0  0
 21 27  2  0  0  0  0
 22 23  1  0  0  0  0
 22 24  2  0  0  0  0
 24 25  1  0  0  0  0
 24 47  1  0  0  0  0
 25 26  2  0  0  0  0
 25 48  1  0  0  0  0
 26 27  1  0  0  0  0
 26 49  1  0  0  0  0
 27 28  1  0  0  0  0
 28 29  1  0  0  0  0
 29 50  1  0  0  0  0
 29 51  1  0  0  0  0
 29 52  1  0  0  0  0
 30 31  1  0  0  0  0
 31 53  1  0  0  0  0
 31 54  1  0  0  0  0
 32 33  2  0  0  0  0
 32 55  1  0  0  0  0
 33 34  1  0  0  0  0
 33 56  1  0  0  0  0
 34 35  1  0  0  0  0
 35 36  2  0  0  0  0
 35 37  1  0  0  0  0
 37 57  1  0  0  0  0
M  END
$$$$
