CHEMBL190872
 OpenBabel04072215363D

 47 49  0  0  0  0  0  0  0  0999 V2000
    1.4115   -0.1889   -3.7632 C   0  0  0  0  0  0  0  0  0  0  0  0
    2.8938   -0.3471   -3.4794 C   0  0  0  0  0  0  0  0  0  0  0  0
    3.2082   -0.5823   -1.7335 S   0  0  0  0  0  0  0  0  0  0  0  0
    2.7139    0.5873   -1.0326 O   0  0  0  0  0  0  0  0  0  0  0  0
    2.7786   -1.9148   -1.3546 O   0  0  0  0  0  0  0  0  0  0  0  0
    4.9817   -0.5538   -1.6043 C   0  0  0  0  0  0  0  0  0  0  0  0
    5.6304    0.4050   -0.8328 C   0  0  0  0  0  0  0  0  0  0  0  0
    7.0286    0.4151   -0.7827 C   0  0  0  0  0  0  0  0  0  0  0  0
    7.7745   -0.5125   -1.5252 C   0  0  0  0  0  0  0  0  0  0  0  0
    9.1498   -0.5413   -1.5802 O   0  0  0  0  0  0  0  0  0  0  0  0
    9.8440    0.1460   -0.5436 C   0  0  0  0  0  0  0  0  0  0  0  0
    7.1163   -1.4741   -2.3269 C   0  0  0  0  0  0  0  0  0  0  0  0
    7.8851   -2.3642   -3.1161 N   0  0  0  0  0  0  0  0  0  0  0  0
    7.4244   -3.1343   -4.1175 C   0  0  0  0  0  0  0  0  0  0  0  0
    6.1866   -3.4489   -4.4353 N   0  0  0  0  0  0  0  0  0  0  0  0
    6.3000   -4.2027   -5.5613 C   0  0  0  0  0  0  0  0  0  0  0  0
    7.6216   -4.3199   -5.9218 C   0  0  0  0  0  0  0  0  0  0  0  0
    8.3106   -4.9658   -7.0267 C   0  0  0  0  0  0  0  0  0  0  0  0
    7.5587   -5.6401   -8.0025 C   0  0  0  0  0  0  0  0  0  0  0  0
    8.1812   -6.2892   -9.0687 C   0  0  0  0  0  0  0  0  0  0  0  0
    9.5720   -6.2655   -9.1876 C   0  0  0  0  0  0  0  0  0  0  0  0
   10.1801   -6.9993  -10.3268 C   0  0  0  0  0  0  0  0  0  0  0  0
   11.4040   -6.5817  -10.7656 N   0  0  0  0  0  0  0  0  0  0  0  0
    9.5944   -7.9213  -10.8801 O   0  0  0  0  0  0  0  0  0  0  0  0
   10.3357   -5.5917   -8.2270 C   0  0  0  0  0  0  0  0  0  0  0  0
    9.7055   -4.9453   -7.1538 C   0  0  0  0  0  0  0  0  0  0  0  0
    8.3616   -3.6438   -4.9809 O   0  0  0  0  0  0  0  0  0  0  0  0
    5.7139   -1.5044   -2.3111 C   0  0  0  0  0  0  0  0  0  0  0  0
    1.2402   -0.0487   -4.8353 H   0  0  0  0  0  0  0  0  0  0  0  0
    1.0001    0.6794   -3.2387 H   0  0  0  0  0  0  0  0  0  0  0  0
    0.8506   -1.0716   -3.4401 H   0  0  0  0  0  0  0  0  0  0  0  0
    3.4340    0.5495   -3.7974 H   0  0  0  0  0  0  0  0  0  0  0  0
    3.2863   -1.2143   -4.0186 H   0  0  0  0  0  0  0  0  0  0  0  0
    5.0634    1.1424   -0.2685 H   0  0  0  0  0  0  0  0  0  0  0  0
    7.5049    1.1768   -0.1740 H   0  0  0  0  0  0  0  0  0  0  0  0
   10.9153   -0.0235   -0.6907 H   0  0  0  0  0  0  0  0  0  0  0  0
    9.5734   -0.2515    0.4403 H   0  0  0  0  0  0  0  0  0  0  0  0
    9.6761    1.2264   -0.5949 H   0  0  0  0  0  0  0  0  0  0  0  0
    8.8808   -2.1771   -3.0648 H   0  0  0  0  0  0  0  0  0  0  0  0
    5.4286   -4.6077   -6.0548 H   0  0  0  0  0  0  0  0  0  0  0  0
    6.4732   -5.6804   -7.9472 H   0  0  0  0  0  0  0  0  0  0  0  0
    7.5757   -6.8148   -9.8051 H   0  0  0  0  0  0  0  0  0  0  0  0
   11.8098   -5.6973  -10.4986 H   0  0  0  0  0  0  0  0  0  0  0  0
   11.7475   -7.0245  -11.6086 H   0  0  0  0  0  0  0  0  0  0  0  0
   11.4206   -5.5865   -8.2768 H   0  0  0  0  0  0  0  0  0  0  0  0
   10.3177   -4.4374   -6.4108 H   0  0  0  0  0  0  0  0  0  0  0  0
    5.1665   -2.2696   -2.8507 H   0  0  0  0  0  0  0  0  0  0  0  0
  1  2  1  0  0  0  0
  1 29  1  0  0  0  0
  1 30  1  0  0  0  0
  1 31  1  0  0  0  0
  2  3  1  0  0  0  0
  2 32  1  0  0  0  0
  2 33  1  0  0  0  0
  3  4  2  0  0  0  0
  3  5  2  0  0  0  0
  3  6  1  0  0  0  0
  6  7  1  0  0  0  0
  6 28  2  0  0  0  0
  7  8  2  0  0  0  0
  7 34  1  0  0  0  0
  8  9  1  0  0  0  0
  8 35  1  0  0  0  0
  9 10  1  0  0  0  0
  9 12  2  0  0  0  0
 10 11  1  0  0  0  0
 11 36  1  0  0  0  0
 11 37  1  0  0  0  0
 11 38  1  0  0  0  0
 12 13  1  0  0  0  0
 12 28  1  0  0  0  0
 13 14  1  0  0  0  0
 13 39  1  0  0  0  0
 14 15  2  0  0  0  0
 14 27  1  0  0  0  0
 15 16  1  0  0  0  0
 16 17  2  0  0  0  0
 16 40  1  0  0  0  0
 17 18  1  0  0  0  0
 17 27  1  0  0  0  0
 18 19  1  0  0  0  0
 18 26  2  0  0  0  0
 19 20  2  0  0  0  0
 19 41  1  0  0  0  0
 20 21  1  0  0  0  0
 20 42  1  0  0  0  0
 21 22  1  0  0  0  0
 21 25  2  0  0  0  0
 22 23  1  0  0  0  0
 22 24  2  0  0  0  0
 23 43  1  0  0  0  0
 23 44  1  0  0  0  0
 25 26  1  0  0  0  0
 25 45  1  0  0  0  0
 26 46  1  0  0  0  0
 28 47  1  0  0  0  0
M  END
$$$$
