CHEMBL270954
 OpenBabel04072215363D

 60 64  0  0  0  0  0  0  0  0999 V2000
   10.8648   -2.4539   -1.5934 C   0  0  0  0  0  0  0  0  0  0  0  0
    9.8050   -3.3911   -1.7939 O   0  0  0  0  0  0  0  0  0  0  0  0
    8.8632   -3.0435   -2.7340 C   0  0  0  0  0  0  0  0  0  0  0  0
    9.1860   -2.2429   -3.8350 C   0  0  0  0  0  0  0  0  0  0  0  0
    8.2587   -1.8702   -4.7918 C   0  0  0  0  0  0  0  0  0  0  0  0
    8.6962   -1.0729   -5.7750 N   0  0  0  0  0  0  0  0  0  0  0  0
    7.8300   -0.7050   -6.7349 C   0  0  0  0  0  0  0  0  0  0  0  0
    6.5132   -1.0969   -6.7547 C   0  0  0  0  0  0  0  0  0  0  0  0
    6.0391   -1.8661   -5.6909 C   0  0  0  0  0  0  0  0  0  0  0  0
    4.7002   -2.2131   -5.6109 O   0  0  0  0  0  0  0  0  0  0  0  0
    3.7521   -1.2889   -6.0116 C   0  0  0  0  0  0  0  0  0  0  0  0
    2.6184   -1.7816   -6.6511 C   0  0  0  0  0  0  0  0  0  0  0  0
    1.5928   -0.9083   -7.0484 C   0  0  0  0  0  0  0  0  0  0  0  0
    1.6570    0.4718   -6.8009 C   0  0  0  0  0  0  0  0  0  0  0  0
    2.8320    0.9551   -6.1910 C   0  0  0  0  0  0  0  0  0  0  0  0
    3.8530    0.0847   -5.7825 C   0  0  0  0  0  0  0  0  0  0  0  0
    3.0885    2.2836   -5.9474 O   0  0  0  0  0  0  0  0  0  0  0  0
    1.9006    3.0693   -5.8969 C   0  0  0  0  0  0  0  0  0  0  0  0
    1.0017    2.8026   -7.0922 C   0  0  0  0  0  0  0  0  0  0  0  0
    0.5845    1.3921   -7.1189 N   0  0  0  0  0  0  0  0  0  0  0  0
   -0.7438    0.9524   -7.2796 C   0  0  0  0  0  0  0  0  0  0  0  0
   -1.0565   -0.2345   -7.1797 O   0  0  0  0  0  0  0  0  0  0  0  0
   -1.6883    1.9343   -7.5207 N   0  0  0  0  0  0  0  0  0  0  0  0
   -3.0923    1.7268   -7.5878 C   0  0  0  0  0  0  0  0  0  0  0  0
   -3.7248    0.5529   -7.1697 C   0  0  0  0  0  0  0  0  0  0  0  0
   -5.0918    0.3547   -7.3802 C   0  0  0  0  0  0  0  0  0  0  0  0
   -5.8654    1.3444   -7.9854 C   0  0  0  0  0  0  0  0  0  0  0  0
   -7.3100    1.0975   -8.3004 C   0  0  0  0  0  0  0  0  0  0  0  0
   -5.2568    2.5577   -8.3268 C   0  0  0  0  0  0  0  0  0  0  0  0
   -3.8838    2.7495   -8.1233 C   0  0  0  0  0  0  0  0  0  0  0  0
    6.9320   -2.3255   -4.6868 C   0  0  0  0  0  0  0  0  0  0  0  0
    6.6020   -3.1814   -3.6013 C   0  0  0  0  0  0  0  0  0  0  0  0
    7.5545   -3.5366   -2.6172 C   0  0  0  0  0  0  0  0  0  0  0  0
    7.0707   -4.3765   -1.4744 C   0  0  0  0  0  0  0  0  0  0  0  0
    7.9563   -4.7243   -0.4922 N   0  0  0  0  0  0  0  0  0  0  0  0
    5.9022   -4.7398   -1.3989 O   0  0  0  0  0  0  0  0  0  0  0  0
   11.4542   -2.7920   -0.7362 H   0  0  0  0  0  0  0  0  0  0  0  0
   10.4681   -1.4597   -1.3604 H   0  0  0  0  0  0  0  0  0  0  0  0
   11.5417   -2.4187   -2.4529 H   0  0  0  0  0  0  0  0  0  0  0  0
   10.1976   -1.8777   -3.9867 H   0  0  0  0  0  0  0  0  0  0  0  0
    8.2344   -0.0533   -7.5028 H   0  0  0  0  0  0  0  0  0  0  0  0
    5.8691   -0.7734   -7.5644 H   0  0  0  0  0  0  0  0  0  0  0  0
    2.5192   -2.8466   -6.8472 H   0  0  0  0  0  0  0  0  0  0  0  0
    0.7551   -1.3559   -7.5769 H   0  0  0  0  0  0  0  0  0  0  0  0
    4.7167    0.5007   -5.2708 H   0  0  0  0  0  0  0  0  0  0  0  0
    2.2072    4.1210   -5.8952 H   0  0  0  0  0  0  0  0  0  0  0  0
    1.3811    2.8735   -4.9507 H   0  0  0  0  0  0  0  0  0  0  0  0
    1.5383    2.9885   -8.0311 H   0  0  0  0  0  0  0  0  0  0  0  0
    0.1564    3.4900   -7.0437 H   0  0  0  0  0  0  0  0  0  0  0  0
   -1.3695    2.8020   -7.9140 H   0  0  0  0  0  0  0  0  0  0  0  0
   -3.1813   -0.2522   -6.6853 H   0  0  0  0  0  0  0  0  0  0  0  0
   -5.5337   -0.5945   -7.0850 H   0  0  0  0  0  0  0  0  0  0  0  0
   -7.6400    0.1215   -7.9264 H   0  0  0  0  0  0  0  0  0  0  0  0
   -7.4593    1.1034   -9.3855 H   0  0  0  0  0  0  0  0  0  0  0  0
   -7.9408    1.8636   -7.8424 H   0  0  0  0  0  0  0  0  0  0  0  0
   -5.8468    3.3526   -8.7776 H   0  0  0  0  0  0  0  0  0  0  0  0
   -3.4454    3.6987   -8.4185 H   0  0  0  0  0  0  0  0  0  0  0  0
    5.5853   -3.5684   -3.5189 H   0  0  0  0  0  0  0  0  0  0  0  0
    8.9300   -4.4522   -0.5367 H   0  0  0  0  0  0  0  0  0  0  0  0
    7.6185   -5.2507    0.3011 H   0  0  0  0  0  0  0  0  0  0  0  0
  1  2  1  0  0  0  0
  1 37  1  0  0  0  0
  1 38  1  0  0  0  0
  1 39  1  0  0  0  0
  2  3  1  0  0  0  0
  3  4  1  0  0  0  0
  3 33  2  0  0  0  0
  4  5  2  0  0  0  0
  4 40  1  0  0  0  0
  5  6  1  0  0  0  0
  5 31  1  0  0  0  0
  6  7  2  0  0  0  0
  7  8  1  0  0  0  0
  7 41  1  0  0  0  0
  8  9  2  0  0  0  0
  8 42  1  0  0  0  0
  9 10  1  0  0  0  0
  9 31  1  0  0  0  0
 10 11  1  0  0  0  0
 11 12  1  0  0  0  0
 11 16  2  0  0  0  0
 12 13  2  0  0  0  0
 12 43  1  0  0  0  0
 13 14  1  0  0  0  0
 13 44  1  0  0  0  0
 14 15  2  0  0  0  0
 14 20  1  0  0  0  0
 15 16  1  0  0  0  0
 15 17  1  0  0  0  0
 16 45  1  0  0  0  0
 17 18  1  0  0  0  0
 18 19  1  0  0  0  0
 18 46  1  0  0  0  0
 18 47  1  0  0  0  0
 19 20  1  0  0  0  0
 19 48  1  0  0  0  0
 19 49  1  0  0  0  0
 20 21  1  0  0  0  0
 21 22  2  0  0  0  0
 21 23  1  0  0  0  0
 23 24  1  0  0  0  0
 23 50  1  0  0  0  0
 24 25  1  0  0  0  0
 24 30  2  0  0  0  0
 25 26  2  0  0  0  0
 25 51  1  0  0  0  0
 26 27  1  0  0  0  0
 26 52  1  0  0  0  0
 27 28  1  0  0  0  0
 27 29  2  0  0  0  0
 28 53  1  0  0  0  0
 28 54  1  0  0  0  0
 28 55  1  0  0  0  0
 29 30  1  0  0  0  0
 29 56  1  0  0  0  0
 30 57  1  0  0  0  0
 31 32  2  0  0  0  0
 32 33  1  0  0  0  0
 32 58  1  0  0  0  0
 33 34  1  0  0  0  0
 34 35  1  0  0  0  0
 34 36  2  0  0  0  0
 35 59  1  0  0  0  0
 35 60  1  0  0  0  0
M  END
$$$$
