CHEMBL3397915
 OpenBabel04072215363D

 63 65  0  0  0  0  0  0  0  0999 V2000
    0.9358    0.5115    0.2772 C   0  0  0  0  0  0  0  0  0  0  0  0
    2.4499    0.3790    0.4203 C   0  0  0  0  0  0  0  0  0  0  0  0
    2.8983   -0.7933    1.1954 N   0  0  0  0  0  0  0  0  0  0  0  0
    2.3613   -2.0721    0.7047 C   0  0  0  0  0  0  0  0  0  0  0  0
    2.8508   -2.5308   -0.6654 C   0  0  0  0  0  0  0  0  0  0  0  0
    4.3745   -0.7585    1.3226 C   0  0  0  0  0  0  0  0  0  0  0  0
    4.9962   -1.8804    2.1706 C   0  0  0  0  0  0  0  0  0  0  0  0
    6.4163   -1.6746    2.2698 O   0  0  0  0  0  0  0  0  0  0  0  0
    7.1065   -2.6527    2.9310 C   0  0  0  0  0  0  0  0  0  0  0  0
    6.6717   -3.9599    3.1057 C   0  0  0  0  0  0  0  0  0  0  0  0
    7.4480   -4.8835    3.8089 C   0  0  0  0  0  0  0  0  0  0  0  0
    8.6773   -4.5273    4.3640 C   0  0  0  0  0  0  0  0  0  0  0  0
    9.4663   -5.4326    5.1203 N   0  0  0  0  0  0  0  0  0  0  0  0
    9.0248   -6.6638    5.5981 C   0  0  0  0  0  0  0  0  0  0  0  0
    7.8919   -7.1163    5.4732 O   0  0  0  0  0  0  0  0  0  0  0  0
    9.9762   -7.4707    6.4184 C   0  0  0  0  0  0  0  0  0  0  0  0
   10.6707   -6.7951    7.4433 C   0  0  0  0  0  0  0  0  0  0  0  0
   11.3026   -7.5049    8.4650 C   0  0  0  0  0  0  0  0  0  0  0  0
   11.2026   -8.8887    8.4940 C   0  0  0  0  0  0  0  0  0  0  0  0
   11.6801   -9.7082    9.4879 O   0  0  0  0  0  0  0  0  0  0  0  0
   12.3479   -9.0824   10.5771 C   0  0  0  0  0  0  0  0  0  0  0  0
   10.5588   -9.5617    7.4343 C   0  0  0  0  0  0  0  0  0  0  0  0
   10.5061  -10.9350    7.5336 O   0  0  0  0  0  0  0  0  0  0  0  0
    9.9767   -8.8926    6.3315 C   0  0  0  0  0  0  0  0  0  0  0  0
    9.4524   -9.6336    5.1325 C   0  0  0  0  0  0  0  0  0  0  0  0
    9.6324   -9.1205    3.8280 C   0  0  0  0  0  0  0  0  0  0  0  0
    9.1592   -9.7876    2.6903 C   0  0  0  0  0  0  0  0  0  0  0  0
    8.5426  -11.0259    2.8147 C   0  0  0  0  0  0  0  0  0  0  0  0
    8.3895  -11.5727    4.0806 C   0  0  0  0  0  0  0  0  0  0  0  0
    7.8392  -12.8116    4.2468 O   0  0  0  0  0  0  0  0  0  0  0  0
    8.8048  -10.8807    5.2213 C   0  0  0  0  0  0  0  0  0  0  0  0
    9.1388   -3.2242    4.1572 C   0  0  0  0  0  0  0  0  0  0  0  0
    8.3559   -2.2951    3.4435 C   0  0  0  0  0  0  0  0  0  0  0  0
    0.6848    1.5040   -0.1117 H   0  0  0  0  0  0  0  0  0  0  0  0
    0.4299    0.3914    1.2406 H   0  0  0  0  0  0  0  0  0  0  0  0
    0.5315   -0.2239   -0.4259 H   0  0  0  0  0  0  0  0  0  0  0  0
    2.8011    1.2833    0.9325 H   0  0  0  0  0  0  0  0  0  0  0  0
    2.9025    0.3892   -0.5786 H   0  0  0  0  0  0  0  0  0  0  0  0
    1.2657   -2.0314    0.6924 H   0  0  0  0  0  0  0  0  0  0  0  0
    2.5750   -2.8604    1.4370 H   0  0  0  0  0  0  0  0  0  0  0  0
    2.7567   -1.7468   -1.4216 H   0  0  0  0  0  0  0  0  0  0  0  0
    2.2541   -3.3847   -1.0037 H   0  0  0  0  0  0  0  0  0  0  0  0
    3.8958   -2.8532   -0.6284 H   0  0  0  0  0  0  0  0  0  0  0  0
    4.6693    0.1951    1.7806 H   0  0  0  0  0  0  0  0  0  0  0  0
    4.8487   -0.7656    0.3328 H   0  0  0  0  0  0  0  0  0  0  0  0
    4.7925   -2.8315    1.6734 H   0  0  0  0  0  0  0  0  0  0  0  0
    4.5601   -1.8749    3.1767 H   0  0  0  0  0  0  0  0  0  0  0  0
    5.7318   -4.3213    2.7057 H   0  0  0  0  0  0  0  0  0  0  0  0
    7.0490   -5.8887    3.8898 H   0  0  0  0  0  0  0  0  0  0  0  0
   10.3901   -5.1146    5.3783 H   0  0  0  0  0  0  0  0  0  0  0  0
   10.6665   -5.7098    7.5030 H   0  0  0  0  0  0  0  0  0  0  0  0
   11.8077   -6.9472    9.2461 H   0  0  0  0  0  0  0  0  0  0  0  0
   12.7033   -9.8709   11.2476 H   0  0  0  0  0  0  0  0  0  0  0  0
   11.6630   -8.4436   11.1445 H   0  0  0  0  0  0  0  0  0  0  0  0
   13.2222   -8.5209   10.2330 H   0  0  0  0  0  0  0  0  0  0  0  0
   10.7979  -11.1452    8.4419 H   0  0  0  0  0  0  0  0  0  0  0  0
   10.1399   -8.1722    3.6717 H   0  0  0  0  0  0  0  0  0  0  0  0
    9.2766   -9.3325    1.7105 H   0  0  0  0  0  0  0  0  0  0  0  0
    8.1874  -11.5396    1.9282 H   0  0  0  0  0  0  0  0  0  0  0  0
    7.7599  -13.2284    3.3735 H   0  0  0  0  0  0  0  0  0  0  0  0
    8.6254  -11.3480    6.1851 H   0  0  0  0  0  0  0  0  0  0  0  0
   10.0931   -2.8951    4.5616 H   0  0  0  0  0  0  0  0  0  0  0  0
    8.7221   -1.2813    3.3057 H   0  0  0  0  0  0  0  0  0  0  0  0
  1  2  1  0  0  0  0
  1 34  1  0  0  0  0
  1 35  1  0  0  0  0
  1 36  1  0  0  0  0
  2  3  1  0  0  0  0
  2 37  1  0  0  0  0
  2 38  1  0  0  0  0
  3  4  1  0  0  0  0
  3  6  1  0  0  0  0
  4  5  1  0  0  0  0
  4 39  1  0  0  0  0
  4 40  1  0  0  0  0
  5 41  1  0  0  0  0
  5 42  1  0  0  0  0
  5 43  1  0  0  0  0
  6  7  1  0  0  0  0
  6 44  1  0  0  0  0
  6 45  1  0  0  0  0
  7  8  1  0  0  0  0
  7 46  1  0  0  0  0
  7 47  1  0  0  0  0
  8  9  1  0  0  0  0
  9 10  1  0  0  0  0
  9 33  2  0  0  0  0
 10 11  2  0  0  0  0
 10 48  1  0  0  0  0
 11 12  1  0  0  0  0
 11 49  1  0  0  0  0
 12 13  1  0  0  0  0
 12 32  2  0  0  0  0
 13 14  1  0  0  0  0
 13 50  1  0  0  0  0
 14 15  2  0  0  0  0
 14 16  1  0  0  0  0
 16 17  1  0  0  0  0
 16 24  2  0  0  0  0
 17 18  2  0  0  0  0
 17 51  1  0  0  0  0
 18 19  1  0  0  0  0
 18 52  1  0  0  0  0
 19 20  1  0  0  0  0
 19 22  2  0  0  0  0
 20 21  1  0  0  0  0
 21 53  1  0  0  0  0
 21 54  1  0  0  0  0
 21 55  1  0  0  0  0
 22 23  1  0  0  0  0
 22 24  1  0  0  0  0
 23 56  1  0  0  0  0
 24 25  1  0  0  0  0
 25 26  1  0  0  0  0
 25 31  2  0  0  0  0
 26 27  2  0  0  0  0
 26 57  1  0  0  0  0
 27 28  1  0  0  0  0
 27 58  1  0  0  0  0
 28 29  2  0  0  0  0
 28 59  1  0  0  0  0
 29 30  1  0  0  0  0
 29 31  1  0  0  0  0
 30 60  1  0  0  0  0
 31 61  1  0  0  0  0
 32 33  1  0  0  0  0
 32 62  1  0  0  0  0
 33 63  1  0  0  0  0
M  END
$$$$
