CHEMBL3924544
 OpenBabel04072215373D

 42 46  0  0  0  0  0  0  0  0999 V2000
    5.4452   -1.9343    0.9778 C   0  0  0  0  0  0  0  0  0  0  0  0
    4.6697   -0.8899    0.2016 C   0  0  0  0  0  0  0  0  0  0  0  0
    5.1757    0.4247    0.1957 C   0  0  0  0  0  0  0  0  0  0  0  0
    4.4982    1.4274   -0.4851 C   0  0  0  0  0  0  0  0  0  0  0  0
    4.9889    2.7102   -0.4439 O   0  0  0  0  0  0  0  0  0  0  0  0
    3.2929    1.1519   -1.1424 C   0  0  0  0  0  0  0  0  0  0  0  0
    2.4128    2.3842   -1.9738 Cl  0  0  0  0  0  0  0  0  0  0  0  0
    2.7754   -0.1513   -1.1243 C   0  0  0  0  0  0  0  0  0  0  0  0
    3.4298   -1.1803   -0.4274 C   0  0  0  0  0  0  0  0  0  0  0  0
    2.7380   -2.4850   -0.3025 C   0  0  0  0  0  0  0  0  0  0  0  0
    2.2766   -3.2287   -1.4107 C   0  0  0  0  0  0  0  0  0  0  0  0
    1.6408   -4.4887   -1.2573 C   0  0  0  0  0  0  0  0  0  0  0  0
    1.3300   -4.9213    0.0478 C   0  0  0  0  0  0  0  0  0  0  0  0
    0.6597   -5.9714    0.7325 C   0  0  0  0  0  0  0  0  0  0  0  0
    0.9996   -7.4121    1.0071 C   0  0  0  0  0  0  0  0  0  0  0  0
    2.1844   -7.9561    1.2492 N   0  0  0  0  0  0  0  0  0  0  0  0
    1.9077   -9.2298    1.7359 C   0  0  0  0  0  0  0  0  0  0  0  0
    2.7468  -10.2622    2.1942 C   0  0  0  0  0  0  0  0  0  0  0  0
    2.1813  -11.5293    2.4347 C   0  0  0  0  0  0  0  0  0  0  0  0
    0.8128  -11.7545    2.2617 C   0  0  0  0  0  0  0  0  0  0  0  0
   -0.0518  -10.7067    1.9486 C   0  0  0  0  0  0  0  0  0  0  0  0
    0.5390   -9.4686    1.7118 C   0  0  0  0  0  0  0  0  0  0  0  0
    0.0036   -8.2482    1.4375 N   0  0  0  0  0  0  0  0  0  0  0  0
   -0.0974   -5.4303    1.6995 N   0  0  0  0  0  0  0  0  0  0  0  0
    0.6738   -4.3924    2.0658 N   0  0  0  0  0  0  0  0  0  0  0  0
    1.5452   -4.0094    1.0774 C   0  0  0  0  0  0  0  0  0  0  0  0
    2.3764   -2.9123    0.9815 C   0  0  0  0  0  0  0  0  0  0  0  0
    6.4476   -1.5710    1.2231 H   0  0  0  0  0  0  0  0  0  0  0  0
    5.5711   -2.8399    0.3764 H   0  0  0  0  0  0  0  0  0  0  0  0
    4.9506   -2.1802    1.9237 H   0  0  0  0  0  0  0  0  0  0  0  0
    6.0986    0.6393    0.7121 H   0  0  0  0  0  0  0  0  0  0  0  0
    5.7814    2.7335    0.1105 H   0  0  0  0  0  0  0  0  0  0  0  0
    1.8171   -0.3351   -1.5982 H   0  0  0  0  0  0  0  0  0  0  0  0
    2.3734   -2.8142   -2.4143 H   0  0  0  0  0  0  0  0  0  0  0  0
    1.2471   -5.0047   -2.1304 H   0  0  0  0  0  0  0  0  0  0  0  0
    3.8116  -10.1010    2.3267 H   0  0  0  0  0  0  0  0  0  0  0  0
    2.8200  -12.3580    2.7338 H   0  0  0  0  0  0  0  0  0  0  0  0
    0.4068  -12.7569    2.3798 H   0  0  0  0  0  0  0  0  0  0  0  0
   -1.1202  -10.8555    1.8440 H   0  0  0  0  0  0  0  0  0  0  0  0
   -0.9612   -7.9650    1.5325 H   0  0  0  0  0  0  0  0  0  0  0  0
    0.4495   -3.9003    2.9155 H   0  0  0  0  0  0  0  0  0  0  0  0
    2.6055   -2.3176    1.8591 H   0  0  0  0  0  0  0  0  0  0  0  0
  1  2  1  0  0  0  0
  1 28  1  0  0  0  0
  1 29  1  0  0  0  0
  1 30  1  0  0  0  0
  2  3  1  0  0  0  0
  2  9  2  0  0  0  0
  3  4  2  0  0  0  0
  3 31  1  0  0  0  0
  4  5  1  0  0  0  0
  4  6  1  0  0  0  0
  5 32  1  0  0  0  0
  6  7  1  0  0  0  0
  6  8  2  0  0  0  0
  8  9  1  0  0  0  0
  8 33  1  0  0  0  0
  9 10  1  0  0  0  0
 10 11  1  0  0  0  0
 10 27  2  0  0  0  0
 11 12  2  0  0  0  0
 11 34  1  0  0  0  0
 12 13  1  0  0  0  0
 12 35  1  0  0  0  0
 13 14  1  0  0  0  0
 13 26  2  0  0  0  0
 14 15  1  0  0  0  0
 14 24  2  0  0  0  0
 15 16  2  0  0  0  0
 15 23  1  0  0  0  0
 16 17  1  0  0  0  0
 17 18  1  0  0  0  0
 17 22  2  0  0  0  0
 18 19  2  0  0  0  0
 18 36  1  0  0  0  0
 19 20  1  0  0  0  0
 19 37  1  0  0  0  0
 20 21  2  0  0  0  0
 20 38  1  0  0  0  0
 21 22  1  0  0  0  0
 21 39  1  0  0  0  0
 22 23  1  0  0  0  0
 23 40  1  0  0  0  0
 24 25  1  0  0  0  0
 25 26  1  0  0  0  0
 25 41  1  0  0  0  0
 26 27  1  0  0  0  0
 27 42  1  0  0  0  0
M  END
$$$$
