CHEMBL3961982
 OpenBabel04072215373D

 46 49  0  0  0  0  0  0  0  0999 V2000
    1.0890   -0.0490    0.5489 C   0  0  0  0  0  0  0  0  0  0  0  0
    2.4899    0.0566    0.3524 O   0  0  0  0  0  0  0  0  0  0  0  0
    3.0304    1.2923    0.1275 C   0  0  0  0  0  0  0  0  0  0  0  0
    4.1398    1.2558   -0.7266 C   0  0  0  0  0  0  0  0  0  0  0  0
    4.8474    2.4330   -1.0765 C   0  0  0  0  0  0  0  0  0  0  0  0
    5.9388    2.5188   -1.9582 C   0  0  0  0  0  0  0  0  0  0  0  0
    6.4086    1.3555   -2.6216 N   0  0  0  0  0  0  0  0  0  0  0  0
    7.6747    1.2827   -3.2424 C   0  0  0  0  0  0  0  0  0  0  0  0
    8.8186    1.7160   -2.5529 C   0  0  0  0  0  0  0  0  0  0  0  0
   10.0703    1.7406   -3.1732 C   0  0  0  0  0  0  0  0  0  0  0  0
   10.1902    1.3207   -4.4950 C   0  0  0  0  0  0  0  0  0  0  0  0
   11.7541    1.4213   -5.2253 Cl  0  0  0  0  0  0  0  0  0  0  0  0
    9.0657    0.8519   -5.1841 C   0  0  0  0  0  0  0  0  0  0  0  0
    9.1484    0.3106   -6.8247 Cl  0  0  0  0  0  0  0  0  0  0  0  0
    7.8138    0.8254   -4.5543 C   0  0  0  0  0  0  0  0  0  0  0  0
    6.5662    3.6887   -2.2075 N   0  0  0  0  0  0  0  0  0  0  0  0
    6.1117    4.7724   -1.5818 C   0  0  0  0  0  0  0  0  0  0  0  0
    5.0888    4.8032   -0.7297 N   0  0  0  0  0  0  0  0  0  0  0  0
    4.4778    3.6433   -0.4916 C   0  0  0  0  0  0  0  0  0  0  0  0
    3.4120    3.6555    0.3851 C   0  0  0  0  0  0  0  0  0  0  0  0
    2.6366    2.5148    0.6777 C   0  0  0  0  0  0  0  0  0  0  0  0
    1.5291    2.5888    1.4983 O   0  0  0  0  0  0  0  0  0  0  0  0
    0.9755    3.9089    1.5820 C   0  0  0  0  0  0  0  0  0  0  0  0
   -0.4435    3.9712    2.0863 C   0  0  0  0  0  0  0  0  0  0  0  0
   -0.9308    3.1158    3.0775 C   0  0  0  0  0  0  0  0  0  0  0  0
   -2.2173    3.3098    3.5861 C   0  0  0  0  0  0  0  0  0  0  0  0
   -2.8657    2.1666    4.9476 Br  0  0  0  0  0  0  0  0  0  0  0  0
   -3.0277    4.3491    3.1219 C   0  0  0  0  0  0  0  0  0  0  0  0
   -2.5400    5.2020    2.1405 C   0  0  0  0  0  0  0  0  0  0  0  0
   -3.5995    6.6366    1.5146 Br  0  0  0  0  0  0  0  0  0  0  0  0
   -1.2598    5.0210    1.6248 C   0  0  0  0  0  0  0  0  0  0  0  0
    0.7322   -0.8633   -0.0901 H   0  0  0  0  0  0  0  0  0  0  0  0
    0.5202    0.8416    0.2692 H   0  0  0  0  0  0  0  0  0  0  0  0
    0.8904   -0.3269    1.5879 H   0  0  0  0  0  0  0  0  0  0  0  0
    4.4566    0.2924   -1.1275 H   0  0  0  0  0  0  0  0  0  0  0  0
    5.6599    0.9561   -3.1800 H   0  0  0  0  0  0  0  0  0  0  0  0
    8.7316    2.0652   -1.5250 H   0  0  0  0  0  0  0  0  0  0  0  0
   10.9301    2.1055   -2.6197 H   0  0  0  0  0  0  0  0  0  0  0  0
    6.9443    0.4818   -5.1087 H   0  0  0  0  0  0  0  0  0  0  0  0
    6.6166    5.7105   -1.7837 H   0  0  0  0  0  0  0  0  0  0  0  0
    3.1968    4.6186    0.8380 H   0  0  0  0  0  0  0  0  0  0  0  0
    0.9705    4.3614    0.5810 H   0  0  0  0  0  0  0  0  0  0  0  0
    1.5833    4.5128    2.2672 H   0  0  0  0  0  0  0  0  0  0  0  0
   -0.3021    2.3179    3.4643 H   0  0  0  0  0  0  0  0  0  0  0  0
   -4.0207    4.5017    3.5358 H   0  0  0  0  0  0  0  0  0  0  0  0
   -0.8819    5.7122    0.8721 H   0  0  0  0  0  0  0  0  0  0  0  0
  1  2  1  0  0  0  0
  1 32  1  0  0  0  0
  1 33  1  0  0  0  0
  1 34  1  0  0  0  0
  2  3  1  0  0  0  0
  3  4  1  0  0  0  0
  3 21  2  0  0  0  0
  4  5  2  0  0  0  0
  4 35  1  0  0  0  0
  5  6  1  0  0  0  0
  5 19  1  0  0  0  0
  6  7  1  0  0  0  0
  6 16  2  0  0  0  0
  7  8  1  0  0  0  0
  7 36  1  0  0  0  0
  8  9  1  0  0  0  0
  8 15  2  0  0  0  0
  9 10  2  0  0  0  0
  9 37  1  0  0  0  0
 10 11  1  0  0  0  0
 10 38  1  0  0  0  0
 11 12  1  0  0  0  0
 11 13  2  0  0  0  0
 13 14  1  0  0  0  0
 13 15  1  0  0  0  0
 15 39  1  0  0  0  0
 16 17  1  0  0  0  0
 17 18  2  0  0  0  0
 17 40  1  0  0  0  0
 18 19  1  0  0  0  0
 19 20  2  0  0  0  0
 20 21  1  0  0  0  0
 20 41  1  0  0  0  0
 21 22  1  0  0  0  0
 22 23  1  0  0  0  0
 23 24  1  0  0  0  0
 23 42  1  0  0  0  0
 23 43  1  0  0  0  0
 24 25  1  0  0  0  0
 24 31  2  0  0  0  0
 25 26  2  0  0  0  0
 25 44  1  0  0  0  0
 26 27  1  0  0  0  0
 26 28  1  0  0  0  0
 28 29  2  0  0  0  0
 28 45  1  0  0  0  0
 29 30  1  0  0  0  0
 29 31  1  0  0  0  0
 31 46  1  0  0  0  0
M  END
$$$$
