CHEMBL1277253
 OpenBabel04072215363D

 51 54  0  0  0  0  0  0  0  0999 V2000
    9.5102   -4.6496   -2.7610 C   0  0  0  0  0  0  0  0  0  0  0  0
    9.6365   -3.9107   -3.9811 O   0  0  0  0  0  0  0  0  0  0  0  0
    8.6341   -3.0109   -4.2397 C   0  0  0  0  0  0  0  0  0  0  0  0
    7.9296   -2.3927   -3.1942 C   0  0  0  0  0  0  0  0  0  0  0  0
    6.8177   -1.5981   -3.4135 C   0  0  0  0  0  0  0  0  0  0  0  0
    6.1408   -1.1626   -2.3464 N   0  0  0  0  0  0  0  0  0  0  0  0
    5.0100   -0.4938   -2.5825 C   0  0  0  0  0  0  0  0  0  0  0  0
    4.5165   -0.2027   -3.7835 N   0  0  0  0  0  0  0  0  0  0  0  0
    5.2651   -0.5735   -4.8451 C   0  0  0  0  0  0  0  0  0  0  0  0
    4.8170   -0.2189   -6.1255 O   0  0  0  0  0  0  0  0  0  0  0  0
    3.9724    0.8768   -6.2022 C   0  0  0  0  0  0  0  0  0  0  0  0
    4.2042    2.0235   -5.4378 C   0  0  0  0  0  0  0  0  0  0  0  0
    3.2641    3.0339   -5.3962 C   0  0  0  0  0  0  0  0  0  0  0  0
    2.1415    2.9470   -6.2091 C   0  0  0  0  0  0  0  0  0  0  0  0
    1.9779    1.9047   -7.1359 C   0  0  0  0  0  0  0  0  0  0  0  0
    0.9339    1.9325   -8.1111 N   0  0  0  0  0  0  0  0  0  0  0  0
    0.2787    3.1073   -8.4736 C   0  0  0  0  0  0  0  0  0  0  0  0
    0.5606    4.2050   -8.0051 O   0  0  0  0  0  0  0  0  0  0  0  0
   -0.7259    2.9267   -9.4111 N   0  0  0  0  0  0  0  0  0  0  0  0
   -1.4970    4.0024   -9.9437 C   0  0  0  0  0  0  0  0  0  0  0  0
   -1.0859    5.3422   -9.8728 C   0  0  0  0  0  0  0  0  0  0  0  0
   -1.9094    6.3847  -10.3016 C   0  0  0  0  0  0  0  0  0  0  0  0
   -3.1496    6.1004  -10.8540 C   0  0  0  0  0  0  0  0  0  0  0  0
   -3.5504    4.7725  -10.9950 C   0  0  0  0  0  0  0  0  0  0  0  0
   -2.7277    3.7263  -10.5473 C   0  0  0  0  0  0  0  0  0  0  0  0
    2.8847    0.8327   -7.0939 C   0  0  0  0  0  0  0  0  0  0  0  0
    6.4385   -1.3226   -4.7286 C   0  0  0  0  0  0  0  0  0  0  0  0
    7.2242   -1.8167   -5.7930 C   0  0  0  0  0  0  0  0  0  0  0  0
    8.3033   -2.6835   -5.5609 C   0  0  0  0  0  0  0  0  0  0  0  0
    8.8738   -3.1058   -6.7285 O   0  0  0  0  0  0  0  0  0  0  0  0
    9.7817   -4.1952   -6.7120 C   0  0  0  0  0  0  0  0  0  0  0  0
    9.9246   -5.6492   -2.9215 H   0  0  0  0  0  0  0  0  0  0  0  0
    8.4703   -4.7885   -2.4392 H   0  0  0  0  0  0  0  0  0  0  0  0
   10.0890   -4.1587   -1.9719 H   0  0  0  0  0  0  0  0  0  0  0  0
    8.2187   -2.5538   -2.1584 H   0  0  0  0  0  0  0  0  0  0  0  0
    4.4438   -0.1563   -1.7218 H   0  0  0  0  0  0  0  0  0  0  0  0
    5.0871    2.1099   -4.8025 H   0  0  0  0  0  0  0  0  0  0  0  0
    3.3887    3.8843   -4.7316 H   0  0  0  0  0  0  0  0  0  0  0  0
    1.4063    3.7388   -6.1005 H   0  0  0  0  0  0  0  0  0  0  0  0
    0.8827    1.1565   -8.7546 H   0  0  0  0  0  0  0  0  0  0  0  0
   -1.1092    1.9978   -9.5048 H   0  0  0  0  0  0  0  0  0  0  0  0
   -0.1162    5.6239   -9.4750 H   0  0  0  0  0  0  0  0  0  0  0  0
   -1.5729    7.4120  -10.1877 H   0  0  0  0  0  0  0  0  0  0  0  0
   -3.7961    6.9134  -11.1743 H   0  0  0  0  0  0  0  0  0  0  0  0
   -4.5171    4.5538  -11.4417 H   0  0  0  0  0  0  0  0  0  0  0  0
   -3.0833    2.7063  -10.6556 H   0  0  0  0  0  0  0  0  0  0  0  0
    2.7636   -0.0301   -7.7402 H   0  0  0  0  0  0  0  0  0  0  0  0
    6.9642   -1.5667   -6.8202 H   0  0  0  0  0  0  0  0  0  0  0  0
    9.8749   -4.5489   -7.7448 H   0  0  0  0  0  0  0  0  0  0  0  0
    9.4123   -5.0398   -6.1237 H   0  0  0  0  0  0  0  0  0  0  0  0
   10.7726   -3.8678   -6.3846 H   0  0  0  0  0  0  0  0  0  0  0  0
  1  2  1  0  0  0  0
  1 32  1  0  0  0  0
  1 33  1  0  0  0  0
  1 34  1  0  0  0  0
  2  3  1  0  0  0  0
  3  4  1  0  0  0  0
  3 29  2  0  0  0  0
  4  5  2  0  0  0  0
  4 35  1  0  0  0  0
  5  6  1  0  0  0  0
  5 27  1  0  0  0  0
  6  7  2  0  0  0  0
  7  8  1  0  0  0  0
  7 36  1  0  0  0  0
  8  9  2  0  0  0  0
  9 10  1  0  0  0  0
  9 27  1  0  0  0  0
 10 11  1  0  0  0  0
 11 12  1  0  0  0  0
 11 26  2  0  0  0  0
 12 13  2  0  0  0  0
 12 37  1  0  0  0  0
 13 14  1  0  0  0  0
 13 38  1  0  0  0  0
 14 15  2  0  0  0  0
 14 39  1  0  0  0  0
 15 16  1  0  0  0  0
 15 26  1  0  0  0  0
 16 17  1  0  0  0  0
 16 40  1  0  0  0  0
 17 18  2  0  0  0  0
 17 19  1  0  0  0  0
 19 20  1  0  0  0  0
 19 41  1  0  0  0  0
 20 21  1  0  0  0  0
 20 25  2  0  0  0  0
 21 22  2  0  0  0  0
 21 42  1  0  0  0  0
 22 23  1  0  0  0  0
 22 43  1  0  0  0  0
 23 24  2  0  0  0  0
 23 44  1  0  0  0  0
 24 25  1  0  0  0  0
 24 45  1  0  0  0  0
 25 46  1  0  0  0  0
 26 47  1  0  0  0  0
 27 28  2  0  0  0  0
 28 29  1  0  0  0  0
 28 48  1  0  0  0  0
 29 30  1  0  0  0  0
 30 31  1  0  0  0  0
 31 49  1  0  0  0  0
 31 50  1  0  0  0  0
 31 51  1  0  0  0  0
M  END
$$$$
