CHEMBL371551
 OpenBabel04072215373D

 54 56  0  0  0  0  0  0  0  0999 V2000
   13.8545   -9.5099    7.4296 C   0  0  0  0  0  0  0  0  0  0  0  0
   13.2612   -8.2201    7.3715 O   0  0  0  0  0  0  0  0  0  0  0  0
   13.2084   -7.7357    6.0304 C   0  0  0  0  0  0  0  0  0  0  0  0
   12.5722   -6.3579    6.0352 C   0  0  0  0  0  0  0  0  0  0  0  0
   12.5191   -5.8502    4.6999 O   0  0  0  0  0  0  0  0  0  0  0  0
   11.9459   -4.5936    4.5519 C   0  0  0  0  0  0  0  0  0  0  0  0
   11.4603   -3.8469    5.5453 C   0  0  0  0  0  0  0  0  0  0  0  0
   10.8194   -2.5342    5.3254 C   0  0  0  0  0  0  0  0  0  0  0  0
   10.2362   -1.9800    6.2524 O   0  0  0  0  0  0  0  0  0  0  0  0
   10.9342   -1.9119    3.9725 C   0  0  0  0  0  0  0  0  0  0  0  0
   10.5502   -0.5709    3.8494 N   0  0  0  0  0  0  0  0  0  0  0  0
   11.4272    0.4066    3.3095 C   0  0  0  0  0  0  0  0  0  0  0  0
   12.3947    0.0234    2.4488 N   0  0  0  0  0  0  0  0  0  0  0  0
   13.1133    0.9888    1.8843 C   0  0  0  0  0  0  0  0  0  0  0  0
   12.9780    2.3113    2.0865 N   0  0  0  0  0  0  0  0  0  0  0  0
   12.0182    2.6929    2.9399 C   0  0  0  0  0  0  0  0  0  0  0  0
   11.7815    4.0484    3.1949 C   0  0  0  0  0  0  0  0  0  0  0  0
   10.8062    4.5367    4.1092 C   0  0  0  0  0  0  0  0  0  0  0  0
   10.8382    5.9054    4.1530 O   0  0  0  0  0  0  0  0  0  0  0  0
   10.4340    6.4895    5.3807 C   0  0  0  0  0  0  0  0  0  0  0  0
   11.0453    7.8588    5.6924 C   0  0  0  0  0  0  0  0  0  0  0  0
   10.6263    8.7512    4.6673 O   0  0  0  0  0  0  0  0  0  0  0  0
   11.0781   10.0798    4.8568 C   0  0  0  0  0  0  0  0  0  0  0  0
   10.0228    3.6022    4.8024 C   0  0  0  0  0  0  0  0  0  0  0  0
    9.0295    3.6075    5.7182 O   0  0  0  0  0  0  0  0  0  0  0  0
    8.2828    4.6309    6.3203 C   0  0  0  0  0  0  0  0  0  0  0  0
   10.2707    2.2484    4.5347 C   0  0  0  0  0  0  0  0  0  0  0  0
   11.2190    1.7715    3.6065 C   0  0  0  0  0  0  0  0  0  0  0  0
   11.3839   -2.6916    2.9725 C   0  0  0  0  0  0  0  0  0  0  0  0
   11.8614   -4.0650    3.1589 C   0  0  0  0  0  0  0  0  0  0  0  0
   12.2058   -4.7224    2.1912 O   0  0  0  0  0  0  0  0  0  0  0  0
   13.8616   -9.8408    8.4714 H   0  0  0  0  0  0  0  0  0  0  0  0
   14.8862   -9.4708    7.0665 H   0  0  0  0  0  0  0  0  0  0  0  0
   13.2724  -10.2231    6.8383 H   0  0  0  0  0  0  0  0  0  0  0  0
   12.6202   -8.4180    5.4049 H   0  0  0  0  0  0  0  0  0  0  0  0
   14.2191   -7.6735    5.6117 H   0  0  0  0  0  0  0  0  0  0  0  0
   13.1704   -5.6935    6.6690 H   0  0  0  0  0  0  0  0  0  0  0  0
   11.5609   -6.4273    6.4574 H   0  0  0  0  0  0  0  0  0  0  0  0
   11.4855   -4.1540    6.5769 H   0  0  0  0  0  0  0  0  0  0  0  0
   10.1168   -0.2681    4.7129 H   0  0  0  0  0  0  0  0  0  0  0  0
   13.8722    0.6772    1.1722 H   0  0  0  0  0  0  0  0  0  0  0  0
   12.3977    4.7750    2.6599 H   0  0  0  0  0  0  0  0  0  0  0  0
   10.7344    5.8285    6.1971 H   0  0  0  0  0  0  0  0  0  0  0  0
    9.3619    6.6476    5.3038 H   0  0  0  0  0  0  0  0  0  0  0  0
   12.1412    7.8103    5.7489 H   0  0  0  0  0  0  0  0  0  0  0  0
   10.6575    8.1929    6.6561 H   0  0  0  0  0  0  0  0  0  0  0  0
   10.7149   10.6680    4.0104 H   0  0  0  0  0  0  0  0  0  0  0  0
   12.1722   10.1238    4.8686 H   0  0  0  0  0  0  0  0  0  0  0  0
   10.6641   10.5033    5.7777 H   0  0  0  0  0  0  0  0  0  0  0  0
    7.5630    4.1353    6.9892 H   0  0  0  0  0  0  0  0  0  0  0  0
    7.6978    5.2040    5.6005 H   0  0  0  0  0  0  0  0  0  0  0  0
    8.8954    5.2447    6.9780 H   0  0  0  0  0  0  0  0  0  0  0  0
    9.6805    1.5392    5.1134 H   0  0  0  0  0  0  0  0  0  0  0  0
   11.4499   -2.3023    1.9717 H   0  0  0  0  0  0  0  0  0  0  0  0
  1  2  1  0  0  0  0
  1 32  1  0  0  0  0
  1 33  1  0  0  0  0
  1 34  1  0  0  0  0
  2  3  1  0  0  0  0
  3  4  1  0  0  0  0
  3 35  1  0  0  0  0
  3 36  1  0  0  0  0
  4  5  1  0  0  0  0
  4 37  1  0  0  0  0
  4 38  1  0  0  0  0
  5  6  1  0  0  0  0
  6  7  2  0  0  0  0
  6 30  1  0  0  0  0
  7  8  1  0  0  0  0
  7 39  1  0  0  0  0
  8  9  2  0  0  0  0
  8 10  1  0  0  0  0
 10 11  1  0  0  0  0
 10 29  2  0  0  0  0
 11 12  1  0  0  0  0
 11 40  1  0  0  0  0
 12 13  1  0  0  0  0
 12 28  2  0  0  0  0
 13 14  2  0  0  0  0
 14 15  1  0  0  0  0
 14 41  1  0  0  0  0
 15 16  2  0  0  0  0
 16 17  1  0  0  0  0
 16 28  1  0  0  0  0
 17 18  2  0  0  0  0
 17 42  1  0  0  0  0
 18 19  1  0  0  0  0
 18 24  1  0  0  0  0
 19 20  1  0  0  0  0
 20 21  1  0  0  0  0
 20 43  1  0  0  0  0
 20 44  1  0  0  0  0
 21 22  1  0  0  0  0
 21 45  1  0  0  0  0
 21 46  1  0  0  0  0
 22 23  1  0  0  0  0
 23 47  1  0  0  0  0
 23 48  1  0  0  0  0
 23 49  1  0  0  0  0
 24 25  1  0  0  0  0
 24 27  2  0  0  0  0
 25 26  1  0  0  0  0
 26 50  1  0  0  0  0
 26 51  1  0  0  0  0
 26 52  1  0  0  0  0
 27 28  1  0  0  0  0
 27 53  1  0  0  0  0
 29 30  1  0  0  0  0
 29 54  1  0  0  0  0
 30 31  2  0  0  0  0
M  END
$$$$
