CHEMBL275473
 OpenBabel04072215363D

 51 53  0  0  0  0  0  0  0  0999 V2000
    0.9574    0.6267    2.4163 C   0  0  0  0  0  0  0  0  0  0  0  0
    2.1277    1.2289    1.6553 C   0  0  0  0  0  0  0  0  0  0  0  0
    3.3392    0.3588    1.6476 N   0  0  0  0  0  0  0  0  0  0  0  0
    3.1187   -1.0542    1.2162 C   0  0  0  0  0  0  0  0  0  0  0  0
    2.8057   -1.1918   -0.2645 C   0  0  0  0  0  0  0  0  0  0  0  0
    4.7277    1.0900    0.9415 S   0  0  0  0  0  0  0  0  0  0  0  0
    5.8397    0.1725    1.0510 O   0  0  0  0  0  0  0  0  0  0  0  0
    4.3246    1.6230   -0.3459 O   0  0  0  0  0  0  0  0  0  0  0  0
    5.0673    2.4665    2.0085 C   0  0  0  0  0  0  0  0  0  0  0  0
    5.0021    3.7772    1.5405 C   0  0  0  0  0  0  0  0  0  0  0  0
    5.3303    4.8289    2.3999 C   0  0  0  0  0  0  0  0  0  0  0  0
    5.7400    4.5722    3.7176 C   0  0  0  0  0  0  0  0  0  0  0  0
    6.1201    5.5433    4.6161 O   0  0  0  0  0  0  0  0  0  0  0  0
    5.7167    6.8767    4.3204 C   0  0  0  0  0  0  0  0  0  0  0  0
    5.8386    3.2409    4.1862 C   0  0  0  0  0  0  0  0  0  0  0  0
    6.2930    3.0005    5.5063 N   0  0  0  0  0  0  0  0  0  0  0  0
    6.7025    1.8151    5.9924 C   0  0  0  0  0  0  0  0  0  0  0  0
    6.4977    0.5981    5.5369 N   0  0  0  0  0  0  0  0  0  0  0  0
    7.2281   -0.2057    6.3566 C   0  0  0  0  0  0  0  0  0  0  0  0
    7.8416    0.5465    7.3306 C   0  0  0  0  0  0  0  0  0  0  0  0
    8.7338    0.2392    8.4364 C   0  0  0  0  0  0  0  0  0  0  0  0
    9.1598   -1.0851    8.6371 C   0  0  0  0  0  0  0  0  0  0  0  0
   10.0259   -1.4104    9.6824 C   0  0  0  0  0  0  0  0  0  0  0  0
   10.4770   -0.4151   10.5427 C   0  0  0  0  0  0  0  0  0  0  0  0
   10.0618    0.9025   10.3597 C   0  0  0  0  0  0  0  0  0  0  0  0
    9.1952    1.2284    9.3121 C   0  0  0  0  0  0  0  0  0  0  0  0
    7.4922    1.8573    7.1122 O   0  0  0  0  0  0  0  0  0  0  0  0
    5.4600    2.2032    3.3209 C   0  0  0  0  0  0  0  0  0  0  0  0
    0.1931    1.3922    2.5878 H   0  0  0  0  0  0  0  0  0  0  0  0
    1.2656    0.2265    3.3871 H   0  0  0  0  0  0  0  0  0  0  0  0
    0.4829   -0.1777    1.8448 H   0  0  0  0  0  0  0  0  0  0  0  0
    2.3795    2.1701    2.1542 H   0  0  0  0  0  0  0  0  0  0  0  0
    1.8187    1.4645    0.6326 H   0  0  0  0  0  0  0  0  0  0  0  0
    2.3110   -1.4976    1.8076 H   0  0  0  0  0  0  0  0  0  0  0  0
    4.0042   -1.6511    1.4664 H   0  0  0  0  0  0  0  0  0  0  0  0
    2.0623   -0.4638   -0.6005 H   0  0  0  0  0  0  0  0  0  0  0  0
    2.4161   -2.1926   -0.4763 H   0  0  0  0  0  0  0  0  0  0  0  0
    3.7079   -1.0582   -0.8698 H   0  0  0  0  0  0  0  0  0  0  0  0
    4.7155    3.9846    0.5127 H   0  0  0  0  0  0  0  0  0  0  0  0
    5.2861    5.8379    2.0028 H   0  0  0  0  0  0  0  0  0  0  0  0
    5.9910    7.5060    5.1730 H   0  0  0  0  0  0  0  0  0  0  0  0
    4.6307    6.9410    4.1938 H   0  0  0  0  0  0  0  0  0  0  0  0
    6.2414    7.2675    3.4426 H   0  0  0  0  0  0  0  0  0  0  0  0
    6.6348    3.8426    5.9567 H   0  0  0  0  0  0  0  0  0  0  0  0
    7.2794   -1.2720    6.1947 H   0  0  0  0  0  0  0  0  0  0  0  0
    8.8275   -1.8834    7.9786 H   0  0  0  0  0  0  0  0  0  0  0  0
   10.3469   -2.4399    9.8179 H   0  0  0  0  0  0  0  0  0  0  0  0
   11.1539   -0.6666   11.3549 H   0  0  0  0  0  0  0  0  0  0  0  0
   10.4144    1.6809   11.0318 H   0  0  0  0  0  0  0  0  0  0  0  0
    8.8868    2.2641    9.1872 H   0  0  0  0  0  0  0  0  0  0  0  0
    5.4817    1.1645    3.6355 H   0  0  0  0  0  0  0  0  0  0  0  0
  1  2  1  0  0  0  0
  1 29  1  0  0  0  0
  1 30  1  0  0  0  0
  1 31  1  0  0  0  0
  2  3  1  0  0  0  0
  2 32  1  0  0  0  0
  2 33  1  0  0  0  0
  3  4  1  0  0  0  0
  3  6  1  0  0  0  0
  4  5  1  0  0  0  0
  4 34  1  0  0  0  0
  4 35  1  0  0  0  0
  5 36  1  0  0  0  0
  5 37  1  0  0  0  0
  5 38  1  0  0  0  0
  6  7  2  0  0  0  0
  6  8  2  0  0  0  0
  6  9  1  0  0  0  0
  9 10  1  0  0  0  0
  9 28  2  0  0  0  0
 10 11  2  0  0  0  0
 10 39  1  0  0  0  0
 11 12  1  0  0  0  0
 11 40  1  0  0  0  0
 12 13  1  0  0  0  0
 12 15  2  0  0  0  0
 13 14  1  0  0  0  0
 14 41  1  0  0  0  0
 14 42  1  0  0  0  0
 14 43  1  0  0  0  0
 15 16  1  0  0  0  0
 15 28  1  0  0  0  0
 16 17  1  0  0  0  0
 16 44  1  0  0  0  0
 17 18  2  0  0  0  0
 17 27  1  0  0  0  0
 18 19  1  0  0  0  0
 19 20  2  0  0  0  0
 19 45  1  0  0  0  0
 20 21  1  0  0  0  0
 20 27  1  0  0  0  0
 21 22  1  0  0  0  0
 21 26  2  0  0  0  0
 22 23  2  0  0  0  0
 22 46  1  0  0  0  0
 23 24  1  0  0  0  0
 23 47  1  0  0  0  0
 24 25  2  0  0  0  0
 24 48  1  0  0  0  0
 25 26  1  0  0  0  0
 25 49  1  0  0  0  0
 26 50  1  0  0  0  0
 28 51  1  0  0  0  0
M  END
$$$$
