CHEMBL3671483
 OpenBabel04072215373D

 68 71  0  0  0  0  0  0  0  0999 V2000
    5.0823   -1.5449    1.9370 C   0  0  0  0  0  0  0  0  0  0  0  0
    4.5113   -0.8339    0.9597 C   0  0  0  0  0  0  0  0  0  0  0  0
    5.3514    0.0695    0.1265 C   0  0  0  0  0  0  0  0  0  0  0  0
    6.5636    0.1509    0.3124 O   0  0  0  0  0  0  0  0  0  0  0  0
    4.6568    0.7679   -0.8364 N   0  0  0  0  0  0  0  0  0  0  0  0
    5.3062    1.3872   -1.9336 C   0  0  0  0  0  0  0  0  0  0  0  0
    6.3575    0.7201   -2.5774 C   0  0  0  0  0  0  0  0  0  0  0  0
    6.9368    1.2341   -3.7632 C   0  0  0  0  0  0  0  0  0  0  0  0
    7.9166    0.5960   -4.5405 C   0  0  0  0  0  0  0  0  0  0  0  0
    8.3188   -0.7119   -4.2131 N   0  0  0  0  0  0  0  0  0  0  0  0
    9.5878   -1.3002   -4.3760 C   0  0  0  0  0  0  0  0  0  0  0  0
   10.7560   -0.5292   -4.3665 C   0  0  0  0  0  0  0  0  0  0  0  0
   12.0098   -1.1344   -4.2569 C   0  0  0  0  0  0  0  0  0  0  0  0
   12.1039   -2.5224   -4.1818 C   0  0  0  0  0  0  0  0  0  0  0  0
   13.7828   -3.3258   -3.8559 Br  0  0  0  0  0  0  0  0  0  0  0  0
   10.9654   -3.3144   -4.2871 C   0  0  0  0  0  0  0  0  0  0  0  0
    9.7215   -2.6965   -4.3793 C   0  0  0  0  0  0  0  0  0  0  0  0
    8.6203   -3.4636   -4.4347 F   0  0  0  0  0  0  0  0  0  0  0  0
    8.4672    1.1745   -5.6300 N   0  0  0  0  0  0  0  0  0  0  0  0
    8.0118    2.3830   -5.9571 C   0  0  0  0  0  0  0  0  0  0  0  0
    7.0595    3.0648   -5.3127 N   0  0  0  0  0  0  0  0  0  0  0  0
    6.5352    2.4865   -4.2366 C   0  0  0  0  0  0  0  0  0  0  0  0
    5.5298    3.1545   -3.5603 C   0  0  0  0  0  0  0  0  0  0  0  0
    4.8611    2.6069   -2.4539 C   0  0  0  0  0  0  0  0  0  0  0  0
    3.8201    3.2400   -1.8171 O   0  0  0  0  0  0  0  0  0  0  0  0
    3.2124    4.3081   -2.5578 C   0  0  0  0  0  0  0  0  0  0  0  0
    1.8466    4.6564   -1.9521 C   0  0  0  0  0  0  0  0  0  0  0  0
    0.9841    3.4016   -1.7513 C   0  0  0  0  0  0  0  0  0  0  0  0
    0.5682    2.8007   -3.0904 C   0  0  0  0  0  0  0  0  0  0  0  0
   -0.1473    3.7947   -3.8895 N   0  0  0  0  0  0  0  0  0  0  0  0
   -1.4230    3.4729   -4.3109 C   0  0  0  0  0  0  0  0  0  0  0  0
   -1.9660    2.4064   -4.0256 O   0  0  0  0  0  0  0  0  0  0  0  0
   -2.0750    4.4213   -5.0461 N   0  0  0  0  0  0  0  0  0  0  0  0
   -3.4386    4.2226   -5.4865 C   0  0  0  0  0  0  0  0  0  0  0  0
   -4.4305    4.6453   -4.4081 C   0  0  0  0  0  0  0  0  0  0  0  0
   -5.8604    4.4331   -4.8713 C   0  0  0  0  0  0  0  0  0  0  0  0
    0.5831    5.0399   -4.1427 C   0  0  0  0  0  0  0  0  0  0  0  0
    1.0903    5.6634   -2.8370 C   0  0  0  0  0  0  0  0  0  0  0  0
    4.5260   -2.2748    2.5162 H   0  0  0  0  0  0  0  0  0  0  0  0
    6.1450   -1.4433    2.1705 H   0  0  0  0  0  0  0  0  0  0  0  0
    3.4691   -0.9682    0.7069 H   0  0  0  0  0  0  0  0  0  0  0  0
    3.6877    1.0121   -0.6746 H   0  0  0  0  0  0  0  0  0  0  0  0
    6.7187   -0.2274   -2.1820 H   0  0  0  0  0  0  0  0  0  0  0  0
    7.5518   -1.3785   -4.2580 H   0  0  0  0  0  0  0  0  0  0  0  0
   10.6976    0.5566   -4.3794 H   0  0  0  0  0  0  0  0  0  0  0  0
   12.8948   -0.5076   -4.1851 H   0  0  0  0  0  0  0  0  0  0  0  0
   11.0221   -4.3970   -4.2533 H   0  0  0  0  0  0  0  0  0  0  0  0
    8.4411    2.8485   -6.8368 H   0  0  0  0  0  0  0  0  0  0  0  0
    5.2671    4.1348   -3.9498 H   0  0  0  0  0  0  0  0  0  0  0  0
    3.0804    4.0054   -3.6025 H   0  0  0  0  0  0  0  0  0  0  0  0
    3.8574    5.1957   -2.5269 H   0  0  0  0  0  0  0  0  0  0  0  0
    2.0212    5.1080   -0.9671 H   0  0  0  0  0  0  0  0  0  0  0  0
    0.0862    3.6765   -1.1835 H   0  0  0  0  0  0  0  0  0  0  0  0
    1.5144    2.6523   -1.1529 H   0  0  0  0  0  0  0  0  0  0  0  0
   -0.0390    1.9096   -2.9055 H   0  0  0  0  0  0  0  0  0  0  0  0
    1.4359    2.4691   -3.6715 H   0  0  0  0  0  0  0  0  0  0  0  0
   -1.5615    5.1688   -5.4749 H   0  0  0  0  0  0  0  0  0  0  0  0
   -3.5825    3.1700   -5.7536 H   0  0  0  0  0  0  0  0  0  0  0  0
   -3.5752    4.8232   -6.3911 H   0  0  0  0  0  0  0  0  0  0  0  0
   -4.2786    5.7022   -4.1572 H   0  0  0  0  0  0  0  0  0  0  0  0
   -4.2578    4.0763   -3.4869 H   0  0  0  0  0  0  0  0  0  0  0  0
   -6.0696    5.0195   -5.7715 H   0  0  0  0  0  0  0  0  0  0  0  0
   -6.5630    4.7419   -4.0913 H   0  0  0  0  0  0  0  0  0  0  0  0
   -6.0437    3.3779   -5.0981 H   0  0  0  0  0  0  0  0  0  0  0  0
   -0.0218    5.7849   -4.6608 H   0  0  0  0  0  0  0  0  0  0  0  0
    1.4149    4.7967   -4.8140 H   0  0  0  0  0  0  0  0  0  0  0  0
    0.2244    6.0387   -2.2747 H   0  0  0  0  0  0  0  0  0  0  0  0
    1.7207    6.5317   -3.0619 H   0  0  0  0  0  0  0  0  0  0  0  0
  1  2  2  0  0  0  0
  1 39  1  0  0  0  0
  1 40  1  0  0  0  0
  2  3  1  0  0  0  0
  2 41  1  0  0  0  0
  3  4  2  0  0  0  0
  3  5  1  0  0  0  0
  5  6  1  0  0  0  0
  5 42  1  0  0  0  0
  6  7  1  0  0  0  0
  6 24  2  0  0  0  0
  7  8  2  0  0  0  0
  7 43  1  0  0  0  0
  8  9  1  0  0  0  0
  8 22  1  0  0  0  0
  9 10  1  0  0  0  0
  9 19  2  0  0  0  0
 10 11  1  0  0  0  0
 10 44  1  0  0  0  0
 11 12  1  0  0  0  0
 11 17  2  0  0  0  0
 12 13  2  0  0  0  0
 12 45  1  0  0  0  0
 13 14  1  0  0  0  0
 13 46  1  0  0  0  0
 14 15  1  0  0  0  0
 14 16  2  0  0  0  0
 16 17  1  0  0  0  0
 16 47  1  0  0  0  0
 17 18  1  0  0  0  0
 19 20  1  0  0  0  0
 20 21  2  0  0  0  0
 20 48  1  0  0  0  0
 21 22  1  0  0  0  0
 22 23  2  0  0  0  0
 23 24  1  0  0  0  0
 23 49  1  0  0  0  0
 24 25  1  0  0  0  0
 25 26  1  0  0  0  0
 26 27  1  0  0  0  0
 26 50  1  0  0  0  0
 26 51  1  0  0  0  0
 27 28  1  0  0  0  0
 27 38  1  0  0  0  0
 27 52  1  0  0  0  0
 28 29  1  0  0  0  0
 28 53  1  0  0  0  0
 28 54  1  0  0  0  0
 29 30  1  0  0  0  0
 29 55  1  0  0  0  0
 29 56  1  0  0  0  0
 30 31  1  0  0  0  0
 30 37  1  0  0  0  0
 31 32  2  0  0  0  0
 31 33  1  0  0  0  0
 33 34  1  0  0  0  0
 33 57  1  0  0  0  0
 34 35  1  0  0  0  0
 34 58  1  0  0  0  0
 34 59  1  0  0  0  0
 35 36  1  0  0  0  0
 35 60  1  0  0  0  0
 35 61  1  0  0  0  0
 36 62  1  0  0  0  0
 36 63  1  0  0  0  0
 36 64  1  0  0  0  0
 37 38  1  0  0  0  0
 37 65  1  0  0  0  0
 37 66  1  0  0  0  0
 38 67  1  0  0  0  0
 38 68  1  0  0  0  0
M  END
$$$$
