CHEMBL377302
 OpenBabel04072215373D

 44 47  0  0  0  0  0  0  0  0999 V2000
    6.4329    0.3009    0.6070 C   0  0  0  0  0  0  0  0  0  0  0  0
    5.2969   -0.5923    0.1371 C   0  0  0  0  0  0  0  0  0  0  0  0
    5.1317   -0.3897   -1.2697 O   0  0  0  0  0  0  0  0  0  0  0  0
    4.3486    0.6721   -1.6222 C   0  0  0  0  0  0  0  0  0  0  0  0
    3.5313    1.2040   -0.8830 O   0  0  0  0  0  0  0  0  0  0  0  0
    4.6906    1.1738   -2.9539 C   0  0  0  0  0  0  0  0  0  0  0  0
    5.6070    0.5727   -3.7996 C   0  0  0  0  0  0  0  0  0  0  0  0
    5.7245    1.3237   -4.9262 N   0  0  0  0  0  0  0  0  0  0  0  0
    6.5377    1.0373   -5.9534 N   0  0  0  0  0  0  0  0  0  0  0  0
    6.5203    1.9083   -6.9107 C   0  0  0  0  0  0  0  0  0  0  0  0
    5.7844    3.0609   -6.9507 N   0  0  0  0  0  0  0  0  0  0  0  0
    5.0265    3.3215   -5.9391 C   0  0  0  0  0  0  0  0  0  0  0  0
    4.2679    4.4699   -5.8059 O   0  0  0  0  0  0  0  0  0  0  0  0
    4.6043    5.5931   -6.6007 C   0  0  0  0  0  0  0  0  0  0  0  0
    5.9284    6.0158   -6.7300 C   0  0  0  0  0  0  0  0  0  0  0  0
    6.2424    7.1680   -7.4543 C   0  0  0  0  0  0  0  0  0  0  0  0
    5.1813    7.8925   -8.0069 C   0  0  0  0  0  0  0  0  0  0  0  0
    5.1949    9.0613   -8.7353 N   0  0  0  0  0  0  0  0  0  0  0  0
    3.9178    9.4268   -9.0663 C   0  0  0  0  0  0  0  0  0  0  0  0
    3.0619    8.4794   -8.5531 C   0  0  0  0  0  0  0  0  0  0  0  0
    3.8471    7.5014   -7.8753 C   0  0  0  0  0  0  0  0  0  0  0  0
    3.5477    6.3255   -7.1542 C   0  0  0  0  0  0  0  0  0  0  0  0
    4.9274    2.4259   -4.8311 C   0  0  0  0  0  0  0  0  0  0  0  0
    4.2538    2.3842   -3.6132 C   0  0  0  0  0  0  0  0  0  0  0  0
    3.3191    3.4037   -3.0258 C   0  0  0  0  0  0  0  0  0  0  0  0
    1.8537    3.1078   -3.2997 C   0  0  0  0  0  0  0  0  0  0  0  0
    6.6463    0.1460    1.6672 H   0  0  0  0  0  0  0  0  0  0  0  0
    6.1894    1.3567    0.4466 H   0  0  0  0  0  0  0  0  0  0  0  0
    7.3400    0.0989    0.0270 H   0  0  0  0  0  0  0  0  0  0  0  0
    4.3731   -0.4009    0.6936 H   0  0  0  0  0  0  0  0  0  0  0  0
    5.5619   -1.6432    0.2893 H   0  0  0  0  0  0  0  0  0  0  0  0
    6.2042   -0.3203   -3.6798 H   0  0  0  0  0  0  0  0  0  0  0  0
    7.1713    1.7242   -7.7822 H   0  0  0  0  0  0  0  0  0  0  0  0
    6.7370    5.4551   -6.2695 H   0  0  0  0  0  0  0  0  0  0  0  0
    7.2723    7.4897   -7.5670 H   0  0  0  0  0  0  0  0  0  0  0  0
    6.0305    9.5769   -8.9746 H   0  0  0  0  0  0  0  0  0  0  0  0
    3.7283   10.3259   -9.6359 H   0  0  0  0  0  0  0  0  0  0  0  0
    1.9845    8.4867   -8.6467 H   0  0  0  0  0  0  0  0  0  0  0  0
    2.5206    6.0030   -7.0240 H   0  0  0  0  0  0  0  0  0  0  0  0
    3.5656    4.4046   -3.3920 H   0  0  0  0  0  0  0  0  0  0  0  0
    3.4732    3.4529   -1.9410 H   0  0  0  0  0  0  0  0  0  0  0  0
    1.6281    3.1855   -4.3674 H   0  0  0  0  0  0  0  0  0  0  0  0
    1.2205    3.8267   -2.7671 H   0  0  0  0  0  0  0  0  0  0  0  0
    1.5734    2.1025   -2.9664 H   0  0  0  0  0  0  0  0  0  0  0  0
  1  2  1  0  0  0  0
  1 27  1  0  0  0  0
  1 28  1  0  0  0  0
  1 29  1  0  0  0  0
  2  3  1  0  0  0  0
  2 30  1  0  0  0  0
  2 31  1  0  0  0  0
  3  4  1  0  0  0  0
  4  5  2  0  0  0  0
  4  6  1  0  0  0  0
  6  7  2  0  0  0  0
  6 24  1  0  0  0  0
  7  8  1  0  0  0  0
  7 32  1  0  0  0  0
  8  9  1  0  0  0  0
  8 23  1  0  0  0  0
  9 10  2  0  0  0  0
 10 11  1  0  0  0  0
 10 33  1  0  0  0  0
 11 12  2  0  0  0  0
 12 13  1  0  0  0  0
 12 23  1  0  0  0  0
 13 14  1  0  0  0  0
 14 15  1  0  0  0  0
 14 22  2  0  0  0  0
 15 16  2  0  0  0  0
 15 34  1  0  0  0  0
 16 17  1  0  0  0  0
 16 35  1  0  0  0  0
 17 18  1  0  0  0  0
 17 21  2  0  0  0  0
 18 19  1  0  0  0  0
 18 36  1  0  0  0  0
 19 20  2  0  0  0  0
 19 37  1  0  0  0  0
 20 21  1  0  0  0  0
 20 38  1  0  0  0  0
 21 22  1  0  0  0  0
 22 39  1  0  0  0  0
 23 24  2  0  0  0  0
 24 25  1  0  0  0  0
 25 26  1  0  0  0  0
 25 40  1  0  0  0  0
 25 41  1  0  0  0  0
 26 42  1  0  0  0  0
 26 43  1  0  0  0  0
 26 44  1  0  0  0  0
M  END
$$$$
