CHEMBL3577114
 OpenBabel04072215363D

 67 71  0  0  1  0  0  0  0  0999 V2000
    2.8793    5.1092   -6.4268 C   0  0  0  0  0  0  0  0  0  0  0  0
    2.4794    3.7135   -6.4820 N   0  0  0  0  0  0  0  0  0  0  0  0
    2.0711    3.1671   -5.2547 C   0  0  0  0  0  0  0  0  0  0  0  0
    1.5194    1.8846   -5.2629 C   0  0  0  0  0  0  0  0  0  0  0  0
    1.0065    1.3259   -4.0845 C   0  0  0  0  0  0  0  0  0  0  0  0
    1.1658    2.0449   -2.8971 C   0  0  0  0  0  0  0  0  0  0  0  0
    1.7405    3.3067   -2.9748 C   0  0  0  0  0  0  0  0  0  0  0  0
    2.1672    3.8829   -4.1217 N   0  0  0  0  0  0  0  0  0  0  0  0
    0.6893    1.5121   -1.6267 C   0  0  0  0  0  0  0  0  0  0  0  0
    0.1388    0.2871   -1.5852 C   0  0  0  0  0  0  0  0  0  0  0  0
   -0.4815   -0.2173   -0.3528 C   0  0  0  0  0  0  0  0  0  0  0  0
    0.2603   -0.8673    0.6408 C   0  0  0  0  0  0  0  0  0  0  0  0
   -0.3931   -1.4438    1.7346 C   0  0  0  0  0  0  0  0  0  0  0  0
   -1.7804   -1.3805    1.8245 C   0  0  0  0  0  0  0  0  0  0  0  0
   -2.4009   -1.9941    2.8429 F   0  0  0  0  0  0  0  0  0  0  0  0
   -2.5321   -0.7845    0.8139 C   0  0  0  0  0  0  0  0  0  0  0  0
   -3.9317   -0.8542    0.8722 N   0  0  0  0  0  0  0  0  0  0  0  0
   -4.8021   -1.2055   -0.1357 C   0  0  0  0  0  0  0  0  0  0  0  0
   -6.0064   -1.0949    0.0750 O   0  0  0  0  0  0  0  0  0  0  0  0
   -4.2231   -1.7628   -1.2511 N   0  0  0  0  0  0  0  0  0  0  0  0
   -4.9527   -2.1956   -2.3280 C   0  0  0  0  0  0  0  0  0  0  0  0
   -4.5732   -2.9533   -3.4064 C   0  0  0  0  0  0  0  0  0  0  0  0
   -5.7373   -3.0336   -4.2156 C   0  0  0  0  0  0  0  0  0  0  0  0
   -5.8980   -3.7227   -5.5574 C   0  0  0  0  0  0  0  0  0  0  0  0
   -5.6850   -5.2414   -5.4025 C   0  0  0  0  0  0  0  0  0  0  0  0
   -7.3002   -3.4960   -6.1635 C   0  0  0  0  0  0  0  0  0  0  0  0
   -4.8585   -3.1729   -6.5545 C   0  0  0  0  0  0  0  0  0  0  0  0
   -6.7558   -2.3786   -3.6417 N   0  0  0  0  0  0  0  0  0  0  0  0
   -6.2607   -1.8588   -2.4603 O   0  0  0  0  0  0  0  0  0  0  0  0
   -1.8795   -0.1622   -0.2509 C   0  0  0  0  0  0  0  0  0  0  0  0
    0.0189   -0.5432   -2.8285 C   0  0  0  0  0  0  0  0  0  0  0  0
   -0.3911   -1.6985   -2.7173 O   0  0  0  0  0  0  0  0  0  0  0  0
    0.3179    0.0619   -4.0473 N   0  0  0  0  0  0  0  0  0  0  0  0
   -0.0679   -0.6090   -5.2989 C   0  0  1  0  0  0  0  0  0  0  0  0
    0.8569   -1.7196   -5.7494 C   0  0  0  0  0  0  0  0  0  0  0  0
    0.0120   -2.4543   -6.7778 C   0  0  0  0  0  0  0  0  0  0  0  0
   -1.3683   -2.1518   -6.5207 O   0  0  0  0  0  0  0  0  0  0  0  0
   -1.4241   -1.3213   -5.3476 C   0  0  0  0  0  0  0  0  0  0  0  0
    3.1841    5.4324   -7.4274 H   0  0  0  0  0  0  0  0  0  0  0  0
    3.7277    5.2669   -5.7534 H   0  0  0  0  0  0  0  0  0  0  0  0
    2.0412    5.7455   -6.1216 H   0  0  0  0  0  0  0  0  0  0  0  0
    3.1897    3.1204   -6.9034 H   0  0  0  0  0  0  0  0  0  0  0  0
    1.4913    1.3608   -6.2099 H   0  0  0  0  0  0  0  0  0  0  0  0
    1.8598    3.9334   -2.0965 H   0  0  0  0  0  0  0  0  0  0  0  0
    0.7491    2.1419   -0.7440 H   0  0  0  0  0  0  0  0  0  0  0  0
    1.3396   -0.9679    0.5498 H   0  0  0  0  0  0  0  0  0  0  0  0
    0.1644   -1.9851    2.4928 H   0  0  0  0  0  0  0  0  0  0  0  0
   -4.3673   -0.9234    1.7860 H   0  0  0  0  0  0  0  0  0  0  0  0
   -3.2600   -2.0615   -1.2040 H   0  0  0  0  0  0  0  0  0  0  0  0
   -3.6013   -3.3839   -3.5954 H   0  0  0  0  0  0  0  0  0  0  0  0
   -6.4324   -5.6802   -4.7311 H   0  0  0  0  0  0  0  0  0  0  0  0
   -4.6968   -5.4712   -4.9875 H   0  0  0  0  0  0  0  0  0  0  0  0
   -5.7630   -5.7529   -6.3689 H   0  0  0  0  0  0  0  0  0  0  0  0
   -8.0868   -3.9067   -5.5191 H   0  0  0  0  0  0  0  0  0  0  0  0
   -7.3927   -3.9787   -7.1430 H   0  0  0  0  0  0  0  0  0  0  0  0
   -7.5084   -2.4281   -6.3011 H   0  0  0  0  0  0  0  0  0  0  0  0
   -3.8360   -3.3474   -6.2029 H   0  0  0  0  0  0  0  0  0  0  0  0
   -4.9785   -2.0921   -6.6957 H   0  0  0  0  0  0  0  0  0  0  0  0
   -4.9539   -3.6523   -7.5352 H   0  0  0  0  0  0  0  0  0  0  0  0
   -2.4573    0.3526   -1.0177 H   0  0  0  0  0  0  0  0  0  0  0  0
   -0.1340    0.1390   -6.0971 H   0  0  0  0  0  0  0  0  0  0  0  0
    1.1056   -2.3921   -4.9205 H   0  0  0  0  0  0  0  0  0  0  0  0
    1.7991   -1.3567   -6.1709 H   0  0  0  0  0  0  0  0  0  0  0  0
    0.1586   -3.5375   -6.7308 H   0  0  0  0  0  0  0  0  0  0  0  0
    0.2383   -2.1185   -7.7948 H   0  0  0  0  0  0  0  0  0  0  0  0
   -1.6255   -1.9969   -4.5162 H   0  0  0  0  0  0  0  0  0  0  0  0
   -2.2642   -0.6247   -5.4224 H   0  0  0  0  0  0  0  0  0  0  0  0
  1  2  1  0  0  0  0
  1 39  1  0  0  0  0
  1 40  1  0  0  0  0
  1 41  1  0  0  0  0
  2  3  1  0  0  0  0
  2 42  1  0  0  0  0
  3  4  1  0  0  0  0
  3  8  2  0  0  0  0
  4  5  2  0  0  0  0
  4 43  1  0  0  0  0
  5  6  1  0  0  0  0
  5 33  1  0  0  0  0
  6  7  2  0  0  0  0
  6  9  1  0  0  0  0
  7  8  1  0  0  0  0
  7 44  1  0  0  0  0
  9 10  2  0  0  0  0
  9 45  1  0  0  0  0
 10 11  1  0  0  0  0
 10 31  1  0  0  0  0
 11 12  1  0  0  0  0
 11 30  2  0  0  0  0
 12 13  2  0  0  0  0
 12 46  1  0  0  0  0
 13 14  1  0  0  0  0
 13 47  1  0  0  0  0
 14 15  1  0  0  0  0
 14 16  2  0  0  0  0
 16 17  1  0  0  0  0
 16 30  1  0  0  0  0
 17 18  1  0  0  0  0
 17 48  1  0  0  0  0
 18 19  2  0  0  0  0
 18 20  1  0  0  0  0
 20 21  1  0  0  0  0
 20 49  1  0  0  0  0
 21 22  2  0  0  0  0
 21 29  1  0  0  0  0
 22 23  1  0  0  0  0
 22 50  1  0  0  0  0
 23 24  1  0  0  0  0
 23 28  2  0  0  0  0
 24 25  1  0  0  0  0
 24 26  1  0  0  0  0
 24 27  1  0  0  0  0
 25 51  1  0  0  0  0
 25 52  1  0  0  0  0
 25 53  1  0  0  0  0
 26 54  1  0  0  0  0
 26 55  1  0  0  0  0
 26 56  1  0  0  0  0
 27 57  1  0  0  0  0
 27 58  1  0  0  0  0
 27 59  1  0  0  0  0
 28 29  1  0  0  0  0
 30 60  1  0  0  0  0
 31 32  2  0  0  0  0
 31 33  1  0  0  0  0
 34 35  1  0  0  0  0
 34 38  1  0  0  0  0
 34 33  1  0  0  0  0
 34 61  1  6  0  0  0
 35 36  1  0  0  0  0
 35 62  1  0  0  0  0
 35 63  1  0  0  0  0
 36 37  1  0  0  0  0
 36 64  1  0  0  0  0
 36 65  1  0  0  0  0
 37 38  1  0  0  0  0
 38 66  1  0  0  0  0
 38 67  1  0  0  0  0
M  END
$$$$
