CHEMBL3690520
 OpenBabel04072215373D

 46 49  0  0  0  0  0  0  0  0999 V2000
    3.4610    1.0311    2.6197 N   0  0  0  0  0  0  0  0  0  0  0  0
    3.6643    0.4956    1.3464 C   0  0  0  0  0  0  0  0  0  0  0  0
    4.4128   -0.6178    1.2769 N   0  0  0  0  0  0  0  0  0  0  0  0
    4.5451   -1.1996    0.0635 C   0  0  0  0  0  0  0  0  0  0  0  0
    5.2930   -2.4816   -0.0265 C   0  0  0  0  0  0  0  0  0  0  0  0
    5.5749   -3.1711   -1.3121 C   0  0  0  0  0  0  0  0  0  0  0  0
    6.5397   -4.1246   -1.3654 C   0  0  0  0  0  0  0  0  0  0  0  0
    7.0532   -4.6168   -0.1398 N   0  0  0  0  0  0  0  0  0  0  0  0
    7.6988   -5.8347    0.2003 C   0  0  0  0  0  0  0  0  0  0  0  0
    8.8186   -5.9099    1.2458 C   0  0  0  0  0  0  0  0  0  0  0  0
    9.5999   -4.8032    1.5215 C   0  0  0  0  0  0  0  0  0  0  0  0
   10.4702   -4.7192    2.5590 N   0  0  0  0  0  0  0  0  0  0  0  0
   10.5580   -5.7936    3.3815 C   0  0  0  0  0  0  0  0  0  0  0  0
    9.8412   -6.9746    3.2017 C   0  0  0  0  0  0  0  0  0  0  0  0
    9.9691   -8.0966    4.0968 N   0  0  0  0  0  0  0  0  0  0  0  0
   10.7902   -8.1479    5.1979 C   0  0  0  0  0  0  0  0  0  0  0  0
   11.5128   -7.2481    5.6120 O   0  0  0  0  0  0  0  0  0  0  0  0
   10.7942   -9.3729    5.8199 N   0  0  0  0  0  0  0  0  0  0  0  0
   11.6472   -9.5385    7.0143 C   0  0  0  0  0  0  0  0  0  0  0  0
   11.0295   -9.0980    8.3499 C   0  0  0  0  0  0  0  0  0  0  0  0
    9.7516   -8.6783    8.2045 F   0  0  0  0  0  0  0  0  0  0  0  0
   11.0011  -10.1446    9.2135 F   0  0  0  0  0  0  0  0  0  0  0  0
   11.7326   -8.1102    8.9417 F   0  0  0  0  0  0  0  0  0  0  0  0
    8.9683   -7.0158    2.1019 C   0  0  0  0  0  0  0  0  0  0  0  0
    6.4679   -6.4613    0.4727 C   0  0  0  0  0  0  0  0  0  0  0  0
    5.7258   -5.5846    1.2552 N   0  0  0  0  0  0  0  0  0  0  0  0
    6.2565   -4.3903    0.9872 C   0  0  0  0  0  0  0  0  0  0  0  0
    5.7191   -3.0834    1.1120 C   0  0  0  0  0  0  0  0  0  0  0  0
    3.9998   -0.7267   -1.0761 N   0  0  0  0  0  0  0  0  0  0  0  0
    3.2545    0.3912   -0.9580 C   0  0  0  0  0  0  0  0  0  0  0  0
    3.0452    1.0354    0.2351 C   0  0  0  0  0  0  0  0  0  0  0  0
    2.2958    2.1437    0.3044 F   0  0  0  0  0  0  0  0  0  0  0  0
    4.0787    0.5731    3.2833 H   0  0  0  0  0  0  0  0  0  0  0  0
    3.5135    2.0433    2.6413 H   0  0  0  0  0  0  0  0  0  0  0  0
    4.9498   -2.9246   -2.1688 H   0  0  0  0  0  0  0  0  0  0  0  0
    6.7683   -4.6774   -2.2685 H   0  0  0  0  0  0  0  0  0  0  0  0
    9.5332   -3.8780    0.9387 H   0  0  0  0  0  0  0  0  0  0  0  0
   11.2436   -5.6333    4.1964 H   0  0  0  0  0  0  0  0  0  0  0  0
    9.4418   -8.9169    3.8538 H   0  0  0  0  0  0  0  0  0  0  0  0
    9.9301   -9.8966    5.8054 H   0  0  0  0  0  0  0  0  0  0  0  0
   12.5813   -8.9846    6.8615 H   0  0  0  0  0  0  0  0  0  0  0  0
   11.9173  -10.5988    7.0625 H   0  0  0  0  0  0  0  0  0  0  0  0
    8.3586   -7.9066    1.9502 H   0  0  0  0  0  0  0  0  0  0  0  0
    6.2024   -7.4983    0.3455 H   0  0  0  0  0  0  0  0  0  0  0  0
    5.6266   -2.6480    2.1001 H   0  0  0  0  0  0  0  0  0  0  0  0
    2.8112    0.7648   -1.8744 H   0  0  0  0  0  0  0  0  0  0  0  0
  1  2  1  0  0  0  0
  1 33  1  0  0  0  0
  1 34  1  0  0  0  0
  2  3  1  0  0  0  0
  2 31  2  0  0  0  0
  3  4  2  0  0  0  0
  4  5  1  0  0  0  0
  4 29  1  0  0  0  0
  5  6  1  0  0  0  0
  5 28  2  0  0  0  0
  6  7  2  0  0  0  0
  6 35  1  0  0  0  0
  7  8  1  0  0  0  0
  7 36  1  0  0  0  0
  8  9  1  0  0  0  0
  8 27  1  0  0  0  0
  9 10  1  0  0  0  0
  9 25  2  0  0  0  0
 10 11  1  0  0  0  0
 10 24  2  0  0  0  0
 11 12  2  0  0  0  0
 11 37  1  0  0  0  0
 12 13  1  0  0  0  0
 13 14  2  0  0  0  0
 13 38  1  0  0  0  0
 14 15  1  0  0  0  0
 14 24  1  0  0  0  0
 15 16  1  0  0  0  0
 15 39  1  0  0  0  0
 16 17  2  0  0  0  0
 16 18  1  0  0  0  0
 18 19  1  0  0  0  0
 18 40  1  0  0  0  0
 19 20  1  0  0  0  0
 19 41  1  0  0  0  0
 19 42  1  0  0  0  0
 20 21  1  0  0  0  0
 20 22  1  0  0  0  0
 20 23  1  0  0  0  0
 24 43  1  0  0  0  0
 25 26  1  0  0  0  0
 25 44  1  0  0  0  0
 26 27  2  0  0  0  0
 27 28  1  0  0  0  0
 28 45  1  0  0  0  0
 29 30  2  0  0  0  0
 30 31  1  0  0  0  0
 30 46  1  0  0  0  0
 31 32  1  0  0  0  0
M  END
$$$$
