CHEMBL3690582
 OpenBabel04072215373D

 51 54  0  0  0  0  0  0  0  0999 V2000
    0.4633   -1.0658    2.5462 N   0  0  0  0  0  0  0  0  0  0  0  0
   -0.0016   -0.6068    1.3077 C   0  0  0  0  0  0  0  0  0  0  0  0
   -0.7121    0.5968    1.2792 C   0  0  0  0  0  0  0  0  0  0  0  0
   -1.0958    1.1666    0.0657 C   0  0  0  0  0  0  0  0  0  0  0  0
   -1.8501    2.4453    0.0041 C   0  0  0  0  0  0  0  0  0  0  0  0
   -1.6990    3.3963   -1.1060 C   0  0  0  0  0  0  0  0  0  0  0  0
   -2.3558    4.5699   -1.0891 C   0  0  0  0  0  0  0  0  0  0  0  0
   -3.1735    4.8917   -0.0057 N   0  0  0  0  0  0  0  0  0  0  0  0
   -3.9015    6.0372    0.3011 C   0  0  0  0  0  0  0  0  0  0  0  0
   -4.0075    7.2815   -0.4730 C   0  0  0  0  0  0  0  0  0  0  0  0
   -5.2271    7.9743   -0.4550 C   0  0  0  0  0  0  0  0  0  0  0  0
   -5.3807    9.1691   -1.1487 C   0  0  0  0  0  0  0  0  0  0  0  0
   -4.3147    9.6935   -1.8737 C   0  0  0  0  0  0  0  0  0  0  0  0
   -3.0772    9.0492   -1.8939 C   0  0  0  0  0  0  0  0  0  0  0  0
   -1.9564    9.5528   -2.5971 N   0  0  0  0  0  0  0  0  0  0  0  0
   -1.8940   10.7521   -3.2772 C   0  0  0  0  0  0  0  0  0  0  0  0
   -2.7740   11.5983   -3.3670 O   0  0  0  0  0  0  0  0  0  0  0  0
   -0.6927   10.9236   -3.9291 N   0  0  0  0  0  0  0  0  0  0  0  0
   -0.4855   12.1830   -4.6604 C   0  0  0  0  0  0  0  0  0  0  0  0
   -0.1267   13.4065   -3.8032 C   0  0  0  0  0  0  0  0  0  0  0  0
    0.1190   13.0702   -2.5156 F   0  0  0  0  0  0  0  0  0  0  0  0
    1.0074   13.9819   -4.2779 F   0  0  0  0  0  0  0  0  0  0  0  0
   -1.0899   14.3498   -3.8180 F   0  0  0  0  0  0  0  0  0  0  0  0
   -2.9315    7.8436   -1.1844 C   0  0  0  0  0  0  0  0  0  0  0  0
   -4.5372    5.7167    1.4948 C   0  0  0  0  0  0  0  0  0  0  0  0
   -4.2222    4.4658    1.9372 N   0  0  0  0  0  0  0  0  0  0  0  0
   -3.3986    3.9899    1.0336 C   0  0  0  0  0  0  0  0  0  0  0  0
   -2.7265    2.7412    0.9933 C   0  0  0  0  0  0  0  0  0  0  0  0
   -0.7383    0.6183   -1.1173 N   0  0  0  0  0  0  0  0  0  0  0  0
    0.0006   -0.5157   -1.0751 C   0  0  0  0  0  0  0  0  0  0  0  0
    0.4051   -1.1568    0.0932 C   0  0  0  0  0  0  0  0  0  0  0  0
    1.2344   -2.3928   -0.0434 C   0  0  0  0  0  0  0  0  0  0  0  0
    1.5406   -3.0053    1.1374 F   0  0  0  0  0  0  0  0  0  0  0  0
    0.6115   -3.3499   -0.7905 F   0  0  0  0  0  0  0  0  0  0  0  0
    2.4252   -2.1627   -0.6630 F   0  0  0  0  0  0  0  0  0  0  0  0
   -0.1154   -0.8139    3.3438 H   0  0  0  0  0  0  0  0  0  0  0  0
    0.7515   -2.0434    2.5818 H   0  0  0  0  0  0  0  0  0  0  0  0
   -0.9448    1.0935    2.2168 H   0  0  0  0  0  0  0  0  0  0  0  0
   -1.0526    3.1207   -1.9364 H   0  0  0  0  0  0  0  0  0  0  0  0
   -2.2747    5.2780   -1.9029 H   0  0  0  0  0  0  0  0  0  0  0  0
   -6.0799    7.5923    0.1023 H   0  0  0  0  0  0  0  0  0  0  0  0
   -6.3299    9.6976   -1.1268 H   0  0  0  0  0  0  0  0  0  0  0  0
   -4.4935   10.6173   -2.4130 H   0  0  0  0  0  0  0  0  0  0  0  0
   -1.1284    8.9807   -2.6095 H   0  0  0  0  0  0  0  0  0  0  0  0
    0.1207   10.5076   -3.4985 H   0  0  0  0  0  0  0  0  0  0  0  0
   -1.3939   12.4046   -5.2338 H   0  0  0  0  0  0  0  0  0  0  0  0
    0.3113   11.9906   -5.3849 H   0  0  0  0  0  0  0  0  0  0  0  0
   -1.9598    7.3605   -1.1602 H   0  0  0  0  0  0  0  0  0  0  0  0
   -5.2109    6.3428    2.0666 H   0  0  0  0  0  0  0  0  0  0  0  0
   -2.9405    2.0653    1.8157 H   0  0  0  0  0  0  0  0  0  0  0  0
    0.2782   -0.9040   -2.0537 H   0  0  0  0  0  0  0  0  0  0  0  0
  1  2  1  0  0  0  0
  1 36  1  0  0  0  0
  1 37  1  0  0  0  0
  2  3  1  0  0  0  0
  2 31  2  0  0  0  0
  3  4  2  0  0  0  0
  3 38  1  0  0  0  0
  4  5  1  0  0  0  0
  4 29  1  0  0  0  0
  5  6  1  0  0  0  0
  5 28  2  0  0  0  0
  6  7  2  0  0  0  0
  6 39  1  0  0  0  0
  7  8  1  0  0  0  0
  7 40  1  0  0  0  0
  8  9  1  0  0  0  0
  8 27  1  0  0  0  0
  9 10  1  0  0  0  0
  9 25  2  0  0  0  0
 10 11  1  0  0  0  0
 10 24  2  0  0  0  0
 11 12  2  0  0  0  0
 11 41  1  0  0  0  0
 12 13  1  0  0  0  0
 12 42  1  0  0  0  0
 13 14  2  0  0  0  0
 13 43  1  0  0  0  0
 14 15  1  0  0  0  0
 14 24  1  0  0  0  0
 15 16  1  0  0  0  0
 15 44  1  0  0  0  0
 16 17  2  0  0  0  0
 16 18  1  0  0  0  0
 18 19  1  0  0  0  0
 18 45  1  0  0  0  0
 19 20  1  0  0  0  0
 19 46  1  0  0  0  0
 19 47  1  0  0  0  0
 20 21  1  0  0  0  0
 20 22  1  0  0  0  0
 20 23  1  0  0  0  0
 24 48  1  0  0  0  0
 25 26  1  0  0  0  0
 25 49  1  0  0  0  0
 26 27  2  0  0  0  0
 27 28  1  0  0  0  0
 28 50  1  0  0  0  0
 29 30  2  0  0  0  0
 30 31  1  0  0  0  0
 30 51  1  0  0  0  0
 31 32  1  0  0  0  0
 32 33  1  0  0  0  0
 32 34  1  0  0  0  0
 32 35  1  0  0  0  0
M  END
$$$$
