CHEMBL401900
 OpenBabel04072215373D

 58 63  0  0  0  0  0  0  0  0999 V2000
    3.1650   -1.6841   -0.3680 C   0  0  0  0  0  0  0  0  0  0  0  0
    2.3649   -0.4099   -0.4736 C   0  0  0  0  0  0  0  0  0  0  0  0
    1.1413   -0.4103   -0.3548 O   0  0  0  0  0  0  0  0  0  0  0  0
    3.1066    0.8564   -0.6194 C   0  0  0  0  0  0  0  0  0  0  0  0
    2.5900    1.9358    0.0935 C   0  0  0  0  0  0  0  0  0  0  0  0
    3.2558    3.1316    0.1711 C   0  0  0  0  0  0  0  0  0  0  0  0
    4.5018    3.2280   -0.4614 C   0  0  0  0  0  0  0  0  0  0  0  0
    5.0583    2.2123   -1.2680 C   0  0  0  0  0  0  0  0  0  0  0  0
    4.3153    0.9969   -1.3468 C   0  0  0  0  0  0  0  0  0  0  0  0
    6.2048    2.8219   -1.8126 C   0  0  0  0  0  0  0  0  0  0  0  0
    7.0397    2.4079   -2.8874 C   0  0  0  0  0  0  0  0  0  0  0  0
    7.9918    3.3807   -3.4506 C   0  0  0  0  0  0  0  0  0  0  0  0
    8.1773    4.7165   -2.9838 C   0  0  0  0  0  0  0  0  0  0  0  0
    7.5008    4.9347   -1.7515 C   0  0  0  0  0  0  0  0  0  0  0  0
    6.4799    4.0430   -1.2800 C   0  0  0  0  0  0  0  0  0  0  0  0
    5.3544    4.3112   -0.4752 N   0  0  0  0  0  0  0  0  0  0  0  0
    4.9364    5.6576   -0.1946 C   0  0  0  0  0  0  0  0  0  0  0  0
    4.2810    6.2749    1.0324 C   0  0  0  0  0  0  0  0  0  0  0  0
    5.1093    5.9066    2.2678 C   0  0  0  0  0  0  0  0  0  0  0  0
    4.3210    7.8082    0.8101 C   0  0  0  0  0  0  0  0  0  0  0  0
    7.4337    6.3997   -1.2597 C   0  0  0  0  0  0  0  0  0  0  0  0
    7.0711    7.5591   -2.1656 C   0  0  0  0  0  0  0  0  0  0  0  0
    7.4180    7.1475   -3.5897 C   0  0  0  0  0  0  0  0  0  0  0  0
    7.7495    8.1676   -4.3841 N   0  0  0  0  0  0  0  0  0  0  0  0
    9.0270    8.2734   -3.9633 N   0  0  0  0  0  0  0  0  0  0  0  0
    9.3225    9.5215   -3.2521 C   0  0  0  0  0  0  0  0  0  0  0  0
    9.4969    6.9397   -3.6950 C   0  0  0  0  0  0  0  0  0  0  0  0
    8.3810    6.0460   -3.7895 C   0  0  0  0  0  0  0  0  0  0  0  0
    8.7506    2.6386   -4.4208 C   0  0  0  0  0  0  0  0  0  0  0  0
    9.7303    2.9125   -5.0962 O   0  0  0  0  0  0  0  0  0  0  0  0
    8.2091    1.3405   -4.4198 N   0  0  0  0  0  0  0  0  0  0  0  0
    7.0988    1.0997   -3.5412 C   0  0  0  0  0  0  0  0  0  0  0  0
    2.5687   -2.4459    0.1295 H   0  0  0  0  0  0  0  0  0  0  0  0
    4.0613   -1.5144    0.2378 H   0  0  0  0  0  0  0  0  0  0  0  0
    3.4441   -2.0485   -1.3613 H   0  0  0  0  0  0  0  0  0  0  0  0
    1.6330    1.8420    0.6453 H   0  0  0  0  0  0  0  0  0  0  0  0
    2.8296    3.9522    0.7326 H   0  0  0  0  0  0  0  0  0  0  0  0
    4.6652    0.1716   -1.9560 H   0  0  0  0  0  0  0  0  0  0  0  0
    4.4628    6.0442   -1.1130 H   0  0  0  0  0  0  0  0  0  0  0  0
    5.8702    6.1556    0.0069 H   0  0  0  0  0  0  0  0  0  0  0  0
    3.2404    5.9612    1.1361 H   0  0  0  0  0  0  0  0  0  0  0  0
    6.1028    6.3754    2.2277 H   0  0  0  0  0  0  0  0  0  0  0  0
    5.2602    4.8240    2.3190 H   0  0  0  0  0  0  0  0  0  0  0  0
    4.6069    6.2437    3.1697 H   0  0  0  0  0  0  0  0  0  0  0  0
    5.3565    8.1803    0.7746 H   0  0  0  0  0  0  0  0  0  0  0  0
    3.8028    8.3436    1.6068 H   0  0  0  0  0  0  0  0  0  0  0  0
    3.8653    8.0851   -0.1501 H   0  0  0  0  0  0  0  0  0  0  0  0
    6.4636    6.1548   -1.6151 H   0  0  0  0  0  0  0  0  0  0  0  0
    8.5193    6.4741   -1.1802 H   0  0  0  0  0  0  0  0  0  0  0  0
    7.6018    8.4184   -1.7459 H   0  0  0  0  0  0  0  0  0  0  0  0
    6.0112    7.8472   -2.0776 H   0  0  0  0  0  0  0  0  0  0  0  0
    8.3709    9.9654   -2.8960 H   0  0  0  0  0  0  0  0  0  0  0  0
    9.7611   10.2485   -3.9319 H   0  0  0  0  0  0  0  0  0  0  0  0
    9.9311    9.3273   -2.3674 H   0  0  0  0  0  0  0  0  0  0  0  0
   10.4877    6.8316   -3.2808 H   0  0  0  0  0  0  0  0  0  0  0  0
    8.6997    0.6011   -4.9260 H   0  0  0  0  0  0  0  0  0  0  0  0
    7.3302    0.2881   -2.8510 H   0  0  0  0  0  0  0  0  0  0  0  0
    6.2154    0.8694   -4.1478 H   0  0  0  0  0  0  0  0  0  0  0  0
  1  2  1  0  0  0  0
  1 33  1  0  0  0  0
  1 34  1  0  0  0  0
  1 35  1  0  0  0  0
  2  3  2  0  0  0  0
  2  4  1  0  0  0  0
  4  5  1  0  0  0  0
  4  9  2  0  0  0  0
  5  6  2  0  0  0  0
  5 36  1  0  0  0  0
  6  7  1  0  0  0  0
  6 37  1  0  0  0  0
  7  8  2  0  0  0  0
  7 16  1  0  0  0  0
  8  9  1  0  0  0  0
  8 10  1  0  0  0  0
  9 38  1  0  0  0  0
 10 11  1  0  0  0  0
 10 15  2  0  0  0  0
 11 12  2  0  0  0  0
 11 32  1  0  0  0  0
 12 13  1  0  0  0  0
 12 29  1  0  0  0  0
 13 14  2  0  0  0  0
 13 28  1  0  0  0  0
 14 15  1  0  0  0  0
 14 21  1  0  0  0  0
 15 16  1  0  0  0  0
 16 17  1  0  0  0  0
 17 18  1  0  0  0  0
 17 39  1  0  0  0  0
 17 40  1  0  0  0  0
 18 19  1  0  0  0  0
 18 20  1  0  0  0  0
 18 41  1  0  0  0  0
 19 42  1  0  0  0  0
 19 43  1  0  0  0  0
 19 44  1  0  0  0  0
 20 45  1  0  0  0  0
 20 46  1  0  0  0  0
 20 47  1  0  0  0  0
 21 22  1  0  0  0  0
 21 48  1  0  0  0  0
 21 49  1  0  0  0  0
 22 23  1  0  0  0  0
 22 50  1  0  0  0  0
 22 51  1  0  0  0  0
 23 24  2  0  0  0  0
 23 28  1  0  0  0  0
 24 25  1  0  0  0  0
 25 26  1  0  0  0  0
 25 27  1  0  0  0  0
 26 52  1  0  0  0  0
 26 53  1  0  0  0  0
 26 54  1  0  0  0  0
 27 28  2  0  0  0  0
 27 55  1  0  0  0  0
 29 30  2  0  0  0  0
 29 31  1  0  0  0  0
 31 32  1  0  0  0  0
 31 56  1  0  0  0  0
 32 57  1  0  0  0  0
 32 58  1  0  0  0  0
M  END
$$$$
