CHEMBL180022
 OpenBabel04072215363D

 69 72  0  0  0  0  0  0  0  0999 V2000
    1.0228    0.0851   -2.5072 C   0  0  0  0  0  0  0  0  0  0  0  0
    2.3303    0.8135   -2.2719 C   0  0  0  0  0  0  0  0  0  0  0  0
    3.1759    0.0216   -1.4192 O   0  0  0  0  0  0  0  0  0  0  0  0
    4.5140    0.3383   -1.5027 C   0  0  0  0  0  0  0  0  0  0  0  0
    4.9681    1.5925   -1.9234 C   0  0  0  0  0  0  0  0  0  0  0  0
    6.2996    1.8362   -2.1872 C   0  0  0  0  0  0  0  0  0  0  0  0
    6.5766    3.0255   -2.7181 N   0  0  0  0  0  0  0  0  0  0  0  0
    7.8246    3.2247   -3.1701 C   0  0  0  0  0  0  0  0  0  0  0  0
    8.8492    2.2956   -3.0769 C   0  0  0  0  0  0  0  0  0  0  0  0
    9.9881    2.5810   -3.8876 C   0  0  0  0  0  0  0  0  0  0  0  0
   10.8800    2.9000   -4.5632 N   0  0  0  0  0  0  0  0  0  0  0  0
    8.6262    1.1075   -2.3624 C   0  0  0  0  0  0  0  0  0  0  0  0
    9.6589    0.1775   -2.0122 N   0  0  0  0  0  0  0  0  0  0  0  0
   10.8996    0.3684   -1.3513 C   0  0  0  0  0  0  0  0  0  0  0  0
   11.3585   -0.6021   -0.4426 C   0  0  0  0  0  0  0  0  0  0  0  0
   12.5888   -0.4600    0.2279 C   0  0  0  0  0  0  0  0  0  0  0  0
   13.4169    0.6338   -0.0318 C   0  0  0  0  0  0  0  0  0  0  0  0
   14.6430    0.8453    0.5346 O   0  0  0  0  0  0  0  0  0  0  0  0
   15.3290   -0.3217    0.9867 C   0  0  0  0  0  0  0  0  0  0  0  0
   16.8211   -0.0923    1.0702 C   0  0  0  0  0  0  0  0  0  0  0  0
   17.4832    0.7926    0.2244 C   0  0  0  0  0  0  0  0  0  0  0  0
   18.8699    0.8796    0.2911 C   0  0  0  0  0  0  0  0  0  0  0  0
   19.5642    0.0734    1.1902 C   0  0  0  0  0  0  0  0  0  0  0  0
   18.8291   -0.7831    1.9934 C   0  0  0  0  0  0  0  0  0  0  0  0
   17.4853   -0.8859    1.9480 N   0  0  0  0  0  0  0  0  0  0  0  0
   12.9591    1.6121   -0.9061 C   0  0  0  0  0  0  0  0  0  0  0  0
   13.9229    2.9919   -1.3126 Cl  0  0  0  0  0  0  0  0  0  0  0  0
   11.7072    1.4904   -1.5139 C   0  0  0  0  0  0  0  0  0  0  0  0
    7.2735    0.8428   -1.9523 C   0  0  0  0  0  0  0  0  0  0  0  0
    6.8120   -0.3660   -1.3642 C   0  0  0  0  0  0  0  0  0  0  0  0
    5.4506   -0.6526   -1.1818 C   0  0  0  0  0  0  0  0  0  0  0  0
    4.9852   -1.9116   -0.7224 N   0  0  0  0  0  0  0  0  0  0  0  0
    5.7653   -3.0333   -0.5081 C   0  0  0  0  0  0  0  0  0  0  0  0
    6.9674   -3.1309   -0.7288 O   0  0  0  0  0  0  0  0  0  0  0  0
    5.0114   -4.1941    0.0459 C   0  0  0  0  0  0  0  0  0  0  0  0
    5.7163   -5.2723    0.4318 C   0  0  0  0  0  0  0  0  0  0  0  0
    5.1607   -6.4944    1.0947 C   0  0  0  0  0  0  0  0  0  0  0  0
    5.7913   -6.7286    2.4026 N   0  0  0  0  0  0  0  0  0  0  0  0
    5.5219   -5.6428    3.3486 C   0  0  0  0  0  0  0  0  0  0  0  0
    5.3322   -8.0002    2.9641 C   0  0  0  0  0  0  0  0  0  0  0  0
    0.3570    0.6884   -3.1329 H   0  0  0  0  0  0  0  0  0  0  0  0
    0.5211   -0.1330   -1.5606 H   0  0  0  0  0  0  0  0  0  0  0  0
    1.2048   -0.8692   -3.0111 H   0  0  0  0  0  0  0  0  0  0  0  0
    2.1260    1.7779   -1.7914 H   0  0  0  0  0  0  0  0  0  0  0  0
    2.7989    0.9799   -3.2510 H   0  0  0  0  0  0  0  0  0  0  0  0
    4.2759    2.4049   -2.1185 H   0  0  0  0  0  0  0  0  0  0  0  0
    7.9715    4.1796   -3.6719 H   0  0  0  0  0  0  0  0  0  0  0  0
    9.3053   -0.7663   -1.8582 H   0  0  0  0  0  0  0  0  0  0  0  0
   10.7543   -1.4803   -0.2165 H   0  0  0  0  0  0  0  0  0  0  0  0
   12.8709   -1.2187    0.9536 H   0  0  0  0  0  0  0  0  0  0  0  0
   15.1776   -1.1597    0.2945 H   0  0  0  0  0  0  0  0  0  0  0  0
   14.9507   -0.5782    1.9790 H   0  0  0  0  0  0  0  0  0  0  0  0
   16.9328    1.4081   -0.4901 H   0  0  0  0  0  0  0  0  0  0  0  0
   19.4120    1.5634   -0.3581 H   0  0  0  0  0  0  0  0  0  0  0  0
   20.6412    0.1125    1.2649 H   0  0  0  0  0  0  0  0  0  0  0  0
   19.3168   -1.4384    2.7084 H   0  0  0  0  0  0  0  0  0  0  0  0
   11.4287    2.3101   -2.1442 H   0  0  0  0  0  0  0  0  0  0  0  0
    7.5473   -1.1101   -1.0875 H   0  0  0  0  0  0  0  0  0  0  0  0
    3.9791   -1.9671   -0.5873 H   0  0  0  0  0  0  0  0  0  0  0  0
    3.9388   -4.1313    0.1652 H   0  0  0  0  0  0  0  0  0  0  0  0
    6.7992   -5.2843    0.3050 H   0  0  0  0  0  0  0  0  0  0  0  0
    5.3882   -7.3414    0.4334 H   0  0  0  0  0  0  0  0  0  0  0  0
    4.0688   -6.4389    1.1824 H   0  0  0  0  0  0  0  0  0  0  0  0
    5.9655   -4.7003    3.0095 H   0  0  0  0  0  0  0  0  0  0  0  0
    5.9830   -5.8549    4.3199 H   0  0  0  0  0  0  0  0  0  0  0  0
    4.4484   -5.4864    3.5020 H   0  0  0  0  0  0  0  0  0  0  0  0
    5.5853   -8.8324    2.2981 H   0  0  0  0  0  0  0  0  0  0  0  0
    4.2494   -8.0079    3.1334 H   0  0  0  0  0  0  0  0  0  0  0  0
    5.8310   -8.2025    3.9189 H   0  0  0  0  0  0  0  0  0  0  0  0
  1  2  1  0  0  0  0
  1 41  1  0  0  0  0
  1 42  1  0  0  0  0
  1 43  1  0  0  0  0
  2  3  1  0  0  0  0
  2 44  1  0  0  0  0
  2 45  1  0  0  0  0
  3  4  1  0  0  0  0
  4  5  1  0  0  0  0
  4 31  2  0  0  0  0
  5  6  2  0  0  0  0
  5 46  1  0  0  0  0
  6  7  1  0  0  0  0
  6 29  1  0  0  0  0
  7  8  2  0  0  0  0
  8  9  1  0  0  0  0
  8 47  1  0  0  0  0
  9 10  1  0  0  0  0
  9 12  2  0  0  0  0
 10 11  3  0  0  0  0
 12 13  1  0  0  0  0
 12 29  1  0  0  0  0
 13 14  1  0  0  0  0
 13 48  1  0  0  0  0
 14 15  1  0  0  0  0
 14 28  2  0  0  0  0
 15 16  2  0  0  0  0
 15 49  1  0  0  0  0
 16 17  1  0  0  0  0
 16 50  1  0  0  0  0
 17 18  1  0  0  0  0
 17 26  2  0  0  0  0
 18 19  1  0  0  0  0
 19 20  1  0  0  0  0
 19 51  1  0  0  0  0
 19 52  1  0  0  0  0
 20 21  1  0  0  0  0
 20 25  2  0  0  0  0
 21 22  2  0  0  0  0
 21 53  1  0  0  0  0
 22 23  1  0  0  0  0
 22 54  1  0  0  0  0
 23 24  2  0  0  0  0
 23 55  1  0  0  0  0
 24 25  1  0  0  0  0
 24 56  1  0  0  0  0
 26 27  1  0  0  0  0
 26 28  1  0  0  0  0
 28 57  1  0  0  0  0
 29 30  2  0  0  0  0
 30 31  1  0  0  0  0
 30 58  1  0  0  0  0
 31 32  1  0  0  0  0
 32 33  1  0  0  0  0
 32 59  1  0  0  0  0
 33 34  2  0  0  0  0
 33 35  1  0  0  0  0
 35 36  2  0  0  0  0
 35 60  1  0  0  0  0
 36 37  1  0  0  0  0
 36 61  1  0  0  0  0
 37 38  1  0  0  0  0
 37 62  1  0  0  0  0
 37 63  1  0  0  0  0
 38 39  1  0  0  0  0
 38 40  1  0  0  0  0
 39 64  1  0  0  0  0
 39 65  1  0  0  0  0
 39 66  1  0  0  0  0
 40 67  1  0  0  0  0
 40 68  1  0  0  0  0
 40 69  1  0  0  0  0
M  END
$$$$
