CHEMBL4786463
 OpenBabel04072215383D

 80 86  0  0  0  0  0  0  0  0999 V2000
    3.4411    0.3329   -1.0441 C   0  0  0  0  0  0  0  0  0  0  0  0
    2.9931   -0.6858   -0.1489 O   0  0  0  0  0  0  0  0  0  0  0  0
    3.5528   -0.7482    1.1021 C   0  0  0  0  0  0  0  0  0  0  0  0
    4.5270    0.1550    1.5641 C   0  0  0  0  0  0  0  0  0  0  0  0
    5.1705   -0.0377    2.8168 C   0  0  0  0  0  0  0  0  0  0  0  0
    6.2393    0.7068    3.3241 C   0  0  0  0  0  0  0  0  0  0  0  0
    6.7227    1.7519    2.5476 O   0  0  0  0  0  0  0  0  0  0  0  0
    8.0760    2.0056    2.5759 C   0  0  0  0  0  0  0  0  0  0  0  0
    9.0525    1.0159    2.7146 C   0  0  0  0  0  0  0  0  0  0  0  0
   10.4084    1.3559    2.6878 C   0  0  0  0  0  0  0  0  0  0  0  0
   10.8190    2.6764    2.4623 C   0  0  0  0  0  0  0  0  0  0  0  0
   12.1952    2.9493    2.3467 N   0  0  0  0  0  0  0  0  0  0  0  0
   12.8383    3.8367    1.4539 C   0  0  0  0  0  0  0  0  0  0  0  0
   12.0784    4.6683    0.6969 N   0  0  0  0  0  0  0  0  0  0  0  0
   12.6812    5.5609   -0.1120 C   0  0  0  0  0  0  0  0  0  0  0  0
   14.0490    5.6865   -0.2246 C   0  0  0  0  0  0  0  0  0  0  0  0
   14.8472    4.8331    0.5289 C   0  0  0  0  0  0  0  0  0  0  0  0
   16.2441    4.9480    0.4845 N   0  0  0  0  0  0  0  0  0  0  0  0
   17.0422    4.0829    1.1804 C   0  0  0  0  0  0  0  0  0  0  0  0
   16.5972    3.1100    1.9899 C   0  0  0  0  0  0  0  0  0  0  0  0
   17.5472    2.1949    2.6289 C   0  0  0  0  0  0  0  0  0  0  0  0
   18.0967    2.4868    3.8858 C   0  0  0  0  0  0  0  0  0  0  0  0
   19.0292    1.6199    4.4619 C   0  0  0  0  0  0  0  0  0  0  0  0
   19.4080    0.4677    3.7817 C   0  0  0  0  0  0  0  0  0  0  0  0
   20.3067   -0.3593    4.3321 F   0  0  0  0  0  0  0  0  0  0  0  0
   18.8735    0.1654    2.5350 C   0  0  0  0  0  0  0  0  0  0  0  0
   17.9405    1.0283    1.9569 C   0  0  0  0  0  0  0  0  0  0  0  0
   15.1141    2.9438    2.1210 C   0  0  0  0  0  0  0  0  0  0  0  0
   14.6315    2.0186    2.7707 O   0  0  0  0  0  0  0  0  0  0  0  0
   14.2370    3.8954    1.3822 C   0  0  0  0  0  0  0  0  0  0  0  0
    9.8317    3.6594    2.3235 C   0  0  0  0  0  0  0  0  0  0  0  0
    8.4792    3.3231    2.3747 C   0  0  0  0  0  0  0  0  0  0  0  0
    7.5626    4.2906    2.2119 F   0  0  0  0  0  0  0  0  0  0  0  0
    6.8390    0.4674    4.5093 N   0  0  0  0  0  0  0  0  0  0  0  0
    6.3761   -0.5801    5.1879 C   0  0  0  0  0  0  0  0  0  0  0  0
    5.3550   -1.3563    4.8174 N   0  0  0  0  0  0  0  0  0  0  0  0
    4.7724   -1.0777    3.6462 C   0  0  0  0  0  0  0  0  0  0  0  0
    3.7448   -1.8969    3.2241 C   0  0  0  0  0  0  0  0  0  0  0  0
    3.1558   -1.8032    1.9475 C   0  0  0  0  0  0  0  0  0  0  0  0
    2.2294   -2.7456    1.4969 O   0  0  0  0  0  0  0  0  0  0  0  0
    2.2079   -3.9365    2.3062 C   0  0  0  0  0  0  0  0  0  0  0  0
    1.4314   -5.1453    1.7514 C   0  0  0  0  0  0  0  0  0  0  0  0
   -0.0886   -4.9650    1.7161 C   0  0  0  0  0  0  0  0  0  0  0  0
   -0.6988   -4.8441    3.1166 C   0  0  0  0  0  0  0  0  0  0  0  0
   -0.3304   -5.9521    4.0110 N   0  0  0  0  0  0  0  0  0  0  0  0
   -0.8203   -5.6782    5.3678 C   0  0  0  0  0  0  0  0  0  0  0  0
    1.1081   -6.2369    4.0415 C   0  0  0  0  0  0  0  0  0  0  0  0
    1.7212   -6.3736    2.6413 C   0  0  0  0  0  0  0  0  0  0  0  0
    3.2580   -0.0093   -2.0674 H   0  0  0  0  0  0  0  0  0  0  0  0
    4.5154    0.5364   -0.9859 H   0  0  0  0  0  0  0  0  0  0  0  0
    2.8676    1.2519   -0.8835 H   0  0  0  0  0  0  0  0  0  0  0  0
    4.8443    0.9935    0.9699 H   0  0  0  0  0  0  0  0  0  0  0  0
    8.7828   -0.0273    2.8482 H   0  0  0  0  0  0  0  0  0  0  0  0
   11.1461    0.5673    2.8163 H   0  0  0  0  0  0  0  0  0  0  0  0
   12.7981    2.1513    2.5637 H   0  0  0  0  0  0  0  0  0  0  0  0
   12.0051    6.1877   -0.6871 H   0  0  0  0  0  0  0  0  0  0  0  0
   14.4717    6.4312   -0.8874 H   0  0  0  0  0  0  0  0  0  0  0  0
   16.6694    5.5150   -0.2417 H   0  0  0  0  0  0  0  0  0  0  0  0
   18.1043    4.2388    1.0066 H   0  0  0  0  0  0  0  0  0  0  0  0
   17.8017    3.3852    4.4235 H   0  0  0  0  0  0  0  0  0  0  0  0
   19.4594    1.8324    5.4357 H   0  0  0  0  0  0  0  0  0  0  0  0
   19.1852   -0.7388    2.0210 H   0  0  0  0  0  0  0  0  0  0  0  0
   17.5260    0.7868    0.9806 H   0  0  0  0  0  0  0  0  0  0  0  0
   10.0983    4.7005    2.1708 H   0  0  0  0  0  0  0  0  0  0  0  0
    6.8883   -0.8455    6.1050 H   0  0  0  0  0  0  0  0  0  0  0  0
    3.4513   -2.6593    3.9373 H   0  0  0  0  0  0  0  0  0  0  0  0
    1.7909   -3.6722    3.2827 H   0  0  0  0  0  0  0  0  0  0  0  0
    3.2446   -4.2788    2.4254 H   0  0  0  0  0  0  0  0  0  0  0  0
    1.7809   -5.3432    0.7312 H   0  0  0  0  0  0  0  0  0  0  0  0
   -0.5326   -5.8392    1.2182 H   0  0  0  0  0  0  0  0  0  0  0  0
   -0.3599   -4.0921    1.1138 H   0  0  0  0  0  0  0  0  0  0  0  0
   -1.7901   -4.8345    3.0086 H   0  0  0  0  0  0  0  0  0  0  0  0
   -0.4168   -3.8780    3.5512 H   0  0  0  0  0  0  0  0  0  0  0  0
   -1.9129   -5.6016    5.3744 H   0  0  0  0  0  0  0  0  0  0  0  0
   -0.4085   -4.7438    5.7702 H   0  0  0  0  0  0  0  0  0  0  0  0
   -0.5537   -6.4878    6.0564 H   0  0  0  0  0  0  0  0  0  0  0  0
    1.2704   -7.1837    4.5745 H   0  0  0  0  0  0  0  0  0  0  0  0
    1.6484   -5.4710    4.6112 H   0  0  0  0  0  0  0  0  0  0  0  0
    1.3257   -7.2765    2.1597 H   0  0  0  0  0  0  0  0  0  0  0  0
    2.8035   -6.5252    2.7386 H   0  0  0  0  0  0  0  0  0  0  0  0
  1  2  1  0  0  0  0
  1 49  1  0  0  0  0
  1 50  1  0  0  0  0
  1 51  1  0  0  0  0
  2  3  1  0  0  0  0
  3  4  1  0  0  0  0
  3 39  2  0  0  0  0
  4  5  2  0  0  0  0
  4 52  1  0  0  0  0
  5  6  1  0  0  0  0
  5 37  1  0  0  0  0
  6  7  1  0  0  0  0
  6 34  2  0  0  0  0
  7  8  1  0  0  0  0
  8  9  1  0  0  0  0
  8 32  2  0  0  0  0
  9 10  2  0  0  0  0
  9 53  1  0  0  0  0
 10 11  1  0  0  0  0
 10 54  1  0  0  0  0
 11 12  1  0  0  0  0
 11 31  2  0  0  0  0
 12 13  1  0  0  0  0
 12 55  1  0  0  0  0
 13 14  1  0  0  0  0
 13 30  2  0  0  0  0
 14 15  2  0  0  0  0
 15 16  1  0  0  0  0
 15 56  1  0  0  0  0
 16 17  2  0  0  0  0
 16 57  1  0  0  0  0
 17 18  1  0  0  0  0
 17 30  1  0  0  0  0
 18 19  1  0  0  0  0
 18 58  1  0  0  0  0
 19 20  2  0  0  0  0
 19 59  1  0  0  0  0
 20 21  1  0  0  0  0
 20 28  1  0  0  0  0
 21 22  1  0  0  0  0
 21 27  2  0  0  0  0
 22 23  2  0  0  0  0
 22 60  1  0  0  0  0
 23 24  1  0  0  0  0
 23 61  1  0  0  0  0
 24 25  1  0  0  0  0
 24 26  2  0  0  0  0
 26 27  1  0  0  0  0
 26 62  1  0  0  0  0
 27 63  1  0  0  0  0
 28 29  2  0  0  0  0
 28 30  1  0  0  0  0
 31 32  1  0  0  0  0
 31 64  1  0  0  0  0
 32 33  1  0  0  0  0
 34 35  1  0  0  0  0
 35 36  2  0  0  0  0
 35 65  1  0  0  0  0
 36 37  1  0  0  0  0
 37 38  2  0  0  0  0
 38 39  1  0  0  0  0
 38 66  1  0  0  0  0
 39 40  1  0  0  0  0
 40 41  1  0  0  0  0
 41 42  1  0  0  0  0
 41 67  1  0  0  0  0
 41 68  1  0  0  0  0
 42 43  1  0  0  0  0
 42 48  1  0  0  0  0
 42 69  1  0  0  0  0
 43 44  1  0  0  0  0
 43 70  1  0  0  0  0
 43 71  1  0  0  0  0
 44 45  1  0  0  0  0
 44 72  1  0  0  0  0
 44 73  1  0  0  0  0
 45 46  1  0  0  0  0
 45 47  1  0  0  0  0
 46 74  1  0  0  0  0
 46 75  1  0  0  0  0
 46 76  1  0  0  0  0
 47 48  1  0  0  0  0
 47 77  1  0  0  0  0
 47 78  1  0  0  0  0
 48 79  1  0  0  0  0
 48 80  1  0  0  0  0
M  END
$$$$
