CHEMBL3972564
 OpenBabel04072215373D

 52 56  0  0  0  0  0  0  0  0999 V2000
    0.5069   -0.5690   -0.4022 C   0  0  0  0  0  0  0  0  0  0  0  0
    1.7501   -1.2229   -0.1961 O   0  0  0  0  0  0  0  0  0  0  0  0
    2.6752   -1.1834   -1.2025 C   0  0  0  0  0  0  0  0  0  0  0  0
    2.5604   -0.5398   -2.4178 C   0  0  0  0  0  0  0  0  0  0  0  0
    3.6243   -0.6280   -3.3125 C   0  0  0  0  0  0  0  0  0  0  0  0
    3.5145    0.2067   -4.8189 Cl  0  0  0  0  0  0  0  0  0  0  0  0
    4.7883   -1.3633   -3.0123 C   0  0  0  0  0  0  0  0  0  0  0  0
    4.9459   -2.0341   -1.7849 C   0  0  0  0  0  0  0  0  0  0  0  0
    6.1318   -2.7645   -1.4458 N   0  0  0  0  0  0  0  0  0  0  0  0
    6.9947   -3.2453   -2.5625 C   0  0  0  0  0  0  0  0  0  0  0  0
    6.3145   -4.2893   -3.4121 C   0  0  0  0  0  0  0  0  0  0  0  0
    7.1358   -5.1314   -4.3679 C   0  0  0  0  0  0  0  0  0  0  0  0
    6.1925   -4.0994   -4.9038 C   0  0  0  0  0  0  0  0  0  0  0  0
    6.6918   -3.0072   -0.1507 C   0  0  0  0  0  0  0  0  0  0  0  0
    8.0748   -2.9171    0.0885 C   0  0  0  0  0  0  0  0  0  0  0  0
    8.6282   -3.1960    1.3479 C   0  0  0  0  0  0  0  0  0  0  0  0
    7.8241   -3.4786    2.4389 C   0  0  0  0  0  0  0  0  0  0  0  0
    8.3667   -3.7115    3.6490 N   0  0  0  0  0  0  0  0  0  0  0  0
    7.4911   -3.9189    4.6650 C   0  0  0  0  0  0  0  0  0  0  0  0
    6.1136   -3.8888    4.4999 C   0  0  0  0  0  0  0  0  0  0  0  0
    5.1984   -4.0165    5.6213 C   0  0  0  0  0  0  0  0  0  0  0  0
    5.4395   -4.2173    6.9992 C   0  0  0  0  0  0  0  0  0  0  0  0
    4.3187   -4.2391    7.7279 N   0  0  0  0  0  0  0  0  0  0  0  0
    3.3486   -4.0497    6.8156 N   0  0  0  0  0  0  0  0  0  0  0  0
    1.9690   -3.9924    7.2366 C   0  0  0  0  0  0  0  0  0  0  0  0
    3.8220   -3.9075    5.5432 C   0  0  0  0  0  0  0  0  0  0  0  0
    5.5742   -3.7102    3.2732 N   0  0  0  0  0  0  0  0  0  0  0  0
    6.4299   -3.5126    2.2484 C   0  0  0  0  0  0  0  0  0  0  0  0
    5.9192   -3.3501    0.9658 C   0  0  0  0  0  0  0  0  0  0  0  0
    3.8551   -1.8884   -0.9079 C   0  0  0  0  0  0  0  0  0  0  0  0
   -0.0947   -0.7164    0.5005 H   0  0  0  0  0  0  0  0  0  0  0  0
   -0.0370   -1.0112   -1.2420 H   0  0  0  0  0  0  0  0  0  0  0  0
    0.6481    0.5070   -0.5376 H   0  0  0  0  0  0  0  0  0  0  0  0
    1.6785    0.0337   -2.6791 H   0  0  0  0  0  0  0  0  0  0  0  0
    5.5782   -1.3640   -3.7555 H   0  0  0  0  0  0  0  0  0  0  0  0
    7.8915   -3.7572   -2.1962 H   0  0  0  0  0  0  0  0  0  0  0  0
    7.3722   -2.4035   -3.1558 H   0  0  0  0  0  0  0  0  0  0  0  0
    5.5446   -4.8276   -2.8707 H   0  0  0  0  0  0  0  0  0  0  0  0
    6.8663   -6.1752   -4.4980 H   0  0  0  0  0  0  0  0  0  0  0  0
    8.2022   -4.9464   -4.4576 H   0  0  0  0  0  0  0  0  0  0  0  0
    5.2783   -4.4374   -5.3777 H   0  0  0  0  0  0  0  0  0  0  0  0
    6.6296   -3.2194   -5.3619 H   0  0  0  0  0  0  0  0  0  0  0  0
    8.7682   -2.6257   -0.6973 H   0  0  0  0  0  0  0  0  0  0  0  0
    9.7074   -3.1718    1.4788 H   0  0  0  0  0  0  0  0  0  0  0  0
    7.9522   -4.1071    5.6267 H   0  0  0  0  0  0  0  0  0  0  0  0
    6.3840   -4.3377    7.5146 H   0  0  0  0  0  0  0  0  0  0  0  0
    1.9044   -4.2188    8.3050 H   0  0  0  0  0  0  0  0  0  0  0  0
    1.4020   -4.7323    6.6673 H   0  0  0  0  0  0  0  0  0  0  0  0
    1.5901   -2.9847    7.0465 H   0  0  0  0  0  0  0  0  0  0  0  0
    3.1656   -3.7272    4.7069 H   0  0  0  0  0  0  0  0  0  0  0  0
    4.8663   -3.5691    0.8786 H   0  0  0  0  0  0  0  0  0  0  0  0
    3.8352   -2.3354    0.0686 H   0  0  0  0  0  0  0  0  0  0  0  0
  1  2  1  0  0  0  0
  1 31  1  0  0  0  0
  1 32  1  0  0  0  0
  1 33  1  0  0  0  0
  2  3  1  0  0  0  0
  3  4  1  0  0  0  0
  3 30  2  0  0  0  0
  4  5  2  0  0  0  0
  4 34  1  0  0  0  0
  5  6  1  0  0  0  0
  5  7  1  0  0  0  0
  7  8  2  0  0  0  0
  7 35  1  0  0  0  0
  8  9  1  0  0  0  0
  8 30  1  0  0  0  0
  9 10  1  0  0  0  0
  9 14  1  0  0  0  0
 10 11  1  0  0  0  0
 10 36  1  0  0  0  0
 10 37  1  0  0  0  0
 11 12  1  0  0  0  0
 11 13  1  0  0  0  0
 11 38  1  0  0  0  0
 12 13  1  0  0  0  0
 12 39  1  0  0  0  0
 12 40  1  0  0  0  0
 13 41  1  0  0  0  0
 13 42  1  0  0  0  0
 14 15  1  0  0  0  0
 14 29  2  0  0  0  0
 15 16  2  0  0  0  0
 15 43  1  0  0  0  0
 16 17  1  0  0  0  0
 16 44  1  0  0  0  0
 17 18  1  0  0  0  0
 17 28  2  0  0  0  0
 18 19  2  0  0  0  0
 19 20  1  0  0  0  0
 19 45  1  0  0  0  0
 20 21  1  0  0  0  0
 20 27  2  0  0  0  0
 21 22  1  0  0  0  0
 21 26  2  0  0  0  0
 22 23  2  0  0  0  0
 22 46  1  0  0  0  0
 23 24  1  0  0  0  0
 24 25  1  0  0  0  0
 24 26  1  0  0  0  0
 25 47  1  0  0  0  0
 25 48  1  0  0  0  0
 25 49  1  0  0  0  0
 26 50  1  0  0  0  0
 27 28  1  0  0  0  0
 28 29  1  0  0  0  0
 29 51  1  0  0  0  0
 30 52  1  0  0  0  0
M  END
$$$$
