CHEMBL220540
 OpenBabel04072215363D

 79 84  0  0  0  0  0  0  0  0999 V2000
    5.7013    2.6265   -3.2040 C   0  0  0  0  0  0  0  0  0  0  0  0
    6.0183    3.1565   -1.9172 O   0  0  0  0  0  0  0  0  0  0  0  0
    5.3643    4.3060   -1.5478 C   0  0  0  0  0  0  0  0  0  0  0  0
    4.1124    4.6152   -2.0724 C   0  0  0  0  0  0  0  0  0  0  0  0
    3.3433    5.6782   -1.5981 C   0  0  0  0  0  0  0  0  0  0  0  0
    2.0456    5.9102   -2.1264 N   0  0  0  0  0  0  0  0  0  0  0  0
    1.2288    4.8481   -2.5515 C   0  0  0  0  0  0  0  0  0  0  0  0
    1.3513    3.6631   -1.9433 N   0  0  0  0  0  0  0  0  0  0  0  0
    0.6995    2.6566   -2.4910 C   0  0  0  0  0  0  0  0  0  0  0  0
   -0.0901    2.7530   -3.5442 N   0  0  0  0  0  0  0  0  0  0  0  0
   -0.2230    3.9943   -4.0301 C   0  0  0  0  0  0  0  0  0  0  0  0
   -1.2617    4.1867   -5.0533 C   0  0  0  0  0  0  0  0  0  0  0  0
   -2.0351    3.0736   -5.4600 C   0  0  0  0  0  0  0  0  0  0  0  0
   -3.0928    3.2143   -6.3421 C   0  0  0  0  0  0  0  0  0  0  0  0
   -3.3652    4.4765   -6.8012 C   0  0  0  0  0  0  0  0  0  0  0  0
   -2.6571    5.5625   -6.4474 N   0  0  0  0  0  0  0  0  0  0  0  0
   -1.6019    5.4423   -5.5973 C   0  0  0  0  0  0  0  0  0  0  0  0
   -0.8400    6.6066   -5.3130 N   0  0  0  0  0  0  0  0  0  0  0  0
   -1.1038    7.9275   -5.7218 C   0  0  0  0  0  0  0  0  0  0  0  0
   -0.8180    9.0197   -4.8916 C   0  0  0  0  0  0  0  0  0  0  0  0
   -1.2647   10.3061   -5.2243 C   0  0  0  0  0  0  0  0  0  0  0  0
   -1.9813   10.5198   -6.4015 C   0  0  0  0  0  0  0  0  0  0  0  0
   -2.1937    9.4500   -7.2810 C   0  0  0  0  0  0  0  0  0  0  0  0
   -2.9043    9.6630   -8.5614 C   0  0  0  0  0  0  0  0  0  0  0  0
   -2.8147   10.7643   -9.0919 O   0  0  0  0  0  0  0  0  0  0  0  0
   -3.6565    8.5801   -9.0146 N   0  0  0  0  0  0  0  0  0  0  0  0
   -4.4444    8.5603  -10.1791 C   0  0  0  0  0  0  0  0  0  0  0  0
   -4.2835    9.4794  -11.2115 C   0  0  0  0  0  0  0  0  0  0  0  0
   -5.1644    9.4872  -12.2918 C   0  0  0  0  0  0  0  0  0  0  0  0
   -6.1660    8.5227  -12.3947 C   0  0  0  0  0  0  0  0  0  0  0  0
   -7.0759    8.4551  -13.4294 O   0  0  0  0  0  0  0  0  0  0  0  0
   -6.6966    8.8406  -14.6954 C   0  0  0  0  0  0  0  0  0  0  0  0
   -5.3891    8.7464  -15.1842 C   0  0  0  0  0  0  0  0  0  0  0  0
   -5.0788    9.2038  -16.4615 C   0  0  0  0  0  0  0  0  0  0  0  0
   -6.0875    9.6896  -17.2858 C   0  0  0  0  0  0  0  0  0  0  0  0
   -7.4062    9.7270  -16.8305 C   0  0  0  0  0  0  0  0  0  0  0  0
   -7.7114    9.3069  -15.5336 C   0  0  0  0  0  0  0  0  0  0  0  0
   -6.3187    7.5796  -11.3775 C   0  0  0  0  0  0  0  0  0  0  0  0
   -5.4512    7.5918  -10.2777 C   0  0  0  0  0  0  0  0  0  0  0  0
   -1.7343    8.1834   -6.9392 C   0  0  0  0  0  0  0  0  0  0  0  0
    0.4366    5.0633   -3.5809 N   0  0  0  0  0  0  0  0  0  0  0  0
    3.8700    6.5171   -0.6280 C   0  0  0  0  0  0  0  0  0  0  0  0
    5.1209    6.2241   -0.0644 C   0  0  0  0  0  0  0  0  0  0  0  0
    5.6705    6.9785    0.9480 O   0  0  0  0  0  0  0  0  0  0  0  0
    4.7446    7.5783    1.8502 C   0  0  0  0  0  0  0  0  0  0  0  0
    5.8944    5.1371   -0.5483 C   0  0  0  0  0  0  0  0  0  0  0  0
    7.1146    4.9594    0.0615 O   0  0  0  0  0  0  0  0  0  0  0  0
    8.1501    4.4071   -0.7438 C   0  0  0  0  0  0  0  0  0  0  0  0
    6.3396    1.7569   -3.3806 H   0  0  0  0  0  0  0  0  0  0  0  0
    5.9082    3.3698   -3.9812 H   0  0  0  0  0  0  0  0  0  0  0  0
    4.6677    2.2683   -3.2685 H   0  0  0  0  0  0  0  0  0  0  0  0
    3.6768    3.9755   -2.8292 H   0  0  0  0  0  0  0  0  0  0  0  0
    2.0482    6.6129   -2.8544 H   0  0  0  0  0  0  0  0  0  0  0  0
    0.8270    1.6801   -2.0388 H   0  0  0  0  0  0  0  0  0  0  0  0
   -1.8275    2.0833   -5.0602 H   0  0  0  0  0  0  0  0  0  0  0  0
   -3.6908    2.3635   -6.6422 H   0  0  0  0  0  0  0  0  0  0  0  0
   -4.1801    4.6623   -7.4897 H   0  0  0  0  0  0  0  0  0  0  0  0
   -0.2860    6.5150   -4.4649 H   0  0  0  0  0  0  0  0  0  0  0  0
   -0.2859    8.8791   -3.9550 H   0  0  0  0  0  0  0  0  0  0  0  0
   -1.0828   11.1390   -4.5488 H   0  0  0  0  0  0  0  0  0  0  0  0
   -2.3804   11.5040   -6.6317 H   0  0  0  0  0  0  0  0  0  0  0  0
   -3.7839    7.8062   -8.3751 H   0  0  0  0  0  0  0  0  0  0  0  0
   -3.4794   10.2097  -11.2051 H   0  0  0  0  0  0  0  0  0  0  0  0
   -5.0320   10.2547  -13.0490 H   0  0  0  0  0  0  0  0  0  0  0  0
   -4.5892    8.3469  -14.5680 H   0  0  0  0  0  0  0  0  0  0  0  0
   -4.0466    9.1796  -16.8028 H   0  0  0  0  0  0  0  0  0  0  0  0
   -5.8470   10.0371  -18.2870 H   0  0  0  0  0  0  0  0  0  0  0  0
   -8.1935   10.0917  -17.4848 H   0  0  0  0  0  0  0  0  0  0  0  0
   -8.7375    9.3509  -15.1777 H   0  0  0  0  0  0  0  0  0  0  0  0
   -7.1173    6.8470  -11.4329 H   0  0  0  0  0  0  0  0  0  0  0  0
   -5.6055    6.8645   -9.4862 H   0  0  0  0  0  0  0  0  0  0  0  0
   -1.8784    7.3636   -7.6342 H   0  0  0  0  0  0  0  0  0  0  0  0
    3.2792    7.3596   -0.2873 H   0  0  0  0  0  0  0  0  0  0  0  0
    5.3061    7.9294    2.7214 H   0  0  0  0  0  0  0  0  0  0  0  0
    3.9945    6.8612    2.2060 H   0  0  0  0  0  0  0  0  0  0  0  0
    4.2655    8.4507    1.3958 H   0  0  0  0  0  0  0  0  0  0  0  0
    9.1033    4.5972   -0.2407 H   0  0  0  0  0  0  0  0  0  0  0  0
    8.1984    4.8760   -1.7335 H   0  0  0  0  0  0  0  0  0  0  0  0
    8.0514    3.3208   -0.8192 H   0  0  0  0  0  0  0  0  0  0  0  0
  1  2  1  0  0  0  0
  1 49  1  0  0  0  0
  1 50  1  0  0  0  0
  1 51  1  0  0  0  0
  2  3  1  0  0  0  0
  3  4  1  0  0  0  0
  3 46  2  0  0  0  0
  4  5  2  0  0  0  0
  4 52  1  0  0  0  0
  5  6  1  0  0  0  0
  5 42  1  0  0  0  0
  6  7  1  0  0  0  0
  6 53  1  0  0  0  0
  7  8  1  0  0  0  0
  7 41  2  0  0  0  0
  8  9  2  0  0  0  0
  9 10  1  0  0  0  0
  9 54  1  0  0  0  0
 10 11  2  0  0  0  0
 11 12  1  0  0  0  0
 11 41  1  0  0  0  0
 12 13  1  0  0  0  0
 12 17  2  0  0  0  0
 13 14  2  0  0  0  0
 13 55  1  0  0  0  0
 14 15  1  0  0  0  0
 14 56  1  0  0  0  0
 15 16  2  0  0  0  0
 15 57  1  0  0  0  0
 16 17  1  0  0  0  0
 17 18  1  0  0  0  0
 18 19  1  0  0  0  0
 18 58  1  0  0  0  0
 19 20  1  0  0  0  0
 19 40  2  0  0  0  0
 20 21  2  0  0  0  0
 20 59  1  0  0  0  0
 21 22  1  0  0  0  0
 21 60  1  0  0  0  0
 22 23  2  0  0  0  0
 22 61  1  0  0  0  0
 23 24  1  0  0  0  0
 23 40  1  0  0  0  0
 24 25  2  0  0  0  0
 24 26  1  0  0  0  0
 26 27  1  0  0  0  0
 26 62  1  0  0  0  0
 27 28  1  0  0  0  0
 27 39  2  0  0  0  0
 28 29  2  0  0  0  0
 28 63  1  0  0  0  0
 29 30  1  0  0  0  0
 29 64  1  0  0  0  0
 30 31  1  0  0  0  0
 30 38  2  0  0  0  0
 31 32  1  0  0  0  0
 32 33  1  0  0  0  0
 32 37  2  0  0  0  0
 33 34  2  0  0  0  0
 33 65  1  0  0  0  0
 34 35  1  0  0  0  0
 34 66  1  0  0  0  0
 35 36  2  0  0  0  0
 35 67  1  0  0  0  0
 36 37  1  0  0  0  0
 36 68  1  0  0  0  0
 37 69  1  0  0  0  0
 38 39  1  0  0  0  0
 38 70  1  0  0  0  0
 39 71  1  0  0  0  0
 40 72  1  0  0  0  0
 42 43  2  0  0  0  0
 42 73  1  0  0  0  0
 43 44  1  0  0  0  0
 43 46  1  0  0  0  0
 44 45  1  0  0  0  0
 45 74  1  0  0  0  0
 45 75  1  0  0  0  0
 45 76  1  0  0  0  0
 46 47  1  0  0  0  0
 47 48  1  0  0  0  0
 48 77  1  0  0  0  0
 48 78  1  0  0  0  0
 48 79  1  0  0  0  0
M  END
$$$$
