CHEMBL1977041
 OpenBabel04072215363D

 51 54  0  0  0  0  0  0  0  0999 V2000
    2.0239    0.4497    1.7340 C   0  0  0  0  0  0  0  0  0  0  0  0
    3.2896    0.2463    1.1038 O   0  0  0  0  0  0  0  0  0  0  0  0
    3.3737    0.7759   -0.1536 C   0  0  0  0  0  0  0  0  0  0  0  0
    2.4371    1.3186   -0.7274 O   0  0  0  0  0  0  0  0  0  0  0  0
    4.7254    0.6935   -0.7138 C   0  0  0  0  0  0  0  0  0  0  0  0
    5.4116    1.6876   -1.5148 C   0  0  0  0  0  0  0  0  0  0  0  0
    4.9475    3.0436   -1.8022 C   0  0  0  0  0  0  0  0  0  0  0  0
    4.3246    3.7525   -0.7756 C   0  0  0  0  0  0  0  0  0  0  0  0
    3.8174    5.0298   -0.9906 C   0  0  0  0  0  0  0  0  0  0  0  0
    3.9845    5.6809   -2.2116 C   0  0  0  0  0  0  0  0  0  0  0  0
    3.5050    6.9915   -2.4495 N   0  0  0  0  0  0  0  0  0  0  0  0
    2.8555    7.7757   -1.5131 C   0  0  0  0  0  0  0  0  0  0  0  0
    2.6858    7.4702   -0.3356 O   0  0  0  0  0  0  0  0  0  0  0  0
    2.3558    8.9541   -2.0540 N   0  0  0  0  0  0  0  0  0  0  0  0
    1.6047    9.7978   -1.2011 C   0  0  0  0  0  0  0  0  0  0  0  0
    2.0838   10.1490    0.0695 C   0  0  0  0  0  0  0  0  0  0  0  0
    1.2619   10.8092    0.9775 C   0  0  0  0  0  0  0  0  0  0  0  0
   -0.0479   11.1193    0.6245 C   0  0  0  0  0  0  0  0  0  0  0  0
   -0.5166   10.8157   -0.6561 C   0  0  0  0  0  0  0  0  0  0  0  0
    0.3160   10.1783   -1.5804 C   0  0  0  0  0  0  0  0  0  0  0  0
    4.6344    4.9924   -3.2398 C   0  0  0  0  0  0  0  0  0  0  0  0
    5.0743    3.6680   -3.0479 C   0  0  0  0  0  0  0  0  0  0  0  0
    6.6698    1.1697   -1.8114 C   0  0  0  0  0  0  0  0  0  0  0  0
    7.8352    1.6315   -2.5078 C   0  0  0  0  0  0  0  0  0  0  0  0
    7.9911    2.8626   -3.0759 N   0  0  0  0  0  0  0  0  0  0  0  0
    8.8606    0.8384   -2.6094 N   0  0  0  0  0  0  0  0  0  0  0  0
    8.7949   -0.4045   -2.0359 C   0  0  0  0  0  0  0  0  0  0  0  0
    7.8072   -0.8951   -1.3614 N   0  0  0  0  0  0  0  0  0  0  0  0
    6.7460   -0.0782   -1.2545 N   0  0  0  0  0  0  0  0  0  0  0  0
    5.6048   -0.3691   -0.5513 C   0  0  0  0  0  0  0  0  0  0  0  0
    5.4363   -1.6419    0.2050 C   0  0  0  0  0  0  0  0  0  0  0  0
    2.0630    0.0029    2.7316 H   0  0  0  0  0  0  0  0  0  0  0  0
    1.2267   -0.0397    1.1661 H   0  0  0  0  0  0  0  0  0  0  0  0
    1.8194    1.5197    1.8463 H   0  0  0  0  0  0  0  0  0  0  0  0
    4.1871    3.3245    0.2131 H   0  0  0  0  0  0  0  0  0  0  0  0
    3.2895    5.4692   -0.1532 H   0  0  0  0  0  0  0  0  0  0  0  0
    3.7210    7.4169   -3.3374 H   0  0  0  0  0  0  0  0  0  0  0  0
    2.0050    8.8533   -2.9950 H   0  0  0  0  0  0  0  0  0  0  0  0
    3.0920    9.8696    0.3757 H   0  0  0  0  0  0  0  0  0  0  0  0
    1.6293   11.0312    1.9782 H   0  0  0  0  0  0  0  0  0  0  0  0
   -0.7102   11.5805    1.3523 H   0  0  0  0  0  0  0  0  0  0  0  0
   -1.5467   11.0384   -0.9195 H   0  0  0  0  0  0  0  0  0  0  0  0
   -0.0857    9.8998   -2.5493 H   0  0  0  0  0  0  0  0  0  0  0  0
    4.7911    5.4564   -4.2100 H   0  0  0  0  0  0  0  0  0  0  0  0
    5.5237    3.1385   -3.8850 H   0  0  0  0  0  0  0  0  0  0  0  0
    7.5689    3.6270   -2.5618 H   0  0  0  0  0  0  0  0  0  0  0  0
    8.9566    3.0442   -3.3251 H   0  0  0  0  0  0  0  0  0  0  0  0
    9.6891   -1.0322   -2.1668 H   0  0  0  0  0  0  0  0  0  0  0  0
    6.2744   -2.3314    0.0733 H   0  0  0  0  0  0  0  0  0  0  0  0
    4.5275   -2.1573   -0.1229 H   0  0  0  0  0  0  0  0  0  0  0  0
    5.3482   -1.4363    1.2772 H   0  0  0  0  0  0  0  0  0  0  0  0
  1  2  1  0  0  0  0
  1 32  1  0  0  0  0
  1 33  1  0  0  0  0
  1 34  1  0  0  0  0
  2  3  1  0  0  0  0
  3  4  2  0  0  0  0
  3  5  1  0  0  0  0
  5  6  1  0  0  0  0
  5 30  2  0  0  0  0
  6  7  1  0  0  0  0
  6 23  2  0  0  0  0
  7  8  1  0  0  0  0
  7 22  2  0  0  0  0
  8  9  2  0  0  0  0
  8 35  1  0  0  0  0
  9 10  1  0  0  0  0
  9 36  1  0  0  0  0
 10 11  1  0  0  0  0
 10 21  2  0  0  0  0
 11 12  1  0  0  0  0
 11 37  1  0  0  0  0
 12 13  2  0  0  0  0
 12 14  1  0  0  0  0
 14 15  1  0  0  0  0
 14 38  1  0  0  0  0
 15 16  1  0  0  0  0
 15 20  2  0  0  0  0
 16 17  2  0  0  0  0
 16 39  1  0  0  0  0
 17 18  1  0  0  0  0
 17 40  1  0  0  0  0
 18 19  2  0  0  0  0
 18 41  1  0  0  0  0
 19 20  1  0  0  0  0
 19 42  1  0  0  0  0
 20 43  1  0  0  0  0
 21 22  1  0  0  0  0
 21 44  1  0  0  0  0
 22 45  1  0  0  0  0
 23 24  1  0  0  0  0
 23 29  1  0  0  0  0
 24 25  1  0  0  0  0
 24 26  2  0  0  0  0
 25 46  1  0  0  0  0
 25 47  1  0  0  0  0
 26 27  1  0  0  0  0
 27 28  2  0  0  0  0
 27 48  1  0  0  0  0
 28 29  1  0  0  0  0
 29 30  1  0  0  0  0
 30 31  1  0  0  0  0
 31 49  1  0  0  0  0
 31 50  1  0  0  0  0
 31 51  1  0  0  0  0
M  END
$$$$
