CHEMBL191070
 OpenBabel04072215363D

 82 85  0  0  0  0  0  0  0  0999 V2000
    1.5804   -5.0750    1.5545 C   0  0  0  0  0  0  0  0  0  0  0  0
    2.9105   -4.6043    1.3925 O   0  0  0  0  0  0  0  0  0  0  0  0
    3.1430   -3.2924    1.7087 C   0  0  0  0  0  0  0  0  0  0  0  0
    2.1754   -2.3479    2.0497 C   0  0  0  0  0  0  0  0  0  0  0  0
    2.5656   -1.0522    2.3767 C   0  0  0  0  0  0  0  0  0  0  0  0
    1.7223   -0.0593    2.7990 O   0  0  0  0  0  0  0  0  0  0  0  0
    0.5720   -0.4989    3.5168 C   0  0  0  0  0  0  0  0  0  0  0  0
    3.9121   -0.6907    2.2891 C   0  0  0  0  0  0  0  0  0  0  0  0
    4.9202   -1.6289    1.9854 C   0  0  0  0  0  0  0  0  0  0  0  0
    6.3561   -1.2721    2.1215 C   0  0  0  0  0  0  0  0  0  0  0  0
    6.7212   -0.4039    3.1659 C   0  0  0  0  0  0  0  0  0  0  0  0
    8.0556   -0.0785    3.4200 C   0  0  0  0  0  0  0  0  0  0  0  0
    8.4360    0.7859    4.4417 C   0  0  0  0  0  0  0  0  0  0  0  0
    9.7149    1.0888    4.7317 N   0  0  0  0  0  0  0  0  0  0  0  0
   10.6747    0.5362    3.9699 C   0  0  0  0  0  0  0  0  0  0  0  0
   12.0233    0.7446    4.2804 N   0  0  0  0  0  0  0  0  0  0  0  0
   12.3092    1.4896    5.5038 C   0  0  0  0  0  0  0  0  0  0  0  0
   13.7294    2.0644    5.4761 C   0  0  0  0  0  0  0  0  0  0  0  0
   13.9325    3.2095    4.4809 C   0  0  0  0  0  0  0  0  0  0  0  0
   13.0707    4.4491    4.7583 C   0  0  0  0  0  0  0  0  0  0  0  0
   13.2964    5.4736    3.6419 C   0  0  0  0  0  0  0  0  0  0  0  0
   12.4852    6.7003    3.7136 N   0  0  0  0  0  0  0  0  0  0  0  0
   11.0232    6.4597    3.7128 C   0  0  0  0  0  0  0  0  0  0  0  0
   10.4896    5.8866    2.3889 C   0  0  0  0  0  0  0  0  0  0  0  0
   10.8261    6.7302    1.2778 O   0  0  0  0  0  0  0  0  0  0  0  0
   12.2375    6.9685    1.2085 C   0  0  0  0  0  0  0  0  0  0  0  0
   12.7772    7.5524    2.5302 C   0  0  0  0  0  0  0  0  0  0  0  0
   10.3620   -0.3226    2.9155 C   0  0  0  0  0  0  0  0  0  0  0  0
    9.0457   -0.6632    2.6359 C   0  0  0  0  0  0  0  0  0  0  0  0
    8.7435   -1.5476    1.6604 N   0  0  0  0  0  0  0  0  0  0  0  0
    7.4328   -1.8034    1.3877 C   0  0  0  0  0  0  0  0  0  0  0  0
    7.2384   -2.7268    0.3263 N   0  0  0  0  0  0  0  0  0  0  0  0
    6.9232   -2.2254   -0.9244 C   0  0  0  0  0  0  0  0  0  0  0  0
    6.7863   -1.0339   -1.1683 O   0  0  0  0  0  0  0  0  0  0  0  0
    6.8457   -3.2326   -1.8633 N   0  0  0  0  0  0  0  0  0  0  0  0
    6.7208   -2.9911   -3.3208 C   0  0  0  0  0  0  0  0  0  0  0  0
    8.0121   -2.3489   -3.8580 C   0  0  0  0  0  0  0  0  0  0  0  0
    6.5362   -4.3414   -4.0475 C   0  0  0  0  0  0  0  0  0  0  0  0
    5.5100   -2.1095   -3.6626 C   0  0  0  0  0  0  0  0  0  0  0  0
    4.4953   -2.9326    1.6950 C   0  0  0  0  0  0  0  0  0  0  0  0
    1.5849   -6.1520    1.3638 H   0  0  0  0  0  0  0  0  0  0  0  0
    0.9094   -4.6066    0.8270 H   0  0  0  0  0  0  0  0  0  0  0  0
    1.2258   -4.9205    2.5789 H   0  0  0  0  0  0  0  0  0  0  0  0
    1.1246   -2.6073    2.0636 H   0  0  0  0  0  0  0  0  0  0  0  0
    0.2293    0.3305    4.1436 H   0  0  0  0  0  0  0  0  0  0  0  0
    0.7908   -1.3419    4.1829 H   0  0  0  0  0  0  0  0  0  0  0  0
   -0.2310   -0.7534    2.8190 H   0  0  0  0  0  0  0  0  0  0  0  0
    4.1692    0.3428    2.5154 H   0  0  0  0  0  0  0  0  0  0  0  0
    5.9603    0.0059    3.8291 H   0  0  0  0  0  0  0  0  0  0  0  0
    7.6995    1.2599    5.0856 H   0  0  0  0  0  0  0  0  0  0  0  0
   12.5544    1.0194    3.4626 H   0  0  0  0  0  0  0  0  0  0  0  0
   12.2407    0.7894    6.3450 H   0  0  0  0  0  0  0  0  0  0  0  0
   11.5915    2.2922    5.7020 H   0  0  0  0  0  0  0  0  0  0  0  0
   14.4385    1.2644    5.2288 H   0  0  0  0  0  0  0  0  0  0  0  0
   13.9900    2.4204    6.4798 H   0  0  0  0  0  0  0  0  0  0  0  0
   13.7339    2.8481    3.4648 H   0  0  0  0  0  0  0  0  0  0  0  0
   14.9897    3.5028    4.4995 H   0  0  0  0  0  0  0  0  0  0  0  0
   13.3242    4.8805    5.7336 H   0  0  0  0  0  0  0  0  0  0  0  0
   12.0184    4.1583    4.7850 H   0  0  0  0  0  0  0  0  0  0  0  0
   13.1476    4.9556    2.6894 H   0  0  0  0  0  0  0  0  0  0  0  0
   14.3540    5.7672    3.6724 H   0  0  0  0  0  0  0  0  0  0  0  0
   10.5342    7.4281    3.8877 H   0  0  0  0  0  0  0  0  0  0  0  0
   10.7199    5.8320    4.5563 H   0  0  0  0  0  0  0  0  0  0  0  0
    9.3972    5.8275    2.4311 H   0  0  0  0  0  0  0  0  0  0  0  0
   10.8643    4.8732    2.2057 H   0  0  0  0  0  0  0  0  0  0  0  0
   12.4147    7.6771    0.3938 H   0  0  0  0  0  0  0  0  0  0  0  0
   12.7448    6.0379    0.9299 H   0  0  0  0  0  0  0  0  0  0  0  0
   12.3069    8.5302    2.6972 H   0  0  0  0  0  0  0  0  0  0  0  0
   13.8545    7.7399    2.4525 H   0  0  0  0  0  0  0  0  0  0  0  0
   11.1561   -0.7651    2.3247 H   0  0  0  0  0  0  0  0  0  0  0  0
    8.0732   -3.2966    0.2215 H   0  0  0  0  0  0  0  0  0  0  0  0
    6.4314   -4.0835   -1.5061 H   0  0  0  0  0  0  0  0  0  0  0  0
    8.8799   -2.9921   -3.6646 H   0  0  0  0  0  0  0  0  0  0  0  0
    8.2138   -1.3816   -3.3877 H   0  0  0  0  0  0  0  0  0  0  0  0
    7.9553   -2.1859   -4.9406 H   0  0  0  0  0  0  0  0  0  0  0  0
    7.3817   -5.0157   -3.8706 H   0  0  0  0  0  0  0  0  0  0  0  0
    6.4490   -4.1973   -5.1323 H   0  0  0  0  0  0  0  0  0  0  0  0
    5.6285   -4.8544   -3.7099 H   0  0  0  0  0  0  0  0  0  0  0  0
    5.6134   -1.0941   -3.2707 H   0  0  0  0  0  0  0  0  0  0  0  0
    4.5875   -2.5328   -3.2515 H   0  0  0  0  0  0  0  0  0  0  0  0
    5.3849   -2.0167   -4.7479 H   0  0  0  0  0  0  0  0  0  0  0  0
    5.2212   -3.7162    1.4889 H   0  0  0  0  0  0  0  0  0  0  0  0
  1  2  1  0  0  0  0
  1 41  1  0  0  0  0
  1 42  1  0  0  0  0
  1 43  1  0  0  0  0
  2  3  1  0  0  0  0
  3  4  1  0  0  0  0
  3 40  2  0  0  0  0
  4  5  2  0  0  0  0
  4 44  1  0  0  0  0
  5  6  1  0  0  0  0
  5  8  1  0  0  0  0
  6  7  1  0  0  0  0
  7 45  1  0  0  0  0
  7 46  1  0  0  0  0
  7 47  1  0  0  0  0
  8  9  2  0  0  0  0
  8 48  1  0  0  0  0
  9 10  1  0  0  0  0
  9 40  1  0  0  0  0
 10 11  1  0  0  0  0
 10 31  2  0  0  0  0
 11 12  2  0  0  0  0
 11 49  1  0  0  0  0
 12 13  1  0  0  0  0
 12 29  1  0  0  0  0
 13 14  2  0  0  0  0
 13 50  1  0  0  0  0
 14 15  1  0  0  0  0
 15 16  1  0  0  0  0
 15 28  2  0  0  0  0
 16 17  1  0  0  0  0
 16 51  1  0  0  0  0
 17 18  1  0  0  0  0
 17 52  1  0  0  0  0
 17 53  1  0  0  0  0
 18 19  1  0  0  0  0
 18 54  1  0  0  0  0
 18 55  1  0  0  0  0
 19 20  1  0  0  0  0
 19 56  1  0  0  0  0
 19 57  1  0  0  0  0
 20 21  1  0  0  0  0
 20 58  1  0  0  0  0
 20 59  1  0  0  0  0
 21 22  1  0  0  0  0
 21 60  1  0  0  0  0
 21 61  1  0  0  0  0
 22 23  1  0  0  0  0
 22 27  1  0  0  0  0
 23 24  1  0  0  0  0
 23 62  1  0  0  0  0
 23 63  1  0  0  0  0
 24 25  1  0  0  0  0
 24 64  1  0  0  0  0
 24 65  1  0  0  0  0
 25 26  1  0  0  0  0
 26 27  1  0  0  0  0
 26 66  1  0  0  0  0
 26 67  1  0  0  0  0
 27 68  1  0  0  0  0
 27 69  1  0  0  0  0
 28 29  1  0  0  0  0
 28 70  1  0  0  0  0
 29 30  2  0  0  0  0
 30 31  1  0  0  0  0
 31 32  1  0  0  0  0
 32 33  1  0  0  0  0
 32 71  1  0  0  0  0
 33 34  2  0  0  0  0
 33 35  1  0  0  0  0
 35 36  1  0  0  0  0
 35 72  1  0  0  0  0
 36 37  1  0  0  0  0
 36 38  1  0  0  0  0
 36 39  1  0  0  0  0
 37 73  1  0  0  0  0
 37 74  1  0  0  0  0
 37 75  1  0  0  0  0
 38 76  1  0  0  0  0
 38 77  1  0  0  0  0
 38 78  1  0  0  0  0
 39 79  1  0  0  0  0
 39 80  1  0  0  0  0
 39 81  1  0  0  0  0
 40 82  1  0  0  0  0
M  END
$$$$
