CHEMBL4634918
 OpenBabel04072215383D

105110  0  0  0  0  0  0  0  0999 V2000
   10.7491    1.2608   -6.0178 C   0  0  0  0  0  0  0  0  0  0  0  0
   10.8320    2.1107   -4.7629 C   0  0  0  0  0  0  0  0  0  0  0  0
    9.4941    2.6315   -4.4584 N   0  0  0  0  0  0  0  0  0  0  0  0
    9.3488    3.6538   -3.1359 S   0  0  0  0  0  0  0  0  0  0  0  0
   10.5866    4.4135   -3.0091 O   0  0  0  0  0  0  0  0  0  0  0  0
    8.0663    4.3149   -3.2311 O   0  0  0  0  0  0  0  0  0  0  0  0
    9.2299    2.5503   -1.7557 C   0  0  0  0  0  0  0  0  0  0  0  0
   10.2208    2.6340   -0.7537 C   0  0  0  0  0  0  0  0  0  0  0  0
   10.0830    1.9232    0.4334 C   0  0  0  0  0  0  0  0  0  0  0  0
    8.9327    1.1882    0.6638 C   0  0  0  0  0  0  0  0  0  0  0  0
    7.9600    1.1038   -0.3341 C   0  0  0  0  0  0  0  0  0  0  0  0
    8.1270    1.6936   -1.6014 C   0  0  0  0  0  0  0  0  0  0  0  0
    7.1523    1.4455   -2.6297 N   0  0  0  0  0  0  0  0  0  0  0  0
    6.5064    0.1800   -2.7271 C   0  0  0  0  0  0  0  0  0  0  0  0
    7.2284   -0.8722   -2.2672 N   0  0  0  0  0  0  0  0  0  0  0  0
    6.6361   -2.0529   -2.0857 C   0  0  0  0  0  0  0  0  0  0  0  0
    7.4074   -3.0474   -1.4927 N   0  0  0  0  0  0  0  0  0  0  0  0
    7.0005   -4.0598   -0.6080 C   0  0  0  0  0  0  0  0  0  0  0  0
    5.8066   -4.0236    0.1050 C   0  0  0  0  0  0  0  0  0  0  0  0
    5.4476   -5.0712    0.9614 C   0  0  0  0  0  0  0  0  0  0  0  0
    6.2735   -6.1934    1.1572 C   0  0  0  0  0  0  0  0  0  0  0  0
    5.9624   -7.1638    2.1395 N   0  0  0  0  0  0  0  0  0  0  0  0
    5.2815   -6.6486    3.3325 C   0  0  0  0  0  0  0  0  0  0  0  0
    5.4716   -7.6505    4.4605 C   0  0  0  0  0  0  0  0  0  0  0  0
    4.8492   -9.0308    4.1497 C   0  0  0  0  0  0  0  0  0  0  0  0
    3.3643   -9.1413    4.2776 N   0  0  0  0  0  0  0  0  0  0  0  0
    2.7601   -8.3620    5.3829 C   0  0  0  0  0  0  0  0  0  0  0  0
    3.1131   -8.8640    6.8058 C   0  0  0  0  0  0  0  0  0  0  0  0
    2.6904  -10.2538    7.0325 N   0  0  0  0  0  0  0  0  0  0  0  0
    3.1841  -10.7366    8.3258 C   0  0  0  0  0  0  0  0  0  0  0  0
    3.1450  -11.1300    5.9363 C   0  0  0  0  0  0  0  0  0  0  0  0
    2.9301  -10.5539    4.5012 C   0  0  0  0  0  0  0  0  0  0  0  0
    5.3551   -9.4756    2.7410 C   0  0  0  0  0  0  0  0  0  0  0  0
    5.3200   -8.3926    1.6407 C   0  0  0  0  0  0  0  0  0  0  0  0
    7.4771   -6.2415    0.4078 C   0  0  0  0  0  0  0  0  0  0  0  0
    8.2957   -7.3396    0.5675 O   0  0  0  0  0  0  0  0  0  0  0  0
    9.6634   -7.1442    0.2048 C   0  0  0  0  0  0  0  0  0  0  0  0
    7.8161   -5.1823   -0.4580 C   0  0  0  0  0  0  0  0  0  0  0  0
    5.3773   -2.2946   -2.4329 N   0  0  0  0  0  0  0  0  0  0  0  0
    4.7221   -1.2898   -3.0180 C   0  0  0  0  0  0  0  0  0  0  0  0
    5.2349   -0.0144   -3.2310 C   0  0  0  0  0  0  0  0  0  0  0  0
    4.2922    0.9653   -3.8695 C   0  0  0  0  0  0  0  0  0  0  0  0
    4.8398    2.0354   -4.8107 C   0  0  0  0  0  0  0  0  0  0  0  0
    5.6666    1.6025   -5.9959 C   0  0  0  0  0  0  0  0  0  0  0  0
    5.5075    0.3715   -6.6476 C   0  0  0  0  0  0  0  0  0  0  0  0
    6.1914    0.1077   -7.8391 C   0  0  0  0  0  0  0  0  0  0  0  0
    6.0744   -1.0471   -8.5675 O   0  0  0  0  0  0  0  0  0  0  0  0
    5.7685   -2.2216   -7.8214 C   0  0  0  0  0  0  0  0  0  0  0  0
    7.0035    1.0923   -8.4118 C   0  0  0  0  0  0  0  0  0  0  0  0
    7.1735    2.3188   -7.7748 C   0  0  0  0  0  0  0  0  0  0  0  0
    7.9051    3.3779   -8.2313 O   0  0  0  0  0  0  0  0  0  0  0  0
    8.3810    3.3061   -9.5671 C   0  0  0  0  0  0  0  0  0  0  0  0
    6.5304    2.5518   -6.5596 C   0  0  0  0  0  0  0  0  0  0  0  0
   11.7293    0.8397   -6.2563 H   0  0  0  0  0  0  0  0  0  0  0  0
   10.4158    1.8588   -6.8732 H   0  0  0  0  0  0  0  0  0  0  0  0
   10.0393    0.4376   -5.8889 H   0  0  0  0  0  0  0  0  0  0  0  0
   11.5227    2.9412   -4.9448 H   0  0  0  0  0  0  0  0  0  0  0  0
   11.2030    1.5091   -3.9283 H   0  0  0  0  0  0  0  0  0  0  0  0
    8.7641    1.9118   -4.4170 H   0  0  0  0  0  0  0  0  0  0  0  0
   11.0949    3.2680   -0.8906 H   0  0  0  0  0  0  0  0  0  0  0  0
   10.8606    1.9675    1.1956 H   0  0  0  0  0  0  0  0  0  0  0  0
    8.7885    0.6691    1.6056 H   0  0  0  0  0  0  0  0  0  0  0  0
    7.0677    0.5156   -0.1129 H   0  0  0  0  0  0  0  0  0  0  0  0
    6.4695    2.2025   -2.5878 H   0  0  0  0  0  0  0  0  0  0  0  0
    8.3450   -2.7015   -1.3423 H   0  0  0  0  0  0  0  0  0  0  0  0
    5.1419   -3.1671    0.0322 H   0  0  0  0  0  0  0  0  0  0  0  0
    4.5051   -4.9801    1.4909 H   0  0  0  0  0  0  0  0  0  0  0  0
    4.2136   -6.4814    3.1423 H   0  0  0  0  0  0  0  0  0  0  0  0
    5.7268   -5.6966    3.6465 H   0  0  0  0  0  0  0  0  0  0  0  0
    5.1006   -7.2262    5.3973 H   0  0  0  0  0  0  0  0  0  0  0  0
    6.5491   -7.7936    4.6205 H   0  0  0  0  0  0  0  0  0  0  0  0
    5.2914   -9.7175    4.8818 H   0  0  0  0  0  0  0  0  0  0  0  0
    1.6664   -8.4040    5.2698 H   0  0  0  0  0  0  0  0  0  0  0  0
    2.9916   -7.2971    5.2925 H   0  0  0  0  0  0  0  0  0  0  0  0
    2.6010   -8.2196    7.5308 H   0  0  0  0  0  0  0  0  0  0  0  0
    4.1904   -8.7544    6.9807 H   0  0  0  0  0  0  0  0  0  0  0  0
    2.8586  -10.0769    9.1390 H   0  0  0  0  0  0  0  0  0  0  0  0
    4.2789  -10.7898    8.3553 H   0  0  0  0  0  0  0  0  0  0  0  0
    2.7863  -11.7325    8.5486 H   0  0  0  0  0  0  0  0  0  0  0  0
    2.5932  -12.0760    6.0043 H   0  0  0  0  0  0  0  0  0  0  0  0
    4.2075  -11.3717    6.0581 H   0  0  0  0  0  0  0  0  0  0  0  0
    1.8560  -10.6051    4.2757 H   0  0  0  0  0  0  0  0  0  0  0  0
    3.4047  -11.2294    3.7817 H   0  0  0  0  0  0  0  0  0  0  0  0
    4.8179  -10.3622    2.3837 H   0  0  0  0  0  0  0  0  0  0  0  0
    6.4008   -9.7936    2.8589 H   0  0  0  0  0  0  0  0  0  0  0  0
    4.2824   -8.1908    1.3442 H   0  0  0  0  0  0  0  0  0  0  0  0
    5.8436   -8.7796    0.7572 H   0  0  0  0  0  0  0  0  0  0  0  0
   10.2252   -8.0356    0.5036 H   0  0  0  0  0  0  0  0  0  0  0  0
   10.0933   -6.2875    0.7341 H   0  0  0  0  0  0  0  0  0  0  0  0
    9.7829   -7.0389   -0.8781 H   0  0  0  0  0  0  0  0  0  0  0  0
    8.7204   -5.2127   -1.0559 H   0  0  0  0  0  0  0  0  0  0  0  0
    3.7062   -1.5463   -3.3055 H   0  0  0  0  0  0  0  0  0  0  0  0
    3.7273    1.4546   -3.0672 H   0  0  0  0  0  0  0  0  0  0  0  0
    3.5463    0.3980   -4.4432 H   0  0  0  0  0  0  0  0  0  0  0  0
    5.3904    2.7820   -4.2294 H   0  0  0  0  0  0  0  0  0  0  0  0
    3.9710    2.5660   -5.2252 H   0  0  0  0  0  0  0  0  0  0  0  0
    4.8133   -0.3590   -6.2511 H   0  0  0  0  0  0  0  0  0  0  0  0
    5.8132   -3.0733   -8.5072 H   0  0  0  0  0  0  0  0  0  0  0  0
    4.7540   -2.1882   -7.4128 H   0  0  0  0  0  0  0  0  0  0  0  0
    6.5079   -2.3854   -7.0302 H   0  0  0  0  0  0  0  0  0  0  0  0
    7.4856    0.8731   -9.3583 H   0  0  0  0  0  0  0  0  0  0  0  0
    8.7162    4.3080   -9.8528 H   0  0  0  0  0  0  0  0  0  0  0  0
    7.5939    3.0136  -10.2702 H   0  0  0  0  0  0  0  0  0  0  0  0
    9.2384    2.6297   -9.6276 H   0  0  0  0  0  0  0  0  0  0  0  0
    6.6734    3.5166   -6.0723 H   0  0  0  0  0  0  0  0  0  0  0  0
  1  2  1  0  0  0  0
  1 54  1  0  0  0  0
  1 55  1  0  0  0  0
  1 56  1  0  0  0  0
  2  3  1  0  0  0  0
  2 57  1  0  0  0  0
  2 58  1  0  0  0  0
  3  4  1  0  0  0  0
  3 59  1  0  0  0  0
  4  5  2  0  0  0  0
  4  6  2  0  0  0  0
  4  7  1  0  0  0  0
  7  8  1  0  0  0  0
  7 12  2  0  0  0  0
  8  9  2  0  0  0  0
  8 60  1  0  0  0  0
  9 10  1  0  0  0  0
  9 61  1  0  0  0  0
 10 11  2  0  0  0  0
 10 62  1  0  0  0  0
 11 12  1  0  0  0  0
 11 63  1  0  0  0  0
 12 13  1  0  0  0  0
 13 14  1  0  0  0  0
 13 64  1  0  0  0  0
 14 15  1  0  0  0  0
 14 41  2  0  0  0  0
 15 16  2  0  0  0  0
 16 17  1  0  0  0  0
 16 39  1  0  0  0  0
 17 18  1  0  0  0  0
 17 65  1  0  0  0  0
 18 19  1  0  0  0  0
 18 38  2  0  0  0  0
 19 20  2  0  0  0  0
 19 66  1  0  0  0  0
 20 21  1  0  0  0  0
 20 67  1  0  0  0  0
 21 22  1  0  0  0  0
 21 35  2  0  0  0  0
 22 23  1  0  0  0  0
 22 34  1  0  0  0  0
 23 24  1  0  0  0  0
 23 68  1  0  0  0  0
 23 69  1  0  0  0  0
 24 25  1  0  0  0  0
 24 70  1  0  0  0  0
 24 71  1  0  0  0  0
 25 26  1  0  0  0  0
 25 33  1  0  0  0  0
 25 72  1  0  0  0  0
 26 27  1  0  0  0  0
 26 32  1  0  0  0  0
 27 28  1  0  0  0  0
 27 73  1  0  0  0  0
 27 74  1  0  0  0  0
 28 29  1  0  0  0  0
 28 75  1  0  0  0  0
 28 76  1  0  0  0  0
 29 30  1  0  0  0  0
 29 31  1  0  0  0  0
 30 77  1  0  0  0  0
 30 78  1  0  0  0  0
 30 79  1  0  0  0  0
 31 32  1  0  0  0  0
 31 80  1  0  0  0  0
 31 81  1  0  0  0  0
 32 82  1  0  0  0  0
 32 83  1  0  0  0  0
 33 34  1  0  0  0  0
 33 84  1  0  0  0  0
 33 85  1  0  0  0  0
 34 86  1  0  0  0  0
 34 87  1  0  0  0  0
 35 36  1  0  0  0  0
 35 38  1  0  0  0  0
 36 37  1  0  0  0  0
 37 88  1  0  0  0  0
 37 89  1  0  0  0  0
 37 90  1  0  0  0  0
 38 91  1  0  0  0  0
 39 40  2  0  0  0  0
 40 41  1  0  0  0  0
 40 92  1  0  0  0  0
 41 42  1  0  0  0  0
 42 43  1  0  0  0  0
 42 93  1  0  0  0  0
 42 94  1  0  0  0  0
 43 44  1  0  0  0  0
 43 95  1  0  0  0  0
 43 96  1  0  0  0  0
 44 45  1  0  0  0  0
 44 53  2  0  0  0  0
 45 46  2  0  0  0  0
 45 97  1  0  0  0  0
 46 47  1  0  0  0  0
 46 49  1  0  0  0  0
 47 48  1  0  0  0  0
 48 98  1  0  0  0  0
 48 99  1  0  0  0  0
 48100  1  0  0  0  0
 49 50  2  0  0  0  0
 49101  1  0  0  0  0
 50 51  1  0  0  0  0
 50 53  1  0  0  0  0
 51 52  1  0  0  0  0
 52102  1  0  0  0  0
 52103  1  0  0  0  0
 52104  1  0  0  0  0
 53105  1  0  0  0  0
M  END
$$$$
