CHEMBL566844
 OpenBabel04072215383D

 63 67  0  0  0  0  0  0  0  0999 V2000
   11.7637    2.1988   -1.6347 C   0  0  0  0  0  0  0  0  0  0  0  0
   12.0935    1.6571   -0.2626 C   0  0  0  0  0  0  0  0  0  0  0  0
   10.8989    1.5603    0.5400 N   0  0  0  0  0  0  0  0  0  0  0  0
   10.0577    0.4908    0.6339 C   0  0  0  0  0  0  0  0  0  0  0  0
    9.1397    0.6491    1.5437 N   0  0  0  0  0  0  0  0  0  0  0  0
    9.4535    1.8567    2.0535 C   0  0  0  0  0  0  0  0  0  0  0  0
    8.6236    2.5269    2.9941 C   0  0  0  0  0  0  0  0  0  0  0  0
    7.4554    1.8957    3.3759 C   0  0  0  0  0  0  0  0  0  0  0  0
    6.9593    2.7252    4.3131 C   0  0  0  0  0  0  0  0  0  0  0  0
    5.8871    2.6592    4.9214 N   0  0  0  0  0  0  0  0  0  0  0  0
    4.8660    2.5766    5.4774 C   0  0  0  0  0  0  0  0  0  0  0  0
    5.3086    3.8167    5.8300 C   0  0  0  0  0  0  0  0  0  0  0  0
    6.7505    4.7089    5.4794 C   0  0  0  0  0  0  0  0  0  0  0  0
    6.9039    6.1353    5.2493 O   0  0  0  0  0  0  0  0  0  0  0  0
    6.1127    7.2550    5.7833 C   0  0  0  0  0  0  0  0  0  0  0  0
    5.4812    7.1579    7.0801 C   0  0  0  0  0  0  0  0  0  0  0  0
    5.7309    8.0951    8.1690 C   0  0  0  0  0  0  0  0  0  0  0  0
    6.3779    9.3044    7.9126 C   0  0  0  0  0  0  0  0  0  0  0  0
    6.7337   10.2791    8.9446 N   0  0  0  0  0  0  0  0  0  0  0  0
    6.4536   10.0832   10.3085 C   0  0  0  0  0  0  0  0  0  0  0  0
    5.8838    9.0668   10.7081 O   0  0  0  0  0  0  0  0  0  0  0  0
    6.9213   11.1021   11.3702 C   0  0  0  0  0  0  0  0  0  0  0  0
    7.6987   12.2978   10.7405 C   0  0  0  0  0  0  0  0  0  0  0  0
    7.4696   12.7016    9.5984 O   0  0  0  0  0  0  0  0  0  0  0  0
    8.6355   12.9423   11.5613 N   0  0  0  0  0  0  0  0  0  0  0  0
    9.3403   14.0938   11.0732 C   0  0  0  0  0  0  0  0  0  0  0  0
    8.5849   15.2191   10.6927 C   0  0  0  0  0  0  0  0  0  0  0  0
    9.2093   16.4542   10.4737 C   0  0  0  0  0  0  0  0  0  0  0  0
   10.5793   16.5043   10.2672 C   0  0  0  0  0  0  0  0  0  0  0  0
   11.3330   15.3487   10.4654 C   0  0  0  0  0  0  0  0  0  0  0  0
   10.7468   14.1656   10.9665 C   0  0  0  0  0  0  0  0  0  0  0  0
   11.6875   13.1945   11.2148 O   0  0  0  0  0  0  0  0  0  0  0  0
   11.3476   11.8356   11.0113 C   0  0  0  0  0  0  0  0  0  0  0  0
    6.6783    9.5085    6.5524 C   0  0  0  0  0  0  0  0  0  0  0  0
    6.5759    8.5301    5.5268 C   0  0  0  0  0  0  0  0  0  0  0  0
    7.0007    8.8699    4.3064 F   0  0  0  0  0  0  0  0  0  0  0  0
    7.5507    3.9275    4.6224 C   0  0  0  0  0  0  0  0  0  0  0  0
    8.9764    4.0311    3.7276 S   0  0  0  0  0  0  0  0  0  0  0  0
   10.4856    2.4923    1.4323 C   0  0  0  0  0  0  0  0  0  0  0  0
   12.6624    2.2608   -2.2438 H   0  0  0  0  0  0  0  0  0  0  0  0
   11.3314    3.2025   -1.5635 H   0  0  0  0  0  0  0  0  0  0  0  0
   11.0273    1.5569   -2.1348 H   0  0  0  0  0  0  0  0  0  0  0  0
   12.7961    2.2917    0.2823 H   0  0  0  0  0  0  0  0  0  0  0  0
   12.5110    0.6486   -0.3427 H   0  0  0  0  0  0  0  0  0  0  0  0
   10.1229   -0.3675   -0.0029 H   0  0  0  0  0  0  0  0  0  0  0  0
    7.0927    0.9337    2.9960 H   0  0  0  0  0  0  0  0  0  0  0  0
    4.7137    1.5599    4.9844 H   0  0  0  0  0  0  0  0  0  0  0  0
    4.5610    4.1426    6.5704 H   0  0  0  0  0  0  0  0  0  0  0  0
    4.5937    6.5224    7.2388 H   0  0  0  0  0  0  0  0  0  0  0  0
    5.4505    7.8063    9.1890 H   0  0  0  0  0  0  0  0  0  0  0  0
    7.2224   11.1265    8.6548 H   0  0  0  0  0  0  0  0  0  0  0  0
    7.5878   10.6311   12.0966 H   0  0  0  0  0  0  0  0  0  0  0  0
    6.0183   11.4718   11.8791 H   0  0  0  0  0  0  0  0  0  0  0  0
    9.1155   12.3713   12.2434 H   0  0  0  0  0  0  0  0  0  0  0  0
    7.5021   15.1790   10.6277 H   0  0  0  0  0  0  0  0  0  0  0  0
    8.6303   17.3762   10.4775 H   0  0  0  0  0  0  0  0  0  0  0  0
   11.0561   17.4305    9.9514 H   0  0  0  0  0  0  0  0  0  0  0  0
   12.3998   15.3763   10.2495 H   0  0  0  0  0  0  0  0  0  0  0  0
   12.2004   11.1857   11.2123 H   0  0  0  0  0  0  0  0  0  0  0  0
   10.9954   11.6558    9.9897 H   0  0  0  0  0  0  0  0  0  0  0  0
   10.6482   11.5057   11.7642 H   0  0  0  0  0  0  0  0  0  0  0  0
    7.1256   10.4217    6.1991 H   0  0  0  0  0  0  0  0  0  0  0  0
   10.9331    3.4586    1.5772 H   0  0  0  0  0  0  0  0  0  0  0  0
  1  2  1  0  0  0  0
  1 40  1  0  0  0  0
  1 41  1  0  0  0  0
  1 42  1  0  0  0  0
  2  3  1  0  0  0  0
  2 43  1  0  0  0  0
  2 44  1  0  0  0  0
  3  4  1  0  0  0  0
  3 39  1  0  0  0  0
  4  5  2  0  0  0  0
  4 45  1  0  0  0  0
  5  6  1  0  0  0  0
  6  7  1  0  0  0  0
  6 39  2  0  0  0  0
  7  8  2  0  0  0  0
  7 38  1  0  0  0  0
  8  9  1  0  0  0  0
  8 46  1  0  0  0  0
  9 10  1  0  0  0  0
  9 37  2  0  0  0  0
 10 11  2  0  0  0  0
 11 12  1  0  0  0  0
 11 47  1  0  0  0  0
 12 13  2  0  0  0  0
 12 48  1  0  0  0  0
 13 14  1  0  0  0  0
 13 37  1  0  0  0  0
 14 15  1  0  0  0  0
 15 16  1  0  0  0  0
 15 35  2  0  0  0  0
 16 17  2  0  0  0  0
 16 49  1  0  0  0  0
 17 18  1  0  0  0  0
 17 50  1  0  0  0  0
 18 19  1  0  0  0  0
 18 34  2  0  0  0  0
 19 20  1  0  0  0  0
 19 51  1  0  0  0  0
 20 21  2  0  0  0  0
 20 22  1  0  0  0  0
 22 23  1  0  0  0  0
 22 52  1  0  0  0  0
 22 53  1  0  0  0  0
 23 24  2  0  0  0  0
 23 25  1  0  0  0  0
 25 26  1  0  0  0  0
 25 54  1  0  0  0  0
 26 27  1  0  0  0  0
 26 31  2  0  0  0  0
 27 28  2  0  0  0  0
 27 55  1  0  0  0  0
 28 29  1  0  0  0  0
 28 56  1  0  0  0  0
 29 30  2  0  0  0  0
 29 57  1  0  0  0  0
 30 31  1  0  0  0  0
 30 58  1  0  0  0  0
 31 32  1  0  0  0  0
 32 33  1  0  0  0  0
 33 59  1  0  0  0  0
 33 60  1  0  0  0  0
 33 61  1  0  0  0  0
 34 35  1  0  0  0  0
 34 62  1  0  0  0  0
 35 36  1  0  0  0  0
 37 38  1  0  0  0  0
 39 63  1  0  0  0  0
M  END
$$$$
