CHEMBL3775903
 OpenBabel04072215373D

 37 39  0  0  0  0  0  0  0  0999 V2000
    3.4219   -0.9128    0.7648 C   0  0  0  0  0  0  0  0  0  0  0  0
    2.5675    0.0566    0.1492 O   0  0  0  0  0  0  0  0  0  0  0  0
    3.1996    0.9559   -0.6687 C   0  0  0  0  0  0  0  0  0  0  0  0
    4.3164    0.5739   -1.4351 C   0  0  0  0  0  0  0  0  0  0  0  0
    5.0705    1.4850   -2.1570 C   0  0  0  0  0  0  0  0  0  0  0  0
    6.1646    1.0535   -2.7893 N   0  0  0  0  0  0  0  0  0  0  0  0
    6.8906    1.9774   -3.4260 C   0  0  0  0  0  0  0  0  0  0  0  0
    6.6204    3.2840   -3.4838 N   0  0  0  0  0  0  0  0  0  0  0  0
    5.5120    3.7054   -2.8462 C   0  0  0  0  0  0  0  0  0  0  0  0
    5.2240    5.0984   -2.8156 N   0  0  0  0  0  0  0  0  0  0  0  0
    5.8869    6.0495   -3.6283 C   0  0  0  0  0  0  0  0  0  0  0  0
    6.0144    5.8393   -5.0071 C   0  0  0  0  0  0  0  0  0  0  0  0
    6.7169    6.7403   -5.8066 C   0  0  0  0  0  0  0  0  0  0  0  0
    7.2950    7.8758   -5.2395 C   0  0  0  0  0  0  0  0  0  0  0  0
    7.1433    8.1152   -3.8746 C   0  0  0  0  0  0  0  0  0  0  0  0
    7.6956    9.2265   -3.3008 O   0  0  0  0  0  0  0  0  0  0  0  0
    6.4326    7.2159   -3.0779 C   0  0  0  0  0  0  0  0  0  0  0  0
    6.2955    7.4429   -1.7598 F   0  0  0  0  0  0  0  0  0  0  0  0
    4.6650    2.8179   -2.1730 C   0  0  0  0  0  0  0  0  0  0  0  0
    3.4646    3.1843   -1.5227 C   0  0  0  0  0  0  0  0  0  0  0  0
    2.7305    2.2693   -0.7624 C   0  0  0  0  0  0  0  0  0  0  0  0
    1.6398    2.8566   -0.1899 O   0  0  0  0  0  0  0  0  0  0  0  0
    0.8539    2.1329    0.7390 C   0  0  0  0  0  0  0  0  0  0  0  0
    3.0836   -1.0607    1.7943 H   0  0  0  0  0  0  0  0  0  0  0  0
    4.4745   -0.6077    0.8195 H   0  0  0  0  0  0  0  0  0  0  0  0
    3.3347   -1.8636    0.2301 H   0  0  0  0  0  0  0  0  0  0  0  0
    4.6403   -0.4642   -1.4573 H   0  0  0  0  0  0  0  0  0  0  0  0
    7.7872    1.6431   -3.9321 H   0  0  0  0  0  0  0  0  0  0  0  0
    5.2112    5.4103   -1.8448 H   0  0  0  0  0  0  0  0  0  0  0  0
    5.5760    4.9519   -5.4583 H   0  0  0  0  0  0  0  0  0  0  0  0
    6.8214    6.5419   -6.8699 H   0  0  0  0  0  0  0  0  0  0  0  0
    7.8526    8.5560   -5.8746 H   0  0  0  0  0  0  0  0  0  0  0  0
    8.1990    9.7114   -3.9749 H   0  0  0  0  0  0  0  0  0  0  0  0
    3.0973    4.2070   -1.5962 H   0  0  0  0  0  0  0  0  0  0  0  0
    0.1684    2.8505    1.2031 H   0  0  0  0  0  0  0  0  0  0  0  0
    1.4590    1.7118    1.5456 H   0  0  0  0  0  0  0  0  0  0  0  0
    0.2489    1.3738    0.2351 H   0  0  0  0  0  0  0  0  0  0  0  0
  1  2  1  0  0  0  0
  1 24  1  0  0  0  0
  1 25  1  0  0  0  0
  1 26  1  0  0  0  0
  2  3  1  0  0  0  0
  3  4  1  0  0  0  0
  3 21  2  0  0  0  0
  4  5  2  0  0  0  0
  4 27  1  0  0  0  0
  5  6  1  0  0  0  0
  5 19  1  0  0  0  0
  6  7  2  0  0  0  0
  7  8  1  0  0  0  0
  7 28  1  0  0  0  0
  8  9  2  0  0  0  0
  9 10  1  0  0  0  0
  9 19  1  0  0  0  0
 10 11  1  0  0  0  0
 10 29  1  0  0  0  0
 11 12  1  0  0  0  0
 11 17  2  0  0  0  0
 12 13  2  0  0  0  0
 12 30  1  0  0  0  0
 13 14  1  0  0  0  0
 13 31  1  0  0  0  0
 14 15  2  0  0  0  0
 14 32  1  0  0  0  0
 15 16  1  0  0  0  0
 15 17  1  0  0  0  0
 16 33  1  0  0  0  0
 17 18  1  0  0  0  0
 19 20  2  0  0  0  0
 20 21  1  0  0  0  0
 20 34  1  0  0  0  0
 21 22  1  0  0  0  0
 22 23  1  0  0  0  0
 23 35  1  0  0  0  0
 23 36  1  0  0  0  0
 23 37  1  0  0  0  0
M  END
$$$$
