CHEMBL4214476
 OpenBabel04072215383D

 53 57  0  0  0  0  0  0  0  0999 V2000
    1.3295   -0.0533   -0.4066 C   0  0  0  0  0  0  0  0  0  0  0  0
    2.7393   -0.0822   -0.0813 N   0  0  0  0  0  0  0  0  0  0  0  0
    3.3187   -1.3427   -0.1744 C   0  0  0  0  0  0  0  0  0  0  0  0
    2.8087   -2.2126   -1.0670 N   0  0  0  0  0  0  0  0  0  0  0  0
    3.3625   -3.4323   -1.1906 C   0  0  0  0  0  0  0  0  0  0  0  0
    4.4583   -3.7658   -0.4121 C   0  0  0  0  0  0  0  0  0  0  0  0
    5.3507   -4.8619   -0.2643 C   0  0  0  0  0  0  0  0  0  0  0  0
    5.3777   -6.0806   -1.0628 C   0  0  0  0  0  0  0  0  0  0  0  0
    5.0049   -6.0758   -2.4037 C   0  0  0  0  0  0  0  0  0  0  0  0
    5.0000   -7.2651   -3.1265 C   0  0  0  0  0  0  0  0  0  0  0  0
    5.3792   -8.4603   -2.5228 C   0  0  0  0  0  0  0  0  0  0  0  0
    5.3715   -9.6376   -3.2253 N   0  0  0  0  0  0  0  0  0  0  0  0
    5.6217   -9.7311   -4.6613 C   0  0  0  0  0  0  0  0  0  0  0  0
    4.4708  -10.5064   -5.3354 C   0  0  0  0  0  0  0  0  0  0  0  0
    4.2295  -11.8350   -4.7305 N   0  0  0  0  0  0  0  0  0  0  0  0
    4.0012  -11.6682   -3.2736 C   0  0  0  0  0  0  0  0  0  0  0  0
    5.1332  -10.9052   -2.5366 C   0  0  0  0  0  0  0  0  0  0  0  0
    5.7402   -8.4762   -1.2202 N   0  0  0  0  0  0  0  0  0  0  0  0
    5.7531   -7.3027   -0.5304 C   0  0  0  0  0  0  0  0  0  0  0  0
    6.2259   -4.6370    0.7324 N   0  0  0  0  0  0  0  0  0  0  0  0
    5.9251   -3.3847    1.1636 N   0  0  0  0  0  0  0  0  0  0  0  0
    6.7616   -2.7591    2.1679 C   0  0  0  0  0  0  0  0  0  0  0  0
    6.2962   -3.0327    3.5919 C   0  0  0  0  0  0  0  0  0  0  0  0
    5.0157   -2.4465    3.8739 O   0  0  0  0  0  0  0  0  0  0  0  0
    5.2255   -1.5463    4.9612 C   0  0  0  0  0  0  0  0  0  0  0  0
    6.4873   -2.0346    5.6169 C   0  0  0  0  0  0  0  0  0  0  0  0
    7.2666   -2.4994    4.5175 O   0  0  0  0  0  0  0  0  0  0  0  0
    4.8785   -2.8133    0.4929 C   0  0  0  0  0  0  0  0  0  0  0  0
    4.3528   -1.5830    0.6519 N   0  0  0  0  0  0  0  0  0  0  0  0
    0.9498    0.9667   -0.2950 H   0  0  0  0  0  0  0  0  0  0  0  0
    0.7499   -0.7021    0.2576 H   0  0  0  0  0  0  0  0  0  0  0  0
    1.1424   -0.3481   -1.4493 H   0  0  0  0  0  0  0  0  0  0  0  0
    2.9906    0.2837    0.8306 H   0  0  0  0  0  0  0  0  0  0  0  0
    2.9045   -4.0906   -1.9182 H   0  0  0  0  0  0  0  0  0  0  0  0
    4.7199   -5.1651   -2.9201 H   0  0  0  0  0  0  0  0  0  0  0  0
    4.6558   -7.2408   -4.1537 H   0  0  0  0  0  0  0  0  0  0  0  0
    6.5676  -10.2648   -4.8189 H   0  0  0  0  0  0  0  0  0  0  0  0
    5.7424   -8.7598   -5.1507 H   0  0  0  0  0  0  0  0  0  0  0  0
    4.7017  -10.6385   -6.3979 H   0  0  0  0  0  0  0  0  0  0  0  0
    3.5478   -9.9138   -5.2837 H   0  0  0  0  0  0  0  0  0  0  0  0
    5.0754  -12.3893   -4.8467 H   0  0  0  0  0  0  0  0  0  0  0  0
    3.8809  -12.6604   -2.8260 H   0  0  0  0  0  0  0  0  0  0  0  0
    3.0510  -11.1381   -3.1281 H   0  0  0  0  0  0  0  0  0  0  0  0
    6.0527  -11.5028   -2.5455 H   0  0  0  0  0  0  0  0  0  0  0  0
    4.8325  -10.7757   -1.4904 H   0  0  0  0  0  0  0  0  0  0  0  0
    6.0770   -7.3884    0.5038 H   0  0  0  0  0  0  0  0  0  0  0  0
    6.7935   -1.6839    1.9607 H   0  0  0  0  0  0  0  0  0  0  0  0
    7.7824   -3.1349    2.0270 H   0  0  0  0  0  0  0  0  0  0  0  0
    6.2140   -4.1101    3.7773 H   0  0  0  0  0  0  0  0  0  0  0  0
    4.3640   -1.5491    5.6338 H   0  0  0  0  0  0  0  0  0  0  0  0
    5.3529   -0.5402    4.5479 H   0  0  0  0  0  0  0  0  0  0  0  0
    6.2970   -2.8780    6.2896 H   0  0  0  0  0  0  0  0  0  0  0  0
    7.0170   -1.2506    6.1663 H   0  0  0  0  0  0  0  0  0  0  0  0
  1  2  1  0  0  0  0
  1 30  1  0  0  0  0
  1 31  1  0  0  0  0
  1 32  1  0  0  0  0
  2  3  1  0  0  0  0
  2 33  1  0  0  0  0
  3  4  1  0  0  0  0
  3 29  2  0  0  0  0
  4  5  2  0  0  0  0
  5  6  1  0  0  0  0
  5 34  1  0  0  0  0
  6  7  1  0  0  0  0
  6 28  2  0  0  0  0
  7  8  1  0  0  0  0
  7 20  2  0  0  0  0
  8  9  1  0  0  0  0
  8 19  2  0  0  0  0
  9 10  2  0  0  0  0
  9 35  1  0  0  0  0
 10 11  1  0  0  0  0
 10 36  1  0  0  0  0
 11 12  1  0  0  0  0
 11 18  2  0  0  0  0
 12 13  1  0  0  0  0
 12 17  1  0  0  0  0
 13 14  1  0  0  0  0
 13 37  1  0  0  0  0
 13 38  1  0  0  0  0
 14 15  1  0  0  0  0
 14 39  1  0  0  0  0
 14 40  1  0  0  0  0
 15 16  1  0  0  0  0
 15 41  1  0  0  0  0
 16 17  1  0  0  0  0
 16 42  1  0  0  0  0
 16 43  1  0  0  0  0
 17 44  1  0  0  0  0
 17 45  1  0  0  0  0
 18 19  1  0  0  0  0
 19 46  1  0  0  0  0
 20 21  1  0  0  0  0
 21 22  1  0  0  0  0
 21 28  1  0  0  0  0
 22 23  1  0  0  0  0
 22 47  1  0  0  0  0
 22 48  1  0  0  0  0
 23 24  1  0  0  0  0
 23 27  1  0  0  0  0
 23 49  1  0  0  0  0
 24 25  1  0  0  0  0
 25 26  1  0  0  0  0
 25 50  1  0  0  0  0
 25 51  1  0  0  0  0
 26 27  1  0  0  0  0
 26 52  1  0  0  0  0
 26 53  1  0  0  0  0
 28 29  1  0  0  0  0
M  END
$$$$
