CHEMBL150177
 OpenBabel04072215363D

 46 48  0  0  0  0  0  0  0  0999 V2000
    2.5107    0.4394    0.0128 C   0  0  0  0  0  0  0  0  0  0  0  0
    1.0563    0.1256    0.0317 C   0  0  0  0  0  0  0  0  0  0  0  0
    0.6164   -1.1753    0.0181 N   0  0  0  0  0  0  0  0  0  0  0  0
   -0.7539   -1.2191    0.0243 C   0  0  0  0  0  0  0  0  0  0  0  0
   -1.3791   -2.4925    0.0297 C   0  0  0  0  0  0  0  0  0  0  0  0
   -1.7178   -3.1490   -1.0905 C   0  0  0  0  0  0  0  0  0  0  0  0
   -1.5005   -2.6762   -2.5107 C   0  0  0  0  0  0  0  0  0  0  0  0
   -1.0171   -1.6388   -2.9115 O   0  0  0  0  0  0  0  0  0  0  0  0
   -1.9771   -3.7028   -3.3100 N   0  0  0  0  0  0  0  0  0  0  0  0
   -2.4627   -4.7568   -2.5510 C   0  0  0  0  0  0  0  0  0  0  0  0
   -2.9993   -5.9269   -3.0518 C   0  0  0  0  0  0  0  0  0  0  0  0
   -3.4667   -6.8572   -2.1295 C   0  0  0  0  0  0  0  0  0  0  0  0
   -3.3975   -6.5774   -0.7493 C   0  0  0  0  0  0  0  0  0  0  0  0
   -4.1311   -7.7356    0.3718 S   0  0  0  0  0  0  0  0  0  0  0  0
   -5.7093   -7.1711    0.3924 N   0  0  0  0  0  0  0  0  0  0  0  0
   -4.1726   -9.0380   -0.2459 O   0  0  0  0  0  0  0  0  0  0  0  0
   -3.5995   -7.5139    1.6962 O   0  0  0  0  0  0  0  0  0  0  0  0
   -2.8185   -5.3936   -0.2550 C   0  0  0  0  0  0  0  0  0  0  0  0
   -2.3498   -4.4795   -1.1819 C   0  0  0  0  0  0  0  0  0  0  0  0
   -1.2152    0.0889    0.0097 C   0  0  0  0  0  0  0  0  0  0  0  0
   -2.6410    0.5146   -0.0456 C   0  0  0  0  0  0  0  0  0  0  0  0
   -0.0585    0.9530    0.0210 C   0  0  0  0  0  0  0  0  0  0  0  0
   -0.0478    2.4607   -0.0266 C   0  0  0  0  0  0  0  0  0  0  0  0
   -0.6808    3.0989    1.2067 C   0  0  0  0  0  0  0  0  0  0  0  0
   -0.6676    4.6047    1.1423 C   0  0  0  0  0  0  0  0  0  0  0  0
   -0.1768    5.2779    0.2516 O   0  0  0  0  0  0  0  0  0  0  0  0
   -1.2871    5.1629    2.2117 O   0  0  0  0  0  0  0  0  0  0  0  0
    3.1192   -0.4715    0.0037 H   0  0  0  0  0  0  0  0  0  0  0  0
    2.7874    1.0183    0.8993 H   0  0  0  0  0  0  0  0  0  0  0  0
    2.7686    1.0220   -0.8774 H   0  0  0  0  0  0  0  0  0  0  0  0
    1.2193   -1.9852   -0.0255 H   0  0  0  0  0  0  0  0  0  0  0  0
   -1.5788   -2.9295    1.0045 H   0  0  0  0  0  0  0  0  0  0  0  0
   -1.9633   -3.6483   -4.3158 H   0  0  0  0  0  0  0  0  0  0  0  0
   -3.0677   -6.1148   -4.1173 H   0  0  0  0  0  0  0  0  0  0  0  0
   -3.9088   -7.7876   -2.4830 H   0  0  0  0  0  0  0  0  0  0  0  0
   -6.3446   -7.8642   -0.0020 H   0  0  0  0  0  0  0  0  0  0  0  0
   -5.9621   -6.8449    1.3250 H   0  0  0  0  0  0  0  0  0  0  0  0
   -2.7693   -5.1995    0.8123 H   0  0  0  0  0  0  0  0  0  0  0  0
   -3.3181   -0.3420   -0.1125 H   0  0  0  0  0  0  0  0  0  0  0  0
   -2.8169    1.1538   -0.9164 H   0  0  0  0  0  0  0  0  0  0  0  0
   -2.9131    1.0674    0.8573 H   0  0  0  0  0  0  0  0  0  0  0  0
   -0.5673    2.7913   -0.9351 H   0  0  0  0  0  0  0  0  0  0  0  0
    0.9847    2.8214   -0.1249 H   0  0  0  0  0  0  0  0  0  0  0  0
   -0.1471    2.7852    2.1104 H   0  0  0  0  0  0  0  0  0  0  0  0
   -1.7273    2.7975    1.2954 H   0  0  0  0  0  0  0  0  0  0  0  0
   -1.6382    4.5081    2.8452 H   0  0  0  0  0  0  0  0  0  0  0  0
  1  2  1  0  0  0  0
  1 28  1  0  0  0  0
  1 29  1  0  0  0  0
  1 30  1  0  0  0  0
  2  3  1  0  0  0  0
  2 22  2  0  0  0  0
  3  4  1  0  0  0  0
  3 31  1  0  0  0  0
  4  5  1  0  0  0  0
  4 20  2  0  0  0  0
  5  6  2  0  0  0  0
  5 32  1  0  0  0  0
  6  7  1  0  0  0  0
  6 19  1  0  0  0  0
  7  8  2  0  0  0  0
  7  9  1  0  0  0  0
  9 10  1  0  0  0  0
  9 33  1  0  0  0  0
 10 11  1  0  0  0  0
 10 19  2  0  0  0  0
 11 12  2  0  0  0  0
 11 34  1  0  0  0  0
 12 13  1  0  0  0  0
 12 35  1  0  0  0  0
 13 14  1  0  0  0  0
 13 18  2  0  0  0  0
 14 15  1  0  0  0  0
 14 16  2  0  0  0  0
 14 17  2  0  0  0  0
 15 36  1  0  0  0  0
 15 37  1  0  0  0  0
 18 19  1  0  0  0  0
 18 38  1  0  0  0  0
 20 21  1  0  0  0  0
 20 22  1  0  0  0  0
 21 39  1  0  0  0  0
 21 40  1  0  0  0  0
 21 41  1  0  0  0  0
 22 23  1  0  0  0  0
 23 24  1  0  0  0  0
 23 42  1  0  0  0  0
 23 43  1  0  0  0  0
 24 25  1  0  0  0  0
 24 44  1  0  0  0  0
 24 45  1  0  0  0  0
 25 26  2  0  0  0  0
 25 27  1  0  0  0  0
 27 46  1  0  0  0  0
M  END
$$$$
