CHEMBL291759
 OpenBabel04072215363D

 79 83  0  0  0  0  0  0  0  0999 V2000
    0.2535    4.5340    0.3988 C   0  0  0  0  0  0  0  0  0  0  0  0
    1.0481    4.0108   -0.7842 C   0  0  0  0  0  0  0  0  0  0  0  0
    1.8576    2.9213   -0.3245 O   0  0  0  0  0  0  0  0  0  0  0  0
    3.0649    3.2796    0.2137 C   0  0  0  0  0  0  0  0  0  0  0  0
    3.5793    4.3812    0.0828 O   0  0  0  0  0  0  0  0  0  0  0  0
    3.5820    2.0979    1.0373 C   0  0  0  0  0  0  0  0  0  0  0  0
    4.8458    2.3753    1.7593 N   0  0  0  0  0  0  0  0  0  0  0  0
    5.9756    2.6219    0.8370 C   0  0  0  0  0  0  0  0  0  0  0  0
    6.4161    1.3679    0.0553 C   0  0  0  0  0  0  0  0  0  0  0  0
    6.8438    0.2653    0.9320 N   0  0  0  0  0  0  0  0  0  0  0  0
    8.1079    0.5649    1.6431 C   0  0  0  0  0  0  0  0  0  0  0  0
    9.2716    0.8865    0.6825 C   0  0  0  0  0  0  0  0  0  0  0  0
   10.6339    0.9657    1.3706 C   0  0  0  0  0  0  0  0  0  0  0  0
   11.0164   -0.2296    2.1904 C   0  0  0  0  0  0  0  0  0  0  0  0
   11.7714   -0.1952    3.3639 C   0  0  0  0  0  0  0  0  0  0  0  0
   12.4701    0.8229    4.0768 C   0  0  0  0  0  0  0  0  0  0  0  0
   11.8923    1.6566    4.9555 C   0  0  0  0  0  0  0  0  0  0  0  0
   10.4240    1.6726    5.3260 C   0  0  0  0  0  0  0  0  0  0  0  0
    9.5012    1.0248    4.8756 O   0  0  0  0  0  0  0  0  0  0  0  0
   10.3193    2.6204    6.3281 N   0  0  0  0  0  0  0  0  0  0  0  0
   11.5386    3.2197    6.6042 C   0  0  0  0  0  0  0  0  0  0  0  0
   11.7544    4.2011    7.5539 C   0  0  0  0  0  0  0  0  0  0  0  0
   13.0515    4.6861    7.6916 C   0  0  0  0  0  0  0  0  0  0  0  0
   14.0844    4.1861    6.8709 C   0  0  0  0  0  0  0  0  0  0  0  0
   15.7217    4.8286    7.1351 S   0  0  0  0  0  0  0  0  0  0  0  0
   15.9807    4.7619    8.5604 O   0  0  0  0  0  0  0  0  0  0  0  0
   16.6118    4.2308    6.1672 O   0  0  0  0  0  0  0  0  0  0  0  0
   15.5530    6.4626    6.7662 N   0  0  0  0  0  0  0  0  0  0  0  0
   15.7274    6.8769    5.3774 C   0  0  0  0  0  0  0  0  0  0  0  0
   13.8483    3.1786    5.9107 C   0  0  0  0  0  0  0  0  0  0  0  0
   12.5528    2.6914    5.7847 C   0  0  0  0  0  0  0  0  0  0  0  0
   11.7930   -1.4710    3.8808 N   0  0  0  0  0  0  0  0  0  0  0  0
   11.1374   -2.3228    3.0368 C   0  0  0  0  0  0  0  0  0  0  0  0
   10.6804   -1.6064    1.9511 C   0  0  0  0  0  0  0  0  0  0  0  0
    9.9525   -2.2779    0.8203 C   0  0  0  0  0  0  0  0  0  0  0  0
    9.4731   -3.6907    1.1891 C   0  0  0  0  0  0  0  0  0  0  0  0
   10.5396   -4.4733    1.9638 C   0  0  0  0  0  0  0  0  0  0  0  0
   10.9097   -3.7734    3.2837 C   0  0  0  0  0  0  0  0  0  0  0  0
    5.7624   -0.0180    1.9066 C   0  0  0  0  0  0  0  0  0  0  0  0
    5.1967    1.2309    2.6379 C   0  0  0  0  0  0  0  0  0  0  0  0
   -0.4417    5.3195    0.0948 H   0  0  0  0  0  0  0  0  0  0  0  0
    0.9220    4.9332    1.1694 H   0  0  0  0  0  0  0  0  0  0  0  0
   -0.3097    3.7189    0.8668 H   0  0  0  0  0  0  0  0  0  0  0  0
    1.6445    4.8012   -1.2540 H   0  0  0  0  0  0  0  0  0  0  0  0
    0.3698    3.6160   -1.5468 H   0  0  0  0  0  0  0  0  0  0  0  0
    3.6525    1.2228    0.3841 H   0  0  0  0  0  0  0  0  0  0  0  0
    2.8026    1.9066    1.7857 H   0  0  0  0  0  0  0  0  0  0  0  0
    6.8172    3.0047    1.4291 H   0  0  0  0  0  0  0  0  0  0  0  0
    5.7604    3.4268    0.1301 H   0  0  0  0  0  0  0  0  0  0  0  0
    7.1944    1.6297   -0.6674 H   0  0  0  0  0  0  0  0  0  0  0  0
    5.5923    1.0081   -0.5733 H   0  0  0  0  0  0  0  0  0  0  0  0
    8.3450   -0.3154    2.2482 H   0  0  0  0  0  0  0  0  0  0  0  0
    8.0015    1.3915    2.3532 H   0  0  0  0  0  0  0  0  0  0  0  0
    9.0999    1.8574    0.2043 H   0  0  0  0  0  0  0  0  0  0  0  0
    9.3122    0.1665   -0.1417 H   0  0  0  0  0  0  0  0  0  0  0  0
   10.6286    1.8577    2.0097 H   0  0  0  0  0  0  0  0  0  0  0  0
   11.4060    1.1325    0.6099 H   0  0  0  0  0  0  0  0  0  0  0  0
   13.5415    0.8887    3.8906 H   0  0  0  0  0  0  0  0  0  0  0  0
    9.4377    2.8367    6.7683 H   0  0  0  0  0  0  0  0  0  0  0  0
   10.9508    4.5738    8.1786 H   0  0  0  0  0  0  0  0  0  0  0  0
   13.2662    5.4457    8.4420 H   0  0  0  0  0  0  0  0  0  0  0  0
   15.9572    7.0604    7.4877 H   0  0  0  0  0  0  0  0  0  0  0  0
   15.0894    6.2953    4.7075 H   0  0  0  0  0  0  0  0  0  0  0  0
   16.7751    6.7804    5.0798 H   0  0  0  0  0  0  0  0  0  0  0  0
   15.4506    7.9313    5.2809 H   0  0  0  0  0  0  0  0  0  0  0  0
   14.6597    2.7936    5.2995 H   0  0  0  0  0  0  0  0  0  0  0  0
   12.2101   -1.7325    4.7627 H   0  0  0  0  0  0  0  0  0  0  0  0
   10.6252   -2.3292   -0.0439 H   0  0  0  0  0  0  0  0  0  0  0  0
    9.0644   -1.7302    0.5093 H   0  0  0  0  0  0  0  0  0  0  0  0
    9.1946   -4.2275    0.2744 H   0  0  0  0  0  0  0  0  0  0  0  0
    8.5631   -3.6172    1.7998 H   0  0  0  0  0  0  0  0  0  0  0  0
   11.4330   -4.5679    1.3337 H   0  0  0  0  0  0  0  0  0  0  0  0
   10.1786   -5.4868    2.1691 H   0  0  0  0  0  0  0  0  0  0  0  0
   11.7951   -4.2438    3.7203 H   0  0  0  0  0  0  0  0  0  0  0  0
   10.0812   -3.8855    3.9949 H   0  0  0  0  0  0  0  0  0  0  0  0
    6.0964   -0.7569    2.6467 H   0  0  0  0  0  0  0  0  0  0  0  0
    4.9430   -0.5089    1.3649 H   0  0  0  0  0  0  0  0  0  0  0  0
    5.9401    1.5812    3.3651 H   0  0  0  0  0  0  0  0  0  0  0  0
    4.3268    0.9367    3.2394 H   0  0  0  0  0  0  0  0  0  0  0  0
  1  2  1  0  0  0  0
  1 41  1  0  0  0  0
  1 42  1  0  0  0  0
  1 43  1  0  0  0  0
  2  3  1  0  0  0  0
  2 44  1  0  0  0  0
  2 45  1  0  0  0  0
  3  4  1  0  0  0  0
  4  5  2  0  0  0  0
  4  6  1  0  0  0  0
  6  7  1  0  0  0  0
  6 46  1  0  0  0  0
  6 47  1  0  0  0  0
  7  8  1  0  0  0  0
  7 40  1  0  0  0  0
  8  9  1  0  0  0  0
  8 48  1  0  0  0  0
  8 49  1  0  0  0  0
  9 10  1  0  0  0  0
  9 50  1  0  0  0  0
  9 51  1  0  0  0  0
 10 11  1  0  0  0  0
 10 39  1  0  0  0  0
 11 12  1  0  0  0  0
 11 52  1  0  0  0  0
 11 53  1  0  0  0  0
 12 13  1  0  0  0  0
 12 54  1  0  0  0  0
 12 55  1  0  0  0  0
 13 14  1  0  0  0  0
 13 56  1  0  0  0  0
 13 57  1  0  0  0  0
 14 15  2  0  0  0  0
 14 34  1  0  0  0  0
 15 16  1  0  0  0  0
 15 32  1  0  0  0  0
 16 17  2  0  0  0  0
 16 58  1  0  0  0  0
 17 18  1  0  0  0  0
 17 31  1  0  0  0  0
 18 19  2  0  0  0  0
 18 20  1  0  0  0  0
 20 21  1  0  0  0  0
 20 59  1  0  0  0  0
 21 22  1  0  0  0  0
 21 31  2  0  0  0  0
 22 23  2  0  0  0  0
 22 60  1  0  0  0  0
 23 24  1  0  0  0  0
 23 61  1  0  0  0  0
 24 25  1  0  0  0  0
 24 30  2  0  0  0  0
 25 26  2  0  0  0  0
 25 27  2  0  0  0  0
 25 28  1  0  0  0  0
 28 29  1  0  0  0  0
 28 62  1  0  0  0  0
 29 63  1  0  0  0  0
 29 64  1  0  0  0  0
 29 65  1  0  0  0  0
 30 31  1  0  0  0  0
 30 66  1  0  0  0  0
 32 33  1  0  0  0  0
 32 67  1  0  0  0  0
 33 34  2  0  0  0  0
 33 38  1  0  0  0  0
 34 35  1  0  0  0  0
 35 36  1  0  0  0  0
 35 68  1  0  0  0  0
 35 69  1  0  0  0  0
 36 37  1  0  0  0  0
 36 70  1  0  0  0  0
 36 71  1  0  0  0  0
 37 38  1  0  0  0  0
 37 72  1  0  0  0  0
 37 73  1  0  0  0  0
 38 74  1  0  0  0  0
 38 75  1  0  0  0  0
 39 40  1  0  0  0  0
 39 76  1  0  0  0  0
 39 77  1  0  0  0  0
 40 78  1  0  0  0  0
 40 79  1  0  0  0  0
M  END
$$$$
