CHEMBL3916975
 OpenBabel04072215373D

 66 69  0  0  0  0  0  0  0  0999 V2000
    1.0634   -1.2212   -2.5895 C   0  0  0  0  0  0  0  0  0  0  0  0
    2.5600   -1.4457   -2.3932 C   0  0  0  0  0  0  0  0  0  0  0  0
    2.9777   -2.1702   -1.1689 N   0  0  0  0  0  0  0  0  0  0  0  0
    2.3002   -3.4681   -1.0075 C   0  0  0  0  0  0  0  0  0  0  0  0
    2.6470   -4.5352   -2.0410 C   0  0  0  0  0  0  0  0  0  0  0  0
    4.4677   -2.2610   -1.1865 C   0  0  0  0  0  0  0  0  0  0  0  0
    5.1793   -2.8167    0.0788 C   0  0  0  0  0  0  0  0  0  0  0  0
    6.7023   -2.9800   -0.1124 N   0  0  0  0  0  0  0  0  0  0  0  0
    7.3924   -1.7269    0.1383 C   0  0  0  0  0  0  0  0  0  0  0  0
    6.6871   -0.4958    0.1864 C   0  0  0  0  0  0  0  0  0  0  0  0
    7.2887    0.7577    0.1523 C   0  0  0  0  0  0  0  0  0  0  0  0
    6.6199    1.9432    0.0034 O   0  0  0  0  0  0  0  0  0  0  0  0
    5.2102    1.8659   -0.2218 C   0  0  0  0  0  0  0  0  0  0  0  0
    8.6615    0.8233    0.2803 C   0  0  0  0  0  0  0  0  0  0  0  0
    9.3903   -0.3530    0.4763 C   0  0  0  0  0  0  0  0  0  0  0  0
   10.7339   -0.3637    0.7608 O   0  0  0  0  0  0  0  0  0  0  0  0
   11.2006    0.7912    1.4616 C   0  0  0  0  0  0  0  0  0  0  0  0
    8.7671   -1.6172    0.3597 C   0  0  0  0  0  0  0  0  0  0  0  0
    7.2046   -4.3233   -0.2602 C   0  0  0  0  0  0  0  0  0  0  0  0
    6.3727   -5.3541    0.1508 C   0  0  0  0  0  0  0  0  0  0  0  0
    6.8496   -6.6036    0.4181 C   0  0  0  0  0  0  0  0  0  0  0  0
    8.0763   -6.9914    0.0968 C   0  0  0  0  0  0  0  0  0  0  0  0
    8.2986   -8.2117    0.5383 N   0  0  0  0  0  0  0  0  0  0  0  0
    9.2190   -8.9068   -0.0835 C   0  0  0  0  0  0  0  0  0  0  0  0
    9.9523   -8.3489   -1.1171 C   0  0  0  0  0  0  0  0  0  0  0  0
   10.7322   -9.3301   -1.8761 C   0  0  0  0  0  0  0  0  0  0  0  0
   10.5598   -9.8862   -3.1714 C   0  0  0  0  0  0  0  0  0  0  0  0
   11.4536  -10.8546   -3.4493 N   0  0  0  0  0  0  0  0  0  0  0  0
   12.1702  -10.9315   -2.3162 N   0  0  0  0  0  0  0  0  0  0  0  0
   13.5240  -11.4342   -2.3221 C   0  0  0  0  0  0  0  0  0  0  0  0
   11.6061  -10.2284   -1.2843 C   0  0  0  0  0  0  0  0  0  0  0  0
    9.8701   -6.9936   -1.4263 N   0  0  0  0  0  0  0  0  0  0  0  0
    8.8849   -6.2185   -0.7735 C   0  0  0  0  0  0  0  0  0  0  0  0
    8.4635   -4.7863   -0.7972 C   0  0  0  0  0  0  0  0  0  0  0  0
    0.9115   -0.4877   -3.3903 H   0  0  0  0  0  0  0  0  0  0  0  0
    0.5865   -0.8287   -1.6866 H   0  0  0  0  0  0  0  0  0  0  0  0
    0.5509   -2.1394   -2.8931 H   0  0  0  0  0  0  0  0  0  0  0  0
    3.0184   -0.4492   -2.3645 H   0  0  0  0  0  0  0  0  0  0  0  0
    2.9537   -1.9430   -3.2877 H   0  0  0  0  0  0  0  0  0  0  0  0
    1.2135   -3.3173   -1.0049 H   0  0  0  0  0  0  0  0  0  0  0  0
    2.5052   -3.8673   -0.0063 H   0  0  0  0  0  0  0  0  0  0  0  0
    2.6141   -4.1471   -3.0625 H   0  0  0  0  0  0  0  0  0  0  0  0
    1.9284   -5.3591   -1.9839 H   0  0  0  0  0  0  0  0  0  0  0  0
    3.6439   -4.9486   -1.8609 H   0  0  0  0  0  0  0  0  0  0  0  0
    4.8164   -1.2417   -1.3574 H   0  0  0  0  0  0  0  0  0  0  0  0
    4.8077   -2.8273   -2.0590 H   0  0  0  0  0  0  0  0  0  0  0  0
    4.6564   -3.7295    0.3154 H   0  0  0  0  0  0  0  0  0  0  0  0
    4.9581   -2.2398    0.9909 H   0  0  0  0  0  0  0  0  0  0  0  0
    5.6128   -0.4845    0.2553 H   0  0  0  0  0  0  0  0  0  0  0  0
    4.8289    2.8811   -0.3635 H   0  0  0  0  0  0  0  0  0  0  0  0
    4.6992    1.4440    0.6507 H   0  0  0  0  0  0  0  0  0  0  0  0
    4.9730    1.2945   -1.1279 H   0  0  0  0  0  0  0  0  0  0  0  0
    9.1365    1.7974    0.2466 H   0  0  0  0  0  0  0  0  0  0  0  0
   12.1711    0.5499    1.9042 H   0  0  0  0  0  0  0  0  0  0  0  0
   10.5266    1.0742    2.2800 H   0  0  0  0  0  0  0  0  0  0  0  0
   11.3458    1.6306    0.7731 H   0  0  0  0  0  0  0  0  0  0  0  0
    9.3820   -2.5000    0.4985 H   0  0  0  0  0  0  0  0  0  0  0  0
    5.3274   -5.2819    0.3911 H   0  0  0  0  0  0  0  0  0  0  0  0
    6.1761   -7.3267    0.8545 H   0  0  0  0  0  0  0  0  0  0  0  0
    9.2772   -9.9400    0.2277 H   0  0  0  0  0  0  0  0  0  0  0  0
    9.8209   -9.6463   -3.9313 H   0  0  0  0  0  0  0  0  0  0  0  0
   13.7946  -11.7648   -3.3268 H   0  0  0  0  0  0  0  0  0  0  0  0
   13.6135  -12.2494   -1.6021 H   0  0  0  0  0  0  0  0  0  0  0  0
   14.1695  -10.5999   -2.0284 H   0  0  0  0  0  0  0  0  0  0  0  0
   11.9536  -10.3634   -0.2676 H   0  0  0  0  0  0  0  0  0  0  0  0
    9.1308   -4.0732   -1.3022 H   0  0  0  0  0  0  0  0  0  0  0  0
  1  2  1  0  0  0  0
  1 35  1  0  0  0  0
  1 36  1  0  0  0  0
  1 37  1  0  0  0  0
  2  3  1  0  0  0  0
  2 38  1  0  0  0  0
  2 39  1  0  0  0  0
  3  4  1  0  0  0  0
  3  6  1  0  0  0  0
  4  5  1  0  0  0  0
  4 40  1  0  0  0  0
  4 41  1  0  0  0  0
  5 42  1  0  0  0  0
  5 43  1  0  0  0  0
  5 44  1  0  0  0  0
  6  7  1  0  0  0  0
  6 45  1  0  0  0  0
  6 46  1  0  0  0  0
  7  8  1  0  0  0  0
  7 47  1  0  0  0  0
  7 48  1  0  0  0  0
  8  9  1  0  0  0  0
  8 19  1  0  0  0  0
  9 10  1  0  0  0  0
  9 18  2  0  0  0  0
 10 11  2  0  0  0  0
 10 49  1  0  0  0  0
 11 12  1  0  0  0  0
 11 14  1  0  0  0  0
 12 13  1  0  0  0  0
 13 50  1  0  0  0  0
 13 51  1  0  0  0  0
 13 52  1  0  0  0  0
 14 15  2  0  0  0  0
 14 53  1  0  0  0  0
 15 16  1  0  0  0  0
 15 18  1  0  0  0  0
 16 17  1  0  0  0  0
 17 54  1  0  0  0  0
 17 55  1  0  0  0  0
 17 56  1  0  0  0  0
 18 57  1  0  0  0  0
 19 20  1  0  0  0  0
 19 34  2  0  0  0  0
 20 21  2  0  0  0  0
 20 58  1  0  0  0  0
 21 22  1  0  0  0  0
 21 59  1  0  0  0  0
 22 23  1  0  0  0  0
 22 33  2  0  0  0  0
 23 24  2  0  0  0  0
 24 25  1  0  0  0  0
 24 60  1  0  0  0  0
 25 26  1  0  0  0  0
 25 32  2  0  0  0  0
 26 27  1  0  0  0  0
 26 31  2  0  0  0  0
 27 28  2  0  0  0  0
 27 61  1  0  0  0  0
 28 29  1  0  0  0  0
 29 30  1  0  0  0  0
 29 31  1  0  0  0  0
 30 62  1  0  0  0  0
 30 63  1  0  0  0  0
 30 64  1  0  0  0  0
 31 65  1  0  0  0  0
 32 33  1  0  0  0  0
 33 34  1  0  0  0  0
 34 66  1  0  0  0  0
M  END
$$$$
